drugbank_target|P08069 Insulin-like growth factor 1 receptor (DB00030; DB00046; DB00047; DB00071; DB01277; DB01306; DB01307; DB01309; DB04395; DB05023; DB05184; DB05897; DB06075; DB06343; DB07156; DB07474; DB09098; DB09564; DB12250; DB12267; DB14751)
 OpenBabel12092119413D

  0  0  0     0  0            999 V3000
M  V30 BEGIN CTAB
M  V30 COUNTS 21477 21732 0 0 0
M  V30 BEGIN ATOM
M  V30 1 H -0.908 1.98254 -0.117106 0
M  V30 2 N 0 1.576 0 0
M  V30 3 C 0.933 2.03868 1.02534 0
M  V30 4 C 1.911 0.928543 1.3348 0
M  V30 5 O 3.095 1.19667 1.45644 0
M  V30 6 C 0.222 2.43627 2.35294 0
M  V30 7 C -0.732 3.65373 2.2001 0
M  V30 8 S 0.101 5.13292 1.52614 0
M  V30 9 C 1.257 5.56322 2.86805 0
M  V30 10 H 1.49 2.90518 0.631377 0
M  V30 11 H -0.977 1.52953 0.210867 0
M  V30 12 H 0.981 2.67203 3.11629 0
M  V30 13 H -0.358 1.57376 2.7183 0
M  V30 14 H -1.165 3.90944 3.18086 0
M  V30 15 H -1.563 3.418 1.51819 0
M  V30 16 H 0.729 5.58782 3.83104 0
M  V30 17 H 1.672 6.56266 2.65933 0
M  V30 18 H 2.08 4.83886 2.90714 0
M  V30 19 N 1.4781 -0.272755 1.55222 0
M  V30 20 C 2.4251 -1.33716 1.88119 0
M  V30 21 C 3.3951 -1.49066 0.73271 0
M  V30 22 O 4.5801 -1.63469 0.984002 0
M  V30 23 C 1.7201 -2.69238 2.15882 0
M  V30 24 C 0.8331 -2.62108 3.43399 0
M  V30 25 C -0.0319 -3.89811 3.60861 0
M  V30 26 C -0.9929 -3.77193 4.8207 0
M  V30 27 N -1.8559 -4.9673 4.96189 0
M  V30 28 H 2.9841 -1.04962 2.78903 0
M  V30 29 H 0.5211 -0.507088 1.38083 0
M  V30 30 H 2.4791 -3.48089 2.29978 0
M  V30 31 H 1.1091 -2.96194 1.28331 0
M  V30 32 H 0.1611 -1.74967 3.37773 0
M  V30 33 H 1.4731 -2.48685 4.32386 0
M  V30 34 H 0.6271 -4.77103 3.74777 0
M  V30 35 H -0.6339 -4.06102 2.7006 0
M  V30 36 H -1.6289 -2.88284 4.68159 0
M  V30 37 H -0.4039 -3.62421 5.74307 0
M  V30 38 H -2.4579 -5.13431 4.08319 0
M  V30 39 H -2.5409 -4.85839 5.79221 0
M  V30 40 H -1.2729 -5.85594 5.1449 0
M  V30 41 N 2.9562 -1.48159 -0.537278 0
M  V30 42 C 4.1812 -1.59707 -1.32319 0
M  V30 43 C 4.6062 -0.254859 -1.86365 0
M  V30 44 O 3.9642 0.772378 -1.64024 0
M  V30 45 C 4.0122 -2.6412 -2.45505 0
M  V30 46 O 3.1162 -2.20774 -3.48328 0
M  V30 47 H 2.4572 -0.535791 -0.392204 0
M  V30 48 H 4.9872 -1.94092 -0.647268 0
M  V30 49 H 4.9972 -2.85166 -2.91795 0
M  V30 50 H 3.6722 -3.61567 -2.05528 0
M  V30 51 H 2.2492 -2.09911 -3.08207 0
M  V30 52 N 4.4343 0.785586 -1.36625 0
M  V30 53 C 5.6823 1.54057 -1.30808 0
M  V30 54 C 6.0033 1.94683 0.111157 0
M  V30 55 O 5.2733 1.65241 1.05224 0
M  V30 56 H 3.8533 0.571354 -0.481211 0
M  V30 57 H 6.5153 0.935821 -1.70963 0
M  V30 58 H 5.6113 2.44637 -1.93801 0
M  V30 59 N 5.9124 1.20967 1.01018 0
M  V30 60 C 7.1374 1.0503 1.78839 0
M  V30 61 C 7.5624 -0.395752 1.8389 0
M  V30 62 O 6.9204 -1.28529 1.27867 0
M  V30 63 C 6.9684 1.64602 3.2084 0
M  V30 64 O 6.0724 0.887988 4.02726 0
M  V30 65 H 5.4134 0.369987 0.551367 0
M  V30 66 H 7.9434 1.60399 1.27018 0
M  V30 67 H 7.9534 1.68607 3.71532 0
M  V30 68 H 6.6284 2.69841 3.16479 0
M  V30 69 H 5.2054 0.922648 3.61305 0
M  V30 70 N 7.3905 -1.2043 1.01659 0
M  V30 71 C 8.6385 -1.89423 0.704522 0
M  V30 72 C 8.9595 -1.79231 -0.768197 0
M  V30 73 O 8.2295 -1.1947 -1.55254 0
M  V30 74 H 6.8095 -0.701178 0.257602 0
M  V30 75 H 9.4715 -1.4626 1.28818 0
M  V30 76 H 8.5675 -2.96052 0.987916 0
M  V30 77 N 8.8686 -0.792821 -1.36206 0
M  V30 78 C 10.1166 -0.366062 -1.98757 0
M  V30 79 C 10.4376 1.0668 -1.63231 0
M  V30 80 O 9.7076 1.73587 -0.907978 0
M  V30 81 H 8.2876 -0.132364 -0.735179 0
M  V30 82 H 10.9496 -1.01562 -1.66347 0
M  V30 83 H 10.0456 -0.460638 -3.08682 0
M  V30 84 N 10.3467 1.47872 -0.545128 0
M  V30 85 C 11.5947 2.02093 -0.016553 0
M  V30 86 C 11.9157 1.42305 1.3332 0
M  V30 87 O 11.1857 0.593853 1.86682 0
M  V30 88 H 9.7657 0.746993 -0.00313038 0
M  V30 89 H 12.4277 1.81414 -0.712397 0
M  V30 90 H 11.5237 3.11996 0.0805422 0
M  V30 91 N 11.8248 0.280983 1.55075 0
M  V30 92 C 13.0498 -0.340154 2.04592 0
M  V30 93 C 13.4748 -1.48246 1.15779 0
M  V30 94 O 12.8328 -1.80614 0.15761 0
M  V30 95 C 12.8808 -0.793104 3.5177 0
M  V30 96 O 11.9848 -1.89981 3.66034 0
M  V30 97 H 11.3258 -0.0694289 0.66036 0
M  V30 98 H 13.8558 0.416993 2.00306 0
M  V30 99 H 13.8658 -1.08729 3.93245 0
M  V30 100 H 12.5408 0.0426163 4.15878 0
M  V30 101 H 11.1178 -1.60771 3.36463 0
M  V30 102 N 13.3029 -1.57598 0.00835791 0
M  V30 103 C 14.7139 -1.7892 -0.53333 0
M  V30 104 C 15.0649 -0.916609 -1.73473 0
M  V30 105 O 14.1899 -0.121336 -2.1606 0
M  V30 106 C 14.7849 -3.24488 -0.974313 0
M  V30 107 C 13.3439 -3.46878 -1.46125 0
M  V30 108 C 12.4909 -2.74157 -0.416302 0
M  V30 109 H 15.4419 -1.56958 0.234495 0
M  V30 110 H 15.4629 -3.3306 -1.83988 0
M  V30 111 H 14.9749 -3.87972 -0.099718 0
M  V30 112 H 13.0759 -2.8862 -2.35646 0
M  V30 113 H 13.1889 -4.55572 -1.48295 0
M  V30 114 H 11.5529 -2.39022 -0.87981 0
M  V30 115 H 12.3359 -3.40345 0.44947 0
M  V30 116 N 14.781 0.264519 -1.55364 0
M  V30 117 C 16.009 1.013 -1.80405 0
M  V30 118 C 16.424 1.79618 -0.581622 0
M  V30 119 O 15.781 1.76879 0.449468 0
M  V30 120 C 15.832 1.96487 -3.03439 0
M  V30 121 O 15.553 1.21341 -4.20961 0
M  V30 122 C 17.054 2.83079 -3.41147 0
M  V30 123 H 14.274 0.298875 -0.600762 0
M  V30 124 H 16.818 0.292736 -2.02394 0
M  V30 125 H 14.973 2.63965 -2.83551 0
M  V30 126 H 15.387 1.85573 -4.90574 0
M  V30 127 H 16.861 3.4565 -4.30384 0
M  V30 128 H 17.338 3.53286 -2.60932 0
M  V30 129 H 17.944 2.2108 -3.63323 0
M  V30 130 N 16.2591 1.48442 0.529413 0
M  V30 131 C 17.4841 1.60406 1.31471 0
M  V30 132 C 17.9091 0.264738 1.86228 0
M  V30 133 O 17.2671 -0.763668 1.64432 0
M  V30 134 C 17.3151 2.65419 2.44101 0
M  V30 135 O 16.4191 2.22618 3.47153 0
M  V30 136 H 15.7601 0.537863 0.389357 0
M  V30 137 H 18.2901 1.94432 0.636965 0
M  V30 138 H 18.3001 2.86709 2.90279 0
M  V30 139 H 16.9751 3.62652 2.03608 0
M  V30 140 H 15.5521 2.11543 3.0709 0
M  V30 141 N 17.7372 -0.778329 1.37039 0
M  V30 142 C 18.6672 -1.90546 1.34962 0
M  V30 143 C 19.6482 -1.68681 0.219274 0
M  V30 144 O 20.8332 -1.89634 0.418624 0
M  V30 145 C 17.9632 -3.27734 1.14925 0
M  V30 146 C 16.9172 -3.64147 2.24902 0
M  V30 147 C 16.2432 -4.99806 1.89996 0
M  V30 148 C 17.5432 -3.71579 3.67051 0
M  V30 149 H 19.2372 -1.92541 2.29277 0
M  V30 150 H 16.7832 -0.924948 1.10366 0
M  V30 151 H 18.7362 -4.06215 1.12104 0
M  V30 152 H 17.4602 -3.26154 0.170631 0
M  V30 153 H 16.1192 -2.8797 2.26868 0
M  V30 154 H 15.7672 -4.94759 0.906796 0
M  V30 155 H 15.4672 -5.25139 2.63634 0
M  V30 156 H 16.9912 -5.80694 1.88749 0
M  V30 157 H 18.4052 -4.40227 3.67251 0
M  V30 158 H 16.8022 -4.08405 4.39688 0
M  V30 159 H 17.8722 -2.72404 4.01154 0
M  V30 160 N 19.2153 -1.21501 -1.00376 0
M  V30 161 C 20.4613 -1.04457 -1.74529 0
M  V30 162 C 20.8163 0.417386 -1.87818 0
M  V30 163 O 20.1093 1.30556 -1.40234 0
M  V30 164 C 20.3033 -1.67673 -3.15627 0
M  V30 165 C 20.1323 -3.19865 -3.16096 0
M  V30 166 C 18.9023 -3.88915 -3.22604 0
M  V30 167 C 21.1003 -4.16936 -3.01112 0
M  V30 168 N 19.0823 -5.28284 -3.12712 0
M  V30 169 C 20.4533 -5.43066 -2.99131 0
M  V30 170 C 22.5083 -4.07968 -2.85423 0
M  V30 171 C 21.2113 -6.6126 -2.83068 0
M  V30 172 C 23.2373 -5.258 -2.70718 0
M  V30 173 C 22.5993 -6.50842 -2.69414 0
M  V30 174 H 18.6983 -0.436584 -0.648782 0
M  V30 175 H 21.2823 -1.53875 -1.19293 0
M  V30 176 H 19.4533 -1.20822 -3.6913 0
M  V30 177 H 21.1853 -1.43824 -3.78281 0
M  V30 178 H 17.9403 -3.39847 -3.2985 0
M  V30 179 H 18.3643 -6.01284 -3.11105 0
M  V30 180 H 23.0063 -3.1209 -2.85236 0
M  V30 181 H 20.7243 -7.57298 -2.82002 0
M  V30 182 H 24.3103 -5.20683 -2.59577 0
M  V30 183 H 23.1903 -7.40485 -2.5817 0
M  V30 184 N 20.6934 1.19889 -1.02296 0
M  V30 185 C 21.9414 1.89046 -0.714558 0
M  V30 186 C 22.2624 1.79636 0.758681 0
M  V30 187 O 21.5324 1.20292 1.54618 0
M  V30 188 H 20.1124 0.699802 -0.261317 0
M  V30 189 H 22.7744 1.45574 -1.29592 0
M  V30 190 H 21.8704 2.95524 -1.0036 0
M  V30 191 N 22.1715 0.800033 1.35784 0
M  V30 192 C 23.1015 0.220184 2.3246 0
M  V30 193 C 24.0825 -0.65073 1.57161 0
M  V30 194 O 25.2675 -0.582359 1.85263 0
M  V30 195 C 22.3975 -0.637353 3.41402 0
M  V30 196 C 21.3515 0.134531 4.27789 0
M  V30 197 C 20.6775 -0.844285 5.27992 0
M  V30 198 C 21.9775 1.32979 5.05088 0
M  V30 199 H 23.6715 1.02787 2.81203 0
M  V30 200 H 21.2175 0.495717 1.35199 0
M  V30 201 H 23.1705 -1.05302 4.08031 0
M  V30 202 H 21.8945 -1.47785 2.91251 0
M  V30 203 H 20.5535 0.531296 3.6273 0
M  V30 204 H 20.2015 -1.68011 4.74111 0
M  V30 205 H 19.9015 -0.332184 5.8666 0
M  V30 206 H 21.4255 -1.2583 5.97494 0
M  V30 207 H 22.8395 0.98934 5.64699 0
M  V30 208 H 21.2365 1.77593 5.7322 0
M  V30 209 H 22.3065 2.11978 4.36111 0
M  V30 210 N 23.6496 -1.47581 0.552962 0
M  V30 211 C 24.5796 -2.32762 -0.185451 0
M  V30 212 C 25.5606 -1.43527 -0.912905 0
M  V30 213 O 26.7456 -1.72388 -0.894201 0
M  V30 214 C 23.8756 -3.25219 -1.21859 0
M  V30 215 C 22.8296 -4.23661 -0.607864 0
M  V30 216 C 22.1556 -5.05413 -1.74533 0
M  V30 217 C 23.4556 -5.20481 0.435582 0
M  V30 218 H 25.1496 -2.94749 0.525684 0
M  V30 219 H 22.6956 -1.41738 0.254251 0
M  V30 220 H 24.6486 -3.8365 -1.7433 0
M  V30 221 H 23.3726 -2.61279 -1.95961 0
M  V30 222 H 22.0316 -3.66451 -0.104489 0
M  V30 223 H 21.6796 -4.3788 -2.47529 0
M  V30 224 H 21.3796 -5.72059 -1.34249 0
M  V30 225 H 22.9036 -5.66701 -2.27338 0
M  V30 226 H 24.3176 -5.733 -0.00290157 0
M  V30 227 H 22.7146 -5.95305 0.757067 0
M  V30 228 H 23.7846 -4.66217 1.33303 0
M  V30 229 N 25.1277 -0.289203 -1.54924 0
M  V30 230 C 26.3747 0.323519 -1.99899 0
M  V30 231 C 26.7027 1.54797 -1.17762 0
M  V30 232 O 25.9577 1.94237 -0.238835 0
M  V30 233 C 26.2567 0.736119 -3.49737 0
M  V30 234 C 25.9227 -0.385276 -4.49251 0
M  V30 235 C 24.5847 -0.693156 -4.76181 0
M  V30 236 C 26.9367 -1.14021 -5.08575 0
M  V30 237 C 24.2647 -1.7593 -5.59701 0
M  V30 238 C 26.6167 -2.19619 -5.93254 0
M  V30 239 C 25.2807 -2.51026 -6.185 0
M  V30 240 H 24.5507 0.118384 -0.731482 0
M  V30 241 H 27.1977 -0.405847 -1.8715 0
M  V30 242 H 25.5027 1.54539 -3.60035 0
M  V30 243 H 27.1997 1.22118 -3.81953 0
M  V30 244 H 23.7897 -0.135202 -4.28387 0
M  V30 245 H 27.9737 -0.915611 -4.87781 0
M  V30 246 H 23.2297 -2.0075 -5.77503 0
M  V30 247 H 27.4037 -2.78581 -6.38252 0
M  V30 248 H 25.0307 -3.33772 -6.83008 0
M  V30 249 N 26.6058 1.57591 -0.0167156 0
M  V30 250 C 27.5358 2.12496 0.967858 0
M  V30 251 C 28.5168 1.03807 1.34752 0
M  V30 252 O 29.7018 1.31577 1.42833 0
M  V30 253 C 26.8318 2.64194 2.25431 0
M  V30 254 C 25.7858 3.77559 2.01576 0
M  V30 255 C 25.1118 4.15636 3.36379 0
M  V30 256 C 26.4118 5.04151 1.36489 0
M  V30 257 H 28.1058 2.95013 0.510643 0
M  V30 258 H 25.6518 1.41915 0.244181 0
M  V30 259 H 27.6048 3.01236 2.94678 0
M  V30 260 H 26.3288 1.78821 2.73296 0
M  V30 261 H 24.9878 3.40937 1.34751 0
M  V30 262 H 24.6358 3.27263 3.81979 0
M  V30 263 H 24.3358 4.92022 3.21229 0
M  V30 264 H 25.8598 4.5525 4.06915 0
M  V30 265 H 27.2738 5.38857 1.95718 0
M  V30 266 H 25.6708 5.85453 1.31776 0
M  V30 267 H 26.7408 4.83733 0.336219 0
M  V30 268 N 28.0839 -0.256276 1.55502 0
M  V30 269 C 29.3089 -1.00766 1.81276 0
M  V30 270 C 29.7339 -1.78524 0.59252 0
M  V30 271 O 29.0919 -1.75413 -0.45827 0
M  V30 272 C 29.1399 -1.92869 3.04687 0
M  V30 273 O 28.2439 -3.019 2.80945 0
M  V30 274 H 27.5849 -0.287224 0.598664 0
M  V30 275 H 30.1149 -0.280109 2.02674 0
M  V30 276 H 30.1249 -2.34511 3.33869 0
M  V30 277 H 28.7999 -1.35689 3.93143 0
M  V30 278 H 27.3769 -2.64454 2.62904 0
M  V30 279 N 29.562 -1.4872 -0.521534 0
M  V30 280 C 30.525 -1.63379 -1.60748 0
M  V30 281 C 31.525 -0.50661 -1.52611 0
M  V30 282 O 32.715 -0.772601 -1.5613 0
M  V30 283 C 29.847 -1.61192 -3.00383 0
M  V30 284 H 31.04 -2.60217 -1.49087 0
M  V30 285 H 28.593 -1.37444 -0.744235 0
M  V30 286 H 29.328 -0.65863 -3.17541 0
M  V30 287 H 29.113 -2.43032 -3.07698 0
M  V30 288 H 30.603 -1.7466 -3.7932 0
M  V30 289 N 31.0401 0.771051 -1.3745 0
M  V30 290 C 32.0031 1.86598 -1.33093 0
M  V30 291 C 33.0031 1.59076 -0.234845 0
M  V30 292 O 34.1931 1.67145 -0.490732 0
M  V30 293 C 31.3251 3.23747 -1.06773 0
M  V30 294 H 32.5181 1.91873 -2.30488 0
M  V30 295 H 30.0711 0.970876 -1.2249 0
M  V30 296 H 30.8061 3.24148 -0.099129 0
M  V30 297 H 30.5911 3.45115 -1.86112 0
M  V30 298 H 32.0811 4.03824 -1.06377 0
M  V30 299 N 32.5182 1.22032 0.997298 0
M  V30 300 C 33.4482 1.01065 2.10495 0
M  V30 301 C 34.4292 -0.0669542 1.69968 0
M  V30 302 O 35.6142 0.0943987 1.9397 0
M  V30 303 C 32.7442 0.582874 3.42374 0
M  V30 304 C 31.6982 1.60592 3.96729 0
M  V30 305 C 31.0242 1.03412 5.24605 0
M  V30 306 C 32.3242 2.99478 4.27914 0
M  V30 307 H 34.0182 1.93708 2.28292 0
M  V30 308 H 31.5642 0.932761 1.09707 0
M  V30 309 H 33.5172 0.423332 4.19268 0
M  V30 310 H 32.2412 -0.379213 3.24391 0
M  V30 311 H 30.9002 1.75316 3.21963 0
M  V30 312 H 30.5482 0.063518 5.0296 0
M  V30 313 H 30.2482 1.71754 5.61938 0
M  V30 314 H 31.7722 0.886066 6.04137 0
M  V30 315 H 33.1862 2.88153 4.95622 0
M  V30 316 H 31.5832 3.64903 4.76409 0
M  V30 317 H 32.6532 3.49742 3.3587 0
M  V30 318 N 33.9963 -1.19345 1.0293 0
M  V30 319 C 35.2213 -1.93538 0.745511 0
M  V30 320 C 35.6463 -1.75007 -0.689511 0
M  V30 321 O 35.0043 -1.05265 -1.47611 0
M  V30 322 C 35.0523 -3.43336 1.10239 0
M  V30 323 O 34.1563 -4.11806 0.221289 0
M  V30 324 H 33.4973 -0.604193 0.275404 0
M  V30 325 H 36.0273 -1.5141 1.37609 0
M  V30 326 H 36.0373 -3.94004 1.05947 0
M  V30 327 H 34.7123 -3.56146 2.14786 0
M  V30 328 H 33.2893 -3.715 0.322842 0
M  V30 329 N 35.4744 -0.807222 -1.35358 0
M  V30 330 C 36.4044 -0.232509 -2.3234 0
M  V30 331 C 37.3854 0.642386 -1.57504 0
M  V30 332 O 38.5704 0.572526 -1.85569 0
M  V30 333 C 35.7004 0.619238 -3.41735 0
M  V30 334 C 34.6544 -0.157215 -4.27711 0
M  V30 335 C 33.9804 0.816273 -5.28433 0
M  V30 336 C 35.2804 -1.35656 -5.04376 0
M  V30 337 H 36.9744 -1.04276 -2.80654 0
M  V30 338 H 34.5204 -0.50288 -1.34934 0
M  V30 339 H 36.4734 1.03137 -4.08584 0
M  V30 340 H 35.1974 1.46239 -2.92031 0
M  V30 341 H 33.8564 -0.550525 -3.62443 0
M  V30 342 H 33.5044 1.65494 -4.74996 0
M  V30 343 H 33.2044 0.301067 -5.86828 0
M  V30 344 H 34.7284 1.22659 -5.98153 0
M  V30 345 H 36.1424 -1.01927 -5.64166 0
M  V30 346 H 34.5394 -1.8063 -5.7227 0
M  V30 347 H 35.6094 -2.14288 -4.34981 0
M  V30 348 N 36.9525 1.47285 -0.560781 0
M  V30 349 C 38.1985 2.03347 -0.0463654 0
M  V30 350 C 38.5535 1.42702 1.2905 0
M  V30 351 O 37.8465 0.574619 1.8278 0
M  V30 352 C 38.0405 3.57258 0.100784 0
M  V30 353 C 37.8695 4.32827 -1.22027 0
M  V30 354 C 36.6395 4.72588 -1.78854 0
M  V30 355 C 38.8375 4.67739 -2.13834 0
M  V30 356 N 36.8195 5.32816 -3.04927 0
M  V30 357 C 38.1905 5.28307 -3.24487 0
M  V30 358 C 40.2455 4.49667 -2.13784 0
M  V30 359 C 38.9485 5.72711 -4.35194 0
M  V30 360 C 40.9745 4.95073 -3.23506 0
M  V30 361 C 40.3365 5.55693 -4.32879 0
M  V30 362 H 36.4355 0.779755 -0.0592166 0
M  V30 363 H 39.0195 1.79723 -0.748857 0
M  V30 364 H 37.1905 3.80642 0.772404 0
M  V30 365 H 38.9225 3.9996 0.617589 0
M  V30 366 H 35.6775 4.54656 -1.32609 0
M  V30 367 H 36.1015 5.67471 -3.69197 0
M  V30 368 H 40.7435 4.02154 -1.30507 0
M  V30 369 H 38.4615 6.19214 -5.1923 0
M  V30 370 H 42.0475 4.82859 -3.24559 0
M  V30 371 H 40.9275 5.90188 -5.1638 0
M  V30 372 N 38.4306 0.297415 1.54768 0
M  V30 373 C 39.8416 -0.195947 1.85669 0
M  V30 374 C 40.1926 -1.53707 1.21937 0
M  V30 375 O 39.3176 -2.10164 0.515754 0
M  V30 376 C 39.9126 -0.362318 3.36857 0
M  V30 377 C 38.4716 -0.799901 3.67802 0
M  V30 378 C 37.6186 0.0938578 2.77141 0
M  V30 379 H 40.5696 0.518538 1.4999 0
M  V30 380 H 40.5906 -1.19745 3.61167 0
M  V30 381 H 40.1026 0.613921 3.83214 0
M  V30 382 H 38.2036 -1.78682 3.26961 0
M  V30 383 H 38.3166 -0.621773 4.75048 0
M  V30 384 H 36.6806 -0.426254 2.51108 0
M  V30 385 H 37.4636 1.06639 3.26318 0
M  V30 386 N 39.9087 -1.5758 0.0250728 0
M  V30 387 C 41.1367 -1.9593 -0.664747 0
M  V30 388 C 41.5517 -0.901352 -1.65895 0
M  V30 389 O 40.9087 0.117255 -1.82123 0
M  V30 390 C 40.9597 -3.34342 -1.37468 0
M  V30 391 O 40.6807 -4.36079 -0.420324 0
M  V30 392 C 42.1817 -3.873 -2.1567 0
M  V30 393 H 39.4017 -0.645405 -0.183557 0
M  V30 394 H 41.9457 -2.04329 0.0836372 0
M  V30 395 H 40.1007 -3.27175 -2.0745 0
M  V30 396 H 40.5147 -5.16297 -0.923991 0
M  V30 397 H 41.9887 -4.86504 -2.60803 0
M  V30 398 H 42.4657 -3.21331 -2.99405 0
M  V30 399 H 43.0717 -3.97723 -1.50654 0
M  V30 400 N 41.3868 0.248026 -1.55636 0
M  V30 401 C 42.6118 0.998028 -1.81808 0
M  V30 402 C 43.0368 1.78207 -0.601979 0
M  V30 403 O 42.3948 1.75653 0.448961 0
M  V30 404 C 42.4428 1.9125 -3.05705 0
M  V30 405 O 41.5468 3.00406 -2.82542 0
M  V30 406 H 40.8878 0.284045 -0.600179 0
M  V30 407 H 43.4178 0.269357 -2.02819 0
M  V30 408 H 43.4278 2.32737 -3.35108 0
M  V30 409 H 42.1028 1.33602 -3.93857 0
M  V30 410 H 40.6798 2.63056 -2.64303 0
M  V30 411 N 42.8649 1.48995 0.513639 0
M  V30 412 C 44.1129 1.57531 1.26604 0
M  V30 413 C 44.4339 0.258236 1.93283 0
M  V30 414 O 43.7039 -0.721502 1.8213 0
M  V30 415 H 42.2839 0.580387 0.470276 0
M  V30 416 H 44.9459 1.85552 0.596373 0
M  V30 417 H 44.0419 2.36486 2.03669 0
M  V30 418 N 44.343 -0.763751 1.37857 0
M  V30 419 C 45.253 -1.90817 1.36478 0
M  V30 420 C 46.269 -1.71997 0.263248 0
M  V30 421 O 47.445 -1.95095 0.499979 0
M  V30 422 C 44.51 -3.2605 1.17864 0
M  V30 423 C 43.571 -3.57467 2.3773 0
M  V30 424 C 42.804 -4.86249 2.19995 0
M  V30 425 O 43.027 -5.57884 1.18836 0
M  V30 426 O 41.961 -5.16911 3.08361 0
M  V30 427 H 45.787 -1.94933 2.32884 0
M  V30 428 H 43.372 -0.907619 1.1867 0
M  V30 429 H 45.254 -4.06924 1.09504 0
M  V30 430 H 43.929 -3.22769 0.245372 0
M  V30 431 H 42.836 -2.76796 2.51664 0
M  V30 432 H 44.169 -3.655 3.29652 0
M  V30 433 N 45.8211 -1.22559 -0.990812 0
M  V30 434 C 47.0701 -1.04553 -1.72486 0
M  V30 435 C 47.3831 0.419349 -1.91052 0
M  V30 436 O 48.5891 0.719121 -2.61803 0
M  V30 437 C 47.0451 -1.82231 -3.10355 0
M  V30 438 C 46.6531 -3.32981 -2.99713 0
M  V30 439 C 48.3971 -1.7268 -3.87791 0
M  V30 440 C 46.3041 -4.03091 -4.32748 0
M  V30 441 H 45.2341 -0.387614 -0.646739 0
M  V30 442 H 47.8851 -1.46429 -1.10593 0
M  V30 443 H 46.2671 -1.33155 -3.72942 0
M  V30 444 H 47.4411 -3.89466 -2.46278 0
M  V30 445 H 45.7561 -3.43231 -2.35758 0
M  V30 446 H 48.3531 -2.22381 -4.86262 0
M  V30 447 H 48.6961 -0.687607 -4.10582 0
M  V30 448 H 49.2291 -2.1931 -3.31885 0
M  V30 449 H 45.9681 -5.07273 -4.15156 0
M  V30 450 H 45.4881 -3.51394 -4.86089 0
M  V30 451 H 47.1671 -4.08804 -5.01486 0
M  V30 452 N 47.2992 1.18797 -1.03562 0
M  V30 453 C 48.5392 1.90346 -0.744832 0
M  V30 454 C 48.9032 1.78231 0.713972 0
M  V30 455 O 50.1042 2.44441 1.11813 0
M  V30 456 C 48.3752 3.36942 -1.19184 0
M  V30 457 S 49.9342 4.26638 -1.02593 0
M  V30 458 H 46.7522 0.657343 -0.270963 0
M  V30 459 H 49.3542 1.43579 -1.32685 0
M  V30 460 H 48.0582 3.43287 -2.24905 0
M  V30 461 H 47.5892 3.88745 -0.603397 0
M  V30 462 H 49.6042 4.96164 0.0596033 0
M  V30 463 N 48.7773 0.814389 1.34928 0
M  V30 464 C 50.0253 0.397636 1.9815 0
M  V30 465 C 50.3463 -1.04069 1.64908 0
M  V30 466 O 49.6163 -1.72121 0.93548 0
M  V30 467 H 48.1963 0.144043 0.732981 0
M  V30 468 H 50.8583 1.04195 1.6471 0
M  V30 469 H 49.9543 0.509688 3.0791 0
M  V30 470 N 50.2554 -1.46986 0.568584 0
M  V30 471 C 51.6664 -1.86188 0.138219 0
M  V30 472 C 52.0174 -1.47388 -1.29504 0
M  V30 473 O 51.1424 -0.88219 -1.97602 0
M  V30 474 C 51.7374 -3.3792 0.244065 0
M  V30 475 C 50.2964 -3.76171 -0.131335 0
M  V30 476 C 49.4434 -2.71027 0.586465 0
M  V30 477 H 52.3944 -1.38342 0.777645 0
M  V30 478 H 52.4154 -3.76729 -0.534351 0
M  V30 479 H 51.9274 -3.66128 1.28731 0
M  V30 480 H 50.0284 -3.5358 -1.17526 0
M  V30 481 H 50.1414 -4.78523 0.235146 0
M  V30 482 H 48.5054 -2.54684 0.0282722 0
M  V30 483 H 49.2884 -3.02077 1.63109 0
M  V30 484 N 51.7335 -0.305618 -1.54608 0
M  V30 485 C 52.9815 0.301701 -1.99835 0
M  V30 486 C 53.3025 1.54054 -1.19551 0
M  V30 487 O 52.5725 1.93702 -0.292658 0
M  V30 488 H 51.1525 0.114468 -0.738178 0
M  V30 489 H 53.8145 -0.418016 -1.90364 0
M  V30 490 H 52.9105 0.570548 -3.06841 0
M  V30 491 N 53.2116 1.57565 -0.0334293 0
M  V30 492 C 54.4606 1.91155 0.643639 0
M  V30 493 C 54.7736 0.91192 1.73042 0
M  V30 494 O 55.9796 1.13923 2.46442 0
M  V30 495 C 54.4356 3.39443 1.1961 0
M  V30 496 C 54.0436 4.47774 0.142381 0
M  V30 497 C 55.7876 3.82094 1.84944 0
M  V30 498 C 53.6946 5.87162 0.706727 0
M  V30 499 H 52.6246 0.713368 0.244176 0
M  V30 500 H 55.2756 1.8323 -0.0994323 0
M  V30 501 H 53.6576 3.42313 1.99092 0
M  V30 502 H 54.8316 4.56469 -0.630296 0
M  V30 503 H 53.1466 4.14352 -0.412446 0
M  V30 504 H 55.7436 4.83591 2.2813 0
M  V30 505 H 56.0866 3.17386 2.69392 0
M  V30 506 H 56.6196 3.81665 1.12145 0
M  V30 507 H 53.3586 6.55424 -0.0997178 0
M  V30 508 H 52.8786 5.82064 1.44779 0
M  V30 509 H 54.5576 6.35866 1.19514 0
M  V30 510 N 54.6897 -0.239769 1.55765 0
M  V30 511 C 55.9667 -0.990056 1.68693 0
M  V30 512 C 56.3467 -2.03107 0.5754 0
M  V30 513 O 55.6947 -2.24604 -0.42017 0
M  V30 514 C 55.9047 -1.61696 3.09282 0
M  V30 515 C 57.2527 -2.11613 3.6811 0
M  V30 516 O 58.2767 -1.71624 3.12127 0
M  V30 517 O 57.1357 -2.85057 4.66267 0
M  V30 518 H 54.2297 -0.461299 0.686391 0
M  V30 519 H 56.7757 -0.232991 1.68093 0
M  V30 520 H 55.5477 -0.864357 3.81634 0
M  V30 521 H 55.1707 -2.44005 3.13923 0
M  V30 522 N 56.1678 -1.49265 -0.50573 0
M  V30 523 C 57.4168 -1.57761 -1.25675 0
M  V30 524 C 57.7298 -0.267371 -1.93764 0
M  V30 525 O 58.9358 -0.230827 -2.70517 0
M  V30 526 C 57.3918 -2.78332 -2.28165 0
M  V30 527 C 56.9998 -4.16096 -1.66037 0
M  V30 528 C 58.7438 -2.96155 -3.04125 0
M  V30 529 C 56.6508 -5.27895 -2.6661 0
M  V30 530 H 55.5808 -0.587391 -0.472745 0
M  V30 531 H 58.2318 -1.75644 -0.53118 0
M  V30 532 H 56.6138 -2.53934 -3.03865 0
M  V30 533 H 57.7878 -4.50612 -0.963622 0
M  V30 534 H 56.1028 -4.03591 -1.02484 0
M  V30 535 H 58.6998 -3.76849 -3.79327 0
M  V30 536 H 59.0428 -2.06534 -3.61455 0
M  V30 537 H 59.5758 -3.2057 -2.35541 0
M  V30 538 H 56.3148 -6.1956 -2.14068 0
M  V30 539 H 55.8348 -4.97839 -3.34539 0
M  V30 540 H 57.5138 -5.57031 -3.29129 0
M  V30 541 N 57.6459 0.756429 -1.3826 0
M  V30 542 C 59.0619 1.0591 -1.19395 0
M  V30 543 C 59.2619 2.01459 -0.0406567 0
M  V30 544 O 58.3179 2.44909 0.614467 0
M  V30 545 C 59.6309 1.64191 -2.51916 0
M  V30 546 C 61.1789 1.76376 -2.58574 0
M  V30 547 C 61.6539 2.38069 -3.91264 0
M  V30 548 N 63.1449 2.45503 -3.92788 0
M  V30 549 C 63.8799 2.94126 -4.92217 0
M  V30 550 N 63.3759 3.42805 -6.02043 0
M  V30 551 N 65.1689 2.9314 -4.7961 0
M  V30 552 H 57.3199 0.122313 -2.12048 0
M  V30 553 H 59.5829 0.116892 -0.940766 0
M  V30 554 H 59.2889 1.01451 -3.3675 0
M  V30 555 H 59.1629 2.6329 -2.70108 0
M  V30 556 H 61.5499 2.38244 -1.74137 0
M  V30 557 H 61.6309 0.759894 -2.44252 0
M  V30 558 H 61.2749 1.76835 -4.76121 0
M  V30 559 H 61.2049 3.39091 -4.02895 0
M  V30 560 H 63.6959 2.1107 -3.13461 0
M  V30 561 H 64.0089 3.78354 -6.73846 0
M  V30 562 H 62.3539 3.4087 -6.05667 0
M  V30 563 H 65.5449 2.54419 -3.92923 0
M  V30 564 H 65.7179 3.30721 -5.5725 0
M  V30 565 N 59.124 1.23083 0.984299 0
M  V30 566 C 60.072 1.00593 2.09723 0
M  V30 567 C 61.066 -0.0538014 1.69315 0
M  V30 568 O 62.272 0.0993719 1.79725 0
M  V30 569 H 58.647 0.30817 0.685956 0
M  V30 570 H 60.618 1.95012 2.2586 0
M  V30 571 C 59.367 0.609601 3.42314 0
M  V30 572 H 58.69 1.41675 3.73856 0
M  V30 573 H 60.13 0.491726 4.21139 0
M  V30 574 C 58.589 -0.681745 3.2993 0
M  V30 575 O 59.119 -1.73192 3.62446 0
M  V30 576 N 57.325 -0.656178 2.83095 0
M  V30 577 H 56.872 0.198759 2.56832 0
M  V30 578 H 56.83 -1.52044 2.75191 0
M  V30 579 N 60.6021 -1.18246 1.0419 0
M  V30 580 C 61.8791 -1.84121 0.660208 0
M  V30 581 C 62.2591 -1.92778 -0.860221 0
M  V30 582 O 61.6071 -1.45464 -1.76217 0
M  V30 583 C 61.8171 -3.22355 1.33747 0
M  V30 584 C 63.1651 -3.98376 1.46906 0
M  V30 585 O 64.1891 -3.31799 1.29568 0
M  V30 586 O 63.0481 -5.17665 1.75171 0
M  V30 587 H 60.1421 -0.794036 0.231161 0
M  V30 588 H 62.6881 -1.25628 1.14087 0
M  V30 589 H 61.4601 -3.10964 2.37522 0
M  V30 590 H 61.0831 -3.88506 0.845515 0
M  V30 591 N 62.0802 -0.821533 -1.34494 0
M  V30 592 C 63.3102 -0.421272 -2.02259 0
M  V30 593 C 63.7182 0.977047 -1.6202 0
M  V30 594 O 63.0612 1.64348 -0.820703 0
M  V30 595 C 63.1232 -0.44231 -3.56769 0
M  V30 596 C 62.7872 -1.79372 -4.20327 0
M  V30 597 C 63.7842 -2.75435 -4.40944 0
M  V30 598 C 61.4692 -2.08182 -4.57127 0
M  V30 599 C 63.4632 -3.98482 -4.97484 0
M  V30 600 C 61.1502 -3.31489 -5.13379 0
M  V30 601 C 62.1482 -4.26457 -5.33501 0
M  V30 602 O 61.8362 -5.47585 -5.88562 0
M  V30 603 H 61.5682 -0.167473 -0.654927 0
M  V30 604 H 64.1222 -1.11073 -1.72777 0
M  V30 605 H 62.3522 0.303836 -3.85505 0
M  V30 606 H 64.0412 -0.0622925 -4.05852 0
M  V30 607 H 64.8072 -2.54473 -4.12878 0
M  V30 608 H 60.6862 -1.35066 -4.4077 0
M  V30 609 H 64.2302 -4.72618 -5.13106 0
M  V30 610 H 60.1272 -3.52316 -5.40873 0
M  V30 611 H 60.8952 -5.49086 -6.06998 0
M  V30 612 N 63.5583 1.46682 -0.576371 0
M  V30 613 C 64.4903 2.28341 0.198231 0
M  V30 614 C 65.5033 1.38141 0.861453 0
M  V30 615 O 66.6923 1.62797 0.732082 0
M  V30 616 C 63.7923 3.12986 1.29972 0
M  V30 617 C 62.9653 4.31271 0.729639 0
M  V30 618 C 62.0243 4.97363 1.71803 0
M  V30 619 O 61.0503 5.55156 1.25658 0
M  V30 620 N 62.2523 4.93796 3.05198 0
M  V30 621 H 65.0173 2.9546 -0.502324 0
M  V30 622 H 62.5783 1.56525 -0.413715 0
M  V30 623 H 64.5703 3.54066 1.96008 0
M  V30 624 H 63.1403 2.47984 1.90323 0
M  V30 625 H 62.3603 3.94052 -0.108012 0
M  V30 626 H 63.6483 5.07739 0.328438 0
M  V30 627 H 63.0463 4.48077 3.45317 0
M  V30 628 H 61.6033 5.38837 3.6674 0
M  V30 629 N 65.0364 0.313813 1.54444 0
M  V30 630 C 65.9684 -0.590425 2.21465 0
M  V30 631 C 66.9814 -1.08753 1.21147 0
M  V30 632 O 68.1704 -1.00278 1.4767 0
M  V30 633 C 65.2704 -1.82179 2.85769 0
M  V30 634 C 64.4434 -1.46502 4.12136 0
M  V30 635 C 63.5024 -2.55288 4.60124 0
M  V30 636 O 62.5284 -2.19842 5.25032 0
M  V30 637 N 63.7304 -3.86053 4.33525 0
M  V30 638 H 66.4954 -0.0166033 2.99695 0
M  V30 639 H 64.0564 0.136578 1.61323 0
M  V30 640 H 66.0484 -2.54328 3.14801 0
M  V30 641 H 64.6184 -2.30369 2.11303 0
M  V30 642 H 63.8384 -0.575595 3.89975 0
M  V30 643 H 65.1264 -1.20221 4.94393 0
M  V30 644 H 64.5244 -4.17654 3.81552 0
M  V30 645 H 63.0814 -4.54461 4.67235 0
M  V30 646 N 66.5145 -1.57545 0.0417849 0
M  V30 647 C 67.4445 -2.14009 -0.933929 0
M  V30 648 C 68.4255 -1.05938 -1.33083 0
M  V30 649 O 69.6105 -1.33833 -1.40721 0
M  V30 650 C 66.7405 -2.67747 -2.21199 0
M  V30 651 C 65.6945 -3.80718 -1.95544 0
M  V30 652 C 65.0205 -4.20935 -3.29724 0
M  V30 653 C 66.3205 -5.06258 -1.28452 0
M  V30 654 H 68.0145 -2.95788 -0.463645 0
M  V30 655 H 65.5605 -1.42285 -0.221573 0
M  V30 656 H 67.5135 -3.05886 -2.89848 0
M  V30 657 H 66.2375 -1.83147 -2.70416 0
M  V30 658 H 64.8965 -3.43037 -1.2931 0
M  V30 659 H 64.5445 -3.33298 -3.76724 0
M  V30 660 H 64.2445 -4.9707 -3.13361 0
M  V30 661 H 65.7685 -4.61666 -3.9962 0
M  V30 662 H 67.1825 -5.41903 -1.8712 0
M  V30 663 H 65.5795 -5.87475 -1.22445 0
M  V30 664 H 66.6495 -4.84207 -0.259219 0
M  V30 665 N 67.9926 0.231505 -1.5589 0
M  V30 666 C 68.9396 1.28682 -1.91598 0
M  V30 667 C 69.9096 1.47071 -0.771974 0
M  V30 668 O 71.0946 1.60802 -1.027 0
M  V30 669 C 68.2346 2.6342 -2.22944 0
M  V30 670 C 67.3476 2.52912 -3.50228 0
M  V30 671 C 66.4826 3.80106 -3.7107 0
M  V30 672 C 65.5216 3.64279 -4.91902 0
M  V30 673 N 64.6586 4.834 -5.09184 0
M  V30 674 H 69.4986 0.975305 -2.81588 0
M  V30 675 H 67.0356 0.470299 -1.39379 0
M  V30 676 H 68.9936 3.41869 -2.39126 0
M  V30 677 H 67.6236 2.92687 -1.36139 0
M  V30 678 H 66.6756 1.6595 -3.42294 0
M  V30 679 H 67.9876 2.37133 -4.38827 0
M  V30 680 H 67.1416 4.66999 -3.87295 0
M  V30 681 H 65.8806 3.98799 -2.80733 0
M  V30 682 H 64.8856 2.7577 -4.75637 0
M  V30 683 H 66.1106 3.47067 -5.83714 0
M  V30 684 H 64.0566 5.02425 -4.21788 0
M  V30 685 H 63.9736 4.70311 -5.91898 0
M  V30 686 H 65.2416 5.71747 -5.29835 0
M  V30 687 N 69.4707 1.49531 0.497807 0
M  V30 688 C 70.8867 1.36365 0.829266 0
M  V30 689 C 71.0867 0.399184 1.97506 0
M  V30 690 O 70.1427 -0.167977 2.51941 0
M  V30 691 C 71.4557 2.77153 1.16647 0
M  V30 692 C 73.0037 2.85877 1.27449 0
M  V30 693 C 73.4787 4.2744 1.64497 0
M  V30 694 N 74.9697 4.30265 1.7154 0
M  V30 695 C 75.7047 5.3677 2.01656 0
M  V30 696 N 75.2007 6.53516 2.29976 0
M  V30 697 N 76.9937 5.24189 2.02934 0
M  V30 698 H 69.1447 2.10831 -0.257703 0
M  V30 699 H 71.4077 0.946534 -0.0527091 0
M  V30 700 H 71.1137 3.49442 0.397872 0
M  V30 701 H 70.9877 3.12722 2.10915 0
M  V30 702 H 73.3747 2.13824 2.0338 0
M  V30 703 H 73.4557 2.53887 0.312244 0
M  V30 704 H 73.0997 5.00021 0.891151 0
M  V30 705 H 73.0297 4.56896 2.61827 0
M  V30 706 H 75.5207 3.4607 1.51802 0
M  V30 707 H 75.8337 7.30506 2.52153 0
M  V30 708 H 74.1787 6.56737 2.27425 0
M  V30 709 H 77.3697 4.31988 1.80289 0
M  V30 710 H 77.5427 6.07286 2.26071 0
M  V30 711 N 70.9488 -0.749086 1.3866 0
M  V30 712 C 71.8788 -1.8764 1.38973 0
M  V30 713 C 72.8598 -1.68178 0.255004 0
M  V30 714 O 74.0448 -1.88704 0.458754 0
M  V30 715 C 71.1748 -3.25222 1.21851 0
M  V30 716 C 70.1288 -3.59295 2.32575 0
M  V30 717 C 69.4548 -4.95663 2.00555 0
M  V30 718 C 70.7548 -3.63709 3.7485 0
M  V30 719 H 72.4488 -1.87635 2.3331 0
M  V30 720 H 69.9948 -0.901329 1.12303 0
M  V30 721 H 71.9478 -4.03746 1.20695 0
M  V30 722 H 70.6718 -3.25719 0.239775 0
M  V30 723 H 69.3308 -2.83093 2.32925 0
M  V30 724 H 68.9788 -4.92724 1.01154 0
M  V30 725 H 68.6788 -5.19429 2.74714 0
M  V30 726 H 70.2028 -5.7656 2.01024 0
M  V30 727 H 71.6168 -4.32338 3.76506 0
M  V30 728 H 70.0138 -3.98986 4.48252 0
M  V30 729 H 71.0838 -2.63834 4.06841 0
M  V30 730 N 72.4269 -1.23603 -0.977757 0
M  V30 731 C 73.3369 -1.03632 -2.1047 0
M  V30 732 C 74.3529 0.0199435 -1.73989 0
M  V30 733 O 75.5289 -0.176076 -2.00629 0
M  V30 734 C 72.5939 -0.63276 -3.40877 0
M  V30 735 C 71.6549 -1.76437 -3.91367 0
M  V30 736 C 70.8879 -1.37997 -5.15551 0
M  V30 737 O 71.1109 -0.265357 -5.69782 0
M  V30 738 O 70.0449 -2.20201 -5.60174 0
M  V30 739 H 73.8709 -1.98086 -2.30208 0
M  V30 740 H 71.4559 -1.02332 -1.08851 0
M  V30 741 H 73.3379 -0.418761 -4.19314 0
M  V30 742 H 72.0129 0.282754 -3.22463 0
M  V30 743 H 70.9199 -2.03304 -3.14036 0
M  V30 744 H 72.2529 -2.6583 -4.14241 0
M  V30 745 N 73.905 1.17692 -1.04816 0
M  V30 746 C 74.853 2.23632 -0.63966 0
M  V30 747 C 75.847 1.6601 0.337219 0
M  V30 748 O 77.053 1.78844 0.203693 0
M  V30 749 H 73.428 0.727949 -0.188665 0
M  V30 750 H 75.399 2.55387 -1.54337 0
M  V30 751 C 74.148 3.4769 -0.0264051 0
M  V30 752 H 73.471 3.92331 -0.769164 0
M  V30 753 H 74.911 4.23418 0.222098 0
M  V30 754 C 73.37 3.13807 1.22584 0
M  V30 755 O 73.9 3.28236 2.31569 0
M  V30 756 N 72.106 2.68065 1.12202 0
M  V30 757 H 71.653 2.56525 0.235133 0
M  V30 758 H 71.611 2.45767 1.96076 0
M  V30 759 N 75.3831 0.828654 1.34056 0
M  V30 760 C 76.6231 0.425394 1.99924 0
M  V30 761 C 76.9871 -0.994294 1.64249 0
M  V30 762 O 78.1881 -1.50074 2.23005 0
M  V30 763 C 76.4591 0.628071 3.51838 0
M  V30 764 S 78.0181 0.318511 4.37642 0
M  V30 765 H 74.8361 0.160465 0.692656 0
M  V30 766 H 77.4381 1.07572 1.63244 0
M  V30 767 H 76.1421 1.66089 3.7529 0
M  V30 768 H 75.6731 -0.0367799 3.93383 0
M  V30 769 H 77.6881 -0.865632 4.88591 0
M  V30 770 N 76.8612 -1.46375 0.584142 0
M  V30 771 C 78.0892 -2.06761 0.0759296 0
M  V30 772 C 78.5042 -1.43266 -1.22965 0
M  V30 773 O 77.8612 -0.538458 -1.74376 0
M  V30 774 C 77.9122 -3.61375 -0.0950384 0
M  V30 775 O 77.6332 -4.22495 1.15887 0
M  V30 776 C 79.1342 -4.38693 -0.637434 0
M  V30 777 H 76.3542 -0.668479 0.0581075 0
M  V30 778 H 78.8982 -1.8798 0.805218 0
M  V30 779 H 77.0532 -3.79578 -0.774554 0
M  V30 780 H 77.4672 -5.15385 0.973598 0
M  V30 781 H 78.9412 -5.47464 -0.706237 0
M  V30 782 H 79.4182 -4.06836 -1.65472 0
M  V30 783 H 80.0242 -4.25299 0.00725967 0
M  V30 784 N 78.3393 -0.321999 -1.54275 0
M  V30 785 C 79.5853 0.281461 -2.00837 0
M  V30 786 C 79.9183 1.51909 -1.20985 0
M  V30 787 O 79.1933 1.923 -0.291733 0
M  V30 788 C 79.4763 0.617162 -3.54772 0
M  V30 789 C 79.3293 -0.631064 -4.45351 0
M  V30 790 C 80.6483 1.43542 -4.16033 0
M  V30 791 H 77.7673 0.100826 -0.730071 0
M  V30 792 H 80.4093 -0.438268 -1.84876 0
M  V30 793 H 78.5593 1.23034 -3.68504 0
M  V30 794 H 80.2313 -1.26934 -4.43492 0
M  V30 795 H 78.4743 -1.26025 -4.15091 0
M  V30 796 H 79.1453 -0.351735 -5.50878 0
M  V30 797 H 81.6213 0.917134 -4.05867 0
M  V30 798 H 80.4973 1.63907 -5.23856 0
M  V30 799 H 80.7583 2.43108 -3.69257 0
M  V30 800 N 79.8174 1.5752 -0.0501392 0
M  V30 801 C 81.0664 1.91827 0.623328 0
M  V30 802 C 81.3794 0.930222 1.72065 0
M  V30 803 O 82.5854 1.1653 2.4522 0
M  V30 804 C 81.0414 3.40692 1.16003 0
M  V30 805 C 80.6494 4.479 0.0948811 0
M  V30 806 C 82.3934 3.84034 1.80881 0
M  V30 807 C 80.3004 5.87879 0.644411 0
M  V30 808 H 79.2304 0.715918 0.236596 0
M  V30 809 H 81.8814 1.83115 -0.118861 0
M  V30 810 H 80.2634 3.44405 1.9545 0
M  V30 811 H 81.4374 4.55775 -0.678675 0
M  V30 812 H 79.7524 4.13892 -0.45637 0
M  V30 813 H 82.3494 4.85984 2.22988 0
M  V30 814 H 82.6924 3.20225 2.6601 0
M  V30 815 H 83.2254 3.82833 1.0809 0
M  V30 816 H 79.9644 6.55282 -0.169229 0
M  V30 817 H 79.4844 5.83567 1.38598 0
M  V30 818 H 81.1634 6.37098 1.12763 0
M  V30 819 N 81.2955 -0.223234 1.56011 0
M  V30 820 C 82.2055 -1.29766 1.95443 0
M  V30 821 C 83.2215 -1.51373 0.858028 0
M  V30 822 O 84.3975 -1.64536 1.16146 0
M  V30 823 C 81.4625 -2.62772 2.26167 0
M  V30 824 C 80.5235 -2.49482 3.49367 0
M  V30 825 C 79.7565 -3.76145 3.78616 0
M  V30 826 O 79.9795 -4.79087 3.09568 0
M  V30 827 O 78.9135 -3.73358 4.72109 0
M  V30 828 H 82.7395 -0.99309 2.87004 0
M  V30 829 H 80.3245 -0.425958 1.43199 0
M  V30 830 H 82.2065 -3.41327 2.47131 0
M  V30 831 H 80.8815 -2.92913 1.37781 0
M  V30 832 H 79.7885 -1.69133 3.33684 0
M  V30 833 H 81.1215 -2.2428 4.38131 0
M  V30 834 N 82.7736 -1.49793 -0.48987 0
M  V30 835 C 84.0216 -1.59525 -1.24081 0
M  V30 836 C 84.3426 -0.288953 -1.92847 0
M  V30 837 O 83.6126 0.692436 -1.83254 0
M  V30 838 H 82.1926 -0.587796 -0.460983 0
M  V30 839 H 84.8546 -1.86477 -0.566778 0
M  V30 840 H 83.9506 -2.39696 -1.99881 0
M  V30 841 N 84.2517 0.741722 -1.39055 0
M  V30 842 C 85.4817 1.52876 -1.3897 0
M  V30 843 C 85.8897 1.8919 0.0193266 0
M  V30 844 O 85.2327 1.54138 0.999356 0
M  V30 845 C 85.2947 2.84929 -2.19216 0
M  V30 846 C 84.9587 2.71086 -3.67915 0
M  V30 847 C 85.9557 2.40084 -4.61146 0
M  V30 848 C 83.6407 2.88168 -4.11418 0
M  V30 849 C 85.6347 2.26335 -5.95862 0
M  V30 850 C 83.3217 2.74037 -5.46211 0
M  V30 851 C 84.3197 2.43166 -6.38247 0
M  V30 852 O 84.0077 2.29115 -7.70559 0
M  V30 853 H 83.7397 0.479252 -0.476753 0
M  V30 854 H 86.2937 0.924751 -1.83405 0
M  V30 855 H 84.5237 3.47564 -1.69518 0
M  V30 856 H 86.2127 3.46509 -2.11392 0
M  V30 857 H 86.9787 2.26545 -4.28838 0
M  V30 858 H 82.8577 3.11191 -3.40119 0
M  V30 859 H 86.4017 2.0216 -6.67665 0
M  V30 860 H 82.2987 2.87153 -5.78112 0
M  V30 861 H 83.0667 2.44237 -7.81211 0
M  V30 862 N 85.7298 1.2412 0.971189 0
M  V30 863 C 86.6598 1.05508 2.08304 0
M  V30 864 C 87.6408 -0.0308864 1.70072 0
M  V30 865 O 88.8258 0.135521 1.93727 0
M  V30 866 C 85.9558 0.655365 3.4106 0
M  V30 867 C 84.9098 1.68971 3.93234 0
M  V30 868 C 84.2358 1.14516 5.22293 0
M  V30 869 C 85.5358 3.08487 4.21465 0
M  V30 870 H 87.2298 1.98507 2.24132 0
M  V30 871 H 84.7758 0.955821 1.07704 0
M  V30 872 H 86.7288 0.51217 4.18276 0
M  V30 873 H 85.4528 -0.31032 3.25122 0
M  V30 874 H 84.1118 1.82106 3.18171 0
M  V30 875 H 83.7598 0.170189 5.02712 0
M  V30 876 H 83.4598 1.83635 5.58168 0
M  V30 877 H 84.9838 1.01401 6.02121 0
M  V30 878 H 86.3978 2.98601 4.89398 0
M  V30 879 H 84.7948 3.74926 4.68562 0
M  V30 880 H 85.8648 3.56787 3.28376 0
M  V30 881 N 87.2079 -1.17134 1.05439 0
M  V30 882 C 88.1579 -2.1919 0.627675 0
M  V30 883 C 89.1419 -1.57328 -0.337147 0
M  V30 884 O 90.3339 -1.76329 -0.153976 0
M  V30 885 C 87.4629 -3.43299 0.00651435 0
M  V30 886 C 86.5489 -4.12255 0.995312 0
M  V30 887 N 86.9399 -4.56997 2.16765 0
M  V30 888 C 85.2379 -4.38316 0.824336 0
M  V30 889 C 85.9389 -5.10239 2.7934 0
M  V30 890 N 84.9149 -5.02595 2.07122 0
M  V30 891 H 88.7169 -2.5149 1.52086 0
M  V30 892 H 86.2309 -1.33491 0.924868 0
M  V30 893 H 88.2279 -4.15693 -0.316965 0
M  V30 894 H 86.8879 -3.1249 -0.882033 0
M  V30 895 H 87.8989 -4.51006 2.54587 0
M  V30 896 H 84.5759 -4.17498 -0.0129526 0
M  V30 897 H 85.9659 -5.54961 3.78772 0
M  V30 898 N 88.686 -0.835752 -1.33615 0
M  V30 899 C 89.935 -0.426289 -1.97144 0
M  V30 900 C 90.248 1.01912 -1.66953 0
M  V30 901 O 91.454 1.53311 -2.24072 0
M  V30 902 C 89.91 -0.711321 -3.52801 0
M  V30 903 C 89.518 -2.1712 -3.91871 0
M  V30 904 C 91.262 -0.368654 -4.22896 0
M  V30 905 C 89.169 -2.40044 -5.40493 0
M  V30 906 H 88.099 -0.15567 -0.737755 0
M  V30 907 H 90.75 -1.0239 -1.52278 0
M  V30 908 H 89.132 -0.0433766 -3.95976 0
M  V30 909 H 90.306 -2.87936 -3.59763 0
M  V30 910 H 88.621 -2.47654 -3.34749 0
M  V30 911 H 91.218 -0.517601 -5.32189 0
M  V30 912 H 91.561 0.688078 -4.10574 0
M  V30 913 H 92.094 -0.991702 -3.8524 0
M  V30 914 H 88.833 -3.44271 -5.57815 0
M  V30 915 H 88.353 -1.73785 -5.74072 0
M  V30 916 H 90.032 -2.23042 -6.0734 0
M  V30 917 N 90.1641 1.46063 -0.591896 0
M  V30 918 C 91.0941 2.33172 0.123673 0
M  V30 919 C 92.0751 1.45897 0.87453 0
M  V30 920 O 93.2601 1.74698 0.848181 0
M  V30 921 C 90.3901 3.28336 1.13194 0
M  V30 922 C 89.3441 4.25124 0.495324 0
M  V30 923 C 88.6701 5.09863 1.61071 0
M  V30 924 C 89.9701 5.19143 -0.573425 0
M  V30 925 H 91.6641 2.93252 -0.603646 0
M  V30 926 H 89.2101 1.41014 -0.291741 0
M  V30 927 H 91.1631 3.88137 1.64097 0
M  V30 928 H 89.8871 2.66383 1.88965 0
M  V30 929 H 88.5461 3.66599 0.00729452 0
M  V30 930 H 88.1941 4.44288 2.35832 0
M  V30 931 H 87.8941 5.75417 1.19035 0
M  V30 932 H 89.4181 5.72529 2.12233 0
M  V30 933 H 90.8321 5.73106 -0.1491 0
M  V30 934 H 89.2291 5.93089 -0.914636 0
M  V30 935 H 90.2991 4.62519 -1.45617 0
M  V30 936 N 91.6422 0.330177 1.54103 0
M  V30 937 C 92.5722 -0.525353 2.27513 0
M  V30 938 C 93.5532 -1.11383 1.2856 0
M  V30 939 O 94.7382 -1.13773 1.57383 0
M  V30 940 C 91.8682 -1.6831 3.03791 0
M  V30 941 C 90.8222 -1.2236 4.10137 0
M  V30 942 C 90.1482 -2.46882 4.74293 0
M  V30 943 C 91.4482 -0.333697 5.21233 0
M  V30 944 H 93.1422 0.087013 2.99274 0
M  V30 945 H 90.6882 0.0432893 1.43935 0
M  V30 946 H 92.6412 -2.28795 3.5388 0
M  V30 947 H 91.3652 -2.32216 2.29659 0
M  V30 948 H 90.0242 -0.64165 3.60941 0
M  V30 949 H 89.6722 -3.09165 3.96769 0
M  V30 950 H 89.3722 -2.16825 5.46133 0
M  V30 951 H 90.8962 -3.08117 5.27159 0
M  V30 952 H 92.3102 -0.845013 5.67038 0
M  V30 953 H 90.7072 -0.125612 5.99969 0
M  V30 954 H 91.7772 0.633724 4.80741 0
M  V30 955 N 93.1203 -1.57491 0.0584922 0
M  V30 956 C 94.3693 -1.92155 -0.613146 0
M  V30 957 C 94.6823 -0.939334 -1.71569 0
M  V30 958 O 95.8883 -1.17829 -2.44599 0
M  V30 959 C 94.3443 -3.41303 -1.14195 0
M  V30 960 C 93.9523 -4.47944 -0.0711265 0
M  V30 961 C 95.6963 -3.84988 -1.78841 0
M  V30 962 C 93.6033 -5.88212 -0.613225 0
M  V30 963 H 92.5333 -0.717162 -0.232796 0
M  V30 964 H 95.1843 -1.83049 0.12857 0
M  V30 965 H 93.5663 -3.45437 -1.93621 0
M  V30 966 H 94.7403 -4.55408 0.702836 0
M  V30 967 H 93.0553 -4.13644 0.478313 0
M  V30 968 H 95.6523 -4.87159 -2.20408 0
M  V30 969 H 95.9953 -3.21632 -2.64308 0
M  V30 970 H 96.5283 -3.83401 -1.06059 0
M  V30 971 H 93.2673 -6.55183 0.203978 0
M  V30 972 H 92.7873 -5.84294 -1.35501 0
M  V30 973 H 94.4663 -6.37687 -1.09383 0
M  V30 974 N 94.5984 0.214957 -1.56127 0
M  V30 975 C 95.8234 0.95924 -1.83884 0
M  V30 976 C 96.2484 1.7689 -0.639644 0
M  V30 977 O 95.6064 1.76566 0.411601 0
M  V30 978 C 95.6544 1.84723 -3.09693 0
M  V30 979 O 94.7584 2.94346 -2.8885 0
M  V30 980 H 94.0994 0.27125 -0.606069 0
M  V30 981 H 96.6294 0.226276 -2.03345 0
M  V30 982 H 96.6394 2.25576 -3.39969 0
M  V30 983 H 95.3144 1.25218 -3.96602 0
M  V30 984 H 93.8914 2.57391 -2.69823 0
M  V30 985 N 96.0765 1.50051 0.48192 0
M  V30 986 C 97.0235 1.68122 1.58125 0
M  V30 987 C 97.9935 0.522545 1.57666 0
M  V30 988 O 99.1785 0.751844 1.75362 0
M  V30 989 C 96.3185 1.77142 2.96167 0
M  V30 990 C 95.4315 3.0444 3.06497 0
M  V30 991 C 94.5665 3.04321 4.35387 0
M  V30 992 C 93.6055 4.26118 4.3942 0
M  V30 993 N 92.7425 4.238 5.59766 0
M  V30 994 H 97.5825 2.6198 1.42022 0
M  V30 995 H 95.1195 1.29877 0.690687 0
M  V30 996 H 97.0775 1.80352 3.76203 0
M  V30 997 H 95.7075 0.867329 3.1093 0
M  V30 998 H 94.7595 3.10752 2.19402 0
M  V30 999 H 96.0715 3.94426 3.05336 0
M  V30 1000 H 95.2255 3.062 5.23762 0
M  V30 1001 H 93.9645 2.12147 4.39141 0
M  V30 1002 H 92.9695 4.24463 3.49444 0
M  V30 1003 H 94.1945 5.19507 4.37366 0
M  V30 1004 H 92.1405 3.34474 5.64326 0
M  V30 1005 H 92.0575 5.07542 5.60301 0
M  V30 1006 H 93.3255 4.2981 6.50295 0
M  V30 1007 N 97.5546 -0.734337 1.39446 0
M  V30 1008 C 98.5176 -1.83004 1.37994 0
M  V30 1009 C 99.5176 -1.58397 0.276938 0
M  V30 1010 O 100.708 -1.65785 0.534875 0
M  V30 1011 C 97.8396 -3.20802 1.1532 0
M  V30 1012 H 99.0326 -1.85694 2.35494 0
M  V30 1013 H 96.5856 -0.938059 1.25021 0
M  V30 1014 H 97.3206 -3.23772 0.185036 0
M  V30 1015 H 97.1056 -3.4006 1.95197 0
M  V30 1016 H 98.5956 -4.00862 1.17046 0
M  V30 1017 N 99.0327 -1.24633 -0.964593 0
M  V30 1018 C 99.9427 -1.05859 -2.09359 0
M  V30 1019 C 100.959 0.00148855 -1.74 0
M  V30 1020 O 102.135 -0.197346 -2.00431 0
M  V30 1021 C 99.1997 -0.668879 -3.40187 0
M  V30 1022 C 98.2607 -1.80578 -3.89474 0
M  V30 1023 C 97.4937 -1.43457 -5.14058 0
M  V30 1024 O 97.7167 -0.325775 -5.69469 0
M  V30 1025 O 96.6507 -2.2613 -5.57807 0
M  V30 1026 H 100.477 -2.00516 -2.28094 0
M  V30 1027 H 98.0617 -1.03481 -1.0776 0
M  V30 1028 H 99.9437 -0.463211 -4.18846 0
M  V30 1029 H 98.6187 0.248536 -3.22744 0
M  V30 1030 H 97.5257 -2.06623 -3.11862 0
M  V30 1031 H 98.8587 -2.70208 -4.11398 0
M  V30 1032 N 100.511 1.16574 -1.06058 0
M  V30 1033 C 101.788 1.83048 -0.689416 0
M  V30 1034 C 102.168 1.94122 0.829443 0
M  V30 1035 O 101.516 1.48249 1.7388 0
M  V30 1036 C 101.726 3.20186 -1.38859 0
M  V30 1037 C 103.074 3.95989 -1.53226 0
M  V30 1038 O 104.098 3.29696 -1.3483 0
M  V30 1039 O 102.957 5.14813 -1.83384 0
M  V30 1040 H 100.051 0.790258 -0.243764 0
M  V30 1041 H 102.597 1.23797 -1.16071 0
M  V30 1042 H 101.369 3.07146 -2.4244 0
M  V30 1043 H 100.992 3.87112 -0.907216 0
M  V30 1044 N 101.989 0.842826 1.3317 0
M  V30 1045 C 103.219 0.453397 2.01564 0
M  V30 1046 C 103.627 -0.951147 1.63554 0
M  V30 1047 O 102.97 -1.63021 0.846746 0
M  V30 1048 C 103.032 0.499013 3.5602 0
M  V30 1049 C 102.696 1.86037 4.1742 0
M  V30 1050 C 103.693 2.82416 4.36506 0
M  V30 1051 C 101.378 2.15428 4.53757 0
M  V30 1052 C 103.372 4.06346 4.91082 0
M  V30 1053 C 101.059 3.39615 5.0804 0
M  V30 1054 C 102.057 4.3489 5.26649 0
M  V30 1055 O 101.745 5.5688 5.79776 0
M  V30 1056 H 101.477 0.177871 0.652179 0
M  V30 1057 H 104.031 1.13808 1.70988 0
M  V30 1058 H 102.261 -0.242467 3.85939 0
M  V30 1059 H 103.95 0.126852 4.05702 0
M  V30 1060 H 104.716 2.6101 4.08777 0
M  V30 1061 H 100.595 1.42061 4.38565 0
M  V30 1062 H 104.139 4.80722 5.05522 0
M  V30 1063 H 100.036 3.60876 5.352 0
M  V30 1064 H 100.804 5.58674 5.98185 0
M  V30 1065 N 103.467 -1.45747 0.599634 0
M  V30 1066 C 104.883 -1.57424 0.26264 0
M  V30 1067 C 105.083 -1.59222 -1.23493 0
M  V30 1068 O 104.139 -1.51825 -2.01756 0
M  V30 1069 C 105.452 -2.86061 0.926795 0
M  V30 1070 C 107 -2.99722 0.901967 0
M  V30 1071 C 107.475 -4.31119 1.54598 0
M  V30 1072 N 108.966 -4.37858 1.5111 0
M  V30 1073 C 109.701 -5.3818 1.97863 0
M  V30 1074 N 109.197 -6.45083 2.52666 0
M  V30 1075 N 110.99 -5.29487 1.88679 0
M  V30 1076 H 103.141 -1.42823 1.57211 0
M  V30 1077 H 105.404 -0.68235 0.658105 0
M  V30 1078 H 105.11 -2.90605 1.98095 0
M  V30 1079 H 104.984 -3.74563 0.445238 0
M  V30 1080 H 107.371 -2.9475 -0.143617 0
M  V30 1081 H 107.452 -2.12652 1.42171 0
M  V30 1082 H 107.096 -4.36849 2.59085 0
M  V30 1083 H 107.026 -5.16992 1.00132 0
M  V30 1084 H 109.517 -3.61209 1.11068 0
M  V30 1085 H 109.83 -7.17869 2.86155 0
M  V30 1086 H 108.175 -6.45856 2.56701 0
M  V30 1087 H 111.366 -4.44877 1.4561 0
M  V30 1088 H 111.539 -6.07524 2.25429 0
M  V30 1089 N 104.945 -0.338344 -1.53925 0
M  V30 1090 C 106.17 0.263987 -2.05713 0
M  V30 1091 C 106.595 1.43847 -1.21201 0
M  V30 1092 O 105.953 1.79904 -0.224535 0
M  V30 1093 C 106.001 0.662 -3.54471 0
M  V30 1094 O 105.105 1.76265 -3.72833 0
M  V30 1095 H 104.446 0.0448722 -0.662482 0
M  V30 1096 H 106.976 -0.491048 -1.9862 0
M  V30 1097 H 106.986 0.940594 -3.9701 0
M  V30 1098 H 105.661 -0.196937 -4.15433 0
M  V30 1099 H 104.238 1.48173 -3.42198 0
M  V30 1100 N 106.423 1.57458 -0.0668435 0
M  V30 1101 C 107.653 1.97337 0.611677 0
M  V30 1102 C 108.061 0.943744 1.63982 0
M  V30 1103 O 107.404 -0.0785584 1.83532 0
M  V30 1104 C 107.466 3.33511 1.34205 0
M  V30 1105 C 107.13 4.54598 0.467941 0
M  V30 1106 C 108.127 5.19186 -0.272439 0
M  V30 1107 C 105.812 5.0075 0.39427 0
M  V30 1108 C 107.806 6.28274 -1.07476 0
M  V30 1109 C 105.493 6.09711 -0.411729 0
M  V30 1110 C 106.491 6.73335 -1.14492 0
M  V30 1111 O 106.179 7.80199 -1.93763 0
M  V30 1112 H 105.911 0.654042 0.170893 0
M  V30 1113 H 108.465 2.04961 -0.134289 0
M  V30 1114 H 106.695 3.22487 2.13398 0
M  V30 1115 H 108.384 3.58029 1.91233 0
M  V30 1116 H 109.15 4.84477 -0.225086 0
M  V30 1117 H 105.029 4.51009 0.954569 0
M  V30 1118 H 108.573 6.77866 -1.64755 0
M  V30 1119 H 104.47 6.43854 -0.460664 0
M  V30 1120 H 105.238 7.97053 -1.86142 0
M  V30 1121 N 107.901 -0.206675 1.56239 0
M  V30 1122 C 109.317 -0.557025 1.49564 0
M  V30 1123 C 109.517 -1.86424 0.764735 0
M  V30 1124 O 108.573 -2.50584 0.310491 0
M  V30 1125 C 109.886 -0.622478 2.94186 0
M  V30 1126 C 111.434 -0.712099 3.04792 0
M  V30 1127 C 111.909 -0.808767 4.50803 0
M  V30 1128 N 113.4 -0.8726 4.54907 0
M  V30 1129 C 114.135 -0.967365 5.65181 0
M  V30 1130 N 113.631 -1.02515 6.85173 0
M  V30 1131 N 115.424 -1.00366 5.53067 0
M  V30 1132 H 107.575 0.650943 2.02179 0
M  V30 1133 H 109.838 0.230387 0.919579 0
M  V30 1134 H 109.544 0.268727 3.50672 0
M  V30 1135 H 109.418 -1.4811 3.46905 0
M  V30 1136 H 111.805 -1.59374 2.48363 0
M  V30 1137 H 111.886 0.172489 2.55218 0
M  V30 1138 H 111.53 0.0684754 5.07854 0
M  V30 1139 H 111.46 -1.70899 4.98098 0
M  V30 1140 H 113.951 -0.837657 3.68499 0
M  V30 1141 H 114.264 -1.09765 7.64965 0
M  V30 1142 H 112.609 -0.994026 6.87855 0
M  V30 1143 H 115.8 -0.95527 4.58249 0
M  V30 1144 H 115.973 -1.07405 6.39037 0
M  V30 1145 N 109.379 -1.50304 -0.473955 0
M  V30 1146 C 110.626 -1.6115 -1.22625 0
M  V30 1147 C 110.954 -0.310517 -1.92005 0
M  V30 1148 O 110.209 0.703419 -1.82621 0
M  V30 1149 C 110.508 -2.73938 -2.29549 0
M  V30 1150 C 110.174 -4.14519 -1.7744 0
M  V30 1151 C 108.836 -4.5277 -1.62949 0
M  V30 1152 C 111.188 -5.02392 -1.3875 0
M  V30 1153 C 108.516 -5.76639 -1.08187 0
M  V30 1154 C 110.868 -6.26805 -0.854309 0
M  V30 1155 C 109.532 -6.63861 -0.696011 0
M  V30 1156 H 108.802 -0.589691 -0.448715 0
M  V30 1157 H 111.449 -1.84228 -0.522705 0
M  V30 1158 H 109.754 -2.44937 -3.05799 0
M  V30 1159 H 111.451 -2.79534 -2.87509 0
M  V30 1160 H 108.041 -3.8434 -1.89685 0
M  V30 1161 H 112.225 -4.73474 -1.4878 0
M  V30 1162 H 107.481 -6.04027 -0.946666 0
M  V30 1163 H 111.655 -6.94258 -0.545843 0
M  V30 1164 H 109.282 -7.59722 -0.26952 0
M  V30 1165 N 110.857 0.726932 -1.39834 0
M  V30 1166 C 112.268 1.30558 -1.3346 0
M  V30 1167 C 112.619 1.962 -0.00273003 0
M  V30 1168 O 111.744 1.96826 0.899371 0
M  V30 1169 C 112.339 2.37404 -2.41713 0
M  V30 1170 C 110.898 2.90921 -2.38835 0
M  V30 1171 C 110.045 1.64578 -2.2318 0
M  V30 1172 H 112.996 0.523862 -1.49804 0
M  V30 1173 H 113.017 3.17984 -2.08966 0
M  V30 1174 H 112.529 1.89599 -3.38635 0
M  V30 1175 H 110.63 3.42985 -1.45575 0
M  V30 1176 H 110.743 3.43487 -3.33997 0
M  V30 1177 H 109.107 1.89219 -1.70494 0
M  V30 1178 H 109.89 1.18814 -3.22084 0
M  V30 1179 N 112.336 1.25143 0.95797 0
M  V30 1180 C 113.283 1.05235 2.05412 0
M  V30 1181 C 114.253 -0.0374561 1.66058 0
M  V30 1182 O 115.438 0.119073 1.90428 0
M  V30 1183 C 112.578 0.673589 3.38462 0
M  V30 1184 C 111.691 1.8379 3.90954 0
M  V30 1185 C 110.826 1.40381 5.12315 0
M  V30 1186 C 109.865 2.53746 5.57027 0
M  V30 1187 N 109.002 2.11136 6.69601 0
M  V30 1188 H 113.842 1.99048 2.21774 0
M  V30 1189 H 111.379 0.991277 1.08683 0
M  V30 1190 H 113.337 0.434964 4.14926 0
M  V30 1191 H 111.967 -0.227554 3.21997 0
M  V30 1192 H 111.019 2.18992 3.11041 0
M  V30 1193 H 112.331 2.68937 4.20089 0
M  V30 1194 H 111.485 1.12464 5.96185 0
M  V30 1195 H 110.224 0.523015 4.84887 0
M  V30 1196 H 109.229 2.82412 4.71724 0
M  V30 1197 H 110.454 3.42398 5.86464 0
M  V30 1198 H 108.4 1.25468 6.4389 0
M  V30 1199 H 108.317 2.89832 6.98236 0
M  V30 1200 H 109.585 1.86385 7.56889 0
M  V30 1201 N 113.814 -1.1601 1.06675 0
M  V30 1202 C 114.744 -2.22688 0.702307 0
M  V30 1203 C 115.725 -1.67306 -0.307032 0
M  V30 1204 O 116.91 -1.93352 -0.181305 0
M  V30 1205 C 114.04 -3.47178 0.092038 0
M  V30 1206 C 112.994 -4.15477 1.02777 0
M  V30 1207 C 112.32 -5.33963 0.28061 0
M  V30 1208 C 113.62 -4.66019 2.35846 0
M  V30 1209 H 115.314 -2.53429 1.59419 0
M  V30 1210 H 112.86 -1.21813 0.767961 0
M  V30 1211 H 114.813 -4.21037 -0.174814 0
M  V30 1212 H 113.537 -3.15749 -0.834877 0
M  V30 1213 H 112.196 -3.43549 1.27944 0
M  V30 1214 H 111.844 -4.98788 -0.649545 0
M  V30 1215 H 111.544 -5.806 0.904258 0
M  V30 1216 H 113.068 -6.10596 0.021396 0
M  V30 1217 H 114.482 -5.3144 2.15045 0
M  V30 1218 H 112.879 -5.23293 2.93743 0
M  V30 1219 H 113.949 -3.82023 2.98641 0
M  V30 1220 N 115.292 -0.849877 -1.32721 0
M  V30 1221 C 116.52 -0.464754 -2.01613 0
M  V30 1222 C 116.935 0.937191 -1.63897 0
M  V30 1223 O 116.292 1.61081 -0.857856 0
M  V30 1224 C 116.343 -0.588638 -3.56675 0
M  V30 1225 O 116.064 -1.93535 -3.93034 0
M  V30 1226 C 117.565 -0.2019 -4.4284 0
M  V30 1227 H 114.785 -0.183215 -0.645502 0
M  V30 1228 H 117.329 -1.1455 -1.69407 0
M  V30 1229 H 115.484 0.0443159 -3.87375 0
M  V30 1230 H 115.898 -1.92871 -4.87751 0
M  V30 1231 H 117.372 -0.339599 -5.50954 0
M  V30 1232 H 117.849 0.857224 -4.30753 0
M  V30 1233 H 118.455 -0.809733 -4.17521 0
M  V30 1234 N 116.77 1.45427 -0.607355 0
M  V30 1235 C 118.016 2.0254 -0.102607 0
M  V30 1236 C 118.349 1.47478 1.26348 0
M  V30 1237 O 117.624 0.64939 1.83339 0
M  V30 1238 C 117.907 3.60044 -0.0634347 0
M  V30 1239 C 117.76 4.2544 -1.46017 0
M  V30 1240 C 119.079 4.35646 0.624514 0
M  V30 1241 H 116.198 0.73598 -0.0387607 0
M  V30 1242 H 118.84 1.73284 -0.779282 0
M  V30 1243 H 116.99 3.85101 0.512808 0
M  V30 1244 H 118.662 4.11569 -2.08347 0
M  V30 1245 H 116.905 3.83849 -2.02094 0
M  V30 1246 H 117.576 5.34342 -1.385 0
M  V30 1247 H 120.052 4.15882 0.134723 0
M  V30 1248 H 118.928 5.45376 0.621028 0
M  V30 1249 H 119.189 4.08501 1.69055 0
M  V30 1250 N 118.248 0.346503 1.53744 0
M  V30 1251 C 119.497 -0.250122 2.00143 0
M  V30 1252 C 119.81 -1.51418 1.23822 0
M  V30 1253 O 121.016 -2.18823 1.60713 0
M  V30 1254 C 119.472 -0.496252 3.56462 0
M  V30 1255 C 119.08 0.752077 4.41642 0
M  V30 1256 C 120.824 -1.05157 4.11269 0
M  V30 1257 C 118.731 0.476583 5.89477 0
M  V30 1258 H 117.661 -0.0972409 0.747703 0
M  V30 1259 H 120.312 0.46229 1.77581 0
M  V30 1260 H 118.694 -1.26944 3.75102 0
M  V30 1261 H 119.868 1.5266 4.34778 0
M  V30 1262 H 118.183 1.22925 3.97842 0
M  V30 1263 H 120.78 -1.27269 5.19333 0
M  V30 1264 H 121.123 -2.00799 3.64672 0
M  V30 1265 H 121.656 -0.339019 3.96353 0
M  V30 1266 H 118.395 1.4028 6.40314 0
M  V30 1267 H 117.915 -0.259794 5.99237 0
M  V30 1268 H 119.594 0.0949315 6.4693 0
M  V30 1269 N 119.726 -1.57421 0.075193 0
M  V30 1270 C 120.954 -1.97946 -0.602076 0
M  V30 1271 C 121.369 -0.953674 -1.62943 0
M  V30 1272 O 120.726 0.0592551 -1.82404 0
M  V30 1273 C 120.777 -3.38546 -1.26762 0
M  V30 1274 O 120.498 -4.37195 -0.281376 0
M  V30 1275 C 121.999 -3.93966 -2.03239 0
M  V30 1276 H 119.219 -0.650918 -0.162931 0
M  V30 1277 H 121.763 -2.03959 0.148601 0
M  V30 1278 H 119.918 -3.33609 -1.96936 0
M  V30 1279 H 120.332 -5.18975 -0.759267 0
M  V30 1280 H 121.806 -4.94555 -2.45193 0
M  V30 1281 H 122.283 -3.30693 -2.8903 0
M  V30 1282 H 122.889 -4.02315 -1.37924 0
M  V30 1283 N 121.204 0.198386 -1.56346 0
M  V30 1284 C 122.114 1.2664 -1.97483 0
M  V30 1285 C 123.13 1.49989 -0.882002 0
M  V30 1286 O 124.306 1.62668 -1.18748 0
M  V30 1287 C 121.371 2.59141 -2.30319 0
M  V30 1288 C 120.432 2.43892 -3.53292 0
M  V30 1289 C 119.665 3.70074 -3.84553 0
M  V30 1290 O 119.888 4.74101 -3.1715 0
M  V30 1291 O 118.822 3.658 -4.7799 0
M  V30 1292 H 122.648 0.947304 -2.88548 0
M  V30 1293 H 120.233 0.403123 -1.43859 0
M  V30 1294 H 122.115 3.37352 -2.5253 0
M  V30 1295 H 120.79 2.90684 -1.42423 0
M  V30 1296 H 119.697 1.63803 -3.36332 0
M  V30 1297 H 121.03 2.17282 -4.41644 0
M  V30 1298 N 122.682 1.50554 0.465978 0
M  V30 1299 C 123.912 1.65323 1.23903 0
M  V30 1300 C 124.32 0.338051 1.86155 0
M  V30 1301 O 123.663 -0.690518 1.70228 0
M  V30 1302 C 123.725 2.69048 2.3844 0
M  V30 1303 C 123.389 4.12462 1.96784 0
M  V30 1304 C 124.386 4.98168 1.48745 0
M  V30 1305 C 122.071 4.58407 2.05349 0
M  V30 1306 C 124.065 6.27868 1.0982 0
M  V30 1307 C 121.752 5.88112 1.66035 0
M  V30 1308 C 122.75 6.72668 1.18349 0
M  V30 1309 O 122.438 7.99951 0.795825 0
M  V30 1310 H 122.17 0.558629 0.38067 0
M  V30 1311 H 124.724 1.97561 0.562022 0
M  V30 1312 H 122.954 2.32062 3.09328 0
M  V30 1313 H 124.643 2.72985 3.0039 0
M  V30 1314 H 125.409 4.63885 1.41546 0
M  V30 1315 H 121.288 3.92735 2.41414 0
M  V30 1316 H 124.832 6.93819 0.725293 0
M  V30 1317 H 120.729 6.21914 1.72895 0
M  V30 1318 H 121.497 8.13265 0.924222 0
M  V30 1319 N 124.16 -0.719506 1.40217 0
M  V30 1320 C 125.09 -1.8465 1.42922 0
M  V30 1321 C 126.071 -1.67599 0.29062 0
M  V30 1322 O 127.256 -1.87688 0.498677 0
M  V30 1323 C 124.386 -3.22565 1.28722 0
M  V30 1324 C 123.34 -3.54281 2.40144 0
M  V30 1325 C 122.666 -4.91298 2.11023 0
M  V30 1326 C 123.966 -3.55676 3.82481 0
M  V30 1327 H 125.66 -1.82644 2.37237 0
M  V30 1328 H 123.206 -0.877305 1.1419 0
M  V30 1329 H 125.159 -4.01095 1.29232 0
M  V30 1330 H 123.883 -3.25137 0.308811 0
M  V30 1331 H 122.542 -2.78088 2.38877 0
M  V30 1332 H 122.19 -4.90468 1.11582 0
M  V30 1333 H 121.89 -5.13485 2.8567 0
M  V30 1334 H 123.414 -5.72166 2.13209 0
M  V30 1335 H 124.828 -4.24254 3.85592 0
M  V30 1336 H 123.225 -3.89388 4.56614 0
M  V30 1337 H 124.295 -2.55144 4.12346 0
M  V30 1338 N 125.638 -1.25649 -0.95132 0
M  V30 1339 C 126.568 -1.08808 -2.06599 0
M  V30 1340 C 127.549 0.00382547 -1.701 0
M  V30 1341 O 128.734 -0.166325 -1.93486 0
M  V30 1342 C 125.864 -0.709542 -3.39975 0
M  V30 1343 C 124.818 -1.75206 -3.90496 0
M  V30 1344 C 124.144 -1.22811 -5.20405 0
M  V30 1345 C 125.444 -3.15153 -4.16504 0
M  V30 1346 H 127.138 -2.02048 -2.20946 0
M  V30 1347 H 124.684 -0.972835 -1.06169 0
M  V30 1348 H 126.637 -0.578649 -4.17408 0
M  V30 1349 H 125.361 0.258556 -3.25575 0
M  V30 1350 H 124.02 -1.87145 -3.15234 0
M  V30 1351 H 123.668 -0.250145 -5.02378 0
M  V30 1352 H 123.368 -1.92492 -5.55176 0
M  V30 1353 H 124.892 -1.10968 -6.00432 0
M  V30 1354 H 126.306 -3.06349 -4.84586 0
M  V30 1355 H 124.703 -3.82333 -4.62538 0
M  V30 1356 H 125.773 -3.61966 -3.22658 0
M  V30 1357 N 127.117 1.15442 -1.07289 0
M  V30 1358 C 128.047 2.22312 -0.714107 0
M  V30 1359 C 129.028 1.67467 0.298155 0
M  V30 1360 O 130.213 1.93445 0.171048 0
M  V30 1361 C 127.343 3.47124 -0.110448 0
M  V30 1362 C 126.297 4.14926 -1.04979 0
M  V30 1363 C 125.623 5.33807 -0.308924 0
M  V30 1364 C 126.923 4.64762 -2.38314 0
M  V30 1365 H 128.617 2.5258 -1.6076 0
M  V30 1366 H 126.163 1.21404 -0.77441 0
M  V30 1367 H 128.116 4.21124 0.152482 0
M  V30 1368 H 126.84 3.16187 0.81812 0
M  V30 1369 H 125.499 3.42866 -1.29764 0
M  V30 1370 H 125.147 4.99126 0.623084 0
M  V30 1371 H 124.847 5.80113 -0.935036 0
M  V30 1372 H 126.371 6.10576 -0.0537771 0
M  V30 1373 H 127.785 5.30292 -2.1786 0
M  V30 1374 H 126.182 5.21728 -2.96514 0
M  V30 1375 H 127.252 3.80434 -3.00663 0
M  V30 1376 N 128.595 0.856903 1.32268 0
M  V30 1377 C 129.842 0.461386 1.97174 0
M  V30 1378 C 130.17 -0.983491 1.67803 0
M  V30 1379 O 129.425 -1.70541 0.959903 0
M  V30 1380 C 129.724 0.649919 3.51441 0
M  V30 1381 C 129.39 2.0656 4.00804 0
M  V30 1382 C 128.052 2.45279 4.13995 0
M  V30 1383 C 130.404 2.98947 4.26943 0
M  V30 1384 C 127.732 3.75653 4.50668 0
M  V30 1385 C 130.084 4.28822 4.65075 0
M  V30 1386 C 128.748 4.67472 4.76472 0
M  V30 1387 H 128.018 0.168833 0.72151 0
M  V30 1388 H 130.665 1.08739 1.57633 0
M  V30 1389 H 128.97 -0.0593018 3.91755 0
M  V30 1390 H 130.667 0.32391 3.9969 0
M  V30 1391 H 127.257 1.75495 3.91024 0
M  V30 1392 H 131.441 2.70265 4.16258 0
M  V30 1393 H 126.697 4.05379 4.57688 0
M  V30 1394 H 130.871 5.0047 4.84255 0
M  V30 1395 H 128.498 5.68539 5.04646 0
M  V30 1396 N 130.073 -1.45103 0.615059 0
M  V30 1397 C 131.489 -1.57137 0.279322 0
M  V30 1398 C 131.689 -1.60523 -1.21797 0
M  V30 1399 O 130.745 -1.53956 -2.00134 0
M  V30 1400 C 132.058 -2.85062 0.957083 0
M  V30 1401 C 133.606 -2.98749 0.933706 0
M  V30 1402 C 134.081 -4.29455 1.59162 0
M  V30 1403 N 135.572 -4.36231 1.55746 0
M  V30 1404 C 136.307 -5.36051 2.0356 0
M  V30 1405 N 135.803 -6.42367 2.59494 0
M  V30 1406 N 137.596 -5.27456 1.94284 0
M  V30 1407 H 129.747 -1.41148 1.58717 0
M  V30 1408 H 132.01 -0.675331 0.665306 0
M  V30 1409 H 131.716 -2.88488 2.01166 0
M  V30 1410 H 131.59 -3.7407 0.48494 0
M  V30 1411 H 133.977 -2.94886 -0.112347 0
M  V30 1412 H 134.058 -2.11132 1.44419 0
M  V30 1413 H 133.702 -4.34077 2.63704 0
M  V30 1414 H 133.632 -5.15901 1.0561 0
M  V30 1415 H 136.123 -3.60011 1.14893 0
M  V30 1416 H 136.436 -7.14793 2.93752 0
M  V30 1417 H 134.781 -6.43097 2.63537 0
M  V30 1418 H 137.972 -4.43308 1.5032 0
M  V30 1419 H 138.145 -6.05099 2.3186 0
M  V30 1420 N 131.551 -0.354651 -1.53558 0
M  V30 1421 C 132.797 0.238797 -2.01389 0
M  V30 1422 C 133.13 1.49309 -1.2418 0
M  V30 1423 O 132.405 1.91638 -0.332457 0
M  V30 1424 C 132.688 0.541771 -3.56001 0
M  V30 1425 C 132.541 -0.725388 -4.43912 0
M  V30 1426 C 133.86 1.34685 -4.18984 0
M  V30 1427 H 130.979 0.0853177 -0.732045 0
M  V30 1428 H 133.621 -0.477384 -1.83905 0
M  V30 1429 H 131.771 1.15189 -3.71031 0
M  V30 1430 H 133.443 -1.36313 -4.407 0
M  V30 1431 H 131.686 -1.34801 -4.12324 0
M  V30 1432 H 132.357 -0.468505 -5.50008 0
M  V30 1433 H 134.833 0.830837 -4.07721 0
M  V30 1434 H 133.709 1.52759 -5.27215 0
M  V30 1435 H 133.97 2.35221 -3.74331 0
M  V30 1436 N 133.029 1.57378 -0.0835403 0
M  V30 1437 C 133.992 2.12252 0.864959 0
M  V30 1438 C 134.992 1.04916 1.21858 0
M  V30 1439 O 136.182 1.30853 1.14991 0
M  V30 1440 C 133.314 2.63358 2.16461 0
M  V30 1441 H 134.507 2.97371 0.388676 0
M  V30 1442 H 132.06 1.55423 0.165317 0
M  V30 1443 H 132.795 1.81727 2.686 0
M  V30 1444 H 132.58 3.41826 1.92087 0
M  V30 1445 H 134.07 3.05847 2.84337 0
M  V30 1446 N 134.507 -0.190092 1.56449 0
M  V30 1447 C 135.755 -0.907908 1.80559 0
M  V30 1448 C 136.076 -1.83583 0.657438 0
M  V30 1449 O 135.346 -1.93203 -0.323924 0
M  V30 1450 H 133.926 -0.338247 0.666032 0
M  V30 1451 H 136.588 -0.194403 1.93928 0
M  V30 1452 H 135.684 -1.49604 2.73907 0
M  V30 1453 N 135.985 -1.50799 -0.457987 0
M  V30 1454 C 136.915 -1.73553 -1.5621 0
M  V30 1455 C 137.896 -0.584774 -1.59732 0
M  V30 1456 O 139.081 -0.825314 -1.7579 0
M  V30 1457 C 136.211 -1.84169 -2.94447 0
M  V30 1458 C 135.165 -2.99461 -3.0579 0
M  V30 1459 C 134.491 -2.95235 -4.45803 0
M  V30 1460 C 135.791 -4.39766 -2.81786 0
M  V30 1461 H 137.485 -2.66 -1.37421 0
M  V30 1462 H 135.031 -1.28002 -0.659662 0
M  V30 1463 H 136.984 -1.98672 -3.71628 0
M  V30 1464 H 135.708 -0.883545 -3.14422 0
M  V30 1465 H 134.367 -2.8463 -2.31044 0
M  V30 1466 H 134.015 -1.97239 -4.62715 0
M  V30 1467 H 133.715 -3.72642 -4.54326 0
M  V30 1468 H 135.239 -3.11803 -5.24987 0
M  V30 1469 H 136.653 -4.55054 -3.4871 0
M  V30 1470 H 135.05 -5.18722 -3.0174 0
M  V30 1471 H 136.12 -4.51229 -1.7754 0
M  V30 1472 N 137.463 0.71206 -1.40597 0
M  V30 1473 C 138.373 1.8562 -1.43466 0
M  V30 1474 C 139.389 1.70902 -0.326902 0
M  V30 1475 O 140.565 1.93105 -0.572043 0
M  V30 1476 C 137.63 3.21451 -1.29884 0
M  V30 1477 C 136.691 3.48398 -2.50833 0
M  V30 1478 C 135.924 4.77749 -2.3789 0
M  V30 1479 O 136.147 5.53089 -1.39459 0
M  V30 1480 O 135.081 5.05111 -3.27333 0
M  V30 1481 H 138.907 1.86155 -2.39958 0
M  V30 1482 H 136.492 0.86295 -1.21957 0
M  V30 1483 H 138.374 4.02579 -1.24531 0
M  V30 1484 H 137.049 3.21636 -0.364997 0
M  V30 1485 H 135.956 2.67265 -2.61763 0
M  V30 1486 H 137.289 3.53014 -3.4299 0
M  V30 1487 N 138.941 1.26152 0.944643 0
M  V30 1488 C 140.166 1.14363 1.7302 0
M  V30 1489 C 140.591 -0.29772 1.85729 0
M  V30 1490 O 139.949 -1.2157 1.34501 0
M  V30 1491 C 139.997 1.81378 3.11664 0
M  V30 1492 O 139.101 1.10022 3.97453 0
M  V30 1493 H 138.442 0.398694 0.53098 0
M  V30 1494 H 140.972 1.66906 1.18337 0
M  V30 1495 H 140.982 1.88064 3.62072 0
M  V30 1496 H 139.657 2.86237 3.0173 0
M  V30 1497 H 138.234 1.11287 3.55907 0
M  V30 1498 N 140.419 -1.14872 1.07899 0
M  V30 1499 C 141.349 -2.2193 0.725887 0
M  V30 1500 C 142.33 -1.67622 -0.28927 0
M  V30 1501 O 143.515 -1.93533 -0.160787 0
M  V30 1502 C 140.645 -3.47061 0.128856 0
M  V30 1503 C 139.599 -4.14363 1.07178 0
M  V30 1504 C 138.925 -5.33636 0.337229 0
M  V30 1505 C 140.225 -4.63492 2.40775 0
M  V30 1506 H 141.919 -2.51724 1.62097 0
M  V30 1507 H 139.465 -1.20991 0.780838 0
M  V30 1508 H 141.418 -4.21199 -0.130147 0
M  V30 1509 H 140.142 -3.16617 -0.80134 0
M  V30 1510 H 138.801 -3.42173 1.3158 0
M  V30 1511 H 138.449 -4.99449 -0.596606 0
M  V30 1512 H 138.149 -5.79609 0.965788 0
M  V30 1513 H 139.673 -6.10539 0.0861567 0
M  V30 1514 H 141.087 -5.2913 2.20669 0
M  V30 1515 H 139.484 -5.20148 2.99276 0
M  V30 1516 H 140.554 -3.78834 3.02676 0
M  V30 1517 N 141.898 -0.863906 -1.31812 0
M  V30 1518 C 143.146 -0.470904 -1.96537 0
M  V30 1519 C 143.467 0.978771 -1.68657 0
M  V30 1520 O 142.737 1.6853 -0.998717 0
M  V30 1521 H 141.317 -0.171148 -0.72713 0
M  V30 1522 H 143.979 -1.10236 -1.60729 0
M  V30 1523 H 143.075 -0.623616 -3.05806 0
M  V30 1524 N 143.376 1.44774 -0.622745 0
M  V30 1525 C 144.653 1.95522 -0.0551974 0
M  V30 1526 C 145.033 1.5649 1.41683 0
M  V30 1527 O 144.381 0.834848 2.12703 0
M  V30 1528 C 144.591 3.4796 -0.269242 0
M  V30 1529 C 145.939 4.24306 -0.158014 0
M  V30 1530 O 146.963 3.55637 -0.200162 0
M  V30 1531 O 145.822 5.46471 -0.0558693 0
M  V30 1532 H 142.916 0.826556 0.0271015 0
M  V30 1533 H 145.462 1.54866 -0.693864 0
M  V30 1534 H 144.234 3.6939 -1.29099 0
M  V30 1535 H 143.857 3.95543 0.403966 0
M  V30 1536 N 144.854 0.36279 1.53368 0
M  V30 1537 C 145.784 -0.476976 2.28576 0
M  V30 1538 C 146.765 -1.08631 1.30894 0
M  V30 1539 O 147.95 -1.10409 1.59761 0
M  V30 1540 C 145.08 -1.61828 3.07293 0
M  V30 1541 C 144.034 -1.13633 4.1264 0
M  V30 1542 C 143.36 -2.36766 4.79423 0
M  V30 1543 C 144.66 -0.223061 5.21823 0
M  V30 1544 H 146.354 0.150474 2.99022 0
M  V30 1545 H 143.9 0.0738103 1.43811 0
M  V30 1546 H 145.853 -2.21237 3.58653 0
M  V30 1547 H 144.577 -2.27292 2.34533 0
M  V30 1548 H 143.236 -0.564945 3.62221 0
M  V30 1549 H 142.884 -3.0068 4.03238 0
M  V30 1550 H 142.584 -2.05192 5.50609 0
M  V30 1551 H 144.108 -2.96865 5.33576 0
M  V30 1552 H 145.522 -0.724545 5.68703 0
M  V30 1553 H 143.919 0.001678 6.001 0
M  V30 1554 H 144.989 0.735553 4.79289 0
M  V30 1555 N 146.332 -1.57332 0.0918853 0
M  V30 1556 C 147.579 -1.94236 -0.572577 0
M  V30 1557 C 147.907 -0.973398 -1.6839 0
M  V30 1558 O 147.162 0.00756912 -1.95699 0
M  V30 1559 C 147.461 -3.37689 -1.17051 0
M  V30 1560 C 147.127 -4.50527 -0.183304 0
M  V30 1561 C 145.789 -4.81119 0.0882276 0
M  V30 1562 C 148.141 -5.18883 0.49095 0
M  V30 1563 C 145.469 -5.77395 1.04076 0
M  V30 1564 C 147.821 -6.1618 1.43193 0
M  V30 1565 C 146.485 -6.45179 1.71173 0
M  V30 1566 H 145.755 -0.710762 -0.209521 0
M  V30 1567 H 148.402 -1.9077 0.167036 0
M  V30 1568 H 146.707 -3.37718 -1.9863 0
M  V30 1569 H 148.404 -3.63543 -1.69227 0
M  V30 1570 H 144.994 -4.26681 -0.405124 0
M  V30 1571 H 149.178 -4.95427 0.294312 0
M  V30 1572 H 144.434 -5.98179 1.26457 0
M  V30 1573 H 148.608 -6.68243 1.96023 0
M  V30 1574 H 146.235 -7.1959 2.4514 0
M  V30 1575 N 147.81 0.181792 -1.56548 0
M  V30 1576 C 149.221 0.745244 -1.71181 0
M  V30 1577 C 149.572 1.83262 -0.70068 0
M  V30 1578 O 148.697 2.15946 0.140154 0
M  V30 1579 C 149.292 1.35859 -3.10367 0
M  V30 1580 C 147.851 1.86898 -3.2672 0
M  V30 1581 C 146.998 0.743942 -2.67134 0
M  V30 1582 H 149.949 -0.0434661 -1.5864 0
M  V30 1583 H 149.97 2.22817 -3.08436 0
M  V30 1584 H 149.482 0.566948 -3.83937 0
M  V30 1585 H 147.583 2.68738 -2.5809 0
M  V30 1586 H 147.696 2.02162 -4.34359 0
M  V30 1587 H 146.06 1.16169 -2.26665 0
M  V30 1588 H 146.843 -0.035676 -3.43281 0
M  V30 1589 N 149.288 1.51039 0.449983 0
M  V30 1590 C 150.236 1.71995 1.5659 0
M  V30 1591 C 151.23 0.586029 1.5894 0
M  V30 1592 O 152.436 0.76709 1.62837 0
M  V30 1593 H 148.811 0.543233 0.520001 0
M  V30 1594 H 150.782 2.65562 1.36085 0
M  V30 1595 C 149.531 1.8506 2.9436 0
M  V30 1596 H 148.854 2.71712 2.93279 0
M  V30 1597 H 150.294 2.0374 3.71842 0
M  V30 1598 C 148.753 0.607277 3.31382 0
M  V30 1599 O 149.283 -0.243903 4.00959 0
M  V30 1600 N 147.489 0.455073 2.87015 0
M  V30 1601 H 147.036 1.14879 2.30566 0
M  V30 1602 H 146.994 -0.375611 3.12148 0
M  V30 1603 N 150.766 -0.704594 1.40972 0
M  V30 1604 C 151.696 -1.83124 1.44872 0
M  V30 1605 C 152.677 -1.67281 0.30838 0
M  V30 1606 O 153.862 -1.87149 0.518556 0
M  V30 1607 C 150.992 -3.21181 1.32136 0
M  V30 1608 C 149.946 -3.51714 2.43888 0
M  V30 1609 C 149.272 -4.89032 2.16222 0
M  V30 1610 C 150.572 -3.516 3.86232 0
M  V30 1611 H 152.266 -1.80117 2.39161 0
M  V30 1612 H 149.812 -0.865145 1.15114 0
M  V30 1613 H 151.765 -3.99702 1.33479 0
M  V30 1614 H 150.489 -3.24791 0.343279 0
M  V30 1615 H 149.148 -2.75539 2.41813 0
M  V30 1616 H 148.796 -4.89256 1.16778 0
M  V30 1617 H 148.496 -5.10426 2.911 0
M  V30 1618 H 150.02 -5.69873 2.19265 0
M  V30 1619 H 151.434 -4.2014 3.9007 0
M  V30 1620 H 149.831 -3.84523 4.60719 0
M  V30 1621 H 150.901 -2.50757 4.15029 0
M  V30 1622 N 152.244 -1.26651 -0.937939 0
M  V30 1623 C 153.472 -1.15173 -1.7188 0
M  V30 1624 C 153.887 0.292668 -1.86518 0
M  V30 1625 O 153.244 1.20014 -1.37488 0
M  V30 1626 C 153.295 -1.81925 -3.12387 0
M  V30 1627 O 153.016 -3.2072 -2.98446 0
M  V30 1628 C 154.517 -1.76442 -4.06673 0
M  V30 1629 H 151.737 -0.400911 -0.538063 0
M  V30 1630 H 154.281 -1.67332 -1.1756 0
M  V30 1631 H 152.436 -1.33696 -3.63599 0
M  V30 1632 H 152.85 -3.53802 -3.872 0
M  V30 1633 H 154.324 -2.27781 -5.02812 0
M  V30 1634 H 154.801 -0.731608 -4.33064 0
M  V30 1635 H 155.407 -2.24238 -3.61382 0
M  V30 1636 N 153.722 1.14298 -1.08507 0
M  V30 1637 C 154.968 1.85633 -0.816581 0
M  V30 1638 C 155.301 1.82784 0.656021 0
M  V30 1639 O 154.576 1.25926 1.48233 0
M  V30 1640 C 154.859 3.34223 -1.34041 0
M  V30 1641 C 154.712 3.45639 -2.87843 0
M  V30 1642 C 156.031 4.29356 -0.9665 0
M  V30 1643 H 153.15 0.67402 -0.298104 0
M  V30 1644 H 155.792 1.34214 -1.34487 0
M  V30 1645 H 153.942 3.78144 -0.89104 0
M  V30 1646 H 155.614 3.10498 -3.41158 0
M  V30 1647 H 153.857 2.86817 -3.25451 0
M  V30 1648 H 154.528 4.50089 -3.19569 0
M  V30 1649 H 157.004 3.93457 -1.35391 0
M  V30 1650 H 155.88 5.3178 -1.3602 0
M  V30 1651 H 156.141 4.41919 0.126362 0
M  V30 1652 N 155.201 0.870884 1.31352 0
M  V30 1653 C 156.45 0.478408 1.95944 0
M  V30 1654 C 156.763 -0.974493 1.69597 0
M  V30 1655 O 157.969 -1.47316 2.28058 0
M  V30 1656 C 156.425 0.804609 3.50791 0
M  V30 1657 C 156.033 2.27433 3.85977 0
M  V30 1658 C 157.777 0.480648 4.2177 0
M  V30 1659 C 155.684 2.5429 5.33939 0
M  V30 1660 H 154.614 0.175175 0.733369 0
M  V30 1661 H 157.265 1.06391 1.4951 0
M  V30 1662 H 155.647 0.148347 3.95722 0
M  V30 1663 H 156.821 2.97373 3.52002 0
M  V30 1664 H 155.136 2.56442 3.28065 0
M  V30 1665 H 157.733 0.658519 5.30629 0
M  V30 1666 H 158.076 -0.578979 4.12254 0
M  V30 1667 H 158.609 1.09349 3.82476 0
M  V30 1668 H 155.348 3.58939 5.48491 0
M  V30 1669 H 154.868 1.88945 5.69263 0
M  V30 1670 H 156.547 2.39066 6.01212 0
M  V30 1671 N 156.679 -1.44442 0.630414 0
M  V30 1672 C 158.095 -1.56832 0.295973 0
M  V30 1673 C 158.295 -1.61806 -1.20088 0
M  V30 1674 O 157.351 -1.5607 -1.9849 0
M  V30 1675 C 158.664 -2.84031 0.987264 0
M  V30 1676 C 160.212 -2.97742 0.96534 0
M  V30 1677 C 160.687 -4.27743 1.63708 0
M  V30 1678 N 162.178 -4.34555 1.60364 0
M  V30 1679 C 162.913 -5.33862 2.09234 0
M  V30 1680 N 162.409 -6.39578 2.66292 0
M  V30 1681 N 164.202 -5.25366 1.99867 0
M  V30 1682 H 156.353 -1.39457 1.60205 0
M  V30 1683 H 158.616 -0.668237 0.672431 0
M  V30 1684 H 158.322 -2.86338 2.04215 0
M  V30 1685 H 158.196 -3.73534 0.524588 0
M  V30 1686 H 160.583 -2.94989 -0.0810639 0
M  V30 1687 H 160.664 -2.09589 1.4665 0
M  V30 1688 H 160.308 -4.31255 2.68293 0
M  V30 1689 H 160.238 -5.14752 1.11076 0
M  V30 1690 H 162.729 -3.58772 1.18705 0
M  V30 1691 H 163.042 -7.11637 3.01317 0
M  V30 1692 H 161.387 -6.40265 2.70343 0
M  V30 1693 H 164.578 -4.41688 1.55013 0
M  V30 1694 H 164.751 -6.02606 2.38265 0
M  V30 1695 N 158.157 -0.370918 -1.53173 0
M  V30 1696 C 159.405 0.216673 -2.00935 0
M  V30 1697 C 159.726 1.48845 -1.25977 0
M  V30 1698 O 158.996 1.92286 -0.374551 0
M  V30 1699 H 157.576 0.0830565 -0.742368 0
M  V30 1700 H 160.238 -0.49838 -1.8842 0
M  V30 1701 H 159.334 0.439893 -3.08984 0
M  V30 1702 N 159.635 1.57281 -0.100228 0
M  V30 1703 C 160.881 1.95626 0.556946 0
M  V30 1704 C 161.236 0.981655 1.65473 0
M  V30 1705 O 160.529 0.00849847 1.91598 0
M  V30 1706 C 160.723 3.38305 1.15259 0
M  V30 1707 C 160.552 4.49555 0.114035 0
M  V30 1708 C 159.322 5.0434 -0.311266 0
M  V30 1709 C 161.52 5.10051 -0.659768 0
M  V30 1710 N 159.502 5.99152 -1.33755 0
M  V30 1711 C 160.873 6.00628 -1.53774 0
M  V30 1712 C 162.928 4.92772 -0.712723 0
M  V30 1713 C 161.631 6.7578 -2.46403 0
M  V30 1714 C 163.657 5.6859 -1.62663 0
M  V30 1715 C 163.019 6.58838 -2.49222 0
M  V30 1716 H 159.118 0.7624 0.173982 0
M  V30 1717 H 161.702 1.93829 -0.183988 0
M  V30 1718 H 159.873 3.40786 1.86332 0
M  V30 1719 H 161.605 3.63817 1.77254 0
M  V30 1720 H 158.36 4.73537 0.0774812 0
M  V30 1721 H 158.784 6.5126 -1.84905 0
M  V30 1722 H 163.426 4.22761 -0.0576648 0
M  V30 1723 H 161.144 7.4505 -3.12931 0
M  V30 1724 H 164.73 5.57233 -1.67281 0
M  V30 1725 H 163.61 7.16479 -3.18791 0
M  V30 1726 N 161.113 -0.173488 1.56642 0
M  V30 1727 C 162.06 -1.21482 1.96242 0
M  V30 1728 C 163.03 -1.44104 0.826027 0
M  V30 1729 O 164.215 -1.5688 1.08597 0
M  V30 1730 C 161.355 -2.54964 2.32567 0
M  V30 1731 C 160.468 -2.39739 3.59373 0
M  V30 1732 C 159.603 -3.66072 3.84921 0
M  V30 1733 C 158.642 -3.45771 5.05083 0
M  V30 1734 N 157.779 -4.64169 5.26775 0
M  V30 1735 H 162.619 -0.870123 2.85014 0
M  V30 1736 H 160.156 -0.418245 1.41029 0
M  V30 1737 H 162.114 -3.32758 2.5165 0
M  V30 1738 H 160.744 -2.87433 1.46908 0
M  V30 1739 H 159.796 -1.53131 3.48217 0
M  V30 1740 H 161.108 -2.20683 4.47326 0
M  V30 1741 H 160.262 -4.52303 4.0436 0
M  V30 1742 H 159.001 -3.88105 2.9534 0
M  V30 1743 H 158.006 -2.57927 4.85545 0
M  V30 1744 H 159.231 -3.25163 5.96193 0
M  V30 1745 H 157.177 -4.86425 4.40144 0
M  V30 1746 H 157.094 -4.48019 6.08946 0
M  V30 1747 H 158.362 -5.51689 5.5069 0
M  V30 1748 N 162.591 -1.51276 -0.441967 0
M  V30 1749 C 163.521 -1.752 -1.54361 0
M  V30 1750 C 164.502 -0.601682 -1.59103 0
M  V30 1751 O 165.687 -0.843913 -1.74905 0
M  V30 1752 C 162.817 -1.87282 -2.92477 0
M  V30 1753 C 161.771 -3.02687 -3.02596 0
M  V30 1754 C 161.097 -2.99947 -4.42647 0
M  V30 1755 C 162.397 -4.4273 -2.77106 0
M  V30 1756 H 164.091 -2.67442 -1.34592 0
M  V30 1757 H 161.637 -1.28694 -0.646048 0
M  V30 1758 H 163.59 -2.02602 -3.695 0
M  V30 1759 H 162.314 -0.916844 -3.13467 0
M  V30 1760 H 160.973 -2.87065 -2.28012 0
M  V30 1761 H 160.621 -2.02136 -4.60597 0
M  V30 1762 H 160.321 -3.77439 -4.50348 0
M  V30 1763 H 161.845 -3.17354 -5.2165 0
M  V30 1764 H 163.259 -4.58727 -3.43864 0
M  V30 1765 H 161.656 -5.21893 -2.96222 0
M  V30 1766 H 162.726 -4.53087 -1.72744 0
M  V30 1767 N 164.069 0.697108 -1.41344 0
M  V30 1768 C 165.316 1.45714 -1.40619 0
M  V30 1769 C 165.644 1.94494 -0.0147907 0
M  V30 1770 O 164.899 1.69794 0.973066 0
M  V30 1771 C 165.198 2.68553 -2.35826 0
M  V30 1772 C 164.864 2.38438 -3.82698 0
M  V30 1773 C 163.526 2.29936 -4.22709 0
M  V30 1774 C 165.878 2.13567 -4.75435 0
M  V30 1775 C 163.206 1.94656 -5.53467 0
M  V30 1776 C 165.558 1.79797 -6.06511 0
M  V30 1777 C 164.222 1.69789 -6.45545 0
M  V30 1778 H 163.492 0.533206 -0.51456 0
M  V30 1779 H 166.139 0.796901 -1.74131 0
M  V30 1780 H 164.444 3.39503 -1.95563 0
M  V30 1781 H 166.141 3.2669 -2.32539 0
M  V30 1782 H 162.731 2.4595 -3.51008 0
M  V30 1783 H 166.915 2.19082 -4.45328 0
M  V30 1784 H 162.171 1.8546 -5.82593 0
M  V30 1785 H 166.345 1.59572 -6.77872 0
M  V30 1786 H 163.972 1.4222 -7.46778 0
M  V30 1787 N 165.547 1.27147 0.931209 0
M  V30 1788 C 166.777 1.15914 1.71019 0
M  V30 1789 C 167.185 -0.287112 1.87009 0
M  V30 1790 O 166.528 -1.20761 1.38429 0
M  V30 1791 C 166.59 1.76647 3.13107 0
M  V30 1792 C 166.254 3.25807 3.20467 0
M  V30 1793 C 167.251 4.22489 3.02983 0
M  V30 1794 C 164.936 3.66452 3.43538 0
M  V30 1795 C 166.93 5.57794 3.08454 0
M  V30 1796 C 164.617 5.01888 3.48643 0
M  V30 1797 C 165.615 5.97369 3.31119 0
M  V30 1798 O 165.303 7.30337 3.35952 0
M  V30 1799 H 165.035 0.404062 0.54195 0
M  V30 1800 H 167.589 1.68457 1.17521 0
M  V30 1801 H 165.819 1.18578 3.68071 0
M  V30 1802 H 167.508 1.60179 3.72958 0
M  V30 1803 H 168.274 3.92425 2.85004 0
M  V30 1804 H 164.153 2.92611 3.5623 0
M  V30 1805 H 167.697 6.32298 2.94694 0
M  V30 1806 H 163.594 5.31609 3.66145 0
M  V30 1807 H 164.362 7.38739 3.5243 0
M  V30 1808 N 167.025 -1.13721 1.09112 0
M  V30 1809 C 167.973 -2.21103 0.722219 0
M  V30 1810 C 168.967 -1.67147 -0.275374 0
M  V30 1811 O 170.173 -1.79477 -0.137176 0
M  V30 1812 H 166.548 -0.720445 0.215553 0
M  V30 1813 H 168.519 -2.49483 1.63709 0
M  V30 1814 C 167.268 -3.47352 0.15543 0
M  V30 1815 H 166.591 -3.89206 0.914246 0
M  V30 1816 H 168.031 -4.2395 -0.0647967 0
M  V30 1817 C 166.49 -3.1814 -1.10852 0
M  V30 1818 O 167.02 -3.36604 -2.19227 0
M  V30 1819 N 165.226 -2.72045 -1.02176 0
M  V30 1820 H 164.773 -2.57221 -0.139764 0
M  V30 1821 H 164.731 -2.52875 -1.8682 0
M  V30 1822 N 168.503 -0.877838 -1.30888 0
M  V30 1823 C 169.733 -0.506678 -2.00291 0
M  V30 1824 C 170.141 0.907449 -1.66018 0
M  V30 1825 O 169.484 1.60719 -0.88967 0
M  V30 1826 C 169.546 -0.59323 -3.54572 0
M  V30 1827 C 169.21 -1.97038 -4.12341 0
M  V30 1828 C 170.207 -2.93889 -4.28865 0
M  V30 1829 C 167.892 -2.27383 -4.47886 0
M  V30 1830 C 169.886 -4.19224 -4.80136 0
M  V30 1831 C 167.573 -3.52965 -4.98857 0
M  V30 1832 C 168.571 -4.48701 -5.14934 0
M  V30 1833 O 168.259 -5.72056 -5.64808 0
M  V30 1834 H 167.991 -0.1951 -0.647234 0
M  V30 1835 H 170.545 -1.18301 -1.6791 0
M  V30 1836 H 168.775 0.140057 -3.86446 0
M  V30 1837 H 170.464 -0.234372 -4.05223 0
M  V30 1838 H 171.23 -2.71756 -4.01714 0
M  V30 1839 H 167.109 -1.53639 -4.34645 0
M  V30 1840 H 170.653 -4.93956 -4.92599 0
M  V30 1841 H 166.55 -3.74939 -5.25443 0
M  V30 1842 H 167.318 -5.74337 -5.83163 0
M  V30 1843 N 169.982 1.44106 -0.638065 0
M  V30 1844 C 170.945 2.29138 0.0531013 0
M  V30 1845 C 171.945 1.41409 0.765506 0
M  V30 1846 O 173.135 1.63206 0.609046 0
M  V30 1847 C 170.267 3.23144 1.08584 0
M  V30 1848 H 171.46 2.91739 -0.694883 0
M  V30 1849 H 169.013 1.51134 -0.398538 0
M  V30 1850 H 169.748 2.65408 1.86357 0
M  V30 1851 H 169.533 3.87804 0.578852 0
M  V30 1852 H 171.023 3.87004 1.56899 0
M  V30 1853 N 171.46 0.379036 1.52974 0
M  V30 1854 C 172.39 -0.452706 2.29069 0
M  V30 1855 C 173.371 -1.07237 1.32039 0
M  V30 1856 O 174.556 -1.08708 1.60923 0
M  V30 1857 C 171.686 -1.5856 3.08992 0
M  V30 1858 C 170.64 -1.0925 4.13822 0
M  V30 1859 C 169.966 -2.31668 4.81907 0
M  V30 1860 C 171.266 -0.167702 5.22031 0
M  V30 1861 H 172.96 0.182181 2.98845 0
M  V30 1862 H 170.506 0.0890592 1.43724 0
M  V30 1863 H 172.459 -2.1742 3.6098 0
M  V30 1864 H 171.183 -2.24792 2.36931 0
M  V30 1865 H 169.842 -0.526494 3.628 0
M  V30 1866 H 169.49 -2.96386 4.06404 0
M  V30 1867 H 169.19 -1.9934 5.52754 0
M  V30 1868 H 170.714 -2.91189 5.36695 0
M  V30 1869 H 172.128 -0.664186 5.6944 0
M  V30 1870 H 170.525 0.0653265 6.00064 0
M  V30 1871 H 171.595 0.786347 4.78482 0
M  V30 1872 N 172.938 -1.57226 0.108567 0
M  V30 1873 C 174.184 -1.95121 -0.552761 0
M  V30 1874 C 174.517 -0.991345 -1.66991 0
M  V30 1875 O 173.792 -0.0267211 -1.94482 0
M  V30 1876 C 174.075 -3.43039 -1.09528 0
M  V30 1877 C 173.928 -4.49797 0.0177332 0
M  V30 1878 C 175.247 -3.92567 -1.98945 0
M  V30 1879 H 172.366 -0.709496 -0.199461 0
M  V30 1880 H 175.008 -1.89126 0.182011 0
M  V30 1881 H 173.158 -3.48279 -1.72146 0
M  V30 1882 H 174.83 -4.56661 0.652584 0
M  V30 1883 H 173.073 -4.284 0.682309 0
M  V30 1884 H 173.744 -5.50528 -0.402919 0
M  V30 1885 H 176.22 -3.89565 -1.46214 0
M  V30 1886 H 175.096 -4.96605 -2.33827 0
M  V30 1887 H 175.357 -3.32648 -2.91201 0
M  V30 1888 N 174.416 0.165178 -1.56732 0
M  V30 1889 C 175.665 0.879143 -1.81532 0
M  V30 1890 C 175.978 1.83144 -0.686842 0
M  V30 1891 O 177.184 2.58823 -0.819944 0
M  V30 1892 C 175.64 1.61388 -3.21686 0
M  V30 1893 C 175.248 0.704904 -4.4242 0
M  V30 1894 C 176.992 2.3157 -3.55774 0
M  V30 1895 C 174.899 1.44022 -5.73595 0
M  V30 1896 H 173.829 0.332033 -0.676957 0
M  V30 1897 H 176.48 0.132008 -1.83025 0
M  V30 1898 H 174.862 2.40599 -3.14529 0
M  V30 1899 H 176.036 -0.0506815 -4.60772 0
M  V30 1900 H 174.351 0.112419 -4.16248 0
M  V30 1901 H 176.948 2.8719 -4.51028 0
M  V30 1902 H 177.291 3.07201 -2.8095 0
M  V30 1903 H 177.824 1.59297 -3.64513 0
M  V30 1904 H 174.563 0.72612 -6.51466 0
M  V30 1905 H 174.083 2.16898 -5.5921 0
M  V30 1906 H 175.762 1.98606 -6.15764 0
M  V30 1907 N 175.894 1.51508 0.433938 0
M  V30 1908 C 177.141 1.64345 1.18309 0
M  V30 1909 C 177.469 0.361315 1.91115 0
M  V30 1910 O 176.724 -0.654753 1.84422 0
M  V30 1911 C 177.023 2.79928 2.22205 0
M  V30 1912 C 176.689 4.19078 1.66387 0
M  V30 1913 C 175.351 4.56932 1.50887 0
M  V30 1914 C 177.703 5.05894 1.25381 0
M  V30 1915 C 175.031 5.79305 0.928608 0
M  V30 1916 C 177.383 6.2885 0.687823 0
M  V30 1917 C 176.047 6.65473 0.519755 0
M  V30 1918 H 175.317 0.601381 0.432923 0
M  V30 1919 H 177.964 1.85549 0.473676 0
M  V30 1920 H 176.269 2.52959 2.99197 0
M  V30 1921 H 177.966 2.87059 2.79997 0
M  V30 1922 H 174.556 3.89234 1.79428 0
M  V30 1923 H 178.74 4.77253 1.36175 0
M  V30 1924 H 173.996 6.06324 0.786186 0
M  V30 1925 H 178.17 6.95461 0.361581 0
M  V30 1926 H 175.797 7.6017 0.0679979 0
M  V30 1927 N 177.372 -0.689602 1.41712 0
M  V30 1928 C 178.282 -1.83314 1.46401 0
M  V30 1929 C 179.298 -1.7036 0.35405 0
M  V30 1930 O 180.474 -1.92171 0.602692 0
M  V30 1931 C 177.539 -3.19344 1.34982 0
M  V30 1932 C 176.6 -3.44363 2.56344 0
M  V30 1933 C 175.833 -4.73904 2.45461 0
M  V30 1934 O 176.056 -5.508 1.48241 0
M  V30 1935 O 174.99 -4.99839 3.35328 0
M  V30 1936 H 178.816 -1.82314 2.42889 0
M  V30 1937 H 176.401 -0.843438 1.23315 0
M  V30 1938 H 178.283 -4.00547 1.3092 0
M  V30 1939 H 176.958 -3.21014 0.41612 0
M  V30 1940 H 175.865 -2.63067 2.65982 0
M  V30 1941 H 177.198 -3.47512 3.48563 0
M  V30 1942 N 178.85 -1.27639 -0.924453 0
M  V30 1943 C 179.783 -1.04966 -2.02626 0
M  V30 1944 C 180.761 0.0309505 -1.62571 0
M  V30 1945 O 181.945 -0.114846 -1.8815 0
M  V30 1946 C 179.072 -0.59292 -3.3347 0
M  V30 1947 C 178.118 -1.66858 -3.92506 0
M  V30 1948 S 178.951 -3.2619 -4.24689 0
M  V30 1949 C 180.107 -2.82325 -5.58609 0
M  V30 1950 H 180.34 -1.98252 -2.21547 0
M  V30 1951 H 177.873 -1.11506 -1.06798 0
M  V30 1952 H 179.831 -0.336086 -4.09122 0
M  V30 1953 H 178.492 0.319939 -3.12466 0
M  V30 1954 H 177.685 -1.30038 -4.86935 0
M  V30 1955 H 177.287 -1.87766 -3.2345 0
M  V30 1956 H 179.579 -2.2783 -6.38044 0
M  V30 1957 H 180.522 -3.75511 -6.00331 0
M  V30 1958 H 180.93 -2.21367 -5.19285 0
M  V30 1959 N 180.328 1.1314 -1.09713 0
M  V30 1960 C 181.556 1.88321 -0.856898 0
M  V30 1961 C 181.971 1.79276 0.592073 0
M  V30 1962 O 181.328 1.16142 1.40774 0
M  V30 1963 C 181.379 3.37812 -1.28706 0
M  V30 1964 O 181.1 3.46627 -2.67921 0
M  V30 1965 C 182.601 4.29952 -1.07964 0
M  V30 1966 H 179.821 0.596094 -0.308079 0
M  V30 1967 H 182.365 1.43205 -1.45988 0
M  V30 1968 H 180.52 3.805 -0.727912 0
M  V30 1969 H 180.934 4.39579 -2.8613 0
M  V30 1970 H 182.408 5.33159 -1.42986 0
M  V30 1971 H 182.885 4.39196 -0.0176577 0
M  V30 1972 H 183.491 3.93036 -1.62489 0
M  V30 1973 N 181.806 0.884767 1.30421 0
M  V30 1974 C 182.754 0.340869 2.30089 0
M  V30 1975 C 183.748 -0.55201 1.60154 0
M  V30 1976 O 184.954 -0.436467 1.74628 0
M  V30 1977 H 181.329 0.0915739 0.746404 0
M  V30 1978 H 183.3 1.19513 2.73421 0
M  V30 1979 C 182.049 -0.429779 3.45034 0
M  V30 1980 H 181.372 0.248024 3.9903 0
M  V30 1981 H 182.812 -0.775445 4.16849 0
M  V30 1982 C 181.271 -1.62677 2.95022 0
M  V30 1983 O 181.801 -2.72614 2.95033 0
M  V30 1984 N 180.007 -1.46387 2.51036 0
M  V30 1985 H 179.554 -0.569506 2.51226 0
M  V30 1986 H 179.512 -2.26612 2.17932 0
M  V30 1987 N 183.284 -1.43765 0.645699 0
M  V30 1988 C 184.214 -2.33471 -0.0370477 0
M  V30 1989 C 185.195 -1.49042 -0.819779 0
M  V30 1990 O 186.38 -1.77726 -0.782758 0
M  V30 1991 C 183.51 -3.32311 -1.0093 0
M  V30 1992 C 182.464 -4.2667 -0.337201 0
M  V30 1993 C 181.79 -5.1549 -1.42037 0
M  V30 1994 C 183.09 -5.16657 0.765706 0
M  V30 1995 H 184.784 -2.90809 0.712069 0
M  V30 1996 H 182.33 -1.39834 0.343876 0
M  V30 1997 H 184.283 -3.9396 -1.49578 0
M  V30 1998 H 183.007 -2.73213 -1.78948 0
M  V30 1999 H 181.666 -3.66374 0.128771 0
M  V30 2000 H 181.314 -4.52735 -2.1918 0
M  V30 2001 H 181.014 -5.79438 -0.975966 0
M  V30 2002 H 182.538 -5.80012 -1.90838 0
M  V30 2003 H 183.952 -5.72158 0.361702 0
M  V30 2004 H 182.349 -5.89286 1.13413 0
M  V30 2005 H 183.419 -4.56796 1.62683 0
M  V30 2006 N 184.763 -0.387143 -1.52771 0
M  V30 2007 C 185.71 0.449048 -2.26389 0
M  V30 2008 C 186.68 1.05961 -1.27912 0
M  V30 2009 O 187.865 1.08804 -1.56737 0
M  V30 2010 C 185.005 1.57155 -3.0724 0
M  V30 2011 C 184.118 0.984066 -4.20643 0
M  V30 2012 C 183.253 2.07745 -4.88892 0
M  V30 2013 C 182.292 1.46574 -5.94292 0
M  V30 2014 N 181.429 2.49834 -6.56146 0
M  V30 2015 H 186.269 -0.185205 -2.97424 0
M  V30 2016 H 183.806 -0.103164 -1.46738 0
M  V30 2017 H 185.764 2.23309 -3.52405 0
M  V30 2018 H 184.394 2.17615 -2.38419 0
M  V30 2019 H 183.446 0.212193 -3.79808 0
M  V30 2020 H 184.758 0.497029 -4.96318 0
M  V30 2021 H 183.912 2.81673 -5.3735 0
M  V30 2022 H 182.651 2.59807 -4.12737 0
M  V30 2023 H 181.656 0.711696 -5.45174 0
M  V30 2024 H 182.881 0.953088 -6.72379 0
M  V30 2025 H 180.827 3.0107 -5.82832 0
M  V30 2026 H 180.744 2.05879 -7.27427 0
M  V30 2027 H 182.012 3.23399 -7.09249 0
M  V30 2028 N 186.241 1.57166 -0.116904 0
M  V30 2029 C 187.518 1.86645 0.585049 0
M  V30 2030 C 187.898 1.0177 1.84949 0
M  V30 2031 O 187.246 0.0960379 2.28298 0
M  V30 2032 C 187.456 3.37736 0.879507 0
M  V30 2033 C 188.804 4.06289 1.23348 0
M  V30 2034 O 189.828 3.42743 0.969836 0
M  V30 2035 O 188.687 5.18455 1.7282 0
M  V30 2036 H 185.781 0.772593 0.295007 0
M  V30 2037 H 188.327 1.69025 -0.151249 0
M  V30 2038 H 187.099 3.91296 -0.0166136 0
M  V30 2039 H 186.722 3.6078 1.67103 0
M  V30 2040 N 187.719 -0.156864 1.56817 0
M  V30 2041 C 188.968 -0.869504 1.81996 0
M  V30 2042 C 189.281 -1.82777 0.696545 0
M  V30 2043 O 190.487 -2.58384 0.833658 0
M  V30 2044 C 188.943 -1.59679 3.22538 0
M  V30 2045 C 188.551 -0.681431 4.42787 0
M  V30 2046 C 190.295 -2.2968 3.56997 0
M  V30 2047 C 188.202 -1.40978 5.74351 0
M  V30 2048 H 187.132 -0.328438 0.678708 0
M  V30 2049 H 189.783 -0.1223 1.83092 0
M  V30 2050 H 188.165 -2.38927 3.158 0
M  V30 2051 H 189.339 0.0751166 4.60739 0
M  V30 2052 H 187.654 -0.0903431 4.16302 0
M  V30 2053 H 190.251 -2.84794 4.52544 0
M  V30 2054 H 190.594 -3.05707 2.82576 0
M  V30 2055 H 191.127 -1.57361 3.65352 0
M  V30 2056 H 187.866 -0.691561 6.51842 0
M  V30 2057 H 187.386 -2.13929 5.60352 0
M  V30 2058 H 189.065 -1.95337 6.16808 0
M  V30 2059 N 189.197 -1.51736 -0.425897 0
M  V30 2060 C 190.445 -1.64644 -1.17204 0
M  V30 2061 C 190.766 -0.370486 -1.91448 0
M  V30 2062 O 190.036 0.614088 -1.86026 0
M  V30 2063 H 188.616 -0.606819 -0.435638 0
M  V30 2064 H 191.278 -1.88713 -0.487177 0
M  V30 2065 H 190.374 -2.47958 -1.89534 0
M  V30 2066 N 190.675 0.682077 -1.42076 0
M  V30 2067 C 191.605 1.80796 -1.47767 0
M  V30 2068 C 192.586 1.6677 -0.334954 0
M  V30 2069 O 193.771 1.863 -0.548264 0
M  V30 2070 C 190.901 3.19038 -1.37229 0
M  V30 2071 C 189.855 3.47789 -2.49453 0
M  V30 2072 C 189.181 4.8553 -2.23975 0
M  V30 2073 C 190.481 3.45411 -3.91776 0
M  V30 2074 H 192.175 1.7629 -2.41997 0
M  V30 2075 H 189.721 0.846721 -1.16476 0
M  V30 2076 H 191.674 3.97528 -1.39821 0
M  V30 2077 H 190.398 3.24204 -0.394907 0
M  V30 2078 H 189.057 2.71657 -2.46166 0
M  V30 2079 H 188.705 4.87337 -1.24547 0
M  V30 2080 H 188.405 5.0573 -2.99184 0
M  V30 2081 H 189.929 5.66312 -2.28304 0
M  V30 2082 H 191.343 4.13882 -3.96705 0
M  V30 2083 H 189.74 3.77145 -4.66778 0
M  V30 2084 H 190.81 2.44122 -4.18966 0
M  V30 2085 N 192.153 1.28127 0.917671 0
M  V30 2086 C 193.383 1.17722 1.6978 0
M  V30 2087 C 193.791 -0.267261 1.87303 0
M  V30 2088 O 193.134 -1.19286 1.39702 0
M  V30 2089 C 193.196 1.79958 3.11216 0
M  V30 2090 C 192.86 3.29187 3.16993 0
M  V30 2091 C 193.857 4.25679 2.98485 0
M  V30 2092 C 191.542 3.70075 3.39632 0
M  V30 2093 C 193.536 5.61035 3.02521 0
M  V30 2094 C 191.223 5.05557 3.433 0
M  V30 2095 C 192.221 6.00847 3.24764 0
M  V30 2096 O 191.909 7.33859 3.28187 0
M  V30 2097 H 191.641 0.409788 0.537634 0
M  V30 2098 H 194.195 1.69694 1.15728 0
M  V30 2099 H 192.425 1.22475 3.66793 0
M  V30 2100 H 194.114 1.64125 3.71238 0
M  V30 2101 H 194.88 3.95426 2.80826 0
M  V30 2102 H 190.759 2.96373 3.53106 0
M  V30 2103 H 194.303 6.35388 2.87971 0
M  V30 2104 H 190.2 5.35462 3.60486 0
M  V30 2105 H 190.968 7.42436 3.44575 0
M  V30 2106 N 193.631 -1.12557 1.10312 0
M  V30 2107 C 194.579 -2.20325 0.745629 0
M  V30 2108 C 195.573 -1.67429 -0.25763 0
M  V30 2109 O 196.779 -1.79612 -0.118132 0
M  V30 2110 H 193.154 -0.718118 0.223182 0
M  V30 2111 H 195.125 -2.47733 1.66346 0
M  V30 2112 C 193.874 -3.47168 0.192262 0
M  V30 2113 H 193.197 -3.88215 0.955475 0
M  V30 2114 H 194.637 -4.23995 -0.0198274 0
M  V30 2115 C 193.096 -3.19298 -1.07472 0
M  V30 2116 O 193.626 -3.3891 -2.15645 0
M  V30 2117 N 191.832 -2.73113 -0.992847 0
M  V30 2118 H 191.379 -2.57354 -0.112474 0
M  V30 2119 H 191.337 -2.54842 -1.84127 0
M  V30 2120 N 195.109 -0.891671 -1.2995 0
M  V30 2121 C 196.039 -0.379797 -2.30391 0
M  V30 2122 C 197.02 0.540919 -1.6127 0
M  V30 2123 O 198.205 0.453352 -1.88834 0
M  V30 2124 C 195.335 0.400654 -3.44981 0
M  V30 2125 C 194.289 -0.428905 -4.25846 0
M  V30 2126 C 193.615 0.478557 -5.32554 0
M  V30 2127 C 194.915 -1.67458 -4.94727 0
M  V30 2128 H 196.609 -1.21914 -2.73454 0
M  V30 2129 H 194.155 -0.587675 -1.31462 0
M  V30 2130 H 196.108 0.769434 -4.14316 0
M  V30 2131 H 194.832 1.27371 -3.0074 0
M  V30 2132 H 193.491 -0.779911 -3.58208 0
M  V30 2133 H 193.139 1.34951 -4.84559 0
M  V30 2134 H 192.839 -0.0727433 -5.87555 0
M  V30 2135 H 194.363 0.843705 -6.04743 0
M  V30 2136 H 195.777 -1.376 -5.56542 0
M  V30 2137 H 194.174 -2.16659 -5.59624 0
M  V30 2138 H 195.244 -2.41518 -4.20473 0
M  V30 2139 N 196.587 1.43421 -0.653314 0
M  V30 2140 C 198.003 1.56341 -0.320886 0
M  V30 2141 C 198.203 1.63696 1.17499 0
M  V30 2142 O 197.259 1.59208 1.95982 0
M  V30 2143 C 198.572 2.82424 -1.03233 0
M  V30 2144 C 200.12 2.96168 -1.01259 0
M  V30 2145 C 200.595 4.25084 -1.70492 0
M  V30 2146 N 202.086 4.31948 -1.67257 0
M  V30 2147 C 202.821 5.30466 -2.17701 0
M  V30 2148 N 202.317 6.35261 -2.76434 0
M  V30 2149 N 204.11 5.2212 -2.082 0
M  V30 2150 H 196.261 1.3689 -1.62403 0
M  V30 2151 H 198.524 0.657455 -0.682977 0
M  V30 2152 H 198.23 2.83053 -2.08744 0
M  V30 2153 H 198.104 3.72653 -0.583948 0
M  V30 2154 H 200.491 2.9508 0.0341235 0
M  V30 2155 H 200.572 2.07229 -1.49966 0
M  V30 2156 H 200.216 4.26932 -2.7512 0
M  V30 2157 H 200.146 5.1292 -1.19251 0
M  V30 2158 H 202.637 3.56838 -1.24398 0
M  V30 2159 H 202.95 7.06754 -3.12601 0
M  V30 2160 H 201.295 6.35884 -2.80495 0
M  V30 2161 H 204.486 4.39166 -1.62021 0
M  V30 2162 H 204.659 5.98739 -2.47822 0
M  V30 2163 N 198.065 0.39524 1.52563 0
M  V30 2164 C 199.013 -0.451859 2.28169 0
M  V30 2165 C 200.007 -1.05792 1.32304 0
M  V30 2166 O 201.213 -0.997718 1.49818 0
M  V30 2167 H 197.588 -0.164481 0.733792 0
M  V30 2168 H 199.559 0.207199 2.9768 0
M  V30 2169 C 198.308 -1.56385 3.10546 0
M  V30 2170 H 197.631 -1.10682 3.84174 0
M  V30 2171 H 199.071 -2.13067 3.66577 0
M  V30 2172 C 197.53 -2.52328 2.23231 0
M  V30 2173 O 198.06 -3.5588 1.86312 0
M  V30 2174 N 196.266 -2.22209 1.87274 0
M  V30 2175 H 195.813 -1.38033 2.17496 0
M  V30 2176 H 195.771 -2.86652 1.29143 0
M  V30 2177 N 199.544 -1.57102 0.125237 0
M  V30 2178 C 200.793 -1.94582 -0.531095 0
M  V30 2179 C 201.106 -1.01126 -1.6743 0
M  V30 2180 O 202.312 -1.28097 -2.39381 0
M  V30 2181 C 200.768 -3.45839 -0.996164 0
M  V30 2182 C 200.376 -4.47842 0.118926 0
M  V30 2183 C 202.12 -3.92227 -1.62352 0
M  V30 2184 C 200.027 -5.90284 -0.363192 0
M  V30 2185 H 198.957 -0.726391 -0.20217 0
M  V30 2186 H 201.608 -1.82339 0.206092 0
M  V30 2187 H 199.99 -3.53338 -1.78796 0
M  V30 2188 H 201.164 -4.52018 0.895358 0
M  V30 2189 H 199.479 -4.11243 0.653324 0
M  V30 2190 H 202.076 -4.96069 -1.99548 0
M  V30 2191 H 202.419 -3.32552 -2.50429 0
M  V30 2192 H 202.952 -3.87554 -0.897019 0
M  V30 2193 H 199.691 -6.53728 0.481679 0
M  V30 2194 H 199.211 -5.89515 -1.10597 0
M  V30 2195 H 200.89 -6.41752 -0.822377 0
M  V30 2196 N 201.022 0.148545 -1.56898 0
M  V30 2197 C 202.25 0.876389 -1.87422 0
M  V30 2198 C 202.665 1.74809 -0.713256 0
M  V30 2199 O 202.022 1.79725 0.317025 0
M  V30 2200 C 202.073 1.73438 -3.17178 0
M  V30 2201 O 201.794 0.897809 -4.28802 0
M  V30 2202 C 203.295 2.56993 -3.61205 0
M  V30 2203 H 200.515 0.253489 -0.621277 0
M  V30 2204 H 203.059 0.141798 -2.04008 0
M  V30 2205 H 201.214 2.42205 -3.0235 0
M  V30 2206 H 201.628 1.48672 -5.02988 0
M  V30 2207 H 203.102 3.12773 -4.54838 0
M  V30 2208 H 203.579 3.32958 -2.86419 0
M  V30 2209 H 204.185 1.9352 -3.78722 0
M  V30 2210 N 202.5 1.5196 0.417844 0
M  V30 2211 C 203.916 1.40569 0.755816 0
M  V30 2212 C 204.116 0.503316 1.95113 0
M  V30 2213 O 203.172 -0.0341925 2.52477 0
M  V30 2214 C 204.485 2.82947 1.01791 0
M  V30 2215 C 206.033 2.92231 1.12116 0
M  V30 2216 C 206.508 4.35559 1.41608 0
M  V30 2217 N 207.999 4.38753 1.48491 0
M  V30 2218 C 208.734 5.46705 1.7292 0
M  V30 2219 N 208.23 6.64788 1.95011 0
M  V30 2220 N 210.023 5.34209 1.74863 0
M  V30 2221 H 202.174 2.09168 -0.369098 0
M  V30 2222 H 204.437 0.942409 -0.102809 0
M  V30 2223 H 204.143 3.5106 0.212081 0
M  V30 2224 H 204.017 3.23462 1.94042 0
M  V30 2225 H 206.404 2.24304 1.9176 0
M  V30 2226 H 206.485 2.55185 0.177225 0
M  V30 2227 H 206.129 5.04042 0.624848 0
M  V30 2228 H 206.059 4.70133 2.37239 0
M  V30 2229 H 208.55 3.5363 1.33244 0
M  V30 2230 H 208.863 7.42845 2.13076 0
M  V30 2231 H 207.208 6.67869 1.92293 0
M  V30 2232 H 210.399 4.40937 1.57137 0
M  V30 2233 H 210.572 6.18415 1.93563 0
M  V30 2234 N 203.978 -0.674533 1.42435 0
M  V30 2235 C 205.226 -1.43175 1.42637 0
M  V30 2236 C 205.547 -1.94951 0.0438992 0
M  V30 2237 O 204.817 -1.7308 -0.917607 0
M  V30 2238 H 203.397 -0.531307 0.525092 0
M  V30 2239 H 206.059 -0.797006 1.77859 0
M  V30 2240 H 205.155 -2.28463 2.12629 0
M  V30 2241 N 205.456 -1.28612 -0.910864 0
M  V30 2242 C 206.419 -1.12803 -1.9952 0
M  V30 2243 C 207.419 -0.0668264 -1.60661 0
M  V30 2244 O 208.609 -0.312847 -1.71368 0
M  V30 2245 C 205.741 -0.72254 -3.33155 0
M  V30 2246 H 206.934 -2.09109 -2.14973 0
M  V30 2247 H 204.487 -1.11639 -1.09391 0
M  V30 2248 H 205.222 0.241152 -3.23402 0
M  V30 2249 H 205.007 -1.48916 -3.62721 0
M  V30 2250 H 206.497 -0.634666 -4.12749 0
M  V30 2251 N 206.934 1.1197 -1.10907 0
M  V30 2252 C 208.183 1.82947 -0.849302 0
M  V30 2253 C 208.496 1.85275 0.627112 0
M  V30 2254 O 209.702 2.52296 1.00295 0
M  V30 2255 C 208.158 3.28529 -1.46959 0
M  V30 2256 C 207.766 3.34546 -2.97965 0
M  V30 2257 C 209.51 4.04443 -1.28942 0
M  V30 2258 C 207.417 4.74491 -3.53004 0
M  V30 2259 H 206.347 0.685477 -0.314065 0
M  V30 2260 H 208.998 1.2604 -1.33365 0
M  V30 2261 H 207.38 3.85333 -0.912917 0
M  V30 2262 H 208.554 2.87654 -3.59989 0
M  V30 2263 H 206.869 2.72108 -3.15192 0
M  V30 2264 H 209.466 5.07787 -1.67502 0
M  V30 2265 H 209.809 4.15656 -0.231456 0
M  V30 2266 H 210.342 3.5401 -1.81443 0
M  V30 2267 H 207.081 4.68474 -4.58489 0
M  V30 2268 H 206.601 5.21816 -2.9575 0
M  V30 2269 H 208.28 5.4344 -3.51115 0
M  V30 2270 N 208.412 0.89855 1.29475 0
M  V30 2271 C 209.828 0.594483 1.48115 0
M  V30 2272 C 210.028 -0.86431 1.82022 0
M  V30 2273 O 209.084 -1.64457 1.91599 0
M  V30 2274 C 210.397 1.51932 2.59494 0
M  V30 2275 C 211.945 1.5244 2.7337 0
M  V30 2276 C 212.42 2.43548 3.87877 0
M  V30 2277 N 213.911 2.41589 3.95208 0
M  V30 2278 C 214.646 3.08789 4.83153 0
M  V30 2279 N 214.142 3.85265 5.75798 0
M  V30 2280 N 215.935 2.97952 4.76635 0
M  V30 2281 H 208.086 1.84207 1.05742 0
M  V30 2282 H 210.349 0.789251 0.525154 0
M  V30 2283 H 210.055 2.55865 2.41301 0
M  V30 2284 H 209.929 1.23899 3.56271 0
M  V30 2285 H 212.316 0.492518 2.90961 0
M  V30 2286 H 212.397 1.8451 1.77172 0
M  V30 2287 H 212.041 3.46829 3.71041 0
M  V30 2288 H 211.971 2.08788 4.83441 0
M  V30 2289 H 214.462 1.86025 3.28943 0
M  V30 2290 H 214.775 4.33598 6.39697 0
M  V30 2291 H 213.12 3.89371 5.75687 0
M  V30 2292 H 216.311 2.37723 4.03244 0
M  V30 2293 H 216.484 3.50599 5.44962 0
M  V30 2294 N 209.89 -1.43072 0.660911 0
M  V30 2295 C 211.139 -2.00942 0.174735 0
M  V30 2296 C 211.452 -1.52797 -1.22117 0
M  V30 2297 O 212.658 -2.02991 -1.80297 0
M  V30 2298 C 211.114 -3.58948 0.261559 0
M  V30 2299 C 210.722 -4.16085 1.66064 0
M  V30 2300 C 212.466 -4.24173 -0.166617 0
M  V30 2301 C 210.373 -5.6641 1.70098 0
M  V30 2302 H 209.303 -0.751483 0.0615631 0
M  V30 2303 H 211.954 -1.63955 0.824069 0
M  V30 2304 H 210.336 -3.93372 -0.455421 0
M  V30 2305 H 211.51 -3.93147 2.40359 0
M  V30 2306 H 209.825 -3.6326 2.03546 0
M  V30 2307 H 212.422 -5.34471 -0.156433 0
M  V30 2308 H 212.765 -3.98647 -1.19943 0
M  V30 2309 H 213.298 -3.94659 0.498875 0
M  V30 2310 H 210.037 -5.96715 2.71315 0
M  V30 2311 H 209.557 -5.91382 1.00139 0
M  V30 2312 H 211.236 -6.30585 1.44816 0
M  V30 2313 N 211.368 -0.403325 -1.52352 0
M  V30 2314 C 212.278 0.432009 -2.30588 0
M  V30 2315 C 213.294 1.05884 -1.38075 0
M  V30 2316 O 214.47 1.06161 -1.71148 0
M  V30 2317 C 211.535 1.53669 -3.10784 0
M  V30 2318 C 210.596 0.933525 -4.19027 0
M  V30 2319 C 209.829 1.98557 -4.9539 0
M  V30 2320 O 210.052 3.20283 -4.71991 0
M  V30 2321 O 208.986 1.59504 -5.80381 0
M  V30 2322 H 212.812 -0.205739 -3.03002 0
M  V30 2323 H 210.397 -0.166675 -1.48467 0
M  V30 2324 H 212.279 2.17814 -3.60742 0
M  V30 2325 H 210.954 2.15915 -2.41169 0
M  V30 2326 H 209.861 0.254954 -3.7323 0
M  V30 2327 H 211.194 0.35508 -4.90918 0
M  V30 2328 N 212.846 1.57033 -0.133567 0
M  V30 2329 C 213.793 2.16074 0.811208 0
M  V30 2330 C 214.763 1.08979 1.2535 0
M  V30 2331 O 215.948 1.36958 1.32843 0
M  V30 2332 C 213.088 2.77595 2.05024 0
M  V30 2333 C 212.201 3.99042 1.65498 0
M  V30 2334 C 211.336 4.48603 2.84479 0
M  V30 2335 C 210.375 5.62547 2.41262 0
M  V30 2336 N 209.512 6.06787 3.53206 0
M  V30 2337 H 214.352 2.96477 0.300906 0
M  V30 2338 H 211.889 1.46462 0.136822 0
M  V30 2339 H 213.847 3.11402 2.77642 0
M  V30 2340 H 212.477 1.99859 2.53488 0
M  V30 2341 H 211.529 3.71302 0.826981 0
M  V30 2342 H 212.841 4.81629 1.29748 0
M  V30 2343 H 211.995 4.84395 3.65303 0
M  V30 2344 H 210.734 3.64995 3.23465 0
M  V30 2345 H 209.739 5.26345 1.58874 0
M  V30 2346 H 210.964 6.47931 2.03377 0
M  V30 2347 H 208.91 5.26117 3.91838 0
M  V30 2348 H 208.827 6.84266 3.21427 0
M  V30 2349 H 210.095 6.4722 4.34427 0
M  V30 2350 N 214.325 -0.140222 1.56975 0
M  V30 2351 C 215.273 -1.19207 1.99731 0
M  V30 2352 C 216.267 -1.44089 0.890777 0
M  V30 2353 O 217.473 -1.44301 1.07597 0
M  V30 2354 H 213.848 -0.40142 0.635898 0
M  V30 2355 H 215.819 -0.804813 2.87342 0
M  V30 2356 C 214.568 -2.51617 2.39967 0
M  V30 2357 H 213.891 -2.33303 3.24669 0
M  V30 2358 H 215.331 -3.23827 2.73701 0
M  V30 2359 C 213.79 -3.12654 1.25496 0
M  V30 2360 O 214.32 -3.97786 0.559371 0
M  V30 2361 N 212.526 -2.72206 1.01746 0
M  V30 2362 H 212.073 -2.03074 1.58489 0
M  V30 2363 H 212.031 -3.13377 0.253461 0
M  V30 2364 N 215.803 -1.52179 -0.40978 0
M  V30 2365 C 216.766 -1.74853 -1.48186 0
M  V30 2366 C 217.766 -0.618417 -1.48433 0
M  V30 2367 O 218.956 -0.886286 -1.49969 0
M  V30 2368 C 216.088 -1.8303 -2.87598 0
M  V30 2369 H 217.281 -2.70559 -1.29374 0
M  V30 2370 H 214.834 -1.42586 -0.640233 0
M  V30 2371 H 215.569 -0.89236 -3.11781 0
M  V30 2372 H 215.354 -2.65187 -2.88822 0
M  V30 2373 H 216.844 -2.02316 -3.65319 0
M  V30 2374 N 217.281 0.66697 -1.42791 0
M  V30 2375 C 218.558 1.4234 -1.34159 0
M  V30 2376 C 218.938 2.11093 0.0172729 0
M  V30 2377 O 218.286 2.03808 1.03318 0
M  V30 2378 C 218.496 2.41942 -2.51526 0
M  V30 2379 C 219.844 3.06353 -2.93995 0
M  V30 2380 O 220.868 2.52269 -2.51473 0
M  V30 2381 O 219.727 4.04376 -3.67617 0
M  V30 2382 H 216.821 0.635277 -0.529483 0
M  V30 2383 H 219.367 0.695034 -1.54814 0
M  V30 2384 H 218.139 1.89991 -3.42081 0
M  V30 2385 H 217.762 3.22249 -2.32898 0
M  V30 2386 N 218.759 1.29093 0.90403 0
M  V30 2387 C 219.689 1.16401 2.02418 0
M  V30 2388 C 220.67 0.0593085 1.69997 0
M  V30 2389 O 221.855 0.238021 1.92736 0
M  V30 2390 C 218.985 0.835233 3.37107 0
M  V30 2391 C 217.939 1.89578 3.83724 0
M  V30 2392 C 217.265 1.42041 5.15489 0
M  V30 2393 C 218.565 3.30394 4.04521 0
M  V30 2394 H 220.259 2.10109 2.13295 0
M  V30 2395 H 217.805 1.01157 1.02486 0
M  V30 2396 H 219.758 0.733169 4.14973 0
M  V30 2397 H 218.482 -0.137543 3.2631 0
M  V30 2398 H 217.141 1.98715 3.08071 0
M  V30 2399 H 216.789 0.436426 5.01103 0
M  V30 2400 H 216.489 2.12964 5.4765 0
M  V30 2401 H 218.013 1.33176 5.959 0
M  V30 2402 H 219.427 3.24123 4.72882 0
M  V30 2403 H 217.824 3.99237 4.48029 0
M  V30 2404 H 218.894 3.73692 3.09002 0
M  V30 2405 N 220.237 -1.11381 1.11499 0
M  V30 2406 C 221.477 -1.84763 0.874188 0
M  V30 2407 C 221.841 -1.82726 -0.589496 0
M  V30 2408 O 223.042 -2.51562 -0.947089 0
M  V30 2409 C 221.313 -3.27931 1.42112 0
M  V30 2410 S 222.872 -4.18557 1.31739 0
M  V30 2411 H 219.69 -0.637115 0.315603 0
M  V30 2412 H 222.292 -1.34097 1.42261 0
M  V30 2413 H 220.996 -3.26978 2.48019 0
M  V30 2414 H 220.527 -3.83665 0.869761 0
M  V30 2415 H 222.542 -4.95396 0.282335 0
M  V30 2416 N 221.715 -0.905404 -1.28997 0
M  V30 2417 C 222.945 -0.549049 -1.99171 0
M  V30 2418 C 223.353 0.87203 -1.67906 0
M  V30 2419 O 222.696 1.58796 -0.923561 0
M  V30 2420 C 222.758 -0.668306 -3.53234 0
M  V30 2421 C 222.422 -2.0574 -4.08069 0
M  V30 2422 C 223.419 -3.0292 -4.22534 0
M  V30 2423 C 221.104 -2.36833 -4.42962 0
M  V30 2424 C 223.098 -4.29314 -4.71135 0
M  V30 2425 C 220.785 -3.63467 -4.91258 0
M  V30 2426 C 221.783 -4.59522 -5.053 0
M  V30 2427 O 221.471 -5.83907 -5.52546 0
M  V30 2428 H 221.203 -0.208784 -0.64295 0
M  V30 2429 H 223.757 -1.21836 -1.65363 0
M  V30 2430 H 221.987 0.0580547 -3.86656 0
M  V30 2431 H 223.676 -0.320273 -4.04634 0
M  V30 2432 H 224.442 -2.80216 -3.95859 0
M  V30 2433 H 220.321 -1.62824 -4.31288 0
M  V30 2434 H 223.865 -5.04293 -4.8201 0
M  V30 2435 H 219.762 -3.86 -5.17372 0
M  V30 2436 H 220.53 -5.86578 -5.70849 0
M  V30 2437 N 223.193 1.4272 -0.668489 0
M  V30 2438 C 224.123 2.335 -0.000100175 0
M  V30 2439 C 225.104 1.50328 0.795964 0
M  V30 2440 O 226.289 1.78949 0.754385 0
M  V30 2441 C 223.419 3.33874 0.956302 0
M  V30 2442 C 222.373 4.27152 0.269278 0
M  V30 2443 C 221.699 5.17684 1.33818 0
M  V30 2444 C 222.999 5.15373 -0.847805 0
M  V30 2445 H 224.693 2.89639 -0.758244 0
M  V30 2446 H 222.239 1.39269 -0.366079 0
M  V30 2447 H 224.192 3.9629 1.43292 0
M  V30 2448 H 222.916 2.76025 1.74579 0
M  V30 2449 H 221.575 3.66123 -0.187042 0
M  V30 2450 H 221.223 4.56165 2.1195 0
M  V30 2451 H 220.923 5.80918 0.883659 0
M  V30 2452 H 222.447 5.82974 1.81586 0
M  V30 2453 H 223.861 5.7151 -0.452681 0
M  V30 2454 H 222.258 5.87407 -1.22773 0
M  V30 2455 H 223.328 4.5415 -1.69929 0
M  V30 2456 N 224.671 0.411399 1.52136 0
M  V30 2457 C 225.896 -0.165538 2.06738 0
M  V30 2458 C 226.321 -1.379 1.27926 0
M  V30 2459 O 225.679 -1.78628 0.310114 0
M  V30 2460 C 225.727 -0.492124 3.57226 0
M  V30 2461 O 224.831 -1.58276 3.80818 0
M  V30 2462 H 224.172 -0.0132132 0.663869 0
M  V30 2463 H 226.702 0.585253 1.96051 0
M  V30 2464 H 226.712 -0.750104 4.01045 0
M  V30 2465 H 225.387 0.394922 4.14021 0
M  V30 2466 H 223.964 -1.31677 3.48877 0
M  V30 2467 N 226.149 -1.5696 0.141893 0
M  V30 2468 C 227.377 -2.00322 -0.517579 0
M  V30 2469 C 227.792 -1.02193 -1.58752 0
M  V30 2470 O 227.149 -0.0181619 -1.82491 0
M  V30 2471 C 227.2 -3.43618 -1.12289 0
M  V30 2472 O 226.921 -4.37995 -0.0956929 0
M  V30 2473 C 228.422 -4.02231 -1.86347 0
M  V30 2474 H 225.642 -0.657243 -0.135177 0
M  V30 2475 H 228.186 -2.03146 0.234973 0
M  V30 2476 H 226.341 -3.41662 -1.82609 0
M  V30 2477 H 226.755 -5.21729 -0.538469 0
M  V30 2478 H 228.229 -5.04509 -2.23997 0
M  V30 2479 H 228.706 -3.42655 -2.74744 0
M  V30 2480 H 229.312 -4.07802 -1.20737 0
M  V30 2481 N 227.627 0.131896 -1.57047 0
M  V30 2482 C 228.873 0.843179 -1.84441 0
M  V30 2483 C 229.206 1.80129 -0.725749 0
M  V30 2484 O 228.481 1.92624 0.269469 0
M  V30 2485 C 228.764 1.60442 -3.22382 0
M  V30 2486 C 228.617 0.666782 -4.4483 0
M  V30 2487 C 229.936 2.56354 -3.5773 0
M  V30 2488 H 227.055 0.305081 -0.670891 0
M  V30 2489 H 229.697 0.107839 -1.89694 0
M  V30 2490 H 227.847 2.23128 -3.18035 0
M  V30 2491 H 229.519 0.0497646 -4.61273 0
M  V30 2492 H 227.762 -0.022609 -4.33794 0
M  V30 2493 H 228.433 1.23579 -5.37989 0
M  V30 2494 H 230.909 2.0378 -3.62785 0
M  V30 2495 H 229.785 3.06657 -4.5525 0
M  V30 2496 H 230.046 3.38419 -2.84473 0
M  V30 2497 N 229.106 1.52395 0.401703 0
M  V30 2498 C 230.383 1.57387 1.16141 0
M  V30 2499 C 230.763 0.359359 2.08019 0
M  V30 2500 O 230.111 -0.65326 2.18963 0
M  V30 2501 C 230.321 2.90631 1.93221 0
M  V30 2502 C 231.669 3.43904 2.49028 0
M  V30 2503 O 232.693 2.92421 2.03393 0
M  V30 2504 O 231.552 4.33823 3.32356 0
M  V30 2505 H 228.646 0.634262 0.530698 0
M  V30 2506 H 231.192 1.64725 0.407883 0
M  V30 2507 H 229.964 3.70473 1.25958 0
M  V30 2508 H 229.587 2.8662 2.75563 0
M  V30 2509 N 230.584 -0.659388 1.43143 0
M  V30 2510 C 231.83 -1.41984 1.45644 0
M  V30 2511 C 232.185 -1.92245 0.0771718 0
M  V30 2512 O 231.478 -1.68976 -0.903205 0
M  V30 2513 C 231.672 -2.62206 2.42864 0
M  V30 2514 C 231.501 -2.23711 3.90107 0
M  V30 2515 C 230.271 -2.12332 4.58523 0
M  V30 2516 C 232.469 -1.84384 4.80112 0
M  V30 2517 N 230.451 -1.67102 5.9072 0
M  V30 2518 C 231.822 -1.5019 6.01534 0
M  V30 2519 C 233.877 -1.71512 4.67427 0
M  V30 2520 C 232.58 -1.04414 7.11681 0
M  V30 2521 C 234.606 -1.27142 5.77572 0
M  V30 2522 C 233.968 -0.938808 6.98116 0
M  V30 2523 H 230.067 -0.515448 0.588079 0
M  V30 2524 H 232.651 -0.759409 1.79279 0
M  V30 2525 H 230.822 -3.25917 2.11265 0
M  V30 2526 H 232.554 -3.28877 2.35843 0
M  V30 2527 H 229.309 -2.31893 4.12944 0
M  V30 2528 H 229.733 -1.46866 6.60878 0
M  V30 2529 H 234.375 -1.95868 3.74694 0
M  V30 2530 H 232.093 -0.788061 8.04248 0
M  V30 2531 H 235.679 -1.17681 5.69774 0
M  V30 2532 H 234.559 -0.6007 7.81896 0
M  V30 2533 N 232.062 -1.29571 -0.897171 0
M  V30 2534 C 233.287 -1.20705 -1.68656 0
M  V30 2535 C 233.712 0.228582 -1.86706 0
M  V30 2536 O 233.07 1.16494 -1.3892 0
M  V30 2537 C 233.118 -1.9282 -3.04717 0
M  V30 2538 O 232.222 -1.24697 -3.93096 0
M  V30 2539 H 231.563 -0.418126 -0.515816 0
M  V30 2540 H 234.093 -1.71183 -1.12061 0
M  V30 2541 H 234.103 -2.01372 -3.54843 0
M  V30 2542 H 232.778 -2.97239 -2.90899 0
M  V30 2543 H 231.355 -1.2442 -3.51531 0
M  V30 2544 N 233.54 1.10788 -1.12088 0
M  V30 2545 C 234.47 2.19083 -0.807755 0
M  V30 2546 C 235.451 1.6858 0.226859 0
M  V30 2547 O 236.636 1.93997 0.0888475 0
M  V30 2548 C 233.766 3.46344 -0.257576 0
M  V30 2549 C 232.72 4.101 -1.22483 0
M  V30 2550 C 232.046 5.32016 -0.535052 0
M  V30 2551 C 233.346 4.54236 -2.57811 0
M  V30 2552 H 235.04 2.45534 -1.71328 0
M  V30 2553 H 232.586 1.1801 -0.825205 0
M  V30 2554 H 234.539 4.21392 -0.0262679 0
M  V30 2555 H 233.263 3.19373 0.683278 0
M  V30 2556 H 231.922 3.37054 -1.44189 0
M  V30 2557 H 231.57 5.01319 0.410827 0
M  V30 2558 H 231.27 5.75625 -1.18024 0
M  V30 2559 H 232.794 6.09799 -0.312695 0
M  V30 2560 H 234.208 5.20575 -2.40155 0
M  V30 2561 H 232.605 5.08682 -3.18375 0
M  V30 2562 H 233.675 3.6734 -3.16528 0
M  V30 2563 N 235.018 0.912232 1.28515 0
M  V30 2564 C 236.267 0.540504 1.94323 0
M  V30 2565 C 236.58 -0.920044 1.72611 0
M  V30 2566 O 237.786 -1.39986 2.32629 0
M  V30 2567 C 236.242 0.915803 3.48053 0
M  V30 2568 C 235.85 2.39598 3.78546 0
M  V30 2569 C 237.594 0.614588 4.20027 0
M  V30 2570 C 235.501 2.71148 5.25578 0
M  V30 2571 H 234.431 0.198418 0.727424 0
M  V30 2572 H 237.082 1.11094 1.46049 0
M  V30 2573 H 235.464 0.274168 3.9505 0
M  V30 2574 H 236.638 3.08422 3.42364 0
M  V30 2575 H 234.953 2.66749 3.1974 0
M  V30 2576 H 237.55 0.827002 5.28266 0
M  V30 2577 H 237.893 -0.447531 4.13887 0
M  V30 2578 H 238.426 1.21462 3.78803 0
M  V30 2579 H 235.165 3.76207 5.36794 0
M  V30 2580 H 234.685 2.0696 5.62963 0
M  V30 2581 H 236.364 2.58072 5.93302 0
M  V30 2582 N 236.496 -1.42363 0.676048 0
M  V30 2583 C 237.426 -2.33497 0.0124832 0
M  V30 2584 C 238.407 -1.50748 -0.787981 0
M  V30 2585 O 239.592 -1.79346 -0.744884 0
M  V30 2586 C 236.722 -3.34377 -0.938582 0
M  V30 2587 C 235.676 -4.27289 -0.246622 0
M  V30 2588 C 235.002 -5.18386 -1.31071 0
M  V30 2589 C 236.302 -5.14916 0.875125 0
M  V30 2590 H 237.996 -2.89233 0.773593 0
M  V30 2591 H 235.542 -1.39073 0.37346 0
M  V30 2592 H 237.495 -3.97044 -1.41188 0
M  V30 2593 H 236.219 -2.76947 -1.73113 0
M  V30 2594 H 234.878 -3.66018 0.206456 0
M  V30 2595 H 234.526 -4.57282 -2.09528 0
M  V30 2596 H 234.226 -5.81378 -0.852839 0
M  V30 2597 H 235.75 -5.83929 -1.78492 0
M  V30 2598 H 237.164 -5.71262 0.482983 0
M  V30 2599 H 235.561 -5.86747 1.25887 0
M  V30 2600 H 236.631 -4.53242 1.72335 0
M  V30 2601 N 237.974 -0.419461 -1.51915 0
M  V30 2602 C 239.251 0.211999 -1.94448 0
M  V30 2603 C 239.631 1.61703 -1.35703 0
M  V30 2604 O 238.979 2.22102 -0.536931 0
M  V30 2605 C 239.189 0.207872 -3.4838 0
M  V30 2606 C 240.537 0.422192 -4.22496 0
M  V30 2607 O 241.561 0.286778 -3.55044 0
M  V30 2608 O 240.42 0.690009 -5.42126 0
M  V30 2609 H 237.514 0.139586 -0.815135 0
M  V30 2610 H 240.06 -0.476151 -1.62883 0
M  V30 2611 H 238.832 -0.775102 -3.83546 0
M  V30 2612 H 238.455 0.939688 -3.86336 0
M  V30 2613 N 239.452 1.56882 -0.150215 0
M  V30 2614 C 240.415 2.1573 0.774157 0
M  V30 2615 C 241.415 1.0999 1.17298 0
M  V30 2616 O 242.605 1.35613 1.09338 0
M  V30 2617 C 239.737 2.72302 2.05096 0
M  V30 2618 H 240.93 2.98752 0.262201 0
M  V30 2619 H 238.483 1.55985 0.099248 0
M  V30 2620 H 239.218 1.92956 2.6065 0
M  V30 2621 H 239.003 3.49665 1.77416 0
M  V30 2622 H 240.493 3.17632 2.71109 0
M  V30 2623 N 240.93 -0.123565 1.57115 0
M  V30 2624 C 242.176 -0.833386 1.84885 0
M  V30 2625 C 242.509 -1.79742 0.735292 0
M  V30 2626 O 241.784 -1.92764 -0.25925 0
M  V30 2627 C 242.067 -1.5873 3.23228 0
M  V30 2628 C 241.92 -0.643183 4.45178 0
M  V30 2629 C 243.239 -2.54453 3.59085 0
M  V30 2630 H 240.358 -0.301518 0.6725 0
M  V30 2631 H 243 -0.097778 1.89748 0
M  V30 2632 H 241.15 -2.21438 3.19214 0
M  V30 2633 H 242.822 -0.0253015 4.61293 0
M  V30 2634 H 241.065 0.0456139 4.33776 0
M  V30 2635 H 241.736 -1.20724 5.38637 0
M  V30 2636 H 244.212 -2.01853 3.63861 0
M  V30 2637 H 243.088 -3.04238 4.5687 0
M  V30 2638 H 243.349 -3.36906 2.86264 0
M  V30 2639 N 242.408 -1.52605 -0.393616 0
M  V30 2640 C 243.633 -1.71592 -1.16495 0
M  V30 2641 C 244.058 -0.43133 -1.83088 0
M  V30 2642 O 243.416 0.612523 -1.7064 0
M  V30 2643 C 243.464 -2.86318 -2.19213 0
M  V30 2644 O 242.568 -2.52969 -3.257 0
M  V30 2645 H 241.909 -0.570734 -0.33935 0
M  V30 2646 H 244.439 -1.99377 -0.459324 0
M  V30 2647 H 244.449 -3.1168 -2.63286 0
M  V30 2648 H 243.124 -3.79511 -1.7013 0
M  V30 2649 H 241.701 -2.38332 -2.86797 0
M  V30 2650 N 243.887 0.651787 -1.4349 0
M  V30 2651 C 244.835 1.78586 -1.49029 0
M  V30 2652 C 245.829 1.65448 -0.363767 0
M  V30 2653 O 247.035 1.71777 -0.537821 0
M  V30 2654 H 243.41 0.589236 -0.467231 0
M  V30 2655 H 245.381 1.71035 -2.44519 0
M  V30 2656 C 244.13 3.16851 -1.43181 0
M  V30 2657 H 243.453 3.27598 -2.29171 0
M  V30 2658 H 244.893 3.96156 -1.51118 0
M  V30 2659 C 243.352 3.36568 -0.149616 0
M  V30 2660 O 243.882 3.93885 0.788509 0
M  V30 2661 N 242.088 2.90539 -0.0593484 0
M  V30 2662 H 241.635 2.4408 -0.823575 0
M  V30 2663 H 241.593 3.04108 0.797853 0
M  V30 2664 N 245.365 1.30045 0.890287 0
M  V30 2665 C 246.313 1.15873 2.01683 0
M  V30 2666 C 247.307 0.0719403 1.69247 0
M  V30 2667 O 248.513 0.232414 1.78493 0
M  V30 2668 H 244.888 0.358203 0.661207 0
M  V30 2669 H 246.859 2.11229 2.10772 0
M  V30 2670 C 245.608 0.861842 3.36849 0
M  V30 2671 H 244.931 1.69016 3.62317 0
M  V30 2672 H 246.371 0.802762 4.16331 0
M  V30 2673 C 244.83 -0.435132 3.34078 0
M  V30 2674 O 245.36 -1.4583 3.74295 0
M  V30 2675 N 243.566 -0.444377 2.87182 0
M  V30 2676 H 243.113 0.388723 2.5465 0
M  V30 2677 H 243.071 -1.31213 2.85711 0
M  V30 2678 N 246.843 -1.10192 1.12674 0
M  V30 2679 C 248.073 -1.85713 0.905213 0
M  V30 2680 C 248.481 -1.81056 -0.549108 0
M  V30 2681 O 247.824 -1.19927 -1.39151 0
M  V30 2682 C 247.886 -3.34972 1.30516 0
M  V30 2683 C 247.55 -3.63385 2.77129 0
M  V30 2684 C 248.547 -3.59772 3.75313 0
M  V30 2685 C 246.232 -3.91981 3.14096 0
M  V30 2686 C 248.226 -3.84354 5.08479 0
M  V30 2687 C 245.913 -4.16218 4.47443 0
M  V30 2688 C 246.911 -4.12395 5.44444 0
M  V30 2689 O 246.599 -4.36014 6.75387 0
M  V30 2690 H 246.331 -0.593719 0.323223 0
M  V30 2691 H 248.885 -1.40198 1.50112 0
M  V30 2692 H 247.115 -3.81156 0.652463 0
M  V30 2693 H 248.804 -3.91886 1.05736 0
M  V30 2694 H 249.57 -3.37716 3.48099 0
M  V30 2695 H 245.449 -3.94085 2.39202 0
M  V30 2696 H 248.993 -3.81285 5.84181 0
M  V30 2697 H 244.89 -4.37754 4.74386 0
M  V30 2698 H 245.658 -4.53516 6.8137 0
M  V30 2699 N 248.321 -0.919034 -1.28029 0
M  V30 2700 C 249.57 -0.550802 -1.94034 0
M  V30 2701 C 249.883 0.910877 -1.73096 0
M  V30 2702 O 251.089 1.3875 -2.33368 0
M  V30 2703 C 249.545 -0.934249 -3.47563 0
M  V30 2704 C 249.153 -2.41602 -3.7727 0
M  V30 2705 C 250.897 -0.636854 -4.19696 0
M  V30 2706 C 248.804 -2.73932 -5.24133 0
M  V30 2707 H 247.734 -0.202273 -0.726362 0
M  V30 2708 H 250.385 -1.11867 -1.45458 0
M  V30 2709 H 248.767 -0.295115 -3.94899 0
M  V30 2710 H 249.941 -3.10233 -3.40723 0
M  V30 2711 H 248.256 -2.68441 -3.18321 0
M  V30 2712 H 250.853 -0.855005 -5.2782 0
M  V30 2713 H 251.196 0.425575 -4.14119 0
M  V30 2714 H 251.729 -1.23469 -3.78154 0
M  V30 2715 H 248.468 -3.79049 -5.34792 0
M  V30 2716 H 247.988 -2.09942 -5.61858 0
M  V30 2717 H 249.667 -2.61215 -5.91925 0
M  V30 2718 N 249.799 1.42003 -0.683588 0
M  V30 2719 C 251.045 2.01712 -0.209825 0
M  V30 2720 C 251.378 1.53968 1.18353 0
M  V30 2721 O 250.653 0.745661 1.79639 0
M  V30 2722 C 250.936 3.59202 -0.254197 0
M  V30 2723 C 250.789 4.17102 -1.68363 0
M  V30 2724 C 252.108 4.38344 0.392709 0
M  V30 2725 H 249.227 0.732891 -0.0777189 0
M  V30 2726 H 251.869 1.68909 -0.87004 0
M  V30 2727 H 250.019 3.87278 0.307954 0
M  V30 2728 H 251.691 3.99946 -2.29871 0
M  V30 2729 H 249.934 3.72597 -2.22157 0
M  V30 2730 H 250.605 5.26249 -1.6663 0
M  V30 2731 H 253.081 4.16011 -0.0859162 0
M  V30 2732 H 251.957 5.47901 0.331063 0
M  V30 2733 H 252.218 4.16887 1.47164 0
M  V30 2734 N 251.277 0.427512 1.51691 0
M  V30 2735 C 252.525 -0.141948 2.01601 0
M  V30 2736 C 252.846 -1.44067 1.31414 0
M  V30 2737 O 252.116 -1.90763 0.445658 0
M  V30 2738 H 250.696 -0.0554468 0.744939 0
M  V30 2739 H 253.358 0.567968 1.86441 0
M  V30 2740 H 252.454 -0.324913 3.10404 0
M  V30 2741 N 252.755 -1.56801 0.158532 0
M  V30 2742 C 253.703 -2.18638 -0.793729 0
M  V30 2743 C 254.697 -1.14669 -1.24689 0
M  V30 2744 O 255.903 -1.32895 -1.21403 0
M  V30 2745 H 252.278 -0.700226 -0.274204 0
M  V30 2746 H 254.249 -2.97367 -0.248095 0
M  V30 2747 C 252.998 -2.83139 -2.0181 0
M  V30 2748 H 252.321 -3.62863 -1.67841 0
M  V30 2749 H 253.761 -3.29894 -2.66357 0
M  V30 2750 C 252.22 -1.82244 -2.83353 0
M  V30 2751 O 252.75 -1.3 -3.80083 0
M  V30 2752 N 250.956 -1.51288 -2.48114 0
M  V30 2753 H 250.503 -1.93964 -1.69516 0
M  V30 2754 H 250.461 -0.840296 -3.02963 0
M  V30 2755 N 254.233 0.115231 -1.57178 0
M  V30 2756 C 255.18 1.14115 -2.00615 0
M  V30 2757 C 256.15 1.40939 -0.878941 0
M  V30 2758 O 257.335 1.52741 -1.14345 0
M  V30 2759 C 254.475 2.46156 -2.4187 0
M  V30 2760 C 253.588 2.26236 -3.68024 0
M  V30 2761 C 252.723 3.51534 -3.98243 0
M  V30 2762 C 251.762 3.26787 -5.17568 0
M  V30 2763 N 250.899 4.44298 -5.43639 0
M  V30 2764 H 255.739 0.763743 -2.88047 0
M  V30 2765 H 253.276 0.365615 -1.42484 0
M  V30 2766 H 255.234 3.23189 -2.63827 0
M  V30 2767 H 253.864 2.81783 -1.57475 0
M  V30 2768 H 252.916 1.40102 -3.5366 0
M  V30 2769 H 254.228 2.03929 -4.55208 0
M  V30 2770 H 253.382 4.36984 -4.20868 0
M  V30 2771 H 252.121 3.76876 -3.09541 0
M  V30 2772 H 251.126 2.39729 -4.94783 0
M  V30 2773 H 252.351 3.02812 -6.0785 0
M  V30 2774 H 250.297 4.69754 -4.57895 0
M  V30 2775 H 250.214 4.25109 -6.25154 0
M  V30 2776 H 251.482 5.3087 -5.70786 0
M  V30 2777 N 255.711 1.52812 0.385517 0
M  V30 2778 C 257.122 1.5993 0.963293 0
M  V30 2779 C 257.473 0.454302 1.90868 0
M  V30 2780 O 256.598 -0.422132 2.12243 0
M  V30 2781 C 257.193 2.89871 1.75387 0
M  V30 2782 C 255.752 2.99389 2.28129 0
M  V30 2783 C 254.899 2.55071 1.08783 0
M  V30 2784 H 257.85 1.5784 0.164948 0
M  V30 2785 H 257.871 2.76553 2.61341 0
M  V30 2786 H 257.383 3.73186 1.06554 0
M  V30 2787 H 255.484 2.20619 3.00263 0
M  V30 2788 H 255.597 4.04096 2.57377 0
M  V30 2789 H 253.961 2.09473 1.4489 0
M  V30 2790 H 254.744 3.40785 0.414807 0
M  V30 2791 N 257.189 -0.644168 1.43834 0
M  V30 2792 C 258.6 -1.22554 1.40845 0
M  V30 2793 C 258.951 -1.9585 0.117115 0
M  V30 2794 O 258.076 -2.01734 -0.783086 0
M  V30 2795 C 258.671 -2.22907 2.55143 0
M  V30 2796 C 257.23 -2.76501 2.5539 0
M  V30 2797 C 256.377 -1.51287 2.32396 0
M  V30 2798 H 259.328 -0.43563 1.52604 0
M  V30 2799 H 259.349 -3.05259 2.2715 0
M  V30 2800 H 258.861 -1.69533 3.49114 0
M  V30 2801 H 256.962 -3.33914 1.65324 0
M  V30 2802 H 257.075 -3.23429 3.53455 0
M  V30 2803 H 255.439 -1.78957 1.81236 0
M  V30 2804 H 256.222 -0.998336 3.28463 0
M  V30 2805 N 258.668 -1.30515 -0.883378 0
M  V30 2806 C 259.615 -1.17032 -1.98927 0
M  V30 2807 C 260.585 -0.0594241 -1.65994 0
M  V30 2808 O 261.77 -0.229895 -1.8941 0
M  V30 2809 C 258.91 -0.869777 -3.33959 0
M  V30 2810 C 258.023 -2.06271 -3.79574 0
M  V30 2811 C 257.158 -1.70011 -5.03259 0
M  V30 2812 C 256.197 -2.8579 -5.41286 0
M  V30 2813 N 255.334 -2.49816 -6.56153 0
M  V30 2814 H 260.174 -2.1164 -2.09792 0
M  V30 2815 H 257.711 -1.05296 -1.02719 0
M  V30 2816 H 259.669 -0.676138 -4.11685 0
M  V30 2817 H 258.299 0.0394332 -3.22776 0
M  V30 2818 H 257.351 -2.36755 -2.97744 0
M  V30 2819 H 258.663 -2.92971 -4.03694 0
M  V30 2820 H 257.817 -1.47032 -5.88614 0
M  V30 2821 H 256.556 -0.804829 -4.81013 0
M  V30 2822 H 255.561 -3.09434 -4.54456 0
M  V30 2823 H 256.786 -3.76008 -5.65504 0
M  V30 2824 H 254.732 -1.62795 -6.35479 0
M  V30 2825 H 254.649 -3.30048 -6.8015 0
M  V30 2826 H 255.917 -2.30197 -7.44735 0
M  V30 2827 N 260.146 1.09593 -1.13257 0
M  V30 2828 C 261.056 2.19739 -0.821691 0
M  V30 2829 C 262.072 1.72926 0.19302 0
M  V30 2830 O 263.248 2.01385 0.0244895 0
M  V30 2831 C 260.313 3.45482 -0.290333 0
M  V30 2832 C 259.374 4.06985 -1.36607 0
M  V30 2833 C 258.607 5.26726 -0.859975 0
M  V30 2834 O 258.83 5.69594 0.303082 0
M  V30 2835 O 257.764 5.7931 -1.63351 0
M  V30 2836 H 261.59 2.48781 -1.74189 0
M  V30 2837 H 259.175 1.18496 -0.909894 0
M  V30 2838 H 261.057 4.214 0.000674022 0
M  V30 2839 H 259.732 3.18047 0.602306 0
M  V30 2840 H 258.639 3.32712 -1.71037 0
M  V30 2841 H 259.972 4.38643 -2.23279 0
M  V30 2842 N 261.624 0.925811 1.2754 0
M  V30 2843 C 262.864 0.572521 1.96218 0
M  V30 2844 C 263.228 -0.869719 1.71172 0
M  V30 2845 O 264.429 -1.33119 2.33523 0
M  V30 2846 C 262.7 0.887325 3.4621 0
M  V30 2847 S 264.259 0.642266 4.34074 0
M  V30 2848 H 261.077 0.211403 0.678845 0
M  V30 2849 H 263.679 1.19384 1.54815 0
M  V30 2850 H 262.383 1.93469 3.61936 0
M  V30 2851 H 261.914 0.255123 3.92572 0
M  V30 2852 H 263.929 -0.500822 4.93666 0
M  V30 2853 N 263.102 -1.41638 0.69111 0
M  V30 2854 C 264.35 -2.00902 0.219758 0
M  V30 2855 C 264.671 -1.54994 -1.18329 0
M  V30 2856 O 263.941 -0.778628 -1.79762 0
M  V30 2857 H 262.521 -0.74289 0.0782558 0
M  V30 2858 H 265.183 -1.73327 0.891271 0
M  V30 2859 H 264.279 -3.11224 0.233708 0
M  V30 2860 N 264.58 -0.43555 -1.51462 0
M  V30 2861 C 265.857 0.191364 -1.94662 0
M  V30 2862 C 266.237 1.60254 -1.37411 0
M  V30 2863 O 265.585 2.2152 -0.560458 0
M  V30 2864 C 265.795 0.17091 -3.48581 0
M  V30 2865 C 267.143 0.377357 -4.2292 0
M  V30 2866 O 268.167 0.249104 -3.55328 0
M  V30 2867 O 267.026 0.63247 -5.42828 0
M  V30 2868 H 264.12 0.130932 -0.816569 0
M  V30 2869 H 266.666 -0.4934 -1.62369 0
M  V30 2870 H 265.438 -0.815738 -3.82703 0
M  V30 2871 H 265.061 0.898659 -3.87311 0
M  V30 2872 N 266.058 1.56714 -0.166846 0
M  V30 2873 C 266.988 2.20754 0.760913 0
M  V30 2874 C 267.969 1.16178 1.24244 0
M  V30 2875 O 269.154 1.44592 1.29641 0
M  V30 2876 C 266.284 2.84478 1.99223 0
M  V30 2877 C 265.238 3.95053 1.64672 0
M  V30 2878 C 264.564 4.45805 2.95232 0
M  V30 2879 C 265.864 5.14865 0.878155 0
M  V30 2880 H 267.558 2.98537 0.22713 0
M  V30 2881 H 265.104 1.43596 0.107805 0
M  V30 2882 H 267.057 3.27951 2.64624 0
M  V30 2883 H 265.781 2.04056 2.55007 0
M  V30 2884 H 264.44 3.52228 1.01641 0
M  V30 2885 H 264.088 3.62181 3.49047 0
M  V30 2886 H 263.788 5.204 2.7287 0
M  V30 2887 H 265.312 4.91962 3.6167 0
M  V30 2888 H 266.726 5.55059 1.43466 0
M  V30 2889 H 265.123 5.95348 0.753738 0
M  V30 2890 H 266.193 4.84735 -0.126377 0
M  V30 2891 N 267.536 -0.106894 1.57237 0
M  V30 2892 C 268.776 -0.818277 1.87306 0
M  V30 2893 C 269.14 -1.76474 0.756371 0
M  V30 2894 O 270.341 -2.5186 0.939155 0
M  V30 2895 C 268.612 -1.53806 3.22612 0
M  V30 2896 S 270.171 -2.28935 3.74345 0
M  V30 2897 H 266.989 -0.272862 0.656557 0
M  V30 2898 H 269.591 -0.075988 1.95352 0
M  V30 2899 H 268.295 -0.834951 4.01817 0
M  V30 2900 H 267.826 -2.32049 3.17674 0
M  V30 2901 H 269.841 -3.54871 3.46815 0
M  V30 2902 N 269.014 -1.53014 -0.377408 0
M  V30 2903 C 270.425 -1.60438 -0.954798 0
M  V30 2904 C 270.776 -0.464418 -1.90624 0
M  V30 2905 O 269.901 0.41087 -2.12464 0
M  V30 2906 C 270.496 -2.90797 -1.73847 0
M  V30 2907 C 269.055 -3.00595 -2.26538 0
M  V30 2908 C 268.202 -2.55645 -1.07429 0
M  V30 2909 H 271.153 -1.57926 -0.156575 0
M  V30 2910 H 271.174 -2.77935 -2.5987 0
M  V30 2911 H 270.686 -3.73746 -1.04574 0
M  V30 2912 H 268.787 -2.22208 -2.99089 0
M  V30 2913 H 268.9 -4.05456 -2.5523 0
M  V30 2914 H 267.264 -2.10239 -1.43777 0
M  V30 2915 H 268.047 -3.41 -0.396728 0
M  V30 2916 N 270.492 0.636531 -1.44174 0
M  V30 2917 C 271.74 1.39343 -1.46383 0
M  V30 2918 C 272.061 1.94766 -0.0955715 0
M  V30 2919 O 271.331 1.75452 0.871395 0
M  V30 2920 H 269.911 0.517199 -0.538994 0
M  V30 2921 H 272.573 0.74957 -1.7991 0
M  V30 2922 H 271.669 2.22746 -2.18611 0
M  V30 2923 N 271.97 1.30982 0.876444 0
M  V30 2924 C 273.198 1.23242 1.6619 0
M  V30 2925 C 273.613 -0.203345 1.87702 0
M  V30 2926 O 272.97 -1.13317 1.43057 0
M  V30 2927 C 273.021 1.96623 3.03351 0
M  V30 2928 O 272.742 3.34594 2.82804 0
M  V30 2929 C 274.243 1.95644 3.97792 0
M  V30 2930 H 271.463 0.426126 0.518322 0
M  V30 2931 H 274.007 1.7275 1.09442 0
M  V30 2932 H 272.162 1.50892 3.56806 0
M  V30 2933 H 272.576 3.71873 3.69879 0
M  V30 2934 H 274.05 2.51511 4.91372 0
M  V30 2935 H 274.527 0.937395 4.2908 0
M  V30 2936 H 275.133 2.41225 3.50272 0
M  V30 2937 N 273.449 -1.08991 1.13837 0
M  V30 2938 C 274.382 -2.15049 0.763477 0
M  V30 2939 C 275.36 -1.60629 -0.252398 0
M  V30 2940 O 276.544 -1.87958 -0.142853 0
M  V30 2941 C 273.671 -3.38441 0.132545 0
M  V30 2942 C 272.717 -4.11596 1.11763 0
M  V30 2943 S 273.55 -4.6521 2.65216 0
M  V30 2944 C 274.706 -5.91896 2.03495 0
M  V30 2945 H 274.939 -2.46518 1.66182 0
M  V30 2946 H 272.472 -1.21008 0.958976 0
M  V30 2947 H 274.43 -4.09883 -0.225074 0
M  V30 2948 H 273.091 -3.05182 -0.743135 0
M  V30 2949 H 272.284 -5.00121 0.624076 0
M  V30 2950 H 271.886 -3.46038 1.41894 0
M  V30 2951 H 274.178 -6.63156 1.38675 0
M  V30 2952 H 275.121 -6.45938 2.9012 0
M  V30 2953 H 275.529 -5.44625 1.48471 0
M  V30 2954 N 274.927 -0.932562 -1.27047 0
M  V30 2955 C 275.837 -0.441219 -2.30414 0
M  V30 2956 C 276.853 0.480525 -1.67233 0
M  V30 2957 O 278.029 0.362151 -1.98117 0
M  V30 2958 C 275.094 0.293651 -3.45454 0
M  V30 2959 C 274.155 -0.663601 -4.2414 0
M  V30 2960 C 273.388 0.0362932 -5.33688 0
M  V30 2961 O 273.611 1.2548 -5.56427 0
M  V30 2962 O 272.545 -0.638015 -5.98509 0
M  V30 2963 H 276.371 -1.29962 -2.74488 0
M  V30 2964 H 273.956 -0.6981 -1.32087 0
M  V30 2965 H 275.838 0.707951 -4.15411 0
M  V30 2966 H 274.513 1.12758 -3.03426 0
M  V30 2967 H 273.42 -1.12768 -3.56699 0
M  V30 2968 H 274.753 -1.46489 -4.69896 0
M  V30 2969 N 276.405 1.4127 -0.698611 0
M  V30 2970 C 277.315 2.34573 -0.0357891 0
M  V30 2971 C 278.331 1.56393 0.762701 0
M  V30 2972 O 279.507 1.8886 0.699564 0
M  V30 2973 C 276.572 3.35159 0.887089 0
M  V30 2974 C 275.633 4.29225 0.0804634 0
M  V30 2975 C 274.866 5.25006 0.959387 0
M  V30 2976 O 275.089 5.26314 2.19886 0
M  V30 2977 O 274.023 6.00519 0.407439 0
M  V30 2978 H 277.849 2.92838 -0.804957 0
M  V30 2979 H 275.434 1.42175 -0.458966 0
M  V30 2980 H 277.316 3.9689 1.41621 0
M  V30 2981 H 275.991 2.79333 1.6357 0
M  V30 2982 H 274.898 3.70833 -0.493328 0
M  V30 2983 H 276.231 4.88157 -0.629547 0
M  V30 2984 N 277.883 0.443576 1.51229 0
M  V30 2985 C 278.83 -0.364716 2.279 0
M  V30 2986 C 279.8 -1.0114 1.31757 0
M  V30 2987 O 280.985 -1.02912 1.60667 0
M  V30 2988 C 278.125 -1.45644 3.12861 0
M  V30 2989 C 277.238 -0.827269 4.24005 0
M  V30 2990 C 276.373 -1.89456 4.96266 0
M  V30 2991 C 275.412 -1.24416 5.99322 0
M  V30 2992 N 274.549 -2.25309 6.64966 0
M  V30 2993 H 279.389 0.295464 2.96532 0
M  V30 2994 H 276.926 0.157554 1.46254 0
M  V30 2995 H 278.884 -2.10076 3.6045 0
M  V30 2996 H 277.514 -2.08616 2.46331 0
M  V30 2997 H 276.566 -0.0710839 3.80334 0
M  V30 2998 H 277.878 -0.312481 4.9782 0
M  V30 2999 H 277.032 -2.61535 5.47434 0
M  V30 3000 H 275.771 -2.4431 4.22095 0
M  V30 3001 H 274.776 -0.508868 5.4744 0
M  V30 3002 H 276.001 -0.702882 6.75453 0
M  V30 3003 H 273.947 -2.79231 5.93604 0
M  V30 3004 H 273.864 -1.78739 7.34567 0
M  V30 3005 H 275.132 -2.96853 7.20763 0
M  V30 3006 N 279.361 -1.56624 0.175154 0
M  V30 3007 C 280.772 -1.83561 -0.340916 0
M  V30 3008 C 281.123 -1.09511 -1.62794 0
M  V30 3009 O 280.248 -0.349389 -2.13561 0
M  V30 3010 C 280.843 -3.32979 -0.625313 0
M  V30 3011 C 279.402 -3.60399 -1.08581 0
M  V30 3012 C 278.549 -2.77024 -0.123722 0
M  V30 3013 H 281.5 -1.53593 0.399344 0
M  V30 3014 H 281.521 -3.50666 -1.47694 0
M  V30 3015 H 281.033 -3.86847 0.311575 0
M  V30 3016 H 279.134 -3.11945 -2.03767 0
M  V30 3017 H 279.247 -4.68711 -0.992317 0
M  V30 3018 H 277.611 -2.46993 -0.621821 0
M  V30 3019 H 278.394 -3.33674 0.807256 0
M  V30 3020 N 280.839 0.0985539 -1.57292 0
M  V30 3021 C 281.772 1.15082 -1.97057 0
M  V30 3022 C 282.75 1.39025 -0.843255 0
M  V30 3023 O 283.934 1.52842 -1.10325 0
M  V30 3024 C 281.061 2.50069 -2.28437 0
M  V30 3025 C 280.107 2.42428 -3.509 0
M  V30 3026 S 280.94 1.84414 -5.02744 0
M  V30 3027 C 282.096 3.21032 -5.37298 0
M  V30 3028 H 282.329 0.811815 -2.86002 0
M  V30 3029 H 279.862 0.306102 -1.51335 0
M  V30 3030 H 281.82 3.27729 -2.47192 0
M  V30 3031 H 280.481 2.8114 -1.40069 0
M  V30 3032 H 279.674 3.41911 -3.70288 0
M  V30 3033 H 279.276 1.72896 -3.31637 0
M  V30 3034 H 281.568 4.17297 -5.33731 0
M  V30 3035 H 282.511 3.06452 -6.38352 0
M  V30 3036 H 282.919 3.20404 -4.64759 0
M  V30 3037 N 282.317 1.53212 0.369288 0
M  V30 3038 C 283.557 1.70915 1.12105 0
M  V30 3039 C 283.921 0.449444 1.86665 0
M  V30 3040 O 285.122 0.503105 2.6405 0
M  V30 3041 C 283.393 2.9222 2.05772 0
M  V30 3042 S 284.952 3.30609 2.88519 0
M  V30 3043 H 281.77 0.601445 0.379189 0
M  V30 3044 H 284.372 1.91306 0.402794 0
M  V30 3045 H 283.076 3.82103 1.49752 0
M  V30 3046 H 282.607 2.7422 2.82076 0
M  V30 3047 H 284.622 2.82333 4.08047 0
M  V30 3048 N 283.795 -0.628877 1.44509 0
M  V30 3049 C 284.705 -1.7694 1.54044 0
M  V30 3050 C 285.721 -1.68705 0.425987 0
M  V30 3051 O 286.897 -1.89442 0.683656 0
M  V30 3052 C 283.962 -3.13332 1.48405 0
M  V30 3053 C 283.023 -3.33181 2.70719 0
M  V30 3054 C 282.256 -4.63067 2.6534 0
M  V30 3055 O 282.479 -5.44017 1.71469 0
M  V30 3056 O 281.413 -4.85167 3.56226 0
M  V30 3057 H 285.239 -1.71848 2.50403 0
M  V30 3058 H 282.824 -0.790378 1.26781 0
M  V30 3059 H 284.706 -3.94634 1.47791 0
M  V30 3060 H 283.381 -3.1896 0.551898 0
M  V30 3061 H 282.288 -2.51549 2.769 0
M  V30 3062 H 283.621 -3.32416 3.62988 0
M  V30 3063 N 285.273 -1.31445 -0.869486 0
M  V30 3064 C 286.22 -1.19135 -1.97675 0
M  V30 3065 C 287.19 -0.0770266 -1.65921 0
M  V30 3066 O 288.375 -0.249972 -1.89155 0
M  V30 3067 C 285.515 -0.905149 -3.33018 0
M  V30 3068 C 284.628 -2.10285 -3.77365 0
M  V30 3069 C 283.763 -1.75339 -5.01427 0
M  V30 3070 C 282.802 -2.91515 -5.38224 0
M  V30 3071 N 281.939 -2.56762 -6.53466 0
M  V30 3072 H 286.779 -2.13853 -2.07535 0
M  V30 3073 H 284.316 -1.06379 -1.01597 0
M  V30 3074 H 286.274 -0.719765 -4.10944 0
M  V30 3075 H 284.904 0.00519624 -3.228 0
M  V30 3076 H 283.956 -2.39899 -2.95216 0
M  V30 3077 H 285.268 -2.97237 -4.00564 0
M  V30 3078 H 284.422 -1.53266 -5.87022 0
M  V30 3079 H 283.161 -0.855801 -4.80133 0
M  V30 3080 H 282.166 -3.14237 -4.51149 0
M  V30 3081 H 283.391 -3.81985 -5.61484 0
M  V30 3082 H 281.337 -1.69526 -6.33717 0
M  V30 3083 H 281.254 -3.37243 -6.76612 0
M  V30 3084 H 282.522 -2.38083 -7.42251 0
M  V30 3085 N 286.751 1.08385 -1.14413 0
M  V30 3086 C 287.979 1.84517 -0.936001 0
M  V30 3087 C 288.394 1.81626 0.515503 0
M  V30 3088 O 287.751 1.22008 1.35721 0
M  V30 3089 C 287.802 3.32049 -1.42918 0
M  V30 3090 O 287.523 3.34951 -2.82381 0
M  V30 3091 C 289.024 4.24986 -1.26103 0
M  V30 3092 H 286.244 0.582491 -0.333084 0
M  V30 3093 H 288.788 1.36885 -1.5193 0
M  V30 3094 H 286.943 3.7707 -0.888641 0
M  V30 3095 H 287.357 4.27048 -3.04517 0
M  V30 3096 H 288.831 5.26615 -1.6547 0
M  V30 3097 H 289.308 4.38726 -0.20392 0
M  V30 3098 H 289.914 3.85791 -1.79012 0
M  V30 3099 N 288.23 0.939286 1.26551 0
M  V30 3100 C 289.458 0.602536 1.97932 0
M  V30 3101 C 289.873 -0.82206 1.69964 0
M  V30 3102 O 289.23 -1.54789 0.966784 0
M  V30 3103 C 289.281 0.832946 3.51773 0
M  V30 3104 O 289.002 2.20151 3.78768 0
M  V30 3105 C 290.503 0.506483 4.40397 0
M  V30 3106 H 287.723 0.227248 0.631347 0
M  V30 3107 H 290.267 1.25948 1.61113 0
M  V30 3108 H 288.422 0.222644 3.8676 0
M  V30 3109 H 288.836 2.26013 4.73306 0
M  V30 3110 H 290.31 0.718333 5.47306 0
M  V30 3111 H 290.787 -0.558451 4.35635 0
M  V30 3112 H 291.393 1.09543 4.10951 0
M  V30 3113 N 289.708 -1.40897 0.706093 0
M  V30 3114 C 290.957 -2.00284 0.238574 0
M  V30 3115 C 291.27 -1.56604 -1.17194 0
M  V30 3116 O 292.476 -2.08624 -1.73748 0
M  V30 3117 C 290.932 -3.57934 0.375623 0
M  V30 3118 C 290.54 -4.10591 1.79217 0
M  V30 3119 C 292.284 -4.24488 -0.0315857 0
M  V30 3120 C 290.191 -5.60712 1.88032 0
M  V30 3121 H 289.121 -0.749144 0.0854398 0
M  V30 3122 H 291.772 -1.61251 0.875813 0
M  V30 3123 H 290.154 -3.94622 -0.330042 0
M  V30 3124 H 291.328 -3.85301 2.52745 0
M  V30 3125 H 289.643 -3.56601 2.15 0
M  V30 3126 H 292.24 -5.34698 0.0136842 0
M  V30 3127 H 292.583 -4.02261 -1.072 0
M  V30 3128 H 293.116 -3.92873 0.624181 0
M  V30 3129 H 289.855 -5.87781 2.90161 0
M  V30 3130 H 289.375 -5.87896 1.18903 0
M  V30 3131 H 291.054 -6.25658 1.64805 0
M  V30 3132 N 291.186 -0.45159 -1.50991 0
M  V30 3133 C 292.134 0.366864 -2.29689 0
M  V30 3134 C 293.128 1.00809 -1.36139 0
M  V30 3135 O 294.334 0.941427 -1.53418 0
M  V30 3136 H 290.709 0.137133 -0.739391 0
M  V30 3137 H 292.68 -0.317538 -2.96706 0
M  V30 3138 C 291.429 1.44751 -3.16137 0
M  V30 3139 H 290.752 0.963473 -3.88017 0
M  V30 3140 H 292.192 1.99315 -3.74232 0
M  V30 3141 C 290.651 2.43869 -2.32442 0
M  V30 3142 O 291.181 3.4872 -1.99392 0
M  V30 3143 N 289.387 2.15105 -1.95392 0
M  V30 3144 H 288.934 1.29866 -2.22469 0
M  V30 3145 H 288.892 2.81661 -1.39693 0
M  V30 3146 N 292.664 1.56529 -0.183458 0
M  V30 3147 C 293.612 2.19873 0.758845 0
M  V30 3148 C 294.606 1.16638 1.22849 0
M  V30 3149 O 295.812 1.3481 1.19274 0
M  V30 3150 H 292.187 0.7045 0.263029 0
M  V30 3151 H 294.158 2.97724 0.200755 0
M  V30 3152 C 292.907 2.86314 1.9728 0
M  V30 3153 H 292.23 3.65487 1.62047 0
M  V30 3154 H 293.67 3.3409 2.61075 0
M  V30 3155 C 292.129 1.86729 2.80418 0
M  V30 3156 O 292.659 1.36031 3.77966 0
M  V30 3157 N 290.865 1.55216 2.45675 0
M  V30 3158 H 290.412 1.96636 1.66409 0
M  V30 3159 H 290.37 0.888388 3.01588 0
M  V30 3160 N 294.142 -0.090211 1.57342 0
M  V30 3161 C 295.052 -1.12735 2.05738 0
M  V30 3162 C 296.068 -1.43557 0.983231 0
M  V30 3163 O 297.244 -1.54101 1.29672 0
M  V30 3164 C 294.309 -2.42659 2.47624 0
M  V30 3165 C 293.37 -2.18975 3.69254 0
M  V30 3166 C 292.603 -3.42704 4.09133 0
M  V30 3167 O 292.826 -4.51127 3.49057 0
M  V30 3168 O 291.76 -3.32003 5.02053 0
M  V30 3169 H 295.586 -0.746279 2.94388 0
M  V30 3170 H 293.171 -0.303064 1.46294 0
M  V30 3171 H 295.053 -3.19155 2.7517 0
M  V30 3172 H 293.728 -2.80182 1.62109 0
M  V30 3173 H 292.635 -1.40244 3.46818 0
M  V30 3174 H 293.968 -1.86342 4.55563 0
M  V30 3175 N 295.62 -1.53406 -0.361157 0
M  V30 3176 C 296.85 -1.73465 -1.1222 0
M  V30 3177 C 297.258 -0.465486 -1.83384 0
M  V30 3178 O 296.601 0.571611 -1.7458 0
M  V30 3179 C 296.663 -2.84834 -2.19339 0
M  V30 3180 C 296.327 -4.25038 -1.67903 0
M  V30 3181 C 297.324 -5.07231 -1.14074 0
M  V30 3182 C 295.009 -4.71464 -1.73282 0
M  V30 3183 C 297.003 -6.33942 -0.663068 0
M  V30 3184 C 294.69 -5.98153 -1.25127 0
M  V30 3185 C 295.688 -6.79223 -0.717296 0
M  V30 3186 O 295.376 -8.03533 -0.242865 0
M  V30 3187 H 295.108 -0.583526 -0.341283 0
M  V30 3188 H 297.662 -2.00964 -0.424591 0
M  V30 3189 H 295.892 -2.5282 -2.92607 0
M  V30 3190 H 297.581 -2.9303 -2.80871 0
M  V30 3191 H 298.347 -4.72534 -1.09254 0
M  V30 3192 H 294.226 -4.08432 -2.13786 0
M  V30 3193 H 297.77 -6.97167 -0.245612 0
M  V30 3194 H 293.667 -6.32347 -1.29642 0
M  V30 3195 H 294.435 -8.177 -0.361786 0
M  V30 3196 N 297.098 0.621204 -1.44841 0
M  V30 3197 C 298.046 1.75385 -1.52784 0
M  V30 3198 C 299.04 1.64639 -0.398779 0
M  V30 3199 O 300.246 1.70598 -0.574137 0
M  V30 3200 H 296.621 0.579193 -0.479625 0
M  V30 3201 H 298.592 1.6581 -2.48092 0
M  V30 3202 C 297.341 3.13742 -1.4987 0
M  V30 3203 H 296.664 3.22663 -2.36069 0
M  V30 3204 H 298.104 3.92861 -1.59487 0
M  V30 3205 C 296.563 3.36175 -0.220973 0
M  V30 3206 O 297.093 3.95469 0.704782 0
M  V30 3207 N 295.299 2.90348 -0.120963 0
M  V30 3208 H 294.846 2.42278 -0.875162 0
M  V30 3209 H 294.804 3.05732 0.733168 0
M  V30 3210 N 298.576 1.31904 0.862503 0
M  V30 3211 C 299.806 1.24817 1.64634 0
M  V30 3212 C 300.214 -0.187579 1.88268 0
M  V30 3213 O 299.557 -1.13253 1.44635 0
M  V30 3214 C 299.619 1.92996 3.03303 0
M  V30 3215 C 299.283 3.42336 3.02746 0
M  V30 3216 C 300.28 4.37956 2.80162 0
M  V30 3217 C 297.965 3.84147 3.2363 0
M  V30 3218 C 299.959 5.73361 2.78453 0
M  V30 3219 C 297.646 5.19663 3.21549 0
M  V30 3220 C 298.644 6.14081 2.98988 0
M  V30 3221 O 298.332 7.47118 2.96766 0
M  V30 3222 H 298.064 0.432222 0.519769 0
M  V30 3223 H 300.618 1.7445 1.08427 0
M  V30 3224 H 298.848 1.37922 3.61268 0
M  V30 3225 H 300.537 1.79723 3.63943 0
M  V30 3226 H 301.303 4.06981 2.63802 0
M  V30 3227 H 297.182 3.11083 3.40218 0
M  V30 3228 H 300.726 6.4703 2.60763 0
M  V30 3229 H 296.623 5.5027 3.37451 0
M  V30 3230 H 297.391 7.56382 3.12775 0
M  V30 3231 N 300.054 -1.07777 1.14986 0
M  V30 3232 C 301.47 -1.32373 0.891596 0
M  V30 3233 C 301.67 -1.9609 -0.463788 0
M  V30 3234 O 300.726 -2.21801 -1.20667 0
M  V30 3235 C 302.039 -2.21905 2.02925 0
M  V30 3236 C 303.587 -2.35367 2.06329 0
M  V30 3237 C 304.062 -3.28245 3.19405 0
M  V30 3238 N 305.553 -3.35824 3.19024 0
M  V30 3239 C 306.288 -4.07739 4.03158 0
M  V30 3240 N 305.784 -4.82306 4.97346 0
M  V30 3241 N 307.577 -4.03635 3.91197 0
M  V30 3242 H 299.728 -0.648039 2.02273 0
M  V30 3243 H 301.991 -0.348149 0.881757 0
M  V30 3244 H 301.697 -1.82342 3.0074 0
M  V30 3245 H 301.571 -3.22407 1.95789 0
M  V30 3246 H 303.958 -2.74186 1.09116 0
M  V30 3247 H 304.039 -1.34585 2.17533 0
M  V30 3248 H 303.683 -2.90146 4.16867 0
M  V30 3249 H 303.613 -4.28971 3.05437 0
M  V30 3250 H 306.104 -2.8267 2.50811 0
M  V30 3251 H 306.417 -5.34661 5.57994 0
M  V30 3252 H 304.762 -4.81337 5.01338 0
M  V30 3253 H 307.953 -3.44491 3.16928 0
M  V30 3254 H 308.126 -4.59417 4.5699 0
M  V30 3255 N 301.532 -0.945985 -1.26051 0
M  V30 3256 C 302.772 -0.603665 -1.95282 0
M  V30 3257 C 303.136 0.842377 -1.72534 0
M  V30 3258 O 304.337 1.29387 -2.35611 0
M  V30 3259 C 302.608 -0.942292 -3.44754 0
M  V30 3260 S 304.167 -0.711242 -4.32997 0
M  V30 3261 H 300.985 -0.222176 -0.675395 0
M  V30 3262 H 303.587 -1.21832 -1.52896 0
M  V30 3263 H 302.291 -1.99203 -3.58812 0
M  V30 3264 H 301.822 -0.317546 -3.92116 0
M  V30 3265 H 303.837 0.422221 -4.944 0
M  V30 3266 N 303.011 1.40521 -0.713556 0
M  V30 3267 C 304.257 2.01714 -0.261382 0
M  V30 3268 C 304.612 1.55562 1.13217 0
M  V30 3269 O 303.905 0.764893 1.7567 0
M  V30 3270 C 304.099 3.56317 -0.278 0
M  V30 3271 C 303.928 4.17476 -1.67163 0
M  V30 3272 C 302.698 4.50998 -2.2788 0
M  V30 3273 C 304.896 4.42472 -2.6215 0
M  V30 3274 N 302.878 4.9754 -3.5962 0
M  V30 3275 C 304.249 4.90985 -3.78594 0
M  V30 3276 C 306.304 4.24508 -2.60188 0
M  V30 3277 C 305.007 5.2342 -4.9338 0
M  V30 3278 C 307.033 4.58043 -3.741 0
M  V30 3279 C 306.395 5.06743 -4.89276 0
M  V30 3280 H 302.494 0.769104 -0.141434 0
M  V30 3281 H 305.078 1.70785 -0.934915 0
M  V30 3282 H 303.249 3.8668 0.36509 0
M  V30 3283 H 304.981 4.0425 0.190695 0
M  V30 3284 H 301.736 4.38062 -1.79997 0
M  V30 3285 H 302.16 5.25196 -4.27198 0
M  V30 3286 H 306.802 3.86078 -1.72348 0
M  V30 3287 H 304.52 5.60765 -5.81866 0
M  V30 3288 H 308.106 4.45785 -3.73854 0
M  V30 3289 H 306.986 5.32204 -5.75959 0
M  V30 3290 N 304.489 0.459591 1.5075 0
M  V30 3291 C 305.717 -0.0973749 2.06671 0
M  V30 3292 C 306.132 -1.34524 1.32472 0
M  V30 3293 O 305.489 -1.7827 0.390634 0
M  V30 3294 C 305.54 -0.39714 3.59312 0
M  V30 3295 O 305.261 0.801214 4.30711 0
M  V30 3296 C 306.762 -1.00234 4.31819 0
M  V30 3297 H 303.982 0.00195854 0.670997 0
M  V30 3298 H 306.526 0.645072 1.94059 0
M  V30 3299 H 304.681 -1.08951 3.71764 0
M  V30 3300 H 305.095 0.538857 5.21725 0
M  V30 3301 H 306.569 -1.16193 5.39632 0
M  V30 3302 H 307.046 -1.98939 3.91561 0
M  V30 3303 H 307.652 -0.348699 4.23868 0
M  V30 3304 N 305.967 -1.56429 0.191757 0
M  V30 3305 C 307.195 -2.01867 -0.453586 0
M  V30 3306 C 307.61 -1.07191 -1.5542 0
M  V30 3307 O 306.967 -0.0762108 -1.82341 0
M  V30 3308 C 307.018 -3.47017 -1.013 0
M  V30 3309 O 306.739 -4.38078 0.0437005 0
M  V30 3310 C 308.24 -4.07956 -1.73456 0
M  V30 3311 H 305.46 -0.661211 -0.114199 0
M  V30 3312 H 308.004 -2.02295 0.299483 0
M  V30 3313 H 306.159 -3.47298 -1.71647 0
M  V30 3314 H 306.573 -5.23178 -0.372212 0
M  V30 3315 H 308.047 -5.1138 -2.07833 0
M  V30 3316 H 308.524 -3.51222 -2.63704 0
M  V30 3317 H 309.13 -4.11437 -1.07702 0
M  V30 3318 N 307.445 0.0818655 -1.57387 0
M  V30 3319 C 308.393 1.11712 -2.04018 0
M  V30 3320 C 309.387 1.40683 -0.94364 0
M  V30 3321 O 310.593 1.40209 -1.12878 0
M  V30 3322 H 306.968 0.377542 -0.650358 0
M  V30 3323 H 308.939 0.697614 -2.90131 0
M  V30 3324 C 307.688 2.42537 -2.49141 0
M  V30 3325 H 307.011 2.21092 -3.33104 0
M  V30 3326 H 308.451 3.13446 -2.85531 0
M  V30 3327 C 306.91 3.0778 -1.37014 0
M  V30 3328 O 307.44 3.95436 -0.706621 0
M  V30 3329 N 305.646 2.68242 -1.11779 0
M  V30 3330 H 305.193 1.97052 -1.65917 0
M  V30 3331 H 305.151 3.1222 -0.369594 0
M  V30 3332 N 308.923 1.53595 0.353017 0
M  V30 3333 C 310.339 1.43648 0.695516 0
M  V30 3334 C 310.539 0.585617 1.92802 0
M  V30 3335 O 309.595 0.0729223 2.52395 0
M  V30 3336 C 310.908 2.8701 0.896991 0
M  V30 3337 C 312.456 2.96723 0.996209 0
M  V30 3338 C 312.931 4.41173 1.23007 0
M  V30 3339 N 314.422 4.44657 1.29749 0
M  V30 3340 C 315.157 5.53547 1.49577 0
M  V30 3341 N 314.653 6.72461 1.66639 0
M  V30 3342 N 316.446 5.41145 1.52048 0
M  V30 3343 H 308.597 2.07415 -0.457481 0
M  V30 3344 H 310.86 0.9372 -0.142687 0
M  V30 3345 H 310.566 3.51644 0.0629938 0
M  V30 3346 H 310.44 3.31401 1.80148 0
M  V30 3347 H 312.827 2.32235 1.82074 0
M  V30 3348 H 312.908 2.55707 0.0688331 0
M  V30 3349 H 312.552 5.06238 0.410505 0
M  V30 3350 H 312.482 4.79772 2.17086 0
M  V30 3351 H 314.973 3.58963 1.18126 0
M  V30 3352 H 315.286 7.51214 1.81378 0
M  V30 3353 H 313.631 6.75423 1.63794 0
M  V30 3354 H 316.822 4.47205 1.38294 0
M  V30 3355 H 316.995 6.26068 1.67159 0
M  V30 3356 N 310.401 -0.613514 1.45168 0
M  V30 3357 C 311.641 -1.38405 1.5041 0
M  V30 3358 C 312.005 -1.91489 0.139922 0
M  V30 3359 O 313.206 -2.68716 0.067033 0
M  V30 3360 C 311.477 -2.50552 2.5487 0
M  V30 3361 S 313.036 -3.38439 2.79292 0
M  V30 3362 H 309.854 -0.471945 0.531779 0
M  V30 3363 H 312.456 -0.708518 1.82209 0
M  V30 3364 H 311.16 -2.09894 3.52665 0
M  V30 3365 H 310.691 -3.22913 2.24701 0
M  V30 3366 H 312.706 -4.48527 2.12222 0
M  V30 3367 N 311.879 -1.3236 -0.855495 0
M  V30 3368 C 312.811 -1.17052 -1.97057 0
M  V30 3369 C 313.824 -0.10574 -1.62456 0
M  V30 3370 O 315.013 -0.354619 -1.74942 0
M  V30 3371 C 312.113 -0.769305 -3.30053 0
M  V30 3372 C 311.286 -1.9222 -3.929 0
M  V30 3373 C 310.345 -1.50466 -5.04228 0
M  V30 3374 O 309.371 -2.21655 -5.24269 0
M  V30 3375 N 310.573 -0.400209 -5.79119 0
M  V30 3376 H 313.338 -2.13103 -2.1073 0
M  V30 3377 H 310.899 -1.24885 -1.0303 0
M  V30 3378 H 312.891 -0.472407 -4.01933 0
M  V30 3379 H 311.461 0.100025 -3.1244 0
M  V30 3380 H 310.681 -2.38563 -3.13817 0
M  V30 3381 H 311.969 -2.69403 -4.31624 0
M  V30 3382 H 311.367 0.192319 -5.65373 0
M  V30 3383 H 309.924 -0.162912 -6.51596 0
M  V30 3384 N 313.357 1.07166 -1.15556 0
M  V30 3385 C 314.304 2.14417 -0.854055 0
M  V30 3386 C 315.274 1.64965 0.193806 0
M  V30 3387 O 316.459 1.90703 0.0609443 0
M  V30 3388 C 313.599 3.43304 -0.351574 0
M  V30 3389 C 312.712 4.06537 -1.46123 0
M  V30 3390 C 311.847 5.23266 -0.914677 0
M  V30 3391 C 310.886 5.78464 -2.00114 0
M  V30 3392 N 310.023 6.86521 -1.47083 0
M  V30 3393 H 314.863 2.39548 -1.77259 0
M  V30 3394 H 312.4 1.17543 -0.884425 0
M  V30 3395 H 314.358 4.17179 -0.0419409 0
M  V30 3396 H 312.988 3.18419 0.530037 0
M  V30 3397 H 312.04 3.30297 -1.88701 0
M  V30 3398 H 313.352 4.43567 -2.28144 0
M  V30 3399 H 312.506 6.04131 -0.557698 0
M  V30 3400 H 311.245 4.87658 -0.0636583 0
M  V30 3401 H 310.25 4.96243 -2.36692 0
M  V30 3402 H 311.475 6.16126 -2.85597 0
M  V30 3403 H 309.421 6.52849 -0.642198 0
M  V30 3404 H 309.338 7.22446 -2.22729 0
M  V30 3405 H 310.606 7.71087 -1.14215 0
M  V30 3406 N 314.835 0.952656 1.25548 0
M  V30 3407 C 315.768 0.415525 2.24385 0
M  V30 3408 C 316.746 -0.502046 1.54655 0
M  V30 3409 O 317.93 -0.436875 1.83368 0
M  V30 3410 C 315.057 -0.401734 3.36309 0
M  V30 3411 C 314.103 0.455949 4.24056 0
M  V30 3412 S 314.936 1.88698 5.01152 0
M  V30 3413 C 316.092 1.07809 6.16545 0
M  V30 3414 H 316.325 1.25315 2.69599 0
M  V30 3415 H 313.858 0.756587 1.34592 0
M  V30 3416 H 315.816 -0.867329 4.01233 0
M  V30 3417 H 314.477 -1.21416 2.89684 0
M  V30 3418 H 313.67 -0.170776 5.03711 0
M  V30 3419 H 313.272 0.856675 3.64056 0
M  V30 3420 H 315.564 0.325816 6.76716 0
M  V30 3421 H 316.507 1.84849 6.83547 0
M  V30 3422 H 316.915 0.60909 5.61204 0
M  V30 3423 N 316.313 -1.40141 0.720998 0
M  V30 3424 C 317.553 -2.02644 0.267335 0
M  V30 3425 C 317.917 -1.55948 -1.12001 0
M  V30 3426 O 319.118 -2.10552 -1.67097 0
M  V30 3427 C 317.389 -3.55679 0.350281 0
M  V30 3428 S 318.948 -4.38793 -0.0256004 0
M  V30 3429 H 315.766 -0.703105 0.105664 0
M  V30 3430 H 318.368 -1.71175 0.944416 0
M  V30 3431 H 317.072 -3.87157 1.36153 0
M  V30 3432 H 316.603 -3.91883 -0.345096 0
M  V30 3433 H 318.618 -4.803 -1.24604 0
M  V30 3434 N 317.792 -0.46758 -1.50504 0
M  V30 3435 C 319.203 -0.0116166 -1.86696 0
M  V30 3436 C 319.554 1.39202 -1.38265 0
M  V30 3437 O 318.679 2.0313 -0.746132 0
M  V30 3438 C 319.274 -0.0143044 -3.38797 0
M  V30 3439 C 317.833 0.386175 -3.74414 0
M  V30 3440 C 316.98 -0.401287 -2.74381 0
M  V30 3441 H 319.931 -0.682022 -1.43297 0
M  V30 3442 H 319.952 0.788641 -3.72237 0
M  V30 3443 H 319.464 -1.03602 -3.74016 0
M  V30 3444 H 317.565 1.41237 -3.44794 0
M  V30 3445 H 317.678 0.0899596 -4.79016 0
M  V30 3446 H 316.042 0.144536 -2.5429 0
M  V30 3447 H 316.825 -1.42244 -3.12444 0
M  V30 3448 N 319.27 1.56325 -0.20005 0
M  V30 3449 C 320.495 2.02548 0.44597 0
M  V30 3450 C 320.92 1.07922 1.5406 0
M  V30 3451 O 320.278 0.0635775 1.81188 0
M  V30 3452 C 320.326 3.47175 0.974761 0
M  V30 3453 O 319.43 3.55671 2.08739 0
M  V30 3454 H 318.771 0.655862 0.103638 0
M  V30 3455 H 321.301 2.02201 -0.312381 0
M  V30 3456 H 321.311 3.87067 1.2901 0
M  V30 3457 H 319.986 4.15538 0.17347 0
M  V30 3458 H 318.563 3.27657 1.78032 0
M  V30 3459 N 320.748 -0.0735177 1.57428 0
M  V30 3460 C 321.976 -0.785969 1.9139 0
M  V30 3461 C 322.391 -1.71207 0.795847 0
M  V30 3462 O 321.748 -1.81033 -0.230915 0
M  V30 3463 C 321.799 -1.58107 3.25091 0
M  V30 3464 O 321.52 -0.6922 4.32597 0
M  V30 3465 C 323.021 -2.39467 3.73055 0
M  V30 3466 H 320.241 -0.223558 0.632663 0
M  V30 3467 H 322.785 -0.044302 2.04452 0
M  V30 3468 H 320.94 -2.27503 3.13562 0
M  V30 3469 H 321.354 -1.24504 5.09508 0
M  V30 3470 H 322.828 -2.90716 4.69242 0
M  V30 3471 H 323.305 -3.18913 3.01979 0
M  V30 3472 H 323.911 -1.7523 3.87523 0
M  V30 3473 N 322.226 -1.5378 -0.344866 0
M  V30 3474 C 323.466 -1.72677 -1.09371 0
M  V30 3475 C 323.83 -0.479084 -1.85927 0
M  V30 3476 O 325.031 -0.54505 -2.63216 0
M  V30 3477 C 323.302 -2.95457 -2.01097 0
M  V30 3478 S 324.861 -3.35158 -2.83222 0
M  V30 3479 H 321.679 -0.607402 -0.369573 0
M  V30 3480 H 324.281 -1.91922 -0.372307 0
M  V30 3481 H 322.985 -3.84437 -1.43655 0
M  V30 3482 H 322.516 -2.78673 -2.77678 0
M  V30 3483 H 324.531 -2.88789 -4.03504 0
M  V30 3484 N 323.704 0.605807 -1.45491 0
M  V30 3485 C 324.952 1.36207 -1.49305 0
M  V30 3486 C 325.273 1.94519 -0.136863 0
M  V30 3487 O 324.543 1.77261 0.833983 0
M  V30 3488 H 323.123 0.50565 -0.549843 0
M  V30 3489 H 325.785 0.711239 -1.81459 0
M  V30 3490 H 324.881 2.18058 -2.23287 0
M  V30 3491 N 325.182 1.32811 0.848464 0
M  V30 3492 C 326.129 1.22265 1.95755 0
M  V30 3493 C 327.099 0.103413 1.65778 0
M  V30 3494 O 328.284 0.280033 1.88734 0
M  V30 3495 C 325.424 0.958014 3.31536 0
M  V30 3496 C 324.537 2.16262 3.73971 0
M  V30 3497 C 323.672 1.83295 4.98575 0
M  V30 3498 C 322.711 3.00041 5.33518 0
M  V30 3499 N 321.848 2.67125 6.49299 0
M  V30 3500 H 326.688 2.17128 2.04107 0
M  V30 3501 H 324.225 1.07982 0.998913 0
M  V30 3502 H 326.183 0.785052 4.09747 0
M  V30 3503 H 324.813 0.046159 3.22767 0
M  V30 3504 H 323.865 2.44565 2.91362 0
M  V30 3505 H 325.177 3.03572 3.95785 0
M  V30 3506 H 324.331 1.62586 5.84509 0
M  V30 3507 H 323.07 0.932078 4.7871 0
M  V30 3508 H 322.075 3.21374 4.46093 0
M  V30 3509 H 323.3 3.90869 5.55336 0
M  V30 3510 H 321.246 1.79586 6.3094 0
M  V30 3511 H 321.163 3.47965 6.71161 0
M  V30 3512 H 322.431 2.49861 7.3837 0
M  V30 3513 N 326.66 -1.06551 1.16123 0
M  V30 3514 C 328.076 -1.3142 0.905585 0
M  V30 3515 C 328.276 -1.96571 -0.442964 0
M  V30 3516 O 327.332 -2.23068 -1.18308 0
M  V30 3517 C 328.645 -2.19741 2.05267 0
M  V30 3518 C 330.193 -2.33165 2.08813 0
M  V30 3519 C 330.668 -3.24838 3.22868 0
M  V30 3520 N 332.159 -3.32421 3.22568 0
M  V30 3521 C 332.894 -4.0344 4.0746 0
M  V30 3522 N 332.39 -4.77003 5.02434 0
M  V30 3523 N 334.183 -3.99464 3.95456 0
M  V30 3524 H 326.334 -0.626548 2.02949 0
M  V30 3525 H 328.597 -0.338777 0.8854 0
M  V30 3526 H 328.303 -1.79142 3.02657 0
M  V30 3527 H 328.177 -3.20313 1.99198 0
M  V30 3528 H 330.564 -2.73013 1.12018 0
M  V30 3529 H 330.645 -1.3227 2.18948 0
M  V30 3530 H 330.289 -2.85708 4.19921 0
M  V30 3531 H 330.219 -4.25707 3.0997 0
M  V30 3532 H 332.71 -2.79994 2.53795 0
M  V30 3533 H 333.023 -5.28712 5.63634 0
M  V30 3534 H 331.368 -4.75992 5.06415 0
M  V30 3535 H 334.559 -3.4111 3.20564 0
M  V30 3536 H 334.732 -4.54544 4.61837 0
M  V30 3537 N 328.138 -0.959301 -1.25041 0
M  V30 3538 C 329.101 -0.487677 -2.23952 0
M  V30 3539 C 330.101 0.41119 -1.55454 0
M  V30 3540 O 331.291 0.207825 -1.72956 0
M  V30 3541 C 328.423 0.294807 -3.39623 0
M  V30 3542 H 329.616 -1.36198 -2.67189 0
M  V30 3543 H 327.169 -0.743042 -1.37508 0
M  V30 3544 H 327.904 1.18658 -3.01813 0
M  V30 3545 H 327.689 -0.35012 -3.90534 0
M  V30 3546 H 329.179 0.614089 -4.1306 0
M  V30 3547 N 329.616 1.39756 -0.72842 0
M  V30 3548 C 330.856 2.025 -0.278078 0
M  V30 3549 C 331.22 1.5654 1.11173 0
M  V30 3550 O 332.421 2.11435 1.65978 0
M  V30 3551 C 330.692 3.55489 -0.369139 0
M  V30 3552 S 332.251 4.388 0.00232983 0
M  V30 3553 H 329.069 0.702534 -0.109391 0
M  V30 3554 H 331.671 1.70672 -0.95348 0
M  V30 3555 H 330.375 3.86429 -1.38204 0
M  V30 3556 H 329.906 3.92061 0.324308 0
M  V30 3557 H 331.921 4.80954 1.22055 0
M  V30 3558 N 331.094 0.475555 1.50254 0
M  V30 3559 C 332.322 -0.0754493 2.06762 0
M  V30 3560 C 332.737 -1.33111 1.33891 0
M  V30 3561 O 332.094 -1.77846 0.40952 0
M  V30 3562 C 332.145 -0.359008 3.59713 0
M  V30 3563 O 331.866 0.846851 4.29837 0
M  V30 3564 C 333.367 -0.956484 4.32858 0
M  V30 3565 H 330.587 0.00907525 0.670939 0
M  V30 3566 H 333.131 0.665618 1.93364 0
M  V30 3567 H 331.286 -1.05001 3.72899 0
M  V30 3568 H 331.7 0.594162 5.21124 0
M  V30 3569 H 333.174 -1.10463 5.40834 0
M  V30 3570 H 333.651 -1.94775 3.93649 0
M  V30 3571 H 334.257 -0.303723 4.24214 0
M  V30 3572 N 332.573 -1.56217 0.208337 0
M  V30 3573 C 333.483 -2.23316 -0.718836 0
M  V30 3574 C 334.499 -1.23648 -1.22422 0
M  V30 3575 O 335.675 -1.56423 -1.26861 0
M  V30 3576 C 332.74 -2.88968 -1.91568 0
M  V30 3577 C 331.801 -4.03943 -1.45357 0
M  V30 3578 C 331.034 -4.66455 -2.59337 0
M  V30 3579 O 331.257 -4.27919 -3.77149 0
M  V30 3580 O 330.191 -5.55686 -2.31293 0
M  V30 3581 H 334.017 -3.03182 -0.177315 0
M  V30 3582 H 331.602 -1.49384 -0.0215402 0
M  V30 3583 H 333.484 -3.30455 -2.61491 0
M  V30 3584 H 332.159 -2.12071 -2.44556 0
M  V30 3585 H 331.066 -3.67052 -0.722746 0
M  V30 3586 H 332.399 -4.82543 -0.970219 0
M  V30 3587 N 334.051 0.0651679 -1.57465 0
M  V30 3588 C 334.999 1.09542 -2.05191 0
M  V30 3589 C 335.993 1.39675 -0.958509 0
M  V30 3590 O 337.199 1.39003 -1.14359 0
M  V30 3591 H 333.574 0.370623 -0.654326 0
M  V30 3592 H 335.545 0.666802 -2.90854 0
M  V30 3593 C 334.294 2.39881 -2.51699 0
M  V30 3594 H 333.617 2.17547 -3.3543 0
M  V30 3595 H 335.057 3.104 -2.88839 0
M  V30 3596 C 333.516 3.0631 -1.40271 0
M  V30 3597 O 334.046 3.94664 -0.748523 0
M  V30 3598 N 332.252 2.67041 -1.14618 0
M  V30 3599 H 331.799 1.95281 -1.67997 0
M  V30 3600 H 331.757 3.1181 -0.402688 0
M  V30 3601 N 335.529 1.53961 0.336706 0
M  V30 3602 C 336.477 1.83136 1.43401 0
M  V30 3603 C 337.471 0.702313 1.54156 0
M  V30 3604 O 338.677 0.885765 1.56698 0
M  V30 3605 H 335.052 0.580309 0.478273 0
M  V30 3606 H 337.023 2.74925 1.16012 0
M  V30 3607 C 335.772 2.06385 2.79822 0
M  V30 3608 H 335.095 2.92718 2.72316 0
M  V30 3609 H 336.535 2.30761 3.55704 0
M  V30 3610 C 334.994 0.851414 3.25964 0
M  V30 3611 O 335.524 0.0541904 4.01663 0
M  V30 3612 N 333.73 0.66672 2.82848 0
M  V30 3613 H 333.277 1.31665 2.21409 0
M  V30 3614 H 333.235 -0.143032 3.14074 0
M  V30 3615 N 337.007 -0.598083 1.45811 0
M  V30 3616 C 337.917 -1.73632 1.57763 0
M  V30 3617 C 338.933 -1.67763 0.461676 0
M  V30 3618 O 340.109 -1.87949 0.723685 0
M  V30 3619 C 337.174 -3.10114 1.55018 0
M  V30 3620 C 336.235 -3.27364 2.77726 0
M  V30 3621 C 335.468 -4.57334 2.75102 0
M  V30 3622 O 335.691 -5.40258 1.8297 0
M  V30 3623 O 334.625 -4.77502 3.66437 0
M  V30 3624 H 338.451 -1.66498 2.53992 0
M  V30 3625 H 336.036 -0.763308 1.28429 0
M  V30 3626 H 337.918 -3.9141 1.56129 0
M  V30 3627 H 336.593 -3.17718 0.619431 0
M  V30 3628 H 335.5 -2.45619 2.82174 0
M  V30 3629 H 336.833 -3.24641 3.69958 0
M  V30 3630 N 338.485 -1.33259 -0.841409 0
M  V30 3631 C 339.725 -1.25902 -1.61022 0
M  V30 3632 C 340.089 0.173325 -1.91216 0
M  V30 3633 O 341.29 0.370824 -2.6623 0
M  V30 3634 C 339.561 -2.10735 -2.88662 0
M  V30 3635 S 341.12 -2.20541 -3.79351 0
M  V30 3636 H 337.938 -0.447958 -0.552137 0
M  V30 3637 H 340.54 -1.68263 -0.995382 0
M  V30 3638 H 339.244 -3.1384 -2.64448 0
M  V30 3639 H 338.775 -1.69201 -3.55154 0
M  V30 3640 H 340.79 -1.36462 -4.77067 0
M  V30 3641 N 339.963 1.05934 -1.16686 0
M  V30 3642 C 341.203 1.80382 -0.961345 0
M  V30 3643 C 341.567 1.85331 0.501643 0
M  V30 3644 O 342.768 2.55795 0.825986 0
M  V30 3645 C 341.039 3.20777 -1.57596 0
M  V30 3646 S 342.598 4.11795 -1.51559 0
M  V30 3647 H 339.416 0.621332 -0.345641 0
M  V30 3648 H 342.018 1.27157 -1.48497 0
M  V30 3649 H 340.722 3.14773 -2.63337 0
M  V30 3650 H 340.253 3.79078 -1.05182 0
M  V30 3651 H 342.268 4.93485 -0.518374 0
M  V30 3652 N 341.441 0.965919 1.2453 0
M  V30 3653 C 342.391 0.465731 2.23193 0
M  V30 3654 C 343.375 -0.451277 1.54442 0
M  V30 3655 O 344.567 -0.282489 1.74731 0
M  V30 3656 C 341.696 -0.244511 3.42428 0
M  V30 3657 C 340.782 0.691222 4.18429 0
M  V30 3658 N 341.173 1.82771 4.71623 0
M  V30 3659 C 339.471 0.501649 4.4317 0
M  V30 3660 C 340.172 2.41285 5.29298 0
M  V30 3661 N 339.148 1.69819 5.16394 0
M  V30 3662 H 342.95 1.33291 2.61937 0
M  V30 3663 H 340.464 0.824789 1.39896 0
M  V30 3664 H 342.461 -0.620056 4.12263 0
M  V30 3665 H 341.121 -1.10815 3.05205 0
M  V30 3666 H 342.132 2.20929 4.68413 0
M  V30 3667 H 338.809 -0.318177 4.16286 0
M  V30 3668 H 340.199 3.37181 5.8117 0
M  V30 3669 N 342.919 -1.39368 0.735821 0
M  V30 3670 C 344.33 -1.83313 0.354015 0
M  V30 3671 C 344.681 -1.61461 -1.11466 0
M  V30 3672 O 343.806 -1.10621 -1.85989 0
M  V30 3673 C 344.401 -3.32781 0.635769 0
M  V30 3674 C 342.96 -3.75142 0.307448 0
M  V30 3675 C 342.107 -2.62358 0.897974 0
M  V30 3676 H 345.058 -1.28349 0.933398 0
M  V30 3677 H 345.079 -3.80388 -0.0921773 0
M  V30 3678 H 344.591 -3.48654 1.70476 0
M  V30 3679 H 342.692 -3.64857 -0.755674 0
M  V30 3680 H 342.805 -4.72532 0.790583 0
M  V30 3681 H 341.169 -2.52624 0.324551 0
M  V30 3682 H 341.952 -2.81036 1.97164 0
M  V30 3683 N 344.397 -0.483516 -1.5 0
M  V30 3684 C 345.307 0.309172 -2.32554 0
M  V30 3685 C 346.323 0.984159 -1.43493 0
M  V30 3686 O 347.499 0.969399 -1.76535 0
M  V30 3687 C 344.564 1.36979 -3.18493 0
M  V30 3688 C 343.625 0.710095 -4.23387 0
M  V30 3689 C 342.858 1.72018 -5.05218 0
M  V30 3690 O 343.081 2.94813 -4.88305 0
M  V30 3691 O 342.015 1.28515 -5.8802 0
M  V30 3692 H 345.841 -0.366064 -3.01486 0
M  V30 3693 H 343.426 -0.24514 -1.47375 0
M  V30 3694 H 345.308 1.98385 -3.71781 0
M  V30 3695 H 343.983 2.02828 -2.52275 0
M  V30 3696 H 342.89 0.0567539 -3.74057 0
M  V30 3697 H 344.223 0.0943557 -4.9211 0
M  V30 3698 N 345.875 1.56104 -0.216619 0
M  V30 3699 C 347.115 2.00074 0.418322 0
M  V30 3700 C 347.479 1.10098 1.57297 0
M  V30 3701 O 348.68 1.43393 2.27359 0
M  V30 3702 C 346.951 3.47231 0.846477 0
M  V30 3703 S 348.51 4.13223 1.47622 0
M  V30 3704 H 345.328 0.698457 0.132962 0
M  V30 3705 H 347.93 1.92784 -0.324748 0
M  V30 3706 H 346.634 4.104 -0.0036319 0
M  V30 3707 H 346.165 3.58384 1.62248 0
M  V30 3708 H 348.18 4.12005 2.76526 0
M  V30 3709 N 347.353 -0.0568162 1.57498 0
M  V30 3710 C 348.283 -1.06593 2.0775 0
M  V30 3711 C 349.264 -1.39448 0.974082 0
M  V30 3712 O 350.449 -1.48815 1.24771 0
M  V30 3713 C 347.579 -2.37509 2.5339 0
M  V30 3714 C 346.533 -2.1897 3.67745 0
M  V30 3715 C 345.859 -3.55402 3.99492 0
M  V30 3716 C 347.159 -1.59859 4.97235 0
M  V30 3717 H 348.853 -0.647706 2.9231 0
M  V30 3718 H 346.399 -0.310116 1.40621 0
M  V30 3719 H 348.352 -3.08409 2.87162 0
M  V30 3720 H 347.076 -2.8134 1.65878 0
M  V30 3721 H 345.735 -1.50508 3.3428 0
M  V30 3722 H 345.383 -3.9683 3.09088 0
M  V30 3723 H 345.083 -3.43831 4.76502 0
M  V30 3724 H 346.607 -4.27708 4.35773 0
M  V30 3725 H 348.021 -2.20642 5.29141 0
M  V30 3726 H 346.418 -1.58942 5.78669 0
M  V30 3727 H 347.488 -0.561506 4.81638 0
M  V30 3728 N 348.832 -1.54138 -0.328536 0
M  V30 3729 C 350.08 -1.71765 -1.06496 0
M  V30 3730 C 350.401 -0.49149 -1.88704 0
M  V30 3731 O 349.671 0.494539 -1.89555 0
M  V30 3732 H 348.251 -0.633295 -0.396164 0
M  V30 3733 H 350.913 -1.91429 -0.366176 0
M  V30 3734 H 350.009 -2.5951 -1.73381 0
M  V30 3735 N 350.31 0.590341 -1.46126 0
M  V30 3736 C 351.535 1.37991 -1.54833 0
M  V30 3737 C 351.96 1.87163 -0.187506 0
M  V30 3738 O 351.318 1.61133 0.831008 0
M  V30 3739 C 351.366 2.54867 -2.55098 0
M  V30 3740 O 350.47 3.56061 -2.08073 0
M  V30 3741 H 349.811 0.411265 -0.521303 0
M  V30 3742 H 352.341 0.716819 -1.91632 0
M  V30 3743 H 352.351 3.01886 -2.74461 0
M  V30 3744 H 351.026 2.18429 -3.53923 0
M  V30 3745 H 349.603 3.15574 -1.98664 0
M  V30 3746 N 351.788 1.33704 0.83433 0
M  V30 3747 C 353.028 1.26754 1.60352 0
M  V30 3748 C 353.392 -0.163182 1.91305 0
M  V30 3749 O 354.593 -0.3567 2.66423 0
M  V30 3750 C 352.864 2.12262 2.8754 0
M  V30 3751 S 354.423 2.22549 3.78176 0
M  V30 3752 H 351.241 0.450879 0.549753 0
M  V30 3753 H 353.843 1.68788 0.986444 0
M  V30 3754 H 352.547 3.15238 2.62779 0
M  V30 3755 H 352.078 1.71082 3.54252 0
M  V30 3756 H 354.093 1.3899 4.76336 0
M  V30 3757 N 353.266 -1.05314 1.17247 0
M  V30 3758 C 354.491 -1.82509 0.985148 0
M  V30 3759 C 354.916 -1.82343 -0.461788 0
M  V30 3760 O 354.274 -1.23151 -1.33055 0
M  V30 3761 C 354.322 -3.26566 1.52929 0
M  V30 3762 O 353.426 -4.05666 0.742225 0
M  V30 3763 H 352.767 -0.564347 0.349869 0
M  V30 3764 H 355.297 -1.32718 1.55715 0
M  V30 3765 H 355.307 -3.77369 1.55103 0
M  V30 3766 H 353.982 -3.26001 2.58256 0
M  V30 3767 H 352.559 -3.64397 0.791794 0
M  V30 3768 N 354.744 -0.972509 -1.24016 0
M  V30 3769 C 355.707 -0.511403 -2.23422 0
M  V30 3770 C 356.707 0.394679 -1.55881 0
M  V30 3771 O 357.897 0.189469 -1.73167 0
M  V30 3772 C 355.029 0.258769 -3.39916 0
M  V30 3773 H 356.222 -1.39024 -2.6573 0
M  V30 3774 H 353.775 -0.757585 -1.36713 0
M  V30 3775 H 354.51 1.1545 -3.03054 0
M  V30 3776 H 354.295 -0.391522 -3.9014 0
M  V30 3777 H 355.785 0.570244 -4.13688 0
M  V30 3778 N 356.222 1.38976 -0.743202 0
M  V30 3779 C 357.633 1.83123 -0.363732 0
M  V30 3780 C 357.984 1.6205 1.10609 0
M  V30 3781 O 357.109 1.11606 1.854 0
M  V30 3782 C 357.704 3.32439 -0.653408 0
M  V30 3783 C 356.263 3.74974 -0.327338 0
M  V30 3784 C 355.41 2.61878 -0.911875 0
M  V30 3785 H 358.361 1.27852 -0.940191 0
M  V30 3786 H 358.382 3.80432 0.0720031 0
M  V30 3787 H 357.894 3.47745 -1.72323 0
M  V30 3788 H 355.995 3.65252 0.736314 0
M  V30 3789 H 356.108 4.72106 -0.815631 0
M  V30 3790 H 354.472 2.52448 -0.337944 0
M  V30 3791 H 355.255 2.79987 -1.98651 0
M  V30 3792 N 357.7 0.491464 1.49741 0
M  V30 3793 C 358.977 -0.118984 1.95238 0
M  V30 3794 C 359.357 -1.55044 1.43264 0
M  V30 3795 O 358.705 -2.19287 0.642287 0
M  V30 3796 C 358.915 -0.0414187 3.48975 0
M  V30 3797 C 360.263 -0.220133 4.24029 0
M  V30 3798 O 361.287 -0.117055 3.56008 0
M  V30 3799 O 360.146 -0.430567 5.44801 0
M  V30 3800 H 357.24 -0.100536 0.820866 0
M  V30 3801 H 359.786 0.553322 1.60426 0
M  V30 3802 H 358.558 0.957214 3.79412 0
M  V30 3803 H 358.181 -0.754292 3.9038 0
M  V30 3804 N 359.178 -1.55987 0.224894 0
M  V30 3805 C 360.126 -2.21808 -0.700283 0
M  V30 3806 C 361.12 -1.19854 -1.19714 0
M  V30 3807 O 362.326 -1.37925 -1.15658 0
M  V30 3808 H 358.701 -0.711226 -0.244258 0
M  V30 3809 H 360.672 -2.98152 -0.121749 0
M  V30 3810 C 359.421 -2.91444 -1.8962 0
M  V30 3811 H 358.744 -3.69655 -1.52299 0
M  V30 3812 H 360.184 -3.40894 -2.52125 0
M  V30 3813 C 358.643 -1.94098 -2.75368 0
M  V30 3814 O 359.173 -1.46004 -3.74227 0
M  V30 3815 N 357.379 -1.61675 -2.41474 0
M  V30 3816 H 356.926 -2.00979 -1.61137 0
M  V30 3817 H 356.884 -0.968036 -2.99126 0
M  V30 3818 N 360.656 0.0484629 -1.57525 0
M  V30 3819 C 361.933 0.777447 -1.79486 0
M  V30 3820 C 362.313 1.94597 -0.818251 0
M  V30 3821 O 361.661 2.28047 0.143767 0
M  V30 3822 C 361.871 1.22864 -3.26658 0
M  V30 3823 C 363.219 1.65251 -3.91123 0
M  V30 3824 O 364.243 1.32372 -3.3069 0
M  V30 3825 O 363.102 2.26207 -4.97486 0
M  V30 3826 H 360.196 0.374357 -0.737419 0
M  V30 3827 H 362.742 0.0267359 -1.69679 0
M  V30 3828 H 361.514 0.393589 -3.89316 0
M  V30 3829 H 361.137 2.03996 -3.41279 0
M  V30 3830 N 362.134 1.5431 0.320358 0
M  V30 3831 C 363.362 1.76636 1.07738 0
M  V30 3832 C 363.777 0.51649 1.81598 0
M  V30 3833 O 363.134 -0.512942 1.75143 0
M  V30 3834 C 363.185 2.96158 2.07299 0
M  V30 3835 O 362.906 4.16313 1.36438 0
M  V30 3836 C 364.407 3.3072 2.95193 0
M  V30 3837 H 361.627 0.589597 0.320339 0
M  V30 3838 H 364.171 2.01207 0.36551 0
M  V30 3839 H 362.326 2.73851 2.74016 0
M  V30 3840 H 362.74 4.83565 2.03138 0
M  V30 3841 H 364.214 4.17643 3.60941 0
M  V30 3842 H 364.691 2.48026 3.62463 0
M  V30 3843 H 365.297 3.55117 2.34034 0
M  V30 3844 N 363.613 -0.582584 1.46437 0
M  V30 3845 C 364.576 -1.67366 1.56592 0
M  V30 3846 C 365.576 -1.54575 0.443072 0
M  V30 3847 O 366.766 -1.59191 0.707381 0
M  V30 3848 C 363.898 -3.06791 1.48634 0
M  V30 3849 H 365.091 -1.5972 2.5383 0
M  V30 3850 H 362.644 -0.800432 1.34249 0
M  V30 3851 H 363.379 -3.19993 0.526763 0
M  V30 3852 H 363.164 -3.17484 2.30101 0
M  V30 3853 H 364.654 -3.86218 1.58826 0
M  V30 3854 N 365.091 -1.34144 -0.827227 0
M  V30 3855 C 366.331 -1.27603 -1.59677 0
M  V30 3856 C 366.695 0.153035 -1.91389 0
M  V30 3857 O 367.896 0.342566 -2.66608 0
M  V30 3858 C 366.167 -2.13784 -2.86411 0
M  V30 3859 S 367.726 -2.24552 -3.76991 0
M  V30 3860 H 364.544 -0.453789 -0.547354 0
M  V30 3861 H 367.146 -1.69309 -0.977479 0
M  V30 3862 H 365.85 -3.16627 -2.61104 0
M  V30 3863 H 365.381 -1.72959 -3.5334 0
M  V30 3864 H 367.396 -1.41514 -4.75593 0
M  V30 3865 N 366.569 1.04691 -1.17803 0
M  V30 3866 C 367.815 1.78045 -0.970969 0
M  V30 3867 C 368.148 1.87686 0.498751 0
M  V30 3868 O 367.423 1.38035 1.37027 0
M  V30 3869 C 367.706 3.2166 -1.61884 0
M  V30 3870 C 367.559 3.20001 -3.161 0
M  V30 3871 C 368.878 4.1962 -1.3269 0
M  V30 3872 H 365.997 0.64633 -0.354155 0
M  V30 3873 H 368.639 1.22333 -1.45378 0
M  V30 3874 H 366.789 3.69232 -1.20831 0
M  V30 3875 H 368.461 2.80467 -3.66246 0
M  V30 3876 H 366.704 2.58203 -3.48588 0
M  V30 3877 H 367.375 4.21386 -3.56564 0
M  V30 3878 H 369.851 3.80567 -1.68249 0
M  V30 3879 H 368.727 5.18339 -1.80599 0
M  V30 3880 H 368.988 4.414 -0.248622 0
M  V30 3881 N 368.047 0.979072 1.23499 0
M  V30 3882 C 369.01 0.523244 2.23147 0
M  V30 3883 C 370.01 -0.386406 1.56088 0
M  V30 3884 O 371.2 -0.180283 1.73265 0
M  V30 3885 C 368.332 -0.240739 3.40049 0
M  V30 3886 H 369.525 1.40432 2.64989 0
M  V30 3887 H 367.078 0.764824 1.36309 0
M  V30 3888 H 367.813 -1.13841 3.03662 0
M  V30 3889 H 367.598 0.412207 3.89927 0
M  V30 3890 H 369.088 -0.548297 4.13985 0
M  V30 3891 N 369.525 -1.3858 0.750561 0
M  V30 3892 C 370.765 -2.02032 0.310258 0
M  V30 3893 C 371.129 -1.58288 -1.08668 0
M  V30 3894 O 372.33 -2.14049 -1.62593 0
M  V30 3895 C 370.601 -3.54856 0.425647 0
M  V30 3896 S 372.16 -4.38748 0.0674797 0
M  V30 3897 H 368.978 -0.700705 0.120554 0
M  V30 3898 H 371.58 -1.69134 0.980512 0
M  V30 3899 H 370.284 -3.84182 1.44335 0
M  V30 3900 H 369.815 -3.92527 -0.261894 0
M  V30 3901 H 371.83 -4.82835 -1.14388 0
M  V30 3902 N 371.003 -0.499398 -1.49478 0
M  V30 3903 C 372.419 -0.155261 -1.58843 0
M  V30 3904 C 372.619 1.34008 -1.50479 0
M  V30 3905 O 371.675 2.11589 -1.37791 0
M  V30 3906 C 372.988 -0.730636 -2.91689 0
M  V30 3907 C 374.536 -0.696599 -3.0515 0
M  V30 3908 C 375.011 -1.25001 -4.40612 0
M  V30 3909 N 376.502 -1.21064 -4.47099 0
M  V30 3910 C 377.237 -1.60905 -5.50361 0
M  V30 3911 N 376.733 -2.08331 -6.60735 0
M  V30 3912 N 378.526 -1.52331 -5.41065 0
M  V30 3913 H 370.677 -1.47162 -1.53158 0
M  V30 3914 H 372.94 -0.610309 -0.725415 0
M  V30 3915 H 372.646 -1.77928 -3.03372 0
M  V30 3916 H 372.52 -0.190161 -3.7672 0
M  V30 3917 H 374.907 0.343204 -2.93097 0
M  V30 3918 H 374.988 -1.2742 -2.21806 0
M  V30 3919 H 374.632 -2.28859 -4.53416 0
M  V30 3920 H 374.562 -0.64836 -5.22593 0
M  V30 3921 H 377.053 -0.863128 -3.67911 0
M  V30 3922 H 377.366 -2.36805 -7.35624 0
M  V30 3923 H 375.711 -2.12304 -6.6178 0
M  V30 3924 H 378.902 -1.151 -4.53729 0
M  V30 3925 H 379.075 -1.83704 -6.21415 0
M  V30 3926 N 372.481 1.55866 -0.233164 0
M  V30 3927 C 373.431 2.17442 0.685774 0
M  V30 3928 C 374.415 1.12617 1.14918 0
M  V30 3929 O 375.607 1.3857 1.10124 0
M  V30 3930 C 372.736 2.86685 1.88856 0
M  V30 3931 C 371.822 3.98749 1.4443 0
M  V30 3932 N 372.213 5.00744 0.713364 0
M  V30 3933 C 370.511 4.11052 1.73068 0
M  V30 3934 C 371.212 5.79673 0.485205 0
M  V30 3935 N 370.188 5.33454 1.04536 0
M  V30 3936 H 373.99 2.93659 0.119022 0
M  V30 3937 H 371.504 1.62362 -0.0348995 0
M  V30 3938 H 373.501 3.29218 2.55776 0
M  V30 3939 H 372.161 2.11967 2.45967 0
M  V30 3940 H 373.172 5.16613 0.364861 0
M  V30 3941 H 369.849 3.47495 2.31416 0
M  V30 3942 H 371.239 6.71829 -0.097365 0
M  V30 3943 N 373.959 -0.0401083 1.57549 0
M  V30 3944 C 375.189 -0.744115 1.92734 0
M  V30 3945 C 375.597 -1.70005 0.830348 0
M  V30 3946 O 374.94 -1.82576 -0.20286 0
M  V30 3947 C 375.002 -1.56516 3.2364 0
M  V30 3948 C 374.666 -0.7752 4.50377 0
M  V30 3949 C 375.663 -0.0803326 5.19838 0
M  V30 3950 C 373.348 -0.733002 4.96923 0
M  V30 3951 C 375.342 0.646154 6.34116 0
M  V30 3952 C 373.029 -0.00276321 6.111 0
M  V30 3953 C 374.027 0.685585 6.7955 0
M  V30 3954 O 373.715 1.40399 7.91545 0
M  V30 3955 H 373.447 -0.214861 0.640945 0
M  V30 3956 H 376.001 -0.00503675 2.05399 0
M  V30 3957 H 374.231 -2.3478 3.07271 0
M  V30 3958 H 375.92 -2.15076 3.44234 0
M  V30 3959 H 376.686 -0.104035 4.84888 0
M  V30 3960 H 372.565 -1.25827 4.43496 0
M  V30 3961 H 376.109 1.18398 6.87479 0
M  V30 3962 H 372.006 0.0229012 6.45496 0
M  V30 3963 H 372.774 1.31653 8.07843 0
M  V30 3964 N 375.437 -1.54477 -0.31217 0
M  V30 3965 C 376.667 -1.76948 -1.06645 0
M  V30 3966 C 377.075 -0.523593 -1.81811 0
M  V30 3967 O 376.418 0.51578 -1.76311 0
M  V30 3968 C 376.48 -2.91668 -2.10166 0
M  V30 3969 C 376.144 -4.30165 -1.54296 0
M  V30 3970 C 377.141 -5.10603 -0.978793 0
M  V30 3971 C 374.826 -4.76738 -1.58196 0
M  V30 3972 C 376.82 -6.3573 -0.461048 0
M  V30 3973 C 374.507 -6.01831 -1.06034 0
M  V30 3974 C 375.505 -6.81161 -0.500844 0
M  V30 3975 O 375.193 -8.03899 0.0128958 0
M  V30 3976 H 374.925 -0.594088 -0.322546 0
M  V30 3977 H 377.479 -2.02213 -0.360441 0
M  V30 3978 H 375.709 -2.62001 -2.84416 0
M  V30 3979 H 377.398 -3.01817 -2.71406 0
M  V30 3980 H 378.164 -4.75771 -0.941651 0
M  V30 3981 H 374.043 -4.15027 -2.00683 0
M  V30 3982 H 377.587 -6.97596 -0.0236894 0
M  V30 3983 H 373.484 -6.36152 -1.09459 0
M  V30 3984 H 374.252 -8.18437 -0.101457 0
M  V30 3985 N 376.915 0.57481 -1.46744 0
M  V30 3986 C 378.145 1.35659 -1.55821 0
M  V30 3987 C 378.553 1.88129 -0.201036 0
M  V30 3988 O 377.896 1.64723 0.813134 0
M  V30 3989 C 377.958 2.57473 -2.50894 0
M  V30 3990 C 377.622 2.26415 -3.9697 0
M  V30 3991 C 378.619 1.84771 -4.85958 0
M  V30 3992 C 376.304 2.38316 -4.42166 0
M  V30 3993 C 378.298 1.55434 -6.18158 0
M  V30 3994 C 375.985 2.08591 -5.74398 0
M  V30 3995 C 376.983 1.67216 -6.62214 0
M  V30 3996 O 376.671 1.37859 -7.91991 0
M  V30 3997 H 376.403 0.420496 -0.529301 0
M  V30 3998 H 378.957 0.704967 -1.92923 0
M  V30 3999 H 377.187 3.25468 -2.08824 0
M  V30 4000 H 378.876 3.19546 -2.50291 0
M  V30 4001 H 379.642 1.75085 -4.52295 0
M  V30 4002 H 375.521 2.69483 -3.74032 0
M  V30 4003 H 379.065 1.23065 -6.86659 0
M  V30 4004 H 374.962 2.17905 -6.07608 0
M  V30 4005 H 375.73 1.51638 -8.04331 0
M  V30 4006 N 378.394 1.34581 0.820102 0
M  V30 4007 C 379.357 1.2628 1.91275 0
M  V30 4008 C 380.357 0.177344 1.59819 0
M  V30 4009 O 381.547 0.430156 1.68806 0
M  V30 4010 C 378.679 0.950327 3.27386 0
M  V30 4011 H 379.872 2.23421 2.00057 0
M  V30 4012 H 377.425 1.1891 1.0144 0
M  V30 4013 H 378.16 -0.0177938 3.24295 0
M  V30 4014 H 377.945 1.73549 3.51601 0
M  V30 4015 H 379.435 0.917492 4.07396 0
M  V30 4016 N 379.872 -1.04064 1.18357 0
M  V30 4017 C 381.12 -1.76915 0.977013 0
M  V30 4018 C 381.441 -1.88624 -0.494577 0
M  V30 4019 O 380.711 -1.41125 -1.3587 0
M  V30 4020 H 379.291 -0.65535 0.358504 0
M  V30 4021 H 381.953 -1.25592 1.49039 0
M  V30 4022 H 381.049 -2.78178 1.41504 0
M  V30 4023 N 381.35 -0.985608 -1.22978 0
M  V30 4024 C 382.596 -0.65836 -1.91816 0
M  V30 4025 C 382.929 0.806692 -1.76653 0
M  V30 4026 O 382.204 1.58252 -1.13078 0
M  V30 4027 C 382.487 -1.056 -3.44268 0
M  V30 4028 C 382.34 -2.57906 -3.68516 0
M  V30 4029 C 383.659 -0.603781 -4.35939 0
M  V30 4030 H 380.778 -0.24065 -0.696604 0
M  V30 4031 H 383.42 -1.22783 -1.44998 0
M  V30 4032 H 381.57 -0.571445 -3.84274 0
M  V30 4033 H 383.242 -3.13976 -3.3796 0
M  V30 4034 H 381.485 -3.00305 -3.13048 0
M  V30 4035 H 382.156 -2.80779 -4.75255 0
M  V30 4036 H 384.632 -1.01987 -4.03408 0
M  V30 4037 H 383.508 -0.910383 -5.41298 0
M  V30 4038 H 383.769 0.495761 -4.39312 0
M  V30 4039 N 382.828 1.3818 -0.7579 0
M  V30 4040 C 384.068 2.01864 -0.320968 0
M  V30 4041 C 384.432 1.58863 1.07827 0
M  V30 4042 O 385.633 2.14908 1.61456 0
M  V30 4043 C 383.904 3.54626 -0.44446 0
M  V30 4044 S 385.463 4.38706 -0.0907467 0
M  V30 4045 H 382.281 0.700056 -0.124268 0
M  V30 4046 H 384.883 1.68611 -0.989468 0
M  V30 4047 H 383.587 3.83411 -1.4637 0
M  V30 4048 H 383.118 3.92661 0.241073 0
M  V30 4049 H 385.133 4.83435 1.11826 0
M  V30 4050 N 384.306 0.507319 1.49211 0
M  V30 4051 C 385.552 -0.0350047 2.0277 0
M  V30 4052 C 385.885 -1.3606 1.38569 0
M  V30 4053 O 385.16 -1.87321 0.523542 0
M  V30 4054 C 385.443 -0.180916 3.59645 0
M  V30 4055 C 385.296 1.16825 4.34364 0
M  V30 4056 C 386.615 -0.918558 4.30407 0
M  V30 4057 H 383.734 -0.0112473 0.736914 0
M  V30 4058 H 386.376 0.659956 1.7817 0
M  V30 4059 H 384.526 -0.772826 3.80736 0
M  V30 4060 H 386.198 1.79952 4.24753 0
M  V30 4061 H 384.441 1.75594 3.96673 0
M  V30 4062 H 385.112 1.01939 5.42506 0
M  V30 4063 H 387.588 -0.41649 4.1401 0
M  V30 4064 H 386.464 -0.989505 5.39907 0
M  V30 4065 H 386.725 -1.96373 3.96093 0
M  V30 4066 N 385.784 -1.5574 0.241426 0
M  V30 4067 C 387.195 -1.84842 -0.262755 0
M  V30 4068 C 387.546 -1.16317 -1.58003 0
M  V30 4069 O 386.671 -0.439653 -2.11887 0
M  V30 4070 C 387.266 -3.35332 -0.483523 0
M  V30 4071 C 385.825 -3.6468 -0.931977 0
M  V30 4072 C 384.972 -2.77299 -0.0061151 0
M  V30 4073 H 387.923 -1.51761 0.464129 0
M  V30 4074 H 387.944 -3.56615 -1.32688 0
M  V30 4075 H 387.456 -3.85178 0.47537 0
M  V30 4076 H 385.557 -3.20307 -1.90353 0
M  V30 4077 H 385.67 -4.72498 -0.792628 0
M  V30 4078 H 384.034 -2.49408 -0.516503 0
M  V30 4079 H 384.817 -3.2995 0.948052 0
M  V30 4080 N 387.262 0.0317525 -1.57568 0
M  V30 4081 C 388.225 1.01783 -2.0536 0
M  V30 4082 C 389.225 1.29203 -0.957253 0
M  V30 4083 O 390.415 1.24251 -1.22095 0
M  V30 4084 C 387.547 2.35137 -2.46827 0
M  V30 4085 H 388.74 0.605062 -2.93733 0
M  V30 4086 H 386.293 0.278514 -1.53799 0
M  V30 4087 H 387.028 2.81168 -1.61602 0
M  V30 4088 H 386.813 2.16566 -3.26866 0
M  V30 4089 H 388.303 3.05938 -2.84239 0
M  V30 4090 N 388.74 1.54641 0.303973 0
M  V30 4091 C 389.98 1.75516 1.04755 0
M  V30 4092 C 390.344 0.528211 1.84591 0
M  V30 4093 O 391.545 0.614645 2.61678 0
M  V30 4094 C 389.816 3.00685 1.93193 0
M  V30 4095 S 391.375 3.42549 2.74237 0
M  V30 4096 H 388.193 0.616987 0.353339 0
M  V30 4097 H 390.795 1.92842 0.321292 0
M  V30 4098 H 389.499 3.8811 1.33411 0
M  V30 4099 H 389.03 2.85937 2.70191 0
M  V30 4100 H 391.045 2.99386 3.95705 0
M  V30 4101 N 390.218 -0.567019 1.47046 0
M  V30 4102 C 391.629 -1.14916 1.47143 0
M  V30 4103 C 391.98 -1.94954 0.220767 0
M  V30 4104 O 391.105 -2.05602 -0.67505 0
M  V30 4105 C 391.7 -2.09069 2.666 0
M  V30 4106 C 390.259 -2.62575 2.69687 0
M  V30 4107 C 389.406 -1.38755 2.40088 0
M  V30 4108 H 392.357 -0.354126 1.54699 0
M  V30 4109 H 392.378 -2.92789 2.43011 0
M  V30 4110 H 391.89 -1.50789 3.57609 0
M  V30 4111 H 389.991 -3.24681 1.82792 0
M  V30 4112 H 390.104 -3.04239 3.70102 0
M  V30 4113 H 388.468 -1.69098 1.90468 0
M  V30 4114 H 389.251 -0.822822 3.33293 0
M  V30 4115 N 391.696 -1.35014 -0.812953 0
M  V30 4116 C 393.107 -1.25035 -1.38648 0
M  V30 4117 C 393.458 0.119967 -1.95833 0
M  V30 4118 O 392.583 1.02069 -1.90816 0
M  V30 4119 C 393.178 -2.26394 -2.52054 0
M  V30 4120 C 391.737 -2.20175 -3.05287 0
M  V30 4121 C 390.884 -2.12451 -1.78213 0
M  V30 4122 H 393.835 -1.46235 -0.616516 0
M  V30 4123 H 393.856 -1.88672 -3.30429 0
M  V30 4124 H 393.368 -3.26116 -2.10404 0
M  V30 4125 H 391.469 -1.23841 -3.51417 0
M  V30 4126 H 391.582 -3.11863 -3.63701 0
M  V30 4127 H 389.946 -1.58328 -1.9951 0
M  V30 4128 H 390.729 -3.14024 -1.38723 0
M  V30 4129 N 393.175 1.03435 -1.18907 0
M  V30 4130 C 394.123 2.13703 -0.918353 0
M  V30 4131 C 395.117 1.68947 0.123767 0
M  V30 4132 O 396.323 1.79983 -0.0249701 0
M  V30 4133 H 392.698 0.698112 -0.279542 0
M  V30 4134 H 394.669 2.33731 -1.85506 0
M  V30 4135 C 393.418 3.44542 -0.467532 0
M  V30 4136 H 392.741 3.79394 -1.26095 0
M  V30 4137 H 394.181 4.22812 -0.317164 0
M  V30 4138 C 392.64 3.26829 0.817588 0
M  V30 4139 O 393.17 3.54975 1.88031 0
M  V30 4140 N 391.376 2.80139 0.772677 0
M  V30 4141 H 390.923 2.57434 -0.0923883 0
M  V30 4142 H 390.881 2.68668 1.63294 0
M  V30 4143 N 394.653 0.992116 1.22453 0
M  V30 4144 C 395.881 0.685944 1.95198 0
M  V30 4145 C 396.296 -0.749233 1.73297 0
M  V30 4146 O 395.653 -1.50549 1.03156 0
M  V30 4147 C 395.704 0.981395 3.47924 0
M  V30 4148 O 395.425 2.36018 3.6909 0
M  V30 4149 C 396.926 0.692815 4.37853 0
M  V30 4150 H 394.146 0.253821 0.621141 0
M  V30 4151 H 396.69 1.32668 1.55626 0
M  V30 4152 H 394.845 0.386481 3.85467 0
M  V30 4153 H 395.259 2.45884 4.63294 0
M  V30 4154 H 396.733 0.949818 5.43767 0
M  V30 4155 H 397.21 -0.373181 4.37612 0
M  V30 4156 H 397.816 1.26874 4.05935 0
M  V30 4157 N 396.131 -1.37776 0.765217 0
M  V30 4158 C 397.361 -2.03828 0.337277 0
M  V30 4159 C 397.769 -1.57841 -1.04321 0
M  V30 4160 O 397.112 -0.752043 -1.67601 0
M  V30 4161 C 397.174 -3.58292 0.294407 0
M  V30 4162 C 396.838 -4.27384 1.61838 0
M  V30 4163 C 397.835 -4.51956 2.56967 0
M  V30 4164 C 395.52 -4.65345 1.89102 0
M  V30 4165 C 397.514 -5.13536 3.77571 0
M  V30 4166 C 395.201 -5.26647 3.09978 0
M  V30 4167 C 396.199 -5.50679 4.04032 0
M  V30 4168 O 395.887 -6.10702 5.2278 0
M  V30 4169 H 395.619 -0.661292 0.140248 0
M  V30 4170 H 398.173 -1.77222 1.03834 0
M  V30 4171 H 396.403 -3.83918 -0.462983 0
M  V30 4172 H 398.092 -4.05763 -0.105581 0
M  V30 4173 H 398.858 -4.23048 2.37183 0
M  V30 4174 H 394.737 -4.45978 1.16725 0
M  V30 4175 H 398.281 -5.3221 4.50997 0
M  V30 4176 H 394.178 -5.54979 3.29649 0
M  V30 4177 H 394.946 -6.29183 5.23517 0
M  V30 4178 N 397.609 -0.515225 -1.4894 0
M  V30 4179 C 399.025 -0.172099 -1.58669 0
M  V30 4180 C 399.225 1.32405 -1.51892 0
M  V30 4181 O 398.281 2.10116 -1.40027 0
M  V30 4182 C 399.594 -0.761533 -2.90897 0
M  V30 4183 C 401.142 -0.728926 -3.04394 0
M  V30 4184 C 401.617 -1.29667 -4.39261 0
M  V30 4185 N 403.108 -1.25799 -4.4579 0
M  V30 4186 C 403.843 -1.66733 -5.48623 0
M  V30 4187 N 403.339 -2.15327 -6.58488 0
M  V30 4188 N 405.132 -1.58061 -5.39419 0
M  V30 4189 H 397.283 -1.48778 -1.51588 0
M  V30 4190 H 399.546 -0.617968 -0.718901 0
M  V30 4191 H 399.252 -1.81136 -3.01468 0
M  V30 4192 H 399.126 -0.230106 -3.76497 0
M  V30 4193 H 401.513 0.312098 -2.93445 0
M  V30 4194 H 401.594 -1.29766 -2.20442 0
M  V30 4195 H 401.238 -2.33655 -4.50963 0
M  V30 4196 H 401.168 -0.703752 -5.21876 0
M  V30 4197 H 403.659 -0.902102 -3.66975 0
M  V30 4198 H 403.972 -2.44594 -7.33071 0
M  V30 4199 H 402.317 -2.19311 -6.59491 0
M  V30 4200 H 405.508 -1.19906 -4.52482 0
M  V30 4201 H 405.681 -1.90284 -6.19432 0
M  V30 4202 N 399.087 1.5561 -0.249682 0
M  V30 4203 C 400.334 1.99011 0.374287 0
M  V30 4204 C 400.662 1.13785 1.57744 0
M  V30 4205 O 399.917 0.189326 1.94782 0
M  V30 4206 C 400.216 3.4775 0.824887 0
M  V30 4207 C 399.882 4.50086 -0.270819 0
M  V30 4208 C 398.544 4.77791 -0.571746 0
M  V30 4209 C 400.896 5.11312 -1.01041 0
M  V30 4210 C 398.224 5.63997 -1.61629 0
M  V30 4211 C 400.576 5.98651 -2.0445 0
M  V30 4212 C 399.24 6.24688 -2.35204 0
M  V30 4213 H 398.51 0.728233 0.136961 0
M  V30 4214 H 401.157 1.88122 -0.358087 0
M  V30 4215 H 399.462 3.55985 1.63651 0
M  V30 4216 H 401.159 3.78721 1.31799 0
M  V30 4217 H 397.749 4.28592 -0.026136 0
M  V30 4218 H 401.933 4.89953 -0.791177 0
M  V30 4219 H 397.189 5.82425 -1.85988 0
M  V30 4220 H 401.363 6.45135 -2.62248 0
M  V30 4221 H 398.99 6.91281 -3.16282 0
M  V30 4222 N 400.565 -0.0233959 1.57583 0
M  V30 4223 C 401.475 -1.03907 2.10334 0
M  V30 4224 C 402.491 -1.39257 1.04323 0
M  V30 4225 O 403.667 -1.48462 1.36091 0
M  V30 4226 C 400.732 -2.31938 2.57693 0
M  V30 4227 C 399.793 -2.03117 3.78209 0
M  V30 4228 C 399.026 -3.25043 4.233 0
M  V30 4229 O 399.249 -4.35916 3.67876 0
M  V30 4230 O 398.183 -3.10411 5.15683 0
M  V30 4231 H 402.009 -0.620748 2.97288 0
M  V30 4232 H 399.594 -0.240743 1.47448 0
M  V30 4233 H 401.476 -3.07196 2.88458 0
M  V30 4234 H 400.151 -2.73055 1.73847 0
M  V30 4235 H 399.058 -1.25408 3.52454 0
M  V30 4236 H 400.391 -1.66852 4.63056 0
M  V30 4237 N 402.043 -1.548 -0.295768 0
M  V30 4238 C 403.291 -1.73985 -1.02828 0
M  V30 4239 C 403.612 -0.531406 -1.87619 0
M  V30 4240 O 402.882 0.454221 -1.90561 0
M  V30 4241 H 401.462 -0.641556 -0.382642 0
M  V30 4242 H 404.124 -1.92163 -0.325489 0
M  V30 4243 H 403.22 -2.63129 -1.67838 0
M  V30 4244 N 403.521 0.559213 -1.47345 0
M  V30 4245 C 404.767 1.31614 -1.55079 0
M  V30 4246 C 405.122 1.91257 -0.209422 0
M  V30 4247 O 404.415 1.74796 0.784656 0
M  V30 4248 C 404.609 2.44853 -2.6035 0
M  V30 4249 C 404.438 1.96305 -4.04591 0
M  V30 4250 C 403.208 1.8024 -4.72061 0
M  V30 4251 C 405.406 1.50872 -4.91673 0
M  V30 4252 N 403.388 1.26011 -6.00828 0
M  V30 4253 C 404.759 1.08395 -6.10451 0
M  V30 4254 C 406.814 1.38905 -4.78132 0
M  V30 4255 C 405.517 0.551399 -7.17183 0
M  V30 4256 C 407.543 0.870518 -5.84958 0
M  V30 4257 C 406.905 0.455661 -7.02925 0
M  V30 4258 H 403.004 0.473712 -0.62219 0
M  V30 4259 H 405.588 0.634103 -1.84085 0
M  V30 4260 H 403.759 3.10589 -2.33215 0
M  V30 4261 H 405.491 3.11849 -2.57938 0
M  V30 4262 H 402.246 2.02895 -4.27937 0
M  V30 4263 H 402.67 1.00991 -6.69425 0
M  V30 4264 H 407.312 1.69591 -3.87297 0
M  V30 4265 H 405.03 0.232159 -8.07766 0
M  V30 4266 H 408.616 0.781507 -5.76527 0
M  V30 4267 H 407.496 0.0606414 -7.84177 0
M  V30 4268 N 404.999 1.35443 0.805782 0
M  V30 4269 C 406.415 1.15499 1.10146 0
M  V30 4270 C 406.615 -0.0319975 2.01475 0
M  V30 4271 O 405.671 -0.70236 2.42535 0
M  V30 4272 C 406.984 2.45833 1.73166 0
M  V30 4273 C 408.532 2.52047 1.85583 0
M  V30 4274 C 409.007 3.82427 2.52019 0
M  V30 4275 N 410.498 3.83682 2.59504 0
M  V30 4276 C 411.233 4.81294 3.11679 0
M  V30 4277 N 410.729 5.89294 3.64287 0
M  V30 4278 N 412.522 4.6873 3.1024 0
M  V30 4279 H 404.673 2.11469 0.198678 0
M  V30 4280 H 406.936 0.93594 0.150731 0
M  V30 4281 H 406.642 3.32874 1.13526 0
M  V30 4282 H 406.516 2.6044 2.72857 0
M  V30 4283 H 408.903 1.65435 2.44367 0
M  V30 4284 H 408.984 2.41354 0.847455 0
M  V30 4285 H 408.628 4.69437 1.93885 0
M  V30 4286 H 408.558 3.90409 3.53395 0
M  V30 4287 H 411.049 3.05648 2.22234 0
M  V30 4288 H 411.362 6.59768 4.02401 0
M  V30 4289 H 409.707 5.92985 3.62483 0
M  V30 4290 H 412.898 3.83496 2.68419 0
M  V30 4291 H 413.071 5.44965 3.50596 0
M  V30 4292 N 406.477 -1.02803 1.19454 0
M  V30 4293 C 407.717 -1.77769 1.00883 0
M  V30 4294 C 408.081 -1.86596 -0.45233 0
M  V30 4295 O 409.282 -2.57895 -0.757877 0
M  V30 4296 C 407.553 -3.16486 1.66046 0
M  V30 4297 S 409.112 -4.07632 1.62424 0
M  V30 4298 H 405.93 -0.611949 0.361993 0
M  V30 4299 H 408.532 -1.23175 1.51816 0
M  V30 4300 H 407.236 -3.0768 2.7159 0
M  V30 4301 H 406.767 -3.76156 1.15196 0
M  V30 4302 H 408.782 -4.91937 0.64903 0
M  V30 4303 N 407.956 -0.998596 -1.21925 0
M  V30 4304 C 409.202 -0.678667 -1.91107 0
M  V30 4305 C 409.535 0.78791 -1.77498 0
M  V30 4306 O 408.81 1.57043 -1.1475 0
M  V30 4307 C 409.093 -1.09245 -3.43129 0
M  V30 4308 C 408.946 -2.61801 -3.6576 0
M  V30 4309 C 410.265 -0.649984 -4.35274 0
M  V30 4310 H 407.384 -0.248025 -0.694012 0
M  V30 4311 H 410.026 -1.24314 -1.43688 0
M  V30 4312 H 408.176 -0.612171 -3.83647 0
M  V30 4313 H 409.848 -3.17543 -3.34611 0
M  V30 4314 H 408.091 -3.03609 -3.09845 0
M  V30 4315 H 408.762 -2.85804 -4.7225 0
M  V30 4316 H 411.238 -1.0626 -4.02303 0
M  V30 4317 H 410.114 -0.967743 -5.40302 0
M  V30 4318 H 410.375 0.449139 -4.39813 0
M  V30 4319 N 409.434 1.37368 -0.772513 0
M  V30 4320 C 410.711 1.93839 -0.26188 0
M  V30 4321 C 411.091 1.7061 1.24319 0
M  V30 4322 O 410.439 1.05534 2.02669 0
M  V30 4323 C 410.649 3.43154 -0.636102 0
M  V30 4324 C 411.997 4.20249 -0.606324 0
M  V30 4325 O 413.021 3.5152 -0.575538 0
M  V30 4326 O 411.88 5.42809 -0.634086 0
M  V30 4327 H 408.974 0.82478 -0.0605555 0
M  V30 4328 H 411.52 1.4665 -0.853917 0
M  V30 4329 H 410.292 3.53647 -1.6748 0
M  V30 4330 H 409.915 3.97596 -0.0170516 0
M  V30 4331 N 410.912 0.523116 1.48665 0
M  V30 4332 C 412.328 0.180511 1.58576 0
M  V30 4333 C 412.528 -1.31597 1.52592 0
M  V30 4334 O 411.584 -2.0937 1.4114 0
M  V30 4335 C 412.897 0.776949 2.90489 0
M  V30 4336 C 414.445 0.745058 3.04003 0
M  V30 4337 C 414.92 1.31995 4.38567 0
M  V30 4338 N 416.411 1.28162 4.45117 0
M  V30 4339 C 417.146 1.6964 5.47731 0
M  V30 4340 N 416.642 2.18816 6.57337 0
M  V30 4341 N 418.435 1.6092 5.38573 0
M  V30 4342 H 410.586 1.4958 1.50797 0
M  V30 4343 H 412.849 0.621772 0.715614 0
M  V30 4344 H 412.555 1.82732 3.00503 0
M  V30 4345 H 412.429 0.25007 3.7637 0
M  V30 4346 H 414.816 -0.296532 2.93606 0
M  V30 4347 H 414.897 1.30933 2.1975 0
M  V30 4348 H 414.541 2.36043 4.49718 0
M  V30 4349 H 414.471 0.731418 5.21496 0
M  V30 4350 H 416.962 0.92155 3.66491 0
M  V30 4351 H 417.275 2.48478 7.31764 0
M  V30 4352 H 415.62 2.22805 6.58318 0
M  V30 4353 H 418.811 1.22304 4.5184 0
M  V30 4354 H 418.984 1.93567 6.18414 0
M  V30 4355 N 412.39 -1.55475 0.257931 0
M  V30 4356 C 413.667 -1.91155 -0.414629 0
M  V30 4357 C 414.047 -1.18008 -1.75035 0
M  V30 4358 O 413.395 -0.301193 -2.26506 0
M  V30 4359 C 413.605 -3.44283 -0.571859 0
M  V30 4360 C 414.953 -4.15744 -0.862678 0
M  V30 4361 O 415.977 -3.50083 -0.657314 0
M  V30 4362 O 414.836 -5.31909 -1.2544 0
M  V30 4363 H 411.93 -0.796016 -0.22425 0
M  V30 4364 H 414.476 -1.66976 0.302814 0
M  V30 4365 H 413.248 -3.89558 0.368844 0
M  V30 4366 H 412.871 -3.7436 -1.33943 0
M  V30 4367 N 413.868 0.0150385 -1.57593 0
M  V30 4368 C 415.115 0.703001 -1.89906 0
M  V30 4369 C 415.443 1.74604 -0.856944 0
M  V30 4370 O 414.698 1.95197 0.140287 0
M  V30 4371 C 414.997 1.39686 -3.28972 0
M  V30 4372 C 414.663 0.488457 -4.48246 0
M  V30 4373 C 413.325 0.2383 -4.8061 0
M  V30 4374 C 415.677 -0.137881 -5.21018 0
M  V30 4375 C 413.005 -0.646738 -5.83125 0
M  V30 4376 C 415.357 -1.0107 -6.24474 0
M  V30 4377 C 414.021 -1.27019 -6.55303 0
M  V30 4378 H 413.291 0.257246 -0.694914 0
M  V30 4379 H 415.938 -0.037259 -1.91464 0
M  V30 4380 H 414.243 2.21079 -3.23468 0
M  V30 4381 H 415.94 1.93495 -3.51227 0
M  V30 4382 H 412.53 0.693593 -4.22951 0
M  V30 4383 H 416.714 0.0423953 -4.96282 0
M  V30 4384 H 411.97 -0.855937 -6.05379 0
M  V30 4385 H 416.144 -1.50247 -6.79999 0
M  V30 4386 H 413.771 -1.95769 -7.3456 0
M  V30 4387 N 415.346 1.54954 0.287554 0
M  V30 4388 C 416.586 1.76617 1.02887 0
M  V30 4389 C 416.95 0.547759 1.84021 0
M  V30 4390 O 418.151 0.642365 2.61012 0
M  V30 4391 C 416.422 3.02717 1.89993 0
M  V30 4392 S 417.981 3.45438 2.70588 0
M  V30 4393 H 414.799 0.6207 0.346775 0
M  V30 4394 H 417.401 1.93172 0.30082 0
M  V30 4395 H 416.105 3.89503 1.29287 0
M  V30 4396 H 415.636 2.88787 2.67144 0
M  V30 4397 H 417.651 3.03566 3.92508 0
M  V30 4398 N 416.824 -0.551391 1.4764 0
M  V30 4399 C 417.787 -1.64007 1.60107 0
M  V30 4400 C 418.787 -1.53601 0.47576 0
M  V30 4401 O 419.977 -1.57655 0.740988 0
M  V30 4402 C 417.109 -3.03569 1.55108 0
M  V30 4403 H 418.302 -1.543 2.57161 0
M  V30 4404 H 415.855 -0.771776 1.35917 0
M  V30 4405 H 416.59 -3.18804 0.594519 0
M  V30 4406 H 416.375 -3.12532 2.36783 0
M  V30 4407 H 417.865 -3.82762 1.66982 0
M  V30 4408 N 418.302 -1.35869 -0.798587 0
M  V30 4409 C 419.25 -1.29491 -1.93222 0
M  V30 4410 C 420.244 -0.18836 -1.6835 0
M  V30 4411 O 421.45 -0.354822 -1.76468 0
M  V30 4412 H 417.825 -0.402901 -0.63496 0
M  V30 4413 H 419.796 -2.25247 -1.9572 0
M  V30 4414 C 418.545 -1.09184 -3.30112 0
M  V30 4415 H 417.868 -1.93574 -3.49813 0
M  V30 4416 H 419.308 -1.08766 -4.09812 0
M  V30 4417 C 417.767 0.203959 -3.36282 0
M  V30 4418 O 418.297 1.19699 -3.83451 0
M  V30 4419 N 416.503 0.245488 -2.89561 0
M  V30 4420 H 416.05 -0.563223 -2.51367 0
M  V30 4421 H 416.008 1.11219 -2.94071 0
M  V30 4422 N 419.78 1.02168 -1.19998 0
M  V30 4423 C 421.029 1.75091 -1.0013 0
M  V30 4424 C 421.342 1.89923 0.467835 0
M  V30 4425 O 422.548 2.59888 0.785515 0
M  V30 4426 C 421.004 3.14892 -1.74273 0
M  V30 4427 C 420.612 3.0809 -3.25245 0
M  V30 4428 C 422.356 3.9206 -1.62755 0
M  V30 4429 C 420.263 4.42867 -3.91948 0
M  V30 4430 H 419.193 0.656394 -0.37103 0
M  V30 4431 H 421.844 1.14284 -1.43567 0
M  V30 4432 H 420.226 3.7621 -1.2362 0
M  V30 4433 H 421.4 2.5611 -3.83072 0
M  V30 4434 H 419.715 2.44416 -3.3712 0
M  V30 4435 H 422.312 4.91764 -2.09934 0
M  V30 4436 H 422.655 4.12199 -0.582894 0
M  V30 4437 H 423.188 3.37359 -2.10793 0
M  V30 4438 H 419.927 4.27931 -4.96543 0
M  V30 4439 H 419.447 4.94874 -3.3891 0
M  V30 4440 H 421.126 5.11728 -3.95909 0
M  V30 4441 N 421.258 1.00505 1.21394 0
M  V30 4442 C 422.188 0.585684 2.26035 0
M  V30 4443 C 423.169 -0.393525 1.65485 0
M  V30 4444 O 424.354 -0.281497 1.92149 0
M  V30 4445 C 421.484 -0.0884283 3.47187 0
M  V30 4446 C 420.438 0.810567 4.20254 0
M  V30 4447 C 419.764 0.00286382 5.347 0
M  V30 4448 C 421.064 2.1132 4.77641 0
M  V30 4449 H 422.758 1.46039 2.61368 0
M  V30 4450 H 420.304 0.703648 1.25638 0
M  V30 4451 H 422.257 -0.393286 4.19561 0
M  V30 4452 H 420.981 -0.997766 3.10986 0
M  V30 4453 H 419.64 1.09925 3.49731 0
M  V30 4454 H 419.288 -0.907765 4.94741 0
M  V30 4455 H 418.988 0.601444 5.84514 0
M  V30 4456 H 420.512 -0.295808 6.09883 0
M  V30 4457 H 421.926 1.87148 5.41893 0
M  V30 4458 H 420.323 2.66164 5.37845 0
M  V30 4459 H 421.393 2.78393 3.9702 0
M  V30 4460 N 422.737 -1.36956 0.779787 0
M  V30 4461 C 423.962 -2.04283 0.358224 0
M  V30 4462 C 424.387 -1.58422 -1.01411 0
M  V30 4463 O 423.745 -0.748179 -1.65142 0
M  V30 4464 C 423.793 -3.58152 0.419479 0
M  V30 4465 O 422.897 -4.08342 -0.577142 0
M  V30 4466 H 422.238 -0.645967 0.153698 0
M  V30 4467 H 424.768 -1.75108 1.05822 0
M  V30 4468 H 424.778 -4.07041 0.279636 0
M  V30 4469 H 423.453 -3.90886 1.42061 0
M  V30 4470 H 422.03 -3.70751 -0.399755 0
M  V30 4471 N 424.215 -0.530993 -1.48385 0
M  V30 4472 C 425.178 0.220497 -2.28137 0
M  V30 4473 C 426.178 0.866851 -1.35434 0
M  V30 4474 O 427.368 0.726746 -1.58316 0
M  V30 4475 C 424.5 1.31921 -3.1434 0
M  V30 4476 H 425.693 -0.479714 -2.96038 0
M  V30 4477 H 423.246 -0.286968 -1.53643 0
M  V30 4478 H 423.981 2.05264 -2.51072 0
M  V30 4479 H 423.766 0.86085 -3.82533 0
M  V30 4480 H 425.256 1.84776 -3.74497 0
M  V30 4481 N 425.693 1.55336 -0.266172 0
M  V30 4482 C 426.603 2.2583 0.635458 0
M  V30 4483 C 427.619 1.28106 1.17749 0
M  V30 4484 O 428.795 1.61024 1.20968 0
M  V30 4485 C 425.86 2.95879 1.80712 0
M  V30 4486 C 424.921 4.09059 1.30265 0
M  V30 4487 C 424.154 4.75759 2.41846 0
M  V30 4488 O 424.377 4.41622 3.61007 0
M  V30 4489 O 423.311 5.63888 2.1051 0
M  V30 4490 H 427.137 3.03631 0.0646693 0
M  V30 4491 H 424.722 1.49361 -0.0339177 0
M  V30 4492 H 426.604 3.39932 2.49047 0
M  V30 4493 H 425.279 2.21002 2.36516 0
M  V30 4494 H 424.186 3.69482 0.586019 0
M  V30 4495 H 425.519 4.85811 0.790458 0
M  V30 4496 N 427.171 -0.0066808 1.57599 0
M  V30 4497 C 428.396 -0.707738 1.94951 0
M  V30 4498 C 428.821 -1.66882 0.867868 0
M  V30 4499 O 428.179 -1.80457 -0.17458 0
M  V30 4500 C 428.227 -1.42162 3.31394 0
M  V30 4501 O 427.331 -2.53578 3.25226 0
M  V30 4502 H 426.672 -0.188752 0.636607 0
M  V30 4503 H 429.202 0.0445193 2.04552 0
M  V30 4504 H 429.212 -1.78655 3.66806 0
M  V30 4505 H 427.887 -0.716903 4.09675 0
M  V30 4506 H 426.464 -2.19463 3.01481 0
M  V30 4507 N 428.649 -1.55105 -0.279332 0
M  V30 4508 C 429.874 -1.7976 -1.03446 0
M  V30 4509 C 430.299 -0.565952 -1.79384 0
M  V30 4510 O 429.657 0.484259 -1.74713 0
M  V30 4511 C 429.705 -3.0179 -1.97371 0
M  V30 4512 O 428.809 -2.76432 -3.06038 0
M  V30 4513 H 428.15 -0.594334 -0.29608 0
M  V30 4514 H 430.68 -2.02235 -0.310165 0
M  V30 4515 H 430.69 -3.30351 -2.39441 0
M  V30 4516 H 429.365 -3.91085 -1.4151 0
M  V30 4517 H 427.942 -2.58949 -2.68328 0
M  V30 4518 N 430.127 0.543554 -1.4793 0
M  V30 4519 C 431.404 1.30458 -1.4574 0
M  V30 4520 C 431.784 2.1048 -0.161692 0
M  V30 4521 O 431.132 2.11831 0.856734 0
M  V30 4522 C 431.342 2.19754 -2.71126 0
M  V30 4523 C 432.69 2.80334 -3.18901 0
M  V30 4524 O 433.714 2.30049 -2.71948 0
M  V30 4525 O 432.573 3.71766 -4.00565 0
M  V30 4526 H 429.667 0.588117 -0.581418 0
M  V30 4527 H 432.213 0.561328 -1.60147 0
M  V30 4528 H 430.985 1.60316 -3.56952 0
M  V30 4529 H 430.608 3.01351 -2.59371 0
M  V30 4530 N 431.605 1.3629 0.791371 0
M  V30 4531 C 432.83 1.33726 1.58531 0
M  V30 4532 C 433.255 -0.0794933 1.87932 0
M  V30 4533 O 432.613 -1.05087 1.47738 0
M  V30 4534 C 432.661 2.16425 2.88431 0
M  V30 4535 O 431.765 1.5554 3.81944 0
M  V30 4536 H 431.106 0.457793 0.480959 0
M  V30 4537 H 433.636 1.79547 0.981031 0
M  V30 4538 H 433.646 2.28933 3.37718 0
M  V30 4539 H 432.321 3.19415 2.66359 0
M  V30 4540 H 430.898 1.51961 3.40532 0
M  V30 4541 N 433.083 -1.0153 1.20538 0
M  V30 4542 C 433.993 -2.13557 0.971113 0
M  V30 4543 C 435.009 -1.73845 -0.0734366 0
M  V30 4544 O 436.185 -2.01075 0.114299 0
M  V30 4545 C 433.25 -3.42661 0.527639 0
M  V30 4546 C 432.311 -3.96608 1.64319 0
M  V30 4547 C 431.544 -5.1955 1.22078 0
M  V30 4548 O 431.767 -5.70329 0.0900198 0
M  V30 4549 O 430.701 -5.66681 2.02871 0
M  V30 4550 H 434.527 -2.3619 1.90913 0
M  V30 4551 H 432.112 -1.11946 0.989362 0
M  V30 4552 H 433.994 -4.20404 0.289621 0
M  V30 4553 H 432.669 -3.21441 -0.381779 0
M  V30 4554 H 431.576 -3.20139 1.93551 0
M  V30 4555 H 432.909 -4.22219 2.52966 0
M  V30 4556 N 434.561 -1.01147 -1.20859 0
M  V30 4557 C 435.809 -0.696486 -1.89719 0
M  V30 4558 C 436.13 0.775788 -1.78904 0
M  V30 4559 O 435.4 1.55759 -1.18811 0
M  V30 4560 H 433.98 -0.254628 -0.702263 0
M  V30 4561 H 436.642 -1.28197 -1.46804 0
M  V30 4562 H 435.738 -0.975357 -2.96468 0
M  V30 4563 N 436.039 1.36541 -0.78704 0
M  V30 4564 C 437.286 1.99304 -0.358341 0
M  V30 4565 C 437.614 1.62467 1.06933 0
M  V30 4566 O 436.869 0.870019 1.75297 0
M  V30 4567 C 437.168 3.54343 -0.466485 0
M  V30 4568 C 436.834 4.10993 -1.85461 0
M  V30 4569 C 435.496 4.26177 -2.23443 0
M  V30 4570 C 437.848 4.41895 -2.76366 0
M  V30 4571 C 435.176 4.69573 -3.51736 0
M  V30 4572 C 437.528 4.86722 -4.04084 0
M  V30 4573 C 436.192 5.00112 -4.42091 0
M  V30 4574 H 435.462 0.729306 -0.131126 0
M  V30 4575 H 438.109 1.63068 -1.00404 0
M  V30 4576 H 436.414 3.90918 0.262719 0
M  V30 4577 H 438.111 4.00833 -0.115854 0
M  V30 4578 H 434.701 3.99612 -1.54946 0
M  V30 4579 H 438.885 4.29735 -2.48277 0
M  V30 4580 H 434.141 4.78127 -3.81057 0
M  V30 4581 H 438.315 5.09598 -4.7464 0
M  V30 4582 H 435.942 5.33498 -5.41557 0
M  V30 4583 N 437.518 0.538854 1.48102 0
M  V30 4584 C 438.764 0.00801365 2.02798 0
M  V30 4585 C 439.097 -1.3309 1.41424 0
M  V30 4586 O 438.372 -1.86169 0.563158 0
M  V30 4587 C 438.655 -0.104589 3.59948 0
M  V30 4588 C 438.508 1.26012 4.31788 0
M  V30 4589 C 439.827 -0.827055 4.32259 0
M  V30 4590 H 436.946 0.00438624 0.736987 0
M  V30 4591 H 439.588 0.6976 1.7673 0
M  V30 4592 H 437.738 -0.691893 3.82289 0
M  V30 4593 H 439.41 1.88922 4.2084 0
M  V30 4594 H 437.653 1.83968 3.92859 0
M  V30 4595 H 438.324 1.13424 5.40221 0
M  V30 4596 H 440.8 -0.328578 4.14801 0
M  V30 4597 H 439.676 -0.87476 5.41885 0
M  V30 4598 H 439.937 -1.87927 4.0017 0
M  V30 4599 N 438.996 -1.55193 0.274407 0
M  V30 4600 C 440.245 -1.98758 -0.343213 0
M  V30 4601 C 440.558 -1.16624 -1.5703 0
M  V30 4602 O 441.764 -1.5033 -2.26082 0
M  V30 4603 C 440.22 -3.53759 -0.661996 0
M  V30 4604 C 439.828 -4.4467 0.54524 0
M  V30 4605 C 441.572 -4.05916 -1.24228 0
M  V30 4606 C 439.479 -5.91058 0.201084 0
M  V30 4607 H 438.409 -0.742353 -0.132014 0
M  V30 4608 H 441.06 -1.79545 0.378948 0
M  V30 4609 H 439.442 -3.68772 -1.44304 0
M  V30 4610 H 440.616 -4.41426 1.32212 0
M  V30 4611 H 438.931 -4.03143 1.04232 0
M  V30 4612 H 441.528 -5.12831 -1.51357 0
M  V30 4613 H 441.871 -3.54908 -2.17592 0
M  V30 4614 H 442.404 -3.9434 -0.523542 0
M  V30 4615 H 439.143 -6.46161 1.10258 0
M  V30 4616 H 438.663 -5.97373 -0.539045 0
M  V30 4617 H 440.342 -6.46669 -0.206954 0
M  V30 4618 N 440.474 -0.00167713 -1.576 0
M  V30 4619 C 441.424 0.997744 -2.0501 0
M  V30 4620 C 442.408 1.30214 -0.94515 0
M  V30 4621 O 443.6 1.29284 -1.20891 0
M  V30 4622 C 440.729 2.2892 -2.55833 0
M  V30 4623 C 439.815 2.01437 -3.73208 0
M  V30 4624 N 440.206 1.44119 -4.84833 0
M  V30 4625 C 438.504 2.31571 -3.8117 0
M  V30 4626 C 439.205 1.33145 -5.66257 0
M  V30 4627 N 438.181 1.81763 -5.12312 0
M  V30 4628 H 441.983 0.549098 -2.88725 0
M  V30 4629 H 439.497 0.20398 -1.61114 0
M  V30 4630 H 441.494 3.01361 -2.88075 0
M  V30 4631 H 440.154 2.74436 -1.73537 0
M  V30 4632 H 441.165 1.11978 -5.0565 0
M  V30 4633 H 437.842 2.7995 -3.09732 0
M  V30 4634 H 439.232 0.890567 -6.65972 0
M  V30 4635 N 441.952 1.55251 0.271103 0
M  V30 4636 C 443.229 1.66664 1.02384 0
M  V30 4637 C 443.609 0.534363 2.04225 0
M  V30 4638 O 442.957 -0.465337 2.23712 0
M  V30 4639 C 443.167 3.05961 1.67895 0
M  V30 4640 C 444.515 3.63772 2.18986 0
M  V30 4641 O 445.539 3.08606 1.77878 0
M  V30 4642 O 444.398 4.60429 2.94393 0
M  V30 4643 H 441.492 0.676957 0.475035 0
M  V30 4644 H 444.038 1.67589 0.26681 0
M  V30 4645 H 442.81 3.79815 0.941071 0
M  V30 4646 H 442.433 3.08943 2.5028 0
M  V30 4647 N 443.43 -0.535701 1.48216 0
M  V30 4648 C 444.678 -1.28928 1.55634 0
M  V30 4649 C 444.999 -1.93645 0.229514 0
M  V30 4650 O 444.269 -1.81038 -0.74846 0
M  V30 4651 H 442.849 -0.47884 0.573342 0
M  V30 4652 H 445.511 -0.623853 1.84646 0
M  V30 4653 H 444.607 -2.07157 2.33436 0
M  V30 4654 N 444.908 -1.36708 -0.784132 0
M  V30 4655 C 445.818 -1.3363 -1.92822 0
M  V30 4656 C 446.834 -0.237686 -1.72369 0
M  V30 4657 O 448.01 -0.470962 -1.95816 0
M  V30 4658 C 445.075 -1.13011 -3.27764 0
M  V30 4659 C 444.136 -2.32397 -3.60957 0
M  V30 4660 C 443.369 -2.12752 -4.89461 0
M  V30 4661 O 443.592 -1.10541 -5.59586 0
M  V30 4662 O 442.526 -3.00653 -5.21432 0
M  V30 4663 H 446.352 -2.29964 -1.98369 0
M  V30 4664 H 443.937 -1.1731 -0.925136 0
M  V30 4665 H 445.819 -1.03451 -4.08504 0
M  V30 4666 H 444.494 -0.19743 -3.23097 0
M  V30 4667 H 443.401 -2.47527 -2.80502 0
M  V30 4668 H 444.734 -3.2419 -3.70354 0
M  V30 4669 N 446.386 1.0089 -1.21074 0
M  V30 4670 C 447.626 1.76142 -1.03699 0
M  V30 4671 C 447.99 1.87292 0.422587 0
M  V30 4672 O 449.191 2.59068 0.716752 0
M  V30 4673 C 447.462 3.13805 -1.7106 0
M  V30 4674 S 449.021 4.04996 -1.68889 0
M  V30 4675 H 445.839 0.606113 -0.371683 0
M  V30 4676 H 448.441 1.20744 -1.53756 0
M  V30 4677 H 447.145 3.0332 -2.76451 0
M  V30 4678 H 446.676 3.74276 -1.21166 0
M  V30 4679 H 448.691 4.90842 -0.727211 0
M  V30 4680 N 447.864 1.01787 1.20321 0
M  V30 4681 C 448.797 0.533882 2.21867 0
M  V30 4682 C 449.775 -0.419361 1.57099 0
M  V30 4683 O 450.959 -0.339062 1.85426 0
M  V30 4684 C 448.086 -0.222899 3.37966 0
M  V30 4685 C 447.132 0.680091 4.21043 0
M  V30 4686 S 447.965 2.14997 4.90445 0
M  V30 4687 C 449.121 1.40339 6.09964 0
M  V30 4688 H 449.354 1.39429 2.62577 0
M  V30 4689 H 446.887 0.826867 1.30393 0
M  V30 4690 H 448.845 -0.653425 4.05266 0
M  V30 4691 H 447.506 -1.0589 2.95713 0
M  V30 4692 H 446.699 0.0964704 5.03908 0
M  V30 4693 H 446.301 1.04845 3.59004 0
M  V30 4694 H 448.593 0.68407 6.74038 0
M  V30 4695 H 449.536 2.20823 6.72787 0
M  V30 4696 H 449.944 0.905716 5.57187 0
M  V30 4697 N 449.342 -1.36122 0.79427 0
M  V30 4698 C 450.274 -2.28683 0.153903 0
M  V30 4699 C 451.287 -1.49707 -0.639669 0
M  V30 4700 O 452.476 -1.7209 -0.474054 0
M  V30 4701 C 449.576 -3.29202 -0.804921 0
M  V30 4702 C 448.749 -4.37358 -0.060366 0
M  V30 4703 C 447.808 -5.17811 -0.935849 0
M  V30 4704 O 446.834 -5.67853 -0.391309 0
M  V30 4705 N 448.036 -5.34721 -2.25951 0
M  V30 4706 H 450.801 -2.84278 0.949008 0
M  V30 4707 H 448.362 -1.4834 0.648611 0
M  V30 4708 H 450.354 -3.79914 -1.39455 0
M  V30 4709 H 448.924 -2.74212 -1.50088 0
M  V30 4710 H 448.144 -3.87746 0.710382 0
M  V30 4711 H 449.432 -5.06777 0.45324 0
M  V30 4712 H 448.83 -4.95687 -2.72601 0
M  V30 4713 H 447.387 -5.88657 -2.79867 0
M  V30 4714 N 450.82 -0.546701 -1.47814 0
M  V30 4715 C 451.73 0.21026 -2.33656 0
M  V30 4716 C 452.746 0.922413 -1.47538 0
M  V30 4717 O 453.922 0.893652 -1.80488 0
M  V30 4718 C 450.987 1.23348 -3.24016 0
M  V30 4719 C 450.048 0.529883 -4.26017 0
M  V30 4720 C 449.281 1.50435 -5.12059 0
M  V30 4721 O 449.504 2.73837 -5.00369 0
M  V30 4722 O 448.438 1.03459 -5.92942 0
M  V30 4723 H 452.264 -0.493605 -2.99662 0
M  V30 4724 H 449.849 -0.307427 -1.46203 0
M  V30 4725 H 451.731 1.82438 -3.79861 0
M  V30 4726 H 450.406 1.91945 -2.60651 0
M  V30 4727 H 449.313 -0.101948 -3.73961 0
M  V30 4728 H 450.646 -0.11445 -4.92067 0
M  V30 4729 N 452.299 1.55045 -0.282633 0
M  V30 4730 C 453.539 2.01668 0.333088 0
M  V30 4731 C 453.903 1.1667 1.52486 0
M  V30 4732 O 455.104 1.52907 2.21072 0
M  V30 4733 C 453.375 3.50509 0.698442 0
M  V30 4734 S 454.934 4.19112 1.29963 0
M  V30 4735 H 451.752 0.703468 0.103219 0
M  V30 4736 H 454.354 1.91233 -0.406222 0
M  V30 4737 H 453.058 4.10015 -0.177693 0
M  V30 4738 H 452.589 3.64943 1.46902 0
M  V30 4739 H 454.604 4.23362 2.58803 0
M  V30 4740 N 453.777 0.010035 1.57597 0
M  V30 4741 C 455.188 -0.531426 1.78977 0
M  V30 4742 C 455.539 -1.73375 0.918454 0
M  V30 4743 O 454.664 -2.16047 0.123635 0
M  V30 4744 C 455.259 -0.97086 3.24592 0
M  V30 4745 C 453.818 -1.45756 3.47033 0
M  V30 4746 C 452.965 -0.413384 2.74201 0
M  V30 4747 H 455.916 0.236166 1.56933 0
M  V30 4748 H 455.937 -1.83633 3.33255 0
M  V30 4749 H 455.449 -0.0955893 3.87982 0
M  V30 4750 H 453.55 -2.35339 2.88871 0
M  V30 4751 H 453.663 -1.4781 4.55729 0
M  V30 4752 H 452.027 -0.877266 2.39115 0
M  V30 4753 H 452.81 0.453092 3.40297 0
M  V30 4754 N 455.255 -1.55392 -0.262866 0
M  V30 4755 C 456.48 -1.80847 -1.01533 0
M  V30 4756 C 456.905 -0.584946 -1.78774 0
M  V30 4757 O 456.263 0.465701 -1.75217 0
M  V30 4758 C 456.311 -3.03866 -1.94159 0
M  V30 4759 O 455.415 -2.79662 -3.03089 0
M  V30 4760 H 454.756 -0.597441 -0.289759 0
M  V30 4761 H 457.286 -2.02553 -0.288698 0
M  V30 4762 H 457.296 -3.32872 -2.35924 0
M  V30 4763 H 455.971 -3.92564 -1.37354 0
M  V30 4764 H 454.548 -2.61781 -2.65566 0
M  V30 4765 N 456.733 0.527833 -1.48498 0
M  V30 4766 C 457.981 1.28101 -1.56316 0
M  V30 4767 C 458.302 1.9352 -0.239781 0
M  V30 4768 O 457.572 1.81433 0.738849 0
M  V30 4769 H 456.152 0.475793 -0.575873 0
M  V30 4770 H 458.814 0.614052 -1.84974 0
M  V30 4771 H 457.91 2.05916 -2.34532 0
M  V30 4772 N 458.211 1.37122 0.776871 0
M  V30 4773 C 459.458 1.32047 1.53524 0
M  V30 4774 C 459.786 -0.0965631 1.9426 0
M  V30 4775 O 459.041 -1.06866 1.63945 0
M  V30 4776 C 459.34 2.20068 2.81611 0
M  V30 4777 C 459.006 3.68423 2.59953 0
M  V30 4778 C 457.668 4.08854 2.53755 0
M  V30 4779 C 460.02 4.62431 2.40431 0
M  V30 4780 C 457.348 5.41417 2.26018 0
M  V30 4781 C 459.7 5.95225 2.14219 0
M  V30 4782 C 458.364 6.34767 2.06462 0
M  V30 4783 H 457.634 0.483196 0.561785 0
M  V30 4784 H 460.281 1.69284 0.895268 0
M  V30 4785 H 458.586 1.75809 3.50141 0
M  V30 4786 H 460.283 2.13458 3.39465 0
M  V30 4787 H 456.873 3.36354 2.65638 0
M  V30 4788 H 461.057 4.32057 2.44213 0
M  V30 4789 H 456.313 5.71022 2.18504 0
M  V30 4790 H 460.487 6.67626 1.98112 0
M  V30 4791 H 458.114 7.37413 1.84733 0
M  V30 4792 N 459.689 -1.00246 1.21608 0
M  V30 4793 C 460.938 -1.73476 1.02902 0
M  V30 4794 C 461.251 -1.90643 -0.437561 0
M  V30 4795 O 462.457 -2.61105 -0.74407 0
M  V30 4796 C 460.913 -3.12079 1.79261 0
M  V30 4797 C 460.521 -3.02877 3.30106 0
M  V30 4798 C 462.265 -3.89421 1.68972 0
M  V30 4799 C 460.172 -4.36575 3.98944 0
M  V30 4800 H 459.102 -0.650408 0.381425 0
M  V30 4801 H 461.753 -1.11985 1.45367 0
M  V30 4802 H 460.135 -3.74196 1.2959 0
M  V30 4803 H 461.309 -2.49983 3.87098 0
M  V30 4804 H 459.624 -2.39022 3.40965 0
M  V30 4805 H 462.221 -4.88362 2.17731 0
M  V30 4806 H 462.564 -4.1122 0.648397 0
M  V30 4807 H 463.097 -3.33963 2.16133 0
M  V30 4808 H 459.836 -4.19978 5.03288 0
M  V30 4809 H 459.356 -4.8942 3.4674 0
M  V30 4810 H 461.035 -5.05364 4.04 0
M  V30 4811 N 461.167 -1.02423 -1.1978 0
M  V30 4812 C 462.583 -0.740459 -1.41384 0
M  V30 4813 C 462.783 0.676827 -1.89793 0
M  V30 4814 O 461.839 1.4435 -2.0717 0
M  V30 4815 C 463.152 -1.77264 -2.42895 0
M  V30 4816 C 464.7 -1.79165 -2.56649 0
M  V30 4817 C 465.175 -2.8133 -3.6141 0
M  V30 4818 N 466.666 -2.80118 -3.68901 0
M  V30 4819 C 467.401 -3.55824 -4.49641 0
M  V30 4820 N 466.897 -4.41231 -5.34123 0
M  V30 4821 N 468.69 -3.44387 -4.44246 0
M  V30 4822 H 460.841 -1.9391 -0.866764 0
M  V30 4823 H 463.104 -0.838074 -0.443098 0
M  V30 4824 H 462.81 -2.7884 -2.14339 0
M  V30 4825 H 462.684 -1.59108 -3.42001 0
M  V30 4826 H 465.071 -0.782702 -2.84531 0
M  V30 4827 H 465.152 -2.01396 -1.57713 0
M  V30 4828 H 464.796 -3.82394 -3.34271 0
M  V30 4829 H 464.726 -2.56359 -4.59986 0
M  V30 4830 H 467.217 -2.1817 -3.08562 0
M  V30 4831 H 467.53 -4.95747 -5.92836 0
M  V30 4832 H 465.875 -4.45306 -5.33599 0
M  V30 4833 H 469.066 -2.7708 -3.77285 0
M  V30 4834 H 469.239 -4.0364 -5.06931 0
M  V30 4835 N 462.645 1.35699 -0.801477 0
M  V30 4836 C 463.593 2.3177 -0.196317 0
M  V30 4837 C 464.587 1.56388 0.651081 0
M  V30 4838 O 465.793 1.71557 0.544815 0
M  V30 4839 H 462.168 0.750669 -0.0447189 0
M  V30 4840 H 464.139 2.8036 -1.02181 0
M  V30 4841 C 462.888 3.41671 0.644702 0
M  V30 4842 H 462.211 3.998 0.0019921 0
M  V30 4843 H 463.651 4.11184 1.0346 0
M  V30 4844 C 462.11 2.84271 1.80808 0
M  V30 4845 O 462.64 2.77408 2.9053 0
M  V30 4846 N 460.846 2.41391 1.61799 0
M  V30 4847 H 460.393 2.47173 0.725493 0
M  V30 4848 H 460.351 2.03334 2.39797 0
M  V30 4849 N 464.123 0.554532 1.47522 0
M  V30 4850 C 465.371 0.0294208 2.02079 0
M  V30 4851 C 465.692 -1.32411 1.43151 0
M  V30 4852 O 464.962 -1.863 0.605728 0
M  V30 4853 H 463.542 0.00788672 0.746958 0
M  V30 4854 H 466.204 0.723934 1.80956 0
M  V30 4855 H 465.3 -0.0606745 3.12041 0
M  V30 4856 N 465.601 -1.54893 0.290851 0
M  V30 4857 C 466.826 -2.04804 -0.32712 0
M  V30 4858 C 467.251 -1.16721 -1.47506 0
M  V30 4859 O 466.609 -0.169107 -1.8051 0
M  V30 4860 C 466.657 -3.52268 -0.770689 0
M  V30 4861 O 465.761 -3.67236 -1.87647 0
M  V30 4862 H 465.102 -0.660789 -0.0652227 0
M  V30 4863 H 467.632 -2.00036 0.429739 0
M  V30 4864 H 467.642 -3.9393 -1.06223 0
M  V30 4865 H 466.317 -4.15843 0.069096 0
M  V30 4866 H 464.894 -3.37479 -1.58626 0
M  V30 4867 N 467.08 -0.0183926 -1.57589 0
M  V30 4868 C 468.012 0.995557 -2.06449 0
M  V30 4869 C 469.025 1.29556 -0.985849 0
M  V30 4870 O 470.214 1.2621 -1.26227 0
M  V30 4871 C 467.314 2.32572 -2.46502 0
M  V30 4872 C 466.487 2.21245 -3.77319 0
M  V30 4873 C 465.546 3.37104 -4.04039 0
M  V30 4874 O 464.572 3.14468 -4.74445 0
M  V30 4875 N 465.774 4.60553 -3.53372 0
M  V30 4876 H 468.539 0.578746 -2.94059 0
M  V30 4877 H 466.1 0.168603 -1.6102 0
M  V30 4878 H 468.092 3.08887 -2.61478 0
M  V30 4879 H 466.662 2.65931 -1.64315 0
M  V30 4880 H 465.882 1.29723 -3.72244 0
M  V30 4881 H 467.17 2.10868 -4.63047 0
M  V30 4882 H 466.568 4.81839 -2.96391 0
M  V30 4883 H 465.125 5.34072 -3.73644 0
M  V30 4884 N 468.558 1.5553 0.254621 0
M  V30 4885 C 469.783 1.81383 1.00573 0
M  V30 4886 C 470.208 0.594419 1.78461 0
M  V30 4887 O 469.566 -0.456403 1.75461 0
M  V30 4888 C 469.614 3.04892 1.92545 0
M  V30 4889 O 468.718 2.81266 3.01601 0
M  V30 4890 H 468.059 0.598969 0.286587 0
M  V30 4891 H 470.589 2.02703 0.277952 0
M  V30 4892 H 470.599 3.34119 2.34155 0
M  V30 4893 H 469.274 3.93287 1.3527 0
M  V30 4894 H 467.851 2.63185 2.64174 0
M  V30 4895 N 470.036 -0.519951 1.48776 0
M  V30 4896 C 470.969 -1.64053 1.58625 0
M  V30 4897 C 471.947 -1.5664 0.43618 0
M  V30 4898 O 473.131 -1.76969 0.649159 0
M  V30 4899 C 470.258 -3.02497 1.52359 0
M  V30 4900 C 469.304 -3.28235 2.72331 0
M  V30 4901 S 470.137 -3.13414 4.34203 0
M  V30 4902 C 471.293 -4.54287 4.30551 0
M  V30 4903 H 471.526 -1.5545 2.53422 0
M  V30 4904 H 469.059 -0.703681 1.37433 0
M  V30 4905 H 471.017 -3.82336 1.4943 0
M  V30 4906 H 469.678 -3.08531 0.588824 0
M  V30 4907 H 468.871 -4.29256 2.64113 0
M  V30 4908 H 468.473 -2.56085 2.72574 0
M  V30 4909 H 470.765 -5.46006 4.01103 0
M  V30 4910 H 471.708 -4.67558 5.31785 0
M  V30 4911 H 472.116 -4.34079 3.60881 0
M  V30 4912 N 471.514 -1.37532 -0.769588 0
M  V30 4913 C 472.744 -1.35861 -1.55645 0
M  V30 4914 C 473.152 0.0574398 -1.89113 0
M  V30 4915 O 472.495 1.03021 -1.52093 0
M  V30 4916 C 472.557 -2.13431 -2.89288 0
M  V30 4917 C 472.221 -3.62378 -2.78444 0
M  V30 4918 C 473.218 -4.56215 -2.49326 0
M  V30 4919 C 470.903 -4.05529 -2.96398 0
M  V30 4920 C 472.897 -5.91181 -2.38294 0
M  V30 4921 C 470.584 -5.40579 -2.84987 0
M  V30 4922 C 471.582 -6.33218 -2.55975 0
M  V30 4923 O 471.27 -7.65787 -2.44594 0
M  V30 4924 H 471.002 -0.467001 -0.48876 0
M  V30 4925 H 473.556 -1.81505 -0.961515 0
M  V30 4926 H 471.786 -1.62481 -3.50909 0
M  V30 4927 H 473.475 -2.04368 -3.50697 0
M  V30 4928 H 474.241 -4.24187 -2.35139 0
M  V30 4929 H 470.12 -3.33781 -3.1798 0
M  V30 4930 H 473.664 -6.63457 -2.15571 0
M  V30 4931 H 469.561 -5.72209 -2.98743 0
M  V30 4932 H 470.329 -7.76132 -2.59927 0
M  V30 4933 N 472.992 0.995999 -1.22138 0
M  V30 4934 C 474.232 1.75032 -1.05561 0
M  V30 4935 C 474.596 1.87729 0.402698 0
M  V30 4936 O 475.797 2.59813 0.689234 0
M  V30 4937 C 474.068 3.11973 -1.74379 0
M  V30 4938 S 475.627 4.03182 -1.73175 0
M  V30 4939 H 472.445 0.602137 -0.37809 0
M  V30 4940 H 475.047 1.19107 -1.55028 0
M  V30 4941 H 473.751 3.00371 -2.79652 0
M  V30 4942 H 473.282 3.7297 -1.25128 0
M  V30 4943 H 475.297 4.90043 -0.77923 0
M  V30 4944 N 474.47 1.03057 1.19235 0
M  V30 4945 C 475.719 0.72326 1.88287 0
M  V30 4946 C 476.032 -0.751333 1.80594 0
M  V30 4947 O 477.238 -1.17176 2.44912 0
M  V30 4948 C 475.694 1.24338 3.3774 0
M  V30 4949 C 475.302 2.74587 3.53986 0
M  V30 4950 C 477.046 1.01213 4.12257 0
M  V30 4951 C 474.953 3.20009 4.97341 0
M  V30 4952 H 473.883 0.266848 0.705201 0
M  V30 4953 H 476.534 1.24509 1.34795 0
M  V30 4954 H 474.916 0.649457 3.90638 0
M  V30 4955 H 476.09 3.39649 3.11408 0
M  V30 4956 H 474.405 2.9601 2.9286 0
M  V30 4957 H 477.002 1.32675 5.17978 0
M  V30 4958 H 477.345 -0.051001 4.16269 0
M  V30 4959 H 477.878 1.57014 3.65501 0
M  V30 4960 H 474.617 4.25659 4.98493 0
M  V30 4961 H 474.137 2.59676 5.40674 0
M  V30 4962 H 475.816 3.13447 5.66003 0
M  V30 4963 N 475.948 -1.35272 0.808662 0
M  V30 4964 C 477.359 -1.81179 0.450688 0
M  V30 4965 C 477.71 -1.67143 -1.02751 0
M  V30 4966 O 476.835 -1.20325 -1.79864 0
M  V30 4967 C 477.43 -3.28943 0.811275 0
M  V30 4968 C 475.989 -3.72985 0.505871 0
M  V30 4969 C 475.136 -2.57229 1.03578 0
M  V30 4970 H 478.087 -1.2322 1.00012 0
M  V30 4971 H 478.108 -3.80342 0.109588 0
M  V30 4972 H 477.62 -3.39127 1.88718 0
M  V30 4973 H 475.721 -3.68349 -0.561209 0
M  V30 4974 H 475.834 -4.67677 1.03995 0
M  V30 4975 H 474.198 -2.50548 0.458005 0
M  V30 4976 H 474.981 -2.7019 2.11784 0
M  V30 4977 N 477.426 -0.562348 -1.47226 0
M  V30 4978 C 478.666 -0.0426374 -2.04356 0
M  V30 4979 C 479.03 1.28487 -1.42671 0
M  V30 4980 O 480.231 1.89259 -1.90878 0
M  V30 4981 C 478.502 0.0433826 -3.57374 0
M  V30 4982 S 480.061 0.508472 -4.35844 0
M  V30 4983 H 476.879 -0.0276234 -0.710463 0
M  V30 4984 H 479.481 -0.750245 -1.80531 0
M  V30 4985 H 478.185 -0.927072 -3.99792 0
M  V30 4986 H 477.716 0.774387 -3.85703 0
M  V30 4987 H 479.731 1.76719 -4.63665 0
M  V30 4988 N 478.904 1.54736 -0.299062 0
M  V30 4989 C 479.814 2.27127 0.587413 0
M  V30 4990 C 480.83 1.30575 1.15005 0
M  V30 4991 O 482.006 1.63554 1.17525 0
M  V30 4992 C 479.071 2.99645 1.74395 0
M  V30 4993 C 478.132 4.11731 1.21559 0
M  V30 4994 C 477.365 4.80781 2.317 0
M  V30 4995 O 477.588 4.4918 3.51558 0
M  V30 4996 O 476.522 5.68226 1.98501 0
M  V30 4997 H 480.348 3.037 0.000250109 0
M  V30 4998 H 477.933 1.49256 -0.0655919 0
M  V30 4999 H 479.815 3.45138 2.4178 0
M  V30 5000 H 478.49 2.25969 2.31775 0
M  V30 5001 H 477.397 3.70641 0.507514 0
M  V30 5002 H 478.73 4.87379 0.687233 0
M  V30 5003 N 480.382 0.0267497 1.57577 0
M  V30 5004 C 481.63 -0.651116 1.91324 0
M  V30 5005 C 481.951 -1.72804 0.90353 0
M  V30 5006 O 481.221 -1.95822 -0.0552946 0
M  V30 5007 H 479.801 -0.243491 0.706202 0
M  V30 5008 H 482.463 0.0739935 1.94759 0
M  V30 5009 H 481.559 -1.10536 2.9187 0
M  V30 5010 N 481.861 -1.55662 -0.24637 0
M  V30 5011 C 483.272 -1.67953 -0.81539 0
M  V30 5012 C 483.623 -0.624302 -1.86002 0
M  V30 5013 O 482.748 0.229328 -2.15181 0
M  V30 5014 C 483.343 -3.04484 -1.48576 0
M  V30 5015 C 481.902 -3.18713 -2.00248 0
M  V30 5016 C 481.049 -2.6383 -0.853766 0
M  V30 5017 H 484 -1.58685 -0.0221692 0
M  V30 5018 H 484.021 -2.98959 -2.3538 0
M  V30 5019 H 483.533 -3.81264 -0.725222 0
M  V30 5020 H 481.634 -2.46757 -2.79181 0
M  V30 5021 H 481.747 -4.25628 -2.1995 0
M  V30 5022 H 480.111 -2.21667 -1.25442 0
M  V30 5023 H 480.894 -3.43135 -0.106302 0
M  V30 5024 N 483.339 0.512053 -1.4905 0
M  V30 5025 C 484.579 1.27715 -1.59588 0
M  V30 5026 C 484.943 1.90071 -0.271502 0
M  V30 5027 O 486.144 2.67616 -0.251987 0
M  V30 5028 C 484.415 2.32399 -2.71524 0
M  V30 5029 S 485.974 3.18396 -3.01943 0
M  V30 5030 H 482.792 0.43419 -0.563027 0
M  V30 5031 H 485.394 0.581315 -1.86657 0
M  V30 5032 H 484.098 1.85101 -3.66287 0
M  V30 5033 H 483.629 3.06667 -2.46412 0
M  V30 5034 H 485.644 4.32842 -2.42616 0
M  V30 5035 N 484.817 1.37938 0.762283 0
M  V30 5036 C 486.228 1.30094 1.33912 0
M  V30 5037 C 486.579 -0.0472026 1.96143 0
M  V30 5038 O 485.704 -0.94917 1.94473 0
M  V30 5039 C 486.299 2.35592 2.43478 0
M  V30 5040 C 484.858 2.31353 2.96905 0
M  V30 5041 C 484.005 2.18919 1.70205 0
M  V30 5042 H 486.956 1.48423 0.561816 0
M  V30 5043 H 486.977 2.00806 3.23199 0
M  V30 5044 H 486.489 3.33701 1.98155 0
M  V30 5045 H 484.59 1.36799 3.46579 0
M  V30 5046 H 484.703 3.25147 3.51875 0
M  V30 5047 H 483.067 1.65624 1.93496 0
M  V30 5048 H 483.85 3.18956 1.26973 0
M  V30 5049 N 486.295 -0.989507 1.22664 0
M  V30 5050 C 487.242 -2.08024 0.999733 0
M  V30 5051 C 488.212 -1.65909 -0.0797047 0
M  V30 5052 O 489.397 -1.90669 0.0705715 0
M  V30 5053 C 486.537 -3.40067 0.587234 0
M  V30 5054 C 485.65 -3.95505 1.73781 0
M  V30 5055 C 484.785 -5.15722 1.27297 0
M  V30 5056 C 483.824 -5.63305 2.39488 0
M  V30 5057 N 482.961 -6.74758 1.94026 0
M  V30 5058 H 487.801 -2.26768 1.9334 0
M  V30 5059 H 485.338 -1.11171 0.963297 0
M  V30 5060 H 487.296 -4.15899 0.329227 0
M  V30 5061 H 485.926 -3.21314 -0.309426 0
M  V30 5062 H 484.978 -3.16513 2.11006 0
M  V30 5063 H 486.29 -4.26797 2.58158 0
M  V30 5064 H 485.444 -5.98854 0.972546 0
M  V30 5065 H 484.183 -4.86061 0.399445 0
M  V30 5066 H 483.188 -4.78759 2.70315 0
M  V30 5067 H 484.413 -5.94988 3.27362 0
M  V30 5068 H 482.359 -6.46874 1.09041 0
M  V30 5069 H 482.276 -7.05386 2.71968 0
M  V30 5070 H 483.544 -7.61387 1.67062 0
M  V30 5071 N 487.773 -1.03688 -1.18687 0
M  V30 5072 C 489.019 -0.739123 -1.88851 0
M  V30 5073 C 489.352 0.731042 -1.79915 0
M  V30 5074 O 488.627 1.53313 -1.19688 0
M  V30 5075 C 488.91 -1.20106 -3.3948 0
M  V30 5076 C 488.763 -2.73304 -3.57246 0
M  V30 5077 C 490.082 -0.788134 -4.32986 0
M  V30 5078 H 487.201 -0.269978 -0.68577 0
M  V30 5079 H 489.843 -1.28822 -1.3966 0
M  V30 5080 H 487.993 -0.733915 -3.81505 0
M  V30 5081 H 489.665 -3.28027 -3.24339 0
M  V30 5082 H 487.908 -3.13313 -3.00029 0
M  V30 5083 H 488.579 -3.00684 -4.62918 0
M  V30 5084 H 491.055 -1.19005 -3.98719 0
M  V30 5085 H 489.931 -1.13915 -5.36949 0
M  V30 5086 H 490.192 0.308988 -4.41019 0
M  V30 5087 N 489.251 1.34841 -0.815825 0
M  V30 5088 C 490.491 2.00321 -0.406297 0
M  V30 5089 C 490.855 1.63293 1.00992 0
M  V30 5090 O 492.056 2.21563 1.52195 0
M  V30 5091 C 490.327 3.52421 -0.594469 0
M  V30 5092 S 491.886 4.37926 -0.276735 0
M  V30 5093 H 488.704 0.694155 -0.153848 0
M  V30 5094 H 491.306 1.64263 -1.06009 0
M  V30 5095 H 490.01 3.76858 -1.625 0
M  V30 5096 H 489.541 3.9333 0.0743157 0
M  V30 5097 H 491.556 4.87743 0.912215 0
M  V30 5098 N 490.729 0.570148 1.46925 0
M  V30 5099 C 491.639 -0.173061 2.33961 0
M  V30 5100 C 492.655 -0.898825 1.48987 0
M  V30 5101 O 493.831 -0.864825 1.81887 0
M  V30 5102 C 490.896 -1.18177 3.25937 0
M  V30 5103 C 489.957 -0.462041 4.26806 0
M  V30 5104 C 489.19 -1.4227 5.14388 0
M  V30 5105 O 489.413 -2.65842 5.04662 0
M  V30 5106 O 488.347 -0.940127 5.94513 0
M  V30 5107 H 492.173 0.541216 2.98839 0
M  V30 5108 H 489.758 0.330647 1.45695 0
M  V30 5109 H 491.64 -1.76372 3.82715 0
M  V30 5110 H 490.315 -1.87774 2.63671 0
M  V30 5111 H 489.222 0.161429 3.73752 0
M  V30 5112 H 490.555 0.192719 4.91823 0
M  V30 5113 N 492.207 -1.54576 0.307264 0
M  V30 5114 C 493.117 -2.27435 -0.57536 0
M  V30 5115 C 494.133 -1.31183 -1.14311 0
M  V30 5116 O 495.309 -1.64175 -1.16656 0
M  V30 5117 C 492.374 -3.00566 -1.72803 0
M  V30 5118 C 491.435 -4.12369 -1.19373 0
M  V30 5119 C 490.668 -4.82003 -2.29147 0
M  V30 5120 O 490.891 -4.51038 -3.49171 0
M  V30 5121 O 489.825 -5.69271 -1.95485 0
M  V30 5122 H 493.651 -3.03696 0.0158558 0
M  V30 5123 H 491.236 -1.49219 0.0735064 0
M  V30 5124 H 493.118 -3.46416 -2.39946 0
M  V30 5125 H 491.793 -2.27195 -2.30574 0
M  V30 5126 H 490.7 -3.70905 -0.487851 0
M  V30 5127 H 492.033 -4.87736 -0.661376 0
M  V30 5128 N 493.685 -0.035106 -1.57561 0
M  V30 5129 C 494.595 0.960295 -2.14046 0
M  V30 5130 C 495.611 1.3529 -1.0942 0
M  V30 5131 O 496.787 1.43309 -1.41508 0
M  V30 5132 C 493.852 2.22214 -2.66124 0
M  V30 5133 C 492.913 1.8894 -3.85487 0
M  V30 5134 C 492.146 3.09109 -4.35072 0
M  V30 5135 O 492.369 4.21963 -3.83802 0
M  V30 5136 O 491.303 2.91058 -5.26848 0
M  V30 5137 H 495.129 0.509983 -2.99387 0
M  V30 5138 H 492.714 0.185853 -1.48239 0
M  V30 5139 H 494.596 2.96279 -2.99661 0
M  V30 5140 H 493.271 2.66414 -1.83862 0
M  V30 5141 H 492.178 1.12241 -3.56865 0
M  V30 5142 H 493.511 1.49551 -4.6893 0
M  V30 5143 N 495.163 1.55791 0.238111 0
M  V30 5144 C 496.11 1.9105 1.29493 0
M  V30 5145 C 497.08 0.765733 1.47397 0
M  V30 5146 O 498.265 1.02017 1.61236 0
M  V30 5147 C 495.405 2.21826 2.64362 0
M  V30 5148 C 494.518 3.49153 2.54394 0
M  V30 5149 C 493.653 3.69455 3.81676 0
M  V30 5150 C 492.692 4.90353 3.66361 0
M  V30 5151 N 491.829 5.07131 4.85554 0
M  V30 5152 H 496.669 2.81172 0.987233 0
M  V30 5153 H 494.206 1.39179 0.476203 0
M  V30 5154 H 496.164 2.37675 3.4288 0
M  V30 5155 H 494.794 1.34897 2.93262 0
M  V30 5156 H 493.846 3.41587 1.67399 0
M  V30 5157 H 495.158 4.37818 2.38991 0
M  V30 5158 H 494.312 3.85311 4.68636 0
M  V30 5159 H 493.051 2.7904 3.99985 0
M  V30 5160 H 492.056 4.74464 2.77784 0
M  V30 5161 H 493.281 5.82237 3.49538 0
M  V30 5162 H 491.227 4.19654 5.04209 0
M  V30 5163 H 491.144 5.89899 4.72816 0
M  V30 5164 H 492.412 5.27407 5.73988 0
M  V30 5165 N 496.642 -0.504142 1.49319 0
M  V30 5166 C 497.589 -1.60603 1.65756 0
M  V30 5167 C 498.559 -1.58425 0.499082 0
M  V30 5168 O 499.744 -1.76459 0.725728 0
M  V30 5169 C 496.884 -2.98764 1.72726 0
M  V30 5170 C 495.997 -3.10982 2.99857 0
M  V30 5171 C 495.132 -4.39857 2.97824 0
M  V30 5172 C 494.171 -4.45697 4.19548 0
M  V30 5173 N 493.308 -5.65995 4.15444 0
M  V30 5174 H 498.148 -1.45895 2.59843 0
M  V30 5175 H 495.685 -0.709891 1.28837 0
M  V30 5176 H 497.643 -3.78839 1.74747 0
M  V30 5177 H 496.273 -3.12183 0.821075 0
M  V30 5178 H 495.325 -2.23991 3.07461 0
M  V30 5179 H 496.637 -3.11157 3.89849 0
M  V30 5180 H 495.791 -5.2825 2.98391 0
M  V30 5181 H 494.53 -4.42242 2.05604 0
M  V30 5182 H 493.535 -3.55707 4.19229 0
M  V30 5183 H 494.76 -4.4503 5.12957 0
M  V30 5184 H 492.706 -5.69229 3.26059 0
M  V30 5185 H 492.623 -5.67773 4.99169 0
M  V30 5186 H 493.891 -6.56604 4.20109 0
M  V30 5187 N 498.12 -1.38341 -0.754957 0
M  V30 5188 C 499.348 -1.37704 -1.54419 0
M  V30 5189 C 499.763 0.0335243 -1.8877 0
M  V30 5190 O 499.12 0.999773 -1.52679 0
M  V30 5191 C 499.171 -2.23136 -2.84416 0
M  V30 5192 O 498.892 -3.58697 -2.51531 0
M  V30 5193 C 500.393 -2.30664 -3.78562 0
M  V30 5194 H 497.613 -0.471061 -0.477852 0
M  V30 5195 H 500.157 -1.81902 -0.934446 0
M  V30 5196 H 498.312 -1.82403 -3.41772 0
M  V30 5197 H 498.726 -4.03665 -3.34896 0
M  V30 5198 H 500.2 -2.9473 -4.66732 0
M  V30 5199 H 500.677 -1.3199 -4.18898 0
M  V30 5200 H 501.283 -2.71781 -3.27131 0
M  V30 5201 N 499.598 0.982988 -1.23187 0
M  V30 5202 C 500.545 2.07491 -1.01075 0
M  V30 5203 C 501.515 1.65949 0.070905 0
M  V30 5204 O 502.7 1.90629 -0.0806822 0
M  V30 5205 C 499.84 3.39751 -0.605261 0
M  V30 5206 C 498.953 3.94578 -1.75876 0
M  V30 5207 C 498.088 5.15039 -1.3003 0
M  V30 5208 C 497.127 5.62027 -2.42472 0
M  V30 5209 N 496.264 6.73719 -1.97602 0
M  V30 5210 H 501.104 2.25739 -1.9454 0
M  V30 5211 H 498.641 1.10659 -0.969179 0
M  V30 5212 H 500.599 4.15719 -0.351279 0
M  V30 5213 H 499.229 3.21473 0.292382 0
M  V30 5214 H 498.281 3.1539 -2.12681 0
M  V30 5215 H 499.593 4.25422 -2.60418 0
M  V30 5216 H 498.747 5.9833 -1.00429 0
M  V30 5217 H 497.486 4.85843 -0.425216 0
M  V30 5218 H 496.491 4.77318 -2.7285 0
M  V30 5219 H 497.716 5.93244 -3.30512 0
M  V30 5220 H 495.662 6.46287 -1.1247 0
M  V30 5221 H 495.579 7.03934 -2.75705 0
M  V30 5222 H 496.847 7.6049 -1.71098 0
M  V30 5223 N 501.076 1.04316 1.18135 0
M  V30 5224 C 502.304 0.768117 1.92113 0
M  V30 5225 C 502.719 -0.675057 1.76319 0
M  V30 5226 O 502.076 -1.46038 1.09449 0
M  V30 5227 C 502.127 1.12808 3.43448 0
M  V30 5228 O 501.848 2.5146 3.58747 0
M  V30 5229 C 503.349 0.8779 4.3452 0
M  V30 5230 H 500.569 0.279937 0.609817 0
M  V30 5231 H 503.113 1.39149 1.49859 0
M  V30 5232 H 501.268 0.549623 3.83481 0
M  V30 5233 H 501.682 2.65313 4.52448 0
M  V30 5234 H 503.156 1.17959 5.39249 0
M  V30 5235 H 503.633 -0.187239 4.38801 0
M  V30 5236 H 504.239 1.43977 4.00188 0
M  V30 5237 N 502.554 -1.34406 0.822964 0
M  V30 5238 C 503.803 -1.97542 0.407458 0
M  V30 5239 C 504.116 -1.65973 -1.035 0
M  V30 5240 O 505.322 -2.22598 -1.55442 0
M  V30 5241 C 503.778 -3.53463 0.677623 0
M  V30 5242 C 503.386 -3.93925 2.1337 0
M  V30 5243 C 505.13 -4.23229 0.328284 0
M  V30 5244 C 503.037 -5.42759 2.34876 0
M  V30 5245 H 501.967 -0.739207 0.148623 0
M  V30 5246 H 504.618 -1.53248 1.00932 0
M  V30 5247 H 503 -3.96 0.00558965 0
M  V30 5248 H 504.174 -3.62494 2.8449 0
M  V30 5249 H 502.489 -3.37097 2.44448 0
M  V30 5250 H 505.086 -5.32659 0.466794 0
M  V30 5251 H 505.429 -4.09899 -0.727224 0
M  V30 5252 H 505.962 -3.86169 0.954896 0
M  V30 5253 H 502.701 -5.61075 3.38932 0
M  V30 5254 H 502.221 -5.75704 1.68299 0
M  V30 5255 H 503.9 -6.0944 2.17236 0
M  V30 5256 N 504.032 -0.577932 -1.46621 0
M  V30 5257 C 505.309 0.00495287 -1.95599 0
M  V30 5258 C 505.689 1.46428 -1.5206 0
M  V30 5259 O 505.037 2.1517 -0.769046 0
M  V30 5260 C 505.247 -0.162114 -3.48623 0
M  V30 5261 C 506.595 -0.0274623 -4.24591 0
M  V30 5262 O 507.619 -0.0907067 -3.56084 0
M  V30 5263 O 506.478 0.1122 -5.46385 0
M  V30 5264 H 503.572 0.0525057 -0.825332 0
M  V30 5265 H 506.118 -0.645914 -1.56927 0
M  V30 5266 H 504.89 -1.17679 -3.73185 0
M  V30 5267 H 504.513 0.525407 -3.94113 0
M  V30 5268 N 505.51 1.54411 -0.315457 0
M  V30 5269 C 506.735 2.05299 0.294496 0
M  V30 5270 C 507.16 1.19052 1.4563 0
M  V30 5271 O 506.518 0.197804 1.80218 0
M  V30 5272 C 506.566 3.5345 0.714549 0
M  V30 5273 O 505.67 3.70175 1.81781 0
M  V30 5274 H 505.011 0.661743 0.0547019 0
M  V30 5275 H 507.541 1.99327 -0.461508 0
M  V30 5276 H 507.551 3.9557 0.999426 0
M  V30 5277 H 506.226 4.1568 -0.135244 0
M  V30 5278 H 504.803 3.3996 1.53236 0
M  V30 5279 N 506.988 0.0434614 1.5754 0
M  V30 5280 C 508.234 -0.632971 1.92669 0
M  V30 5281 C 508.567 -1.70947 0.921446 0
M  V30 5282 O 507.842 -1.94426 -0.0537202 0
M  V30 5283 C 508.125 -1.23619 3.38216 0
M  V30 5284 C 507.978 -0.168274 4.49485 0
M  V30 5285 C 509.297 -2.15008 3.84005 0
M  V30 5286 H 506.416 -0.228629 0.700641 0
M  V30 5287 H 509.058 0.103651 1.89717 0
M  V30 5288 H 507.208 -1.864 3.40863 0
M  V30 5289 H 508.88 0.463196 4.58969 0
M  V30 5290 H 507.123 0.504581 4.30855 0
M  V30 5291 H 507.794 -0.630218 5.48391 0
M  V30 5292 H 510.27 -1.62198 3.83185 0
M  V30 5293 H 509.146 -2.54161 4.86511 0
M  V30 5294 H 509.407 -3.04707 3.20322 0
M  V30 5295 N 508.466 -1.55915 -0.229846 0
M  V30 5296 C 509.694 -1.82617 -0.972562 0
M  V30 5297 C 510.109 -0.621488 -1.78278 0
M  V30 5298 O 509.466 0.409956 -1.77836 0
M  V30 5299 C 509.517 -3.0774 -1.89679 0
M  V30 5300 O 509.238 -4.23559 -1.11934 0
M  V30 5301 C 510.739 -3.47368 -2.75409 0
M  V30 5302 H 507.959 -0.60727 -0.285419 0
M  V30 5303 H 510.503 -2.02996 -0.247579 0
M  V30 5304 H 508.658 -2.89361 -2.57583 0
M  V30 5305 H 509.072 -4.94586 -1.74599 0
M  V30 5306 H 510.546 -4.37977 -3.35977 0
M  V30 5307 H 511.023 -2.68737 -3.47386 0
M  V30 5308 H 511.629 -3.68158 -2.12931 0
M  V30 5309 N 509.944 0.496216 -1.49584 0
M  V30 5310 C 511.169 1.27865 -1.63295 0
M  V30 5311 C 511.594 1.85592 -0.306156 0
M  V30 5312 O 510.952 1.66092 0.726851 0
M  V30 5313 C 511 2.38128 -2.7079 0
M  V30 5314 O 510.104 3.42108 -2.30296 0
M  V30 5315 H 509.445 0.377279 -0.546403 0
M  V30 5316 H 511.975 0.593497 -1.95803 0
M  V30 5317 H 511.985 2.8382 -2.93104 0
M  V30 5318 H 510.66 1.95479 -3.67098 0
M  V30 5319 H 509.237 3.02301 -2.18331 0
M  V30 5320 N 511.423 1.38739 0.74761 0
M  V30 5321 C 512.386 1.36241 1.84312 0
M  V30 5322 C 513.386 0.261811 1.58654 0
M  V30 5323 O 514.576 0.519031 1.66288 0
M  V30 5324 C 511.708 1.12253 3.21888 0
M  V30 5325 H 512.901 2.33712 1.87933 0
M  V30 5326 H 510.454 1.2412 0.949946 0
M  V30 5327 H 511.189 0.154133 3.23934 0
M  V30 5328 H 510.974 1.91943 3.41907 0
M  V30 5329 H 512.464 1.13215 4.0196 0
M  V30 5330 N 512.901 -0.976442 1.23707 0
M  V30 5331 C 513.833 -2.07212 0.979574 0
M  V30 5332 C 514.846 -1.6273 -0.0478528 0
M  V30 5333 O 516.035 -1.77506 0.18815 0
M  V30 5334 C 513.135 -3.35835 0.45479 0
M  V30 5335 C 512.308 -4.09268 1.54331 0
M  V30 5336 C 511.367 -5.16166 1.02271 0
M  V30 5337 O 510.393 -5.42827 1.71254 0
M  V30 5338 N 511.595 -5.80313 -0.147419 0
M  V30 5339 H 514.36 -2.29878 1.92292 0
M  V30 5340 H 511.921 -1.14343 1.14618 0
M  V30 5341 H 513.913 -4.04597 0.0914631 0
M  V30 5342 H 512.483 -3.10106 -0.394068 0
M  V30 5343 H 511.703 -3.34906 2.07923 0
M  V30 5344 H 512.991 -4.55095 2.27522 0
M  V30 5345 H 512.389 -5.61043 -0.724353 0
M  V30 5346 H 510.946 -6.50231 -0.451972 0
M  V30 5347 N 514.379 -1.04941 -1.1758 0
M  V30 5348 C 515.312 -0.592518 -2.20373 0
M  V30 5349 C 516.29 0.377561 -1.58156 0
M  V30 5350 O 517.474 0.28978 -1.86259 0
M  V30 5351 C 514.601 0.133215 -3.38438 0
M  V30 5352 C 513.647 -0.791484 -4.19092 0
M  V30 5353 S 514.48 -2.27925 -4.84572 0
M  V30 5354 C 515.636 -1.56462 -6.06028 0
M  V30 5355 H 515.869 -1.46342 -2.58788 0
M  V30 5356 H 513.402 -0.861148 -1.28155 0
M  V30 5357 H 515.36 0.545746 -4.06856 0
M  V30 5358 H 514.021 0.980124 -2.98416 0
M  V30 5359 H 513.214 -0.230039 -5.03475 0
M  V30 5360 H 512.816 -1.14326 -3.56098 0
M  V30 5361 H 515.108 -0.862539 -6.71987 0
M  V30 5362 H 516.051 -2.38583 -6.66696 0
M  V30 5363 H 516.459 -1.05313 -5.5459 0
M  V30 5364 N 515.857 1.33968 -0.830081 0
M  V30 5365 C 516.787 2.31911 -0.271911 0
M  V30 5366 C 517.768 1.58571 0.61556 0
M  V30 5367 O 518.953 1.86514 0.540946 0
M  V30 5368 C 516.083 3.42737 0.561146 0
M  V30 5369 C 515.037 4.27383 -0.229789 0
M  V30 5370 C 514.363 5.29742 0.726463 0
M  V30 5371 C 515.663 5.02 -1.44197 0
M  V30 5372 H 517.357 2.78844 -1.09025 0
M  V30 5373 H 514.903 1.34061 -0.52571 0
M  V30 5374 H 516.856 4.10276 0.961867 0
M  V30 5375 H 515.58 2.94471 1.41261 0
M  V30 5376 H 514.239 3.61456 -0.611964 0
M  V30 5377 H 513.887 4.77736 1.57408 0
M  V30 5378 H 513.587 5.87255 0.20142 0
M  V30 5379 H 515.111 6.00149 1.12489 0
M  V30 5380 H 516.525 5.62355 -1.11488 0
M  V30 5381 H 514.922 5.69122 -1.90317 0
M  V30 5382 H 515.992 4.31281 -2.2164 0
M  V30 5383 N 517.335 0.585699 1.46312 0
M  V30 5384 C 518.267 -0.183687 2.28463 0
M  V30 5385 C 519.28 -0.85264 1.38686 0
M  V30 5386 O 520.469 -0.721701 1.6326 0
M  V30 5387 C 517.569 -1.27977 3.13808 0
M  V30 5388 C 516.742 -0.702164 4.31727 0
M  V30 5389 C 515.801 -1.68633 4.98447 0
M  V30 5390 O 514.827 -1.22121 5.55945 0
M  V30 5391 N 516.029 -3.02047 4.95729 0
M  V30 5392 H 518.794 0.521127 2.95134 0
M  V30 5393 H 516.355 0.423673 1.56258 0
M  V30 5394 H 518.347 -1.9375 3.55307 0
M  V30 5395 H 516.917 -1.8874 2.4919 0
M  V30 5396 H 516.137 0.1331 3.93975 0
M  V30 5397 H 517.425 -0.296101 5.07938 0
M  V30 5398 H 516.823 -3.42457 4.50266 0
M  V30 5399 H 515.38 -3.63301 5.41161 0
M  V30 5400 N 518.813 -1.54241 0.323641 0
M  V30 5401 C 520.061 -2.00174 -0.278359 0
M  V30 5402 C 520.382 -1.2134 -1.52648 0
M  V30 5403 O 519.652 -0.315244 -1.93347 0
M  V30 5404 H 518.232 -0.739463 -0.105845 0
M  V30 5405 H 520.894 -1.89864 0.440204 0
M  V30 5406 H 519.99 -3.07486 -0.5347 0
M  V30 5407 N 520.291 -0.0518155 -1.57515 0
M  V30 5408 C 521.531 0.625712 -1.94587 0
M  V30 5409 C 521.895 1.6797 -0.930053 0
M  V30 5410 O 523.096 2.41135 -1.18774 0
M  V30 5411 C 521.367 1.20574 -3.36447 0
M  V30 5412 S 522.926 1.90118 -3.95475 0
M  V30 5413 H 519.744 0.205434 -0.680675 0
M  V30 5414 H 522.346 -0.120906 -1.95126 0
M  V30 5415 H 521.05 0.426521 -4.08178 0
M  V30 5416 H 520.581 1.98916 -3.39405 0
M  V30 5417 H 522.596 3.18184 -3.80753 0
M  V30 5418 N 521.769 1.56035 0.221574 0
M  V30 5419 C 522.997 1.8313 0.962864 0
M  V30 5420 C 523.412 0.630934 1.77946 0
M  V30 5421 O 522.769 -0.400519 1.78051 0
M  V30 5422 C 522.82 3.08742 1.88045 0
M  V30 5423 O 522.541 4.24147 1.09686 0
M  V30 5424 C 524.042 3.48824 2.73563 0
M  V30 5425 H 521.262 0.608775 0.282194 0
M  V30 5426 H 523.806 2.03124 0.23681 0
M  V30 5427 H 521.961 2.90723 2.56045 0
M  V30 5428 H 522.375 4.95505 1.71974 0
M  V30 5429 H 523.849 4.39752 3.3365 0
M  V30 5430 H 524.326 2.70575 3.45956 0
M  V30 5431 H 524.932 3.69282 2.10976 0
M  V30 5432 N 523.247 -0.488276 1.49845 0
M  V30 5433 C 524.496 -1.23826 1.59217 0
M  V30 5434 C 524.809 -1.93439 0.289966 0
M  V30 5435 O 526.015 -2.70229 0.262382 0
M  V30 5436 C 524.471 -2.24902 2.80976 0
M  V30 5437 C 524.079 -1.6117 4.18005 0
M  V30 5438 C 525.823 -3.00648 2.99685 0
M  V30 5439 C 523.73 -2.60431 5.3097 0
M  V30 5440 H 522.66 -0.465858 0.592868 0
M  V30 5441 H 525.311 -0.510645 1.76252 0
M  V30 5442 H 523.693 -3.0088 2.57463 0
M  V30 5443 H 524.867 -0.910968 4.51706 0
M  V30 5444 H 523.182 -0.97767 4.0476 0
M  V30 5445 H 525.779 -3.74903 3.81251 0
M  V30 5446 H 526.122 -3.5902 2.10738 0
M  V30 5447 H 526.655 -2.31784 3.23297 0
M  V30 5448 H 523.394 -2.06823 6.22017 0
M  V30 5449 H 522.914 -3.28707 5.01709 0
M  V30 5450 H 524.593 -3.22606 5.60834 0
M  V30 5451 N 524.725 -1.39134 -0.740242 0
M  V30 5452 C 525.972 -1.36071 -1.49969 0
M  V30 5453 C 526.3 0.0450245 -1.94448 0
M  V30 5454 O 525.555 1.02482 -1.66721 0
M  V30 5455 C 525.854 -2.27457 -2.75678 0
M  V30 5456 C 525.52 -3.75185 -2.50094 0
M  V30 5457 C 524.182 -4.15439 -2.42825 0
M  V30 5458 C 526.534 -4.68643 -2.28086 0
M  V30 5459 C 523.862 -5.4722 -2.11584 0
M  V30 5460 C 526.214 -6.00695 -1.98363 0
M  V30 5461 C 524.878 -6.40018 -1.8956 0
M  V30 5462 H 524.148 -0.497921 -0.548777 0
M  V30 5463 H 526.795 -1.71599 -0.85007 0
M  V30 5464 H 525.1 -1.8503 -3.45356 0
M  V30 5465 H 526.797 -2.22384 -3.33686 0
M  V30 5466 H 523.387 -3.43279 -2.56627 0
M  V30 5467 H 527.571 -4.3838 -2.32672 0
M  V30 5468 H 522.827 -5.76615 -2.03287 0
M  V30 5469 H 527.001 -6.72644 -1.80341 0
M  V30 5470 H 524.628 -7.42051 -1.65117 0
M  V30 5471 N 526.204 0.969867 -1.24223 0
M  V30 5472 C 527.151 2.06407 -1.0327 0
M  V30 5473 C 528.121 1.66014 0.0533 0
M  V30 5474 O 529.306 1.90533 -0.100896 0
M  V30 5475 C 526.446 3.3909 -0.641262 0
M  V30 5476 C 525.559 3.9269 -1.80051 0
M  V30 5477 C 524.694 5.13631 -1.35486 0
M  V30 5478 C 523.733 5.59423 -2.48419 0
M  V30 5479 N 522.87 6.71586 -2.04737 0
M  V30 5480 H 527.71 2.23663 -1.96923 0
M  V30 5481 H 525.247 1.09624 -0.980862 0
M  V30 5482 H 527.205 4.15323 -0.395351 0
M  V30 5483 H 525.835 3.21765 0.258269 0
M  V30 5484 H 524.887 3.13116 -2.16014 0
M  V30 5485 H 526.199 4.22636 -2.64916 0
M  V30 5486 H 525.353 5.97231 -1.0677 0
M  V30 5487 H 524.092 4.85364 -0.476722 0
M  V30 5488 H 523.097 4.74398 -2.77897 0
M  V30 5489 H 524.322 5.89705 -3.36786 0
M  V30 5490 H 522.268 6.45058 -1.19318 0
M  V30 5491 H 522.185 7.0097 -2.83156 0
M  V30 5492 H 523.453 7.58633 -1.79154 0
M  V30 5493 N 527.682 1.05563 1.17022 0
M  V30 5494 C 528.93 0.76642 1.87004 0
M  V30 5495 C 529.251 -0.708854 1.8166 0
M  V30 5496 O 528.521 -1.51242 1.2451 0
M  V30 5497 H 527.101 0.280516 0.692329 0
M  V30 5498 H 529.763 1.33557 1.41945 0
M  V30 5499 H 528.859 1.08472 2.92644 0
M  V30 5500 N 529.16 -1.33526 0.837174 0
M  V30 5501 C 530.108 -2.31168 0.257698 0
M  V30 5502 C 531.102 -1.5806 -0.609388 0
M  V30 5503 O 532.308 -1.72941 -0.499139 0
M  V30 5504 H 528.683 -0.74922 0.0646058 0
M  V30 5505 H 530.654 -2.77552 1.09578 0
M  V30 5506 C 529.403 -3.4326 -0.553887 0
M  V30 5507 H 528.726 -3.99665 0.104008 0
M  V30 5508 H 530.166 -4.13782 -0.925219 0
M  V30 5509 C 528.625 -2.88965 -1.73207 0
M  V30 5510 O 529.155 -2.85013 -2.83073 0
M  V30 5511 N 527.361 -2.45596 -1.55342 0
M  V30 5512 H 526.908 -2.49009 -0.659705 0
M  V30 5513 H 526.866 -2.0962 -2.34322 0
M  V30 5514 N 530.638 -0.59345 -1.46 0
M  V30 5515 C 531.568 0.121192 -2.33185 0
M  V30 5516 C 532.549 0.872977 -1.4599 0
M  V30 5517 O 533.734 0.846321 -1.74789 0
M  V30 5518 C 530.864 1.12844 -3.28456 0
M  V30 5519 C 529.818 0.4908 -4.25177 0
M  V30 5520 C 529.144 1.60529 -5.10034 0
M  V30 5521 C 530.444 -0.578949 -5.19081 0
M  V30 5522 H 532.138 -0.606767 -2.93187 0
M  V30 5523 H 529.684 -0.293242 -1.40983 0
M  V30 5524 H 531.637 1.63684 -3.88311 0
M  V30 5525 H 530.361 1.88681 -2.66584 0
M  V30 5526 H 529.02 0.00339328 -3.666 0
M  V30 5527 H 528.668 2.35359 -4.44539 0
M  V30 5528 H 528.368 1.18422 -5.75543 0
M  V30 5529 H 529.892 2.11623 -5.72755 0
M  V30 5530 H 531.306 -0.155199 -5.7309 0
M  V30 5531 H 529.703 -0.920947 -5.92991 0
M  V30 5532 H 530.773 -1.46109 -4.62364 0
M  V30 5533 N 532.116 1.54067 -0.331816 0
M  V30 5534 C 533.046 2.27569 0.522932 0
M  V30 5535 C 534.027 1.28679 1.11247 0
M  V30 5536 O 535.212 1.57504 1.13605 0
M  V30 5537 C 532.342 3.0397 1.67987 0
M  V30 5538 C 531.296 4.10267 1.21924 0
M  V30 5539 C 530.622 4.74555 2.46377 0
M  V30 5540 C 531.922 5.21268 0.32815 0
M  V30 5541 H 533.616 2.99264 -0.0901977 0
M  V30 5542 H 531.162 1.4393 -0.044821 0
M  V30 5543 H 533.115 3.54123 2.28418 0
M  V30 5544 H 531.839 2.29906 2.31971 0
M  V30 5545 H 530.498 3.61009 0.637809 0
M  V30 5546 H 530.146 3.97098 3.08743 0
M  V30 5547 H 529.846 5.46363 2.16243 0
M  V30 5548 H 531.37 5.27487 3.07555 0
M  V30 5549 H 532.784 5.67128 0.838978 0
M  V30 5550 H 531.181 5.99982 0.119228 0
M  V30 5551 H 532.251 4.80673 -0.638839 0
M  V30 5552 N 533.594 0.0601682 1.57485 0
M  V30 5553 C 534.843 -0.611101 1.9222 0
M  V30 5554 C 535.156 -1.71469 0.941159 0
M  V30 5555 O 536.362 -2.44473 1.18089 0
M  V30 5556 C 534.818 -1.13832 3.41424 0
M  V30 5557 C 534.426 -0.0663596 4.47951 0
M  V30 5558 C 536.17 -1.78432 3.85178 0
M  V30 5559 C 534.077 -0.606965 5.88277 0
M  V30 5560 H 533.007 -0.232033 0.71741 0
M  V30 5561 H 535.658 0.130518 1.83035 0
M  V30 5562 H 534.04 -1.93254 3.45643 0
M  V30 5563 H 535.214 0.707682 4.55333 0
M  V30 5564 H 533.529 0.482715 4.13593 0
M  V30 5565 H 536.126 -2.1989 4.87394 0
M  V30 5566 H 536.469 -2.63966 3.21913 0
M  V30 5567 H 537.002 -1.05651 3.83514 0
M  V30 5568 H 533.741 0.21095 6.5516 0
M  V30 5569 H 533.261 -1.34879 5.84438 0
M  V30 5570 H 534.94 -1.08704 6.37803 0
M  V30 5571 N 535.072 -1.5615 -0.213296 0
M  V30 5572 C 536.02 -1.93953 -1.28394 0
M  V30 5573 C 537.014 -0.822592 -1.48087 0
M  V30 5574 O 538.22 -1.00748 -1.49164 0
M  V30 5575 H 534.595 -0.61648 -0.430646 0
M  V30 5576 H 536.566 -2.83275 -0.937977 0
M  V30 5577 C 535.315 -2.27969 -2.62537 0
M  V30 5578 H 534.638 -3.13432 -2.48194 0
M  V30 5579 H 536.078 -2.58297 -3.36242 0
M  V30 5580 C 534.537 -1.10775 -3.18167 0
M  V30 5581 O 535.067 -0.373201 -3.99963 0
M  V30 5582 N 533.273 -0.889377 -2.76656 0
M  V30 5583 H 532.82 -1.48843 -2.10246 0
M  V30 5584 H 532.778 -0.107 -3.14218 0
M  V30 5585 N 536.55 0.480323 -1.50102 0
M  V30 5586 C 537.799 1.22979 -1.59872 0
M  V30 5587 C 538.112 1.93282 -0.30022 0
M  V30 5588 O 539.318 2.70086 -0.276709 0
M  V30 5589 C 537.774 2.23408 -2.82164 0
M  V30 5590 C 537.382 1.5895 -4.18854 0
M  V30 5591 C 539.126 2.99055 -3.01275 0
M  V30 5592 C 537.033 2.57611 -5.32344 0
M  V30 5593 H 535.963 0.462707 -0.59533 0
M  V30 5594 H 538.614 0.501291 -1.7652 0
M  V30 5595 H 536.996 2.99511 -2.59055 0
M  V30 5596 H 538.17 0.887 -4.52182 0
M  V30 5597 H 536.485 0.956191 -4.05273 0
M  V30 5598 H 539.082 3.72876 -3.83233 0
M  V30 5599 H 539.425 3.57897 -2.12639 0
M  V30 5600 H 539.958 2.30066 -3.24522 0
M  V30 5601 H 536.697 2.03521 -6.23105 0
M  V30 5602 H 536.217 3.26041 -5.03445 0
M  V30 5603 H 537.896 3.19627 -5.62537 0
M  V30 5604 N 538.028 1.39524 0.732853 0
M  V30 5605 C 539.444 1.21176 1.03868 0
M  V30 5606 C 539.644 0.0748448 2.01361 0
M  V30 5607 O 538.7 -0.57281 2.45917 0
M  V30 5608 C 540.013 2.54667 1.59892 0
M  V30 5609 C 541.561 2.6153 1.71962 0
M  V30 5610 C 542.036 3.95248 2.31394 0
M  V30 5611 N 543.527 3.96899 2.38801 0
M  V30 5612 C 544.262 4.97138 2.85729 0
M  V30 5613 N 543.758 6.07775 3.32537 0
M  V30 5614 N 545.551 4.84516 2.84957 0
M  V30 5615 H 537.702 2.12225 0.086304 0
M  V30 5616 H 539.965 0.942614 0.100907 0
M  V30 5617 H 539.671 3.38423 0.95721 0
M  V30 5618 H 539.545 2.74538 2.58668 0
M  V30 5619 H 541.932 1.78156 2.35254 0
M  V30 5620 H 542.013 2.45507 0.718327 0
M  V30 5621 H 541.657 4.79054 1.68729 0
M  V30 5622 H 541.587 4.08593 3.32204 0
M  V30 5623 H 544.078 3.16998 2.05719 0
M  V30 5624 H 544.391 6.8017 3.66862 0
M  V30 5625 H 542.736 6.11366 3.30541 0
M  V30 5626 H 545.927 3.97185 2.47713 0
M  V30 5627 H 546.1 5.62783 3.21215 0
M  V30 5628 N 539.506 -0.963266 1.24736 0
M  V30 5629 C 540.922 -1.23273 1.01371 0
M  V30 5630 C 541.122 -1.99618 -0.274776 0
M  V30 5631 O 540.178 -2.32293 -0.989769 0
M  V30 5632 C 541.491 -2.01554 2.23152 0
M  V30 5633 C 543.039 -2.14629 2.27823 0
M  V30 5634 C 543.514 -2.96307 3.49237 0
M  V30 5635 N 545.005 -3.03887 3.49581 0
M  V30 5636 C 545.74 -3.67456 4.40186 0
M  V30 5637 N 545.236 -4.32706 5.41052 0
M  V30 5638 N 547.029 -3.64511 4.27888 0
M  V30 5639 H 539.18 -0.452294 2.07528 0
M  V30 5640 H 541.443 -0.262521 0.910926 0
M  V30 5641 H 541.149 -1.52847 3.1675 0
M  V30 5642 H 541.023 -3.02278 2.25628 0
M  V30 5643 H 543.41 -2.62537 1.34753 0
M  V30 5644 H 543.491 -1.13238 2.2937 0
M  V30 5645 H 543.135 -2.49091 4.42624 0
M  V30 5646 H 543.065 -3.97905 3.44933 0
M  V30 5647 H 545.556 -2.57477 2.76611 0
M  V30 5648 H 545.869 -4.79042 6.06415 0
M  V30 5649 H 544.214 -4.31361 5.44934 0
M  V30 5650 H 547.405 -3.12715 3.4832 0
M  V30 5651 H 547.578 -4.13768 4.98698 0
M  V30 5652 N 540.985 -1.06182 -1.16461 0
M  V30 5653 C 542.233 -0.776326 -1.86595 0
M  V30 5654 C 542.554 0.69921 -1.82033 0
M  V30 5655 O 541.824 1.50579 -1.2531 0
M  V30 5656 H 540.404 -0.284184 -0.690832 0
M  V30 5657 H 543.066 -1.34308 -1.41235 0
M  V30 5658 H 542.162 -1.10022 -2.92064 0
M  V30 5659 N 542.463 1.3308 -0.844243 0
M  V30 5660 C 543.411 2.31028 -0.269954 0
M  V30 5661 C 544.405 1.58381 0.600997 0
M  V30 5662 O 545.611 1.73203 0.48996 0
M  V30 5663 H 541.986 0.748866 -0.0685782 0
M  V30 5664 H 543.957 2.76967 -1.11049 0
M  V30 5665 C 542.706 3.43549 0.535676 0
M  V30 5666 H 542.029 3.99604 -0.125202 0
M  V30 5667 H 543.469 4.14267 0.903262 0
M  V30 5668 C 541.928 2.8988 1.71672 0
M  V30 5669 O 542.458 2.86511 2.81557 0
M  V30 5670 N 540.664 2.46416 1.54037 0
M  V30 5671 H 540.211 2.49356 0.64649 0
M  V30 5672 H 540.169 2.1086 2.33207 0
M  V30 5673 N 543.941 0.601185 1.45683 0
M  V30 5674 C 544.889 -0.133955 2.32214 0
M  V30 5675 C 545.883 -0.866034 1.45589 0
M  V30 5676 O 547.089 -0.782326 1.6211 0
M  V30 5677 H 543.464 -0.0620613 0.749435 0
M  V30 5678 H 545.435 0.614389 2.92007 0
M  V30 5679 C 544.184 -1.12216 3.29094 0
M  V30 5680 H 543.507 -0.568273 3.95741 0
M  V30 5681 H 544.947 -1.60659 3.92383 0
M  V30 5682 C 543.406 -2.19251 2.55794 0
M  V30 5683 O 543.936 -3.26894 2.33459 0
M  V30 5684 N 542.142 -1.9436 2.16039 0
M  V30 5685 H 541.689 -1.06829 2.34404 0
M  V30 5686 H 541.647 -2.66181 1.67318 0
M  V30 5687 N 545.419 -1.53889 0.339982 0
M  V30 5688 C 546.668 -2.00035 -0.258604 0
M  V30 5689 C 546.981 -1.23179 -1.51942 0
M  V30 5690 O 548.187 -1.59784 -2.19503 0
M  V30 5691 C 546.643 -3.56249 -0.511359 0
M  V30 5692 C 546.251 -4.41957 0.733349 0
M  V30 5693 C 547.995 -4.1082 -1.069 0
M  V30 5694 C 545.902 -5.89673 0.451591 0
M  V30 5695 H 544.832 -0.747284 -0.10041 0
M  V30 5696 H 547.483 -1.77776 0.454758 0
M  V30 5697 H 545.865 -3.7456 -1.28533 0
M  V30 5698 H 547.039 -4.35421 1.50815 0
M  V30 5699 H 545.354 -3.9836 1.21237 0
M  V30 5700 H 547.951 -5.18789 -1.2947 0
M  V30 5701 H 548.294 -3.63817 -2.02343 0
M  V30 5702 H 548.827 -3.96205 -0.355817 0
M  V30 5703 H 545.566 -6.40903 1.37565 0
M  V30 5704 H 545.086 -5.99122 -0.285193 0
M  V30 5705 H 546.765 -6.46965 0.0675067 0
M  V30 5706 N 546.897 -0.0685191 -1.57451 0
M  V30 5707 C 547.86 0.885173 -2.11417 0
M  V30 5708 C 548.86 1.22853 -1.03748 0
M  V30 5709 O 550.05 1.16235 -1.2975 0
M  V30 5710 C 547.182 2.18964 -2.61281 0
M  V30 5711 H 548.375 0.417034 -2.96986 0
M  V30 5712 H 545.928 0.18014 -1.55258 0
M  V30 5713 H 546.663 2.70321 -1.79156 0
M  V30 5714 H 546.448 1.9534 -3.39977 0
M  V30 5715 H 547.938 2.87242 -3.0312 0
M  V30 5716 N 548.375 1.56261 0.205012 0
M  V30 5717 C 549.6 1.84491 0.947512 0
M  V30 5718 C 550.025 0.650894 1.76479 0
M  V30 5719 O 549.383 -0.40035 1.76824 0
M  V30 5720 C 549.431 3.10863 1.82747 0
M  V30 5721 O 548.535 2.90719 2.925 0
M  V30 5722 H 547.876 0.607783 0.267386 0
M  V30 5723 H 550.406 2.03485 0.213323 0
M  V30 5724 H 550.416 3.41399 2.23407 0
M  V30 5725 H 549.091 3.97392 1.2269 0
M  V30 5726 H 547.668 2.71457 2.55667 0
M  V30 5727 N 549.853 -0.472356 1.50355 0
M  V30 5728 C 550.763 -1.59637 1.7191 0
M  V30 5729 C 551.779 -1.63247 0.602195 0
M  V30 5730 O 552.955 -1.81139 0.880369 0
M  V30 5731 C 550.02 -2.9586 1.80742 0
M  V30 5732 C 549.081 -3.02649 3.04471 0
M  V30 5733 C 548.314 -4.32374 3.12872 0
M  V30 5734 O 548.537 -5.22807 2.28099 0
M  V30 5735 O 547.471 -4.44728 4.05587 0
M  V30 5736 H 551.297 -1.44373 2.67189 0
M  V30 5737 H 548.882 -0.651717 1.34436 0
M  V30 5738 H 550.764 -3.7677 1.88739 0
M  V30 5739 H 549.439 -3.11325 0.88647 0
M  V30 5740 H 548.346 -2.20821 3.01975 0
M  V30 5741 H 549.679 -2.92119 3.9614 0
M  V30 5742 N 551.331 -1.39911 -0.725443 0
M  V30 5743 C 552.261 -1.42138 -1.85254 0
M  V30 5744 C 553.242 -0.283513 -1.67721 0
M  V30 5745 O 554.427 -0.490717 -1.87898 0
M  V30 5746 C 551.557 -1.27354 -3.23107 0
M  V30 5747 C 550.511 -2.3864 -3.55296 0
M  V30 5748 C 549.837 -2.08939 -4.92188 0
M  V30 5749 C 551.137 -3.8097 -3.57295 0
M  V30 5750 H 552.831 -2.36461 -1.83648 0
M  V30 5751 H 550.377 -1.13817 -0.882138 0
M  V30 5752 H 552.33 -1.2753 -4.01639 0
M  V30 5753 H 551.054 -0.295025 -3.25265 0
M  V30 5754 H 549.713 -2.37696 -2.79099 0
M  V30 5755 H 549.361 -1.09502 -4.90936 0
M  V30 5756 H 549.061 -2.83491 -5.14691 0
M  V30 5757 H 550.585 -2.10781 -5.73065 0
M  V30 5758 H 551.999 -3.8379 -4.25885 0
M  V30 5759 H 550.396 -4.5496 -3.9132 0
M  V30 5760 H 551.466 -4.11261 -2.5689 0
M  V30 5761 N 552.809 0.956637 -1.25245 0
M  V30 5762 C 553.719 2.0868 -1.0719 0
M  V30 5763 C 554.735 1.73997 -0.00959074 0
M  V30 5764 O 555.911 2.00301 -0.210104 0
M  V30 5765 C 552.976 3.39754 -0.690526 0
M  V30 5766 C 552.037 3.88316 -1.83055 0
M  V30 5767 C 551.27 5.13134 -1.46728 0
M  V30 5768 O 551.493 5.6925 -0.362029 0
M  V30 5769 O 550.427 5.56356 -2.29677 0
M  V30 5770 H 554.253 2.26813 -2.01965 0
M  V30 5771 H 551.838 1.07098 -1.04165 0
M  V30 5772 H 553.72 4.18543 -0.489871 0
M  V30 5773 H 552.395 3.22896 0.227981 0
M  V30 5774 H 551.302 3.1054 -2.08604 0
M  V30 5775 H 552.635 4.09669 -2.72822 0
M  V30 5776 N 554.287 1.06798 1.15896 0
M  V30 5777 C 555.235 0.677525 2.22514 0
M  V30 5778 C 556.229 -0.308994 1.66558 0
M  V30 5779 O 557.435 -0.173308 1.79164 0
M  V30 5780 H 553.81 0.200994 0.724642 0
M  V30 5781 H 555.781 1.5865 2.52731 0
M  V30 5782 C 554.53 0.0854153 3.47595 0
M  V30 5783 H 553.853 0.835645 3.90969 0
M  V30 5784 H 555.293 -0.150199 4.23734 0
M  V30 5785 C 553.752 -1.1724 3.15843 0
M  V30 5786 O 554.282 -2.25965 3.32119 0
M  V30 5787 N 552.488 -1.07636 2.69931 0
M  V30 5788 H 552.035 -0.191559 2.56887 0
M  V30 5789 H 551.993 -1.91876 2.4906 0
M  V30 5790 N 555.766 -1.3263 0.851289 0
M  V30 5791 C 557.013 -1.97368 0.453023 0
M  V30 5792 C 557.341 -1.67384 -0.990596 0
M  V30 5793 O 556.596 -0.952665 -1.70947 0
M  V30 5794 C 556.895 -3.51713 0.635015 0
M  V30 5795 C 556.561 -4.01676 2.04859 0
M  V30 5796 C 555.223 -4.15031 2.43522 0
M  V30 5797 C 557.575 -4.28206 2.97135 0
M  V30 5798 C 554.903 -4.52257 3.73739 0
M  V30 5799 C 557.255 -4.66889 4.26846 0
M  V30 5800 C 555.919 -4.7845 4.65448 0
M  V30 5801 H 555.189 -0.722219 0.165773 0
M  V30 5802 H 557.836 -1.58092 1.0807 0
M  V30 5803 H 556.141 -3.91726 -0.0759081 0
M  V30 5804 H 557.838 -3.99823 0.306964 0
M  V30 5805 H 554.428 -3.91764 1.73836 0
M  V30 5806 H 558.612 -4.174 2.68498 0
M  V30 5807 H 553.868 -4.59402 4.03435 0
M  V30 5808 H 558.042 -4.86372 4.98413 0
M  V30 5809 H 555.669 -5.07052 5.66395 0
M  V30 5810 N 557.244 -0.608902 -1.45362 0
M  V30 5811 C 558.177 0.158059 -2.27652 0
M  V30 5812 C 559.155 0.872397 -1.37215 0
M  V30 5813 O 560.339 0.881002 -1.66645 0
M  V30 5814 C 557.466 1.22896 -3.15617 0
M  V30 5815 C 556.512 0.617607 -4.22005 0
M  V30 5816 S 557.345 -0.575518 -5.32398 0
M  V30 5817 C 558.501 0.495938 -6.23932 0
M  V30 5818 H 558.734 -0.540095 -2.92353 0
M  V30 5819 H 556.267 -0.396456 -1.49223 0
M  V30 5820 H 558.225 1.84195 -3.66855 0
M  V30 5821 H 556.886 1.89919 -2.50179 0
M  V30 5822 H 556.079 1.42341 -4.83482 0
M  V30 5823 H 555.681 0.0797273 -3.73915 0
M  V30 5824 H 557.973 1.37465 -6.63408 0
M  V30 5825 H 558.916 -0.0827108 -7.08052 0
M  V30 5826 H 559.324 0.811856 -5.58631 0
M  V30 5827 N 558.722 1.53707 -0.348139 0
M  V30 5828 C 559.97 2.00591 0.246478 0
M  V30 5829 C 560.291 1.23753 1.50699 0
M  V30 5830 O 559.561 0.345964 1.92821 0
M  V30 5831 H 558.141 0.741053 0.0940679 0
M  V30 5832 H 560.803 1.89139 -0.470354 0
M  V30 5833 H 559.899 3.08297 0.485714 0
M  V30 5834 N 560.2 0.0768682 1.57412 0
M  V30 5835 C 561.13 -0.886026 2.16037 0
M  V30 5836 C 562.111 -1.30691 1.08876 0
M  V30 5837 O 563.296 -1.37705 1.36934 0
M  V30 5838 C 560.426 -2.1518 2.72608 0
M  V30 5839 C 559.38 -1.87015 3.8498 0
M  V30 5840 C 558.706 -3.20266 4.28175 0
M  V30 5841 C 560.006 -1.17143 5.08994 0
M  V30 5842 H 561.7 -0.397642 2.96748 0
M  V30 5843 H 559.246 -0.189823 1.42743 0
M  V30 5844 H 561.199 -2.82962 3.12266 0
M  V30 5845 H 559.923 -2.66269 1.89125 0
M  V30 5846 H 558.582 -1.21636 3.45833 0
M  V30 5847 H 558.23 -3.69207 3.41607 0
M  V30 5848 H 557.93 -3.0221 5.03927 0
M  V30 5849 H 559.454 -3.89237 4.70454 0
M  V30 5850 H 560.868 -1.75003 5.45937 0
M  V30 5851 H 559.265 -1.09328 5.90057 0
M  V30 5852 H 560.335 -0.151295 4.84664 0
M  V30 5853 N 561.678 -1.56367 -0.196722 0
M  V30 5854 C 562.927 -1.79724 -0.915539 0
M  V30 5855 C 563.24 -0.649804 -1.84491 0
M  V30 5856 O 564.446 -0.767631 -2.60422 0
M  V30 5857 C 562.902 -3.18369 -1.67836 0
M  V30 5858 C 562.51 -4.4091 -0.793897 0
M  V30 5859 C 564.254 -3.51037 -2.38691 0
M  V30 5860 C 562.161 -5.70577 -1.55549 0
M  V30 5861 H 561.091 -0.67013 -0.345604 0
M  V30 5862 H 563.742 -1.82721 -0.168856 0
M  V30 5863 H 562.124 -3.09617 -2.46887 0
M  V30 5864 H 563.298 -4.60781 -0.042163 0
M  V30 5865 H 561.613 -4.15937 -0.19626 0
M  V30 5866 H 564.21 -4.4515 -2.96219 0
M  V30 5867 H 564.553 -2.74704 -3.12799 0
M  V30 5868 H 565.086 -3.61229 -1.66608 0
M  V30 5869 H 561.825 -6.49871 -0.857226 0
M  V30 5870 H 561.345 -5.54726 -2.2812 0
M  V30 5871 H 563.024 -6.11637 -2.10971 0
M  V30 5872 N 563.156 0.464375 -1.50603 0
M  V30 5873 C 564.066 1.58723 -1.72754 0
M  V30 5874 C 565.082 1.62925 -0.610844 0
M  V30 5875 O 566.258 1.8067 -0.889963 0
M  V30 5876 C 563.323 2.94897 -1.82309 0
M  V30 5877 C 562.384 3.0103 -3.06071 0
M  V30 5878 C 561.617 4.30708 -3.1516 0
M  V30 5879 O 561.84 5.2159 -2.30868 0
M  V30 5880 O 560.774 4.42571 -4.0794 0
M  V30 5881 H 564.6 1.42954 -2.67951 0
M  V30 5882 H 562.185 0.644579 -1.3478 0
M  V30 5883 H 564.067 3.75764 -1.90735 0
M  V30 5884 H 562.742 3.10851 -0.902967 0
M  V30 5885 H 561.649 2.19217 -3.03142 0
M  V30 5886 H 562.982 2.90014 -3.97684 0
M  V30 5887 N 564.634 1.40294 0.718013 0
M  V30 5888 C 565.88 1.38645 1.48005 0
M  V30 5889 C 566.213 -0.0121202 1.94196 0
M  V30 5890 O 565.488 -0.980309 1.67989 0
M  V30 5891 C 565.771 2.37379 2.70782 0
M  V30 5892 C 565.624 3.8625 2.30501 0
M  V30 5893 C 566.943 2.33685 3.72933 0
M  V30 5894 H 564.062 0.504928 0.536858 0
M  V30 5895 H 566.704 1.71411 0.819649 0
M  V30 5896 H 564.854 2.09568 3.27129 0
M  V30 5897 H 566.526 4.24879 1.79655 0
M  V30 5898 H 564.769 4.02202 1.6253 0
M  V30 5899 H 565.44 4.50847 3.18498 0
M  V30 5900 H 567.916 2.58314 3.2621 0
M  V30 5901 H 566.792 3.0482 4.56482 0
M  V30 5902 H 567.053 1.34765 4.21059 0
M  V30 5903 N 566.112 -0.949982 1.2575 0
M  V30 5904 C 567.358 -1.69766 1.10938 0
M  V30 5905 C 567.691 -1.91056 -0.348028 0
M  V30 5906 O 566.966 -1.48488 -1.25625 0
M  V30 5907 C 567.249 -3.07779 1.86933 0
M  V30 5908 C 567.102 -2.9387 3.4053 0
M  V30 5909 C 568.421 -4.07749 1.65616 0
M  V30 5910 H 565.54 -0.616144 0.404396 0
M  V30 5911 H 568.182 -1.10394 1.54639 0
M  V30 5912 H 566.332 -3.58462 1.4979 0
M  V30 5913 H 568.004 -2.50476 3.87375 0
M  V30 5914 H 566.247 -2.29686 3.68004 0
M  V30 5915 H 566.918 -3.91719 3.88922 0
M  V30 5916 H 569.394 -3.65994 1.97959 0
M  V30 5917 H 568.27 -5.02348 2.21218 0
M  V30 5918 H 568.531 -4.38029 0.598595 0
M  V30 5919 N 567.59 -1.07411 -1.15328 0
M  V30 5920 C 568.818 -0.818782 -1.90009 0
M  V30 5921 C 569.233 0.628072 -1.78047 0
M  V30 5922 O 568.59 1.43085 -1.13282 0
M  V30 5923 C 568.641 -1.21874 -3.40337 0
M  V30 5924 O 568.362 -2.60883 -3.51954 0
M  V30 5925 C 569.863 -0.992796 -4.3204 0
M  V30 5926 H 567.083 -0.296007 -0.60218 0
M  V30 5927 H 569.627 -1.43073 -1.46117 0
M  V30 5928 H 567.782 -0.651103 -3.81889 0
M  V30 5929 H 568.196 -2.77216 -4.45255 0
M  V30 5930 H 569.67 -1.32215 -5.35932 0
M  V30 5931 H 570.147 0.0708331 -4.39143 0
M  V30 5932 H 570.753 -1.54537 -3.9623 0
M  V30 5933 N 569.068 1.32177 -0.85831 0
M  V30 5934 C 570.316 1.96735 -0.462568 0
M  V30 5935 C 570.637 1.6824 0.985911 0
M  V30 5936 O 569.907 0.991564 1.68952 0
M  V30 5937 H 568.487 0.727849 -0.168064 0
M  V30 5938 H 571.149 1.61195 -1.09554 0
M  V30 5939 H 570.245 3.06068 -0.610647 0
M  V30 5940 N 570.547 0.616602 1.45037 0
M  V30 5941 C 571.777 0.121791 2.06241 0
M  V30 5942 C 572.185 -1.20289 1.46038 0
M  V30 5943 O 571.528 -1.7456 0.572242 0
M  V30 5944 C 571.59 -0.0827345 3.59405 0
M  V30 5945 C 571.254 1.16153 4.41993 0
M  V30 5946 C 572.251 2.08183 4.76399 0
M  V30 5947 C 569.936 1.39288 4.82601 0
M  V30 5948 C 571.93 3.21668 5.5028 0
M  V30 5949 C 569.617 2.53073 5.56235 0
M  V30 5950 C 570.615 3.44091 5.89992 0
M  V30 5951 O 570.303 4.55894 6.6213 0
M  V30 5952 H 570.035 0.0701667 0.672349 0
M  V30 5953 H 572.589 0.846877 1.87129 0
M  V30 5954 H 570.819 -0.862812 3.76952 0
M  V30 5955 H 572.508 -0.530273 4.02421 0
M  V30 5956 H 573.274 1.91538 4.45576 0
M  V30 5957 H 569.153 0.693396 4.55755 0
M  V30 5958 H 572.697 3.92733 5.76547 0
M  V30 5959 H 568.594 2.69667 5.86472 0
M  V30 5960 H 569.362 4.5469 6.80587 0
M  V30 5961 N 572.025 -1.5352 0.356285 0
M  V30 5962 C 573.271 -2.01414 -0.236653 0
M  V30 5963 C 573.604 -1.24339 -1.49176 0
M  V30 5964 O 572.879 -0.334496 -1.91602 0
M  V30 5965 C 573.162 -3.56059 -0.537982 0
M  V30 5966 C 573.015 -4.43835 0.730112 0
M  V30 5967 C 574.334 -4.19127 -1.34239 0
M  V30 5968 H 571.453 -0.732135 -0.0845386 0
M  V30 5969 H 574.095 -1.83854 0.479341 0
M  V30 5970 H 572.245 -3.71153 -1.14795 0
M  V30 5971 H 573.917 -4.40555 1.36782 0
M  V30 5972 H 572.16 -4.1218 1.3524 0
M  V30 5973 H 572.831 -5.49958 0.474358 0
M  V30 5974 H 575.307 -4.07809 -0.826498 0
M  V30 5975 H 574.183 -5.27378 -1.52198 0
M  V30 5976 H 574.444 -3.74581 -2.34822 0
M  V30 5977 N 573.503 -0.0852151 -1.57369 0
M  V30 5978 C 574.45 0.877268 -2.13478 0
M  V30 5979 C 575.42 1.28642 -1.05073 0
M  V30 5980 O 576.605 1.36992 -1.32808 0
M  V30 5981 C 573.745 2.13464 -2.71159 0
M  V30 5982 C 572.858 1.77691 -3.93764 0
M  V30 5983 C 571.993 2.98139 -4.39643 0
M  V30 5984 C 571.032 2.58447 -5.54862 0
M  V30 5985 N 570.169 3.71698 -5.95639 0
M  V30 5986 H 575.009 0.391933 -2.95411 0
M  V30 5987 H 572.546 0.181796 -1.45972 0
M  V30 5988 H 574.504 2.87086 -3.02717 0
M  V30 5989 H 573.134 2.59514 -1.91969 0
M  V30 5990 H 572.186 0.940768 -3.68583 0
M  V30 5991 H 573.498 1.44497 -4.77412 0
M  V30 5992 H 572.652 3.80026 -4.72933 0
M  V30 5993 H 571.391 3.34536 -3.54876 0
M  V30 5994 H 570.396 1.74984 -5.21211 0
M  V30 5995 H 571.621 2.23205 -6.41371 0
M  V30 5996 H 569.567 4.07831 -5.13819 0
M  V30 5997 H 569.484 3.42317 -6.74059 0
M  V30 5998 H 570.752 4.54123 -6.33555 0
M  V30 5999 N 574.981 1.5647 0.188427 0
M  V30 6000 C 576.23 1.80207 0.905995 0
M  V30 6001 C 576.543 0.659579 1.84144 0
M  V30 6002 O 577.749 0.781431 2.60011 0
M  V30 6003 C 576.205 3.19255 1.66145 0
M  V30 6004 C 575.813 4.41324 0.770504 0
M  V30 6005 C 577.557 3.52298 2.36826 0
M  V30 6006 C 575.464 5.71394 1.52521 0
M  V30 6007 H 574.394 0.671953 0.342045 0
M  V30 6008 H 577.045 1.82808 0.159164 0
M  V30 6009 H 575.427 3.10922 2.45242 0
M  V30 6010 H 576.601 4.60797 0.0177261 0
M  V30 6011 H 574.916 4.16035 0.174199 0
M  V30 6012 H 577.513 4.46715 2.93854 0
M  V30 6013 H 577.856 2.76359 3.11338 0
M  V30 6014 H 578.389 3.62108 1.6469 0
M  V30 6015 H 575.128 6.50316 0.82275 0
M  V30 6016 H 574.648 5.55928 2.25175 0
M  V30 6017 H 576.327 6.12747 2.07725 0
M  V30 6018 N 576.459 -0.456382 1.50847 0
M  V30 6019 C 577.875 -0.791345 1.386 0
M  V30 6020 C 578.075 -1.9633 0.453498 0
M  V30 6021 O 577.131 -2.52308 -0.0984353 0
M  V30 6022 C 578.444 -1.08959 2.80265 0
M  V30 6023 C 579.992 -1.19517 2.89283 0
M  V30 6024 C 580.467 -1.52647 4.31814 0
M  V30 6025 N 581.958 -1.59609 4.34832 0
M  V30 6026 C 582.693 -1.86777 5.42127 0
M  V30 6027 N 582.189 -2.11866 6.59609 0
M  V30 6028 N 583.982 -1.88402 5.29586 0
M  V30 6029 H 576.133 0.315746 2.1004 0
M  V30 6030 H 578.396 0.0787916 0.94472 0
M  V30 6031 H 578.102 -0.301355 3.50407 0
M  V30 6032 H 577.976 -2.02211 3.18419 0
M  V30 6033 H 580.363 -1.97406 2.19351 0
M  V30 6034 H 580.444 -0.242111 2.54652 0
M  V30 6035 H 580.088 -0.752922 5.02288 0
M  V30 6036 H 580.018 -2.49127 4.63943 0
M  V30 6037 H 582.509 -1.42201 3.50125 0
M  V30 6038 H 582.822 -2.31912 7.37182 0
M  V30 6039 H 581.167 -2.09228 6.62758 0
M  V30 6040 H 584.358 -1.68307 4.36795 0
M  V30 6041 H 584.531 -2.09238 6.13289 0
M  V30 6042 N 577.937 -1.40673 -0.710563 0
M  V30 6043 C 578.887 -1.37812 -1.81636 0
M  V30 6044 C 579.871 -0.254853 -1.58869 0
M  V30 6045 O 581.063 -0.494356 -1.69956 0
M  V30 6046 C 578.192 -1.24802 -3.19811 0
M  V30 6047 C 577.278 -2.41931 -3.48325 0
M  V30 6048 N 577.669 -3.67411 -3.47625 0
M  V30 6049 C 575.967 -2.35419 -3.78806 0
M  V30 6050 C 576.668 -4.45008 -3.74623 0
M  V30 6051 N 575.644 -3.74916 -3.93623 0
M  V30 6052 H 579.446 -2.32766 -1.79436 0
M  V30 6053 H 576.96 -1.34516 -0.909909 0
M  V30 6054 H 578.957 -1.20835 -3.99004 0
M  V30 6055 H 577.617 -0.308202 -3.23234 0
M  V30 6056 H 578.628 -4.00503 -3.28356 0
M  V30 6057 H 575.305 -1.4983 -3.89689 0
M  V30 6058 H 576.695 -5.53884 -3.80344 0
M  V30 6059 N 579.415 0.9433 -1.26252 0
M  V30 6060 C 580.64 1.72898 -1.14547 0
M  V30 6061 C 581.065 1.85761 0.295743 0
M  V30 6062 O 580.423 1.3463 1.21427 0
M  V30 6063 C 580.471 3.11471 -1.8171 0
M  V30 6064 O 579.575 3.97336 -1.10445 0
M  V30 6065 H 578.916 0.530555 -0.399259 0
M  V30 6066 H 581.446 1.18159 -1.67032 0
M  V30 6067 H 581.456 3.61872 -1.88449 0
M  V30 6068 H 580.131 3.01425 -2.86558 0
M  V30 6069 H 578.708 3.55788 -1.11666 0
M  V30 6070 N 580.893 1.08022 1.14757 0
M  V30 6071 C 581.843 0.676345 2.17737 0
M  V30 6072 C 582.827 -0.302018 1.5804 0
M  V30 6073 O 584.019 -0.11466 1.76628 0
M  V30 6074 C 581.148 0.082984 3.432 0
M  V30 6075 C 580.234 1.0869 4.09936 0
M  V30 6076 N 580.625 2.26891 4.52055 0
M  V30 6077 C 578.923 0.921768 4.36371 0
M  V30 6078 C 579.624 2.90636 5.0389 0
M  V30 6079 N 578.6 2.18266 4.97856 0
M  V30 6080 H 582.402 1.5765 2.4804 0
M  V30 6081 H 579.916 0.954374 1.31398 0
M  V30 6082 H 581.913 -0.224289 4.16296 0
M  V30 6083 H 580.573 -0.812206 3.14378 0
M  V30 6084 H 581.584 2.6457 4.45223 0
M  V30 6085 H 578.261 0.0800499 4.17423 0
M  V30 6086 H 579.651 3.9104 5.46386 0
M  V30 6087 N 582.371 -1.3172 0.865308 0
M  V30 6088 C 583.334 -2.26918 0.322627 0
M  V30 6089 C 584.334 -1.52031 -0.523751 0
M  V30 6090 O 585.524 -1.70973 -0.333727 0
M  V30 6091 C 582.656 -3.36558 -0.542338 0
M  V30 6092 H 583.849 -2.76432 1.16298 0
M  V30 6093 H 581.402 -1.42573 0.640512 0
M  V30 6094 H 582.137 -2.92329 -1.40407 0
M  V30 6095 H 581.922 -3.92048 0.0636395 0
M  V30 6096 H 583.412 -4.07465 -0.91446 0
M  V30 6097 N 583.85 -0.624285 -1.44708 0
M  V30 6098 C 584.779 0.0717025 -2.3339 0
M  V30 6099 C 585.76 0.841814 -1.47809 0
M  V30 6100 O 586.946 0.809056 -1.76544 0
M  V30 6101 C 584.076 1.05852 -3.30776 0
M  V30 6102 C 583.029 0.400503 -4.26122 0
M  V30 6103 C 582.356 1.49674 -5.13324 0
M  V30 6104 C 583.656 -0.688924 -5.17737 0
M  V30 6105 H 585.35 -0.668819 -2.91834 0
M  V30 6106 H 582.896 -0.32308 -1.40329 0
M  V30 6107 H 584.849 1.5541 -3.91696 0
M  V30 6108 H 583.572 1.82984 -2.70526 0
M  V30 6109 H 582.231 -0.0743687 -3.66525 0
M  V30 6110 H 581.88 2.25877 -4.49431 0
M  V30 6111 H 581.58 1.06188 -5.77926 0
M  V30 6112 H 583.104 1.99427 -5.77115 0
M  V30 6113 H 584.518 -0.276724 -5.72632 0
M  V30 6114 H 582.915 -1.04652 -5.90904 0
M  V30 6115 H 583.985 -1.55884 -4.5916 0
M  V30 6116 N 585.328 1.53329 -0.364422 0
M  V30 6117 C 586.574 2.01537 0.225969 0
M  V30 6118 C 586.907 1.25128 1.48515 0
M  V30 6119 O 586.182 0.344653 1.91422 0
M  V30 6120 C 586.465 3.56339 0.519092 0
M  V30 6121 C 586.318 4.43441 -0.753639 0
M  V30 6122 C 587.637 4.19833 1.32015 0
M  V30 6123 H 584.756 0.732573 0.0806548 0
M  V30 6124 H 587.398 1.83597 -0.489084 0
M  V30 6125 H 585.548 3.71756 1.12825 0
M  V30 6126 H 587.22 4.39823 -1.39116 0
M  V30 6127 H 585.463 4.11457 -1.37424 0
M  V30 6128 H 586.134 5.49699 -0.503517 0
M  V30 6129 H 588.61 4.08242 0.804859 0
M  V30 6130 H 587.486 5.28177 1.49399 0
M  V30 6131 H 587.747 3.75821 2.32832 0
M  V30 6132 N 586.806 0.0935595 1.57322 0
M  V30 6133 C 588.031 -0.582324 1.99057 0
M  V30 6134 C 588.456 -1.61025 0.972242 0
M  V30 6135 O 587.814 -1.81202 -0.0594622 0
M  V30 6136 C 587.862 -1.20799 3.39765 0
M  V30 6137 O 586.966 -2.32382 3.40694 0
M  V30 6138 H 586.307 -0.147884 0.647323 0
M  V30 6139 H 588.837 0.174516 2.03854 0
M  V30 6140 H 588.847 -1.54966 3.77425 0
M  V30 6141 H 587.522 -0.454914 4.13405 0
M  V30 6142 H 586.099 -1.99845 3.14827 0
M  V30 6143 N 588.284 -1.56567 -0.180126 0
M  V30 6144 C 589.214 -1.98753 -1.22553 0
M  V30 6145 C 590.195 -0.86175 -1.46656 0
M  V30 6146 O 591.38 -1.12719 -1.58139 0
M  V30 6147 C 588.51 -2.33988 -2.56645 0
M  V30 6148 C 587.464 -3.49445 -2.47128 0
M  V30 6149 C 586.79 -3.70397 -3.8563 0
M  V30 6150 C 588.09 -4.83171 -1.98352 0
M  V30 6151 H 589.784 -2.86332 -0.874896 0
M  V30 6152 H 587.33 -1.37757 -0.419414 0
M  V30 6153 H 589.283 -2.62097 -3.29974 0
M  V30 6154 H 588.007 -1.43309 -2.93479 0
M  V30 6155 H 586.666 -3.2145 -1.76254 0
M  V30 6156 H 586.314 -2.77023 -4.19842 0
M  V30 6157 H 586.014 -4.48077 -3.80132 0
M  V30 6158 H 587.538 -4.00897 -4.60558 0
M  V30 6159 H 588.952 -5.10213 -2.61449 0
M  V30 6160 H 587.349 -5.64425 -2.03823 0
M  V30 6161 H 588.419 -4.75753 -0.937402 0
M  V30 6162 N 589.762 0.448376 -1.51087 0
M  V30 6163 C 590.987 1.22605 -1.6728 0
M  V30 6164 C 591.412 1.84524 -0.365045 0
M  V30 6165 O 590.77 1.6832 0.673642 0
M  V30 6166 C 590.818 2.29393 -2.78229 0
M  V30 6167 O 589.922 3.34608 -2.41063 0
M  V30 6168 H 589.263 0.359705 -0.558129 0
M  V30 6169 H 591.793 0.530903 -1.97592 0
M  V30 6170 H 591.803 2.74352 -3.01986 0
M  V30 6171 H 590.478 1.83701 -3.73131 0
M  V30 6172 H 589.055 2.95202 -2.27838 0
M  V30 6173 N 591.24 1.41047 0.703093 0
M  V30 6174 C 592.487 1.4 1.46309 0
M  V30 6175 C 592.815 0.00654574 1.94499 0
M  V30 6176 O 592.07 -0.980255 1.6938 0
M  V30 6177 C 592.369 2.34686 2.6955 0
M  V30 6178 C 592.035 3.81684 2.40058 0
M  V30 6179 C 590.697 4.21731 2.31725 0
M  V30 6180 C 593.049 4.74525 2.15581 0
M  V30 6181 C 590.377 5.52637 1.97001 0
M  V30 6182 C 592.729 6.05744 1.82366 0
M  V30 6183 C 591.393 6.44819 1.72524 0
M  V30 6184 H 590.663 0.512295 0.535382 0
M  V30 6185 H 593.31 1.73792 0.804275 0
M  V30 6186 H 591.615 1.94122 3.40329 0
M  V30 6187 H 593.312 2.31152 3.27673 0
M  V30 6188 H 589.902 3.49963 2.47435 0
M  V30 6189 H 594.086 4.44395 2.20968 0
M  V30 6190 H 589.342 5.81802 1.87928 0
M  V30 6191 H 593.516 6.77189 1.62444 0
M  V30 6192 H 591.143 7.46168 1.45385 0
M  V30 6193 N 592.718 -0.936591 1.26751 0
M  V30 6194 C 593.648 -2.05315 1.11212 0
M  V30 6195 C 594.629 -1.70092 0.0160262 0
M  V30 6196 O 595.814 -1.93279 0.188894 0
M  V30 6197 C 592.944 -3.39123 0.749171 0
M  V30 6198 C 591.898 -3.88425 1.79751 0
M  V30 6199 C 591.224 -5.18936 1.28876 0
M  V30 6200 C 592.524 -4.12798 3.19992 0
M  V30 6201 H 594.218 -2.18573 2.04613 0
M  V30 6202 H 591.764 -1.05027 0.985159 0
M  V30 6203 H 593.717 -4.16704 0.627323 0
M  V30 6204 H 592.441 -3.25855 -0.220543 0
M  V30 6205 H 591.1 -3.13028 1.90811 0
M  V30 6206 H 590.748 -5.02051 0.308757 0
M  V30 6207 H 590.448 -5.52892 1.98958 0
M  V30 6208 H 591.972 -5.99096 1.17967 0
M  V30 6209 H 593.386 -4.80977 3.11983 0
M  V30 6210 H 591.783 -4.58044 3.87705 0
M  V30 6211 H 592.853 -3.18412 3.65707 0
M  V30 6212 N 594.196 -1.08629 -1.14182 0
M  V30 6213 C 595.143 -0.718299 -2.19338 0
M  V30 6214 C 596.113 0.296587 -1.63431 0
M  V30 6215 O 597.298 0.180079 -1.89948 0
M  V30 6216 C 594.438 -0.136203 -3.44831 0
M  V30 6217 C 593.551 -1.20414 -4.14879 0
M  V30 6218 C 592.686 -0.585666 -5.27962 0
M  V30 6219 C 591.725 -1.63548 -5.89846 0
M  V30 6220 N 590.862 -1.03864 -6.94375 0
M  V30 6221 H 595.702 -1.61932 -2.50164 0
M  V30 6222 H 593.239 -0.80919 -1.22844 0
M  V30 6223 H 595.197 0.219021 -4.16625 0
M  V30 6224 H 593.827 0.728121 -3.14481 0
M  V30 6225 H 592.879 -1.67676 -3.41451 0
M  V30 6226 H 594.191 -1.99959 -4.56966 0
M  V30 6227 H 593.345 -0.178818 -6.06436 0
M  V30 6228 H 592.084 0.24142 -4.87102 0
M  V30 6229 H 591.089 -2.05197 -5.10073 0
M  V30 6230 H 592.314 -2.46509 -6.3278 0
M  V30 6231 H 590.26 -0.232687 -6.55587 0
M  V30 6232 H 590.177 -1.77116 -7.3496 0
M  V30 6233 H 591.445 -0.657724 -7.7672 0
M  V30 6234 N 595.674 1.31259 -0.872281 0
M  V30 6235 C 596.622 2.30404 -0.318897 0
M  V30 6236 C 597.616 1.5962 0.567267 0
M  V30 6237 O 598.822 1.74204 0.453111 0
M  V30 6238 H 595.197 0.747243 -0.0844474 0
M  V30 6239 H 597.168 2.74549 -1.16899 0
M  V30 6240 C 595.917 3.44608 0.462683 0
M  V30 6241 H 595.24 3.99248 -0.209936 0
M  V30 6242 H 596.68 4.1609 0.815187 0
M  V30 6243 C 595.139 2.93456 1.65485 0
M  V30 6244 O 595.669 2.92418 2.75417 0
M  V30 6245 N 593.875 2.49628 1.48776 0
M  V30 6246 H 593.422 2.50671 0.593452 0
M  V30 6247 H 593.38 2.15759 2.28682 0
M  V30 6248 N 597.152 0.631951 1.44375 0
M  V30 6249 C 598.082 -0.0593243 2.33425 0
M  V30 6250 C 599.063 -0.833964 1.48253 0
M  V30 6251 O 600.248 -0.799682 1.76971 0
M  V30 6252 C 597.378 -1.04096 3.31333 0
M  V30 6253 C 596.332 -0.377899 4.26328 0
M  V30 6254 C 595.658 -1.4695 5.14111 0
M  V30 6255 C 596.958 0.716371 5.17364 0
M  V30 6256 H 598.652 0.684287 2.91475 0
M  V30 6257 H 596.198 0.330518 1.40156 0
M  V30 6258 H 598.151 -1.53331 3.92514 0
M  V30 6259 H 596.875 -1.81547 2.71493 0
M  V30 6260 H 595.534 0.0938054 3.6648 0
M  V30 6261 H 595.182 -2.2349 4.50623 0
M  V30 6262 H 594.882 -1.03121 5.78481 0
M  V30 6263 H 596.406 -1.96363 5.78164 0
M  V30 6264 H 597.82 0.307089 5.72477 0
M  V30 6265 H 596.217 1.07784 5.90341 0
M  V30 6266 H 597.287 1.58316 4.58327 0
M  V30 6267 N 598.631 -1.53133 0.372548 0
M  V30 6268 C 600.047 -1.59585 0.02178 0
M  V30 6269 C 600.247 -1.38736 -1.46132 0
M  V30 6270 O 599.303 -1.19599 -2.22379 0
M  V30 6271 C 600.616 -2.9678 0.483959 0
M  V30 6272 C 602.164 -3.09909 0.438775 0
M  V30 6273 C 602.639 -4.49527 0.876876 0
M  V30 6274 N 604.13 -4.55663 0.832214 0
M  V30 6275 C 604.865 -5.61896 1.14281 0
M  V30 6276 N 604.361 -6.75852 1.52303 0
M  V30 6277 N 606.154 -5.51916 1.06515 0
M  V30 6278 H 598.305 -1.64936 1.33827 0
M  V30 6279 H 600.568 -0.773947 0.547458 0
M  V30 6280 H 600.274 -3.17198 1.51915 0
M  V30 6281 H 600.148 -3.7699 -0.125784 0
M  V30 6282 H 602.535 -2.89197 -0.587294 0
M  V30 6283 H 602.616 -2.31691 1.0841 0
M  V30 6284 H 602.26 -4.70979 1.90109 0
M  V30 6285 H 602.19 -5.26186 0.208727 0
M  V30 6286 H 604.681 -3.73844 0.552195 0
M  V30 6287 H 604.994 -7.52862 1.7441 0
M  V30 6288 H 603.339 -6.77226 1.56175 0
M  V30 6289 H 606.53 -4.6177 0.767235 0
M  V30 6290 H 606.703 -6.34609 1.31053 0
M  V30 6291 N 600.109 -0.101901 -1.5727 0
M  V30 6292 C 601.039 0.851544 -2.17419 0
M  V30 6293 C 602.02 1.28942 -1.10941 0
M  V30 6294 O 603.205 1.35509 -1.39107 0
M  V30 6295 C 600.335 2.10816 -2.75996 0
M  V30 6296 C 599.289 1.80867 -3.87906 0
M  V30 6297 C 598.615 3.13413 -4.33216 0
M  V30 6298 C 599.915 1.0903 -5.10793 0
M  V30 6299 H 601.609 0.350381 -2.97343 0
M  V30 6300 H 599.155 0.16709 -1.43027 0
M  V30 6301 H 601.108 2.77959 -3.16729 0
M  V30 6302 H 599.832 2.63227 -1.93337 0
M  V30 6303 H 598.491 1.16119 -3.47724 0
M  V30 6304 H 598.139 3.63725 -3.47438 0
M  V30 6305 H 597.839 2.94155 -5.08671 0
M  V30 6306 H 599.363 3.81704 -4.76586 0
M  V30 6307 H 600.777 1.66295 -5.48652 0
M  V30 6308 H 599.174 0.99927 -5.91722 0
M  V30 6309 H 600.244 0.0741704 -4.84843 0
M  V30 6310 N 601.587 1.56661 0.17182 0
M  V30 6311 C 602.836 1.81158 0.886831 0
M  V30 6312 C 603.149 0.679072 1.83434 0
M  V30 6313 O 604.355 0.808964 2.59168 0
M  V30 6314 C 602.811 3.20999 1.6275 0
M  V30 6315 C 602.419 4.42117 0.723652 0
M  V30 6316 C 604.163 3.5479 2.33076 0
M  V30 6317 C 602.07 5.7298 1.46452 0
M  V30 6318 H 601 0.675543 0.334899 0
M  V30 6319 H 603.651 1.82967 0.139765 0
M  V30 6320 H 602.033 3.13506 2.4193 0
M  V30 6321 H 603.207 4.60789 -0.0311485 0
M  V30 6322 H 601.522 4.16197 0.130063 0
M  V30 6323 H 604.119 4.49806 2.89099 0
M  V30 6324 H 604.462 2.79646 3.08389 0
M  V30 6325 H 604.995 3.63834 1.6084 0
M  V30 6326 H 601.734 6.51152 0.753729 0
M  V30 6327 H 601.254 5.58285 2.19266 0
M  V30 6328 H 602.933 6.14916 2.01214 0
M  V30 6329 N 603.065 -0.440357 1.51323 0
M  V30 6330 C 603.995 -1.54174 1.75364 0
M  V30 6331 C 604.976 -1.59039 0.603375 0
M  V30 6332 O 606.161 -1.74815 0.845774 0
M  V30 6333 C 603.291 -2.92277 1.87593 0
M  V30 6334 C 602.245 -3.02274 3.03009 0
M  V30 6335 C 601.571 -4.42327 3.00418 0
M  V30 6336 C 602.871 -2.76634 4.43024 0
M  V30 6337 H 604.565 -1.34307 2.67585 0
M  V30 6338 H 602.111 -0.644678 1.28763 0
M  V30 6339 H 604.064 -3.69284 2.02995 0
M  V30 6340 H 602.788 -3.13369 0.920179 0
M  V30 6341 H 601.447 -2.27706 2.87307 0
M  V30 6342 H 601.095 -4.60382 2.02626 0
M  V30 6343 H 600.795 -4.49946 3.77918 0
M  V30 6344 H 602.319 -5.21312 3.17909 0
M  V30 6345 H 603.733 -3.43376 4.59093 0
M  V30 6346 H 602.13 -2.95666 5.22208 0
M  V30 6347 H 603.2 -1.72262 4.5327 0
M  V30 6348 N 604.543 -1.41418 -0.695603 0
M  V30 6349 C 605.791 -1.40496 -1.45277 0
M  V30 6350 C 606.112 -0.0149538 -1.94994 0
M  V30 6351 O 605.382 0.9432 -1.71699 0
M  V30 6352 H 603.962 -0.517147 -0.539044 0
M  V30 6353 H 606.624 -1.76656 -0.823321 0
M  V30 6354 H 605.72 -2.09214 -2.31595 0
M  V30 6355 N 606.021 0.929856 -1.27246 0
M  V30 6356 C 606.931 2.0636 -1.11592 0
M  V30 6357 C 607.947 1.73938 -0.046496 0
M  V30 6358 O 609.123 1.9981 -0.252544 0
M  V30 6359 C 606.188 3.38213 -0.762437 0
M  V30 6360 C 605.249 3.84346 -1.9125 0
M  V30 6361 C 604.482 5.09906 -1.57579 0
M  V30 6362 O 604.705 5.68354 -0.482694 0
M  V30 6363 O 603.639 5.51359 -2.41426 0
M  V30 6364 H 607.465 2.22478 -2.0673 0
M  V30 6365 H 605.05 1.04865 -1.06413 0
M  V30 6366 H 606.932 4.1741 -0.57854 0
M  V30 6367 H 605.607 3.23307 0.159439 0
M  V30 6368 H 604.514 3.06045 -2.15144 0
M  V30 6369 H 605.847 4.0379 -2.81451 0
M  V30 6370 N 607.499 1.09233 1.13605 0
M  V30 6371 C 608.409 0.741939 2.22559 0
M  V30 6372 C 609.425 -0.255236 1.72118 0
M  V30 6373 O 610.601 -0.0970747 2.01166 0
M  V30 6374 C 607.666 0.165595 3.46304 0
M  V30 6375 C 606.727 1.21846 4.11645 0
M  V30 6376 C 605.96 0.669526 5.29484 0
M  V30 6377 O 606.183 -0.508228 5.68131 0
M  V30 6378 O 605.117 1.42361 5.84822 0
M  V30 6379 H 608.943 1.65107 2.54899 0
M  V30 6380 H 606.528 0.866584 1.21699 0
M  V30 6381 H 608.41 -0.152592 4.21124 0
M  V30 6382 H 607.085 -0.716573 3.15669 0
M  V30 6383 H 605.992 1.58931 3.38662 0
M  V30 6384 H 607.325 2.07321 4.46407 0
M  V30 6385 N 608.977 -1.30795 0.87923 0
M  V30 6386 C 609.909 -2.27241 0.299025 0
M  V30 6387 C 610.922 -1.53472 -0.543166 0
M  V30 6388 O 612.111 -1.74756 -0.363651 0
M  V30 6389 C 609.211 -3.33655 -0.593931 0
M  V30 6390 C 608.384 -4.36857 0.2179 0
M  V30 6391 C 607.443 -5.22715 -0.604646 0
M  V30 6392 O 606.469 -5.69192 -0.0293838 0
M  V30 6393 N 607.671 -5.48008 -1.91488 0
M  V30 6394 H 610.436 -2.77667 1.12788 0
M  V30 6395 H 607.997 -1.43914 0.741637 0
M  V30 6396 H 609.989 -3.88013 -1.15012 0
M  V30 6397 H 608.559 -2.83202 -1.32346 0
M  V30 6398 H 607.779 -3.82444 0.955536 0
M  V30 6399 H 609.067 -5.02869 0.774614 0
M  V30 6400 H 608.465 -5.1202 -2.40525 0
M  V30 6401 H 607.022 -6.05264 -2.41864 0
M  V30 6402 N 610.455 -0.639598 -1.44038 0
M  V30 6403 C 611.385 0.0469443 -2.33453 0
M  V30 6404 C 612.366 0.82609 -1.48694 0
M  V30 6405 O 613.551 0.790285 -1.77393 0
M  V30 6406 C 610.681 1.02338 -3.3188 0
M  V30 6407 C 609.635 0.355284 -4.26523 0
M  V30 6408 C 608.961 1.44221 -5.14883 0
M  V30 6409 C 610.261 -0.743798 -5.16977 0
M  V30 6410 H 611.955 -0.699735 -2.91108 0
M  V30 6411 H 609.501 -0.337946 -1.39978 0
M  V30 6412 H 611.454 1.51247 -3.93322 0
M  V30 6413 H 610.178 1.80105 -2.72451 0
M  V30 6414 H 608.837 -0.113239 -3.66425 0
M  V30 6415 H 608.485 2.21097 -4.51802 0
M  V30 6416 H 608.185 1.00052 -5.79019 0
M  V30 6417 H 609.709 1.93295 -5.79197 0
M  V30 6418 H 611.123 -0.337444 -5.72306 0
M  V30 6419 H 609.52 -1.10914 -5.89761 0
M  V30 6420 H 610.59 -1.60745 -4.57481 0
M  V30 6421 N 611.933 1.52934 -0.380664 0
M  V30 6422 C 612.843 2.29921 0.466192 0
M  V30 6423 C 613.859 1.36488 1.07922 0
M  V30 6424 O 615.035 1.69553 1.0869 0
M  V30 6425 C 612.1 3.08468 1.58266 0
M  V30 6426 C 611.161 4.17595 0.995627 0
M  V30 6427 C 610.394 4.92387 2.05889 0
M  V30 6428 O 610.617 4.67184 3.27254 0
M  V30 6429 O 609.551 5.77949 1.68102 0
M  V30 6430 H 613.377 3.03274 -0.160735 0
M  V30 6431 H 610.962 1.48698 -0.144617 0
M  V30 6432 H 612.844 3.57469 2.23145 0
M  V30 6433 H 611.519 2.37937 2.19471 0
M  V30 6434 H 610.426 3.72811 0.310332 0
M  V30 6435 H 611.759 4.90336 0.427918 0
M  V30 6436 N 613.412 0.11024 1.57214 0
M  V30 6437 C 614.66 -0.548783 1.94506 0
M  V30 6438 C 614.981 -1.67772 0.99386 0
M  V30 6439 O 614.251 -1.9584 0.0485841 0
M  V30 6440 H 612.831 -0.205715 0.718116 0
M  V30 6441 H 615.493 0.177127 1.94093 0
M  V30 6442 H 614.589 -0.949096 2.97319 0
M  V30 6443 N 614.89 -1.56749 -0.16351 0
M  V30 6444 C 615.838 -1.97939 -1.22159 0
M  V30 6445 C 616.832 -0.869288 -1.45395 0
M  V30 6446 O 618.038 -1.05443 -1.45883 0
M  V30 6447 H 614.413 -0.629869 -0.410815 0
M  V30 6448 H 616.384 -2.86115 -0.847381 0
M  V30 6449 C 615.133 -2.36206 -2.55151 0
M  V30 6450 H 614.456 -3.2117 -2.38097 0
M  V30 6451 H 615.896 -2.68863 -3.27854 0
M  V30 6452 C 614.355 -1.20841 -3.14482 0
M  V30 6453 O 614.885 -0.500258 -3.98573 0
M  V30 6454 N 613.091 -0.976943 -2.73686 0
M  V30 6455 H 612.638 -1.55457 -2.05404 0
M  V30 6456 H 612.596 -0.206912 -3.13718 0
M  V30 6457 N 616.368 0.432326 -1.51554 0
M  V30 6458 C 617.598 1.2019 -1.68042 0
M  V30 6459 C 618.006 1.85356 -0.379434 0
M  V30 6460 O 617.349 1.71724 0.652427 0
M  V30 6461 C 617.411 2.32387 -2.74292 0
M  V30 6462 C 617.075 1.87548 -4.16743 0
M  V30 6463 C 618.072 1.37611 -5.01357 0
M  V30 6464 C 615.757 1.95087 -4.62868 0
M  V30 6465 C 617.751 0.958069 -6.30159 0
M  V30 6466 C 615.438 1.52894 -5.91664 0
M  V30 6467 C 616.436 1.03336 -6.75137 0
M  V30 6468 O 616.124 0.617435 -8.01525 0
M  V30 6469 H 615.856 0.368132 -0.56697 0
M  V30 6470 H 618.41 0.517875 -1.98764 0
M  V30 6471 H 616.64 3.04082 -2.38895 0
M  V30 6472 H 618.329 2.94235 -2.79608 0
M  V30 6473 H 619.095 1.31178 -4.66923 0
M  V30 6474 H 614.974 2.32606 -3.98015 0
M  V30 6475 H 618.518 0.570562 -6.95263 0
M  V30 6476 H 614.415 1.58999 -6.25611 0
M  V30 6477 H 615.183 0.742835 -8.15122 0
M  V30 6478 N 617.846 1.41785 0.688094 0
M  V30 6479 C 619.071 1.45117 1.48175 0
M  V30 6480 C 619.496 0.060129 1.88004 0
M  V30 6481 O 618.854 -0.938385 1.55126 0
M  V30 6482 C 618.902 2.37224 2.71583 0
M  V30 6483 O 618.006 1.83443 3.69354 0
M  V30 6484 H 617.347 0.492208 0.445676 0
M  V30 6485 H 619.877 1.86329 0.845145 0
M  V30 6486 H 619.887 2.53353 3.19806 0
M  V30 6487 H 618.562 3.38293 2.41931 0
M  V30 6488 H 617.139 1.76802 3.28322 0
M  V30 6489 N 619.324 -0.923095 1.27737 0
M  V30 6490 C 620.571 -1.67127 1.14345 0
M  V30 6491 C 620.899 -1.92017 -0.30982 0
M  V30 6492 O 620.154 -1.51185 -1.24264 0
M  V30 6493 C 620.453 -3.04125 1.8773 0
M  V30 6494 C 620.119 -2.98929 3.37568 0
M  V30 6495 C 618.781 -2.9722 3.78436 0
M  V30 6496 C 621.133 -2.89875 4.33154 0
M  V30 6497 C 618.461 -2.84244 5.13247 0
M  V30 6498 C 620.813 -2.7844 5.68026 0
M  V30 6499 C 619.477 -2.75083 6.08182 0
M  V30 6500 H 618.747 -0.611562 0.418417 0
M  V30 6501 H 621.394 -1.07618 1.584 0
M  V30 6502 H 619.699 -3.67366 1.36196 0
M  V30 6503 H 621.396 -3.609 1.74792 0
M  V30 6504 H 617.986 -3.0105 3.05069 0
M  V30 6505 H 622.17 -2.9029 4.02548 0
M  V30 6506 H 617.426 -2.80034 5.43499 0
M  V30 6507 H 621.6 -2.70401 6.4176 0
M  V30 6508 H 619.227 -2.64786 7.12596 0
M  V30 6509 N 620.802 -1.09834 -1.13024 0
M  V30 6510 C 622.032 -0.857657 -1.87957 0
M  V30 6511 C 622.44 0.595008 -1.796 0
M  V30 6512 O 621.783 1.42158 -1.16347 0
M  V30 6513 C 621.845 -1.21949 -3.38185 0
M  V30 6514 C 621.509 -2.67791 -3.7032 0
M  V30 6515 C 622.506 -3.66036 -3.69207 0
M  V30 6516 C 620.191 -3.04019 -3.99847 0
M  V30 6517 C 622.185 -4.98533 -3.9717 0
M  V30 6518 C 619.872 -4.36706 -4.27471 0
M  V30 6519 C 620.87 -5.33772 -4.26118 0
M  V30 6520 O 620.558 -6.64072 -4.53061 0
M  V30 6521 H 620.29 -0.308009 -0.601753 0
M  V30 6522 H 622.844 -1.46496 -1.43973 0
M  V30 6523 H 621.074 -0.555249 -3.82693 0
M  V30 6524 H 622.763 -0.957281 -3.9445 0
M  V30 6525 H 623.529 -3.39392 -3.46465 0
M  V30 6526 H 619.408 -2.29096 -4.00045 0
M  V30 6527 H 622.952 -5.74288 -3.96029 0
M  V30 6528 H 618.849 -4.63091 -4.49685 0
M  V30 6529 H 619.617 -6.69608 -4.7071 0
M  V30 6530 N 622.28 1.30327 -0.886154 0
M  V30 6531 C 623.526 1.96388 -0.505941 0
M  V30 6532 C 623.859 1.69784 0.942712 0
M  V30 6533 O 623.134 1.00322 1.6663 0
M  V30 6534 C 623.417 3.51488 -0.782826 0
M  V30 6535 C 623.27 3.87603 -2.28219 0
M  V30 6536 C 624.589 4.39331 -0.260128 0
M  V30 6537 H 621.708 0.713327 -0.185292 0
M  V30 6538 H 624.35 1.54178 -1.11036 0
M  V30 6539 H 622.5 3.87572 -0.268399 0
M  V30 6540 H 624.172 3.61537 -2.86512 0
M  V30 6541 H 622.415 3.3563 -2.74837 0
M  V30 6542 H 623.086 4.95806 -2.42653 0
M  V30 6543 H 625.562 4.10162 -0.700444 0
M  V30 6544 H 624.438 5.46769 -0.483179 0
M  V30 6545 H 624.699 4.34072 0.838674 0
M  V30 6546 N 623.758 0.647228 1.43697 0
M  V30 6547 C 624.688 -0.0345631 2.33474 0
M  V30 6548 C 625.669 -0.818193 1.4913 0
M  V30 6549 O 626.854 -0.780867 1.77809 0
M  V30 6550 C 623.984 -1.00576 3.32418 0
M  V30 6551 C 622.938 -0.33266 4.26705 0
M  V30 6552 C 622.264 -1.41489 5.1564 0
M  V30 6553 C 623.564 0.771204 5.16575 0
M  V30 6554 H 625.258 0.715163 2.90733 0
M  V30 6555 H 622.804 0.345364 1.39797 0
M  V30 6556 H 624.757 -1.49159 3.94119 0
M  V30 6557 H 623.481 -1.78657 2.73403 0
M  V30 6558 H 622.14 0.13267 3.6636 0
M  V30 6559 H 621.788 -2.18698 4.52968 0
M  V30 6560 H 621.488 -0.969799 5.79542 0
M  V30 6561 H 623.012 -1.9022 5.80214 0
M  V30 6562 H 624.426 0.36779 5.72119 0
M  V30 6563 H 622.823 1.1404 5.89165 0
M  V30 6564 H 623.893 1.63169 4.56622 0
M  V30 6565 N 625.236 -1.5273 0.388769 0
M  V30 6566 C 626.513 -1.93981 -0.251133 0
M  V30 6567 C 626.893 -1.32418 -1.64404 0
M  V30 6568 O 626.241 -0.492074 -2.23139 0
M  V30 6569 C 626.451 -3.47891 -0.27802 0
M  V30 6570 C 627.799 -4.21559 -0.507229 0
M  V30 6571 O 628.823 -3.54394 -0.358252 0
M  V30 6572 O 627.682 -5.40626 -0.799094 0
M  V30 6573 H 624.776 -0.812157 -0.15598 0
M  V30 6574 H 627.322 -1.63809 0.443237 0
M  V30 6575 H 626.094 -3.8503 0.697669 0
M  V30 6576 H 625.717 -3.84364 -1.01733 0
M  V30 6577 N 626.714 -0.118576 -1.57153 0
M  V30 6578 C 627.662 0.849114 -2.16547 0
M  V30 6579 C 628.656 1.27567 -1.11458 0
M  V30 6580 O 629.862 1.24746 -1.29763 0
M  V30 6581 H 626.237 0.291935 -0.693021 0
M  V30 6582 H 628.208 0.323693 -2.96639 0
M  V30 6583 C 626.957 2.08951 -2.77912 0
M  V30 6584 H 626.28 1.77021 -3.58474 0
M  V30 6585 H 627.72 2.74666 -3.23008 0
M  V30 6586 C 626.179 2.87899 -1.74974 0
M  V30 6587 O 626.709 3.83268 -1.20285 0
M  V30 6588 N 624.915 2.51884 -1.44924 0
M  V30 6589 H 624.462 1.74397 -1.89587 0
M  V30 6590 H 624.42 3.05003 -0.762921 0
M  V30 6591 N 628.193 1.56834 0.155195 0
M  V30 6592 C 629.125 1.94235 1.21677 0
M  V30 6593 C 630.138 0.83724 1.39621 0
M  V30 6594 O 631.327 1.11567 1.39338 0
M  V30 6595 C 628.427 2.19402 2.58294 0
M  V30 6596 C 627.6 3.50671 2.61436 0
M  V30 6597 C 626.659 3.64475 3.79532 0
M  V30 6598 O 625.685 4.36945 3.64784 0
M  V30 6599 N 626.887 3.00526 4.96653 0
M  V30 6600 H 629.652 2.85901 0.898932 0
M  V30 6601 H 627.213 1.58185 0.34483 0
M  V30 6602 H 629.205 2.25886 3.35794 0
M  V30 6603 H 627.775 1.34042 2.82403 0
M  V30 6604 H 626.995 3.55702 1.69912 0
M  V30 6605 H 628.283 4.3702 2.60559 0
M  V30 6606 H 627.681 2.41549 5.11538 0
M  V30 6607 H 626.238 3.12583 5.71958 0
M  V30 6608 N 629.671 -0.424282 1.51781 0
M  V30 6609 C 630.619 -1.53649 1.74628 0
M  V30 6610 C 631.613 -1.57923 0.612922 0
M  V30 6611 O 632.819 -1.61511 0.794618 0
M  V30 6612 H 629.194 -0.510706 0.551981 0
M  V30 6613 H 631.165 -1.31558 2.67834 0
M  V30 6614 C 629.914 -2.91177 1.9003 0
M  V30 6615 H 629.237 -2.88625 2.76651 0
M  V30 6616 H 630.677 -3.6833 2.10021 0
M  V30 6617 C 629.136 -3.30303 0.663435 0
M  V30 6618 O 629.666 -4.01315 -0.175812 0
M  V30 6619 N 627.872 -2.86201 0.503723 0
M  V30 6620 H 627.419 -2.28583 1.18776 0
M  V30 6621 H 627.377 -3.12741 -0.322575 0
M  V30 6622 N 631.149 -1.42148 -0.680565 0
M  V30 6623 C 632.079 -1.4796 -1.80638 0
M  V30 6624 C 633.06 -0.336728 -1.66734 0
M  V30 6625 O 634.245 -0.550247 -1.86242 0
M  V30 6626 C 631.375 -1.37569 -3.18892 0
M  V30 6627 C 630.329 -2.49823 -3.47524 0
M  V30 6628 C 629.655 -2.24491 -4.85291 0
M  V30 6629 C 630.955 -3.92144 -3.44994 0
M  V30 6630 H 632.649 -2.42184 -1.76032 0
M  V30 6631 H 630.195 -1.16566 -0.845481 0
M  V30 6632 H 632.148 -1.40243 -3.97379 0
M  V30 6633 H 630.872 -0.398357 -3.24162 0
M  V30 6634 H 629.531 -2.46455 -2.71395 0
M  V30 6635 H 629.179 -1.25066 -4.87204 0
M  V30 6636 H 628.879 -2.99722 -5.05411 0
M  V30 6637 H 630.403 -2.28906 -5.66069 0
M  V30 6638 H 631.817 -3.97145 -4.13459 0
M  V30 6639 H 630.214 -4.67179 -3.76648 0
M  V30 6640 H 631.284 -4.19225 -2.43676 0
M  V30 6641 N 632.627 0.916307 -1.28225 0
M  V30 6642 C 633.559 2.02303 -1.07732 0
M  V30 6643 C 634.572 1.62773 -0.0298421 0
M  V30 6644 O 635.761 1.76406 -0.272626 0
M  V30 6645 C 632.861 3.33282 -0.614504 0
M  V30 6646 C 632.034 4.01439 -1.73682 0
M  V30 6647 C 631.093 5.10698 -1.26781 0
M  V30 6648 O 630.119 5.34038 -1.96958 0
M  V30 6649 N 631.321 5.80355 -0.129624 0
M  V30 6650 H 634.086 2.20442 -2.03041 0
M  V30 6651 H 631.647 1.08744 -1.19943 0
M  V30 6652 H 633.639 4.03699 -0.284397 0
M  V30 6653 H 632.209 3.11633 0.245664 0
M  V30 6654 H 631.429 3.24604 -2.23665 0
M  V30 6655 H 632.717 4.43721 -2.48976 0
M  V30 6656 H 632.115 5.6386 0.455847 0
M  V30 6657 H 630.672 6.51647 0.141224 0
M  V30 6658 N 634.105 1.10431 1.1244 0
M  V30 6659 C 635.037 0.710945 2.17895 0
M  V30 6660 C 636.05 -0.252315 1.60833 0
M  V30 6661 O 637.239 -0.03679 1.78462 0
M  V30 6662 C 634.339 0.0284262 3.38888 0
M  V30 6663 C 633.512 1.01585 4.2544 0
M  V30 6664 C 632.571 0.364826 5.24934 0
M  V30 6665 O 631.597 1.01561 5.60066 0
M  V30 6666 N 632.799 -0.87674 5.73841 0
M  V30 6667 H 635.564 1.61826 2.52255 0
M  V30 6668 H 633.125 0.993132 1.27861 0
M  V30 6669 H 635.117 -0.418568 4.0253 0
M  V30 6670 H 633.687 -0.781294 3.02679 0
M  V30 6671 H 632.907 1.64111 3.58415 0
M  V30 6672 H 634.195 1.68425 4.80115 0
M  V30 6673 H 633.593 -1.42483 5.47462 0
M  V30 6674 H 632.15 -1.26688 6.39369 0
M  V30 6675 N 635.583 -1.29855 0.893053 0
M  V30 6676 C 636.513 -2.3035 0.382249 0
M  V30 6677 C 637.494 -1.61328 -0.539203 0
M  V30 6678 O 638.679 -1.88882 -0.451342 0
M  V30 6679 C 635.809 -3.45024 -0.396983 0
M  V30 6680 C 634.763 -4.258 0.433437 0
M  V30 6681 C 634.089 -5.32605 -0.472889 0
M  V30 6682 C 635.389 -4.94549 1.67984 0
M  V30 6683 H 637.083 -2.73325 1.22205 0
M  V30 6684 H 634.629 -1.314 0.589073 0
M  V30 6685 H 636.582 -4.14398 -0.765024 0
M  V30 6686 H 635.306 -3.00875 -1.2705 0
M  V30 6687 H 633.965 -3.58125 0.783723 0
M  V30 6688 H 633.613 -4.84702 -1.34435 0
M  V30 6689 H 633.313 -5.87547 0.0789958 0
M  V30 6690 H 634.837 -6.04832 -0.837269 0
M  V30 6691 H 636.251 -5.56395 1.38192 0
M  V30 6692 H 634.648 -5.59393 2.17254 0
M  V30 6693 H 635.718 -4.20215 2.41965 0
M  V30 6694 N 637.061 -0.65484 -1.43351 0
M  V30 6695 C 638.307 -0.177749 -2.02622 0
M  V30 6696 C 638.662 1.19553 -1.50748 0
M  V30 6697 O 637.955 1.78683 -0.691599 0
M  V30 6698 C 638.149 -0.130424 -3.57162 0
M  V30 6699 C 637.978 -1.49757 -4.24032 0
M  V30 6700 C 636.748 -2.09036 -4.60035 0
M  V30 6701 C 638.946 -2.4363 -4.52934 0
M  V30 6702 N 636.928 -3.3874 -5.11985 0
M  V30 6703 C 638.299 -3.57968 -5.0622 0
M  V30 6704 C 640.354 -2.42412 -4.34903 0
M  V30 6705 C 639.057 -4.71314 -5.43374 0
M  V30 6706 C 641.083 -3.5484 -4.7312 0
M  V30 6707 C 640.445 -4.67903 -5.26541 0
M  V30 6708 H 636.544 -0.10951 -0.774294 0
M  V30 6709 H 639.128 -0.863495 -1.74505 0
M  V30 6710 H 637.299 0.524671 -3.8484 0
M  V30 6711 H 639.031 0.35769 -4.03116 0
M  V30 6712 H 635.786 -1.61729 -4.4513 0
M  V30 6713 H 636.21 -4.05116 -5.42412 0
M  V30 6714 H 640.852 -1.56236 -3.92874 0
M  V30 6715 H 638.57 -5.5818 -5.84346 0
M  V30 6716 H 642.156 -3.55101 -4.60863 0
M  V30 6717 H 641.036 -5.5346 -5.55564 0
M  V30 6718 N 638.539 1.52521 -0.396863 0
M  V30 6719 C 639.816 1.94112 0.240842 0
M  V30 6720 C 640.196 1.33288 1.637 0
M  V30 6721 O 639.544 0.503901 2.22875 0
M  V30 6722 C 639.754 3.48033 0.259567 0
M  V30 6723 C 641.102 4.21822 0.484866 0
M  V30 6724 O 642.126 3.54579 0.339453 0
M  V30 6725 O 640.985 5.41042 0.770412 0
M  V30 6726 H 638.079 0.812973 0.151671 0
M  V30 6727 H 640.625 1.63572 -0.451918 0
M  V30 6728 H 639.397 3.84655 -0.718078 0
M  V30 6729 H 639.02 3.84899 0.996937 0
M  V30 6730 N 640.017 0.126909 1.57088 0
M  V30 6731 C 641.263 -0.523662 1.96543 0
M  V30 6732 C 641.618 -1.63783 1.0096 0
M  V30 6733 O 640.911 -1.91556 0.0410175 0
M  V30 6734 C 641.105 -1.095 3.40212 0
M  V30 6735 C 640.934 -0.037715 4.49684 0
M  V30 6736 C 639.704 0.396823 5.03739 0
M  V30 6737 C 641.902 0.746245 5.08857 0
M  V30 6738 N 639.884 1.43905 5.96795 0
M  V30 6739 C 641.255 1.63947 5.97931 0
M  V30 6740 C 643.31 0.796259 4.91492 0
M  V30 6741 C 642.013 2.57837 6.715 0
M  V30 6742 C 644.039 1.7229 5.65747 0
M  V30 6743 C 643.401 2.60369 6.54513 0
M  V30 6744 H 639.5 -0.161016 0.765244 0
M  V30 6745 H 642.084 0.21686 1.93489 0
M  V30 6746 H 640.255 -1.80521 3.43899 0
M  V30 6747 H 641.987 -1.71054 3.66773 0
M  V30 6748 H 638.742 0.00290406 4.736 0
M  V30 6749 H 639.166 1.95932 6.48027 0
M  V30 6750 H 643.808 0.129412 4.22602 0
M  V30 6751 H 641.526 3.25532 7.39631 0
M  V30 6752 H 645.112 1.76715 5.54313 0
M  V30 6753 H 643.992 3.30906 7.10965 0
M  V30 6754 N 641.495 -1.56914 -0.146875 0
M  V30 6755 C 642.772 -1.74273 -0.888165 0
M  V30 6756 C 643.152 -0.69496 -1.99333 0
M  V30 6757 O 642.5 0.286093 -2.26702 0
M  V30 6758 C 642.71 -3.18336 -1.43051 0
M  V30 6759 C 644.058 -3.80024 -1.89387 0
M  V30 6760 O 645.082 -3.21765 -1.52792 0
M  V30 6761 O 643.941 -4.82367 -2.56874 0
M  V30 6762 H 641.035 -0.712565 -0.419738 0
M  V30 6763 H 643.581 -1.6918 -0.132791 0
M  V30 6764 H 642.353 -3.86092 -0.636274 0
M  V30 6765 H 641.976 -3.27854 -2.24938 0
M  V30 6766 N 642.974 0.416227 -1.52004 0
M  V30 6767 C 643.924 1.50558 -1.7122 0
M  V30 6768 C 644.908 1.50613 -0.56609 0
M  V30 6769 O 646.1 1.56709 -0.822874 0
M  V30 6770 C 643.229 2.88556 -1.85984 0
M  V30 6771 C 642.315 2.93177 -3.06445 0
M  V30 6772 N 642.706 2.67505 -4.29272 0
M  V30 6773 C 641.004 3.24343 -3.06133 0
M  V30 6774 C 641.705 2.78511 -5.10692 0
M  V30 6775 N 640.681 3.11087 -4.45787 0
M  V30 6776 H 644.483 1.29494 -2.63834 0
M  V30 6777 H 641.997 0.62384 -1.4994 0
M  V30 6778 H 643.994 3.66954 -1.97865 0
M  V30 6779 H 642.654 3.10624 -0.945654 0
M  V30 6780 H 643.665 2.42033 -4.57865 0
M  V30 6781 H 640.342 3.52051 -2.24425 0
M  V30 6782 H 641.732 2.62438 -6.18527 0
M  V30 6783 N 644.452 1.42507 0.673017 0
M  V30 6784 C 645.868 1.25472 0.986355 0
M  V30 6785 C 646.068 0.160181 2.00862 0
M  V30 6786 O 645.124 -0.467993 2.48125 0
M  V30 6787 C 646.437 2.61219 1.48947 0
M  V30 6788 C 647.985 2.68589 1.60715 0
M  V30 6789 C 648.46 4.04707 2.14422 0
M  V30 6790 N 649.951 4.0667 2.21752 0
M  V30 6791 C 650.686 5.0881 2.64386 0
M  V30 6792 N 650.182 6.21332 3.0646 0
M  V30 6793 N 651.975 4.96166 2.64151 0
M  V30 6794 H 644.126 2.124 -0.00378532 0
M  V30 6795 H 646.389 0.946046 0.0608367 0
M  V30 6796 H 646.095 3.42179 0.812812 0
M  V30 6797 H 645.969 2.85261 2.46791 0
M  V30 6798 H 648.356 1.87974 2.27486 0
M  V30 6799 H 648.437 2.48333 0.613552 0
M  V30 6800 H 648.081 4.8578 1.48258 0
M  V30 6801 H 648.011 4.22315 3.14575 0
M  V30 6802 H 650.502 3.25438 1.92089 0
M  V30 6803 H 650.815 6.95118 3.37684 0
M  V30 6804 H 649.16 6.24835 3.04313 0
M  V30 6805 H 652.351 4.07334 2.30644 0
M  V30 6806 H 652.524 5.759 2.97057 0
M  V30 6807 N 645.93 -0.909495 1.28709 0
M  V30 6808 C 646.878 -2.03381 1.12866 0
M  V30 6809 C 647.872 -1.69335 0.0468074 0
M  V30 6810 O 649.078 -1.78819 0.205891 0
M  V30 6811 H 645.453 -0.666452 0.348348 0
M  V30 6812 H 647.424 -2.13885 2.08077 0
M  V30 6813 C 646.173 -3.38092 0.811742 0
M  V30 6814 H 645.496 -3.64786 1.63619 0
M  V30 6815 H 646.936 -4.17477 0.740869 0
M  V30 6816 C 645.395 -3.33395 -0.484679 0
M  V30 6817 O 645.925 -3.72089 -1.5137 0
M  V30 6818 N 644.131 -2.86491 -0.486961 0
M  V30 6819 H 643.678 -2.55199 0.350877 0
M  V30 6820 H 643.636 -2.83731 -1.3544 0
M  V30 6821 N 647.408 -1.11026 -1.11852 0
M  V30 6822 C 648.338 -0.786812 -2.19844 0
M  V30 6823 C 649.319 0.242935 -1.68356 0
M  V30 6824 O 650.504 0.107355 -1.93903 0
M  V30 6825 C 647.634 -0.224516 -3.46574 0
M  V30 6826 C 646.588 -1.18564 -4.1125 0
M  V30 6827 C 645.914 -0.484261 -5.32503 0
M  V30 6828 C 647.214 -2.53465 -4.56676 0
M  V30 6829 H 648.908 -1.68978 -2.47158 0
M  V30 6830 H 646.454 -0.813906 -1.18792 0
M  V30 6831 H 648.407 0.0139435 -4.21398 0
M  V30 6832 H 647.131 0.713722 -3.18706 0
M  V30 6833 H 645.79 -1.40966 -3.38414 0
M  V30 6834 H 645.438 0.458646 -5.00905 0
M  V30 6835 H 645.138 -1.12526 -5.76725 0
M  V30 6836 H 646.662 -0.254492 -6.10069 0
M  V30 6837 H 648.076 -2.35177 -5.22843 0
M  V30 6838 H 646.473 -3.13507 -5.11697 0
M  V30 6839 H 647.543 -3.13008 -3.70343 0
M  V30 6840 N 648.886 1.2938 -0.899927 0
M  V30 6841 C 650.114 1.99691 -0.541386 0
M  V30 6842 C 650.529 1.67355 0.873936 0
M  V30 6843 O 649.886 0.918728 1.57688 0
M  V30 6844 C 649.937 3.54168 -0.72438 0
M  V30 6845 O 649.658 3.85359 -2.08399 0
M  V30 6846 C 651.159 4.41746 -0.370819 0
M  V30 6847 H 648.379 0.638037 -0.207726 0
M  V30 6848 H 650.923 1.6491 -1.20934 0
M  V30 6849 H 649.078 3.87261 -0.103607 0
M  V30 6850 H 649.492 4.80032 -2.11352 0
M  V30 6851 H 650.966 5.49256 -0.549693 0
M  V30 6852 H 651.443 4.33712 0.692148 0
M  V30 6853 H 652.049 4.14125 -0.968543 0
M  V30 6854 N 650.364 0.662433 1.43002 0
M  V30 6855 C 651.613 0.176873 2.00923 0
M  V30 6856 C 651.926 -1.21954 1.52927 0
M  V30 6857 O 653.132 -1.80081 2.03182 0
M  V30 6858 C 651.588 0.265379 3.5892 0
M  V30 6859 C 651.196 1.66507 4.15908 0
M  V30 6860 C 652.94 -0.162103 4.2419 0
M  V30 6861 C 650.847 1.707 5.66229 0
M  V30 6862 H 649.777 0.0623627 0.751417 0
M  V30 6863 H 652.428 0.825813 1.63868 0
M  V30 6864 H 650.81 -0.451235 3.93421 0
M  V30 6865 H 651.984 2.40777 3.92891 0
M  V30 6866 H 650.299 2.03932 3.63044 0
M  V30 6867 H 652.896 -0.150745 5.34487 0
M  V30 6868 H 653.239 -1.19519 3.98774 0
M  V30 6869 H 653.772 0.503075 3.94606 0
M  V30 6870 H 650.511 2.7195 5.96426 0
M  V30 6871 H 650.031 1.00768 5.91275 0
M  V30 6872 H 651.71 1.45487 6.3043 0
M  V30 6873 N 651.842 -1.52309 0.404946 0
M  V30 6874 C 652.789 -2.26898 -0.422597 0
M  V30 6875 C 653.759 -1.2914 -1.04461 0
M  V30 6876 O 654.944 -1.57996 -1.06967 0
M  V30 6877 C 652.084 -3.09053 -1.53559 0
M  V30 6878 C 651.197 -4.21762 -0.934908 0
M  V30 6879 C 650.332 -4.91283 -2.02025 0
M  V30 6880 C 649.371 -5.95962 -1.39628 0
M  V30 6881 N 648.508 -6.59017 -2.42159 0
M  V30 6882 H 653.348 -2.97188 0.219903 0
M  V30 6883 H 650.885 -1.46607 0.120282 0
M  V30 6884 H 652.843 -3.54987 -2.19181 0
M  V30 6885 H 651.473 -2.40942 -2.14818 0
M  V30 6886 H 650.525 -3.80029 -0.167854 0
M  V30 6887 H 651.837 -4.96864 -0.439073 0
M  V30 6888 H 650.991 -5.40601 -2.75383 0
M  V30 6889 H 649.73 -4.15741 -2.54973 0
M  V30 6890 H 648.735 -5.45968 -0.648023 0
M  V30 6891 H 649.96 -6.73445 -0.874553 0
M  V30 6892 H 647.906 -5.86306 -2.94247 0
M  V30 6893 H 647.823 -7.2978 -1.97376 0
M  V30 6894 H 649.091 -7.12974 -3.15099 0
M  V30 6895 N 653.32 -0.135238 -1.57019 0
M  V30 6896 C 654.283 0.794707 -2.14981 0
M  V30 6897 C 655.283 1.18342 -1.08866 0
M  V30 6898 O 656.473 1.10627 -1.34563 0
M  V30 6899 C 653.605 2.07685 -2.70333 0
M  V30 6900 H 654.798 0.290696 -2.98488 0
M  V30 6901 H 652.351 0.114128 -1.55883 0
M  V30 6902 H 653.086 2.6248 -1.9046 0
M  V30 6903 H 652.871 1.80745 -3.47957 0
M  V30 6904 H 654.361 2.74127 -3.1503 0
M  V30 6905 N 654.798 1.5699 0.138552 0
M  V30 6906 C 656.046 1.83446 0.848053 0
M  V30 6907 C 656.367 0.71744 1.81322 0
M  V30 6908 O 655.637 -0.260228 1.94164 0
M  V30 6909 H 654.217 0.676792 0.316166 0
M  V30 6910 H 656.879 1.94462 0.130538 0
M  V30 6911 H 655.975 2.78677 1.40518 0
M  V30 6912 N 656.276 -0.40816 1.52223 0
M  V30 6913 C 657.223 -1.49737 1.75635 0
M  V30 6914 C 658.193 -1.5493 0.598824 0
M  V30 6915 O 659.378 -1.71487 0.83648 0
M  V30 6916 C 656.518 -2.87174 1.91376 0
M  V30 6917 C 655.631 -2.91283 3.19027 0
M  V30 6918 C 654.766 -4.20026 3.25195 0
M  V30 6919 C 653.805 -4.18113 4.47044 0
M  V30 6920 N 652.942 -5.38429 4.50598 0
M  V30 6921 H 657.782 -1.29075 2.68596 0
M  V30 6922 H 655.319 -0.626518 1.33091 0
M  V30 6923 H 657.277 -3.66959 1.98486 0
M  V30 6924 H 655.907 -3.06329 1.01795 0
M  V30 6925 H 654.959 -2.03984 3.21084 0
M  V30 6926 H 656.271 -2.85734 4.08849 0
M  V30 6927 H 655.425 -5.08204 3.31382 0
M  V30 6928 H 654.164 -4.28271 2.33313 0
M  V30 6929 H 653.169 -3.28325 4.41002 0
M  V30 6930 H 654.394 -4.11507 5.40221 0
M  V30 6931 H 652.34 -5.4734 3.616 0
M  V30 6932 H 652.257 -5.34879 5.34266 0
M  V30 6933 H 653.525 -6.28557 4.61016 0
M  V30 6934 N 657.755 -1.42862 -0.66545 0
M  V30 6935 C 658.688 -1.41509 -1.79026 0
M  V30 6936 C 659.666 -0.278106 -1.60204 0
M  V30 6937 O 660.85 -0.469792 -1.82552 0
M  V30 6938 C 657.977 -1.21494 -3.1616 0
M  V30 6939 C 657.023 -2.38308 -3.53711 0
M  V30 6940 S 657.856 -4.00852 -3.55075 0
M  V30 6941 C 659.012 -3.83197 -4.94885 0
M  V30 6942 H 659.245 -2.36691 -1.79902 0
M  V30 6943 H 656.778 -1.29746 -0.836977 0
M  V30 6944 H 658.736 -1.10633 -3.95311 0
M  V30 6945 H 657.397 -0.27881 -3.1286 0
M  V30 6946 H 656.59 -2.20076 -4.53412 0
M  V30 6947 H 656.192 -2.45732 -2.81943 0
M  V30 6948 H 658.484 -3.44765 -5.83218 0
M  V30 6949 H 659.427 -4.82607 -5.18166 0
M  V30 6950 H 659.835 -3.15884 -4.67843 0
M  V30 6951 N 659.233 0.902656 -1.29189 0
M  V30 6952 C 660.463 1.68394 -1.19695 0
M  V30 6953 C 660.871 1.87602 0.245384 0
M  V30 6954 O 660.214 1.41084 1.17648 0
M  V30 6955 C 660.276 3.09094 -1.83578 0
M  V30 6956 C 659.94 3.1313 -3.32864 0
M  V30 6957 C 660.937 2.93497 -4.29134 0
M  V30 6958 C 658.622 3.3529 -3.74013 0
M  V30 6959 C 660.616 2.95953 -5.64527 0
M  V30 6960 C 658.303 3.37377 -5.09529 0
M  V30 6961 C 659.301 3.1773 -6.04596 0
M  V30 6962 O 658.989 3.196 -7.37639 0
M  V30 6963 H 658.721 0.532815 -0.416034 0
M  V30 6964 H 661.275 1.1374 -1.71033 0
M  V30 6965 H 659.505 3.65338 -1.26747 0
M  V30 6966 H 661.194 3.69297 -1.68447 0
M  V30 6967 H 661.96 2.76192 -3.98677 0
M  V30 6968 H 657.839 3.49623 -3.00474 0
M  V30 6969 H 661.383 2.80536 -6.38706 0
M  V30 6970 H 657.28 3.54213 -5.39633 0
M  V30 6971 H 658.048 3.35887 -7.46406 0
M  V30 6972 N 660.711 1.11618 1.11262 0
M  V30 6973 C 661.958 0.86618 1.8304 0
M  V30 6974 C 662.286 -0.608149 1.84748 0
M  V30 6975 O 661.541 -1.46508 1.29745 0
M  V30 6976 C 661.84 1.37529 3.2988 0
M  V30 6977 C 661.506 2.86317 3.4833 0
M  V30 6978 C 660.168 3.26945 3.53073 0
M  V30 6979 C 662.52 3.82136 3.54431 0
M  V30 6980 C 659.848 4.62117 3.61475 0
M  V30 6981 C 662.2 5.17128 3.64365 0
M  V30 6982 C 660.864 5.57312 3.67369 0
M  V30 6983 H 660.134 0.316958 0.66979 0
M  V30 6984 H 662.781 1.3949 1.31205 0
M  V30 6985 H 661.086 0.766842 3.84222 0
M  V30 6986 H 662.783 1.15817 3.83911 0
M  V30 6987 H 659.373 2.53889 3.45309 0
M  V30 6988 H 663.557 3.51847 3.50025 0
M  V30 6989 H 658.813 4.92655 3.62079 0
M  V30 6990 H 662.987 5.91208 3.68029 0
M  V30 6991 H 660.614 6.62045 3.73632 0
M  V30 6992 N 662.189 -1.289 0.906776 0
M  V30 6993 C 663.152 -2.25777 0.394656 0
M  V30 6994 C 664.152 -1.53621 -0.475119 0
M  V30 6995 O 665.342 -1.71949 -0.279165 0
M  V30 6996 C 662.474 -3.38113 -0.43499 0
M  V30 6997 H 663.667 -2.72592 1.25033 0
M  V30 6998 H 661.22 -1.40463 0.685547 0
M  V30 6999 H 661.955 -2.96648 -1.31036 0
M  V30 7000 H 661.74 -3.91647 0.188334 0
M  V30 7001 H 663.23 -4.10168 -0.784365 0
M  V30 7002 N 663.667 -0.670007 -1.42649 0
M  V30 7003 C 664.914 -0.190286 -2.01604 0
M  V30 7004 C 665.242 1.20155 -1.52948 0
M  V30 7005 O 664.497 1.81964 -0.72026 0
M  V30 7006 C 664.796 -0.168298 -3.57004 0
M  V30 7007 C 664.462 -1.50415 -4.25072 0
M  V30 7008 C 663.124 -1.86992 -4.43382 0
M  V30 7009 C 665.476 -2.38414 -4.63474 0
M  V30 7010 C 662.804 -3.11203 -4.97363 0
M  V30 7011 C 665.156 -3.61933 -5.18833 0
M  V30 7012 C 663.82 -3.98685 -5.35356 0
M  V30 7013 H 663.09 -0.0696305 -0.737721 0
M  V30 7014 H 665.737 -0.864044 -1.70899 0
M  V30 7015 H 664.042 0.588958 -3.87348 0
M  V30 7016 H 665.739 0.22001 -4.00396 0
M  V30 7017 H 662.329 -1.20959 -4.11177 0
M  V30 7018 H 666.513 -2.11442 -4.49006 0
M  V30 7019 H 661.769 -3.39705 -5.08341 0
M  V30 7020 H 665.943 -4.30326 -5.47533 0
M  V30 7021 H 663.57 -4.95009 -5.76949 0
M  V30 7022 N 665.145 1.52092 -0.413018 0
M  V30 7023 C 666.093 2.28681 0.425199 0
M  V30 7024 C 667.087 1.3353 1.04241 0
M  V30 7025 O 668.293 1.50973 0.980166 0
M  V30 7026 H 664.668 0.735661 0.155906 0
M  V30 7027 H 666.639 2.97418 -0.241926 0
M  V30 7028 C 665.388 3.1235 1.5275 0
M  V30 7029 H 664.711 3.85439 1.06191 0
M  V30 7030 H 666.151 3.69038 2.08774 0
M  V30 7031 C 664.61 2.26161 2.49706 0
M  V30 7032 O 665.14 1.90452 3.53682 0
M  V30 7033 N 663.346 1.89854 2.20008 0
M  V30 7034 H 662.893 2.19092 1.35486 0
M  V30 7035 H 662.851 1.3248 2.85125 0
M  V30 7036 N 666.623 0.143563 1.56945 0
M  V30 7037 C 668.034 -0.37783 1.82837 0
M  V30 7038 C 668.385 -1.64967 1.06209 0
M  V30 7039 O 667.51 -2.14221 0.306291 0
M  V30 7040 C 668.105 -0.692274 3.31652 0
M  V30 7041 C 666.664 -1.1582 3.58138 0
M  V30 7042 C 665.811 -0.17951 2.76718 0
M  V30 7043 H 668.762 0.368317 1.54367 0
M  V30 7044 H 668.783 -1.54729 3.47619 0
M  V30 7045 H 668.295 0.233572 3.87397 0
M  V30 7046 H 666.396 -2.10011 3.07776 0
M  V30 7047 H 666.509 -1.08655 4.66616 0
M  V30 7048 H 664.873 -0.671458 2.4569 0
M  V30 7049 H 665.656 0.739865 3.35233 0
M  V30 7050 N 668.101 -1.57061 -0.130224 0
M  V30 7051 C 669.048 -1.99517 -1.16024 0
M  V30 7052 C 670.018 -0.865452 -1.41771 0
M  V30 7053 O 671.203 -1.12882 -1.53826 0
M  V30 7054 C 668.343 -2.3951 -2.48453 0
M  V30 7055 C 667.456 -3.65848 -2.29737 0
M  V30 7056 C 666.591 -3.9487 -3.55318 0
M  V30 7057 C 665.63 -5.14426 -3.31711 0
M  V30 7058 N 664.767 -5.39375 -4.49466 0
M  V30 7059 H 669.607 -2.87305 -0.791194 0
M  V30 7060 H 667.144 -1.42129 -0.379195 0
M  V30 7061 H 669.102 -2.60731 -3.25692 0
M  V30 7062 H 667.732 -1.54779 -2.83272 0
M  V30 7063 H 666.784 -3.52307 -1.4347 0
M  V30 7064 H 668.096 -4.53241 -2.08263 0
M  V30 7065 H 667.25 -4.16679 -4.4098 0
M  V30 7066 H 665.989 -3.05931 -3.79813 0
M  V30 7067 H 664.994 -4.92473 -2.44439 0
M  V30 7068 H 666.219 -6.04933 -3.08598 0
M  V30 7069 H 664.165 -4.53391 -4.74102 0
M  V30 7070 H 664.082 -6.21069 -4.31055 0
M  V30 7071 H 665.35 -5.65694 -5.36293 0
M  V30 7072 N 669.579 0.400081 -1.52437 0
M  V30 7073 C 670.509 1.4947 -1.7939 0
M  V30 7074 C 671.49 1.57383 -0.645329 0
M  V30 7075 O 672.675 1.72511 -0.891826 0
M  V30 7076 C 669.805 2.87201 -1.95276 0
M  V30 7077 C 668.759 2.94134 -3.10917 0
M  V30 7078 C 668.085 4.34207 -3.1204 0
M  V30 7079 C 669.385 2.64791 -4.50203 0
M  V30 7080 H 671.079 1.27165 -2.71052 0
M  V30 7081 H 668.625 0.610312 -1.30427 0
M  V30 7082 H 670.578 3.63772 -2.12715 0
M  V30 7083 H 669.302 3.10819 -1.00294 0
M  V30 7084 H 667.961 2.20009 -2.93243 0
M  V30 7085 H 667.609 4.54848 -2.14761 0
M  V30 7086 H 667.309 4.39768 -3.89715 0
M  V30 7087 H 668.833 5.127 -3.31619 0
M  V30 7088 H 670.247 3.31083 -4.68035 0
M  V30 7089 H 668.644 2.81717 -5.29864 0
M  V30 7090 H 669.714 1.60184 -4.57678 0
M  V30 7091 N 671.057 1.43213 0.657864 0
M  V30 7092 C 672.297 1.46083 1.42965 0
M  V30 7093 C 672.661 0.0809712 1.91829 0
M  V30 7094 O 673.862 -0.0156305 2.68795 0
M  V30 7095 C 672.133 2.47044 2.58271 0
M  V30 7096 S 673.692 2.68753 3.46868 0
M  V30 7097 H 670.51 0.517015 0.488074 0
M  V30 7098 H 673.112 1.79945 0.764213 0
M  V30 7099 H 671.816 3.46044 2.20639 0
M  V30 7100 H 671.347 2.14665 3.2967 0
M  V30 7101 H 673.362 1.98329 4.54841 0
M  V30 7102 N 672.536 -0.895792 1.29666 0
M  V30 7103 C 673.782 -1.64908 1.18039 0
M  V30 7104 C 674.115 -1.9236 -0.266682 0
M  V30 7105 O 673.39 -1.53682 -1.19214 0
M  V30 7106 C 673.673 -2.99574 1.99819 0
M  V30 7107 C 673.526 -2.79163 3.52687 0
M  V30 7108 C 674.845 -4.00358 1.82761 0
M  V30 7109 H 671.964 -0.598437 0.430165 0
M  V30 7110 H 674.606 -1.03736 1.59182 0
M  V30 7111 H 672.756 -3.51786 1.64859 0
M  V30 7112 H 674.428 -2.33821 3.9765 0
M  V30 7113 H 672.671 -2.13871 3.77414 0
M  V30 7114 H 673.342 -3.74871 4.05186 0
M  V30 7115 H 675.818 -3.57268 2.13304 0
M  V30 7116 H 674.694 -4.92514 2.42325 0
M  V30 7117 H 674.955 -4.35096 0.783839 0
M  V30 7118 N 674.014 -1.12206 -1.10668 0
M  V30 7119 C 675.239 -0.898938 -1.86906 0
M  V30 7120 C 675.664 0.546346 -1.79991 0
M  V30 7121 O 675.022 1.38655 -1.1681 0
M  V30 7122 C 675.07 -1.37529 -3.33344 0
M  V30 7123 O 674.174 -0.55218 -4.08687 0
M  V30 7124 H 673.515 -0.323163 -0.580053 0
M  V30 7125 H 676.045 -1.49355 -1.39837 0
M  V30 7126 H 676.055 -1.3733 -3.84193 0
M  V30 7127 H 674.73 -2.42767 -3.37693 0
M  V30 7128 H 673.307 -0.620947 -3.67694 0
M  V30 7129 N 675.492 1.28418 -0.913599 0
M  V30 7130 C 676.402 2.31043 -0.406965 0
M  V30 7131 C 677.418 1.66501 0.505298 0
M  V30 7132 O 678.594 1.97558 0.391522 0
M  V30 7133 C 675.659 3.4498 0.344901 0
M  V30 7134 C 674.72 4.25078 -0.600563 0
M  V30 7135 C 673.953 5.33575 0.115516 0
M  V30 7136 O 674.176 5.54503 1.33727 0
M  V30 7137 O 673.11 5.9939 -0.549095 0
M  V30 7138 H 676.936 2.76387 -1.25873 0
M  V30 7139 H 674.521 1.33109 -0.678415 0
M  V30 7140 H 676.403 4.14314 0.769542 0
M  V30 7141 H 675.078 3.01719 1.1725 0
M  V30 7142 H 673.985 3.58334 -1.0746 0
M  V30 7143 H 675.318 4.72018 -1.39497 0
M  V30 7144 N 676.97 0.677563 1.42291 0
M  V30 7145 C 678.219 0.198173 2.00724 0
M  V30 7146 C 678.532 -1.20325 1.54211 0
M  V30 7147 O 679.738 -1.77916 2.05081 0
M  V30 7148 C 678.194 0.303432 3.58619 0
M  V30 7149 C 677.802 1.70909 4.14119 0
M  V30 7150 C 679.546 -0.117103 4.24338 0
M  V30 7151 C 677.453 1.76696 5.64387 0
M  V30 7152 H 676.383 0.070329 0.750713 0
M  V30 7153 H 679.034 0.843147 1.62982 0
M  V30 7154 H 677.416 -0.409482 3.93877 0
M  V30 7155 H 678.59 2.44931 3.90315 0
M  V30 7156 H 676.905 2.07771 3.6086 0
M  V30 7157 H 679.502 -0.0940471 5.34617 0
M  V30 7158 H 679.845 -1.15283 4.00019 0
M  V30 7159 H 680.378 0.5449 3.9405 0
M  V30 7160 H 677.117 2.7826 5.93508 0
M  V30 7161 H 676.637 1.07034 5.90173 0
M  V30 7162 H 678.316 1.52166 6.28852 0
M  V30 7163 N 678.448 -1.51871 0.421078 0
M  V30 7164 C 679.678 -2.06057 -0.149723 0
M  V30 7165 C 680.086 -1.29002 -1.38402 0
M  V30 7166 O 679.429 -0.338385 -1.80556 0
M  V30 7167 C 679.491 -3.55216 -0.553339 0
M  V30 7168 C 679.155 -4.53408 0.571879 0
M  V30 7169 C 680.152 -4.99586 1.4391 0
M  V30 7170 C 677.837 -4.967 0.747979 0
M  V30 7171 C 679.831 -5.87711 2.46727 0
M  V30 7172 C 677.518 -5.84619 1.77944 0
M  V30 7173 C 678.516 -6.30021 2.63748 0
M  V30 7174 O 678.204 -7.16197 3.65126 0
M  V30 7175 H 677.936 -0.675744 -0.0186102 0
M  V30 7176 H 680.49 -1.96618 0.594166 0
M  V30 7177 H 678.72 -3.62381 -1.34969 0
M  V30 7178 H 680.409 -3.91992 -1.05342 0
M  V30 7179 H 681.175 -4.66846 1.31451 0
M  V30 7180 H 677.054 -4.60913 0.0897357 0
M  V30 7181 H 680.598 -6.2307 3.13734 0
M  V30 7182 H 676.495 -6.16771 1.90429 0
M  V30 7183 H 677.263 -7.34337 3.61512 0
M  V30 7184 N 679.926 -0.151884 -1.56866 0
M  V30 7185 C 681.342 0.204486 -1.58285 0
M  V30 7186 C 681.542 1.6431 -1.16639 0
M  V30 7187 O 680.598 2.37077 -0.868946 0
M  V30 7188 C 681.911 -0.0587019 -3.00643 0
M  V30 7189 C 683.459 0.00462303 -3.13 0
M  V30 7190 C 683.934 -0.231297 -4.57416 0
M  V30 7191 N 685.425 -0.178394 -4.62856 0
M  V30 7192 C 686.16 -0.335379 -5.72418 0
M  V30 7193 N 685.656 -0.550355 -6.90611 0
M  V30 7194 N 687.449 -0.272641 -5.61438 0
M  V30 7195 H 679.6 -1.09116 -1.82229 0
M  V30 7196 H 681.863 -0.432311 -0.843689 0
M  V30 7197 H 681.569 -1.05453 -3.35518 0
M  V30 7198 H 681.443 0.658508 -3.71407 0
M  V30 7199 H 683.83 0.991009 -2.77962 0
M  V30 7200 H 683.911 -0.744992 -2.44711 0
M  V30 7201 H 683.555 -1.2148 -4.93158 0
M  V30 7202 H 683.485 0.5387 -5.23837 0
M  V30 7203 H 685.976 -0.0170923 -3.77896 0
M  V30 7204 H 686.289 -0.660116 -7.69976 0
M  V30 7205 H 684.634 -0.586736 -6.92519 0
M  V30 7206 H 687.825 -0.105421 -4.67981 0
M  V30 7207 H 687.998 -0.398418 -6.46774 0
M  V30 7208 N 681.404 1.57128 0.121893 0
M  V30 7209 C 682.337 1.95327 1.17995 0
M  V30 7210 C 683.315 0.822524 1.40262 0
M  V30 7211 O 684.499 1.08044 1.54463 0
M  V30 7212 C 681.626 2.24699 2.53432 0
M  V30 7213 C 680.672 3.47263 2.4761 0
M  V30 7214 S 681.505 4.99951 1.91857 0
M  V30 7215 C 682.661 5.32473 3.28973 0
M  V30 7216 H 682.894 2.84765 0.854182 0
M  V30 7217 H 680.427 1.50864 0.328534 0
M  V30 7218 H 682.385 2.423 3.31362 0
M  V30 7219 H 681.046 1.3588 2.83188 0
M  V30 7220 H 680.239 3.65171 3.4737 0
M  V30 7221 H 679.841 3.29034 1.778 0
M  V30 7222 H 682.133 5.27478 4.25175 0
M  V30 7223 H 683.076 6.33732 3.15895 0
M  V30 7224 H 683.484 4.59952 3.27268 0
M  V30 7225 N 682.882 -0.391992 1.52647 0
M  V30 7226 C 683.792 -1.503 1.80131 0
M  V30 7227 C 684.808 -1.59825 0.687882 0
M  V30 7228 O 685.984 -1.76218 0.975149 0
M  V30 7229 C 683.049 -2.85863 1.96171 0
M  V30 7230 C 682.11 -2.86084 3.20085 0
M  V30 7231 C 681.343 -4.15181 3.35351 0
M  V30 7232 O 681.566 -5.09981 2.55491 0
M  V30 7233 O 680.5 -4.22603 4.28591 0
M  V30 7234 H 684.326 -1.30007 2.74466 0
M  V30 7235 H 681.911 -0.579539 1.37701 0
M  V30 7236 H 683.793 -3.66236 2.08445 0
M  V30 7237 H 682.468 -3.06189 1.05025 0
M  V30 7238 H 681.375 -2.04504 3.13256 0
M  V30 7239 H 682.708 -2.7071 4.11068 0
M  V30 7240 N 684.36 -1.4356 -0.65026 0
M  V30 7241 C 685.27 -1.514 -1.79207 0
M  V30 7242 C 686.286 -0.400895 -1.69319 0
M  V30 7243 O 687.462 -0.655458 -1.90436 0
M  V30 7244 C 684.527 -1.43737 -3.155 0
M  V30 7245 C 683.588 -2.65743 -3.37163 0
M  V30 7246 C 682.821 -2.58436 -4.66954 0
M  V30 7247 O 683.044 -1.63374 -5.46503 0
M  V30 7248 O 681.978 -3.48984 -4.90402 0
M  V30 7249 H 685.804 -2.47825 -1.75547 0
M  V30 7250 H 683.389 -1.25594 -0.809111 0
M  V30 7251 H 685.271 -1.41916 -3.96784 0
M  V30 7252 H 683.946 -0.504488 -3.19745 0
M  V30 7253 H 682.853 -2.73136 -2.55632 0
M  V30 7254 H 684.186 -3.58014 -3.37768 0
M  V30 7255 N 685.838 0.888903 -1.30139 0
M  V30 7256 C 687.084 1.6428 -1.18912 0
M  V30 7257 C 687.417 1.92499 0.256477 0
M  V30 7258 O 686.692 1.54312 1.18397 0
M  V30 7259 C 686.975 2.9851 -2.01405 0
M  V30 7260 C 686.828 2.77288 -3.54163 0
M  V30 7261 C 688.147 3.99383 -1.84882 0
M  V30 7262 H 685.266 0.596148 -0.433333 0
M  V30 7263 H 687.908 1.0289 -1.5973 0
M  V30 7264 H 686.058 3.50907 -1.66722 0
M  V30 7265 H 687.73 2.31709 -3.98884 0
M  V30 7266 H 685.973 2.11867 -3.78543 0
M  V30 7267 H 686.644 3.72717 -4.07168 0
M  V30 7268 H 689.12 3.56132 -2.15196 0
M  V30 7269 H 687.996 4.91222 -2.44934 0
M  V30 7270 H 688.257 4.34674 -0.806902 0
M  V30 7271 N 687.317 1.12792 1.10072 0
M  V30 7272 C 688.545 0.908506 1.85886 0
M  V30 7273 C 688.96 -0.542408 1.80841 0
M  V30 7274 O 688.317 -1.37517 1.1998 0
M  V30 7275 C 688.368 1.37973 3.34134 0
M  V30 7276 O 688.089 2.77378 3.39106 0
M  V30 7277 C 689.59 1.1978 4.26811 0
M  V30 7278 H 686.81 0.3244 0.587372 0
M  V30 7279 H 689.354 1.49882 1.39125 0
M  V30 7280 H 687.509 0.832566 3.78348 0
M  V30 7281 H 687.923 2.98144 4.31521 0
M  V30 7282 H 689.397 1.57635 5.29014 0
M  V30 7283 H 689.874 0.138768 4.38981 0
M  V30 7284 H 690.48 1.73266 3.88406 0
M  V30 7285 N 688.795 -1.27931 0.920396 0
M  V30 7286 C 690.043 -1.94304 0.555906 0
M  V30 7287 C 690.364 -1.72753 -0.904519 0
M  V30 7288 O 689.634 -1.07104 -1.64029 0
M  V30 7289 H 688.214 -0.719001 0.202599 0
M  V30 7290 H 690.876 -1.55785 1.1712 0
M  V30 7291 H 689.972 -3.02806 0.755981 0
M  V30 7292 N 690.273 -0.685099 -1.4193 0
M  V30 7293 C 691.501 -0.220372 -2.05723 0
M  V30 7294 C 691.916 1.12642 -1.51516 0
M  V30 7295 O 691.273 1.70182 -0.659114 0
M  V30 7296 C 691.324 -0.157974 -3.61155 0
M  V30 7297 O 691.045 -1.45156 -4.13354 0
M  V30 7298 C 692.546 0.329009 -4.42077 0
M  V30 7299 H 689.766 -0.104725 -0.662777 0
M  V30 7300 H 692.31 -0.934736 -1.81887 0
M  V30 7301 H 690.465 0.507144 -3.84066 0
M  V30 7302 H 690.879 -1.33172 -5.07312 0
M  V30 7303 H 692.353 0.321559 -5.51063 0
M  V30 7304 H 692.83 1.36608 -4.17414 0
M  V30 7305 H 693.436 -0.304737 -4.24207 0
M  V30 7306 N 691.751 1.51645 -0.429126 0
M  V30 7307 C 692.698 2.27542 0.386446 0
M  V30 7308 C 693.668 1.30786 1.02393 0
M  V30 7309 O 694.853 1.59678 1.0444 0
M  V30 7310 C 691.993 3.11457 1.48623 0
M  V30 7311 C 691.106 4.23196 0.867691 0
M  V30 7312 C 690.241 4.94435 1.94183 0
M  V30 7313 C 689.28 5.98108 1.30129 0
M  V30 7314 N 688.417 6.62786 2.31644 0
M  V30 7315 H 693.257 2.968 -0.267155 0
M  V30 7316 H 690.794 1.46397 -0.143591 0
M  V30 7317 H 692.752 3.58429 2.13506 0
M  V30 7318 H 691.382 2.44329 2.10957 0
M  V30 7319 H 690.434 3.80248 0.107373 0
M  V30 7320 H 691.746 4.97499 0.35997 0
M  V30 7321 H 690.9 5.44914 2.66747 0
M  V30 7322 H 689.639 4.19744 2.48326 0
M  V30 7323 H 688.644 5.4693 0.561082 0
M  V30 7324 H 689.869 6.74751 0.767303 0
M  V30 7325 H 687.815 5.90913 2.84883 0
M  V30 7326 H 687.732 7.32828 1.85741 0
M  V30 7327 H 689 7.17897 3.03717 0
M  V30 7328 N 693.229 0.160201 1.56784 0
M  V30 7329 C 694.477 -0.486625 1.96154 0
M  V30 7330 C 694.798 -1.64525 1.04673 0
M  V30 7331 O 694.068 -1.95586 0.110864 0
M  V30 7332 H 692.648 -0.182764 0.724297 0
M  V30 7333 H 695.31 0.238787 1.93432 0
M  V30 7334 H 694.406 -0.854025 3.00188 0
M  V30 7335 N 694.707 -1.5719 -0.113559 0
M  V30 7336 C 696.123 -1.52607 -0.467253 0
M  V30 7337 C 696.323 -0.874058 -1.81556 0
M  V30 7338 O 695.379 -0.458703 -2.48299 0
M  V30 7339 C 696.692 -2.97363 -0.446736 0
M  V30 7340 C 698.24 -3.08482 -0.529903 0
M  V30 7341 C 698.715 -4.54809 -0.539721 0
M  V30 7342 N 700.206 -4.59284 -0.601005 0
M  V30 7343 C 700.941 -5.69927 -0.630138 0
M  V30 7344 N 700.437 -6.90051 -0.616589 0
M  V30 7345 N 702.23 -5.5805 -0.673558 0
M  V30 7346 H 694.381 -1.97958 0.769819 0
M  V30 7347 H 696.644 -0.90428 0.284572 0
M  V30 7348 H 696.35 -3.48458 0.47643 0
M  V30 7349 H 696.224 -3.55086 -1.27254 0
M  V30 7350 H 698.611 -2.57386 -1.44349 0
M  V30 7351 H 698.692 -2.53744 0.323695 0
M  V30 7352 H 698.336 -5.06552 0.369843 0
M  V30 7353 H 698.266 -5.07364 -1.41028 0
M  V30 7354 H 700.757 -3.72822 -0.617419 0
M  V30 7355 H 701.07 -7.70132 -0.641592 0
M  V30 7356 H 699.415 -6.92543 -0.583927 0
M  V30 7357 H 702.606 -4.63112 -0.681544 0
M  V30 7358 H 702.779 -6.44286 -0.692794 0
M  V30 7359 N 696.185 0.383891 -1.52853 0
M  V30 7360 C 697.117 1.48889 -1.74255 0
M  V30 7361 C 698.13 1.50405 -0.623063 0
M  V30 7362 O 699.319 1.54215 -0.898887 0
M  V30 7363 C 696.419 2.87721 -1.79081 0
M  V30 7364 C 695.592 3.10111 -3.08464 0
M  V30 7365 C 694.651 4.28954 -3.0477 0
M  V30 7366 O 693.677 4.25012 -3.78621 0
M  V30 7367 N 694.879 5.35411 -2.24311 0
M  V30 7368 H 697.644 1.30915 -2.69595 0
M  V30 7369 H 695.205 0.573454 -1.51404 0
M  V30 7370 H 697.197 3.65333 -1.7411 0
M  V30 7371 H 695.767 2.99029 -0.911052 0
M  V30 7372 H 694.987 2.20319 -3.26884 0
M  V30 7373 H 696.275 3.21928 -3.94005 0
M  V30 7374 H 695.673 5.41471 -1.63787 0
M  V30 7375 H 694.23 6.1167 -2.25175 0
M  V30 7376 N 697.663 1.43903 0.642637 0
M  V30 7377 C 698.888 1.49758 1.43483 0
M  V30 7378 C 699.313 0.119911 1.87717 0
M  V30 7379 O 698.671 -0.888558 1.58033 0
M  V30 7380 C 698.719 2.45744 2.63898 0
M  V30 7381 O 697.823 1.95101 3.63331 0
M  V30 7382 H 697.164 0.506138 0.429791 0
M  V30 7383 H 699.694 1.88923 0.785438 0
M  V30 7384 H 699.704 2.63399 3.11584 0
M  V30 7385 H 698.379 3.45818 2.31046 0
M  V30 7386 H 696.956 1.87158 3.22531 0
M  V30 7387 N 699.141 -0.881989 1.30609 0
M  V30 7388 C 700.088 -1.98803 1.17244 0
M  V30 7389 C 701.058 -1.65987 0.0611905 0
M  V30 7390 O 702.243 -1.89385 0.231911 0
M  V30 7391 C 699.383 -3.33867 0.87333 0
M  V30 7392 C 698.496 -3.79354 2.06675 0
M  V30 7393 C 697.631 -5.03078 1.70547 0
M  V30 7394 C 696.67 -5.40981 2.86366 0
M  V30 7395 N 695.807 -6.55886 2.50514 0
M  V30 7396 H 700.647 -2.09566 2.11863 0
M  V30 7397 H 698.184 -1.02607 1.05405 0
M  V30 7398 H 700.142 -4.11612 0.680519 0
M  V30 7399 H 698.772 -3.2278 -0.0359983 0
M  V30 7400 H 697.824 -2.97492 2.37071 0
M  V30 7401 H 699.136 -4.03382 2.93401 0
M  V30 7402 H 698.29 -5.88457 1.47658 0
M  V30 7403 H 697.029 -4.80927 0.809947 0
M  V30 7404 H 696.034 -4.54127 3.09917 0
M  V30 7405 H 697.259 -5.65104 3.76609 0
M  V30 7406 H 695.205 -6.35306 1.63471 0
M  V30 7407 H 695.122 -6.79799 3.30771 0
M  V30 7408 H 696.39 -7.44489 2.30989 0
M  V30 7409 N 700.619 -1.13374 -1.09472 0
M  V30 7410 C 701.867 -0.893422 -1.8128 0
M  V30 7411 C 702.188 0.582029 -1.86111 0
M  V30 7412 O 701.458 1.42305 -1.34633 0
M  V30 7413 H 700.038 -0.327543 -0.67136 0
M  V30 7414 H 702.7 -1.43018 -1.32408 0
M  V30 7415 H 701.796 -1.28374 -2.84476 0
M  V30 7416 N 702.098 1.27442 -0.927168 0
M  V30 7417 C 703.375 1.89473 -0.485742 0
M  V30 7418 C 703.755 1.83922 1.03614 0
M  V30 7419 O 703.103 1.28409 1.89007 0
M  V30 7420 C 703.313 3.33417 -1.03123 0
M  V30 7421 C 704.661 4.10333 -1.0914 0
M  V30 7422 O 705.685 3.4243 -0.98082 0
M  V30 7423 O 704.544 5.31737 -1.26165 0
M  V30 7424 H 701.638 0.812124 -0.156154 0
M  V30 7425 H 704.184 1.35713 -1.01882 0
M  V30 7426 H 702.956 3.31747 -2.07508 0
M  V30 7427 H 702.579 3.94695 -0.479767 0
M  V30 7428 N 703.576 0.692616 1.41565 0
M  V30 7429 C 704.825 0.219452 2.00503 0
M  V30 7430 C 705.138 -1.18683 1.55479 0
M  V30 7431 O 706.344 -1.75731 2.06956 0
M  V30 7432 C 704.8 0.341451 3.58277 0
M  V30 7433 C 704.408 1.75291 4.12283 0
M  V30 7434 C 706.152 -0.0720899 4.24439 0
M  V30 7435 C 704.059 1.82673 5.62481 0
M  V30 7436 H 702.989 0.0782874 0.749925 0
M  V30 7437 H 705.64 0.860386 1.62079 0
M  V30 7438 H 704.022 -0.367683 3.94289 0
M  V30 7439 H 705.196 2.49057 3.87695 0
M  V30 7440 H 703.511 2.11587 3.58636 0
M  V30 7441 H 706.108 -0.0373385 5.34687 0
M  V30 7442 H 706.451 -1.11034 4.0122 0
M  V30 7443 H 706.984 0.586663 3.9345 0
M  V30 7444 H 703.723 2.84539 5.90523 0
M  V30 7445 H 703.243 1.13288 5.89004 0
M  V30 7446 H 704.922 1.58827 6.27203 0
M  V30 7447 N 705.054 -1.51416 0.437162 0
M  V30 7448 C 706.002 -2.29328 -0.388765 0
M  V30 7449 C 706.996 -1.35171 -1.02104 0
M  V30 7450 O 708.202 -1.52513 -0.956024 0
M  V30 7451 H 704.577 -0.738048 -0.144183 0
M  V30 7452 H 706.548 -2.96995 0.289212 0
M  V30 7453 C 705.297 -3.14741 -1.47761 0
M  V30 7454 H 704.62 -3.8708 -1.00045 0
M  V30 7455 H 706.06 -3.72313 -2.02877 0
M  V30 7456 C 704.519 -2.30105 -2.46076 0
M  V30 7457 O 705.049 -1.96055 -3.50607 0
M  V30 7458 N 703.255 -1.93331 -2.1696 0
M  V30 7459 H 702.802 -2.2122 -1.31983 0
M  V30 7460 H 702.76 -1.36999 -2.82982 0
M  V30 7461 N 706.532 -0.168513 -1.56696 0
M  V30 7462 C 707.76 0.483503 -2.01171 0
M  V30 7463 C 708.175 1.56994 -1.04872 0
M  V30 7464 O 707.532 1.82434 -0.0491337 0
M  V30 7465 C 707.583 1.0644 -3.45475 0
M  V30 7466 O 707.304 0.0213375 -4.38095 0
M  V30 7467 C 708.805 1.79493 -4.05336 0
M  V30 7468 H 706.025 0.124002 -0.659443 0
M  V30 7469 H 708.569 -0.269419 -2.02717 0
M  V30 7470 H 706.724 1.76784 -3.44712 0
M  V30 7471 H 707.138 0.449837 -5.22567 0
M  V30 7472 H 708.612 2.15401 -5.08238 0
M  V30 7473 H 709.089 2.68889 -3.47269 0
M  V30 7474 H 709.695 1.13798 -4.09793 0
M  V30 7475 N 708.01 1.57248 0.105221 0
M  V30 7476 C 709.426 1.52853 0.459153 0
M  V30 7477 C 709.626 0.883674 1.8109 0
M  V30 7478 O 708.682 0.471864 2.48052 0
M  V30 7479 C 709.995 2.97596 0.43096 0
M  V30 7480 C 711.543 3.08758 0.513536 0
M  V30 7481 C 712.018 4.55089 0.515593 0
M  V30 7482 N 713.509 4.59597 0.576639 0
M  V30 7483 C 714.244 5.70253 0.599904 0
M  V30 7484 N 713.74 6.90368 0.579985 0
M  V30 7485 N 715.533 5.58399 0.643953 0
M  V30 7486 H 707.684 1.97547 -0.780306 0
M  V30 7487 H 709.947 0.902758 -0.289363 0
M  V30 7488 H 709.653 3.48201 -0.494903 0
M  V30 7489 H 709.527 3.55756 1.2537 0
M  V30 7490 H 711.914 2.58148 1.42982 0
M  V30 7491 H 711.995 2.53568 -0.337148 0
M  V30 7492 H 711.639 5.06348 -0.396701 0
M  V30 7493 H 711.569 5.08105 1.38335 0
M  V30 7494 H 714.06 3.73144 0.597639 0
M  V30 7495 H 714.373 7.70462 0.600741 0
M  V30 7496 H 712.718 6.92843 0.547191 0
M  V30 7497 H 715.909 4.63467 0.656975 0
M  V30 7498 H 716.082 6.44644 0.658616 0
M  V30 7499 N 709.488 -0.375779 1.53054 0
M  V30 7500 C 710.436 -1.48015 1.79428 0
M  V30 7501 C 711.43 -1.55893 0.662854 0
M  V30 7502 O 712.636 -1.58901 0.845599 0
M  V30 7503 H 709.011 -0.492887 0.56795 0
M  V30 7504 H 710.982 -1.22971 2.71884 0
M  V30 7505 C 709.731 -2.84984 1.99197 0
M  V30 7506 H 709.054 -2.79677 2.85693 0
M  V30 7507 H 710.494 -3.61462 2.21633 0
M  V30 7508 C 708.953 -3.28025 0.768183 0
M  V30 7509 O 709.483 -4.01671 -0.0480482 0
M  V30 7510 N 707.689 -2.84454 0.594521 0
M  V30 7511 H 707.236 -2.24688 1.25988 0
M  V30 7512 H 707.194 -3.13609 -0.222916 0
M  V30 7513 N 710.966 -1.44241 -0.634997 0
M  V30 7514 C 711.914 -1.51103 -1.76835 0
M  V30 7515 C 712.908 -0.383051 -1.65012 0
M  V30 7516 O 714.114 -0.557832 -1.71138 0
M  V30 7517 H 710.489 -0.474076 -0.583743 0
M  V30 7518 H 712.46 -2.46499 -1.68169 0
M  V30 7519 C 711.209 -1.4687 -3.15158 0
M  V30 7520 H 710.532 -2.32979 -3.24901 0
M  V30 7521 H 711.972 -1.55731 -3.94365 0
M  V30 7522 C 710.431 -0.188884 -3.3637 0
M  V30 7523 O 710.961 0.742487 -3.94778 0
M  V30 7524 N 709.167 -0.0932516 -2.9045 0
M  V30 7525 H 708.714 -0.852004 -2.43102 0
M  V30 7526 H 708.672 0.762308 -3.05018 0
M  V30 7527 N 712.444 0.87505 -1.31075 0
M  V30 7528 C 713.692 1.62447 -1.20231 0
M  V30 7529 C 714.013 1.93506 0.240888 0
M  V30 7530 O 713.283 1.57847 1.16022 0
M  V30 7531 H 711.863 0.602207 -0.441991 0
M  V30 7532 H 714.525 1.04788 -1.64334 0
M  V30 7533 H 713.621 2.57031 -1.77036 0
M  V30 7534 N 713.922 1.13953 1.08869 0
M  V30 7535 C 714.832 0.835666 2.19212 0
M  V30 7536 C 715.848 -0.182005 1.73045 0
M  V30 7537 O 717.024 -0.0116661 2.01397 0
M  V30 7538 C 714.089 0.312325 3.4529 0
M  V30 7539 C 713.15 1.39196 4.06107 0
M  V30 7540 C 712.383 0.893496 5.26168 0
M  V30 7541 O 712.606 -0.266807 5.69776 0
M  V30 7542 O 711.54 1.67037 5.78258 0
M  V30 7543 H 715.366 1.75769 2.47667 0
M  V30 7544 H 712.951 0.917421 1.17914 0
M  V30 7545 H 714.833 0.0261582 4.21392 0
M  V30 7546 H 713.508 -0.582042 3.18424 0
M  V30 7547 H 712.415 1.73152 3.31616 0
M  V30 7548 H 713.748 2.26068 4.37212 0
M  V30 7549 N 715.4 -1.26948 0.933913 0
M  V30 7550 C 716.816 -1.46419 0.635103 0
M  V30 7551 C 717.016 -1.84336 -0.813785 0
M  V30 7552 O 716.072 -1.96061 -1.59111 0
M  V30 7553 C 717.385 -2.55206 1.5903 0
M  V30 7554 C 718.933 -2.69062 1.5992 0
M  V30 7555 C 719.408 -3.81013 2.54152 0
M  V30 7556 N 720.899 -3.88395 2.52395 0
M  V30 7557 C 721.634 -4.74454 3.21996 0
M  V30 7558 N 721.13 -5.64954 4.00997 0
M  V30 7559 N 722.923 -4.68237 3.10983 0
M  V30 7560 H 715.074 -1.00622 1.87053 0
M  V30 7561 H 717.337 -0.503189 0.803433 0
M  V30 7562 H 717.043 -2.34153 2.62422 0
M  V30 7563 H 716.917 -3.52719 1.33677 0
M  V30 7564 H 719.304 -2.89492 0.572569 0
M  V30 7565 H 719.385 -1.72016 1.89325 0
M  V30 7566 H 719.029 -3.61336 3.5693 0
M  V30 7567 H 718.959 -4.77499 2.22041 0
M  V30 7568 H 721.45 -3.23687 1.95025 0
M  V30 7569 H 721.763 -6.27496 4.51074 0
M  V30 7570 H 720.108 -5.6473 4.05099 0
M  V30 7571 H 723.299 -3.96535 2.48753 0
M  V30 7572 H 723.472 -5.35087 3.65494 0
M  V30 7573 N 716.879 -0.700114 -1.41195 0
M  V30 7574 C 717.842 -0.0465706 -2.29153 0
M  V30 7575 C 718.842 0.703302 -1.44604 0
M  V30 7576 O 720.032 0.537513 -1.657 0
M  V30 7577 C 717.164 0.944324 -3.2756 0
M  V30 7578 H 718.357 -0.821064 -2.88442 0
M  V30 7579 H 715.91 -0.463869 -1.49258 0
M  V30 7580 H 716.645 1.74642 -2.73259 0
M  V30 7581 H 716.43 0.409701 -3.89954 0
M  V30 7582 H 717.92 1.39925 -3.9346 0
M  V30 7583 N 718.357 1.51182 -0.445186 0
M  V30 7584 C 719.582 2.07056 0.119445 0
M  V30 7585 C 720.007 1.30966 1.35016 0
M  V30 7586 O 719.365 0.349827 1.77893 0
M  V30 7587 C 719.413 3.58234 0.412428 0
M  V30 7588 O 718.517 3.84249 1.49754 0
M  V30 7589 H 717.858 0.663998 -0.00157797 0
M  V30 7590 H 720.388 1.94699 -0.628779 0
M  V30 7591 H 720.398 4.02617 0.660583 0
M  V30 7592 H 719.073 4.13038 -0.487049 0
M  V30 7593 H 717.65 3.51724 1.23873 0
M  V30 7594 N 719.835 0.176821 1.56605 0
M  V30 7595 C 721.075 -0.469104 1.98944 0
M  V30 7596 C 721.439 -1.60048 1.06059 0
M  V30 7597 O 722.64 -2.30934 1.3756 0
M  V30 7598 C 720.911 -0.934571 3.44965 0
M  V30 7599 S 722.47 -1.58091 4.09332 0
M  V30 7600 H 719.288 -0.150695 0.694847 0
M  V30 7601 H 721.89 0.27558 1.93548 0
M  V30 7602 H 720.594 -0.100814 4.10276 0
M  V30 7603 H 720.125 -1.71316 3.54139 0
M  V30 7604 H 722.14 -2.86922 4.04834 0
M  V30 7605 N 721.313 -1.57302 -0.09688 0
M  V30 7606 C 722.223 -2.05258 -1.13606 0
M  V30 7607 C 723.239 -0.977137 -1.43972 0
M  V30 7608 O 724.415 -1.29018 -1.54649 0
M  V30 7609 C 721.48 -2.46593 -2.43706 0
M  V30 7610 C 720.541 -3.68322 -2.20538 0
M  V30 7611 C 719.774 -4.07676 -3.44435 0
M  V30 7612 O 719.997 -3.47141 -4.52603 0
M  V30 7613 O 718.931 -5.00641 -3.34129 0
M  V30 7614 H 722.757 -2.94069 -0.758752 0
M  V30 7615 H 720.342 -1.46164 -0.309263 0
M  V30 7616 H 722.224 -2.73814 -3.20318 0
M  V30 7617 H 720.899 -1.6092 -2.80867 0
M  V30 7618 H 719.806 -3.4622 -1.41713 0
M  V30 7619 H 721.139 -4.54769 -1.88271 0
M  V30 7620 N 722.791 0.367657 -1.53252 0
M  V30 7621 C 724.016 1.13566 -1.73544 0
M  V30 7622 C 724.441 1.82329 -0.462344 0
M  V30 7623 O 723.799 1.71655 0.583472 0
M  V30 7624 C 723.847 2.14322 -2.89997 0
M  V30 7625 O 722.951 3.21359 -2.58461 0
M  V30 7626 H 722.292 0.329614 -0.576412 0
M  V30 7627 H 724.822 0.425417 -2.00128 0
M  V30 7628 H 724.832 2.57958 -3.16104 0
M  V30 7629 H 723.507 1.63664 -3.82344 0
M  V30 7630 H 722.084 2.8271 -2.43165 0
M  V30 7631 N 724.269 1.44576 0.627338 0
M  V30 7632 C 725.546 1.38033 1.38586 0
M  V30 7633 C 725.926 0.0409468 2.1106 0
M  V30 7634 O 725.274 -0.976582 2.0658 0
M  V30 7635 C 725.484 2.58102 2.34913 0
M  V30 7636 C 726.832 3.02332 2.98129 0
M  V30 7637 O 727.856 2.58334 2.45238 0
M  V30 7638 O 726.715 3.78628 3.94085 0
M  V30 7639 H 723.809 0.546801 0.620434 0
M  V30 7640 H 726.355 1.56672 0.652077 0
M  V30 7641 H 725.127 3.4719 1.80485 0
M  V30 7642 H 724.75 2.41696 3.15703 0
M  V30 7643 N 725.747 -0.868086 1.31537 0
M  V30 7644 C 726.993 -1.62367 1.2151 0
M  V30 7645 C 727.326 -1.92883 -0.225819 0
M  V30 7646 O 726.601 -1.56176 -1.15927 0
M  V30 7647 C 726.884 -2.95268 2.06129 0
M  V30 7648 C 726.737 -2.71619 3.58529 0
M  V30 7649 C 728.056 -3.96391 1.91212 0
M  V30 7650 H 725.175 -0.589178 0.442762 0
M  V30 7651 H 727.817 -1.00336 1.61347 0
M  V30 7652 H 725.967 -3.4821 1.72284 0
M  V30 7653 H 727.639 -2.25334 4.0252 0
M  V30 7654 H 725.882 -2.05817 3.81866 0
M  V30 7655 H 726.553 -3.66192 4.13047 0
M  V30 7656 H 729.029 -3.52663 2.20834 0
M  V30 7657 H 727.905 -4.87263 2.52718 0
M  V30 7658 H 728.166 -4.33335 0.875953 0
M  V30 7659 N 727.225 -1.14528 -1.08264 0
M  V30 7660 C 728.155 -0.856356 -2.1723 0
M  V30 7661 C 729.136 0.189251 -1.69044 0
M  V30 7662 O 730.321 0.0456119 -1.94146 0
M  V30 7663 C 727.451 -0.334662 -3.45684 0
M  V30 7664 C 726.405 -1.31588 -4.0727 0
M  V30 7665 C 725.731 -0.653428 -5.30692 0
M  V30 7666 C 727.031 -2.67866 -4.48381 0
M  V30 7667 H 728.725 -1.76755 -2.41657 0
M  V30 7668 H 726.271 -0.851287 -1.16143 0
M  V30 7669 H 728.224 -0.120128 -4.21229 0
M  V30 7670 H 726.948 0.611967 -3.20815 0
M  V30 7671 H 725.607 -1.51661 -3.33758 0
M  V30 7672 H 725.255 0.299054 -5.0211 0
M  V30 7673 H 724.955 -1.30817 -5.72853 0
M  V30 7674 H 726.479 -0.448453 -6.08951 0
M  V30 7675 H 727.893 -2.51692 -5.15096 0
M  V30 7676 H 726.29 -3.29627 -5.01464 0
M  V30 7677 H 727.36 -3.24632 -3.60198 0
M  V30 7678 N 728.703 1.26451 -0.940633 0
M  V30 7679 C 729.653 2.24086 -0.420669 0
M  V30 7680 C 730.637 1.53501 0.482301 0
M  V30 7681 O 731.829 1.74127 0.317636 0
M  V30 7682 C 728.958 3.41866 0.313452 0
M  V30 7683 C 728.044 4.19737 -0.606779 0
M  V30 7684 N 728.435 4.7521 -1.73232 0
M  V30 7685 C 726.733 4.44091 -0.41226 0
M  V30 7686 C 727.434 5.34052 -2.30572 0
M  V30 7687 N 726.41 5.1971 -1.59381 0
M  V30 7688 H 730.212 2.64569 -1.27986 0
M  V30 7689 H 727.726 1.4153 -0.796436 0
M  V30 7690 H 729.723 4.1093 0.702991 0
M  V30 7691 H 728.383 3.0291 1.16942 0
M  V30 7692 H 729.394 4.72769 -2.11447 0
M  V30 7693 H 726.071 4.1556 0.401984 0
M  V30 7694 H 727.461 5.87845 -3.25404 0
M  V30 7695 N 730.181 0.707592 1.40822 0
M  V30 7696 C 731.428 0.243671 2.01029 0
M  V30 7697 C 731.756 -1.16057 1.5608 0
M  V30 7698 O 731.011 -1.7999 0.768251 0
M  V30 7699 C 731.31 0.262892 3.56432 0
M  V30 7700 C 730.976 1.61632 4.20935 0
M  V30 7701 C 729.638 1.98682 4.38268 0
M  V30 7702 C 731.99 2.50619 4.5699 0
M  V30 7703 C 729.318 3.2428 4.88937 0
M  V30 7704 C 731.67 3.75562 5.09054 0
M  V30 7705 C 730.334 4.12739 5.24598 0
M  V30 7706 H 729.604 0.0891654 0.735616 0
M  V30 7707 H 732.251 0.909051 1.68548 0
M  V30 7708 H 730.556 -0.486052 3.88773 0
M  V30 7709 H 732.253 -0.113775 4.00839 0
M  V30 7710 H 728.843 1.31818 4.07826 0
M  V30 7711 H 733.027 2.23272 4.43242 0
M  V30 7712 H 728.283 3.53064 4.99155 0
M  V30 7713 H 732.457 4.44692 5.35931 0
M  V30 7714 H 730.084 5.10132 5.63622 0
M  V30 7715 N 731.66 -1.50943 0.453197 0
M  V30 7716 C 732.888 -2.06628 -0.106135 0
M  V30 7717 C 733.303 -1.31901 -1.35084 0
M  V30 7718 O 732.66 -0.383074 -1.78434 0
M  V30 7719 C 732.711 -3.5914 -0.412368 0
M  V30 7720 O 732.432 -4.31047 0.782948 0
M  V30 7721 C 733.933 -4.31391 -1.02064 0
M  V30 7722 H 731.153 -0.670999 -0.000885896 0
M  V30 7723 H 733.697 -1.94331 0.63684 0
M  V30 7724 H 731.852 -3.71299 -1.10526 0
M  V30 7725 H 732.266 -5.21948 0.516736 0
M  V30 7726 H 733.74 -5.39135 -1.1848 0
M  V30 7727 H 734.217 -3.90714 -2.00598 0
M  V30 7728 H 734.823 -4.23716 -0.366664 0
M  V30 7729 N 733.138 -0.185124 -1.56509 0
M  V30 7730 C 734.363 0.465278 -2.02114 0
M  V30 7731 C 734.788 1.55083 -1.06447 0
M  V30 7732 O 734.146 1.81241 -0.0462852 0
M  V30 7733 C 734.194 1.00784 -3.46229 0
M  V30 7734 O 733.298 2.12123 -3.53663 0
M  V30 7735 H 732.639 0.109891 -0.654843 0
M  V30 7736 H 735.169 -0.293072 -2.0249 0
M  V30 7737 H 735.179 1.32697 -3.85818 0
M  V30 7738 H 733.854 0.213113 -4.15354 0
M  V30 7739 H 732.431 1.8115 -3.25943 0
M  V30 7740 N 734.616 1.57351 0.0885366 0
M  V30 7741 C 735.844 1.90631 0.804196 0
M  V30 7742 C 736.259 0.779474 1.71958 0
M  V30 7743 O 735.616 -0.248179 1.80805 0
M  V30 7744 C 735.667 3.23568 1.61202 0
M  V30 7745 O 735.388 4.31917 0.733447 0
M  V30 7746 C 736.889 3.70753 2.43016 0
M  V30 7747 H 734.109 0.630501 0.229585 0
M  V30 7748 H 736.653 2.044 0.0638092 0
M  V30 7749 H 734.808 3.11377 2.30485 0
M  V30 7750 H 735.222 5.08297 1.29361 0
M  V30 7751 H 736.696 4.66447 2.9518 0
M  V30 7752 H 737.173 2.98922 3.2178 0
M  V30 7753 H 737.779 3.85834 1.7892 0
M  V30 7754 N 736.094 -0.359525 1.53444 0
M  V30 7755 C 737.322 -1.12198 1.73837 0
M  V30 7756 C 737.737 -1.82854 0.470107 0
M  V30 7757 O 737.094 -1.73781 -0.557349 0
M  V30 7758 C 737.145 -2.14769 2.90786 0
M  V30 7759 O 736.866 -1.46989 4.12706 0
M  V30 7760 C 738.367 -3.03514 3.231 0
M  V30 7761 H 735.587 -0.33524 0.581253 0
M  V30 7762 H 738.131 -0.416598 2.00212 0
M  V30 7763 H 736.286 -2.80896 2.66788 0
M  V30 7764 H 736.7 -2.15378 4.78239 0
M  V30 7765 H 738.174 -3.71453 4.08322 0
M  V30 7766 H 738.651 -3.68658 2.38721 0
M  V30 7767 H 739.257 -2.42996 3.49046 0
M  V30 7768 N 737.572 -1.44907 -0.619662 0
M  V30 7769 C 738.8 -1.51795 -1.40591 0
M  V30 7770 C 739.215 -0.146553 -1.8823 0
M  V30 7771 O 738.572 0.849698 -1.61513 0
M  V30 7772 C 738.623 -2.49229 -2.61853 0
M  V30 7773 O 738.344 -3.81039 -2.16197 0
M  V30 7774 C 739.845 -2.65696 -3.54853 0
M  V30 7775 H 737.065 -0.514463 -0.430777 0
M  V30 7776 H 739.609 -1.8998 -0.756813 0
M  V30 7777 H 737.764 -2.14149 -3.2283 0
M  V30 7778 H 738.178 -4.33747 -2.94896 0
M  V30 7779 H 739.652 -3.37874 -4.36515 0
M  V30 7780 H 740.129 -1.71316 -4.0441 0
M  V30 7781 H 740.735 -3.01724 -2.99737 0
M  V30 7782 N 739.05 0.861098 -1.31996 0
M  V30 7783 C 740.275 1.65264 -1.2531 0
M  V30 7784 C 740.7 1.87265 0.177007 0
M  V30 7785 O 740.058 1.4208 1.12619 0
M  V30 7786 C 740.106 2.99284 -2.0115 0
M  V30 7787 O 739.21 3.89508 -1.3549 0
M  V30 7788 H 738.551 0.50409 -0.432192 0
M  V30 7789 H 741.081 1.07297 -1.74208 0
M  V30 7790 H 741.091 3.49154 -2.11081 0
M  V30 7791 H 739.766 2.82591 -3.05148 0
M  V30 7792 H 738.343 3.47966 -1.34066 0
M  V30 7793 N 740.528 1.15101 1.07655 0
M  V30 7794 C 741.475 0.844958 2.14777 0
M  V30 7795 C 742.445 -0.200798 1.64882 0
M  V30 7796 O 743.63 -0.0690278 1.90675 0
M  V30 7797 C 740.77 0.337018 3.4345 0
M  V30 7798 C 739.883 1.44398 4.07153 0
M  V30 7799 C 739.018 0.892487 5.23649 0
M  V30 7800 C 738.057 1.9766 5.79307 0
M  V30 7801 N 737.194 1.44171 6.87138 0
M  V30 7802 H 742.034 1.76242 2.40297 0
M  V30 7803 H 739.571 0.879435 1.17917 0
M  V30 7804 H 741.529 0.024256 4.17193 0
M  V30 7805 H 740.159 -0.543531 3.18191 0
M  V30 7806 H 739.211 1.87299 3.31094 0
M  V30 7807 H 740.523 2.26262 4.4453 0
M  V30 7808 H 739.677 0.532083 6.04362 0
M  V30 7809 H 738.416 0.0429854 4.87681 0
M  V30 7810 H 737.421 2.34586 4.97242 0
M  V30 7811 H 738.646 2.82982 6.17331 0
M  V30 7812 H 736.592 0.614518 6.53115 0
M  V30 7813 H 736.509 2.19665 7.23383 0
M  V30 7814 H 737.777 1.10945 7.71564 0
M  V30 7815 N 742.006 -1.2595 0.947325 0
M  V30 7816 C 742.954 -2.28152 0.452687 0
M  V30 7817 C 743.948 -1.62655 -0.473239 0
M  V30 7818 O 745.154 -1.76549 -0.350774 0
M  V30 7819 H 741.529 -0.741049 0.12787 0
M  V30 7820 H 743.5 -2.67267 1.32707 0
M  V30 7821 C 742.249 -3.46719 -0.26098 0
M  V30 7822 H 741.572 -3.97345 0.442352 0
M  V30 7823 H 743.012 -4.20135 -0.571208 0
M  V30 7824 C 741.471 -3.02605 -1.48094 0
M  V30 7825 O 742.001 -3.07979 -2.57899 0
M  V30 7826 N 740.207 -2.57877 -1.33969 0
M  V30 7827 H 739.754 -2.53704 -0.446295 0
M  V30 7828 H 739.712 -2.28725 -2.15713 0
M  V30 7829 N 743.484 -0.715051 -1.40445 0
M  V30 7830 C 744.9 -0.388555 -1.54798 0
M  V30 7831 C 745.1 1.10271 -1.68649 0
M  V30 7832 O 744.156 1.88875 -1.67578 0
M  V30 7833 C 745.469 -1.15414 -2.77669 0
M  V30 7834 C 747.017 -1.14039 -2.91486 0
M  V30 7835 C 747.492 -1.88812 -4.1727 0
M  V30 7836 N 748.983 -1.85878 -4.24268 0
M  V30 7837 C 749.718 -2.40558 -5.20499 0
M  V30 7838 N 749.214 -3.03791 -6.22642 0
M  V30 7839 N 751.007 -2.30703 -5.12574 0
M  V30 7840 H 743.158 -1.68201 -1.297 0
M  V30 7841 H 745.421 -0.710915 -0.627139 0
M  V30 7842 H 745.127 -2.20853 -2.7371 0
M  V30 7843 H 745.001 -0.745412 -3.69761 0
M  V30 7844 H 747.388 -0.0941996 -2.9495 0
M  V30 7845 H 747.469 -1.58834 -2.00513 0
M  V30 7846 H 747.113 -2.93422 -4.14568 0
M  V30 7847 H 747.043 -1.41438 -5.0725 0
M  V30 7848 H 749.534 -1.39794 -3.51093 0
M  V30 7849 H 749.847 -3.43032 -6.92495 0
M  V30 7850 H 748.192 -3.07875 -6.23087 0
M  V30 7851 H 751.383 -1.80961 -4.31707 0
M  V30 7852 H 751.556 -2.73618 -5.87398 0
M  V30 7853 N 744.962 1.50701 -0.461195 0
M  V30 7854 C 746.211 2.01458 0.0988277 0
M  V30 7855 C 746.524 1.34863 1.41673 0
M  V30 7856 O 747.73 1.76721 2.06111 0
M  V30 7857 C 746.186 3.59186 0.226648 0
M  V30 7858 C 745.794 4.34732 -1.08223 0
M  V30 7859 C 747.538 4.18015 0.73916 0
M  V30 7860 C 745.445 5.8422 -0.918747 0
M  V30 7861 H 744.375 0.7529 0.040709 0
M  V30 7862 H 747.026 1.736 -0.594589 0
M  V30 7863 H 745.408 3.83589 0.983621 0
M  V30 7864 H 746.582 4.22059 -1.84939 0
M  V30 7865 H 744.897 3.87466 -1.52509 0
M  V30 7866 H 747.494 5.27436 0.878347 0
M  V30 7867 H 747.837 3.78746 1.72793 0
M  V30 7868 H 748.37 3.9778 0.0398469 0
M  V30 7869 H 745.109 6.27944 -1.88059 0
M  V30 7870 H 744.629 5.99493 -0.191801 0
M  V30 7871 H 746.308 6.44382 -0.581405 0
M  V30 7872 N 746.441 0.193421 1.56409 0
M  V30 7873 C 747.69 -0.445995 1.96707 0
M  V30 7874 C 748.003 -1.62876 1.08309 0
M  V30 7875 O 749.209 -2.33586 1.38383 0
M  V30 7876 C 747.665 -0.844863 3.49843 0
M  V30 7877 C 747.273 0.31352 4.46902 0
M  V30 7878 C 749.017 -1.45146 3.98915 0
M  V30 7879 C 746.924 -0.106214 5.91305 0
M  V30 7880 H 745.854 -0.170398 0.734493 0
M  V30 7881 H 748.505 0.285172 1.81271 0
M  V30 7882 H 746.887 -1.63265 3.60778 0
M  V30 7883 H 748.061 1.09103 4.47698 0
M  V30 7884 H 746.376 0.8315 4.08014 0
M  V30 7885 H 748.973 -1.77792 5.04276 0
M  V30 7886 H 749.316 -2.35734 3.43126 0
M  V30 7887 H 749.849 -0.727675 3.91088 0
M  V30 7888 H 746.588 0.765442 6.51016 0
M  V30 7889 H 746.108 -0.848623 5.93766 0
M  V30 7890 H 747.787 -0.542588 6.44721 0
M  V30 7891 N 747.919 -1.57396 -0.0801906 0
M  V30 7892 C 749.168 -1.8602 -0.779702 0
M  V30 7893 C 749.481 -0.784864 -1.79163 0
M  V30 7894 O 750.687 -0.958691 -2.54011 0
M  V30 7895 C 749.143 -3.29942 -1.43758 0
M  V30 7896 C 748.751 -4.45584 -0.464654 0
M  V30 7897 C 750.495 -3.67775 -2.11995 0
M  V30 7898 C 748.402 -5.80544 -1.12797 0
M  V30 7899 H 747.332 -0.69392 -0.294943 0
M  V30 7900 H 749.983 -1.83471 -0.0328527 0
M  V30 7901 H 748.365 -3.27078 -2.2324 0
M  V30 7902 H 749.539 -4.59824 0.299749 0
M  V30 7903 H 747.854 -4.16247 0.112813 0
M  V30 7904 H 750.451 -4.65896 -2.62383 0
M  V30 7905 H 750.794 -2.9715 -2.91561 0
M  V30 7906 H 751.327 -3.72593 -1.39354 0
M  V30 7907 H 748.066 -6.54439 -0.372807 0
M  V30 7908 H 747.586 -5.70119 -1.86344 0
M  V30 7909 H 749.265 -6.25602 -1.6502 0
M  V30 7910 N 749.397 0.351382 -1.53633 0
M  V30 7911 C 750.625 1.11275 -1.74429 0
M  V30 7912 C 751.04 1.82602 -0.479798 0
M  V30 7913 O 750.397 1.74074 0.548125 0
M  V30 7914 C 750.448 2.13223 -2.91921 0
M  V30 7915 O 750.169 1.44798 -4.13479 0
M  V30 7916 C 751.67 3.01797 -3.24706 0
M  V30 7917 H 748.89 0.332153 -0.583023 0
M  V30 7918 H 751.434 0.405974 -2.0043 0
M  V30 7919 H 749.589 2.79477 -2.68274 0
M  V30 7920 H 750.003 2.12839 -4.79374 0
M  V30 7921 H 751.477 3.69282 -4.10286 0
M  V30 7922 H 751.954 3.67387 -2.40673 0
M  V30 7923 H 752.56 2.41141 -3.5033 0
M  V30 7924 N 750.875 1.45233 0.611969 0
M  V30 7925 C 752.121 1.50233 1.37119 0
M  V30 7926 C 752.476 0.140336 1.91888 0
M  V30 7927 O 751.769 -0.847161 1.71854 0
M  V30 7928 C 751.963 2.51353 2.54079 0
M  V30 7929 C 751.792 3.97251 2.10764 0
M  V30 7930 C 750.562 4.65256 1.97141 0
M  V30 7931 C 752.76 4.85914 1.68499 0
M  V30 7932 N 750.742 5.95895 1.4759 0
M  V30 7933 C 752.113 6.06147 1.30331 0
M  V30 7934 C 754.168 4.72813 1.56051 0
M  V30 7935 C 752.871 7.14729 0.809591 0
M  V30 7936 C 754.897 5.8144 1.08083 0
M  V30 7937 C 754.259 7.00825 0.708775 0
M  V30 7938 H 750.358 0.604708 0.495835 0
M  V30 7939 H 752.942 1.81679 0.700055 0
M  V30 7940 H 751.113 2.21866 3.18795 0
M  V30 7941 H 752.845 2.46528 3.20945 0
M  V30 7942 H 749.6 4.20345 2.18191 0
M  V30 7943 H 750.024 6.65349 1.25059 0
M  V30 7944 H 754.666 3.80931 1.83443 0
M  V30 7945 H 752.384 8.06404 0.523215 0
M  V30 7946 H 755.97 5.73335 0.988842 0
M  V30 7947 H 754.85 7.83448 0.343305 0
M  V30 7948 N 752.353 -0.854086 1.3245 0
M  V30 7949 C 753.303 -1.9508 1.18016 0
M  V30 7950 C 754.287 -1.60665 0.0869417 0
M  V30 7951 O 755.479 -1.74201 0.313505 0
M  V30 7952 C 752.608 -3.3113 0.905961 0
M  V30 7953 C 751.694 -3.71763 2.04091 0
M  V30 7954 N 752.085 -3.84218 3.28953 0
M  V30 7955 C 750.383 -4.01393 1.94421 0
M  V30 7956 C 751.084 -4.192 4.03294 0
M  V30 7957 N 750.06 -4.30749 3.31596 0
M  V30 7958 H 753.862 -2.02843 2.12678 0
M  V30 7959 H 751.376 -1.04588 1.24238 0
M  V30 7960 H 753.373 -4.09471 0.783508 0
M  V30 7961 H 752.033 -3.24684 -0.0322715 0
M  V30 7962 H 753.044 -3.68524 3.63883 0
M  V30 7963 H 749.721 -4.03246 1.08162 0
M  V30 7964 H 751.111 -4.36301 5.1097 0
M  V30 7965 N 753.831 -1.1567 -1.07043 0
M  V30 7966 C 755.247 -0.900006 -1.31803 0
M  V30 7967 C 755.447 0.451293 -1.96381 0
M  V30 7968 O 754.503 1.19252 -2.22565 0
M  V30 7969 C 755.816 -2.04334 -2.20609 0
M  V30 7970 C 757.364 -2.07823 -2.34048 0
M  V30 7971 C 757.839 -3.21488 -3.26204 0
M  V30 7972 N 759.33 -3.21156 -3.33786 0
M  V30 7973 C 760.065 -4.05746 -4.05163 0
M  V30 7974 N 759.561 -5.00407 -4.79129 0
M  V30 7975 N 761.354 -3.93759 -4.01136 0
M  V30 7976 H 753.505 -2.02681 -0.635146 0
M  V30 7977 H 755.768 -0.883956 -0.342528 0
M  V30 7978 H 755.474 -3.01895 -1.80423 0
M  V30 7979 H 755.348 -1.97838 -3.21154 0
M  V30 7980 H 757.735 -1.1086 -2.73485 0
M  V30 7981 H 757.816 -2.18386 -1.33197 0
M  V30 7982 H 757.46 -4.18706 -2.87485 0
M  V30 7983 H 757.39 -3.08162 -4.27017 0
M  V30 7984 H 759.881 -2.52606 -2.81067 0
M  V30 7985 H 760.194 -5.61387 -5.31097 0
M  V30 7986 H 758.539 -5.04393 -4.78135 0
M  V30 7987 H 761.73 -3.19115 -3.42466 0
M  V30 7988 H 761.903 -4.59906 -4.56498 0
M  V30 7989 N 755.309 1.25446 -0.953992 0
M  V30 7990 C 756.539 1.96929 -0.624688 0
M  V30 7991 C 756.947 1.71112 0.807292 0
M  V30 7992 O 756.29 0.983512 1.55154 0
M  V30 7993 C 756.352 3.50425 -0.802676 0
M  V30 7994 C 756.016 3.99916 -2.21169 0
M  V30 7995 C 757.013 4.10662 -3.18831 0
M  V30 7996 C 754.698 4.33598 -2.53571 0
M  V30 7997 C 756.692 4.54401 -4.46988 0
M  V30 7998 C 754.379 4.77024 -3.81958 0
M  V30 7999 C 755.377 4.87388 -4.78478 0
M  V30 8000 O 755.065 5.29851 -6.04577 0
M  V30 8001 H 754.797 0.634511 -0.233179 0
M  V30 8002 H 757.351 1.60591 -1.28061 0
M  V30 8003 H 755.581 3.86596 -0.0896044 0
M  V30 8004 H 757.27 4.03117 -0.47452 0
M  V30 8005 H 758.036 3.84872 -2.95124 0
M  V30 8006 H 753.915 4.24757 -1.79171 0
M  V30 8007 H 757.459 4.62406 -5.22328 0
M  V30 8008 H 753.356 5.02258 -4.05471 0
M  V30 8009 H 754.124 5.48039 -6.07944 0
M  V30 8010 N 756.787 0.722489 1.40064 0
M  V30 8011 C 758.203 0.396758 1.5459 0
M  V30 8012 C 758.403 -1.09375 1.69232 0
M  V30 8013 O 757.459 -1.87984 1.68578 0
M  V30 8014 C 758.772 1.16885 2.77053 0
M  V30 8015 C 760.32 1.15583 2.90877 0
M  V30 8016 C 760.795 1.91023 4.16262 0
M  V30 8017 N 762.286 1.88126 4.23276 0
M  V30 8018 C 763.021 2.43315 5.19216 0
M  V30 8019 N 762.517 3.07089 6.21022 0
M  V30 8020 N 764.31 2.33418 5.11344 0
M  V30 8021 H 756.461 1.68887 1.28806 0
M  V30 8022 H 758.724 0.714231 0.62336 0
M  V30 8023 H 758.43 2.22301 2.72534 0
M  V30 8024 H 758.304 0.765011 3.69361 0
M  V30 8025 H 760.691 0.10984 2.94896 0
M  V30 8026 H 760.772 1.59895 1.99668 0
M  V30 8027 H 760.416 2.95616 4.13006 0
M  V30 8028 H 760.346 1.44126 5.06493 0
M  V30 8029 H 762.837 1.41654 3.50346 0
M  V30 8030 H 763.15 3.467 6.90666 0
M  V30 8031 H 761.495 3.11175 6.21446 0
M  V30 8032 H 764.686 1.83248 4.30741 0
M  V30 8033 H 764.859 2.7673 5.85939 0
M  V30 8034 N 758.265 -1.50454 0.469181 0
M  V30 8035 C 759.676 -1.86695 0.0136034 0
M  V30 8036 C 760.027 -1.38413 -1.39055 0
M  V30 8037 O 759.152 -0.748294 -2.03051 0
M  V30 8038 C 759.747 -3.38795 0.0179098 0
M  V30 8039 C 758.306 -3.74455 -0.382191 0
M  V30 8040 C 757.453 -2.74338 0.404207 0
M  V30 8041 H 760.404 -1.43225 0.683547 0
M  V30 8042 H 760.425 -3.72321 -0.78468 0
M  V30 8043 H 759.937 -3.73906 1.04 0
M  V30 8044 H 758.038 -3.44944 -1.4087 0
M  V30 8045 H 758.151 -4.79025 -0.084862 0
M  V30 8046 H 756.515 -2.54305 -0.141829 0
M  V30 8047 H 757.298 -3.12293 1.42577 0
M  V30 8048 N 759.743 -0.201713 -1.56304 0
M  V30 8049 C 761.154 0.309711 -1.84113 0
M  V30 8050 C 761.505 1.60912 -1.12258 0
M  V30 8051 O 760.63 2.12937 -0.385587 0
M  V30 8052 C 761.225 0.568706 -3.33993 0
M  V30 8053 C 759.784 1.02448 -3.6219 0
M  V30 8054 C 758.931 0.0766842 -2.77194 0
M  V30 8055 H 761.882 -0.425356 -1.52893 0
M  V30 8056 H 761.903 1.41721 -3.53122 0
M  V30 8057 H 761.415 -0.37719 -3.86263 0
M  V30 8058 H 759.516 1.98443 -3.15359 0
M  V30 8059 H 759.629 0.912619 -4.70328 0
M  V30 8060 H 757.993 0.579809 -2.48013 0
M  V30 8061 H 758.776 -0.863774 -3.32256 0
M  V30 8062 N 761.222 1.57436 0.0718424 0
M  V30 8063 C 762.499 1.78312 0.804006 0
M  V30 8064 C 762.879 0.789273 1.9579 0
M  V30 8065 O 762.227 -0.177605 2.27809 0
M  V30 8066 C 762.437 3.24798 1.277 0
M  V30 8067 C 763.785 3.88627 1.71039 0
M  V30 8068 O 764.809 3.28689 1.37266 0
M  V30 8069 O 763.668 4.94073 2.33567 0
M  V30 8070 H 760.762 0.73178 0.385262 0
M  V30 8071 H 763.308 1.69621 0.0519219 0
M  V30 8072 H 762.08 3.88688 0.45134 0
M  V30 8073 H 761.703 3.38213 2.0904 0
M  V30 8074 N 762.7 -0.34323 1.53817 0
M  V30 8075 C 763.93 -1.10188 1.74763 0
M  V30 8076 C 764.338 -1.82829 0.486856 0
M  V30 8077 O 763.681 -1.75236 -0.551198 0
M  V30 8078 C 763.743 -2.16 2.87375 0
M  V30 8079 C 763.407 -1.62931 4.26969 0
M  V30 8080 C 764.404 -1.08147 5.08528 0
M  V30 8081 C 762.089 -1.67769 4.73454 0
M  V30 8082 C 764.083 -0.589039 6.34672 0
M  V30 8083 C 761.77 -1.18138 5.99572 0
M  V30 8084 C 762.768 -0.637979 6.80014 0
M  V30 8085 O 762.456 -0.149073 8.03762 0
M  V30 8086 H 762.188 -0.33445 0.587469 0
M  V30 8087 H 764.742 -0.401109 2.01445 0
M  V30 8088 H 762.972 -2.89637 2.56218 0
M  V30 8089 H 764.661 -2.77432 2.96287 0
M  V30 8090 H 765.427 -1.03732 4.73777 0
M  V30 8091 H 761.306 -2.09004 4.10899 0
M  V30 8092 H 764.85 -0.164233 6.97407 0
M  V30 8093 H 760.747 -1.22254 6.33817 0
M  V30 8094 H 761.515 -0.266332 8.18067 0
M  V30 8095 N 764.178 -1.45556 -0.604258 0
M  V30 8096 C 765.594 -1.30035 -0.925368 0
M  V30 8097 C 765.794 -0.255833 -1.99869 0
M  V30 8098 O 764.85 0.349076 -2.50075 0
M  V30 8099 C 766.163 -2.68028 -1.36314 0
M  V30 8100 C 767.711 -2.75951 -1.47717 0
M  V30 8101 C 768.186 -4.14476 -1.94868 0
M  V30 8102 N 769.677 -4.16787 -2.02097 0
M  V30 8103 C 770.412 -5.20845 -2.39809 0
M  V30 8104 N 769.908 -6.35246 -2.76467 0
M  V30 8105 N 771.701 -5.08204 -2.40177 0
M  V30 8106 H 763.852 -2.1214 0.10512 0
M  V30 8107 H 766.115 -0.947871 -0.0156303 0
M  V30 8108 H 765.821 -3.45667 -0.648628 0
M  V30 8109 H 765.695 -2.96711 -2.329 0
M  V30 8110 H 768.082 -1.98613 -2.18258 0
M  V30 8111 H 768.163 -2.50977 -0.494371 0
M  V30 8112 H 767.807 -4.923 -1.24912 0
M  V30 8113 H 767.737 -4.36843 -2.94068 0
M  V30 8114 H 770.228 -3.34233 -1.76343 0
M  V30 8115 H 770.541 -7.10438 -3.04134 0
M  V30 8116 H 768.886 -6.38642 -2.74155 0
M  V30 8117 H 772.077 -4.17874 -2.10947 0
M  V30 8118 H 772.25 -5.89417 -2.69242 0
M  V30 8119 N 765.656 0.84705 -1.32902 0
M  V30 8120 C 766.933 1.58583 -1.14503 0
M  V30 8121 C 767.313 2.09075 0.291724 0
M  V30 8122 O 766.661 1.88636 1.28952 0
M  V30 8123 C 766.871 2.72605 -2.17916 0
M  V30 8124 C 768.219 3.41993 -2.51646 0
M  V30 8125 O 769.243 2.82838 -2.1652 0
M  V30 8126 O 768.102 4.48761 -3.1189 0
M  V30 8127 H 765.196 0.698756 -0.442345 0
M  V30 8128 H 767.742 0.890516 -1.44457 0
M  V30 8129 H 766.514 2.32876 -3.14459 0
M  V30 8130 H 766.137 3.49807 -1.89 0
M  V30 8131 N 767.134 1.16236 1.06428 0
M  V30 8132 C 768.064 0.890807 2.1584 0
M  V30 8133 C 769.045 -0.162333 1.69324 0
M  V30 8134 O 770.23 -0.0147191 1.94194 0
M  V30 8135 C 767.36 0.389615 3.45108 0
M  V30 8136 C 766.314 1.38051 4.05125 0
M  V30 8137 C 765.64 0.737773 5.29586 0
M  V30 8138 C 766.94 2.74965 4.44062 0
M  V30 8139 H 768.634 1.80577 2.38814 0
M  V30 8140 H 766.18 0.869657 1.14774 0
M  V30 8141 H 768.133 0.187127 4.20984 0
M  V30 8142 H 766.857 -0.560851 3.21748 0
M  V30 8143 H 765.516 1.56952 3.31303 0
M  V30 8144 H 765.164 -0.219135 5.02522 0
M  V30 8145 H 764.864 1.39914 5.70699 0
M  V30 8146 H 766.388 0.545275 6.0816 0
M  V30 8147 H 767.802 2.59855 5.11027 0
M  V30 8148 H 766.199 3.37563 4.96156 0
M  V30 8149 H 767.269 3.30321 3.54987 0
M  V30 8150 N 768.612 -1.24939 0.960631 0
M  V30 8151 C 769.861 -1.92118 0.614298 0
M  V30 8152 C 770.174 -1.75998 -0.853474 0
M  V30 8153 O 771.38 -2.37804 -1.31003 0
M  V30 8154 C 769.836 -3.44303 1.04801 0
M  V30 8155 C 769.444 -3.69123 2.53875 0
M  V30 8156 C 771.188 -4.17375 0.774497 0
M  V30 8157 C 769.095 -5.14843 2.91016 0
M  V30 8158 H 768.025 -0.719319 0.226045 0
M  V30 8159 H 770.676 -1.41701 1.16589 0
M  V30 8160 H 769.058 -3.93715 0.42479 0
M  V30 8161 H 770.232 -3.30339 3.21267 0
M  V30 8162 H 768.547 -3.09323 2.78762 0
M  V30 8163 H 771.144 -5.24723 1.02808 0
M  V30 8164 H 771.487 -4.15294 -0.289192 0
M  V30 8165 H 772.02 -3.7389 1.35835 0
M  V30 8166 H 768.759 -5.2204 3.96427 0
M  V30 8167 H 768.279 -5.54652 2.28302 0
M  V30 8168 H 769.958 -5.83017 2.80535 0
M  V30 8169 N 770.09 -0.729906 -1.39679 0
M  V30 8170 C 771.315 -0.284345 -2.05442 0
M  V30 8171 C 771.74 1.07056 -1.54663 0
M  V30 8172 O 771.098 1.67732 -0.688157 0
M  V30 8173 C 771.146 -0.290089 -3.59431 0
M  V30 8174 O 770.25 0.723978 -4.05995 0
M  V30 8175 H 769.591 -0.130311 -0.651088 0
M  V30 8176 H 772.121 -0.994403 -1.78809 0
M  V30 8177 H 772.131 -0.132712 -4.07784 0
M  V30 8178 H 770.806 -1.27877 -3.95753 0
M  V30 8179 H 769.383 0.533154 -3.69069 0
M  V30 8180 N 771.568 1.50203 -0.477153 0
M  V30 8181 C 772.815 2.02358 0.0757385 0
M  V30 8182 C 773.143 1.3587 1.39174 0
M  V30 8183 O 772.398 0.475415 1.89838 0
M  V30 8184 C 772.697 3.56127 0.301325 0
M  V30 8185 C 772.363 4.41126 -0.933725 0
M  V30 8186 C 771.025 4.64075 -1.27233 0
M  V30 8187 C 773.377 4.90737 -1.75576 0
M  V30 8188 C 770.705 5.33878 -2.43292 0
M  V30 8189 C 773.057 5.61816 -2.90768 0
M  V30 8190 C 771.721 5.83016 -3.25036 0
M  V30 8191 H 770.991 0.740482 0.0277147 0
M  V30 8192 H 773.638 1.80754 -0.632467 0
M  V30 8193 H 771.943 3.76279 1.09183 0
M  V30 8194 H 773.64 3.94053 0.743184 0
M  V30 8195 H 770.23 4.23489 -0.659935 0
M  V30 8196 H 774.414 4.72856 -1.50734 0
M  V30 8197 H 769.67 5.48499 -2.70109 0
M  V30 8198 H 773.844 5.99237 -3.54807 0
M  V30 8199 H 771.471 6.36881 -4.15074 0
M  V30 8200 N 773.046 0.209999 1.56195 0
M  V30 8201 C 774.274 -0.429996 2.02382 0
M  V30 8202 C 774.689 -1.54159 1.08998 0
M  V30 8203 O 774.046 -1.82239 0.0974856 0
M  V30 8204 C 774.097 -0.972433 3.48175 0
M  V30 8205 O 773.818 0.0948231 4.37997 0
M  V30 8206 C 775.319 -1.68683 4.09952 0
M  V30 8207 H 772.539 -0.106475 0.662498 0
M  V30 8208 H 775.083 0.323072 2.01932 0
M  V30 8209 H 773.238 -1.67582 3.49278 0
M  V30 8210 H 773.652 -0.31113 5.23576 0
M  V30 8211 H 775.126 -2.01851 5.13771 0
M  V30 8212 H 775.603 -2.59587 3.54276 0
M  V30 8213 H 776.209 -1.02893 4.12666 0
M  V30 8214 N 774.524 -1.57472 -0.0634922 0
M  V30 8215 C 775.77 -1.87932 -0.762194 0
M  V30 8216 C 776.103 -0.803377 -1.76804 0
M  V30 8217 O 775.378 0.185468 -1.93614 0
M  V30 8218 C 775.661 -3.29053 -1.46275 0
M  V30 8219 C 775.514 -4.47309 -0.472755 0
M  V30 8220 C 776.833 -3.68537 -2.40558 0
M  V30 8221 H 773.952 -0.683521 -0.275624 0
M  V30 8222 H 776.594 -1.89983 -0.0252651 0
M  V30 8223 H 774.744 -3.27435 -2.0909 0
M  V30 8224 H 776.416 -4.61053 0.150828 0
M  V30 8225 H 774.659 -4.33286 0.211187 0
M  V30 8226 H 775.33 -5.42853 -1.00072 0
M  V30 8227 H 777.806 -3.71302 -1.87814 0
M  V30 8228 H 776.682 -4.68152 -2.86574 0
M  V30 8229 H 776.943 -2.98917 -3.25731 0
M  V30 8230 N 776.003 0.335068 -1.53997 0
M  V30 8231 C 777.233 1.0926 -1.75345 0
M  V30 8232 C 777.641 1.82568 -0.496545 0
M  V30 8233 O 776.984 1.75525 0.541897 0
M  V30 8234 C 777.046 2.14473 -2.88516 0
M  V30 8235 C 776.71 1.60665 -4.27827 0
M  V30 8236 C 777.707 1.05448 -5.09094 0
M  V30 8237 C 775.392 1.65255 -4.74337 0
M  V30 8238 C 777.386 0.555372 -6.34976 0
M  V30 8239 C 775.073 1.14956 -6.0019 0
M  V30 8240 C 776.071 0.601907 -6.80343 0
M  V30 8241 O 775.759 0.106445 -8.0383 0
M  V30 8242 H 775.491 0.331329 -0.589234 0
M  V30 8243 H 778.045 0.39042 -2.01655 0
M  V30 8244 H 776.275 2.88274 -2.5775 0
M  V30 8245 H 777.964 2.75857 -2.97755 0
M  V30 8246 H 778.73 1.01218 -4.74321 0
M  V30 8247 H 774.609 2.06822 -4.12002 0
M  V30 8248 H 778.153 0.127245 -6.97484 0
M  V30 8249 H 774.05 1.18891 -6.34457 0
M  V30 8250 H 774.818 0.222944 -8.18196 0
M  V30 8251 N 777.481 1.45874 0.596531 0
M  V30 8252 C 778.711 1.5379 1.37958 0
M  V30 8253 C 779.119 0.173086 1.88407 0
M  V30 8254 O 778.462 -0.837498 1.63498 0
M  V30 8255 C 778.524 2.47044 2.61169 0
M  V30 8256 C 778.188 3.93565 2.32283 0
M  V30 8257 C 779.185 4.83162 1.91965 0
M  V30 8258 C 776.87 4.38579 2.44854 0
M  V30 8259 C 778.864 6.15782 1.64593 0
M  V30 8260 C 776.551 5.71238 2.17095 0
M  V30 8261 C 777.549 6.59659 1.77028 0
M  V30 8262 O 777.237 7.89857 1.49601 0
M  V30 8263 H 776.969 0.523 0.428307 0
M  V30 8264 H 779.523 1.91855 0.733529 0
M  V30 8265 H 777.753 2.0397 3.28532 0
M  V30 8266 H 779.442 2.4552 3.23226 0
M  V30 8267 H 780.208 4.49646 1.8178 0
M  V30 8268 H 776.087 3.6999 2.75006 0
M  V30 8269 H 779.631 6.84757 1.33245 0
M  V30 8270 H 775.528 6.04306 2.26901 0
M  V30 8271 H 776.296 8.01991 1.63561 0
M  V30 8272 N 778.959 -0.83999 1.33349 0
M  V30 8273 C 779.906 -1.94972 1.23509 0
M  V30 8274 C 780.876 -1.65709 0.113967 0
M  V30 8275 O 782.061 -1.88552 0.292045 0
M  V30 8276 C 779.201 -3.30919 0.979105 0
M  V30 8277 C 778.314 -3.72587 2.18639 0
M  V30 8278 C 777.449 -4.97397 1.86465 0
M  V30 8279 C 776.488 -5.31597 3.03432 0
M  V30 8280 N 775.625 -6.47584 2.71254 0
M  V30 8281 H 780.465 -2.0272 2.18423 0
M  V30 8282 H 778.002 -0.992017 1.08616 0
M  V30 8283 H 779.96 -4.09239 0.811126 0
M  V30 8284 H 778.59 -3.22731 0.0667099 0
M  V30 8285 H 777.642 -2.89799 2.46416 0
M  V30 8286 H 778.954 -3.93844 3.06086 0
M  V30 8287 H 778.108 -5.83462 1.66305 0
M  V30 8288 H 776.847 -4.78107 0.96254 0
M  V30 8289 H 775.852 -4.44037 3.24208 0
M  V30 8290 H 777.077 -5.52836 3.94397 0
M  V30 8291 H 775.023 -6.29783 1.836 0
M  V30 8292 H 774.94 -6.68931 3.52231 0
M  V30 8293 H 776.208 -7.36764 2.54558 0
M  V30 8294 N 780.437 -1.16799 -1.0581 0
M  V30 8295 C 781.347 -0.893492 -2.16919 0
M  V30 8296 C 782.363 0.136061 -1.73467 0
M  V30 8297 O 783.539 -0.0417348 -2.01357 0
M  V30 8298 C 780.604 -0.403763 -3.44341 0
M  V30 8299 C 779.665 -1.49914 -4.02274 0
M  V30 8300 C 778.898 -1.03269 -5.23614 0
M  V30 8301 O 779.121 0.115647 -5.70283 0
M  V30 8302 O 778.055 -1.8231 -5.73626 0
M  V30 8303 H 781.881 -1.82274 -2.42919 0
M  V30 8304 H 779.466 -0.948361 -1.1544 0
M  V30 8305 H 781.348 -0.137874 -4.21174 0
M  V30 8306 H 780.023 0.497413 -3.19855 0
M  V30 8307 H 778.93 -1.81883 -3.26909 0
M  V30 8308 H 780.263 -2.3758 -4.31064 0
M  V30 8309 N 781.915 1.24427 -0.967243 0
M  V30 8310 C 782.878 2.23637 -0.501927 0
M  V30 8311 C 783.878 1.55712 0.401283 0
M  V30 8312 O 785.068 1.73085 0.196808 0
M  V30 8313 C 782.2 3.39804 0.273176 0
M  V30 8314 H 783.393 2.66317 -1.37897 0
M  V30 8315 H 780.946 1.37033 -0.751783 0
M  V30 8316 H 781.681 3.02562 1.16733 0
M  V30 8317 H 781.466 3.90303 -0.37498 0
M  V30 8318 H 782.956 4.13443 0.587776 0
M  V30 8319 N 783.393 0.737304 1.3929 0
M  V30 8320 C 784.804 0.355966 1.83275 0
M  V30 8321 C 785.155 -1.11295 1.6158 0
M  V30 8322 O 784.28 -1.85871 1.10819 0
M  V30 8323 C 784.875 0.63931 3.32713 0
M  V30 8324 C 783.434 0.31144 3.75109 0
M  V30 8325 C 782.581 0.900765 2.62262 0
M  V30 8326 H 785.532 0.934763 1.28249 0
M  V30 8327 H 785.553 -0.0881293 3.80398 0
M  V30 8328 H 785.065 1.70847 3.48472 0
M  V30 8329 H 783.166 -0.751791 3.64937 0
M  V30 8330 H 783.279 0.795611 4.72448 0
M  V30 8331 H 781.643 0.327239 2.52589 0
M  V30 8332 H 782.426 1.97463 2.80826 0
M  V30 8333 N 784.871 -1.49948 0.485112 0
M  V30 8334 C 786.118 -2.02396 -0.0650059 0
M  V30 8335 C 786.446 -1.36606 -1.38452 0
M  V30 8336 O 785.701 -0.485476 -1.89583 0
M  V30 8337 C 786 -3.56282 -0.282434 0
M  V30 8338 C 785.666 -4.40625 0.957106 0
M  V30 8339 C 784.328 -4.63393 1.29692 0
M  V30 8340 C 786.68 -4.89799 1.78176 0
M  V30 8341 C 784.008 -5.3258 2.4612 0
M  V30 8342 C 786.36 -5.60266 2.93743 0
M  V30 8343 C 785.024 -5.81284 3.28124 0
M  V30 8344 H 784.294 -0.740618 -0.0237873 0
M  V30 8345 H 786.941 -1.80416 0.642044 0
M  V30 8346 H 785.246 -3.76853 -1.07186 0
M  V30 8347 H 786.943 -3.94442 -0.722276 0
M  V30 8348 H 783.533 -4.23133 0.682384 0
M  V30 8349 H 787.717 -4.7205 1.53239 0
M  V30 8350 H 782.973 -5.47059 2.73014 0
M  V30 8351 H 787.147 -5.97347 3.5798 0
M  V30 8352 H 784.774 -6.34671 4.18446 0
M  V30 8353 N 786.349 -0.21828 -1.56081 0
M  V30 8354 C 787.296 0.693189 -2.20144 0
M  V30 8355 C 788.266 1.19274 -1.15598 0
M  V30 8356 O 789.451 1.25243 -1.4394 0
M  V30 8357 C 786.591 1.89715 -2.88275 0
M  V30 8358 C 785.704 1.4368 -4.07407 0
M  V30 8359 C 784.839 2.59807 -4.63329 0
M  V30 8360 C 783.878 2.10492 -5.74769 0
M  V30 8361 N 783.015 3.1988 -6.24997 0
M  V30 8362 H 787.855 0.14016 -2.9767 0
M  V30 8363 H 785.392 0.0574292 -1.46988 0
M  V30 8364 H 787.35 2.60398 -3.25958 0
M  V30 8365 H 785.98 2.42311 -2.13273 0
M  V30 8366 H 785.032 0.625007 -3.7523 0
M  V30 8367 H 786.344 1.03517 -4.8794 0
M  V30 8368 H 785.498 3.38577 -5.03438 0
M  V30 8369 H 784.237 3.03256 -3.81951 0
M  V30 8370 H 783.242 1.30182 -5.34165 0
M  V30 8371 H 784.467 1.68045 -6.5798 0
M  V30 8372 H 782.413 3.62817 -5.46534 0
M  V30 8373 H 782.33 2.83958 -7.00645 0
M  V30 8374 H 783.598 3.98796 -6.69763 0
M  V30 8375 N 787.827 1.57504 0.0551401 0
M  V30 8376 C 788.775 2.05884 1.08233 0
M  V30 8377 C 789.769 0.967383 1.39061 0
M  V30 8378 O 790.975 1.15242 1.38273 0
M  V30 8379 H 787.35 0.656673 0.366449 0
M  V30 8380 H 789.321 2.91273 0.648269 0
M  V30 8381 C 788.07 2.53221 2.38273 0
M  V30 8382 H 787.393 3.36809 2.15406 0
M  V30 8383 H 788.833 2.9081 3.08554 0
M  V30 8384 C 787.292 1.42218 3.05411 0
M  V30 8385 O 787.822 0.773638 3.9418 0
M  V30 8386 N 786.028 1.16316 2.66306 0
M  V30 8387 H 785.575 1.69237 1.94207 0
M  V30 8388 H 785.533 0.422534 3.11548 0
M  V30 8389 N 789.305 -0.326896 1.54172 0
M  V30 8390 C 790.551 -1.06681 1.72473 0
M  V30 8391 C 790.884 -1.87779 0.49523 0
M  V30 8392 O 790.159 -1.87754 -0.507803 0
M  V30 8393 C 790.442 -1.99429 2.99834 0
M  V30 8394 C 790.295 -1.21682 4.33028 0
M  V30 8395 C 791.614 -2.99002 3.22933 0
M  V30 8396 H 788.733 -0.386438 0.627563 0
M  V30 8397 H 791.375 -0.343779 1.86864 0
M  V30 8398 H 789.525 -2.61081 2.87696 0
M  V30 8399 H 791.197 -0.625153 4.57044 0
M  V30 8400 H 789.44 -0.519045 4.30684 0
M  V30 8401 H 790.111 -1.89766 5.18356 0
M  V30 8402 H 792.587 -2.4747 3.34511 0
M  V30 8403 H 791.463 -3.61085 4.13412 0
M  V30 8404 H 791.724 -3.71281 2.40006 0
M  V30 8405 N 790.784 -1.46188 -0.588786 0
M  V30 8406 C 792.012 -1.54743 -1.37339 0
M  V30 8407 C 792.427 -0.186446 -1.87877 0
M  V30 8408 O 791.784 0.815247 -1.63279 0
M  V30 8409 C 791.835 -2.54727 -2.56508 0
M  V30 8410 O 791.556 -3.85539 -2.08066 0
M  V30 8411 C 793.057 -2.73163 -3.49137 0
M  V30 8412 H 790.277 -0.523484 -0.419768 0
M  V30 8413 H 792.821 -1.91543 -0.716345 0
M  V30 8414 H 790.976 -2.20948 -3.18215 0
M  V30 8415 H 791.39 -4.39905 -2.85629 0
M  V30 8416 H 792.864 -3.47057 -4.2925 0
M  V30 8417 H 793.341 -1.79856 -4.00685 0
M  V30 8418 H 793.947 -3.08014 -2.9327 0
M  V30 8419 N 792.262 0.832906 -1.33792 0
M  V30 8420 C 793.172 1.97514 -1.26592 0
M  V30 8421 C 794.188 1.73114 -0.175391 0
M  V30 8422 O 795.364 1.97387 -0.400062 0
M  V30 8423 C 792.429 3.31625 -1.01121 0
M  V30 8424 C 791.49 3.69101 -2.19233 0
M  V30 8425 C 790.723 4.96813 -1.94968 0
M  V30 8426 O 790.946 5.63208 -0.902955 0
M  V30 8427 O 789.88 5.31932 -2.8166 0
M  V30 8428 H 793.706 2.0653 -2.22664 0
M  V30 8429 H 791.291 0.966826 -1.13898 0
M  V30 8430 H 793.173 4.11968 -0.886571 0
M  V30 8431 H 791.848 3.23599 -0.080822 0
M  V30 8432 H 790.755 2.89243 -2.37253 0
M  V30 8433 H 792.088 3.818 -3.10628 0
M  V30 8434 N 793.74 1.17359 1.05189 0
M  V30 8435 C 794.97 0.985099 1.81602 0
M  V30 8436 C 795.378 -0.469872 1.83273 0
M  V30 8437 O 794.721 -1.33806 1.25864 0
M  V30 8438 C 794.783 1.44956 3.2898 0
M  V30 8439 C 794.447 2.92666 3.50993 0
M  V30 8440 C 795.444 3.906 3.43115 0
M  V30 8441 C 793.129 3.30841 3.77954 0
M  V30 8442 C 795.123 5.24709 3.61883 0
M  V30 8443 C 792.81 4.65116 3.96371 0
M  V30 8444 C 793.808 5.61859 3.88335 0
M  V30 8445 O 793.496 6.93704 4.06238 0
M  V30 8446 H 793.228 0.348731 0.579105 0
M  V30 8447 H 795.782 1.56066 1.33539 0
M  V30 8448 H 794.012 0.817559 3.77959 0
M  V30 8449 H 795.701 1.22674 3.86919 0
M  V30 8450 H 796.467 3.62453 3.22262 0
M  V30 8451 H 792.346 2.5611 3.83313 0
M  V30 8452 H 795.89 6.00205 3.55527 0
M  V30 8453 H 791.787 4.92969 4.16715 0
M  V30 8454 H 792.555 7.00443 4.23463 0
M  V30 8455 N 795.218 -1.23913 0.973828 0
M  V30 8456 C 796.495 -1.87539 0.555729 0
M  V30 8457 C 796.875 -1.87641 -0.967162 0
M  V30 8458 O 796.223 -1.35335 -1.84111 0
M  V30 8459 C 796.433 -3.29359 1.15427 0
M  V30 8460 C 797.781 -4.06 1.24294 0
M  V30 8461 O 798.805 -3.38554 1.10723 0
M  V30 8462 O 797.664 -5.26689 1.45813 0
M  V30 8463 H 794.758 -0.805769 0.186188 0
M  V30 8464 H 797.304 -1.31838 1.06849 0
M  V30 8465 H 796.076 -3.23817 2.19678 0
M  V30 8466 H 795.699 -3.92642 0.625925 0
M  V30 8467 N 796.696 -0.74468 -1.38897 0
M  V30 8468 C 797.944 -0.296298 -1.99916 0
M  V30 8469 C 798.265 1.12325 -1.59399 0
M  V30 8470 O 797.535 1.76658 -0.846689 0
M  V30 8471 H 796.115 -0.106561 -0.73936 0
M  V30 8472 H 798.777 -0.956793 -1.69798 0
M  V30 8473 H 797.873 -0.352356 -3.10105 0
M  V30 8474 N 798.174 1.49689 -0.493057 0
M  V30 8475 C 799.106 2.26867 0.326195 0
M  V30 8476 C 800.119 1.33083 0.937697 0
M  V30 8477 O 801.308 1.58427 0.822382 0
M  V30 8478 C 798.408 3.0519 1.4735 0
M  V30 8479 C 797.581 4.26491 0.970767 0
M  V30 8480 C 796.64 4.86926 1.99473 0
M  V30 8481 O 795.666 5.47221 1.56647 0
M  V30 8482 N 796.868 4.75871 3.32456 0
M  V30 8483 H 799.633 2.97816 -0.335547 0
M  V30 8484 H 797.194 1.58602 -0.325129 0
M  V30 8485 H 799.186 3.42496 2.15589 0
M  V30 8486 H 797.756 2.369 2.03954 0
M  V30 8487 H 796.976 3.94036 0.113529 0
M  V30 8488 H 798.264 5.05092 0.613156 0
M  V30 8489 H 797.662 4.2797 3.69944 0
M  V30 8490 H 796.219 5.17383 3.96431 0
M  V30 8491 N 799.652 0.226554 1.55963 0
M  V30 8492 C 800.929 -0.453058 1.90281 0
M  V30 8493 C 801.309 -1.77377 1.14458 0
M  V30 8494 O 800.657 -2.27067 0.255496 0
M  V30 8495 C 800.867 -0.641108 3.43061 0
M  V30 8496 C 802.215 -0.946265 4.13921 0
M  V30 8497 O 803.239 -0.727713 3.48687 0
M  V30 8498 O 802.098 -1.36131 5.29274 0
M  V30 8499 H 799.192 -0.240242 0.791336 0
M  V30 8500 H 801.738 0.26911 1.67553 0
M  V30 8501 H 800.51 0.290283 3.90222 0
M  V30 8502 H 800.133 -1.41458 3.71585 0
M  V30 8503 N 801.13 -1.57531 -0.0467866 0
M  V30 8504 C 802.093 -2.04379 -1.03738 0
M  V30 8505 C 803.093 -0.944881 -1.3011 0
M  V30 8506 O 804.283 -1.20904 -1.25411 0
M  V30 8507 C 801.415 -2.44572 -2.37482 0
M  V30 8508 H 802.608 -2.93142 -0.633063 0
M  V30 8509 H 800.161 -1.53526 -0.293177 0
M  V30 8510 H 800.896 -1.58911 -2.82697 0
M  V30 8511 H 800.681 -3.24785 -2.19675 0
M  V30 8512 H 802.171 -2.81307 -3.08636 0
M  V30 8513 N 802.608 0.318715 -1.54344 0
M  V30 8514 C 803.848 1.06425 -1.74508 0
M  V30 8515 C 804.212 1.85087 -0.510572 0
M  V30 8516 O 805.413 2.62253 -0.589647 0
M  V30 8517 C 803.684 1.96054 -2.98827 0
M  V30 8518 S 805.243 2.77493 -3.39916 0
M  V30 8519 H 802.061 0.35921 -0.613587 0
M  V30 8520 H 804.663 0.339679 -1.92526 0
M  V30 8521 H 803.367 1.37109 -3.8682 0
M  V30 8522 H 802.898 2.72908 -2.83346 0
M  V30 8523 H 804.913 3.98544 -2.95596 0
M  V30 8524 N 804.086 1.46499 0.581025 0
M  V30 8525 C 805.334 1.51596 1.33653 0
M  V30 8526 C 805.655 0.169859 1.94259 0
M  V30 8527 O 804.925 -0.803776 1.78651 0
M  V30 8528 H 803.505 0.558346 0.496244 0
M  V30 8529 H 806.167 1.8264 0.680338 0
M  V30 8530 H 805.263 2.26956 2.14237 0
M  V30 8531 N 805.565 -0.825799 1.34232 0
M  V30 8532 C 806.79 -1.61883 1.29648 0
M  V30 8533 C 807.215 -1.87669 -0.127295 0
M  V30 8534 O 806.573 -1.45016 -1.08813 0
M  V30 8535 C 806.621 -2.93846 2.09014 0
M  V30 8536 O 805.725 -3.85778 1.4577 0
M  V30 8537 H 805.066 -0.492454 0.445405 0
M  V30 8538 H 807.596 -1.02641 1.76992 0
M  V30 8539 H 807.606 -3.43435 2.20264 0
M  V30 8540 H 806.281 -2.74401 3.12533 0
M  V30 8541 H 804.858 -3.4429 1.43245 0
M  V30 8542 N 807.043 -1.17915 -1.04565 0
M  V30 8543 C 807.991 -0.897919 -2.1457 0
M  V30 8544 C 808.985 0.139883 -1.68821 0
M  V30 8545 O 810.191 -0.00779463 -1.79998 0
M  V30 8546 H 806.566 -0.272867 -0.700748 0
M  V30 8547 H 808.537 -1.83268 -2.3549 0
M  V30 8548 C 807.286 -0.434634 -3.44973 0
M  V30 8549 H 806.609 -1.22469 -3.8058 0
M  V30 8550 H 808.049 -0.276804 -4.23095 0
M  V30 8551 C 806.508 0.848738 -3.26034 0
M  V30 8552 O 807.038 1.9141 -3.53164 0
M  V30 8553 N 805.244 0.799373 -2.79389 0
M  V30 8554 H 804.791 -0.0678192 -2.57511 0
M  V30 8555 H 804.749 1.6585 -2.67098 0
M  V30 8556 N 808.521 1.23394 -0.980386 0
M  V30 8557 C 809.746 1.96384 -0.666935 0
M  V30 8558 C 810.171 1.72087 0.759456 0
M  V30 8559 O 809.529 0.992328 1.51732 0
M  V30 8560 C 809.577 3.47499 -0.963177 0
M  V30 8561 O 808.681 4.12363 -0.0552051 0
M  V30 8562 H 808.022 0.614797 -0.250839 0
M  V30 8563 H 810.552 1.56831 -1.31398 0
M  V30 8564 H 810.562 3.97953 -0.899877 0
M  V30 8565 H 809.237 3.6451 -2.00264 0
M  V30 8566 H 807.814 3.72499 -0.172914 0
M  V30 8567 N 809.999 0.752036 1.385 0
M  V30 8568 C 811.245 0.316909 2.00916 0
M  V30 8569 C 811.6 -1.08884 1.58625 0
M  V30 8570 O 810.893 -1.73494 0.813047 0
M  V30 8571 C 811.087 0.376155 3.55415 0
M  V30 8572 C 810.916 1.78612 4.12708 0
M  V30 8573 C 809.686 2.4023 4.44542 0
M  V30 8574 C 811.884 2.74253 4.35075 0
M  V30 8575 N 809.866 3.73204 4.87434 0
M  V30 8576 C 811.237 3.9199 4.80358 0
M  V30 8577 C 813.292 2.71795 4.17171 0
M  V30 8578 C 811.995 5.07627 5.09615 0
M  V30 8579 C 814.021 3.86589 4.47552 0
M  V30 8580 C 813.383 5.03064 4.93058 0
M  V30 8581 H 809.482 0.16259 0.764911 0
M  V30 8582 H 812.066 0.981657 1.68142 0
M  V30 8583 H 810.237 -0.258317 3.8754 0
M  V30 8584 H 811.969 -0.0791421 4.04623 0
M  V30 8585 H 808.724 1.92009 4.32931 0
M  V30 8586 H 809.148 4.41519 5.13215 0
M  V30 8587 H 813.79 1.82929 3.81178 0
M  V30 8588 H 811.508 5.97109 5.44506 0
M  V30 8589 H 815.094 3.86005 4.35306 0
M  V30 8590 H 813.974 5.90417 5.16118 0
M  V30 8591 N 811.477 -1.49425 0.500989 0
M  V30 8592 C 812.425 -2.30771 -0.291149 0
M  V30 8593 C 813.419 -1.3938 -0.962787 0
M  V30 8594 O 814.625 -1.56431 -0.890477 0
M  V30 8595 H 811 -0.743499 -0.11275 0
M  V30 8596 H 812.971 -2.95501 0.414917 0
M  V30 8597 C 811.72 -3.20725 -1.34279 0
M  V30 8598 H 811.043 -3.90975 -0.83538 0
M  V30 8599 H 812.483 -3.80583 -1.86903 0
M  V30 8600 C 810.942 -2.40334 -2.36095 0
M  V30 8601 O 811.472 -2.10749 -3.41976 0
M  V30 8602 N 809.678 -2.02359 -2.08565 0
M  V30 8603 H 809.225 -2.26619 -1.22482 0
M  V30 8604 H 809.183 -1.48878 -2.76916 0
M  V30 8605 N 812.955 -0.234822 -1.55841 0
M  V30 8606 C 813.888 0.710134 -2.16869 0
M  V30 8607 C 814.866 1.18155 -1.11706 0
M  V30 8608 O 816.05 1.26188 -1.40032 0
M  V30 8609 C 813.177 1.96368 -2.75966 0
M  V30 8610 C 812.223 1.63114 -3.94076 0
M  V30 8611 S 813.056 0.744307 -5.30302 0
M  V30 8612 C 814.212 2.00712 -5.92845 0
M  V30 8613 H 814.445 0.19146 -2.96683 0
M  V30 8614 H 811.978 -0.0193854 -1.54388 0
M  V30 8615 H 813.936 2.68338 -3.10653 0
M  V30 8616 H 812.597 2.45347 -1.96121 0
M  V30 8617 H 811.79 2.56285 -4.33975 0
M  V30 8618 H 811.392 0.991967 -3.60605 0
M  V30 8619 H 813.684 2.9557 -6.09627 0
M  V30 8620 H 814.627 1.65182 -6.88564 0
M  V30 8621 H 815.035 2.1537 -5.21801 0
M  V30 8622 N 814.433 1.57553 0.0384317 0
M  V30 8623 C 815.679 1.89121 0.732199 0
M  V30 8624 C 816.012 0.831404 1.75503 0
M  V30 8625 O 815.287 -0.154642 1.93884 0
M  V30 8626 C 815.57 3.31338 1.41021 0
M  V30 8627 C 815.423 4.48004 0.401532 0
M  V30 8628 C 816.742 3.72318 2.34665 0
M  V30 8629 H 813.861 0.687819 0.264715 0
M  V30 8630 H 816.503 1.89999 -0.00496279 0
M  V30 8631 H 814.653 3.3072 2.03854 0
M  V30 8632 H 816.325 4.60755 -0.224159 0
M  V30 8633 H 814.568 4.32895 -0.280092 0
M  V30 8634 H 815.239 5.44377 0.91423 0
M  V30 8635 H 817.715 3.74243 1.81883 0
M  V30 8636 H 816.591 4.72652 2.7909 0
M  V30 8637 H 816.852 3.04062 3.20934 0
M  V30 8638 N 815.911 -0.310526 1.54511 0
M  V30 8639 C 817.188 -1.06593 1.64004 0
M  V30 8640 C 817.568 -2.05519 0.482216 0
M  V30 8641 O 816.916 -2.22455 -0.52212 0
M  V30 8642 C 817.126 -1.75627 3.01589 0
M  V30 8643 C 818.474 -2.28173 3.58081 0
M  V30 8644 O 819.498 -1.85674 3.03979 0
M  V30 8645 O 818.357 -3.06015 4.52788 0
M  V30 8646 H 815.451 -0.492109 0.664649 0
M  V30 8647 H 817.997 -0.309374 1.66856 0
M  V30 8648 H 816.769 -1.03743 3.77297 0
M  V30 8649 H 816.392 -2.58061 3.02473 0
M  V30 8650 N 817.389 -1.46805 -0.573248 0
M  V30 8651 C 818.635 -1.5283 -1.33307 0
M  V30 8652 C 818.968 -0.183287 -1.93333 0
M  V30 8653 O 818.243 0.806354 -1.76998 0
M  V30 8654 C 818.526 -2.63414 -2.45531 0
M  V30 8655 C 818.379 -4.07478 -1.90478 0
M  V30 8656 C 819.698 -2.70014 -3.47535 0
M  V30 8657 H 816.817 -0.556371 -0.483343 0
M  V30 8658 H 819.459 -1.78787 -0.643066 0
M  V30 8659 H 817.609 -2.41412 -3.04389 0
M  V30 8660 H 819.281 -4.40795 -1.36004 0
M  V30 8661 H 817.524 -4.16511 -1.21248 0
M  V30 8662 H 818.195 -4.80598 -2.71531 0
M  V30 8663 H 820.671 -2.89817 -2.98572 0
M  V30 8664 H 819.547 -3.49192 -4.23504 0
M  V30 8665 H 819.808 -1.76436 -4.05367 0
M  V30 8666 N 818.867 0.818669 -1.34668 0
M  V30 8667 C 820.144 1.56118 -1.17841 0
M  V30 8668 C 820.524 2.09646 0.24731 0
M  V30 8669 O 819.872 1.91329 1.24922 0
M  V30 8670 C 820.082 2.67922 -2.23649 0
M  V30 8671 C 821.43 3.36579 -2.58843 0
M  V30 8672 O 822.454 2.78182 -2.22471 0
M  V30 8673 O 821.313 4.42045 -3.21339 0
M  V30 8674 H 818.407 0.689216 -0.457067 0
M  V30 8675 H 820.953 0.859674 -1.46314 0
M  V30 8676 H 819.725 2.26153 -3.19328 0
M  V30 8677 H 819.348 3.45719 -1.96377 0
M  V30 8678 N 820.346 1.18468 1.03938 0
M  V30 8679 C 821.276 0.936389 2.13902 0
M  V30 8680 C 822.257 -0.126381 1.6963 0
M  V30 8681 O 823.442 0.0264757 1.94182 0
M  V30 8682 C 820.572 0.462729 3.44204 0
M  V30 8683 C 819.526 1.46613 4.02105 0
M  V30 8684 C 818.852 0.84994 5.27902 0
M  V30 8685 C 820.152 2.84323 4.3813 0
M  V30 8686 H 821.846 1.85602 2.3493 0
M  V30 8687 H 819.392 0.893806 1.12903 0
M  V30 8688 H 821.345 0.276382 4.20493 0
M  V30 8689 H 820.069 -0.492477 3.22866 0
M  V30 8690 H 818.728 1.63944 3.27899 0
M  V30 8691 H 818.376 -0.112493 5.02874 0
M  V30 8692 H 818.076 1.51988 5.67603 0
M  V30 8693 H 819.6 0.674152 6.06867 0
M  V30 8694 H 821.014 2.70636 5.054 0
M  V30 8695 H 819.411 3.48012 4.88884 0
M  V30 8696 H 820.481 3.37776 3.47901 0
M  V30 8697 N 821.824 -1.22873 0.986916 0
M  V30 8698 C 823.235 -1.73264 0.695438 0
M  V30 8699 C 823.586 -1.79679 -0.788023 0
M  V30 8700 O 822.711 -1.43905 -1.61618 0
M  V30 8701 C 823.306 -3.14671 1.2557 0
M  V30 8702 C 821.865 -3.62492 1.01373 0
M  V30 8703 C 821.012 -2.40551 1.37951 0
M  V30 8704 H 823.963 -1.08304 1.15999 0
M  V30 8705 H 823.984 -3.75226 0.631322 0
M  V30 8706 H 823.496 -3.0997 2.33539 0
M  V30 8707 H 821.597 -3.72567 -0.0495917 0
M  V30 8708 H 821.71 -4.48944 1.67289 0
M  V30 8709 H 820.074 -2.41875 0.798033 0
M  V30 8710 H 820.857 -2.38516 2.46911 0
M  V30 8711 N 823.302 -0.75937 -1.38099 0
M  V30 8712 C 824.713 -0.385078 -1.82686 0
M  V30 8713 C 825.064 1.0871 -1.6333 0
M  V30 8714 O 824.189 1.84084 -1.13762 0
M  V30 8715 C 824.784 -0.692161 -3.31654 0
M  V30 8716 C 823.343 -0.371077 -3.74566 0
M  V30 8717 C 822.49 -0.942375 -2.60796 0
M  V30 8718 H 825.441 -0.955048 -1.26746 0
M  V30 8719 H 825.462 0.0276001 -3.8049 0
M  V30 8720 H 824.974 -1.76369 -3.4571 0
M  V30 8721 H 823.075 0.693637 -3.66087 0
M  V30 8722 H 823.188 -0.870672 -4.71122 0
M  V30 8723 H 821.552 -0.367383 -2.52036 0
M  V30 8724 H 822.335 -2.01905 -2.77649 0
M  V30 8725 N 824.78 1.49157 -0.508906 0
M  V30 8726 C 825.728 2.30922 0.278906 0
M  V30 8727 C 826.722 1.39889 0.955382 0
M  V30 8728 O 827.928 1.56901 0.882169 0
M  V30 8729 H 824.303 0.744087 0.108805 0
M  V30 8730 H 826.274 2.95277 -0.430583 0
M  V30 8731 C 825.023 3.21432 1.32576 0
M  V30 8732 H 824.346 3.91413 0.814634 0
M  V30 8733 H 825.786 3.81568 1.84882 0
M  V30 8734 C 824.245 2.41583 2.34817 0
M  V30 8735 O 824.775 2.1256 3.40854 0
M  V30 8736 N 822.981 2.03462 2.07489 0
M  V30 8737 H 822.528 2.27265 1.21278 0
M  V30 8738 H 822.486 1.50345 2.76123 0
M  V30 8739 N 826.258 0.243083 1.55714 0
M  V30 8740 C 827.205 -0.658078 2.21219 0
M  V30 8741 C 828.175 -1.1742 1.17481 0
M  V30 8742 O 829.36 -1.22937 1.45915 0
M  V30 8743 C 826.5 -1.85104 2.91257 0
M  V30 8744 C 825.613 -1.3718 4.09641 0
M  V30 8745 C 824.748 -2.52403 4.67404 0
M  V30 8746 C 823.787 -2.01321 5.78045 0
M  V30 8747 N 822.924 -3.09896 6.30007 0
M  V30 8748 H 827.764 -0.0927854 2.97856 0
M  V30 8749 H 825.301 -0.0340375 1.47061 0
M  V30 8750 H 827.259 -2.55179 3.3006 0
M  V30 8751 H 825.889 -2.38887 2.17101 0
M  V30 8752 H 824.941 -0.565232 3.76177 0
M  V30 8753 H 826.253 -0.957409 4.89525 0
M  V30 8754 H 825.407 -3.30525 5.08761 0
M  V30 8755 H 824.146 -2.97142 3.86728 0
M  V30 8756 H 823.151 -1.21667 5.36169 0
M  V30 8757 H 824.376 -1.57556 6.6057 0
M  V30 8758 H 822.322 -3.54077 5.52237 0
M  V30 8759 H 822.239 -2.72776 7.05074 0
M  V30 8760 H 823.507 -3.8809 6.76023 0
M  V30 8761 N 827.736 -1.57571 -0.0300757 0
M  V30 8762 C 829.013 -1.80381 -0.756447 0
M  V30 8763 C 829.393 -0.840906 -1.93628 0
M  V30 8764 O 828.741 0.117143 -2.282 0
M  V30 8765 C 828.951 -3.2807 -1.19043 0
M  V30 8766 C 830.299 -3.93025 -1.60676 0
M  V30 8767 O 831.323 -3.32213 -1.28503 0
M  V30 8768 O 830.182 -5.00092 -2.20386 0
M  V30 8769 H 827.276 -0.741737 -0.365725 0
M  V30 8770 H 829.822 -1.69699 -0.00693177 0
M  V30 8771 H 828.594 -3.89748 -0.348128 0
M  V30 8772 H 828.217 -3.43637 -1.99999 0
M  V30 8773 N 829.214 0.302327 -1.54673 0
M  V30 8774 C 830.46 1.03924 -1.74149 0
M  V30 8775 C 830.793 1.86968 -0.525041 0
M  V30 8776 O 830.068 1.88538 0.477868 0
M  V30 8777 C 830.351 1.94633 -3.02969 0
M  V30 8778 C 830.204 1.14778 -4.34909 0
M  V30 8779 C 831.523 2.93826 -3.27649 0
M  V30 8780 H 828.642 0.376405 -0.633631 0
M  V30 8781 H 831.284 0.314007 -1.87387 0
M  V30 8782 H 829.434 2.56471 -2.91813 0
M  V30 8783 H 831.106 0.552363 -4.57981 0
M  V30 8784 H 829.349 0.450462 -4.31455 0
M  V30 8785 H 830.02 1.81495 -5.21309 0
M  V30 8786 H 832.496 2.42117 -3.38406 0
M  V30 8787 H 831.372 3.54462 -4.19104 0
M  V30 8788 H 831.633 3.67416 -2.45882 0
M  V30 8789 N 830.692 1.47107 0.565454 0
M  V30 8790 C 831.602 1.61591 1.70075 0
M  V30 8791 C 832.618 0.498931 1.66693 0
M  V30 8792 O 833.794 0.765372 1.8629 0
M  V30 8793 C 830.859 1.61887 3.06583 0
M  V30 8794 C 829.92 2.84949 3.21096 0
M  V30 8795 C 829.153 2.85221 4.51093 0
M  V30 8796 O 829.376 1.94959 5.36048 0
M  V30 8797 O 828.31 3.76982 4.69221 0
M  V30 8798 H 832.136 2.57638 1.60799 0
M  V30 8799 H 829.721 1.30097 0.73451 0
M  V30 8800 H 831.603 1.64809 3.87835 0
M  V30 8801 H 830.278 0.69005 3.16259 0
M  V30 8802 H 829.185 2.87575 2.39273 0
M  V30 8803 H 830.518 3.77098 3.1632 0
M  V30 8804 N 832.17 -0.811516 1.35101 0
M  V30 8805 C 833.581 -1.38515 1.25182 0
M  V30 8806 C 833.932 -1.95846 -0.117883 0
M  V30 8807 O 833.057 -1.90925 -1.01866 0
M  V30 8808 C 833.652 -2.51813 2.26662 0
M  V30 8809 C 832.211 -3.05052 2.20499 0
M  V30 8810 C 831.358 -1.77987 2.12641 0
M  V30 8811 H 834.309 -0.614959 1.46301 0
M  V30 8812 H 834.33 -3.30228 1.89023 0
M  V30 8813 H 833.842 -2.10057 3.2634 0
M  V30 8814 H 831.943 -3.51285 1.24215 0
M  V30 8815 H 832.056 -3.63368 3.1225 0
M  V30 8816 H 830.42 -1.99342 1.5854 0
M  V30 8817 H 831.203 -1.38389 3.14171 0
M  V30 8818 N 833.648 -1.19017 -1.03309 0
M  V30 8819 C 834.896 -0.988258 -1.76289 0
M  V30 8820 C 835.217 0.482557 -1.88935 0
M  V30 8821 O 834.487 1.34969 -1.41987 0
M  V30 8822 H 833.067 -0.36267 -0.653054 0
M  V30 8823 H 835.729 -1.49836 -1.2464 0
M  V30 8824 H 834.825 -1.43273 -2.77271 0
M  V30 8825 N 835.127 1.22348 -0.993418 0
M  V30 8826 C 836.376 1.90422 -0.665019 0
M  V30 8827 C 836.689 1.78199 0.806512 0
M  V30 8828 O 837.895 2.41193 1.24652 0
M  V30 8829 C 836.351 3.41403 -1.13893 0
M  V30 8830 C 835.959 3.62262 -2.63572 0
M  V30 8831 C 837.703 4.15175 -0.884884 0
M  V30 8832 C 835.61 5.06947 -3.04564 0
M  V30 8833 H 834.54 0.713073 -0.245037 0
M  V30 8834 H 837.191 1.3856 -1.20305 0
M  V30 8835 H 835.573 3.9245 -0.529027 0
M  V30 8836 H 836.747 3.21705 -3.29913 0
M  V30 8837 H 835.062 3.01824 -2.86865 0
M  V30 8838 H 837.659 5.21813 -1.16684 0
M  V30 8839 H 838.002 4.15915 0.178982 0
M  V30 8840 H 838.535 3.70157 -1.45701 0
M  V30 8841 H 835.274 5.11346 -4.10128 0
M  V30 8842 H 834.794 5.48404 -2.42927 0
M  V30 8843 H 836.473 5.75374 -2.95894 0
M  V30 8844 N 836.605 0.766683 1.37694 0
M  V30 8845 C 837.535 0.163432 2.32927 0
M  V30 8846 C 838.516 -0.688861 1.55527 0
M  V30 8847 O 839.701 -0.627363 1.83787 0
M  V30 8848 C 836.831 -0.720416 3.39746 0
M  V30 8849 C 835.785 0.0301718 4.27989 0
M  V30 8850 C 835.111 -0.972788 5.25776 0
M  V30 8851 C 836.411 1.20623 5.0818 0
M  V30 8852 H 838.105 0.958988 2.83626 0
M  V30 8853 H 835.651 0.462601 1.36367 0
M  V30 8854 H 837.604 -1.15221 4.05342 0
M  V30 8855 H 836.328 -1.54844 2.8756 0
M  V30 8856 H 834.987 0.442685 3.63917 0
M  V30 8857 H 834.635 -1.79522 4.69873 0
M  V30 8858 H 834.335 -0.475145 5.85676 0
M  V30 8859 H 835.859 -1.40362 5.94248 0
M  V30 8860 H 837.273 0.851341 5.66944 0
M  V30 8861 H 835.67 1.63561 5.7738 0
M  V30 8862 H 836.74 2.01281 4.41151 0
M  V30 8863 N 838.083 -1.48885 0.516809 0
M  V30 8864 C 839.013 -2.32241 -0.242157 0
M  V30 8865 C 839.994 -1.41258 -0.947633 0
M  V30 8866 O 841.179 -1.70156 -0.935973 0
M  V30 8867 C 838.309 -3.22151 -1.29754 0
M  V30 8868 C 837.263 -4.22053 -0.710995 0
M  V30 8869 C 836.589 -5.01007 -1.86806 0
M  V30 8870 C 837.889 -5.21388 0.30853 0
M  V30 8871 H 839.583 -2.95943 0.453651 0
M  V30 8872 H 837.129 -1.42316 0.219612 0
M  V30 8873 H 839.082 -3.79284 -1.83634 0
M  V30 8874 H 837.806 -2.56423 -2.02274 0
M  V30 8875 H 836.465 -3.66087 -0.193819 0
M  V30 8876 H 836.113 -4.31713 -2.58133 0
M  V30 8877 H 835.813 -5.68615 -1.48159 0
M  V30 8878 H 837.337 -5.60989 -2.4109 0
M  V30 8879 H 838.751 -5.73122 -0.142703 0
M  V30 8880 H 837.148 -5.96975 0.611673 0
M  V30 8881 H 838.218 -4.69329 1.21894 0
M  V30 8882 N 839.561 -0.251338 -1.55583 0
M  V30 8883 C 840.511 0.660351 -2.18228 0
M  V30 8884 C 841.495 1.13596 -1.13951 0
M  V30 8885 O 842.687 1.08499 -1.39846 0
M  V30 8886 C 839.816 1.85498 -2.88869 0
M  V30 8887 C 838.902 1.39767 -4.00407 0
M  V30 8888 N 839.293 0.654876 -5.01543 0
M  V30 8889 C 837.591 1.68259 -4.13044 0
M  V30 8890 C 838.292 0.417521 -5.802 0
M  V30 8891 N 837.268 0.983032 -5.34638 0
M  V30 8892 H 841.07 0.0847425 -2.93778 0
M  V30 8893 H 838.584 -0.0538456 -1.62311 0
M  V30 8894 H 840.581 2.51916 -3.3218 0
M  V30 8895 H 839.241 2.43477 -2.14823 0
M  V30 8896 H 840.252 0.304545 -5.17004 0
M  V30 8897 H 836.929 2.27344 -3.50172 0
M  V30 8898 H 838.319 -0.175764 -6.7167 0
M  V30 8899 N 841.039 1.57585 0.0217189 0
M  V30 8900 C 842.287 1.89231 0.709641 0
M  V30 8901 C 842.608 0.849964 1.75501 0
M  V30 8902 O 841.878 -0.115485 1.95559 0
M  V30 8903 H 840.458 0.69838 0.265092 0
M  V30 8904 H 843.12 1.94895 -0.0140688 0
M  V30 8905 H 842.216 2.88333 1.19459 0
M  V30 8906 N 842.517 -0.29412 1.54831 0
M  V30 8907 C 843.447 -1.36757 1.89261 0
M  V30 8908 C 844.428 -1.52564 0.752214 0
M  V30 8909 O 845.613 -1.65958 1.00855 0
M  V30 8910 C 842.743 -2.73066 2.14597 0
M  V30 8911 C 841.697 -2.72017 3.3044 0
M  V30 8912 C 841.023 -4.11679 3.4121 0
M  V30 8913 C 842.323 -2.33149 4.67375 0
M  V30 8914 H 844.017 -1.08191 2.79169 0
M  V30 8915 H 841.563 -0.519014 1.34321 0
M  V30 8916 H 843.516 -3.48255 2.37269 0
M  V30 8917 H 842.24 -3.03172 1.21467 0
M  V30 8918 H 840.899 -1.99285 3.07703 0
M  V30 8919 H 840.547 -4.38973 2.45584 0
M  V30 8920 H 840.247 -4.11877 4.19084 0
M  V30 8921 H 841.771 -4.88637 3.6615 0
M  V30 8922 H 843.185 -2.98054 4.89731 0
M  V30 8923 H 841.582 -2.44546 5.48012 0
M  V30 8924 H 842.652 -1.28275 4.67626 0
M  V30 8925 N 843.995 -1.47404 -0.557645 0
M  V30 8926 C 844.942 -1.59859 -1.66475 0
M  V30 8927 C 845.912 -0.441644 -1.60121 0
M  V30 8928 O 847.097 -0.661641 -1.78961 0
M  V30 8929 C 844.237 -1.61843 -3.04797 0
M  V30 8930 C 843.35 -2.8845 -3.2159 0
M  V30 8931 C 842.485 -2.81773 -4.50308 0
M  V30 8932 C 841.524 -4.03208 -4.60532 0
M  V30 8933 N 840.661 -3.94769 -5.80604 0
M  V30 8934 H 845.501 -2.54415 -1.55168 0
M  V30 8935 H 843.038 -1.26194 -0.755876 0
M  V30 8936 H 844.996 -1.60976 -3.84893 0
M  V30 8937 H 843.626 -0.707997 -3.1494 0
M  V30 8938 H 842.678 -2.99186 -2.34929 0
M  V30 8939 H 843.99 -3.78379 -3.25009 0
M  V30 8940 H 843.144 -2.79153 -5.38663 0
M  V30 8941 H 841.883 -1.89527 -4.49367 0
M  V30 8942 H 840.888 -4.06133 -3.70589 0
M  V30 8943 H 842.113 -4.9658 -4.63233 0
M  V30 8944 H 840.059 -3.05326 -5.80613 0
M  V30 8945 H 839.976 -4.78375 -5.854 0
M  V30 8946 H 841.244 -3.96165 -6.71322 0
M  V30 8947 N 845.473 0.80434 -1.35529 0
M  V30 8948 C 846.884 1.37849 -1.25915 0
M  V30 8949 C 847.235 1.95905 0.107495 0
M  V30 8950 O 846.36 1.91462 1.00852 0
M  V30 8951 C 846.955 2.50608 -2.27994 0
M  V30 8952 C 845.514 3.03879 -2.22114 0
M  V30 8953 C 844.661 1.76856 -2.13582 0
M  V30 8954 H 847.612 0.607192 -1.46625 0
M  V30 8955 H 847.633 3.29221 -1.90772 0
M  V30 8956 H 847.145 2.08323 -3.27449 0
M  V30 8957 H 845.246 3.50622 -1.26077 0
M  V30 8958 H 845.359 3.61707 -3.14173 0
M  V30 8959 H 843.723 1.98498 -1.59595 0
M  V30 8960 H 844.506 1.36721 -3.14901 0
M  V30 8961 N 846.951 1.19563 1.02676 0
M  V30 8962 C 848.197 1.01108 1.7649 0
M  V30 8963 C 848.552 -0.453152 1.86987 0
M  V30 8964 O 847.845 -1.33209 1.37717 0
M  V30 8965 C 848.039 1.61619 3.18769 0
M  V30 8966 C 847.868 3.13774 3.22142 0
M  V30 8967 C 846.638 3.82687 3.29968 0
M  V30 8968 C 848.836 4.11114 3.09014 0
M  V30 8969 N 846.818 5.2222 3.22737 0
M  V30 8970 C 848.189 5.37259 3.0944 0
M  V30 8971 C 850.244 4.02447 2.93157 0
M  V30 8972 C 848.947 6.55738 2.95636 0
M  V30 8973 C 850.973 5.20538 2.80703 0
M  V30 8974 C 850.335 6.45582 2.81785 0
M  V30 8975 H 846.434 0.424123 0.656996 0
M  V30 8976 H 849.018 1.5157 1.22207 0
M  V30 8977 H 847.189 1.13756 3.71368 0
M  V30 8978 H 848.921 1.36579 3.80957 0
M  V30 8979 H 845.676 3.3349 3.36275 0
M  V30 8980 H 846.1 5.95238 3.22523 0
M  V30 8981 H 850.742 3.0659 2.9114 0
M  V30 8982 H 848.46 7.51778 2.96403 0
M  V30 8983 H 852.046 5.15635 2.69466 0
M  V30 8984 H 850.926 7.35423 2.72254 0
M  V30 8985 N 848.429 -1.21819 0.999893 0
M  V30 8986 C 849.657 -1.94758 0.698359 0
M  V30 8987 C 850.072 -1.73771 -0.738183 0
M  V30 8988 O 849.429 -1.04113 -1.49889 0
M  V30 8989 C 849.48 -3.47292 1.00353 0
M  V30 8990 O 849.201 -3.67579 2.38363 0
M  V30 8991 C 850.702 -4.37403 0.72068 0
M  V30 8992 H 847.922 -0.619512 0.257771 0
M  V30 8993 H 850.466 -1.54778 1.33656 0
M  V30 8994 H 848.621 -3.85213 0.411018 0
M  V30 8995 H 849.035 -4.61719 2.48829 0
M  V30 8996 H 850.509 -5.43151 0.984422 0
M  V30 8997 H 850.986 -4.3784 -0.345309 0
M  V30 8998 H 851.592 -4.05119 1.29456 0
M  V30 8999 N 849.908 -0.773975 -1.37286 0
M  V30 9000 C 850.84 -0.119938 -2.28886 0
M  V30 9001 C 851.853 0.661822 -1.48741 0
M  V30 9002 O 853.042 0.499548 -1.71367 0
M  V30 9003 C 850.142 0.853703 -3.27971 0
M  V30 9004 C 849.315 0.125286 -4.37221 0
M  V30 9005 C 848.374 1.01261 -5.16365 0
M  V30 9006 O 847.4 0.475565 -5.6721 0
M  V30 9007 N 848.602 2.33864 -5.31308 0
M  V30 9008 H 851.367 -0.906702 -2.85655 0
M  V30 9009 H 848.928 -0.626519 -1.49286 0
M  V30 9010 H 850.92 1.4508 -3.77801 0
M  V30 9011 H 849.49 1.54142 -2.71954 0
M  V30 9012 H 848.71 -0.652742 -3.88758 0
M  V30 9013 H 849.998 -0.377959 -5.07394 0
M  V30 9014 H 849.396 2.79929 -4.91585 0
M  V30 9015 H 847.953 2.88575 -5.84438 0
M  V30 9016 N 851.386 1.48609 -0.524698 0
M  V30 9017 C 852.616 2.06599 0.00741868 0
M  V30 9018 C 853.024 1.3823 1.29186 0
M  V30 9019 O 852.367 0.461962 1.77797 0
M  V30 9020 C 852.429 3.58184 0.307324 0
M  V30 9021 C 852.093 4.48391 -0.882864 0
M  V30 9022 C 853.09 4.88485 -1.77984 0
M  V30 9023 C 850.775 4.90367 -1.08837 0
M  V30 9024 C 852.769 5.69319 -2.86627 0
M  V30 9025 C 850.456 5.70972 -2.17794 0
M  V30 9026 C 851.454 6.10355 -3.06523 0
M  V30 9027 O 851.142 6.89343 -4.13596 0
M  V30 9028 H 850.874 0.675421 -0.0279846 0
M  V30 9029 H 853.428 1.92058 -0.7282 0
M  V30 9030 H 851.658 3.70818 1.09685 0
M  V30 9031 H 853.347 3.98318 0.780886 0
M  V30 9032 H 854.113 4.56682 -1.63299 0
M  V30 9033 H 849.992 4.592 -0.407035 0
M  V30 9034 H 853.536 5.99978 -3.55911 0
M  V30 9035 H 849.433 6.02188 -2.32465 0
M  V30 9036 H 850.201 7.07689 -4.1124 0
M  V30 9037 N 852.864 0.259585 1.55447 0
M  V30 9038 C 853.827 -0.621359 2.20617 0
M  V30 9039 C 854.827 -1.09317 1.17925 0
M  V30 9040 O 856.017 -0.995842 1.42929 0
M  V30 9041 C 853.149 -1.85546 2.85982 0
M  V30 9042 H 854.342 -0.0525833 2.99854 0
M  V30 9043 H 851.895 0.0101055 1.56297 0
M  V30 9044 H 852.63 -2.46515 2.10715 0
M  V30 9045 H 852.415 -1.52523 3.61219 0
M  V30 9046 H 853.905 -2.48227 3.35817 0
M  V30 9047 N 854.342 -1.57594 -0.0133615 0
M  V30 9048 C 855.588 -1.90262 -0.702019 0
M  V30 9049 C 855.921 -0.859219 -1.74158 0
M  V30 9050 O 855.196 0.123778 -1.94106 0
M  V30 9051 C 855.479 -3.3354 -1.35732 0
M  V30 9052 C 855.332 -4.48586 -0.330208 0
M  V30 9053 C 856.651 -3.76004 -2.28712 0
M  V30 9054 H 853.77 -0.691943 -0.253739 0
M  V30 9055 H 856.412 -1.89967 0.0351894 0
M  V30 9056 H 854.562 -3.33921 -1.98567 0
M  V30 9057 H 856.234 -4.6034 0.297433 0
M  V30 9058 H 854.477 -4.32394 0.348926 0
M  V30 9059 H 855.148 -5.45762 -0.827508 0
M  V30 9060 H 857.624 -3.77089 -1.75906 0
M  V30 9061 H 856.5 -4.77032 -2.71535 0
M  V30 9062 H 856.761 -3.09129 -3.16056 0
M  V30 9063 N 855.82 0.285905 -1.54985 0
M  V30 9064 C 857.05 1.03626 -1.78732 0
M  V30 9065 C 857.458 1.80896 -0.554377 0
M  V30 9066 O 856.801 1.77161 0.48578 0
M  V30 9067 C 856.863 2.05185 -2.95193 0
M  V30 9068 C 856.527 1.46973 -4.32722 0
M  V30 9069 C 857.524 0.891986 -5.12191 0
M  V30 9070 C 855.209 1.50081 -4.79355 0
M  V30 9071 C 857.203 0.353078 -6.36421 0
M  V30 9072 C 854.89 0.958037 -6.03544 0
M  V30 9073 C 855.888 0.385157 -6.81913 0
M  V30 9074 O 855.576 -0.149341 -8.03761 0
M  V30 9075 H 855.308 0.312416 -0.599477 0
M  V30 9076 H 857.862 0.326067 -2.02795 0
M  V30 9077 H 856.092 2.79928 -2.66791 0
M  V30 9078 H 857.781 2.66244 -3.0638 0
M  V30 9079 H 858.547 0.860762 -4.77301 0
M  V30 9080 H 854.426 1.9361 -4.18373 0
M  V30 9081 H 857.97 -0.0947181 -6.97536 0
M  V30 9082 H 853.867 0.986458 -6.37918 0
M  V30 9083 H 854.635 -0.0374719 -8.18491 0
M  V30 9084 N 857.298 1.47698 0.54982 0
M  V30 9085 C 858.544 1.54931 1.30859 0
M  V30 9086 C 858.877 0.214021 1.93017 0
M  V30 9087 O 858.152 -0.778093 1.78258 0
M  V30 9088 C 858.435 2.67286 2.41309 0
M  V30 9089 C 858.288 4.10457 1.83971 0
M  V30 9090 C 859.607 2.75509 3.43195 0
M  V30 9091 H 856.726 0.56399 0.474431 0
M  V30 9092 H 859.368 1.79787 0.614541 0
M  V30 9093 H 857.518 2.46224 3.0051 0
M  V30 9094 H 859.19 4.42903 1.28974 0
M  V30 9095 H 857.433 4.18387 1.14606 0
M  V30 9096 H 858.104 4.84857 2.63851 0
M  V30 9097 H 860.58 2.94531 2.93923 0
M  V30 9098 H 859.456 3.55886 4.17895 0
M  V30 9099 H 859.717 1.82863 4.02509 0
M  V30 9100 N 858.776 -0.797141 1.35954 0
M  V30 9101 C 859.723 -1.90944 1.2965 0
M  V30 9102 C 860.693 -1.65262 0.166628 0
M  V30 9103 O 861.878 -1.87527 0.351883 0
M  V30 9104 C 859.018 -3.27637 1.08389 0
M  V30 9105 C 858.131 -3.65442 2.30382 0
M  V30 9106 C 857.266 -4.91213 2.02195 0
M  V30 9107 C 856.305 -5.21674 3.20191 0
M  V30 9108 N 855.442 -6.38627 2.91719 0
M  V30 9109 H 860.282 -1.95668 2.24762 0
M  V30 9110 H 857.819 -0.95696 1.11717 0
M  V30 9111 H 859.777 -4.06451 0.940912 0
M  V30 9112 H 858.407 -3.22355 0.169351 0
M  V30 9113 H 857.459 -2.81813 2.55511 0
M  V30 9114 H 858.771 -3.83907 3.18461 0
M  V30 9115 H 857.925 -5.77876 1.84783 0
M  V30 9116 H 856.664 -4.74803 1.11416 0
M  V30 9117 H 855.669 -4.33498 3.38171 0
M  V30 9118 H 856.894 -5.40009 4.11786 0
M  V30 9119 H 854.84 -6.23623 2.03543 0
M  V30 9120 H 854.757 -6.57387 3.73334 0
M  V30 9121 H 856.025 -7.28292 2.77868 0
M  V30 9122 N 860.254 -1.20106 -1.0204 0
M  V30 9123 C 861.217 -0.948261 -2.08664 0
M  V30 9124 C 862.217 0.0746753 -1.60627 0
M  V30 9125 O 863.407 -0.160981 -1.73455 0
M  V30 9126 C 860.539 -0.426854 -3.38217 0
M  V30 9127 H 861.732 -1.894 -2.32524 0
M  V30 9128 H 859.285 -1.0159 -1.18782 0
M  V30 9129 H 860.02 0.524532 -3.2003 0
M  V30 9130 H 859.805 -1.16451 -3.74408 0
M  V30 9131 H 861.295 -0.269346 -4.1673 0
M  V30 9132 N 861.732 1.21287 -1.00634 0
M  V30 9133 C 862.978 1.90671 -0.690822 0
M  V30 9134 C 863.311 1.77996 0.776592 0
M  V30 9135 O 862.586 1.15748 1.5631 0
M  V30 9136 C 862.869 3.42426 -1.11428 0
M  V30 9137 C 862.722 3.64086 -2.64124 0
M  V30 9138 C 864.041 4.34851 -0.677686 0
M  V30 9139 H 861.16 0.692419 -0.252439 0
M  V30 9140 H 863.802 1.42893 -1.25226 0
M  V30 9141 H 861.952 3.83249 -0.636586 0
M  V30 9142 H 863.624 3.32582 -3.19667 0
M  V30 9143 H 861.867 3.07906 -3.05576 0
M  V30 9144 H 862.538 4.7042 -2.88806 0
M  V30 9145 H 865.014 4.01619 -1.0882 0
M  V30 9146 H 863.89 5.39675 -1.00213 0
M  V30 9147 H 864.151 4.4009 0.421125 0
M  V30 9148 N 863.21 0.781244 1.36873 0
M  V30 9149 C 864.438 0.361566 2.03716 0
M  V30 9150 C 864.853 -1.01937 1.58916 0
M  V30 9151 O 864.21 -1.65237 0.774783 0
M  V30 9152 C 864.261 0.406391 3.59208 0
M  V30 9153 O 863.982 1.73286 4.02372 0
M  V30 9154 C 865.483 -0.0236894 4.43294 0
M  V30 9155 H 862.703 0.150133 0.653988 0
M  V30 9156 H 865.247 1.05781 1.75016 0
M  V30 9157 H 863.402 -0.241364 3.86647 0
M  V30 9158 H 863.816 1.67804 4.96933 0
M  V30 9159 H 865.29 0.0588205 5.51969 0
M  V30 9160 H 865.767 -1.07529 4.25833 0
M  V30 9161 H 866.373 0.59624 4.211 0
M  V30 9162 N 864.689 -1.48329 0.532571 0
M  V30 9163 C 865.619 -2.32485 -0.217511 0
M  V30 9164 C 866.6 -1.42255 -0.932598 0
M  V30 9165 O 867.785 -1.7114 -0.917873 0
M  V30 9166 C 864.915 -3.23509 -1.26329 0
M  V30 9167 C 863.869 -4.22784 -0.666191 0
M  V30 9168 C 863.195 -5.0296 -1.81482 0
M  V30 9169 C 864.495 -5.21031 0.363813 0
M  V30 9170 H 866.189 -2.95445 0.485014 0
M  V30 9171 H 863.735 -1.42075 0.234694 0
M  V30 9172 H 865.688 -3.81211 -1.79601 0
M  V30 9173 H 864.412 -2.58554 -1.99543 0
M  V30 9174 H 863.071 -3.66272 -0.15498 0
M  V30 9175 H 862.719 -4.34427 -2.5354 0
M  V30 9176 H 862.419 -5.70154 -1.4212 0
M  V30 9177 H 863.943 -5.63514 -2.35126 0
M  V30 9178 H 865.357 -5.73241 -0.0819079 0
M  V30 9179 H 863.754 -5.96292 0.674956 0
M  V30 9180 H 864.824 -4.6801 1.26865 0
M  V30 9181 N 866.167 -0.267825 -1.55308 0
M  V30 9182 C 867.395 0.354587 -2.03839 0
M  V30 9183 C 867.81 1.50007 -1.14644 0
M  V30 9184 O 867.167 1.81752 -0.165055 0
M  V30 9185 C 867.218 0.84254 -3.51544 0
M  V30 9186 O 866.939 -0.257318 -4.37344 0
M  V30 9187 C 868.44 1.53351 -4.15931 0
M  V30 9188 H 865.66 0.0818131 -0.665994 0
M  V30 9189 H 868.204 -0.397795 -2.00594 0
M  V30 9190 H 866.359 1.54503 -3.55257 0
M  V30 9191 H 866.773 0.116593 -5.2437 0
M  V30 9192 H 868.247 1.82643 -5.20908 0
M  V30 9193 H 868.724 2.4626 -3.63666 0
M  V30 9194 H 869.33 0.87506 -4.162 0
M  V30 9195 N 867.645 1.57599 0.00500368 0
M  V30 9196 C 868.578 2.03541 1.03181 0
M  V30 9197 C 869.556 0.924301 1.33774 0
M  V30 9198 O 870.74 1.19204 1.46023 0
M  V30 9199 C 867.867 2.42879 2.36067 0
M  V30 9200 C 866.913 3.64673 2.21169 0
M  V30 9201 S 867.746 5.12805 1.54243 0
M  V30 9202 C 868.902 5.55408 2.88569 0
M  V30 9203 H 869.135 2.90316 0.640598 0
M  V30 9204 H 866.668 1.52886 0.215722 0
M  V30 9205 H 868.626 2.66212 3.12476 0
M  V30 9206 H 867.287 1.56512 2.72329 0
M  V30 9207 H 866.48 3.89932 3.19326 0
M  V30 9208 H 866.082 3.41316 1.52904 0
M  V30 9209 H 868.374 5.57563 3.84876 0
M  V30 9210 H 869.317 6.55418 2.68016 0
M  V30 9211 H 869.725 4.82961 2.92249 0
M  V30 9212 N 869.123 -0.277682 1.55134 0
M  V30 9213 C 870.369 -1.0114 1.7578 0
M  V30 9214 C 870.702 -1.86109 0.554719 0
M  V30 9215 O 869.977 -1.89275 -0.447813 0
M  V30 9216 C 870.26 -1.89789 3.06027 0
M  V30 9217 C 870.113 -1.07844 4.3668 0
M  V30 9218 C 871.432 -2.88577 3.32282 0
M  V30 9219 H 868.551 -0.366277 0.639539 0
M  V30 9220 H 871.193 -0.284155 1.87863 0
M  V30 9221 H 869.343 -2.51796 2.95856 0
M  V30 9222 H 871.015 -0.479432 4.58802 0
M  V30 9223 H 869.258 -0.381764 4.32117 0
M  V30 9224 H 869.929 -1.73179 5.24131 0
M  V30 9225 H 872.405 -2.36702 3.42215 0
M  V30 9226 H 871.281 -3.47749 4.2469 0
M  V30 9227 H 871.542 -3.63458 2.51696 0
M  V30 9228 N 870.601 -1.47988 -0.541979 0
M  V30 9229 C 871.511 -1.64276 -1.67483 0
M  V30 9230 C 872.527 -0.525387 -1.65879 0
M  V30 9231 O 873.703 -0.794912 -1.85049 0
M  V30 9232 C 870.768 -1.66744 -3.03969 0
M  V30 9233 C 869.829 -2.90021 -3.16522 0
M  V30 9234 C 869.062 -2.92362 -4.46498 0
M  V30 9235 O 869.285 -2.03462 -5.32878 0
M  V30 9236 O 868.219 -3.84399 -4.63164 0
M  V30 9237 H 872.045 -2.60164 -1.5668 0
M  V30 9238 H 869.63 -1.31249 -0.71372 0
M  V30 9239 H 871.512 -1.70958 -3.85164 0
M  V30 9240 H 870.187 -0.740277 -3.15122 0
M  V30 9241 H 869.094 -2.91345 -2.34667 0
M  V30 9242 H 870.427 -3.82082 -3.10281 0
M  V30 9243 N 872.079 0.78992 -1.36375 0
M  V30 9244 C 873.027 1.92394 -1.30719 0
M  V30 9245 C 874.021 1.68226 -0.199076 0
M  V30 9246 O 875.227 1.76239 -0.366051 0
M  V30 9247 H 871.602 0.632382 -0.406936 0
M  V30 9248 H 873.573 1.94282 -2.26488 0
M  V30 9249 C 872.322 3.2941 -1.11284 0
M  V30 9250 H 871.645 3.48573 -1.95798 0
M  V30 9251 H 873.085 4.09111 -1.11373 0
M  V30 9252 C 871.544 3.36405 0.182543 0
M  V30 9253 O 872.074 3.84206 1.17255 0
M  V30 9254 N 870.28 2.89712 0.227046 0
M  V30 9255 H 869.827 2.51004 -0.579217 0
M  V30 9256 H 869.785 2.94773 1.09344 0
M  V30 9257 N 873.557 1.20646 1.01402 0
M  V30 9258 C 874.834 0.927176 1.72229 0
M  V30 9259 C 875.214 -0.563382 2.03443 0
M  V30 9260 O 874.562 -1.52576 1.70096 0
M  V30 9261 C 874.772 1.80285 2.98828 0
M  V30 9262 C 876.12 2.04624 3.72041 0
M  V30 9263 O 877.144 1.77559 3.0879 0
M  V30 9264 O 876.003 2.50347 4.85787 0
M  V30 9265 H 873.097 0.346891 0.75073 0
M  V30 9266 H 875.643 1.31532 1.07227 0
M  V30 9267 H 874.415 2.81204 2.72102 0
M  V30 9268 H 874.038 1.41495 3.71571 0
M  V30 9269 N 875.035 -1.20752 1.01276 0
M  V30 9270 C 875.985 -2.21252 0.550602 0
M  V30 9271 C 876.969 -1.56052 -0.391985 0
M  V30 9272 O 878.161 -1.75682 -0.215575 0
M  V30 9273 C 875.29 -3.43112 -0.113601 0
M  V30 9274 C 874.376 -4.15485 0.850465 0
M  V30 9275 N 874.767 -4.64301 2.00643 0
M  V30 9276 C 873.065 -4.40932 0.670476 0
M  V30 9277 C 873.766 -5.197 2.61317 0
M  V30 9278 N 872.742 -5.09534 1.8941 0
M  V30 9279 H 876.544 -2.56657 1.43194 0
M  V30 9280 H 874.058 -1.36646 0.877597 0
M  V30 9281 H 876.055 -4.1433 -0.462211 0
M  V30 9282 H 874.715 -3.09213 -0.990825 0
M  V30 9283 H 875.726 -4.59637 2.38651 0
M  V30 9284 H 872.403 -4.17197 -0.159016 0
M  V30 9285 H 873.793 -5.67873 3.59123 0
M  V30 9286 N 876.513 -0.788492 -1.36457 0
M  V30 9287 C 877.762 -0.357052 -1.98515 0
M  V30 9288 C 878.075 1.0769 -1.63285 0
M  V30 9289 O 879.281 1.61057 -2.1857 0
M  V30 9290 C 877.737 -0.587449 -3.55073 0
M  V30 9291 C 877.345 -2.03276 -3.99228 0
M  V30 9292 C 879.089 -0.220468 -4.23927 0
M  V30 9293 C 876.996 -2.20987 -5.48561 0
M  V30 9294 H 875.926 -0.129762 -0.74275 0
M  V30 9295 H 878.577 -0.969995 -1.55767 0
M  V30 9296 H 876.959 0.0951918 -3.95886 0
M  V30 9297 H 878.133 -2.75173 -3.69617 0
M  V30 9298 H 876.448 -2.3579 -3.43208 0
M  V30 9299 H 879.045 -0.331085 -5.33674 0
M  V30 9300 H 879.388 0.831306 -4.07915 0
M  V30 9301 H 879.921 -0.856309 -3.88474 0
M  V30 9302 H 876.66 -3.24543 -5.69519 0
M  V30 9303 H 876.18 -1.53594 -5.79801 0
M  V30 9304 H 877.859 -2.01656 -6.14771 0
M  V30 9305 N 877.991 1.48044 -0.54043 0
M  V30 9306 C 879.407 1.58354 -0.199006 0
M  V30 9307 C 879.607 1.54118 1.29807 0
M  V30 9308 O 878.663 1.43573 2.07709 0
M  V30 9309 C 879.976 2.89563 -0.810797 0
M  V30 9310 C 881.524 3.03113 -0.780486 0
M  V30 9311 C 881.999 4.36997 -1.37104 0
M  V30 9312 N 883.49 4.43591 -1.33347 0
M  V30 9313 C 884.225 5.45714 -1.76021 0
M  V30 9314 N 883.721 6.54738 -2.26473 0
M  V30 9315 N 885.514 5.36659 -1.67194 0
M  V30 9316 H 877.665 1.49041 -1.51329 0
M  V30 9317 H 879.928 0.708309 -0.630081 0
M  V30 9318 H 879.634 2.9835 -1.86227 0
M  V30 9319 H 879.508 3.76053 -0.293977 0
M  V30 9320 H 881.895 2.93932 0.262246 0
M  V30 9321 H 881.976 2.18207 -1.33489 0
M  V30 9322 H 881.62 4.46932 -2.41276 0
M  V30 9323 H 881.55 5.20607 -0.792229 0
M  V30 9324 H 884.041 3.65391 -0.964259 0
M  V30 9325 H 884.354 7.28814 -2.57002 0
M  V30 9326 H 882.699 6.55673 -2.30473 0
M  V30 9327 H 885.89 4.50382 -1.27569 0
M  V30 9328 H 886.063 6.16113 -2.00771 0
M  V30 9329 N 879.47 0.276058 1.55163 0
M  V30 9330 C 880.718 -0.339782 1.99223 0
M  V30 9331 C 881.039 -1.56307 1.16589 0
M  V30 9332 O 880.309 -1.94225 0.25564 0
M  V30 9333 H 878.889 -0.128534 0.735859 0
M  V30 9334 H 881.551 0.381612 1.91128 0
M  V30 9335 H 880.647 -0.629 3.05696 0
M  V30 9336 N 880.948 -1.576 0.00335426 0
M  V30 9337 C 881.911 -2.07576 -0.971838 0
M  V30 9338 C 882.911 -0.985796 -1.27038 0
M  V30 9339 O 884.101 -1.24833 -1.21501 0
M  V30 9340 C 881.233 -2.52003 -2.29581 0
M  V30 9341 H 882.426 -2.95008 -0.539481 0
M  V30 9342 H 879.979 -1.54381 -0.244186 0
M  V30 9343 H 880.714 -1.67825 -2.77498 0
M  V30 9344 H 880.499 -3.31609 -2.09231 0
M  V30 9345 H 881.989 -2.90983 -2.99531 0
M  V30 9346 N 882.426 0.269451 -1.5528 0
M  V30 9347 C 883.373 1.33316 -1.88403 0
M  V30 9348 C 884.343 1.48909 -0.735881 0
M  V30 9349 O 885.528 1.63259 -0.987479 0
M  V30 9350 C 882.668 2.68778 -2.16454 0
M  V30 9351 C 881.781 2.61377 -3.43956 0
M  V30 9352 C 880.916 3.89042 -3.6169 0
M  V30 9353 C 879.955 3.76166 -4.82872 0
M  V30 9354 N 879.092 4.95673 -4.97245 0
M  V30 9355 H 883.932 1.04368 -2.79126 0
M  V30 9356 H 881.469 0.504147 -1.38191 0
M  V30 9357 H 883.427 3.47599 -2.30719 0
M  V30 9358 H 882.057 2.9592 -1.28961 0
M  V30 9359 H 881.109 1.74247 -3.38145 0
M  V30 9360 H 882.421 2.47764 -4.32914 0
M  V30 9361 H 881.575 4.76304 -3.75791 0
M  V30 9362 H 880.314 4.05526 -2.70924 0
M  V30 9363 H 879.319 2.87287 -4.68771 0
M  V30 9364 H 880.544 3.61198 -5.75077 0
M  V30 9365 H 878.49 5.12561 -4.09411 0
M  V30 9366 H 878.407 4.84605 -5.80254 0
M  V30 9367 H 879.675 5.84498 -5.15735 0
M  V30 9368 N 883.904 1.48273 0.534124 0
M  V30 9369 C 885.129 1.59988 1.31979 0
M  V30 9370 C 885.554 0.258824 1.86311 0
M  V30 9371 O 884.912 -0.768885 1.64188 0
M  V30 9372 C 884.96 2.64642 2.44943 0
M  V30 9373 O 884.064 2.21515 3.47858 0
M  V30 9374 H 883.405 0.536625 0.391063 0
M  V30 9375 H 885.935 1.94229 0.643135 0
M  V30 9376 H 885.945 2.85786 2.91187 0
M  V30 9377 H 884.62 3.62004 2.04758 0
M  V30 9378 H 883.197 2.10567 3.0776 0
M  V30 9379 N 885.382 -0.782676 1.36792 0
M  V30 9380 C 886.292 -1.92679 1.33835 0
M  V30 9381 C 887.308 -1.72344 0.23952 0
M  V30 9382 O 888.484 -1.95766 0.473045 0
M  V30 9383 C 885.549 -3.27644 1.1336 0
M  V30 9384 C 884.61 -3.6071 2.32781 0
M  V30 9385 C 883.843 -4.89234 2.13273 0
M  V30 9386 O 884.066 -5.59468 1.11136 0
M  V30 9387 O 883 -5.21112 3.01208 0
M  V30 9388 H 886.826 -1.98124 2.30175 0
M  V30 9389 H 884.411 -0.923887 1.17408 0
M  V30 9390 H 886.293 -4.08394 1.03886 0
M  V30 9391 H 884.968 -3.23076 0.200868 0
M  V30 9392 H 883.875 -2.80238 2.47825 0
M  V30 9393 H 885.208 -3.70008 3.24584 0
M  V30 9394 N 886.86 -1.21182 -1.00761 0
M  V30 9395 C 888.109 -1.02166 -1.73911 0
M  V30 9396 C 888.422 0.445638 -1.90456 0
M  V30 9397 O 889.628 0.755132 -2.60787 0
M  V30 9398 C 888.084 -1.77936 -3.12837 0
M  V30 9399 C 887.692 -3.28819 -3.04273 0
M  V30 9400 C 889.436 -1.67319 -3.90134 0
M  V30 9401 C 887.343 -3.97089 -4.38262 0
M  V30 9402 H 886.273 -0.378665 -0.652019 0
M  V30 9403 H 888.924 -1.44891 -1.12601 0
M  V30 9404 H 887.306 -1.28003 -3.74742 0
M  V30 9405 H 888.48 -3.86035 -2.51622 0
M  V30 9406 H 886.795 -3.39949 -2.40465 0
M  V30 9407 H 889.392 -2.15659 -4.8928 0
M  V30 9408 H 889.735 -0.630959 -4.11491 0
M  V30 9409 H 890.268 -2.14716 -3.34876 0
M  V30 9410 H 887.007 -5.01503 -4.22107 0
M  V30 9411 H 886.527 -3.44662 -4.90885 0
M  V30 9412 H 888.206 -4.01854 -5.07072 0
M  V30 9413 N 888.338 1.20213 -1.01915 0
M  V30 9414 C 889.268 2.25336 -0.612023 0
M  V30 9415 C 890.249 1.65933 0.374186 0
M  V30 9416 O 891.434 1.92464 0.259053 0
M  V30 9417 C 888.564 3.47267 0.047904 0
M  V30 9418 C 887.518 4.1928 -0.859557 0
M  V30 9419 C 886.844 5.3466 -0.0652655 0
M  V30 9420 C 888.144 4.75143 -2.1688 0
M  V30 9421 H 889.838 2.59645 -1.49079 0
M  V30 9422 H 887.384 1.24808 -0.718263 0
M  V30 9423 H 889.337 4.19991 0.344294 0
M  V30 9424 H 888.061 3.12129 0.961404 0
M  V30 9425 H 886.72 3.48425 -1.13999 0
M  V30 9426 H 886.368 4.95767 0.849964 0
M  V30 9427 H 886.068 5.83772 -0.669618 0
M  V30 9428 H 887.592 6.10187 0.224612 0
M  V30 9429 H 889.006 5.39672 -1.9346 0
M  V30 9430 H 887.403 5.34702 -2.72422 0
M  V30 9431 H 888.473 3.93744 -2.83008 0
M  V30 9432 N 889.816 0.795718 1.36037 0
M  V30 9433 C 891.046 0.382597 2.03026 0
M  V30 9434 C 891.454 -1.00779 1.60126 0
M  V30 9435 O 890.797 -1.65884 0.78919 0
M  V30 9436 C 890.859 0.374145 3.57548 0
M  V30 9437 C 890.523 1.71318 4.23673 0
M  V30 9438 C 891.52 2.6697 4.4612 0
M  V30 9439 C 889.205 1.99421 4.61017 0
M  V30 9440 C 891.199 3.88916 5.04998 0
M  V30 9441 C 888.886 3.21632 5.19611 0
M  V30 9442 C 889.884 4.16198 5.41542 0
M  V30 9443 O 889.572 5.36254 5.98905 0
M  V30 9444 H 889.304 0.154944 0.658003 0
M  V30 9445 H 891.858 1.07756 1.74865 0
M  V30 9446 H 890.088 -0.377349 3.84854 0
M  V30 9447 H 891.777 -0.01517 4.05897 0
M  V30 9448 H 892.543 2.46548 4.17659 0
M  V30 9449 H 888.422 1.2663 4.43267 0
M  V30 9450 H 891.966 4.6274 5.22032 0
M  V30 9451 H 887.863 3.4193 5.47498 0
M  V30 9452 H 888.631 5.37403 6.17366 0
M  V30 9453 N 891.294 -1.47756 0.548274 0
M  V30 9454 C 892.543 -2.01691 0.0187961 0
M  V30 9455 C 892.856 -1.42894 -1.33569 0
M  V30 9456 O 894.062 -1.88438 -1.95457 0
M  V30 9457 C 892.518 -3.59896 -0.016847 0
M  V30 9458 C 892.126 -4.27683 1.33385 0
M  V30 9459 C 893.87 -4.21614 -0.494188 0
M  V30 9460 C 891.777 -5.7787 1.2578 0
M  V30 9461 H 890.707 -0.753993 0.00325648 0
M  V30 9462 H 893.358 -1.69838 0.694792 0
M  V30 9463 H 891.74 -3.88672 -0.758304 0
M  V30 9464 H 892.914 -4.10559 2.09232 0
M  V30 9465 H 891.229 -3.77915 1.7484 0
M  V30 9466 H 893.826 -5.3166 -0.569342 0
M  V30 9467 H 894.169 -3.88176 -1.50417 0
M  V30 9468 H 894.702 -3.97336 0.192138 0
M  V30 9469 H 891.441 -6.15912 2.2435 0
M  V30 9470 H 890.961 -5.97355 0.540997 0
M  V30 9471 H 892.64 -6.39897 0.956109 0
M  V30 9472 N 892.772 -0.284283 -1.55015 0
M  V30 9473 C 894.188 0.069603 -1.59448 0
M  V30 9474 C 894.388 1.53833 -1.30144 0
M  V30 9475 O 893.444 2.2886 -1.06674 0
M  V30 9476 C 894.757 -0.313287 -2.99064 0
M  V30 9477 C 896.305 -0.260662 -3.11913 0
M  V30 9478 C 896.78 -0.618127 -4.5381 0
M  V30 9479 N 898.271 -0.570026 -4.59679 0
M  V30 9480 C 899.006 -0.8193 -5.67517 0
M  V30 9481 N 898.502 -1.13367 -6.83462 0
M  V30 9482 N 900.295 -0.747482 -5.57108 0
M  V30 9483 H 892.446 -1.24167 -1.72326 0
M  V30 9484 H 894.709 -0.502259 -0.804015 0
M  V30 9485 H 894.415 -1.33509 -3.25374 0
M  V30 9486 H 894.289 0.341369 -3.75652 0
M  V30 9487 H 896.676 0.751869 -2.85361 0
M  V30 9488 H 896.757 -0.949706 -2.37517 0
M  V30 9489 H 896.401 -1.62839 -4.81088 0
M  V30 9490 H 896.331 0.092807 -5.26518 0
M  V30 9491 H 898.822 -0.3373 -3.76392 0
M  V30 9492 H 899.135 -1.3103 -7.61611 0
M  V30 9493 H 897.48 -1.17154 -6.85055 0
M  V30 9494 H 900.671 -0.501658 -4.65404 0
M  V30 9495 H 900.844 -0.945128 -6.4107 0
M  V30 9496 N 894.251 1.57596 -0.0117121 0
M  V30 9497 C 895.479 1.9536 0.681334 0
M  V30 9498 C 895.894 0.887255 1.66653 0
M  V30 9499 O 895.251 -0.132692 1.82017 0
M  V30 9500 C 895.302 3.33165 1.40298 0
M  V30 9501 O 895.023 4.35707 0.45728 0
M  V30 9502 C 896.524 3.85458 2.18946 0
M  V30 9503 H 893.744 0.643826 0.189023 0
M  V30 9504 H 896.288 2.04392 -0.066311 0
M  V30 9505 H 894.443 3.25404 2.10216 0
M  V30 9506 H 894.857 5.15495 0.96773 0
M  V30 9507 H 896.331 4.84275 2.64918 0
M  V30 9508 H 896.808 3.18781 3.02118 0
M  V30 9509 H 897.414 3.96431 1.5402 0
M  V30 9510 N 895.729 -0.261212 1.5542 0
M  V30 9511 C 896.677 -1.34298 1.89913 0
M  V30 9512 C 897.671 -1.50547 0.776665 0
M  V30 9513 O 898.877 -1.52191 0.961139 0
M  V30 9514 H 895.252 -0.4494 0.602946 0
M  V30 9515 H 897.223 -1.02464 2.80256 0
M  V30 9516 C 895.972 -2.69423 2.19788 0
M  V30 9517 H 895.295 -2.57715 3.05652 0
M  V30 9518 H 896.735 -3.44026 2.47835 0
M  V30 9519 C 895.194 -3.21423 1.00939 0
M  V30 9520 O 895.724 -4.00921 0.250034 0
M  V30 9521 N 893.93 -2.7926 0.803883 0
M  V30 9522 H 893.477 -2.14724 1.42308 0
M  V30 9523 H 893.435 -3.14398 0.0103257 0
M  V30 9524 N 897.207 -1.48554 -0.526253 0
M  V30 9525 C 898.17 -1.62868 -1.61266 0
M  V30 9526 C 899.17 -0.501762 -1.52771 0
M  V30 9527 O 900.36 -0.76764 -1.56374 0
M  V30 9528 C 897.492 -1.60238 -3.00893 0
M  V30 9529 H 898.685 -2.59742 -1.49913 0
M  V30 9530 H 896.238 -1.37207 -0.748595 0
M  V30 9531 H 896.973 -0.648545 -3.17749 0
M  V30 9532 H 896.758 -2.42054 -3.08468 0
M  V30 9533 H 898.248 -1.73455 -3.79872 0
M  V30 9534 N 898.685 0.775411 -1.37205 0
M  V30 9535 C 899.91 1.5696 -1.35567 0
M  V30 9536 C 900.335 1.88012 0.0575554 0
M  V30 9537 O 899.693 1.48954 1.03355 0
M  V30 9538 C 899.741 2.85886 -2.19776 0
M  V30 9539 O 898.845 3.80103 -1.59987 0
M  V30 9540 H 898.186 0.475583 -0.463375 0
M  V30 9541 H 900.716 0.96001 -1.80679 0
M  V30 9542 H 900.726 3.35024 -2.32859 0
M  V30 9543 H 899.401 2.62613 -3.22502 0
M  V30 9544 H 897.978 3.38736 -1.55924 0
M  V30 9545 N 900.163 1.21714 1.00117 0
M  V30 9546 C 901.409 1.03823 1.74208 0
M  V30 9547 C 901.742 -0.426733 1.89454 0
M  V30 9548 O 901.017 -1.31658 1.43166 0
M  V30 9549 C 901.3 1.74047 3.15246 0
M  V30 9550 C 901.153 3.28087 3.077 0
M  V30 9551 C 902.472 1.48614 4.14249 0
M  V30 9552 H 899.591 0.378573 0.632338 0
M  V30 9553 H 902.233 1.49942 1.16694 0
M  V30 9554 H 900.383 1.3484 3.64349 0
M  V30 9555 H 902.055 3.76686 2.6628 0
M  V30 9556 H 900.298 3.58191 2.44707 0
M  V30 9557 H 900.969 3.72392 4.07466 0
M  V30 9558 H 903.445 1.82656 3.73866 0
M  V30 9559 H 902.321 2.00257 5.11066 0
M  V30 9560 H 902.582 0.416957 4.40129 0
M  V30 9561 N 901.641 -1.19671 1.02551 0
M  V30 9562 C 903.052 -1.70964 0.750208 0
M  V30 9563 C 903.403 -1.82095 -0.730461 0
M  V30 9564 O 902.528 -1.48974 -1.56958 0
M  V30 9565 C 903.123 -3.10516 1.35518 0
M  V30 9566 C 901.682 -3.59083 1.12854 0
M  V30 9567 C 900.829 -2.36041 1.45534 0
M  V30 9568 H 903.78 -1.04559 1.19386 0
M  V30 9569 H 903.801 -3.73028 0.750378 0
M  V30 9570 H 903.313 -3.02383 2.43282 0
M  V30 9571 H 901.414 -3.72536 0.0689627 0
M  V30 9572 H 901.527 -4.43395 1.81488 0
M  V30 9573 H 899.891 -2.39214 0.87458 0
M  V30 9574 H 900.674 -2.3054 2.54374 0
M  V30 9575 N 903.119 -0.802921 -1.35613 0
M  V30 9576 C 904.344 -0.392846 -2.03645 0
M  V30 9577 C 904.769 0.987075 -1.6012 0
M  V30 9578 O 904.127 1.63849 -0.776101 0
M  V30 9579 C 904.175 -0.480208 -3.57388 0
M  V30 9580 O 903.279 0.507751 -4.09262 0
M  V30 9581 H 902.62 -0.16464 -0.643265 0
M  V30 9582 H 905.15 -1.08779 -1.73287 0
M  V30 9583 H 905.16 -0.348683 -4.06507 0
M  V30 9584 H 903.835 -1.48675 -3.88418 0
M  V30 9585 H 902.412 0.336769 -3.71376 0
M  V30 9586 N 904.597 1.47463 -0.556102 0
M  V30 9587 C 905.846 2.01678 -0.029492 0
M  V30 9588 C 906.159 1.436 1.32809 0
M  V30 9589 O 907.365 1.89472 1.94455 0
M  V30 9590 C 905.821 3.599 -0.00223937 0
M  V30 9591 C 905.429 4.26969 -1.35651 0
M  V30 9592 C 907.173 4.2187 0.471822 0
M  V30 9593 C 905.08 5.77194 -1.28843 0
M  V30 9594 H 904.01 0.753965 -0.00725504 0
M  V30 9595 H 906.661 1.69467 -0.703789 0
M  V30 9596 H 905.043 3.89068 0.737682 0
M  V30 9597 H 906.217 4.09444 -2.11406 0
M  V30 9598 H 904.532 3.76983 -1.76842 0
M  V30 9599 H 907.129 5.31955 0.541139 0
M  V30 9600 H 907.472 3.88968 1.48356 0
M  V30 9601 H 908.005 3.97228 -0.213207 0
M  V30 9602 H 904.744 6.14713 -2.27613 0
M  V30 9603 H 904.264 5.9706 -0.572668 0
M  V30 9604 H 905.943 6.3938 -0.990031 0
M  V30 9605 N 906.075 0.2925 1.54862 0
M  V30 9606 C 907.486 -0.201841 1.85606 0
M  V30 9607 C 907.837 -1.54093 1.21449 0
M  V30 9608 O 906.962 -2.10327 0.509079 0
M  V30 9609 C 907.557 -0.373011 3.3674 0
M  V30 9610 C 906.116 -0.811574 3.67547 0
M  V30 9611 C 905.263 0.0850583 2.7717 0
M  V30 9612 H 908.214 0.513774 1.50153 0
M  V30 9613 H 908.235 -1.20892 3.60785 0
M  V30 9614 H 907.747 0.601751 3.83407 0
M  V30 9615 H 905.848 -1.79719 3.26392 0
M  V30 9616 H 905.961 -0.636853 4.74848 0
M  V30 9617 H 904.325 -0.434224 2.50971 0
M  V30 9618 H 905.108 1.05602 3.26654 0
M  V30 9619 N 907.553 -1.57587 0.0200696 0
M  V30 9620 C 908.483 -2.12702 -0.963333 0
M  V30 9621 C 909.464 -1.04094 -1.34531 0
M  V30 9622 O 910.649 -1.31881 -1.42552 0
M  V30 9623 C 907.779 -2.64673 -2.24868 0
M  V30 9624 C 906.733 -3.77987 -2.00772 0
M  V30 9625 C 906.059 -4.16351 -3.35494 0
M  V30 9626 C 907.359 -5.0444 -1.35416 0
M  V30 9627 H 909.053 -2.95121 -0.504363 0
M  V30 9628 H 906.599 -1.41966 -0.24116 0
M  V30 9629 H 908.552 -3.01862 -2.94036 0
M  V30 9630 H 907.276 -1.79403 -2.72914 0
M  V30 9631 H 905.935 -3.41223 -1.34025 0
M  V30 9632 H 905.583 -3.28075 -3.81282 0
M  V30 9633 H 905.283 -4.92705 -3.20181 0
M  V30 9634 H 906.807 -4.56115 -4.05945 0
M  V30 9635 H 908.221 -5.39273 -1.94571 0
M  V30 9636 H 906.618 -5.85732 -1.30529 0
M  V30 9637 H 907.688 -4.83803 -0.325923 0
M  V30 9638 N 909.032 0.252966 -1.55557 0
M  V30 9639 C 910.309 1.00432 -1.67847 0
M  V30 9640 C 910.689 2.03587 -0.55816 0
M  V30 9641 O 910.037 2.24239 0.439197 0
M  V30 9642 C 910.247 1.64313 -3.079 0
M  V30 9643 C 911.595 2.14726 -3.66303 0
M  V30 9644 O 912.619 1.74264 -3.10661 0
M  V30 9645 O 911.478 2.89 -4.63833 0
M  V30 9646 H 908.572 0.467102 -0.682455 0
M  V30 9647 H 911.118 0.247233 -1.67889 0
M  V30 9648 H 909.89 0.896681 -3.80888 0
M  V30 9649 H 909.513 2.46657 -3.11843 0
M  V30 9650 N 910.51 1.48831 0.518367 0
M  V30 9651 C 911.756 1.57672 1.27543 0
M  V30 9652 C 912.089 0.254915 1.9252 0
M  V30 9653 O 911.364 -0.740107 1.79868 0
M  V30 9654 C 911.647 2.72345 2.35585 0
M  V30 9655 C 911.5 4.14267 1.75224 0
M  V30 9656 C 912.819 2.82726 3.37274 0
M  V30 9657 H 909.938 0.573926 0.462361 0
M  V30 9658 H 912.58 1.8105 0.576267 0
M  V30 9659 H 910.73 2.52543 2.95219 0
M  V30 9660 H 912.402 4.45539 1.19551 0
M  V30 9661 H 910.645 4.20724 1.05706 0
M  V30 9662 H 911.316 4.90345 2.53507 0
M  V30 9663 H 913.792 3.00699 2.8761 0
M  V30 9664 H 912.668 3.6467 4.10252 0
M  V30 9665 H 912.929 1.9136 3.9854 0
M  V30 9666 N 911.988 -0.768124 1.37614 0
M  V30 9667 C 912.918 -1.89537 1.36374 0
M  V30 9668 C 913.899 -1.68513 0.231803 0
M  V30 9669 O 915.084 -1.89318 0.432705 0
M  V30 9670 C 912.214 -3.26871 1.17358 0
M  V30 9671 C 911.168 -3.62466 2.27602 0
M  V30 9672 C 910.494 -4.9838 1.93705 0
M  V30 9673 C 911.794 -3.68841 3.69802 0
M  V30 9674 H 913.488 -1.90832 2.30702 0
M  V30 9675 H 911.034 -0.91672 1.11051 0
M  V30 9676 H 912.987 -4.05371 1.15119 0
M  V30 9677 H 911.711 -3.26018 0.194865 0
M  V30 9678 H 910.37 -2.86276 2.29002 0
M  V30 9679 H 910.018 -4.94071 0.943539 0
M  V30 9680 H 909.718 -5.23165 2.6753 0
M  V30 9681 H 911.242 -5.79276 1.93059 0
M  V30 9682 H 912.656 -4.37485 3.70513 0
M  V30 9683 H 911.053 -4.05126 4.42711 0
M  V30 9684 H 912.123 -2.69415 4.03167 0
M  V30 9685 N 913.466 -1.22244 -0.994698 0
M  V30 9686 C 914.691 -1.07299 -1.77487 0
M  V30 9687 C 915.116 0.372302 -1.84379 0
M  V30 9688 O 914.474 1.2689 -1.29494 0
M  V30 9689 C 914.522 -1.68675 -3.18718 0
M  V30 9690 O 913.626 -0.939202 -4.01563 0
M  V30 9691 H 912.967 -0.376979 -0.546611 0
M  V30 9692 H 915.497 -1.62003 -1.24965 0
M  V30 9693 H 915.507 -1.73324 -3.69354 0
M  V30 9694 H 914.182 -2.73849 -3.13017 0
M  V30 9695 H 912.759 -0.968583 -3.60101 0
M  V30 9696 N 914.944 1.19125 -1.03184 0
M  V30 9697 C 915.907 2.20662 -0.619766 0
M  V30 9698 C 916.907 1.57621 0.318179 0
M  V30 9699 O 918.097 1.73885 0.104783 0
M  V30 9700 C 915.229 3.40774 0.0926696 0
M  V30 9701 H 916.422 2.58633 -1.5182 0
M  V30 9702 H 913.975 1.32855 -0.823364 0
M  V30 9703 H 914.71 3.08324 1.00531 0
M  V30 9704 H 914.495 3.87766 -0.581344 0
M  V30 9705 H 915.985 4.15977 0.367792 0
M  V30 9706 N 916.422 0.810101 1.35185 0
M  V30 9707 C 917.647 0.40364 2.03434 0
M  V30 9708 C 918.072 -0.97857 1.60641 0
M  V30 9709 O 917.43 -1.63435 0.784779 0
M  V30 9710 C 917.478 0.499154 3.57129 0
M  V30 9711 O 916.582 -0.486039 4.09526 0
M  V30 9712 H 915.923 0.168049 0.642383 0
M  V30 9713 H 918.453 1.09696 1.72708 0
M  V30 9714 H 918.463 0.370236 4.06317 0
M  V30 9715 H 917.138 1.50733 3.87624 0
M  V30 9716 H 915.715 -0.31707 3.7155 0
M  V30 9717 N 917.9 -1.47166 0.563914 0
M  V30 9718 C 918.848 -2.31798 -0.193009 0
M  V30 9719 C 919.842 -1.43338 -0.902805 0
M  V30 9720 O 921.048 -1.60067 -0.823328 0
M  V30 9721 H 917.423 -0.747613 -0.0811139 0
M  V30 9722 H 919.394 -2.93476 0.539876 0
M  V30 9723 C 918.143 -3.26131 -1.20555 0
M  V30 9724 H 917.466 -3.94166 -0.668803 0
M  V30 9725 H 918.906 -3.88167 -1.70593 0
M  V30 9726 C 917.365 -2.50132 -2.25689 0
M  V30 9727 O 917.895 -2.25064 -3.3273 0
M  V30 9728 N 916.101 -2.11022 -1.99795 0
M  V30 9729 H 915.648 -2.3161 -1.1276 0
M  V30 9730 H 915.606 -1.60489 -2.70353 0
M  V30 9731 N 919.378 -0.300708 -1.54705 0
M  V30 9732 C 920.603 0.314073 -2.05008 0
M  V30 9733 C 921.028 1.46759 -1.17657 0
M  V30 9734 O 920.386 1.80398 -0.180598 0
M  V30 9735 C 920.434 0.748243 -3.52752 0
M  V30 9736 O 919.538 1.85305 -3.68424 0
M  V30 9737 H 918.879 0.0610139 -0.661191 0
M  V30 9738 H 921.409 -0.442467 -1.99758 0
M  V30 9739 H 921.419 1.03713 -3.94598 0
M  V30 9740 H 920.094 -0.095573 -4.1579 0
M  V30 9741 H 918.671 1.56473 -3.38483 0
M  V30 9742 N 920.856 1.57574 -0.0284266 0
M  V30 9743 C 922.081 1.96479 0.664137 0
M  V30 9744 C 922.506 0.904826 1.64908 0
M  V30 9745 O 921.864 -0.134339 1.80802 0
M  V30 9746 C 921.912 3.34479 1.34745 0
M  V30 9747 O 921.016 3.30794 2.46271 0
M  V30 9748 H 920.357 0.640654 0.174524 0
M  V30 9749 H 922.887 2.04402 -0.0900729 0
M  V30 9750 H 922.897 3.70694 1.7044 0
M  V30 9751 H 921.572 4.1117 0.625468 0
M  V30 9752 H 920.149 3.06294 2.12693 0
M  V30 9753 N 922.334 -0.244713 1.55689 0
M  V30 9754 C 923.559 -0.994157 1.8202 0
M  V30 9755 C 923.984 -1.78079 0.60577 0
M  V30 9756 O 923.342 -1.75748 -0.445221 0
M  V30 9757 C 923.39 -1.90599 3.06111 0
M  V30 9758 O 922.494 -2.99804 2.8318 0
M  V30 9759 H 921.835 -0.282767 0.600782 0
M  V30 9760 H 924.365 -0.26504 2.02876 0
M  V30 9761 H 924.375 -2.32023 3.35603 0
M  V30 9762 H 923.05 -1.32763 3.9414 0
M  V30 9763 H 921.627 -2.62493 2.64862 0
M  V30 9764 N 923.813 -1.49104 -0.510467 0
M  V30 9765 C 924.745 -1.61183 -1.6295 0
M  V30 9766 C 925.758 -0.495003 -1.55092 0
M  V30 9767 O 926.947 -0.766671 -1.61197 0
M  V30 9768 C 924.047 -1.54373 -3.01699 0
M  V30 9769 C 923.22 -2.81428 -3.34838 0
M  V30 9770 C 922.279 -2.67802 -4.52956 0
M  V30 9771 O 921.305 -3.41723 -4.55208 0
M  V30 9772 N 922.507 -1.78715 -5.52305 0
M  V30 9773 H 925.272 -2.57693 -1.53018 0
M  V30 9774 H 922.833 -1.46073 -0.698152 0
M  V30 9775 H 924.825 -1.42924 -3.78622 0
M  V30 9776 H 923.395 -0.657597 -3.05605 0
M  V30 9777 H 922.615 -3.07299 -2.46903 0
M  V30 9778 H 923.903 -3.6568 -3.53773 0
M  V30 9779 H 923.301 -1.17897 -5.53278 0
M  V30 9780 H 921.858 -1.73194 -6.28369 0
M  V30 9781 N 925.291 0.760815 -1.38019 0
M  V30 9782 C 926.221 1.88811 -1.37377 0
M  V30 9783 C 927.202 1.68388 -0.240737 0
M  V30 9784 O 928.387 1.89086 -0.442739 0
M  V30 9785 C 925.517 3.26244 -1.1909 0
M  V30 9786 C 924.471 3.61254 -2.29521 0
M  V30 9787 C 923.797 4.97346 -1.96345 0
M  V30 9788 C 925.097 3.66874 -3.71753 0
M  V30 9789 H 926.791 1.89606 -2.31711 0
M  V30 9790 H 924.337 0.910818 -1.11535 0
M  V30 9791 H 926.29 4.04755 -1.17267 0
M  V30 9792 H 925.014 3.2591 -0.212152 0
M  V30 9793 H 923.673 2.85057 -2.30517 0
M  V30 9794 H 923.321 4.93564 -0.969728 0
M  V30 9795 H 923.021 5.21739 -2.703 0
M  V30 9796 H 924.545 5.78244 -1.96129 0
M  V30 9797 H 925.959 4.35514 -3.72828 0
M  V30 9798 H 924.356 4.02772 -4.44853 0
M  V30 9799 H 925.426 2.67273 -4.0459 0
M  V30 9800 N 926.769 1.22769 0.988202 0
M  V30 9801 C 928.018 1.0492 1.72263 0
M  V30 9802 C 928.331 -0.415282 1.91141 0
M  V30 9803 O 929.537 -0.713547 2.61956 0
M  V30 9804 C 927.993 1.82891 3.09966 0
M  V30 9805 C 927.601 3.33618 2.99003 0
M  V30 9806 C 929.345 1.73505 3.87423 0
M  V30 9807 C 927.252 4.04012 4.3189 0
M  V30 9808 H 926.182 0.38899 0.645912 0
M  V30 9809 H 928.833 1.46664 1.10281 0
M  V30 9810 H 927.215 1.33948 3.72658 0
M  V30 9811 H 928.389 3.8999 2.45448 0
M  V30 9812 H 926.704 3.43732 2.35027 0
M  V30 9813 H 929.301 2.23416 4.85787 0
M  V30 9814 H 929.644 0.696344 4.10435 0
M  V30 9815 H 930.177 2.20016 3.31418 0
M  V30 9816 H 926.916 5.08155 4.14075 0
M  V30 9817 H 926.436 3.52428 4.8534 0
M  V30 9818 H 928.115 4.0987 5.00615 0
M  V30 9819 N 928.247 -1.18576 1.03814 0
M  V30 9820 C 929.493 -1.88773 0.741132 0
M  V30 9821 C 929.826 -1.79993 -0.729127 0
M  V30 9822 O 929.101 -1.19851 -1.53186 0
M  V30 9823 C 929.384 -3.39352 1.20468 0
M  V30 9824 C 929.237 -3.56955 2.73684 0
M  V30 9825 C 930.556 -4.32901 0.792741 0
M  V30 9826 H 927.675 -0.685482 0.270708 0
M  V30 9827 H 930.317 -1.39523 1.2897 0
M  V30 9828 H 928.467 -3.81427 0.737974 0
M  V30 9829 H 930.139 -3.2399 3.28372 0
M  V30 9830 H 928.382 -2.99696 3.13632 0
M  V30 9831 H 929.053 -4.62598 3.01176 0
M  V30 9832 H 931.529 -3.98592 1.1943 0
M  V30 9833 H 930.405 -5.36828 1.14486 0
M  V30 9834 H 930.666 -4.41052 -0.304295 0
M  V30 9835 N 929.725 -0.817259 -1.34754 0
M  V30 9836 C 930.672 -0.233108 -2.2962 0
M  V30 9837 C 931.642 0.638902 -1.53321 0
M  V30 9838 O 932.827 0.581739 -1.81715 0
M  V30 9839 C 929.967 0.603659 -3.39779 0
M  V30 9840 C 929.08 -0.289967 -4.31026 0
M  V30 9841 C 928.215 0.555825 -5.28284 0
M  V30 9842 C 927.254 -0.337539 -6.11169 0
M  V30 9843 N 926.391 0.468847 -7.00533 0
M  V30 9844 H 931.231 -1.04747 -2.78984 0
M  V30 9845 H 928.768 -0.528056 -1.37295 0
M  V30 9846 H 930.726 1.10407 -4.02326 0
M  V30 9847 H 929.356 1.38319 -2.91664 0
M  V30 9848 H 928.408 -0.908552 -3.69391 0
M  V30 9849 H 929.72 -0.977136 -4.89135 0
M  V30 9850 H 928.874 1.12094 -5.96255 0
M  V30 9851 H 927.613 1.27652 -4.70698 0
M  V30 9852 H 926.618 -0.914839 -5.42135 0
M  V30 9853 H 927.843 -1.05626 -6.70835 0
M  V30 9854 H 925.789 1.17332 -6.45422 0
M  V30 9855 H 925.706 -0.160052 -7.55831 0
M  V30 9856 H 926.974 1.01689 -7.72839 0
M  V30 9857 N 931.203 1.46865 -0.571711 0
M  V30 9858 C 932.449 2.03307 -0.0614759 0
M  V30 9859 C 932.804 1.43657 1.27986 0
M  V30 9860 O 932.097 0.588186 1.82348 0
M  V30 9861 C 932.291 3.57323 0.0742311 0
M  V30 9862 C 932.12 4.31909 -1.2524 0
M  V30 9863 C 930.89 4.71246 -1.82361 0
M  V30 9864 C 933.088 4.66137 -2.17304 0
M  V30 9865 N 931.07 5.30535 -3.08878 0
M  V30 9866 C 932.441 5.25881 -3.28404 0
M  V30 9867 C 934.496 4.48066 -2.1712 0
M  V30 9868 C 933.199 5.69461 -4.39439 0
M  V30 9869 C 935.225 4.92656 -3.27176 0
M  V30 9870 C 934.587 5.52461 -4.36997 0
M  V30 9871 H 930.686 0.779293 -0.0650098 0
M  V30 9872 H 933.27 1.79161 -0.762192 0
M  V30 9873 H 931.441 3.81206 0.744095 0
M  V30 9874 H 933.173 4.00408 0.587849 0
M  V30 9875 H 929.928 4.53658 -1.35985 0
M  V30 9876 H 930.352 5.64711 -3.73404 0
M  V30 9877 H 934.994 4.01173 -1.33492 0
M  V30 9878 H 932.712 6.15338 -5.23817 0
M  V30 9879 H 936.298 4.80433 -3.28139 0
M  V30 9880 H 935.178 5.86334 -5.20752 0
M  V30 9881 N 932.681 0.308908 1.54543 0
M  V30 9882 C 933.629 -0.579326 2.2527 0
M  V30 9883 C 934.623 -1.13058 1.26152 0
M  V30 9884 O 935.829 -1.08031 1.43977 0
M  V30 9885 H 932.204 -0.205444 0.723392 0
M  V30 9886 H 934.175 0.0396415 2.98374 0
M  V30 9887 C 932.924 -1.73584 3.01271 0
M  V30 9888 H 932.247 -1.32089 3.77349 0
M  V30 9889 H 933.687 -2.33324 3.54028 0
M  V30 9890 C 932.146 -2.6447 2.08703 0
M  V30 9891 O 932.676 -3.65785 1.66025 0
M  V30 9892 N 930.882 -2.32379 1.74495 0
M  V30 9893 H 930.429 -1.50034 2.09398 0
M  V30 9894 H 930.387 -2.93454 1.12836 0
M  V30 9895 N 934.159 -1.57557 0.0367827 0
M  V30 9896 C 935.57 -1.79853 -0.500971 0
M  V30 9897 C 935.921 -0.947749 -1.71791 0
M  V30 9898 O 935.046 -0.160287 -2.15806 0
M  V30 9899 C 935.641 -3.26193 -0.915626 0
M  V30 9900 C 934.2 -3.49457 -1.39845 0
M  V30 9901 C 933.347 -2.74864 -0.366784 0
M  V30 9902 H 936.298 -1.56509 0.262768 0
M  V30 9903 H 936.319 -3.36324 -1.7795 0
M  V30 9904 H 935.831 -3.88089 -0.0297227 0
M  V30 9905 H 933.932 -2.92823 -2.30402 0
M  V30 9906 H 934.045 -4.58172 -1.40054 0
M  V30 9907 H 932.409 -2.4057 -0.836554 0
M  V30 9908 H 933.192 -3.39479 0.510785 0
M  V30 9909 N 935.637 0.236453 -1.55816 0
M  V30 9910 C 937.048 0.80468 -1.68469 0
M  V30 9911 C 937.399 1.85601 -0.636133 0
M  V30 9912 O 936.524 2.15323 0.215622 0
M  V30 9913 C 937.119 1.46634 -3.05424 0
M  V30 9914 C 935.678 1.98214 -3.19981 0
M  V30 9915 C 934.825 0.83695 -2.64368 0
M  V30 9916 H 937.776 0.0120647 -1.58695 0
M  V30 9917 H 937.797 2.33472 -3.00451 0
M  V30 9918 H 937.309 0.700931 -3.81718 0
M  V30 9919 H 935.41 2.77604 -2.4853 0
M  V30 9920 H 935.523 2.17235 -4.2702 0
M  V30 9921 H 933.887 1.24028 -2.22462 0
M  V30 9922 H 934.67 0.084451 -3.43196 0
M  V30 9923 N 937.115 1.49373 0.502552 0
M  V30 9924 C 938.34 1.62752 1.28556 0
M  V30 9925 C 938.765 0.298285 1.8572 0
M  V30 9926 O 938.123 -0.733885 1.65782 0
M  V30 9927 C 938.171 2.69778 2.39274 0
M  V30 9928 O 937.275 2.28843 3.43081 0
M  V30 9929 H 936.616 0.544799 0.379592 0
M  V30 9930 H 939.146 1.9555 0.601792 0
M  V30 9931 H 939.156 2.91899 2.8506 0
M  V30 9932 H 937.831 3.66266 1.97033 0
M  V30 9933 H 936.408 2.17047 3.03224 0
M  V30 9934 N 938.594 -0.753485 1.38421 0
M  V30 9935 C 939.524 -1.8808 1.38377 0
M  V30 9936 C 940.505 -1.68258 0.249664 0
M  V30 9937 O 941.69 -1.88848 0.45276 0
M  V30 9938 C 938.82 -3.25608 1.20818 0
M  V30 9939 C 937.774 -3.60032 2.31433 0
M  V30 9940 C 937.1 -4.96297 1.9898 0
M  V30 9941 C 938.4 -3.64898 3.73694 0
M  V30 9942 H 940.094 -1.88375 2.32713 0
M  V30 9943 H 937.64 -0.90489 1.12017 0
M  V30 9944 H 939.593 -4.04127 1.19412 0
M  V30 9945 H 938.317 -3.25793 0.229433 0
M  V30 9946 H 936.976 -2.83831 2.32025 0
M  V30 9947 H 936.624 -4.93043 0.995889 0
M  V30 9948 H 936.324 -5.20298 2.73063 0
M  V30 9949 H 937.848 -5.77196 1.99193 0
M  V30 9950 H 939.262 -4.33531 3.75132 0
M  V30 9951 H 937.659 -4.00407 4.46983 0
M  V30 9952 H 938.729 -2.65124 4.06002 0
M  V30 9953 N 940.072 -1.23292 -0.981677 0
M  V30 9954 C 941.483 -1.05936 -1.53735 0
M  V30 9955 C 941.834 0.373695 -1.92608 0
M  V30 9956 O 940.959 1.26024 -1.75917 0
M  V30 9957 C 941.554 -1.91682 -2.79363 0
M  V30 9958 C 940.113 -1.78591 -3.31334 0
M  V30 9959 C 939.26 -1.87463 -2.04335 0
M  V30 9960 H 942.211 -1.36973 -0.801505 0
M  V30 9961 H 942.232 -1.44085 -3.52164 0
M  V30 9962 H 941.744 -2.95975 -2.51039 0
M  V30 9963 H 939.845 -0.770755 -3.64541 0
M  V30 9964 H 939.958 -2.61902 -4.01179 0
M  V30 9965 H 938.322 -1.3103 -2.18411 0
M  V30 9966 H 939.105 -2.9331 -1.78394 0
M  V30 9967 N 941.55 1.18024 -1.04442 0
M  V30 9968 C 942.498 2.23834 -0.632557 0
M  V30 9969 C 943.492 1.65902 0.342488 0
M  V30 9970 O 944.698 1.78778 0.20937 0
M  V30 9971 H 941.073 0.728544 -0.186353 0
M  V30 9972 H 943.044 2.55876 -1.53526 0
M  V30 9973 C 941.793 3.47697 -0.0153661 0
M  V30 9974 H 941.116 3.92574 -0.756704 0
M  V30 9975 H 942.556 4.23345 0.235541 0
M  V30 9976 C 941.015 3.13416 1.23579 0
M  V30 9977 O 941.545 3.27499 2.3261 0
M  V30 9978 N 939.751 2.67708 1.13053 0
M  V30 9979 H 939.298 2.56449 0.243277 0
M  V30 9980 H 939.256 2.45143 1.96855 0
M  V30 9981 N 943.028 0.824394 1.34319 0
M  V30 9982 C 944.276 0.41235 1.97849 0
M  V30 9983 C 944.597 -1.02841 1.65677 0
M  V30 9984 O 943.867 -1.71421 0.948245 0
M  V30 9985 H 942.447 0.149486 0.73189 0
M  V30 9986 H 945.109 1.05416 1.63931 0
M  V30 9987 H 944.205 0.532557 3.07523 0
M  V30 9988 N 944.506 -1.46559 0.579492 0
M  V30 9989 C 945.454 -2.3199 -0.168413 0
M  V30 9990 C 946.448 -1.44288 -0.887551 0
M  V30 9991 O 947.654 -1.60931 -0.806305 0
M  V30 9992 H 944.029 -0.748431 -0.0731799 0
M  V30 9993 H 946 -2.92886 0.570973 0
M  V30 9994 C 944.749 -3.27392 -1.1709 0
M  V30 9995 H 944.072 -3.94853 -0.626958 0
M  V30 9996 H 945.512 -3.89955 -1.66467 0
M  V30 9997 C 943.971 -2.52511 -2.23024 0
M  V30 9998 O 944.501 -2.2858 -3.30324 0
M  V30 9999 N 942.707 -2.1313 -1.97545 0
M  V30 10000 H 942.254 -2.32793 -1.10297 0
M  V30 10001 H 942.212 -1.63348 -2.68635 0
M  V30 10002 N 945.984 -0.3171 -1.54377 0
M  V30 10003 C 946.914 0.544623 -2.2706 0
M  V30 10004 C 947.895 1.12469 -1.27611 0
M  V30 10005 O 949.08 1.15103 -1.56413 0
M  V30 10006 C 946.21 1.70879 -3.02353 0
M  V30 10007 C 945.164 1.25833 -4.09084 0
M  V30 10008 C 944.49 2.50894 -4.72182 0
M  V30 10009 C 945.79 0.377876 -5.20931 0
M  V30 10010 H 947.484 -0.0616372 -2.99337 0
M  V30 10011 H 945.03 -0.0310848 -1.43966 0
M  V30 10012 H 946.983 2.31787 -3.51927 0
M  V30 10013 H 945.707 2.34155 -2.27682 0
M  V30 10014 H 944.366 0.672228 -3.60384 0
M  V30 10015 H 944.014 3.12518 -3.94134 0
M  V30 10016 H 943.714 2.21447 -5.44275 0
M  V30 10017 H 945.238 3.12575 -5.24528 0
M  V30 10018 H 946.652 0.893056 -5.66302 0
M  V30 10019 H 945.049 0.176474 -5.9984 0
M  V30 10020 H 946.119 -0.592943 -4.81261 0
M  V30 10021 N 947.462 1.57535 -0.0451378 0
M  V30 10022 C 948.687 1.97172 0.64326 0
M  V30 10023 C 949.112 0.922266 1.63939 0
M  V30 10024 O 948.47 -0.115155 1.80934 0
M  V30 10025 C 948.518 3.35889 1.3119 0
M  V30 10026 O 947.622 3.33387 2.42748 0
M  V30 10027 H 946.963 0.642469 0.167719 0
M  V30 10028 H 949.493 2.04295 -0.111747 0
M  V30 10029 H 949.503 3.72481 1.66499 0
M  V30 10030 H 948.178 4.1181 0.581823 0
M  V30 10031 H 946.755 3.08533 2.09432 0
M  V30 10032 N 948.94 -0.228186 1.55939 0
M  V30 10033 C 950.17 -0.969211 1.82455 0
M  V30 10034 C 950.578 -1.78714 0.621133 0
M  V30 10035 O 949.921 -1.78841 -0.419694 0
M  V30 10036 C 949.983 -1.94088 3.02605 0
M  V30 10037 C 949.647 -1.30811 4.37878 0
M  V30 10038 C 950.644 -0.701275 5.15149 0
M  V30 10039 C 948.329 -1.32187 4.84595 0
M  V30 10040 C 950.323 -0.116631 6.37293 0
M  V30 10041 C 948.01 -0.733375 6.06683 0
M  V30 10042 C 949.008 -0.131804 6.82873 0
M  V30 10043 O 948.696 0.447549 8.02653 0
M  V30 10044 H 948.428 -0.289951 0.610659 0
M  V30 10045 H 950.982 -0.250576 2.03866 0
M  V30 10046 H 949.212 -2.69833 2.76996 0
M  V30 10047 H 950.901 -2.5469 3.1605 0
M  V30 10048 H 951.667 -0.683022 4.80166 0
M  V30 10049 H 947.546 -1.77949 4.25271 0
M  V30 10050 H 951.09 0.353539 6.96704 0
M  V30 10051 H 946.987 -0.749019 6.4114 0
M  V30 10052 H 947.755 0.341224 8.17788 0
M  V30 10053 N 950.418 -1.49637 -0.494624 0
M  V30 10054 C 951.648 -1.62928 -1.27036 0
M  V30 10055 C 952.056 -0.302464 -1.86767 0
M  V30 10056 O 951.399 0.722878 -1.68879 0
M  V30 10057 C 951.461 -2.64449 -2.43531 0
M  V30 10058 C 951.125 -4.08632 -2.0462 0
M  V30 10059 C 952.122 -4.95238 -1.58225 0
M  V30 10060 C 949.807 -4.54405 -2.1406 0
M  V30 10061 C 951.801 -6.25658 -1.21782 0
M  V30 10062 C 949.488 -5.84836 -1.77228 0
M  V30 10063 C 950.486 -6.70287 -1.31165 0
M  V30 10064 O 950.174 -7.98287 -0.948339 0
M  V30 10065 H 949.906 -0.551263 -0.391261 0
M  V30 10066 H 952.46 -1.96453 -0.599621 0
M  V30 10067 H 950.69 -2.26117 -3.137 0
M  V30 10068 H 952.379 -2.67203 -3.05545 0
M  V30 10069 H 953.145 -4.611 -1.50373 0
M  V30 10070 H 949.024 -3.88056 -2.48865 0
M  V30 10071 H 952.568 -6.92309 -0.857566 0
M  V30 10072 H 948.465 -6.18502 -1.84732 0
M  V30 10073 H 949.233 -8.11353 -1.07925 0
M  V30 10074 N 951.896 0.746133 -1.38819 0
M  V30 10075 C 953.145 1.50085 -1.34749 0
M  V30 10076 C 953.458 1.95516 0.0574786 0
M  V30 10077 O 954.664 2.70601 0.22073 0
M  V30 10078 C 953.12 2.71141 -2.36665 0
M  V30 10079 C 952.728 2.32706 -3.82821 0
M  V30 10080 C 954.472 3.49005 -2.41652 0
M  V30 10081 C 952.379 3.50418 -4.76405 0
M  V30 10082 H 951.309 0.563563 -0.500912 0
M  V30 10083 H 953.96 0.814951 -1.6441 0
M  V30 10084 H 952.342 3.4175 -2.00058 0
M  V30 10085 H 953.516 1.69715 -4.28408 0
M  V30 10086 H 951.831 1.67959 -3.81023 0
M  V30 10087 H 954.428 4.36541 -3.08766 0
M  V30 10088 H 954.771 3.90687 -1.43769 0
M  V30 10089 H 955.304 2.85416 -2.77097 0
M  V30 10090 H 952.043 3.13795 -5.75511 0
M  V30 10091 H 951.563 4.12426 -4.35505 0
M  V30 10092 H 953.242 4.16901 -4.94775 0
M  V30 10093 N 953.375 1.23811 0.975125 0
M  V30 10094 C 954.621 1.07495 1.71967 0
M  V30 10095 C 954.954 -0.386451 1.90316 0
M  V30 10096 O 954.229 -1.28591 1.45927 0
M  V30 10097 C 954.512 1.80694 3.11483 0
M  V30 10098 C 954.365 3.3454 3.00671 0
M  V30 10099 C 955.684 1.57367 4.11003 0
M  V30 10100 H 952.803 0.3919 0.624166 0
M  V30 10101 H 955.445 1.52383 1.13487 0
M  V30 10102 H 953.595 1.42538 3.61407 0
M  V30 10103 H 955.267 3.8225 2.5823 0
M  V30 10104 H 953.51 3.63301 2.37054 0
M  V30 10105 H 954.181 3.80951 3.99475 0
M  V30 10106 H 956.657 1.90545 3.69908 0
M  V30 10107 H 955.533 2.11052 5.06703 0
M  V30 10108 H 955.794 0.510221 4.39146 0
M  V30 10109 N 954.853 -1.17469 1.05066 0
M  V30 10110 C 956.269 -1.39699 0.771769 0
M  V30 10111 C 956.469 -1.91253 -0.634382 0
M  V30 10112 O 955.525 -2.10334 -1.39699 0
M  V30 10113 C 956.838 -2.38886 1.82631 0
M  V30 10114 C 958.386 -2.52595 1.84838 0
M  V30 10115 C 958.861 -3.55054 2.89311 0
M  V30 10116 N 960.352 -3.6257 2.88266 0
M  V30 10117 C 961.087 -4.41603 3.65752 0
M  V30 10118 N 960.583 -5.24162 4.53019 0
M  V30 10119 N 962.376 -4.36464 3.54197 0
M  V30 10120 H 954.527 -0.823355 1.95792 0
M  V30 10121 H 956.79 -0.42432 0.847736 0
M  V30 10122 H 956.496 -2.08075 2.83545 0
M  V30 10123 H 956.37 -3.38371 1.66687 0
M  V30 10124 H 958.757 -2.82717 0.845888 0
M  V30 10125 H 958.838 -1.53188 2.04859 0
M  V30 10126 H 958.482 -3.2567 3.89745 0
M  V30 10127 H 958.412 -4.54162 2.66542 0
M  V30 10128 H 960.903 -3.03625 2.24989 0
M  V30 10129 H 961.216 -5.81646 5.0883 0
M  V30 10130 H 959.561 -5.23547 4.57081 0
M  V30 10131 H 962.752 -3.7102 2.85416 0
M  V30 10132 H 962.925 -4.97814 4.14832 0
M  V30 10133 N 956.331 -0.831506 -1.3388 0
M  V30 10134 C 957.577 -0.433509 -1.98727 0
M  V30 10135 C 957.932 0.994508 -1.64704 0
M  V30 10136 O 957.225 1.68458 -0.912815 0
M  V30 10137 C 957.419 -0.582733 -3.52617 0
M  V30 10138 C 957.248 -2.0237 -4.01592 0
M  V30 10139 C 956.018 -2.6574 -4.29779 0
M  V30 10140 C 958.216 -2.99152 -4.18345 0
M  V30 10141 N 956.198 -4.00988 -4.64846 0
M  V30 10142 C 957.569 -4.19329 -4.56687 0
M  V30 10143 C 959.624 -2.95655 -4.00615 0
M  V30 10144 C 958.327 -5.36475 -4.79152 0
M  V30 10145 C 960.353 -4.12025 -4.24252 0
M  V30 10146 C 959.715 -5.30955 -4.62889 0
M  V30 10147 H 955.814 -0.20691 -0.75413 0
M  V30 10148 H 958.398 -1.07802 -1.62132 0
M  V30 10149 H 956.569 0.0319301 -3.88387 0
M  V30 10150 H 958.301 -0.156899 -4.04396 0
M  V30 10151 H 955.056 -2.16923 -4.21 0
M  V30 10152 H 955.48 -4.7069 -4.86601 0
M  V30 10153 H 960.122 -2.04842 -3.69864 0
M  V30 10154 H 957.84 -6.27839 -5.08767 0
M  V30 10155 H 961.426 -4.10728 -4.1206 0
M  V30 10156 H 960.306 -6.19504 -4.80817 0
M  V30 10157 N 957.809 1.4625 -0.587256 0
M  V30 10158 C 958.741 2.28482 0.181256 0
M  V30 10159 C 959.754 1.38777 0.851163 0
M  V30 10160 O 960.943 1.63336 0.719963 0
M  V30 10161 C 958.043 3.13944 1.27643 0
M  V30 10162 C 957.216 4.31802 0.697569 0
M  V30 10163 C 956.275 4.98626 1.68102 0
M  V30 10164 O 955.301 5.56075 1.21529 0
M  V30 10165 N 956.503 4.96051 3.0152 0
M  V30 10166 H 959.268 2.95079 -0.524267 0
M  V30 10167 H 956.829 1.56213 -0.425336 0
M  V30 10168 H 958.821 3.55513 1.93371 0
M  V30 10169 H 957.391 2.49391 1.88475 0
M  V30 10170 H 956.611 3.93961 -0.137293 0
M  V30 10171 H 957.899 5.07969 0.290696 0
M  V30 10172 H 957.297 4.5063 3.41978 0
M  V30 10173 H 955.854 5.41547 3.62725 0
M  V30 10174 N 959.287 0.325282 1.54207 0
M  V30 10175 C 960.703 -0.0273036 1.59577 0
M  V30 10176 C 960.903 -1.50329 1.34177 0
M  V30 10177 O 959.959 -2.25951 1.12705 0
M  V30 10178 C 961.272 0.392468 2.98128 0
M  V30 10179 C 962.82 0.343269 3.11112 0
M  V30 10180 C 963.295 0.738229 4.52011 0
M  V30 10181 N 964.786 0.691701 4.58006 0
M  V30 10182 C 965.521 0.969479 5.65145 0
M  V30 10183 N 965.017 1.31448 6.80216 0
M  V30 10184 N 966.81 0.894926 5.5493 0
M  V30 10185 H 958.961 1.28692 1.68974 0
M  V30 10186 H 961.224 0.523399 0.790416 0
M  V30 10187 H 960.93 1.42089 3.2172 0
M  V30 10188 H 960.804 -0.241651 3.76425 0
M  V30 10189 H 963.191 -0.675946 2.87254 0
M  V30 10190 H 963.272 1.01235 2.34915 0
M  V30 10191 H 962.916 1.75537 4.76602 0
M  V30 10192 H 962.846 0.0468226 5.26579 0
M  V30 10193 H 965.337 0.436975 3.75365 0
M  V30 10194 H 965.65 1.51177 7.57869 0
M  V30 10195 H 963.995 1.35276 6.81708 0
M  V30 10196 H 967.186 0.624876 4.6391 0
M  V30 10197 H 967.359 1.11476 6.38339 0
M  V30 10198 N 960.765 -1.57509 0.0534917 0
M  V30 10199 C 961.697 -2.08616 -0.949322 0
M  V30 10200 C 962.71 -1.01446 -1.27328 0
M  V30 10201 O 963.899 -1.29007 -1.23367 0
M  V30 10202 C 960.999 -2.51622 -2.27024 0
M  V30 10203 C 960.172 -3.82154 -2.12785 0
M  V30 10204 C 959.231 -4.11448 -3.2802 0
M  V30 10205 O 958.257 -4.81333 -3.03822 0
M  V30 10206 N 959.459 -3.63543 -4.52567 0
M  V30 10207 H 962.224 -2.95275 -0.5131 0
M  V30 10208 H 959.785 -1.61355 -0.132693 0
M  V30 10209 H 961.777 -2.68293 -3.02986 0
M  V30 10210 H 960.347 -1.70198 -2.62205 0
M  V30 10211 H 959.567 -3.75041 -1.21399 0
M  V30 10212 H 960.855 -4.67629 -2.00501 0
M  V30 10213 H 960.253 -3.07051 -4.75117 0
M  V30 10214 H 958.81 -3.85448 -5.25617 0
M  V30 10215 N 962.243 0.219913 -1.56058 0
M  V30 10216 C 963.654 0.786766 -1.69313 0
M  V30 10217 C 964.005 1.84916 -0.655782 0
M  V30 10218 O 963.13 2.1554 0.192772 0
M  V30 10219 C 963.725 1.43387 -3.06962 0
M  V30 10220 C 962.284 1.94809 -3.22066 0
M  V30 10221 C 961.431 0.808863 -2.65241 0
M  V30 10222 H 964.382 -0.00476777 -1.58699 0
M  V30 10223 H 964.403 2.30272 -3.02911 0
M  V30 10224 H 963.915 0.660405 -3.8244 0
M  V30 10225 H 962.016 2.74952 -2.5146 0
M  V30 10226 H 962.129 2.12694 -4.293 0
M  V30 10227 H 960.493 1.21661 -2.23765 0
M  V30 10228 H 961.276 0.0480458 -3.43266 0
M  V30 10229 N 963.721 1.49897 0.486681 0
M  V30 10230 C 964.653 1.63755 1.60365 0
M  V30 10231 C 965.666 0.519614 1.54285 0
M  V30 10232 O 966.855 0.792219 1.59957 0
M  V30 10233 C 963.955 1.59153 2.99205 0
M  V30 10234 C 963.128 2.8672 3.30319 0
M  V30 10235 C 962.187 2.74974 4.48638 0
M  V30 10236 O 961.213 3.48922 4.49714 0
M  V30 10237 N 962.415 1.87479 5.49392 0
M  V30 10238 H 965.18 2.60094 1.48899 0
M  V30 10239 H 962.741 1.47166 0.674825 0
M  V30 10240 H 964.733 1.4893 3.76301 0
M  V30 10241 H 963.303 0.706133 3.0452 0
M  V30 10242 H 962.523 3.11188 2.41983 0
M  V30 10243 H 963.811 3.71262 3.47911 0
M  V30 10244 H 963.209 1.26684 5.51333 0
M  V30 10245 H 961.766 1.83169 6.25534 0
M  V30 10246 N 965.199 -0.738761 1.39212 0
M  V30 10247 C 966.476 -1.48982 1.26742 0
M  V30 10248 C 966.856 -2.10732 -0.12466 0
M  V30 10249 O 966.204 -1.98287 -1.13554 0
M  V30 10250 C 966.414 -2.54427 2.38889 0
M  V30 10251 C 967.762 -3.20915 2.78027 0
M  V30 10252 O 968.786 -2.64738 2.38311 0
M  V30 10253 O 967.645 -4.22558 3.46565 0
M  V30 10254 H 964.739 -0.661395 0.496473 0
M  V30 10255 H 967.285 -0.772907 1.51077 0
M  V30 10256 H 966.057 -2.07151 3.3197 0
M  V30 10257 H 965.68 -3.33682 2.162 0
M  V30 10258 N 966.677 -1.24326 -0.968545 0
M  V30 10259 C 967.925 -1.08032 -1.70803 0
M  V30 10260 C 968.246 0.381728 -1.91227 0
M  V30 10261 O 967.516 1.27253 -1.48942 0
M  V30 10262 H 966.096 -0.396777 -0.632912 0
M  V30 10263 H 968.758 -1.56232 -1.16523 0
M  V30 10264 H 967.854 -1.57769 -2.69287 0
M  V30 10265 N 968.156 1.1691 -1.05688 0
M  V30 10266 C 969.386 1.90927 -0.789339 0
M  V30 10267 C 969.794 1.77339 0.659369 0
M  V30 10268 O 969.137 1.11147 1.4626 0
M  V30 10269 C 969.199 3.42361 -1.09677 0
M  V30 10270 C 968.863 3.79733 -2.54267 0
M  V30 10271 C 969.86 3.82163 -3.52487 0
M  V30 10272 C 967.545 4.10547 -2.89406 0
M  V30 10273 C 969.539 4.14884 -4.8389 0
M  V30 10274 C 967.226 4.42936 -4.21011 0
M  V30 10275 C 968.224 4.45084 -5.18063 0
M  V30 10276 O 967.912 4.76707 -6.47307 0
M  V30 10277 H 967.644 0.612466 -0.286115 0
M  V30 10278 H 970.198 1.4916 -1.4121 0
M  V30 10279 H 968.428 3.84446 -0.416924 0
M  V30 10280 H 970.117 3.97645 -0.814456 0
M  V30 10281 H 970.883 3.58476 -3.26681 0
M  V30 10282 H 966.762 4.08044 -2.14525 0
M  V30 10283 H 970.306 4.16475 -5.59638 0
M  V30 10284 H 966.203 4.66088 -4.46579 0
M  V30 10285 H 966.971 4.94544 -6.52203 0
M  V30 10286 N 969.634 0.838594 1.33437 0
M  V30 10287 C 970.564 0.286672 2.31734 0
M  V30 10288 C 971.545 -0.605451 1.5896 0
M  V30 10289 O 972.73 -0.529059 1.86854 0
M  V30 10290 C 969.86 -0.539311 3.43087 0
M  V30 10291 C 968.814 0.256997 4.27228 0
M  V30 10292 C 968.14 -0.692718 5.30194 0
M  V30 10293 C 969.44 1.47391 5.01072 0
M  V30 10294 H 971.134 1.10798 2.78144 0
M  V30 10295 H 968.68 0.534235 1.33723 0
M  V30 10296 H 970.633 -0.935724 4.1088 0
M  V30 10297 H 969.357 -1.39383 2.95364 0
M  V30 10298 H 968.016 0.634967 3.61059 0
M  V30 10299 H 967.664 -1.54363 4.78729 0
M  V30 10300 H 967.364 -0.164023 5.87371 0
M  V30 10301 H 968.888 -1.08665 6.00853 0
M  V30 10302 H 970.302 1.15067 5.61634 0
M  V30 10303 H 968.699 1.93937 5.67898 0
M  V30 10304 H 969.769 2.24382 4.29861 0
M  V30 10305 N 971.112 -1.45937 0.595003 0
M  V30 10306 C 972.342 -2.06399 0.0911607 0
M  V30 10307 C 972.75 -1.44236 -1.22444 0
M  V30 10308 O 972.093 -0.546265 -1.7539 0
M  V30 10309 C 972.155 -3.59242 -0.136079 0
M  V30 10310 C 971.819 -4.43668 1.09579 0
M  V30 10311 C 972.816 -4.79437 2.01088 0
M  V30 10312 C 970.501 -4.84616 1.32109 0
M  V30 10313 C 972.495 -5.54995 3.13464 0
M  V30 10314 C 970.182 -5.5993 2.44788 0
M  V30 10315 C 971.18 -5.95035 3.35294 0
M  V30 10316 O 970.868 -6.68825 4.46014 0
M  V30 10317 H 970.6 -0.673316 0.0601779 0
M  V30 10318 H 973.154 -1.88365 0.819005 0
M  V30 10319 H 971.384 -3.75629 -0.918676 0
M  V30 10320 H 973.073 -4.0159 -0.589954 0
M  V30 10321 H 973.839 -4.48371 1.84902 0
M  V30 10322 H 969.718 -4.56735 0.625662 0
M  V30 10323 H 973.262 -5.82314 3.84131 0
M  V30 10324 H 969.159 -5.90411 2.60931 0
M  V30 10325 H 969.927 -6.87262 4.44537 0
M  V30 10326 N 972.59 -0.333456 -1.54032 0
M  V30 10327 C 974.006 0.0188405 -1.59589 0
M  V30 10328 C 974.206 1.49615 -1.34972 0
M  V30 10329 O 973.262 2.2535 -1.13901 0
M  V30 10330 C 974.575 -0.408273 -2.97915 0
M  V30 10331 C 976.123 -0.359763 -3.10926 0
M  V30 10332 C 976.598 -0.76219 -4.51613 0
M  V30 10333 N 978.089 -0.715981 -4.57633 0
M  V30 10334 C 978.824 -0.999436 -5.64623 0
M  V30 10335 N 978.32 -1.35053 -6.79509 0
M  V30 10336 N 980.113 -0.924343 -5.54448 0
M  V30 10337 H 972.264 -1.29587 -1.68289 0
M  V30 10338 H 974.527 -0.527584 -0.787629 0
M  V30 10339 H 974.233 -1.43793 -3.20962 0
M  V30 10340 H 974.107 0.221685 -3.76548 0
M  V30 10341 H 976.494 0.660703 -2.87609 0
M  V30 10342 H 976.575 -1.02479 -2.34375 0
M  V30 10343 H 976.219 -1.78062 -4.75664 0
M  V30 10344 H 976.149 -0.0747478 -5.26547 0
M  V30 10345 H 978.64 -0.456875 -3.75128 0
M  V30 10346 H 978.953 -1.55194 -7.57057 0
M  V30 10347 H 977.298 -1.38889 -6.80981 0
M  V30 10348 H 980.489 -0.649469 -4.63573 0
M  V30 10349 H 980.662 -1.1486 -6.37739 0
M  V30 10350 N 974.068 1.57479 -0.061844 0
M  V30 10351 C 975.018 2.0867 0.918749 0
M  V30 10352 C 976.002 0.994174 1.26511 0
M  V30 10353 O 977.194 1.25738 1.24575 0
M  V30 10354 C 974.323 2.64386 2.18986 0
M  V30 10355 C 973.409 3.80626 1.87042 0
M  V30 10356 N 973.8 4.89982 1.25504 0
M  V30 10357 C 972.098 3.89733 2.1685 0
M  V30 10358 C 972.799 5.70928 1.11429 0
M  V30 10359 N 971.775 5.18877 1.62072 0
M  V30 10360 H 975.577 2.90611 0.438469 0
M  V30 10361 H 973.091 1.61775 0.142321 0
M  V30 10362 H 975.088 2.9937 2.90144 0
M  V30 10363 H 973.748 1.83888 2.67611 0
M  V30 10364 H 974.759 5.09556 0.925914 0
M  V30 10365 H 971.436 3.20194 2.67921 0
M  V30 10366 H 972.826 6.68886 0.635665 0
M  V30 10367 N 975.546 -0.211634 1.56173 0
M  V30 10368 C 976.494 -1.28188 1.94089 0
M  V30 10369 C 977.488 -1.47999 0.824167 0
M  V30 10370 O 978.694 -1.49056 1.00907 0
M  V30 10371 H 975.069 -0.42999 0.616938 0
M  V30 10372 H 977.04 -0.934962 2.83374 0
M  V30 10373 C 975.789 -2.62294 2.28248 0
M  V30 10374 H 975.112 -2.4786 3.13696 0
M  V30 10375 H 976.552 -3.35967 2.58655 0
M  V30 10376 C 975.011 -3.18049 1.11113 0
M  V30 10377 O 975.541 -3.99923 0.377458 0
M  V30 10378 N 973.747 -2.76561 0.892321 0
M  V30 10379 H 973.294 -2.10088 1.49067 0
M  V30 10380 H 973.252 -3.14206 0.110344 0
M  V30 10381 N 977.024 -1.50153 -0.478725 0
M  V30 10382 C 978.254 -1.64266 -1.253 0
M  V30 10383 C 978.662 -0.322256 -1.86435 0
M  V30 10384 O 978.005 0.704925 -1.69636 0
M  V30 10385 C 978.067 -2.67017 -2.40712 0
M  V30 10386 C 977.731 -4.10779 -2.00274 0
M  V30 10387 C 978.728 -4.96889 -1.52963 0
M  V30 10388 C 976.413 -4.5665 -2.09228 0
M  V30 10389 C 978.407 -6.26914 -1.15139 0
M  V30 10390 C 976.094 -5.86683 -1.71015 0
M  V30 10391 C 977.092 -6.71641 -1.24048 0
M  V30 10392 O 976.78 -7.99248 -0.863617 0
M  V30 10393 H 976.512 -0.555382 -0.385392 0
M  V30 10394 H 979.066 -1.97078 -0.578751 0
M  V30 10395 H 977.296 -2.29432 -3.11284 0
M  V30 10396 H 978.985 -2.70428 -3.02694 0
M  V30 10397 H 979.751 -4.62669 -1.45474 0
M  V30 10398 H 975.63 -3.90674 -2.44735 0
M  V30 10399 H 979.174 -6.93179 -0.784089 0
M  V30 10400 H 975.071 -6.20426 -1.78162 0
M  V30 10401 H 975.839 -8.12452 -0.993139 0
M  V30 10402 N 978.502 0.731368 -1.39602 0
M  V30 10403 C 979.742 1.5036 -1.3846 0
M  V30 10404 C 980.106 1.91991 0.018784 0
M  V30 10405 O 981.307 2.68351 0.155236 0
M  V30 10406 C 979.578 2.70755 -2.33295 0
M  V30 10407 S 981.137 3.6036 -2.50372 0
M  V30 10408 H 977.955 0.514271 -0.490964 0
M  V30 10409 H 980.557 0.856654 -1.75732 0
M  V30 10410 H 979.261 2.38316 -3.34116 0
M  V30 10411 H 978.792 3.40376 -1.97251 0
M  V30 10412 H 980.807 4.64529 -1.74435 0
M  V30 10413 N 979.98 1.24838 0.961938 0
M  V30 10414 C 981.205 1.11967 1.7458 0
M  V30 10415 C 981.63 -0.323287 1.85301 0
M  V30 10416 O 980.988 -1.23412 1.32812 0
M  V30 10417 C 981.036 1.77066 3.14134 0
M  V30 10418 O 980.14 1.04534 3.98932 0
M  V30 10419 H 979.481 0.391338 0.536424 0
M  V30 10420 H 982.011 1.65259 1.20626 0
M  V30 10421 H 982.021 1.83056 3.64629 0
M  V30 10422 H 980.696 2.82052 3.05646 0
M  V30 10423 H 979.273 1.06372 3.57407 0
M  V30 10424 N 981.458 -1.16348 1.06306 0
M  V30 10425 C 982.405 -2.20741 0.673962 0
M  V30 10426 C 983.375 -1.628 -0.329454 0
M  V30 10427 O 984.56 -1.89547 -0.218313 0
M  V30 10428 C 981.7 -3.45036 0.0667008 0
M  V30 10429 C 980.813 -4.17221 1.12031 0
M  V30 10430 C 979.948 -5.29034 0.479176 0
M  V30 10431 C 978.987 -5.93021 1.51631 0
M  V30 10432 N 978.124 -6.96327 0.898528 0
M  V30 10433 H 982.964 -2.53376 1.56859 0
M  V30 10434 H 980.501 -1.24449 0.784276 0
M  V30 10435 H 982.459 -4.16099 -0.302916 0
M  V30 10436 H 981.089 -3.1295 -0.791333 0
M  V30 10437 H 980.141 -3.4476 1.60763 0
M  V30 10438 H 981.453 -4.60902 1.90712 0
M  V30 10439 H 980.607 -6.06674 0.0565993 0
M  V30 10440 H 979.346 -4.86517 -0.33951 0
M  V30 10441 H 978.351 -5.14104 1.94878 0
M  V30 10442 H 979.576 -6.37618 2.3371 0
M  V30 10443 H 977.522 -6.55923 0.100555 0
M  V30 10444 H 977.439 -7.38379 1.62272 0
M  V30 10445 H 978.707 -7.77888 0.5011 0
M  V30 10446 N 982.937 -0.845659 -1.3299 0
M  V30 10447 C 984.214 -0.366306 -1.92139 0
M  V30 10448 C 984.594 1.14912 -1.77083 0
M  V30 10449 O 983.942 1.96667 -1.16338 0
M  V30 10450 C 984.152 -0.820716 -3.39213 0
M  V30 10451 C 985.5 -0.832667 -4.16355 0
M  V30 10452 O 986.524 -0.764764 -3.47893 0
M  V30 10453 O 985.383 -0.926658 -5.38586 0
M  V30 10454 H 982.477 -0.105063 -0.820299 0
M  V30 10455 H 985.023 -0.931962 -1.41819 0
M  V30 10456 H 983.795 -1.86357 -3.44074 0
M  V30 10457 H 983.418 -0.232009 -3.96923 0
M  V30 10458 N 984.415 1.45619 -0.602734 0
M  V30 10459 C 985.362 2.30493 0.118944 0
M  V30 10460 C 986.332 1.41816 0.864723 0
M  V30 10461 O 987.517 1.7075 0.851424 0
M  V30 10462 C 984.657 3.2664 1.11356 0
M  V30 10463 C 983.77 4.3042 0.369161 0
M  V30 10464 C 982.905 5.13678 1.35307 0
M  V30 10465 C 981.944 6.09189 0.596207 0
M  V30 10466 N 981.081 6.85245 1.52916 0
M  V30 10467 H 985.921 2.91672 -0.610836 0
M  V30 10468 H 983.458 1.43731 -0.313032 0
M  V30 10469 H 985.416 3.80846 1.7033 0
M  V30 10470 H 984.046 2.67225 1.81081 0
M  V30 10471 H 983.098 3.78913 -0.335994 0
M  V30 10472 H 984.41 4.98307 -0.221603 0
M  V30 10473 H 983.564 5.7226 2.01502 0
M  V30 10474 H 982.303 4.45798 1.97777 0
M  V30 10475 H 981.308 5.49743 -0.0793984 0
M  V30 10476 H 982.533 6.79096 -0.0233734 0
M  V30 10477 H 980.479 6.20058 2.14159 0
M  V30 10478 H 980.396 7.49467 0.991713 0
M  V30 10479 H 981.664 7.48371 2.18083 0
M  V30 10480 N 985.893 0.34162 1.53853 0
M  V30 10481 C 987.142 -0.256475 2.00063 0
M  V30 10482 C 987.455 -1.51811 1.23341 0
M  V30 10483 O 988.661 -2.19332 1.60017 0
M  V30 10484 C 987.117 -0.507567 3.56303 0
M  V30 10485 C 986.725 0.738052 4.41879 0
M  V30 10486 C 988.469 -1.06463 4.10933 0
M  V30 10487 C 986.376 0.457865 5.89625 0
M  V30 10488 H 985.306 -0.0996143 0.747391 0
M  V30 10489 H 987.957 0.456649 1.77727 0
M  V30 10490 H 986.339 -1.28134 3.74697 0
M  V30 10491 H 987.513 1.51278 4.3526 0
M  V30 10492 H 985.828 1.21661 3.98231 0
M  V30 10493 H 988.425 -1.28918 5.18926 0
M  V30 10494 H 988.768 -2.01956 3.64032 0
M  V30 10495 H 989.301 -0.351601 3.96243 0
M  V30 10496 H 986.04 1.38247 6.40756 0
M  V30 10497 H 985.56 -0.278818 5.99152 0
M  V30 10498 H 987.239 0.0743914 6.46957 0
M  V30 10499 N 987.371 -1.57444 0.0701946 0
M  V30 10500 C 988.782 -1.80875 -0.462709 0
M  V30 10501 C 989.133 -0.983975 -1.69742 0
M  V30 10502 O 988.258 -0.206027 -2.15417 0
M  V30 10503 C 988.853 -3.28062 -0.84623 0
M  V30 10504 C 987.412 -3.52345 -1.32401 0
M  V30 10505 C 986.559 -2.7558 -0.308399 0
M  V30 10506 H 989.51 -1.55917 0.295907 0
M  V30 10507 H 989.531 -3.40023 -1.70776 0
M  V30 10508 H 989.043 -3.88064 0.0526033 0
M  V30 10509 H 987.144 -2.97645 -2.24139 0
M  V30 10510 H 987.257 -4.6104 -1.30304 0
M  V30 10511 H 985.621 -2.4229 -0.785337 0
M  V30 10512 H 986.404 -3.38319 0.582679 0
M  V30 10513 N 988.849 0.203349 -1.56283 0
M  V30 10514 C 990.098 0.92315 -1.79334 0
M  V30 10515 C 990.411 1.84765 -0.641977 0
M  V30 10516 O 991.617 2.60745 -0.756584 0
M  V30 10517 C 990.073 1.69184 -3.17655 0
M  V30 10518 C 989.681 0.812581 -4.40569 0
M  V30 10519 C 991.425 2.40177 -3.50022 0
M  V30 10520 C 989.332 1.57967 -5.69913 0
M  V30 10521 H 988.262 0.348442 -0.668659 0
M  V30 10522 H 990.913 0.1766 -1.82648 0
M  V30 10523 H 989.295 2.48197 -3.08568 0
M  V30 10524 H 990.469 0.0616956 -4.60759 0
M  V30 10525 H 988.784 0.21389 -4.1585 0
M  V30 10526 H 991.381 2.98103 -4.4389 0
M  V30 10527 H 991.724 3.13961 -2.73376 0
M  V30 10528 H 992.257 1.68138 -3.6052 0
M  V30 10529 H 988.996 0.884767 -6.49501 0
M  V30 10530 H 988.516 2.3047 -5.53754 0
M  V30 10531 H 990.195 2.13562 -6.10737 0
M  V30 10532 N 990.327 1.50405 0.470755 0
M  V30 10533 C 991.743 1.37838 0.804534 0
M  V30 10534 C 991.943 0.434743 1.96754 0
M  V30 10535 O 990.999 -0.122507 2.52203 0
M  V30 10536 C 992.312 2.79212 1.11629 0
M  V30 10537 C 993.86 2.88129 1.22272 0
M  V30 10538 C 994.335 4.30337 1.5676 0
M  V30 10539 N 995.826 4.3329 1.63751 0
M  V30 10540 C 996.561 5.4032 1.91942 0
M  V30 10541 N 996.057 6.57558 2.18151 0
M  V30 10542 N 997.85 5.27764 1.93446 0
M  V30 10543 H 990.001 2.10332 -0.295689 0
M  V30 10544 H 992.264 0.945429 -0.0697733 0
M  V30 10545 H 991.97 3.50103 0.334778 0
M  V30 10546 H 991.844 3.16475 2.0524 0
M  V30 10547 H 994.231 2.17457 1.9949 0
M  V30 10548 H 994.312 2.54409 0.2664 0
M  V30 10549 H 993.956 5.01547 0.800817 0
M  V30 10550 H 993.886 4.61545 2.53543 0
M  V30 10551 H 996.377 3.48752 1.45535 0
M  V30 10552 H 996.69 7.34935 2.38936 0
M  V30 10553 H 995.035 6.60732 2.15542 0
M  V30 10554 H 998.226 4.35169 1.72468 0
M  V30 10555 H 998.399 6.11264 2.15081 0
M  V30 10556 N 991.805 -0.723954 1.39988 0
M  V30 10557 C 992.752 -1.83803 1.39589 0
M  V30 10558 C 993.722 -1.64146 0.253996 0
M  V30 10559 O 994.907 -1.85398 0.450793 0
M  V30 10560 C 992.047 -3.21431 1.25604 0
M  V30 10561 C 991.16 -3.52717 2.49429 0
M  V30 10562 C 990.295 -4.79805 2.27949 0
M  V30 10563 C 989.334 -5.03968 3.47394 0
M  V30 10564 N 988.471 -6.22266 3.25161 0
M  V30 10565 H 993.311 -1.83479 2.34818 0
M  V30 10566 H 990.848 -0.896396 1.16633 0
M  V30 10567 H 992.806 -4.00892 1.15504 0
M  V30 10568 H 991.436 -3.21005 0.339986 0
M  V30 10569 H 990.488 -2.67872 2.7009 0
M  V30 10570 H 991.8 -3.66486 3.38363 0
M  V30 10571 H 990.954 -5.67268 2.15155 0
M  V30 10572 H 989.693 -4.68229 1.36428 0
M  V30 10573 H 988.698 -4.14963 3.60674 0
M  V30 10574 H 989.923 -5.17422 4.39831 0
M  V30 10575 H 987.869 -6.11957 2.36314 0
M  V30 10576 H 987.786 -6.36673 4.07656 0
M  V30 10577 H 989.054 -7.12539 3.16083 0
M  V30 10578 N 993.283 -1.25346 -0.955304 0
M  V30 10579 C 994.513 -1.12629 -1.732 0
M  V30 10580 C 994.921 0.322748 -1.86427 0
M  V30 10581 O 994.264 1.23381 -1.36099 0
M  V30 10582 C 994.326 -1.7064 -3.16421 0
M  V30 10583 C 993.99 -3.19632 -3.26626 0
M  V30 10584 C 994.987 -4.1663 -3.10991 0
M  V30 10585 C 992.672 -3.59829 -3.50468 0
M  V30 10586 C 994.666 -5.51806 -3.19043 0
M  V30 10587 C 992.353 -4.95143 -3.58157 0
M  V30 10588 C 993.351 -5.90941 -3.42459 0
M  V30 10589 O 993.039 -7.23792 -3.49828 0
M  V30 10590 H 992.771 -0.393646 -0.549562 0
M  V30 10591 H 995.325 -1.66184 -1.20715 0
M  V30 10592 H 993.555 -1.11532 -3.70267 0
M  V30 10593 H 995.244 -1.53032 -3.75947 0
M  V30 10594 H 996.01 -3.86915 -2.92441 0
M  V30 10595 H 991.889 -2.8576 -3.61749 0
M  V30 10596 H 995.433 -6.26559 -3.06707 0
M  V30 10597 H 991.33 -5.24525 -3.76224 0
M  V30 10598 H 992.098 -7.31879 -3.66463 0
M  V30 10599 N 994.761 1.15782 -1.06922 0
M  V30 10600 C 995.724 2.18578 -0.689654 0
M  V30 10601 C 996.724 1.58553 0.267872 0
M  V30 10602 O 997.914 1.7413 0.0494097 0
M  V30 10603 C 995.046 3.40896 -0.0157919 0
M  V30 10604 H 996.239 2.53672 -1.59971 0
M  V30 10605 H 993.792 1.30168 -0.865214 0
M  V30 10606 H 994.527 3.11367 0.906712 0
M  V30 10607 H 994.312 3.85721 -0.704415 0
M  V30 10608 H 995.802 4.16937 0.235266 0
M  V30 10609 N 996.239 0.8527 1.3254 0
M  V30 10610 C 997.516 0.376491 1.91942 0
M  V30 10611 C 997.896 -1.13972 1.7769 0
M  V30 10612 O 997.244 -1.96047 1.17379 0
M  V30 10613 C 997.454 0.838694 3.38773 0
M  V30 10614 C 998.802 0.854736 4.15908 0
M  V30 10615 O 999.826 0.783203 3.47483 0
M  V30 10616 O 998.685 0.955207 5.38087 0
M  V30 10617 H 995.779 0.109412 0.81973 0
M  V30 10618 H 998.325 0.93947 1.41322 0
M  V30 10619 H 997.097 1.88179 3.43081 0
M  V30 10620 H 996.72 0.253055 3.96794 0
M  V30 10621 N 997.718 -1.45297 0.610449 0
M  V30 10622 C 998.966 -2.01819 0.106548 0
M  V30 10623 C 999.287 -1.48102 -1.26849 0
M  V30 10624 O 998.557 -0.676411 -1.83852 0
M  V30 10625 H 997.137 -0.746113 0.0363982 0
M  V30 10626 H 999.799 -1.78061 0.792491 0
M  V30 10627 H 998.895 -3.12045 0.0585 0
M  V30 10628 N 999.196 -0.349774 -1.5367 0
M  V30 10629 C 1000.42 0.246038 -2.05432 0
M  V30 10630 C 1000.84 1.43719 -1.22435 0
M  V30 10631 O 1000.2 1.80622 -0.261166 0
M  V30 10632 C 1000.25 0.65501 -3.55516 0
M  V30 10633 O 999.968 -0.488782 -4.35365 0
M  V30 10634 C 1001.47 1.31088 -4.23475 0
M  V30 10635 H 998.689 0.0463952 -0.669394 0
M  V30 10636 H 1001.23 -0.503566 -1.98203 0
M  V30 10637 H 999.388 1.35455 -3.62947 0
M  V30 10638 H 999.802 -0.161528 -5.24251 0
M  V30 10639 H 1001.28 1.54774 -5.29857 0
M  V30 10640 H 1001.75 2.26636 -3.76208 0
M  V30 10641 H 1002.36 0.653211 -4.20254 0
M  V30 10642 N 1000.67 1.57404 -0.0785433 0
M  V30 10643 C 1001.92 1.9292 0.588626 0
M  V30 10644 C 1002.24 0.961106 1.70359 0
M  V30 10645 O 1003.44 1.20934 2.43079 0
M  V30 10646 C 1001.9 3.42729 1.09839 0
M  V30 10647 C 1001.51 4.47998 0.0140773 0
M  V30 10648 C 1003.25 3.87235 1.73924 0
M  V30 10649 C 1001.16 5.88945 0.538269 0
M  V30 10650 H 1000.09 0.720069 0.223645 0
M  V30 10651 H 1002.74 1.8287 -0.15187 0
M  V30 10652 H 1001.12 3.47875 1.89207 0
M  V30 10653 H 1002.29 4.54476 -0.760773 0
M  V30 10654 H 1000.61 4.13001 -0.53095 0
M  V30 10655 H 1003.21 4.89927 2.14186 0
M  V30 10656 H 1003.55 3.24971 2.60191 0
M  V30 10657 H 1004.08 3.84721 1.01168 0
M  V30 10658 H 1000.82 6.5487 -0.287395 0
M  V30 10659 H 1000.34 5.85972 1.28049 0
M  V30 10660 H 1002.02 6.39028 1.01253 0
M  V30 10661 N 1002.15 -0.195058 1.56388 0
M  V30 10662 C 1003.43 -0.941335 1.71459 0
M  V30 10663 C 1003.81 -2.01375 0.633336 0
M  V30 10664 O 1003.16 -2.25715 -0.35567 0
M  V30 10665 C 1003.37 -1.52772 3.13786 0
M  V30 10666 C 1004.71 -2.00983 3.7402 0
M  V30 10667 O 1005.74 -1.62614 3.16915 0
M  V30 10668 O 1004.6 -2.71586 4.7424 0
M  V30 10669 H 1001.69 -0.441451 0.699321 0
M  V30 10670 H 1004.24 -0.184752 1.68691 0
M  V30 10671 H 1003.01 -0.754699 3.83953 0
M  V30 10672 H 1002.63 -2.34914 3.20782 0
M  V30 10673 N 1003.63 -1.50653 -0.462772 0
M  V30 10674 C 1004.88 -1.61296 -1.21105 0
M  V30 10675 C 1005.19 -0.322757 -1.92919 0
M  V30 10676 O 1006.4 -0.308211 -2.69745 0
M  V30 10677 C 1004.85 -2.84752 -2.201 0
M  V30 10678 C 1004.46 -4.20681 -1.54051 0
M  V30 10679 C 1006.21 -3.04744 -2.95518 0
M  V30 10680 C 1004.11 -5.35314 -2.51381 0
M  V30 10681 H 1003.04 -0.60069 -0.455728 0
M  V30 10682 H 1005.69 -1.77093 -0.480656 0
M  V30 10683 H 1004.08 -2.62532 -2.96467 0
M  V30 10684 H 1005.25 -4.53187 -0.834168 0
M  V30 10685 H 1003.56 -4.06361 -0.908828 0
M  V30 10686 H 1006.16 -3.87559 -3.68378 0
M  V30 10687 H 1006.5 -2.16802 -3.55391 0
M  V30 10688 H 1007.04 -3.27185 -2.26263 0
M  V30 10689 H 1003.78 -6.25437 -1.96235 0
M  V30 10690 H 1003.3 -5.07216 -3.20144 0
M  V30 10691 H 1004.98 -5.66229 -3.1304 0
M  V30 10692 N 1005.11 0.71652 -1.4037 0
M  V30 10693 C 1006.02 1.86074 -1.42876 0
M  V30 10694 C 1007.03 1.71005 -0.321475 0
M  V30 10695 O 1008.21 1.93286 -0.565909 0
M  V30 10696 C 1005.28 3.21862 -1.28863 0
M  V30 10697 C 1004.34 3.49193 -2.49726 0
M  V30 10698 C 1003.57 4.78502 -2.36372 0
M  V30 10699 O 1003.79 5.53529 -1.37703 0
M  V30 10700 O 1002.73 5.06147 -3.25728 0
M  V30 10701 H 1006.55 1.86916 -2.39366 0
M  V30 10702 H 1004.14 0.866818 -1.21683 0
M  V30 10703 H 1006.02 4.02972 -1.23253 0
M  V30 10704 H 1004.69 3.2175 -0.354783 0
M  V30 10705 H 1003.6 2.68095 -2.60913 0
M  V30 10706 H 1004.93 3.54101 -3.41868 0
M  V30 10707 N 1006.59 1.25851 0.948643 0
M  V30 10708 C 1007.5 1.08516 2.07994 0
M  V30 10709 C 1008.51 0.0206696 1.73988 0
M  V30 10710 O 1009.69 0.222854 2.00163 0
M  V30 10711 C 1006.75 0.712145 3.39307 0
M  V30 10712 C 1005.81 1.85523 3.87143 0
M  V30 10713 C 1005.05 1.49992 5.1219 0
M  V30 10714 O 1005.27 0.398268 5.69008 0
M  V30 10715 O 1004.2 2.33215 5.54882 0
M  V30 10716 H 1008.03 2.03405 2.25522 0
M  V30 10717 H 1005.62 1.04844 1.06433 0
M  V30 10718 H 1007.5 0.516512 4.18223 0
M  V30 10719 H 1006.17 -0.207416 3.23035 0
M  V30 10720 H 1005.08 2.10578 3.09205 0
M  V30 10721 H 1006.41 2.75425 4.07924 0
M  V30 10722 N 1008.06 -1.15214 1.07534 0
M  V30 10723 C 1009.31 -1.86319 0.800814 0
M  V30 10724 C 1009.64 -1.82221 -0.671494 0
M  V30 10725 O 1008.92 -1.24664 -1.49295 0
M  V30 10726 C 1009.2 -3.35347 1.31203 0
M  V30 10727 C 1009.05 -3.48067 2.84902 0
M  V30 10728 C 1010.37 -4.3016 0.930064 0
M  V30 10729 H 1007.49 -0.676523 0.292379 0
M  V30 10730 H 1010.13 -1.35349 1.33344 0
M  V30 10731 H 1008.28 -3.78886 0.858949 0
M  V30 10732 H 1009.96 -3.13379 3.38514 0
M  V30 10733 H 1008.2 -2.89566 3.23008 0
M  V30 10734 H 1008.87 -4.52782 3.15741 0
M  V30 10735 H 1011.35 -3.94591 1.3205 0
M  V30 10736 H 1010.22 -5.32914 1.31507 0
M  V30 10737 H 1010.48 -4.41796 -0.163824 0
M  V30 10738 N 1009.54 -0.859717 -1.32086 0
M  V30 10739 C 1010.77 -0.479724 -2.01262 0
M  V30 10740 C 1011.19 0.924985 -1.64589 0
M  V30 10741 O 1010.54 1.60439 -0.869803 0
M  V30 10742 C 1010.59 -0.615128 -3.56228 0
M  V30 10743 O 1010.31 -1.96451 -3.91585 0
M  V30 10744 C 1011.82 -0.234804 -4.42678 0
M  V30 10745 H 1009.04 -0.188007 -0.644123 0
M  V30 10746 H 1011.58 -1.15805 -1.68551 0
M  V30 10747 H 1009.73 0.0155268 -3.87397 0
M  V30 10748 H 1010.15 -1.96491 -4.86304 0
M  V30 10749 H 1011.62 -0.380534 -5.50687 0
M  V30 10750 H 1012.1 0.825189 -4.31378 0
M  V30 10751 H 1012.71 -0.840739 -4.16907 0
M  V30 10752 N 1011.02 1.44971 -0.618145 0
M  V30 10753 C 1011.93 2.34403 0.0960457 0
M  V30 10754 C 1012.95 1.51862 0.849355 0
M  V30 10755 O 1014.12 1.84632 0.804557 0
M  V30 10756 C 1011.19 3.29646 1.07397 0
M  V30 10757 C 1010.25 4.28095 0.321466 0
M  V30 10758 C 1009.48 5.18787 1.25281 0
M  V30 10759 O 1009.7 5.1313 2.49106 0
M  V30 10760 O 1008.64 5.97282 0.744156 0
M  V30 10761 H 1012.46 2.96898 -0.639176 0
M  V30 10762 H 1010.05 1.44529 -0.37837 0
M  V30 10763 H 1011.93 3.88307 1.63694 0
M  V30 10764 H 1010.61 2.69702 1.79004 0
M  V30 10765 H 1009.51 3.73019 -0.284223 0
M  V30 10766 H 1010.85 4.90923 -0.354315 0
M  V30 10767 N 1012.5 0.357919 1.53482 0
M  V30 10768 C 1013.45 -0.507364 2.26999 0
M  V30 10769 C 1014.44 -1.08987 1.29685 0
M  V30 10770 O 1015.65 -1.03396 1.47341 0
M  V30 10771 H 1012.02 -0.182326 0.729562 0
M  V30 10772 H 1013.99 0.134547 2.98097 0
M  V30 10773 C 1012.74 -1.63911 3.06641 0
M  V30 10774 H 1012.06 -1.20017 3.81361 0
M  V30 10775 H 1013.5 -2.21943 3.61272 0
M  V30 10776 C 1011.96 -2.57697 2.17011 0
M  V30 10777 O 1012.49 -3.60318 1.77578 0
M  V30 10778 N 1010.7 -2.2671 1.818 0
M  V30 10779 H 1010.25 -1.43296 2.14065 0
M  V30 10780 H 1010.2 -2.89716 1.22115 0
M  V30 10781 N 1013.98 -1.5736 0.0868897 0
M  V30 10782 C 1015.39 -1.81356 -0.443499 0
M  V30 10783 C 1015.74 -1.00192 -1.68689 0
M  V30 10784 O 1014.86 -0.228863 -2.15186 0
M  V30 10785 C 1015.46 -3.28941 -0.811387 0
M  V30 10786 C 1014.02 -3.53729 -1.28656 0
M  V30 10787 C 1013.16 -2.75891 -0.279153 0
M  V30 10788 H 1016.12 -1.55594 0.312427 0
M  V30 10789 H 1016.14 -3.41815 -1.6716 0
M  V30 10790 H 1015.65 -3.87987 0.0937598 0
M  V30 10791 H 1013.75 -3.00005 -2.2097 0
M  V30 10792 H 1013.86 -4.62396 -1.25406 0
M  V30 10793 H 1012.23 -2.4311 -0.759595 0
M  V30 10794 H 1013.01 -3.37682 0.618529 0
M  V30 10795 N 1015.45 0.186762 -1.56489 0
M  V30 10796 C 1016.4 1.23141 -1.95205 0
M  V30 10797 C 1017.37 1.44799 -0.81378 0
M  V30 10798 O 1018.56 1.57795 -1.07263 0
M  V30 10799 C 1015.7 2.56926 -2.30397 0
M  V30 10800 C 1014.81 2.42777 -3.57328 0
M  V30 10801 C 1013.94 3.69323 -3.81804 0
M  V30 10802 C 1012.98 3.50041 -5.02133 0
M  V30 10803 N 1012.12 4.68619 -5.2282 0
M  V30 10804 H 1016.96 0.894256 -2.84266 0
M  V30 10805 H 1014.5 0.430187 -1.40669 0
M  V30 10806 H 1016.46 3.3488 -2.4882 0
M  V30 10807 H 1015.09 2.88668 -1.44466 0
M  V30 10808 H 1014.14 1.56078 -3.46906 0
M  V30 10809 H 1015.45 2.24468 -4.45439 0
M  V30 10810 H 1014.6 4.55715 -4.00511 0
M  V30 10811 H 1013.34 3.90595 -2.92039 0
M  V30 10812 H 1012.35 2.62034 -4.8334 0
M  V30 10813 H 1013.57 3.30206 -5.93414 0
M  V30 10814 H 1011.52 4.90139 -4.36005 0
M  V30 10815 H 1011.44 4.53165 -6.05126 0
M  V30 10816 H 1012.7 5.56338 -5.45993 0
M  V30 10817 N 1016.93 1.50896 0.454776 0
M  V30 10818 C 1018.16 1.6648 1.22849 0
M  V30 10819 C 1018.58 0.354841 1.85435 0
M  V30 10820 O 1017.93 -0.664931 1.69956 0
M  V30 10821 C 1017.98 2.76787 2.32532 0
M  V30 10822 O 1017.7 4.02706 1.72509 0
M  V30 10823 C 1019.21 3.03488 3.23125 0
M  V30 10824 H 1016.43 0.559152 0.370932 0
M  V30 10825 H 1018.97 1.97215 0.540983 0
M  V30 10826 H 1017.12 2.48701 2.9703 0
M  V30 10827 H 1017.54 4.63834 2.44863 0
M  V30 10828 H 1019.01 3.84294 3.9626 0
M  V30 10829 H 1019.49 2.152 3.82865 0
M  V30 10830 H 1020.1 3.33167 2.64347 0
M  V30 10831 N 1018.41 -0.709066 1.40748 0
M  V30 10832 C 1019.32 -1.85314 1.43861 0
M  V30 10833 C 1020.34 -1.70832 0.330539 0
M  V30 10834 O 1021.51 -1.92983 0.576152 0
M  V30 10835 C 1018.58 -3.21174 1.30568 0
M  V30 10836 C 1017.64 -3.47863 2.51574 0
M  V30 10837 C 1016.87 -4.77241 2.38906 0
M  V30 10838 O 1017.09 -5.52791 1.40636 0
M  V30 10839 O 1016.03 -5.04413 3.28407 0
M  V30 10840 H 1019.85 -1.85644 2.40354 0
M  V30 10841 H 1017.44 -0.860352 1.2214 0
M  V30 10842 H 1019.32 -4.02313 1.25388 0
M  V30 10843 H 1018 -3.21557 0.371841 0
M  V30 10844 H 1016.9 -2.66708 2.62331 0
M  V30 10845 H 1018.24 -3.52283 3.43741 0
M  V30 10846 N 1019.89 -1.26353 -0.941956 0
M  V30 10847 C 1021.14 -1.12017 -1.69056 0
M  V30 10848 C 1021.47 0.335856 -1.91274 0
M  V30 10849 O 1020.74 1.24677 -1.49285 0
M  V30 10850 C 1021.03 -1.88889 -3.06583 0
M  V30 10851 C 1020.88 -3.42394 -2.91696 0
M  V30 10852 C 1022.2 -1.68209 -4.06686 0
M  V30 10853 H 1019.32 -0.408311 -0.613556 0
M  V30 10854 H 1021.96 -1.55339 -1.09407 0
M  V30 10855 H 1020.11 -1.5207 -3.57501 0
M  V30 10856 H 1021.78 -3.88962 -2.48005 0
M  V30 10857 H 1020.02 -3.69459 -2.27338 0
M  V30 10858 H 1020.7 -3.91408 -3.89235 0
M  V30 10859 H 1023.17 -2.00286 -3.64726 0
M  V30 10860 H 1022.05 -2.24412 -5.00929 0
M  V30 10861 H 1022.31 -0.626474 -4.37639 0
M  V30 10862 N 1021.37 1.14642 -1.08144 0
M  V30 10863 C 1022.61 1.87277 -0.818953 0
M  V30 10864 C 1022.97 1.80896 0.643482 0
M  V30 10865 O 1024.17 2.4864 1.02135 0
M  V30 10866 C 1022.44 3.32006 -1.32314 0
M  V30 10867 S 1024 4.22284 -1.19256 0
M  V30 10868 H 1020.82 0.646204 -0.29655 0
M  V30 10869 H 1023.42 1.38261 -1.38217 0
M  V30 10870 H 1022.13 3.34197 -2.38203 0
M  V30 10871 H 1021.66 3.86078 -0.75548 0
M  V30 10872 H 1023.67 4.96016 -0.135143 0
M  V30 10873 N 1022.85 0.866709 1.31628 0
M  V30 10874 C 1024.09 0.475086 1.96437 0
M  V30 10875 C 1024.41 -0.975179 1.68865 0
M  V30 10876 O 1023.68 -1.68317 1.0023 0
M  V30 10877 H 1022.26 0.172695 0.726764 0
M  V30 10878 H 1024.93 1.10578 1.60494 0
M  V30 10879 H 1024.02 0.630123 3.05673 0
M  V30 10880 N 1024.32 -1.44642 0.625825 0
M  V30 10881 C 1025.57 -2.01695 0.127948 0
M  V30 10882 C 1025.89 -1.49439 -1.25271 0
M  V30 10883 O 1025.16 -0.695873 -1.83124 0
M  V30 10884 H 1023.74 -0.745685 0.0443096 0
M  V30 10885 H 1026.4 -1.7721 0.811332 0
M  V30 10886 H 1025.5 -3.11966 0.0915933 0
M  V30 10887 N 1025.8 -0.366053 -1.5329 0
M  V30 10888 C 1026.71 0.488111 -2.29466 0
M  V30 10889 C 1027.73 1.09219 -1.35452 0
M  V30 10890 O 1028.9 1.10303 -1.68509 0
M  V30 10891 C 1025.97 1.61202 -3.06944 0
M  V30 10892 C 1025.03 1.03543 -4.16626 0
M  V30 10893 C 1024.26 2.10578 -4.904 0
M  V30 10894 O 1024.49 3.31697 -4.6404 0
M  V30 10895 O 1023.42 1.73609 -5.76319 0
M  V30 10896 H 1027.25 -0.131789 -3.03414 0
M  V30 10897 H 1024.83 -0.130421 -1.4883 0
M  V30 10898 H 1026.71 2.26546 -3.55324 0
M  V30 10899 H 1025.39 2.21732 -2.35832 0
M  V30 10900 H 1024.29 0.345892 -3.72498 0
M  V30 10901 H 1025.63 0.474687 -4.89906 0
M  V30 10902 N 1027.28 1.57312 -0.0952337 0
M  V30 10903 C 1028.23 2.14032 0.863657 0
M  V30 10904 C 1029.2 1.0589 1.27971 0
M  V30 10905 O 1030.38 1.33678 1.36143 0
M  V30 10906 C 1027.52 2.72513 2.11733 0
M  V30 10907 C 1026.63 3.94887 1.7518 0
M  V30 10908 C 1025.77 4.41533 2.95334 0
M  V30 10909 C 1024.81 5.56496 2.54908 0
M  V30 10910 N 1023.95 5.97993 3.67897 0
M  V30 10911 H 1028.79 2.95655 0.373115 0
M  V30 10912 H 1026.32 1.46085 0.172497 0
M  V30 10913 H 1028.28 3.04539 2.85153 0
M  V30 10914 H 1026.91 1.93618 2.58287 0
M  V30 10915 H 1025.96 3.69175 0.917279 0
M  V30 10916 H 1027.27 4.78322 1.41455 0
M  V30 10917 H 1026.43 4.75343 3.77007 0
M  V30 10918 H 1025.17 3.56999 3.3227 0
M  V30 10919 H 1024.17 5.22314 1.71662 0
M  V30 10920 H 1025.4 6.42779 2.19117 0
M  V30 10921 H 1023.34 5.16405 4.04551 0
M  V30 10922 H 1023.26 6.76225 3.38018 0
M  V30 10923 H 1024.53 6.36434 4.5008 0
M  V30 10924 N 1028.76 -0.17846 1.56586 0
M  V30 10925 C 1030.01 -0.894464 1.81228 0
M  V30 10926 C 1030.33 -1.83089 0.671062 0
M  V30 10927 O 1029.6 -1.93439 -0.309557 0
M  V30 10928 H 1028.18 -0.333288 0.668527 0
M  V30 10929 H 1030.84 -0.179986 1.94067 0
M  V30 10930 H 1029.93 -1.47565 2.75011 0
M  V30 10931 N 1030.24 -1.51135 -0.446768 0
M  V30 10932 C 1031.65 -1.55919 -1.02694 0
M  V30 10933 C 1032 -0.377038 -1.92543 0
M  V30 10934 O 1031.12 0.507295 -2.1037 0
M  V30 10935 C 1031.72 -2.8257 -1.86922 0
M  V30 10936 C 1030.28 -2.89956 -2.40005 0
M  V30 10937 C 1029.42 -2.50482 -1.18971 0
M  V30 10938 H 1032.37 -1.57048 -0.228403 0
M  V30 10939 H 1032.4 -2.65799 -2.7227 0
M  V30 10940 H 1031.91 -3.6859 -1.21502 0
M  V30 10941 H 1030.01 -2.08343 -3.08907 0
M  V30 10942 H 1030.12 -3.93399 -2.73448 0
M  V30 10943 H 1028.49 -2.03466 -1.53211 0
M  V30 10944 H 1029.27 -3.38837 -0.551762 0
M  V30 10945 N 1031.71 0.701592 -1.41122 0
M  V30 10946 C 1032.95 1.4739 -1.41618 0
M  V30 10947 C 1033.32 1.91987 -0.0219443 0
M  V30 10948 O 1034.52 2.6862 0.0982793 0
M  V30 10949 C 1032.79 2.65745 -2.38986 0
M  V30 10950 S 1034.35 3.54968 -2.5796 0
M  V30 10951 H 1031.17 0.503742 -0.501762 0
M  V30 10952 H 1033.77 0.819186 -1.77509 0
M  V30 10953 H 1032.47 2.31176 -3.39096 0
M  V30 10954 H 1032 3.36115 -2.04426 0
M  V30 10955 H 1034.02 4.60724 -1.84249 0
M  V30 10956 N 1033.19 1.2685 0.935242 0
M  V30 10957 C 1034.43 1.13972 1.69675 0
M  V30 10958 C 1034.8 -0.310655 1.8947 0
M  V30 10959 O 1036 -0.561692 2.62866 0
M  V30 10960 C 1034.27 1.89387 3.03096 0
M  V30 10961 S 1035.83 1.92633 3.94256 0
M  V30 10962 H 1032.64 0.407009 0.582979 0
M  V30 10963 H 1035.25 1.60653 1.11404 0
M  V30 10964 H 1033.95 2.9397 2.86374 0
M  V30 10965 H 1033.48 1.43171 3.66423 0
M  V30 10966 H 1035.5 1.01732 4.85659 0
M  V30 10967 N 1034.67 -1.14067 1.0875 0
M  V30 10968 C 1035.63 -2.17453 0.724341 0
M  V30 10969 C 1036.63 -1.58959 -0.242614 0
M  V30 10970 O 1037.82 -1.74186 -0.0217008 0
M  V30 10971 C 1034.96 -3.40828 0.0700236 0
M  V30 10972 H 1036.15 -2.51094 1.63987 0
M  V30 10973 H 1033.7 -1.28775 0.885813 0
M  V30 10974 H 1034.44 -3.1277 -0.857061 0
M  V30 10975 H 1034.22 -3.84551 0.76569 0
M  V30 10976 H 1035.71 -4.17258 -0.168905 0
M  V30 10977 N 1036.15 -0.873678 -1.31166 0
M  V30 10978 C 1037.39 -0.493006 -1.98365 0
M  V30 10979 C 1037.75 0.937973 -1.67529 0
M  V30 10980 O 1038.95 1.42419 -2.2797 0
M  V30 10981 C 1037.22 -0.747128 -3.49504 0
M  V30 10982 S 1038.78 -0.466869 -4.36309 0
M  V30 10983 H 1035.6 -0.183882 -0.68681 0
M  V30 10984 H 1038.2 -1.13051 -1.59499 0
M  V30 10985 H 1036.91 -1.78731 -3.69437 0
M  V30 10986 H 1036.44 -0.096761 -3.93281 0
M  V30 10987 H 1038.45 0.699298 -4.91248 0
M  V30 10988 N 1037.63 1.44308 -0.633487 0
M  V30 10989 C 1039.04 1.85387 -0.221009 0
M  V30 10990 C 1039.39 1.5301 1.22811 0
M  V30 10991 O 1038.51 0.969325 1.93476 0
M  V30 10992 C 1039.11 3.36497 -0.394331 0
M  V30 10993 C 1037.67 3.76382 -0.0363405 0
M  V30 10994 C 1036.81 2.68146 -0.706598 0
M  V30 10995 H 1039.77 1.34741 -0.83849 0
M  V30 10996 H 1039.79 3.78735 0.366026 0
M  V30 10997 H 1039.3 3.60031 -1.44911 0
M  V30 10998 H 1037.4 3.58463 1.01661 0
M  V30 10999 H 1037.51 4.77 -0.448045 0
M  V30 11000 H 1035.88 2.54306 -0.14168 0
M  V30 11001 H 1036.66 2.94512 -1.76401 0
M  V30 11002 N 1039.1 0.374177 1.53094 0
M  V30 11003 C 1040.05 -0.468226 2.26001 0
M  V30 11004 C 1041.02 -1.07041 1.27009 0
M  V30 11005 O 1042.21 -1.10129 1.55809 0
M  V30 11006 C 1039.35 -1.59754 3.05896 0
M  V30 11007 C 1038.46 -1.01969 4.19793 0
M  V30 11008 C 1037.59 -2.11882 4.87113 0
M  V30 11009 C 1036.63 -1.51607 5.93028 0
M  V30 11010 N 1035.77 -2.55388 6.54004 0
M  V30 11011 H 1040.61 0.159983 2.9757 0
M  V30 11012 H 1038.15 0.0907196 1.4682 0
M  V30 11013 H 1040.11 -2.26288 3.50499 0
M  V30 11014 H 1038.74 -2.19628 2.36565 0
M  V30 11015 H 1037.79 -0.244386 3.79614 0
M  V30 11016 H 1039.1 -0.539089 4.95878 0
M  V30 11017 H 1038.25 -2.86218 5.34943 0
M  V30 11018 H 1036.99 -2.63297 4.10519 0
M  V30 11019 H 1036 -0.757891 5.44551 0
M  V30 11020 H 1037.22 -1.01006 6.71546 0
M  V30 11021 H 1035.17 -3.06 5.80258 0
M  V30 11022 H 1035.09 -2.12039 7.25655 0
M  V30 11023 H 1036.35 -3.294 7.06481 0
M  V30 11024 N 1040.58 -1.57259 0.103575 0
M  V30 11025 C 1041.81 -1.99 -0.566275 0
M  V30 11026 C 1042.23 -0.982909 -1.61197 0
M  V30 11027 O 1041.58 0.026345 -1.82481 0
M  V30 11028 C 1041.63 -3.40778 -1.20635 0
M  V30 11029 O 1041.35 -4.37632 -0.202472 0
M  V30 11030 C 1042.86 -3.97567 -1.961 0
M  V30 11031 H 1040.08 -0.653751 -0.151164 0
M  V30 11032 H 1042.62 -2.03658 0.185365 0
M  V30 11033 H 1040.77 -3.37107 -1.90886 0
M  V30 11034 H 1041.19 -5.2026 -0.665535 0
M  V30 11035 H 1042.66 -4.98897 -2.36233 0
M  V30 11036 H 1043.14 -3.35853 -2.83018 0
M  V30 11037 H 1043.75 -4.04737 -1.30645 0
M  V30 11038 N 1042.06 0.170153 -1.56679 0
M  V30 11039 C 1042.97 1.23057 -1.99735 0
M  V30 11040 C 1043.99 1.48374 -0.908912 0
M  V30 11041 O 1045.16 1.60499 -1.21663 0
M  V30 11042 C 1042.23 2.54944 -2.34956 0
M  V30 11043 C 1041.29 2.3748 -3.57634 0
M  V30 11044 C 1040.52 3.63078 -3.91165 0
M  V30 11045 O 1040.74 4.68304 -3.2565 0
M  V30 11046 O 1039.68 3.57119 -4.8451 0
M  V30 11047 H 1043.5 0.895104 -2.9021 0
M  V30 11048 H 1041.09 0.377109 -1.44562 0
M  V30 11049 H 1042.97 3.32742 -2.58574 0
M  V30 11050 H 1041.65 2.88068 -1.47643 0
M  V30 11051 H 1040.55 1.57709 -3.39232 0
M  V30 11052 H 1041.89 2.0928 -4.45491 0
M  V30 11053 N 1043.54 1.5137 0.438746 0
M  V30 11054 C 1044.5 1.71993 1.51496 0
M  V30 11055 C 1045.5 0.589978 1.49586 0
M  V30 11056 O 1046.69 0.857505 1.51633 0
M  V30 11057 C 1043.82 1.77508 2.91039 0
M  V30 11058 H 1045.02 2.68041 1.34514 0
M  V30 11059 H 1042.57 1.41338 0.667326 0
M  V30 11060 H 1043.3 0.832698 3.13427 0
M  V30 11061 H 1043.09 2.59627 2.9383 0
M  V30 11062 H 1044.58 1.95308 3.69113 0
M  V30 11063 N 1045.02 -0.694098 1.41492 0
M  V30 11064 C 1045.93 -1.83778 1.45818 0
M  V30 11065 C 1046.94 -1.70471 0.348639 0
M  V30 11066 O 1048.12 -1.92361 0.596588 0
M  V30 11067 C 1045.18 -3.19771 1.33967 0
M  V30 11068 C 1044.24 -3.45175 2.5525 0
M  V30 11069 C 1043.48 -4.74681 2.43955 0
M  V30 11070 O 1043.7 -5.51268 1.46491 0
M  V30 11071 O 1042.63 -5.00901 3.33739 0
M  V30 11072 H 1046.46 -1.83084 2.42309 0
M  V30 11073 H 1044.05 -0.847349 1.23046 0
M  V30 11074 H 1045.93 -4.00961 1.29648 0
M  V30 11075 H 1044.6 -3.21145 0.405926 0
M  V30 11076 H 1043.51 -2.6391 2.65146 0
M  V30 11077 H 1044.84 -3.48617 3.47458 0
M  V30 11078 N 1046.49 -1.27344 -0.928501 0
M  V30 11079 C 1047.44 -1.10001 -2.029 0
M  V30 11080 C 1048.41 -0.00131084 -1.661 0
M  V30 11081 O 1049.6 -0.163485 -1.90098 0
M  V30 11082 C 1046.74 -0.7524 -3.36798 0
M  V30 11083 C 1045.85 -1.92865 -3.86558 0
M  V30 11084 C 1044.98 -1.52299 -5.08899 0
M  V30 11085 C 1044.02 -2.66677 -5.50953 0
M  V30 11086 N 1043.16 -2.26706 -6.64491 0
M  V30 11087 H 1048 -2.0417 -2.17068 0
M  V30 11088 H 1045.54 -1.01637 -1.0634 0
M  V30 11089 H 1047.5 -0.531687 -4.13798 0
M  V30 11090 H 1046.13 0.15234 -3.2244 0
M  V30 11091 H 1045.18 -2.26192 -3.05845 0
M  V30 11092 H 1046.49 -2.78668 -4.13698 0
M  V30 11093 H 1045.64 -1.26348 -5.93398 0
M  V30 11094 H 1044.38 -0.636042 -4.83535 0
M  V30 11095 H 1043.39 -2.93344 -4.65004 0
M  V30 11096 H 1044.61 -3.55992 -5.78313 0
M  V30 11097 H 1042.56 -1.40462 -6.40786 0
M  V30 11098 H 1042.48 -3.06049 -6.91281 0
M  V30 11099 H 1043.74 -2.04 -7.52333 0
M  V30 11100 N 1047.97 1.13488 -1.09353 0
M  V30 11101 C 1048.9 2.18563 -0.69012 0
M  V30 11102 C 1049.92 1.60585 0.267651 0
M  V30 11103 O 1051.11 1.78419 0.0538176 0
M  V30 11104 C 1048.21 3.389 0.00391255 0
M  V30 11105 C 1047.38 4.2639 -0.975209 0
M  V30 11106 C 1046.44 5.25258 -0.314719 0
M  V30 11107 O 1045.46 5.6101 -0.962119 0
M  V30 11108 N 1046.67 5.72978 0.931458 0
M  V30 11109 H 1049.43 2.53788 -1.59411 0
M  V30 11110 H 1046.99 1.28803 -0.980886 0
M  V30 11111 H 1048.98 4.02112 0.45696 0
M  V30 11112 H 1047.55 3.0192 0.81014 0
M  V30 11113 H 1046.77 3.59964 -1.60684 0
M  V30 11114 H 1048.06 4.817 -1.63836 0
M  V30 11115 H 1047.46 5.46078 1.477 0
M  V30 11116 H 1046.02 6.38131 1.32784 0
M  V30 11117 N 1049.45 0.880621 1.30701 0
M  V30 11118 C 1050.41 0.349087 2.26526 0
M  V30 11119 C 1051.41 -0.505973 1.52632 0
M  V30 11120 O 1052.6 -0.313751 1.71351 0
M  V30 11121 C 1049.74 -0.503023 3.37168 0
M  V30 11122 H 1050.93 1.19516 2.75056 0
M  V30 11123 H 1048.48 0.657107 1.41816 0
M  V30 11124 H 1049.22 -1.36986 2.93948 0
M  V30 11125 H 1049 0.109389 3.91947 0
M  V30 11126 H 1050.49 -0.866845 4.08504 0
M  V30 11127 N 1050.93 -1.4397 0.641131 0
M  V30 11128 C 1051.84 -2.34526 -0.058742 0
M  V30 11129 C 1052.86 -1.53194 -0.825088 0
M  V30 11130 O 1054.03 -1.85888 -0.775081 0
M  V30 11131 C 1051.1 -3.31313 -1.02139 0
M  V30 11132 C 1050.16 -4.28552 -0.253319 0
M  V30 11133 C 1049.39 -5.20715 -1.17012 0
M  V30 11134 O 1049.61 -5.17028 -2.40911 0
M  V30 11135 O 1048.55 -5.9839 -0.649039 0
M  V30 11136 H 1052.37 -2.95843 0.686329 0
M  V30 11137 H 1049.96 -1.43909 0.401316 0
M  V30 11138 H 1051.84 -3.90862 -1.57496 0
M  V30 11139 H 1050.52 -2.72516 -1.7469 0
M  V30 11140 H 1049.42 -3.72519 0.343531 0
M  V30 11141 H 1050.76 -4.90297 0.432372 0
M  V30 11142 N 1052.41 -0.382291 -1.52893 0
M  V30 11143 C 1053.35 0.456234 -2.26246 0
M  V30 11144 C 1054.32 1.06366 -1.27575 0
M  V30 11145 O 1055.51 1.09301 -1.5639 0
M  V30 11146 C 1052.65 1.5813 -3.06739 0
M  V30 11147 C 1051.76 0.997416 -4.20328 0
M  V30 11148 C 1050.9 2.09296 -4.8823 0
M  V30 11149 C 1049.94 1.4846 -5.93823 0
M  V30 11150 N 1049.07 2.51916 -6.55349 0
M  V30 11151 H 1053.91 -0.175761 -2.97481 0
M  V30 11152 H 1051.45 -0.0985046 -1.4677 0
M  V30 11153 H 1053.41 2.24426 -3.51694 0
M  V30 11154 H 1052.04 2.18371 -2.37727 0
M  V30 11155 H 1051.09 0.224251 -3.79738 0
M  V30 11156 H 1052.4 0.512784 -4.96157 0
M  V30 11157 H 1051.56 2.83377 -5.36453 0
M  V30 11158 H 1050.3 2.61116 -4.1191 0
M  V30 11159 H 1049.3 0.729001 -5.44946 0
M  V30 11160 H 1050.53 0.97443 -6.72073 0
M  V30 11161 H 1048.47 3.02919 -5.81873 0
M  V30 11162 H 1048.39 2.08188 -7.26769 0
M  V30 11163 H 1049.66 3.25649 -7.08218 0
M  V30 11164 N 1053.89 1.57202 -0.111913 0
M  V30 11165 C 1054.8 2.18475 0.854753 0
M  V30 11166 C 1055.81 1.15888 1.29792 0
M  V30 11167 O 1056.99 1.48329 1.36237 0
M  V30 11168 C 1054.05 2.76645 2.0897 0
M  V30 11169 C 1053.11 3.94244 1.69913 0
M  V30 11170 C 1052.35 4.49631 2.8752 0
M  V30 11171 O 1052.57 4.03926 4.02741 0
M  V30 11172 O 1051.5 5.40417 2.65015 0
M  V30 11173 H 1055.33 3.01519 0.363352 0
M  V30 11174 H 1052.91 1.4897 0.113329 0
M  V30 11175 H 1054.8 3.13755 2.81311 0
M  V30 11176 H 1053.47 1.96637 2.5713 0
M  V30 11177 H 1052.38 3.61915 0.947013 0
M  V30 11178 H 1053.71 4.75666 1.26501 0
M  V30 11179 N 1055.36 -0.161842 1.56767 0
M  V30 11180 C 1056.27 -1.21996 2.00385 0
M  V30 11181 C 1057.29 -1.4789 0.916768 0
M  V30 11182 O 1058.47 -1.59852 1.22513 0
M  V30 11183 C 1055.53 -2.53695 2.36305 0
M  V30 11184 C 1054.59 -2.3558 3.58888 0
M  V30 11185 C 1053.82 -3.60998 3.93085 0
M  V30 11186 O 1054.05 -4.6657 3.28129 0
M  V30 11187 O 1052.98 -3.54544 4.86397 0
M  V30 11188 H 1056.81 -0.879701 2.9068 0
M  V30 11189 H 1054.39 -0.369437 1.4476 0
M  V30 11190 H 1056.27 -3.31366 2.60335 0
M  V30 11191 H 1054.95 -2.87281 1.49169 0
M  V30 11192 H 1053.86 -1.55908 3.40064 0
M  V30 11193 H 1055.19 -2.06915 4.46595 0
M  V30 11194 N 1056.84 -1.516 -0.430713 0
M  V30 11195 C 1057.8 -1.72794 -1.50582 0
M  V30 11196 C 1058.8 -0.597903 -1.49271 0
M  V30 11197 O 1059.99 -0.865535 -1.51176 0
M  V30 11198 C 1057.13 -1.79049 -2.90093 0
M  V30 11199 H 1058.32 -2.68751 -1.33091 0
M  V30 11200 H 1055.87 -1.4169 -0.659822 0
M  V30 11201 H 1056.61 -0.849309 -3.12981 0
M  V30 11202 H 1056.39 -2.61181 -2.92449 0
M  V30 11203 H 1057.88 -1.97262 -3.68072 0
M  V30 11204 N 1058.32 0.686584 -1.41858 0
M  V30 11205 C 1059.23 1.83002 -1.46791 0
M  V30 11206 C 1060.25 1.70284 -0.357675 0
M  V30 11207 O 1061.42 1.92042 -0.606781 0
M  V30 11208 C 1058.49 3.19056 -1.35661 0
M  V30 11209 C 1057.55 3.43817 -2.57077 0
M  V30 11210 C 1056.78 4.7338 -2.46469 0
M  V30 11211 O 1057 5.50483 -1.49413 0
M  V30 11212 O 1055.94 4.99124 -3.36391 0
M  V30 11213 H 1059.76 1.81797 -2.43277 0
M  V30 11214 H 1057.35 0.840812 -1.23494 0
M  V30 11215 H 1059.23 4.00267 -1.31773 0
M  V30 11216 H 1057.91 3.20925 -0.422951 0
M  V30 11217 H 1056.81 2.625 -2.66541 0
M  V30 11218 H 1058.15 3.4677 -3.49302 0
M  V30 11219 N 1059.8 1.27835 0.921735 0
M  V30 11220 C 1061.03 1.17182 1.70153 0
M  V30 11221 C 1061.44 -0.273207 1.87217 0
M  V30 11222 O 1060.78 -1.19729 1.39322 0
M  V30 11223 C 1060.84 1.78969 3.11786 0
M  V30 11224 C 1060.5 3.28179 3.18037 0
M  V30 11225 C 1061.5 4.24729 2.99835 0
M  V30 11226 C 1059.19 3.68995 3.40805 0
M  V30 11227 C 1061.18 5.60071 3.04301 0
M  V30 11228 C 1058.87 5.04465 3.44904 0
M  V30 11229 C 1059.87 5.99813 3.2667 0
M  V30 11230 O 1059.55 7.32813 3.30515 0
M  V30 11231 H 1059.29 0.408079 0.538932 0
M  V30 11232 H 1061.84 1.69326 1.16266 0
M  V30 11233 H 1060.07 1.2131 3.6718 0
M  V30 11234 H 1061.76 1.62946 3.71757 0
M  V30 11235 H 1062.52 3.94533 2.8208 0
M  V30 11236 H 1058.4 2.9525 3.54045 0
M  V30 11237 H 1061.95 6.34471 2.89987 0
M  V30 11238 H 1057.84 5.34315 3.62185 0
M  V30 11239 H 1058.61 7.41338 3.4693 0
M  V30 11240 N 1061.28 -1.12907 1.09954 0
M  V30 11241 C 1062.69 -1.363 0.830326 0
M  V30 11242 C 1062.89 -1.93772 -0.552694 0
M  V30 11243 O 1061.95 -2.1607 -1.30652 0
M  V30 11244 C 1063.26 -2.30925 1.92598 0
M  V30 11245 C 1064.81 -2.44528 1.95385 0
M  V30 11246 C 1065.28 -3.42464 3.0411 0
M  V30 11247 N 1066.77 -3.50018 3.03384 0
M  V30 11248 C 1067.51 -4.25693 3.84152 0
M  V30 11249 N 1067.01 -5.04476 4.74843 0
M  V30 11250 N 1068.8 -4.21049 3.7239 0
M  V30 11251 H 1060.95 -0.739571 1.99108 0
M  V30 11252 H 1063.21 -0.387983 0.86497 0
M  V30 11253 H 1062.92 -1.95861 2.92115 0
M  V30 11254 H 1062.79 -3.30997 1.80889 0
M  V30 11255 H 1065.18 -2.78875 0.965037 0
M  V30 11256 H 1065.26 -1.44361 2.11172 0
M  V30 11257 H 1064.9 -3.08847 4.03207 0
M  V30 11258 H 1064.83 -4.42448 2.85565 0
M  V30 11259 H 1067.33 -2.93809 2.37665 0
M  V30 11260 H 1067.64 -5.59541 5.33042 0
M  V30 11261 H 1065.98 -5.0369 4.78875 0
M  V30 11262 H 1069.17 -3.5858 3.00895 0
M  V30 11263 H 1069.35 -4.79771 4.35572 0
M  V30 11264 N 1062.75 -0.88754 -1.30232 0
M  V30 11265 C 1063.7 -0.354497 -2.28061 0
M  V30 11266 C 1064.67 0.556732 -1.56492 0
M  V30 11267 O 1065.86 0.484597 -1.84543 0
M  V30 11268 C 1063 0.422701 -3.42501 0
M  V30 11269 C 1062.11 -0.518036 -4.28883 0
M  V30 11270 C 1061.24 0.275011 -5.30488 0
M  V30 11271 C 1060.28 -0.661032 -6.0852 0
M  V30 11272 N 1059.42 0.0968509 -7.02033 0
M  V30 11273 H 1064.26 -1.19388 -2.73039 0
M  V30 11274 H 1061.8 -0.600091 -1.34303 0
M  V30 11275 H 1063.75 0.889249 -4.07613 0
M  V30 11276 H 1062.38 1.22664 -2.98586 0
M  V30 11277 H 1061.44 -1.10308 -3.64055 0
M  V30 11278 H 1062.75 -1.23504 -4.83268 0
M  V30 11279 H 1061.9 0.803301 -6.01358 0
M  V30 11280 H 1060.64 1.02522 -4.76802 0
M  V30 11281 H 1059.65 -1.20093 -5.36524 0
M  V30 11282 H 1060.87 -1.41037 -6.64293 0
M  V30 11283 H 1058.82 0.829548 -6.50734 0
M  V30 11284 H 1058.73 -0.560476 -7.5392 0
M  V30 11285 H 1060 0.6058 -7.77142 0
M  V30 11286 N 1064.23 1.43628 -0.648757 0
M  V30 11287 C 1065.48 2.02163 -0.160574 0
M  V30 11288 C 1065.81 1.51037 1.22072 0
M  V30 11289 O 1065.09 0.701633 1.81404 0
M  V30 11290 C 1065.37 3.59715 -0.166528 0
M  V30 11291 C 1065.22 4.21083 -1.58142 0
M  V30 11292 C 1066.54 4.37256 0.499485 0
M  V30 11293 H 1063.66 0.734568 -0.0598238 0
M  V30 11294 H 1066.3 1.70981 -0.828592 0
M  V30 11295 H 1064.45 3.86411 0.402302 0
M  V30 11296 H 1066.12 4.05433 -2.2005 0
M  V30 11297 H 1064.37 3.77904 -2.13005 0
M  V30 11298 H 1065.04 5.30156 -1.53748 0
M  V30 11299 H 1067.51 4.16097 0.0155561 0
M  V30 11300 H 1066.39 5.4693 0.464574 0
M  V30 11301 H 1066.65 4.13175 1.57286 0
M  V30 11302 N 1065.71 0.390394 1.52688 0
M  V30 11303 C 1066.96 -0.191445 2.01593 0
M  V30 11304 C 1067.29 -1.46723 1.27681 0
M  V30 11305 O 1066.54 -1.92248 0.365972 0
M  V30 11306 C 1066.84 -0.50468 3.53819 0
M  V30 11307 C 1066.51 0.679691 4.45748 0
M  V30 11308 C 1065.17 1.0046 4.70597 0
M  V30 11309 C 1067.52 1.47198 4.99982 0
M  V30 11310 C 1064.85 2.12334 5.46929 0
M  V30 11311 C 1067.2 2.58133 5.77538 0
M  V30 11312 C 1065.86 2.91131 6.00665 0
M  V30 11313 H 1065.13 -0.0700548 0.737681 0
M  V30 11314 H 1067.78 0.527965 1.84078 0
M  V30 11315 H 1066.09 -1.30543 3.69413 0
M  V30 11316 H 1067.78 -0.967524 3.89153 0
M  V30 11317 H 1064.37 0.416446 4.26572 0
M  V30 11318 H 1068.56 1.2342 4.80709 0
M  V30 11319 H 1063.81 2.38269 5.63061 0
M  V30 11320 H 1067.99 3.19925 6.18564 0
M  V30 11321 H 1065.61 3.77938 6.59596 0
M  V30 11322 N 1067.19 -1.57141 0.120249 0
M  V30 11323 C 1068.1 -2.18925 -0.843155 0
M  V30 11324 C 1069.11 -1.16575 -1.29175 0
M  V30 11325 O 1070.29 -1.4905 -1.35448 0
M  V30 11326 C 1067.36 -2.7775 -2.075 0
M  V30 11327 C 1066.42 -3.95139 -1.6782 0
M  V30 11328 C 1065.65 -4.51149 -2.85132 0
M  V30 11329 O 1065.87 -4.06056 -4.00593 0
M  V30 11330 O 1064.81 -5.41815 -2.62145 0
M  V30 11331 H 1068.63 -3.01707 -0.347357 0
M  V30 11332 H 1066.22 -1.49028 -0.105427 0
M  V30 11333 H 1068.1 -3.15243 -2.79643 0
M  V30 11334 H 1066.77 -1.97998 -2.56083 0
M  V30 11335 H 1065.68 -3.62412 -0.927807 0
M  V30 11336 H 1067.01 -4.7633 -1.23977 0
M  V30 11337 N 1068.67 0.153526 -1.5685 0
M  V30 11338 C 1069.61 1.20896 -1.98713 0
M  V30 11339 C 1070.61 1.44839 -0.878529 0
M  V30 11340 O 1071.81 1.45208 -1.0637 0
M  V30 11341 H 1068.19 0.406797 -0.632472 0
M  V30 11342 H 1070.16 0.829145 -2.86649 0
M  V30 11343 C 1068.91 2.53642 -2.37825 0
M  V30 11344 H 1068.23 2.36047 -3.22679 0
M  V30 11345 H 1069.67 3.26136 -2.70946 0
M  V30 11346 C 1068.13 3.13706 -1.22841 0
M  V30 11347 O 1068.66 3.98246 -0.525626 0
M  V30 11348 N 1066.87 2.73059 -0.99435 0
M  V30 11349 H 1066.41 2.0441 -1.56761 0
M  V30 11350 H 1066.37 3.1358 -0.226883 0
M  V30 11351 N 1070.14 1.51827 0.422667 0
M  V30 11352 C 1071.39 1.6522 1.17084 0
M  V30 11353 C 1071.72 0.375508 1.90841 0
M  V30 11354 O 1070.97 -0.641029 1.84903 0
M  V30 11355 C 1071.27 2.81572 2.20119 0
M  V30 11356 C 1070.94 4.20303 1.63268 0
M  V30 11357 C 1069.6 4.5804 1.47488 0
M  V30 11358 C 1071.95 5.06812 1.21618 0
M  V30 11359 C 1069.28 5.79979 0.885531 0
M  V30 11360 C 1071.63 6.29343 0.641071 0
M  V30 11361 C 1070.3 6.65841 0.470286 0
M  V30 11362 H 1069.57 0.604581 0.428442 0
M  V30 11363 H 1072.21 1.85896 0.459874 0
M  V30 11364 H 1070.52 2.55175 2.97309 0
M  V30 11365 H 1072.22 2.89132 2.77856 0
M  V30 11366 H 1068.81 3.90557 1.76531 0
M  V30 11367 H 1072.99 4.78251 1.32624 0
M  V30 11368 H 1068.25 6.06892 0.741105 0
M  V30 11369 H 1072.42 6.9571 0.309888 0
M  V30 11370 H 1070.05 7.60199 0.0115038 0
M  V30 11371 N 1071.62 -0.679052 1.4222 0
M  V30 11372 C 1072.55 -1.80481 1.48152 0
M  V30 11373 C 1073.53 -1.66698 0.338502 0
M  V30 11374 O 1074.72 -1.86183 0.552228 0
M  V30 11375 C 1071.85 -3.18746 1.37908 0
M  V30 11376 C 1070.8 -3.47258 2.50192 0
M  V30 11377 C 1070.13 -4.85052 2.25008 0
M  V30 11378 C 1071.43 -3.44576 3.92511 0
M  V30 11379 H 1073.12 -1.75774 2.42371 0
M  V30 11380 H 1070.67 -0.844241 1.16656 0
M  V30 11381 H 1072.62 -3.97229 1.40666 0
M  V30 11382 H 1071.35 -3.24119 0.401806 0
M  V30 11383 H 1070 -2.71133 2.46744 0
M  V30 11384 H 1069.65 -4.8707 1.25584 0
M  V30 11385 H 1069.35 -5.05092 3.00259 0
M  V30 11386 H 1070.88 -5.65825 2.29508 0
M  V30 11387 H 1072.29 -4.13036 3.97585 0
M  V30 11388 H 1070.69 -3.76151 4.67579 0
M  V30 11389 H 1071.76 -2.4323 4.19484 0
M  V30 11390 N 1073.1 -1.28322 -0.914942 0
M  V30 11391 C 1074.05 -1.08788 -2.00373 0
M  V30 11392 C 1075.03 -0.0118996 -1.60896 0
M  V30 11393 O 1076.23 -0.231902 -1.75474 0
M  V30 11394 C 1073.36 -0.750508 -3.34996 0
M  V30 11395 C 1072.44 -1.86527 -3.80879 0
M  V30 11396 N 1072.83 -3.10672 -3.99145 0
M  V30 11397 C 1071.13 -1.75485 -4.10026 0
M  V30 11398 C 1071.83 -3.833 -4.37557 0
M  V30 11399 N 1070.81 -3.11141 -4.45749 0
M  V30 11400 H 1074.61 -2.02984 -2.12544 0
M  V30 11401 H 1072.12 -1.19224 -1.1027 0
M  V30 11402 H 1074.12 -0.591644 -4.1268 0
M  V30 11403 H 1072.78 0.183696 -3.2418 0
M  V30 11404 H 1073.79 -3.46295 -3.85097 0
M  V30 11405 H 1070.47 -0.89234 -4.07852 0
M  V30 11406 H 1071.86 -4.90061 -4.59662 0
M  V30 11407 N 1074.58 1.12322 -1.10551 0
M  V30 11408 C 1075.53 2.20166 -0.750317 0
M  V30 11409 C 1076.52 1.67484 0.254066 0
M  V30 11410 O 1077.73 1.79637 0.114309 0
M  V30 11411 H 1074.1 0.717642 -0.22471 0
M  V30 11412 H 1076.07 2.47378 -1.66873 0
M  V30 11413 C 1074.82 3.47126 -0.199651 0
M  V30 11414 H 1074.14 3.88011 -0.963735 0
M  V30 11415 H 1075.58 4.23999 0.0108033 0
M  V30 11416 C 1074.04 3.19526 1.06792 0
M  V30 11417 O 1074.57 3.39368 2.14923 0
M  V30 11418 N 1072.78 2.73324 0.987032 0
M  V30 11419 H 1072.33 2.57378 0.106997 0
M  V30 11420 H 1072.28 2.55234 1.83584 0
M  V30 11421 N 1076.06 0.894434 1.2976 0
M  V30 11422 C 1077.28 0.5322 2.00455 0
M  V30 11423 C 1077.71 -0.874427 1.66539 0
M  V30 11424 O 1077.06 -1.58113 0.887129 0
M  V30 11425 C 1077.11 0.725264 3.53231 0
M  V30 11426 O 1076.22 -0.224612 4.11788 0
M  V30 11427 H 1075.56 0.208562 0.630395 0
M  V30 11428 H 1078.09 1.20458 1.65382 0
M  V30 11429 H 1078.1 0.627889 4.0314 0
M  V30 11430 H 1076.77 1.75079 3.77253 0
M  V30 11431 H 1075.35 -0.0801361 3.72814 0
M  V30 11432 N 1077.53 -1.43282 0.656365 0
M  V30 11433 C 1078.78 -2.00996 0.168354 0
M  V30 11434 C 1079.1 -1.52408 -1.22601 0
M  V30 11435 O 1080.3 -2.02417 -1.80941 0
M  V30 11436 C 1078.76 -3.5903 0.250161 0
M  V30 11437 C 1078.37 -4.1661 1.64742 0
M  V30 11438 C 1080.11 -4.24118 -0.180084 0
M  V30 11439 C 1078.02 -5.66948 1.68299 0
M  V30 11440 H 1076.95 -0.751674 0.0591769 0
M  V30 11441 H 1079.6 -1.64216 0.818859 0
M  V30 11442 H 1077.98 -3.93226 -0.467908 0
M  V30 11443 H 1079.15 -3.93908 2.3911 0
M  V30 11444 H 1077.47 -3.63905 2.02391 0
M  V30 11445 H 1080.07 -5.34419 -0.173401 0
M  V30 11446 H 1080.41 -3.98264 -1.21208 0
M  V30 11447 H 1080.94 -3.94816 0.486343 0
M  V30 11448 H 1077.68 -5.97573 2.69419 0
M  V30 11449 H 1077.2 -5.91697 0.98261 0
M  V30 11450 H 1078.88 -6.31041 1.42813 0
M  V30 11451 N 1079.01 -0.398486 -1.52479 0
M  V30 11452 C 1080.26 0.180752 -2.01692 0
M  V30 11453 C 1080.59 1.46044 -1.28457 0
M  V30 11454 O 1079.84 1.92051 -0.376162 0
M  V30 11455 C 1080.14 0.485909 -3.54081 0
M  V30 11456 C 1079.81 -0.703321 -4.45381 0
M  V30 11457 C 1078.47 -1.02955 -4.70057 0
M  V30 11458 C 1080.82 -1.49848 -4.99194 0
M  V30 11459 C 1078.15 -2.15231 -5.45795 0
M  V30 11460 C 1080.5 -2.61192 -5.76161 0
M  V30 11461 C 1079.17 -2.94313 -5.99113 0
M  V30 11462 H 1078.44 0.0661417 -0.738042 0
M  V30 11463 H 1081.08 -0.53772 -1.83796 0
M  V30 11464 H 1079.39 1.28582 -3.701 0
M  V30 11465 H 1081.09 0.946872 -3.89661 0
M  V30 11466 H 1077.68 -0.439062 -4.26345 0
M  V30 11467 H 1081.86 -1.25968 -4.80048 0
M  V30 11468 H 1077.12 -2.41252 -5.61789 0
M  V30 11469 H 1081.29 -3.23201 -6.16858 0
M  V30 11470 H 1078.92 -3.81431 -6.57583 0
M  V30 11471 N 1080.49 1.57075 -0.12858 0
M  V30 11472 C 1081.74 1.9581 0.527868 0
M  V30 11473 C 1082.07 1.01253 1.65715 0
M  V30 11474 O 1081.35 0.0514853 1.94432 0
M  V30 11475 C 1081.63 3.44406 1.05151 0
M  V30 11476 C 1081.48 4.49737 -0.0750113 0
M  V30 11477 C 1082.8 3.95069 1.9393 0
M  V30 11478 H 1079.92 0.711978 0.19041 0
M  V30 11479 H 1082.56 1.88879 -0.206081 0
M  V30 11480 H 1080.71 3.50443 1.67697 0
M  V30 11481 H 1082.38 4.55793 -0.710685 0
M  V30 11482 H 1080.63 4.27497 -0.736809 0
M  V30 11483 H 1081.3 5.50996 0.332779 0
M  V30 11484 H 1083.77 3.91395 1.41241 0
M  V30 11485 H 1082.65 4.99542 2.27484 0
M  V30 11486 H 1082.91 3.36329 2.86941 0
M  V30 11487 N 1081.97 -0.145205 1.5693 0
M  V30 11488 C 1083.38 -0.705089 1.72874 0
M  V30 11489 C 1083.73 -1.81577 0.743261 0
M  V30 11490 O 1082.86 -2.16214 -0.0897153 0
M  V30 11491 C 1083.45 -1.28578 3.13454 0
M  V30 11492 C 1082.01 -1.79221 3.30994 0
M  V30 11493 C 1081.16 -0.681392 2.68798 0
M  V30 11494 H 1084.11 0.0804798 1.58496 0
M  V30 11495 H 1084.13 -2.15558 3.13552 0
M  V30 11496 H 1083.64 -0.477186 3.85155 0
M  V30 11497 H 1081.74 -2.62642 2.64292 0
M  V30 11498 H 1081.86 -1.91969 4.38959 0
M  V30 11499 H 1080.22 -1.10847 2.29314 0
M  V30 11500 H 1081 0.115786 3.43105 0
M  V30 11501 N 1083.45 -1.52049 -0.414609 0
M  V30 11502 C 1084.86 -1.40729 -0.752822 0
M  V30 11503 C 1085.06 -0.507468 -1.95005 0
M  V30 11504 O 1084.12 0.0288189 -2.52484 0
M  V30 11505 C 1085.43 -2.83163 -1.01189 0
M  V30 11506 C 1086.98 -2.92469 -1.11494 0
M  V30 11507 C 1087.46 -4.35859 -1.4068 0
M  V30 11508 N 1088.95 -4.39069 -1.47557 0
M  V30 11509 C 1089.68 -5.47072 -1.71756 0
M  V30 11510 N 1089.18 -6.65201 -1.93595 0
M  V30 11511 N 1090.97 -5.3458 -1.73726 0
M  V30 11512 H 1083.12 -2.09089 0.373549 0
M  V30 11513 H 1085.38 -0.942188 0.104814 0
M  V30 11514 H 1085.09 -3.51104 -0.204609 0
M  V30 11515 H 1084.96 -3.23874 -1.93353 0
M  V30 11516 H 1087.35 -2.24711 -1.91282 0
M  V30 11517 H 1087.43 -2.55222 -0.171794 0
M  V30 11518 H 1087.08 -5.04174 -0.614119 0
M  V30 11519 H 1087.01 -4.70637 -2.36238 0
M  V30 11520 H 1089.5 -3.53913 -1.32491 0
M  V30 11521 H 1089.81 -7.43297 -2.11495 0
M  V30 11522 H 1088.16 -6.68276 -1.90871 0
M  V30 11523 H 1091.35 -4.41271 -1.56198 0
M  V30 11524 H 1091.52 -6.18826 -1.92246 0
M  V30 11525 N 1084.93 0.6715 -1.42579 0
M  V30 11526 C 1086.34 1.2522 -1.38481 0
M  V30 11527 C 1086.69 1.96038 -0.079719 0
M  V30 11528 O 1085.81 2.00203 0.821441 0
M  V30 11529 C 1086.41 2.27736 -2.50842 0
M  V30 11530 C 1084.97 2.81325 -2.50067 0
M  V30 11531 C 1084.11 1.55694 -2.29466 0
M  V30 11532 H 1087.06 0.464673 -1.51745 0
M  V30 11533 H 1087.09 3.09539 -2.21283 0
M  V30 11534 H 1086.6 1.76164 -3.45815 0
M  V30 11535 H 1084.7 3.37008 -1.58922 0
M  V30 11536 H 1084.81 3.30116 -3.47218 0
M  V30 11537 H 1083.18 1.82383 -1.77788 0
M  V30 11538 H 1083.96 1.06084 -3.26498 0
M  V30 11539 N 1086.4 1.28806 0.908124 0
M  V30 11540 C 1087.31 1.15079 2.04436 0
M  V30 11541 C 1088.33 0.076012 1.73834 0
M  V30 11542 O 1089.51 0.286421 1.99353 0
M  V30 11543 C 1086.57 0.819733 3.3687 0
M  V30 11544 C 1085.63 1.97746 3.81045 0
M  V30 11545 C 1084.86 1.66211 5.07158 0
M  V30 11546 O 1085.09 0.579092 5.67453 0
M  V30 11547 O 1084.02 2.5075 5.47182 0
M  V30 11548 H 1087.85 2.10477 2.18937 0
M  V30 11549 H 1085.43 1.08177 1.03044 0
M  V30 11550 H 1087.31 0.649304 4.16368 0
M  V30 11551 H 1085.99 -0.10454 3.23531 0
M  V30 11552 H 1084.9 2.20308 3.02349 0
M  V30 11553 H 1086.23 2.88264 3.98955 0
M  V30 11554 N 1087.88 -1.11734 1.11145 0
M  V30 11555 C 1089.3 -1.35412 0.844736 0
M  V30 11556 C 1089.5 -1.94347 -0.532111 0
M  V30 11557 O 1088.55 -2.17443 -1.28353 0
M  V30 11558 C 1089.87 -2.28869 1.95037 0
M  V30 11559 C 1091.41 -2.42442 1.97967 0
M  V30 11560 C 1091.89 -3.39219 3.07725 0
M  V30 11561 N 1093.38 -3.4678 3.07079 0
M  V30 11562 C 1094.12 -4.21595 3.88646 0
M  V30 11563 N 1093.61 -4.99411 4.80167 0
M  V30 11564 N 1095.4 -4.17075 3.76835 0
M  V30 11565 H 1087.56 -0.718412 1.99881 0
M  V30 11566 H 1089.82 -0.378787 0.869037 0
M  V30 11567 H 1089.52 -1.92752 2.94176 0
M  V30 11568 H 1089.4 -3.2906 1.84389 0
M  V30 11569 H 1091.79 -2.77835 0.994561 0
M  V30 11570 H 1091.87 -1.42113 2.12691 0
M  V30 11571 H 1091.51 -3.04553 4.0646 0
M  V30 11572 H 1091.44 -4.39394 2.90242 0
M  V30 11573 H 1093.93 -2.91272 2.40767 0
M  V30 11574 H 1094.24 -5.53856 5.38946 0
M  V30 11575 H 1092.59 -4.98582 4.84191 0
M  V30 11576 H 1095.78 -3.55369 3.04681 0
M  V30 11577 H 1095.95 -4.75125 4.40637 0
M  V30 11578 N 1089.36 -0.901303 -1.29284 0
M  V30 11579 C 1090.31 -0.378666 -2.27672 0
M  V30 11580 C 1091.28 0.540102 -1.57074 0
M  V30 11581 O 1092.46 0.464997 -1.85047 0
M  V30 11582 C 1089.6 0.38635 -3.42931 0
M  V30 11583 C 1088.71 -0.563496 -4.28309 0
M  V30 11584 C 1087.85 0.218731 -5.30749 0
M  V30 11585 C 1086.89 -0.725536 -6.07785 0
M  V30 11586 N 1086.03 0.0223854 -7.02096 0
M  V30 11587 H 1090.87 -1.22277 -2.71758 0
M  V30 11588 H 1088.4 -0.614302 -1.33659 0
M  V30 11589 H 1090.36 0.845967 -4.08533 0
M  V30 11590 H 1088.99 1.1949 -2.9987 0
M  V30 11591 H 1088.04 -1.14163 -3.62865 0
M  V30 11592 H 1089.35 -1.28623 -4.81931 0
M  V30 11593 H 1088.51 0.739473 -6.02177 0
M  V30 11594 H 1087.25 0.97459 -4.77863 0
M  V30 11595 H 1086.25 -1.25776 -5.3522 0
M  V30 11596 H 1087.48 -1.48075 -6.6276 0
M  V30 11597 H 1085.42 0.760482 -6.51577 0
M  V30 11598 H 1085.34 -0.640408 -7.53283 0
M  V30 11599 H 1086.61 0.523339 -7.77741 0
M  V30 11600 N 1090.84 1.42931 -0.663954 0
M  V30 11601 C 1092.25 1.56098 -0.332496 0
M  V30 11602 C 1092.45 1.64564 1.16279 0
M  V30 11603 O 1091.51 1.6066 1.94794 0
M  V30 11604 C 1092.82 2.81649 -1.05329 0
M  V30 11605 C 1094.37 2.95408 -1.03457 0
M  V30 11606 C 1094.85 4.23805 -1.73647 0
M  V30 11607 N 1096.34 4.30693 -1.70462 0
M  V30 11608 C 1097.07 5.28833 -2.21637 0
M  V30 11609 N 1096.57 6.33189 -2.81147 0
M  V30 11610 N 1098.36 5.20558 -2.12075 0
M  V30 11611 H 1090.51 1.3568 -1.63416 0
M  V30 11612 H 1092.77 0.652361 -0.687844 0
M  V30 11613 H 1092.48 2.81494 -2.10842 0
M  V30 11614 H 1092.35 3.72208 -0.611626 0
M  V30 11615 H 1094.74 2.95097 0.0121936 0
M  V30 11616 H 1094.82 2.06109 -1.51502 0
M  V30 11617 H 1094.47 4.24876 -2.78285 0
M  V30 11618 H 1094.4 5.12019 -1.2306 0
M  V30 11619 H 1096.89 3.55904 -1.27046 0
M  V30 11620 H 1097.2 7.04411 -3.17844 0
M  V30 11621 H 1095.55 6.33781 -2.85212 0
M  V30 11622 H 1098.74 4.3795 -1.6528 0
M  V30 11623 H 1098.91 5.96881 -2.52264 0
M  V30 11624 N 1092.32 0.406567 1.52266 0
M  V30 11625 C 1093.73 0.0573228 1.59497 0
M  V30 11626 C 1093.93 -1.43005 1.41957 0
M  V30 11627 O 1092.99 -2.19659 1.24523 0
M  V30 11628 C 1094.3 0.549947 2.95628 0
M  V30 11629 C 1095.85 0.5077 3.08855 0
M  V30 11630 C 1096.32 0.976792 4.47463 0
M  V30 11631 N 1097.81 0.933508 4.53696 0
M  V30 11632 C 1098.55 1.26769 5.59211 0
M  V30 11633 N 1098.05 1.6732 6.72292 0
M  V30 11634 N 1099.84 1.18782 5.49406 0
M  V30 11635 H 1091.99 1.37468 1.61914 0
M  V30 11636 H 1094.25 0.564562 0.76156 0
M  V30 11637 H 1093.96 1.58943 3.13736 0
M  V30 11638 H 1093.83 -0.0417767 3.77177 0
M  V30 11639 H 1096.22 -0.522728 2.90433 0
M  V30 11640 H 1096.3 1.13545 2.29219 0
M  V30 11641 H 1095.94 2.00554 4.66627 0
M  V30 11642 H 1095.87 0.325885 5.25591 0
M  V30 11643 H 1098.37 0.635333 3.72521 0
M  V30 11644 H 1098.68 1.91137 7.4879 0
M  V30 11645 H 1097.02 1.71221 6.73579 0
M  V30 11646 H 1100.21 0.869906 4.59946 0
M  V30 11647 H 1100.39 1.45157 6.31533 0
M  V30 11648 N 1093.79 -1.57004 0.136909 0
M  V30 11649 C 1095.07 -1.87375 -0.561233 0
M  V30 11650 C 1095.45 -1.04117 -1.83638 0
M  V30 11651 O 1094.8 -0.125103 -2.28157 0
M  V30 11652 C 1095.01 -3.38829 -0.836426 0
M  V30 11653 C 1096.36 -4.07826 -1.18164 0
M  V30 11654 O 1097.38 -3.4395 -0.92611 0
M  V30 11655 O 1096.24 -5.20614 -1.66204 0
M  V30 11656 H 1093.33 -0.776287 -0.285145 0
M  V30 11657 H 1095.88 -1.68818 0.172761 0
M  V30 11658 H 1094.65 -3.91244 0.066442 0
M  V30 11659 H 1094.28 -3.62879 -1.62496 0
M  V30 11660 N 1095.27 0.136881 -1.57004 0
M  V30 11661 C 1096.52 0.849031 -1.84172 0
M  V30 11662 C 1096.85 1.80359 -0.720027 0
M  V30 11663 O 1096.13 1.92538 0.275584 0
M  V30 11664 C 1096.41 1.61465 -3.21871 0
M  V30 11665 C 1096.26 0.680902 -4.44616 0
M  V30 11666 C 1097.58 2.57488 -3.56914 0
M  V30 11667 H 1094.7 0.307209 -0.669919 0
M  V30 11668 H 1097.34 0.113862 -1.89659 0
M  V30 11669 H 1095.49 2.24137 -3.17325 0
M  V30 11670 H 1097.16 0.0644094 -4.61255 0
M  V30 11671 H 1095.41 -0.00883629 -4.33799 0
M  V30 11672 H 1096.08 1.25286 -5.37594 0
M  V30 11673 H 1098.55 2.0493 -3.62136 0
M  V30 11674 H 1097.43 3.08101 -4.54274 0
M  V30 11675 H 1097.69 3.39321 -2.83397 0
M  V30 11676 N 1096.75 1.52266 0.40654 0
M  V30 11677 C 1097.68 1.70519 1.51653 0
M  V30 11678 C 1098.66 0.552798 1.52915 0
M  V30 11679 O 1099.85 0.780468 1.71584 0
M  V30 11680 C 1096.97 1.74686 2.90176 0
M  V30 11681 C 1096.02 2.96255 3.06815 0
M  V30 11682 S 1096.85 4.56553 2.79856 0
M  V30 11683 C 1098.01 4.63511 4.20605 0
M  V30 11684 H 1098.24 2.64399 1.35942 0
M  V30 11685 H 1095.77 1.42337 0.598284 0
M  V30 11686 H 1097.73 1.77773 3.7001 0
M  V30 11687 H 1096.39 0.819291 3.03227 0
M  V30 11688 H 1095.59 2.95661 4.08167 0
M  V30 11689 H 1095.19 2.91069 2.34851 0
M  V30 11690 H 1097.48 4.41047 5.1428 0
M  V30 11691 H 1098.42 5.65456 4.26222 0
M  V30 11692 H 1098.83 3.92518 4.05697 0
M  V30 11693 N 1098.23 -0.663929 1.42933 0
M  V30 11694 C 1099.16 -1.78946 1.43217 0
M  V30 11695 C 1100.17 -1.59426 0.329727 0
M  V30 11696 O 1101.36 -1.68344 0.5935 0
M  V30 11697 C 1098.46 -3.16217 1.21902 0
M  V30 11698 C 1097.64 -3.6249 2.44785 0
M  V30 11699 C 1096.69 -4.78529 2.18853 0
M  V30 11700 O 1095.72 -4.88516 2.92131 0
M  V30 11701 N 1096.92 -5.67994 1.19845 0
M  V30 11702 H 1099.69 -1.79184 2.40236 0
M  V30 11703 H 1097.25 -0.847404 1.37952 0
M  V30 11704 H 1099.24 -3.91517 1.02454 0
M  V30 11705 H 1097.81 -3.10814 0.333676 0
M  V30 11706 H 1097.03 -2.77751 2.79729 0
M  V30 11707 H 1098.32 -3.90151 3.26588 0
M  V30 11708 H 1097.72 -5.62588 0.59259 0
M  V30 11709 H 1096.27 -6.4306 1.06382 0
M  V30 11710 N 1099.71 -1.29285 -0.901281 0
M  V30 11711 C 1100.95 -1.17339 -1.65407 0
M  V30 11712 C 1101.29 0.274834 -1.92245 0
M  V30 11713 O 1100.56 1.19865 -1.53176 0
M  V30 11714 C 1100.84 -1.98547 -3.00418 0
M  V30 11715 C 1100.7 -3.51501 -2.80655 0
M  V30 11716 C 1102.02 -1.81062 -4.01129 0
M  V30 11717 H 1099.13 -0.427624 -0.600255 0
M  V30 11718 H 1101.78 -1.58741 -1.0441 0
M  V30 11719 H 1099.93 -1.63366 -3.52482 0
M  V30 11720 H 1101.6 -3.96655 -2.35505 0
M  V30 11721 H 1099.84 -3.76504 -2.15469 0
M  V30 11722 H 1100.51 -4.03593 -3.76585 0
M  V30 11723 H 1102.99 -2.11788 -3.58169 0
M  V30 11724 H 1101.86 -2.40235 -4.93536 0
M  V30 11725 H 1102.13 -0.765388 -4.35424 0
M  V30 11726 N 1101.18 1.11143 -1.11736 0
M  V30 11727 C 1102.15 2.15456 -0.78174 0
M  V30 11728 C 1103.15 1.59547 0.200383 0
M  V30 11729 O 1104.34 1.74183 -0.0244893 0
M  V30 11730 C 1101.47 3.40523 -0.160364 0
M  V30 11731 H 1102.66 2.46658 -1.70586 0
M  V30 11732 H 1100.22 1.26381 -0.919644 0
M  V30 11733 H 1100.95 3.14932 0.773835 0
M  V30 11734 H 1100.74 3.82386 -0.867378 0
M  V30 11735 H 1102.23 4.17559 0.0582175 0
M  V30 11736 N 1102.66 0.908147 1.28804 0
M  V30 11737 C 1103.61 0.382315 2.29437 0
M  V30 11738 C 1104.6 -0.523033 1.61123 0
M  V30 11739 O 1105.81 -0.404898 1.75387 0
M  V30 11740 H 1102.19 0.105022 0.74463 0
M  V30 11741 H 1104.16 1.24425 2.71221 0
M  V30 11742 C 1102.91 -0.367475 3.45753 0
M  V30 11743 H 1102.23 0.319957 3.98518 0
M  V30 11744 H 1103.67 -0.700131 4.1818 0
M  V30 11745 C 1102.13 -1.57329 2.97908 0
M  V30 11746 O 1102.66 -2.67248 2.99902 0
M  V30 11747 N 1100.86 -1.41835 2.53636 0
M  V30 11748 H 1100.41 -0.524099 2.52212 0
M  V30 11749 H 1100.37 -2.22645 2.21984 0
M  V30 11750 N 1104.14 -1.42577 0.671525 0
M  V30 11751 C 1105.37 -2.05924 0.200731 0
M  V30 11752 C 1105.78 -1.50434 -1.14083 0
M  V30 11753 O 1105.14 -0.642845 -1.70803 0
M  V30 11754 C 1105.19 -3.61289 0.123505 0
M  V30 11755 O 1104.91 -4.1472 1.41205 0
M  V30 11756 C 1106.41 -4.41743 -0.371178 0
M  V30 11757 H 1103.63 -0.663746 0.0983958 0
M  V30 11758 H 1106.18 -1.82771 0.917338 0
M  V30 11759 H 1104.33 -3.83565 -0.543769 0
M  V30 11760 H 1104.75 -5.0856 1.28325 0
M  V30 11761 H 1106.22 -5.50731 -0.374128 0
M  V30 11762 H 1106.7 -4.16092 -1.40585 0
M  V30 11763 H 1107.3 -4.24478 0.264244 0
M  V30 11764 N 1105.62 -0.414636 -1.52048 0
M  V30 11765 C 1106.85 0.158686 -2.06291 0
M  V30 11766 C 1107.26 1.38397 -1.2842 0
M  V30 11767 O 1106.62 1.79351 -0.337539 0
M  V30 11768 C 1106.67 0.503634 -3.57975 0
M  V30 11769 O 1106.39 -0.672996 -4.329 0
M  V30 11770 C 1107.89 1.13009 -4.28653 0
M  V30 11771 H 1105.11 0.0179622 -0.67076 0
M  V30 11772 H 1107.66 -0.587177 -1.95889 0
M  V30 11773 H 1105.81 1.19939 -3.68366 0
M  V30 11774 H 1106.22 -0.383735 -5.23094 0
M  V30 11775 H 1107.7 1.32162 -5.35945 0
M  V30 11776 H 1108.18 2.10476 -3.85482 0
M  V30 11777 H 1108.78 0.474379 -4.22646 0
M  V30 11778 N 1107.1 1.56929 -0.145233 0
M  V30 11779 C 1108.03 2.12449 0.833107 0
M  V30 11780 C 1109.01 1.0476 1.24355 0
M  V30 11781 O 1110.19 1.32579 1.33997 0
M  V30 11782 C 1107.32 2.64274 2.11842 0
M  V30 11783 C 1106.36 3.84093 1.85404 0
M  V30 11784 S 1107.2 5.25172 1.04663 0
M  V30 11785 C 1108.35 5.80384 2.34318 0
M  V30 11786 H 1108.59 2.951 0.360969 0
M  V30 11787 H 1106.12 1.54246 0.0690187 0
M  V30 11788 H 1108.08 2.94783 2.8568 0
M  V30 11789 H 1106.74 1.81756 2.56171 0
M  V30 11790 H 1105.93 4.18593 2.80706 0
M  V30 11791 H 1105.53 3.54336 1.19675 0
M  V30 11792 H 1107.83 5.91709 3.29981 0
M  V30 11793 H 1108.77 6.7798 2.04325 0
M  V30 11794 H 1109.18 5.08617 2.44885 0
M  V30 11795 N 1108.58 -0.128553 1.57075 0
M  V30 11796 C 1109.8 -0.8564 1.88893 0
M  V30 11797 C 1110.23 -1.73095 0.736196 0
M  V30 11798 O 1109.58 -1.78567 -0.313629 0
M  V30 11799 C 1109.63 -1.67368 3.19406 0
M  V30 11800 O 1108.74 -2.77973 3.04639 0
M  V30 11801 H 1108.08 -0.237424 0.620102 0
M  V30 11802 H 1110.61 -0.113821 2.04283 0
M  V30 11803 H 1110.62 -2.0649 3.51889 0
M  V30 11804 H 1109.29 -1.03161 4.02903 0
M  V30 11805 H 1107.87 -2.42123 2.83603 0
M  V30 11806 N 1110.05 -1.5248 -0.398459 0
M  V30 11807 C 1111.28 -1.71221 -1.17039 0
M  V30 11808 C 1111.7 -0.425515 -1.83224 0
M  V30 11809 O 1111.06 0.617938 -1.70444 0
M  V30 11810 C 1111.11 -2.8562 -2.20121 0
M  V30 11811 O 1110.21 -2.51934 -3.26501 0
M  V30 11812 H 1109.55 -0.569654 -0.34116 0
M  V30 11813 H 1112.08 -1.99231 -0.465652 0
M  V30 11814 H 1112.09 -3.10842 -2.64275 0
M  V30 11815 H 1110.77 -3.78969 -1.71334 0
M  V30 11816 H 1109.35 -2.3742 -2.87552 0
M  V30 11817 N 1111.53 0.65634 -1.43283 0
M  V30 11818 C 1112.95 0.971645 -1.26614 0
M  V30 11819 C 1113.15 2.00662 -0.183612 0
M  V30 11820 O 1112.2 2.48654 0.439003 0
M  V30 11821 C 1113.52 1.45888 -2.6294 0
M  V30 11822 C 1115.06 1.57569 -2.70446 0
M  V30 11823 C 1115.54 2.09684 -4.07181 0
M  V30 11824 N 1117.03 2.16991 -4.0923 0
M  V30 11825 C 1117.77 2.5843 -5.11861 0
M  V30 11826 N 1117.26 2.99188 -6.24867 0
M  V30 11827 N 1119.05 2.58342 -4.99215 0
M  V30 11828 H 1111.21 -0.028573 -2.12381 0
M  V30 11829 H 1113.47 0.0497918 -0.946691 0
M  V30 11830 H 1113.17 0.772823 -3.43104 0
M  V30 11831 H 1113.05 2.43445 -2.88122 0
M  V30 11832 H 1115.44 2.25277 -1.90616 0
M  V30 11833 H 1115.52 0.584529 -2.49032 0
M  V30 11834 H 1115.16 1.42579 -4.87477 0
M  V30 11835 H 1115.09 3.09625 -4.25958 0
M  V30 11836 H 1117.58 1.88278 -3.27658 0
M  V30 11837 H 1117.89 3.29549 -6.99012 0
M  V30 11838 H 1116.24 2.97 -6.28344 0
M  V30 11839 H 1119.43 2.25875 -4.09998 0
M  V30 11840 H 1119.6 2.90316 -5.79328 0
M  V30 11841 N 1113.01 1.29761 0.894412 0
M  V30 11842 C 1114.23 1.21064 1.68399 0
M  V30 11843 C 1114.66 -0.224608 1.86754 0
M  V30 11844 O 1114.02 -1.16199 1.39167 0
M  V30 11845 C 1114.07 1.93468 3.04306 0
M  V30 11846 O 1113.17 1.25533 3.9283 0
M  V30 11847 H 1112.51 0.419223 0.514925 0
M  V30 11848 H 1115.04 1.71421 1.11696 0
M  V30 11849 H 1115.05 2.02127 3.54413 0
M  V30 11850 H 1113.73 2.97857 2.90265 0
M  V30 11851 H 1112.3 1.25168 3.51266 0
M  V30 11852 N 1114.49 -1.10549 1.12324 0
M  V30 11853 C 1115.9 -1.34508 0.85905 0
M  V30 11854 C 1116.1 -1.94901 -0.511468 0
M  V30 11855 O 1115.16 -2.18793 -1.2604 0
M  V30 11856 C 1116.47 -2.26788 1.97453 0
M  V30 11857 C 1118.02 -2.40328 2.00528 0
M  V30 11858 C 1118.5 -3.35936 3.11305 0
M  V30 11859 N 1119.99 -3.43504 3.1074 0
M  V30 11860 C 1120.72 -4.17449 3.93096 0
M  V30 11861 N 1120.22 -4.9429 4.85437 0
M  V30 11862 N 1122.01 -4.13055 3.81237 0
M  V30 11863 H 1114.16 -0.697171 2.00632 0
M  V30 11864 H 1116.42 -0.369548 0.873005 0
M  V30 11865 H 1116.13 -1.89621 2.96204 0
M  V30 11866 H 1116 -3.27086 1.87869 0
M  V30 11867 H 1118.39 -2.76765 1.02397 0
M  V30 11868 H 1118.47 -1.39849 2.14186 0
M  V30 11869 H 1118.12 -3.00225 4.09667 0
M  V30 11870 H 1118.05 -4.36291 2.94886 0
M  V30 11871 H 1120.54 -2.88702 2.43843 0
M  V30 11872 H 1120.85 -5.48109 5.4479 0
M  V30 11873 H 1119.2 -4.93419 4.89452 0
M  V30 11874 H 1122.39 -3.52117 3.08433 0
M  V30 11875 H 1122.56 -4.70424 4.45651 0
M  V30 11876 N 1115.97 -0.914965 -1.28321 0
M  V30 11877 C 1116.91 -0.394477 -2.29231 0
M  V30 11878 C 1117.91 0.514481 -1.61398 0
M  V30 11879 O 1119.11 0.395591 -1.75599 0
M  V30 11880 H 1115.49 -0.108969 -0.744063 0
M  V30 11881 H 1117.46 -1.25862 -2.70557 0
M  V30 11882 C 1116.21 0.349134 -3.45943 0
M  V30 11883 H 1115.53 -0.341087 -3.98342 0
M  V30 11884 H 1116.97 0.677944 -4.18545 0
M  V30 11885 C 1115.43 1.55747 -2.98738 0
M  V30 11886 O 1115.96 2.65654 -3.01315 0
M  V30 11887 N 1114.17 1.40488 -2.54384 0
M  V30 11888 H 1113.71 0.510716 -2.52487 0
M  V30 11889 H 1113.67 2.21464 -2.23161 0
M  V30 11890 N 1117.44 1.42219 -0.679077 0
M  V30 11891 C 1118.67 2.05815 -0.211649 0
M  V30 11892 C 1119.09 1.51037 1.13284 0
M  V30 11893 O 1118.44 0.651894 1.7046 0
M  V30 11894 C 1118.49 3.61218 -0.142663 0
M  V30 11895 O 1118.22 4.13965 -1.43402 0
M  V30 11896 C 1119.72 4.41934 0.347746 0
M  V30 11897 H 1116.94 0.663215 -0.101914 0
M  V30 11898 H 1119.48 1.82282 -0.927017 0
M  V30 11899 H 1117.64 3.83848 0.52342 0
M  V30 11900 H 1118.05 5.07872 -1.31021 0
M  V30 11901 H 1119.52 5.50921 0.344916 0
M  V30 11902 H 1120 4.16832 1.38377 0
M  V30 11903 H 1120.61 4.24332 -0.286751 0
M  V30 11904 N 1118.92 0.422693 1.51826 0
M  V30 11905 C 1120.15 -0.147744 2.06372 0
M  V30 11906 C 1120.56 -1.37714 1.29152 0
M  V30 11907 O 1119.92 -1.7917 0.347046 0
M  V30 11908 C 1119.97 -0.484642 3.58237 0
M  V30 11909 O 1119.69 0.695944 4.32537 0
M  V30 11910 C 1121.19 -1.10734 4.29247 0
M  V30 11911 H 1118.41 -0.0144047 0.670845 0
M  V30 11912 H 1120.96 0.597558 1.95575 0
M  V30 11913 H 1119.11 -1.17984 3.68997 0
M  V30 11914 H 1119.53 0.411471 5.22884 0
M  V30 11915 H 1121 -1.29318 5.36639 0
M  V30 11916 H 1121.48 -2.08429 3.86593 0
M  V30 11917 H 1122.08 -0.451958 4.22892 0
M  V30 11918 N 1120.4 -1.5685 0.153553 0
M  V30 11919 C 1121.36 -2.15894 -0.769564 0
M  V30 11920 C 1122.36 -1.10239 -1.17064 0
M  V30 11921 O 1123.55 -1.35845 -1.09049 0
M  V30 11922 C 1120.68 -2.72738 -2.04516 0
M  V30 11923 H 1121.88 -2.98807 -0.255842 0
M  V30 11924 H 1119.43 -1.56005 -0.0959279 0
M  V30 11925 H 1120.17 -1.9351 -2.60239 0
M  V30 11926 H 1119.95 -3.50042 -1.76672 0
M  V30 11927 H 1121.44 -3.18208 -2.70432 0
M  V30 11928 N 1121.88 0.120221 -1.57141 0
M  V30 11929 C 1122.84 1.13159 -1.99318 0
M  V30 11930 C 1123.84 1.34376 -0.883158 0
M  V30 11931 O 1125.03 1.30914 -1.14922 0
M  V30 11932 C 1122.16 2.48632 -2.33227 0
M  V30 11933 H 1123.36 0.769119 -2.8987 0
M  V30 11934 H 1120.91 0.364475 -1.51991 0
M  V30 11935 H 1121.64 2.89802 -1.45551 0
M  V30 11936 H 1121.43 2.34587 -3.14184 0
M  V30 11937 H 1122.92 3.21423 -2.66603 0
M  V30 11938 N 1123.36 1.52689 0.390367 0
M  V30 11939 C 1124.63 1.58246 1.14968 0
M  V30 11940 C 1125.01 0.374808 2.07746 0
M  V30 11941 O 1124.36 -0.636969 2.19442 0
M  V30 11942 C 1124.57 2.92059 1.91056 0
M  V30 11943 C 1125.92 3.45745 2.46466 0
M  V30 11944 O 1126.94 2.93924 2.01214 0
M  V30 11945 O 1125.8 4.3628 3.29122 0
M  V30 11946 H 1122.9 0.638189 0.52597 0
M  V30 11947 H 1125.44 1.65024 0.39563 0
M  V30 11948 H 1124.21 3.71399 1.23201 0
M  V30 11949 H 1123.84 2.8866 2.73425 0
M  V30 11950 N 1124.83 -0.648732 1.43629 0
M  V30 11951 C 1126.06 -1.4362 1.48932 0
M  V30 11952 C 1126.48 -1.88487 0.108599 0
M  V30 11953 O 1125.83 -1.59768 -0.882066 0
M  V30 11954 C 1125.89 -2.66822 2.43903 0
M  V30 11955 O 1125.61 -2.2383 3.76606 0
M  V30 11956 C 1127.11 -3.60134 2.58493 0
M  V30 11957 H 1124.33 -0.441055 0.505679 0
M  V30 11958 H 1126.87 -0.794936 1.88417 0
M  V30 11959 H 1125.03 -3.27079 2.07601 0
M  V30 11960 H 1125.44 -3.03575 4.27718 0
M  V30 11961 H 1126.91 -4.43234 3.29011 0
M  V30 11962 H 1127.39 -4.07779 1.63134 0
M  V30 11963 H 1128 -3.05756 2.95624 0
M  V30 11964 N 1126.31 -1.30234 -0.887518 0
M  V30 11965 C 1127.54 -1.21652 -1.66986 0
M  V30 11966 C 1127.95 0.223473 -1.87876 0
M  V30 11967 O 1127.29 1.15993 -1.42448 0
M  V30 11968 C 1127.36 -1.87173 -3.06931 0
M  V30 11969 C 1127.02 -3.36496 -3.09224 0
M  V30 11970 C 1128.02 -4.3253 -2.88469 0
M  V30 11971 C 1125.7 -3.77901 -3.30902 0
M  V30 11972 C 1127.7 -5.67942 -2.89344 0
M  V30 11973 C 1125.38 -5.13432 -3.31407 0
M  V30 11974 C 1126.38 -6.08263 -3.10653 0
M  V30 11975 O 1126.07 -7.41318 -3.1097 0
M  V30 11976 H 1125.8 -0.422224 -0.527923 0
M  V30 11977 H 1128.35 -1.72349 -1.11736 0
M  V30 11978 H 1126.58 -1.31002 -3.63834 0
M  V30 11979 H 1128.27 -1.72745 -3.67306 0
M  V30 11980 H 1129.04 -4.01873 -2.7152 0
M  V30 11981 H 1124.92 -3.04534 -3.46093 0
M  V30 11982 H 1128.46 -6.41936 -2.73063 0
M  V30 11983 H 1124.36 -5.4373 -3.47891 0
M  V30 11984 H 1125.13 -7.50275 -3.27153 0
M  V30 11985 N 1127.79 1.09952 -1.12909 0
M  V30 11986 C 1128.74 2.18525 -0.796849 0
M  V30 11987 C 1129.73 1.67985 0.218483 0
M  V30 11988 O 1130.94 1.79839 0.07618 0
M  V30 11989 H 1127.31 0.712714 -0.239882 0
M  V30 11990 H 1129.28 2.43783 -1.72083 0
M  V30 11991 C 1128.03 3.46625 -0.273237 0
M  V30 11992 H 1127.36 3.85879 -1.04582 0
M  V30 11993 H 1128.8 4.23926 -0.0791355 0
M  V30 11994 C 1127.26 3.2172 0.999903 0
M  V30 11995 O 1127.79 3.43851 2.07676 0
M  V30 11996 N 1125.99 2.75356 0.928833 0
M  V30 11997 H 1125.54 2.57547 0.052379 0
M  V30 11998 H 1125.5 2.5907 1.78129 0
M  V30 11999 N 1129.27 0.921757 1.27833 0
M  V30 12000 C 1130.52 0.55493 1.93916 0
M  V30 12001 C 1130.83 -0.907191 1.7329 0
M  V30 12002 O 1132.04 -1.38253 2.33663 0
M  V30 12003 C 1130.49 0.941644 3.47363 0
M  V30 12004 C 1130.1 2.42404 3.76755 0
M  V30 12005 C 1131.84 0.645785 4.19559 0
M  V30 12006 C 1129.75 2.75046 5.23549 0
M  V30 12007 H 1128.68 0.203818 0.72593 0
M  V30 12008 H 1131.33 1.12176 1.4522 0
M  V30 12009 H 1129.71 0.303519 3.94835 0
M  V30 12010 H 1130.89 3.10957 3.40062 0
M  V30 12011 H 1129.2 2.69118 3.17749 0
M  V30 12012 H 1131.8 0.866237 5.27637 0
M  V30 12013 H 1132.14 -0.41676 4.14209 0
M  V30 12014 H 1132.68 1.24274 3.7789 0
M  V30 12015 H 1129.42 3.80186 5.33984 0
M  V30 12016 H 1128.94 2.11138 5.6141 0
M  V30 12017 H 1130.61 2.62474 5.91368 0
M  V30 12018 N 1130.75 -1.41857 0.686609 0
M  V30 12019 C 1131.97 -2.05699 0.222561 0
M  V30 12020 C 1132.39 -1.51636 -1.12481 0
M  V30 12021 O 1131.75 -0.660925 -1.70112 0
M  V30 12022 C 1131.8 -3.61138 0.161818 0
M  V30 12023 O 1131.52 -4.13199 1.45596 0
M  V30 12024 C 1133.02 -4.42112 -0.324304 0
M  V30 12025 H 1130.24 -0.662665 0.10543 0
M  V30 12026 H 1132.78 -1.81788 0.936671 0
M  V30 12027 H 1130.94 -3.8412 -0.503056 0
M  V30 12028 H 1131.35 -5.0717 1.33712 0
M  V30 12029 H 1132.83 -5.51097 -0.315694 0
M  V30 12030 H 1133.3 -4.1756 -1.36164 0
M  V30 12031 H 1133.91 -4.24174 0.309251 0
M  V30 12032 N 1132.22 -0.430739 -1.51599 0
M  V30 12033 C 1133.5 0.197543 -1.946 0
M  V30 12034 C 1133.88 1.6069 -1.36901 0
M  V30 12035 O 1133.23 2.21697 -0.553422 0
M  V30 12036 C 1133.44 0.181976 -3.48525 0
M  V30 12037 C 1134.79 0.390783 -4.22798 0
M  V30 12038 O 1135.81 0.260384 -3.55247 0
M  V30 12039 O 1134.67 0.649701 -5.42624 0
M  V30 12040 H 1131.76 0.133524 -0.81615 0
M  V30 12041 H 1134.31 -0.488243 -1.62525 0
M  V30 12042 H 1133.08 -0.803584 -3.8296 0
M  V30 12043 H 1132.71 0.910952 -3.87024 0
M  V30 12044 N 1133.7 1.56767 -0.161869 0
M  V30 12045 C 1135.11 1.83265 0.356466 0
M  V30 12046 C 1135.46 1.08127 1.63716 0
M  V30 12047 O 1134.59 0.33127 2.13849 0
M  V30 12048 C 1135.18 3.32437 0.653521 0
M  V30 12049 C 1133.74 3.59465 1.11633 0
M  V30 12050 C 1132.89 2.76909 0.147204 0
M  V30 12051 H 1135.84 1.53926 -0.386308 0
M  V30 12052 H 1135.86 3.49401 1.50662 0
M  V30 12053 H 1135.37 3.87098 -0.278766 0
M  V30 12054 H 1133.48 3.10206 2.06404 0
M  V30 12055 H 1133.59 4.67853 1.03202 0
M  V30 12056 H 1131.95 2.46457 0.642739 0
M  V30 12057 H 1132.74 3.34346 -0.778938 0
M  V30 12058 N 1135.18 -0.111886 1.57202 0
M  V30 12059 C 1136.09 -1.1556 2.04165 0
M  V30 12060 C 1137.11 -1.44898 0.963354 0
M  V30 12061 O 1138.28 -1.55873 1.27536 0
M  V30 12062 C 1135.35 -2.46048 2.44256 0
M  V30 12063 C 1134.41 -2.24043 3.66201 0
M  V30 12064 C 1133.64 -3.4831 4.04371 0
M  V30 12065 O 1133.86 -4.55895 3.42806 0
M  V30 12066 O 1132.8 -3.38891 4.9743 0
M  V30 12067 H 1136.62 -0.786778 2.93332 0
M  V30 12068 H 1134.21 -0.323196 1.45862 0
M  V30 12069 H 1136.09 -3.22916 2.70745 0
M  V30 12070 H 1134.77 -2.8239 1.58233 0
M  V30 12071 H 1133.67 -1.4501 3.44852 0
M  V30 12072 H 1135.01 -1.92602 4.52952 0
M  V30 12073 N 1136.66 -1.52894 -0.382264 0
M  V30 12074 C 1137.57 -1.81084 -1.4915 0
M  V30 12075 C 1138.58 -0.698045 -1.59384 0
M  V30 12076 O 1139.76 -0.98635 -1.75594 0
M  V30 12077 C 1136.83 -1.97987 -2.84608 0
M  V30 12078 C 1135.89 -3.219 -2.8404 0
M  V30 12079 C 1135.12 -3.37988 -4.13037 0
M  V30 12080 O 1135.34 -2.58733 -5.08344 0
M  V30 12081 O 1134.28 -4.31273 -4.19866 0
M  V30 12082 H 1138.1 -2.75289 -1.28257 0
M  V30 12083 H 1135.69 -1.38068 -0.57076 0
M  V30 12084 H 1137.57 -2.10773 -3.64901 0
M  V30 12085 H 1136.24 -1.06972 -3.05514 0
M  V30 12086 H 1135.15 -3.14551 -2.02505 0
M  V30 12087 H 1136.48 -4.12783 -2.68087 0
M  V30 12088 N 1138.14 0.641106 -1.43971 0
M  V30 12089 C 1139.07 1.76489 -1.52885 0
M  V30 12090 C 1140.05 1.65742 -0.38258 0
M  V30 12091 O 1141.23 1.84653 -0.601397 0
M  V30 12092 C 1138.36 3.14977 -1.4631 0
M  V30 12093 C 1137.32 3.40502 -2.59311 0
M  V30 12094 C 1136.64 4.78916 -2.37789 0
M  V30 12095 C 1137.94 3.34048 -4.01509 0
M  V30 12096 H 1139.64 1.69286 -2.46946 0
M  V30 12097 H 1137.18 0.813015 -1.18853 0
M  V30 12098 H 1139.14 3.9336 -1.51149 0
M  V30 12099 H 1137.86 3.2294 -0.487599 0
M  V30 12100 H 1136.52 2.64495 -2.53846 0
M  V30 12101 H 1136.17 4.8357 -1.38454 0
M  V30 12102 H 1135.87 4.96954 -3.13545 0
M  V30 12103 H 1137.39 5.59541 -2.4443 0
M  V30 12104 H 1138.81 4.0235 -4.08396 0
M  V30 12105 H 1137.2 3.63622 -4.77388 0
M  V30 12106 H 1138.27 2.32022 -4.25786 0
M  V30 12107 N 1139.62 1.30703 0.880598 0
M  V30 12108 C 1140.53 1.19389 2.01949 0
M  V30 12109 C 1141.54 0.112868 1.73634 0
M  V30 12110 O 1142.72 0.328643 1.98701 0
M  V30 12111 C 1139.78 0.891004 3.35055 0
M  V30 12112 C 1138.84 2.05784 3.76764 0
M  V30 12113 C 1138.08 1.76931 5.03519 0
M  V30 12114 O 1138.3 0.699326 5.66097 0
M  V30 12115 O 1137.23 2.623 5.4174 0
M  V30 12116 H 1141.06 2.15073 2.14423 0
M  V30 12117 H 1138.64 1.10339 1.00726 0
M  V30 12118 H 1140.53 0.737476 4.14897 0
M  V30 12119 H 1139.2 -0.0358909 3.2368 0
M  V30 12120 H 1138.11 2.26672 2.97608 0
M  V30 12121 H 1139.44 2.96661 3.9275 0
M  V30 12122 N 1141.09 -1.09351 1.1349 0
M  V30 12123 C 1142.32 -1.85304 0.920324 0
M  V30 12124 C 1142.74 -1.81182 -0.530883 0
M  V30 12125 O 1142.09 -1.20853 -1.36751 0
M  V30 12126 C 1142.14 -3.33249 1.40098 0
M  V30 12127 O 1141.87 -3.37333 2.79531 0
M  V30 12128 C 1143.37 -4.2604 1.22495 0
M  V30 12129 H 1140.59 -0.585294 0.328134 0
M  V30 12130 H 1143.13 -1.38168 1.50765 0
M  V30 12131 H 1141.29 -3.7781 0.85664 0
M  V30 12132 H 1141.7 -4.29614 3.00885 0
M  V30 12133 H 1143.17 -5.27999 1.61 0
M  V30 12134 H 1143.65 -4.38883 0.166717 0
M  V30 12135 H 1144.26 -3.87295 1.75735 0
M  V30 12136 N 1142.57 -0.928524 -1.27343 0
M  V30 12137 C 1143.48 -0.433901 -2.30553 0
M  V30 12138 C 1144.5 0.485832 -1.6708 0
M  V30 12139 O 1145.67 0.36844 -1.98001 0
M  V30 12140 C 1142.74 0.304617 -3.45359 0
M  V30 12141 C 1141.8 -0.650131 -4.24349 0
M  V30 12142 C 1141.03 0.0532372 -5.33673 0
M  V30 12143 O 1141.26 1.27246 -5.56026 0
M  V30 12144 O 1140.19 -0.619009 -5.98709 0
M  V30 12145 H 1144.02 -1.2909 -2.74899 0
M  V30 12146 H 1141.6 -0.693903 -1.32308 0
M  V30 12147 H 1143.48 0.721137 -4.15184 0
M  V30 12148 H 1142.16 1.13721 -3.03066 0
M  V30 12149 H 1141.06 -1.11635 -3.57055 0
M  V30 12150 H 1142.4 -1.44996 -4.70358 0
M  V30 12151 N 1144.05 1.41491 -0.694123 0
M  V30 12152 C 1145.28 2.0528 -0.233128 0
M  V30 12153 C 1145.69 1.52329 1.12217 0
M  V30 12154 O 1145.03 0.66579 1.7121 0
M  V30 12155 C 1145.09 3.59326 -0.111718 0
M  V30 12156 C 1144.76 4.35065 -1.39882 0
M  V30 12157 C 1145.75 4.64446 -2.33637 0
M  V30 12158 C 1143.44 4.74364 -1.65179 0
M  V30 12159 C 1145.43 5.32083 -3.50951 0
M  V30 12160 C 1143.12 5.41737 -2.82779 0
M  V30 12161 C 1144.12 5.70524 -3.75488 0
M  V30 12162 O 1143.81 6.36511 -4.91029 0
M  V30 12163 H 1143.54 0.667571 -0.106418 0
M  V30 12164 H 1146.09 1.82276 -0.94682 0
M  V30 12165 H 1144.32 3.81065 0.65773 0
M  V30 12166 H 1146.01 4.047 0.311906 0
M  V30 12167 H 1146.78 4.34568 -2.1535 0
M  V30 12168 H 1142.66 4.5134 -0.93881 0
M  V30 12169 H 1146.2 5.54468 -4.23333 0
M  V30 12170 H 1142.1 5.71033 -3.00984 0
M  V30 12171 H 1142.86 6.55006 -4.90825 0
M  V30 12172 N 1145.53 0.438773 1.51369 0
M  V30 12173 C 1146.94 -0.0240139 1.86685 0
M  V30 12174 C 1147.29 -1.41816 1.35583 0
M  V30 12175 O 1146.41 -2.04517 0.707232 0
M  V30 12176 C 1147.01 -0.0503527 3.38763 0
M  V30 12177 C 1145.57 -0.457556 3.73609 0
M  V30 12178 C 1144.72 0.348852 2.75097 0
M  V30 12179 H 1147.67 0.654552 1.44573 0
M  V30 12180 H 1147.69 -0.859534 3.70665 0
M  V30 12181 H 1147.2 0.964451 3.75925 0
M  V30 12182 H 1145.3 -1.47791 3.42036 0
M  V30 12183 H 1145.41 -0.181357 4.78757 0
M  V30 12184 H 1143.78 -0.193037 2.53967 0
M  V30 12185 H 1144.56 1.36256 3.15102 0
M  V30 12186 N 1147.01 -1.56678 0.170181 0
M  V30 12187 C 1148.25 -1.96849 -0.475064 0
M  V30 12188 C 1148.58 -1.05611 -1.6333 0
M  V30 12189 O 1147.84 -0.0899708 -1.95493 0
M  V30 12190 C 1148.13 -3.43103 -1.00076 0
M  V30 12191 C 1147.8 -4.50881 0.0414538 0
M  V30 12192 C 1146.46 -4.80082 0.327894 0
M  V30 12193 C 1148.81 -5.15791 0.748936 0
M  V30 12194 C 1146.14 -5.71491 1.32722 0
M  V30 12195 C 1148.49 -6.08278 1.73724 0
M  V30 12196 C 1147.16 -6.35847 2.03114 0
M  V30 12197 H 1146.43 -0.72032 -0.173838 0
M  V30 12198 H 1149.08 -1.89701 0.261903 0
M  V30 12199 H 1147.38 -3.47197 -1.81553 0
M  V30 12200 H 1149.08 -3.71525 -1.50899 0
M  V30 12201 H 1145.67 -4.2817 -0.191976 0
M  V30 12202 H 1149.85 -4.93344 0.540852 0
M  V30 12203 H 1145.11 -5.91134 1.56112 0
M  V30 12204 H 1149.28 -6.57643 2.29082 0
M  V30 12205 H 1146.91 -7.06479 2.80698 0
M  V30 12206 N 1148.48 0.103547 -1.57259 0
M  V30 12207 C 1149.73 0.808576 -1.85656 0
M  V30 12208 C 1150.06 1.79143 -0.757502 0
M  V30 12209 O 1149.31 1.941 0.249723 0
M  V30 12210 C 1149.61 1.57946 -3.20605 0
M  V30 12211 C 1149.28 0.739502 -4.44795 0
M  V30 12212 C 1147.94 0.507921 -4.78512 0
M  V30 12213 C 1150.29 0.155034 -5.20969 0
M  V30 12214 C 1147.62 -0.318129 -5.85837 0
M  V30 12215 C 1149.97 -0.658292 -6.29166 0
M  V30 12216 C 1148.64 -0.900044 -6.61404 0
M  V30 12217 H 1147.91 0.295879 -0.679365 0
M  V30 12218 H 1150.55 0.0703604 -1.91371 0
M  V30 12219 H 1148.86 2.38902 -3.10537 0
M  V30 12220 H 1150.56 2.12921 -3.39803 0
M  V30 12221 H 1147.15 0.930103 -4.18386 0
M  V30 12222 H 1151.33 0.32113 -4.9526 0
M  V30 12223 H 1146.59 -0.514495 -6.09231 0
M  V30 12224 H 1150.76 -1.11809 -6.87366 0
M  V30 12225 H 1148.39 -1.54194 -7.44398 0
M  V30 12226 N 1149.96 1.53094 0.37415 0
M  V30 12227 C 1150.87 1.81872 1.48188 0
M  V30 12228 C 1151.89 0.706487 1.59012 0
M  V30 12229 O 1153.06 0.995648 1.75068 0
M  V30 12230 C 1150.13 1.99494 2.83554 0
M  V30 12231 C 1149.19 3.23402 2.82329 0
M  V30 12232 C 1148.42 3.40174 4.11239 0
M  V30 12233 O 1148.65 2.61425 5.06965 0
M  V30 12234 O 1147.58 4.33493 4.17573 0
M  V30 12235 H 1151.41 2.75965 1.26795 0
M  V30 12236 H 1148.99 1.38368 0.56343 0
M  V30 12237 H 1150.87 2.12705 3.63778 0
M  V30 12238 H 1149.55 1.08591 3.04942 0
M  V30 12239 H 1148.45 3.15621 2.00834 0
M  V30 12240 H 1149.79 4.14199 2.65894 0
M  V30 12241 N 1151.44 -0.633461 1.44309 0
M  V30 12242 C 1152.66 -1.42527 1.50668 0
M  V30 12243 C 1153.09 -1.87637 0.131861 0
M  V30 12244 O 1152.45 -1.58595 -0.878477 0
M  V30 12245 C 1152.5 -2.62328 2.47419 0
M  V30 12246 O 1151.6 -3.62081 1.97411 0
M  V30 12247 H 1150.94 -0.426559 0.508864 0
M  V30 12248 H 1153.47 -0.773392 1.8942 0
M  V30 12249 H 1153.48 -3.09901 2.65378 0
M  V30 12250 H 1152.16 -2.2884 3.47283 0
M  V30 12251 H 1150.73 -3.21333 1.89208 0
M  V30 12252 N 1152.92 -1.31168 -0.873655 0
M  V30 12253 C 1154.33 -1.09745 -1.1588 0
M  V30 12254 C 1154.53 0.134471 -2.01051 0
M  V30 12255 O 1153.59 0.824857 -2.38647 0
M  V30 12256 C 1154.9 -2.36704 -1.85451 0
M  V30 12257 C 1156.45 -2.42278 -1.98167 0
M  V30 12258 C 1156.93 -3.69108 -2.71152 0
M  V30 12259 N 1158.42 -3.69981 -2.7869 0
M  V30 12260 C 1159.15 -4.64811 -3.35765 0
M  V30 12261 N 1158.65 -5.69995 -3.938 0
M  V30 12262 N 1160.44 -4.52337 -3.33688 0
M  V30 12263 H 1152.59 -2.10184 -0.306021 0
M  V30 12264 H 1154.86 -0.927058 -0.198159 0
M  V30 12265 H 1154.56 -3.26666 -1.30316 0
M  V30 12266 H 1154.44 -2.46219 -2.85755 0
M  V30 12267 H 1156.82 -1.52787 -2.52468 0
M  V30 12268 H 1156.9 -2.3673 -0.969164 0
M  V30 12269 H 1156.55 -4.58963 -2.1752 0
M  V30 12270 H 1156.48 -3.71922 -3.72803 0
M  V30 12271 H 1158.97 -2.93944 -2.37498 0
M  V30 12272 H 1159.28 -6.38438 -4.3545 0
M  V30 12273 H 1157.63 -5.73773 -3.92186 0
M  V30 12274 H 1160.82 -3.69341 -2.87584 0
M  V30 12275 H 1160.99 -5.2642 -3.77871 0
M  V30 12276 N 1154.4 1.08748 -1.14068 0
M  V30 12277 C 1155.64 1.81333 -0.908081 0
M  V30 12278 C 1155.98 1.85826 0.564112 0
M  V30 12279 O 1155.25 1.33157 1.41773 0
M  V30 12280 C 1155.53 3.27127 -1.50531 0
M  V30 12281 C 1155.39 3.30865 -3.04711 0
M  V30 12282 C 1156.71 4.24006 -1.17928 0
M  V30 12283 H 1153.82 0.658326 -0.331325 0
M  V30 12284 H 1156.47 1.27345 -1.41008 0
M  V30 12285 H 1154.62 3.73233 -1.07839 0
M  V30 12286 H 1156.29 2.93109 -3.56209 0
M  V30 12287 H 1154.53 2.70241 -3.39341 0
M  V30 12288 H 1155.2 4.33603 -3.41603 0
M  V30 12289 H 1157.68 3.86221 -1.54831 0
M  V30 12290 H 1156.55 5.2434 -1.62353 0
M  V30 12291 H 1156.82 4.42 -0.0940349 0
M  V30 12292 N 1155.87 0.935264 1.26849 0
M  V30 12293 C 1157.15 0.497797 1.8916 0
M  V30 12294 C 1157.53 -1.02441 1.84578 0
M  V30 12295 O 1156.88 -1.88185 1.29609 0
M  V30 12296 C 1157.09 1.05244 3.32753 0
M  V30 12297 C 1158.44 1.11751 4.0963 0
M  V30 12298 O 1159.46 1.0026 3.41799 0
M  V30 12299 O 1158.32 1.29548 5.30923 0
M  V30 12300 H 1155.41 0.161322 0.811113 0
M  V30 12301 H 1157.96 1.02744 1.35062 0
M  V30 12302 H 1156.73 2.09617 3.30419 0
M  V30 12303 H 1156.36 0.504889 3.94381 0
M  V30 12304 N 1157.35 -1.41121 0.701616 0
M  V30 12305 C 1158.3 -2.32582 0.0288052 0
M  V30 12306 C 1159.29 -1.5129 -0.762074 0
M  V30 12307 O 1160.5 -1.67185 -0.667014 0
M  V30 12308 H 1156.88 -0.75194 -0.00948675 0
M  V30 12309 H 1158.85 -2.86994 0.817141 0
M  V30 12310 C 1157.6 -3.36137 -0.889217 0
M  V30 12311 H 1156.92 -3.98746 -0.290062 0
M  V30 12312 H 1158.36 -4.0266 -1.32819 0
M  V30 12313 C 1156.82 -2.70504 -2.00821 0
M  V30 12314 O 1157.35 -2.55753 -3.09763 0
M  V30 12315 N 1155.55 -2.29105 -1.78772 0
M  V30 12316 H 1155.1 -2.41303 -0.901708 0
M  V30 12317 H 1155.06 -1.85527 -2.53825 0
M  V30 12318 N 1158.83 -0.446794 -1.51134 0
M  V30 12319 C 1159.78 0.359865 -2.27977 0
M  V30 12320 C 1160.75 1.0086 -1.31972 0
M  V30 12321 O 1161.93 1.02569 -1.60886 0
M  V30 12322 C 1159.07 1.44978 -3.1317 0
M  V30 12323 C 1158.19 0.818243 -4.2418 0
M  V30 12324 C 1157.32 1.884 -4.96668 0
M  V30 12325 C 1156.36 1.2314 -5.99586 0
M  V30 12326 N 1155.5 2.23894 -6.65444 0
M  V30 12327 H 1160.34 -0.301775 -2.96468 0
M  V30 12328 H 1157.87 -0.160666 -1.4622 0
M  V30 12329 H 1159.83 2.09308 -3.60896 0
M  V30 12330 H 1158.46 2.08092 -2.46775 0
M  V30 12331 H 1157.51 0.0629889 -3.80348 0
M  V30 12332 H 1158.83 0.301885 -4.97886 0
M  V30 12333 H 1157.98 2.6037 -5.4799 0
M  V30 12334 H 1156.72 2.43411 -4.22614 0
M  V30 12335 H 1155.72 0.497215 -5.47547 0
M  V30 12336 H 1156.95 0.688505 -6.75601 0
M  V30 12337 H 1154.89 2.77967 -5.94197 0
M  V30 12338 H 1154.81 1.77176 -7.34945 0
M  V30 12339 H 1156.08 2.95318 -7.21393 0
M  V30 12340 N 1160.31 1.56586 -0.178487 0
M  V30 12341 C 1161.22 2.21903 0.761321 0
M  V30 12342 C 1162.23 1.21289 1.2476 0
M  V30 12343 O 1163.41 1.53974 1.29823 0
M  V30 12344 C 1160.48 2.85259 1.97048 0
M  V30 12345 C 1159.54 4.01095 1.53039 0
M  V30 12346 C 1158.77 4.61421 2.68191 0
M  V30 12347 O 1158.99 4.20644 3.85247 0
M  V30 12348 O 1157.93 5.51171 2.41855 0
M  V30 12349 H 1161.75 3.02788 0.235141 0
M  V30 12350 H 1159.34 1.49316 0.0500442 0
M  V30 12351 H 1161.22 3.25404 2.6775 0
M  V30 12352 H 1159.89 2.07366 2.48558 0
M  V30 12353 H 1158.8 3.65606 0.792661 0
M  V30 12354 H 1160.13 4.80603 1.06213 0
M  V30 12355 N 1161.79 -0.095206 1.57312 0
M  V30 12356 C 1163.2 -0.449411 1.53142 0
M  V30 12357 C 1163.4 -1.80523 0.895187 0
M  V30 12358 O 1162.46 -2.47746 0.487649 0
M  V30 12359 C 1163.77 -0.412002 2.97864 0
M  V30 12360 C 1165.32 -0.493866 3.09079 0
M  V30 12361 C 1165.79 -0.486606 4.55408 0
M  V30 12362 N 1167.29 -0.547363 4.59955 0
M  V30 12363 C 1168.02 -0.563582 5.70624 0
M  V30 12364 N 1167.52 -0.536015 6.90723 0
M  V30 12365 N 1169.31 -0.608385 5.58798 0
M  V30 12366 H 1161.46 0.792869 1.97047 0
M  V30 12367 H 1163.72 0.295106 0.900898 0
M  V30 12368 H 1163.43 0.517064 3.47878 0
M  V30 12369 H 1163.3 -1.23102 3.56547 0
M  V30 12370 H 1165.69 -1.41335 2.59053 0
M  V30 12371 H 1165.77 0.353286 2.53349 0
M  V30 12372 H 1165.42 0.428935 5.06086 0
M  V30 12373 H 1165.35 -1.35097 5.08976 0
M  V30 12374 H 1167.84 -0.573867 3.73517 0
M  V30 12375 H 1168.15 -0.551671 7.70828 0
M  V30 12376 H 1166.49 -0.503064 6.93177 0
M  V30 12377 H 1169.69 -0.627451 4.63876 0
M  V30 12378 H 1169.86 -0.617556 6.45051 0
M  V30 12379 N 1163.26 -1.53291 -0.366026 0
M  V30 12380 C 1164.49 -1.73359 -1.12934 0
M  V30 12381 C 1164.91 -0.462352 -1.83051 0
M  V30 12382 O 1164.26 0.564711 -1.73543 0
M  V30 12383 C 1164.32 -2.89873 -2.15999 0
M  V30 12384 O 1164.04 -4.12079 -1.48737 0
M  V30 12385 C 1165.54 -3.21811 -3.04881 0
M  V30 12386 H 1162.76 -0.579827 -0.337701 0
M  V30 12387 H 1165.3 -2.00033 -0.425081 0
M  V30 12388 H 1163.46 -2.65595 -2.82025 0
M  V30 12389 H 1163.87 -4.77322 -2.17404 0
M  V30 12390 H 1165.34 -4.06744 -3.7318 0
M  V30 12391 H 1165.82 -2.37156 -3.69667 0
M  V30 12392 H 1166.43 -3.48013 -2.44473 0
M  V30 12393 N 1164.74 0.6258 -1.44643 0
M  V30 12394 C 1165.99 1.3873 -1.47925 0
M  V30 12395 C 1166.32 1.93868 -0.113469 0
M  V30 12396 O 1165.6 1.73976 0.869639 0
M  V30 12397 C 1165.88 2.54867 -2.54391 0
M  V30 12398 C 1165.73 2.05044 -4.00346 0
M  V30 12399 C 1167.05 3.57043 -2.57309 0
M  V30 12400 H 1164.17 0.503087 -0.538584 0
M  V30 12401 H 1166.81 0.707102 -1.76352 0
M  V30 12402 H 1164.96 3.12894 -2.30281 0
M  V30 12403 H 1166.63 1.51807 -4.35606 0
M  V30 12404 H 1164.88 1.36185 -4.11869 0
M  V30 12405 H 1165.55 2.88681 -4.70497 0
M  V30 12406 H 1168.02 3.08826 -2.78865 0
M  V30 12407 H 1166.9 4.35818 -3.33698 0
M  V30 12408 H 1167.16 4.11464 -1.61708 0
M  V30 12409 N 1166.22 1.31629 0.866686 0
M  V30 12410 C 1167.47 1.20861 1.61479 0
M  V30 12411 C 1167.78 -0.231208 1.94229 0
M  V30 12412 O 1168.99 -0.460618 2.67564 0
M  V30 12413 C 1167.44 2.11602 2.91123 0
M  V30 12414 C 1167.05 3.60598 2.65844 0
M  V30 12415 C 1168.8 2.09642 3.69121 0
M  V30 12416 C 1166.7 4.43337 3.91415 0
M  V30 12417 H 1165.63 0.448783 0.605896 0
M  V30 12418 H 1168.28 1.56507 0.958001 0
M  V30 12419 H 1166.67 1.68858 3.58194 0
M  V30 12420 H 1167.84 4.11609 2.07159 0
M  V30 12421 H 1166.16 3.64568 2.01194 0
M  V30 12422 H 1168.75 2.68701 4.62281 0
M  V30 12423 H 1169.1 1.08438 4.01929 0
M  V30 12424 H 1169.63 2.50603 3.08938 0
M  V30 12425 H 1166.37 5.45309 3.63756 0
M  V30 12426 H 1165.89 3.97083 4.49539 0
M  V30 12427 H 1167.57 4.5572 4.5927 0
M  V30 12428 N 1167.7 -1.08142 1.14644 0
M  V30 12429 C 1168.92 -1.84857 0.940349 0
M  V30 12430 C 1169.35 -1.81163 -0.506117 0
M  V30 12431 O 1168.71 -1.19869 -1.36019 0
M  V30 12432 C 1168.76 -3.30198 1.4492 0
M  V30 12433 O 1167.86 -4.07355 0.64308 0
M  V30 12434 H 1167.2 -0.572711 0.336003 0
M  V30 12435 H 1169.73 -1.36475 1.52432 0
M  V30 12436 H 1169.74 -3.81039 1.45854 0
M  V30 12437 H 1168.42 -3.32202 2.50229 0
M  V30 12438 H 1166.99 -3.66219 0.702698 0
M  V30 12439 N 1169.18 -0.941978 -1.26351 0
M  V30 12440 C 1170.13 -0.443011 -2.28342 0
M  V30 12441 C 1171.12 0.48013 -1.62453 0
M  V30 12442 O 1172.33 0.358255 -1.76399 0
M  V30 12443 H 1168.7 -0.124728 -0.741584 0
M  V30 12444 H 1170.67 -1.31573 -2.67827 0
M  V30 12445 C 1169.42 0.275675 -3.46605 0
M  V30 12446 H 1168.74 -0.425504 -3.97529 0
M  V30 12447 H 1170.18 0.589012 -4.19889 0
M  V30 12448 C 1168.64 1.49376 -3.01974 0
M  V30 12449 O 1169.17 2.59203 -3.06883 0
M  V30 12450 N 1167.38 1.35061 -2.57307 0
M  V30 12451 H 1166.93 0.457045 -2.53513 0
M  V30 12452 H 1166.88 2.16681 -2.27809 0
M  V30 12453 N 1170.66 1.40747 -0.709091 0
M  V30 12454 C 1171.59 2.33404 -0.0669763 0
M  V30 12455 C 1172.57 1.52546 0.752582 0
M  V30 12456 O 1173.75 1.81036 0.702823 0
M  V30 12457 C 1170.88 3.36476 0.860285 0
M  V30 12458 C 1169.84 4.27748 0.146828 0
M  V30 12459 C 1169.16 5.21304 1.18937 0
M  V30 12460 C 1170.46 5.12734 -0.995064 0
M  V30 12461 H 1172.16 2.87349 -0.840888 0
M  V30 12462 H 1169.7 1.38163 -0.405817 0
M  V30 12463 H 1171.65 4.00231 1.31883 0
M  V30 12464 H 1170.38 2.80912 1.66602 0
M  V30 12465 H 1169.04 3.65437 -0.291826 0
M  V30 12466 H 1168.69 4.62048 1.98798 0
M  V30 12467 H 1168.39 5.8321 0.716917 0
M  V30 12468 H 1169.91 5.87936 1.64815 0
M  V30 12469 H 1171.32 5.69979 -0.61618 0
M  V30 12470 H 1169.72 5.83649 -1.39547 0
M  V30 12471 H 1170.79 4.49097 -1.82867 0
M  V30 12472 N 1172.13 0.454803 1.50895 0
M  V30 12473 C 1173.55 0.108037 1.59234 0
M  V30 12474 C 1173.75 -1.38416 1.46435 0
M  V30 12475 O 1172.81 -2.15586 1.31449 0
M  V30 12476 C 1174.12 0.643721 2.93729 0
M  V30 12477 C 1175.67 0.605703 3.07083 0
M  V30 12478 C 1176.14 1.11865 4.44128 0
M  V30 12479 N 1177.63 1.07738 4.50496 0
M  V30 12480 C 1178.37 1.44495 5.54895 0
M  V30 12481 N 1177.86 1.88624 6.66628 0
M  V30 12482 N 1179.66 1.36201 5.45349 0
M  V30 12483 H 1171.81 1.4255 1.57459 0
M  V30 12484 H 1174.07 0.588504 0.743214 0
M  V30 12485 H 1173.78 1.68844 3.0852 0
M  V30 12486 H 1173.65 0.0782404 3.77119 0
M  V30 12487 H 1176.04 -0.430065 2.91949 0
M  V30 12488 H 1176.12 1.2078 2.2549 0
M  V30 12489 H 1175.76 2.15297 4.6001 0
M  V30 12490 H 1175.69 0.492933 5.24288 0
M  V30 12491 H 1178.18 0.753526 3.70311 0
M  V30 12492 H 1178.5 2.14863 7.4233 0
M  V30 12493 H 1176.84 1.92564 6.6779 0
M  V30 12494 H 1180.03 1.01579 4.56946 0
M  V30 12495 H 1180.21 1.65175 6.26595 0
M  V30 12496 N 1173.61 -1.56489 0.186789 0
M  V30 12497 C 1175.02 -1.83809 -0.327265 0
M  V30 12498 C 1175.37 -1.10718 -1.61976 0
M  V30 12499 O 1174.5 -0.36525 -2.13295 0
M  V30 12500 C 1175.09 -3.33435 -0.600551 0
M  V30 12501 C 1173.65 -3.61195 -1.059 0
M  V30 12502 C 1172.8 -2.77108 -0.103131 0
M  V30 12503 H 1175.75 -1.53292 0.410747 0
M  V30 12504 H 1175.77 -3.51754 -1.45084 0
M  V30 12505 H 1175.28 -3.86605 0.340315 0
M  V30 12506 H 1173.38 -3.13451 -2.01443 0
M  V30 12507 H 1173.5 -4.69435 -0.957458 0
M  V30 12508 H 1171.86 -2.47448 -0.603449 0
M  V30 12509 H 1172.64 -3.33065 0.832031 0
M  V30 12510 N 1175.09 0.086862 -1.5736 0
M  V30 12511 C 1176.34 0.78884 -1.86504 0
M  V30 12512 C 1176.66 1.78329 -0.77646 0
M  V30 12513 O 1175.92 1.94354 0.229122 0
M  V30 12514 C 1176.22 1.54537 -3.22263 0
M  V30 12515 C 1175.88 0.692284 -4.45554 0
M  V30 12516 C 1174.55 0.45714 -4.79024 0
M  V30 12517 C 1176.9 0.0997695 -5.21105 0
M  V30 12518 C 1174.23 -0.380247 -5.85466 0
M  V30 12519 C 1176.58 -0.724986 -6.28432 0
M  V30 12520 C 1175.24 -0.970144 -6.60412 0
M  V30 12521 H 1174.51 0.288657 -0.682465 0
M  V30 12522 H 1177.16 0.050059 -1.91435 0
M  V30 12523 H 1175.46 2.35594 -3.13053 0
M  V30 12524 H 1177.16 2.09305 -3.42042 0
M  V30 12525 H 1173.75 0.885675 -4.19349 0
M  V30 12526 H 1177.94 0.268583 -4.95573 0
M  V30 12527 H 1173.19 -0.579084 -6.08651 0
M  V30 12528 H 1177.37 -1.19093 -6.86141 0
M  V30 12529 H 1174.99 -1.6208 -7.42721 0
M  V30 12530 N 1176.57 1.53483 0.357892 0
M  V30 12531 C 1177.8 1.73956 1.12013 0
M  V30 12532 C 1178.21 0.472053 1.82803 0
M  V30 12533 O 1177.57 -0.555499 1.7384 0
M  V30 12534 C 1177.62 2.91015 2.14459 0
M  V30 12535 O 1177.34 4.12862 1.4655 0
M  V30 12536 C 1178.84 3.23423 3.0317 0
M  V30 12537 H 1176.06 0.58161 0.334621 0
M  V30 12538 H 1178.6 2.00256 0.414467 0
M  V30 12539 H 1176.76 2.67087 2.80612 0
M  V30 12540 H 1177.17 4.78468 2.14869 0
M  V30 12541 H 1178.65 4.08717 3.71018 0
M  V30 12542 H 1179.12 2.39114 3.68404 0
M  V30 12543 H 1179.73 3.49305 2.42624 0
M  V30 12544 N 1178.05 -0.61812 1.44973 0
M  V30 12545 C 1178.98 -1.74035 1.55673 0
M  V30 12546 C 1179.96 -1.65112 0.4089 0
M  V30 12547 O 1181.14 -1.83673 0.630698 0
M  V30 12548 C 1178.27 -3.1261 1.51303 0
M  V30 12549 C 1177.23 -3.36334 2.64696 0
M  V30 12550 C 1176.55 -4.75072 2.45378 0
M  V30 12551 C 1177.85 -3.27618 4.06772 0
M  V30 12552 H 1179.55 -1.65336 2.49608 0
M  V30 12553 H 1177.09 -0.794003 1.20132 0
M  V30 12554 H 1179.04 -3.90906 1.57388 0
M  V30 12555 H 1177.77 -3.22123 0.538914 0
M  V30 12556 H 1176.43 -2.60423 2.58022 0
M  V30 12557 H 1176.08 -4.81306 1.46129 0
M  V30 12558 H 1175.78 -4.91903 3.21412 0
M  V30 12559 H 1177.3 -5.55582 2.53301 0
M  V30 12560 H 1178.71 -3.95802 4.14746 0
M  V30 12561 H 1177.11 -3.55981 4.83113 0
M  V30 12562 H 1178.18 -2.25219 4.29423 0
M  V30 12563 N 1179.52 -1.32087 -0.859693 0
M  V30 12564 C 1180.75 -1.25167 -1.64368 0
M  V30 12565 C 1181.16 0.183572 -1.88307 0
M  V30 12566 O 1180.5 1.12945 -1.44876 0
M  V30 12567 C 1180.57 -1.93641 -3.02892 0
M  V30 12568 C 1180.23 -3.4298 -3.02017 0
M  V30 12569 C 1181.23 -4.38551 -2.79229 0
M  V30 12570 C 1178.91 -3.84835 -3.22812 0
M  V30 12571 C 1180.91 -5.73952 -2.77232 0
M  V30 12572 C 1178.59 -5.20346 -3.20442 0
M  V30 12573 C 1179.59 -6.14716 -2.97681 0
M  V30 12574 O 1179.28 -7.47748 -2.95175 0
M  V30 12575 H 1179.01 -0.433327 -0.518848 0
M  V30 12576 H 1181.57 -1.7468 -1.08055 0
M  V30 12577 H 1179.8 -1.3869 -3.60974 0
M  V30 12578 H 1181.48 -1.80497 -3.63559 0
M  V30 12579 H 1182.25 -4.07542 -2.62935 0
M  V30 12580 H 1178.13 -3.11806 -3.39555 0
M  V30 12581 H 1181.67 -6.47584 -2.59385 0
M  V30 12582 H 1177.57 -5.50987 -3.36279 0
M  V30 12583 H 1178.34 -7.57046 -3.11165 0
M  V30 12584 N 1181 1.07532 -1.15215 0
M  V30 12585 C 1182.42 1.32183 -0.894411 0
M  V30 12586 C 1182.62 1.96188 0.459614 0
M  V30 12587 O 1181.67 2.22057 1.20195 0
M  V30 12588 C 1182.99 2.21473 -2.03397 0
M  V30 12589 C 1184.53 2.34927 -2.06829 0
M  V30 12590 C 1185.01 3.27564 -3.20103 0
M  V30 12591 N 1186.5 3.35144 -3.19738 0
M  V30 12592 C 1187.24 4.0688 -4.04025 0
M  V30 12593 N 1186.73 4.81246 -4.98371 0
M  V30 12594 N 1188.52 4.02802 -3.92055 0
M  V30 12595 H 1180.68 0.643732 -2.0241 0
M  V30 12596 H 1182.94 0.346272 -0.882496 0
M  V30 12597 H 1182.64 1.81701 -3.01127 0
M  V30 12598 H 1182.52 3.2199 -1.96475 0
M  V30 12599 H 1184.91 2.73953 -1.09699 0
M  V30 12600 H 1184.99 1.34121 -2.17819 0
M  V30 12601 H 1184.63 2.89258 -4.17483 0
M  V30 12602 H 1184.56 4.2832 -3.06349 0
M  V30 12603 H 1187.05 2.82135 -2.51412 0
M  V30 12604 H 1187.36 5.33472 -5.59131 0
M  V30 12605 H 1185.71 4.80268 -5.02362 0
M  V30 12606 H 1188.9 3.43816 -3.17661 0
M  V30 12607 H 1189.07 4.58443 -4.57967 0
M  V30 12608 N 1182.48 0.948665 1.2585 0
M  V30 12609 C 1183.73 0.595938 1.92695 0
M  V30 12610 C 1184.04 -0.870229 1.75175 0
M  V30 12611 O 1185.25 -1.33266 2.36543 0
M  V30 12612 C 1183.7 1.01511 3.45288 0
M  V30 12613 C 1183.31 2.50341 3.71528 0
M  V30 12614 C 1185.06 0.734635 4.18095 0
M  V30 12615 C 1182.96 2.8609 5.17597 0
M  V30 12616 H 1181.89 0.219171 0.721443 0
M  V30 12617 H 1184.54 1.15231 1.42807 0
M  V30 12618 H 1182.93 0.387201 3.94102 0
M  V30 12619 H 1184.1 3.18101 3.3339 0
M  V30 12620 H 1182.42 2.75797 3.11969 0
M  V30 12621 H 1185.01 0.977962 5.25681 0
M  V30 12622 H 1185.36 -0.328807 4.14999 0
M  V30 12623 H 1185.89 1.32262 3.75169 0
M  V30 12624 H 1182.63 3.91427 5.25799 0
M  V30 12625 H 1182.15 2.22999 5.56805 0
M  V30 12626 H 1183.83 2.74959 5.85668 0
M  V30 12627 N 1183.96 -1.40369 0.716545 0
M  V30 12628 C 1185.24 -1.94737 0.183576 0
M  V30 12629 C 1185.62 -1.65464 -1.31092 0
M  V30 12630 O 1184.96 -0.972832 -2.06756 0
M  V30 12631 C 1185.17 -3.45438 0.497339 0
M  V30 12632 C 1186.52 -4.2235 0.436526 0
M  V30 12633 O 1187.55 -3.53553 0.433454 0
M  V30 12634 O 1186.4 -5.44923 0.41489 0
M  V30 12635 H 1183.5 -0.82655 0.0272785 0
M  V30 12636 H 1186.04 -1.49972 0.794143 0
M  V30 12637 H 1184.82 -3.60107 1.53097 0
M  V30 12638 H 1184.44 -3.97342 -0.143141 0
M  V30 12639 N 1185.44 -0.462799 -1.50652 0
M  V30 12640 C 1186.69 0.0966838 -2.01468 0
M  V30 12641 C 1187 1.41529 -1.35014 0
M  V30 12642 O 1188.2 2.05923 -1.76941 0
M  V30 12643 C 1186.66 0.222826 -3.5921 0
M  V30 12644 C 1186.27 -1.08686 -4.34616 0
M  V30 12645 C 1188.01 0.734711 -4.18094 0
M  V30 12646 C 1185.92 -0.924964 -5.84122 0
M  V30 12647 H 1184.85 0.0399078 -0.752943 0
M  V30 12648 H 1187.5 -0.596437 -1.73536 0
M  V30 12649 H 1185.88 0.979539 -3.83694 0
M  V30 12650 H 1187.06 -1.85388 -4.21862 0
M  V30 12651 H 1185.37 -1.52922 -3.87303 0
M  V30 12652 H 1187.97 0.872734 -5.2753 0
M  V30 12653 H 1188.31 1.72389 -3.7893 0
M  V30 12654 H 1188.84 0.0356139 -3.97784 0
M  V30 12655 H 1185.58 -1.88727 -6.27744 0
M  V30 12656 H 1185.1 -0.198181 -5.99473 0
M  V30 12657 H 1186.78 -0.588262 -6.4432 0
M  V30 12658 N 1186.91 1.56388 -0.195085 0
M  V30 12659 C 1187.86 2.15705 0.738595 0
M  V30 12660 C 1188.85 1.09782 1.1763 0
M  V30 12661 O 1190.04 1.35844 1.1347 0
M  V30 12662 C 1187.17 2.81994 1.95791 0
M  V30 12663 C 1186.26 3.95108 1.54111 0
M  V30 12664 N 1186.65 4.98856 0.835261 0
M  V30 12665 C 1184.94 4.06709 1.8304 0
M  V30 12666 C 1185.65 5.78317 0.626417 0
M  V30 12667 N 1184.62 5.30746 1.17513 0
M  V30 12668 H 1188.42 2.93281 0.190597 0
M  V30 12669 H 1185.94 1.62399 0.00470391 0
M  V30 12670 H 1187.93 3.22883 2.63728 0
M  V30 12671 H 1186.59 2.05906 2.51063 0
M  V30 12672 H 1187.61 5.1557 0.490732 0
M  V30 12673 H 1184.28 3.41749 2.39821 0
M  V30 12674 H 1185.67 6.71867 0.0664935 0
M  V30 12675 N 1188.39 -0.0785156 1.57404 0
M  V30 12676 C 1189.62 -0.795871 1.91522 0
M  V30 12677 C 1190.04 -1.70665 0.790892 0
M  V30 12678 O 1189.4 -1.79474 -0.25666 0
M  V30 12679 C 1189.45 -1.57121 3.24569 0
M  V30 12680 O 1188.55 -2.6814 3.13328 0
M  V30 12681 H 1187.89 -0.217575 0.627341 0
M  V30 12682 H 1190.42 -0.0487724 2.04542 0
M  V30 12683 H 1190.43 -1.9519 3.5828 0
M  V30 12684 H 1189.11 -0.902909 4.05981 0
M  V30 12685 H 1187.69 -2.32978 2.91163 0
M  V30 12686 N 1189.87 -1.5367 -0.349747 0
M  V30 12687 C 1191.11 -1.72329 -1.09919 0
M  V30 12688 C 1191.47 -0.473178 -1.86078 0
M  V30 12689 O 1192.68 -0.53669 -2.63388 0
M  V30 12690 C 1190.95 -2.94817 -2.02034 0
M  V30 12691 S 1192.51 -3.34257 -2.84285 0
M  V30 12692 H 1189.32 -0.606225 -0.3715 0
M  V30 12693 H 1191.93 -1.91803 -0.378399 0
M  V30 12694 H 1190.63 -3.83979 -1.44874 0
M  V30 12695 H 1190.16 -2.7779 -2.78561 0
M  V30 12696 H 1192.18 -2.87506 -4.04419 0
M  V30 12697 N 1191.35 0.610423 -1.45298 0
M  V30 12698 C 1192.3 1.74245 -1.54083 0
M  V30 12699 C 1193.29 1.64338 -0.411003 0
M  V30 12700 O 1194.5 1.70167 -0.586799 0
M  V30 12701 H 1190.87 0.575612 -0.483916 0
M  V30 12702 H 1192.84 1.63961 -2.49318 0
M  V30 12703 C 1191.59 3.1262 -1.52198 0
M  V30 12704 H 1190.91 3.209 -2.3846 0
M  V30 12705 H 1192.35 3.91665 -1.62403 0
M  V30 12706 C 1190.81 3.36001 -0.24595 0
M  V30 12707 O 1191.34 3.95982 0.675374 0
M  V30 12708 N 1189.55 2.9025 -0.142537 0
M  V30 12709 H 1189.1 2.41621 -0.893143 0
M  V30 12710 H 1189.05 3.06268 0.710427 0
M  V30 12711 N 1192.83 1.32541 0.852676 0
M  V30 12712 C 1193.78 1.18224 1.94954 0
M  V30 12713 C 1194.76 0.0886514 1.60656 0
M  V30 12714 O 1195.95 0.315359 1.74168 0
M  V30 12715 C 1193.08 0.909484 3.31034 0
M  V30 12716 C 1192.17 2.04486 3.71546 0
M  V30 12717 N 1192.56 3.29362 3.83868 0
M  V30 12718 C 1190.86 1.94848 4.01186 0
M  V30 12719 C 1191.56 4.0374 4.18771 0
M  V30 12720 N 1190.53 3.32054 4.30396 0
M  V30 12721 H 1194.34 2.12893 2.02617 0
M  V30 12722 H 1191.85 1.24349 1.04456 0
M  V30 12723 H 1193.85 0.787865 4.09388 0
M  V30 12724 H 1192.51 -0.0288163 3.24687 0
M  V30 12725 H 1193.52 3.64274 3.68137 0
M  V30 12726 H 1190.19 1.08591 4.0313 0
M  V30 12727 H 1191.58 5.11434 4.35757 0
M  V30 12728 N 1194.3 -1.0692 1.15784 0
M  V30 12729 C 1195.21 -2.17762 0.872753 0
M  V30 12730 C 1196.23 -1.73329 -0.152608 0
M  V30 12731 O 1197.41 -2.01387 0.022519 0
M  V30 12732 C 1194.47 -3.4471 0.370887 0
M  V30 12733 C 1193.53 -4.03686 1.46069 0
M  V30 12734 C 1192.77 -5.24575 0.982675 0
M  V30 12735 O 1192.99 -5.70146 -0.17006 0
M  V30 12736 O 1191.92 -5.7534 1.76828 0
M  V30 12737 H 1195.75 -2.44648 1.79948 0
M  V30 12738 H 1193.33 -1.1634 0.937303 0
M  V30 12739 H 1195.22 -4.21287 0.0976779 0
M  V30 12740 H 1193.89 -3.19366 -0.527912 0
M  V30 12741 H 1192.8 -3.28629 1.78756 0
M  V30 12742 H 1194.13 -4.33312 2.33456 0
M  V30 12743 N 1195.78 -0.955326 -1.25345 0
M  V30 12744 C 1196.75 -0.480564 -2.24105 0
M  V30 12745 C 1197.75 0.416123 -1.55322 0
M  V30 12746 O 1198.94 0.213315 -1.72889 0
M  V30 12747 C 1196.07 0.305589 -3.39528 0
M  V30 12748 H 1197.26 -1.35349 -2.6762 0
M  V30 12749 H 1194.81 -0.738673 -1.37744 0
M  V30 12750 H 1195.55 1.19615 -3.01434 0
M  V30 12751 H 1195.33 -0.337719 -3.90643 0
M  V30 12752 H 1196.82 0.627201 -4.12863 0
M  V30 12753 N 1197.26 1.39987 -0.723979 0
M  V30 12754 C 1198.17 2.3447 -0.0780936 0
M  V30 12755 C 1199.19 1.57744 0.734368 0
M  V30 12756 O 1200.36 1.90091 0.665385 0
M  V30 12757 C 1197.43 3.36705 0.826492 0
M  V30 12758 C 1196.49 4.293 0.00303036 0
M  V30 12759 C 1195.72 5.26651 0.864535 0
M  V30 12760 O 1195.95 5.30194 2.10357 0
M  V30 12761 O 1194.88 6.01157 0.299057 0
M  V30 12762 H 1198.71 2.91338 -0.857646 0
M  V30 12763 H 1196.29 1.41324 -0.484536 0
M  V30 12764 H 1198.17 3.9938 1.34439 0
M  V30 12765 H 1196.85 2.82237 1.58505 0
M  V30 12766 H 1195.75 3.69883 -0.560136 0
M  V30 12767 H 1197.09 4.86942 -0.717494 0
M  V30 12768 N 1198.74 0.470782 1.50404 0
M  V30 12769 C 1199.69 -0.32355 2.28521 0
M  V30 12770 C 1200.66 -0.987472 1.3356 0
M  V30 12771 O 1201.84 -0.999969 1.62497 0
M  V30 12772 C 1198.98 -1.39977 3.15437 0
M  V30 12773 C 1198.09 -0.750656 4.25428 0
M  V30 12774 C 1197.23 -1.80474 4.99602 0
M  V30 12775 C 1196.27 -1.13586 6.01469 0
M  V30 12776 N 1195.41 -2.13279 6.68922 0
M  V30 12777 H 1200.25 0.348902 2.9595 0
M  V30 12778 H 1197.78 0.183908 1.45946 0
M  V30 12779 H 1199.74 -2.0354 3.6418 0
M  V30 12780 H 1198.37 -2.04139 2.50054 0
M  V30 12781 H 1197.42 -0.00247092 3.804 0
M  V30 12782 H 1198.73 -0.222638 4.98303 0
M  V30 12783 H 1197.89 -2.51619 5.52062 0
M  V30 12784 H 1196.63 -2.36657 4.26433 0
M  V30 12785 H 1195.63 -0.410042 5.48269 0
M  V30 12786 H 1196.86 -0.580935 6.76611 0
M  V30 12787 H 1194.8 -2.68479 5.98544 0
M  V30 12788 H 1194.72 -1.65461 7.37671 0
M  V30 12789 H 1195.99 -2.83804 7.26 0
M  V30 12790 N 1200.22 -1.56282 0.203376 0
M  V30 12791 C 1201.15 -2.2247 -0.709183 0
M  V30 12792 C 1202.13 -1.19046 -1.21499 0
M  V30 12793 O 1203.31 -1.47578 -1.26231 0
M  V30 12794 C 1200.44 -2.8905 -1.92529 0
M  V30 12795 C 1199.4 -3.98789 -1.55407 0
M  V30 12796 C 1198.72 -4.52574 -2.84747 0
M  V30 12797 C 1200.02 -5.16774 -0.75775 0
M  V30 12798 H 1201.72 -2.98986 -0.157392 0
M  V30 12799 H 1199.26 -1.43808 -0.0742613 0
M  V30 12800 H 1201.22 -3.34038 -2.56898 0
M  V30 12801 H 1199.94 -2.09952 -2.50175 0
M  V30 12802 H 1198.6 -3.54504 -0.933928 0
M  V30 12803 H 1198.25 -3.70229 -3.40499 0
M  V30 12804 H 1197.95 -5.26627 -2.6065 0
M  V30 12805 H 1199.47 -5.00269 -3.5009 0
M  V30 12806 H 1200.89 -5.58256 -1.30472 0
M  V30 12807 H 1199.28 -5.96945 -0.614583 0
M  V30 12808 H 1200.35 -4.84308 0.239476 0
M  V30 12809 N 1201.7 0.070167 -1.57444 0
M  V30 12810 C 1202.94 0.767495 -1.8696 0
M  V30 12811 C 1203.26 1.78032 -0.795595 0
M  V30 12812 O 1202.53 1.95112 0.175566 0
M  V30 12813 H 1201.11 0.286443 -0.689898 0
M  V30 12814 H 1203.78 0.0458692 -1.94846 0
M  V30 12815 H 1202.87 1.28269 -2.84523 0
M  V30 12816 N 1203.17 1.53854 0.341593 0
M  V30 12817 C 1204.41 1.72909 1.09004 0
M  V30 12818 C 1204.78 0.48304 1.85824 0
M  V30 12819 O 1205.98 0.550651 2.63099 0
M  V30 12820 C 1204.25 2.95884 2.00468 0
M  V30 12821 S 1205.81 3.3576 2.82508 0
M  V30 12822 H 1202.63 0.608187 0.368279 0
M  V30 12823 H 1205.23 1.92001 0.368222 0
M  V30 12824 H 1203.93 3.84742 1.42836 0
M  V30 12825 H 1203.46 2.79263 2.77084 0
M  V30 12826 H 1205.48 2.89647 4.02888 0
M  V30 12827 N 1204.65 -0.602709 1.4562 0
M  V30 12828 C 1205.88 -1.39299 1.53657 0
M  V30 12829 C 1206.3 -1.87315 0.171632 0
M  V30 12830 O 1205.66 -1.60423 -0.844639 0
M  V30 12831 C 1205.71 -2.57021 2.52928 0
M  V30 12832 O 1204.81 -3.57812 2.05047 0
M  V30 12833 H 1204.15 -0.41567 0.517798 0
M  V30 12834 H 1206.68 -0.73304 1.91018 0
M  V30 12835 H 1206.69 -3.04202 2.71892 0
M  V30 12836 H 1205.37 -2.21422 3.52058 0
M  V30 12837 H 1203.94 -3.17247 1.95981 0
M  V30 12838 N 1206.13 -1.32992 -0.845635 0
M  V30 12839 C 1207.09 -1.22607 -1.9365 0
M  V30 12840 C 1208.09 -0.146812 -1.60128 0
M  V30 12841 O 1209.28 -0.397863 -1.69596 0
M  V30 12842 C 1206.41 -0.887677 -3.2914 0
M  V30 12843 H 1207.61 -2.19563 -2.04285 0
M  V30 12844 H 1205.16 -1.16952 -1.03691 0
M  V30 12845 H 1205.9 0.0796777 -3.24202 0
M  V30 12846 H 1205.68 -1.66808 -3.54849 0
M  V30 12847 H 1207.17 -0.83958 -4.09073 0
M  V30 12848 N 1207.61 1.06304 -1.1635 0
M  V30 12849 C 1208.83 1.83338 -0.969639 0
M  V30 12850 C 1209.26 1.81945 0.477231 0
M  V30 12851 O 1208.62 1.22018 1.34094 0
M  V30 12852 C 1208.66 3.2785 -1.50155 0
M  V30 12853 O 1207.77 4.06281 -0.707805 0
M  V30 12854 H 1207.11 0.567293 -0.345072 0
M  V30 12855 H 1209.64 1.34033 -1.54584 0
M  V30 12856 H 1209.65 3.7867 -1.51898 0
M  V30 12857 H 1208.32 3.28179 -2.55483 0
M  V30 12858 H 1206.9 3.65055 -0.760872 0
M  V30 12859 N 1209.09 0.96196 1.24836 0
M  V30 12860 C 1210.03 0.479282 2.27609 0
M  V30 12861 C 1211.03 -0.454224 1.63197 0
M  V30 12862 O 1212.23 -0.330146 1.76946 0
M  V30 12863 H 1208.61 0.13651 0.739506 0
M  V30 12864 H 1210.58 1.35817 2.657 0
M  V30 12865 C 1209.33 -0.220499 3.47 0
M  V30 12866 H 1208.65 0.488694 3.96802 0
M  V30 12867 H 1210.09 -0.522137 4.20773 0
M  V30 12868 C 1208.55 -1.44552 3.04313 0
M  V30 12869 O 1209.08 -2.54287 3.10967 0
M  V30 12870 N 1207.29 -1.3095 2.59423 0
M  V30 12871 H 1206.83 -0.416656 2.54208 0
M  V30 12872 H 1206.79 -2.13029 2.31227 0
M  V30 12873 N 1210.56 -1.39601 0.731392 0
M  V30 12874 C 1211.81 -2.00586 0.277756 0
M  V30 12875 C 1212.14 -1.58027 -1.13391 0
M  V30 12876 O 1211.39 -0.798691 -1.7866 0
M  V30 12877 C 1211.69 -3.55934 0.323352 0
M  V30 12878 C 1211.36 -4.18131 1.68753 0
M  V30 12879 C 1210.02 -4.34833 2.06092 0
M  V30 12880 C 1212.37 -4.5267 2.58339 0
M  V30 12881 C 1209.7 -4.83362 3.32532 0
M  V30 12882 C 1212.05 -5.02607 3.84148 0
M  V30 12883 C 1210.72 -5.17517 4.21584 0
M  V30 12884 H 1209.99 -0.733996 0.101638 0
M  V30 12885 H 1212.63 -1.66981 0.937528 0
M  V30 12886 H 1210.94 -3.89542 -0.419995 0
M  V30 12887 H 1212.64 -4.00974 -0.0457235 0
M  V30 12888 H 1209.23 -4.0553 1.38722 0
M  V30 12889 H 1213.41 -4.39388 2.30763 0
M  V30 12890 H 1208.67 -4.93091 3.61485 0
M  V30 12891 H 1212.84 -5.28306 4.53724 0
M  V30 12892 H 1210.47 -5.54882 5.19625 0
M  V30 12893 N 1212.04 -0.478751 -1.50152 0
M  V30 12894 C 1213.29 0.073694 -2.02666 0
M  V30 12895 C 1213.62 1.38679 -1.35947 0
M  V30 12896 O 1212.9 1.88286 -0.4877 0
M  V30 12897 C 1213.18 0.249516 -3.59235 0
M  V30 12898 C 1213.03 -1.08514 -4.36514 0
M  V30 12899 C 1214.35 1.00053 -4.28576 0
M  V30 12900 H 1211.47 0.0253082 -0.736565 0
M  V30 12901 H 1214.11 -0.625834 -1.79397 0
M  V30 12902 H 1212.26 0.845343 -3.79192 0
M  V30 12903 H 1213.93 -1.71814 -4.28109 0
M  V30 12904 H 1212.18 -1.67992 -3.99952 0
M  V30 12905 H 1212.85 -0.915676 -5.44352 0
M  V30 12906 H 1215.32 0.495422 -4.1314 0
M  V30 12907 H 1214.2 1.09236 -5.37921 0
M  V30 12908 H 1214.46 2.03896 -3.92274 0
M  V30 12909 N 1213.52 1.56172 -0.211661 0
M  V30 12910 C 1214.77 1.98039 0.422706 0
M  V30 12911 C 1215.1 1.09904 1.60472 0
M  V30 12912 O 1214.35 0.141771 1.95186 0
M  V30 12913 C 1214.65 3.45636 0.909442 0
M  V30 12914 C 1214.32 4.50613 -0.160982 0
M  V30 12915 C 1212.98 4.79043 -0.455064 0
M  V30 12916 C 1215.33 5.13624 -0.885426 0
M  V30 12917 C 1212.66 5.67771 -1.47828 0
M  V30 12918 C 1215.01 6.03459 -1.8979 0
M  V30 12919 C 1213.67 6.30238 -2.19901 0
M  V30 12920 H 1212.94 0.724676 0.154679 0
M  V30 12921 H 1215.59 1.8894 -0.312106 0
M  V30 12922 H 1213.9 3.51889 1.72283 0
M  V30 12923 H 1215.59 3.75395 1.40995 0
M  V30 12924 H 1212.18 4.28528 0.0783864 0
M  V30 12925 H 1216.37 4.91737 -0.671463 0
M  V30 12926 H 1211.62 5.86787 -1.7173 0
M  V30 12927 H 1215.8 6.51338 -2.46438 0
M  V30 12928 H 1213.42 6.98788 -2.9933 0
M  V30 12929 N 1215 -0.0618163 1.57479 0
M  V30 12930 C 1215.96 -1.05684 2.0338 0
M  V30 12931 C 1216.96 -1.31006 0.932423 0
M  V30 12932 O 1218.15 -1.26559 1.19702 0
M  V30 12933 C 1215.28 -2.39805 2.42294 0
M  V30 12934 H 1216.48 -0.661006 2.92525 0
M  V30 12935 H 1214.03 -0.307814 1.53239 0
M  V30 12936 H 1214.76 -2.84201 1.56207 0
M  V30 12937 H 1214.55 -2.22764 3.22674 0
M  V30 12938 H 1216.04 -3.11307 2.78349 0
M  V30 12939 N 1216.48 -1.54033 -0.333429 0
M  V30 12940 C 1217.89 -1.44522 -0.677166 0
M  V30 12941 C 1218.09 -0.610122 -1.92041 0
M  V30 12942 O 1217.15 -0.105058 -2.52281 0
M  V30 12943 C 1218.46 -2.88129 -0.860369 0
M  V30 12944 C 1220.01 -2.97968 -0.958342 0
M  V30 12945 C 1220.48 -4.42703 -1.17379 0
M  V30 12946 N 1221.98 -4.46273 -1.24075 0
M  V30 12947 C 1222.71 -5.55407 -1.42515 0
M  V30 12948 N 1222.21 -6.74528 -1.58062 0
M  V30 12949 N 1224 -5.43037 -1.45144 0
M  V30 12950 H 1216.15 -2.06815 0.483858 0
M  V30 12951 H 1218.41 -0.935307 0.15461 0
M  V30 12952 H 1218.12 -3.51695 -0.0182085 0
M  V30 12953 H 1217.99 -3.33668 -1.75913 0
M  V30 12954 H 1220.38 -2.34535 -1.79102 0
M  V30 12955 H 1220.46 -2.55774 -0.0362643 0
M  V30 12956 H 1220.11 -5.0672 -0.346004 0
M  V30 12957 H 1220.04 -4.82498 -2.10959 0
M  V30 12958 H 1222.53 -3.60439 -1.13545 0
M  V30 12959 H 1222.84 -7.53462 -1.71797 0
M  V30 12960 H 1221.18 -6.77454 -1.55179 0
M  V30 12961 H 1224.38 -4.4893 -1.32588 0
M  V30 12962 H 1224.55 -6.28146 -1.59173 0
M  V30 12963 N 1217.95 0.594978 -1.45938 0
M  V30 12964 C 1219.18 1.37994 -1.5416 0
M  V30 12965 C 1219.6 1.87954 -0.17848 0
M  V30 12966 O 1218.95 1.62932 0.822161 0
M  V30 12967 C 1219.01 2.57586 -2.53637 0
M  V30 12968 O 1218.73 2.09698 -3.84653 0
M  V30 12969 C 1220.23 3.50292 -2.71681 0
M  V30 12970 H 1217.45 0.421983 -0.5217 0
M  V30 12971 H 1219.99 0.724459 -1.91238 0
M  V30 12972 H 1218.15 3.19149 -2.19597 0
M  V30 12973 H 1218.56 2.87492 -4.3869 0
M  V30 12974 H 1220.03 4.30717 -3.45234 0
M  V30 12975 H 1220.51 4.01444 -1.78156 0
M  V30 12976 H 1221.12 2.94573 -3.06768 0
M  V30 12977 N 1219.43 1.33438 0.838571 0
M  V30 12978 C 1220.37 1.18055 1.9529 0
M  V30 12979 C 1221.34 0.075958 1.62422 0
M  V30 12980 O 1222.53 0.23825 1.86988 0
M  V30 12981 C 1219.65 0.810795 3.28852 0
M  V30 12982 C 1218.7 1.92293 3.80691 0
M  V30 12983 S 1219.53 3.53395 4.02334 0
M  V30 12984 C 1220.69 3.18426 5.38846 0
M  V30 12985 H 1220.92 2.12384 2.08039 0
M  V30 12986 H 1218.46 1.18284 0.992385 0
M  V30 12987 H 1220.41 0.604235 4.06029 0
M  V30 12988 H 1219.07 -0.113894 3.13893 0
M  V30 12989 H 1218.27 1.61758 4.77337 0
M  V30 12990 H 1217.87 2.08617 3.10411 0
M  V30 12991 H 1220.16 2.6927 6.21691 0
M  V30 12992 H 1221.1 4.14153 5.74354 0
M  V30 12993 H 1221.51 2.55016 5.03614 0
M  V30 12994 N 1220.91 -1.05686 1.16912 0
M  V30 12995 C 1222.32 -1.60059 0.961153 0
M  V30 12996 C 1222.67 -1.89894 -0.493409 0
M  V30 12997 O 1221.8 -1.67692 -1.36778 0
M  V30 12998 C 1222.39 -2.90803 1.73837 0
M  V30 12999 C 1220.95 -3.41854 1.57522 0
M  V30 13000 C 1220.1 -2.15658 1.74319 0
M  V30 13001 H 1223.05 -0.885592 1.31693 0
M  V30 13002 H 1223.07 -3.60485 1.21781 0
M  V30 13003 H 1222.58 -2.69056 2.79697 0
M  V30 13004 H 1220.68 -3.68647 0.541284 0
M  V30 13005 H 1220.8 -4.16771 2.36302 0
M  V30 13006 H 1219.16 -2.26177 1.17115 0
M  V30 13007 H 1219.94 -1.96386 2.8158 0
M  V30 13008 N 1222.39 -0.968567 -1.24324 0
M  V30 13009 C 1223.35 -0.504307 -2.23583 0
M  V30 13010 C 1224.35 0.399626 -1.55755 0
M  V30 13011 O 1225.54 0.194966 -1.73106 0
M  V30 13012 C 1222.67 0.26956 -3.39833 0
M  V30 13013 H 1223.87 -1.3818 -2.6617 0
M  V30 13014 H 1221.42 -0.753241 -1.36952 0
M  V30 13015 H 1222.15 1.16411 -3.02686 0
M  V30 13016 H 1221.94 -0.379133 -3.90263 0
M  V30 13017 H 1223.43 0.583376 -4.13505 0
M  V30 13018 N 1223.87 1.39211 -0.738786 0
M  V30 13019 C 1224.78 2.34374 -0.102958 0
M  V30 13020 C 1225.79 1.58514 0.717596 0
M  V30 13021 O 1226.97 1.90786 0.645186 0
M  V30 13022 C 1224.03 3.37562 0.790733 0
M  V30 13023 C 1223.09 4.29279 -0.0425028 0
M  V30 13024 C 1222.33 5.27539 0.808628 0
M  V30 13025 O 1222.55 5.32396 2.04722 0
M  V30 13026 O 1221.48 6.0144 0.235279 0
M  V30 13027 H 1225.31 2.90412 -0.888498 0
M  V30 13028 H 1222.9 1.40803 -0.499498 0
M  V30 13029 H 1224.78 4.00783 1.30196 0
M  V30 13030 H 1223.45 2.83903 1.55502 0
M  V30 13031 H 1222.36 3.69268 -0.599335 0
M  V30 13032 H 1223.69 4.86154 -0.7691 0
M  V30 13033 N 1225.34 0.486708 1.49896 0
M  V30 13034 C 1226.59 -0.0627279 2.02003 0
M  V30 13035 C 1226.91 -1.38799 1.36967 0
M  V30 13036 O 1226.18 -1.88868 0.520173 0
M  V30 13037 H 1224.76 -0.0261718 0.746541 0
M  V30 13038 H 1227.43 0.640692 1.84068 0
M  V30 13039 H 1226.52 -0.202856 3.1144 0
M  V30 13040 N 1226.82 -1.56058 0.219941 0
M  V30 13041 C 1227.79 -2.18964 -0.677303 0
M  V30 13042 C 1228.79 -1.15105 -1.12283 0
M  V30 13043 O 1229.98 -1.40348 -1.03189 0
M  V30 13044 C 1227.11 -2.81167 -1.92764 0
M  V30 13045 H 1228.3 -2.99623 -0.128877 0
M  V30 13046 H 1225.85 -1.56272 -0.0296744 0
M  V30 13047 H 1226.59 -2.04374 -2.51797 0
M  V30 13048 H 1226.37 -3.5722 -1.61666 0
M  V30 13049 H 1227.86 -3.29391 -2.56693 0
M  V30 13050 N 1228.3 0.053464 -1.57509 0
M  V30 13051 C 1229.58 0.783141 -1.79238 0
M  V30 13052 C 1229.96 1.94855 -0.812069 0
M  V30 13053 O 1229.31 2.28 0.151006 0
M  V30 13054 C 1229.52 1.239 -3.26266 0
M  V30 13055 C 1230.86 1.66492 -3.90596 0
M  V30 13056 O 1231.89 1.33421 -3.30269 0
M  V30 13057 O 1230.75 2.27785 -4.96766 0
M  V30 13058 H 1227.84 0.376696 -0.736226 0
M  V30 13059 H 1230.39 0.0321229 -1.6967 0
M  V30 13060 H 1229.16 0.405948 -3.89189 0
M  V30 13061 H 1228.78 2.05078 -3.4063 0
M  V30 13062 N 1229.78 1.54207 0.325255 0
M  V30 13063 C 1231.06 1.6298 1.08153 0
M  V30 13064 C 1231.44 0.462583 2.05969 0
M  V30 13065 O 1230.78 -0.543323 2.21947 0
M  V30 13066 C 1230.99 2.999 1.78497 0
M  V30 13067 C 1232.34 3.55888 2.3158 0
M  V30 13068 O 1233.37 3.02194 1.88566 0
M  V30 13069 O 1232.23 4.49847 3.10322 0
M  V30 13070 H 1229.32 0.659923 0.498429 0
M  V30 13071 H 1231.87 1.66553 0.325282 0
M  V30 13072 H 1230.64 3.7629 1.07338 0
M  V30 13073 H 1230.26 2.99997 2.60936 0
M  V30 13074 N 1231.26 -0.58723 1.46251 0
M  V30 13075 C 1232.51 -1.34179 1.50595 0
M  V30 13076 C 1232.82 -1.94943 0.160171 0
M  V30 13077 O 1234.03 -2.71378 0.0813797 0
M  V30 13078 C 1232.48 -2.43159 2.65333 0
M  V30 13079 C 1232.09 -1.88718 4.06312 0
M  V30 13080 C 1233.83 -3.19986 2.78943 0
M  V30 13081 C 1231.74 -2.953 5.12398 0
M  V30 13082 H 1230.67 -0.504401 0.560442 0
M  V30 13083 H 1233.32 -0.627179 1.72449 0
M  V30 13084 H 1231.7 -3.17398 2.368 0
M  V30 13085 H 1232.88 -1.21051 4.44616 0
M  V30 13086 H 1231.19 -1.24572 3.97329 0
M  V30 13087 H 1233.79 -3.9952 3.5537 0
M  V30 13088 H 1234.13 -3.72288 1.86298 0
M  V30 13089 H 1234.67 -2.52852 3.07101 0
M  V30 13090 H 1231.4 -2.4789 6.0682 0
M  V30 13091 H 1230.92 -3.61469 4.78644 0
M  V30 13092 H 1232.6 -3.5933 5.38044 0
M  V30 13093 N 1232.74 -1.33881 -0.831482 0
M  V30 13094 C 1234.15 -1.23112 -1.40358 0
M  V30 13095 C 1234.5 0.146944 -1.95649 0
M  V30 13096 O 1233.62 1.04689 -1.89391 0
M  V30 13097 C 1234.22 -2.22899 -2.5515 0
M  V30 13098 C 1232.78 -2.15946 -3.08292 0
M  V30 13099 C 1231.92 -2.09975 -1.81124 0
M  V30 13100 H 1234.87 -1.45372 -0.63661 0
M  V30 13101 H 1234.9 -1.841 -3.32997 0
M  V30 13102 H 1234.41 -3.23186 -2.14878 0
M  V30 13103 H 1232.51 -1.18987 -3.53091 0
M  V30 13104 H 1232.62 -3.06822 -3.67964 0
M  V30 13105 H 1230.99 -1.55564 -2.01673 0
M  V30 13106 H 1231.77 -3.12082 -1.43037 0
M  V30 13107 N 1234.21 1.05064 -1.1747 0
M  V30 13108 C 1235.46 1.77737 -0.961979 0
M  V30 13109 C 1235.78 1.88198 0.510551 0
M  V30 13110 O 1235.05 1.39968 1.37062 0
M  V30 13111 H 1233.63 0.658366 -0.352935 0
M  V30 13112 H 1236.29 1.26851 -1.47969 0
M  V30 13113 H 1235.39 2.79368 -1.39141 0
M  V30 13114 N 1235.69 0.975146 1.23809 0
M  V30 13115 C 1237.1 0.678873 1.7392 0
M  V30 13116 C 1237.45 -0.805133 1.78919 0
M  V30 13117 O 1236.58 -1.62984 1.42356 0
M  V30 13118 C 1237.17 1.22562 3.15854 0
M  V30 13119 C 1235.73 0.979096 3.63443 0
M  V30 13120 C 1234.88 1.35649 2.41857 0
M  V30 13121 H 1237.83 1.14961 1.09406 0
M  V30 13122 H 1237.85 0.595489 3.75811 0
M  V30 13123 H 1237.36 2.30571 3.12184 0
M  V30 13124 H 1235.46 -0.0851407 3.72503 0
M  V30 13125 H 1235.58 1.62998 4.5052 0
M  V30 13126 H 1233.94 0.774916 2.42626 0
M  V30 13127 H 1234.72 2.44624 2.40861 0
M  V30 13128 N 1237.17 -1.38817 0.746158 0
M  V30 13129 C 1238.42 -2.00577 0.299458 0
M  V30 13130 C 1238.75 -1.59087 -1.11378 0
M  V30 13131 O 1238.02 -0.824932 -1.7614 0
M  V30 13132 C 1238.31 -3.57713 0.413932 0
M  V30 13133 C 1238.16 -4.09189 1.86774 0
M  V30 13134 C 1239.48 -4.39659 -0.197082 0
M  V30 13135 H 1236.6 -0.728702 0.110285 0
M  V30 13136 H 1239.24 -1.64866 0.944408 0
M  V30 13137 H 1237.39 -3.88265 -0.135155 0
M  V30 13138 H 1239.06 -3.89311 2.47456 0
M  V30 13139 H 1237.3 -3.62333 2.38532 0
M  V30 13140 H 1237.98 -5.18305 1.89904 0
M  V30 13141 H 1240.45 -4.15216 0.271121 0
M  V30 13142 H 1239.33 -5.48832 -0.0867011 0
M  V30 13143 H 1239.59 -4.23028 -1.2845 0
M  V30 13144 N 1238.65 -0.49465 -1.49636 0
M  V30 13145 C 1239.88 0.0491129 -2.06842 0
M  V30 13146 C 1240.29 1.31395 -1.35576 0
M  V30 13147 O 1239.65 1.7731 -0.432135 0
M  V30 13148 C 1239.7 0.313171 -3.60141 0
M  V30 13149 O 1239.42 -0.90152 -4.28724 0
M  V30 13150 C 1240.92 0.901284 -4.34041 0
M  V30 13151 H 1238.14 -0.0176186 -0.670769 0
M  V30 13152 H 1240.68 -0.690188 -1.92501 0
M  V30 13153 H 1238.84 1.00244 -3.74206 0
M  V30 13154 H 1239.25 -0.660477 -5.20325 0
M  V30 13155 H 1240.73 1.03567 -5.42197 0
M  V30 13156 H 1241.2 1.89746 -3.96097 0
M  V30 13157 H 1241.81 0.249677 -4.24566 0
M  V30 13158 N 1240.13 1.55939 -0.228214 0
M  V30 13159 C 1241.37 1.99518 0.395485 0
M  V30 13160 C 1241.73 1.11339 1.56912 0
M  V30 13161 O 1241.02 0.164788 1.9089 0
M  V30 13162 C 1241.21 3.46581 0.872732 0
M  V30 13163 C 1241.04 4.48987 -0.253122 0
M  V30 13164 C 1239.81 5.0012 -0.721702 0
M  V30 13165 C 1242.01 5.02967 -1.0737 0
M  V30 13166 N 1239.99 5.86242 -1.82192 0
M  V30 13167 C 1241.36 5.86079 -2.02265 0
M  V30 13168 C 1243.42 4.85315 -1.11238 0
M  V30 13169 C 1242.12 6.53424 -3.00716 0
M  V30 13170 C 1244.15 5.53423 -2.0851 0
M  V30 13171 C 1243.51 6.36308 -3.02144 0
M  V30 13172 H 1239.61 0.774053 0.1112 0
M  V30 13173 H 1242.19 1.91681 -0.341512 0
M  V30 13174 H 1240.36 3.54852 1.57907 0
M  V30 13175 H 1242.1 3.77066 1.46981 0
M  V30 13176 H 1238.85 4.7259 -0.309119 0
M  V30 13177 H 1239.27 6.34003 -2.37423 0
M  V30 13178 H 1243.92 4.20881 -0.402389 0
M  V30 13179 H 1241.63 7.17035 -3.72674 0
M  V30 13180 H 1245.22 5.41727 -2.12186 0
M  V30 13181 H 1244.1 6.88081 -3.76183 0
M  V30 13182 N 1241.6 -0.0451101 1.57535 0
M  V30 13183 C 1242.51 -1.06796 2.08882 0
M  V30 13184 C 1243.53 -1.40682 1.02394 0
M  V30 13185 O 1244.71 -1.50324 1.34033 0
M  V30 13186 C 1241.77 -2.35467 2.54472 0
M  V30 13187 C 1240.83 -2.0831 3.75374 0
M  V30 13188 C 1240.07 -3.30846 4.1878 0
M  V30 13189 O 1240.29 -4.40945 3.61834 0
M  V30 13190 O 1239.22 -3.17488 5.11356 0
M  V30 13191 H 1243.05 -0.661658 2.96405 0
M  V30 13192 H 1240.63 -0.26104 1.47102 0
M  V30 13193 H 1242.52 -3.11143 2.84198 0
M  V30 13194 H 1241.19 -2.75425 1.70068 0
M  V30 13195 H 1240.1 -1.30254 3.50692 0
M  V30 13196 H 1241.43 -1.73218 4.60713 0
M  V30 13197 N 1243.08 -1.54377 -0.317073 0
M  V30 13198 C 1244.49 -1.64062 -0.891105 0
M  V30 13199 C 1244.84 -0.538863 -1.88655 0
M  V30 13200 O 1243.97 0.32718 -2.13912 0
M  V30 13201 C 1244.56 -2.97395 -1.62302 0
M  V30 13202 C 1243.12 -3.09253 -2.14568 0
M  V30 13203 C 1242.27 -2.59664 -0.973146 0
M  V30 13204 H 1245.22 -1.58418 -0.0944829 0
M  V30 13205 H 1245.24 -2.87918 -2.48764 0
M  V30 13206 H 1244.75 -3.77562 -0.898268 0
M  V30 13207 H 1242.86 -2.33774 -2.90139 0
M  V30 13208 H 1242.97 -4.15159 -2.39123 0
M  V30 13209 H 1241.33 -2.15719 -1.35416 0
M  V30 13210 H 1242.12 -3.42294 -0.262611 0
M  V30 13211 N 1244.56 0.579466 -1.4656 0
M  V30 13212 C 1245.98 0.903163 -1.31587 0
M  V30 13213 C 1246.18 1.99406 -0.28972 0
M  V30 13214 O 1245.23 2.50632 0.30658 0
M  V30 13215 C 1246.55 1.31745 -2.70303 0
M  V30 13216 C 1248.09 1.43012 -2.78418 0
M  V30 13217 C 1248.57 1.87805 -4.17724 0
M  V30 13218 N 1250.06 1.94993 -4.20157 0
M  V30 13219 C 1250.79 2.30934 -5.2484 0
M  V30 13220 N 1250.29 2.65645 -6.39847 0
M  V30 13221 N 1252.08 2.31517 -5.12207 0
M  V30 13222 H 1244.23 -0.141111 -2.11931 0
M  V30 13223 H 1246.5 -0.000460304 -0.948 0
M  V30 13224 H 1246.2 0.589864 -3.46718 0
M  V30 13225 H 1246.08 2.2783 -3.00622 0
M  V30 13226 H 1248.46 2.14856 -2.02289 0
M  V30 13227 H 1248.55 0.451701 -2.5178 0
M  V30 13228 H 1248.19 1.16539 -4.94349 0
M  V30 13229 H 1248.12 2.86611 -4.41771 0
M  V30 13230 H 1250.61 1.70645 -3.37178 0
M  V30 13231 H 1250.92 2.92032 -7.15498 0
M  V30 13232 H 1249.27 2.63276 -6.43204 0
M  V30 13233 H 1252.46 2.03824 -4.21394 0
M  V30 13234 H 1252.63 2.59199 -5.93902 0
M  V30 13235 N 1246.04 1.3432 0.824371 0
M  V30 13236 C 1247.45 1.23855 1.39703 0
M  V30 13237 C 1247.8 -0.136566 1.95724 0
M  V30 13238 O 1246.93 -1.03683 1.89944 0
M  V30 13239 C 1247.52 2.24249 2.53965 0
M  V30 13240 C 1246.08 2.17578 3.07143 0
M  V30 13241 C 1245.23 2.10933 1.80008 0
M  V30 13242 H 1248.18 1.45707 0.628891 0
M  V30 13243 H 1248.2 1.85864 3.32016 0
M  V30 13244 H 1247.71 3.24321 2.13161 0
M  V30 13245 H 1245.81 1.20858 3.52455 0
M  V30 13246 H 1245.92 3.08769 3.66331 0
M  V30 13247 H 1244.29 1.56631 2.00845 0
M  V30 13248 H 1245.07 3.12836 1.4138 0
M  V30 13249 N 1247.52 -1.0444 1.18026 0
M  V30 13250 C 1248.43 -2.15862 0.918747 0
M  V30 13251 C 1249.44 -1.73614 -0.115808 0
M  V30 13252 O 1250.62 -2.01294 0.0652312 0
M  V30 13253 C 1247.68 -3.43846 0.443922 0
M  V30 13254 C 1246.74 -4.00497 1.54599 0
M  V30 13255 C 1245.98 -5.22373 1.09372 0
M  V30 13256 O 1246.2 -5.70379 -0.049085 0
M  V30 13257 O 1245.13 -5.71459 1.88992 0
M  V30 13258 H 1248.96 -2.40776 1.85097 0
M  V30 13259 H 1246.55 -1.14326 0.961769 0
M  V30 13260 H 1248.43 -4.20985 0.187017 0
M  V30 13261 H 1247.1 -3.20414 -0.460051 0
M  V30 13262 H 1246.01 -3.24764 1.85686 0
M  V30 13263 H 1247.34 -4.28262 2.42595 0
M  V30 13264 N 1248.99 -0.981699 -1.2329 0
M  V30 13265 C 1249.94 -0.515432 -2.26817 0
M  V30 13266 C 1250.94 0.428204 -1.63899 0
M  V30 13267 O 1252.14 0.301954 -1.77449 0
M  V30 13268 H 1248.52 -0.148257 -0.737241 0
M  V30 13269 H 1250.49 -1.40027 -2.63505 0
M  V30 13270 C 1249.24 0.165266 -3.47307 0
M  V30 13271 H 1248.56 -0.55176 -3.95974 0
M  V30 13272 H 1250 0.45513 -4.2155 0
M  V30 13273 C 1248.46 1.39693 -3.06574 0
M  V30 13274 O 1248.99 2.49308 -3.14974 0
M  V30 13275 N 1247.2 1.26806 -2.61474 0
M  V30 13276 H 1246.74 0.376161 -2.54839 0
M  V30 13277 H 1246.7 2.09324 -2.34587 0
M  V30 13278 N 1250.47 1.3842 -0.753509 0
M  V30 13279 C 1251.7 2.04929 -0.319174 0
M  V30 13280 C 1252.12 1.56457 1.04416 0
M  V30 13281 O 1251.48 0.716527 1.6654 0
M  V30 13282 C 1251.53 3.58887 -0.351054 0
M  V30 13283 O 1250.63 4.07166 0.654963 0
M  V30 13284 H 1249.97 0.648782 -0.141343 0
M  V30 13285 H 1252.5 1.77096 -1.02461 0
M  V30 13286 H 1252.51 4.075 -0.201907 0
M  V30 13287 H 1251.19 3.93525 -1.34576 0
M  V30 13288 H 1249.77 3.69921 0.470435 0
M  V30 13289 N 1251.95 0.502579 1.49372 0
M  V30 13290 C 1253.2 -0.0432341 2.01654 0
M  V30 13291 C 1253.51 -1.379 1.38719 0
M  V30 13292 O 1254.72 -2.01159 1.82338 0
M  V30 13293 C 1253.17 -0.127509 3.59674 0
M  V30 13294 C 1252.78 1.20171 4.31582 0
M  V30 13295 C 1254.53 -0.623603 4.19895 0
M  V30 13296 C 1252.43 1.07951 5.81464 0
M  V30 13297 H 1251.36 -0.0199308 0.753737 0
M  V30 13298 H 1254.01 0.642237 1.71894 0
M  V30 13299 H 1252.4 -0.877465 3.86156 0
M  V30 13300 H 1253.57 1.96508 4.16799 0
M  V30 13301 H 1251.89 1.63136 3.83113 0
M  V30 13302 H 1254.48 -0.732562 5.29658 0
M  V30 13303 H 1254.83 -1.62282 3.83367 0
M  V30 13304 H 1255.36 0.0698641 3.97739 0
M  V30 13305 H 1252.1 2.05304 6.22519 0
M  V30 13306 H 1251.62 0.357051 5.98736 0
M  V30 13307 H 1253.3 0.758885 6.42534 0
M  V30 13308 N 1253.43 -1.55816 0.23648 0
M  V30 13309 C 1254.68 -1.98686 -0.391146 0
M  V30 13310 C 1255 -1.12443 -1.58703 0
M  V30 13311 O 1254.26 -0.172805 -1.94936 0
M  V30 13312 C 1254.56 -3.47039 -0.85434 0
M  V30 13313 C 1254.22 -4.50299 0.232651 0
M  V30 13314 C 1252.89 -4.78259 0.531218 0
M  V30 13315 C 1255.24 -5.1215 0.967027 0
M  V30 13316 C 1252.57 -5.65347 1.56842 0
M  V30 13317 C 1254.92 -6.00363 1.99367 0
M  V30 13318 C 1253.58 -6.2666 2.299 0
M  V30 13319 H 1252.85 -0.727045 -0.14313 0
M  V30 13320 H 1255.5 -1.88419 0.342125 0
M  V30 13321 H 1253.8 -3.54585 -1.66663 0
M  V30 13322 H 1255.5 -3.7759 -1.35005 0
M  V30 13323 H 1252.09 -4.28599 -0.0102014 0
M  V30 13324 H 1256.27 -4.90606 0.749609 0
M  V30 13325 H 1251.53 -5.83981 1.81043 0
M  V30 13326 H 1255.7 -6.47335 2.56769 0
M  V30 13327 H 1253.33 -6.93938 3.1041 0
M  V30 13328 N 1254.91 0.036755 -1.57557 0
M  V30 13329 C 1255.84 1.03939 -2.09091 0
M  V30 13330 C 1256.82 1.38196 -0.991761 0
M  V30 13331 O 1258 1.47214 -1.26656 0
M  V30 13332 C 1255.13 2.34263 -2.56394 0
M  V30 13333 C 1254.09 2.14269 -3.70504 0
M  V30 13334 C 1253.41 3.50286 -4.03985 0
M  V30 13335 C 1254.71 1.53514 -4.9923 0
M  V30 13336 H 1256.41 0.610429 -2.93111 0
M  V30 13337 H 1253.95 0.292183 -1.41005 0
M  V30 13338 H 1255.91 3.04727 -2.91066 0
M  V30 13339 H 1254.63 2.79205 -1.69447 0
M  V30 13340 H 1253.29 1.46239 -3.36169 0
M  V30 13341 H 1252.94 3.92861 -3.14116 0
M  V30 13342 H 1252.64 3.37735 -4.80842 0
M  V30 13343 H 1254.16 4.22124 -4.41184 0
M  V30 13344 H 1255.57 2.13885 -5.31908 0
M  V30 13345 H 1253.97 1.51561 -5.80646 0
M  V30 13346 H 1255.04 0.500126 -4.82314 0
M  V30 13347 N 1256.39 1.54543 0.308881 0
M  V30 13348 C 1257.33 1.84949 1.38067 0
M  V30 13349 C 1258.3 0.697746 1.50734 0
M  V30 13350 O 1259.49 0.94561 1.65719 0
M  V30 13351 C 1256.63 2.09544 2.74199 0
M  V30 13352 C 1255.74 3.37193 2.70046 0
M  V30 13353 C 1254.88 3.51672 3.98121 0
M  V30 13354 C 1253.91 4.73143 3.88333 0
M  V30 13355 N 1253.05 4.84469 5.08167 0
M  V30 13356 H 1257.89 2.76379 1.11438 0
M  V30 13357 H 1255.43 1.36863 0.539153 0
M  V30 13358 H 1257.39 2.21798 3.53358 0
M  V30 13359 H 1256.02 1.21389 2.99106 0
M  V30 13360 H 1255.07 3.33601 1.82796 0
M  V30 13361 H 1256.38 4.26468 2.58701 0
M  V30 13362 H 1255.53 3.63548 4.85714 0
M  V30 13363 H 1254.27 2.60516 4.1229 0
M  V30 13364 H 1253.28 4.61308 2.99124 0
M  V30 13365 H 1254.5 5.65698 3.75716 0
M  V30 13366 H 1252.45 3.96234 5.22814 0
M  V30 13367 H 1252.37 5.67733 4.99215 0
M  V30 13368 H 1253.63 5.00693 5.97434 0
M  V30 13369 N 1257.86 -0.571685 1.46866 0
M  V30 13370 C 1259.11 -1.32924 1.53957 0
M  V30 13371 C 1259.46 -1.91428 0.1932 0
M  V30 13372 O 1258.76 -1.74125 -0.799447 0
M  V30 13373 C 1258.95 -2.47051 2.58264 0
M  V30 13374 C 1258.78 -1.99729 4.02913 0
M  V30 13375 C 1257.55 -1.84236 4.70516 0
M  V30 13376 C 1259.75 -1.55035 4.90376 0
M  V30 13377 N 1257.73 -1.31101 5.99738 0
M  V30 13378 C 1259.1 -1.13566 6.0951 0
M  V30 13379 C 1261.16 -1.42953 4.76937 0
M  V30 13380 C 1259.86 -0.612183 7.1669 0
M  V30 13381 C 1261.89 -0.92008 5.84199 0
M  V30 13382 C 1261.25 -0.515239 7.02513 0
M  V30 13383 H 1257.35 -0.47897 0.618152 0
M  V30 13384 H 1259.93 -0.649687 1.83541 0
M  V30 13385 H 1258.1 -3.12555 2.30573 0
M  V30 13386 H 1259.83 -3.14025 2.55285 0
M  V30 13387 H 1256.59 -2.06516 4.26202 0
M  V30 13388 H 1257.01 -1.06663 6.68545 0
M  V30 13389 H 1261.65 -1.72869 3.85845 0
M  V30 13390 H 1259.37 -0.300634 8.07541 0
M  V30 13391 H 1262.96 -0.830357 5.75844 0
M  V30 13392 H 1261.84 -0.127122 7.84097 0
M  V30 13393 N 1259.34 -1.34755 -0.817236 0
M  V30 13394 C 1260.75 -1.24594 -1.39044 0
M  V30 13395 C 1261.1 0.126184 -1.95794 0
M  V30 13396 O 1260.23 1.02675 -1.90491 0
M  V30 13397 C 1260.82 -2.25592 -2.52772 0
M  V30 13398 C 1259.38 -2.19204 -3.05984 0
M  V30 13399 C 1258.53 -2.11884 -1.78886 0
M  V30 13400 H 1261.48 -1.46039 -0.621155 0
M  V30 13401 H 1261.5 -1.87622 -3.31026 0
M  V30 13402 H 1261.01 -3.25447 -2.11438 0
M  V30 13403 H 1259.11 -1.22725 -3.51809 0
M  V30 13404 H 1259.23 -3.10707 -3.64689 0
M  V30 13405 H 1257.59 -1.57694 -2.00012 0
M  V30 13406 H 1258.37 -3.13582 -1.39719 0
M  V30 13407 N 1260.82 1.03812 -1.18578 0
M  V30 13408 C 1261.73 2.15371 -0.930182 0
M  V30 13409 C 1262.75 1.73673 0.106599 0
M  V30 13410 O 1263.92 2.01257 -0.0759054 0
M  V30 13411 C 1260.99 3.43606 -0.462151 0
M  V30 13412 C 1260.05 3.99671 -1.5672 0
M  V30 13413 C 1259.28 5.21785 -1.12141 0
M  V30 13414 O 1259.5 5.70397 0.0188357 0
M  V30 13415 O 1258.44 5.70449 -1.9202 0
M  V30 13416 H 1262.26 2.39791 -1.86371 0
M  V30 13417 H 1259.85 1.13814 -0.967819 0
M  V30 13418 H 1261.73 4.2088 -0.20934 0
M  V30 13419 H 1260.41 3.20654 0.443052 0
M  V30 13420 H 1259.31 3.23774 -1.87406 0
M  V30 13421 H 1260.65 4.2697 -2.44862 0
M  V30 13422 N 1262.3 0.988223 1.22768 0
M  V30 13423 C 1263.71 0.697281 1.7319 0
M  V30 13424 C 1264.06 -0.786111 1.79763 0
M  V30 13425 O 1263.18 -1.61465 1.44077 0
M  V30 13426 C 1263.78 1.25905 3.14537 0
M  V30 13427 C 1262.34 1.01759 3.62384 0
M  V30 13428 C 1261.49 1.38207 2.40404 0
M  V30 13429 H 1264.44 1.16114 1.08181 0
M  V30 13430 H 1264.46 0.635315 3.75159 0
M  V30 13431 H 1263.97 2.33869 3.09721 0
M  V30 13432 H 1262.07 -0.045627 3.72572 0
M  V30 13433 H 1262.18 1.67767 4.48766 0
M  V30 13434 H 1260.55 0.800607 2.4179 0
M  V30 13435 H 1261.33 2.47165 2.38253 0
M  V30 13436 N 1263.78 -1.38018 0.760839 0
M  V30 13437 C 1264.69 -2.34181 0.140232 0
M  V30 13438 C 1265.7 -1.59635 -0.692287 0
M  V30 13439 O 1266.88 -1.91788 -0.614752 0
M  V30 13440 C 1263.94 -3.38778 -0.73693 0
M  V30 13441 C 1263 -4.29157 0.110792 0
M  V30 13442 C 1262.24 -5.28758 -0.724599 0
M  V30 13443 O 1262.46 -5.35585 -1.96226 0
M  V30 13444 O 1261.39 -6.01738 -0.139565 0
M  V30 13445 H 1265.22 -2.88962 0.934588 0
M  V30 13446 H 1262.8 -1.3999 0.521835 0
M  V30 13447 H 1264.69 -4.02804 -1.23803 0
M  V30 13448 H 1263.36 -2.86341 -1.50966 0
M  V30 13449 H 1262.27 -3.68268 0.658007 0
M  V30 13450 H 1263.6 -4.84869 0.846346 0
M  V30 13451 N 1265.25 -0.510493 -1.49103 0
M  V30 13452 C 1266.2 0.276449 -2.30951 0
M  V30 13453 C 1267.2 0.953893 -1.3999 0
M  V30 13454 O 1268.4 0.880499 -1.56994 0
M  V30 13455 H 1264.78 0.108013 -0.744202 0
M  V30 13456 H 1266.75 -0.433725 -2.95231 0
M  V30 13457 C 1265.5 1.32234 -3.21573 0
M  V30 13458 H 1264.82 0.810468 -3.91499 0
M  V30 13459 H 1266.26 1.84476 -3.81765 0
M  V30 13460 C 1264.72 2.3456 -2.41833 0
M  V30 13461 O 1265.25 3.40627 -2.12922 0
M  V30 13462 N 1263.45 2.07272 -2.03682 0
M  V30 13463 H 1263 1.21036 -2.27394 0
M  V30 13464 H 1262.96 2.75963 -1.50638 0
M  V30 13465 N 1266.73 1.55688 -0.24474 0
M  V30 13466 C 1268.14 1.84897 0.25882 0
M  V30 13467 C 1268.49 1.16653 1.57755 0
M  V30 13468 O 1267.62 0.444162 2.11793 0
M  V30 13469 C 1268.21 3.35434 0.476385 0
M  V30 13470 C 1266.77 3.64877 0.924213 0
M  V30 13471 C 1265.92 2.773 0.00021322 0
M  V30 13472 H 1268.87 1.51662 -0.467358 0
M  V30 13473 H 1268.89 3.56896 1.31929 0
M  V30 13474 H 1268.4 3.85076 -0.483567 0
M  V30 13475 H 1266.5 3.20711 1.89671 0
M  V30 13476 H 1266.62 4.72665 0.78257 0
M  V30 13477 H 1264.98 2.49517 0.511194 0
M  V30 13478 H 1265.76 3.29747 -0.955072 0
M  V30 13479 N 1268.21 -0.0283989 1.57574 0
M  V30 13480 C 1269.16 -1.04723 2.07692 0
M  V30 13481 C 1270.15 -1.37399 0.990847 0
M  V30 13482 O 1271.36 -1.36297 1.17572 0
M  V30 13483 H 1267.73 -0.355251 0.662798 0
M  V30 13484 H 1269.7 -0.598737 2.92331 0
M  V30 13485 C 1268.45 -2.33941 2.57229 0
M  V30 13486 H 1267.78 -2.09659 3.40416 0
M  V30 13487 H 1269.22 -3.03574 2.96005 0
M  V30 13488 C 1267.67 -3.02953 1.47381 0
M  V30 13489 O 1268.2 -3.9281 0.840431 0
M  V30 13490 N 1266.41 -2.64294 1.20819 0
M  V30 13491 H 1265.96 -1.91307 1.72509 0
M  V30 13492 H 1265.92 -3.10786 0.475353 0
M  V30 13493 N 1269.69 -1.54705 -0.300681 0
M  V30 13494 C 1270.94 -1.73658 -1.0338 0
M  V30 13495 C 1271.26 -0.525447 -1.87787 0
M  V30 13496 O 1270.53 0.460269 -1.90416 0
M  V30 13497 H 1269.11 -0.640338 -0.384677 0
M  V30 13498 H 1271.77 -1.92059 -0.331588 0
M  V30 13499 H 1270.86 -2.62595 -1.68672 0
M  V30 13500 N 1271.17 0.563888 -1.47167 0
M  V30 13501 C 1272.1 1.68137 -1.62025 0
M  V30 13502 C 1273.08 1.63481 -0.469899 0
M  V30 13503 O 1274.26 1.81206 -0.698432 0
M  V30 13504 C 1271.39 3.06779 -1.62801 0
M  V30 13505 C 1270.35 3.26278 -2.76996 0
M  V30 13506 C 1269.67 4.65638 -2.62841 0
M  V30 13507 C 1270.97 3.12295 -4.18651 0
M  V30 13508 H 1272.67 1.55958 -2.55573 0
M  V30 13509 H 1270.21 0.74887 -1.22996 0
M  V30 13510 H 1272.17 3.84795 -1.71787 0
M  V30 13511 H 1270.89 3.19901 -0.658097 0
M  V30 13512 H 1269.55 2.50668 -2.67509 0
M  V30 13513 H 1269.2 4.75551 -1.63892 0
M  V30 13514 H 1268.9 4.79635 -3.39447 0
M  V30 13515 H 1270.42 5.45798 -2.73746 0
M  V30 13516 H 1271.83 3.80136 -4.2915 0
M  V30 13517 H 1270.23 3.37805 -4.95992 0
M  V30 13518 H 1271.3 2.09126 -4.37486 0
M  V30 13519 N 1272.64 1.35187 0.810078 0
M  V30 13520 C 1273.89 1.27602 1.56207 0
M  V30 13521 C 1274.21 -0.148621 1.95035 0
M  V30 13522 O 1275.41 -0.346721 2.69277 0
M  V30 13523 C 1273.87 2.23759 2.81886 0
M  V30 13524 C 1273.48 3.71549 2.5031 0
M  V30 13525 C 1275.22 2.25109 3.59898 0
M  V30 13526 C 1273.13 4.5954 3.7226 0
M  V30 13527 H 1272.06 0.474078 0.586316 0
M  V30 13528 H 1274.71 1.6043 0.890759 0
M  V30 13529 H 1273.09 1.83898 3.5071 0
M  V30 13530 H 1274.26 4.20025 1.89515 0
M  V30 13531 H 1272.58 3.72773 1.85551 0
M  V30 13532 H 1275.18 2.88066 4.50469 0
M  V30 13533 H 1275.52 1.25387 3.96968 0
M  V30 13534 H 1276.05 2.63481 2.98031 0
M  V30 13535 H 1272.79 5.60246 3.403 0
M  V30 13536 H 1272.31 4.15792 4.32293 0
M  V30 13537 H 1273.99 4.74789 4.39528 0
M  V30 13538 N 1274.12 -1.03182 1.19127 0
M  V30 13539 C 1275.05 -2.13301 0.94999 0
M  V30 13540 C 1276.03 -1.69707 -0.115577 0
M  V30 13541 O 1277.22 -1.94161 0.0388395 0
M  V30 13542 C 1274.35 -3.43902 0.484637 0
M  V30 13543 C 1273.3 -4.01164 1.4917 0
M  V30 13544 C 1272.63 -5.2735 0.883537 0
M  V30 13545 C 1273.93 -4.36311 2.87107 0
M  V30 13546 H 1275.62 -2.33743 1.87095 0
M  V30 13547 H 1273.17 -1.12332 0.900977 0
M  V30 13548 H 1275.12 -4.20308 0.30315 0
M  V30 13549 H 1273.85 -3.23173 -0.471909 0
M  V30 13550 H 1272.5 -3.26849 1.66028 0
M  V30 13551 H 1272.15 -5.02936 -0.0804712 0
M  V30 13552 H 1271.85 -5.66624 1.55599 0
M  V30 13553 H 1273.38 -6.06425 0.71278 0
M  V30 13554 H 1274.79 -5.03666 2.73848 0
M  V30 13555 H 1273.19 -4.86659 3.51117 0
M  V30 13556 H 1274.26 -3.45743 3.39985 0
M  V30 13557 N 1275.6 -0.99472 -1.22242 0
M  V30 13558 C 1276.53 -0.491445 -2.22845 0
M  V30 13559 C 1277.51 0.449265 -1.5627 0
M  V30 13560 O 1278.7 0.374386 -1.84745 0
M  V30 13561 C 1275.82 0.287355 -3.37479 0
M  V30 13562 C 1274.87 -0.599617 -4.22264 0
M  V30 13563 S 1275.7 -2.05599 -4.94459 0
M  V30 13564 C 1276.86 -1.28673 -6.12531 0
M  V30 13565 H 1277.09 -1.34393 -2.6519 0
M  V30 13566 H 1274.62 -0.801833 -1.31947 0
M  V30 13567 H 1276.58 0.730646 -4.03945 0
M  V30 13568 H 1275.24 1.11514 -2.93638 0
M  V30 13569 H 1274.44 -0.000289277 -5.04 0
M  V30 13570 H 1274.04 -0.979748 -3.60939 0
M  V30 13571 H 1276.33 -0.555315 -6.7522 0
M  V30 13572 H 1277.27 -2.07943 -6.76879 0
M  V30 13573 H 1277.68 -0.79922 -5.58814 0
M  V30 13574 N 1277.08 1.37613 -0.768148 0
M  V30 13575 C 1278.31 2.03756 -0.341615 0
M  V30 13576 C 1278.72 1.58063 1.03984 0
M  V30 13577 O 1278.06 0.755609 1.6744 0
M  V30 13578 C 1278.12 3.58229 -0.302032 0
M  V30 13579 C 1277.79 4.27039 -1.62747 0
M  V30 13580 C 1278.78 4.51408 -2.57928 0
M  V30 13581 C 1276.47 4.64941 -1.90092 0
M  V30 13582 C 1278.46 5.12731 -3.78663 0
M  V30 13583 C 1276.15 5.25986 -3.11098 0
M  V30 13584 C 1277.15 5.49818 -4.05203 0
M  V30 13585 O 1276.83 6.09588 -5.24078 0
M  V30 13586 H 1276.57 0.660992 -0.141655 0
M  V30 13587 H 1279.12 1.77001 -1.04211 0
M  V30 13588 H 1277.35 3.84016 0.454811 0
M  V30 13589 H 1279.04 4.05784 0.0969452 0
M  V30 13590 H 1279.81 4.22542 -2.38083 0
M  V30 13591 H 1275.68 4.45729 -1.17674 0
M  V30 13592 H 1279.23 5.31249 -4.52129 0
M  V30 13593 H 1275.13 5.54276 -3.3083 0
M  V30 13594 H 1275.89 6.28068 -5.24855 0
M  V30 13595 N 1278.56 0.518393 1.4883 0
M  V30 13596 C 1279.47 -0.254811 2.33212 0
M  V30 13597 C 1280.48 -0.950401 1.45751 0
M  V30 13598 O 1281.66 -0.927932 1.78749 0
M  V30 13599 C 1278.72 -1.29509 3.21603 0
M  V30 13600 C 1277.78 -0.611086 4.24928 0
M  V30 13601 C 1277.02 -1.6018 5.09095 0
M  V30 13602 O 1277.24 -2.83336 4.95052 0
M  V30 13603 O 1276.17 -1.14756 5.90859 0
M  V30 13604 H 1280 0.436329 3.00549 0
M  V30 13605 H 1277.59 0.27947 1.46763 0
M  V30 13606 H 1279.47 -1.89654 3.7631 0
M  V30 13607 H 1278.14 -1.96884 2.5694 0
M  V30 13608 H 1277.05 0.0305638 3.74088 0
M  V30 13609 H 1278.38 0.0205249 4.92196 0
M  V30 13610 N 1280.03 -1.55556 0.252993 0
M  V30 13611 C 1281.28 -1.98267 -0.370571 0
M  V30 13612 C 1281.6 -1.14449 -1.58622 0
M  V30 13613 O 1282.8 -1.472 -2.28132 0
M  V30 13614 C 1281.26 -3.52813 -0.710685 0
M  V30 13615 C 1280.87 -4.45379 0.483908 0
M  V30 13616 C 1282.61 -4.04165 -1.2981 0
M  V30 13617 C 1280.52 -5.91279 0.119611 0
M  V30 13618 H 1279.45 -0.740463 -0.142232 0
M  V30 13619 H 1282.1 -1.8005 0.354169 0
M  V30 13620 H 1280.48 -3.66748 -1.49372 0
M  V30 13621 H 1281.65 -4.43206 1.26116 0
M  V30 13622 H 1279.97 -4.04542 0.986664 0
M  V30 13623 H 1282.57 -5.10696 -1.5841 0
M  V30 13624 H 1282.91 -3.51875 -2.22462 0
M  V30 13625 H 1283.44 -3.93581 -0.577836 0
M  V30 13626 H 1280.18 -6.47619 1.01343 0
M  V30 13627 H 1279.7 -5.96573 -0.621318 0
M  V30 13628 H 1281.38 -6.46322 -0.296052 0
M  V30 13629 N 1281.51 0.0200419 -1.57587 0
M  V30 13630 C 1282.46 1.01784 -2.07144 0
M  V30 13631 C 1283.43 1.3537 -0.962501 0
M  V30 13632 O 1284.61 1.45553 -1.23365 0
M  V30 13633 C 1281.75 2.31091 -2.56302 0
M  V30 13634 C 1280.87 2.03584 -3.81022 0
M  V30 13635 C 1280 3.26827 -4.18757 0
M  V30 13636 C 1279.04 2.94915 -5.36369 0
M  V30 13637 N 1278.18 4.10636 -5.69493 0
M  V30 13638 H 1283.02 0.588288 -2.92136 0
M  V30 13639 H 1280.56 0.278848 -1.44433 0
M  V30 13640 H 1282.51 3.06656 -2.82874 0
M  V30 13641 H 1281.14 2.71752 -1.74215 0
M  V30 13642 H 1280.2 1.18475 -3.6148 0
M  V30 13643 H 1281.51 1.76049 -4.66699 0
M  V30 13644 H 1280.66 4.10753 -4.46505 0
M  V30 13645 H 1279.4 3.57483 -3.31749 0
M  V30 13646 H 1278.41 2.09392 -5.08365 0
M  V30 13647 H 1279.63 2.65528 -6.25037 0
M  V30 13648 H 1277.58 4.41226 -4.85444 0
M  V30 13649 H 1277.49 3.86556 -6.497 0
M  V30 13650 H 1278.76 4.95409 -6.01822 0
M  V30 13651 N 1282.99 1.54862 0.292472 0
M  V30 13652 C 1284.22 1.78291 1.04383 0
M  V30 13653 C 1284.63 0.546703 1.81129 0
M  V30 13654 O 1283.97 -0.493286 1.76953 0
M  V30 13655 C 1284.03 2.94321 2.06435 0
M  V30 13656 C 1283.7 4.32095 1.48806 0
M  V30 13657 C 1284.69 5.11808 0.91369 0
M  V30 13658 C 1282.38 4.78714 1.52112 0
M  V30 13659 C 1284.37 6.36266 0.380053 0
M  V30 13660 C 1282.06 6.03132 0.983613 0
M  V30 13661 C 1283.06 6.81744 0.41406 0
M  V30 13662 O 1282.75 8.03817 -0.115268 0
M  V30 13663 H 1282.48 0.598147 0.314954 0
M  V30 13664 H 1285.03 2.02655 0.334661 0
M  V30 13665 H 1283.26 2.65602 2.81056 0
M  V30 13666 H 1284.95 3.05249 2.67541 0
M  V30 13667 H 1285.72 4.76931 0.880988 0
M  V30 13668 H 1281.6 4.17549 1.95382 0
M  V30 13669 H 1285.14 6.9757 -0.0651481 0
M  V30 13670 H 1281.04 6.37494 1.01349 0
M  V30 13671 H 1281.81 8.185 -0.00277496 0
M  V30 13672 N 1284.47 -0.556076 1.47464 0
M  V30 13673 C 1285.72 -1.31061 1.53842 0
M  V30 13674 C 1286.04 -1.93943 0.202806 0
M  V30 13675 O 1285.31 -1.7999 -0.773338 0
M  V30 13676 H 1283.89 -0.486696 0.566689 0
M  V30 13677 H 1286.55 -0.64924 1.83769 0
M  V30 13678 H 1285.65 -2.10354 2.30559 0
M  V30 13679 N 1285.95 -1.35615 -0.802897 0
M  V30 13680 C 1287.17 -1.32377 -1.59659 0
M  V30 13681 C 1287.6 0.0954235 -1.87858 0
M  V30 13682 O 1286.96 1.06336 -1.46842 0
M  V30 13683 C 1287 -2.13972 -2.90256 0
M  V30 13684 O 1286.11 -1.52296 -3.83249 0
M  V30 13685 H 1285.45 -0.453699 -0.484823 0
M  V30 13686 H 1287.98 -1.78708 -0.996217 0
M  V30 13687 H 1287.99 -2.26061 -3.39647 0
M  V30 13688 H 1286.66 -3.17145 -2.69057 0
M  V30 13689 H 1285.24 -1.49068 -3.41809 0
M  V30 13690 N 1287.43 1.02549 -1.19673 0
M  V30 13691 C 1288.36 2.10991 -0.8953 0
M  V30 13692 C 1289.37 1.62405 0.113373 0
M  V30 13693 O 1290.56 1.7812 -0.116485 0
M  V30 13694 C 1287.66 3.37394 -0.319124 0
M  V30 13695 C 1286.83 4.15154 -1.37718 0
M  V30 13696 C 1285.89 5.19867 -0.81393 0
M  V30 13697 O 1284.92 5.49285 -1.49246 0
M  V30 13698 N 1286.12 5.79248 0.381089 0
M  V30 13699 H 1288.88 2.37438 -1.82875 0
M  V30 13700 H 1286.45 1.18867 -1.09919 0
M  V30 13701 H 1288.44 4.04637 0.0716106 0
M  V30 13702 H 1287.01 3.08267 0.518681 0
M  V30 13703 H 1286.23 3.4301 -1.94262 0
M  V30 13704 H 1287.52 4.63892 -2.09003 0
M  V30 13705 H 1286.91 5.5767 0.949791 0
M  V30 13706 H 1285.47 6.47882 0.713563 0
M  V30 13707 N 1288.9 1.00119 1.21713 0
M  V30 13708 C 1290.15 0.682733 1.90962 0
M  V30 13709 C 1290.48 -0.784131 1.77665 0
M  V30 13710 O 1289.76 -1.56799 1.15084 0
M  V30 13711 C 1290.04 1.09975 3.42896 0
M  V30 13712 C 1289.89 2.62578 3.65202 0
M  V30 13713 C 1291.21 0.659247 4.35134 0
M  V30 13714 H 1288.33 0.249501 0.693483 0
M  V30 13715 H 1290.97 1.24619 1.43423 0
M  V30 13716 H 1289.12 0.620334 3.83515 0
M  V30 13717 H 1290.8 3.18254 3.33934 0
M  V30 13718 H 1289.04 3.04268 3.09198 0
M  V30 13719 H 1289.71 2.86809 4.7164 0
M  V30 13720 H 1292.19 1.07116 4.02076 0
M  V30 13721 H 1291.06 0.979241 5.40095 0
M  V30 13722 H 1291.32 -0.439777 4.39907 0
M  V30 13723 N 1290.38 -1.37203 0.775435 0
M  V30 13724 C 1291.29 -2.34019 0.165062 0
M  V30 13725 C 1292.31 -1.6036 -0.675316 0
M  V30 13726 O 1293.48 -1.9243 -0.594375 0
M  V30 13727 C 1290.55 -3.3954 -0.700957 0
M  V30 13728 C 1289.61 -4.29015 0.156304 0
M  V30 13729 C 1288.84 -5.29497 -0.668476 0
M  V30 13730 O 1289.07 -5.37636 -1.90535 0
M  V30 13731 O 1288 -6.01852 -0.0757351 0
M  V30 13732 H 1291.83 -2.87955 0.965184 0
M  V30 13733 H 1289.41 -1.39429 0.536654 0
M  V30 13734 H 1291.29 -4.04094 -1.19524 0
M  V30 13735 H 1289.97 -2.87926 -1.4792 0
M  V30 13736 H 1288.87 -3.67549 0.69703 0
M  V30 13737 H 1290.21 -4.83944 0.897725 0
M  V30 13738 N 1291.86 -0.526279 -1.48553 0
M  V30 13739 C 1293.14 0.073385 -1.95462 0
M  V30 13740 C 1293.52 1.51658 -1.46843 0
M  V30 13741 O 1292.86 2.17729 -0.693293 0
M  V30 13742 C 1293.07 -0.040041 -3.48977 0
M  V30 13743 C 1294.42 0.121108 -4.24427 0
M  V30 13744 O 1295.45 0.0339335 -3.56184 0
M  V30 13745 O 1294.31 0.303297 -5.45658 0
M  V30 13746 H 1291.4 0.0813498 -0.822989 0
M  V30 13747 H 1293.95 -0.590614 -1.59091 0
M  V30 13748 H 1292.72 -1.0455 -3.77074 0
M  V30 13749 H 1292.34 0.662975 -3.92034 0
M  V30 13750 N 1293.34 1.5542 -0.261239 0
M  V30 13751 C 1294.27 2.19334 0.665214 0
M  V30 13752 C 1295.28 1.17388 1.128 0
M  V30 13753 O 1296.47 1.44183 1.0523 0
M  V30 13754 C 1293.57 2.79425 1.91768 0
M  V30 13755 C 1292.74 4.06929 1.60399 0
M  V30 13756 C 1291.8 4.51199 2.70751 0
M  V30 13757 O 1290.83 5.17272 2.37526 0
M  V30 13758 N 1292.03 4.20179 4.00537 0
M  V30 13759 H 1294.8 2.99467 0.118262 0
M  V30 13760 H 1292.36 1.61693 -0.0817727 0
M  V30 13761 H 1294.35 3.05992 2.64861 0
M  V30 13762 H 1292.92 2.03366 2.37405 0
M  V30 13763 H 1292.14 3.87798 0.707559 0
M  V30 13764 H 1293.43 4.9003 1.36924 0
M  V30 13765 H 1292.83 3.67164 4.30357 0
M  V30 13766 H 1291.38 4.51549 4.7005 0
M  V30 13767 N 1294.82 -0.0116844 1.57596 0
M  V30 13768 C 1296.23 -0.367602 1.55309 0
M  V30 13769 C 1296.43 -1.75524 0.98962 0
M  V30 13770 O 1295.49 -2.44813 0.618289 0
M  V30 13771 C 1296.8 -0.253532 2.99629 0
M  V30 13772 C 1298.35 -0.329335 3.11263 0
M  V30 13773 C 1298.82 -0.24452 4.57347 0
M  V30 13774 N 1300.31 -0.302782 4.62209 0
M  V30 13775 C 1301.05 -0.260315 5.72809 0
M  V30 13776 N 1300.55 -0.169124 6.92594 0
M  V30 13777 N 1302.34 -0.311323 5.61237 0
M  V30 13778 H 1294.49 0.896204 1.92567 0
M  V30 13779 H 1296.75 0.342445 0.883988 0
M  V30 13780 H 1296.46 0.70074 3.44648 0
M  V30 13781 H 1296.33 -1.04029 3.62571 0
M  V30 13782 H 1298.72 -1.27405 2.66181 0
M  V30 13783 H 1298.8 0.487084 2.5112 0
M  V30 13784 H 1298.44 0.696597 5.031 0
M  V30 13785 H 1298.37 -1.07927 5.15421 0
M  V30 13786 H 1300.87 -0.375067 3.76034 0
M  V30 13787 H 1301.18 -0.142296 7.72669 0
M  V30 13788 H 1299.52 -0.134919 6.94869 0
M  V30 13789 H 1302.71 -0.380678 4.6655 0
M  V30 13790 H 1302.89 -0.274761 6.47417 0
M  V30 13791 N 1296.29 -1.55015 -0.284256 0
M  V30 13792 C 1297.2 -1.90203 -1.37332 0
M  V30 13793 C 1298.22 -0.797994 -1.54622 0
M  V30 13794 O 1299.4 -1.09602 -1.68965 0
M  V30 13795 C 1296.46 -2.15687 -2.71441 0
M  V30 13796 C 1295.52 -3.39313 -2.62993 0
M  V30 13797 C 1294.75 -3.63571 -3.90707 0
M  V30 13798 O 1294.98 -2.90538 -4.9086 0
M  V30 13799 O 1293.91 -4.57102 -3.91589 0
M  V30 13800 H 1297.74 -2.82888 -1.1049 0
M  V30 13801 H 1295.32 -1.41418 -0.481798 0
M  V30 13802 H 1297.2 -2.33553 -3.50758 0
M  V30 13803 H 1295.88 -1.26185 -2.98092 0
M  V30 13804 H 1294.79 -3.26793 -1.82091 0
M  V30 13805 H 1296.12 -4.28997 -2.41293 0
M  V30 13806 N 1297.77 0.548248 -1.47757 0
M  V30 13807 C 1299.01 1.31569 -1.56426 0
M  V30 13808 C 1299.38 1.90676 -0.225072 0
M  V30 13809 O 1300.58 2.68151 -0.186652 0
M  V30 13810 C 1298.85 2.38951 -2.65776 0
M  V30 13811 S 1300.41 3.25664 -2.94089 0
M  V30 13812 H 1297.22 0.447791 -0.552272 0
M  V30 13813 H 1299.83 0.626659 -1.85184 0
M  V30 13814 H 1298.53 1.93978 -3.61664 0
M  V30 13815 H 1298.06 3.12584 -2.38861 0
M  V30 13816 H 1300.08 4.38629 -2.31989 0
M  V30 13817 N 1299.25 1.36039 0.795694 0
M  V30 13818 C 1300.5 1.30112 1.5556 0
M  V30 13819 C 1300.83 -0.121197 1.93821 0
M  V30 13820 O 1300.1 -1.07313 1.62216 0
M  V30 13821 C 1300.39 2.21792 2.8369 0
M  V30 13822 C 1300.24 3.72691 2.51836 0
M  V30 13823 C 1301.56 2.12365 3.85472 0
M  V30 13824 H 1298.68 0.473971 0.564376 0
M  V30 13825 H 1301.32 1.66536 0.91465 0
M  V30 13826 H 1299.47 1.9086 3.38386 0
M  V30 13827 H 1301.14 4.14115 2.0324 0
M  V30 13828 H 1299.38 3.92436 1.84869 0
M  V30 13829 H 1300.06 4.32242 3.43323 0
M  V30 13830 H 1302.53 2.3958 3.40207 0
M  V30 13831 H 1301.41 2.78695 4.72885 0
M  V30 13832 H 1301.67 1.10898 4.27965 0
M  V30 13833 N 1300.73 -1.01913 1.20215 0
M  V30 13834 C 1301.95 -1.79613 1.03702 0
M  V30 13835 C 1302.38 -1.83591 -0.409374 0
M  V30 13836 O 1301.74 -1.26911 -1.29473 0
M  V30 13837 C 1301.78 -3.22052 1.62219 0
M  V30 13838 O 1300.89 -4.03374 0.858106 0
M  V30 13839 H 1300.23 -0.554095 0.365889 0
M  V30 13840 H 1302.76 -1.28203 1.59452 0
M  V30 13841 H 1302.77 -3.72772 1.65847 0
M  V30 13842 H 1301.44 -3.18471 2.67487 0
M  V30 13843 H 1300.02 -3.6198 0.895835 0
M  V30 13844 N 1302.21 -1.00763 -1.2118 0
M  V30 13845 C 1303.62 -0.720905 -1.42391 0
M  V30 13846 C 1303.82 0.702918 -1.88842 0
M  V30 13847 O 1302.88 1.47191 -2.05161 0
M  V30 13848 C 1304.19 -1.739 -2.45315 0
M  V30 13849 C 1305.74 -1.75611 -2.59094 0
M  V30 13850 C 1306.21 -2.76323 -3.65253 0
M  V30 13851 N 1307.71 -2.75007 -3.72727 0
M  V30 13852 C 1308.44 -3.49594 -4.54502 0
M  V30 13853 N 1307.94 -4.33828 -5.40153 0
M  V30 13854 N 1309.73 -3.38232 -4.4895 0
M  V30 13855 H 1301.88 -1.92697 -0.893404 0
M  V30 13856 H 1304.14 -0.831888 -0.454606 0
M  V30 13857 H 1303.85 -2.75859 -2.18162 0
M  V30 13858 H 1303.72 -1.5438 -3.44161 0
M  V30 13859 H 1306.11 -0.743416 -2.85582 0
M  V30 13860 H 1306.19 -1.99203 -1.60474 0
M  V30 13861 H 1305.84 -3.77751 -3.39509 0
M  V30 13862 H 1305.77 -2.49996 -4.63476 0
M  V30 13863 H 1308.26 -2.13897 -3.11539 0
M  V30 13864 H 1308.57 -4.8753 -5.99612 0
M  V30 13865 H 1306.91 -4.3791 -5.39685 0
M  V30 13866 H 1310.11 -2.71855 -3.81068 0
M  V30 13867 H 1310.28 -3.96615 -5.12445 0
M  V30 13868 N 1303.68 1.3679 -0.7827 0
M  V30 13869 C 1304.62 2.28805 -0.13451 0
M  V30 13870 C 1305.63 1.49159 0.652338 0
M  V30 13871 O 1306.82 1.71682 0.488626 0
M  V30 13872 C 1303.92 3.28508 0.832802 0
M  V30 13873 C 1303.09 4.37291 0.0974435 0
M  V30 13874 C 1302.15 5.16999 0.979715 0
M  V30 13875 O 1301.18 5.67501 0.439439 0
M  V30 13876 N 1302.38 5.32786 2.30477 0
M  V30 13877 H 1305.14 2.85072 -0.924873 0
M  V30 13878 H 1302.7 1.48884 -0.636012 0
M  V30 13879 H 1304.7 3.78718 1.42671 0
M  V30 13880 H 1303.27 2.7293 1.52408 0
M  V30 13881 H 1302.49 3.88335 -0.677483 0
M  V30 13882 H 1303.77 5.07143 -0.410259 0
M  V30 13883 H 1303.17 4.93358 2.76793 0
M  V30 13884 H 1301.73 5.86264 2.84848 0
M  V30 13885 N 1305.16 0.53415 1.48272 0
M  V30 13886 C 1306.07 -0.230062 2.33469 0
M  V30 13887 C 1307.09 -0.934889 1.46751 0
M  V30 13888 O 1308.26 -0.908921 1.79724 0
M  V30 13889 C 1305.33 -1.2609 3.22958 0
M  V30 13890 C 1304.39 -0.565983 4.25553 0
M  V30 13891 C 1303.62 -1.54771 5.10766 0
M  V30 13892 O 1303.85 -2.7807 4.9803 0
M  V30 13893 O 1302.78 -1.08482 5.92043 0
M  V30 13894 H 1306.61 0.468182 3.0007 0
M  V30 13895 H 1304.19 0.29502 1.46458 0
M  V30 13896 H 1306.07 -1.85652 3.783 0
M  V30 13897 H 1304.75 -1.94148 2.59014 0
M  V30 13898 H 1303.66 0.0702391 3.74034 0
M  V30 13899 H 1304.99 0.0727277 4.92146 0
M  V30 13900 N 1306.64 -1.55279 0.269478 0
M  V30 13901 C 1307.87 -2.03581 -0.351907 0
M  V30 13902 C 1308.28 -1.14747 -1.50432 0
M  V30 13903 O 1307.62 -0.158939 -1.83011 0
M  V30 13904 C 1307.68 -3.48041 -0.900444 0
M  V30 13905 C 1307.35 -4.56835 0.122612 0
M  V30 13906 C 1308.34 -5.11329 0.940149 0
M  V30 13907 C 1306.03 -5.01651 0.255224 0
M  V30 13908 C 1308.02 -6.09151 1.87654 0
M  V30 13909 C 1305.71 -5.993 1.19509 0
M  V30 13910 C 1306.71 -6.52931 2.00426 0
M  V30 13911 O 1306.4 -7.48671 2.92825 0
M  V30 13912 H 1306.13 -0.670627 -0.0850629 0
M  V30 13913 H 1308.68 -2.01514 0.39766 0
M  V30 13914 H 1306.91 -3.47329 -1.69998 0
M  V30 13915 H 1308.6 -3.79713 -1.43431 0
M  V30 13916 H 1309.37 -4.77522 0.848402 0
M  V30 13917 H 1305.25 -4.59556 -0.364579 0
M  V30 13918 H 1308.79 -6.50937 2.50853 0
M  V30 13919 H 1304.69 -6.32526 1.28768 0
M  V30 13920 H 1305.46 -7.66368 2.87442 0
M  V30 13921 N 1308.12 0.00332656 -1.576 0
M  V30 13922 C 1309.53 0.359361 -1.55502 0
M  V30 13923 C 1309.73 1.74997 -0.998914 0
M  V30 13924 O 1308.79 2.44482 -0.631263 0
M  V30 13925 C 1310.1 0.237638 -2.9976 0
M  V30 13926 C 1311.65 0.312824 -3.11433 0
M  V30 13927 C 1312.13 0.220262 -4.5747 0
M  V30 13928 N 1313.62 0.278265 -4.62363 0
M  V30 13929 C 1314.35 0.229933 -5.72939 0
M  V30 13930 N 1313.85 0.132391 -6.92673 0
M  V30 13931 N 1315.64 0.281555 -5.61394 0
M  V30 13932 H 1307.79 -0.906404 -1.92089 0
M  V30 13933 H 1310.06 -0.347129 -0.88216 0
M  V30 13934 H 1309.76 -0.719007 -3.44272 0
M  V30 13935 H 1309.64 1.02105 -3.63118 0
M  V30 13936 H 1312.02 1.25991 -2.66852 0
M  V30 13937 H 1312.1 -0.500395 -2.50858 0
M  V30 13938 H 1311.75 -0.723267 -5.02724 0
M  V30 13939 H 1311.68 1.05192 -5.15987 0
M  V30 13940 H 1314.17 0.35512 -3.76228 0
M  V30 13941 H 1314.48 0.101317 -7.72734 0
M  V30 13942 H 1312.83 0.0980665 -6.94931 0
M  V30 13943 H 1316.02 0.355931 -4.66745 0
M  V30 13944 H 1316.19 0.240423 -6.47554 0
M  V30 13945 N 1309.6 1.55164 0.276031 0
M  V30 13946 C 1310.54 1.87836 1.34113 0
M  V30 13947 C 1311.51 0.729562 1.4922 0
M  V30 13948 O 1312.7 0.980549 1.63676 0
M  V30 13949 C 1309.84 2.15313 2.69693 0
M  V30 13950 C 1308.95 3.42845 2.62833 0
M  V30 13951 C 1308.09 3.60038 3.90572 0
M  V30 13952 C 1307.13 4.81273 3.7821 0
M  V30 13953 N 1306.26 4.95139 4.97777 0
M  V30 13954 H 1311.1 2.78681 1.0555 0
M  V30 13955 H 1308.64 1.37976 0.510001 0
M  V30 13956 H 1310.6 2.29243 3.48573 0
M  V30 13957 H 1309.23 1.27706 2.96464 0
M  V30 13958 H 1308.28 3.37403 1.75679 0
M  V30 13959 H 1309.59 4.3186 2.49597 0
M  V30 13960 H 1308.75 3.73769 4.77893 0
M  V30 13961 H 1307.48 2.69203 4.06671 0
M  V30 13962 H 1306.49 4.67549 2.89271 0
M  V30 13963 H 1307.71 5.7354 3.63632 0
M  V30 13964 H 1305.66 4.07234 5.14292 0
M  V30 13965 H 1305.58 5.78194 4.8706 0
M  V30 13966 H 1306.85 5.13253 5.86679 0
M  V30 13967 N 1311.07 -0.540404 1.48045 0
M  V30 13968 C 1312.3 -1.31986 1.58944 0
M  V30 13969 C 1312.71 -1.87608 0.244889 0
M  V30 13970 O 1312.06 -1.66576 -0.774467 0
M  V30 13971 C 1312.12 -2.51547 2.56835 0
M  V30 13972 C 1311.78 -2.17089 4.02146 0
M  V30 13973 C 1312.78 -1.73379 4.90138 0
M  V30 13974 C 1310.46 -2.27932 4.47607 0
M  V30 13975 C 1312.46 -1.40964 6.21617 0
M  V30 13976 C 1310.14 -1.95129 5.7911 0
M  V30 13977 C 1311.14 -1.51715 6.65937 0
M  V30 13978 O 1310.83 -1.19337 7.94993 0
M  V30 13979 H 1310.56 -0.408028 0.538971 0
M  V30 13980 H 1313.12 -0.659748 1.94516 0
M  V30 13981 H 1311.35 -3.20505 2.16364 0
M  V30 13982 H 1313.04 -3.13617 2.57681 0
M  V30 13983 H 1313.8 -1.64481 4.56258 0
M  V30 13984 H 1309.68 -2.6068 3.8022 0
M  V30 13985 H 1313.22 -1.07005 6.89344 0
M  V30 13986 H 1309.12 -2.03664 6.12528 0
M  V30 13987 H 1309.89 -1.32824 8.07651 0
M  V30 13988 N 1312.55 -1.36459 -0.788468 0
M  V30 13989 C 1313.8 -1.30483 -1.54333 0
M  V30 13990 C 1314.12 0.115266 -1.94659 0
M  V30 13991 O 1313.39 1.05573 -1.65019 0
M  V30 13992 H 1311.97 -0.480004 -0.572368 0
M  V30 13993 H 1314.63 -1.70765 -0.939428 0
M  V30 13994 H 1313.73 -1.93284 -2.45046 0
M  V30 13995 N 1314.03 1.01274 -1.20754 0
M  V30 13996 C 1315.28 1.74586 -1.01804 0
M  V30 13997 C 1315.6 1.89727 0.450419 0
M  V30 13998 O 1314.87 1.44257 1.32539 0
M  V30 13999 H 1313.45 0.646804 -0.373702 0
M  V30 14000 H 1316.11 1.22079 -1.5193 0
M  V30 14001 H 1315.21 2.748 -1.47958 0
M  V30 14002 N 1315.51 1.01404 1.20644 0
M  V30 14003 C 1316.47 0.586941 2.21557 0
M  V30 14004 C 1317.47 -0.341543 1.57131 0
M  V30 14005 O 1318.66 -0.130585 1.7371 0
M  V30 14006 C 1315.79 -0.143248 3.40599 0
M  V30 14007 H 1316.99 1.47964 2.60858 0
M  V30 14008 H 1314.54 0.803551 1.34063 0
M  V30 14009 H 1315.28 -1.05097 3.06798 0
M  V30 14010 H 1315.06 0.523716 3.88587 0
M  V30 14011 H 1316.55 -0.429504 4.15385 0
M  V30 14012 N 1316.99 -1.36373 0.789944 0
M  V30 14013 C 1317.93 -2.30043 0.186798 0
M  V30 14014 C 1318.9 -1.52002 -0.669663 0
M  V30 14015 O 1320.09 -1.80506 -0.618232 0
M  V30 14016 C 1317.23 -3.38494 -0.671994 0
M  V30 14017 C 1316.34 -4.31522 0.203067 0
M  V30 14018 C 1315.48 -5.27057 -0.662148 0
M  V30 14019 C 1314.52 -6.11725 0.214335 0
M  V30 14020 N 1313.65 -6.99446 -0.609892 0
M  V30 14021 H 1318.49 -2.81038 0.991048 0
M  V30 14022 H 1316.03 -1.38331 0.500288 0
M  V30 14023 H 1317.99 -4.0002 -1.1849 0
M  V30 14024 H 1316.62 -2.88818 -1.44167 0
M  V30 14025 H 1315.67 -3.71146 0.833945 0
M  V30 14026 H 1316.98 -4.91005 0.878389 0
M  V30 14027 H 1316.14 -5.93875 -1.24084 0
M  V30 14028 H 1314.88 -4.6803 -1.37109 0
M  V30 14029 H 1313.88 -5.43868 0.805426 0
M  V30 14030 H 1315.11 -6.72827 0.92089 0
M  V30 14031 H 1313.05 -6.42927 -1.30312 0
M  V30 14032 H 1312.97 -7.56 0.00773786 0
M  V30 14033 H 1314.24 -7.70633 -1.1724 0
M  V30 14034 N 1318.47 -0.542005 -1.47987 0
M  V30 14035 C 1319.4 0.202703 -2.32618 0
M  V30 14036 C 1320.38 0.923521 -1.42846 0
M  V30 14037 O 1321.56 0.906957 -1.7172 0
M  V30 14038 C 1318.69 1.24267 -3.24307 0
M  V30 14039 C 1317.65 0.639257 -4.23199 0
M  V30 14040 C 1316.97 1.78275 -5.04105 0
M  V30 14041 C 1318.27 -0.396982 -5.20789 0
M  V30 14042 H 1319.97 -0.503817 -2.95131 0
M  V30 14043 H 1317.51 -0.243736 -1.41922 0
M  V30 14044 H 1319.46 1.7717 -3.82347 0
M  V30 14045 H 1318.19 1.97893 -2.59819 0
M  V30 14046 H 1316.85 0.131655 -3.66364 0
M  V30 14047 H 1316.5 2.50768 -4.36032 0
M  V30 14048 H 1316.2 1.38487 -5.71047 0
M  V30 14049 H 1317.72 2.31533 -5.65 0
M  V30 14050 H 1319.13 0.0454057 -5.73282 0
M  V30 14051 H 1317.53 -0.712911 -5.9585 0
M  V30 14052 H 1318.6 -1.29843 -4.67193 0
M  V30 14053 N 1319.94 1.55134 -0.277709 0
M  V30 14054 C 1320.89 2.24057 0.624594 0
M  V30 14055 C 1321.89 1.23848 1.15577 0
M  V30 14056 O 1323.09 1.41771 1.1091 0
M  V30 14057 H 1319.47 0.719106 0.219977 0
M  V30 14058 H 1321.44 2.98393 0.0204815 0
M  V30 14059 C 1320.19 2.97712 1.79618 0
M  V30 14060 H 1319.51 3.74611 1.39665 0
M  V30 14061 H 1320.95 3.49255 2.4041 0
M  V30 14062 C 1319.41 2.03332 2.68622 0
M  V30 14063 O 1319.94 1.58622 3.69056 0
M  V30 14064 N 1318.14 1.69778 2.35847 0
M  V30 14065 H 1317.69 2.06333 1.54222 0
M  V30 14066 H 1317.65 1.06901 2.95668 0
M  V30 14067 N 1321.42 0.00503138 1.57599 0
M  V30 14068 C 1322.84 -0.351109 1.5569 0
M  V30 14069 C 1323.04 -1.74465 1.00818 0
M  V30 14070 O 1322.09 -2.44144 0.64422 0
M  V30 14071 C 1323.41 -0.221738 2.99881 0
M  V30 14072 C 1324.95 -0.296303 3.11594 0
M  V30 14073 C 1325.43 -0.195998 4.5758 0
M  V30 14074 N 1326.92 -0.253741 4.62504 0
M  V30 14075 C 1327.66 -0.199546 5.73053 0
M  V30 14076 N 1327.15 -0.0956553 6.92734 0
M  V30 14077 N 1328.94 -0.251779 5.61536 0
M  V30 14078 H 1321.1 0.916578 1.91605 0
M  V30 14079 H 1323.36 0.351802 0.880306 0
M  V30 14080 H 1323.06 0.737255 3.43886 0
M  V30 14081 H 1322.94 -1.00178 3.63654 0
M  V30 14082 H 1325.33 -1.24574 2.67517 0
M  V30 14083 H 1325.41 0.513692 2.50589 0
M  V30 14084 H 1325.05 0.749918 5.02333 0
M  V30 14085 H 1324.98 -1.02455 5.16537 0
M  V30 14086 H 1327.47 -0.335163 3.76411 0
M  V30 14087 H 1327.78 -0.0603357 7.72776 0
M  V30 14088 H 1326.13 -0.0612113 6.94973 0
M  V30 14089 H 1329.32 -0.331173 4.66927 0
M  V30 14090 H 1329.49 -0.206078 6.47672 0
M  V30 14091 N 1322.9 -1.55308 -0.267798 0
M  V30 14092 C 1323.83 -1.91555 -1.33525 0
M  V30 14093 C 1324.81 -0.778001 -1.51265 0
M  V30 14094 O 1326 -1.03657 -1.64222 0
M  V30 14095 C 1323.13 -2.19201 -2.69385 0
M  V30 14096 C 1322.08 -3.3501 -2.66369 0
M  V30 14097 C 1321.41 -3.48148 -4.05829 0
M  V30 14098 C 1322.71 -4.71265 -2.25182 0
M  V30 14099 H 1324.4 -2.80965 -1.03437 0
M  V30 14100 H 1321.95 -1.35183 -0.496141 0
M  V30 14101 H 1323.9 -2.43146 -3.44177 0
M  V30 14102 H 1322.62 -1.26596 -3.01067 0
M  V30 14103 H 1321.28 -3.11041 -1.94034 0
M  V30 14104 H 1320.93 -2.53 -4.34741 0
M  V30 14105 H 1320.63 -4.26014 -4.04704 0
M  V30 14106 H 1322.15 -3.74391 -4.82352 0
M  V30 14107 H 1323.57 -4.94719 -2.89699 0
M  V30 14108 H 1321.96 -5.52084 -2.3521 0
M  V30 14109 H 1323.03 -4.69735 -1.20319 0
M  V30 14110 N 1324.38 0.532545 -1.4833 0
M  V30 14111 C 1325.33 1.65832 -1.63103 0
M  V30 14112 C 1326.32 1.61929 -0.497538 0
M  V30 14113 O 1327.53 1.66817 -0.676176 0
M  V30 14114 H 1323.9 0.549152 -0.513748 0
M  V30 14115 H 1325.87 1.50515 -2.57658 0
M  V30 14116 C 1324.62 3.04113 -1.68555 0
M  V30 14117 H 1323.94 3.07809 -2.55135 0
M  V30 14118 H 1325.38 3.82506 -1.82936 0
M  V30 14119 C 1323.84 3.34225 -0.423711 0
M  V30 14120 O 1324.37 3.99005 0.464523 0
M  V30 14121 N 1322.58 2.89087 -0.296192 0
M  V30 14122 H 1322.13 2.36547 -1.01997 0
M  V30 14123 H 1322.08 3.09604 0.547082 0
M  V30 14124 N 1325.86 1.36875 0.78122 0
M  V30 14125 C 1327.27 1.28236 1.35692 0
M  V30 14126 C 1327.62 -0.0742286 1.9606 0
M  V30 14127 O 1326.74 -0.97588 1.93146 0
M  V30 14128 C 1327.34 2.32215 2.46702 0
M  V30 14129 C 1325.9 2.2724 3.00065 0
M  V30 14130 C 1325.04 2.16553 1.73206 0
M  V30 14131 H 1327.99 1.47634 0.582217 0
M  V30 14132 H 1328.02 1.96333 3.25935 0
M  V30 14133 H 1327.53 3.30938 2.02735 0
M  V30 14134 H 1325.63 1.3201 3.48431 0
M  V30 14135 H 1325.74 3.20267 3.56323 0
M  V30 14136 H 1324.11 1.62941 1.95761 0
M  V30 14137 H 1324.89 3.17176 1.31356 0
M  V30 14138 N 1327.33 -1.00632 1.21289 0
M  V30 14139 C 1328.58 -1.74044 1.02728 0
M  V30 14140 C 1328.9 -1.89963 -0.440351 0
M  V30 14141 O 1328.17 -1.44958 -1.31772 0
M  V30 14142 H 1326.75 -0.644813 0.377127 0
M  V30 14143 H 1329.41 -1.21272 1.52575 0
M  V30 14144 H 1328.51 -2.74011 1.49413 0
M  V30 14145 N 1328.81 -1.02043 -1.20104 0
M  V30 14146 C 1329.76 -0.587332 -2.25063 0
M  V30 14147 C 1330.75 0.375844 -1.65178 0
M  V30 14148 O 1331.96 0.245347 -1.7832 0
M  V30 14149 H 1328.33 -0.171637 -0.732151 0
M  V30 14150 H 1330.31 -1.48339 -2.58917 0
M  V30 14151 C 1329.05 0.0546893 -3.47657 0
M  V30 14152 H 1328.38 -0.677457 -3.94018 0
M  V30 14153 H 1329.82 0.320786 -4.22785 0
M  V30 14154 C 1328.28 1.29869 -3.10863 0
M  V30 14155 O 1328.81 2.39161 -3.22746 0
M  V30 14156 N 1327.01 1.18423 -2.65376 0
M  V30 14157 H 1326.56 0.294895 -2.55906 0
M  V30 14158 H 1326.52 2.01755 -2.41128 0
M  V30 14159 N 1330.29 1.35952 -0.797165 0
M  V30 14160 C 1331.52 2.02986 -0.384758 0
M  V30 14161 C 1331.93 1.60233 1.00608 0
M  V30 14162 O 1331.27 0.790955 1.658 0
M  V30 14163 C 1331.33 3.57508 -0.37795 0
M  V30 14164 C 1331 4.23491 -1.71769 0
M  V30 14165 C 1331.99 4.45835 -2.67445 0
M  V30 14166 C 1329.68 4.60804 -1.99911 0
M  V30 14167 C 1331.67 5.04584 -3.89453 0
M  V30 14168 C 1329.36 5.19269 -3.22185 0
M  V30 14169 C 1330.36 5.41099 -4.16774 0
M  V30 14170 O 1330.05 5.98334 -5.36891 0
M  V30 14171 H 1329.78 0.657838 -0.155644 0
M  V30 14172 H 1332.33 1.7475 -1.07942 0
M  V30 14173 H 1330.56 3.84894 0.373253 0
M  V30 14174 H 1332.25 4.05899 0.0108505 0
M  V30 14175 H 1333.02 4.17397 -2.46992 0
M  V30 14176 H 1328.9 4.43132 -1.27102 0
M  V30 14177 H 1332.44 5.21539 -4.63296 0
M  V30 14178 H 1328.34 5.47134 -3.42512 0
M  V30 14179 H 1329.11 6.16794 -5.38059 0
M  V30 14180 N 1331.77 0.549846 1.47697 0
M  V30 14181 C 1333 0.0276889 2.06881 0
M  V30 14182 C 1333.41 -1.26273 1.40359 0
M  V30 14183 O 1332.77 -1.75584 0.497644 0
M  V30 14184 C 1332.82 -0.179291 3.61055 0
M  V30 14185 O 1332.54 1.06002 4.25083 0
M  V30 14186 C 1334.04 -0.739571 4.37087 0
M  V30 14187 H 1331.26 0.0425016 0.669653 0
M  V30 14188 H 1333.81 0.761158 1.89807 0
M  V30 14189 H 1331.96 -0.862867 3.77668 0
M  V30 14190 H 1332.37 0.853137 5.17515 0
M  V30 14191 H 1333.85 -0.833722 5.45668 0
M  V30 14192 H 1334.33 -1.74915 4.02867 0
M  V30 14193 H 1334.93 -0.0919294 4.25201 0
M  V30 14194 N 1333.25 -1.54984 0.285932 0
M  V30 14195 C 1334.21 -2.2164 -0.583824 0
M  V30 14196 C 1335.21 -1.19764 -1.073 0
M  V30 14197 O 1336.4 -1.44598 -0.971439 0
M  V30 14198 C 1333.53 -2.8909 -1.80665 0
M  V30 14199 H 1334.72 -2.999 -0.00168109 0
M  V30 14200 H 1332.28 -1.56257 0.0366325 0
M  V30 14201 H 1333.01 -2.14869 -2.42903 0
M  V30 14202 H 1332.8 -3.63756 -1.4637 0
M  V30 14203 H 1334.29 -3.39982 -2.42491 0
M  V30 14204 N 1334.72 -0.0133892 -1.57594 0
M  V30 14205 C 1336.14 0.342848 -1.55874 0
M  V30 14206 C 1336.34 1.73928 -1.01742 0
M  V30 14207 O 1335.4 2.43798 -0.657158 0
M  V30 14208 C 1336.71 0.205831 -2.99995 0
M  V30 14209 C 1338.26 0.279774 -3.11747 0
M  V30 14210 C 1338.73 0.171729 -4.57678 0
M  V30 14211 N 1340.22 0.22921 -4.62633 0
M  V30 14212 C 1340.96 0.169153 -5.7315 0
M  V30 14213 N 1340.45 0.0589166 -6.92775 0
M  V30 14214 N 1342.25 0.221995 -5.61661 0
M  V30 14215 H 1334.4 -0.926727 -1.91117 0
M  V30 14216 H 1336.66 -0.356466 -0.878428 0
M  V30 14217 H 1336.37 -0.755482 -3.4349 0
M  V30 14218 H 1336.24 0.982476 -3.6418 0
M  V30 14219 H 1338.63 1.23154 -2.68174 0
M  V30 14220 H 1338.71 -0.526974 -2.50313 0
M  V30 14221 H 1338.35 -0.776547 -5.01928 0
M  V30 14222 H 1338.28 0.997138 -5.17073 0
M  V30 14223 H 1340.77 0.315196 -3.76583 0
M  V30 14224 H 1341.09 0.0193526 -7.72798 0
M  V30 14225 H 1339.43 0.0243543 -6.94996 0
M  V30 14226 H 1342.62 0.306406 -4.67096 0
M  V30 14227 H 1342.8 0.171727 -6.47772 0
M  V30 14228 N 1336.2 1.55448 0.259558 0
M  V30 14229 C 1337.45 1.7589 0.987201 0
M  V30 14230 C 1337.76 0.574951 1.86959 0
M  V30 14231 O 1338.97 0.662091 2.63303 0
M  V30 14232 C 1337.43 3.11349 1.80526 0
M  V30 14233 C 1337.03 4.37353 0.970882 0
M  V30 14234 C 1338.78 3.41136 2.5264 0
M  V30 14235 C 1336.69 5.63847 1.7841 0
M  V30 14236 H 1335.62 0.655662 0.372321 0
M  V30 14237 H 1338.27 1.81893 0.242332 0
M  V30 14238 H 1336.65 2.9942 2.5916 0
M  V30 14239 H 1337.82 4.60237 0.227763 0
M  V30 14240 H 1336.14 4.14809 0.363669 0
M  V30 14241 H 1338.73 4.32855 3.13912 0
M  V30 14242 H 1339.08 2.61879 3.23612 0
M  V30 14243 H 1339.61 3.54224 1.81026 0
M  V30 14244 H 1336.35 6.4589 1.11834 0
M  V30 14245 H 1335.87 5.45086 2.50283 0
M  V30 14246 H 1337.55 6.02641 2.35441 0
M  V30 14247 N 1337.68 -0.524672 1.4861 0
M  V30 14248 C 1338.61 -1.64481 1.59621 0
M  V30 14249 C 1339.63 -1.55557 0.480181 0
M  V30 14250 O 1340.81 -1.61921 0.751254 0
M  V30 14251 C 1337.91 -3.03158 1.51487 0
M  V30 14252 C 1337.09 -3.37509 2.78221 0
M  V30 14253 C 1336.15 -4.5549 2.63467 0
M  V30 14254 O 1335.17 -4.58448 3.37364 0
M  V30 14255 N 1336.37 -5.53986 1.73437 0
M  V30 14256 H 1339.14 -1.5547 2.56221 0
M  V30 14257 H 1336.7 -0.712059 1.45401 0
M  V30 14258 H 1338.69 -3.79969 1.39305 0
M  V30 14259 H 1337.26 -3.06219 0.628406 0
M  V30 14260 H 1336.48 -2.49824 3.04929 0
M  V30 14261 H 1337.77 -3.57246 3.62288 0
M  V30 14262 H 1337.17 -5.54378 1.12612 0
M  V30 14263 H 1335.73 -6.29993 1.6719 0
M  V30 14264 N 1339.16 -1.37287 -0.77395 0
M  V30 14265 C 1340.12 -1.32699 -1.86878 0
M  V30 14266 C 1341.12 -0.231486 -1.59125 0
M  V30 14267 O 1342.31 -0.487203 -1.67248 0
M  V30 14268 C 1339.44 -1.0609 -3.23972 0
M  V30 14269 H 1340.64 -2.30083 -1.92359 0
M  V30 14270 H 1338.19 -1.22284 -0.973459 0
M  V30 14271 H 1338.92 -0.0922868 -3.24169 0
M  V30 14272 H 1338.71 -1.85383 -3.45508 0
M  V30 14273 H 1340.2 -1.05524 -4.04048 0
M  V30 14274 N 1340.64 0.999871 -1.21821 0
M  V30 14275 C 1341.86 1.77405 -1.06467 0
M  V30 14276 C 1342.28 1.84828 0.385227 0
M  V30 14277 O 1341.64 1.31338 1.26714 0
M  V30 14278 C 1341.69 3.21062 -1.66137 0
M  V30 14279 O 1341.41 3.14054 -3.05454 0
M  V30 14280 C 1342.91 4.14958 -1.55963 0
M  V30 14281 H 1340.13 0.557368 -0.373607 0
M  V30 14282 H 1342.67 1.2575 -1.61267 0
M  V30 14283 H 1340.83 3.69808 -1.15416 0
M  V30 14284 H 1341.24 4.04346 -3.34073 0
M  V30 14285 H 1342.72 5.13536 -2.02448 0
M  V30 14286 H 1343.19 4.36171 -0.514949 0
M  V30 14287 H 1343.8 3.72105 -2.05956 0
M  V30 14288 N 1342.11 1.02678 1.19562 0
M  V30 14289 C 1343.34 0.741424 1.93695 0
M  V30 14290 C 1343.76 -0.693203 1.74861 0
M  V30 14291 O 1343.12 -1.47833 1.04953 0
M  V30 14292 C 1343.17 1.09514 3.43568 0
M  V30 14293 O 1342.27 0.212596 4.11852 0
M  V30 14294 H 1341.62 0.274128 0.604773 0
M  V30 14295 H 1344.15 1.37289 1.517 0
M  V30 14296 H 1344.16 1.05115 3.94227 0
M  V30 14297 H 1342.83 2.14034 3.56598 0
M  V30 14298 H 1341.41 0.315 3.71567 0
M  V30 14299 N 1343.59 -1.35528 0.804364 0
M  V30 14300 C 1344.52 -2.32388 0.227604 0
M  V30 14301 C 1345.5 -1.57368 -0.645709 0
M  V30 14302 O 1346.69 -1.85448 -0.576441 0
M  V30 14303 C 1343.82 -3.41603 -0.62645 0
M  V30 14304 C 1342.77 -4.27743 0.148187 0
M  V30 14305 C 1342.1 -5.28259 -0.827425 0
M  V30 14306 C 1343.4 -5.04661 1.34591 0
M  V30 14307 H 1345.09 -2.80874 1.03684 0
M  V30 14308 H 1342.64 -1.3504 0.500031 0
M  V30 14309 H 1344.59 -4.08365 -1.03999 0
M  V30 14310 H 1343.32 -2.91721 -1.46855 0
M  V30 14311 H 1341.97 -3.62558 0.542874 0
M  V30 14312 H 1341.62 -4.74645 -1.66496 0
M  V30 14313 H 1341.32 -5.86763 -0.313453 0
M  V30 14314 H 1342.85 -5.97893 -1.23921 0
M  V30 14315 H 1344.26 -5.6438 1.00736 0
M  V30 14316 H 1342.66 -5.7265 1.79422 0
M  V30 14317 H 1343.73 -4.35432 2.1337 0
M  V30 14318 N 1345.07 -0.557671 -1.47404 0
M  V30 14319 C 1346.3 -0.0366797 -2.07368 0
M  V30 14320 C 1346.72 1.2478 -1.40754 0
M  V30 14321 O 1346.08 1.74757 -0.48268 0
M  V30 14322 C 1346.13 0.141728 -3.60321 0
M  V30 14323 O 1345.23 1.20419 -3.94427 0
M  V30 14324 H 1344.57 -0.0515319 -0.661997 0
M  V30 14325 H 1347.1 -0.773485 -1.89416 0
M  V30 14326 H 1347.11 0.355787 -4.06446 0
M  V30 14327 H 1345.79 -0.796433 -4.08203 0
M  V30 14328 H 1344.36 0.970589 -3.60047 0
M  V30 14329 N 1346.55 1.54831 -0.294147 0
M  V30 14330 C 1347.8 1.99606 0.316509 0
M  V30 14331 C 1348.12 1.18405 1.54936 0
M  V30 14332 O 1347.39 0.278289 1.93913 0
M  V30 14333 H 1345.97 0.737309 0.119938 0
M  V30 14334 H 1348.63 1.90669 -0.403891 0
M  V30 14335 H 1347.73 3.06409 0.593282 0
M  V30 14336 N 1348.03 0.0217466 1.57585 0
M  V30 14337 C 1348.98 -0.980624 2.10918 0
M  V30 14338 C 1349.97 -1.34178 1.03406 0
M  V30 14339 O 1351.18 -1.32487 1.21849 0
M  V30 14340 H 1347.55 -0.333984 0.673764 0
M  V30 14341 H 1349.52 -0.505431 2.94088 0
M  V30 14342 C 1348.27 -2.25639 2.64542 0
M  V30 14343 H 1347.59 -1.98722 3.46914 0
M  V30 14344 H 1349.03 -2.94003 3.05513 0
M  V30 14345 C 1347.49 -2.98111 1.56945 0
M  V30 14346 O 1348.02 -3.89937 0.964975 0
M  V30 14347 N 1346.23 -2.60316 1.29166 0
M  V30 14348 H 1345.78 -1.85722 1.78508 0
M  V30 14349 H 1345.73 -3.09116 0.573987 0
M  V30 14350 N 1349.51 -1.55583 -0.251311 0
M  V30 14351 C 1350.75 -1.76859 -0.978031 0
M  V30 14352 C 1351.07 -0.584924 -1.86021 0
M  V30 14353 O 1350.34 0.399456 -1.91784 0
M  V30 14354 H 1348.92 -0.652252 -0.364111 0
M  V30 14355 H 1351.59 -1.93016 -0.270319 0
M  V30 14356 H 1350.68 -2.67828 -1.60233 0
M  V30 14357 N 1350.98 0.516783 -1.48886 0
M  V30 14358 C 1352.21 1.30103 -1.61518 0
M  V30 14359 C 1352.63 1.85996 -0.28055 0
M  V30 14360 O 1351.99 1.65075 0.749671 0
M  V30 14361 C 1352.04 2.41837 -2.67483 0
M  V30 14362 O 1351.14 3.45249 -2.25559 0
M  V30 14363 H 1350.48 0.384774 -0.541152 0
M  V30 14364 H 1353.01 0.620424 -1.94966 0
M  V30 14365 H 1353.02 2.87832 -2.89165 0
M  V30 14366 H 1351.7 2.00519 -3.64369 0
M  V30 14367 H 1350.28 3.05281 -2.14144 0
M  V30 14368 N 1352.46 1.37696 0.766659 0
M  V30 14369 C 1353.71 1.34388 1.5268 0
M  V30 14370 C 1354.06 -0.0697021 1.92274 0
M  V30 14371 O 1353.36 -1.02947 1.61593 0
M  V30 14372 C 1353.55 2.22154 2.79968 0
M  V30 14373 C 1353.38 3.71905 2.52817 0
M  V30 14374 C 1352.15 4.4099 2.4669 0
M  V30 14375 C 1354.35 4.64647 2.2047 0
M  V30 14376 N 1352.33 5.76252 2.11676 0
M  V30 14377 C 1353.7 5.88324 1.95639 0
M  V30 14378 C 1355.75 4.52982 2.06669 0
M  V30 14379 C 1354.46 7.01643 1.58399 0
M  V30 14380 C 1356.48 5.6619 1.7083 0
M  V30 14381 C 1355.85 6.8892 1.46861 0
M  V30 14382 H 1351.94 0.547046 0.558806 0
M  V30 14383 H 1354.53 1.72964 0.893954 0
M  V30 14384 H 1352.7 1.85788 3.41083 0
M  V30 14385 H 1354.43 2.10068 3.4591 0
M  V30 14386 H 1351.19 3.94051 2.62718 0
M  V30 14387 H 1351.61 6.47749 1.96852 0
M  V30 14388 H 1356.25 3.58661 2.2388 0
M  V30 14389 H 1353.97 7.95893 1.39926 0
M  V30 14390 H 1357.56 5.59137 1.60802 0
M  V30 14391 H 1356.44 7.75035 1.1954 0
M  V30 14392 N 1353.94 -0.993397 1.22349 0
M  V30 14393 C 1355.17 -1.76838 1.07406 0
M  V30 14394 C 1355.58 -1.8503 -0.37542 0
M  V30 14395 O 1354.94 -1.32008 -1.26016 0
M  V30 14396 C 1354.99 -3.20177 1.67837 0
M  V30 14397 O 1354.71 -3.12429 3.07115 0
M  V30 14398 C 1356.21 -4.14125 1.58161 0
M  V30 14399 H 1353.43 -0.555379 0.376557 0
M  V30 14400 H 1355.98 -1.24893 1.61932 0
M  V30 14401 H 1354.13 -3.69191 1.17375 0
M  V30 14402 H 1354.55 -4.02568 3.36213 0
M  V30 14403 H 1356.02 -5.12455 2.05169 0
M  V30 14404 H 1356.5 -4.35892 0.538073 0
M  V30 14405 H 1357.1 -3.71008 2.07926 0
M  V30 14406 N 1355.42 -1.03311 -1.19015 0
M  V30 14407 C 1356.69 -0.646539 -1.84606 0
M  V30 14408 C 1357.07 0.87449 -1.92135 0
M  V30 14409 O 1356.42 1.77291 -1.44154 0
M  V30 14410 C 1356.63 -1.31354 -3.23338 0
M  V30 14411 C 1357.98 -1.43949 -3.99455 0
M  V30 14412 O 1359 -1.27104 -3.32751 0
M  V30 14413 O 1357.86 -1.71328 -5.1895 0
M  V30 14414 H 1354.96 -0.225267 -0.795728 0
M  V30 14415 H 1357.5 -1.13152 -1.2647 0
M  V30 14416 H 1356.28 -2.3521 -3.12717 0
M  V30 14417 H 1355.9 -0.816688 -3.89122 0
M  V30 14418 N 1356.9 1.35099 -0.81154 0
M  V30 14419 C 1358.31 1.81082 -0.454543 0
M  V30 14420 C 1358.66 1.67361 1.02395 0
M  V30 14421 O 1357.78 1.20707 1.79607 0
M  V30 14422 C 1358.38 3.2877 -0.818274 0
M  V30 14423 C 1356.94 3.72877 -0.513808 0
M  V30 14424 C 1356.08 2.57008 -1.04125 0
M  V30 14425 H 1359.03 1.23007 -1.00274 0
M  V30 14426 H 1359.06 3.80318 -0.117683 0
M  V30 14427 H 1358.57 3.38725 -1.89439 0
M  V30 14428 H 1356.67 3.68468 0.553368 0
M  V30 14429 H 1356.78 4.67455 -1.0499 0
M  V30 14430 H 1355.15 2.5045 -0.463337 0
M  V30 14431 H 1355.93 2.69738 -2.12358 0
M  V30 14432 N 1358.37 0.56548 1.47106 0
M  V30 14433 C 1359.62 0.0445914 2.02751 0
M  V30 14434 C 1359.95 -1.30517 1.43801 0
M  V30 14435 O 1359.23 -1.85123 0.596646 0
M  V30 14436 C 1359.51 -0.0396474 3.60078 0
M  V30 14437 C 1359.36 1.3378 4.29445 0
M  V30 14438 C 1360.68 -0.748954 4.3368 0
M  V30 14439 H 1357.8 0.0176787 0.736788 0
M  V30 14440 H 1360.44 0.729363 1.75443 0
M  V30 14441 H 1358.59 -0.622826 3.83475 0
M  V30 14442 H 1360.27 1.96482 4.17364 0
M  V30 14443 H 1358.51 1.91024 3.89477 0
M  V30 14444 H 1359.18 1.23149 5.38088 0
M  V30 14445 H 1361.66 -0.253707 4.15326 0
M  V30 14446 H 1360.53 -0.776877 5.43374 0
M  V30 14447 H 1360.79 -1.80679 4.03494 0
M  V30 14448 N 1359.85 -1.54672 0.302354 0
M  V30 14449 C 1361.1 -2.00167 -0.306524 0
M  V30 14450 C 1361.43 -1.19073 -1.53791 0
M  V30 14451 O 1360.68 -0.255328 -1.94027 0
M  V30 14452 C 1360.98 -3.5035 -0.70638 0
M  V30 14453 C 1360.65 -4.48907 0.423429 0
M  V30 14454 C 1359.31 -4.75575 0.733586 0
M  V30 14455 C 1361.66 -5.07588 1.18338 0
M  V30 14456 C 1358.99 -5.58186 1.80679 0
M  V30 14457 C 1361.34 -5.91367 2.24651 0
M  V30 14458 C 1360.01 -6.16345 2.56272 0
M  V30 14459 H 1359.28 -0.732462 -0.112165 0
M  V30 14460 H 1361.92 -1.86798 0.421732 0
M  V30 14461 H 1360.23 -3.61335 -1.51474 0
M  V30 14462 H 1361.92 -3.82977 -1.18869 0
M  V30 14463 H 1358.51 -4.28256 0.171591 0
M  V30 14464 H 1362.7 -4.86985 0.957018 0
M  V30 14465 H 1357.95 -5.75776 2.05649 0
M  V30 14466 H 1362.13 -6.35862 2.83994 0
M  V30 14467 H 1359.76 -6.80148 3.39563 0
M  V30 14468 N 1361.33 -0.0301034 -1.57571 0
M  V30 14469 C 1362.58 0.648323 -1.91841 0
M  V30 14470 C 1362.91 1.72078 -0.906601 0
M  V30 14471 O 1362.16 1.95518 0.0843233 0
M  V30 14472 C 1362.46 1.30206 -3.32838 0
M  V30 14473 C 1362.13 0.359876 -4.49462 0
M  V30 14474 C 1360.79 0.100552 -4.81095 0
M  V30 14475 C 1363.14 -0.287048 -5.20409 0
M  V30 14476 C 1360.47 -0.813484 -5.81033 0
M  V30 14477 C 1362.82 -1.18914 -6.21323 0
M  V30 14478 C 1361.48 -1.45735 -6.51397 0
M  V30 14479 H 1360.75 0.237238 -0.701997 0
M  V30 14480 H 1363.4 -0.0920804 -1.91278 0
M  V30 14481 H 1361.71 2.11724 -3.29667 0
M  V30 14482 H 1363.4 1.83356 -3.56625 0
M  V30 14483 H 1359.99 0.572172 -4.24764 0
M  V30 14484 H 1364.18 -0.0997611 -4.962 0
M  V30 14485 H 1359.43 -1.02897 -6.02679 0
M  V30 14486 H 1363.61 -1.69661 -6.75417 0
M  V30 14487 H 1361.23 -2.16727 -7.28652 0
M  V30 14488 N 1362.81 1.55714 0.243056 0
M  V30 14489 C 1364.04 1.81522 0.986577 0
M  V30 14490 C 1364.45 0.604051 1.79298 0
M  V30 14491 O 1363.79 -0.43674 1.78433 0
M  V30 14492 C 1363.85 3.0074 1.96967 0
M  V30 14493 C 1363.52 4.3661 1.34983 0
M  V30 14494 C 1364.51 5.14456 0.7504 0
M  V30 14495 C 1362.2 4.83311 1.36805 0
M  V30 14496 C 1364.19 6.37153 0.177438 0
M  V30 14497 C 1361.88 6.05956 0.791233 0
M  V30 14498 C 1362.88 6.82716 0.196959 0
M  V30 14499 O 1362.56 8.03044 -0.370938 0
M  V30 14500 H 1362.3 0.607864 0.295765 0
M  V30 14501 H 1364.85 2.03617 0.270018 0
M  V30 14502 H 1363.08 2.74409 2.72464 0
M  V30 14503 H 1364.77 3.13606 2.57694 0
M  V30 14504 H 1365.54 4.79493 0.728809 0
M  V30 14505 H 1361.41 4.23553 1.81999 0
M  V30 14506 H 1364.96 6.97009 -0.287042 0
M  V30 14507 H 1360.86 6.40396 0.810164 0
M  V30 14508 H 1361.62 8.18077 -0.263173 0
M  V30 14509 N 1364.29 -0.50888 1.49158 0
M  V30 14510 C 1365.53 -1.26537 1.58481 0
M  V30 14511 C 1365.87 -1.92353 0.267168 0
M  V30 14512 O 1365.14 -1.80336 -0.728639 0
M  V30 14513 C 1365.42 -2.33846 2.73839 0
M  V30 14514 C 1365.28 -1.72582 4.15374 0
M  V30 14515 C 1366.6 -3.35467 2.84868 0
M  V30 14516 H 1363.71 -0.458697 0.576859 0
M  V30 14517 H 1366.36 -0.564728 1.81413 0
M  V30 14518 H 1364.51 -2.93605 2.54417 0
M  V30 14519 H 1366.18 -1.16711 4.46292 0
M  V30 14520 H 1364.42 -1.03025 4.21389 0
M  V30 14521 H 1365.09 -2.5038 4.91949 0
M  V30 14522 H 1367.57 -2.85689 3.02524 0
M  V30 14523 H 1366.44 -4.07922 3.67275 0
M  V30 14524 H 1366.71 -3.97313 1.93894 0
M  V30 14525 N 1365.76 -1.381 -0.759346 0
M  V30 14526 C 1366.7 -1.3075 -1.88248 0
M  V30 14527 C 1367.71 -0.220835 -1.61295 0
M  V30 14528 O 1368.9 -0.477952 -1.71982 0
M  V30 14529 C 1366 -1.00174 -3.23757 0
M  V30 14530 C 1365.17 -2.19635 -3.78258 0
M  V30 14531 C 1364.23 -1.85892 -4.92271 0
M  V30 14532 O 1363.26 -2.58325 -5.07205 0
M  V30 14533 N 1364.46 -0.810436 -5.74815 0
M  V30 14534 H 1367.22 -2.27529 -1.95065 0
M  V30 14535 H 1364.78 -1.31886 -0.93902 0
M  V30 14536 H 1366.78 -0.756631 -3.97564 0
M  V30 14537 H 1365.35 -0.122094 -3.12361 0
M  V30 14538 H 1364.57 -2.60246 -2.96084 0
M  V30 14539 H 1365.85 -2.99373 -4.11404 0
M  V30 14540 H 1365.25 -0.209644 -5.65311 0
M  V30 14541 H 1363.81 -0.625206 -6.48795 0
M  V30 14542 N 1367.24 0.986894 -1.22875 0
M  V30 14543 C 1368.21 2.0597 -1.00544 0
M  V30 14544 C 1369.21 1.60771 0.0303509 0
M  V30 14545 O 1370.4 1.72945 -0.208753 0
M  V30 14546 C 1367.53 3.36911 -0.519962 0
M  V30 14547 H 1368.72 2.27213 -1.9574 0
M  V30 14548 H 1366.27 1.15935 -1.04827 0
M  V30 14549 H 1367.01 3.21355 0.436078 0
M  V30 14550 H 1366.79 3.71054 -1.26732 0
M  V30 14551 H 1368.28 4.15829 -0.384166 0
M  V30 14552 N 1368.72 1.0394 1.18466 0
M  V30 14553 C 1369.67 0.629352 2.22054 0
M  V30 14554 C 1370.64 -0.362187 1.62103 0
M  V30 14555 O 1371.82 -0.256457 1.89069 0
M  V30 14556 C 1368.96 -0.00282888 3.451 0
M  V30 14557 C 1368.08 1.03602 4.19393 0
M  V30 14558 C 1367.21 0.372492 5.29892 0
M  V30 14559 C 1366.25 1.39652 5.95956 0
M  V30 14560 N 1365.39 0.758053 6.97996 0
M  V30 14561 H 1370.23 1.51722 2.56485 0
M  V30 14562 H 1367.76 0.759043 1.26004 0
M  V30 14563 H 1369.72 -0.386688 4.15404 0
M  V30 14564 H 1368.35 -0.854224 3.11292 0
M  V30 14565 H 1367.4 1.53784 3.47929 0
M  V30 14566 H 1368.72 1.81387 4.64651 0
M  V30 14567 H 1367.87 -0.065642 6.06664 0
M  V30 14568 H 1366.61 -0.437462 4.85734 0
M  V30 14569 H 1365.61 1.84481 5.17926 0
M  V30 14570 H 1366.84 2.20816 6.42197 0
M  V30 14571 H 1364.78 -0.0316173 6.55992 0
M  V30 14572 H 1364.7 1.47363 7.41499 0
M  V30 14573 H 1365.97 0.344273 7.78739 0
M  V30 14574 N 1370.2 -1.34667 0.818693 0
M  V30 14575 C 1371.43 -2.02642 0.417608 0
M  V30 14576 C 1371.84 -1.61667 -0.97516 0
M  V30 14577 O 1371.2 -0.820056 -1.63038 0
M  V30 14578 C 1371.25 -3.57951 0.505295 0
M  V30 14579 O 1370.97 -3.97441 1.84317 0
M  V30 14580 C 1372.47 -4.4319 0.0985667 0
M  V30 14581 H 1369.69 -0.6496 0.168111 0
M  V30 14582 H 1372.24 -1.72032 1.10568 0
M  V30 14583 H 1370.39 -3.87166 -0.134646 0
M  V30 14584 H 1370.8 -4.92116 1.81444 0
M  V30 14585 H 1372.28 -5.51597 0.211015 0
M  V30 14586 H 1372.76 -4.28637 -0.95745 0
M  V30 14587 H 1373.36 -4.19295 0.71214 0
M  V30 14588 N 1371.68 -0.573274 -1.46804 0
M  V30 14589 C 1372.92 -0.0551522 -2.02025 0
M  V30 14590 C 1373.25 1.30577 -1.44826 0
M  V30 14591 O 1372.52 1.85514 -0.629403 0
M  V30 14592 H 1371.1 -0.0173982 -0.746797 0
M  V30 14593 H 1373.76 -0.746919 -1.8002 0
M  V30 14594 H 1372.85 0.0209326 -3.12093 0
M  V30 14595 N 1373.15 1.5451 -0.310553 0
M  V30 14596 C 1374.38 2.04442 0.297807 0
M  V30 14597 C 1374.79 1.18695 1.47337 0
M  V30 14598 O 1374.14 0.207405 1.82525 0
M  V30 14599 C 1374.2 3.50306 0.807851 0
M  V30 14600 C 1373.86 4.5635 -0.24369 0
M  V30 14601 C 1374.86 5.08656 -1.07539 0
M  V30 14602 C 1372.54 5.00798 -0.388138 0
M  V30 14603 C 1374.54 6.03961 -2.03738 0
M  V30 14604 C 1372.22 5.95921 -1.35357 0
M  V30 14605 C 1373.22 6.47387 -2.17667 0
M  V30 14606 O 1372.91 7.40644 -3.12571 0
M  V30 14607 H 1372.64 0.672646 0.0672525 0
M  V30 14608 H 1375.2 2.00389 -0.450948 0
M  V30 14609 H 1373.43 3.51714 1.6073 0
M  V30 14610 H 1375.12 3.83383 1.33314 0
M  V30 14611 H 1375.88 4.75105 -0.97471 0
M  V30 14612 H 1371.76 4.60361 0.242608 0
M  V30 14613 H 1375.3 6.44057 -2.68023 0
M  V30 14614 H 1371.2 6.2889 -1.45493 0
M  V30 14615 H 1371.97 7.58477 -3.0766 0
M  V30 14616 N 1374.63 0.0384594 1.57553 0
M  V30 14617 C 1375.54 -0.955737 2.14249 0
M  V30 14618 C 1376.56 -1.35056 1.09708 0
M  V30 14619 O 1377.74 -1.43008 1.41812 0
M  V30 14620 C 1374.8 -2.21647 2.66596 0
M  V30 14621 C 1373.86 -1.88119 3.85888 0
M  V30 14622 C 1373.09 -3.08182 4.35729 0
M  V30 14623 O 1373.32 -4.21145 3.84699 0
M  V30 14624 O 1372.25 -2.89936 5.27467 0
M  V30 14625 H 1376.08 -0.50361 2.99495 0
M  V30 14626 H 1373.66 -0.182698 1.48279 0
M  V30 14627 H 1375.54 -2.9564 3.00291 0
M  V30 14628 H 1374.22 -2.66022 1.84428 0
M  V30 14629 H 1373.13 -1.11481 3.57103 0
M  V30 14630 H 1374.46 -1.48553 4.69247 0
M  V30 14631 N 1376.11 -1.55841 -0.234795 0
M  V30 14632 C 1377.06 -1.92165 -1.31055 0
M  V30 14633 C 1378.05 -0.802106 -1.49207 0
M  V30 14634 O 1379.26 -0.986832 -1.50538 0
M  V30 14635 H 1375.63 -0.610487 -0.439101 0
M  V30 14636 H 1377.61 -2.81955 -0.976926 0
M  V30 14637 C 1376.35 -2.24329 -2.65654 0
M  V30 14638 H 1375.68 -3.09982 -2.5249 0
M  V30 14639 H 1377.12 -2.53639 -3.3977 0
M  V30 14640 C 1375.58 -1.0638 -3.19664 0
M  V30 14641 O 1376.11 -0.318047 -4.00439 0
M  V30 14642 N 1374.31 -0.851167 -2.77855 0
M  V30 14643 H 1373.86 -1.45932 -2.12277 0
M  V30 14644 H 1373.82 -0.0636875 -3.14335 0
M  V30 14645 N 1377.59 0.500963 -1.49426 0
M  V30 14646 C 1378.84 1.25509 -1.58915 0
M  V30 14647 C 1379.16 1.92534 -0.275868 0
M  V30 14648 O 1378.42 1.81324 0.736212 0
M  V30 14649 C 1378.72 2.34448 -2.69757 0
M  V30 14650 C 1378.38 1.8488 -4.11254 0
M  V30 14651 C 1377.05 1.71081 -4.49761 0
M  V30 14652 C 1379.4 1.4778 -4.9981 0
M  V30 14653 C 1376.73 1.18561 -5.74596 0
M  V30 14654 C 1379.08 0.967118 -6.25164 0
M  V30 14655 C 1377.74 0.815523 -6.62499 0
M  V30 14656 H 1377.01 0.459268 -0.58151 0
M  V30 14657 H 1379.66 0.555817 -1.83256 0
M  V30 14658 H 1377.96 3.10163 -2.39387 0
M  V30 14659 H 1379.66 2.925 -2.74308 0
M  V30 14660 H 1376.25 1.9658 -3.8086 0
M  V30 14661 H 1380.44 1.57288 -4.70717 0
M  V30 14662 H 1375.69 1.05536 -6.02223 0
M  V30 14663 H 1379.87 0.670857 -6.93161 0
M  V30 14664 H 1377.49 0.406375 -7.59113 0
M  V30 14665 N 1379.07 1.38501 0.752011 0
M  V30 14666 C 1380.32 1.34112 1.50655 0
M  V30 14667 C 1380.63 -0.0657661 1.95489 0
M  V30 14668 O 1381.84 -0.232199 2.70505 0
M  V30 14669 C 1380.29 2.35514 2.72142 0
M  V30 14670 C 1379.9 3.81831 2.34326 0
M  V30 14671 C 1381.64 2.40171 3.50026 0
M  V30 14672 C 1379.55 4.74915 3.52434 0
M  V30 14673 H 1378.48 0.498519 0.565681 0
M  V30 14674 H 1381.13 1.64064 0.821913 0
M  V30 14675 H 1379.51 1.98607 3.42595 0
M  V30 14676 H 1380.69 4.27685 1.7153 0
M  V30 14677 H 1379 3.80308 1.69573 0
M  V30 14678 H 1381.6 3.06913 4.37845 0
M  V30 14679 H 1381.94 1.42111 3.91293 0
M  V30 14680 H 1382.48 2.75884 2.86588 0
M  V30 14681 H 1379.21 5.74176 3.16232 0
M  V30 14682 H 1378.73 4.33753 4.14268 0
M  V30 14683 H 1380.41 4.93003 4.18995 0
M  V30 14684 N 1380.55 -0.980364 1.23396 0
M  V30 14685 C 1381.5 -2.05753 0.982323 0
M  V30 14686 C 1382.48 -1.6074 -0.0716939 0
M  V30 14687 O 1383.67 -1.76442 0.140438 0
M  V30 14688 C 1380.8 -3.38442 0.575481 0
M  V30 14689 C 1379.89 -3.90054 1.6649 0
M  V30 14690 N 1380.28 -4.14744 2.89519 0
M  V30 14691 C 1378.58 -4.18588 1.53949 0
M  V30 14692 C 1379.28 -4.56877 3.60053 0
M  V30 14693 N 1378.25 -4.61309 2.87567 0
M  V30 14694 H 1382.05 -2.22801 1.91669 0
M  V30 14695 H 1379.57 -1.16314 1.13335 0
M  V30 14696 H 1381.57 -4.15197 0.376477 0
M  V30 14697 H 1380.23 -3.22788 -0.351844 0
M  V30 14698 H 1381.24 -4.02566 3.25824 0
M  V30 14699 H 1377.91 -4.11937 0.679275 0
M  V30 14700 H 1379.3 -4.84498 4.65523 0
M  V30 14701 N 1382.02 -1.04567 -1.17913 0
M  V30 14702 C 1382.95 -0.662066 -2.23917 0
M  V30 14703 C 1383.93 0.33713 -1.66726 0
M  V30 14704 O 1385.12 0.216116 -1.92994 0
M  V30 14705 C 1382.25 -0.029463 -3.47288 0
M  V30 14706 C 1381.2 -0.95274 -4.17261 0
M  V30 14707 C 1380.53 -0.184347 -5.34382 0
M  V30 14708 C 1381.83 -2.2741 -4.70194 0
M  V30 14709 H 1383.52 -1.54826 -2.5626 0
M  V30 14710 H 1381.07 -0.745886 -1.23177 0
M  V30 14711 H 1383.02 0.250654 -4.20654 0
M  V30 14712 H 1381.75 0.891638 -3.14193 0
M  V30 14713 H 1380.41 -1.21732 -3.45799 0
M  V30 14714 H 1380.05 0.73932 -4.97537 0
M  V30 14715 H 1379.75 -0.79949 -5.82136 0
M  V30 14716 H 1381.28 0.0886344 -6.10536 0
M  V30 14717 H 1382.69 -2.05433 -5.35229 0
M  V30 14718 H 1381.09 -2.84265 -5.28501 0
M  V30 14719 H 1382.16 -2.91708 -3.87342 0
M  V30 14720 N 1383.5 1.34231 -0.825823 0
M  V30 14721 C 1384.75 1.97454 -0.411661 0
M  V30 14722 C 1385.06 1.66193 1.03147 0
M  V30 14723 O 1386.27 2.22929 1.54968 0
M  V30 14724 C 1384.73 3.53318 -0.685145 0
M  V30 14725 C 1384.33 3.9347 -2.14208 0
M  V30 14726 C 1386.08 4.23158 -0.337291 0
M  V30 14727 C 1383.98 5.42258 -2.3603 0
M  V30 14728 H 1382.91 0.738889 -0.150196 0
M  V30 14729 H 1385.57 1.53033 -1.01258 0
M  V30 14730 H 1383.95 3.95998 -0.0140178 0
M  V30 14731 H 1385.12 3.61888 -2.85261 0
M  V30 14732 H 1383.44 3.36575 -2.45165 0
M  V30 14733 H 1386.03 5.32558 -0.47813 0
M  V30 14734 H 1386.38 4.10053 0.718499 0
M  V30 14735 H 1386.91 3.85965 -0.963113 0
M  V30 14736 H 1383.65 5.60352 -3.40126 0
M  V30 14737 H 1383.17 5.75345 -1.69524 0
M  V30 14738 H 1384.85 6.08976 -2.18533 0
M  V30 14739 N 1384.98 0.581051 1.46498 0
M  V30 14740 C 1386.23 0.0637189 2.01599 0
M  V30 14741 C 1386.54 -1.30353 1.45834 0
M  V30 14742 O 1387.75 -1.91211 1.92745 0
M  V30 14743 C 1386.2 0.0633254 3.59844 0
M  V30 14744 C 1385.81 1.42879 4.24605 0
M  V30 14745 C 1387.56 -0.400149 4.2261 0
M  V30 14746 C 1385.46 1.38621 5.74924 0
M  V30 14747 H 1384.39 0.0200512 0.753733 0
M  V30 14748 H 1387.04 0.732451 1.68248 0
M  V30 14749 H 1385.43 -0.671538 3.90264 0
M  V30 14750 H 1386.6 2.18325 4.05796 0
M  V30 14751 H 1384.91 1.83215 3.73927 0
M  V30 14752 H 1387.51 -0.450771 5.32797 0
M  V30 14753 H 1387.85 -1.41733 3.9143 0
M  V30 14754 H 1388.39 0.280598 3.96809 0
M  V30 14755 H 1385.13 2.38014 6.10761 0
M  V30 14756 H 1384.65 0.673926 5.96002 0
M  V30 14757 H 1386.33 1.09841 6.37608 0
M  V30 14758 N 1386.46 -1.54343 0.318742 0
M  V30 14759 C 1387.42 -2.22828 -0.536679 0
M  V30 14760 C 1388.42 -1.22013 -1.04735 0
M  V30 14761 O 1389.61 -1.46626 -0.940549 0
M  V30 14762 C 1386.74 -2.92857 -1.74493 0
M  V30 14763 H 1387.94 -2.99836 0.0619325 0
M  V30 14764 H 1385.49 -1.56144 0.0697687 0
M  V30 14765 H 1386.22 -2.19973 -2.3829 0
M  V30 14766 H 1386.01 -3.66779 -1.38621 0
M  V30 14767 H 1387.5 -3.45049 -2.35225 0
M  V30 14768 N 1387.94 -0.0468143 -1.5753 0
M  V30 14769 C 1388.87 0.927092 -2.14306 0
M  V30 14770 C 1389.85 1.32745 -1.06362 0
M  V30 14771 O 1391.03 1.40293 -1.34281 0
M  V30 14772 C 1388.16 2.20343 -2.68452 0
M  V30 14773 C 1387.12 1.94328 -3.81341 0
M  V30 14774 C 1386.44 3.28379 -4.21985 0
M  V30 14775 C 1387.74 1.26835 -5.06666 0
M  V30 14776 H 1389.44 0.454199 -2.95935 0
M  V30 14777 H 1386.98 0.217029 -1.42355 0
M  V30 14778 H 1388.93 2.8887 -3.0681 0
M  V30 14779 H 1387.66 2.6983 -1.84009 0
M  V30 14780 H 1386.32 1.28214 -3.43448 0
M  V30 14781 H 1385.97 3.75658 -3.34499 0
M  V30 14782 H 1385.67 3.11772 -4.98068 0
M  V30 14783 H 1387.19 3.98145 -4.6294 0
M  V30 14784 H 1388.6 1.85389 -5.42498 0
M  V30 14785 H 1387 1.20569 -5.87863 0
M  V30 14786 H 1388.07 0.243759 -4.84287 0
M  V30 14787 N 1389.41 1.55964 0.226527 0
M  V30 14788 C 1390.83 1.68978 0.793936 0
M  V30 14789 C 1391.18 0.647938 1.85192 0
M  V30 14790 O 1390.3 -0.201907 2.15456 0
M  V30 14791 C 1390.9 3.06351 1.44687 0
M  V30 14792 C 1389.46 3.21237 1.96173 0
M  V30 14793 C 1388.6 2.64896 0.8201 0
M  V30 14794 H 1391.55 1.587 0.00195967 0
M  V30 14795 H 1391.57 3.01932 2.31554 0
M  V30 14796 H 1391.09 3.82156 0.676611 0
M  V30 14797 H 1389.19 2.50292 2.76016 0
M  V30 14798 H 1389.3 4.28394 2.14512 0
M  V30 14799 H 1387.66 2.23247 1.22609 0
M  V30 14800 H 1388.45 3.43243 0.0625967 0
M  V30 14801 N 1390.89 -0.493031 1.4969 0
M  V30 14802 C 1392.14 -1.24849 1.59814 0
M  V30 14803 C 1392.47 -1.92059 0.287555 0
M  V30 14804 O 1391.75 -1.81099 -0.709471 0
M  V30 14805 C 1392.03 -2.30929 2.76304 0
M  V30 14806 C 1391.88 -1.68167 4.17181 0
M  V30 14807 C 1393.2 -3.32427 2.8841 0
M  V30 14808 H 1390.32 -0.452553 0.581691 0
M  V30 14809 H 1392.96 -0.545455 1.82002 0
M  V30 14810 H 1391.11 -2.9089 2.57517 0
M  V30 14811 H 1392.78 -1.11971 4.47504 0
M  V30 14812 H 1391.03 -0.985496 4.22458 0
M  V30 14813 H 1391.7 -2.45148 4.94577 0
M  V30 14814 H 1394.17 -2.82464 3.05537 0
M  V30 14815 H 1393.05 -4.04004 3.71581 0
M  V30 14816 H 1393.31 -3.95234 1.98097 0
M  V30 14817 N 1392.37 -1.38898 -0.744656 0
M  V30 14818 C 1393.33 -1.36633 -1.84022 0
M  V30 14819 C 1394.33 -0.265187 -1.58598 0
M  V30 14820 O 1395.52 -0.522569 -1.66177 0
M  V30 14821 C 1392.66 -1.12938 -3.21649 0
M  V30 14822 H 1393.85 -2.34111 -1.87435 0
M  V30 14823 H 1391.4 -1.24322 -0.947302 0
M  V30 14824 H 1392.14 -0.161027 -3.239 0
M  V30 14825 H 1391.92 -1.9267 -3.41498 0
M  V30 14826 H 1393.41 -1.14071 -4.01718 0
M  V30 14827 N 1393.85 0.973806 -1.23914 0
M  V30 14828 C 1395.09 1.71852 -1.07678 0
M  V30 14829 C 1395.43 1.90357 0.384425 0
M  V30 14830 O 1394.7 1.46063 1.28436 0
M  V30 14831 C 1394.99 3.1129 -1.81026 0
M  V30 14832 C 1394.84 3.00315 -3.3486 0
M  V30 14833 C 1396.16 4.10835 -1.57805 0
M  V30 14834 H 1393.28 0.623749 -0.392564 0
M  V30 14835 H 1395.92 1.13325 -1.52504 0
M  V30 14836 H 1394.07 3.61255 -1.42922 0
M  V30 14837 H 1395.74 2.57823 -3.82524 0
M  V30 14838 H 1393.98 2.36667 -3.63553 0
M  V30 14839 H 1394.65 3.9907 -3.81376 0
M  V30 14840 H 1397.13 3.69705 -1.90939 0
M  V30 14841 H 1396.01 5.06478 -2.11591 0
M  V30 14842 H 1396.27 4.39091 -0.514894 0
M  V30 14843 N 1395.33 1.05191 1.17357 0
M  V30 14844 C 1396.26 0.673931 2.23563 0
M  V30 14845 C 1397.24 -0.328284 1.66902 0
M  V30 14846 O 1398.42 -0.205878 1.93106 0
M  V30 14847 C 1395.55 0.0478801 3.47267 0
M  V30 14848 C 1394.51 0.974855 4.1675 0
M  V30 14849 C 1393.83 0.212684 5.34277 0
M  V30 14850 C 1395.13 2.299 4.68981 0
M  V30 14851 H 1396.83 1.56183 2.55436 0
M  V30 14852 H 1394.37 0.752408 1.2278 0
M  V30 14853 H 1396.33 -0.228343 4.20781 0
M  V30 14854 H 1395.05 -0.874963 3.14662 0
M  V30 14855 H 1393.71 1.23564 3.45148 0
M  V30 14856 H 1393.36 -0.712924 4.97922 0
M  V30 14857 H 1393.06 0.830351 5.81703 0
M  V30 14858 H 1394.58 -0.056255 6.10574 0
M  V30 14859 H 1395.99 2.08269 5.34132 0
M  V30 14860 H 1394.39 2.87064 5.26986 0
M  V30 14861 H 1395.46 2.93759 3.8579 0
M  V30 14862 N 1396.8 -1.33791 0.83293 0
M  V30 14863 C 1397.73 -2.31853 0.276846 0
M  V30 14864 C 1398.72 -1.58702 -0.612184 0
M  V30 14865 O 1399.9 -1.86629 -0.536975 0
M  V30 14866 C 1397.03 -3.42855 -0.55385 0
M  V30 14867 C 1395.98 -4.27333 0.238884 0
M  V30 14868 C 1395.31 -5.29895 -0.715187 0
M  V30 14869 C 1396.61 -5.01692 1.45265 0
M  V30 14870 H 1398.3 -2.78611 1.09618 0
M  V30 14871 H 1395.85 -1.33949 0.528562 0
M  V30 14872 H 1397.8 -4.10479 -0.953133 0
M  V30 14873 H 1396.53 -2.94771 -1.40634 0
M  V30 14874 H 1395.19 -3.61325 0.619656 0
M  V30 14875 H 1394.83 -4.7807 -1.56391 0
M  V30 14876 H 1394.53 -5.87296 -0.188921 0
M  V30 14877 H 1396.06 -6.00387 -1.11211 0
M  V30 14878 H 1397.47 -5.62117 1.12685 0
M  V30 14879 H 1395.87 -5.68715 1.91528 0
M  V30 14880 H 1396.94 -4.30809 2.22558 0
M  V30 14881 N 1398.28 -0.588812 -1.46187 0
M  V30 14882 C 1399.53 -0.0744093 -2.01563 0
M  V30 14883 C 1399.84 1.29578 -1.46523 0
M  V30 14884 O 1401.05 1.90186 -1.93756 0
M  V30 14885 C 1399.51 -0.082408 -3.59806 0
M  V30 14886 C 1399.11 -1.45129 -4.23842 0
M  V30 14887 C 1400.86 0.377732 -4.22816 0
M  V30 14888 C 1398.77 -1.41668 -5.74181 0
M  V30 14889 H 1397.7 -0.0240481 -0.753616 0
M  V30 14890 H 1400.35 -0.741364 -1.67857 0
M  V30 14891 H 1398.73 0.650832 -3.90615 0
M  V30 14892 H 1399.9 -2.20474 -4.04633 0
M  V30 14893 H 1398.22 -1.85196 -3.7295 0
M  V30 14894 H 1400.81 0.42251 -5.33028 0
M  V30 14895 H 1401.16 1.39655 -3.92176 0
M  V30 14896 H 1401.69 -0.301638 -3.96655 0
M  V30 14897 H 1398.43 -2.4125 -6.09491 0
M  V30 14898 H 1397.95 -0.705524 -5.95636 0
M  V30 14899 H 1399.63 -1.13221 -6.37016 0
M  V30 14900 N 1399.76 1.54172 -0.326923 0
M  V30 14901 C 1401.01 2.00926 0.275047 0
M  V30 14902 C 1401.34 1.21469 1.51522 0
M  V30 14903 O 1400.61 0.297871 1.92206 0
M  V30 14904 C 1400.9 3.54967 0.605833 0
M  V30 14905 C 1400.75 4.45147 -0.645279 0
M  V30 14906 C 1402.07 4.16489 1.42213 0
M  V30 14907 H 1399.19 0.730389 0.098495 0
M  V30 14908 H 1401.83 1.84735 -0.444168 0
M  V30 14909 H 1399.98 3.68895 1.21857 0
M  V30 14910 H 1401.65 4.43085 -1.2835 0
M  V30 14911 H 1399.9 4.14686 -1.27349 0
M  V30 14912 H 1400.57 5.50763 -0.36932 0
M  V30 14913 H 1403.04 4.06158 0.904172 0
M  V30 14914 H 1401.92 5.24377 1.62234 0
M  V30 14915 H 1402.18 3.70032 2.41928 0
M  V30 14916 N 1401.24 0.0551678 1.57503 0
M  V30 14917 C 1402.49 -0.6165 1.92467 0
M  V30 14918 C 1402.81 -1.71147 0.934552 0
M  V30 14919 O 1402.08 -1.9589 -0.0199649 0
M  V30 14920 H 1400.66 -0.230714 0.710479 0
M  V30 14921 H 1403.32 0.109111 1.94594 0
M  V30 14922 H 1402.42 -1.05254 2.93816 0
M  V30 14923 N 1402.72 -1.56081 -0.218252 0
M  V30 14924 C 1403.96 -1.78893 -0.940296 0
M  V30 14925 C 1404.29 -0.62425 -1.84738 0
M  V30 14926 O 1403.56 0.358686 -1.92588 0
M  V30 14927 H 1402.14 -0.659828 -0.350193 0
M  V30 14928 H 1404.8 -1.93546 -0.229316 0
M  V30 14929 H 1403.89 -2.71167 -1.54516 0
M  V30 14930 N 1404.2 0.485086 -1.49949 0
M  V30 14931 C 1405.13 1.59312 -1.7071 0
M  V30 14932 C 1406.11 1.6076 -0.555896 0
M  V30 14933 O 1407.29 1.77249 -0.793504 0
M  V30 14934 C 1404.42 2.97718 -1.78834 0
M  V30 14935 C 1403.38 3.11136 -2.93902 0
M  V30 14936 C 1402.7 4.51051 -2.87154 0
M  V30 14937 C 1404 2.89665 -4.34617 0
M  V30 14938 H 1405.7 1.42192 -2.6348 0
M  V30 14939 H 1403.24 0.68262 -1.26792 0
M  V30 14940 H 1405.19 3.75148 -1.91943 0
M  V30 14941 H 1403.92 3.15963 -0.826744 0
M  V30 14942 H 1402.58 2.36135 -2.80421 0
M  V30 14943 H 1402.23 4.66195 -1.88869 0
M  V30 14944 H 1401.93 4.60967 -3.64394 0
M  V30 14945 H 1403.45 5.3052 -3.02293 0
M  V30 14946 H 1404.86 3.56853 -4.48697 0
M  V30 14947 H 1403.26 3.11039 -5.13201 0
M  V30 14948 H 1404.33 1.85642 -4.47956 0
M  V30 14949 N 1405.67 1.39291 0.737279 0
M  V30 14950 C 1406.92 1.36592 1.49901 0
M  V30 14951 C 1407.25 -0.0388812 1.94161 0
M  V30 14952 O 1406.53 -1.00337 1.66622 0
M  V30 14953 C 1406.81 2.33625 2.74028 0
M  V30 14954 C 1406.66 3.83037 2.35802 0
M  V30 14955 C 1407.98 2.28524 3.76118 0
M  V30 14956 H 1405.1 0.497482 0.543765 0
M  V30 14957 H 1407.74 1.70265 0.843193 0
M  V30 14958 H 1405.89 2.0504 3.29986 0
M  V30 14959 H 1407.57 4.22363 1.85493 0
M  V30 14960 H 1405.81 3.99924 1.68058 0
M  V30 14961 H 1406.48 4.46415 3.24681 0
M  V30 14962 H 1408.96 2.53794 3.29739 0
M  V30 14963 H 1407.83 2.98501 4.60639 0
M  V30 14964 H 1408.09 1.28949 4.22876 0
M  V30 14965 N 1407.15 -0.967221 1.24429 0
M  V30 14966 C 1408.4 -1.70458 1.07829 0
M  V30 14967 C 1408.71 -1.91818 -0.38278 0
M  V30 14968 O 1409.92 -2.63129 -0.668982 0
M  V30 14969 C 1408.38 -3.06817 1.88125 0
M  V30 14970 C 1407.98 -2.93298 3.38645 0
M  V30 14971 C 1409.73 -3.84422 1.80056 0
M  V30 14972 C 1407.63 -4.2497 4.11284 0
M  V30 14973 H 1406.56 -0.639217 0.399897 0
M  V30 14974 H 1409.22 -1.07776 1.48515 0
M  V30 14975 H 1407.6 -3.70331 1.40254 0
M  V30 14976 H 1408.77 -2.38793 3.94099 0
M  V30 14977 H 1407.09 -2.29159 3.47671 0
M  V30 14978 H 1409.68 -4.81925 2.31629 0
M  V30 14979 H 1410.03 -4.09194 0.765908 0
M  V30 14980 H 1410.56 -3.27636 2.2561 0
M  V30 14981 H 1407.3 -4.05391 5.1511 0
M  V30 14982 H 1406.82 -4.79288 3.60615 0
M  V30 14983 H 1408.5 -4.93586 4.18308 0
M  V30 14984 N 1408.63 -1.05812 -1.16797 0
M  V30 14985 C 1409.56 -0.608879 -2.19927 0
M  V30 14986 C 1410.54 0.365798 -1.58432 0
M  V30 14987 O 1411.72 0.27593 -1.8647 0
M  V30 14988 C 1408.85 0.108061 -3.38528 0
M  V30 14989 C 1407.9 -0.822607 -4.18492 0
M  V30 14990 S 1408.73 -2.3152 -4.82865 0
M  V30 14991 C 1409.89 -1.60961 -6.04849 0
M  V30 14992 H 1410.12 -1.48261 -2.57693 0
M  V30 14993 H 1407.65 -0.870648 -1.27511 0
M  V30 14994 H 1409.61 0.515496 -4.0725 0
M  V30 14995 H 1408.27 0.95792 -2.99137 0
M  V30 14996 H 1407.46 -0.267448 -5.0329 0
M  V30 14997 H 1407.07 -1.1697 -3.55238 0
M  V30 14998 H 1409.36 -0.912454 -6.71327 0
M  V30 14999 H 1410.3 -2.43531 -6.64905 0
M  V30 15000 H 1410.71 -1.09431 -5.53792 0
M  V30 15001 N 1410.11 1.33347 -0.840014 0
M  V30 15002 C 1411.04 2.31703 -0.289138 0
M  V30 15003 C 1412.02 1.59024 0.603759 0
M  V30 15004 O 1413.2 1.86911 0.527071 0
M  V30 15005 C 1410.33 3.43144 0.53566 0
M  V30 15006 C 1409.29 4.272 -0.261544 0
M  V30 15007 C 1408.61 5.30267 0.687075 0
M  V30 15008 C 1409.91 5.00915 -1.47924 0
M  V30 15009 H 1411.61 2.78026 -1.11094 0
M  V30 15010 H 1409.15 1.33666 -0.535658 0
M  V30 15011 H 1411.11 4.10979 0.931351 0
M  V30 15012 H 1409.83 2.95512 1.39069 0
M  V30 15013 H 1408.49 3.60991 -0.638809 0
M  V30 15014 H 1408.14 4.78893 1.53853 0
M  V30 15015 H 1407.84 5.87388 0.157773 0
M  V30 15016 H 1409.36 6.00968 1.08026 0
M  V30 15017 H 1410.78 5.61511 -1.15664 0
M  V30 15018 H 1409.17 5.67692 -1.94541 0
M  V30 15019 H 1410.24 4.29622 -2.24839 0
M  V30 15020 N 1411.59 0.596556 1.45873 0
M  V30 15021 C 1412.82 0.093357 2.06389 0
M  V30 15022 C 1413.22 -1.2229 1.44367 0
M  V30 15023 O 1412.57 -1.75332 0.548131 0
M  V30 15024 C 1412.63 -0.132256 3.59257 0
M  V30 15025 C 1412.29 1.10051 4.43551 0
M  V30 15026 C 1413.29 2.01598 4.79223 0
M  V30 15027 C 1410.97 1.32625 4.84475 0
M  V30 15028 C 1412.97 3.14054 5.54661 0
M  V30 15029 C 1410.66 2.45384 5.5967 0
M  V30 15030 C 1411.65 3.35927 5.94678 0
M  V30 15031 O 1411.34 4.46726 6.6835 0
M  V30 15032 H 1411.07 0.0608944 0.673252 0
M  V30 15033 H 1413.63 0.821009 1.88278 0
M  V30 15034 H 1411.86 -0.914678 3.75727 0
M  V30 15035 H 1413.55 -0.585681 4.01652 0
M  V30 15036 H 1414.31 1.85379 4.48174 0
M  V30 15037 H 1410.19 0.630522 4.56668 0
M  V30 15038 H 1413.74 3.8475 5.81904 0
M  V30 15039 H 1409.63 2.6156 5.90133 0
M  V30 15040 H 1410.4 4.45268 6.86789 0
M  V30 15041 N 1413.06 -1.53996 0.335095 0
M  V30 15042 C 1414.31 -2.01069 -0.264388 0
M  V30 15043 C 1414.64 -1.22271 -1.50876 0
M  V30 15044 O 1413.92 -0.30806 -1.92045 0
M  V30 15045 C 1414.2 -3.55283 -0.587 0
M  V30 15046 C 1414.05 -4.44799 0.668877 0
M  V30 15047 C 1415.37 -4.17238 -1.40003 0
M  V30 15048 H 1412.49 -0.730901 -0.0946202 0
M  V30 15049 H 1415.13 -1.84497 0.453958 0
M  V30 15050 H 1413.28 -3.69536 -1.19899 0
M  V30 15051 H 1414.96 -4.42398 1.30698 0
M  V30 15052 H 1413.2 -4.14005 1.29547 0
M  V30 15053 H 1413.87 -5.5056 0.398523 0
M  V30 15054 H 1416.35 -4.06631 -0.88262 0
M  V30 15055 H 1415.22 -5.2523 -1.59451 0
M  V30 15056 H 1415.48 -3.71309 -2.39962 0
M  V30 15057 N 1414.54 -0.0635198 -1.57472 0
M  V30 15058 C 1415.79 0.607484 -1.93173 0
M  V30 15059 C 1416.12 1.70117 -0.942897 0
M  V30 15060 O 1415.37 1.95653 0.042832 0
M  V30 15061 C 1415.67 1.23117 -3.35525 0
M  V30 15062 C 1415.34 0.264457 -4.50124 0
M  V30 15063 C 1414 -0.00151762 -4.812 0
M  V30 15064 C 1416.35 -0.39737 -5.19683 0
M  V30 15065 C 1413.68 -0.936547 -5.79177 0
M  V30 15066 C 1416.03 -1.32067 -6.18661 0
M  V30 15067 C 1414.69 -1.59519 -6.48159 0
M  V30 15068 H 1413.96 0.222294 -0.706871 0
M  V30 15069 H 1416.61 -0.132633 -1.9104 0
M  V30 15070 H 1414.92 2.04684 -3.34084 0
M  V30 15071 H 1416.61 1.7575 -3.60434 0
M  V30 15072 H 1413.2 0.481945 -4.25882 0
M  V30 15073 H 1417.39 -0.20499 -4.95876 0
M  V30 15074 H 1412.64 -1.15658 -6.00361 0
M  V30 15075 H 1416.82 -1.83949 -6.71666 0
M  V30 15076 H 1414.44 -2.32134 -7.23891 0
M  V30 15077 N 1416.02 1.56195 0.209972 0
M  V30 15078 C 1416.97 1.89755 1.26401 0
M  V30 15079 C 1417.95 0.761731 1.41727 0
M  V30 15080 O 1419.15 1.02435 1.44347 0
M  V30 15081 C 1416.27 2.22775 2.61201 0
M  V30 15082 C 1415.36 3.42777 2.49729 0
M  V30 15083 N 1415.75 4.61089 2.0792 0
M  V30 15084 C 1414.05 3.46621 2.8066 0
M  V30 15085 C 1414.75 5.43249 2.07979 0
M  V30 15086 N 1413.73 4.83263 2.48913 0
M  V30 15087 H 1417.53 2.78736 0.93184 0
M  V30 15088 H 1415.04 1.56915 0.418485 0
M  V30 15089 H 1417.04 2.44997 3.37316 0
M  V30 15090 H 1415.7 1.35112 2.95254 0
M  V30 15091 H 1416.71 4.86033 1.78865 0
M  V30 15092 H 1413.39 2.69334 3.19007 0
M  V30 15093 H 1414.78 6.47981 1.77681 0
M  V30 15094 N 1417.5 -0.477127 1.50204 0
M  V30 15095 C 1418.91 -0.81037 1.37496 0
M  V30 15096 C 1419.11 -1.96937 0.426399 0
M  V30 15097 O 1418.17 -2.52148 -0.133197 0
M  V30 15098 C 1419.48 -1.12811 2.78737 0
M  V30 15099 C 1421.03 -1.23492 2.87608 0
M  V30 15100 C 1421.51 -1.58583 4.29669 0
M  V30 15101 N 1423 -1.65586 4.32591 0
M  V30 15102 C 1423.73 -1.94231 5.39502 0
M  V30 15103 N 1423.23 -2.20936 6.56627 0
M  V30 15104 N 1425.02 -1.95682 5.26939 0
M  V30 15105 H 1417.17 0.286771 2.10455 0
M  V30 15106 H 1419.43 0.0657649 0.945716 0
M  V30 15107 H 1419.14 -0.349616 3.49958 0
M  V30 15108 H 1419.01 -2.0658 3.15602 0
M  V30 15109 H 1421.4 -2.0041 2.1661 0
M  V30 15110 H 1421.48 -0.277182 2.54294 0
M  V30 15111 H 1421.13 -0.822071 5.01203 0
M  V30 15112 H 1421.06 -2.55497 4.60466 0
M  V30 15113 H 1423.55 -1.47012 3.48132 0
M  V30 15114 H 1423.86 -2.42049 7.33916 0
M  V30 15115 H 1422.21 -2.18341 6.59812 0
M  V30 15116 H 1425.4 -1.74311 4.34434 0
M  V30 15117 H 1425.57 -2.1767 6.10347 0
M  V30 15118 N 1418.98 -1.3968 -0.729882 0
M  V30 15119 C 1419.92 -1.38808 -1.84393 0
M  V30 15120 C 1420.89 -0.247035 -1.64253 0
M  V30 15121 O 1422.08 -0.44293 -1.85588 0
M  V30 15122 C 1419.22 -1.2424 -3.2196 0
M  V30 15123 C 1418.33 -2.47932 -3.53771 0
M  V30 15124 C 1417.47 -2.25913 -4.80767 0
M  V30 15125 C 1416.51 -3.45254 -5.05436 0
M  V30 15126 N 1415.64 -3.2252 -6.23638 0
M  V30 15127 H 1420.48 -2.34038 -1.84473 0
M  V30 15128 H 1418.02 -1.16252 -0.901332 0
M  V30 15129 H 1419.98 -1.13804 -4.01378 0
M  V30 15130 H 1418.61 -0.326375 -3.21146 0
M  V30 15131 H 1417.66 -2.68952 -2.69015 0
M  V30 15132 H 1418.97 -3.36806 -3.67917 0
M  V30 15133 H 1418.13 -2.12748 -5.68175 0
M  V30 15134 H 1416.86 -1.34441 -4.68804 0
M  V30 15135 H 1415.87 -3.58912 -4.16488 0
M  V30 15136 H 1417.09 -4.37634 -5.19282 0
M  V30 15137 H 1415.04 -2.33718 -6.12953 0
M  V30 15138 H 1414.96 -4.04954 -6.38395 0
M  V30 15139 H 1416.23 -3.1306 -7.13872 0
M  V30 15140 N 1420.45 0.960609 -1.2494 0
M  V30 15141 C 1421.87 1.23057 -1.01633 0
M  V30 15142 C 1422.07 1.99676 0.270527 0
M  V30 15143 O 1421.13 2.32503 0.984823 0
M  V30 15144 C 1422.44 2.01078 -2.2358 0
M  V30 15145 C 1423.99 2.14144 -2.28279 0
M  V30 15146 C 1424.46 2.95563 -3.49867 0
M  V30 15147 N 1425.95 3.03143 -3.50227 0
M  V30 15148 C 1426.69 3.66518 -4.40967 0
M  V30 15149 N 1426.18 4.31553 -5.41972 0
M  V30 15150 N 1427.98 3.636 -4.28663 0
M  V30 15151 H 1420.13 0.447876 -2.07624 0
M  V30 15152 H 1422.39 0.260581 -0.911483 0
M  V30 15153 H 1422.1 1.52172 -3.17075 0
M  V30 15154 H 1421.97 3.01797 -2.2627 0
M  V30 15155 H 1424.36 2.6225 -1.35311 0
M  V30 15156 H 1424.44 1.1275 -2.29611 0
M  V30 15157 H 1424.08 2.48149 -4.43153 0
M  V30 15158 H 1424.01 3.9717 -3.45779 0
M  V30 15159 H 1426.5 2.56888 -2.77159 0
M  V30 15160 H 1426.82 4.7775 -6.07433 0
M  V30 15161 H 1425.16 4.302 -5.45851 0
M  V30 15162 H 1428.35 3.11973 -3.48985 0
M  V30 15163 H 1428.53 4.12706 -4.99578 0
M  V30 15164 N 1421.93 1.0643 1.16234 0
M  V30 15165 C 1422.88 0.670457 2.22728 0
M  V30 15166 C 1423.87 -0.31428 1.66459 0
M  V30 15167 O 1425.08 -0.178996 1.79108 0
M  V30 15168 H 1421.46 0.198692 0.725276 0
M  V30 15169 H 1423.43 1.57846 2.53233 0
M  V30 15170 C 1422.18 0.074379 3.4762 0
M  V30 15171 H 1421.5 0.823227 3.91233 0
M  V30 15172 H 1422.94 -0.163652 4.23684 0
M  V30 15173 C 1421.4 -1.18242 3.15469 0
M  V30 15174 O 1421.93 -2.27018 3.314 0
M  V30 15175 N 1420.13 -1.08493 2.69588 0
M  V30 15176 H 1419.68 -0.199714 2.56825 0
M  V30 15177 H 1419.64 -1.92666 2.48449 0
M  V30 15178 N 1423.41 -1.329 0.847073 0
M  V30 15179 C 1424.36 -2.3097 0.27487 0
M  V30 15180 C 1425.35 -1.58508 -0.597625 0
M  V30 15181 O 1426.56 -1.73307 -0.486273 0
M  V30 15182 H 1422.93 -0.748719 0.0701719 0
M  V30 15183 H 1424.9 -2.7673 1.11638 0
M  V30 15184 C 1423.65 -3.43662 -0.528363 0
M  V30 15185 H 1422.98 -3.99576 0.133707 0
M  V30 15186 H 1424.42 -4.14458 -0.894443 0
M  V30 15187 C 1422.88 -2.90244 -1.71055 0
M  V30 15188 O 1423.41 -2.87109 -2.80947 0
M  V30 15189 N 1421.61 -2.46743 -1.53512 0
M  V30 15190 H 1421.16 -2.49493 -0.641181 0
M  V30 15191 H 1421.12 -2.11356 -2.32757 0
M  V30 15192 N 1424.89 -0.604284 -1.45555 0
M  V30 15193 C 1426.11 -0.102634 -2.07146 0
M  V30 15194 C 1426.54 1.20239 -1.44652 0
M  V30 15195 O 1425.9 1.73133 -0.538033 0
M  V30 15196 C 1425.94 0.0270231 -3.6059 0
M  V30 15197 O 1425.05 1.0781 -3.98059 0
M  V30 15198 H 1424.39 -0.0725667 -0.660023 0
M  V30 15199 H 1426.92 -0.833355 -1.86859 0
M  V30 15200 H 1426.93 0.226299 -4.07372 0
M  V30 15201 H 1425.6 -0.925896 -4.05463 0
M  V30 15202 H 1424.18 0.855552 -3.62953 0
M  V30 15203 N 1426.37 1.53816 -0.343257 0
M  V30 15204 C 1427.78 1.59598 0.00867849 0
M  V30 15205 C 1427.98 1.35922 1.48753 0
M  V30 15206 O 1427.04 1.15334 2.2462 0
M  V30 15207 C 1428.35 2.97649 -0.427234 0
M  V30 15208 C 1429.9 3.1069 -0.379554 0
M  V30 15209 C 1430.37 4.51119 -0.79093 0
M  V30 15210 N 1431.87 4.57168 -0.745105 0
M  V30 15211 C 1432.6 5.63975 -1.03537 0
M  V30 15212 N 1432.1 6.78635 -1.39377 0
M  V30 15213 N 1433.89 5.53848 -0.959628 0
M  V30 15214 H 1426.04 1.6746 -1.30656 0
M  V30 15215 H 1428.3 0.784254 -0.532588 0
M  V30 15216 H 1428.01 3.2004 -1.45834 0
M  V30 15217 H 1427.88 3.76682 0.197704 0
M  V30 15218 H 1430.27 2.88024 0.642376 0
M  V30 15219 H 1430.35 2.33718 -1.03969 0
M  V30 15220 H 1430 4.74521 -1.81087 0
M  V30 15221 H 1429.93 5.26489 -0.108274 0
M  V30 15222 H 1432.42 3.7483 -0.480752 0
M  V30 15223 H 1432.73 7.56053 -1.60011 0
M  V30 15224 H 1431.07 6.80083 -1.43222 0
M  V30 15225 H 1434.27 4.6315 -0.678974 0
M  V30 15226 H 1434.44 6.36995 -1.18919 0
M  V30 15227 N 1427.84 0.0718701 1.57436 0
M  V30 15228 C 1428.77 -0.89288 2.15754 0
M  V30 15229 C 1429.76 -1.31036 1.0846 0
M  V30 15230 O 1430.94 -1.38139 1.36496 0
M  V30 15231 C 1428.07 -2.16044 2.71923 0
M  V30 15232 C 1427.02 -1.88236 3.84384 0
M  V30 15233 C 1426.35 -3.21624 4.27156 0
M  V30 15234 C 1427.65 -1.18758 5.0862 0
M  V30 15235 H 1429.34 -0.407061 2.9662 0
M  V30 15236 H 1426.89 -0.194354 1.42682 0
M  V30 15237 H 1428.84 -2.83952 3.11366 0
M  V30 15238 H 1427.57 -2.66868 1.88279 0
M  V30 15239 H 1426.23 -1.22734 3.45445 0
M  V30 15240 H 1425.87 -3.70289 3.40433 0
M  V30 15241 H 1425.57 -3.03809 5.02965 0
M  V30 15242 H 1427.1 -3.90729 4.69215 0
M  V30 15243 H 1428.51 -1.76735 5.45378 0
M  V30 15244 H 1426.91 -1.11201 5.89707 0
M  V30 15245 H 1427.98 -0.166682 4.84613 0
M  V30 15246 N 1429.32 -1.56304 -0.201686 0
M  V30 15247 C 1430.57 -1.79881 -0.921269 0
M  V30 15248 C 1430.89 -0.643809 -1.84065 0
M  V30 15249 O 1430.16 0.338239 -1.92958 0
M  V30 15250 H 1428.74 -0.663506 -0.343175 0
M  V30 15251 H 1431.4 -1.93779 -0.208775 0
M  V30 15252 H 1430.5 -2.7279 -1.51631 0
M  V30 15253 N 1430.8 0.469154 -1.50455 0
M  V30 15254 C 1431.75 1.58765 -1.6999 0
M  V30 15255 C 1432.74 1.59673 -0.56577 0
M  V30 15256 O 1433.95 1.63799 -0.74632 0
M  V30 15257 H 1430.32 0.526868 -0.536577 0
M  V30 15258 H 1432.29 1.39451 -2.6381 0
M  V30 15259 C 1431.04 2.9669 -1.81302 0
M  V30 15260 H 1430.37 2.96711 -2.67961 0
M  V30 15261 H 1431.81 3.74403 -1.98994 0
M  V30 15262 C 1430.27 3.32127 -0.565086 0
M  V30 15263 O 1430.8 4.00616 0.294873 0
M  V30 15264 N 1429 2.8757 -0.418537 0
M  V30 15265 H 1428.55 2.32008 -1.11938 0
M  V30 15266 H 1428.51 3.11645 0.415276 0
M  V30 15267 N 1432.28 1.40065 0.722464 0
M  V30 15268 C 1433.53 1.37698 1.47932 0
M  V30 15269 C 1433.85 -0.0222608 1.94987 0
M  V30 15270 O 1433.12 -0.975795 1.69868 0
M  V30 15271 H 1431.7 0.506766 0.548815 0
M  V30 15272 H 1434.36 1.75053 0.856884 0
M  V30 15273 H 1433.46 2.04756 2.35545 0
M  V30 15274 N 1433.76 -0.95397 1.25448 0
M  V30 15275 C 1435 -1.70118 1.10399 0
M  V30 15276 C 1435.34 -1.90945 -0.354093 0
M  V30 15277 O 1434.61 -1.48088 -1.26096 0
M  V30 15278 C 1434.89 -3.08371 1.85955 0
M  V30 15279 C 1434.75 -2.9495 3.39595 0
M  V30 15280 C 1436.07 -4.08273 1.64321 0
M  V30 15281 H 1433.19 -0.617424 0.402438 0
M  V30 15282 H 1435.83 -1.10884 1.54288 0
M  V30 15283 H 1433.98 -3.58936 1.48651 0
M  V30 15284 H 1435.65 -2.51705 3.86578 0
M  V30 15285 H 1433.89 -2.30853 3.67273 0
M  V30 15286 H 1434.56 -3.92952 3.87676 0
M  V30 15287 H 1437.04 -3.6662 1.96796 0
M  V30 15288 H 1435.92 -5.03048 2.19622 0
M  V30 15289 H 1436.18 -4.38217 0.584685 0
M  V30 15290 N 1435.24 -1.07045 -1.15668 0
M  V30 15291 C 1436.17 -0.709413 -2.22463 0
M  V30 15292 C 1437.15 0.30169 -1.67403 0
M  V30 15293 O 1438.33 0.175131 -1.93409 0
M  V30 15294 C 1435.46 -0.103121 -3.47147 0
M  V30 15295 C 1434.42 -1.04103 -4.15146 0
M  V30 15296 C 1433.74 -0.297656 -5.33871 0
M  V30 15297 C 1435.04 -2.37332 -4.65264 0
M  V30 15298 H 1436.74 -1.60227 -2.52918 0
M  V30 15299 H 1434.28 -0.771846 -1.21567 0
M  V30 15300 H 1436.23 0.161371 -4.21091 0
M  V30 15301 H 1434.96 0.824792 -3.16014 0
M  V30 15302 H 1433.62 -1.2904 -3.43139 0
M  V30 15303 H 1433.27 0.633618 -4.98993 0
M  V30 15304 H 1432.97 -0.922789 -5.80309 0
M  V30 15305 H 1434.49 -0.0408892 -6.10586 0
M  V30 15306 H 1435.9 -2.1674 -5.30751 0
M  V30 15307 H 1434.3 -2.95412 -5.22352 0
M  V30 15308 H 1435.37 -2.99859 -3.81068 0
M  V30 15309 N 1436.71 1.32449 -0.85411 0
M  V30 15310 C 1437.94 2.01171 -0.470505 0
M  V30 15311 C 1438.35 1.64356 0.937218 0
M  V30 15312 O 1437.69 0.860565 1.62296 0
M  V30 15313 C 1437.76 3.55583 -0.529241 0
M  V30 15314 C 1437.42 4.15824 -1.89576 0
M  V30 15315 C 1438.42 4.34091 -2.86114 0
M  V30 15316 C 1436.1 4.51911 -2.19276 0
M  V30 15317 C 1438.1 4.87612 -4.10504 0
M  V30 15318 C 1435.78 5.05137 -3.43919 0
M  V30 15319 C 1436.78 5.22936 -4.39349 0
M  V30 15320 O 1436.47 5.75024 -5.61785 0
M  V30 15321 H 1436.2 0.650645 -0.183405 0
M  V30 15322 H 1438.76 1.70015 -1.15257 0
M  V30 15323 H 1436.99 3.86131 0.209671 0
M  V30 15324 H 1438.67 4.05579 -0.161315 0
M  V30 15325 H 1439.44 4.06545 -2.64473 0
M  V30 15326 H 1435.32 4.37343 -1.45782 0
M  V30 15327 H 1438.86 5.0142 -4.84999 0
M  V30 15328 H 1434.76 5.32114 -3.6541 0
M  V30 15329 H 1435.53 5.93418 -5.63736 0
M  V30 15330 N 1438.19 0.611994 1.45232 0
M  V30 15331 C 1439.15 -0.0943825 2.29006 0
M  V30 15332 C 1440.15 -0.790863 1.40007 0
M  V30 15333 O 1441.34 -0.638356 1.62082 0
M  V30 15334 C 1438.48 -1.1439 3.21135 0
M  V30 15335 H 1439.67 0.6422 2.92943 0
M  V30 15336 H 1437.22 0.37124 1.51827 0
M  V30 15337 H 1437.96 -1.9111 2.62007 0
M  V30 15338 H 1437.74 -0.648638 3.86698 0
M  V30 15339 H 1439.23 -1.63848 3.84114 0
M  V30 15340 N 1439.67 -1.53632 0.351409 0
M  V30 15341 C 1440.89 -2.0593 -0.246501 0
M  V30 15342 C 1441.32 -1.22419 -1.42812 0
M  V30 15343 O 1440.68 -0.239811 -1.79707 0
M  V30 15344 C 1440.73 -3.55021 -0.631862 0
M  V30 15345 O 1439.83 -3.74317 -1.73092 0
M  V30 15346 H 1439.17 -0.662839 -0.0392424 0
M  V30 15347 H 1441.7 -1.98196 0.507904 0
M  V30 15348 H 1441.71 -3.97795 -0.906831 0
M  V30 15349 H 1440.39 -4.15251 0.232224 0
M  V30 15350 H 1438.96 -3.43444 -1.4526 0
M  V30 15351 N 1441.15 -0.0802183 -1.57396 0
M  V30 15352 C 1442.39 0.587831 -1.94094 0
M  V30 15353 C 1442.73 1.6875 -0.961093 0
M  V30 15354 O 1442 1.94498 0.00832799 0
M  V30 15355 C 1442.28 1.15692 -3.41009 0
M  V30 15356 C 1442.14 0.0633211 -4.49755 0
M  V30 15357 C 1443.46 2.05987 -3.88918 0
M  V30 15358 H 1440.58 0.212214 -0.705786 0
M  V30 15359 H 1443.22 -0.147902 -1.89423 0
M  V30 15360 H 1441.37 1.78394 -3.4512 0
M  V30 15361 H 1443.04 -0.57019 -4.57763 0
M  V30 15362 H 1441.28 -0.605003 -4.2956 0
M  V30 15363 H 1441.95 0.502056 -5.49712 0
M  V30 15364 H 1444.43 1.5321 -3.86867 0
M  V30 15365 H 1443.31 2.42737 -4.92311 0
M  V30 15366 H 1443.57 2.97147 -3.27347 0
M  V30 15367 N 1442.63 1.56409 0.193394 0
M  V30 15368 C 1443.57 1.95572 1.25914 0
M  V30 15369 C 1444.57 0.841384 1.47028 0
M  V30 15370 O 1445.77 1.0264 1.47868 0
M  V30 15371 H 1442.15 0.621914 0.422761 0
M  V30 15372 H 1444.12 2.84446 0.901827 0
M  V30 15373 C 1442.87 2.31293 2.59613 0
M  V30 15374 H 1442.19 3.16568 2.44182 0
M  V30 15375 H 1443.63 2.62558 3.32926 0
M  V30 15376 C 1442.09 1.14818 3.16731 0
M  V30 15377 O 1442.62 0.424105 3.99455 0
M  V30 15378 N 1440.83 0.924536 2.75501 0
M  V30 15379 H 1440.37 1.51509 2.08334 0
M  V30 15380 H 1440.33 0.147006 3.14056 0
M  V30 15381 N 1444.1 -0.461169 1.50702 0
M  V30 15382 C 1445.51 -1.04177 1.54932 0
M  V30 15383 C 1445.87 -1.92894 0.358648 0
M  V30 15384 O 1444.99 -2.09876 -0.527346 0
M  V30 15385 C 1445.59 -1.8961 2.80773 0
M  V30 15386 C 1444.14 -2.42761 2.87652 0
M  V30 15387 C 1443.29 -1.21356 2.49335 0
M  V30 15388 H 1446.24 -0.243379 1.56823 0
M  V30 15389 H 1446.26 -2.74794 2.63189 0
M  V30 15390 H 1445.78 -1.25014 3.67414 0
M  V30 15391 H 1443.88 -3.10881 2.05386 0
M  V30 15392 H 1443.99 -2.77189 3.90772 0
M  V30 15393 H 1442.35 -1.55146 2.01995 0
M  V30 15394 H 1443.14 -0.584069 3.38295 0
M  V30 15395 N 1445.58 -1.40446 -0.715026 0
M  V30 15396 C 1446.49 -1.43074 -1.85922 0
M  V30 15397 C 1447.51 -0.323294 -1.7097 0
M  V30 15398 O 1448.68 -0.567966 -1.93226 0
M  V30 15399 C 1445.75 -1.29206 -3.21725 0
M  V30 15400 C 1444.81 -2.50097 -3.48927 0
M  V30 15401 C 1444.04 -2.36881 -4.7825 0
M  V30 15402 O 1444.27 -1.38292 -5.53382 0
M  V30 15403 O 1443.2 -3.26266 -5.058 0
M  V30 15404 H 1447.03 -2.39565 -1.86661 0
M  V30 15405 H 1444.61 -1.21775 -0.865522 0
M  V30 15406 H 1446.49 -1.23681 -4.02841 0
M  V30 15407 H 1445.17 -0.358207 -3.21712 0
M  V30 15408 H 1444.07 -2.61199 -2.67817 0
M  V30 15409 H 1445.41 -3.42244 -3.53737 0
M  V30 15410 N 1447.06 0.947303 -1.25952 0
M  V30 15411 C 1448.29 1.72479 -1.1373 0
M  V30 15412 C 1448.7 1.86629 0.310871 0
M  V30 15413 O 1448.04 1.36882 1.22512 0
M  V30 15414 C 1448.1 3.15328 -1.72651 0
M  V30 15415 C 1447.77 3.24584 -3.21705 0
M  V30 15416 C 1448.76 3.08331 -4.18602 0
M  V30 15417 C 1446.45 3.4817 -3.62054 0
M  V30 15418 C 1448.44 3.15523 -5.53827 0
M  V30 15419 C 1446.13 3.54997 -4.97413 0
M  V30 15420 C 1447.13 3.38689 -5.93109 0
M  V30 15421 O 1446.82 3.45212 -7.26005 0
M  V30 15422 H 1446.55 0.547044 -0.397138 0
M  V30 15423 H 1449.1 1.19654 -1.66949 0
M  V30 15424 H 1447.33 3.69549 -1.13887 0
M  V30 15425 H 1449.02 3.74965 -1.55423 0
M  V30 15426 H 1449.79 2.89971 -3.88769 0
M  V30 15427 H 1445.67 3.59922 -2.88057 0
M  V30 15428 H 1449.21 3.02711 -6.285 0
M  V30 15429 H 1445.11 3.72876 -5.26909 0
M  V30 15430 H 1445.87 3.61796 -7.34198 0
M  V30 15431 N 1448.54 1.07657 1.15099 0
M  V30 15432 C 1449.79 0.801609 1.85958 0
M  V30 15433 C 1450.11 -0.672415 1.82507 0
M  V30 15434 O 1449.37 -1.50958 1.2454 0
M  V30 15435 C 1449.67 1.25903 3.3449 0
M  V30 15436 C 1449.33 2.73954 3.58134 0
M  V30 15437 C 1448 3.14392 3.64296 0
M  V30 15438 C 1450.35 3.69502 3.67584 0
M  V30 15439 C 1447.68 4.49187 3.77422 0
M  V30 15440 C 1450.03 5.04063 3.82235 0
M  V30 15441 C 1448.69 5.44117 3.86643 0
M  V30 15442 H 1447.96 0.293329 0.68047 0
M  V30 15443 H 1450.61 1.34814 1.36005 0
M  V30 15444 H 1448.91 0.631943 3.8667 0
M  V30 15445 H 1450.61 1.02314 3.87728 0
M  V30 15446 H 1447.2 2.41652 3.53981 0
M  V30 15447 H 1451.38 3.39385 3.62121 0
M  V30 15448 H 1446.64 4.79685 3.79094 0
M  V30 15449 H 1450.81 5.7797 3.88489 0
M  V30 15450 H 1448.44 6.48567 3.96567 0
M  V30 15451 N 1450.02 -1.31994 0.861122 0
M  V30 15452 C 1451.24 -2.01745 0.481013 0
M  V30 15453 C 1451.67 -1.6426 -0.916527 0
M  V30 15454 O 1451.02 -0.846603 -1.60319 0
M  V30 15455 C 1451.07 -3.54963 0.635134 0
M  V30 15456 O 1450.18 -4.11083 -0.329337 0
M  V30 15457 H 1449.52 -0.635499 0.192452 0
M  V30 15458 H 1452.05 -1.68394 1.1621 0
M  V30 15459 H 1452.06 -4.04607 0.525089 0
M  V30 15460 H 1450.73 -3.81587 1.65422 0
M  V30 15461 H 1449.31 -3.72489 -0.174989 0
M  V30 15462 N 1451.49 -0.619688 -1.44906 0
M  V30 15463 C 1452.46 0.0822364 -2.29052 0
M  V30 15464 C 1453.46 0.783427 -1.40425 0
M  V30 15465 O 1454.65 0.629751 -1.62419 0
M  V30 15466 C 1451.78 1.12685 -3.21737 0
M  V30 15467 H 1452.97 -0.657726 -2.92599 0
M  V30 15468 H 1450.53 -0.379286 -1.51628 0
M  V30 15469 H 1451.26 1.89717 -2.63017 0
M  V30 15470 H 1451.05 0.628122 -3.87036 0
M  V30 15471 H 1452.54 1.61808 -3.84978 0
M  V30 15472 N 1452.97 1.53444 -0.359552 0
M  V30 15473 C 1453.94 2.24173 0.477412 0
M  V30 15474 C 1454.94 1.24747 1.01464 0
M  V30 15475 O 1456.13 1.49069 0.901343 0
M  V30 15476 C 1453.26 2.9738 1.66667 0
M  V30 15477 H 1454.45 2.99566 -0.141407 0
M  V30 15478 H 1452 1.55904 -0.111143 0
M  V30 15479 H 1452.74 2.26214 2.32374 0
M  V30 15480 H 1452.52 3.70325 1.28848 0
M  V30 15481 H 1454.01 3.51165 2.25994 0
M  V30 15482 N 1454.45 0.0885642 1.57351 0
M  V30 15483 C 1455.73 -0.618587 1.85561 0
M  V30 15484 C 1456.11 -1.86753 0.984206 0
M  V30 15485 O 1455.46 -2.28434 0.0548839 0
M  V30 15486 C 1455.67 -0.940222 3.36096 0
M  V30 15487 C 1457.01 -1.30649 4.04 0
M  V30 15488 O 1458.04 -1.03144 3.4094 0
M  V30 15489 O 1456.9 -1.82135 5.15256 0
M  V30 15490 H 1453.99 -0.308881 0.767152 0
M  V30 15491 H 1456.54 0.120767 1.6927 0
M  V30 15492 H 1455.31 -0.0538991 3.91263 0
M  V30 15493 H 1454.93 -1.73577 3.5771 0
M  V30 15494 N 1455.93 -1.56509 -0.185096 0
M  V30 15495 C 1457.17 -1.81474 -0.905263 0
M  V30 15496 C 1457.51 -0.664225 -1.82488 0
M  V30 15497 O 1456.78 0.33466 -1.91599 0
M  V30 15498 C 1457.07 -3.16754 -1.71287 0
M  V30 15499 C 1456.92 -4.42312 -0.817302 0
M  V30 15500 C 1458.24 -3.48828 -2.68342 0
M  V30 15501 H 1455.36 -0.660155 -0.327664 0
M  V30 15502 H 1458 -1.89219 -0.172129 0
M  V30 15503 H 1456.15 -3.10282 -2.33789 0
M  V30 15504 H 1457.82 -4.60839 -0.206218 0
M  V30 15505 H 1456.06 -4.33621 -0.124564 0
M  V30 15506 H 1456.73 -5.33487 -1.41758 0
M  V30 15507 H 1459.21 -3.55663 -2.15969 0
M  V30 15508 H 1458.09 -4.44585 -3.21924 0
M  V30 15509 H 1458.35 -2.72829 -3.47875 0
M  V30 15510 N 1457.41 0.45317 -1.50944 0
M  V30 15511 C 1458.64 1.22494 -1.66369 0
M  V30 15512 C 1459.04 1.85862 -0.353854 0
M  V30 15513 O 1458.39 1.70808 0.676031 0
M  V30 15514 C 1458.45 2.36145 -2.71064 0
M  V30 15515 C 1458.11 1.93273 -4.14119 0
M  V30 15516 C 1459.11 1.44508 -4.99413 0
M  V30 15517 C 1456.8 2.01447 -4.60135 0
M  V30 15518 C 1458.79 1.04482 -6.28778 0
M  V30 15519 C 1456.48 1.61033 -5.89501 0
M  V30 15520 C 1457.47 1.1263 -6.73649 0
M  V30 15521 O 1457.16 0.727835 -8.00598 0
M  V30 15522 H 1456.89 0.37591 -0.561843 0
M  V30 15523 H 1459.45 0.545218 -1.98032 0
M  V30 15524 H 1457.68 3.07345 -2.34682 0
M  V30 15525 H 1459.37 2.9806 -2.75527 0
M  V30 15526 H 1460.13 1.376 -4.65071 0
M  V30 15527 H 1456.01 2.38068 -3.94771 0
M  V30 15528 H 1459.56 0.666322 -6.9441 0
M  V30 15529 H 1455.45 1.67606 -6.23361 0
M  V30 15530 H 1456.22 0.855097 -8.14021 0
M  V30 15531 N 1458.88 1.40823 0.707568 0
M  V30 15532 C 1460.13 1.39741 1.4697 0
M  V30 15533 C 1460.46 0.00231194 1.942 0
M  V30 15534 O 1459.74 -0.967798 1.68713 0
M  V30 15535 C 1460.02 2.39385 2.69011 0
M  V30 15536 C 1459.87 3.87953 2.27624 0
M  V30 15537 C 1461.19 2.3645 3.71186 0
M  V30 15538 H 1458.31 0.508904 0.533091 0
M  V30 15539 H 1460.95 1.72015 0.806888 0
M  V30 15540 H 1459.1 2.11993 3.25563 0
M  V30 15541 H 1460.78 4.26202 1.76492 0
M  V30 15542 H 1459.02 4.03399 1.59537 0
M  V30 15543 H 1459.69 4.53201 3.15139 0
M  V30 15544 H 1462.17 2.60731 3.24282 0
M  V30 15545 H 1461.04 3.08204 4.54204 0
M  V30 15546 H 1461.3 1.3789 4.20046 0
M  V30 15547 N 1460.36 -0.94061 1.26453 0
M  V30 15548 C 1461.77 -1.50169 1.10934 0
M  V30 15549 C 1462.12 -1.93733 -0.310167 0
M  V30 15550 O 1461.25 -1.79966 -1.20172 0
M  V30 15551 C 1461.84 -2.7291 2.00763 0
M  V30 15552 C 1460.4 -3.25283 1.89388 0
M  V30 15553 C 1459.55 -1.98061 1.9408 0
M  V30 15554 H 1462.5 -0.756038 1.39534 0
M  V30 15555 H 1462.52 -3.47237 1.55586 0
M  V30 15556 H 1462.03 -2.41172 3.04069 0
M  V30 15557 H 1460.14 -3.6181 0.890192 0
M  V30 15558 H 1460.25 -3.92351 2.7495 0
M  V30 15559 H 1458.61 -2.13985 1.3814 0
M  V30 15560 H 1459.4 -1.68654 2.99016 0
M  V30 15561 N 1461.84 -1.08266 -1.14527 0
M  V30 15562 C 1463.12 -0.724254 -1.81697 0
M  V30 15563 C 1463.5 0.792212 -1.95671 0
M  V30 15564 O 1462.85 1.71017 -1.51543 0
M  V30 15565 C 1463.06 -1.44949 -3.17475 0
M  V30 15566 C 1464.4 -1.60761 -3.9299 0
M  V30 15567 O 1465.43 -1.41103 -3.2706 0
M  V30 15568 O 1464.29 -1.93184 -5.11216 0
M  V30 15569 H 1461.38 -0.258814 -0.785458 0
M  V30 15570 H 1463.93 -1.18414 -1.21557 0
M  V30 15571 H 1462.7 -2.48262 -3.02459 0
M  V30 15572 H 1462.32 -0.980993 -3.85308 0
M  V30 15573 N 1463.32 1.31536 -0.86811 0
M  V30 15574 C 1464.23 2.32326 -0.32588 0
M  V30 15575 C 1465.25 1.64632 0.563243 0
M  V30 15576 O 1466.42 1.96067 0.460403 0
M  V30 15577 C 1463.49 3.43562 0.46539 0
M  V30 15578 C 1462.55 4.26919 -0.451472 0
M  V30 15579 C 1461.78 5.32844 0.302129 0
M  V30 15580 O 1462 5.49485 1.53045 0
M  V30 15581 O 1460.94 6.00944 -0.339048 0
M  V30 15582 H 1464.76 2.80622 -1.16126 0
M  V30 15583 H 1462.35 1.35401 -0.631428 0
M  V30 15584 H 1464.23 4.11368 0.914028 0
M  V30 15585 H 1462.91 2.97432 1.27734 0
M  V30 15586 H 1461.81 3.61874 -0.948571 0
M  V30 15587 H 1463.15 4.7661 -1.22897 0
M  V30 15588 N 1464.8 0.627364 1.44575 0
M  V30 15589 C 1466.04 0.139049 2.02924 0
M  V30 15590 C 1466.4 -1.22408 1.48439 0
M  V30 15591 O 1465.69 -1.7997 0.657374 0
M  V30 15592 C 1465.89 0.0622409 3.57346 0
M  V30 15593 C 1465.71 1.41638 4.26812 0
M  V30 15594 C 1464.48 2.00219 4.6394 0
M  V30 15595 C 1466.68 2.34942 4.57501 0
M  V30 15596 N 1464.66 3.28907 5.18356 0
M  V30 15597 C 1466.04 3.48242 5.1296 0
M  V30 15598 C 1468.09 2.34068 4.3945 0
M  V30 15599 C 1466.79 4.60859 5.52269 0
M  V30 15600 C 1468.82 3.45746 4.79806 0
M  V30 15601 C 1468.18 4.5777 5.35375 0
M  V30 15602 H 1464.28 0.094714 0.776243 0
M  V30 15603 H 1466.86 0.830037 1.76121 0
M  V30 15604 H 1465.04 -0.598017 3.83769 0
M  V30 15605 H 1466.77 -0.434554 4.0236 0
M  V30 15606 H 1463.52 1.53205 4.48135 0
M  V30 15607 H 1463.95 3.94691 5.50044 0
M  V30 15608 H 1468.59 1.4871 3.95784 0
M  V30 15609 H 1466.31 5.46927 5.94892 0
M  V30 15610 H 1469.89 3.46241 4.67556 0
M  V30 15611 H 1468.77 5.42757 5.66025 0
M  V30 15612 N 1466.28 -1.53251 0.367684 0
M  V30 15613 C 1467.19 -2.29518 -0.485669 0
M  V30 15614 C 1468.2 -1.35568 -1.09075 0
M  V30 15615 O 1469.38 -1.68626 -1.10124 0
M  V30 15616 C 1466.44 -3.07115 -1.60876 0
M  V30 15617 C 1465.5 -4.16736 -1.031 0
M  V30 15618 C 1464.74 -4.90624 -2.10056 0
M  V30 15619 O 1464.96 -4.64393 -3.31203 0
M  V30 15620 O 1463.89 -5.76503 -1.72996 0
M  V30 15621 H 1467.72 -3.034 0.135017 0
M  V30 15622 H 1465.3 -1.48816 0.132005 0
M  V30 15623 H 1467.19 -3.55564 -2.26168 0
M  V30 15624 H 1465.86 -2.36068 -2.21481 0
M  V30 15625 H 1464.77 -3.72534 -0.341928 0
M  V30 15626 H 1466.1 -4.89956 -0.469473 0
M  V30 15627 N 1467.75 -0.0969077 -1.57302 0
M  V30 15628 C 1469 0.567212 -1.94706 0
M  V30 15629 C 1469.33 1.67721 -0.978937 0
M  V30 15630 O 1468.61 1.94496 -0.0123016 0
M  V30 15631 C 1468.89 1.12069 -3.42217 0
M  V30 15632 C 1468.74 0.015615 -4.49797 0
M  V30 15633 C 1470.06 2.0185 -3.91081 0
M  V30 15634 H 1467.18 0.204716 -0.707997 0
M  V30 15635 H 1469.82 -0.167984 -1.89256 0
M  V30 15636 H 1467.97 1.74723 -3.46993 0
M  V30 15637 H 1469.65 -0.61871 -4.57132 0
M  V30 15638 H 1467.89 -0.650529 -4.28895 0
M  V30 15639 H 1468.56 0.443724 -5.50214 0
M  V30 15640 H 1471.04 1.49098 -3.8847 0
M  V30 15641 H 1469.91 2.37502 -4.94858 0
M  V30 15642 H 1470.17 2.93659 -3.3048 0
M  V30 15643 N 1469.23 1.56605 0.176793 0
M  V30 15644 C 1470.19 1.95109 1.20271 0
M  V30 15645 C 1471.19 0.83414 1.37473 0
M  V30 15646 O 1472.38 1.10128 1.34972 0
M  V30 15647 C 1469.52 2.24112 2.56878 0
M  V30 15648 H 1470.71 2.86909 0.87312 0
M  V30 15649 H 1468.26 1.50578 0.419033 0
M  V30 15650 H 1469 1.35009 2.94861 0
M  V30 15651 H 1468.78 3.05523 2.45761 0
M  V30 15652 H 1470.27 2.54842 3.30825 0
M  V30 15653 N 1470.71 -0.445159 1.51182 0
M  V30 15654 C 1472.13 -0.781023 1.39184 0
M  V30 15655 C 1472.33 -1.95988 0.468076 0
M  V30 15656 O 1471.38 -2.52374 -0.0796822 0
M  V30 15657 C 1472.69 -1.06874 2.81067 0
M  V30 15658 C 1474.24 -1.17364 2.90163 0
M  V30 15659 C 1474.72 -1.49433 4.32936 0
M  V30 15660 N 1476.21 -1.56373 4.36006 0
M  V30 15661 C 1476.94 -1.82743 5.435 0
M  V30 15662 N 1476.44 -2.06958 6.61166 0
M  V30 15663 N 1478.23 -1.84461 5.30971 0
M  V30 15664 H 1470.38 0.331347 2.098 0
M  V30 15665 H 1472.65 0.0858102 0.944108 0
M  V30 15666 H 1472.35 -0.275306 3.50621 0
M  V30 15667 H 1472.23 -1.99839 3.19913 0
M  V30 15668 H 1474.61 -1.95771 2.20812 0
M  V30 15669 H 1474.69 -0.22318 2.54825 0
M  V30 15670 H 1474.34 -0.715573 5.02834 0
M  V30 15671 H 1474.27 -2.45673 4.65782 0
M  V30 15672 H 1476.76 -1.39595 3.51172 0
M  V30 15673 H 1477.07 -2.26427 7.38885 0
M  V30 15674 H 1475.42 -2.04297 6.64295 0
M  V30 15675 H 1478.61 -1.65057 4.38034 0
M  V30 15676 H 1478.78 -2.04675 6.14827 0
M  V30 15677 N 1472.19 -1.41197 -0.700089 0
M  V30 15678 C 1473.1 -1.45038 -1.84394 0
M  V30 15679 C 1474.11 -0.34141 -1.70618 0
M  V30 15680 O 1475.29 -0.588428 -1.92612 0
M  V30 15681 C 1472.35 -1.32611 -3.20336 0
M  V30 15682 C 1471.42 -2.53784 -3.46254 0
M  V30 15683 C 1470.65 -2.4194 -4.75711 0
M  V30 15684 O 1470.87 -1.44153 -5.51884 0
M  V30 15685 O 1469.81 -3.31613 -5.02311 0
M  V30 15686 H 1473.63 -2.41531 -1.8411 0
M  V30 15687 H 1471.22 -1.22686 -0.852558 0
M  V30 15688 H 1473.1 -1.27947 -4.01507 0
M  V30 15689 H 1471.77 -0.392309 -3.21314 0
M  V30 15690 H 1470.68 -2.64024 -2.65032 0
M  V30 15691 H 1472.01 -3.45977 -3.50087 0
M  V30 15692 N 1473.67 0.933891 -1.2695 0
M  V30 15693 C 1474.61 2.03365 -1.09139 0
M  V30 15694 C 1475.58 1.66099 0.00573029 0
M  V30 15695 O 1476.77 1.90166 -0.155425 0
M  V30 15696 C 1473.91 3.37114 -0.738117 0
M  V30 15697 C 1473.02 3.87372 -1.91224 0
M  V30 15698 C 1472.16 5.0954 -1.50141 0
M  V30 15699 C 1471.19 5.52079 -2.64339 0
M  V30 15700 N 1470.33 6.65446 -2.23887 0
M  V30 15701 H 1475.17 2.17932 -2.03248 0
M  V30 15702 H 1472.71 1.0677 -1.01186 0
M  V30 15703 H 1474.67 4.1402 -0.514141 0
M  V30 15704 H 1473.3 3.22373 0.166007 0
M  V30 15705 H 1472.35 3.06801 -2.24894 0
M  V30 15706 H 1473.66 4.14875 -2.76912 0
M  V30 15707 H 1472.81 5.93928 -1.23831 0
M  V30 15708 H 1471.55 4.838 -0.615539 0
M  V30 15709 H 1470.56 4.66244 -2.9137 0
M  V30 15710 H 1471.78 5.79817 -3.53537 0
M  V30 15711 H 1469.73 6.41376 -1.37744 0
M  V30 15712 H 1469.65 6.92573 -3.03116 0
M  V30 15713 H 1470.91 7.53191 -2.00809 0
M  V30 15714 N 1475.14 1.08871 1.13951 0
M  V30 15715 C 1476.39 0.816198 1.84448 0
M  V30 15716 C 1476.71 -0.660396 1.84114 0
M  V30 15717 O 1477.91 -1.04825 2.50448 0
M  V30 15718 C 1476.37 1.41015 3.31123 0
M  V30 15719 C 1475.98 2.91888 3.39861 0
M  V30 15720 C 1477.72 1.21633 4.06701 0
M  V30 15721 C 1475.63 3.44397 4.80775 0
M  V30 15722 H 1474.56 0.301662 0.691025 0
M  V30 15723 H 1477.21 1.31072 1.28423 0
M  V30 15724 H 1475.59 0.843333 3.86916 0
M  V30 15725 H 1476.76 3.54747 2.94094 0
M  V30 15726 H 1475.08 3.10238 2.77743 0
M  V30 15727 H 1477.68 1.58324 5.10723 0
M  V30 15728 H 1478.02 0.156519 4.16006 0
M  V30 15729 H 1478.55 1.75035 3.57222 0
M  V30 15730 H 1475.29 4.49973 4.7666 0
M  V30 15731 H 1474.81 2.86299 5.27061 0
M  V30 15732 H 1476.49 3.41266 5.49679 0
M  V30 15733 N 1476.62 -1.31073 0.875073 0
M  V30 15734 C 1477.85 -2.00688 0.503179 0
M  V30 15735 C 1478.26 -1.65657 -0.905714 0
M  V30 15736 O 1477.62 -0.888468 -1.59413 0
M  V30 15737 C 1477.67 -3.55486 0.65666 0
M  V30 15738 O 1477.39 -3.89265 2.01007 0
M  V30 15739 C 1478.89 -4.42374 0.28645 0
M  V30 15740 H 1476.11 -0.641885 0.195512 0
M  V30 15741 H 1478.66 -1.67188 1.17765 0
M  V30 15742 H 1476.81 -3.87389 0.0296852 0
M  V30 15743 H 1477.23 -4.83978 2.02153 0
M  V30 15744 H 1478.7 -5.50205 0.444776 0
M  V30 15745 H 1479.18 -4.32312 -0.774789 0
M  V30 15746 H 1479.78 -4.15898 0.889336 0
M  V30 15747 N 1478.1 -0.635022 -1.4424 0
M  V30 15748 C 1479.03 0.116972 -2.279 0
M  V30 15749 C 1480.01 0.847505 -1.38766 0
M  V30 15750 O 1481.2 0.8508 -1.68207 0
M  V30 15751 C 1478.32 1.17183 -3.17783 0
M  V30 15752 C 1477.37 0.541389 -4.2305 0
M  V30 15753 S 1478.2 -0.671454 -5.31274 0
M  V30 15754 C 1479.36 0.383317 -6.24725 0
M  V30 15755 H 1479.59 -0.592739 -2.91331 0
M  V30 15756 H 1477.12 -0.423307 -1.48484 0
M  V30 15757 H 1479.08 1.77548 -3.70118 0
M  V30 15758 H 1477.74 1.85375 -2.53564 0
M  V30 15759 H 1476.94 1.33597 -4.85971 0
M  V30 15760 H 1476.54 0.0122707 -3.73998 0
M  V30 15761 H 1478.83 1.25477 -6.65779 0
M  V30 15762 H 1479.77 -0.21041 -7.07787 0
M  V30 15763 H 1480.18 0.710963 -5.60005 0
M  V30 15764 N 1479.58 1.53054 -0.375806 0
M  V30 15765 C 1480.8 2.06296 0.213708 0
M  V30 15766 C 1481.23 1.24675 1.40846 0
M  V30 15767 O 1480.59 0.268371 1.79303 0
M  V30 15768 C 1480.63 3.55981 0.575301 0
M  V30 15769 O 1479.74 3.77023 1.67115 0
M  V30 15770 H 1479.08 0.66338 0.0286922 0
M  V30 15771 H 1481.61 1.97362 -0.539371 0
M  V30 15772 H 1481.62 3.99187 0.843431 0
M  V30 15773 H 1480.29 4.14829 -0.298258 0
M  V30 15774 H 1478.87 3.45712 1.39778 0
M  V30 15775 N 1481.06 0.105248 1.57248 0
M  V30 15776 C 1482.47 -0.251385 1.57608 0
M  V30 15777 C 1482.67 -1.677 1.11709 0
M  V30 15778 O 1481.73 -2.39552 0.798182 0
M  V30 15779 C 1483.04 -0.0305755 3.00684 0
M  V30 15780 C 1484.59 -0.0975409 3.12848 0
M  V30 15781 C 1485.06 0.0954024 4.57901 0
M  V30 15782 N 1486.56 0.040908 4.63182 0
M  V30 15783 C 1487.29 0.165298 5.73162 0
M  V30 15784 N 1486.79 0.345091 6.9194 0
M  V30 15785 N 1488.58 0.105847 5.62 0
M  V30 15786 H 1480.73 1.03658 1.85388 0
M  V30 15787 H 1482.99 0.407074 0.856151 0
M  V30 15788 H 1482.7 0.954461 3.38501 0
M  V30 15789 H 1482.57 -0.768477 3.69289 0
M  V30 15790 H 1484.96 -1.07309 2.74898 0
M  V30 15791 H 1485.04 0.672017 2.46815 0
M  V30 15792 H 1484.69 1.06786 4.96547 0
M  V30 15793 H 1484.62 -0.693974 5.22007 0
M  V30 15794 H 1487.11 -0.0951009 3.7778 0
M  V30 15795 H 1487.42 0.431243 7.71596 0
M  V30 15796 H 1485.76 0.38089 6.93955 0
M  V30 15797 H 1488.96 -0.0335544 4.68088 0
M  V30 15798 H 1489.13 0.206235 6.47672 0
M  V30 15799 N 1482.53 -1.56697 -0.168486 0
M  V30 15800 C 1483.44 -1.99866 -1.22845 0
M  V30 15801 C 1484.46 -0.910491 -1.48277 0
M  V30 15802 O 1485.64 -1.21834 -1.6037 0
M  V30 15803 C 1482.7 -2.35227 -2.54694 0
M  V30 15804 C 1481.76 -3.57886 -2.37099 0
M  V30 15805 C 1481 -3.91551 -3.62661 0
M  V30 15806 O 1481.22 -3.26148 -4.67957 0
M  V30 15807 O 1480.15 -4.8489 -3.56603 0
M  V30 15808 H 1483.98 -2.90305 -0.892015 0
M  V30 15809 H 1481.56 -1.44602 -0.375571 0
M  V30 15810 H 1483.45 -2.58928 -3.32467 0
M  V30 15811 H 1482.12 -1.4795 -2.87911 0
M  V30 15812 H 1481.03 -3.394 -1.57348 0
M  V30 15813 H 1482.36 -4.45714 -2.08806 0
M  V30 15814 N 1484.01 0.437135 -1.51416 0
M  V30 15815 C 1484.94 1.538 -1.75692 0
M  V30 15816 C 1485.92 1.5891 -0.606759 0
M  V30 15817 O 1487.11 1.74635 -0.849492 0
M  V30 15818 C 1484.24 2.91877 -1.88215 0
M  V30 15819 C 1483.19 3.01628 -3.03652 0
M  V30 15820 C 1482.52 4.41687 -3.01358 0
M  V30 15821 C 1483.82 2.75691 -4.43612 0
M  V30 15822 H 1485.51 1.33737 -2.67871 0
M  V30 15823 H 1483.06 0.641936 -1.289 0
M  V30 15824 H 1485.01 3.68851 -2.03781 0
M  V30 15825 H 1483.74 3.13173 -0.926847 0
M  V30 15826 H 1482.39 2.27094 -2.87791 0
M  V30 15827 H 1482.04 4.5995 -2.03605 0
M  V30 15828 H 1481.74 4.49141 -3.78875 0
M  V30 15829 H 1483.27 5.20634 -3.19018 0
M  V30 15830 H 1484.68 3.42398 -4.59822 0
M  V30 15831 H 1483.08 2.94554 -5.22836 0
M  V30 15832 H 1484.15 1.71297 -4.53636 0
M  V30 15833 N 1485.49 1.41566 0.692592 0
M  V30 15834 C 1486.74 1.40805 1.44978 0
M  V30 15835 C 1487.06 0.0191039 1.94991 0
M  V30 15836 O 1486.33 -0.939544 1.71899 0
M  V30 15837 H 1484.91 0.518293 0.537942 0
M  V30 15838 H 1487.57 1.76831 0.81956 0
M  V30 15839 H 1486.67 2.09706 2.31149 0
M  V30 15840 N 1486.97 -0.927146 1.27443 0
M  V30 15841 C 1487.9 -2.03209 1.06013 0
M  V30 15842 C 1488.91 -1.62792 0.016041 0
M  V30 15843 O 1490.1 -1.76631 0.25766 0
M  V30 15844 C 1487.2 -3.33791 0.586225 0
M  V30 15845 C 1486.38 -4.02897 1.70273 0
M  V30 15846 C 1485.43 -5.11755 1.22447 0
M  V30 15847 O 1484.46 -5.35688 1.92423 0
M  V30 15848 N 1485.66 -5.80444 0.0804162 0
M  V30 15849 H 1488.43 -2.22155 2.01165 0
M  V30 15850 H 1485.99 -1.09757 1.19017 0
M  V30 15851 H 1487.98 -4.03926 0.250161 0
M  V30 15852 H 1486.55 -3.11414 -0.272076 0
M  V30 15853 H 1485.77 -3.26489 2.20905 0
M  V30 15854 H 1487.06 -4.45816 2.45205 0
M  V30 15855 H 1486.46 -5.63454 -0.503635 0
M  V30 15856 H 1485.01 -6.51504 -0.196466 0
M  V30 15857 N 1488.45 -1.09474 -1.13372 0
M  V30 15858 C 1489.69 -0.82945 -1.84295 0
M  V30 15859 C 1490.02 0.646788 -1.83961 0
M  V30 15860 O 1489.29 1.46929 -1.29572 0
M  V30 15861 H 1487.87 -0.303853 -0.682409 0
M  V30 15862 H 1490.53 -1.38298 -1.3733 0
M  V30 15863 H 1489.62 -1.18342 -2.88793 0
M  V30 15864 N 1489.92 1.30607 -0.882012 0
M  V30 15865 C 1491.15 2.00954 -0.513048 0
M  V30 15866 C 1491.57 1.65697 0.890279 0
M  V30 15867 O 1490.93 0.872001 1.58952 0
M  V30 15868 C 1490.98 3.53907 -0.691525 0
M  V30 15869 O 1490.08 4.11555 0.263896 0
M  V30 15870 H 1489.43 0.632356 -0.202537 0
M  V30 15871 H 1491.96 1.66524 -1.18874 0
M  V30 15872 H 1491.97 4.0372 -0.589392 0
M  V30 15873 H 1490.64 3.78907 -1.71471 0
M  V30 15874 H 1489.22 3.7272 0.115707 0
M  V30 15875 N 1491.4 0.642663 1.43901 0
M  V30 15876 C 1492.65 0.151778 2.0193 0
M  V30 15877 C 1492.98 -1.23052 1.50627 0
M  V30 15878 O 1492.23 -1.83305 0.685404 0
M  V30 15879 C 1492.53 0.100139 3.5726 0
M  V30 15880 C 1492.2 1.42276 4.27865 0
M  V30 15881 C 1490.86 1.78497 4.46869 0
M  V30 15882 C 1493.21 2.29526 4.67939 0
M  V30 15883 C 1490.54 3.01655 5.03211 0
M  V30 15884 C 1492.89 3.51966 5.25645 0
M  V30 15885 C 1491.56 3.88396 5.42867 0
M  V30 15886 H 1490.83 0.0555394 0.738916 0
M  V30 15887 H 1493.47 0.831273 1.72517 0
M  V30 15888 H 1491.78 -0.66277 3.86154 0
M  V30 15889 H 1493.47 -0.29638 3.99903 0
M  V30 15890 H 1490.06 1.13091 4.13411 0
M  V30 15891 H 1494.25 2.02835 4.52959 0
M  V30 15892 H 1489.5 3.29943 5.14731 0
M  V30 15893 H 1493.68 4.19799 5.55645 0
M  V30 15894 H 1491.31 4.83909 5.8629 0
M  V30 15895 N 1492.88 -1.52852 0.383918 0
M  V30 15896 C 1494.13 -2.01112 -0.199594 0
M  V30 15897 C 1494.45 -1.27237 -1.47769 0
M  V30 15898 O 1493.72 -0.390873 -1.91961 0
M  V30 15899 H 1492.3 -0.743047 -0.0767466 0
M  V30 15900 H 1494.96 -1.8799 0.51437 0
M  V30 15901 H 1494.06 -3.09347 -0.413627 0
M  V30 15902 N 1494.36 -0.113586 -1.5719 0
M  V30 15903 C 1495.29 0.875741 -2.10727 0
M  V30 15904 C 1496.27 1.2644 -1.02233 0
M  V30 15905 O 1497.45 1.36641 -1.29852 0
M  V30 15906 C 1494.58 2.17123 -2.59952 0
M  V30 15907 C 1493.63 1.93105 -3.8028 0
M  V30 15908 S 1494.46 1.15223 -5.22957 0
M  V30 15909 C 1495.62 2.45963 -5.75546 0
M  V30 15910 H 1495.85 0.420351 -2.94313 0
M  V30 15911 H 1493.38 0.100081 -1.54075 0
M  V30 15912 H 1495.34 2.91561 -2.88968 0
M  V30 15913 H 1494 2.59781 -1.76558 0
M  V30 15914 H 1493.19 2.89082 -4.12853 0
M  V30 15915 H 1492.8 1.2679 -3.51853 0
M  V30 15916 H 1495.09 3.41835 -5.8494 0
M  V30 15917 H 1496.03 2.17943 -6.73726 0
M  V30 15918 H 1496.44 2.55083 -5.0358 0
M  V30 15919 N 1495.84 1.56784 0.160173 0
M  V30 15920 C 1497.08 1.82891 0.876278 0
M  V30 15921 C 1497.42 0.693173 1.81408 0
M  V30 15922 O 1496.69 -0.304136 1.92107 0
M  V30 15923 C 1496.97 3.19439 1.66226 0
M  V30 15924 C 1496.83 4.43557 0.746831 0
M  V30 15925 C 1498.15 3.53053 2.62758 0
M  V30 15926 H 1495.27 0.665285 0.31712 0
M  V30 15927 H 1497.91 1.89469 0.142004 0
M  V30 15928 H 1496.06 3.13962 2.28823 0
M  V30 15929 H 1497.73 4.61109 0.132876 0
M  V30 15930 H 1495.97 4.33764 0.0555625 0
M  V30 15931 H 1496.64 5.35675 1.33253 0
M  V30 15932 H 1499.12 3.59054 2.10284 0
M  V30 15933 H 1498 4.4965 3.14811 0
M  V30 15934 H 1498.26 2.78329 3.4349 0
M  V30 15935 N 1497.32 -0.429099 1.51646 0
M  V30 15936 C 1498.55 -1.19832 1.68297 0
M  V30 15937 C 1498.95 -1.85275 0.383378 0
M  V30 15938 O 1498.3 -1.71862 -0.648771 0
M  V30 15939 C 1498.36 -2.31803 2.74786 0
M  V30 15940 C 1498.02 -1.8666 4.17141 0
M  V30 15941 C 1499.02 -1.36544 5.01649 0
M  V30 15942 C 1496.7 -1.94101 4.63282 0
M  V30 15943 C 1498.7 -0.944655 6.30361 0
M  V30 15944 C 1496.39 -1.51634 5.91988 0
M  V30 15945 C 1497.38 -1.01899 6.75356 0
M  V30 15946 O 1497.07 -0.600375 8.01655 0
M  V30 15947 H 1496.8 -0.366924 0.567752 0
M  V30 15948 H 1499.36 -0.513643 1.98874 0
M  V30 15949 H 1497.59 -3.03573 2.39542 0
M  V30 15950 H 1499.28 -2.93639 2.80234 0
M  V30 15951 H 1500.04 -1.30184 4.67201 0
M  V30 15952 H 1495.92 -2.31758 3.98509 0
M  V30 15953 H 1499.47 -0.555763 6.95383 0
M  V30 15954 H 1495.36 -1.57667 6.25948 0
M  V30 15955 H 1496.13 -0.725485 8.15278 0
M  V30 15956 N 1498.79 -1.41931 -0.685074 0
M  V30 15957 C 1499.7 -1.46985 -1.82846 0
M  V30 15958 C 1500.72 -0.359487 -1.70246 0
M  V30 15959 O 1501.9 -0.608824 -1.91977 0
M  V30 15960 C 1498.96 -1.36001 -3.18912 0
M  V30 15961 C 1498.02 -2.57442 -3.43543 0
M  V30 15962 C 1497.25 -2.46972 -4.73118 0
M  V30 15963 O 1497.48 -1.49999 -5.50324 0
M  V30 15964 O 1496.41 -3.36922 -4.98766 0
M  V30 15965 H 1500.24 -2.4347 -1.81538 0
M  V30 15966 H 1497.82 -1.23583 -0.839497 0
M  V30 15967 H 1499.7 -1.32198 -4.00127 0
M  V30 15968 H 1498.38 -0.426366 -3.2088 0
M  V30 15969 H 1497.29 -2.66821 -2.62217 0
M  V30 15970 H 1498.62 -3.49671 -3.46398 0
M  V30 15971 N 1500.27 0.920374 -1.27933 0
M  V30 15972 C 1501.52 1.66554 -1.14474 0
M  V30 15973 C 1501.84 1.92545 0.308444 0
M  V30 15974 O 1501.11 1.53691 1.21473 0
M  V30 15975 H 1499.69 0.617302 -0.420651 0
M  V30 15976 H 1502.35 1.10473 -1.60567 0
M  V30 15977 H 1501.45 2.63067 -1.67935 0
M  V30 15978 N 1501.75 1.10074 1.1279 0
M  V30 15979 C 1503 0.842118 1.84489 0
M  V30 15980 C 1503.33 -0.630737 1.83672 0
M  V30 15981 O 1502.6 -1.46481 1.27959 0
M  V30 15982 C 1502.89 1.3864 3.32342 0
M  V30 15983 C 1502.74 2.92585 3.41635 0
M  V30 15984 C 1504.06 1.02565 4.27982 0
M  V30 15985 H 1501.18 0.307376 0.669842 0
M  V30 15986 H 1503.82 1.36326 1.32345 0
M  V30 15987 H 1501.97 0.943134 3.76878 0
M  V30 15988 H 1503.64 3.4541 3.0576 0
M  V30 15989 H 1501.88 3.29378 2.82299 0
M  V30 15990 H 1502.56 3.25749 4.45636 0
M  V30 15991 H 1505.03 1.40807 3.91552 0
M  V30 15992 H 1503.91 1.43345 5.29852 0
M  V30 15993 H 1504.17 -0.0653712 4.42052 0
M  V30 15994 N 1503.23 -1.30138 0.888926 0
M  V30 15995 C 1504.19 -2.26299 0.363504 0
M  V30 15996 C 1505.19 -1.52951 -0.496244 0
M  V30 15997 O 1506.38 -1.71548 -0.302834 0
M  V30 15998 C 1503.51 -3.37482 -0.481544 0
M  V30 15999 H 1504.71 -2.7429 1.21265 0
M  V30 16000 H 1502.26 -1.41395 0.666124 0
M  V30 16001 H 1502.99 -2.94814 -1.35112 0
M  V30 16002 H 1502.78 -3.9187 0.134344 0
M  V30 16003 H 1504.27 -4.09048 -0.840816 0
M  V30 16004 N 1504.71 -0.650285 -1.43559 0
M  V30 16005 C 1505.65 0.043098 -2.3076 0
M  V30 16006 C 1506.62 0.81763 -1.44582 0
M  V30 16007 O 1507.81 0.794825 -1.73457 0
M  V30 16008 C 1504.95 1.00557 -3.30125 0
M  V30 16009 C 1504.06 0.227448 -4.31401 0
M  V30 16010 C 1503.2 1.18345 -5.17849 0
M  V30 16011 C 1502.23 0.395596 -6.1082 0
M  V30 16012 N 1501.37 1.30304 -6.89902 0
M  V30 16013 H 1506.21 -0.706402 -2.89506 0
M  V30 16014 H 1503.75 -0.360118 -1.42624 0
M  V30 16015 H 1505.71 1.57717 -3.8624 0
M  V30 16016 H 1504.34 1.72198 -2.73034 0
M  V30 16017 H 1503.39 -0.460391 -3.77604 0
M  V30 16018 H 1504.7 -0.385316 -4.9731 0
M  V30 16019 H 1503.85 1.82578 -5.78576 0
M  V30 16020 H 1502.59 1.83013 -4.52059 0
M  V30 16021 H 1501.6 -0.260099 -5.49184 0
M  V30 16022 H 1502.82 -0.246633 -6.78652 0
M  V30 16023 H 1500.77 1.93657 -6.26764 0
M  V30 16024 H 1500.69 0.744768 -7.52323 0
M  V30 16025 H 1501.95 1.93361 -7.55137 0
M  V30 16026 N 1506.18 1.52647 -0.392018 0
M  V30 16027 C 1507.43 2.01215 0.188926 0
M  V30 16028 C 1507.75 1.28019 1.47092 0
M  V30 16029 O 1507.02 0.401048 1.91751 0
M  V30 16030 H 1505.6 0.743444 0.0728049 0
M  V30 16031 H 1508.26 1.87715 -0.524332 0
M  V30 16032 H 1507.36 3.09562 0.397216 0
M  V30 16033 N 1507.66 0.121921 1.57128 0
M  V30 16034 C 1508.91 -0.536164 1.95584 0
M  V30 16035 C 1509.24 -1.66143 1.0055 0
M  V30 16036 O 1508.52 -1.94452 0.0432427 0
M  V30 16037 C 1508.8 -1.0661 3.43957 0
M  V30 16038 C 1508.65 0.0559458 4.49765 0
M  V30 16039 C 1509.97 -1.95603 3.94243 0
M  V30 16040 H 1507.09 -0.193427 0.711165 0
M  V30 16041 H 1509.73 0.198072 1.88965 0
M  V30 16042 H 1507.88 -1.69181 3.49729 0
M  V30 16043 H 1509.55 0.691357 4.5609 0
M  V30 16044 H 1507.8 0.71868 4.27805 0
M  V30 16045 H 1508.47 -0.356133 5.5085 0
M  V30 16046 H 1510.94 -1.42899 3.90793 0
M  V30 16047 H 1509.82 -2.29599 4.98573 0
M  V30 16048 H 1510.08 -2.88364 3.3511 0
M  V30 16049 N 1509.14 -1.56867 -0.151857 0
M  V30 16050 C 1510.39 -1.83353 -0.866566 0
M  V30 16051 C 1510.72 -0.702784 -1.81038 0
M  V30 16052 O 1509.99 0.293944 -1.92266 0
M  V30 16053 C 1510.28 -3.20316 -1.64529 0
M  V30 16054 C 1510.13 -4.43946 -0.723297 0
M  V30 16055 C 1511.45 -3.54441 -2.60882 0
M  V30 16056 H 1508.57 -0.666957 -0.313588 0
M  V30 16057 H 1511.21 -1.89541 -0.131954 0
M  V30 16058 H 1509.36 -3.15172 -2.27154 0
M  V30 16059 H 1511.03 -4.61173 -0.10842 0
M  V30 16060 H 1509.28 -4.33788 -0.0325582 0
M  V30 16061 H 1509.95 -5.36374 -1.3041 0
M  V30 16062 H 1512.42 -3.60164 -2.08377 0
M  V30 16063 H 1511.3 -4.51314 -3.12422 0
M  V30 16064 H 1511.56 -2.80146 -3.42009 0
M  V30 16065 N 1510.62 0.421051 -1.51871 0
M  V30 16066 C 1511.57 1.5122 -1.74359 0
M  V30 16067 C 1512.54 1.55432 -0.585667 0
M  V30 16068 O 1513.72 1.7219 -0.821912 0
M  V30 16069 C 1510.86 2.88787 -1.88935 0
M  V30 16070 C 1509.97 2.93977 -3.16546 0
M  V30 16071 C 1509.11 4.22768 -3.21622 0
M  V30 16072 C 1508.15 4.21888 -4.43483 0
M  V30 16073 N 1507.28 5.4223 -4.46017 0
M  V30 16074 H 1512.12 1.31348 -2.67492 0
M  V30 16075 H 1509.66 0.637779 -1.32555 0
M  V30 16076 H 1511.62 3.68629 -1.95368 0
M  V30 16077 H 1510.25 3.07181 -0.991942 0
M  V30 16078 H 1509.3 2.06699 -3.19343 0
M  V30 16079 H 1510.61 2.8919 -4.06412 0
M  V30 16080 H 1509.77 5.10995 -3.27061 0
M  V30 16081 H 1508.51 4.30234 -2.29674 0
M  V30 16082 H 1507.51 3.32052 -4.38202 0
M  V30 16083 H 1508.74 4.16072 -5.36713 0
M  V30 16084 H 1506.68 5.50386 -3.56947 0
M  V30 16085 H 1506.6 5.39389 -5.29713 0
M  V30 16086 H 1507.87 6.32443 -4.55671 0
M  V30 16087 N 1512.1 1.42293 0.677538 0
M  V30 16088 C 1513.37 1.331 1.43331 0
M  V30 16089 C 1513.75 -0.0329227 2.11074 0
M  V30 16090 O 1513.1 -1.04826 2.03036 0
M  V30 16091 C 1513.31 2.49725 2.438 0
M  V30 16092 C 1514.66 2.91716 3.08524 0
M  V30 16093 O 1515.68 2.49596 2.54127 0
M  V30 16094 O 1514.54 3.64609 4.07091 0
M  V30 16095 H 1511.64 0.524758 0.639185 0
M  V30 16096 H 1514.18 1.54294 0.706493 0
M  V30 16097 H 1512.95 3.40663 1.92522 0
M  V30 16098 H 1512.58 2.30503 3.23966 0
M  V30 16099 N 1513.57 -0.913576 1.28419 0
M  V30 16100 C 1514.48 -2.04922 1.14211 0
M  V30 16101 C 1515.5 -1.73865 0.0686424 0
M  V30 16102 O 1516.68 -1.99473 0.277968 0
M  V30 16103 C 1513.74 -3.37214 0.805445 0
M  V30 16104 C 1512.8 -3.81879 1.96129 0
M  V30 16105 C 1512.04 -5.07858 1.6406 0
M  V30 16106 O 1512.26 -5.67693 0.555032 0
M  V30 16107 O 1511.19 -5.4824 2.48428 0
M  V30 16108 H 1515.02 -2.19827 2.09547 0
M  V30 16109 H 1512.6 -1.03501 1.0774 0
M  V30 16110 H 1514.49 -4.16639 0.631648 0
M  V30 16111 H 1513.16 -3.23484 -0.118254 0
M  V30 16112 H 1512.07 -3.03281 2.19024 0
M  V30 16113 H 1513.4 -4.00173 2.8657 0
M  V30 16114 N 1515.05 -1.1067 -1.12204 0
M  V30 16115 C 1516.46 -0.867959 -1.65298 0
M  V30 16116 C 1516.81 0.601297 -1.86759 0
M  V30 16117 O 1515.94 1.46153 -1.59588 0
M  V30 16118 C 1516.53 -1.56906 -3.00276 0
M  V30 16119 C 1515.09 -1.37696 -3.5031 0
M  V30 16120 C 1514.24 -1.61688 -2.25282 0
M  V30 16121 H 1517.19 -1.26408 -0.959521 0
M  V30 16122 H 1517.21 -1.00947 -3.66865 0
M  V30 16123 H 1516.72 -2.63838 -2.84625 0
M  V30 16124 H 1514.83 -0.329381 -3.71141 0
M  V30 16125 H 1514.94 -2.12058 -4.29614 0
M  V30 16126 H 1513.3 -1.03977 -2.3251 0
M  V30 16127 H 1514.09 -2.69877 -2.12182 0
M  V30 16128 N 1516.53 1.29665 -0.895815 0
M  V30 16129 C 1517.44 2.31582 -0.375086 0
M  V30 16130 C 1518.46 1.65789 0.528196 0
M  V30 16131 O 1519.63 1.96999 0.41871 0
M  V30 16132 C 1516.7 3.44472 0.39241 0
M  V30 16133 C 1515.76 4.25866 -0.541926 0
M  V30 16134 C 1514.99 5.33365 0.189037 0
M  V30 16135 O 1515.21 5.52607 1.41355 0
M  V30 16136 O 1514.15 6.0009 -0.466441 0
M  V30 16137 H 1517.97 2.78095 -1.22052 0
M  V30 16138 H 1515.56 1.34031 -0.660007 0
M  V30 16139 H 1517.44 4.13214 0.826565 0
M  V30 16140 H 1516.12 3.00074 1.21397 0
M  V30 16141 H 1515.02 3.59781 -1.02512 0
M  V30 16142 H 1516.36 4.73896 -1.32979 0
M  V30 16143 N 1518.01 0.657889 1.43212 0
M  V30 16144 C 1519.24 0.181072 2.06106 0
M  V30 16145 C 1519.65 -1.15513 1.49339 0
M  V30 16146 O 1519.01 -1.71409 0.626517 0
M  V30 16147 C 1519.06 0.0890244 3.6139 0
M  V30 16148 O 1518.78 1.37241 4.16049 0
M  V30 16149 C 1520.28 -0.413313 4.41369 0
M  V30 16150 H 1517.5 0.0920577 0.664655 0
M  V30 16151 H 1520.05 0.899855 1.83638 0
M  V30 16152 H 1518.2 -0.580345 3.83028 0
M  V30 16153 H 1518.61 1.23467 5.09761 0
M  V30 16154 H 1520.09 -0.426663 5.50349 0
M  V30 16155 H 1520.57 -1.44549 4.14731 0
M  V30 16156 H 1521.17 0.223727 4.24711 0
M  V30 16157 N 1519.49 -1.52437 0.400108 0
M  V30 16158 C 1520.9 -1.5952 0.0505611 0
M  V30 16159 C 1521.1 -1.4135 -1.43606 0
M  V30 16160 O 1520.16 -1.23591 -2.20185 0
M  V30 16161 C 1521.47 -2.95859 0.537411 0
M  V30 16162 C 1523.02 -3.09067 0.494603 0
M  V30 16163 C 1523.49 -4.47873 0.957815 0
M  V30 16164 N 1524.99 -4.54087 0.914267 0
M  V30 16165 C 1525.72 -5.59744 1.24397 0
M  V30 16166 N 1525.22 -6.72995 1.64469 0
M  V30 16167 N 1527.01 -5.49905 1.16452 0
M  V30 16168 H 1519.16 -1.62496 1.36781 0
M  V30 16169 H 1521.42 -0.763947 0.561328 0
M  V30 16170 H 1521.13 -3.14407 1.57611 0
M  V30 16171 H 1521 -3.77156 -0.0577652 0
M  V30 16172 H 1523.39 -2.90209 -0.535035 0
M  V30 16173 H 1523.47 -2.29698 1.12572 0
M  V30 16174 H 1523.12 -4.67473 1.98574 0
M  V30 16175 H 1523.05 -5.25724 0.303602 0
M  V30 16176 H 1525.54 -3.72787 0.619536 0
M  V30 16177 H 1525.85 -7.49594 1.87961 0
M  V30 16178 H 1524.19 -6.74298 1.68364 0
M  V30 16179 H 1527.39 -4.60311 0.850401 0
M  V30 16180 H 1527.56 -6.32142 1.42478 0
M  V30 16181 N 1520.96 -0.130252 -1.57061 0
M  V30 16182 C 1522.21 0.525784 -1.95866 0
M  V30 16183 C 1522.54 1.65607 -1.01429 0
M  V30 16184 O 1521.82 1.94426 -0.0535544 0
M  V30 16185 C 1522.1 1.04784 -3.44517 0
M  V30 16186 C 1521.95 -0.0797972 -4.49729 0
M  V30 16187 C 1523.27 1.9351 -3.95275 0
M  V30 16188 H 1520.39 0.189652 -0.71218 0
M  V30 16189 H 1523.03 -0.208091 -1.88857 0
M  V30 16190 H 1521.18 1.67324 -3.50621 0
M  V30 16191 H 1522.86 -0.715535 -4.55717 0
M  V30 16192 H 1521.1 -0.741358 -4.27418 0
M  V30 16193 H 1521.77 0.326915 -5.51031 0
M  V30 16194 H 1524.25 1.40825 -3.91545 0
M  V30 16195 H 1523.12 2.26952 -4.99784 0
M  V30 16196 H 1523.38 2.86583 -3.36634 0
M  V30 16197 N 1522.44 1.56945 0.143535 0
M  V30 16198 C 1523.41 1.97616 1.16106 0
M  V30 16199 C 1524.41 0.863113 1.35672 0
M  V30 16200 O 1525.6 1.12966 1.32606 0
M  V30 16201 C 1522.73 2.29511 2.52067 0
M  V30 16202 H 1523.92 2.88696 0.812066 0
M  V30 16203 H 1521.47 1.51433 0.386999 0
M  V30 16204 H 1522.21 1.41233 2.91931 0
M  V30 16205 H 1521.99 3.10667 2.39225 0
M  V30 16206 H 1523.48 2.61802 3.25345 0
M  V30 16207 N 1523.92 -0.412991 1.52093 0
M  V30 16208 C 1525.17 -1.15737 1.65191 0
M  V30 16209 C 1525.48 -1.91753 0.38601 0
M  V30 16210 O 1526.69 -2.68586 0.396731 0
M  V30 16211 C 1525.15 -2.10619 2.91835 0
M  V30 16212 C 1524.75 -1.40137 4.25518 0
M  V30 16213 C 1526.5 -2.85339 3.14296 0
M  V30 16214 C 1524.4 -2.33645 5.4329 0
M  V30 16215 H 1523.33 -0.435732 0.615348 0
M  V30 16216 H 1525.99 -0.422172 1.78578 0
M  V30 16217 H 1524.37 -2.87675 2.72138 0
M  V30 16218 H 1525.54 -0.684719 4.55684 0
M  V30 16219 H 1523.86 -0.774734 4.09129 0
M  V30 16220 H 1526.45 -3.55437 3.99461 0
M  V30 16221 H 1526.8 -3.48071 2.28369 0
M  V30 16222 H 1527.33 -2.15384 3.34447 0
M  V30 16223 H 1524.07 -1.75566 6.31551 0
M  V30 16224 H 1523.59 -3.03294 5.17467 0
M  V30 16225 H 1525.27 -2.94255 5.76215 0
M  V30 16226 N 1525.4 -1.4265 -0.669982 0
M  V30 16227 C 1526.35 -1.46504 -1.7834 0
M  V30 16228 C 1527.32 -0.316478 -1.63057 0
M  V30 16229 O 1528.5 -0.521245 -1.83542 0
M  V30 16230 C 1525.64 -1.37784 -3.16401 0
M  V30 16231 C 1524.75 -2.62714 -3.42937 0
M  V30 16232 C 1523.89 -2.46101 -4.70752 0
M  V30 16233 C 1522.93 -3.66381 -4.90338 0
M  V30 16234 N 1522.07 -3.48681 -6.09398 0
M  V30 16235 H 1526.91 -2.41651 -1.74381 0
M  V30 16236 H 1524.44 -1.1997 -0.851215 0
M  V30 16237 H 1526.4 -1.30725 -3.9619 0
M  V30 16238 H 1525.03 -0.462291 -3.19473 0
M  V30 16239 H 1524.08 -2.8012 -2.57366 0
M  V30 16240 H 1525.39 -3.52108 -3.53301 0
M  V30 16241 H 1524.55 -2.36655 -5.58641 0
M  V30 16242 H 1523.29 -1.54204 -4.6268 0
M  V30 16243 H 1522.29 -3.76254 -4.00891 0
M  V30 16244 H 1523.52 -4.59265 -5.00253 0
M  V30 16245 H 1521.46 -2.59505 -6.02489 0
M  V30 16246 H 1521.38 -4.31666 -6.20645 0
M  V30 16247 H 1522.65 -3.43056 -6.99952 0
M  V30 16248 N 1526.88 0.906753 -1.28902 0
M  V30 16249 C 1528.11 1.69019 -1.19333 0
M  V30 16250 C 1528.52 1.87176 0.247065 0
M  V30 16251 O 1527.88 1.40376 1.16623 0
M  V30 16252 C 1527.93 3.07854 -1.89495 0
M  V30 16253 O 1527.65 2.90531 -3.27908 0
M  V30 16254 C 1529.15 4.02246 -1.86314 0
M  V30 16255 H 1526.37 0.528119 -0.413922 0
M  V30 16256 H 1528.91 1.13441 -1.70151 0
M  V30 16257 H 1527.07 3.60228 -1.42529 0
M  V30 16258 H 1527.48 3.78451 -3.63146 0
M  V30 16259 H 1528.96 4.97104 -2.39983 0
M  V30 16260 H 1529.43 4.31149 -0.837071 0
M  V30 16261 H 1530.04 3.55803 -2.3299 0
M  V30 16262 N 1528.36 1.11264 1.11616 0
M  V30 16263 C 1529.6 0.861639 1.83585 0
M  V30 16264 C 1529.93 -0.611221 1.8433 0
M  V30 16265 O 1529.21 -1.45116 1.29505 0
M  V30 16266 C 1529.49 1.42157 3.30852 0
M  V30 16267 C 1529.35 2.96192 3.38512 0
M  V30 16268 C 1530.66 1.07099 4.2687 0
M  V30 16269 H 1527.78 0.314464 0.666545 0
M  V30 16270 H 1530.43 1.37722 1.30892 0
M  V30 16271 H 1528.58 0.983054 3.75857 0
M  V30 16272 H 1530.25 3.48634 3.0208 0
M  V30 16273 H 1528.49 3.32353 2.7879 0
M  V30 16274 H 1529.16 3.30457 4.42156 0
M  V30 16275 H 1531.64 1.44952 3.90036 0
M  V30 16276 H 1530.51 1.48957 5.28302 0
M  V30 16277 H 1530.77 -0.018482 4.42096 0
M  V30 16278 N 1529.83 -1.29188 0.902679 0
M  V30 16279 C 1530.78 -2.29597 0.372585 0
M  V30 16280 C 1531.78 -1.609 -0.529858 0
M  V30 16281 O 1532.98 -1.75214 -0.41233 0
M  V30 16282 H 1529.36 -0.745069 0.101864 0
M  V30 16283 H 1531.33 -2.71746 1.23275 0
M  V30 16284 C 1530.08 -3.45594 -0.382128 0
M  V30 16285 H 1529.4 -3.9865 0.303061 0
M  V30 16286 H 1530.84 -4.17879 -0.717852 0
M  V30 16287 C 1529.3 -2.97238 -1.58591 0
M  V30 16288 O 1529.83 -2.98767 -2.68517 0
M  V30 16289 N 1528.03 -2.53032 -1.42909 0
M  V30 16290 H 1527.58 -2.51988 -0.534786 0
M  V30 16291 H 1527.54 -2.21038 -2.23584 0
M  V30 16292 N 1531.31 -0.665475 -1.42861 0
M  V30 16293 C 1532.22 0.018927 -2.34592 0
M  V30 16294 C 1533.24 0.798967 -1.54572 0
M  V30 16295 O 1534.41 0.743419 -1.87177 0
M  V30 16296 C 1531.48 0.965013 -3.32999 0
M  V30 16297 C 1530.54 0.180544 -4.2892 0
M  V30 16298 C 1529.77 1.08157 -5.22626 0
M  V30 16299 O 1530 2.32101 -5.21043 0
M  V30 16300 O 1528.93 0.54738 -5.99406 0
M  V30 16301 H 1532.76 -0.736444 -2.94636 0
M  V30 16302 H 1530.34 -0.425684 -1.43207 0
M  V30 16303 H 1532.22 1.50839 -3.93479 0
M  V30 16304 H 1530.9 1.7004 -2.75442 0
M  V30 16305 H 1529.8 -0.40671 -3.71883 0
M  V30 16306 H 1531.14 -0.515529 -4.89493 0
M  V30 16307 N 1532.79 1.52222 -0.408187 0
M  V30 16308 C 1533.75 2.25578 0.405851 0
M  V30 16309 C 1534.75 1.27912 0.974434 0
M  V30 16310 O 1535.94 1.51861 0.853461 0
M  V30 16311 C 1533.07 3.02532 1.57122 0
M  V30 16312 H 1534.27 2.98965 -0.23664 0
M  V30 16313 H 1531.82 1.55472 -0.160687 0
M  V30 16314 H 1532.56 2.33492 2.2506 0
M  V30 16315 H 1532.34 3.74237 1.17001 0
M  V30 16316 H 1533.83 3.58177 2.14707 0
M  V30 16317 N 1534.27 0.138579 1.5699 0
M  V30 16318 C 1535.23 -0.79013 2.1515 0
M  V30 16319 C 1536.23 -1.1811 1.09117 0
M  V30 16320 O 1537.42 -1.1034 1.34798 0
M  V30 16321 C 1534.55 -2.07109 2.70774 0
M  V30 16322 H 1535.75 -0.284343 2.98549 0
M  V30 16323 H 1533.3 -0.11081 1.55907 0
M  V30 16324 H 1534.03 -2.62074 1.91018 0
M  V30 16325 H 1533.82 -1.80004 3.4834 0
M  V30 16326 H 1535.31 -2.73456 3.15613 0
M  V30 16327 N 1535.75 -1.57019 -0.13521 0
M  V30 16328 C 1536.97 -1.88528 -0.864399 0
M  V30 16329 C 1537.4 -0.728852 -1.73405 0
M  V30 16330 O 1536.75 0.321196 -1.78432 0
M  V30 16331 C 1536.8 -3.18694 -1.6872 0
M  V30 16332 O 1535.91 -3.03458 -2.79262 0
M  V30 16333 H 1535.25 -0.61909 -0.24005 0
M  V30 16334 H 1537.78 -2.04233 -0.12248 0
M  V30 16335 H 1537.79 -3.51011 -2.0798 0
M  V30 16336 H 1536.46 -4.02462 -1.04868 0
M  V30 16337 H 1535.04 -2.82575 -2.43323 0
M  V30 16338 N 1537.22 0.404919 -1.52309 0
M  V30 16339 C 1538.16 1.51471 -1.7068 0
M  V30 16340 C 1539.14 1.52856 -0.554425 0
M  V30 16341 O 1540.32 1.715 -0.782294 0
M  V30 16342 C 1537.45 2.8999 -1.74995 0
M  V30 16343 C 1536.49 3.06499 -2.96581 0
M  V30 16344 S 1537.33 2.7937 -4.56851 0
M  V30 16345 C 1538.48 4.20112 -4.63958 0
M  V30 16346 H 1538.71 1.35661 -2.64544 0
M  V30 16347 H 1536.25 0.596769 -1.42401 0
M  V30 16348 H 1538.21 3.6982 -1.78167 0
M  V30 16349 H 1536.87 3.03139 -0.822517 0
M  V30 16350 H 1536.06 4.07853 -2.96095 0
M  V30 16351 H 1535.66 2.34541 -2.91319 0
M  V30 16352 H 1537.95 5.13811 -4.41594 0
M  V30 16353 H 1538.9 4.2562 -5.6591 0
M  V30 16354 H 1539.3 4.05279 -3.9295 0
M  V30 16355 N 1538.7 1.43003 0.662408 0
M  V30 16356 C 1540.12 1.26201 0.977003 0
M  V30 16357 C 1540.32 0.175104 2.00738 0
M  V30 16358 O 1539.37 -0.44954 2.48466 0
M  V30 16359 C 1540.69 2.62319 1.47001 0
M  V30 16360 C 1542.24 2.69776 1.58714 0
M  V30 16361 C 1542.71 4.06289 2.11408 0
M  V30 16362 N 1544.2 4.08307 2.18724 0
M  V30 16363 C 1544.94 5.10761 2.60598 0
M  V30 16364 N 1544.43 6.23593 3.01834 0
M  V30 16365 N 1546.23 4.98115 2.60456 0
M  V30 16366 H 1538.38 2.12391 -0.0195698 0
M  V30 16367 H 1540.64 0.946472 0.0538044 0
M  V30 16368 H 1540.35 3.42773 0.78736 0
M  V30 16369 H 1540.22 2.87088 2.44664 0
M  V30 16370 H 1542.61 1.89659 2.26083 0
M  V30 16371 H 1542.69 2.48782 0.595081 0
M  V30 16372 H 1542.33 4.86868 1.44644 0
M  V30 16373 H 1542.26 4.24641 3.11428 0
M  V30 16374 H 1544.75 3.26857 1.89665 0
M  V30 16375 H 1545.07 6.97609 3.32509 0
M  V30 16376 H 1543.41 6.27079 2.99661 0
M  V30 16377 H 1546.6 4.09037 2.27611 0
M  V30 16378 H 1546.77 5.78092 2.92769 0
M  V30 16379 N 1540.18 -0.899904 1.29381 0
M  V30 16380 C 1541.09 -2.03699 1.16378 0
M  V30 16381 C 1542.11 -1.73782 0.0870792 0
M  V30 16382 O 1543.28 -1.99167 0.299109 0
M  V30 16383 C 1540.35 -3.36341 0.841166 0
M  V30 16384 C 1539.41 -3.79778 2.00168 0
M  V30 16385 C 1538.64 -5.0609 1.69437 0
M  V30 16386 O 1538.86 -5.67073 0.615212 0
M  V30 16387 O 1537.8 -5.45574 2.54229 0
M  V30 16388 H 1541.62 -2.17592 2.11866 0
M  V30 16389 H 1539.21 -1.02353 1.08831 0
M  V30 16390 H 1541.09 -4.15946 0.675803 0
M  V30 16391 H 1539.77 -3.23591 -0.0839376 0
M  V30 16392 H 1538.67 -3.00941 2.22229 0
M  V30 16393 H 1540.01 -3.97111 2.90798 0
M  V30 16394 N 1541.66 -1.11854 -1.11024 0
M  V30 16395 C 1543.07 -0.853341 -1.34871 0
M  V30 16396 C 1543.27 0.519725 -1.94682 0
M  V30 16397 O 1542.33 1.26966 -2.18256 0
M  V30 16398 C 1543.64 -1.9649 -2.27623 0
M  V30 16399 C 1545.19 -1.99507 -2.41176 0
M  V30 16400 C 1545.67 -3.09879 -3.37253 0
M  V30 16401 N 1547.16 -3.09281 -3.44818 0
M  V30 16402 C 1547.89 -3.91322 -4.19111 0
M  V30 16403 N 1547.39 -4.83337 -4.96344 0
M  V30 16404 N 1549.18 -3.79483 -4.14667 0
M  V30 16405 H 1541.33 -2.00335 -0.70567 0
M  V30 16406 H 1543.6 -0.871431 -0.373245 0
M  V30 16407 H 1543.3 -2.95397 -1.90875 0
M  V30 16408 H 1543.18 -1.86481 -3.27879 0
M  V30 16409 H 1545.56 -1.01223 -2.77196 0
M  V30 16410 H 1545.64 -2.13592 -1.40756 0
M  V30 16411 H 1545.29 -4.08391 -3.01959 0
M  V30 16412 H 1545.22 -2.93033 -4.37537 0
M  V30 16413 H 1547.71 -2.42617 -2.89733 0
M  V30 16414 H 1548.02 -5.42462 -5.50413 0
M  V30 16415 H 1546.37 -4.87356 -4.95489 0
M  V30 16416 H 1549.56 -3.06938 -3.53421 0
M  V30 16417 H 1549.73 -4.43653 -4.72309 0
M  V30 16418 N 1543.14 1.28707 -0.909517 0
M  V30 16419 C 1544.39 1.94437 -0.536401 0
M  V30 16420 C 1544.7 1.72416 0.923685 0
M  V30 16421 O 1545.9 2.32333 1.40477 0
M  V30 16422 C 1544.36 3.48246 -0.908455 0
M  V30 16423 C 1543.97 3.79051 -2.38798 0
M  V30 16424 C 1545.71 4.20156 -0.605721 0
M  V30 16425 C 1543.62 5.2615 -2.70038 0
M  V30 16426 H 1542.55 0.727842 -0.196882 0
M  V30 16427 H 1545.2 1.46283 -1.10786 0
M  V30 16428 H 1543.58 3.95107 -0.265829 0
M  V30 16429 H 1544.76 3.43014 -3.07698 0
M  V30 16430 H 1543.07 3.20303 -2.66074 0
M  V30 16431 H 1545.67 5.28439 -0.815849 0
M  V30 16432 H 1546.01 4.13792 0.456266 0
M  V30 16433 H 1546.54 3.79059 -1.20662 0
M  V30 16434 H 1543.28 5.37587 -3.75073 0
M  V30 16435 H 1542.8 5.63399 -2.05771 0
M  V30 16436 H 1544.48 5.93846 -2.56819 0
M  V30 16437 N 1544.61 0.673042 1.42506 0
M  V30 16438 C 1545.52 -0.00648572 2.34599 0
M  V30 16439 C 1546.54 -0.790758 1.54994 0
M  V30 16440 O 1547.72 -0.733482 1.87569 0
M  V30 16441 C 1544.78 -0.94734 3.33506 0
M  V30 16442 C 1543.84 -0.157795 4.2901 0
M  V30 16443 C 1543.08 -1.05384 5.23192 0
M  V30 16444 O 1543.3 -2.29334 5.22266 0
M  V30 16445 O 1542.23 -0.515584 5.99688 0
M  V30 16446 H 1546.06 0.752059 2.94241 0
M  V30 16447 H 1543.64 0.433272 1.42979 0
M  V30 16448 H 1545.53 -1.4875 3.94273 0
M  V30 16449 H 1544.2 -1.68577 2.7634 0
M  V30 16450 H 1543.11 0.426426 3.71662 0
M  V30 16451 H 1544.44 0.54148 4.89212 0
M  V30 16452 N 1546.09 -1.52004 0.416254 0
M  V30 16453 C 1547.34 -2.01889 -0.157201 0
M  V30 16454 C 1547.67 -1.30153 -1.44535 0
M  V30 16455 O 1546.92 -0.39855 -1.91599 0
M  V30 16456 C 1547.22 -3.54624 -0.444553 0
M  V30 16457 C 1546.89 -4.4453 0.755251 0
M  V30 16458 C 1545.55 -4.68824 1.08433 0
M  V30 16459 C 1547.9 -4.97412 1.55663 0
M  V30 16460 C 1545.23 -5.43246 2.21586 0
M  V30 16461 C 1547.58 -5.73074 2.67898 0
M  V30 16462 C 1546.25 -5.95637 3.01285 0
M  V30 16463 H 1545.52 -0.738764 -0.0575239 0
M  V30 16464 H 1548.16 -1.83156 0.559133 0
M  V30 16465 H 1546.47 -3.71575 -1.24254 0
M  V30 16466 H 1548.16 -3.90739 -0.901333 0
M  V30 16467 H 1544.75 -4.25804 0.488789 0
M  V30 16468 H 1548.94 -4.78545 1.31562 0
M  V30 16469 H 1544.19 -5.58936 2.47792 0
M  V30 16470 H 1548.37 -6.13044 3.30378 0
M  V30 16471 H 1546 -6.53086 3.89079 0
M  V30 16472 N 1547.57 -0.146903 -1.56914 0
M  V30 16473 C 1548.5 0.788924 -2.19769 0
M  V30 16474 C 1549.48 1.25712 -1.14589 0
M  V30 16475 O 1550.67 1.3147 -1.42931 0
M  V30 16476 C 1547.8 2.02824 -2.81921 0
M  V30 16477 C 1546.75 1.69683 -3.92927 0
M  V30 16478 C 1546.08 3.00877 -4.42015 0
M  V30 16479 C 1547.38 0.943559 -5.13706 0
M  V30 16480 H 1549.07 0.265076 -2.98224 0
M  V30 16481 H 1546.62 0.126057 -1.43447 0
M  V30 16482 H 1548.57 2.68773 -3.2456 0
M  V30 16483 H 1547.29 2.57581 -2.00797 0
M  V30 16484 H 1545.95 1.06112 -3.50907 0
M  V30 16485 H 1545.6 3.53625 -3.57713 0
M  V30 16486 H 1545.3 2.79466 -5.16888 0
M  V30 16487 H 1546.82 3.67897 -4.87323 0
M  V30 16488 H 1548.24 1.50513 -5.5319 0
M  V30 16489 H 1546.64 0.829387 -5.94341 0
M  V30 16490 H 1547.71 -0.0647228 -4.84857 0
M  V30 16491 N 1549.05 1.57088 0.126881 0
M  V30 16492 C 1550 2.00736 1.17506 0
M  V30 16493 C 1550.99 0.902986 1.43327 0
M  V30 16494 O 1552.2 1.08819 1.43382 0
M  V30 16495 H 1548.57 0.639285 0.396003 0
M  V30 16496 H 1550.54 2.88015 0.780373 0
M  V30 16497 C 1549.29 2.42096 2.49569 0
M  V30 16498 H 1548.61 3.26639 2.30536 0
M  V30 16499 H 1550.05 2.76442 3.2149 0
M  V30 16500 C 1548.51 1.28148 3.11576 0
M  V30 16501 O 1549.04 0.593145 3.97297 0
M  V30 16502 N 1547.25 1.04055 2.71332 0
M  V30 16503 H 1546.8 1.60208 2.0172 0
M  V30 16504 H 1546.75 0.280075 3.1315 0
M  V30 16505 N 1550.53 -0.396836 1.52522 0
M  V30 16506 C 1551.44 -1.50871 1.79653 0
M  V30 16507 C 1552.45 -1.60043 0.682804 0
M  V30 16508 O 1553.63 -1.76527 0.96955 0
M  V30 16509 C 1550.69 -2.86485 1.95263 0
M  V30 16510 C 1549.75 -2.87099 3.19175 0
M  V30 16511 C 1548.99 -4.16244 3.34031 0
M  V30 16512 O 1549.21 -5.1079 2.5387 0
M  V30 16513 O 1548.14 -4.23962 4.27247 0
M  V30 16514 H 1551.97 -1.30878 2.74052 0
M  V30 16515 H 1549.56 -0.583908 1.37517 0
M  V30 16516 H 1551.44 -3.66895 2.07282 0
M  V30 16517 H 1550.11 -3.0652 1.04052 0
M  V30 16518 H 1549.02 -2.05497 3.12605 0
M  V30 16519 H 1550.35 -2.72014 4.10206 0
M  V30 16520 N 1552.01 -1.43353 -0.654814 0
M  V30 16521 C 1552.97 -1.4806 -1.7496 0
M  V30 16522 C 1553.97 -0.365513 -1.56591 0
M  V30 16523 O 1555.16 -0.627194 -1.62517 0
M  V30 16524 C 1552.29 -1.33165 -3.13815 0
M  V30 16525 H 1553.48 -2.45557 -1.72167 0
M  V30 16526 H 1551.04 -1.30094 -0.86632 0
M  V30 16527 H 1551.77 -0.366689 -3.2222 0
M  V30 16528 H 1551.56 -2.13998 -3.28553 0
M  V30 16529 H 1553.05 -1.39388 -3.93651 0
M  V30 16530 N 1553.48 0.89303 -1.29857 0
M  V30 16531 C 1554.71 1.6827 -1.21243 0
M  V30 16532 C 1555.13 1.86778 0.222621 0
M  V30 16533 O 1554.49 1.39291 1.1605 0
M  V30 16534 C 1554.54 3.041 -1.93792 0
M  V30 16535 O 1553.64 3.92696 -1.25951 0
M  V30 16536 H 1552.98 0.514479 -0.419771 0
M  V30 16537 H 1555.51 1.11513 -1.7154 0
M  V30 16538 H 1555.52 3.54198 -2.02504 0
M  V30 16539 H 1554.2 2.89948 -2.98166 0
M  V30 16540 H 1552.78 3.51132 -1.25541 0
M  V30 16541 N 1554.96 1.12442 1.10429 0
M  V30 16542 C 1556.21 0.881062 1.82661 0
M  V30 16543 C 1556.54 -0.591636 1.84968 0
M  V30 16544 O 1555.82 -1.43734 1.31037 0
M  V30 16545 C 1556.1 1.45658 3.29326 0
M  V30 16546 C 1555.95 2.99766 3.35352 0
M  V30 16547 C 1557.27 1.1162 4.2571 0
M  V30 16548 H 1554.39 0.321516 0.663172 0
M  V30 16549 H 1557.03 1.39102 1.29424 0
M  V30 16550 H 1555.18 1.02286 3.74793 0
M  V30 16551 H 1556.85 3.51818 2.98365 0
M  V30 16552 H 1555.1 3.35292 2.75249 0
M  V30 16553 H 1555.77 3.35128 4.38627 0
M  V30 16554 H 1558.24 1.49081 3.88477 0
M  V30 16555 H 1557.12 1.54552 5.26692 0
M  V30 16556 H 1557.38 0.0284093 4.42091 0
M  V30 16557 N 1556.44 -1.28223 0.91633 0
M  V30 16558 C 1557.37 -2.25482 0.351128 0
M  V30 16559 C 1558.35 -1.53155 -0.546108 0
M  V30 16560 O 1559.53 -1.82042 -0.489182 0
M  V30 16561 C 1556.66 -3.35021 -0.497832 0
M  V30 16562 C 1555.71 -4.25187 0.334384 0
M  V30 16563 S 1556.54 -5.06348 1.74276 0
M  V30 16564 C 1557.7 -6.19378 0.901172 0
M  V30 16565 H 1557.93 -2.73075 1.17547 0
M  V30 16566 H 1555.46 -1.36703 0.717752 0
M  V30 16567 H 1557.42 -3.98586 -0.98182 0
M  V30 16568 H 1556.08 -2.8609 -1.29658 0
M  V30 16569 H 1555.27 -5.03015 -0.314884 0
M  V30 16570 H 1554.88 -3.66359 0.75212 0
M  V30 16571 H 1557.17 -6.77371 0.131985 0
M  V30 16572 H 1558.11 -6.88558 1.65208 0
M  V30 16573 H 1558.52 -5.62718 0.448206 0
M  V30 16574 N 1557.92 -0.68059 -1.42147 0
M  V30 16575 C 1558.86 -0.00585926 -2.30799 0
M  V30 16576 C 1559.83 0.786778 -1.46284 0
M  V30 16577 O 1561.02 0.757853 -1.75103 0
M  V30 16578 C 1558.16 0.935319 -3.32183 0
M  V30 16579 C 1557.27 0.13589 -4.31786 0
M  V30 16580 C 1556.41 1.07335 -5.20243 0
M  V30 16581 C 1555.45 0.265943 -6.11522 0
M  V30 16582 N 1554.58 1.15641 -6.92511 0
M  V30 16583 H 1559.42 -0.767651 -2.87943 0
M  V30 16584 H 1556.96 -0.39029 -1.41828 0
M  V30 16585 H 1558.92 1.49489 -3.89498 0
M  V30 16586 H 1557.55 1.66368 -2.76626 0
M  V30 16587 H 1556.6 -0.540383 -3.76542 0
M  V30 16588 H 1557.91 -0.490716 -4.9638 0
M  V30 16589 H 1557.07 1.70265 -5.82319 0
M  V30 16590 H 1555.81 1.73383 -4.55839 0
M  V30 16591 H 1554.81 -0.376531 -5.48509 0
M  V30 16592 H 1556.04 -0.39053 -6.77976 0
M  V30 16593 H 1553.98 1.80319 -6.30731 0
M  V30 16594 H 1553.9 0.585022 -7.53733 0
M  V30 16595 H 1555.17 1.773 -7.59069 0
M  V30 16596 N 1559.4 1.51781 -0.424309 0
M  V30 16597 C 1560.31 2.31162 0.40015 0
M  V30 16598 C 1561.32 1.39523 1.03969 0
M  V30 16599 O 1562.5 1.72597 1.0379 0
M  V30 16600 C 1559.56 3.12875 1.49366 0
M  V30 16601 C 1558.62 4.20275 0.875616 0
M  V30 16602 C 1557.86 4.98082 1.91702 0
M  V30 16603 O 1558.08 4.76365 3.13739 0
M  V30 16604 O 1557.01 5.82527 1.5148 0
M  V30 16605 H 1560.84 3.0269 -0.247529 0
M  V30 16606 H 1558.42 1.48223 -0.187146 0
M  V30 16607 H 1560.31 3.63714 2.12815 0
M  V30 16608 H 1558.98 2.44125 2.12567 0
M  V30 16609 H 1557.89 3.73546 0.203429 0
M  V30 16610 H 1559.22 4.91361 0.287306 0
M  V30 16611 N 1560.87 0.155222 1.56834 0
M  V30 16612 C 1562.12 -0.493826 1.96386 0
M  V30 16613 C 1562.45 -1.6433 1.04048 0
M  V30 16614 O 1561.7 -1.9557 0.0713123 0
M  V30 16615 C 1562 -1.03346 3.42132 0
M  V30 16616 C 1561.67 -0.00157215 4.509 0
M  V30 16617 C 1560.33 0.282068 4.80373 0
M  V30 16618 C 1562.68 0.699684 5.16482 0
M  V30 16619 C 1560.01 1.27263 5.72731 0
M  V30 16620 C 1562.36 1.67912 6.09908 0
M  V30 16621 C 1561.03 1.97037 6.37756 0
M  V30 16622 H 1560.3 -0.180704 0.718629 0
M  V30 16623 H 1562.94 0.243789 1.89942 0
M  V30 16624 H 1561.25 -1.84857 3.45449 0
M  V30 16625 H 1562.95 -1.54437 3.70068 0
M  V30 16626 H 1559.54 -0.232824 4.27967 0
M  V30 16627 H 1563.72 0.493751 4.93838 0
M  V30 16628 H 1558.98 1.50464 5.92597 0
M  V30 16629 H 1563.15 2.22796 6.59799 0
M  V30 16630 H 1560.78 2.73944 7.09125 0
M  V30 16631 N 1562.35 -1.57153 -0.118549 0
M  V30 16632 C 1563.3 -2.01357 -1.1644 0
M  V30 16633 C 1564.29 -0.910574 -1.42846 0
M  V30 16634 O 1565.5 -1.09578 -1.42803 0
M  V30 16635 H 1561.87 -0.641376 -0.392607 0
M  V30 16636 H 1563.85 -2.88425 -0.765087 0
M  V30 16637 C 1562.59 -2.43416 -2.48282 0
M  V30 16638 H 1561.92 -3.27857 -2.288 0
M  V30 16639 H 1563.36 -2.78143 -3.20019 0
M  V30 16640 C 1561.82 -1.29799 -3.10892 0
M  V30 16641 O 1562.35 -0.614207 -3.96977 0
M  V30 16642 N 1560.55 -1.05493 -2.70776 0
M  V30 16643 H 1560.1 -1.61276 -2.00868 0
M  V30 16644 H 1560.06 -0.296678 -3.12997 0
M  V30 16645 N 1563.83 0.388742 -1.5273 0
M  V30 16646 C 1565.07 1.14269 -1.69475 0
M  V30 16647 C 1565.43 1.87222 -0.425669 0
M  V30 16648 O 1566.63 2.64668 -0.469486 0
M  V30 16649 C 1564.91 2.09472 -2.8958 0
M  V30 16650 S 1566.46 2.927 -3.26913 0
M  V30 16651 H 1563.28 0.386807 -0.596574 0
M  V30 16652 H 1565.88 0.427089 -1.90778 0
M  V30 16653 H 1564.59 1.54599 -3.80167 0
M  V30 16654 H 1564.12 2.8554 -2.70611 0
M  V30 16655 H 1566.13 4.11605 -2.77121 0
M  V30 16656 N 1565.31 1.43698 0.647203 0
M  V30 16657 C 1566.26 1.45765 1.75318 0
M  V30 16658 C 1567.24 0.32536 1.57576 0
M  V30 16659 O 1568.43 0.569564 1.67586 0
M  V30 16660 C 1565.56 1.38923 3.13935 0
M  V30 16661 C 1564.65 2.57205 3.37204 0
M  V30 16662 N 1565.04 3.82529 3.30916 0
M  V30 16663 C 1563.34 2.52057 3.67944 0
M  V30 16664 C 1564.04 4.61252 3.54431 0
M  V30 16665 N 1563.01 3.92076 3.76534 0
M  V30 16666 H 1566.82 2.40527 1.6889 0
M  V30 16667 H 1564.33 1.38435 0.849093 0
M  V30 16668 H 1566.33 1.38487 3.93226 0
M  V30 16669 H 1564.99 0.451864 3.2154 0
M  V30 16670 H 1566 4.1473 3.10192 0
M  V30 16671 H 1562.68 1.67038 3.82628 0
M  V30 16672 H 1564.07 5.70275 3.55297 0
M  V30 16673 N 1566.79 -0.886131 1.30328 0
M  V30 16674 C 1567.74 -1.979 1.13224 0
M  V30 16675 C 1568.72 -1.60829 0.0477368 0
M  V30 16676 O 1569.91 -1.74914 0.270932 0
M  V30 16677 C 1567.04 -3.33241 0.824943 0
M  V30 16678 C 1566.13 -3.76629 1.94965 0
M  V30 16679 N 1566.52 -3.92125 3.19486 0
M  V30 16680 C 1564.82 -4.06015 1.84575 0
M  V30 16681 C 1565.52 -4.2891 3.92951 0
M  V30 16682 N 1564.49 -4.38707 3.20993 0
M  V30 16683 H 1568.3 -2.07969 2.07668 0
M  V30 16684 H 1565.81 -1.07587 1.21651 0
M  V30 16685 H 1567.81 -4.1126 0.683423 0
M  V30 16686 H 1566.47 -3.24509 -0.111438 0
M  V30 16687 H 1567.48 -3.77288 3.54788 0
M  V30 16688 H 1564.15 -4.05763 0.982969 0
M  V30 16689 H 1565.54 -4.48632 5.00179 0
M  V30 16690 N 1568.26 -1.13026 -1.09832 0
M  V30 16691 C 1569.51 -0.890736 -1.82191 0
M  V30 16692 C 1569.84 0.581818 -1.8528 0
M  V30 16693 O 1569.12 1.43037 -1.31798 0
M  V30 16694 C 1569.4 -1.47403 -3.28549 0
M  V30 16695 C 1569.25 -3.0154 -3.33757 0
M  V30 16696 C 1570.57 -1.13876 -4.25112 0
M  V30 16697 H 1567.69 -0.325028 -0.661457 0
M  V30 16698 H 1570.33 -1.39787 -1.28684 0
M  V30 16699 H 1568.48 -1.04272 -3.74245 0
M  V30 16700 H 1570.16 -3.53395 -2.96495 0
M  V30 16701 H 1568.4 -3.36746 -2.73467 0
M  V30 16702 H 1569.07 -3.37449 -4.36843 0
M  V30 16703 H 1571.55 -1.51139 -3.87681 0
M  V30 16704 H 1570.42 -1.57343 -5.25865 0
M  V30 16705 H 1570.68 -0.051854 -4.4207 0
M  V30 16706 N 1569.74 1.27735 -0.923117 0
M  V30 16707 C 1570.99 1.94858 -0.56198 0
M  V30 16708 C 1571.32 1.72414 0.893698 0
M  V30 16709 O 1570.6 1.05054 1.63689 0
M  V30 16710 C 1570.88 3.49102 -0.883173 0
M  V30 16711 C 1570.73 3.80908 -2.39227 0
M  V30 16712 C 1572.05 4.38405 -0.385848 0
M  V30 16713 H 1569.17 0.707728 -0.205646 0
M  V30 16714 H 1571.81 1.50935 -1.15406 0
M  V30 16715 H 1569.96 3.86644 -0.379292 0
M  V30 16716 H 1571.63 3.53182 -2.96749 0
M  V30 16717 H 1569.88 3.2762 -2.84337 0
M  V30 16718 H 1570.55 4.88653 -2.56754 0
M  V30 16719 H 1573.02 4.07988 -0.817631 0
M  V30 16720 H 1571.9 5.45161 -0.63958 0
M  V30 16721 H 1572.16 4.36296 0.714009 0
M  V30 16722 N 1571.22 0.688118 1.41784 0
M  V30 16723 C 1572.64 0.358943 1.55511 0
M  V30 16724 C 1572.84 -1.13469 1.66514 0
M  V30 16725 O 1571.89 -1.92039 1.63943 0
M  V30 16726 C 1573.21 1.10094 2.79821 0
M  V30 16727 C 1574.75 1.08456 2.93609 0
M  V30 16728 C 1575.23 1.80815 4.20797 0
M  V30 16729 N 1576.72 1.77748 4.27738 0
M  V30 16730 C 1577.45 2.30581 5.24995 0
M  V30 16731 N 1576.95 2.91854 6.28326 0
M  V30 16732 N 1578.74 2.2088 5.16884 0
M  V30 16733 H 1570.89 1.65695 1.32886 0
M  V30 16734 H 1573.16 0.698818 0.640592 0
M  V30 16735 H 1572.86 2.15589 2.77874 0
M  V30 16736 H 1572.74 0.674713 3.71117 0
M  V30 16737 H 1575.12 0.0378955 2.95076 0
M  V30 16738 H 1575.21 1.54978 2.03508 0
M  V30 16739 H 1574.85 2.85457 4.20092 0
M  V30 16740 H 1574.78 1.31732 5.09857 0
M  V30 16741 H 1577.27 1.33069 3.53696 0
M  V30 16742 H 1577.58 3.29755 6.98915 0
M  V30 16743 H 1575.93 2.95929 6.28849 0
M  V30 16744 H 1579.12 1.72689 4.35082 0
M  V30 16745 H 1579.29 2.62359 5.92513 0
M  V30 16746 N 1572.7 -1.51554 0.432352 0
M  V30 16747 C 1573.63 -2.30514 -0.372243 0
M  V30 16748 C 1574.61 -1.35712 -1.02549 0
M  V30 16749 O 1575.79 -1.6463 -1.03009 0
M  V30 16750 C 1572.92 -3.14353 -1.47646 0
M  V30 16751 C 1571.88 -4.17392 -0.946974 0
M  V30 16752 C 1571.2 -4.89721 -2.14656 0
M  V30 16753 C 1572.5 -5.22298 0.0151377 0
M  V30 16754 H 1574.2 -2.98024 0.28668 0
M  V30 16755 H 1571.74 -1.43325 0.139315 0
M  V30 16756 H 1573.7 -3.68369 -2.04651 0
M  V30 16757 H 1572.42 -2.44654 -2.1636 0
M  V30 16758 H 1571.08 -3.6442 -0.399174 0
M  V30 16759 H 1570.73 -4.1653 -2.81978 0
M  V30 16760 H 1570.43 -5.59393 -1.79869 0
M  V30 16761 H 1571.95 -5.46559 -2.72224 0
M  V30 16762 H 1573.37 -5.71416 -0.464447 0
M  V30 16763 H 1571.76 -5.99468 0.275339 0
M  V30 16764 H 1572.83 -4.75436 0.953357 0
M  V30 16765 N 1574.18 -0.163538 -1.56749 0
M  V30 16766 C 1575.11 0.765571 -2.20593 0
M  V30 16767 C 1576.09 1.24489 -1.15916 0
M  V30 16768 O 1577.27 1.29946 -1.44318 0
M  V30 16769 C 1574.4 1.99823 -2.84057 0
M  V30 16770 C 1573.36 1.65506 -3.94705 0
M  V30 16771 C 1572.68 2.96172 -4.45181 0
M  V30 16772 C 1573.98 0.88902 -5.14678 0
M  V30 16773 H 1575.68 0.233431 -2.98489 0
M  V30 16774 H 1573.22 0.110836 -1.43573 0
M  V30 16775 H 1575.18 2.65316 -3.27392 0
M  V30 16776 H 1573.9 2.55437 -2.03517 0
M  V30 16777 H 1572.56 1.02384 -3.52013 0
M  V30 16778 H 1572.21 3.49811 -3.61443 0
M  V30 16779 H 1571.91 2.73968 -5.19823 0
M  V30 16780 H 1573.43 3.62708 -4.91198 0
M  V30 16781 H 1574.84 1.44637 -5.54755 0
M  V30 16782 H 1573.24 0.766302 -5.95187 0
M  V30 16783 H 1574.31 -0.116145 -4.84761 0
M  V30 16784 N 1575.65 1.57214 0.110213 0
M  V30 16785 C 1576.9 1.84946 0.814827 0
M  V30 16786 C 1577.22 0.750029 1.79999 0
M  V30 16787 O 1576.49 -0.225164 1.94602 0
M  V30 16788 H 1575.07 0.682385 0.303907 0
M  V30 16789 H 1577.74 1.94666 0.0954415 0
M  V30 16790 H 1576.83 2.81167 1.35469 0
M  V30 16791 N 1577.13 -0.380637 1.52934 0
M  V30 16792 C 1578.38 -1.1265 1.68635 0
M  V30 16793 C 1578.71 -1.89397 0.429227 0
M  V30 16794 O 1577.99 -1.85863 -0.573182 0
M  V30 16795 C 1578.27 -2.09797 2.92673 0
M  V30 16796 C 1578.12 -1.36758 4.28506 0
M  V30 16797 C 1579.44 -3.10117 3.12274 0
M  V30 16798 H 1576.56 -0.408158 0.613658 0
M  V30 16799 H 1579.2 -0.408947 1.85547 0
M  V30 16800 H 1577.35 -2.70987 2.78385 0
M  V30 16801 H 1579.02 -0.784679 4.54577 0
M  V30 16802 H 1577.27 -0.669413 4.28604 0
M  V30 16803 H 1577.94 -2.07786 5.11399 0
M  V30 16804 H 1580.41 -2.59022 3.25648 0
M  V30 16805 H 1579.29 -3.75328 4.00525 0
M  V30 16806 H 1579.55 -3.79451 2.26868 0
M  V30 16807 N 1578.61 -1.44039 -0.639573 0
M  V30 16808 C 1579.86 -1.46594 -1.40136 0
M  V30 16809 C 1580.19 -0.0949646 -1.93968 0
M  V30 16810 O 1579.46 0.886201 -1.73138 0
M  V30 16811 C 1579.75 -2.51947 -2.57283 0
M  V30 16812 C 1579.6 -3.98371 -2.08855 0
M  V30 16813 C 1580.92 -2.53891 -3.59482 0
M  V30 16814 H 1578.04 -0.533759 -0.508203 0
M  V30 16815 H 1580.68 -1.75669 -0.723898 0
M  V30 16816 H 1578.83 -2.27285 -3.15077 0
M  V30 16817 H 1580.5 -4.34137 -1.55956 0
M  V30 16818 H 1578.75 -4.10551 -1.40109 0
M  V30 16819 H 1579.42 -4.67721 -2.93157 0
M  V30 16820 H 1581.89 -2.75906 -3.11473 0
M  V30 16821 H 1580.77 -3.29524 -4.38982 0
M  V30 16822 H 1581.03 -1.57774 -4.12989 0
M  V30 16823 N 1580.09 0.879207 -1.30796 0
M  V30 16824 C 1581.31 1.66975 -1.23021 0
M  V30 16825 C 1581.74 1.87004 0.202798 0
M  V30 16826 O 1581.1 1.40514 1.14566 0
M  V30 16827 C 1581.14 3.02028 -1.97007 0
M  V30 16828 O 1580.25 3.91338 -1.30109 0
M  V30 16829 H 1579.59 0.509998 -0.425204 0
M  V30 16830 H 1582.12 1.09688 -1.72713 0
M  V30 16831 H 1582.13 3.5203 -2.06249 0
M  V30 16832 H 1580.8 2.8677 -3.01224 0
M  V30 16833 H 1579.38 3.49781 -1.29258 0
M  V30 16834 N 1581.57 1.13606 1.09231 0
M  V30 16835 C 1582.5 0.77306 2.15769 0
M  V30 16836 C 1583.51 -0.206148 1.6149 0
M  V30 16837 O 1584.7 0.014338 1.78494 0
M  V30 16838 C 1581.8 0.125475 3.38668 0
M  V30 16839 C 1580.97 1.13728 4.22356 0
M  V30 16840 C 1580.03 0.515021 5.23674 0
M  V30 16841 O 1579.06 1.1756 5.56928 0
M  V30 16842 N 1580.26 -0.712028 5.76117 0
M  V30 16843 H 1583.03 1.68984 2.47517 0
M  V30 16844 H 1580.59 1.02935 1.24964 0
M  V30 16845 H 1582.58 -0.303109 4.03563 0
M  V30 16846 H 1581.15 -0.694284 3.04792 0
M  V30 16847 H 1580.37 1.74309 3.53568 0
M  V30 16848 H 1581.66 1.82106 4.75094 0
M  V30 16849 H 1581.06 -1.26745 5.51319 0
M  V30 16850 H 1579.61 -1.08324 6.42736 0
M  V30 16851 N 1583.05 -1.27244 0.929878 0
M  V30 16852 C 1584.29 -1.93886 0.570331 0
M  V30 16853 C 1584.61 -1.7342 -0.891656 0
M  V30 16854 O 1583.88 -1.0832 -1.63228 0
M  V30 16855 H 1582.46 -0.717476 0.207937 0
M  V30 16856 H 1585.13 -1.5491 1.18275 0
M  V30 16857 H 1584.22 -3.02236 0.778463 0
M  V30 16858 N 1584.52 -0.695628 -1.41417 0
M  V30 16859 C 1585.46 0.00883515 -2.29198 0
M  V30 16860 C 1586.47 0.744337 -1.44788 0
M  V30 16861 O 1587.66 0.59503 -1.6829 0
M  V30 16862 C 1584.76 1.0366 -3.22657 0
M  V30 16863 C 1583.93 0.37071 -4.35826 0
M  V30 16864 C 1582.99 1.3011 -5.09861 0
M  V30 16865 O 1582.02 0.793461 -5.63642 0
M  V30 16866 N 1583.22 2.63343 -5.1733 0
M  V30 16867 H 1585.98 -0.744795 -2.90298 0
M  V30 16868 H 1583.54 -0.541663 -1.5257 0
M  V30 16869 H 1585.54 1.66075 -3.69054 0
M  V30 16870 H 1584.11 1.69177 -2.62865 0
M  V30 16871 H 1583.33 -0.433315 -3.91811 0
M  V30 16872 H 1584.61 -0.0923178 -5.08716 0
M  V30 16873 H 1584.01 3.07103 -4.75083 0
M  V30 16874 H 1582.57 3.20952 -5.67303 0
M  V30 16875 N 1586 1.51322 -0.440383 0
M  V30 16876 C 1587.41 1.86687 0.0220272 0
M  V30 16877 C 1587.76 1.35734 1.41671 0
M  V30 16878 O 1586.89 0.709408 2.04442 0
M  V30 16879 C 1587.48 3.38768 0.0467477 0
M  V30 16880 C 1586.04 3.73657 0.45358 0
M  V30 16881 C 1585.19 2.7506 -0.351779 0
M  V30 16882 H 1588.14 1.44503 -0.65609 0
M  V30 16883 H 1588.16 3.70756 0.855589 0
M  V30 16884 H 1587.67 3.75823 -0.968451 0
M  V30 16885 H 1585.77 3.42193 1.47427 0
M  V30 16886 H 1585.89 4.78776 0.176262 0
M  V30 16887 H 1584.25 2.53988 0.190334 0
M  V30 16888 H 1585.03 3.14957 -1.36591 0
M  V30 16889 N 1587.48 0.171848 1.5666 0
M  V30 16890 C 1588.71 -0.479221 2.01274 0
M  V30 16891 C 1589.12 -1.56771 1.05206 0
M  V30 16892 O 1588.48 -1.82423 0.0530164 0
M  V30 16893 C 1588.53 -1.05705 3.457 0
M  V30 16894 O 1588.25 -0.0120133 4.38098 0
M  V30 16895 C 1589.75 -1.78629 4.05717 0
M  V30 16896 H 1586.97 -0.122598 0.659705 0
M  V30 16897 H 1589.52 0.273733 2.0266 0
M  V30 16898 H 1587.67 -1.7605 3.45087 0
M  V30 16899 H 1588.09 -0.438714 5.22662 0
M  V30 16900 H 1589.56 -2.14319 5.08696 0
M  V30 16901 H 1590.04 -2.68149 3.4784 0
M  V30 16902 H 1590.64 -1.12925 4.10034 0
M  V30 16903 N 1588.96 -1.5727 -0.101874 0
M  V30 16904 C 1589.89 -2.04614 -1.12496 0
M  V30 16905 C 1590.87 -0.933768 -1.42179 0
M  V30 16906 O 1592.05 -1.2046 -1.52325 0
M  V30 16907 C 1589.18 -2.46488 -2.44665 0
M  V30 16908 C 1588.14 -3.61327 -2.29406 0
M  V30 16909 C 1587.46 -3.89155 -3.66691 0
M  V30 16910 C 1588.76 -4.92455 -1.74026 0
M  V30 16911 H 1590.46 -2.90336 -0.731109 0
M  V30 16912 H 1588 -1.39676 -0.350239 0
M  V30 16913 H 1589.96 -2.78216 -3.16502 0
M  V30 16914 H 1588.68 -1.57757 -2.85972 0
M  V30 16915 H 1587.34 -3.29835 -1.60015 0
M  V30 16916 H 1586.99 -2.97603 -4.05514 0
M  V30 16917 H 1586.69 -4.66465 -3.57329 0
M  V30 16918 H 1588.21 -4.23352 -4.40006 0
M  V30 16919 H 1589.63 -5.22609 -2.35697 0
M  V30 16920 H 1588.02 -5.73882 -1.75441 0
M  V30 16921 H 1589.09 -4.79833 -0.699136 0
M  V30 16922 N 1590.44 0.372521 -1.53134 0
M  V30 16923 C 1591.68 1.11754 -1.6923 0
M  V30 16924 C 1592.01 1.89167 -0.439265 0
M  V30 16925 O 1591.29 1.86164 0.563317 0
M  V30 16926 C 1591.57 2.08242 -2.93781 0
M  V30 16927 C 1591.43 1.34484 -4.29225 0
M  V30 16928 C 1592.74 3.08457 -3.13914 0
M  V30 16929 H 1589.86 0.404898 -0.615814 0
M  V30 16930 H 1592.51 0.399101 -1.85761 0
M  V30 16931 H 1590.66 2.69507 -2.79818 0
M  V30 16932 H 1592.33 0.76056 -4.54987 0
M  V30 16933 H 1590.57 0.646673 -4.28953 0
M  V30 16934 H 1591.24 2.05071 -5.12494 0
M  V30 16935 H 1593.72 2.57292 -3.27017 0
M  V30 16936 H 1592.59 3.73198 -4.0251 0
M  V30 16937 H 1592.85 3.78243 -2.28878 0
M  V30 16938 N 1591.91 1.44376 0.631925 0
M  V30 16939 C 1593.16 1.46398 1.38747 0
M  V30 16940 C 1593.48 0.100149 1.95343 0
M  V30 16941 O 1594.68 -0.00210908 2.715 0
M  V30 16942 C 1593.14 2.57731 2.51203 0
M  V30 16943 C 1592.75 4.00317 2.01123 0
M  V30 16944 C 1594.49 2.68972 3.28412 0
M  V30 16945 C 1592.4 5.03075 3.10917 0
M  V30 16946 H 1591.33 0.544667 0.521396 0
M  V30 16947 H 1593.98 1.70439 0.679912 0
M  V30 16948 H 1592.36 2.26928 3.2453 0
M  V30 16949 H 1593.53 4.40683 1.34666 0
M  V30 16950 H 1591.85 3.93311 1.36732 0
M  V30 16951 H 1594.45 3.42916 4.10259 0
M  V30 16952 H 1594.79 1.74762 3.77841 0
M  V30 16953 H 1595.32 2.9918 2.62176 0
M  V30 16954 H 1592.06 5.98911 2.66433 0
M  V30 16955 H 1591.58 4.67302 3.76017 0
M  V30 16956 H 1593.26 5.2674 3.75705 0
M  V30 16957 N 1593.39 -0.872258 1.31261 0
M  V30 16958 C 1594.32 -1.98231 1.13047 0
M  V30 16959 C 1595.3 -1.62563 0.0345979 0
M  V30 16960 O 1596.49 -1.87534 0.190586 0
M  V30 16961 C 1593.61 -3.30809 0.726841 0
M  V30 16962 C 1592.66 -3.85461 1.82542 0
M  V30 16963 S 1593.49 -4.11197 3.43041 0
M  V30 16964 C 1594.65 -5.46776 3.0461 0
M  V30 16965 H 1594.88 -2.13377 2.07021 0
M  V30 16966 H 1592.41 -1.02217 1.1572 0
M  V30 16967 H 1594.37 -4.07435 0.500707 0
M  V30 16968 H 1593.03 -3.13502 -0.193741 0
M  V30 16969 H 1592.23 -4.81299 1.49558 0
M  V30 16970 H 1591.83 -3.1562 2.0065 0
M  V30 16971 H 1594.12 -6.28343 2.53361 0
M  V30 16972 H 1595.06 -5.84708 3.99402 0
M  V30 16973 H 1595.47 -5.09941 2.42116 0
M  V30 16974 N 1594.87 -1.14184 -1.08627 0
M  V30 16975 C 1595.78 -0.84033 -2.19033 0
M  V30 16976 C 1596.8 0.178322 -1.73084 0
M  V30 16977 O 1597.97 0.00737963 -2.01399 0
M  V30 16978 C 1595.04 -0.319674 -3.45223 0
M  V30 16979 C 1594.1 -1.4006 -4.0581 0
M  V30 16980 C 1593.33 -0.904693 -5.25976 0
M  V30 16981 O 1593.55 0.25468 -5.69831 0
M  V30 16982 O 1592.49 -1.68267 -5.77901 0
M  V30 16983 H 1596.31 -1.76296 -2.47292 0
M  V30 16984 H 1593.9 -0.919929 -1.17719 0
M  V30 16985 H 1595.78 -0.0351268 -4.21385 0
M  V30 16986 H 1594.46 0.575264 -3.18547 0
M  V30 16987 H 1593.36 -1.73858 -3.31247 0
M  V30 16988 H 1594.7 -2.26998 -4.3673 0
M  V30 16989 N 1596.35 1.26749 -0.936613 0
M  V30 16990 C 1597.28 2.2892 -0.460213 0
M  V30 16991 C 1598.26 1.63065 0.484135 0
M  V30 16992 O 1599.44 1.90305 0.386973 0
M  V30 16993 C 1596.57 3.46172 0.279648 0
M  V30 16994 C 1595.53 4.24083 -0.57771 0
M  V30 16995 C 1594.85 5.33903 0.291843 0
M  V30 16996 C 1596.15 4.88562 -1.84673 0
M  V30 16997 H 1597.85 2.69019 -1.31412 0
M  V30 16998 H 1595.39 1.29325 -0.633333 0
M  V30 16999 H 1597.35 4.16755 0.623931 0
M  V30 17000 H 1596.07 3.05014 1.16765 0
M  V30 17001 H 1594.73 3.55258 -0.904824 0
M  V30 17002 H 1594.38 4.88986 1.17906 0
M  V30 17003 H 1594.08 5.8694 -0.278372 0
M  V30 17004 H 1595.6 6.07326 0.631498 0
M  V30 17005 H 1597.02 5.51384 -1.56997 0
M  V30 17006 H 1595.41 5.51697 -2.36115 0
M  V30 17007 H 1596.48 4.11761 -2.56088 0
M  V30 17008 N 1597.83 0.703118 1.41046 0
M  V30 17009 C 1598.76 -0.00810455 2.28199 0
M  V30 17010 C 1599.74 -0.780333 1.42652 0
M  V30 17011 O 1600.92 -0.769578 1.72075 0
M  V30 17012 C 1598.05 -1.01887 3.23012 0
M  V30 17013 C 1597.09 -0.338929 4.25151 0
M  V30 17014 S 1597.93 0.924166 5.27465 0
M  V30 17015 C 1599.08 -0.0848164 6.25843 0
M  V30 17016 H 1599.32 0.731062 2.88171 0
M  V30 17017 H 1596.85 0.493669 1.46295 0
M  V30 17018 H 1598.81 -1.59687 3.78167 0
M  V30 17019 H 1597.47 -1.73066 2.6212 0
M  V30 17020 H 1596.66 -1.10259 4.91792 0
M  V30 17021 H 1596.26 0.166183 3.73631 0
M  V30 17022 H 1598.56 -0.935686 6.71008 0
M  V30 17023 H 1599.5 0.547865 7.05977 0
M  V30 17024 H 1599.91 -0.442967 5.62759 0
M  V30 17025 N 1599.3 -1.51086 0.448402 0
M  V30 17026 C 1600.53 -2.06593 -0.112695 0
M  V30 17027 C 1600.95 -1.31471 -1.35502 0
M  V30 17028 O 1600.3 -0.377406 -1.78555 0
M  V30 17029 C 1600.36 -3.59008 -0.423769 0
M  V30 17030 O 1600.08 -4.31293 0.769259 0
M  V30 17031 C 1601.58 -4.31064 -1.03433 0
M  V30 17032 H 1598.8 -0.670993 -0.00301626 0
M  V30 17033 H 1601.34 -1.94532 0.630667 0
M  V30 17034 H 1599.5 -3.70946 -1.11704 0
M  V30 17035 H 1599.91 -5.2211 0.500162 0
M  V30 17036 H 1601.38 -5.38756 -1.20191 0
M  V30 17037 H 1601.86 -3.90075 -2.01837 0
M  V30 17038 H 1602.47 -4.23598 -0.380115 0
M  V30 17039 N 1600.78 -0.180154 -1.56567 0
M  V30 17040 C 1602.2 0.175902 -1.58628 0
M  V30 17041 C 1602.4 1.62179 -1.19583 0
M  V30 17042 O 1601.45 2.35471 -0.911566 0
M  V30 17043 C 1602.77 -0.11292 -3.00488 0
M  V30 17044 C 1604.32 -0.051834 -3.12957 0
M  V30 17045 C 1604.79 -0.313764 -4.56924 0
M  V30 17046 N 1606.28 -0.261852 -4.62459 0
M  V30 17047 C 1607.02 -0.438573 -5.7172 0
M  V30 17048 N 1606.51 -0.674832 -6.89506 0
M  V30 17049 N 1608.31 -0.373864 -5.60855 0
M  V30 17050 H 1600.46 -1.12385 -1.80232 0
M  V30 17051 H 1602.72 -0.447459 -0.835754 0
M  V30 17052 H 1602.43 -1.11488 -3.33562 0
M  V30 17053 H 1602.3 0.591409 -3.72535 0
M  V30 17054 H 1604.69 0.940711 -2.79705 0
M  V30 17055 H 1604.77 -0.78901 -2.43327 0
M  V30 17056 H 1604.41 -1.30356 -4.90887 0
M  V30 17057 H 1604.34 0.444127 -5.24724 0
M  V30 17058 H 1606.83 -0.0852513 -3.77804 0
M  V30 17059 H 1607.15 -0.798891 -7.6866 0
M  V30 17060 H 1605.49 -0.711551 -6.91348 0
M  V30 17061 H 1608.68 -0.189815 -4.67715 0
M  V30 17062 H 1608.85 -0.515012 -6.4595 0
M  V30 17063 N 1602.26 1.57322 0.0935319 0
M  V30 17064 C 1603.51 1.858 0.795165 0
M  V30 17065 C 1603.83 0.769078 1.79193 0
M  V30 17066 O 1603.1 -0.204511 1.9483 0
M  V30 17067 H 1601.68 0.68557 0.296653 0
M  V30 17068 H 1604.34 1.94756 0.0747892 0
M  V30 17069 H 1603.44 2.82588 1.32479 0
M  V30 17070 N 1603.74 -0.364395 1.53329 0
M  V30 17071 C 1605.02 -1.12265 1.60174 0
M  V30 17072 C 1605.4 -2.0708 0.410015 0
M  V30 17073 O 1604.74 -2.20492 -0.599631 0
M  V30 17074 C 1604.95 -1.86071 2.9526 0
M  V30 17075 C 1606.3 -2.40562 3.49879 0
M  V30 17076 O 1607.33 -1.96196 2.97297 0
M  V30 17077 O 1606.18 -3.2167 4.41804 0
M  V30 17078 H 1603.28 -0.515062 0.647024 0
M  V30 17079 H 1605.82 -0.367563 1.65672 0
M  V30 17080 H 1604.6 -1.1688 3.73436 0
M  V30 17081 H 1604.22 -2.68486 2.93259 0
M  V30 17082 N 1605.22 -1.44709 -0.62426 0
M  V30 17083 C 1606.15 -1.54934 -1.74693 0
M  V30 17084 C 1607.13 -0.401897 -1.65284 0
M  V30 17085 O 1608.31 -0.622906 -1.83939 0
M  V30 17086 C 1605.44 -1.49976 -3.13248 0
M  V30 17087 C 1604.4 -2.63267 -3.37453 0
M  V30 17088 C 1603.72 -2.43362 -4.76108 0
M  V30 17089 C 1605.02 -4.0538 -3.2934 0
M  V30 17090 H 1606.72 -2.48905 -1.66393 0
M  V30 17091 H 1604.26 -1.19794 -0.799088 0
M  V30 17092 H 1606.22 -1.55729 -3.91569 0
M  V30 17093 H 1604.94 -0.525254 -3.22349 0
M  V30 17094 H 1603.6 -2.56915 -2.61515 0
M  V30 17095 H 1603.25 -1.44088 -4.81921 0
M  V30 17096 H 1602.95 -3.19324 -4.93261 0
M  V30 17097 H 1604.47 -2.50943 -5.56651 0
M  V30 17098 H 1605.88 -4.13064 -3.97556 0
M  V30 17099 H 1604.28 -4.81599 -3.58025 0
M  V30 17100 H 1605.35 -4.28465 -2.27038 0
M  V30 17101 N 1606.69 0.865285 -1.31722 0
M  V30 17102 C 1607.64 1.97294 -1.19766 0
M  V30 17103 C 1608.61 1.65896 -0.0823232 0
M  V30 17104 O 1609.8 1.89075 -0.256009 0
M  V30 17105 C 1606.94 3.32727 -0.915776 0
M  V30 17106 C 1606.05 3.76691 -2.11489 0
M  V30 17107 C 1605.18 5.00865 -1.76939 0
M  V30 17108 C 1604.22 5.37291 -2.93232 0
M  V30 17109 N 1603.36 6.52643 -2.58846 0
M  V30 17110 H 1608.2 2.06851 -2.14515 0
M  V30 17111 H 1605.74 1.01256 -1.06703 0
M  V30 17112 H 1607.7 4.10712 -0.732881 0
M  V30 17113 H 1606.33 3.228 -0.00510917 0
M  V30 17114 H 1605.38 2.94449 -2.4084 0
M  V30 17115 H 1606.69 3.99613 -2.98514 0
M  V30 17116 H 1605.84 5.86529 -1.5514 0
M  V30 17117 H 1604.58 4.79857 -0.871125 0
M  V30 17118 H 1603.59 4.50143 -3.15675 0
M  V30 17119 H 1604.81 5.60262 -3.83775 0
M  V30 17120 H 1602.76 6.33172 -1.71548 0
M  V30 17121 H 1602.68 6.75531 -3.39401 0
M  V30 17122 H 1603.94 7.41487 -2.40451 0
M  V30 17123 N 1608.17 1.14759 1.0802 0
M  V30 17124 C 1609.4 0.942316 1.84757 0
M  V30 17125 C 1609.82 -0.504188 1.81217 0
M  V30 17126 O 1609.18 -1.35891 1.20014 0
M  V30 17127 C 1609.23 1.45271 3.30043 0
M  V30 17128 O 1608.33 0.647414 4.07287 0
M  V30 17129 H 1607.67 0.336613 0.572353 0
M  V30 17130 H 1610.2 1.52578 1.36313 0
M  V30 17131 H 1610.21 1.4626 3.80883 0
M  V30 17132 H 1608.89 2.50583 3.31935 0
M  V30 17133 H 1607.47 0.706595 3.66144 0
M  V30 17134 N 1609.65 -1.26251 0.943322 0
M  V30 17135 C 1610.88 -1.97452 0.607969 0
M  V30 17136 C 1611.29 -1.70422 -0.82177 0
M  V30 17137 O 1610.63 -0.970323 -1.55982 0
M  V30 17138 C 1610.69 -3.51092 0.772938 0
M  V30 17139 C 1610.36 -4.01777 2.17771 0
M  V30 17140 C 1611.35 -4.1335 3.15338 0
M  V30 17141 C 1609.04 -4.35732 2.49886 0
M  V30 17142 C 1611.03 -4.58175 4.43119 0
M  V30 17143 C 1608.72 -4.80245 3.779 0
M  V30 17144 C 1609.72 -4.91427 4.74329 0
M  V30 17145 O 1609.41 -5.34958 6.00063 0
M  V30 17146 H 1609.14 -0.636465 0.227791 0
M  V30 17147 H 1611.69 -1.61671 1.26695 0
M  V30 17148 H 1609.92 -3.86658 0.0568252 0
M  V30 17149 H 1611.61 -4.03505 0.440326 0
M  V30 17150 H 1612.38 -3.87361 2.91851 0
M  V30 17151 H 1608.26 -4.26261 1.75563 0
M  V30 17152 H 1611.8 -4.66818 5.18389 0
M  V30 17153 H 1607.7 -5.05678 4.01198 0
M  V30 17154 H 1608.47 -5.53173 6.03276 0
M  V30 17155 N 1611.13 -0.710588 -1.40671 0
M  V30 17156 C 1612.06 -0.0694601 -2.33397 0
M  V30 17157 C 1613.04 0.750959 -1.52626 0
M  V30 17158 O 1614.23 0.700896 -1.81111 0
M  V30 17159 C 1611.36 0.856704 -3.36568 0
M  V30 17160 C 1610.31 0.142276 -4.27763 0
M  V30 17161 C 1609.64 1.18382 -5.21431 0
M  V30 17162 C 1610.94 -1.00052 -5.12627 0
M  V30 17163 H 1612.63 -0.843945 -2.87259 0
M  V30 17164 H 1610.18 -0.407287 -1.3812 0
M  V30 17165 H 1612.13 1.31457 -4.00371 0
M  V30 17166 H 1610.85 1.66303 -2.81089 0
M  V30 17167 H 1609.51 -0.295714 -3.65405 0
M  V30 17168 H 1609.16 1.98306 -4.62259 0
M  V30 17169 H 1608.86 0.71071 -5.83286 0
M  V30 17170 H 1610.38 1.64189 -5.88111 0
M  V30 17171 H 1611.8 -0.622246 -5.69913 0
M  V30 17172 H 1610.19 -1.40168 -5.83501 0
M  V30 17173 H 1611.26 -1.83345 -4.48902 0
M  V30 17174 N 1612.61 1.50847 -0.456408 0
M  V30 17175 C 1614.02 1.59222 -0.109731 0
M  V30 17176 C 1614.22 1.46582 1.3826 0
M  V30 17177 O 1613.28 1.31678 2.15446 0
M  V30 17178 C 1614.59 2.9366 -0.646846 0
M  V30 17179 C 1616.14 3.07019 -0.60897 0
M  V30 17180 C 1616.62 4.44009 -1.12338 0
M  V30 17181 N 1618.11 4.50381 -1.08217 0
M  V30 17182 C 1618.84 5.54741 -1.45086 0
M  V30 17183 N 1618.34 6.66427 -1.89333 0
M  V30 17184 N 1620.13 5.45204 -1.36782 0
M  V30 17185 H 1612.28 1.57307 -1.42717 0
M  V30 17186 H 1614.54 0.742587 -0.589295 0
M  V30 17187 H 1614.25 3.0834 -1.69172 0
M  V30 17188 H 1614.12 3.7711 -0.0822535 0
M  V30 17189 H 1616.51 2.91995 0.426958 0
M  V30 17190 H 1616.59 2.25362 -1.21019 0
M  V30 17191 H 1616.24 4.59781 -2.15787 0
M  V30 17192 H 1616.17 5.24235 -0.498512 0
M  V30 17193 H 1618.66 3.70231 -0.757467 0
M  V30 17194 H 1618.97 7.42101 -2.15652 0
M  V30 17195 H 1617.32 6.67585 -1.93275 0
M  V30 17196 H 1620.51 4.56837 -1.02066 0
M  V30 17197 H 1620.68 6.26419 -1.65842 0
M  V30 17198 N 1614.09 0.188454 1.56469 0
M  V30 17199 C 1615.31 -0.460975 2.02212 0
M  V30 17200 C 1615.74 -1.54856 1.06777 0
M  V30 17201 O 1615.09 -1.81231 0.0501425 0
M  V30 17202 C 1615.14 -1.00047 3.46443 0
M  V30 17203 O 1614.25 -2.1137 3.54114 0
M  V30 17204 H 1613.59 -0.108497 0.655076 0
M  V30 17205 H 1616.12 0.297381 2.02427 0
M  V30 17206 H 1616.13 -1.31876 3.86099 0
M  V30 17207 H 1614.8 -0.204273 4.15398 0
M  V30 17208 H 1613.38 -1.80456 3.26328 0
M  V30 17209 N 1615.56 -1.5737 -0.0851874 0
M  V30 17210 C 1616.49 -2.05796 -1.10319 0
M  V30 17211 C 1617.47 -0.948796 -1.4118 0
M  V30 17212 O 1618.66 -1.22069 -1.51039 0
M  V30 17213 C 1615.79 -2.49069 -2.42037 0
M  V30 17214 C 1614.74 -3.6374 -2.25561 0
M  V30 17215 C 1614.07 -3.93023 -3.62543 0
M  V30 17216 C 1615.37 -4.94274 -1.68793 0
M  V30 17217 H 1617.06 -2.91095 -0.700274 0
M  V30 17218 H 1614.61 -1.40039 -0.335405 0
M  V30 17219 H 1616.56 -2.81558 -3.13534 0
M  V30 17220 H 1615.29 -1.60781 -2.84283 0
M  V30 17221 H 1613.95 -3.31513 -1.56507 0
M  V30 17222 H 1613.59 -3.01887 -4.02335 0
M  V30 17223 H 1613.29 -4.70229 -3.52362 0
M  V30 17224 H 1614.82 -4.27995 -4.35491 0
M  V30 17225 H 1616.23 -5.25079 -2.30141 0
M  V30 17226 H 1614.63 -5.75711 -1.69344 0
M  V30 17227 H 1615.7 -4.80548 -0.648204 0
M  V30 17228 N 1617.04 0.356258 -1.53521 0
M  V30 17229 C 1618.46 0.698546 -1.43501 0
M  V30 17230 C 1618.66 1.92926 -0.581547 0
M  V30 17231 O 1617.71 2.5241 -0.0675947 0
M  V30 17232 C 1619.03 0.903047 -2.8682 0
M  V30 17233 C 1620.57 1.00247 -2.96512 0
M  V30 17234 C 1621.05 1.23938 -4.40912 0
M  V30 17235 N 1622.54 1.30687 -4.44382 0
M  V30 17236 C 1623.28 1.50745 -5.5323 0
M  V30 17237 N 1622.77 1.68058 -6.72107 0
M  V30 17238 N 1624.56 1.5319 -5.40823 0
M  V30 17239 H 1616.72 -0.453102 -2.07511 0
M  V30 17240 H 1618.98 -0.140708 -0.937499 0
M  V30 17241 H 1618.68 0.070416 -3.5163 0
M  V30 17242 H 1618.56 1.80847 -3.3102 0
M  V30 17243 H 1620.95 1.82564 -2.3185 0
M  V30 17244 H 1621.03 0.0742303 -2.55692 0
M  V30 17245 H 1620.67 0.421189 -5.06151 0
M  V30 17246 H 1620.6 2.18098 -4.79313 0
M  V30 17247 H 1623.09 1.18883 -3.58713 0
M  V30 17248 H 1623.4 1.82963 -7.50829 0
M  V30 17249 H 1621.75 1.65219 -6.75076 0
M  V30 17250 H 1624.94 1.39237 -4.46912 0
M  V30 17251 H 1625.11 1.6848 -6.25714 0
M  V30 17252 N 1618.52 1.45038 0.616577 0
M  V30 17253 C 1619.93 1.4316 1.19842 0
M  V30 17254 C 1620.28 0.154504 1.95591 0
M  V30 17255 O 1619.41 -0.744409 2.03193 0
M  V30 17256 C 1620 2.59354 2.17993 0
M  V30 17257 C 1618.56 2.60625 2.71573 0
M  V30 17258 C 1617.71 2.35243 1.4682 0
M  V30 17259 H 1620.66 1.53408 0.406402 0
M  V30 17260 H 1620.68 2.32939 3.00865 0
M  V30 17261 H 1620.19 3.52288 1.62833 0
M  V30 17262 H 1618.29 1.71672 3.30695 0
M  V30 17263 H 1618.41 3.59568 3.16619 0
M  V30 17264 H 1616.77 1.84622 1.75462 0
M  V30 17265 H 1617.55 3.3031 0.935414 0
M  V30 17266 N 1620 -0.858287 1.32179 0
M  V30 17267 C 1620.91 -1.99894 1.228 0
M  V30 17268 C 1621.92 -1.73417 0.142323 0
M  V30 17269 O 1623.1 -1.98114 0.362321 0
M  V30 17270 C 1620.16 -3.33495 0.947745 0
M  V30 17271 C 1619.23 -3.73217 2.12149 0
M  V30 17272 C 1618.46 -5.00443 1.85452 0
M  V30 17273 O 1618.68 -5.64828 0.79531 0
M  V30 17274 O 1617.62 -5.3721 2.71457 0
M  V30 17275 H 1621.44 -2.10742 2.18682 0
M  V30 17276 H 1619.03 -0.988385 1.12033 0
M  V30 17277 H 1620.91 -4.13585 0.807791 0
M  V30 17278 H 1619.58 -3.23694 0.019053 0
M  V30 17279 H 1618.49 -2.93718 2.3169 0
M  V30 17280 H 1619.82 -3.87659 3.03285 0
M  V30 17281 N 1621.48 -1.1533 -1.07409 0
M  V30 17282 C 1622.41 -0.793078 -2.13976 0
M  V30 17283 C 1623.39 0.23021 -1.60962 0
M  V30 17284 O 1624.57 0.116904 -1.88137 0
M  V30 17285 C 1621.7 -0.179232 -3.38225 0
M  V30 17286 C 1620.74 -1.17432 -4.10015 0
M  V30 17287 S 1621.58 -2.7161 -4.61506 0
M  V30 17288 C 1622.73 -2.11643 -5.89031 0
M  V30 17289 H 1622.97 -1.69568 -2.44201 0
M  V30 17290 H 1620.5 -0.975582 -1.19674 0
M  V30 17291 H 1622.46 0.168494 -4.10154 0
M  V30 17292 H 1621.12 0.700954 -3.06179 0
M  V30 17293 H 1620.31 -0.693027 -4.99213 0
M  V30 17294 H 1619.91 -1.46655 -3.44047 0
M  V30 17295 H 1622.2 -1.47812 -6.61179 0
M  V30 17296 H 1623.15 -2.99006 -6.41873 0
M  V30 17297 H 1623.56 -1.55971 -5.42525 0
M  V30 17298 N 1622.95 1.25748 -0.950004 0
M  V30 17299 C 1623.86 2.29783 -0.472971 0
M  V30 17300 C 1624.88 1.6788 0.457403 0
M  V30 17301 O 1626.06 1.98598 0.334779 0
M  V30 17302 C 1623.12 3.45826 0.245955 0
M  V30 17303 C 1622.18 4.23184 -0.722063 0
M  V30 17304 C 1621.41 5.33687 -0.0373517 0
M  V30 17305 O 1621.64 5.58105 1.1779 0
M  V30 17306 O 1620.57 5.97572 -0.72054 0
M  V30 17307 H 1624.4 2.72668 -1.33737 0
M  V30 17308 H 1621.98 1.31111 -0.71626 0
M  V30 17309 H 1623.86 4.16348 0.650563 0
M  V30 17310 H 1622.54 3.04953 1.0856 0
M  V30 17311 H 1621.45 3.55109 -1.17679 0
M  V30 17312 H 1622.78 4.67829 -1.52959 0
M  V30 17313 N 1624.43 0.718038 1.40292 0
M  V30 17314 C 1625.38 0.0559466 2.32533 0
M  V30 17315 C 1626.37 -0.744365 1.5217 0
M  V30 17316 O 1627.58 -0.647458 1.67952 0
M  V30 17317 H 1623.95 -0.000710627 0.752 0
M  V30 17318 H 1625.93 0.850579 2.8602 0
M  V30 17319 C 1624.67 -0.849927 3.37152 0
M  V30 17320 H 1624 -0.243507 3.99058 0
M  V30 17321 H 1625.44 -1.28111 4.04183 0
M  V30 17322 C 1623.9 -1.9765 2.7283 0
M  V30 17323 O 1624.43 -3.06757 2.59351 0
M  V30 17324 N 1622.63 -1.76086 2.31176 0
M  V30 17325 H 1622.18 -0.873485 2.42339 0
M  V30 17326 H 1622.14 -2.51643 1.88477 0
M  V30 17327 N 1625.91 -1.50602 0.464402 0
M  V30 17328 C 1626.86 -2.29992 -0.347337 0
M  V30 17329 C 1627.85 -1.36991 -0.996489 0
M  V30 17330 O 1629.06 -1.54213 -0.928359 0
M  V30 17331 H 1625.43 -0.740529 -0.130847 0
M  V30 17332 H 1627.4 -2.96425 0.342734 0
M  V30 17333 C 1626.15 -3.17355 -1.4206 0
M  V30 17334 H 1625.48 -3.88822 -0.930473 0
M  V30 17335 H 1626.92 -3.75912 -1.96129 0
M  V30 17336 C 1625.38 -2.34506 -2.41886 0
M  V30 17337 O 1625.91 -2.02347 -3.47014 0
M  V30 17338 N 1624.11 -1.97212 -2.13438 0
M  V30 17339 H 1623.66 -2.23564 -1.27971 0
M  V30 17340 H 1623.62 -1.42081 -2.80464 0
M  V30 17341 N 1627.39 -0.19675 -1.56367 0
M  V30 17342 C 1628.8 0.315555 -1.84014 0
M  V30 17343 C 1629.15 1.61267 -1.11747 0
M  V30 17344 O 1628.28 2.13058 -0.378824 0
M  V30 17345 C 1628.87 0.579307 -3.33811 0
M  V30 17346 C 1627.43 1.03598 -3.61862 0
M  V30 17347 C 1626.58 0.0854845 -2.77168 0
M  V30 17348 H 1629.53 -0.4205 -1.53028 0
M  V30 17349 H 1629.55 1.42841 -3.52671 0
M  V30 17350 H 1629.06 -0.364925 -3.86381 0
M  V30 17351 H 1627.16 1.99443 -3.14727 0
M  V30 17352 H 1627.27 0.927547 -4.70035 0
M  V30 17353 H 1625.64 0.58768 -2.47827 0
M  V30 17354 H 1626.42 -0.853221 -3.32528 0
M  V30 17355 N 1628.87 1.57413 0.0768405 0
M  V30 17356 C 1630.11 1.87279 0.778099 0
M  V30 17357 C 1630.45 0.788359 1.77478 0
M  V30 17358 O 1629.72 -0.201876 1.9345 0
M  V30 17359 C 1630 3.27801 1.49059 0
M  V30 17360 C 1629.86 4.46892 0.510661 0
M  V30 17361 C 1631.18 3.66485 2.43674 0
M  V30 17362 H 1628.29 0.681159 0.281409 0
M  V30 17363 H 1630.94 1.89955 0.0413711 0
M  V30 17364 H 1629.09 3.2565 2.11859 0
M  V30 17365 H 1630.76 4.61165 -0.111734 0
M  V30 17366 H 1629 4.33449 -0.174445 0
M  V30 17367 H 1629.67 5.41985 1.04671 0
M  V30 17368 H 1632.15 3.69696 1.90955 0
M  V30 17369 H 1631.02 4.65706 2.90533 0
M  V30 17370 H 1631.29 2.96145 3.28254 0
M  V30 17371 N 1630.34 -0.348112 1.53707 0
M  V30 17372 C 1631.27 -1.43296 1.8436 0
M  V30 17373 C 1632.26 -1.55102 0.698376 0
M  V30 17374 O 1633.44 -1.69385 0.949864 0
M  V30 17375 C 1630.57 -2.80407 2.04912 0
M  V30 17376 C 1629.52 -2.83412 3.20721 0
M  V30 17377 C 1628.85 -4.23365 3.26597 0
M  V30 17378 C 1630.15 -2.49358 4.58931 0
M  V30 17379 H 1631.84 -1.17892 2.75212 0
M  V30 17380 H 1629.39 -0.565692 1.32423 0
M  V30 17381 H 1631.34 -3.56343 2.24939 0
M  V30 17382 H 1630.07 -3.07236 1.10786 0
M  V30 17383 H 1628.73 -2.09929 3.00542 0
M  V30 17384 H 1628.37 -4.47297 2.30076 0
M  V30 17385 H 1628.07 -4.26287 4.04417 0
M  V30 17386 H 1629.6 -5.01149 3.4883 0
M  V30 17387 H 1631.01 -3.15006 4.79003 0
M  V30 17388 H 1629.41 -2.6357 5.3912 0
M  V30 17389 H 1630.48 -1.44557 4.62851 0
M  V30 17390 N 1631.82 -1.45363 -0.608876 0
M  V30 17391 C 1632.79 -1.53551 -1.70161 0
M  V30 17392 C 1633.79 -0.415146 -1.55349 0
M  V30 17393 O 1634.98 -0.67858 -1.6044 0
M  V30 17394 C 1632.11 -1.43081 -3.0942 0
M  V30 17395 H 1633.3 -2.5091 -1.64268 0
M  V30 17396 H 1630.85 -1.32785 -0.824493 0
M  V30 17397 H 1631.59 -0.469016 -3.20891 0
M  V30 17398 H 1631.37 -2.24343 -3.21579 0
M  V30 17399 H 1632.86 -1.51841 -3.89017 0
M  V30 17400 N 1633.3 0.851265 -1.32632 0
M  V30 17401 C 1634.71 1.4217 -1.21015 0
M  V30 17402 C 1635.06 1.95409 0.175972 0
M  V30 17403 O 1634.19 1.87816 1.07489 0
M  V30 17404 C 1634.78 2.58431 -2.19086 0
M  V30 17405 C 1633.34 3.11464 -2.11346 0
M  V30 17406 C 1632.49 1.84221 -2.07263 0
M  V30 17407 H 1635.44 0.65812 -1.44411 0
M  V30 17408 H 1635.46 3.35694 -1.79137 0
M  V30 17409 H 1634.97 2.19652 -3.1996 0
M  V30 17410 H 1633.07 3.54818 -1.13732 0
M  V30 17411 H 1633.19 3.72478 -3.01325 0
M  V30 17412 H 1631.55 2.0396 -1.52553 0
M  V30 17413 H 1632.33 1.47654 -3.09924 0
M  V30 17414 N 1634.78 1.15898 1.06796 0
M  V30 17415 C 1636.19 0.945837 1.60968 0
M  V30 17416 C 1636.54 -0.511507 1.89415 0
M  V30 17417 O 1635.67 -1.38372 1.66379 0
M  V30 17418 C 1636.26 1.71054 2.92448 0
M  V30 17419 C 1634.82 1.54252 3.43341 0
M  V30 17420 C 1633.97 1.72253 2.17311 0
M  V30 17421 H 1636.92 1.30842 0.898118 0
M  V30 17422 H 1636.94 1.18336 3.61631 0
M  V30 17423 H 1636.45 2.77117 2.71712 0
M  V30 17424 H 1634.55 0.506082 3.69147 0
M  V30 17425 H 1634.66 2.32314 4.19007 0
M  V30 17426 H 1633.03 1.14952 2.27284 0
M  V30 17427 H 1633.81 2.79693 1.99064 0
M  V30 17428 N 1636.26 -1.25243 0.956659 0
M  V30 17429 C 1637.48 -1.97621 0.629337 0
M  V30 17430 C 1637.91 -1.70606 -0.792158 0
M  V30 17431 O 1637.26 -0.963192 -1.53598 0
M  V30 17432 C 1637.31 -3.49273 0.896687 0
M  V30 17433 O 1636.42 -4.12393 -0.0234986 0
M  V30 17434 H 1635.76 -0.619472 0.239061 0
M  V30 17435 H 1638.29 -1.5931 1.28381 0
M  V30 17436 H 1638.3 -3.99597 0.82377 0
M  V30 17437 H 1636.97 -3.68265 1.93271 0
M  V30 17438 H 1635.55 -3.72761 0.101796 0
M  V30 17439 N 1637.73 -0.725468 -1.3991 0
M  V30 17440 C 1638.66 -0.094211 -2.3331 0
M  V30 17441 C 1639.65 0.734728 -1.53414 0
M  V30 17442 O 1640.83 0.681647 -1.81844 0
M  V30 17443 C 1637.96 0.820958 -3.37457 0
M  V30 17444 C 1636.91 0.0968983 -4.2789 0
M  V30 17445 C 1636.24 1.12845 -5.22657 0
M  V30 17446 C 1637.54 -1.05483 -5.11537 0
M  V30 17447 H 1639.23 -0.874365 -2.86348 0
M  V30 17448 H 1636.78 -0.421913 -1.3768 0
M  V30 17449 H 1638.73 1.27203 -4.01743 0
M  V30 17450 H 1637.46 1.63312 -2.82837 0
M  V30 17451 H 1636.12 -0.334454 -3.65071 0
M  V30 17452 H 1635.76 1.93392 -4.64337 0
M  V30 17453 H 1635.46 0.648805 -5.84007 0
M  V30 17454 H 1636.99 1.57942 -5.89819 0
M  V30 17455 H 1638.4 -0.682657 -5.69221 0
M  V30 17456 H 1636.8 -1.46349 -5.81981 0
M  V30 17457 H 1637.87 -1.88095 -4.46932 0
M  V30 17458 N 1639.21 1.50354 -0.472382 0
M  V30 17459 C 1640.44 2.07238 0.0820787 0
M  V30 17460 C 1640.86 1.3338 1.32632 0
M  V30 17461 O 1640.22 0.381857 1.77233 0
M  V30 17462 C 1640.27 3.58919 0.347746 0
M  V30 17463 O 1639.37 3.86888 1.42799 0
M  V30 17464 H 1638.71 0.663862 -0.0135544 0
M  V30 17465 H 1641.24 1.93533 -0.663795 0
M  V30 17466 H 1641.25 4.03743 0.587855 0
M  V30 17467 H 1639.93 4.12093 -0.56147 0
M  V30 17468 H 1638.51 3.53901 1.17509 0
M  V30 17469 N 1640.69 0.205039 1.56261 0
M  V30 17470 C 1641.64 -0.711828 2.19549 0
M  V30 17471 C 1642.61 -1.2025 1.14582 0
M  V30 17472 O 1643.79 -1.26459 1.42873 0
M  V30 17473 C 1640.93 -1.92152 2.86656 0
M  V30 17474 C 1640.05 -1.47129 4.06174 0
M  V30 17475 C 1639.18 -2.63726 4.6111 0
M  V30 17476 C 1638.22 -2.15357 5.72964 0
M  V30 17477 N 1637.36 -3.25167 6.22263 0
M  V30 17478 H 1642.2 -0.165392 2.97541 0
M  V30 17479 H 1639.73 -0.0698889 1.46934 0
M  V30 17480 H 1641.69 -2.63152 3.23739 0
M  V30 17481 H 1640.32 -2.4411 2.11211 0
M  V30 17482 H 1639.37 -0.656797 3.74687 0
M  V30 17483 H 1640.69 -1.0765 4.87045 0
M  V30 17484 H 1639.84 -3.42833 5.0055 0
M  V30 17485 H 1638.58 -3.06484 3.79367 0
M  V30 17486 H 1637.58 -1.34706 5.33043 0
M  V30 17487 H 1638.81 -1.73618 6.56532 0
M  V30 17488 H 1636.76 -3.67438 5.43439 0
M  V30 17489 H 1636.67 -2.89888 6.98213 0
M  V30 17490 H 1637.94 -4.0446 6.66358 0
M  V30 17491 N 1642.17 -1.57451 -0.0684915 0
M  V30 17492 C 1643.1 -1.99219 -1.11297 0
M  V30 17493 C 1644.08 -0.869657 -1.37389 0
M  V30 17494 O 1645.26 -1.13224 -1.50707 0
M  V30 17495 C 1642.39 -2.33172 -2.4566 0
M  V30 17496 C 1641.44 -3.55467 -2.35681 0
M  V30 17497 S 1642.27 -5.06175 -1.74777 0
M  V30 17498 C 1643.43 -5.43332 -3.10711 0
M  V30 17499 H 1643.66 -2.875 -0.757037 0
M  V30 17500 H 1641.19 -1.51892 -0.27714 0
M  V30 17501 H 1643.15 -2.53407 -3.22947 0
M  V30 17502 H 1641.81 -1.45413 -2.78413 0
M  V30 17503 H 1641 -3.76751 -3.34775 0
M  V30 17504 H 1640.61 -3.34879 -1.6653 0
M  V30 17505 H 1642.9 -5.41605 -4.07026 0
M  V30 17506 H 1643.84 -6.44089 -2.94203 0
M  V30 17507 H 1644.25 -4.70795 -3.11468 0
M  V30 17508 N 1643.65 0.339955 -1.5389 0
M  V30 17509 C 1644.9 1.07723 -1.70524 0
M  V30 17510 C 1645.21 1.89693 -0.477058 0
M  V30 17511 O 1646.42 2.66387 -0.524424 0
M  V30 17512 C 1644.87 1.96455 -3.01551 0
M  V30 17513 C 1644.48 1.19675 -4.3172 0
M  V30 17514 C 1646.22 2.70019 -3.27552 0
M  V30 17515 C 1644.13 2.07458 -5.53819 0
M  V30 17516 H 1643.06 0.405877 -0.635437 0
M  V30 17517 H 1645.71 0.336489 -1.80388 0
M  V30 17518 H 1644.09 2.74364 -2.85553 0
M  V30 17519 H 1645.27 0.466526 -4.58432 0
M  V30 17520 H 1643.58 0.578651 -4.1236 0
M  V30 17521 H 1646.18 3.35973 -4.15964 0
M  V30 17522 H 1646.52 3.36779 -2.44716 0
M  V30 17523 H 1647.06 1.99182 -3.44342 0
M  V30 17524 H 1643.79 1.45234 -6.39208 0
M  V30 17525 H 1643.31 2.7826 -5.31349 0
M  V30 17526 H 1644.99 2.66428 -5.89598 0
M  V30 17527 N 1645.13 1.45684 0.601159 0
M  V30 17528 C 1646.06 1.50861 1.7255 0
M  V30 17529 C 1647.07 0.398728 1.57842 0
M  V30 17530 O 1648.26 0.66613 1.65605 0
M  V30 17531 C 1645.36 1.35535 3.10618 0
M  V30 17532 C 1644.53 2.60313 3.51505 0
M  V30 17533 C 1643.59 2.39451 4.68561 0
M  V30 17534 O 1642.62 3.13094 4.75353 0
M  V30 17535 N 1643.82 1.44426 5.62247 0
M  V30 17536 H 1646.58 2.47799 1.6857 0
M  V30 17537 H 1644.15 1.41505 0.786626 0
M  V30 17538 H 1646.14 1.19379 3.86692 0
M  V30 17539 H 1644.71 0.468492 3.09069 0
M  V30 17540 H 1643.93 2.9154 2.65327 0
M  V30 17541 H 1645.22 3.43242 3.75583 0
M  V30 17542 H 1644.61 0.836624 5.59479 0
M  V30 17543 H 1643.17 1.34239 6.37827 0
M  V30 17544 N 1646.6 -0.84422 1.33082 0
M  V30 17545 C 1647.54 -1.95789 1.17226 0
M  V30 17546 C 1648.51 -1.62453 0.0690721 0
M  V30 17547 O 1649.7 -1.87088 0.230322 0
M  V30 17548 C 1646.83 -3.29193 0.796847 0
M  V30 17549 C 1645.87 -3.81503 1.90677 0
M  V30 17550 S 1646.7 -4.03828 3.51686 0
M  V30 17551 C 1647.86 -5.40191 3.16139 0
M  V30 17552 H 1648.09 -2.08938 2.115 0
M  V30 17553 H 1645.63 -0.99739 1.17862 0
M  V30 17554 H 1647.58 -4.06281 0.587018 0
M  V30 17555 H 1646.25 -3.13842 -0.127199 0
M  V30 17556 H 1645.44 -4.78018 1.59734 0
M  V30 17557 H 1645.04 -3.11293 2.07299 0
M  V30 17558 H 1647.33 -6.22827 2.66632 0
M  V30 17559 H 1648.28 -5.76105 4.11715 0
M  V30 17560 H 1648.68 -5.04691 2.52879 0
M  V30 17561 N 1648.08 -1.16463 -1.0618 0
M  V30 17562 C 1649.04 -0.874674 -2.11854 0
M  V30 17563 C 1650.04 0.130829 -1.60267 0
M  V30 17564 O 1651.23 -0.100195 -1.73912 0
M  V30 17565 C 1648.37 -0.30826 -3.39503 0
M  V30 17566 H 1649.56 -1.81149 -2.39009 0
M  V30 17567 H 1647.11 -0.973721 -1.22264 0
M  V30 17568 H 1647.85 0.636181 -3.17999 0
M  V30 17569 H 1647.63 -1.03281 -3.78253 0
M  V30 17570 H 1649.12 -0.123378 -4.17418 0
M  V30 17571 N 1649.56 1.24734 -0.963288 0
M  V30 17572 C 1650.81 1.92305 -0.621536 0
M  V30 17573 C 1651.13 1.75723 0.845363 0
M  V30 17574 O 1650.4 1.1261 1.60299 0
M  V30 17575 H 1648.98 0.71171 -0.226886 0
M  V30 17576 H 1651.64 1.5172 -1.2234 0
M  V30 17577 H 1650.74 3.00065 -0.858322 0
M  V30 17578 N 1651.04 0.732878 1.39523 0
M  V30 17579 C 1651.95 0.0930216 2.34416 0
M  V30 17580 C 1652.96 -0.724309 1.58208 0
M  V30 17581 O 1654.14 -0.653267 1.90511 0
M  V30 17582 C 1651.2 -0.805036 3.37224 0
M  V30 17583 C 1650.27 0.0243049 4.29293 0
M  V30 17584 C 1649.5 -0.830984 5.27191 0
M  V30 17585 O 1649.72 -2.06977 5.31523 0
M  V30 17586 O 1648.66 -0.260772 6.01335 0
M  V30 17587 H 1652.48 0.876179 2.90786 0
M  V30 17588 H 1650.07 0.493525 1.41013 0
M  V30 17589 H 1651.95 -1.31894 4.00228 0
M  V30 17590 H 1650.62 -1.56704 2.83241 0
M  V30 17591 H 1649.53 0.583677 3.69519 0
M  V30 17592 H 1650.86 0.748485 4.86476 0
M  V30 17593 N 1652.52 -1.50101 0.480349 0
M  V30 17594 C 1653.76 -2.01567 -0.073165 0
M  V30 17595 C 1654.08 -1.36657 -1.39944 0
M  V30 17596 O 1655.28 -1.79332 -2.03844 0
M  V30 17597 C 1653.74 -3.59445 -0.180889 0
M  V30 17598 C 1653.35 -4.33318 1.1375 0
M  V30 17599 C 1655.09 -4.18923 -0.685868 0
M  V30 17600 C 1653 -5.83003 0.99307 0
M  V30 17601 H 1651.93 -0.753358 -0.0311179 0
M  V30 17602 H 1654.58 -1.72829 0.616648 0
M  V30 17603 H 1652.96 -3.84811 -0.934693 0
M  V30 17604 H 1654.14 -4.1967 1.90299 0
M  V30 17605 H 1652.45 -3.85492 1.57431 0
M  V30 17606 H 1655.05 -5.28512 -0.811109 0
M  V30 17607 H 1655.39 -3.80916 -1.67955 0
M  V30 17608 H 1655.92 -3.97799 0.0108117 0
M  V30 17609 H 1652.66 -6.25499 1.9604 0
M  V30 17610 H 1652.18 -5.992 0.268128 0
M  V30 17611 H 1653.86 -6.4359 0.663417 0
M  V30 17612 N 1653.99 -0.213323 -1.5615 0
M  V30 17613 C 1654.96 0.686579 -2.18675 0
M  V30 17614 C 1655.96 1.1277 -1.14628 0
M  V30 17615 O 1657.15 1.03783 -1.39909 0
M  V30 17616 C 1654.28 1.93954 -2.80347 0
M  V30 17617 H 1655.47 0.141578 -2.99566 0
M  V30 17618 H 1653.02 0.0362987 -1.56258 0
M  V30 17619 H 1653.76 2.52661 -2.03304 0
M  V30 17620 H 1653.54 1.63179 -3.56532 0
M  V30 17621 H 1655.03 2.58087 -3.283 0
M  V30 17622 N 1655.47 1.57485 0.0601405 0
M  V30 17623 C 1656.75 1.78904 0.790732 0
M  V30 17624 C 1657.13 0.803802 1.95198 0
M  V30 17625 O 1656.48 -0.16067 2.27934 0
M  V30 17626 C 1656.69 3.25738 1.25282 0
M  V30 17627 C 1658.04 3.89887 1.68147 0
M  V30 17628 O 1659.06 3.297 1.3482 0
M  V30 17629 O 1657.92 4.95796 2.29889 0
M  V30 17630 H 1655.01 0.734623 0.379814 0
M  V30 17631 H 1657.56 1.69654 0.0393151 0
M  V30 17632 H 1656.33 3.89013 0.422442 0
M  V30 17633 H 1655.95 3.39757 2.06521 0
M  V30 17634 N 1656.95 -0.331789 1.54068 0
M  V30 17635 C 1658.2 -1.06858 1.71539 0
M  V30 17636 C 1658.52 -1.88808 0.487506 0
M  V30 17637 O 1657.79 -1.8945 -0.498539 0
M  V30 17638 H 1656.37 -0.3975 0.632457 0
M  V30 17639 H 1659.03 -0.370216 1.91352 0
M  V30 17640 H 1658.13 -1.73929 2.59143 0
M  V30 17641 N 1658.43 -1.46001 -0.593424 0
M  V30 17642 C 1659.36 -1.50255 -1.71752 0
M  V30 17643 C 1660.34 -0.357601 -1.58619 0
M  V30 17644 O 1661.52 -0.560187 -1.79984 0
M  V30 17645 C 1658.65 -1.37099 -3.09712 0
M  V30 17646 C 1657.7 -2.5564 -3.41395 0
M  V30 17647 S 1658.53 -4.1805 -3.34656 0
M  V30 17648 C 1659.69 -4.07384 -4.75173 0
M  V30 17649 H 1659.92 -2.45363 -1.67882 0
M  V30 17650 H 1657.45 -1.33756 -0.771275 0
M  V30 17651 H 1659.41 -1.30197 -3.89306 0
M  V30 17652 H 1658.07 -0.434384 -3.11082 0
M  V30 17653 H 1657.26 -2.42399 -4.41881 0
M  V30 17654 H 1656.87 -2.59478 -2.69346 0
M  V30 17655 H 1659.16 -3.73403 -5.65311 0
M  V30 17656 H 1660.1 -5.07831 -4.9347 0
M  V30 17657 H 1660.51 -3.38808 -4.51519 0
M  V30 17658 N 1659.91 0.83715 -1.33527 0
M  V30 17659 C 1660.87 1.92865 -1.23837 0
M  V30 17660 C 1661.87 1.60032 -0.157005 0
M  V30 17661 O 1663.06 1.69339 -0.408654 0
M  V30 17662 C 1660.19 3.28568 -0.908617 0
M  V30 17663 H 1661.38 2.02883 -2.20859 0
M  V30 17664 H 1658.94 1.02944 -1.1761 0
M  V30 17665 H 1659.67 3.24246 0.0590328 0
M  V30 17666 H 1659.46 3.53779 -1.69064 0
M  V30 17667 H 1660.95 4.0853 -0.86561 0
M  V30 17668 N 1661.38 1.17024 1.05561 0
M  V30 17669 C 1662.61 0.979328 1.81914 0
M  V30 17670 C 1663.02 -0.475688 1.83122 0
M  V30 17671 O 1662.37 -1.34205 1.25438 0
M  V30 17672 C 1662.43 1.4391 3.29439 0
M  V30 17673 C 1662.09 2.9155 3.5192 0
M  V30 17674 C 1663.09 3.89509 3.44353 0
M  V30 17675 C 1660.77 3.2964 3.79003 0
M  V30 17676 C 1662.77 5.23557 3.63548 0
M  V30 17677 C 1660.45 4.63855 3.97846 0
M  V30 17678 C 1661.45 5.60623 3.90117 0
M  V30 17679 O 1661.14 6.92411 4.08439 0
M  V30 17680 H 1660.87 0.34689 0.58021 0
M  V30 17681 H 1663.43 1.55641 1.34034 0
M  V30 17682 H 1661.66 0.805555 3.78216 0
M  V30 17683 H 1663.35 1.21445 3.87306 0
M  V30 17684 H 1664.11 3.61428 3.23412 0
M  V30 17685 H 1659.99 2.54891 3.84124 0
M  V30 17686 H 1663.53 5.99074 3.5743 0
M  V30 17687 H 1659.43 4.91644 4.18278 0
M  V30 17688 H 1660.2 6.99095 4.25685 0
M  V30 17689 N 1662.86 -1.24221 0.969889 0
M  V30 17690 C 1663.79 -2.27619 0.520745 0
M  V30 17691 C 1664.77 -1.64291 -0.440731 0
M  V30 17692 O 1665.96 -1.91265 -0.336381 0
M  V30 17693 C 1663.09 -3.46792 -0.187768 0
M  V30 17694 C 1662.04 -4.22402 0.689945 0
M  V30 17695 C 1661.37 -5.34489 -0.150186 0
M  V30 17696 C 1662.67 -4.83494 1.97562 0
M  V30 17697 H 1664.36 -2.65441 1.38498 0
M  V30 17698 H 1661.91 -1.276 0.667398 0
M  V30 17699 H 1663.86 -4.18263 -0.513216 0
M  V30 17700 H 1662.59 -3.08002 -1.08637 0
M  V30 17701 H 1661.24 -3.52734 0.998696 0
M  V30 17702 H 1660.89 -4.9194 -1.049 0
M  V30 17703 H 1660.59 -5.85996 0.433891 0
M  V30 17704 H 1662.12 -6.08786 -0.470255 0
M  V30 17705 H 1663.53 -5.47028 1.71561 0
M  V30 17706 H 1661.93 -5.45243 2.5066 0
M  V30 17707 H 1663 -4.04826 2.66915 0
M  V30 17708 N 1664.34 -0.740267 -1.39132 0
M  V30 17709 C 1665.29 -0.0929334 -2.32414 0
M  V30 17710 C 1666.28 0.720062 -1.53334 0
M  V30 17711 O 1667.49 0.620656 -1.68961 0
M  V30 17712 H 1663.86 -0.0112531 -0.751916 0
M  V30 17713 H 1665.83 -0.895975 -2.84631 0
M  V30 17714 C 1664.58 0.796182 -3.38462 0
M  V30 17715 H 1663.91 0.17999 -3.99395 0
M  V30 17716 H 1665.35 1.21664 -4.0617 0
M  V30 17717 C 1663.81 1.93285 -2.75939 0
M  V30 17718 O 1664.34 3.02593 -2.64198 0
M  V30 17719 N 1662.54 1.72386 -2.33948 0
M  V30 17720 H 1662.09 0.834821 -2.43698 0
M  V30 17721 H 1662.05 2.48612 -1.92456 0
M  V30 17722 N 1665.82 1.49844 -0.488302 0
M  V30 17723 C 1666.78 2.27412 0.285706 0
M  V30 17724 C 1667.78 1.32897 0.905261 0
M  V30 17725 O 1668.97 1.56171 0.771763 0
M  V30 17726 C 1666.1 3.10435 1.40864 0
M  V30 17727 H 1667.3 2.9729 -0.394782 0
M  V30 17728 H 1664.85 1.54401 -0.242873 0
M  V30 17729 H 1665.58 2.45094 2.12367 0
M  V30 17730 H 1665.37 3.79913 0.969991 0
M  V30 17731 H 1666.86 3.69054 1.95419 0
M  V30 17732 N 1667.3 0.221601 1.56034 0
M  V30 17733 C 1668.24 -0.704963 2.2166 0
M  V30 17734 C 1669.24 -1.19966 1.19601 0
M  V30 17735 O 1670.44 -1.15949 1.37681 0
M  V30 17736 H 1666.82 -0.245758 0.710709 0
M  V30 17737 H 1668.79 -0.128041 2.98125 0
M  V30 17738 C 1667.54 -1.90234 2.91043 0
M  V30 17739 H 1666.86 -1.53079 3.69333 0
M  V30 17740 H 1668.3 -2.52844 3.40361 0
M  V30 17741 C 1666.76 -2.75777 1.93516 0
M  V30 17742 O 1667.29 -3.74534 1.45214 0
M  V30 17743 N 1665.5 -2.41815 1.61165 0
M  V30 17744 H 1665.04 -1.61561 2.00639 0
M  V30 17745 H 1665 -2.9933 0.96172 0
M  V30 17746 N 1668.77 -1.57515 -0.0517878 0
M  V30 17747 C 1669.72 -2.05051 -1.05937 0
M  V30 17748 C 1670.69 -0.935032 -1.37282 0
M  V30 17749 O 1671.88 -1.20408 -1.48009 0
M  V30 17750 C 1669.02 -2.51594 -2.36208 0
M  V30 17751 C 1668.13 -3.76843 -2.11219 0
M  V30 17752 C 1667.26 -4.12088 -3.35197 0
M  V30 17753 C 1666.3 -5.30318 -3.05662 0
M  V30 17754 N 1665.44 -5.61104 -4.22026 0
M  V30 17755 H 1670.28 -2.90891 -0.647027 0
M  V30 17756 H 1667.82 -1.43842 -0.307891 0
M  V30 17757 H 1669.78 -2.76638 -3.12293 0
M  V30 17758 H 1668.41 -1.68704 -2.75207 0
M  V30 17759 H 1667.46 -3.5902 -1.25734 0
M  V30 17760 H 1668.77 -4.63057 -1.85416 0
M  V30 17761 H 1667.92 -4.38139 -4.19666 0
M  V30 17762 H 1666.66 -3.24479 -3.64094 0
M  V30 17763 H 1665.67 -5.04043 -2.19592 0
M  V30 17764 H 1666.89 -6.19561 -2.78067 0
M  V30 17765 H 1664.84 -4.76456 -4.50917 0
M  V30 17766 H 1664.76 -6.4178 -3.99568 0
M  V30 17767 H 1666.02 -5.91719 -5.07434 0
M  V30 17768 N 1670.25 0.323614 -1.54242 0
M  V30 17769 C 1671.5 1.06156 -1.72444 0
M  V30 17770 C 1671.83 1.88013 -0.498116 0
M  V30 17771 O 1671.08 1.88661 0.520133 0
M  V30 17772 C 1671.38 2.01452 -2.95215 0
M  V30 17773 C 1671.05 1.3575 -4.2998 0
M  V30 17774 C 1669.71 1.17563 -4.66618 0
M  V30 17775 C 1672.06 0.885938 -5.13615 0
M  V30 17776 C 1669.39 0.508674 -5.84491 0
M  V30 17777 C 1671.74 0.232807 -6.32171 0
M  V30 17778 C 1670.41 0.0387807 -6.67489 0
M  V30 17779 H 1669.68 0.388454 -0.631019 0
M  V30 17780 H 1672.32 0.338714 -1.88481 0
M  V30 17781 H 1670.63 2.80188 -2.73865 0
M  V30 17782 H 1672.33 2.5858 -3.06492 0
M  V30 17783 H 1668.92 1.50908 -4.01154 0
M  V30 17784 H 1673.1 1.01424 -4.85826 0
M  V30 17785 H 1668.36 0.347149 -6.10414 0
M  V30 17786 H 1672.53 -0.140594 -6.96258 0
M  V30 17787 H 1670.16 -0.480052 -7.58683 0
M  V30 17788 N 1671.73 1.46313 0.585673 0
M  V30 17789 C 1672.98 1.51694 1.34598 0
M  V30 17790 C 1673.31 0.166889 1.93482 0
M  V30 17791 O 1672.59 -0.821331 1.76308 0
M  V30 17792 C 1672.87 2.61322 2.47755 0
M  V30 17793 C 1672.72 4.05848 1.93926 0
M  V30 17794 C 1674.04 2.67058 3.49812 0
M  V30 17795 H 1671.16 0.552253 0.488043 0
M  V30 17796 H 1673.8 1.78235 0.658201 0
M  V30 17797 H 1671.95 2.38822 3.06425 0
M  V30 17798 H 1673.62 4.39626 1.39736 0
M  V30 17799 H 1671.87 4.15468 1.24775 0
M  V30 17800 H 1672.54 4.78279 2.75596 0
M  V30 17801 H 1675.01 2.87276 3.01018 0
M  V30 17802 H 1673.89 3.45589 4.2645 0
M  V30 17803 H 1674.15 1.72993 4.06849 0
M  V30 17804 N 1673.21 -0.830057 1.33969 0
M  V30 17805 C 1674.16 -1.9292 1.21516 0
M  V30 17806 C 1675.14 -1.60482 0.115907 0
M  V30 17807 O 1676.34 -1.73608 0.344875 0
M  V30 17808 C 1673.46 -3.29442 0.96554 0
M  V30 17809 C 1672.55 -3.68021 2.10763 0
M  V30 17810 N 1672.94 -3.78222 3.3583 0
M  V30 17811 C 1671.24 -3.97821 2.01629 0
M  V30 17812 C 1671.94 -4.11858 4.10789 0
M  V30 17813 N 1670.92 -4.24698 3.39312 0
M  V30 17814 H 1674.72 -1.98974 2.16302 0
M  V30 17815 H 1672.23 -1.0233 1.26104 0
M  V30 17816 H 1674.23 -4.07991 0.857238 0
M  V30 17817 H 1672.89 -3.24689 0.0262975 0
M  V30 17818 H 1673.9 -3.61901 3.7047 0
M  V30 17819 H 1670.58 -4.01229 1.15418 0
M  V30 17820 H 1671.97 -4.27014 5.18757 0
M  V30 17821 N 1674.69 -1.17582 -1.04939 0
M  V30 17822 C 1676.1 -0.923633 -1.30158 0
M  V30 17823 C 1676.3 0.415798 -1.97163 0
M  V30 17824 O 1675.36 1.15218 -2.2468 0
M  V30 17825 C 1676.67 -2.0828 -2.16887 0
M  V30 17826 C 1678.22 -2.12011 -2.30262 0
M  V30 17827 C 1678.7 -3.2732 -3.20352 0
M  V30 17828 N 1680.19 -3.27125 -3.27939 0
M  V30 17829 C 1680.92 -4.12988 -3.97779 0
M  V30 17830 N 1680.42 -5.08968 -4.70025 0
M  V30 17831 N 1682.21 -4.0093 -3.93969 0
M  V30 17832 H 1674.36 -2.03794 -0.598485 0
M  V30 17833 H 1676.62 -0.889991 -0.326528 0
M  V30 17834 H 1676.33 -3.051 -1.74948 0
M  V30 17835 H 1676.2 -2.03599 -3.17533 0
M  V30 17836 H 1678.59 -1.15774 -2.71441 0
M  V30 17837 H 1678.67 -2.20752 -1.29236 0
M  V30 17838 H 1678.32 -4.23823 -2.79886 0
M  V30 17839 H 1678.25 -3.15814 -4.21389 0
M  V30 17840 H 1680.74 -2.57634 -2.76465 0
M  V30 17841 H 1681.05 -5.70876 -5.20885 0
M  V30 17842 H 1679.4 -5.12935 -4.68959 0
M  V30 17843 H 1682.59 -3.2524 -3.36654 0
M  V30 17844 H 1682.76 -4.68065 -4.48128 0
M  V30 17845 N 1676.17 1.23705 -0.976463 0
M  V30 17846 C 1677.44 1.87421 -0.559719 0
M  V30 17847 C 1677.82 1.87847 0.963166 0
M  V30 17848 O 1677.17 1.35726 1.83822 0
M  V30 17849 C 1677.38 3.29113 -1.16128 0
M  V30 17850 C 1678.73 4.05735 -1.25158 0
M  V30 17851 O 1679.75 3.38317 -1.11444 0
M  V30 17852 O 1678.61 5.26377 -1.46933 0
M  V30 17853 H 1675.71 0.80537 -0.187903 0
M  V30 17854 H 1678.25 1.31611 -1.07129 0
M  V30 17855 H 1677.02 3.23348 -2.20367 0
M  V30 17856 H 1676.65 3.92508 -0.63428 0
M  V30 17857 N 1677.64 0.747635 1.38738 0
M  V30 17858 C 1678.57 0.131317 2.3313 0
M  V30 17859 C 1679.55 -0.710229 1.54563 0
M  V30 17860 O 1680.74 -0.652631 1.82905 0
M  V30 17861 C 1677.87 -0.767168 3.38721 0
M  V30 17862 C 1676.82 -0.0288124 4.2799 0
M  V30 17863 C 1676.15 -1.04515 5.24386 0
M  V30 17864 C 1677.45 1.13608 5.09795 0
M  V30 17865 H 1679.14 0.91981 2.84921 0
M  V30 17866 H 1676.69 0.443764 1.36992 0
M  V30 17867 H 1678.64 -1.20796 4.03716 0
M  V30 17868 H 1677.37 -1.58792 2.85399 0
M  V30 17869 H 1676.03 0.392491 3.64493 0
M  V30 17870 H 1675.67 -1.8598 4.67355 0
M  V30 17871 H 1675.37 -0.555813 5.84965 0
M  V30 17872 H 1676.9 -1.48538 5.92257 0
M  V30 17873 H 1678.31 0.773129 5.68063 0
M  V30 17874 H 1676.71 1.55589 5.79579 0
M  V30 17875 H 1677.78 1.95182 4.43883 0
M  V30 17876 N 1679.12 -1.49583 0.496242 0
M  V30 17877 C 1680.08 -2.27561 -0.273642 0
M  V30 17878 C 1681.08 -1.33375 -0.8982 0
M  V30 17879 O 1682.27 -1.56578 -0.76347 0
M  V30 17880 C 1679.41 -3.11178 -1.39216 0
M  V30 17881 H 1680.6 -2.97077 0.410543 0
M  V30 17882 H 1678.15 -1.54271 0.251058 0
M  V30 17883 H 1678.89 -2.46217 -2.11064 0
M  V30 17884 H 1678.67 -3.80422 -0.949829 0
M  V30 17885 H 1680.16 -3.70085 -1.93459 0
M  V30 17886 N 1680.6 -0.229873 -1.55915 0
M  V30 17887 C 1681.56 0.663347 -2.19391 0
M  V30 17888 C 1682.56 1.11548 -1.15818 0
M  V30 17889 O 1683.75 1.02294 -1.41002 0
M  V30 17890 C 1680.88 1.9097 -2.82389 0
M  V30 17891 H 1682.08 0.109797 -2.99699 0
M  V30 17892 H 1679.63 0.0197234 -1.56288 0
M  V30 17893 H 1680.37 2.50491 -2.05973 0
M  V30 17894 H 1680.15 1.59388 -3.58243 0
M  V30 17895 H 1681.64 2.5459 -3.31019 0
M  V30 17896 N 1682.08 1.5754 0.0434337 0
M  V30 17897 C 1683.49 1.54537 0.398819 0
M  V30 17898 C 1683.69 0.954055 1.77483 0
M  V30 17899 O 1682.75 0.568839 2.46009 0
M  V30 17900 C 1684.06 2.99058 0.313848 0
M  V30 17901 C 1685.61 3.10536 0.39198 0
M  V30 17902 C 1686.09 4.56761 0.336614 0
M  V30 17903 N 1687.58 4.61505 0.395844 0
M  V30 17904 C 1688.31 5.72168 0.375669 0
M  V30 17905 N 1687.81 6.92112 0.30863 0
M  V30 17906 N 1689.6 5.60496 0.424335 0
M  V30 17907 H 1681.75 1.94333 -0.857225 0
M  V30 17908 H 1684.01 0.890708 -0.324566 0
M  V30 17909 H 1683.72 3.4599 -0.631159 0
M  V30 17910 H 1683.59 3.60402 1.11313 0
M  V30 17911 H 1685.98 2.6356 1.32742 0
M  V30 17912 H 1686.06 2.5205 -0.436391 0
M  V30 17913 H 1685.71 5.04402 -0.595093 0
M  V30 17914 H 1685.64 5.13142 1.1829 0
M  V30 17915 H 1688.13 3.75202 0.450753 0
M  V30 17916 H 1688.44 7.72225 0.29794 0
M  V30 17917 H 1686.79 6.94456 0.274891 0
M  V30 17918 H 1689.98 4.65688 0.474599 0
M  V30 17919 H 1690.15 6.46732 0.405143 0
M  V30 17920 N 1683.56 -0.31543 1.54411 0
M  V30 17921 C 1684.5 -1.4086 1.85098 0
M  V30 17922 C 1685.5 -1.53172 0.723518 0
M  V30 17923 O 1686.7 -1.55461 0.907303 0
M  V30 17924 H 1683.08 -0.47022 0.586853 0
M  V30 17925 H 1685.05 -1.12207 2.765 0
M  V30 17926 C 1683.8 -2.76948 2.10227 0
M  V30 17927 H 1683.12 -2.68251 2.96448 0
M  V30 17928 H 1684.56 -3.52486 2.35647 0
M  V30 17929 C 1683.02 -3.24758 0.896312 0
M  V30 17930 O 1683.55 -4.0155 0.109609 0
M  V30 17931 N 1681.76 -2.81901 0.705685 0
M  V30 17932 H 1681.3 -2.19571 1.34708 0
M  V30 17933 H 1681.26 -3.14242 -0.0996804 0
M  V30 17934 N 1685.03 -1.46622 -0.577906 0
M  V30 17935 C 1686.27 -1.53743 -1.34694 0
M  V30 17936 C 1686.64 -0.186609 -1.91091 0
M  V30 17937 O 1687.84 -0.132588 -2.68473 0
M  V30 17938 C 1686.11 -2.60908 -2.44258 0
M  V30 17939 S 1687.67 -2.87468 -3.31523 0
M  V30 17940 H 1684.49 -0.543138 -0.458827 0
M  V30 17941 H 1687.09 -1.83884 -0.663842 0
M  V30 17942 H 1685.79 -3.57682 -2.01225 0
M  V30 17943 H 1685.32 -2.32515 -3.17333 0
M  V30 17944 H 1687.34 -2.23104 -4.43214 0
M  V30 17945 N 1686.51 0.822941 -1.34408 0
M  V30 17946 C 1687.45 1.93899 -1.20326 0
M  V30 17947 C 1688.42 1.62323 -0.0949083 0
M  V30 17948 O 1689.61 1.86698 -0.260056 0
M  V30 17949 C 1686.73 3.27884 -0.849118 0
M  V30 17950 C 1685.78 3.78421 -1.96723 0
M  V30 17951 S 1686.61 3.98182 -3.58066 0
M  V30 17952 C 1687.77 5.35094 -3.24693 0
M  V30 17953 H 1688 2.05547 -2.14797 0
M  V30 17954 H 1685.54 0.978513 -1.19434 0
M  V30 17955 H 1687.49 4.05296 -0.651579 0
M  V30 17956 H 1686.15 3.14005 0.0772533 0
M  V30 17957 H 1685.35 4.75416 -1.67318 0
M  V30 17958 H 1684.95 3.07955 -2.12225 0
M  V30 17959 H 1687.24 6.18507 -2.76507 0
M  V30 17960 H 1688.18 5.69482 -4.20828 0
M  V30 17961 H 1688.59 5.00604 -2.60876 0
M  V30 17962 N 1687.99 1.18137 1.04314 0
M  V30 17963 C 1689.24 0.976648 1.77734 0
M  V30 17964 C 1689.57 -0.492756 1.87844 0
M  V30 17965 O 1688.84 -1.36586 1.38472 0
M  V30 17966 C 1689.13 1.62911 3.21142 0
M  V30 17967 C 1688.98 3.1712 3.1899 0
M  V30 17968 C 1690.3 1.34029 4.19195 0
M  V30 17969 H 1687.42 0.356217 0.645197 0
M  V30 17970 H 1690.06 1.45767 1.21868 0
M  V30 17971 H 1688.21 1.22009 3.68844 0
M  V30 17972 H 1689.88 3.67139 2.79296 0
M  V30 17973 H 1688.13 3.4941 2.57089 0
M  V30 17974 H 1688.8 3.57907 4.20245 0
M  V30 17975 H 1691.27 1.69463 3.80028 0
M  V30 17976 H 1690.15 1.82253 5.1776 0
M  V30 17977 H 1690.41 0.262712 4.41319 0
M  V30 17978 N 1689.47 -1.23186 0.98301 0
M  V30 17979 C 1690.43 -2.22979 0.530366 0
M  V30 17980 C 1691.43 -1.56211 -0.381421 0
M  V30 17981 O 1692.62 -1.73321 -0.17475 0
M  V30 17982 C 1689.75 -3.40124 -0.229882 0
M  V30 17983 H 1690.95 -2.64539 1.41277 0
M  V30 17984 H 1688.5 -1.36064 0.769172 0
M  V30 17985 H 1689.23 -3.04024 -1.12871 0
M  V30 17986 H 1689.02 -3.89794 0.424653 0
M  V30 17987 H 1690.51 -4.14158 -0.535078 0
M  V30 17988 N 1690.95 -0.754982 -1.38339 0
M  V30 17989 C 1691.86 -0.130303 -2.34238 0
M  V30 17990 C 1692.87 0.699048 -1.5934 0
M  V30 17991 O 1694.05 0.622876 -1.91526 0
M  V30 17992 C 1691.11 0.751285 -3.38462 0
M  V30 17993 C 1690.17 -0.0925987 -4.292 0
M  V30 17994 C 1689.41 0.747007 -5.28446 0
M  V30 17995 O 1689.63 1.98495 -5.34749 0
M  V30 17996 O 1688.56 0.165072 -6.01674 0
M  V30 17997 H 1692.39 -0.92233 -2.89356 0
M  V30 17998 H 1689.98 -0.515896 -1.4021 0
M  V30 17999 H 1691.86 1.2551 -4.02275 0
M  V30 18000 H 1690.53 1.52178 -2.85698 0
M  V30 18001 H 1689.44 -0.64239 -3.68543 0
M  V30 18002 H 1690.77 -0.825784 -4.85223 0
M  V30 18003 N 1692.42 1.49318 -0.504168 0
M  V30 18004 C 1693.7 1.95332 0.102393 0
M  V30 18005 C 1694.08 1.44576 1.53821 0
M  V30 18006 O 1693.43 0.660894 2.18734 0
M  V30 18007 C 1693.64 3.48998 0.0117694 0
M  V30 18008 C 1694.99 4.24201 0.184101 0
M  V30 18009 O 1696.01 3.56094 0.0868056 0
M  V30 18010 O 1694.87 5.45147 0.384267 0
M  V30 18011 H 1691.96 0.821691 0.0935582 0
M  V30 18012 H 1694.51 1.5995 -0.566932 0
M  V30 18013 H 1693.28 3.78585 -0.989413 0
M  V30 18014 H 1692.91 3.91006 0.7211 0
M  V30 18015 N 1693.9 0.238138 1.5579 0
M  V30 18016 C 1695.15 -0.389031 1.98728 0
M  V30 18017 C 1695.48 -1.58584 1.12612 0
M  V30 18018 O 1694.73 -1.94917 0.174879 0
M  V30 18019 C 1695.03 -0.850646 3.47129 0
M  V30 18020 C 1694.7 0.237442 4.50274 0
M  V30 18021 C 1693.36 0.536307 4.78202 0
M  V30 18022 C 1695.71 0.972476 5.12047 0
M  V30 18023 C 1693.04 1.57443 5.6518 0
M  V30 18024 C 1695.39 2.00006 6.0015 0
M  V30 18025 C 1694.06 2.30566 6.26415 0
M  V30 18026 H 1693.33 -0.142357 0.727197 0
M  V30 18027 H 1695.97 0.34413 1.88383 0
M  V30 18028 H 1694.28 -1.66286 3.54762 0
M  V30 18029 H 1695.97 -1.34604 3.77734 0
M  V30 18030 H 1692.56 -0.00564033 4.286 0
M  V30 18031 H 1696.75 0.75483 4.90526 0
M  V30 18032 H 1692 1.81664 5.83788 0
M  V30 18033 H 1696.18 2.57458 6.47061 0
M  V30 18034 H 1693.81 3.11148 6.93607 0
M  V30 18035 N 1695.38 -1.57561 -0.0350783 0
M  V30 18036 C 1696.61 -1.93251 -0.73903 0
M  V30 18037 C 1697.02 -0.83739 -1.69214 0
M  V30 18038 O 1696.38 0.186669 -1.81543 0
M  V30 18039 C 1696.43 -3.28853 -1.50127 0
M  V30 18040 O 1696.15 -4.34157 -0.586426 0
M  V30 18041 C 1697.65 -3.78788 -2.30292 0
M  V30 18042 H 1694.87 -0.63793 -0.208053 0
M  V30 18043 H 1697.42 -2.04499 0.00560398 0
M  V30 18044 H 1695.57 -3.1902 -2.19784 0
M  V30 18045 H 1695.99 -5.12395 -1.12034 0
M  V30 18046 H 1697.46 -4.76197 -2.79178 0
M  V30 18047 H 1697.94 -3.09671 -3.11449 0
M  V30 18048 H 1698.54 -3.91684 -1.65721 0
M  V30 18049 N 1696.86 0.307236 -1.54576 0
M  V30 18050 C 1698.1 1.04476 -1.73818 0
M  V30 18051 C 1698.44 1.87134 -0.519102 0
M  V30 18052 O 1697.71 1.88386 0.483852 0
M  V30 18053 C 1698 1.95594 -3.02349 0
M  V30 18054 C 1697.85 1.16158 -4.34543 0
M  V30 18055 C 1699.17 2.94865 -3.26715 0
M  V30 18056 H 1696.29 0.378415 -0.632433 0
M  V30 18057 H 1698.93 0.319955 -1.87287 0
M  V30 18058 H 1697.08 2.57396 -2.90997 0
M  V30 18059 H 1698.75 0.5669 -4.57803 0
M  V30 18060 H 1696.99 0.464158 -4.3131 0
M  V30 18061 H 1697.66 1.8315 -5.2073 0
M  V30 18062 H 1700.14 2.4319 -3.37636 0
M  V30 18063 H 1699.02 3.55791 -4.17976 0
M  V30 18064 H 1699.28 3.68195 -2.44714 0
M  V30 18065 N 1698.34 1.46926 0.570122 0
M  V30 18066 C 1699.28 1.58442 1.67824 0
M  V30 18067 C 1700.25 0.428053 1.6049 0
M  V30 18068 O 1701.44 0.646445 1.79515 0
M  V30 18069 C 1698.58 1.59253 3.06158 0
M  V30 18070 C 1697.69 2.85714 3.24024 0
M  V30 18071 C 1696.83 2.77945 4.52681 0
M  V30 18072 C 1695.87 3.99289 4.63934 0
M  V30 18073 N 1695 3.89833 5.83931 0
M  V30 18074 H 1699.84 2.5309 1.5732 0
M  V30 18075 H 1697.38 1.25549 0.766548 0
M  V30 18076 H 1699.34 1.57707 3.86244 0
M  V30 18077 H 1697.97 0.68127 3.15529 0
M  V30 18078 H 1697.02 2.97184 2.37458 0
M  V30 18079 H 1698.33 3.7561 3.28206 0
M  V30 18080 H 1697.49 2.74576 5.41011 0
M  V30 18081 H 1696.22 1.85711 4.50958 0
M  V30 18082 H 1695.23 4.02976 3.74019 0
M  V30 18083 H 1696.45 4.92635 4.67427 0
M  V30 18084 H 1694.4 3.00393 5.83181 0
M  V30 18085 H 1694.32 4.73395 5.89434 0
M  V30 18086 H 1695.59 3.90459 6.74657 0
M  V30 18087 N 1699.82 -0.815801 1.34842 0
M  V30 18088 C 1701.06 -1.56747 1.26938 0
M  V30 18089 C 1701.38 -1.9497 -0.156887 0
M  V30 18090 O 1702.58 -2.69128 -0.358132 0
M  V30 18091 C 1701.04 -2.82832 2.22562 0
M  V30 18092 C 1700.65 -2.51883 3.70485 0
M  V30 18093 C 1702.39 -3.60849 2.23581 0
M  V30 18094 C 1700.3 -3.74204 4.57957 0
M  V30 18095 H 1699.23 -0.58832 0.471588 0
M  V30 18096 H 1701.88 -0.897551 1.60051 0
M  V30 18097 H 1700.26 -3.51486 1.8241 0
M  V30 18098 H 1701.44 -1.91294 4.19217 0
M  V30 18099 H 1699.75 -1.87129 3.71983 0
M  V30 18100 H 1702.35 -4.51686 2.86154 0
M  V30 18101 H 1702.69 -3.97496 1.23703 0
M  V30 18102 H 1703.22 -2.99146 2.62215 0
M  V30 18103 H 1699.96 -3.42672 5.58799 0
M  V30 18104 H 1699.48 -4.34051 4.13956 0
M  V30 18105 H 1701.16 -4.41536 4.72921 0
M  V30 18106 N 1701.29 -1.18689 -1.03686 0
M  V30 18107 C 1702.54 -0.982656 -1.76602 0
M  V30 18108 C 1702.86 0.488553 -1.88781 0
M  V30 18109 O 1702.13 1.35419 -1.41558 0
M  V30 18110 H 1700.71 -0.360595 -0.654202 0
M  V30 18111 H 1703.37 -1.49439 -1.25115 0
M  V30 18112 H 1702.47 -1.42392 -2.77725 0
M  V30 18113 N 1702.77 1.22662 -0.989529 0
M  V30 18114 C 1704.05 1.86816 -0.579566 0
M  V30 18115 C 1704.43 1.88858 0.943188 0
M  V30 18116 O 1703.78 1.37668 1.82372 0
M  V30 18117 C 1703.99 3.27863 -1.19612 0
M  V30 18118 C 1705.33 4.04384 -1.29454 0
M  V30 18119 O 1706.36 3.37116 -1.15026 0
M  V30 18120 O 1705.22 5.24789 -1.52508 0
M  V30 18121 H 1702.31 0.803332 -0.196434 0
M  V30 18122 H 1704.86 1.30467 -1.08519 0
M  V30 18123 H 1703.63 3.20993 -2.23784 0
M  V30 18124 H 1703.25 3.91813 -0.675875 0
M  V30 18125 N 1704.25 0.762308 1.37937 0
M  V30 18126 C 1705.5 0.322369 1.99918 0
M  V30 18127 C 1705.82 -1.09843 1.60514 0
M  V30 18128 O 1705.08 -1.76837 0.83829 0
M  V30 18129 C 1705.38 0.402558 3.55126 0
M  V30 18130 C 1705.04 1.78025 4.14268 0
M  V30 18131 C 1703.71 2.15727 4.30134 0
M  V30 18132 C 1706.06 2.68359 4.46803 0
M  V30 18133 C 1703.39 3.43217 4.75835 0
M  V30 18134 C 1705.74 3.95248 4.93925 0
M  V30 18135 C 1704.4 4.33007 5.07997 0
M  V30 18136 H 1703.67 0.117963 0.73155 0
M  V30 18137 H 1706.32 0.974491 1.64851 0
M  V30 18138 H 1704.62 -0.333119 3.90381 0
M  V30 18139 H 1706.32 0.0436064 4.00976 0
M  V30 18140 H 1702.91 1.4772 4.02339 0
M  V30 18141 H 1707.1 2.40493 4.34139 0
M  V30 18142 H 1702.35 3.72379 4.84916 0
M  V30 18143 H 1706.53 4.6538 5.18068 0
M  V30 18144 H 1704.15 5.31856 5.4317 0
M  V30 18145 N 1705.73 -1.49049 0.51208 0
M  V30 18146 C 1706.98 -2.0208 -0.0284326 0
M  V30 18147 C 1707.3 -1.39303 -1.36454 0
M  V30 18148 O 1706.57 -0.552155 -1.87958 0
M  V30 18149 H 1705.15 -0.746878 -0.0134968 0
M  V30 18150 H 1707.81 -1.82954 0.671842 0
M  V30 18151 H 1706.9 -3.11739 -0.149966 0
M  V30 18152 N 1707.21 -0.246397 -1.55662 0
M  V30 18153 C 1708.14 0.693998 -2.17391 0
M  V30 18154 C 1709.12 1.17321 -1.12581 0
M  V30 18155 O 1710.3 1.25144 -1.40965 0
M  V30 18156 C 1707.43 1.94311 -2.77418 0
M  V30 18157 C 1706.47 1.60181 -3.95277 0
M  V30 18158 S 1707.31 0.704877 -5.30841 0
M  V30 18159 C 1708.46 1.96301 -5.94321 0
M  V30 18160 H 1708.7 0.169407 -2.96817 0
M  V30 18161 H 1706.23 -0.0308583 -1.54369 0
M  V30 18162 H 1708.19 2.66022 -3.12638 0
M  V30 18163 H 1706.85 2.43883 -1.97939 0
M  V30 18164 H 1706.04 2.53053 -4.35867 0
M  V30 18165 H 1705.64 0.965141 -3.61332 0
M  V30 18166 H 1707.93 2.91031 -6.11806 0
M  V30 18167 H 1708.88 1.6006 -6.89773 0
M  V30 18168 H 1709.29 2.11487 -5.23387 0
M  V30 18169 N 1708.68 1.57577 0.026722 0
M  V30 18170 C 1709.91 1.9364 0.728771 0
M  V30 18171 C 1710.33 0.846352 1.68767 0
M  V30 18172 O 1709.68 -0.177038 1.81639 0
M  V30 18173 C 1709.73 3.29644 1.48381 0
M  V30 18174 O 1709.46 4.34462 0.563393 0
M  V30 18175 C 1710.96 3.80004 2.2828 0
M  V30 18176 H 1708.18 0.639025 0.204666 0
M  V30 18177 H 1710.72 2.04493 -0.016449 0
M  V30 18178 H 1708.88 3.20181 2.18089 0
M  V30 18179 H 1709.29 5.12982 1.09315 0
M  V30 18180 H 1710.76 4.77671 2.76649 0
M  V30 18181 H 1711.24 3.11319 3.09802 0
M  V30 18182 H 1711.85 3.92558 1.63642 0
M  V30 18183 N 1710.16 -0.299034 1.54737 0
M  V30 18184 C 1711.58 -0.644805 1.45995 0
M  V30 18185 C 1711.78 -1.90634 0.652749 0
M  V30 18186 O 1710.83 -2.51985 0.161228 0
M  V30 18187 C 1712.15 -0.795974 2.89974 0
M  V30 18188 C 1713.69 -0.891731 3.00029 0
M  V30 18189 C 1714.17 -1.07488 4.45208 0
M  V30 18190 N 1715.66 -1.14104 4.48926 0
M  V30 18191 C 1716.4 -1.30108 5.58444 0
M  V30 18192 N 1715.89 -1.42998 6.77882 0
M  V30 18193 N 1717.68 -1.33012 5.46136 0
M  V30 18194 H 1709.84 0.529806 2.05686 0
M  V30 18195 H 1712.1 0.175406 0.931631 0
M  V30 18196 H 1711.8 0.0601375 3.51649 0
M  V30 18197 H 1711.68 -1.68437 3.37504 0
M  V30 18198 H 1714.07 -1.73833 2.38466 0
M  V30 18199 H 1714.15 0.0207194 2.55792 0
M  V30 18200 H 1713.79 -0.233045 5.07365 0
M  V30 18201 H 1713.72 -2.00159 4.87077 0
M  V30 18202 H 1716.21 -1.05488 3.62878 0
M  V30 18203 H 1716.52 -1.5497 7.57102 0
M  V30 18204 H 1714.87 -1.4005 6.80743 0
M  V30 18205 H 1718.06 -1.22555 4.51772 0
M  V30 18206 H 1718.23 -1.45141 6.31536 0
M  V30 18207 N 1711.64 -1.47227 -0.562322 0
M  V30 18208 C 1712.92 -1.44069 -1.32301 0
M  V30 18209 C 1713.3 -0.134912 -2.10668 0
M  V30 18210 O 1712.64 0.883603 -2.10724 0
M  V30 18211 C 1712.85 -2.68309 -2.23184 0
M  V30 18212 C 1714.2 -3.1531 -2.84367 0
M  V30 18213 O 1715.23 -2.69001 -2.33489 0
M  V30 18214 O 1714.09 -3.95805 -3.7683 0
M  V30 18215 H 1711.18 -0.573892 -0.595464 0
M  V30 18216 H 1713.73 -1.59421 -0.581648 0
M  V30 18217 H 1712.5 -3.54884 -1.64842 0
M  V30 18218 H 1712.12 -2.55518 -3.04625 0
M  V30 18219 N 1713.12 0.808639 -1.35273 0
M  V30 18220 C 1714.37 1.56071 -1.27768 0
M  V30 18221 C 1714.68 1.9505 0.146545 0
M  V30 18222 O 1715.89 2.69314 0.343855 0
M  V30 18223 C 1714.34 2.81648 -2.24059 0
M  V30 18224 C 1713.95 2.49915 -3.71815 0
M  V30 18225 C 1715.69 3.59658 -2.25492 0
M  V30 18226 C 1713.6 3.7177 -4.59936 0
M  V30 18227 H 1712.53 0.585811 -0.474701 0
M  V30 18228 H 1715.18 0.889051 -1.60525 0
M  V30 18229 H 1713.56 3.50514 -1.84271 0
M  V30 18230 H 1714.74 1.89068 -4.20226 0
M  V30 18231 H 1713.05 1.85154 -3.72971 0
M  V30 18232 H 1715.65 4.50162 -2.88545 0
M  V30 18233 H 1715.99 3.96835 -1.2581 0
M  V30 18234 H 1716.53 2.97751 -2.63798 0
M  V30 18235 H 1713.26 3.39704 -5.60608 0
M  V30 18236 H 1712.78 4.3185 -4.16252 0
M  V30 18237 H 1714.46 4.39022 -4.75256 0
M  V30 18238 N 1714.6 1.19237 1.03055 0
M  V30 18239 C 1715.83 1.01769 1.79796 0
M  V30 18240 C 1716.23 -0.436738 1.8409 0
M  V30 18241 O 1715.58 -1.31514 1.28257 0
M  V30 18242 C 1715.64 1.50866 3.26312 0
M  V30 18243 C 1715.3 2.98949 3.45657 0
M  V30 18244 C 1716.3 3.96725 3.36014 0
M  V30 18245 C 1713.99 3.37605 3.71925 0
M  V30 18246 C 1715.98 5.31151 3.5236 0
M  V30 18247 C 1713.67 4.7219 3.87918 0
M  V30 18248 C 1714.66 5.68772 3.78137 0
M  V30 18249 O 1714.35 7.00919 3.9366 0
M  V30 18250 H 1714.08 0.359119 0.572721 0
M  V30 18251 H 1716.64 1.58449 1.30702 0
M  V30 18252 H 1714.87 0.885599 3.76423 0
M  V30 18253 H 1716.56 1.29633 3.84643 0
M  V30 18254 H 1717.32 3.68206 3.15672 0
M  V30 18255 H 1713.2 2.62982 3.78631 0
M  V30 18256 H 1716.75 6.06521 3.44643 0
M  V30 18257 H 1712.64 5.00405 4.07756 0
M  V30 18258 H 1713.41 7.07968 4.10761 0
M  V30 18259 N 1716.07 -1.22136 0.99602 0
M  V30 18260 C 1716.98 -2.27869 0.557927 0
M  V30 18261 C 1718 -1.69462 -0.394781 0
M  V30 18262 O 1719.18 -1.99704 -0.26084 0
M  V30 18263 C 1716.24 -3.46501 -0.117434 0
M  V30 18264 C 1715.3 -4.20213 0.878627 0
M  V30 18265 C 1714.54 -5.33181 0.2354 0
M  V30 18266 O 1714.76 -5.62093 -0.969954 0
M  V30 18267 O 1713.69 -5.94486 0.941828 0
M  V30 18268 H 1717.52 -2.67517 1.43765 0
M  V30 18269 H 1715.1 -1.28362 0.764428 0
M  V30 18270 H 1716.99 -4.18476 -0.49559 0
M  V30 18271 H 1715.66 -3.08772 -0.971674 0
M  V30 18272 H 1714.57 -3.50497 1.30777 0
M  V30 18273 H 1715.9 -4.6183 1.70217 0
M  V30 18274 N 1717.55 -0.769612 -1.37531 0
M  V30 18275 C 1718.78 -0.344282 -2.04015 0
M  V30 18276 C 1719.2 1.03281 -1.58046 0
M  V30 18277 O 1718.55 1.65888 -0.760746 0
M  V30 18278 C 1718.6 -0.375922 -3.5954 0
M  V30 18279 O 1718.32 -1.69869 -4.03827 0
M  V30 18280 C 1719.83 0.0612715 -4.43258 0
M  V30 18281 H 1717.05 -0.144584 -0.655238 0
M  V30 18282 H 1719.59 -1.04294 -1.75906 0
M  V30 18283 H 1717.74 0.274136 -3.86429 0
M  V30 18284 H 1718.16 -1.63584 -4.98338 0
M  V30 18285 H 1719.63 -0.012022 -5.51999 0
M  V30 18286 H 1720.11 1.11136 -4.24906 0
M  V30 18287 H 1720.72 -0.560517 -4.2159 0
M  V30 18288 N 1719.03 1.48775 -0.519977 0
M  V30 18289 C 1720.31 1.95429 0.0816701 0
M  V30 18290 C 1720.69 1.46199 1.52279 0
M  V30 18291 O 1720.04 0.684057 2.1802 0
M  V30 18292 C 1720.25 3.48991 -0.0252472 0
M  V30 18293 C 1721.59 4.24372 0.139099 0
M  V30 18294 O 1722.62 3.56166 0.0490322 0
M  V30 18295 O 1721.48 5.45524 0.326426 0
M  V30 18296 H 1718.57 0.822637 0.0848378 0
M  V30 18297 H 1721.12 1.5934 -0.583865 0
M  V30 18298 H 1719.89 3.77514 -1.02951 0
M  V30 18299 H 1719.51 3.91749 0.679588 0
M  V30 18300 N 1720.51 0.254649 1.55529 0
M  V30 18301 C 1721.74 -0.371317 2.03236 0
M  V30 18302 C 1722.15 -1.5152 1.13306 0
M  V30 18303 O 1721.49 -1.83154 0.141468 0
M  V30 18304 C 1721.55 -0.933614 3.47166 0
M  V30 18305 C 1721.22 0.0790139 4.56932 0
M  V30 18306 C 1722.21 0.891314 5.12203 0
M  V30 18307 C 1719.9 0.207343 5.01872 0
M  V30 18308 C 1721.89 1.81833 6.10914 0
M  V30 18309 C 1719.58 1.13785 6.00413 0
M  V30 18310 C 1720.58 1.94186 6.54813 0
M  V30 18311 O 1720.26 2.85667 7.51432 0
M  V30 18312 H 1720 -0.0914583 0.669785 0
M  V30 18313 H 1722.55 0.378413 2.01884 0
M  V30 18314 H 1720.78 -1.73305 3.45691 0
M  V30 18315 H 1722.47 -1.47048 3.78327 0
M  V30 18316 H 1723.24 0.802797 4.7831 0
M  V30 18317 H 1719.11 -0.408414 4.59187 0
M  V30 18318 H 1722.66 2.4463 6.53301 0
M  V30 18319 H 1718.56 1.22726 6.33726 0
M  V30 18320 H 1719.32 2.80116 7.69075 0
M  V30 18321 N 1721.99 -1.57589 -0.0183649 0
M  V30 18322 C 1723.22 -1.93743 -0.71745 0
M  V30 18323 C 1723.62 -0.853727 -1.68844 0
M  V30 18324 O 1722.97 0.177648 -1.82839 0
M  V30 18325 C 1723.03 -3.25769 -1.52036 0
M  V30 18326 C 1722.69 -4.51404 -0.71298 0
M  V30 18327 C 1723.69 -5.19899 -0.00859461 0
M  V30 18328 C 1721.38 -4.97887 -0.664364 0
M  V30 18329 C 1723.37 -6.33164 0.733592 0
M  V30 18330 C 1721.06 -6.11046 0.0815603 0
M  V30 18331 C 1722.05 -6.7854 0.779288 0
M  V30 18332 O 1721.74 -7.89532 1.51308 0
M  V30 18333 H 1721.47 -0.643849 -0.205996 0
M  V30 18334 H 1724.03 -2.05387 0.023306 0
M  V30 18335 H 1722.26 -3.10481 -2.30518 0
M  V30 18336 H 1723.95 -3.47169 -2.10305 0
M  V30 18337 H 1724.71 -4.84986 -0.0371173 0
M  V30 18338 H 1720.59 -4.4519 -1.19696 0
M  V30 18339 H 1724.14 -6.8578 1.27873 0
M  V30 18340 H 1720.03 -6.45403 0.111968 0
M  V30 18341 H 1720.8 -8.05949 1.42787 0
M  V30 18342 N 1723.46 0.290824 -1.54893 0
M  V30 18343 C 1724.88 0.637054 -1.46334 0
M  V30 18344 C 1725.08 1.90285 -0.66285 0
M  V30 18345 O 1724.14 2.51896 -0.174589 0
M  V30 18346 C 1725.45 0.780585 -2.90392 0
M  V30 18347 C 1727 0.875807 -3.00497 0
M  V30 18348 C 1727.47 1.05126 -4.45772 0
M  V30 18349 N 1728.96 1.11721 -4.49525 0
M  V30 18350 C 1729.7 1.27145 -5.59126 0
M  V30 18351 N 1729.19 1.39401 -6.7863 0
M  V30 18352 N 1730.99 1.30114 -5.46833 0
M  V30 18353 H 1723.14 -0.540707 -2.05402 0
M  V30 18354 H 1725.4 -0.180344 -0.930688 0
M  V30 18355 H 1725.11 -0.0787855 -3.51612 0
M  V30 18356 H 1724.98 1.66644 -3.38392 0
M  V30 18357 H 1727.37 1.72566 -2.39385 0
M  V30 18358 H 1727.45 -0.0342844 -2.55777 0
M  V30 18359 H 1727.09 0.206135 -5.07482 0
M  V30 18360 H 1727.02 1.97573 -4.88132 0
M  V30 18361 H 1729.51 1.03562 -3.63433 0
M  V30 18362 H 1729.83 1.50953 -7.57914 0
M  V30 18363 H 1728.17 1.36438 -6.81476 0
M  V30 18364 H 1731.36 1.20157 -4.52416 0
M  V30 18365 H 1731.54 1.4179 -6.32297 0
M  V30 18366 N 1724.94 1.47523 0.554506 0
M  V30 18367 C 1725.89 1.60213 1.66134 0
M  V30 18368 C 1726.86 0.445051 1.60027 0
M  V30 18369 O 1728.04 0.665449 1.7882 0
M  V30 18370 C 1725.18 1.62491 3.04452 0
M  V30 18371 C 1724.3 2.89134 3.20976 0
M  V30 18372 C 1723.43 2.82731 4.49707 0
M  V30 18373 C 1722.47 4.04187 4.59673 0
M  V30 18374 N 1721.61 3.96004 5.79763 0
M  V30 18375 H 1726.45 2.54744 1.54626 0
M  V30 18376 H 1723.99 1.26355 0.753189 0
M  V30 18377 H 1725.94 1.61795 3.84549 0
M  V30 18378 H 1724.57 0.714698 3.14789 0
M  V30 18379 H 1723.63 2.99685 2.34292 0
M  V30 18380 H 1724.94 3.79069 3.24203 0
M  V30 18381 H 1724.09 2.80299 5.38068 0
M  V30 18382 H 1722.83 1.90483 4.48963 0
M  V30 18383 H 1721.84 4.06921 3.69724 0
M  V30 18384 H 1723.06 4.97565 4.62175 0
M  V30 18385 H 1721.01 3.06561 5.79962 0
M  V30 18386 H 1720.92 4.7962 5.8438 0
M  V30 18387 H 1722.19 3.97593 6.70478 0
M  V30 18388 N 1726.42 -0.801453 1.357 0
M  V30 18389 C 1727.67 -1.55571 1.29004 0
M  V30 18390 C 1727.99 -1.9454 -0.133836 0
M  V30 18391 O 1727.26 -1.64004 -1.07143 0
M  V30 18392 H 1725.84 -0.576922 0.47452 0
M  V30 18393 H 1728.5 -0.95568 1.69861 0
M  V30 18394 H 1727.6 -2.46879 1.90937 0
M  V30 18395 N 1727.9 -1.19782 -1.02421 0
M  V30 18396 C 1729.15 -1.00133 -1.7555 0
M  V30 18397 C 1729.47 0.468503 -1.89288 0
M  V30 18398 O 1728.74 1.3391 -1.42986 0
M  V30 18399 H 1727.32 -0.367513 -0.650341 0
M  V30 18400 H 1729.98 -1.50758 -1.23523 0
M  V30 18401 H 1729.08 -1.45329 -2.76199 0
M  V30 18402 N 1729.38 1.21606 -1.00248 0
M  V30 18403 C 1730.32 2.23884 -0.560771 0
M  V30 18404 C 1731.29 1.60913 0.411864 0
M  V30 18405 O 1732.48 1.88191 0.314476 0
M  V30 18406 C 1729.62 3.44928 0.108948 0
M  V30 18407 C 1728.73 4.22381 -0.906566 0
M  V30 18408 C 1727.87 5.30787 -0.20937 0
M  V30 18409 C 1726.91 5.99969 -1.2126 0
M  V30 18410 N 1726.04 6.99997 -0.543057 0
M  V30 18411 H 1730.88 2.61029 -1.43764 0
M  V30 18412 H 1728.42 1.28278 -0.719937 0
M  V30 18413 H 1730.38 4.14019 0.514244 0
M  V30 18414 H 1729.01 3.08518 0.949544 0
M  V30 18415 H 1728.06 3.52493 -1.43012 0
M  V30 18416 H 1729.37 4.70009 -1.67013 0
M  V30 18417 H 1728.53 6.06176 0.252164 0
M  V30 18418 H 1727.27 4.84159 0.586621 0
M  V30 18419 H 1726.27 5.23353 -1.68467 0
M  V30 18420 H 1727.5 6.48684 -2.00963 0
M  V30 18421 H 1725.44 6.55585 0.233324 0
M  V30 18422 H 1725.36 7.45679 -1.24492 0
M  V30 18423 H 1726.63 7.7943 -0.104643 0
M  V30 18424 N 1730.86 0.776895 1.37121 0
M  V30 18425 C 1732.1 0.342876 1.9917 0
M  V30 18426 C 1732.42 -1.08574 1.61977 0
M  V30 18427 O 1731.69 -1.74634 0.887689 0
M  V30 18428 H 1730.27 0.123788 0.736672 0
M  V30 18429 H 1732.94 0.996163 1.67519 0
M  V30 18430 H 1732.03 0.424637 3.09198 0
M  V30 18431 N 1732.33 -1.48497 0.527859 0
M  V30 18432 C 1733.26 -2.32414 -0.224891 0
M  V30 18433 C 1734.24 -1.41959 -0.93711 0
M  V30 18434 O 1735.43 -1.70847 -0.923302 0
M  V30 18435 C 1732.56 -3.23106 -1.27356 0
M  V30 18436 C 1731.51 -4.2257 -0.679611 0
M  V30 18437 C 1730.84 -5.02381 -1.83077 0
M  V30 18438 C 1732.14 -5.21144 0.347269 0
M  V30 18439 H 1733.83 -2.95598 0.475632 0
M  V30 18440 H 1731.38 -1.42148 0.230182 0
M  V30 18441 H 1733.33 -3.80639 -1.8081 0
M  V30 18442 H 1732.06 -2.57919 -2.00363 0
M  V30 18443 H 1730.72 -3.66221 -0.166608 0
M  V30 18444 H 1730.36 -4.3362 -2.54918 0
M  V30 18445 H 1730.06 -5.697 -1.43929 0
M  V30 18446 H 1731.59 -5.62765 -2.36914 0
M  V30 18447 H 1733 -5.73213 -0.100107 0
M  V30 18448 H 1731.4 -5.96503 0.656021 0
M  V30 18449 H 1732.47 -4.6841 1.25379 0
M  V30 18450 N 1733.81 -0.262893 -1.55392 0
M  V30 18451 C 1734.74 0.623732 -2.25015 0
M  V30 18452 C 1735.72 1.16865 -1.23598 0
M  V30 18453 O 1736.91 1.20505 -1.5229 0
M  V30 18454 C 1734.04 1.81353 -2.9619 0
M  V30 18455 C 1732.99 1.40069 -4.04431 0
M  V30 18456 C 1732.32 2.67261 -4.63115 0
M  V30 18457 C 1733.62 0.559905 -5.1929 0
M  V30 18458 H 1735.31 0.0431306 -2.99369 0
M  V30 18459 H 1732.86 0.0193043 -1.43987 0
M  V30 18460 H 1734.81 2.43958 -3.43602 0
M  V30 18461 H 1733.53 2.41977 -2.1935 0
M  V30 18462 H 1732.19 0.797905 -3.57811 0
M  V30 18463 H 1731.84 3.26117 -3.82958 0
M  V30 18464 H 1731.54 2.40354 -5.36194 0
M  V30 18465 H 1733.07 3.30735 -5.1327 0
M  V30 18466 H 1734.48 1.09064 -5.6283 0
M  V30 18467 H 1732.88 0.386234 -5.98856 0
M  V30 18468 H 1733.95 -0.424199 -4.83041 0
M  V30 18469 N 1735.29 1.57597 0.0100073 0
M  V30 18470 C 1736.7 1.78287 0.554143 0
M  V30 18471 C 1737.05 0.896332 1.74529 0
M  V30 18472 O 1736.18 0.0961505 2.16186 0
M  V30 18473 C 1736.77 3.23331 1.01206 0
M  V30 18474 C 1735.33 3.45152 1.50157 0
M  V30 18475 C 1734.48 2.73654 0.448221 0
M  V30 18476 H 1737.43 1.57221 -0.216189 0
M  V30 18477 H 1737.45 3.30893 1.87856 0
M  V30 18478 H 1736.96 3.87829 0.144921 0
M  V30 18479 H 1735.06 2.85854 2.38994 0
M  V30 18480 H 1735.18 4.53813 1.53594 0
M  V30 18481 H 1733.54 2.3798 0.907603 0
M  V30 18482 H 1734.32 3.40846 -0.40978 0
M  V30 18483 N 1736.77 -0.282606 1.55045 0
M  V30 18484 C 1738.01 -1.01698 1.75458 0
M  V30 18485 C 1738.35 -1.86284 0.548808 0
M  V30 18486 O 1737.62 -1.89131 -0.45382 0
M  V30 18487 C 1737.9 -1.90759 3.05423 0
M  V30 18488 C 1737.76 -1.0923 4.36336 0
M  V30 18489 C 1739.08 -2.8963 3.31364 0
M  V30 18490 H 1736.2 -0.368305 0.638373 0
M  V30 18491 H 1738.84 -0.290118 1.87772 0
M  V30 18492 H 1736.99 -2.52734 2.95055 0
M  V30 18493 H 1738.66 -0.493996 4.58647 0
M  V30 18494 H 1736.9 -0.395481 4.31994 0
M  V30 18495 H 1737.57 -1.74842 5.23578 0
M  V30 18496 H 1740.05 -2.37788 3.41462 0
M  V30 18497 H 1738.93 -3.49096 4.23584 0
M  V30 18498 H 1739.19 -3.64255 2.50541 0
M  V30 18499 N 1738.25 -1.47815 -0.546675 0
M  V30 18500 C 1739.66 -1.33566 -0.873628 0
M  V30 18501 C 1739.86 -0.334067 -1.98711 0
M  V30 18502 O 1738.92 0.250675 -2.51253 0
M  V30 18503 C 1740.23 -2.73171 -1.25691 0
M  V30 18504 C 1741.78 -2.81535 -1.36774 0
M  V30 18505 C 1742.25 -4.21804 -1.78454 0
M  V30 18506 N 1743.74 -4.24396 -1.85586 0
M  V30 18507 C 1744.48 -5.29854 -2.19186 0
M  V30 18508 N 1743.98 -6.45606 -2.51326 0
M  V30 18509 N 1745.77 -5.17237 -2.2005 0
M  V30 18510 H 1737.92 -2.11564 0.188285 0
M  V30 18511 H 1740.18 -0.947754 0.0215773 0
M  V30 18512 H 1739.89 -3.47946 -0.512485 0
M  V30 18513 H 1739.76 -3.05622 -2.21077 0
M  V30 18514 H 1742.15 -2.07025 -2.10297 0
M  V30 18515 H 1742.23 -2.52724 -0.395504 0
M  V30 18516 H 1741.87 -4.96823 -1.05498 0
M  V30 18517 H 1741.8 -4.48046 -2.76699 0
M  V30 18518 H 1744.3 -3.40895 -1.63092 0
M  V30 18519 H 1744.61 -7.21825 -2.76022 0
M  V30 18520 H 1742.95 -6.48909 -2.48883 0
M  V30 18521 H 1746.14 -4.2583 -1.94387 0
M  V30 18522 H 1746.32 -5.99529 -2.45905 0
M  V30 18523 N 1739.72 0.794246 -1.36123 0
M  V30 18524 C 1740.97 1.55357 -1.31285 0
M  V30 18525 C 1741.32 1.92094 0.108426 0
M  V30 18526 O 1740.62 1.59486 1.06182 0
M  V30 18527 C 1740.81 2.84387 -2.16469 0
M  V30 18528 C 1740.64 2.60259 -3.66736 0
M  V30 18529 C 1739.41 2.55525 -4.3593 0
M  V30 18530 C 1741.61 2.29787 -4.60111 0
M  V30 18531 N 1739.59 2.23243 -5.7187 0
M  V30 18532 C 1740.96 2.07452 -5.84263 0
M  V30 18533 C 1743.02 2.15753 -4.48726 0
M  V30 18534 C 1741.72 1.72503 -6.98309 0
M  V30 18535 C 1743.75 1.82202 -5.62633 0
M  V30 18536 C 1743.11 1.60711 -6.85822 0
M  V30 18537 H 1739.21 0.569714 -0.535677 0
M  V30 18538 H 1741.79 0.928621 -1.71128 0
M  V30 18539 H 1739.96 3.44757 -1.78878 0
M  V30 18540 H 1741.69 3.50072 -2.03056 0
M  V30 18541 H 1738.45 2.70603 -3.88678 0
M  V30 18542 H 1738.87 2.09862 -6.43651 0
M  V30 18543 H 1743.51 2.31061 -3.54077 0
M  V30 18544 H 1741.23 1.55933 -7.92913 0
M  V30 18545 H 1744.82 1.72034 -5.55784 0
M  V30 18546 H 1743.7 1.35131 -7.7247 0
M  V30 18547 N 1741.2 1.20323 1.01785 0
M  V30 18548 C 1742.13 0.894265 2.09948 0
M  V30 18549 C 1743.11 -0.15315 1.61877 0
M  V30 18550 O 1744.3 -0.0270078 1.88481 0
M  V30 18551 C 1741.42 0.3404 3.36985 0
M  V30 18552 C 1740.47 1.36861 4.03945 0
M  V30 18553 S 1741.3 2.9332 4.48022 0
M  V30 18554 C 1742.46 2.39506 5.78263 0
M  V30 18555 H 1742.69 1.81026 2.35833 0
M  V30 18556 H 1740.22 1.03157 1.14883 0
M  V30 18557 H 1742.18 0.0273874 4.10491 0
M  V30 18558 H 1740.84 -0.554073 3.09174 0
M  V30 18559 H 1740.04 0.930418 4.95337 0
M  V30 18560 H 1739.64 1.62903 3.36658 0
M  V30 18561 H 1741.93 1.7919 6.53374 0
M  V30 18562 H 1742.87 3.2929 6.26876 0
M  V30 18563 H 1743.28 1.81678 5.34465 0
M  V30 18564 N 1742.68 -1.21073 1.00892 0
M  V30 18565 C 1743.9 -1.94774 0.712588 0
M  V30 18566 C 1744.33 -1.73812 -0.719085 0
M  V30 18567 O 1743.69 -1.02747 -1.49374 0
M  V30 18568 C 1743.74 -3.45156 1.04402 0
M  V30 18569 O 1742.84 -4.12122 0.151433 0
M  V30 18570 H 1742.18 -0.608775 0.26512 0
M  V30 18571 H 1744.71 -1.53721 1.35022 0
M  V30 18572 H 1744.72 -3.95744 0.992511 0
M  V30 18573 H 1743.4 -3.59736 2.08716 0
M  V30 18574 H 1741.97 -3.71994 0.259805 0
M  V30 18575 N 1744.16 -0.784156 -1.36707 0
M  V30 18576 C 1745.57 -0.417967 -1.81961 0
M  V30 18577 C 1745.92 1.05746 -1.65264 0
M  V30 18578 O 1745.05 1.82003 -1.17064 0
M  V30 18579 C 1745.64 -0.751869 -3.30352 0
M  V30 18580 C 1744.2 -0.438578 -3.73836 0
M  V30 18581 C 1743.35 -0.989262 -2.59054 0
M  V30 18582 H 1746.3 -0.977754 -1.25003 0
M  V30 18583 H 1746.32 -0.041034 -3.80478 0
M  V30 18584 H 1745.83 -1.82576 -3.42473 0
M  V30 18585 H 1743.93 0.627493 -3.67278 0
M  V30 18586 H 1744.04 -0.955508 -4.69475 0
M  V30 18587 H 1742.41 -0.412783 -2.51333 0
M  V30 18588 H 1743.19 -2.06881 -2.73962 0
M  V30 18589 N 1745.64 1.48215 -0.535727 0
M  V30 18590 C 1746.55 2.33494 0.227577 0
M  V30 18591 C 1747.56 1.4685 0.933327 0
M  V30 18592 O 1748.74 1.7982 0.907008 0
M  V30 18593 C 1745.8 3.23092 1.25747 0
M  V30 18594 C 1744.86 4.25613 0.561454 0
M  V30 18595 C 1744.1 5.1093 1.54228 0
M  V30 18596 O 1744.32 4.98325 2.77539 0
M  V30 18597 O 1743.25 5.92158 1.07852 0
M  V30 18598 H 1747.08 3.0002 -0.471375 0
M  V30 18599 H 1744.67 1.46427 -0.296579 0
M  V30 18600 H 1746.55 3.78498 1.8525 0
M  V30 18601 H 1745.22 2.5922 1.93872 0
M  V30 18602 H 1744.13 3.74026 -0.0742194 0
M  V30 18603 H 1745.46 4.92138 -0.0779649 0
M  V30 18604 N 1747.11 0.27113 1.5525 0
M  V30 18605 C 1748.34 -0.353138 2.04371 0
M  V30 18606 C 1748.76 -1.48978 1.14835 0
M  V30 18607 O 1748.12 -1.8071 0.146138 0
M  V30 18608 C 1748.17 -0.815425 3.51259 0
M  V30 18609 O 1747.27 -1.92302 3.6482 0
M  V30 18610 H 1746.62 -0.0736207 0.659906 0
M  V30 18611 H 1749.15 0.404266 2.00566 0
M  V30 18612 H 1749.16 -1.11224 3.92547 0
M  V30 18613 H 1747.83 0.0162079 4.15897 0
M  V30 18614 H 1746.41 -1.62904 3.35435 0
M  V30 18615 N 1748.59 -1.576 -0.00164943 0
M  V30 18616 C 1749.52 -2.11354 -0.992554 0
M  V30 18617 C 1750.5 -1.0223 -1.35952 0
M  V30 18618 O 1751.69 -1.29904 -1.44356 0
M  V30 18619 C 1748.82 -2.61549 -2.28494 0
M  V30 18620 C 1747.77 -3.75185 -2.05962 0
M  V30 18621 C 1747.1 -4.11688 -3.412 0
M  V30 18622 C 1748.4 -5.02526 -1.42355 0
M  V30 18623 H 1750.09 -2.94398 -0.544986 0
M  V30 18624 H 1747.64 -1.4162 -0.260702 0
M  V30 18625 H 1749.59 -2.97782 -2.98168 0
M  V30 18626 H 1748.32 -1.75625 -2.75361 0
M  V30 18627 H 1746.97 -3.39343 -1.38714 0
M  V30 18628 H 1746.62 -3.22789 -3.85767 0
M  V30 18629 H 1746.32 -4.88246 -3.2694 0
M  V30 18630 H 1747.85 -4.50478 -4.12192 0
M  V30 18631 H 1749.26 -5.3654 -2.01984 0
M  V30 18632 H 1747.66 -5.83878 -1.38589 0
M  V30 18633 H 1748.73 -4.83308 -0.392565 0
M  V30 18634 N 1750.07 0.274379 -1.55193 0
M  V30 18635 C 1751.02 1.33913 -1.87978 0
M  V30 18636 C 1751.99 1.49142 -0.731149 0
M  V30 18637 O 1753.17 1.63572 -0.98229 0
M  V30 18638 C 1750.31 2.69464 -2.156 0
M  V30 18639 C 1749.43 2.62468 -3.43125 0
M  V30 18640 C 1748.56 3.90188 -3.60453 0
M  V30 18641 C 1747.6 3.77697 -4.81675 0
M  V30 18642 N 1746.74 4.97249 -4.95669 0
M  V30 18643 H 1751.58 1.05254 -2.78793 0
M  V30 18644 H 1749.11 0.508532 -1.3803 0
M  V30 18645 H 1751.07 3.48329 -2.29614 0
M  V30 18646 H 1749.7 2.96328 -1.28021 0
M  V30 18647 H 1748.75 1.7532 -3.3759 0
M  V30 18648 H 1750.07 2.49137 -4.32125 0
M  V30 18649 H 1749.22 4.77495 -3.74277 0
M  V30 18650 H 1747.96 4.06384 -2.69635 0
M  V30 18651 H 1746.96 2.88774 -4.67857 0
M  V30 18652 H 1748.19 3.63022 -5.73927 0
M  V30 18653 H 1746.13 5.13858 -4.07781 0
M  V30 18654 H 1746.05 4.86444 -5.78712 0
M  V30 18655 H 1747.32 5.86132 -5.13877 0
M  V30 18656 N 1751.55 1.48103 0.538828 0
M  V30 18657 C 1752.83 1.46155 1.29992 0
M  V30 18658 C 1753.21 0.16841 2.10427 0
M  V30 18659 O 1752.55 -0.849967 2.12103 0
M  V30 18660 C 1752.76 2.71826 2.18888 0
M  V30 18661 C 1754.11 3.19794 2.79315 0
M  V30 18662 O 1755.14 2.72681 2.2918 0
M  V30 18663 O 1753.99 4.0175 3.70485 0
M  V30 18664 H 1751.09 0.583293 0.586258 0
M  V30 18665 H 1753.63 1.60326 0.556212 0
M  V30 18666 H 1752.41 3.57462 1.59176 0
M  V30 18667 H 1752.03 2.60332 3.00521 0
M  V30 18668 N 1753.03 -0.787016 1.36542 0
M  V30 18669 C 1754.27 -1.54194 1.30647 0
M  V30 18670 C 1754.6 -1.94671 -0.113195 0
M  V30 18671 O 1753.87 -1.65131 -1.05397 0
M  V30 18672 H 1752.45 -0.571857 0.480613 0
M  V30 18673 H 1755.11 -0.93761 1.70865 0
M  V30 18674 H 1754.2 -2.4484 1.93545 0
M  V30 18675 N 1754.5 -1.20861 -1.01145 0
M  V30 18676 C 1755.75 -1.02343 -1.75082 0
M  V30 18677 C 1756.08 0.44278 -1.89085 0
M  V30 18678 O 1755.36 1.32867 -1.42045 0
M  V30 18679 C 1755.64 -1.71368 -3.1671 0
M  V30 18680 C 1755.49 -3.25466 -3.1047 0
M  V30 18681 C 1756.81 -1.45097 -4.15494 0
M  V30 18682 H 1753.93 -0.373198 -0.635525 0
M  V30 18683 H 1756.57 -1.48947 -1.17961 0
M  V30 18684 H 1754.72 -1.31746 -3.6548 0
M  V30 18685 H 1756.4 -3.74415 -2.69464 0
M  V30 18686 H 1754.64 -3.56104 -2.47735 0
M  V30 18687 H 1755.31 -3.68924 -4.10608 0
M  V30 18688 H 1757.79 -1.7948 -3.75401 0
M  V30 18689 H 1756.66 -1.95917 -5.12745 0
M  V30 18690 H 1756.92 -0.379628 -4.40467 0
M  V30 18691 N 1755.98 1.20536 -1.01532 0
M  V30 18692 C 1757.23 1.89871 -0.70393 0
M  V30 18693 C 1757.56 1.78768 0.76631 0
M  V30 18694 O 1756.81 1.1653 1.57224 0
M  V30 18695 C 1757.11 3.40578 -1.08358 0
M  V30 18696 C 1756.78 3.71881 -2.54981 0
M  V30 18697 C 1755.44 3.80135 -2.95044 0
M  V30 18698 C 1757.79 3.86282 -3.49909 0
M  V30 18699 C 1755.12 4.00246 -4.28976 0
M  V30 18700 C 1757.47 4.07902 -4.83527 0
M  V30 18701 C 1756.14 4.14385 -5.23298 0
M  V30 18702 H 1755.41 0.694788 -0.257586 0
M  V30 18703 H 1758.05 1.42825 -1.27567 0
M  V30 18704 H 1756.36 3.89431 -0.430234 0
M  V30 18705 H 1758.05 3.92519 -0.820353 0
M  V30 18706 H 1754.64 3.66055 -2.22938 0
M  V30 18707 H 1758.83 3.79261 -3.20117 0
M  V30 18708 H 1754.08 4.03499 -4.59345 0
M  V30 18709 H 1758.26 4.17987 -5.5701 0
M  V30 18710 H 1755.89 4.29721 -6.27092 0
M  V30 18711 N 1757.46 0.791395 1.36289 0
M  V30 18712 C 1758.69 0.376696 2.03442 0
M  V30 18713 C 1759.1 -1.00753 1.59669 0
M  V30 18714 O 1758.46 -1.64657 0.787042 0
M  V30 18715 C 1758.51 0.433074 3.58897 0
M  V30 18716 O 1758.23 1.76272 4.01073 0
M  V30 18717 C 1759.73 0.00925475 4.43299 0
M  V30 18718 H 1756.95 0.154989 0.652855 0
M  V30 18719 H 1759.5 1.07079 1.74225 0
M  V30 18720 H 1757.65 -0.212623 3.86816 0
M  V30 18721 H 1758.07 1.71492 4.95672 0
M  V30 18722 H 1759.54 0.0998386 5.5191 0
M  V30 18723 H 1760.02 -1.04362 4.26621 0
M  V30 18724 H 1760.62 0.627518 4.20645 0
M  V30 18725 N 1758.94 -1.47929 0.54358 0
M  V30 18726 C 1760.17 -2.06891 0.0189187 0
M  V30 18727 C 1760.58 -1.39822 -1.26867 0
M  V30 18728 O 1759.94 -0.490197 -1.75793 0
M  V30 18729 C 1759.99 -3.60976 -0.194595 0
M  V30 18730 O 1759.71 -4.25528 1.04199 0
M  V30 18731 C 1761.21 -4.3677 -0.758093 0
M  V30 18732 H 1758.43 -0.669827 0.0396625 0
M  V30 18733 H 1760.98 -1.90128 0.753105 0
M  V30 18734 H 1759.13 -3.77299 -0.878869 0
M  V30 18735 H 1759.55 -5.17872 0.831191 0
M  V30 18736 H 1761.02 -5.45309 -0.856846 0
M  V30 18737 H 1761.5 -4.02121 -1.76621 0
M  V30 18738 H 1762.1 -4.25158 -0.109953 0
M  V30 18739 N 1760.42 -0.27936 -1.55104 0
M  V30 18740 C 1761.65 0.338937 -2.03801 0
M  V30 18741 C 1762.06 1.49699 -1.15702 0
M  V30 18742 O 1761.4 1.82906 -0.170589 0
M  V30 18743 C 1761.46 0.878265 -3.48607 0
M  V30 18744 C 1761.12 -0.151698 -4.56748 0
M  V30 18745 C 1762.12 -0.972688 -5.1072 0
M  V30 18746 C 1759.81 -0.287161 -5.01478 0
M  V30 18747 C 1761.8 -1.91529 -6.07944 0
M  V30 18748 C 1759.49 -1.23323 -5.98527 0
M  V30 18749 C 1760.49 -2.04579 -6.51641 0
M  V30 18750 O 1760.17 -2.97586 -7.46792 0
M  V30 18751 H 1759.91 0.080791 -0.671155 0
M  V30 18752 H 1762.46 -0.410483 -2.01257 0
M  V30 18753 H 1760.69 1.67783 -3.48405 0
M  V30 18754 H 1762.38 1.41011 -3.80619 0
M  V30 18755 H 1763.14 -0.878791 -4.76972 0
M  V30 18756 H 1759.02 0.33531 -4.59779 0
M  V30 18757 H 1762.57 -2.54993 -6.49326 0
M  V30 18758 H 1758.46 -1.32793 -6.31693 0
M  V30 18759 H 1759.23 -2.92316 -7.64522 0
M  V30 18760 N 1761.9 1.57599 -0.0067085 0
M  V30 18761 C 1763.12 1.95545 0.69115 0
M  V30 18762 C 1763.55 0.882014 1.66139 0
M  V30 18763 O 1762.9 -0.159242 1.80599 0
M  V30 18764 C 1762.95 3.3259 1.39342 0
M  V30 18765 O 1762.06 3.27368 2.50806 0
M  V30 18766 H 1761.4 0.638188 0.183336 0
M  V30 18767 H 1763.93 2.04506 -0.0618957 0
M  V30 18768 H 1763.94 3.6831 1.75532 0
M  V30 18769 H 1762.61 4.10269 0.682072 0
M  V30 18770 H 1761.19 3.03334 2.16894 0
M  V30 18771 N 1763.37 -0.266145 1.55336 0
M  V30 18772 C 1764.65 -1.01852 1.6699 0
M  V30 18773 C 1765.03 -2.04053 0.54088 0
M  V30 18774 O 1764.38 -2.23859 -0.458193 0
M  V30 18775 C 1764.59 -1.66917 3.06496 0
M  V30 18776 C 1765.94 -2.17824 3.64469 0
M  V30 18777 O 1766.96 -1.76892 3.09173 0
M  V30 18778 O 1765.82 -2.92922 4.61367 0
M  V30 18779 H 1762.91 -0.472871 0.67847 0
M  V30 18780 H 1765.46 -0.261458 1.67674 0
M  V30 18781 H 1764.23 -0.928941 3.80114 0
M  V30 18782 H 1763.85 -2.49292 3.0974 0
M  V30 18783 N 1764.85 -1.48386 -0.530967 0
M  V30 18784 C 1766.1 -1.56585 -1.28875 0
M  V30 18785 C 1766.43 -0.238583 -1.92729 0
M  V30 18786 O 1765.71 0.75533 -1.79235 0
M  V30 18787 C 1765.99 -2.70338 -2.37886 0
M  V30 18788 C 1765.84 -4.12766 -1.78729 0
M  V30 18789 C 1767.16 -2.79857 -3.39659 0
M  V30 18790 H 1764.28 -0.569986 -0.46721 0
M  V30 18791 H 1766.92 -1.80555 -0.591596 0
M  V30 18792 H 1765.07 -2.50031 -2.9735 0
M  V30 18793 H 1766.74 -4.4451 -1.23324 0
M  V30 18794 H 1764.99 -4.19813 -1.09269 0
M  V30 18795 H 1765.66 -4.88178 -2.57655 0
M  V30 18796 H 1768.13 -2.9825 -2.90149 0
M  V30 18797 H 1767.01 -3.61179 -4.13329 0
M  V30 18798 H 1767.27 -1.87974 -4.00148 0
M  V30 18799 N 1766.33 0.779763 -1.36958 0
M  V30 18800 C 1767.58 1.53956 -1.32925 0
M  V30 18801 C 1767.93 1.92198 0.0880461 0
M  V30 18802 O 1767.22 1.60604 1.04484 0
M  V30 18803 C 1767.42 2.82075 -2.19473 0
M  V30 18804 C 1767.25 2.56354 -3.69476 0
M  V30 18805 C 1766.02 2.50887 -4.38616 0
M  V30 18806 C 1768.21 2.24894 -4.62523 0
M  V30 18807 N 1766.2 2.17165 -5.74206 0
M  V30 18808 C 1767.57 2.01244 -5.86431 0
M  V30 18809 C 1769.62 2.10982 -4.50989 0
M  V30 18810 C 1768.33 1.65087 -7.00099 0
M  V30 18811 C 1770.35 1.76225 -5.64534 0
M  V30 18812 C 1769.71 1.53428 -6.87488 0
M  V30 18813 H 1765.81 0.564001 -0.541689 0
M  V30 18814 H 1768.4 0.910418 -1.72103 0
M  V30 18815 H 1766.57 3.4284 -1.82524 0
M  V30 18816 H 1768.3 3.47898 -2.06758 0
M  V30 18817 H 1765.05 2.66466 -3.91526 0
M  V30 18818 H 1765.48 2.03024 -6.45841 0
M  V30 18819 H 1770.12 2.27292 -3.56508 0
M  V30 18820 H 1767.84 1.47515 -7.94522 0
M  V30 18821 H 1771.42 1.6613 -5.57577 0
M  V30 18822 H 1770.3 1.2693 -7.73859 0
M  V30 18823 N 1767.81 1.21396 1.00503 0
M  V30 18824 C 1769.03 1.05791 1.7839 0
M  V30 18825 C 1769.46 -0.387921 1.84056 0
M  V30 18826 O 1768.82 -1.27983 1.28413 0
M  V30 18827 C 1768.86 1.65967 3.20137 0
M  V30 18828 O 1767.97 0.905123 4.02345 0
M  V30 18829 H 1767.31 0.372331 0.549787 0
M  V30 18830 H 1769.84 1.60938 1.26334 0
M  V30 18831 H 1769.85 1.70186 3.70811 0
M  V30 18832 H 1768.52 2.71185 3.15327 0
M  V30 18833 H 1767.1 0.938019 3.60909 0
M  V30 18834 N 1769.29 -1.19996 1.0217 0
M  V30 18835 C 1770.53 -1.89495 0.713989 0
M  V30 18836 C 1770.86 -1.79172 -0.756819 0
M  V30 18837 O 1770.12 -1.17362 -1.56603 0
M  V30 18838 C 1770.41 -3.39999 1.10162 0
M  V30 18839 C 1770.08 -3.70524 2.5695 0
M  V30 18840 C 1768.74 -3.78565 2.97056 0
M  V30 18841 C 1771.09 -3.8442 3.51952 0
M  V30 18842 C 1768.42 -3.97965 4.31092 0
M  V30 18843 C 1770.77 -4.05332 4.85684 0
M  V30 18844 C 1769.44 -4.11604 5.25489 0
M  V30 18845 H 1768.71 -0.693412 0.261267 0
M  V30 18846 H 1771.36 -1.42146 1.28323 0
M  V30 18847 H 1769.66 -3.89197 0.45088 0
M  V30 18848 H 1771.36 -3.92078 0.841158 0
M  V30 18849 H 1767.95 -3.64868 2.24876 0
M  V30 18850 H 1772.13 -3.77558 3.22123 0
M  V30 18851 H 1767.39 -4.01058 4.61479 0
M  V30 18852 H 1771.56 -4.15027 5.59219 0
M  V30 18853 H 1769.19 -4.26389 6.29362 0
M  V30 18854 N 1770.76 -0.798611 -1.35867 0
M  V30 18855 C 1772.01 -0.374519 -1.986 0
M  V30 18856 C 1772.33 1.05984 -1.63684 0
M  V30 18857 O 1771.6 1.73199 -0.915359 0
M  V30 18858 H 1770.18 -0.135492 -0.734609 0
M  V30 18859 H 1772.84 -1.02269 -1.65913 0
M  V30 18860 H 1771.94 -0.473773 -3.08483 0
M  V30 18861 N 1772.24 1.47639 -0.551417 0
M  V30 18862 C 1773.49 2.02784 -0.0252425 0
M  V30 18863 C 1773.82 1.42549 1.31884 0
M  V30 18864 O 1773.1 0.578954 1.85684 0
M  V30 18865 C 1773.38 3.60024 0.0740051 0
M  V30 18866 C 1773.23 4.30702 -1.29676 0
M  V30 18867 C 1774.55 4.32946 0.790302 0
M  V30 18868 H 1771.67 0.736923 -0.0106473 0
M  V30 18869 H 1774.31 1.76131 -0.712589 0
M  V30 18870 H 1772.46 3.82863 0.65939 0
M  V30 18871 H 1774.13 4.1922 -1.9249 0
M  V30 18872 H 1772.38 3.91282 -1.87299 0
M  V30 18873 H 1773.05 5.39238 -1.18009 0
M  V30 18874 H 1775.52 4.15065 0.293326 0
M  V30 18875 H 1774.4 5.42608 0.828692 0
M  V30 18876 H 1774.66 4.01752 1.84521 0
M  V30 18877 N 1773.72 0.287581 1.54954 0
M  V30 18878 C 1774.97 -0.326093 2.00161 0
M  V30 18879 C 1775.3 -1.54564 1.17574 0
M  V30 18880 O 1774.57 -1.92901 0.248859 0
M  V30 18881 C 1774.86 -0.695974 3.5331 0
M  V30 18882 C 1774.71 0.531783 4.46645 0
M  V30 18883 C 1776.03 -1.52767 4.12735 0
M  V30 18884 H 1773.15 -0.117051 0.727646 0
M  V30 18885 H 1775.79 0.39701 1.85806 0
M  V30 18886 H 1773.94 -1.31205 3.65674 0
M  V30 18887 H 1775.61 1.17032 4.46208 0
M  V30 18888 H 1773.86 1.16754 4.17793 0
M  V30 18889 H 1774.53 0.229034 5.51525 0
M  V30 18890 H 1777 -1.00724 4.03725 0
M  V30 18891 H 1775.88 -1.75527 5.20078 0
M  V30 18892 H 1776.14 -2.51267 3.63755 0
M  V30 18893 N 1775.2 -1.57593 0.0150662 0
M  V30 18894 C 1776.13 -2.12395 -0.970081 0
M  V30 18895 C 1777.11 -1.03666 -1.34861 0
M  V30 18896 O 1778.29 -1.31427 -1.4297 0
M  V30 18897 C 1775.42 -2.63958 -2.25707 0
M  V30 18898 C 1774.38 -3.77348 -2.01971 0
M  V30 18899 C 1773.7 -4.15284 -3.36814 0
M  V30 18900 C 1775 -5.04008 -1.37017 0
M  V30 18901 H 1776.7 -2.9496 -0.513731 0
M  V30 18902 H 1774.24 -1.41889 -0.245666 0
M  V30 18903 H 1776.2 -3.00927 -2.94993 0
M  V30 18904 H 1774.92 -1.78535 -2.73483 0
M  V30 18905 H 1773.58 -3.40795 -1.35107 0
M  V30 18906 H 1773.23 -3.26863 -3.82321 0
M  V30 18907 H 1772.93 -4.91686 -3.21744 0
M  V30 18908 H 1774.45 -4.54824 -4.07391 0
M  V30 18909 H 1775.87 -5.38652 -1.96282 0
M  V30 18910 H 1774.26 -5.85315 -1.32388 0
M  V30 18911 H 1775.33 -4.83698 -0.341281 0
M  V30 18912 N 1776.68 0.257904 -1.55475 0
M  V30 18913 C 1777.92 0.984747 -1.77973 0
M  V30 18914 C 1778.28 1.8338 -0.58219 0
M  V30 18915 O 1777.57 1.86831 0.424833 0
M  V30 18916 C 1777.76 1.8875 -3.03494 0
M  V30 18917 C 1777.59 1.12731 -4.35341 0
M  V30 18918 C 1776.36 0.836863 -4.98322 0
M  V30 18919 C 1778.56 0.51029 -5.11762 0
M  V30 18920 N 1776.54 0.0514671 -6.13878 0
M  V30 18921 C 1777.91 -0.140209 -6.19841 0
M  V30 18922 C 1779.97 0.419648 -4.96128 0
M  V30 18923 C 1778.67 -0.872631 -7.13987 0
M  V30 18924 C 1780.7 -0.299217 -5.90643 0
M  V30 18925 C 1780.06 -0.938395 -6.98121 0
M  V30 18926 H 1776.16 0.341821 -0.703337 0
M  V30 18927 H 1778.74 0.258929 -1.92971 0
M  V30 18928 H 1776.91 2.58544 -2.89844 0
M  V30 18929 H 1778.65 2.54908 -3.14331 0
M  V30 18930 H 1775.4 1.14592 -4.59528 0
M  V30 18931 H 1775.83 -0.329003 -6.762 0
M  V30 18932 H 1780.47 0.899487 -4.13121 0
M  V30 18933 H 1778.19 -1.36411 -7.96503 0
M  V30 18934 H 1781.77 -0.36987 -5.80623 0
M  V30 18935 H 1780.65 -1.48578 -7.69996 0
M  V30 18936 N 1778.15 1.48666 0.52309 0
M  V30 18937 C 1779.06 1.66396 1.65377 0
M  V30 18938 C 1780.08 0.546469 1.65196 0
M  V30 18939 O 1781.26 0.818413 1.84022 0
M  V30 18940 C 1778.32 1.70602 3.01821 0
M  V30 18941 C 1777.38 2.94028 3.12803 0
M  V30 18942 C 1776.62 2.98024 4.42739 0
M  V30 18943 O 1776.84 2.10232 5.30244 0
M  V30 18944 O 1775.77 3.90266 4.58231 0
M  V30 18945 H 1779.6 2.62138 1.53354 0
M  V30 18946 H 1777.18 1.32148 0.696948 0
M  V30 18947 H 1779.07 1.75849 3.82956 0
M  V30 18948 H 1777.74 0.780346 3.14153 0
M  V30 18949 H 1776.65 2.9431 2.30938 0
M  V30 18950 H 1777.98 3.86003 3.0539 0
M  V30 18951 N 1779.63 -0.772489 1.37369 0
M  V30 18952 C 1780.88 -1.52629 1.31861 0
M  V30 18953 C 1781.19 -1.9537 -0.0947795 0
M  V30 18954 O 1782.4 -2.70131 -0.27233 0
M  V30 18955 C 1780.86 -2.75608 2.31448 0
M  V30 18956 C 1780.46 -2.39969 3.78311 0
M  V30 18957 C 1782.21 -3.53553 2.34948 0
M  V30 18958 C 1780.12 -3.59445 4.69631 0
M  V30 18959 H 1779.05 -0.573019 0.490066 0
M  V30 18960 H 1781.7 -0.846178 1.62825 0
M  V30 18961 H 1780.08 -3.45505 1.935 0
M  V30 18962 H 1781.25 -1.7786 4.25091 0
M  V30 18963 H 1779.57 -1.752 3.77748 0
M  V30 18964 H 1782.16 -4.42353 3.00379 0
M  V30 18965 H 1782.51 -3.93359 1.36287 0
M  V30 18966 H 1783.04 -2.90652 2.716 0
M  V30 18967 H 1779.78 -3.24721 5.69418 0
M  V30 18968 H 1779.3 -4.20662 4.27555 0
M  V30 18969 H 1780.98 -4.26267 4.86729 0
M  V30 18970 N 1781.11 -1.21927 -0.998575 0
M  V30 18971 C 1782.07 -0.985744 -2.0692 0
M  V30 18972 C 1783.07 0.0456907 -1.60735 0
M  V30 18973 O 1784.26 -0.192241 -1.73136 0
M  V30 18974 C 1781.4 -0.48779 -3.37392 0
M  V30 18975 H 1782.59 -1.93563 -2.2907 0
M  V30 18976 H 1780.14 -1.03716 -1.1693 0
M  V30 18977 H 1780.88 0.466723 -3.20924 0
M  V30 18978 H 1780.66 -1.23186 -3.72247 0
M  V30 18979 H 1782.15 -0.344469 -4.16177 0
M  V30 18980 N 1782.59 1.19452 -1.02805 0
M  V30 18981 C 1783.82 1.93075 -0.743624 0
M  V30 18982 C 1784.23 1.75446 0.697425 0
M  V30 18983 O 1783.59 1.07583 1.47418 0
M  V30 18984 C 1783.64 3.44855 -1.08431 0
M  V30 18985 O 1783.36 3.61916 -2.46877 0
M  V30 18986 C 1784.86 4.35601 -0.822571 0
M  V30 18987 H 1782.08 0.613327 -0.272159 0
M  V30 18988 H 1784.63 1.51617 -1.37232 0
M  V30 18989 H 1782.78 3.84149 -0.500812 0
M  V30 18990 H 1783.19 4.55785 -2.59538 0
M  V30 18991 H 1784.67 5.40706 -1.11092 0
M  V30 18992 H 1785.15 4.38527 0.243026 0
M  V30 18993 H 1785.75 4.01987 -1.38876 0
M  V30 18994 N 1784.07 0.805805 1.35442 0
M  V30 18995 C 1785 0.230077 2.32364 0
M  V30 18996 C 1785.98 -0.644034 1.57436 0
M  V30 18997 O 1787.16 -0.574467 1.85509 0
M  V30 18998 C 1784.29 -0.622814 3.4167 0
M  V30 18999 C 1783.25 0.152739 4.27727 0
M  V30 19000 C 1782.57 -0.821803 5.28347 0
M  V30 19001 C 1783.87 1.35128 5.04517 0
M  V30 19002 H 1785.57 1.03983 2.80763 0
M  V30 19003 H 1783.11 0.501467 1.34986 0
M  V30 19004 H 1785.07 -1.03564 4.08476 0
M  V30 19005 H 1783.79 -1.46544 2.91877 0
M  V30 19006 H 1782.45 0.546732 3.625 0
M  V30 19007 H 1782.1 -1.65991 4.74822 0
M  V30 19008 H 1781.8 -0.307209 5.86796 0
M  V30 19009 H 1783.32 -1.23285 5.98024 0
M  V30 19010 H 1784.73 1.01337 5.64273 0
M  V30 19011 H 1783.13 1.80031 5.72459 0
M  V30 19012 H 1784.2 2.13833 4.35205 0
M  V30 19013 N 1785.54 -1.47344 0.559239 0
M  V30 19014 C 1786.51 -2.28516 -0.17688 0
M  V30 19015 C 1787.51 -1.37065 -0.840823 0
M  V30 19016 O 1788.7 -1.59676 -0.696373 0
M  V30 19017 C 1785.83 -3.16803 -1.25892 0
M  V30 19018 H 1787.02 -2.95068 0.536174 0
M  V30 19019 H 1784.58 -1.53067 0.316263 0
M  V30 19020 H 1785.31 -2.54947 -2.00431 0
M  V30 19021 H 1785.1 -3.84108 -0.787625 0
M  V30 19022 H 1786.59 -3.77958 -1.77589 0
M  V30 19023 N 1787.02 -0.295795 -1.54799 0
M  V30 19024 C 1787.93 0.592206 -2.27002 0
M  V30 19025 C 1788.95 1.1528 -1.30332 0
M  V30 19026 O 1790.12 1.1787 -1.63305 0
M  V30 19027 C 1787.19 1.75027 -2.99277 0
M  V30 19028 C 1786.25 1.22427 -4.11473 0
M  V30 19029 C 1785.48 2.32714 -4.80291 0
M  V30 19030 O 1785.71 3.52506 -4.48437 0
M  V30 19031 O 1784.64 1.997 -5.67806 0
M  V30 19032 H 1788.47 0.00666048 -3.03699 0
M  V30 19033 H 1786.05 -0.0624413 -1.49269 0
M  V30 19034 H 1787.93 2.42508 -3.44627 0
M  V30 19035 H 1786.61 2.32252 -2.25479 0
M  V30 19036 H 1785.52 0.515337 -3.70534 0
M  V30 19037 H 1786.85 0.697518 -4.87233 0
M  V30 19038 N 1788.5 1.57583 -0.0234236 0
M  V30 19039 C 1789.43 2.06766 0.988961 0
M  V30 19040 C 1790.45 0.98998 1.29241 0
M  V30 19041 O 1791.64 1.2663 1.25806 0
M  V30 19042 C 1788.74 2.47244 2.31784 0
M  V30 19043 C 1787.91 3.78023 2.20039 0
M  V30 19044 C 1786.97 4.05113 3.35812 0
M  V30 19045 O 1785.99 4.75447 3.12952 0
M  V30 19046 N 1787.2 3.5484 4.59422 0
M  V30 19047 H 1789.96 2.94242 0.569355 0
M  V30 19048 H 1787.52 1.61073 0.163461 0
M  V30 19049 H 1789.51 2.62463 3.08051 0
M  V30 19050 H 1788.08 1.65163 2.65405 0
M  V30 19051 H 1787.3 3.72656 1.28534 0
M  V30 19052 H 1788.59 4.63717 2.09389 0
M  V30 19053 H 1787.99 2.97928 4.8089 0
M  V30 19054 H 1786.55 3.75348 5.32877 0
M  V30 19055 N 1789.98 -0.249655 1.5561 0
M  V30 19056 C 1791.39 -0.818934 1.67781 0
M  V30 19057 C 1791.74 -1.86134 0.620374 0
M  V30 19058 O 1790.87 -2.15133 -0.233869 0
M  V30 19059 C 1791.46 -1.49219 3.0417 0
M  V30 19060 C 1790.02 -2.0092 3.18289 0
M  V30 19061 C 1789.17 -0.859333 2.63649 0
M  V30 19062 H 1792.12 -0.0255186 1.58679 0
M  V30 19063 H 1792.14 -2.36011 2.98461 0
M  V30 19064 H 1791.65 -0.733268 3.8111 0
M  V30 19065 H 1789.75 -2.79701 2.46167 0
M  V30 19066 H 1789.87 -2.20848 4.25163 0
M  V30 19067 H 1788.23 -1.2591 2.21402 0
M  V30 19068 H 1789.01 -0.113545 3.43112 0
M  V30 19069 N 1791.46 -1.48941 -0.515198 0
M  V30 19070 C 1792.69 -1.61162 -1.29269 0
M  V30 19071 C 1793.1 -0.276697 -1.87166 0
M  V30 19072 O 1792.44 0.746082 -1.67867 0
M  V30 19073 C 1792.5 -2.61067 -2.47152 0
M  V30 19074 C 1792.16 -4.05773 -2.10232 0
M  V30 19075 C 1793.16 -4.93011 -1.65035 0
M  V30 19076 C 1790.85 -4.51412 -2.20302 0
M  V30 19077 C 1792.84 -6.2392 -1.30393 0
M  V30 19078 C 1790.53 -5.82338 -1.85271 0
M  V30 19079 C 1791.53 -6.68416 -1.4039 0
M  V30 19080 O 1791.21 -7.96904 -1.05826 0
M  V30 19081 H 1790.95 -0.545818 -0.398821 0
M  V30 19082 H 1793.5 -1.95608 -0.626638 0
M  V30 19083 H 1791.73 -2.21773 -3.16787 0
M  V30 19084 H 1793.42 -2.62967 -3.09198 0
M  V30 19085 H 1794.18 -4.58984 -1.56713 0
M  V30 19086 H 1790.06 -3.8459 -2.54189 0
M  V30 19087 H 1793.61 -6.91061 -0.952892 0
M  V30 19088 H 1789.5 -6.15897 -1.93238 0
M  V30 19089 H 1790.27 -8.09789 -1.19096 0
M  V30 19090 N 1792.94 0.765193 -1.37777 0
M  V30 19091 C 1793.87 1.888 -1.29951 0
M  V30 19092 C 1794.88 1.61387 -0.213996 0
M  V30 19093 O 1796.07 1.72183 -0.470657 0
M  V30 19094 C 1793.17 3.24178 -0.988004 0
M  V30 19095 C 1792.34 3.79186 -2.18029 0
M  V30 19096 C 1791.4 4.93054 -1.83804 0
M  V30 19097 O 1790.43 5.08296 -2.56172 0
M  V30 19098 N 1791.63 5.75153 -0.786062 0
M  V30 19099 H 1794.39 1.96028 -2.267 0
M  V30 19100 H 1791.96 0.944602 -1.31487 0
M  V30 19101 H 1793.95 3.97881 -0.739771 0
M  V30 19102 H 1792.52 3.1241 -0.108852 0
M  V30 19103 H 1791.74 2.97185 -2.58988 0
M  V30 19104 H 1793.03 4.12669 -2.97627 0
M  V30 19105 H 1792.42 5.65395 -0.185678 0
M  V30 19106 H 1790.98 6.49054 -0.597697 0
M  V30 19107 N 1794.41 1.22455 0.992094 0
M  V30 19108 C 1795.66 1.04752 1.72833 0
M  V30 19109 C 1795.98 -0.418152 1.90464 0
M  V30 19110 O 1795.25 -1.30072 1.46486 0
M  V30 19111 H 1793.83 0.384626 0.640368 0
M  V30 19112 H 1796.49 1.5398 1.19483 0
M  V30 19113 H 1795.59 1.52601 2.72249 0
M  V30 19114 N 1795.89 -1.18905 1.03437 0
M  V30 19115 C 1796.82 -2.24539 0.640669 0
M  V30 19116 C 1797.8 -1.66396 -0.353024 0
M  V30 19117 O 1798.99 -1.92779 -0.234522 0
M  V30 19118 C 1796.12 -3.473 -0.00367731 0
M  V30 19119 C 1795.07 -4.18151 0.912881 0
M  V30 19120 C 1794.4 -5.34534 0.133347 0
M  V30 19121 C 1795.7 -4.72342 2.22913 0
M  V30 19122 H 1797.39 -2.57726 1.52374 0
M  V30 19123 H 1794.94 -1.23883 0.734098 0
M  V30 19124 H 1796.89 -4.20396 -0.290783 0
M  V30 19125 H 1795.61 -3.13328 -0.921578 0
M  V30 19126 H 1794.27 -3.46945 1.18427 0
M  V30 19127 H 1793.92 -4.96809 -0.786762 0
M  V30 19128 H 1793.62 -5.82872 0.743905 0
M  V30 19129 H 1795.15 -6.10423 -0.146889 0
M  V30 19130 H 1796.56 -5.37165 2.00317 0
M  V30 19131 H 1794.96 -5.31189 2.79209 0
M  V30 19132 H 1796.03 -3.90108 2.87999 0
M  V30 19133 N 1797.37 -0.812977 -1.35013 0
M  V30 19134 C 1798.59 -0.407969 -2.03348 0
M  V30 19135 C 1799.02 0.975148 -1.60849 0
M  V30 19136 O 1798.38 1.63267 -0.788256 0
M  V30 19137 C 1798.43 -0.506754 -3.57022 0
M  V30 19138 O 1797.53 0.477322 -4.09628 0
M  V30 19139 H 1796.87 -0.169416 -0.642023 0
M  V30 19140 H 1799.4 -1.10064 -1.72474 0
M  V30 19141 H 1799.41 -0.378883 -4.06237 0
M  V30 19142 H 1798.09 -1.51557 -3.87302 0
M  V30 19143 H 1796.66 0.309161 -3.71616 0
M  V30 19144 N 1798.85 1.47045 -0.567045 0
M  V30 19145 C 1799.8 2.31838 0.188075 0
M  V30 19146 C 1800.79 1.4353 0.899752 0
M  V30 19147 O 1802 1.60241 0.81992 0
M  V30 19148 H 1798.37 0.747783 0.0795226 0
M  V30 19149 H 1800.34 2.9336 -0.546121 0
M  V30 19150 C 1799.09 3.26387 1.19861 0
M  V30 19151 H 1798.41 3.94308 0.660412 0
M  V30 19152 H 1799.85 3.8853 1.69767 0
M  V30 19153 C 1798.31 2.50612 2.25157 0
M  V30 19154 O 1798.84 2.25771 3.3225 0
M  V30 19155 N 1797.05 2.11447 1.99345 0
M  V30 19156 H 1796.6 2.31849 1.12267 0
M  V30 19157 H 1796.55 1.61064 2.7001 0
M  V30 19158 N 1800.33 0.304 1.5464 0
M  V30 19159 C 1801.24 -0.580159 2.27313 0
M  V30 19160 C 1802.25 -1.14588 1.30941 0
M  V30 19161 O 1803.43 -1.17002 1.63928 0
M  V30 19162 C 1800.49 -1.73437 3.00201 0
M  V30 19163 C 1799.55 -1.20243 4.12116 0
M  V30 19164 C 1798.79 -2.30164 4.81519 0
M  V30 19165 O 1799.01 -3.50123 4.503 0
M  V30 19166 O 1797.94 -1.96686 5.68857 0
M  V30 19167 H 1801.77 0.00944552 3.03699 0
M  V30 19168 H 1799.35 0.0703565 1.49234 0
M  V30 19169 H 1801.24 -2.40677 3.45908 0
M  V30 19170 H 1799.91 -2.31053 2.26708 0
M  V30 19171 H 1798.82 -0.495679 3.70802 0
M  V30 19172 H 1800.15 -0.67167 4.87596 0
M  V30 19173 N 1801.8 -1.57568 0.0317802 0
M  V30 19174 C 1802.74 -2.07288 -0.977981 0
M  V30 19175 C 1803.75 -0.99682 -1.28714 0
M  V30 19176 O 1804.94 -1.27295 -1.25133 0
M  V30 19177 C 1802.04 -2.48469 -2.3047 0
M  V30 19178 C 1801.21 -3.79185 -2.18031 0
M  V30 19179 C 1800.27 -4.06888 -3.33659 0
M  V30 19180 O 1799.3 -4.771 -3.10426 0
M  V30 19181 N 1800.5 -3.57271 -4.57534 0
M  V30 19182 H 1803.26 -2.9454 -0.553743 0
M  V30 19183 H 1800.82 -1.61157 -0.154917 0
M  V30 19184 H 1802.82 -2.64092 -3.06655 0
M  V30 19185 H 1801.39 -1.66568 -2.64526 0
M  V30 19186 H 1800.61 -3.73333 -1.26556 0
M  V30 19187 H 1801.89 -4.64821 -2.06926 0
M  V30 19188 H 1801.29 -3.00474 -4.79303 0
M  V30 19189 H 1799.85 -3.78168 -5.30878 0
M  V30 19190 N 1803.28 0.241399 -1.5574 0
M  V30 19191 C 1804.53 0.970098 -1.78093 0
M  V30 19192 C 1804.86 1.84763 -0.598005 0
M  V30 19193 O 1804.14 1.90268 0.403516 0
M  V30 19194 C 1804.42 1.82594 -3.10373 0
M  V30 19195 C 1804.27 0.976228 -4.39078 0
M  V30 19196 C 1805.59 2.80743 -3.38927 0
M  V30 19197 H 1802.71 0.35125 -0.647914 0
M  V30 19198 H 1805.35 0.240232 -1.88475 0
M  V30 19199 H 1803.5 2.44823 -3.01652 0
M  V30 19200 H 1805.17 0.37222 -4.59796 0
M  V30 19201 H 1803.42 0.280807 -4.3289 0
M  V30 19202 H 1804.09 1.60899 -5.2803 0
M  V30 19203 H 1806.56 2.28651 -3.47646 0
M  V30 19204 H 1805.44 3.37743 -4.3269 0
M  V30 19205 H 1805.7 3.57484 -2.6011 0
M  V30 19206 N 1804.76 1.49212 0.507292 0
M  V30 19207 C 1805.69 1.68326 1.61829 0
M  V30 19208 C 1806.67 0.531969 1.61568 0
M  V30 19209 O 1807.86 0.767104 1.78407 0
M  V30 19210 C 1804.99 1.74394 3.0034 0
M  V30 19211 C 1803.94 2.89251 3.15465 0
M  V30 19212 C 1803.27 2.80426 4.55264 0
M  V30 19213 C 1804.57 4.30269 2.96085 0
M  V30 19214 H 1806.26 2.6134 1.46087 0
M  V30 19215 H 1803.81 1.25765 0.701367 0
M  V30 19216 H 1805.76 1.86353 3.77956 0
M  V30 19217 H 1804.48 0.779748 3.17155 0
M  V30 19218 H 1803.14 2.76884 2.40272 0
M  V30 19219 H 1802.79 1.81928 4.68947 0
M  V30 19220 H 1802.49 3.57511 4.66326 0
M  V30 19221 H 1804.01 2.94384 5.34949 0
M  V30 19222 H 1805.43 4.4335 3.63475 0
M  V30 19223 H 1803.83 5.08527 3.18623 0
M  V30 19224 H 1804.9 4.45151 1.92272 0
M  V30 19225 N 1806.24 -0.757876 1.38181 0
M  V30 19226 C 1807.65 -1.06035 1.19284 0
M  V30 19227 C 1807.85 -2.01463 0.0385482 0
M  V30 19228 O 1806.91 -2.44845 -0.61703 0
M  V30 19229 C 1808.22 -1.64455 2.51744 0
M  V30 19230 C 1809.77 -1.76646 2.58389 0
M  V30 19231 C 1810.25 -2.38478 3.91014 0
M  V30 19232 N 1811.74 -2.45914 3.92531 0
M  V30 19233 C 1812.47 -2.94641 4.91909 0
M  V30 19234 N 1811.97 -3.43435 6.01684 0
M  V30 19235 N 1813.76 -2.93642 4.79303 0
M  V30 19236 H 1805.91 -0.124532 2.12035 0
M  V30 19237 H 1808.18 -0.117876 0.940643 0
M  V30 19238 H 1807.88 -1.01804 3.36644 0
M  V30 19239 H 1807.76 -2.63573 2.69832 0
M  V30 19240 H 1810.14 -2.38426 1.73888 0
M  V30 19241 H 1810.22 -0.762449 2.44173 0
M  V30 19242 H 1809.87 -1.77334 4.75936 0
M  V30 19243 H 1809.8 -3.39513 4.0254 0
M  V30 19244 H 1812.29 -2.11398 3.1324 0
M  V30 19245 H 1812.6 -3.79059 6.73449 0
M  V30 19246 H 1810.95 -3.41504 6.0531 0
M  V30 19247 H 1814.14 -2.5483 3.92657 0
M  V30 19248 H 1814.31 -3.31304 5.56903 0
M  V30 19249 N 1807.72 -1.22979 -0.985586 0
M  V30 19250 C 1808.96 -1.05877 -1.72616 0
M  V30 19251 C 1809.29 0.405097 -1.90235 0
M  V30 19252 O 1808.55 1.31642 -1.44807 0
M  V30 19253 C 1808.85 -1.72346 -3.131 0
M  V30 19254 C 1808.51 -3.22256 -3.15376 0
M  V30 19255 C 1807.17 -3.63159 -3.15704 0
M  V30 19256 C 1809.53 -4.18174 -3.11094 0
M  V30 19257 C 1806.85 -4.98448 -3.09461 0
M  V30 19258 C 1809.21 -5.53449 -3.06393 0
M  V30 19259 C 1807.87 -5.93722 -3.05041 0
M  V30 19260 H 1807.14 -0.38743 -0.631648 0
M  V30 19261 H 1809.79 -1.52842 -1.15375 0
M  V30 19262 H 1808.09 -1.17725 -3.73695 0
M  V30 19263 H 1809.79 -1.56595 -3.6916 0
M  V30 19264 H 1806.38 -2.89692 -3.15875 0
M  V30 19265 H 1810.56 -3.87586 -3.09985 0
M  V30 19266 H 1805.82 -5.28873 -3.06763 0
M  V30 19267 H 1809.99 -6.27492 -3.02037 0
M  V30 19268 H 1807.62 -6.98519 -2.99958 0
M  V30 19269 N 1809.19 1.18355 -1.04066 0
M  V30 19270 C 1810.44 1.88614 -0.745148 0
M  V30 19271 C 1810.77 1.80147 0.725294 0
M  V30 19272 O 1810.05 1.20177 1.5293 0
M  V30 19273 C 1810.33 3.39095 -1.2119 0
M  V30 19274 C 1810.18 3.56372 -2.74444 0
M  V30 19275 C 1811.5 4.32732 -0.801953 0
M  V30 19276 H 1808.62 0.684905 -0.272166 0
M  V30 19277 H 1811.26 1.39248 -1.29267 0
M  V30 19278 H 1809.41 3.81269 -0.746091 0
M  V30 19279 H 1811.09 3.2329 -3.29061 0
M  V30 19280 H 1809.33 2.99028 -3.14269 0
M  V30 19281 H 1810 4.61956 -3.0216 0
M  V30 19282 H 1812.48 3.98337 -1.20278 0
M  V30 19283 H 1811.35 5.36583 -1.15628 0
M  V30 19284 H 1811.61 4.41115 0.294907 0
M  V30 19285 N 1810.67 0.820125 1.3458 0
M  V30 19286 C 1811.61 0.185324 2.27446 0
M  V30 19287 C 1812.58 -0.656627 1.48752 0
M  V30 19288 O 1813.77 -0.620975 1.77978 0
M  V30 19289 C 1810.89 -0.741455 3.30485 0
M  V30 19290 C 1809.94 0.0226077 4.26494 0
M  V30 19291 S 1810.77 1.36787 5.17735 0
M  V30 19292 C 1811.93 0.445893 6.2431 0
M  V30 19293 H 1812.16 0.972658 2.80939 0
M  V30 19294 H 1809.7 0.615879 1.41585 0
M  V30 19295 H 1811.65 -1.27062 3.9034 0
M  V30 19296 H 1810.31 -1.50229 2.75844 0
M  V30 19297 H 1809.51 -0.681827 4.99367 0
M  V30 19298 H 1809.11 0.482239 3.70878 0
M  V30 19299 H 1811.4 -0.363637 6.76523 0
M  V30 19300 H 1812.34 1.14421 6.98794 0
M  V30 19301 H 1812.75 0.0355676 5.64489 0
M  V30 19302 N 1812.15 -1.46743 0.574835 0
M  V30 19303 C 1813.06 -2.34015 -0.16559 0
M  V30 19304 C 1814.08 -1.49273 -0.894064 0
M  V30 19305 O 1815.25 -1.82162 -0.859013 0
M  V30 19306 C 1812.32 -3.26313 -1.17136 0
M  V30 19307 C 1811.38 -4.26952 -0.448413 0
M  V30 19308 C 1810.61 -5.1484 -1.40627 0
M  V30 19309 O 1810.83 -5.05508 -2.6423 0
M  V30 19310 O 1809.77 -5.9481 -0.921143 0
M  V30 19311 H 1813.59 -2.98664 0.550754 0
M  V30 19312 H 1811.18 -1.45589 0.335297 0
M  V30 19313 H 1813.06 -3.83276 -1.75149 0
M  V30 19314 H 1811.74 -2.64269 -1.86931 0
M  V30 19315 H 1810.64 -3.73698 0.17336 0
M  V30 19316 H 1811.98 -4.91759 0.208419 0
M  V30 19317 N 1813.63 -0.312197 -1.54477 0
M  V30 19318 C 1814.88 0.293192 -1.99962 0
M  V30 19319 C 1815.2 1.53544 -1.20205 0
M  V30 19320 O 1814.47 1.93575 -0.300901 0
M  V30 19321 H 1813.05 0.111325 -0.738658 0
M  V30 19322 H 1815.71 -0.426116 -1.90185 0
M  V30 19323 H 1814.81 0.557482 -3.07081 0
M  V30 19324 N 1815.11 1.57549 -0.040136 0
M  V30 19325 C 1816.35 1.9187 0.634838 0
M  V30 19326 C 1816.68 0.918178 1.7203 0
M  V30 19327 O 1815.95 -0.0386563 1.95862 0
M  V30 19328 H 1814.53 0.708245 0.237483 0
M  V30 19329 H 1817.19 1.9469 -0.0905369 0
M  V30 19330 H 1816.28 2.92799 1.08053 0
M  V30 19331 N 1816.58 -0.233136 1.55866 0
M  V30 19332 C 1817.51 -1.29225 1.94482 0
M  V30 19333 C 1818.5 -1.49495 0.811503 0
M  V30 19334 O 1819.68 -1.61872 1.07289 0
M  V30 19335 C 1816.81 -2.64435 2.25147 0
M  V30 19336 C 1815.76 -2.5884 3.4086 0
M  V30 19337 C 1815.09 -3.97973 3.57102 0
M  V30 19338 C 1816.39 -2.14629 4.76164 0
M  V30 19339 H 1818.08 -0.971527 2.83199 0
M  V30 19340 H 1815.63 -0.465905 1.36255 0
M  V30 19341 H 1817.58 -3.38676 2.50752 0
M  V30 19342 H 1816.31 -2.98172 1.33271 0
M  V30 19343 H 1814.97 -1.87057 3.15286 0
M  V30 19344 H 1814.61 -4.28998 2.62621 0
M  V30 19345 H 1814.31 -3.95114 4.34924 0
M  V30 19346 H 1815.84 -4.73893 3.85043 0
M  V30 19347 H 1817.25 -2.78607 5.0105 0
M  V30 19348 H 1815.65 -2.22853 5.57186 0
M  V30 19349 H 1816.72 -1.09826 4.72299 0
M  V30 19350 N 1818.06 -1.49479 -0.499372 0
M  V30 19351 C 1818.99 -1.69182 -1.60934 0
M  V30 19352 C 1819.97 -0.54053 -1.61283 0
M  V30 19353 O 1821.16 -0.776554 -1.77998 0
M  V30 19354 C 1818.29 -1.75985 -2.99411 0
M  V30 19355 C 1817.24 -2.9092 -3.13926 0
M  V30 19356 C 1816.57 -2.82837 -4.5377 0
M  V30 19357 C 1817.87 -4.31833 -2.93799 0
M  V30 19358 H 1819.56 -2.62112 -1.44699 0
M  V30 19359 H 1817.11 -1.26135 -0.694688 0
M  V30 19360 H 1819.06 -1.88354 -3.76962 0
M  V30 19361 H 1817.79 -0.796557 -3.16737 0
M  V30 19362 H 1816.45 -2.78155 -2.388 0
M  V30 19363 H 1816.09 -1.84412 -4.67976 0
M  V30 19364 H 1815.79 -3.59979 -4.64423 0
M  V30 19365 H 1817.32 -2.97217 -5.3338 0
M  V30 19366 H 1818.73 -4.45271 -3.61119 0
M  V30 19367 H 1817.13 -5.10209 -3.15922 0
M  V30 19368 H 1818.2 -4.46165 -1.89908 0
M  V30 19369 N 1819.54 0.750537 -1.38581 0
M  V30 19370 C 1820.82 1.50051 -1.25475 0
M  V30 19371 C 1821.2 2.10618 0.142521 0
M  V30 19372 O 1820.55 1.97317 1.15231 0
M  V30 19373 C 1820.76 2.56443 -2.36724 0
M  V30 19374 C 1822.1 3.23261 -2.75296 0
M  V30 19375 O 1823.13 2.66749 -2.36058 0
M  V30 19376 O 1821.99 4.25481 -3.4297 0
M  V30 19377 H 1819.08 0.665581 -0.490847 0
M  V30 19378 H 1821.63 0.785688 -1.50416 0
M  V30 19379 H 1820.4 2.09958 -3.30202 0
M  V30 19380 H 1820.02 3.35503 -2.13363 0
M  V30 19381 N 1821.02 1.235 0.979051 0
M  V30 19382 C 1821.97 1.01737 2.07167 0
M  V30 19383 C 1822.94 -0.0656067 1.6597 0
M  V30 19384 O 1824.12 0.0867676 1.90603 0
M  V30 19385 C 1821.26 0.616104 3.39556 0
M  V30 19386 C 1820.37 1.77135 3.94014 0
M  V30 19387 C 1819.51 1.31674 5.14622 0
M  V30 19388 C 1818.55 2.44265 5.6125 0
M  V30 19389 N 1817.69 1.99752 6.73085 0
M  V30 19390 H 1822.53 1.9526 2.25117 0
M  V30 19391 H 1820.06 0.972707 1.10349 0
M  V30 19392 H 1822.02 0.364549 4.15604 0
M  V30 19393 H 1820.65 -0.282117 3.21565 0
M  V30 19394 H 1819.7 2.13687 3.14709 0
M  V30 19395 H 1821.01 2.61775 4.24588 0
M  V30 19396 H 1820.17 1.02339 5.98006 0
M  V30 19397 H 1818.91 0.440724 4.85705 0
M  V30 19398 H 1817.91 2.74373 4.76445 0
M  V30 19399 H 1819.14 3.32405 5.92186 0
M  V30 19400 H 1817.08 1.14532 6.45924 0
M  V30 19401 H 1817 2.77951 7.0305 0
M  V30 19402 H 1818.27 1.73525 7.5994 0
M  V30 19403 N 1822.5 -1.17802 1.04693 0
M  V30 19404 C 1823.91 -1.69583 0.780923 0
M  V30 19405 C 1824.26 -1.83383 -0.697497 0
M  V30 19406 O 1823.38 -1.51781 -1.54245 0
M  V30 19407 C 1823.98 -3.08021 1.41097 0
M  V30 19408 C 1822.54 -3.56989 1.19313 0
M  V30 19409 C 1821.69 -2.33377 1.49768 0
M  V30 19410 H 1824.64 -1.02389 1.21253 0
M  V30 19411 H 1824.66 -3.71613 0.817539 0
M  V30 19412 H 1824.17 -2.97945 2.48697 0
M  V30 19413 H 1822.27 -3.72351 0.136146 0
M  V30 19414 H 1822.38 -4.40049 1.89456 0
M  V30 19415 H 1820.75 -2.37597 0.917585 0
M  V30 19416 H 1821.53 -2.25914 2.58491 0
M  V30 19417 N 1823.98 -0.827251 -1.34143 0
M  V30 19418 C 1825.25 -0.339793 -1.92626 0
M  V30 19419 C 1825.63 1.17342 -1.75482 0
M  V30 19420 O 1824.98 1.98251 -1.13616 0
M  V30 19421 C 1825.19 -0.773891 -3.40312 0
M  V30 19422 C 1826.54 -0.77521 -4.17463 0
M  V30 19423 O 1827.56 -0.716748 -3.48914 0
M  V30 19424 O 1826.42 -0.852347 -5.39812 0
M  V30 19425 H 1823.52 -0.0937486 -0.821669 0
M  V30 19426 H 1826.06 -0.91233 -1.4309 0
M  V30 19427 H 1824.83 -1.81597 -3.46609 0
M  V30 19428 H 1824.46 -0.177287 -3.97205 0
M  V30 19429 N 1825.45 1.46436 -0.582609 0
M  V30 19430 C 1826.4 2.32025 0.163475 0
M  V30 19431 C 1827.4 1.44476 0.884478 0
M  V30 19432 O 1828.6 1.61102 0.802878 0
M  V30 19433 H 1824.98 0.748585 0.0715868 0
M  V30 19434 H 1826.95 2.92764 -0.577205 0
M  V30 19435 C 1825.7 3.2764 1.16392 0
M  V30 19436 H 1825.02 3.94986 0.618553 0
M  V30 19437 H 1826.46 3.90308 1.65636 0
M  V30 19438 C 1824.92 2.52986 2.22486 0
M  V30 19439 O 1825.45 2.29283 3.29837 0
M  V30 19440 N 1823.65 2.1355 1.97091 0
M  V30 19441 H 1823.2 2.33027 1.09801 0
M  V30 19442 H 1823.16 1.63919 2.68287 0
M  V30 19443 N 1826.93 0.320385 1.54309 0
M  V30 19444 C 1828.17 -0.283775 2.02421 0
M  V30 19445 C 1828.54 -1.49594 1.20357 0
M  V30 19446 O 1829.74 -2.17275 1.58256 0
M  V30 19447 C 1828.01 -0.612699 3.52109 0
M  V30 19448 S 1829.57 -1.19697 4.22159 0
M  V30 19449 H 1826.38 -0.0860212 0.705777 0
M  V30 19450 H 1828.99 0.452768 1.90185 0
M  V30 19451 H 1827.69 0.277697 4.09459 0
M  V30 19452 H 1827.22 -1.37952 3.68419 0
M  V30 19453 H 1829.24 -2.48394 4.29552 0
M  V30 19454 N 1828.41 -1.57525 0.0484906 0
M  V30 19455 C 1829.82 -1.80221 -0.487592 0
M  V30 19456 C 1830.17 -0.96049 -1.71082 0
M  V30 19457 O 1829.3 -0.17632 -2.1568 0
M  V30 19458 C 1829.89 -3.26864 -0.89136 0
M  V30 19459 C 1828.45 -3.50487 -1.37244 0
M  V30 19460 C 1827.6 -2.75129 -0.346348 0
M  V30 19461 H 1830.55 -1.5631 0.274392 0
M  V30 19462 H 1830.57 -3.37637 -1.75446 0
M  V30 19463 H 1830.08 -3.881 -0.000880924 0
M  V30 19464 H 1828.18 -2.94528 -2.2822 0
M  V30 19465 H 1828.3 -4.592 -1.36645 0
M  V30 19466 H 1826.66 -2.41185 -0.818653 0
M  V30 19467 H 1827.44 -3.3909 0.536 0
M  V30 19468 N 1829.89 0.224867 -1.55988 0
M  V30 19469 C 1831.16 0.973884 -1.69632 0
M  V30 19470 C 1831.54 2.02547 -0.594791 0
M  V30 19471 O 1830.89 2.24995 0.398679 0
M  V30 19472 C 1831.1 1.58732 -3.10814 0
M  V30 19473 C 1832.45 2.08084 -3.70117 0
M  V30 19474 O 1833.47 1.68633 -3.13754 0
M  V30 19475 O 1832.33 2.80586 -4.68971 0
M  V30 19476 H 1829.43 0.454716 -0.690769 0
M  V30 19477 H 1831.97 0.216911 -1.68308 0
M  V30 19478 H 1830.75 0.827834 -3.82443 0
M  V30 19479 H 1830.37 2.40992 -3.16241 0
M  V30 19480 N 1831.37 1.49742 0.491438 0
M  V30 19481 C 1832.3 1.6173 1.60993 0
M  V30 19482 C 1833.28 0.466021 1.55779 0
M  V30 19483 O 1834.46 0.682843 1.75697 0
M  V30 19484 C 1831.59 1.58109 2.99532 0
M  V30 19485 C 1830.63 2.78551 3.22973 0
M  V30 19486 S 1831.47 4.4011 3.05063 0
M  V30 19487 C 1832.62 4.3915 4.4598 0
M  V30 19488 H 1832.86 2.56345 1.50581 0
M  V30 19489 H 1830.39 1.38752 0.677301 0
M  V30 19490 H 1832.35 1.56706 3.79412 0
M  V30 19491 H 1831.01 0.64765 3.0735 0
M  V30 19492 H 1830.2 2.72264 4.24133 0
M  V30 19493 H 1829.8 2.77416 2.50831 0
M  V30 19494 H 1832.09 4.11459 5.38245 0
M  V30 19495 H 1833.04 5.40619 4.57315 0
M  V30 19496 H 1833.45 3.69107 4.27107 0
M  V30 19497 N 1832.84 -0.743177 1.38977 0
M  V30 19498 C 1833.77 -1.87047 1.3977 0
M  V30 19499 C 1834.76 -1.68068 0.262161 0
M  V30 19500 O 1835.94 -1.88507 0.466782 0
M  V30 19501 C 1833.07 -3.24701 1.23234 0
M  V30 19502 C 1832.02 -3.58302 2.34102 0
M  V30 19503 C 1831.35 -4.94805 2.02663 0
M  V30 19504 C 1832.65 -3.62111 3.76395 0
M  V30 19505 H 1834.34 -1.8664 2.34107 0
M  V30 19506 H 1831.89 -0.896541 1.12686 0
M  V30 19507 H 1833.84 -4.03228 1.22412 0
M  V30 19508 H 1832.57 -3.25614 0.253638 0
M  V30 19509 H 1831.23 -2.82099 2.34128 0
M  V30 19510 H 1830.87 -4.92289 1.0325 0
M  V30 19511 H 1830.57 -5.18254 2.76922 0
M  V30 19512 H 1832.1 -5.75699 2.03477 0
M  V30 19513 H 1833.51 -4.30731 3.78343 0
M  V30 19514 H 1831.91 -3.97075 4.49946 0
M  V30 19515 H 1832.98 -2.62099 4.07961 0
M  V30 19516 N 1834.32 -1.24018 -0.972487 0
M  V30 19517 C 1835.57 -1.07702 -1.71484 0
M  V30 19518 C 1835.9 0.384897 -1.90654 0
M  V30 19519 O 1835.15 1.30098 -1.46195 0
M  V30 19520 C 1835.45 -1.75657 -3.11255 0
M  V30 19521 C 1835.12 -3.25583 -3.1194 0
M  V30 19522 C 1833.78 -3.66487 -3.11834 0
M  V30 19523 C 1836.13 -4.2145 -3.06642 0
M  V30 19524 C 1833.46 -5.01703 -3.04157 0
M  V30 19525 C 1835.81 -5.56668 -3.00506 0
M  V30 19526 C 1834.48 -5.96924 -2.98726 0
M  V30 19527 H 1833.75 -0.394108 -0.627503 0
M  V30 19528 H 1836.39 -1.54057 -1.13748 0
M  V30 19529 H 1834.7 -1.21682 -3.72425 0
M  V30 19530 H 1836.39 -1.60502 -3.67478 0
M  V30 19531 H 1832.98 -2.93026 -3.12784 0
M  V30 19532 H 1837.17 -3.90852 -3.05856 0
M  V30 19533 H 1832.42 -5.32096 -3.01137 0
M  V30 19534 H 1836.6 -6.30661 -2.95365 0
M  V30 19535 H 1834.23 -7.01661 -2.92532 0
M  V30 19536 N 1835.8 1.17245 -1.05316 0
M  V30 19537 C 1836.71 2.24948 -0.666011 0
M  V30 19538 C 1837.73 1.71153 0.313478 0
M  V30 19539 O 1838.9 2.00721 0.165262 0
M  V30 19540 C 1835.97 3.46667 -0.0480198 0
M  V30 19541 C 1835.03 4.15542 -1.07812 0
M  V30 19542 C 1834.26 5.3145 -0.48952 0
M  V30 19543 O 1834.48 5.6608 0.700668 0
M  V30 19544 O 1833.42 5.89315 -1.22439 0
M  V30 19545 H 1837.24 2.60353 -1.56365 0
M  V30 19546 H 1834.83 1.24569 -0.8248 0
M  V30 19547 H 1836.71 4.20364 0.295366 0
M  V30 19548 H 1835.39 3.13056 0.823248 0
M  V30 19549 H 1834.29 3.43858 -1.47351 0
M  V30 19550 H 1835.63 4.53183 -1.92057 0
M  V30 19551 N 1837.28 0.834353 1.33702 0
M  V30 19552 C 1838.21 0.279313 2.31823 0
M  V30 19553 C 1839.19 -0.610495 1.58767 0
M  V30 19554 O 1840.37 -0.534989 1.86686 0
M  V30 19555 C 1837.5 -0.550201 3.42914 0
M  V30 19556 C 1836.46 0.243432 4.27307 0
M  V30 19557 C 1835.78 -0.709548 5.29971 0
M  V30 19558 C 1837.08 1.45799 5.01537 0
M  V30 19559 H 1838.78 1.09915 2.78494 0
M  V30 19560 H 1836.32 0.529987 1.33892 0
M  V30 19561 H 1838.28 -0.948764 4.10581 0
M  V30 19562 H 1837 -1.4032 2.9492 0
M  V30 19563 H 1835.66 0.6235 3.61259 0
M  V30 19564 H 1835.31 -1.55882 4.78236 0
M  V30 19565 H 1835.01 -0.182671 5.87316 0
M  V30 19566 H 1836.53 -1.10572 6.00505 0
M  V30 19567 H 1837.95 1.13283 5.61996 0
M  V30 19568 H 1836.34 1.92133 5.68511 0
M  V30 19569 H 1837.41 2.23016 4.30571 0
M  V30 19570 N 1838.76 -1.46125 0.590367 0
M  V30 19571 C 1839.69 -2.27433 -0.186997 0
M  V30 19572 C 1840.67 -1.36095 -0.889776 0
M  V30 19573 O 1841.85 -1.65511 -0.902123 0
M  V30 19574 C 1838.98 -3.14029 -1.26899 0
M  V30 19575 C 1838.02 -4.21185 -0.671223 0
M  V30 19576 S 1838.86 -5.33087 0.507766 0
M  V30 19577 C 1840.01 -6.23251 -0.575243 0
M  V30 19578 H 1840.25 -2.93016 0.502873 0
M  V30 19579 H 1837.78 -1.49715 0.377448 0
M  V30 19580 H 1839.74 -3.64483 -1.88845 0
M  V30 19581 H 1838.4 -2.47744 -1.93085 0
M  V30 19582 H 1837.59 -4.81633 -1.48478 0
M  V30 19583 H 1837.19 -3.73783 -0.127271 0
M  V30 19584 H 1839.49 -6.61606 -1.4589 0
M  V30 19585 H 1840.43 -7.081 -0.00733853 0
M  V30 19586 H 1840.84 -5.57554 -0.882831 0
M  V30 19587 N 1840.23 -0.328564 -1.54137 0
M  V30 19588 C 1841.65 0.0239073 -1.59582 0
M  V30 19589 C 1841.85 1.50043 -1.34497 0
M  V30 19590 O 1840.91 2.25711 -1.13185 0
M  V30 19591 C 1842.22 -0.398812 -2.98044 0
M  V30 19592 C 1843.77 -0.34989 -3.11038 0
M  V30 19593 C 1844.24 -0.747848 -4.51853 0
M  V30 19594 N 1845.73 -0.701447 -4.57858 0
M  V30 19595 C 1846.47 -0.981505 -5.64937 0
M  V30 19596 N 1845.96 -1.32895 -6.79934 0
M  V30 19597 N 1847.76 -0.906735 -5.54738 0
M  V30 19598 H 1839.91 -1.29052 -1.68699 0
M  V30 19599 H 1842.17 -0.52508 -0.7893 0
M  V30 19600 H 1841.88 -1.42773 -3.21417 0
M  V30 19601 H 1841.75 0.233639 -3.76476 0
M  V30 19602 H 1844.14 0.669831 -2.87397 0
M  V30 19603 H 1844.22 -1.01734 -2.34699 0
M  V30 19604 H 1843.86 -1.76551 -4.76227 0
M  V30 19605 H 1843.79 -0.0580299 -5.26568 0
M  V30 19606 H 1846.28 -0.444963 -3.75271 0
M  V30 19607 H 1846.6 -1.52789 -7.57546 0
M  V30 19608 H 1844.94 -1.36726 -6.81418 0
M  V30 19609 H 1848.13 -0.634748 -4.63776 0
M  V30 19610 H 1848.31 -1.12835 -6.38101 0
M  V30 19611 N 1841.71 1.57497 -0.0568439 0
M  V30 19612 C 1842.65 2.07433 0.951141 0
M  V30 19613 C 1843.62 0.976083 1.30044 0
M  V30 19614 O 1844.81 1.24842 1.41233 0
M  V30 19615 C 1841.93 2.51956 2.26354 0
M  V30 19616 C 1840.98 3.73071 2.06689 0
M  V30 19617 S 1841.81 5.18463 1.34001 0
M  V30 19618 C 1842.97 5.66304 2.66552 0
M  V30 19619 H 1843.2 2.92607 0.526181 0
M  V30 19620 H 1840.74 1.53614 0.155562 0
M  V30 19621 H 1842.69 2.78269 3.01789 0
M  V30 19622 H 1841.35 1.67078 2.65977 0
M  V30 19623 H 1840.55 4.02163 3.03778 0
M  V30 19624 H 1840.15 3.47053 1.39392 0
M  V30 19625 H 1842.44 5.72236 3.62701 0
M  V30 19626 H 1843.38 6.65431 2.4209 0
M  V30 19627 H 1843.79 4.94057 2.73072 0
M  V30 19628 N 1843.19 -0.216591 1.56105 0
M  V30 19629 C 1844.43 -0.947261 1.81125 0
M  V30 19630 C 1844.79 -1.81331 0.631108 0
M  V30 19631 O 1846 -2.57811 0.760726 0
M  V30 19632 C 1844.27 -1.75991 3.11066 0
M  V30 19633 S 1845.83 -2.54554 3.57418 0
M  V30 19634 H 1842.64 -0.318109 0.635868 0
M  V30 19635 H 1845.25 -0.212416 1.94343 0
M  V30 19636 H 1843.95 -1.1139 3.94994 0
M  V30 19637 H 1843.48 -2.53696 3.00669 0
M  V30 19638 H 1845.5 -3.78256 3.21149 0
M  V30 19639 N 1844.67 -1.5 -0.48349 0
M  V30 19640 C 1845.91 -1.61577 -1.2355 0
M  V30 19641 C 1846.27 -0.3065 -1.89943 0
M  V30 19642 O 1845.56 0.694667 -1.78564 0
M  V30 19643 C 1845.76 -2.72475 -2.31283 0
M  V30 19644 C 1845.59 -4.14059 -1.75457 0
M  V30 19645 C 1844.36 -4.80623 -1.55979 0
M  V30 19646 C 1846.55 -4.98715 -1.2565 0
M  V30 19647 N 1844.54 -6.06463 -0.952659 0
M  V30 19648 C 1845.91 -6.15177 -0.771821 0
M  V30 19649 C 1847.96 -4.84582 -1.14388 0
M  V30 19650 C 1846.66 -7.1906 -0.185638 0
M  V30 19651 C 1848.69 -5.88631 -0.571647 0
M  V30 19652 C 1848.05 -7.04333 -0.097282 0
M  V30 19653 H 1844.15 -0.645496 -0.441428 0
M  V30 19654 H 1846.74 -1.87074 -0.539582 0
M  V30 19655 H 1844.91 -2.48721 -2.98316 0
M  V30 19656 H 1846.64 -2.73477 -2.98316 0
M  V30 19657 H 1843.39 -4.3771 -1.8085 0
M  V30 19658 H 1843.82 -6.73698 -0.667863 0
M  V30 19659 H 1848.46 -3.95427 -1.49658 0
M  V30 19660 H 1846.18 -8.07901 0.179294 0
M  V30 19661 H 1849.76 -5.79758 -0.487042 0
M  V30 19662 H 1848.64 -7.83469 0.338582 0
M  V30 19663 N 1846.15 0.735796 -1.39369 0
M  V30 19664 C 1847.08 1.86001 -1.33926 0
M  V30 19665 C 1848.09 1.60897 -0.24818 0
M  V30 19666 O 1849.28 1.71146 -0.507074 0
M  V30 19667 C 1846.38 3.2201 -1.05654 0
M  V30 19668 C 1845.55 3.74476 -2.26023 0
M  V30 19669 C 1844.61 4.89045 -1.94221 0
M  V30 19670 O 1843.64 5.02748 -2.66896 0
M  V30 19671 N 1844.84 5.73357 -0.907884 0
M  V30 19672 H 1847.61 1.91175 -2.30807 0
M  V30 19673 H 1845.17 0.916499 -1.33461 0
M  V30 19674 H 1847.16 3.96223 -0.824001 0
M  V30 19675 H 1845.73 3.12109 -0.175094 0
M  V30 19676 H 1844.95 2.91624 -2.65234 0
M  V30 19677 H 1846.24 4.06263 -3.06313 0
M  V30 19678 H 1845.63 5.64874 -0.305564 0
M  V30 19679 H 1844.19 6.4764 -0.735237 0
M  V30 19680 N 1847.63 1.24532 0.965897 0
M  V30 19681 C 1848.86 1.11157 1.74148 0
M  V30 19682 C 1849.26 -0.338542 1.86147 0
M  V30 19683 O 1848.61 -1.2453 1.35048 0
M  V30 19684 C 1848.67 1.67951 3.17856 0
M  V30 19685 C 1848.33 3.16851 3.29324 0
M  V30 19686 C 1849.33 4.13979 3.14512 0
M  V30 19687 C 1847.01 3.56845 3.53507 0
M  V30 19688 C 1849.01 5.49082 3.2371 0
M  V30 19689 C 1846.7 4.92089 3.62342 0
M  V30 19690 C 1847.69 5.88016 3.47456 0
M  V30 19691 O 1847.38 7.20801 3.55952 0
M  V30 19692 H 1847.11 0.388973 0.55288 0
M  V30 19693 H 1849.67 1.65155 1.22119 0
M  V30 19694 H 1847.9 1.08389 3.71199 0
M  V30 19695 H 1849.59 1.49839 3.77231 0
M  V30 19696 H 1850.35 3.84422 2.95711 0
M  V30 19697 H 1846.23 2.82683 3.64159 0
M  V30 19698 H 1849.78 6.23937 3.12008 0
M  V30 19699 H 1845.67 5.21316 3.80657 0
M  V30 19700 H 1846.44 7.28746 3.72655 0
M  V30 19701 N 1849.1 -1.16685 1.05936 0
M  V30 19702 C 1850.05 -2.2301 0.66101 0
M  V30 19703 C 1851.05 -1.66324 -0.321334 0
M  V30 19704 O 1852.25 -1.7903 -0.186587 0
M  V30 19705 H 1848.63 -0.726112 0.195616 0
M  V30 19706 H 1850.6 -2.539 1.56772 0
M  V30 19707 C 1849.35 -3.47649 0.0596424 0
M  V30 19708 H 1848.67 -3.91578 0.806635 0
M  V30 19709 H 1850.11 -4.23611 -0.18161 0
M  V30 19710 C 1848.57 -3.14965 -1.19578 0
M  V30 19711 O 1849.1 -3.30434 -2.28421 0
M  V30 19712 N 1847.3 -2.69126 -1.09634 0
M  V30 19713 H 1846.85 -2.56738 -0.210599 0
M  V30 19714 H 1846.81 -2.4763 -1.93718 0
M  V30 19715 N 1850.58 -0.841432 -1.33258 0
M  V30 19716 C 1851.99 -0.494767 -1.80025 0
M  V30 19717 C 1852.34 0.986416 -1.696 0
M  V30 19718 O 1851.47 1.76874 -1.24678 0
M  V30 19719 C 1852.06 -0.891306 -3.26866 0
M  V30 19720 C 1850.62 -0.59674 -3.7164 0
M  V30 19721 C 1849.77 -1.09825 -2.54625 0
M  V30 19722 H 1852.72 -1.02989 -1.20743 0
M  V30 19723 H 1852.74 -0.202371 -3.79961 0
M  V30 19724 H 1852.25 -1.96937 -3.34421 0
M  V30 19725 H 1850.35 0.471153 -3.69609 0
M  V30 19726 H 1850.47 -1.15377 -4.65 0
M  V30 19727 H 1848.83 -0.519011 -2.49356 0
M  V30 19728 H 1849.61 -2.18314 -2.64941 0
M  V30 19729 N 1852.06 1.4581 -0.598108 0
M  V30 19730 C 1853.01 2.30454 0.126261 0
M  V30 19731 C 1853.98 1.41541 0.869221 0
M  V30 19732 O 1855.16 1.70478 0.856841 0
M  V30 19733 C 1852.3 3.26285 1.12393 0
M  V30 19734 C 1851.41 4.303 0.382824 0
M  V30 19735 C 1850.55 5.13246 1.36937 0
M  V30 19736 C 1849.59 6.08997 0.615545 0
M  V30 19737 N 1848.73 6.84756 1.55091 0
M  V30 19738 H 1853.57 2.91865 -0.601573 0
M  V30 19739 H 1851.1 1.43829 -0.308467 0
M  V30 19740 H 1853.06 3.80303 1.71539 0
M  V30 19741 H 1851.69 2.66649 1.81929 0
M  V30 19742 H 1850.74 3.79018 -0.323962 0
M  V30 19743 H 1852.05 4.98375 -0.205781 0
M  V30 19744 H 1851.21 5.71618 2.03318 0
M  V30 19745 H 1849.95 4.45168 1.99191 0
M  V30 19746 H 1848.95 5.49765 -0.0619441 0
M  V30 19747 H 1850.18 6.791 -0.00181251 0
M  V30 19748 H 1848.12 6.19375 2.16127 0
M  V30 19749 H 1848.04 7.49149 1.0155 0
M  V30 19750 H 1849.31 7.47675 2.20458 0
M  V30 19751 N 1853.54 0.336733 1.53961 0
M  V30 19752 C 1854.47 -0.566072 2.21068 0
M  V30 19753 C 1855.45 -1.10558 1.1923 0
M  V30 19754 O 1856.63 -1.16712 1.48022 0
M  V30 19755 C 1853.76 -1.77806 2.88275 0
M  V30 19756 C 1852.81 -1.36863 4.03944 0
M  V30 19757 S 1853.64 -0.394182 5.34047 0
M  V30 19758 C 1854.79 -1.61316 6.04754 0
M  V30 19759 H 1855.03 0.00393395 2.973 0
M  V30 19760 H 1852.56 0.120807 1.53927 0
M  V30 19761 H 1854.52 -2.47342 3.27616 0
M  V30 19762 H 1853.18 -2.31928 2.11822 0
M  V30 19763 H 1852.37 -2.2721 4.49879 0
M  V30 19764 H 1851.97 -0.752832 3.66345 0
M  V30 19765 H 1854.27 -2.54866 6.27734 0
M  V30 19766 H 1855.21 -1.19572 6.97931 0
M  V30 19767 H 1855.62 -1.80612 5.34827 0
M  V30 19768 N 1855.02 -1.57465 0.0651956 0
M  V30 19769 C 1856.43 -1.56917 -0.291414 0
M  V30 19770 C 1856.63 -1.07405 -1.70489 0
M  V30 19771 O 1855.69 -0.736958 -2.41506 0
M  V30 19772 C 1857 -3.00509 -0.107088 0
M  V30 19773 C 1858.55 -3.12498 -0.177127 0
M  V30 19774 C 1859.02 -4.57995 -0.0211616 0
M  V30 19775 N 1860.51 -4.63136 -0.0769824 0
M  V30 19776 C 1861.25 -5.73397 0.0193783 0
M  V30 19777 N 1860.75 -6.92594 0.168885 0
M  V30 19778 N 1862.54 -5.62088 -0.0372133 0
M  V30 19779 H 1854.69 -1.87966 0.989061 0
M  V30 19780 H 1856.95 -0.866234 0.385154 0
M  V30 19781 H 1856.66 -3.4082 0.868005 0
M  V30 19782 H 1856.53 -3.67214 -0.86221 0
M  V30 19783 H 1858.92 -2.72078 -1.1427 0
M  V30 19784 H 1859 -2.48445 0.608986 0
M  V30 19785 H 1858.64 -4.99104 0.941151 0
M  V30 19786 H 1858.57 -5.20072 -0.826597 0
M  V30 19787 H 1861.07 -3.77416 -0.191213 0
M  V30 19788 H 1861.38 -7.72443 0.234737 0
M  V30 19789 H 1859.72 -6.947 0.204159 0
M  V30 19790 H 1862.91 -4.67851 -0.152669 0
M  V30 19791 H 1863.09 -6.47987 0.0413392 0
M  V30 19792 N 1856.49 0.20831 -1.56217 0
M  V30 19793 C 1857.9 0.774162 -1.69893 0
M  V30 19794 C 1858.26 1.84424 -0.669506 0
M  V30 19795 O 1857.38 2.15677 0.176748 0
M  V30 19796 C 1857.98 1.41102 -3.08019 0
M  V30 19797 C 1856.53 1.9241 -3.23505 0
M  V30 19798 C 1855.68 0.789129 -2.65835 0
M  V30 19799 H 1858.63 -0.0165614 -1.58691 0
M  V30 19800 H 1858.65 2.28015 -3.04614 0
M  V30 19801 H 1858.17 0.631966 -3.8292 0
M  V30 19802 H 1856.27 2.73076 -2.53496 0
M  V30 19803 H 1856.38 2.09497 -4.30868 0
M  V30 19804 H 1854.74 1.19995 -2.24663 0
M  V30 19805 H 1855.53 0.0225345 -3.43293 0
M  V30 19806 N 1857.97 1.50255 0.475528 0
M  V30 19807 C 1859.2 1.65044 1.25599 0
M  V30 19808 C 1859.62 0.331736 1.85152 0
M  V30 19809 O 1858.98 -0.703863 1.67079 0
M  V30 19810 C 1859.03 2.7405 2.34369 0
M  V30 19811 O 1858.13 2.34994 3.38897 0
M  V30 19812 H 1857.47 0.551557 0.369704 0
M  V30 19813 H 1860 1.96603 0.566422 0
M  V30 19814 H 1860.01 2.96993 2.79749 0
M  V30 19815 H 1858.69 3.6976 1.90395 0
M  V30 19816 H 1857.26 2.22481 2.9926 0
M  V30 19817 N 1859.45 -0.728395 1.39758 0
M  V30 19818 C 1860.7 -1.48808 1.37341 0
M  V30 19819 C 1861.02 -1.94479 -0.0285032 0
M  V30 19820 O 1860.28 -1.67586 -1.01062 0
M  V30 19821 C 1860.58 -2.73735 2.29791 0
M  V30 19822 C 1860.24 -2.46897 3.77296 0
M  V30 19823 C 1858.91 -2.39287 4.17487 0
M  V30 19824 C 1861.26 -2.24097 4.70564 0
M  V30 19825 C 1858.59 -2.06927 5.48997 0
M  V30 19826 C 1860.94 -1.93252 6.02359 0
M  V30 19827 C 1859.6 -1.84115 6.41606 0
M  V30 19828 H 1858.87 -0.544527 0.502565 0
M  V30 19829 H 1861.52 -0.835461 1.72315 0
M  V30 19830 H 1859.82 -3.43772 1.87957 0
M  V30 19831 H 1861.52 -3.31785 2.2521 0
M  V30 19832 H 1858.11 -2.53701 3.45447 0
M  V30 19833 H 1862.3 -2.28939 4.40341 0
M  V30 19834 H 1857.55 -1.98381 5.78321 0
M  V30 19835 H 1861.73 -1.7462 6.74152 0
M  V30 19836 H 1859.35 -1.58807 7.43427 0
M  V30 19837 N 1860.93 -1.25042 -0.959279 0
M  V30 19838 C 1861.86 -1.07494 -2.07285 0
M  V30 19839 C 1862.84 0.0146264 -1.70094 0
M  V30 19840 O 1864.02 -0.154035 -1.93588 0
M  V30 19841 C 1861.15 -0.68794 -3.40418 0
M  V30 19842 C 1860.11 -1.72722 -3.91601 0
M  V30 19843 C 1859.43 -1.19504 -5.21175 0
M  V30 19844 C 1860.73 -3.12502 -4.18497 0
M  V30 19845 H 1862.43 -2.00641 -2.22224 0
M  V30 19846 H 1859.97 -0.966074 -1.06785 0
M  V30 19847 H 1861.93 -0.552133 -4.17767 0
M  V30 19848 H 1860.65 0.279224 -3.25404 0
M  V30 19849 H 1859.31 -1.85139 -3.16416 0
M  V30 19850 H 1858.96 -0.218239 -5.02526 0
M  V30 19851 H 1858.66 -1.88962 -5.56387 0
M  V30 19852 H 1860.18 -1.07153 -6.01124 0
M  V30 19853 H 1861.6 -3.03266 -4.86521 0
M  V30 19854 H 1859.99 -3.79389 -4.64956 0
M  V30 19855 H 1861.06 -3.5991 -3.2495 0
M  V30 19856 N 1862.41 1.16121 -1.06553 0
M  V30 19857 C 1863.32 2.24229 -0.689833 0
M  V30 19858 C 1864.33 1.71476 0.295308 0
M  V30 19859 O 1865.51 2.00885 0.143964 0
M  V30 19860 C 1862.57 3.46596 -0.0847857 0
M  V30 19861 C 1861.63 4.14375 -1.12213 0
M  V30 19862 C 1860.87 5.30901 -0.54586 0
M  V30 19863 O 1861.09 5.66792 0.640588 0
M  V30 19864 O 1860.02 5.87983 -1.28683 0
M  V30 19865 H 1863.85 2.5868 -1.59117 0
M  V30 19866 H 1861.44 1.23687 -0.837966 0
M  V30 19867 H 1863.32 4.20653 0.250764 0
M  V30 19868 H 1861.99 3.13912 0.789998 0
M  V30 19869 H 1860.9 3.42276 -1.5099 0
M  V30 19870 H 1862.23 4.5112 -1.96853 0
M  V30 19871 N 1863.88 0.848487 1.3281 0
M  V30 19872 C 1865.13 0.445116 1.96727 0
M  V30 19873 C 1865.45 -1.00311 1.6792 0
M  V30 19874 O 1866.65 -1.51162 2.25527 0
M  V30 19875 C 1865.11 0.745015 3.52104 0
M  V30 19876 C 1864.72 2.20856 3.89778 0
M  V30 19877 C 1866.46 0.409065 4.22524 0
M  V30 19878 C 1864.37 2.452 5.38174 0
M  V30 19879 H 1863.3 0.162715 0.736233 0
M  V30 19880 H 1865.95 1.03841 1.51292 0
M  V30 19881 H 1864.33 0.0812291 3.95917 0
M  V30 19882 H 1865.5 2.91362 3.56994 0
M  V30 19883 H 1863.82 2.50842 3.32366 0
M  V30 19884 H 1866.42 0.568453 5.3167 0
M  V30 19885 H 1866.76 -0.648796 4.11213 0
M  V30 19886 H 1867.29 1.02848 3.84275 0
M  V30 19887 H 1864.03 3.49588 5.54499 0
M  V30 19888 H 1863.55 1.79265 5.72384 0
M  V30 19889 H 1865.23 2.28838 6.0518 0
M  V30 19890 N 1865.36 -1.4549 0.605832 0
M  V30 19891 C 1866.61 -2.01462 0.0979275 0
M  V30 19892 C 1866.92 -1.48025 -1.27859 0
M  V30 19893 O 1868.13 -1.95962 -1.87912 0
M  V30 19894 C 1866.59 -3.59685 0.124393 0
M  V30 19895 C 1866.19 -4.22119 1.50065 0
M  V30 19896 C 1867.94 -4.23228 -0.328361 0
M  V30 19897 C 1865.85 -5.72489 1.4836 0
M  V30 19898 H 1864.78 -0.753284 0.0328415 0
M  V30 19899 H 1867.43 -1.66981 0.760903 0
M  V30 19900 H 1865.81 -3.91348 -0.605201 0
M  V30 19901 H 1866.98 -4.02032 2.25181 0
M  V30 19902 H 1865.3 -3.70763 1.89535 0
M  V30 19903 H 1867.89 -5.33485 -0.360274 0
M  V30 19904 H 1868.24 -3.93779 -1.35068 0
M  V30 19905 H 1868.77 -3.96276 0.347909 0
M  V30 19906 H 1865.51 -6.06634 2.48346 0
M  V30 19907 H 1865.03 -5.94772 0.774989 0
M  V30 19908 H 1866.71 -6.35652 1.20648 0
M  V30 19909 N 1866.84 -0.344893 -1.5378 0
M  V30 19910 C 1868.07 0.255228 -2.05824 0
M  V30 19911 C 1868.49 1.43329 -1.21812 0
M  V30 19912 O 1867.85 1.79807 -0.232191 0
M  V30 19913 C 1867.9 0.646906 -3.5475 0
M  V30 19914 O 1867 1.74677 -3.7358 0
M  V30 19915 H 1866.34 0.0420518 -0.662667 0
M  V30 19916 H 1868.87 -0.499498 -1.98409 0
M  V30 19917 H 1868.88 0.923686 -3.97407 0
M  V30 19918 H 1867.56 -0.214619 -4.15346 0
M  V30 19919 H 1866.13 1.46715 -3.42825 0
M  V30 19920 N 1868.32 1.57428 -0.0735454 0
M  V30 19921 C 1869.54 1.98301 0.607591 0
M  V30 19922 C 1869.97 0.951686 1.62248 0
M  V30 19923 O 1869.33 -0.0825008 1.81112 0
M  V30 19924 C 1869.37 3.38201 1.2511 0
M  V30 19925 O 1868.48 3.37711 2.36696 0
M  V30 19926 H 1867.82 0.64539 0.156104 0
M  V30 19927 H 1870.35 2.0406 -0.148578 0
M  V30 19928 H 1870.36 3.75424 1.59753 0
M  V30 19929 H 1869.03 4.12793 0.50745 0
M  V30 19930 H 1867.61 3.1226 2.03833 0
M  V30 19931 N 1869.8 -0.200022 1.56326 0
M  V30 19932 C 1871.05 -0.919331 1.7953 0
M  V30 19933 C 1871.36 -1.84628 0.645908 0
M  V30 19934 O 1872.56 -2.60584 0.762132 0
M  V30 19935 C 1871.02 -1.68508 3.18014 0
M  V30 19936 C 1870.63 -0.803202 4.40741 0
M  V30 19937 C 1872.37 -2.39432 3.50532 0
M  V30 19938 C 1870.28 -1.56753 5.70248 0
M  V30 19939 H 1869.21 -0.347018 0.669399 0
M  V30 19940 H 1871.86 -0.172713 1.82685 0
M  V30 19941 H 1870.24 -2.4754 3.09095 0
M  V30 19942 H 1871.42 -0.0518889 4.60771 0
M  V30 19943 H 1869.73 -0.205039 4.15895 0
M  V30 19944 H 1872.33 -2.97158 4.44524 0
M  V30 19945 H 1872.67 -3.13378 2.74043 0
M  V30 19946 H 1873.2 -1.6737 3.60877 0
M  V30 19947 H 1869.94 -0.870942 6.49688 0
M  V30 19948 H 1869.46 -2.29291 5.54243 0
M  V30 19949 H 1871.14 -2.12262 6.11191 0
M  V30 19950 N 1871.27 -1.50505 -0.467553 0
M  V30 19951 C 1872.22 -1.69626 -1.56511 0
M  V30 19952 C 1873.19 -0.537594 -1.5716 0
M  V30 19953 O 1874.38 -0.768574 -1.74636 0
M  V30 19954 C 1871.52 -1.79965 -2.9446 0
M  V30 19955 C 1870.63 -3.07356 -3.03572 0
M  V30 19956 C 1869.76 -3.08469 -4.32458 0
M  V30 19957 C 1868.8 -4.303 -4.35326 0
M  V30 19958 N 1867.94 -4.29132 -5.55689 0
M  V30 19959 H 1872.78 -2.63326 -1.39511 0
M  V30 19960 H 1870.32 -1.30531 -0.678239 0
M  V30 19961 H 1872.28 -1.8394 -3.74462 0
M  V30 19962 H 1870.91 -0.897013 -3.10086 0
M  V30 19963 H 1869.96 -3.12836 -2.16421 0
M  V30 19964 H 1871.27 -3.97327 -3.01551 0
M  V30 19965 H 1870.42 -3.11193 -5.20811 0
M  V30 19966 H 1869.16 -2.16335 -4.37093 0
M  V30 19967 H 1868.17 -4.27784 -3.4537 0
M  V30 19968 H 1869.39 -5.23665 -4.3238 0
M  V30 19969 H 1867.34 -3.39853 -5.61102 0
M  V30 19970 H 1867.26 -5.12875 -5.55423 0
M  V30 19971 H 1868.52 -4.36007 -6.46156 0
M  V30 19972 N 1872.75 0.720973 -1.40142 0
M  V30 19973 C 1873.66 1.86527 -1.42284 0
M  V30 19974 C 1874.68 1.71106 -0.316044 0
M  V30 19975 O 1875.85 1.93465 -0.55977 0
M  V30 19976 C 1872.92 3.2227 -1.27841 0
M  V30 19977 C 1871.98 3.49984 -2.48616 0
M  V30 19978 C 1871.21 4.7925 -2.34852 0
M  V30 19979 O 1871.44 5.53963 -1.35945 0
M  V30 19980 O 1870.37 5.07179 -3.24119 0
M  V30 19981 H 1874.2 1.87675 -2.38771 0
M  V30 19982 H 1871.78 0.870677 -1.21407 0
M  V30 19983 H 1873.66 4.03362 -1.21973 0
M  V30 19984 H 1872.34 3.21861 -0.344566 0
M  V30 19985 H 1871.25 2.68922 -2.60061 0
M  V30 19986 H 1872.58 3.55184 -3.40742 0
M  V30 19987 N 1874.23 1.25549 0.952634 0
M  V30 19988 C 1875.14 1.07855 2.08337 0
M  V30 19989 C 1876.16 0.0151456 1.73993 0
M  V30 19990 O 1877.33 0.216498 2.00233 0
M  V30 19991 C 1874.4 0.701369 3.39532 0
M  V30 19992 C 1873.46 1.84293 3.8773 0
M  V30 19993 C 1872.69 1.48365 5.12663 0
M  V30 19994 O 1872.91 0.3802 5.69131 0
M  V30 19995 O 1871.85 2.31452 5.5562 0
M  V30 19996 H 1875.67 2.02688 2.26167 0
M  V30 19997 H 1873.26 1.04506 1.06765 0
M  V30 19998 H 1875.14 0.503231 4.18384 0
M  V30 19999 H 1873.82 -0.217671 3.22967 0
M  V30 20000 H 1872.72 2.09595 3.09872 0
M  V30 20001 H 1874.06 2.74129 4.08796 0
M  V30 20002 N 1875.71 -1.15554 1.07168 0
M  V30 20003 C 1876.64 -2.19201 0.634504 0
M  V30 20004 C 1877.62 -1.58848 -0.347283 0
M  V30 20005 O 1878.8 -1.86779 -0.25415 0
M  V30 20006 C 1875.93 -3.38631 -0.0685456 0
M  V30 20007 C 1874.98 -4.17503 0.87139 0
M  V30 20008 S 1875.81 -4.8013 2.37139 0
M  V30 20009 C 1876.97 -6.02929 1.68009 0
M  V30 20010 H 1877.2 -2.55946 1.51259 0
M  V30 20011 H 1874.73 -1.26486 0.88547 0
M  V30 20012 H 1876.69 -4.07824 -0.467933 0
M  V30 20013 H 1875.35 -3.00234 -0.922944 0
M  V30 20014 H 1874.54 -5.02943 0.326166 0
M  V30 20015 H 1874.15 -3.53849 1.21107 0
M  V30 20016 H 1876.44 -6.70217 0.990739 0
M  V30 20017 H 1877.38 -6.62017 2.51274 0
M  V30 20018 H 1877.79 -5.52477 1.15887 0
M  V30 20019 N 1877.19 -0.855519 -1.32358 0
M  V30 20020 C 1878.1 -0.303696 -2.32626 0
M  V30 20021 C 1879.11 0.578927 -1.64087 0
M  V30 20022 O 1880.29 0.479091 -1.95619 0
M  V30 20023 C 1877.35 0.498152 -3.43103 0
M  V30 20024 C 1876.42 -0.410714 -4.27331 0
M  V30 20025 C 1875.65 0.35296 -5.32532 0
M  V30 20026 O 1875.87 1.58282 -5.47999 0
M  V30 20027 O 1874.81 -0.281689 -6.0124 0
M  V30 20028 H 1878.63 -1.13443 -2.81717 0
M  V30 20029 H 1876.22 -0.618479 -1.35997 0
M  V30 20030 H 1878.1 0.95324 -4.10477 0
M  V30 20031 H 1876.77 1.30567 -2.96199 0
M  V30 20032 H 1875.68 -0.913997 -3.62763 0
M  V30 20033 H 1877.01 -1.18344 -4.77761 0
M  V30 20034 N 1878.67 1.45167 -0.61354 0
M  V30 20035 C 1880.08 1.85674 -0.19544 0
M  V30 20036 C 1880.43 1.51303 1.24908 0
M  V30 20037 O 1879.55 0.94257 1.94794 0
M  V30 20038 C 1880.15 3.37009 -0.347921 0
M  V30 20039 C 1878.71 3.76397 0.0155323 0
M  V30 20040 C 1877.85 2.69095 -0.669578 0
M  V30 20041 H 1880.8 1.35883 -0.819842 0
M  V30 20042 H 1880.83 3.78195 0.418185 0
M  V30 20043 H 1880.34 3.61994 -1.39935 0
M  V30 20044 H 1878.44 3.57028 1.06591 0
M  V30 20045 H 1878.55 4.77573 -0.382267 0
M  V30 20046 H 1876.92 2.54477 -0.10662 0
M  V30 20047 H 1877.7 2.96915 -1.72326 0
M  V30 20048 N 1880.14 0.353044 1.53595 0
M  V30 20049 C 1881.39 -0.240073 2.00669 0
M  V30 20050 C 1881.71 -1.50303 1.24234 0
M  V30 20051 O 1880.98 -1.92709 0.352118 0
M  V30 20052 H 1879.56 -0.0917016 0.74135 0
M  V30 20053 H 1882.22 0.47639 1.88988 0
M  V30 20054 H 1881.32 -0.475869 3.08451 0
M  V30 20055 N 1881.62 -1.57387 0.0818932 0
M  V30 20056 C 1882.87 -1.93869 -0.584899 0
M  V30 20057 C 1883.2 -0.962686 -1.69005 0
M  V30 20058 O 1882.45 0.0199955 -1.9569 0
M  V30 20059 C 1882.75 -3.36939 -1.19193 0
M  V30 20060 C 1882.42 -4.50402 -0.211908 0
M  V30 20061 C 1881.08 -4.81165 0.0576757 0
M  V30 20062 C 1883.43 -5.19184 0.457992 0
M  V30 20063 C 1880.76 -5.78044 1.00408 0
M  V30 20064 C 1883.11 -6.17077 1.39278 0
M  V30 20065 C 1881.77 -6.46253 1.67073 0
M  V30 20066 H 1881.04 -0.709417 -0.21403 0
M  V30 20067 H 1883.69 -1.90872 0.154919 0
M  V30 20068 H 1882 -3.3645 -2.00771 0
M  V30 20069 H 1883.69 -3.62461 -1.71532 0
M  V30 20070 H 1880.28 -4.26415 -0.43221 0
M  V30 20071 H 1884.47 -4.95603 0.262847 0
M  V30 20072 H 1879.72 -5.9897 1.22656 0
M  V30 20073 H 1883.9 -6.69474 1.91775 0
M  V30 20074 H 1881.52 -7.21132 2.40566 0
M  V30 20075 N 1883.1 0.191729 -1.56429 0
M  V30 20076 C 1884.52 0.542701 -1.5009 0
M  V30 20077 C 1884.72 1.85685 -0.782522 0
M  V30 20078 O 1883.77 2.50275 -0.334432 0
M  V30 20079 C 1885.08 0.594326 -2.94768 0
M  V30 20080 C 1886.63 0.682929 -3.05459 0
M  V30 20081 C 1887.11 0.765634 -4.51555 0
M  V30 20082 N 1888.6 0.829072 -4.5572 0
M  V30 20083 C 1889.33 0.91329 -5.6608 0
M  V30 20084 N 1888.83 0.959603 -6.86122 0
M  V30 20085 N 1890.62 0.950739 -5.54001 0
M  V30 20086 H 1882.77 -0.670241 -2.01548 0
M  V30 20087 H 1885.04 -0.239168 -0.917335 0
M  V30 20088 H 1884.74 -0.302238 -3.50399 0
M  V30 20089 H 1884.62 1.44787 -3.48305 0
M  V30 20090 H 1887 1.56992 -2.49875 0
M  V30 20091 H 1887.08 -0.19688 -2.55041 0
M  V30 20092 H 1886.73 -0.117022 -5.07765 0
M  V30 20093 H 1886.66 1.66129 -4.99709 0
M  V30 20094 H 1889.15 0.802391 -3.69283 0
M  V30 20095 H 1889.46 1.02447 -7.65979 0
M  V30 20096 H 1887.81 0.928223 -6.88774 0
M  V30 20097 H 1891 0.911418 -4.59141 0
M  V30 20098 H 1891.17 1.01291 -6.40034 0
M  V30 20099 N 1884.58 1.50751 0.459565 0
M  V30 20100 C 1885.49 1.7326 1.58171 0
M  V30 20101 C 1886.5 0.616042 1.6273 0
M  V30 20102 O 1887.68 0.895726 1.80385 0
M  V30 20103 C 1884.74 1.83249 2.94314 0
M  V30 20104 C 1883.81 3.07031 3.00051 0
M  V30 20105 C 1883.04 3.16534 4.297 0
M  V30 20106 O 1883.26 2.32532 5.2085 0
M  V30 20107 O 1882.2 4.0935 4.41266 0
M  V30 20108 H 1886.02 2.68406 1.42098 0
M  V30 20109 H 1883.61 1.34985 0.640273 0
M  V30 20110 H 1885.49 1.91933 3.75153 0
M  V30 20111 H 1884.16 0.912887 3.10561 0
M  V30 20112 H 1883.07 3.0384 2.18248 0
M  V30 20113 H 1884.4 3.98608 2.88743 0
M  V30 20114 N 1886.06 -0.713531 1.40522 0
M  V30 20115 C 1887.3 -1.47561 1.39117 0
M  V30 20116 C 1887.63 -1.94199 -0.00592038 0
M  V30 20117 O 1886.91 -1.68301 -0.974941 0
M  V30 20118 C 1887.19 -2.70023 2.38242 0
M  V30 20119 C 1887.05 -2.29266 3.86984 0
M  V30 20120 C 1888.36 -3.72185 2.34875 0
M  V30 20121 H 1885.48 -0.535243 0.50664 0
M  V30 20122 H 1888.13 -0.814172 1.71672 0
M  V30 20123 H 1886.28 -3.26458 2.10611 0
M  V30 20124 H 1887.95 -1.78297 4.2545 0
M  V30 20125 H 1886.19 -1.61246 4.02719 0
M  V30 20126 H 1886.86 -3.17057 4.51862 0
M  V30 20127 H 1889.34 -3.25384 2.59354 0
M  V30 20128 H 1888.21 -4.55507 3.06276 0
M  V30 20129 H 1888.47 -4.20627 1.36108 0
M  V30 20130 N 1887.53 -1.26053 -0.945962 0
M  V30 20131 C 1888.76 -1.14181 -1.7314 0
M  V30 20132 C 1889.18 0.299663 -1.85698 0
M  V30 20133 O 1888.54 1.21711 -1.34373 0
M  V30 20134 C 1888.59 -1.81052 -3.11854 0
M  V30 20135 O 1887.69 -1.09606 -3.97568 0
M  V30 20136 H 1887.03 -0.398138 -0.531397 0
M  V30 20137 H 1889.56 -1.66782 -1.18511 0
M  V30 20138 H 1889.57 -1.87685 -3.62269 0
M  V30 20139 H 1888.25 -2.85921 -3.0203 0
M  V30 20140 H 1886.83 -1.10915 -3.56023 0
M  V30 20141 N 1889.01 1.14984 -1.07779 0
M  V30 20142 C 1890.26 1.85873 -0.803587 0
M  V30 20143 C 1890.59 1.82579 0.670472 0
M  V30 20144 O 1889.84 1.247 1.50826 0
M  V30 20145 C 1890.14 3.34355 -1.26259 0
M  V30 20146 C 1889.81 3.57842 -2.74335 0
M  V30 20147 C 1888.47 3.63961 -3.14779 0
M  V30 20148 C 1890.82 3.67191 -3.69893 0
M  V30 20149 C 1888.15 3.76944 -4.49589 0
M  V30 20150 C 1890.5 3.81698 -5.04469 0
M  V30 20151 C 1889.16 3.86064 -5.44528 0
M  V30 20152 H 1888.43 0.680157 -0.294053 0
M  V30 20153 H 1891.08 1.35862 -1.34959 0
M  V30 20154 H 1889.39 3.86603 -0.636057 0
M  V30 20155 H 1891.08 3.87619 -1.02727 0
M  V30 20156 H 1887.67 3.53723 -2.42028 0
M  V30 20157 H 1891.86 3.61759 -3.3977 0
M  V30 20158 H 1887.11 3.78583 -4.80088 0
M  V30 20159 H 1891.29 3.87873 -5.78383 0
M  V30 20160 H 1888.91 3.95876 -6.48989 0
M  V30 20161 N 1890.49 0.862526 1.31902 0
M  V30 20162 C 1891.72 0.483304 2.00867 0
M  V30 20163 C 1892.13 -0.926733 1.64949 0
M  V30 20164 O 1891.47 -1.61745 0.870881 0
M  V30 20165 C 1891.53 0.551872 3.55239 0
M  V30 20166 C 1891.2 1.9222 4.14609 0
M  V30 20167 C 1892.19 2.88872 4.3226 0
M  V30 20168 C 1889.88 2.22149 4.50506 0
M  V30 20169 C 1891.87 4.136 4.84988 0
M  V30 20170 C 1889.56 3.47128 5.02937 0
M  V30 20171 C 1890.56 4.4267 5.20127 0
M  V30 20172 O 1890.25 5.65435 5.71435 0
M  V30 20173 H 1889.98 0.187544 0.649464 0
M  V30 20174 H 1892.53 1.16337 1.69278 0
M  V30 20175 H 1890.76 -0.18508 3.86257 0
M  V30 20176 H 1892.45 0.187136 4.05468 0
M  V30 20177 H 1893.22 2.67056 4.04853 0
M  V30 20178 H 1889.1 1.48564 4.36406 0
M  V30 20179 H 1892.64 4.88182 4.98321 0
M  V30 20180 H 1888.54 3.68791 5.29777 0
M  V30 20181 H 1889.3 5.67503 5.89816 0
M  V30 20182 N 1891.97 -1.4484 0.62123 0
M  V30 20183 C 1893.2 -2.06201 0.128374 0
M  V30 20184 C 1893.61 -1.46421 -1.19822 0
M  V30 20185 O 1892.95 -0.577812 -1.74376 0
M  V30 20186 C 1893.01 -3.59429 -0.0712601 0
M  V30 20187 C 1892.68 -4.41619 1.17564 0
M  V30 20188 C 1893.67 -4.75732 2.09703 0
M  V30 20189 C 1891.36 -4.82154 1.40828 0
M  V30 20190 C 1893.35 -5.49251 3.23423 0
M  V30 20191 C 1891.04 -5.55424 2.54848 0
M  V30 20192 C 1892.04 -5.88891 3.45972 0
M  V30 20193 O 1891.72 -6.60671 4.58006 0
M  V30 20194 H 1891.46 -0.672121 0.0723128 0
M  V30 20195 H 1894.01 -1.86857 0.852847 0
M  V30 20196 H 1892.24 -3.77225 -0.850773 0
M  V30 20197 H 1893.93 -4.02589 -0.517423 0
M  V30 20198 H 1894.7 -4.44963 1.92959 0
M  V30 20199 H 1890.57 -4.55532 0.707942 0
M  V30 20200 H 1894.12 -5.7529 3.94572 0
M  V30 20201 H 1890.02 -5.85608 2.71538 0
M  V30 20202 H 1890.78 -6.79132 4.56861 0
M  V30 20203 N 1893.45 -0.361184 -1.53405 0
M  V30 20204 C 1894.67 0.233383 -2.06083 0
M  V30 20205 C 1895.1 1.42029 -1.23326 0
M  V30 20206 O 1894.45 1.79551 -0.251249 0
M  V30 20207 C 1894.5 0.609243 -3.55416 0
M  V30 20208 O 1893.61 1.70705 -3.75411 0
M  V30 20209 H 1892.95 0.035021 -0.663076 0
M  V30 20210 H 1895.48 -0.520514 -1.97868 0
M  V30 20211 H 1895.49 0.881483 -3.98364 0
M  V30 20212 H 1894.16 -0.25866 -4.15095 0
M  V30 20213 H 1892.74 1.4307 -3.44362 0
M  V30 20214 N 1894.92 1.57341 -0.0902386 0
M  V30 20215 C 1895.83 2.17276 0.88478 0
M  V30 20216 C 1896.85 1.14089 1.31376 0
M  V30 20217 O 1898.03 1.46438 1.38268 0
M  V30 20218 C 1895.09 2.73739 2.12762 0
M  V30 20219 C 1894.15 3.91865 1.7533 0
M  V30 20220 C 1893.39 4.45626 2.93689 0
M  V30 20221 O 1893.61 3.98337 4.08269 0
M  V30 20222 O 1892.54 5.36714 2.72437 0
M  V30 20223 H 1896.37 3.00989 0.40487 0
M  V30 20224 H 1893.95 1.48799 0.133848 0
M  V30 20225 H 1895.84 3.09849 2.85608 0
M  V30 20226 H 1894.51 1.93075 2.59815 0
M  V30 20227 H 1893.42 3.60576 0.996799 0
M  V30 20228 H 1894.75 4.73878 1.33045 0
M  V30 20229 N 1896.4 -0.183431 1.56529 0
M  V30 20230 C 1897.31 -1.24746 1.98684 0
M  V30 20231 C 1898.33 -1.49139 0.8963 0
M  V30 20232 O 1899.5 -1.61525 1.20298 0
M  V30 20233 C 1896.57 -2.56927 2.32786 0
M  V30 20234 C 1895.63 -2.40503 3.55607 0
M  V30 20235 C 1894.86 -3.66381 3.88073 0
M  V30 20236 O 1895.09 -4.71048 3.21668 0
M  V30 20237 O 1894.02 -3.61214 4.81465 0
M  V30 20238 H 1897.85 -0.919676 2.8944 0
M  V30 20239 H 1895.43 -0.389352 1.44237 0
M  V30 20240 H 1897.31 -3.34923 2.55744 0
M  V30 20241 H 1895.99 -2.89309 1.45196 0
M  V30 20242 H 1894.9 -1.6058 3.37883 0
M  V30 20243 H 1896.23 -2.1305 4.43701 0
M  V30 20244 N 1897.88 -1.50992 -0.451564 0
M  V30 20245 C 1898.83 -1.71831 -1.5677 0
M  V30 20246 C 1899.82 -0.584366 -1.59002 0
M  V30 20247 O 1901.03 -0.765385 -1.62917 0
M  V30 20248 H 1897.4 -0.542689 -0.52057 0
M  V30 20249 H 1899.37 -2.6542 -1.36363 0
M  V30 20250 C 1898.12 -1.84752 -2.94554 0
M  V30 20251 H 1897.45 -2.71405 -2.93563 0
M  V30 20252 H 1898.89 -2.0335 -3.72055 0
M  V30 20253 C 1897.35 -0.603808 -3.31445 0
M  V30 20254 O 1897.88 0.248099 -4.00933 0
M  V30 20255 N 1896.08 -0.452069 -2.87062 0
M  V30 20256 H 1895.63 -1.14638 -2.30686 0
M  V30 20257 H 1895.59 0.378877 -3.12109 0
M  V30 20258 N 1899.36 0.706069 -1.40899 0
M  V30 20259 C 1900.31 1.82011 -1.41918 0
M  V30 20260 C 1901.28 1.6381 -0.274879 0
M  V30 20261 O 1902.46 1.84809 -0.474366 0
M  V30 20262 C 1899.6 3.19805 -1.29687 0
M  V30 20263 C 1898.71 3.49512 -2.53901 0
M  V30 20264 C 1897.85 4.76863 -2.34041 0
M  V30 20265 C 1896.89 4.99504 -3.53783 0
M  V30 20266 N 1896.02 6.18074 -3.33059 0
M  V30 20267 H 1900.86 1.80474 -2.37135 0
M  V30 20268 H 1898.4 0.881471 -1.17765 0
M  V30 20269 H 1900.36 3.99389 -1.206 0
M  V30 20270 H 1898.99 3.20546 -0.380837 0
M  V30 20271 H 1898.04 2.64411 -2.73479 0
M  V30 20272 H 1899.35 3.62147 -3.43002 0
M  V30 20273 H 1898.51 5.64482 -2.22361 0
M  V30 20274 H 1897.25 4.66454 -1.42379 0
M  V30 20275 H 1896.25 4.10336 -3.65929 0
M  V30 20276 H 1897.48 5.11779 -4.46385 0
M  V30 20277 H 1895.42 6.08898 -2.44088 0
M  V30 20278 H 1895.34 6.3143 -4.15731 0
M  V30 20279 H 1896.61 7.08456 -3.25131 0
M  V30 20280 N 1900.84 1.26553 0.939264 0
M  V30 20281 C 1901.77 1.10778 2.05549 0
M  V30 20282 C 1902.75 0.0124359 1.70095 0
M  V30 20283 O 1903.93 0.184814 1.93319 0
M  V30 20284 C 1901.06 0.742011 3.39281 0
M  V30 20285 C 1900.02 1.78931 3.88803 0
M  V30 20286 C 1899.34 1.2778 5.19207 0
M  V30 20287 C 1900.64 3.1912 4.13473 0
M  V30 20288 H 1902.34 2.04151 2.19004 0
M  V30 20289 H 1899.88 0.98294 1.05234 0
M  V30 20290 H 1901.84 0.618526 4.16836 0
M  V30 20291 H 1900.56 -0.22742 3.25807 0
M  V30 20292 H 1899.22 1.9015 3.13431 0
M  V30 20293 H 1898.87 0.298159 5.02116 0
M  V30 20294 H 1898.57 1.9779 5.53311 0
M  V30 20295 H 1900.09 1.16703 5.99344 0
M  V30 20296 H 1901.5 3.10967 4.81635 0
M  V30 20297 H 1899.9 3.86738 4.58862 0
M  V30 20298 H 1900.97 3.65034 3.19183 0
M  V30 20299 N 1902.31 -1.14411 1.08387 0
M  V30 20300 C 1903.73 -1.67013 0.83448 0
M  V30 20301 C 1904.08 -1.85509 -0.638802 0
M  V30 20302 O 1903.2 -1.56611 -1.49338 0
M  V30 20303 C 1903.8 -3.03377 1.50825 0
M  V30 20304 C 1902.36 -3.53013 1.3061 0
M  V30 20305 C 1901.5 -2.28494 1.57117 0
M  V30 20306 H 1904.45 -0.984794 1.24449 0
M  V30 20307 H 1904.47 -3.68824 0.935352 0
M  V30 20308 H 1903.99 -2.89883 2.5805 0
M  V30 20309 H 1902.09 -3.7173 0.254538 0
M  V30 20310 H 1902.2 -4.33799 2.0336 0
M  V30 20311 H 1900.56 -2.34558 0.99271 0
M  V30 20312 H 1901.35 -2.17576 2.65547 0
M  V30 20313 N 1903.79 -0.869509 -1.31443 0
M  V30 20314 C 1904.7 -0.328352 -2.32291 0
M  V30 20315 C 1905.72 0.561491 -1.64691 0
M  V30 20316 O 1906.89 0.458316 -1.96116 0
M  V30 20317 C 1903.96 0.461733 -3.43612 0
M  V30 20318 C 1903.02 -0.456015 -4.26871 0
M  V30 20319 C 1902.25 0.296458 -5.32876 0
M  V30 20320 O 1902.48 1.5246 -5.49647 0
M  V30 20321 O 1901.41 -0.345443 -6.00908 0
M  V30 20322 H 1905.24 -1.16424 -2.80498 0
M  V30 20323 H 1902.82 -0.632869 -1.35333 0
M  V30 20324 H 1904.7 0.90965 -4.11465 0
M  V30 20325 H 1903.38 1.27418 -2.97567 0
M  V30 20326 H 1902.29 -0.952421 -3.61773 0
M  V30 20327 H 1903.62 -1.23404 -4.76479 0
M  V30 20328 N 1905.27 1.44508 -0.628902 0
M  V30 20329 C 1906.68 1.85457 -0.215122 0
M  V30 20330 C 1907.03 1.52619 1.23296 0
M  V30 20331 O 1906.16 0.963178 1.93783 0
M  V30 20332 C 1906.75 3.36621 -0.383645 0
M  V30 20333 C 1905.31 3.76392 -0.0243904 0
M  V30 20334 C 1904.46 2.68369 -0.698081 0
M  V30 20335 H 1907.41 1.35006 -0.834208 0
M  V30 20336 H 1907.43 3.78617 0.378049 0
M  V30 20337 H 1906.94 3.6049 -1.43767 0
M  V30 20338 H 1905.04 3.58139 1.02798 0
M  V30 20339 H 1905.16 4.7714 -0.432898 0
M  V30 20340 H 1903.52 2.54349 -0.133605 0
M  V30 20341 H 1904.3 2.95071 -1.75465 0
M  V30 20342 N 1906.75 0.369315 1.53212 0
M  V30 20343 C 1907.66 -0.483226 2.29569 0
M  V30 20344 C 1908.68 -1.08931 1.35684 0
M  V30 20345 O 1909.85 -1.09944 1.68743 0
M  V30 20346 C 1906.92 -1.60549 3.07286 0
M  V30 20347 C 1905.98 -1.02656 4.16846 0
M  V30 20348 C 1905.21 -2.09534 4.90847 0
M  V30 20349 O 1905.43 -3.30709 4.64745 0
M  V30 20350 O 1904.37 -1.72382 5.76687 0
M  V30 20351 H 1908.19 0.138246 3.03385 0
M  V30 20352 H 1905.78 0.133589 1.48802 0
M  V30 20353 H 1907.66 -2.25789 3.55805 0
M  V30 20354 H 1906.34 -2.21229 2.36303 0
M  V30 20355 H 1905.24 -0.337963 3.7257 0
M  V30 20356 H 1906.58 -0.464259 4.90006 0
M  V30 20357 N 1908.23 -1.57291 0.0985816 0
M  V30 20358 C 1909.14 -2.17742 -0.873245 0
M  V30 20359 C 1910.15 -1.14784 -1.3077 0
M  V30 20360 O 1911.33 -1.47169 -1.37489 0
M  V30 20361 C 1908.39 -2.74864 -2.11308 0
M  V30 20362 C 1907.46 -3.92789 -1.73249 0
M  V30 20363 C 1906.69 -4.47177 -2.91322 0
M  V30 20364 O 1906.91 -4.00497 -4.06151 0
M  V30 20365 O 1905.85 -5.38151 -2.69587 0
M  V30 20366 H 1909.67 -3.012 -0.388902 0
M  V30 20367 H 1907.26 -1.48868 -0.125955 0
M  V30 20368 H 1909.14 -3.11359 -2.8396 0
M  V30 20369 H 1907.81 -1.9445 -2.58787 0
M  V30 20370 H 1906.72 -3.61099 -0.977663 0
M  V30 20371 H 1908.05 -4.74577 -1.3053 0
M  V30 20372 N 1909.71 0.175127 -1.56624 0
M  V30 20373 C 1910.64 1.21918 -1.99144 0
M  V30 20374 C 1911.62 1.4638 -0.866428 0
M  V30 20375 O 1912.8 1.57779 -1.13223 0
M  V30 20376 C 1909.93 2.55897 -2.34807 0
M  V30 20377 C 1908.89 2.46011 -3.50232 0
M  V30 20378 C 1908.21 3.84445 -3.71626 0
M  V30 20379 C 1909.51 1.96808 -4.83801 0
M  V30 20380 H 1911.21 0.86575 -2.8661 0
M  V30 20381 H 1908.75 0.415014 -1.3789 0
M  V30 20382 H 1910.7 3.29136 -2.63149 0
M  V30 20383 H 1909.43 2.9302 -1.44245 0
M  V30 20384 H 1908.09 1.75227 -3.22011 0
M  V30 20385 H 1907.74 4.18955 -2.78362 0
M  V30 20386 H 1907.44 3.787 -4.49288 0
M  V30 20387 H 1908.96 4.59276 -4.02366 0
M  V30 20388 H 1910.37 2.59819 -5.11045 0
M  V30 20389 H 1908.77 2.0202 -5.65073 0
M  V30 20390 H 1909.84 0.922209 -4.7605 0
M  V30 20391 N 1911.18 1.5123 0.44355 0
M  V30 20392 C 1912.46 1.54127 1.20434 0
M  V30 20393 C 1912.84 0.301893 2.0893 0
M  V30 20394 O 1912.19 -0.713356 2.17079 0
M  V30 20395 C 1912.4 2.85196 2.01157 0
M  V30 20396 C 1913.75 3.3691 2.58411 0
M  V30 20397 O 1914.77 2.86704 2.11374 0
M  V30 20398 O 1913.63 4.24498 3.44185 0
M  V30 20399 H 1910.72 0.619396 0.547976 0
M  V30 20400 H 1913.27 1.63539 0.453125 0
M  V30 20401 H 1912.04 3.66861 1.3612 0
M  V30 20402 H 1911.66 2.78917 2.83357 0
M  V30 20403 N 1912.66 -0.698586 1.41271 0
M  V30 20404 C 1913.59 -1.82505 1.4565 0
M  V30 20405 C 1914.57 -1.67149 0.315497 0
M  V30 20406 O 1915.76 -1.86926 0.526518 0
M  V30 20407 C 1912.89 -3.20616 1.33502 0
M  V30 20408 C 1911.84 -3.50672 2.45383 0
M  V30 20409 C 1911.17 -4.88107 2.18302 0
M  V30 20410 C 1912.47 -3.49952 3.87725 0
M  V30 20411 H 1914.16 -1.79098 2.39926 0
M  V30 20412 H 1911.71 -0.860237 1.15481 0
M  V30 20413 H 1913.66 -3.9913 1.35179 0
M  V30 20414 H 1912.38 -3.24642 0.357101 0
M  V30 20415 H 1911.04 -2.74507 2.42984 0
M  V30 20416 H 1910.69 -4.88755 1.1886 0
M  V30 20417 H 1910.39 -5.09182 2.9327 0
M  V30 20418 H 1911.92 -5.68934 2.21689 0
M  V30 20419 H 1913.33 -4.18476 3.91855 0
M  V30 20420 H 1911.73 -3.82559 4.62351 0
M  V30 20421 H 1912.8 -2.48988 4.16093 0
M  V30 20422 N 1914.14 -1.27049 -0.93254 0
M  V30 20423 C 1915.05 -1.11156 -2.06595 0
M  V30 20424 C 1916.07 -0.0428245 -1.73947 0
M  V30 20425 O 1917.24 -0.248326 -1.99863 0
M  V30 20426 C 1914.31 -0.755297 -3.38373 0
M  V30 20427 C 1913.37 -1.90439 -3.84749 0
M  V30 20428 C 1912.6 -1.56502 -5.10238 0
M  V30 20429 O 1912.82 -0.470696 -5.68455 0
M  V30 20430 O 1911.76 -2.40262 -5.51868 0
M  V30 20431 H 1915.58 -2.0626 -2.22914 0
M  V30 20432 H 1913.17 -1.06191 -1.05089 0
M  V30 20433 H 1915.05 -0.569728 -4.17531 0
M  V30 20434 H 1913.73 0.166262 -3.23273 0
M  V30 20435 H 1912.63 -2.14498 -3.06499 0
M  V30 20436 H 1913.97 -2.80598 -4.04383 0
M  V30 20437 N 1915.62 1.13835 -1.08993 0
M  V30 20438 C 1917.03 1.66568 -0.843325 0
M  V30 20439 C 1917.38 1.85846 0.628955 0
M  V30 20440 O 1916.5 1.57401 1.48506 0
M  V30 20441 C 1917.1 3.02573 -1.52431 0
M  V30 20442 C 1915.66 3.52315 -1.3248 0
M  V30 20443 C 1914.81 2.27658 -1.58326 0
M  V30 20444 H 1917.76 0.978181 -1.24969 0
M  V30 20445 H 1917.78 3.68323 -0.954898 0
M  V30 20446 H 1917.29 2.8851 -2.59584 0
M  V30 20447 H 1915.39 3.71589 -0.274248 0
M  V30 20448 H 1915.5 4.32715 -2.05657 0
M  V30 20449 H 1913.87 2.34028 -1.00514 0
M  V30 20450 H 1914.65 2.16165 -2.66698 0
M  V30 20451 N 1917.1 0.876467 1.3098 0
M  V30 20452 C 1918.01 0.340667 2.32113 0
M  V30 20453 C 1919.02 -0.552749 1.64987 0
M  V30 20454 O 1920.2 -0.447909 1.96356 0
M  V30 20455 C 1917.26 -0.443504 3.43852 0
M  V30 20456 C 1916.32 0.478646 4.26623 0
M  V30 20457 C 1915.56 -0.268194 5.33026 0
M  V30 20458 O 1915.78 -1.49543 5.50448 0
M  V30 20459 O 1914.71 0.377306 6.00716 0
M  V30 20460 H 1918.54 1.1791 2.79877 0
M  V30 20461 H 1916.12 0.640037 1.34996 0
M  V30 20462 H 1918.01 -0.887816 4.11941 0
M  V30 20463 H 1916.68 -1.25838 2.98239 0
M  V30 20464 H 1915.59 0.971593 3.61263 0
M  V30 20465 H 1916.92 1.25929 4.75818 0
M  V30 20466 N 1918.57 -1.44173 0.636557 0
M  V30 20467 C 1919.52 -2.32472 -0.077248 0
M  V30 20468 C 1920.52 -1.47659 -0.830248 0
M  V30 20469 O 1921.72 -1.63971 -0.742533 0
M  V30 20470 H 1918.1 -0.750726 -0.0437543 0
M  V30 20471 H 1920.07 -2.9042 0.685465 0
M  V30 20472 C 1918.82 -3.31734 -1.04152 0
M  V30 20473 H 1918.14 -3.9701 -0.471531 0
M  V30 20474 H 1919.58 -3.96187 -1.51036 0
M  V30 20475 C 1918.04 -2.61069 -2.12943 0
M  V30 20476 O 1918.57 -2.41366 -3.211 0
M  V30 20477 N 1916.77 -2.20717 -1.8903 0
M  V30 20478 H 1916.32 -2.36941 -1.01077 0
M  V30 20479 H 1916.28 -1.73763 -2.62018 0
M  V30 20480 N 1920.05 -0.377435 -1.53014 0
M  V30 20481 C 1920.98 0.507261 -2.22491 0
M  V30 20482 C 1921.96 1.07358 -1.22119 0
M  V30 20483 O 1923.15 1.12747 -1.51064 0
M  V30 20484 C 1920.27 1.70101 -2.92888 0
M  V30 20485 C 1919.32 1.26105 -4.07431 0
M  V30 20486 S 1920.15 0.252451 -5.34905 0
M  V30 20487 C 1921.31 1.45225 -6.08819 0
M  V30 20488 H 1921.54 -0.0827563 -2.97185 0
M  V30 20489 H 1919.07 -0.161576 -1.53552 0
M  V30 20490 H 1921.03 2.38569 -3.34059 0
M  V30 20491 H 1919.69 2.2623 -2.17896 0
M  V30 20492 H 1918.89 2.15202 -4.55745 0
M  V30 20493 H 1918.49 0.655438 -3.68212 0
M  V30 20494 H 1920.78 2.38133 -6.3427 0
M  V30 20495 H 1921.72 1.01026 -7.00856 0
M  V30 20496 H 1922.13 1.66368 -5.39427 0
M  V30 20497 N 1921.53 1.57237 -0.106922 0
M  V30 20498 C 1922.44 2.18202 0.861685 0
M  V30 20499 C 1923.46 1.15476 1.30159 0
M  V30 20500 O 1924.63 1.47896 1.36707 0
M  V30 20501 C 1921.7 2.7598 2.09847 0
M  V30 20502 C 1920.76 3.93702 1.71164 0
M  V30 20503 C 1919.99 4.48716 2.88946 0
M  V30 20504 O 1920.21 4.02645 4.04021 0
M  V30 20505 O 1919.15 5.39573 2.66729 0
M  V30 20506 H 1922.97 3.01402 0.372924 0
M  V30 20507 H 1920.56 1.48933 0.118058 0
M  V30 20508 H 1922.44 3.12861 2.82305 0
M  V30 20509 H 1921.12 1.9582 2.57753 0
M  V30 20510 H 1920.02 3.61613 0.958499 0
M  V30 20511 H 1921.36 4.75262 1.28011 0
M  V30 20512 N 1923.01 -0.166818 1.56715 0
M  V30 20513 C 1924.23 -0.902208 1.86748 0
M  V30 20514 C 1924.66 -1.74838 0.693767 0
M  V30 20515 O 1924.02 -1.77749 -0.35708 0
M  V30 20516 C 1924.06 -1.75107 3.1523 0
M  V30 20517 O 1923.17 -2.85319 2.9777 0
M  V30 20518 H 1922.51 -0.252474 0.614128 0
M  V30 20519 H 1925.04 -0.163603 2.03945 0
M  V30 20520 H 1925.05 -2.15009 3.46749 0
M  V30 20521 H 1923.72 -1.12955 4.00267 0
M  V30 20522 H 1922.3 -2.48967 2.77615 0
M  V30 20523 N 1924.49 -1.51463 -0.435524 0
M  V30 20524 C 1925.73 -1.64464 -1.18656 0
M  V30 20525 C 1926.07 -0.360669 -1.90821 0
M  V30 20526 O 1925.34 0.639814 -1.83675 0
M  V30 20527 C 1925.62 -2.84919 -2.20212 0
M  V30 20528 C 1925.48 -4.23297 -1.52117 0
M  V30 20529 C 1926.8 -3.00891 -3.21174 0
M  V30 20530 H 1923.91 -0.598545 -0.430015 0
M  V30 20531 H 1926.56 -1.83952 -0.475572 0
M  V30 20532 H 1924.71 -2.68435 -2.80847 0
M  V30 20533 H 1926.38 -4.51453 -0.948048 0
M  V30 20534 H 1924.62 -4.25912 -0.823493 0
M  V30 20535 H 1925.29 -5.03576 -2.26087 0
M  V30 20536 H 1927.77 -3.16099 -2.70594 0
M  V30 20537 H 1926.64 -3.86734 -3.89523 0
M  V30 20538 H 1926.91 -2.13041 -3.87383 0
M  V30 20539 N 1925.96 0.691085 -1.4164 0
M  V30 20540 C 1927.38 1.27116 -1.36742 0
M  V30 20541 C 1927.73 1.96129 -0.0526953 0
M  V30 20542 O 1926.85 1.99052 0.848953 0
M  V30 20543 C 1927.45 2.31171 -2.4768 0
M  V30 20544 C 1926.01 2.84744 -2.46166 0
M  V30 20545 C 1925.15 1.58841 -2.27299 0
M  V30 20546 H 1928.1 0.485541 -1.5109 0
M  V30 20547 H 1928.12 3.12559 -2.16996 0
M  V30 20548 H 1927.64 1.80913 -3.43354 0
M  V30 20549 H 1925.74 3.39167 -1.54262 0
M  V30 20550 H 1925.85 3.34869 -3.42636 0
M  V30 20551 H 1924.21 1.84815 -1.75258 0
M  V30 20552 H 1925 1.10573 -3.25005 0
M  V30 20553 N 1927.44 1.27542 0.925789 0
M  V30 20554 C 1928.37 1.12952 2.04363 0
M  V30 20555 C 1929.35 0.0304761 1.70073 0
M  V30 20556 O 1930.54 0.205307 1.93112 0
M  V30 20557 C 1927.67 0.777954 3.38475 0
M  V30 20558 C 1926.62 1.83044 3.86883 0
M  V30 20559 C 1925.95 1.3328 5.17823 0
M  V30 20560 C 1927.25 3.23488 4.10065 0
M  V30 20561 H 1928.94 2.06462 2.16827 0
M  V30 20562 H 1926.49 0.994046 1.04186 0
M  V30 20563 H 1928.44 0.662702 4.16156 0
M  V30 20564 H 1927.17 -0.192851 3.2603 0
M  V30 20565 H 1925.82 1.93463 3.11396 0
M  V30 20566 H 1925.47 0.351399 5.01771 0
M  V30 20567 H 1925.17 2.03648 5.51182 0
M  V30 20568 H 1926.7 1.23053 5.98072 0
M  V30 20569 H 1928.11 3.16058 4.7831 0
M  V30 20570 H 1926.51 3.91583 4.54734 0
M  V30 20571 H 1927.58 3.68399 3.15293 0
M  V30 20572 N 1928.92 -1.13255 1.09595 0
M  V30 20573 C 1930.2 -1.8084 0.74541 0
M  V30 20574 C 1930.58 -1.96582 -0.769323 0
M  V30 20575 O 1929.93 -1.53529 -1.69237 0
M  V30 20576 C 1930.14 -3.15762 1.48645 0
M  V30 20577 C 1931.48 -3.91087 1.65337 0
M  V30 20578 O 1932.51 -3.25391 1.4491 0
M  V30 20579 O 1931.37 -5.08927 1.99137 0
M  V30 20580 H 1928.46 -0.782384 0.267963 0
M  V30 20581 H 1931.01 -1.20167 1.19825 0
M  V30 20582 H 1929.78 -2.99541 2.51775 0
M  V30 20583 H 1929.4 -3.84137 1.02589 0
M  V30 20584 N 1930.4 -0.883401 -1.30514 0
M  V30 20585 C 1931.81 -0.55179 -1.7836 0
M  V30 20586 C 1932.16 0.93196 -1.72653 0
M  V30 20587 O 1931.29 1.72818 -1.30242 0
M  V30 20588 C 1931.88 -0.994845 -3.23865 0
M  V30 20589 C 1930.44 -0.714672 -3.69553 0
M  V30 20590 C 1929.59 -1.1787 -2.51002 0
M  V30 20591 H 1932.54 -1.06778 -1.17406 0
M  V30 20592 H 1932.56 -0.32315 -3.79125 0
M  V30 20593 H 1932.07 -2.07477 -3.27986 0
M  V30 20594 H 1930.17 0.353326 -3.70921 0
M  V30 20595 H 1930.28 -1.30112 -4.61094 0
M  V30 20596 H 1928.65 -0.598079 -2.47578 0
M  V30 20597 H 1929.43 -2.26633 -2.57862 0
M  V30 20598 N 1931.88 1.43833 -0.644194 0
M  V30 20599 C 1933.1 2.06784 -0.159719 0
M  V30 20600 C 1933.53 1.47913 1.16204 0
M  V30 20601 O 1932.88 0.585574 1.71583 0
M  V30 20602 C 1932.93 3.60527 -0.0724271 0
M  V30 20603 O 1932.04 4.0088 0.967917 0
M  V30 20604 H 1931.38 0.657771 -0.0907406 0
M  V30 20605 H 1933.91 1.8449 -0.884568 0
M  V30 20606 H 1933.92 4.07841 0.113872 0
M  V30 20607 H 1932.59 4.02755 -1.03736 0
M  V30 20608 H 1931.17 3.65174 0.755135 0
M  V30 20609 N 1933.35 0.385544 1.52811 0
M  V30 20610 C 1934.32 -0.439294 2.24951 0
M  V30 20611 C 1935.32 -0.993315 1.26451 0
M  V30 20612 O 1936.51 -0.875911 1.50577 0
M  V30 20613 C 1933.64 -1.61595 3.00166 0
M  V30 20614 H 1934.83 0.192232 2.99283 0
M  V30 20615 H 1932.39 0.137589 1.55693 0
M  V30 20616 H 1933.12 -2.28501 2.30125 0
M  V30 20617 H 1932.91 -1.22544 3.72459 0
M  V30 20618 H 1934.4 -2.20001 3.5495 0
M  V30 20619 N 1934.83 -1.57178 0.115259 0
M  V30 20620 C 1936.06 -1.99842 -0.554802 0
M  V30 20621 C 1936.48 -0.994368 -1.59668 0
M  V30 20622 O 1935.84 0.0344531 -1.81267 0
M  V30 20623 C 1935.89 -3.41399 -1.16099 0
M  V30 20624 O 1934.99 -3.43868 -2.27659 0
M  V30 20625 H 1934.33 -0.649301 -0.138937 0
M  V30 20626 H 1936.86 -2.03594 0.202629 0
M  V30 20627 H 1936.87 -3.79527 -1.49743 0
M  V30 20628 H 1935.55 -4.13993 -0.397827 0
M  V30 20629 H 1934.13 -3.17555 -1.95482 0
M  V30 20630 N 1936.31 0.158505 -1.56801 0
M  V30 20631 C 1937.54 0.892291 -1.87224 0
M  V30 20632 C 1937.96 1.74468 -0.703029 0
M  V30 20633 O 1937.32 1.77936 0.347649 0
M  V30 20634 C 1937.37 1.73433 -3.16154 0
M  V30 20635 O 1936.47 2.83736 -2.99279 0
M  V30 20636 H 1935.81 0.249214 -0.615458 0
M  V30 20637 H 1938.34 0.152785 -2.04029 0
M  V30 20638 H 1938.35 2.13168 -3.47884 0
M  V30 20639 H 1937.03 1.10831 -4.00861 0
M  V30 20640 H 1935.6 2.47491 -2.78931 0
M  V30 20641 N 1937.79 1.51692 0.427485 0
M  V30 20642 C 1939.01 1.68956 1.20285 0
M  V30 20643 C 1939.44 0.390472 1.84003 0
M  V30 20644 O 1938.8 -0.650352 1.69234 0
M  V30 20645 C 1938.85 2.81368 2.25532 0
M  V30 20646 O 1937.95 2.45657 3.3125 0
M  V30 20647 H 1937.29 0.56304 0.351969 0
M  V30 20648 H 1939.82 1.98306 0.503588 0
M  V30 20649 H 1939.83 3.05742 2.70158 0
M  V30 20650 H 1938.51 3.7563 1.78535 0
M  V30 20651 H 1937.08 2.31889 2.9203 0
M  V30 20652 N 1939.27 -0.683564 1.42004 0
M  V30 20653 C 1940.49 -1.47711 1.45589 0
M  V30 20654 C 1940.92 -1.87984 0.0661307 0
M  V30 20655 O 1940.28 -1.55425 -0.933428 0
M  V30 20656 C 1940.32 -2.70824 2.3809 0
M  V30 20657 O 1939.43 -3.68766 1.84622 0
M  V30 20658 H 1938.77 -0.444102 0.493629 0
M  V30 20659 H 1941.3 -0.839192 1.86598 0
M  V30 20660 H 1941.31 -3.18996 2.54373 0
M  V30 20661 H 1939.98 -2.4085 3.39063 0
M  V30 20662 H 1938.56 -3.27756 1.77849 0
M  V30 20663 N 1940.75 -1.28031 -0.919012 0
M  V30 20664 C 1941.68 -1.14034 -2.03761 0
M  V30 20665 C 1942.66 -0.039495 -1.70054 0
M  V30 20666 O 1943.84 -0.215546 -1.93 0
M  V30 20667 C 1940.97 -0.795894 -3.38057 0
M  V30 20668 C 1939.93 -1.85093 -3.85907 0
M  V30 20669 C 1939.25 -1.36024 -5.17109 0
M  V30 20670 C 1940.55 -3.25658 -4.08343 0
M  V30 20671 H 1942.25 -2.07609 -2.15729 0
M  V30 20672 H 1939.79 -0.999558 -1.03657 0
M  V30 20673 H 1941.74 -0.684762 -4.15799 0
M  V30 20674 H 1940.47 0.175558 -3.26128 0
M  V30 20675 H 1939.13 -1.95112 -3.10366 0
M  V30 20676 H 1938.78 -0.378004 -5.01578 0
M  V30 20677 H 1938.48 -2.06568 -5.50094 0
M  V30 20678 H 1940 -1.26223 -5.97411 0
M  V30 20679 H 1941.41 -3.1859 -4.76627 0
M  V30 20680 H 1939.81 -3.93989 -4.52651 0
M  V30 20681 H 1940.88 -3.70066 -3.13335 0
M  V30 20682 N 1942.22 1.12672 -1.10194 0
M  V30 20683 C 1943.63 1.65664 -0.860944 0
M  V30 20684 C 1943.99 1.86502 0.609208 0
M  V30 20685 O 1943.11 1.58967 1.46828 0
M  V30 20686 C 1943.71 3.00939 -1.55632 0
M  V30 20687 C 1942.26 3.5089 -1.36209 0
M  V30 20688 C 1941.41 2.25966 -1.60732 0
M  V30 20689 H 1944.36 0.964871 -1.26 0
M  V30 20690 H 1944.38 3.6729 -0.99391 0
M  V30 20691 H 1943.9 2.85741 -2.62629 0
M  V30 20692 H 1942 3.71278 -0.313645 0
M  V30 20693 H 1942.11 4.30509 -2.10235 0
M  V30 20694 H 1940.47 2.32949 -1.0299 0
M  V30 20695 H 1941.26 2.13324 -2.68975 0
M  V30 20696 N 1943.7 0.89031 1.30043 0
M  V30 20697 C 1944.63 0.377386 2.3043 0
M  V30 20698 C 1945.61 -0.542607 1.61213 0
M  V30 20699 O 1946.8 -0.455328 1.88787 0
M  V30 20700 C 1943.93 -0.404264 3.44939 0
M  V30 20701 C 1942.88 0.424448 4.2589 0
M  V30 20702 C 1942.21 -0.48413 5.32504 0
M  V30 20703 C 1943.51 1.6694 4.94902 0
M  V30 20704 H 1945.2 1.21628 2.73582 0
M  V30 20705 H 1942.75 0.586299 1.31524 0
M  V30 20706 H 1944.7 -0.773769 4.14235 0
M  V30 20707 H 1943.42 -1.27685 3.00606 0
M  V30 20708 H 1942.08 0.776162 3.58289 0
M  V30 20709 H 1941.73 -1.35458 4.84417 0
M  V30 20710 H 1941.43 0.0665939 5.87562 0
M  V30 20711 H 1942.96 -0.850034 6.04654 0
M  V30 20712 H 1944.37 1.37017 5.56686 0
M  V30 20713 H 1942.77 2.16073 5.59851 0
M  V30 20714 H 1943.84 2.41077 4.20725 0
M  V30 20715 N 1945.18 -1.43489 0.651812 0
M  V30 20716 C 1946.59 -1.85091 0.2446 0
M  V30 20717 C 1946.94 -1.54561 -1.20852 0
M  V30 20718 O 1946.07 -0.993885 -1.92226 0
M  V30 20719 C 1946.66 -3.35968 0.43715 0
M  V30 20720 C 1945.22 -3.76306 0.0842681 0
M  V30 20721 C 1944.37 -2.67225 0.740688 0
M  V30 20722 H 1947.32 -1.33662 0.855581 0
M  V30 20723 H 1947.34 -3.79171 -0.317766 0
M  V30 20724 H 1946.85 -3.58157 1.49484 0
M  V30 20725 H 1944.95 -3.59729 -0.970875 0
M  V30 20726 H 1945.07 -4.76391 0.508752 0
M  V30 20727 H 1943.43 -2.54105 0.174053 0
M  V30 20728 H 1944.21 -2.92242 1.80137 0
M  V30 20729 N 1946.66 -0.393643 -1.52605 0
M  V30 20730 C 1947.93 0.244939 -1.9406 0
M  V30 20731 C 1948.31 1.63981 -1.32942 0
M  V30 20732 O 1947.66 2.2298 -0.499195 0
M  V30 20733 C 1947.87 0.266912 -3.47978 0
M  V30 20734 C 1949.22 0.493768 -4.21719 0
M  V30 20735 O 1950.24 0.346936 -3.54506 0
M  V30 20736 O 1949.1 0.78183 -5.40879 0
M  V30 20737 H 1946.2 0.153387 -0.812651 0
M  V30 20738 H 1948.74 -0.448465 -1.63667 0
M  V30 20739 H 1947.52 -0.709958 -3.84806 0
M  V30 20740 H 1947.14 1.00506 -3.84687 0
M  V30 20741 N 1948.14 1.57115 -0.123593 0
M  V30 20742 C 1949.55 1.5789 0.232975 0
M  V30 20743 C 1949.75 1.13659 1.66385 0
M  V30 20744 O 1948.81 0.826084 2.38604 0
M  V30 20745 C 1950.12 3.007 -0.0045178 0
M  V30 20746 C 1951.67 3.12941 0.0610235 0
M  V30 20747 C 1952.14 4.57758 -0.148835 0
M  V30 20748 N 1953.63 4.63103 -0.0949606 0
M  V30 20749 C 1954.37 5.7293 -0.232177 0
M  V30 20750 N 1953.87 6.9149 -0.42582 0
M  V30 20751 N 1955.66 5.61839 -0.171428 0
M  V30 20752 H 1947.81 1.84166 -1.05814 0
M  V30 20753 H 1950.07 0.851342 -0.417038 0
M  V30 20754 H 1949.78 3.37364 -0.993901 0
M  V30 20755 H 1949.65 3.70161 0.725327 0
M  V30 20756 H 1952.04 2.76131 1.04094 0
M  V30 20757 H 1952.12 2.46014 -0.700776 0
M  V30 20758 H 1951.76 4.95267 -1.12574 0
M  V30 20759 H 1951.69 5.22782 0.633006 0
M  V30 20760 H 1954.19 3.77866 0.0510058 0
M  V30 20761 H 1954.5 7.7104 -0.521263 0
M  V30 20762 H 1952.84 6.93464 -0.461851 0
M  V30 20763 H 1956.03 4.68095 -0.0210758 0
M  V30 20764 H 1956.21 6.47387 -0.281807 0
M  V30 20765 N 1949.61 -0.150187 1.56883 0
M  V30 20766 C 1950.56 -1.19064 1.94442 0
M  V30 20767 C 1951.55 -1.38715 0.815284 0
M  V30 20768 O 1952.74 -1.40331 1.07871 0
M  V30 20769 C 1949.87 -2.52506 2.32585 0
M  V30 20770 C 1948.95 -2.3646 3.52062 0
M  V30 20771 N 1949.35 -1.90165 4.68691 0
M  V30 20772 C 1947.64 -2.67222 3.57083 0
M  V30 20773 C 1948.34 -1.87087 5.50793 0
M  V30 20774 N 1947.32 -2.30281 4.92414 0
M  V30 20775 H 1951.12 -0.824746 2.82091 0
M  V30 20776 H 1948.64 -0.358273 1.58399 0
M  V30 20777 H 1950.63 -3.27717 2.57696 0
M  V30 20778 H 1949.29 -2.8988 1.46286 0
M  V30 20779 H 1950.3 -1.60179 4.92507 0
M  V30 20780 H 1946.98 -3.08492 2.81316 0
M  V30 20781 H 1948.37 -1.52813 6.54292 0
M  V30 20782 N 1951.09 -1.51916 -0.419434 0
M  V30 20783 C 1952.32 -1.69592 -1.19387 0
M  V30 20784 C 1952.74 -0.400225 -1.83793 0
M  V30 20785 O 1952.1 0.641368 -1.69576 0
M  V30 20786 C 1952.15 -2.8256 -2.24036 0
M  V30 20787 O 1951.25 -2.4741 -3.29942 0
M  V30 20788 H 1950.59 -0.564898 -0.348978 0
M  V30 20789 H 1953.12 -1.9857 -0.493064 0
M  V30 20790 H 1953.13 -3.07171 -2.68533 0
M  V30 20791 H 1951.81 -3.76572 -1.7654 0
M  V30 20792 H 1950.39 -2.33435 -2.90796 0
M  V30 20793 N 1952.57 0.676023 -1.42365 0
M  V30 20794 C 1953.82 1.43324 -1.42487 0
M  V30 20795 C 1954.14 1.94955 -0.0418589 0
M  V30 20796 O 1953.41 1.72984 0.919418 0
M  V30 20797 H 1951.99 0.531857 -0.524535 0
M  V30 20798 H 1954.65 0.798867 -1.77775 0
M  V30 20799 H 1953.75 2.28686 -2.12389 0
M  V30 20800 N 1954.05 1.28517 0.912209 0
M  V30 20801 C 1955 1.09214 2.00141 0
M  V30 20802 C 1955.98 0.015324 1.60893 0
M  V30 20803 O 1957.17 0.235636 1.75425 0
M  V30 20804 C 1954.3 0.757636 3.34835 0
M  V30 20805 C 1953.39 1.87337 3.80481 0
M  V30 20806 N 1953.78 3.11521 3.98483 0
M  V30 20807 C 1952.08 1.76357 4.09651 0
M  V30 20808 C 1952.78 3.8423 4.3674 0
M  V30 20809 N 1951.76 3.12089 4.45086 0
M  V30 20810 H 1955.56 2.03436 2.12111 0
M  V30 20811 H 1953.07 1.19458 1.10016 0
M  V30 20812 H 1955.07 0.600426 4.12554 0
M  V30 20813 H 1953.73 -0.176796 3.24218 0
M  V30 20814 H 1954.74 3.47114 3.84359 0
M  V30 20815 H 1951.42 0.901018 4.07662 0
M  V30 20816 H 1952.81 4.91039 4.58618 0
M  V30 20817 N 1955.53 -1.12086 1.1079 0
M  V30 20818 C 1956.47 -2.17926 0.760064 0
M  V30 20819 C 1957.44 -1.63967 -0.265316 0
M  V30 20820 O 1958.63 -1.90258 -0.143764 0
M  V30 20821 C 1955.77 -3.44508 0.202045 0
M  V30 20822 C 1954.88 -4.12503 1.28317 0
M  V30 20823 C 1954.02 -5.26747 0.686406 0
M  V30 20824 C 1953.06 -5.86614 1.74785 0
M  V30 20825 N 1952.19 -6.92264 1.17108 0
M  V30 20826 H 1957.03 -2.47025 1.66681 0
M  V30 20827 H 1954.57 -1.21275 0.832507 0
M  V30 20828 H 1956.53 -4.16967 -0.139401 0
M  V30 20829 H 1955.16 -3.15814 -0.667918 0
M  V30 20830 H 1954.21 -3.38186 1.74168 0
M  V30 20831 H 1955.52 -4.53063 2.08651 0
M  V30 20832 H 1954.68 -6.05984 0.294621 0
M  V30 20833 H 1953.41 -4.87474 -0.148334 0
M  V30 20834 H 1952.42 -5.0606 2.14902 0
M  V30 20835 H 1953.64 -6.27956 2.5855 0
M  V30 20836 H 1951.59 -6.55023 0.35787 0
M  V30 20837 H 1951.51 -7.31443 1.91122 0
M  V30 20838 H 1952.78 -7.75322 0.805966 0
M  V30 20839 N 1957 -0.897194 -1.29569 0
M  V30 20840 C 1957.97 -0.377906 -2.26063 0
M  V30 20841 C 1958.97 0.486495 -1.53264 0
M  V30 20842 O 1960.16 0.291905 -1.71737 0
M  V30 20843 C 1957.29 0.460046 -3.37782 0
M  V30 20844 H 1958.48 -1.23009 -2.73512 0
M  V30 20845 H 1956.04 -0.675114 -1.40968 0
M  V30 20846 H 1956.77 1.33232 -2.95668 0
M  V30 20847 H 1956.56 -0.159293 -3.91776 0
M  V30 20848 H 1958.05 0.814753 -4.09575 0
M  V30 20849 N 1958.48 1.43142 -0.659413 0
M  V30 20850 C 1959.39 2.34582 0.0288714 0
M  V30 20851 C 1960.41 1.54232 0.805512 0
M  V30 20852 O 1961.58 1.8686 0.751347 0
M  V30 20853 C 1958.65 3.32587 0.97912 0
M  V30 20854 C 1957.71 4.2884 0.198725 0
M  V30 20855 C 1956.94 5.22163 1.10371 0
M  V30 20856 O 1957.17 5.20054 2.34308 0
M  V30 20857 O 1956.1 5.99168 0.572785 0
M  V30 20858 H 1959.93 2.94945 -0.723947 0
M  V30 20859 H 1957.51 1.43386 -0.419609 0
M  V30 20860 H 1959.39 3.92836 1.52505 0
M  V30 20861 H 1958.07 2.74719 1.71206 0
M  V30 20862 H 1956.98 3.72052 -0.390942 0
M  V30 20863 H 1958.31 4.89707 -0.494774 0
M  V30 20864 N 1959.96 0.40173 1.52394 0
M  V30 20865 C 1960.91 -0.442142 2.28359 0
M  V30 20866 C 1961.9 -1.05228 1.32753 0
M  V30 20867 O 1963.11 -0.991332 1.50242 0
M  V30 20868 H 1959.48 -0.161356 0.734485 0
M  V30 20869 H 1961.45 0.219869 2.97589 0
M  V30 20870 C 1960.2 -1.55062 3.11209 0
M  V30 20871 H 1959.53 -1.09046 3.84642 0
M  V30 20872 H 1960.97 -2.11505 3.6748 0
M  V30 20873 C 1959.43 -2.51376 2.24303 0
M  V30 20874 O 1959.96 -3.55084 1.87825 0
M  V30 20875 N 1958.16 -2.2141 1.88218 0
M  V30 20876 H 1957.71 -1.37106 2.18082 0
M  V30 20877 H 1957.67 -2.861 1.30362 0
M  V30 20878 N 1961.44 -1.57047 0.131923 0
M  V30 20879 C 1962.69 -1.95245 -0.521892 0
M  V30 20880 C 1963.01 -1.01692 -1.66385 0
M  V30 20881 O 1962.28 -0.0756026 -1.95754 0
M  V30 20882 H 1960.86 -0.720886 -0.195786 0
M  V30 20883 H 1963.52 -1.93831 0.203893 0
M  V30 20884 H 1962.62 -2.986 -0.907979 0
M  V30 20885 N 1962.92 0.141865 -1.5696 0
M  V30 20886 C 1964.33 0.701408 -1.73024 0
M  V30 20887 C 1964.68 1.81418 -0.747124 0
M  V30 20888 O 1963.8 2.16233 0.0851134 0
M  V30 20889 C 1964.4 1.2791 -3.13727 0
M  V30 20890 C 1962.96 1.78516 -3.31374 0
M  V30 20891 C 1962.1 0.67567 -2.68942 0
M  V30 20892 H 1965.06 -0.083853 -1.58478 0
M  V30 20893 H 1965.08 2.1489 -3.14011 0
M  V30 20894 H 1964.59 0.468988 -3.85256 0
M  V30 20895 H 1962.69 2.62078 -2.6485 0
M  V30 20896 H 1962.8 1.91034 -4.39366 0
M  V30 20897 H 1961.17 1.10358 -2.2955 0
M  V30 20898 H 1961.95 -0.123088 -3.43079 0
M  V30 20899 N 1964.39 1.52136 0.411372 0
M  V30 20900 C 1965.64 1.65757 1.15624 0
M  V30 20901 C 1965.96 0.388771 1.91085 0
M  V30 20902 O 1965.23 -0.596276 1.86605 0
M  V30 20903 H 1963.81 0.610955 0.429817 0
M  V30 20904 H 1966.48 1.8917 0.469114 0
M  V30 20905 H 1965.57 2.49759 1.87155 0
M  V30 20906 N 1965.87 -0.668464 1.42721 0
M  V30 20907 C 1967.28 -1.24925 1.38747 0
M  V30 20908 C 1967.64 -1.96021 0.0838911 0
M  V30 20909 O 1966.76 -2.00378 -0.817178 0
M  V30 20910 C 1967.36 -2.27201 2.51327 0
M  V30 20911 C 1965.91 -2.80792 2.50665 0
M  V30 20912 C 1965.06 -1.55205 2.29797 0
M  V30 20913 H 1968.01 -0.461443 1.51843 0
M  V30 20914 H 1968.03 -3.09067 2.21941 0
M  V30 20915 H 1967.55 -1.75428 3.46189 0
M  V30 20916 H 1965.65 -3.36669 1.59639 0
M  V30 20917 H 1965.76 -3.29376 3.4792 0
M  V30 20918 H 1964.12 -1.82004 1.78176 0
M  V30 20919 H 1964.91 -1.05389 3.26723 0
M  V30 20920 N 1967.35 -1.28999 -0.905381 0
M  V30 20921 C 1968.6 -1.1641 -1.65207 0
M  V30 20922 C 1968.92 0.285952 -1.92892 0
M  V30 20923 O 1968.19 1.19672 -1.55098 0
M  V30 20924 H 1966.77 -0.427826 -0.612351 0
M  V30 20925 H 1969.43 -1.61845 -1.08592 0
M  V30 20926 H 1968.53 -1.70993 -2.6109 0
M  V30 20927 N 1968.83 1.11497 -1.11383 0
M  V30 20928 C 1970.08 1.83494 -0.863592 0
M  V30 20929 C 1970.41 1.84395 0.609259 0
M  V30 20930 O 1969.68 1.2966 1.44978 0
M  V30 20931 C 1969.97 3.30701 -1.42509 0
M  V30 20932 C 1969.82 3.38197 -2.96552 0
M  V30 20933 C 1971.14 4.26756 -1.07553 0
M  V30 20934 H 1968.26 0.666209 -0.315173 0
M  V30 20935 H 1970.9 1.30745 -1.37861 0
M  V30 20936 H 1969.05 3.75752 -0.987053 0
M  V30 20937 H 1970.72 3.01709 -3.48955 0
M  V30 20938 H 1968.96 2.78436 -3.3265 0
M  V30 20939 H 1969.64 4.41804 -3.30927 0
M  V30 20940 H 1972.11 3.89882 -1.45367 0
M  V30 20941 H 1970.99 5.28143 -1.49519 0
M  V30 20942 H 1971.25 4.42098 0.0137773 0
M  V30 20943 N 1970.31 0.904053 1.29092 0
M  V30 20944 C 1971.24 0.401805 2.30017 0
M  V30 20945 C 1972.22 -0.525477 1.6178 0
M  V30 20946 O 1973.4 -0.435279 1.89259 0
M  V30 20947 C 1970.53 -0.367656 3.45348 0
M  V30 20948 C 1969.49 0.469596 4.25416 0
M  V30 20949 C 1968.81 -0.427624 5.32987 0
M  V30 20950 C 1970.11 1.7218 4.93104 0
M  V30 20951 H 1971.81 1.24523 2.72276 0
M  V30 20952 H 1969.35 0.600215 1.30895 0
M  V30 20953 H 1971.31 -0.729791 4.15033 0
M  V30 20954 H 1970.03 -1.2449 3.01944 0
M  V30 20955 H 1968.69 0.814119 3.57446 0
M  V30 20956 H 1968.34 -1.30313 4.85827 0
M  V30 20957 H 1968.04 0.128909 5.87459 0
M  V30 20958 H 1969.56 -0.785855 6.05522 0
M  V30 20959 H 1970.98 1.42914 5.55201 0
M  V30 20960 H 1969.37 2.21999 5.57527 0
M  V30 20961 H 1970.44 2.45526 4.18145 0
M  V30 20962 N 1971.79 -1.4279 0.666995 0
M  V30 20963 C 1973.03 -2.01942 0.186305 0
M  V30 20964 C 1973.36 -1.52579 -1.20139 0
M  V30 20965 O 1972.64 -0.724677 -1.80496 0
M  V30 20966 C 1972.92 -3.59474 0.212322 0
M  V30 20967 C 1972.78 -4.19035 1.63491 0
M  V30 20968 C 1974.09 -4.37857 -0.443762 0
M  V30 20969 H 1971.21 -0.733747 0.0691733 0
M  V30 20970 H 1973.86 -1.69912 0.850298 0
M  V30 20971 H 1972.01 -3.86892 -0.353062 0
M  V30 20972 H 1973.68 -4.02598 2.25195 0
M  V30 20973 H 1971.92 -3.75161 2.178 0
M  V30 20974 H 1972.59 -5.28155 1.60486 0
M  V30 20975 H 1975.07 -4.16083 0.0374331 0
M  V30 20976 H 1973.94 -5.47478 -0.394887 0
M  V30 20977 H 1974.2 -4.15144 -1.52012 0
M  V30 20978 N 1973.26 -0.409806 -1.52179 0
M  V30 20979 C 1974.19 0.406421 -2.29936 0
M  V30 20980 C 1975.17 1.04553 -1.34174 0
M  V30 20981 O 1976.36 1.05441 -1.63082 0
M  V30 20982 C 1973.49 1.52297 -3.12127 0
M  V30 20983 C 1972.44 1.00883 -4.15941 0
M  V30 20984 C 1971.77 2.21903 -4.8648 0
M  V30 20985 C 1973.07 0.0623996 -5.22263 0
M  V30 20986 H 1974.76 -0.242406 -2.98417 0
M  V30 20987 H 1972.31 -0.118023 -1.43516 0
M  V30 20988 H 1974.26 2.10097 -3.65291 0
M  V30 20989 H 1972.99 2.19968 -2.41416 0
M  V30 20990 H 1971.65 0.453228 -3.63788 0
M  V30 20991 H 1971.29 2.88131 -4.12298 0
M  V30 20992 H 1970.99 1.88153 -5.56662 0
M  V30 20993 H 1972.52 2.80308 -5.42457 0
M  V30 20994 H 1973.93 0.549223 -5.70663 0
M  V30 20995 H 1972.33 -0.186317 -5.99811 0
M  V30 20996 H 1973.4 -0.882673 -4.76799 0
M  V30 20997 N 1974.74 1.56975 -0.14025 0
M  V30 20998 C 1976.16 1.58129 0.216215 0
M  V30 20999 C 1976.36 1.15417 1.6517 0
M  V30 21000 O 1975.41 0.851345 2.37715 0
M  V30 21001 C 1976.73 3.00678 -0.0364108 0
M  V30 21002 C 1978.27 3.12988 0.0278286 0
M  V30 21003 C 1978.75 4.57574 -0.197378 0
M  V30 21004 N 1980.24 4.62976 -0.144073 0
M  V30 21005 C 1980.98 5.72651 -0.292931 0
M  V30 21006 N 1980.47 6.91 -0.499138 0
M  V30 21007 N 1982.26 5.61625 -0.231008 0
M  V30 21008 H 1974.42 1.83033 -1.07762 0
M  V30 21009 H 1976.68 0.846871 -0.426044 0
M  V30 21010 H 1976.38 3.36291 -1.02963 0
M  V30 21011 H 1976.26 3.70909 0.686026 0
M  V30 21012 H 1978.65 2.7722 1.01159 0
M  V30 21013 H 1978.73 2.45257 -0.726829 0
M  V30 21014 H 1978.37 4.94045 -1.17821 0
M  V30 21015 H 1978.3 5.23424 0.577522 0
M  V30 21016 H 1980.79 3.77898 0.0109252 0
M  V30 21017 H 1981.1 7.70444 -0.603012 0
M  V30 21018 H 1979.45 6.92935 -0.535376 0
M  V30 21019 H 1982.64 4.68047 -0.0707224 0
M  V30 21020 H 1982.81 6.47052 -0.350455 0
M  V30 21021 N 1976.22 -0.133539 1.57033 0
M  V30 21022 C 1977.18 -1.14845 1.98351 0
M  V30 21023 C 1978.18 -1.3512 0.871734 0
M  V30 21024 O 1979.37 -1.31884 1.13808 0
M  V30 21025 C 1976.5 -2.506 2.31111 0
M  V30 21026 H 1977.7 -0.793667 2.89207 0
M  V30 21027 H 1975.25 -0.377348 1.51677 0
M  V30 21028 H 1975.99 -2.91026 1.43089 0
M  V30 21029 H 1975.77 -2.37242 3.12184 0
M  V30 21030 H 1977.26 -3.23672 2.63868 0
M  V30 21031 N 1977.7 -1.52352 -0.403298 0
M  V30 21032 C 1978.92 -1.70849 -1.17582 0
M  V30 21033 C 1979.35 -0.419696 -1.83358 0
M  V30 21034 O 1978.71 0.623346 -1.70247 0
M  V30 21035 C 1978.75 -2.8492 -2.21027 0
M  V30 21036 O 1977.86 -2.50896 -3.273 0
M  V30 21037 H 1977.2 -0.568568 -0.342967 0
M  V30 21038 H 1979.73 -1.99082 -0.471975 0
M  V30 21039 H 1979.74 -3.10002 -2.6526 0
M  V30 21040 H 1978.41 -3.78423 -1.72536 0
M  V30 21041 H 1976.99 -2.36506 -2.88304 0
M  V30 21042 N 1979.18 0.660885 -1.43074 0
M  V30 21043 C 1980.42 1.42086 -1.44284 0
M  V30 21044 C 1980.75 1.94394 -0.0643177 0
M  V30 21045 O 1980.01 1.72217 0.929509 0
M  V30 21046 C 1980.3 2.6246 -2.42589 0
M  V30 21047 C 1979.97 2.28615 -3.88647 0
M  V30 21048 C 1978.63 2.19096 -4.28428 0
M  V30 21049 C 1980.98 2.0139 -4.8072 0
M  V30 21050 C 1978.31 1.80498 -5.58245 0
M  V30 21051 C 1980.66 1.64293 -6.10893 0
M  V30 21052 C 1979.33 1.53294 -6.49659 0
M  V30 21053 H 1978.6 0.519929 -0.527973 0
M  V30 21054 H 1981.25 0.752296 -1.76104 0
M  V30 21055 H 1979.55 3.34413 -2.04145 0
M  V30 21056 H 1981.25 3.20662 -2.40784 0
M  V30 21057 H 1977.84 2.36931 -3.57158 0
M  V30 21058 H 1982.02 2.0767 -4.50763 0
M  V30 21059 H 1977.28 1.70563 -5.87127 0
M  V30 21060 H 1981.45 1.42256 -6.81716 0
M  V30 21061 H 1979.08 1.23156 -7.50158 0
M  V30 21062 N 1980.65 1.29477 0.898527 0
M  V30 21063 C 1981.93 1.08195 1.62952 0
M  V30 21064 C 1982.31 -0.373506 2.07769 0
M  V30 21065 O 1981.66 -1.36252 1.83433 0
M  V30 21066 C 1981.87 2.07056 2.80943 0
M  V30 21067 C 1983.22 2.38038 3.51601 0
M  V30 21068 O 1984.24 2.0526 2.91113 0
M  V30 21069 O 1983.1 2.94048 4.60649 0
M  V30 21070 H 1980.19 0.414597 0.715569 0
M  V30 21071 H 1982.74 1.40853 0.946492 0
M  V30 21072 H 1981.51 3.05083 2.45031 0
M  V30 21073 H 1981.14 1.75134 3.56951 0
M  V30 21074 N 1982.13 -1.10905 1.11972 0
M  V30 21075 C 1983.04 -2.20682 0.796029 0
M  V30 21076 C 1984.06 -1.72689 -0.213158 0
M  V30 21077 O 1985.23 -2.01343 -0.047955 0
M  V30 21078 C 1982.3 -3.45797 0.250055 0
M  V30 21079 C 1981.36 -4.08549 1.31855 0
M  V30 21080 C 1980.59 -5.27692 0.798538 0
M  V30 21081 O 1980.82 -5.69202 -0.369435 0
M  V30 21082 O 1979.75 -5.81174 1.5659 0
M  V30 21083 H 1983.58 -2.50794 1.71278 0
M  V30 21084 H 1981.16 -1.19548 0.896024 0
M  V30 21085 H 1983.04 -4.21371 -0.0497791 0
M  V30 21086 H 1981.72 -3.17324 -0.639327 0
M  V30 21087 H 1980.63 -3.34682 1.67148 0
M  V30 21088 H 1981.96 -4.41215 2.18153 0
M  V30 21089 N 1983.61 -0.910886 -1.2861 0
M  V30 21090 C 1985.03 -0.608615 -1.4754 0
M  V30 21091 C 1985.23 0.846869 -1.8284 0
M  V30 21092 O 1984.28 1.62618 -1.93162 0
M  V30 21093 C 1985.6 -1.54405 -2.5803 0
M  V30 21094 C 1987.14 -1.55046 -2.719 0
M  V30 21095 C 1987.62 -2.47245 -3.85531 0
M  V30 21096 N 1989.11 -2.45356 -3.9288 0
M  V30 21097 C 1989.84 -3.13394 -4.80179 0
M  V30 21098 N 1989.34 -3.90751 -5.72088 0
M  V30 21099 N 1991.13 -3.02495 -4.73765 0
M  V30 21100 H 1983.28 -1.8521 -1.03977 0
M  V30 21101 H 1985.55 -0.794235 -0.517585 0
M  V30 21102 H 1985.25 -2.5816 -2.38844 0
M  V30 21103 H 1985.13 -1.27299 -3.5507 0
M  V30 21104 H 1987.51 -0.520311 -2.90477 0
M  V30 21105 H 1987.6 -1.86195 -1.754 0
M  V30 21106 H 1987.24 -3.50361 -3.67709 0
M  V30 21107 H 1987.17 -2.134 -4.81423 0
M  V30 21108 H 1989.66 -1.89161 -3.27149 0
M  V30 21109 H 1989.97 -4.39694 -6.35523 0
M  V30 21110 H 1988.32 -3.94857 -5.71938 0
M  V30 21111 H 1991.51 -2.41567 -4.00953 0
M  V30 21112 H 1991.68 -3.55793 -5.41586 0
M  V30 21113 N 1985.09 1.42434 -0.674558 0
M  V30 21114 C 1986.02 2.2916 0.0428589 0
M  V30 21115 C 1987.03 1.43667 0.765749 0
M  V30 21116 O 1988.22 1.67388 0.619947 0
M  V30 21117 C 1985.32 3.21083 1.08439 0
M  V30 21118 C 1984.5 4.35228 0.435368 0
M  V30 21119 C 1983.55 5.07873 1.37665 0
M  V30 21120 O 1982.58 5.62402 0.877047 0
M  V30 21121 N 1983.78 5.13364 2.70994 0
M  V30 21122 H 1986.55 2.91372 -0.701618 0
M  V30 21123 H 1984.11 1.53357 -0.518954 0
M  V30 21124 H 1986.1 3.66548 1.71535 0
M  V30 21125 H 1984.67 2.60324 1.7306 0
M  V30 21126 H 1983.89 3.92411 -0.375103 0
M  V30 21127 H 1985.18 5.08797 -0.0167882 0
M  V30 21128 H 1984.58 4.70472 3.14122 0
M  V30 21129 H 1983.13 5.62476 3.29338 0
M  V30 21130 N 1986.57 0.417871 1.51959 0
M  V30 21131 C 1987.98 -0.0497386 1.86634 0
M  V30 21132 C 1988.33 -1.43671 1.33616 0
M  V30 21133 O 1987.45 -2.05472 0.67898 0
M  V30 21134 C 1988.05 -0.0970329 3.38661 0
M  V30 21135 C 1986.61 -0.509 3.72943 0
M  V30 21136 C 1985.75 0.310908 2.75552 0
M  V30 21137 H 1988.71 0.634566 1.45461 0
M  V30 21138 H 1988.73 -0.910534 3.69445 0
M  V30 21139 H 1988.24 0.912553 3.77219 0
M  V30 21140 H 1986.34 -1.52491 3.39967 0
M  V30 21141 H 1986.45 -0.247317 4.78461 0
M  V30 21142 H 1984.82 -0.228018 2.53677 0
M  V30 21143 H 1985.6 1.31901 3.1695 0
M  V30 21144 N 1988.04 -1.56898 0.148573 0
M  V30 21145 C 1989.27 -2.00249 -0.508309 0
M  V30 21146 C 1989.68 -1.02768 -1.58857 0
M  V30 21147 O 1989.03 -0.0169159 -1.83692 0
M  V30 21148 C 1989.09 -3.40034 -1.16693 0
M  V30 21149 C 1988.75 -4.56415 -0.231088 0
M  V30 21150 C 1989.75 -5.17069 0.541853 0
M  V30 21151 C 1987.43 -5.02122 -0.133535 0
M  V30 21152 C 1989.43 -6.2184 1.39978 0
M  V30 21153 C 1987.11 -6.06748 0.727995 0
M  V30 21154 C 1988.11 -6.66476 1.49326 0
M  V30 21155 O 1987.8 -7.69077 2.34043 0
M  V30 21156 H 1987.53 -0.662039 -0.136677 0
M  V30 21157 H 1990.09 -2.03986 0.240611 0
M  V30 21158 H 1988.32 -3.3314 -1.96352 0
M  V30 21159 H 1990.01 -3.67482 -1.7237 0
M  V30 21160 H 1990.77 -4.82653 0.476529 0
M  V30 21161 H 1986.65 -4.5536 -0.718923 0
M  V30 21162 H 1990.19 -6.68389 1.99756 0
M  V30 21163 H 1986.09 -6.40591 0.794605 0
M  V30 21164 H 1986.86 -7.86304 2.27308 0
M  V30 21165 N 1989.52 0.125209 -1.57102 0
M  V30 21166 C 1990.49 1.13792 -1.98957 0
M  V30 21167 C 1991.49 1.34656 -0.878887 0
M  V30 21168 O 1992.68 1.31278 -1.14506 0
M  V30 21169 C 1989.81 2.49371 -2.32437 0
M  V30 21170 H 1991 0.778319 -2.89624 0
M  V30 21171 H 1988.55 0.369299 -1.51875 0
M  V30 21172 H 1989.29 2.90263 -1.4463 0
M  V30 21173 H 1989.07 2.35583 -3.13437 0
M  V30 21174 H 1990.56 3.22268 -2.65581 0
M  V30 21175 N 1991 1.52564 0.395213 0
M  V30 21176 C 1991.95 1.73281 1.48181 0
M  V30 21177 C 1992.93 0.586818 1.49817 0
M  V30 21178 O 1994.13 0.844419 1.55559 0
M  V30 21179 C 1991.26 1.89948 2.85963 0
M  V30 21180 C 1990.34 3.10461 2.8892 0
M  V30 21181 N 1990.73 4.32923 2.61556 0
M  V30 21182 C 1989.03 3.10579 3.20088 0
M  V30 21183 C 1989.73 5.14487 2.71438 0
M  V30 21184 N 1988.71 4.50037 3.04906 0
M  V30 21185 H 1992.51 2.65596 1.25841 0
M  V30 21186 H 1990.02 1.50787 0.603091 0
M  V30 21187 H 1992.02 2.0291 3.64188 0
M  V30 21188 H 1990.68 0.988426 3.0929 0
M  V30 21189 H 1991.69 4.61161 2.35692 0
M  V30 21190 H 1988.37 2.29261 3.48921 0
M  V30 21191 H 1989.76 6.22089 2.53879 0
M  V30 21192 N 1992.48 -0.653289 1.43422 0
M  V30 21193 C 1993.41 -1.77818 1.43025 0
M  V30 21194 C 1994.39 -1.59962 0.291706 0
M  V30 21195 O 1995.57 -1.82146 0.485285 0
M  V30 21196 C 1992.7 -3.15116 1.24175 0
M  V30 21197 C 1991.75 -3.51674 2.41305 0
M  V30 21198 S 1992.58 -3.51656 4.03854 0
M  V30 21199 C 1993.74 -4.91612 3.87387 0
M  V30 21200 H 1993.97 -1.77884 2.38211 0
M  V30 21201 H 1991.5 -0.825924 1.30453 0
M  V30 21202 H 1993.46 -3.94357 1.13987 0
M  V30 21203 H 1992.12 -3.12612 0.30538 0
M  V30 21204 H 1991.31 -4.51526 2.2392 0
M  V30 21205 H 1990.92 -2.79845 2.48118 0
M  V30 21206 H 1993.21 -5.80268 3.49708 0
M  V30 21207 H 1994.15 -5.14047 4.86992 0
M  V30 21208 H 1994.56 -4.65143 3.19847 0
M  V30 21209 N 1993.96 -1.29952 -0.891648 0
M  V30 21210 C 1994.9 -1.15662 -2.01805 0
M  V30 21211 C 1995.9 -0.0701689 -1.69255 0
M  V30 21212 O 1997.1 -0.230546 -1.78517 0
M  V30 21213 H 1993.48 -0.357511 -0.661581 0
M  V30 21214 H 1995.45 -2.11008 -2.10993 0
M  V30 21215 C 1994.2 -0.858316 -3.36939 0
M  V30 21216 H 1993.52 -1.68637 -3.62494 0
M  V30 21217 H 1994.96 -0.798404 -4.16415 0
M  V30 21218 C 1993.42 0.438629 -3.34032 0
M  V30 21219 O 1993.95 1.46221 -3.74142 0
M  V30 21220 N 1992.16 0.447383 -2.87136 0
M  V30 21221 H 1991.7 -0.386058 -2.54691 0
M  V30 21222 H 1991.66 1.31512 -2.85573 0
M  V30 21223 N 1995.44 1.1031 -1.12559 0
M  V30 21224 C 1996.68 1.81937 -0.879957 0
M  V30 21225 C 1997 1.85675 0.595811 0
M  V30 21226 O 1996.27 1.33574 1.433 0
M  V30 21227 H 1994.85 0.67377 -0.322556 0
M  V30 21228 H 1997.52 1.33464 -1.42033 0
M  V30 21229 H 1996.61 2.8542 -1.26261 0
M  V30 21230 N 1996.91 0.917694 1.28125 0
M  V30 21231 C 1998.16 0.551804 1.94421 0
M  V30 21232 C 1998.48 -0.908163 1.72561 0
M  V30 21233 O 1997.75 -1.64255 1.06758 0
M  V30 21234 H 1996.33 0.201081 0.719427 0
M  V30 21235 H 1998.99 1.16791 1.56032 0
M  V30 21236 H 1998.09 0.749587 3.02965 0
M  V30 21237 N 1998.39 -1.42074 0.682102 0
M  V30 21238 C 1999.81 -1.55662 0.352347 0
M  V30 21239 C 2000.01 -1.66032 -1.14174 0
M  V30 21240 O 1999.06 -1.63128 -1.92732 0
M  V30 21241 C 2000.38 -2.80285 1.08907 0
M  V30 21242 C 2001.92 -2.94066 1.0721 0
M  V30 21243 C 2002.4 -4.2156 1.7903 0
M  V30 21244 N 2003.89 -4.28488 1.75933 0
M  V30 21245 C 2004.63 -5.25968 2.28354 0
M  V30 21246 N 2004.12 -6.29557 2.89188 0
M  V30 21247 N 2005.91 -5.17815 2.18686 0
M  V30 21248 H 1998.07 -1.33588 1.65131 0
M  V30 21249 H 2000.33 -0.643549 0.696096 0
M  V30 21250 H 2000.03 -2.78786 2.14409 0
M  V30 21251 H 1999.91 -3.71399 0.658975 0
M  V30 21252 H 2002.3 -2.95089 0.0253867 0
M  V30 21253 H 2002.38 -2.04163 1.54114 0
M  V30 21254 H 2002.02 -4.21298 2.83673 0
M  V30 21255 H 2001.95 -5.10411 1.2957 0
M  V30 21256 H 2004.44 -3.54257 1.31568 0
M  V30 21257 H 2004.75 -7.00306 3.26789 0
M  V30 21258 H 2003.1 -6.30098 2.9326 0
M  V30 21259 H 2006.29 -4.3581 1.70843 0
M  V30 21260 H 2006.46 -5.9362 2.59845 0
M  V30 21261 N 1999.87 -0.425924 -1.51735 0
M  V30 21262 C 2000.82 0.391248 -2.2746 0
M  V30 21263 C 2001.79 1.02669 -1.30569 0
M  V30 21264 O 2002.97 1.04777 -1.59457 0
M  V30 21265 C 2000.11 1.4928 -3.11142 0
M  V30 21266 C 1999.22 0.876622 -4.23012 0
M  V30 21267 C 1998.36 1.95227 -4.94024 0
M  V30 21268 C 1997.4 1.31392 -5.97832 0
M  V30 21269 N 1996.54 2.33043 -6.62296 0
M  V30 21270 H 2001.38 -0.26089 -2.96856 0
M  V30 21271 H 1998.91 -0.1405 -1.46427 0
M  V30 21272 H 2000.87 2.14262 -3.57977 0
M  V30 21273 H 1999.5 2.11473 -2.43884 0
M  V30 21274 H 1998.55 0.115399 -3.80225 0
M  V30 21275 H 1999.86 0.370471 -4.97422 0
M  V30 21276 H 1999.02 2.67897 -5.44349 0
M  V30 21277 H 1997.76 2.49212 -4.19219 0
M  V30 21278 H 1996.76 0.572626 -5.4681 0
M  V30 21279 H 1997.99 0.781544 -6.74588 0
M  V30 21280 H 1995.93 2.86129 -5.9031 0
M  V30 21281 H 1995.85 1.87287 -7.32434 0
M  V30 21282 H 1997.12 3.05231 -7.17255 0
M  V30 21283 N 2001.35 1.56817 -0.156891 0
M  V30 21284 C 2002.3 2.18555 0.796017 0
M  V30 21285 C 2003.29 1.14538 1.24809 0
M  V30 21286 O 2004.5 1.32768 1.21542 0
M  V30 21287 H 2000.87 0.699939 0.274936 0
M  V30 21288 H 2002.84 2.97341 0.251207 0
M  V30 21289 C 2001.59 2.82928 2.02106 0
M  V30 21290 H 2000.91 3.62687 1.6822 0
M  V30 21291 H 2002.35 3.29615 2.66702 0
M  V30 21292 C 2000.81 1.81947 2.83543 0
M  V30 21293 O 2001.34 1.29602 3.80219 0
M  V30 21294 N 1999.55 1.51028 2.48272 0
M  V30 21295 H 1999.1 1.93787 1.69719 0
M  V30 21296 H 1999.05 0.837124 3.0305 0
M  V30 21297 N 2002.83 -0.116876 1.57166 0
M  V30 21298 C 2003.74 -1.16207 2.03797 0
M  V30 21299 C 2004.75 -1.45203 0.958749 0
M  V30 21300 O 2005.93 -1.56277 1.27041 0
M  V30 21301 C 2002.99 -2.46823 2.43474 0
M  V30 21302 C 2002.05 -2.25205 3.65488 0
M  V30 21303 C 2001.29 -3.49592 4.03263 0
M  V30 21304 O 2001.51 -4.56981 3.41357 0
M  V30 21305 O 2000.44 -3.40468 4.96352 0
M  V30 21306 H 2004.27 -0.796087 2.9308 0
M  V30 21307 H 2001.85 -0.327825 1.45759 0
M  V30 21308 H 2003.74 -3.23774 2.69719 0
M  V30 21309 H 2002.41 -2.82891 1.57335 0
M  V30 21310 H 2001.32 -1.46104 3.4439 0
M  V30 21311 H 2002.65 -1.94039 4.52338 0
M  V30 21312 N 2004.3 -1.52772 -0.387116 0
M  V30 21313 C 2005.72 -1.42064 -0.727316 0
M  V30 21314 C 2005.92 -0.542559 -1.94058 0
M  V30 21315 O 2004.98 -0.0167267 -2.52494 0
M  V30 21316 C 2006.29 -2.84942 -0.960651 0
M  V30 21317 C 2007.84 -2.94432 -1.06201 0
M  V30 21318 C 2008.31 -4.38326 -1.32796 0
M  V30 21319 N 2009.8 -4.41659 -1.39613 0
M  V30 21320 C 2010.54 -5.50081 -1.6186 0
M  V30 21321 N 2010.03 -6.68585 -1.81566 0
M  V30 21322 N 2011.83 -5.37627 -1.64055 0
M  V30 21323 H 2003.98 -2.08382 0.411202 0
M  V30 21324 H 2006.24 -0.940144 0.121792 0
M  V30 21325 H 2005.95 -3.51416 -0.141246 0
M  V30 21326 H 2005.82 -3.27309 -1.87479 0
M  V30 21327 H 2008.21 -2.28125 -1.87198 0
M  V30 21328 H 2008.29 -2.55491 -0.125731 0
M  V30 21329 H 2007.93 -5.05199 -0.523081 0
M  V30 21330 H 2007.86 -4.74821 -2.27711 0
M  V30 21331 H 2010.35 -3.56245 -1.26086 0
M  V30 21332 H 2010.67 -7.4699 -1.98053 0
M  V30 21333 H 2009.01 -6.7161 -1.78786 0
M  V30 21334 H 2012.2 -4.44016 -1.48213 0
M  V30 21335 H 2012.38 -6.22193 -1.81053 0
M  V30 21336 N 2005.78 0.645673 -1.43767 0
M  V30 21337 C 2006.74 1.74013 -1.49171 0
M  V30 21338 C 2007.74 1.56355 -0.375476 0
M  V30 21339 O 2008.93 1.62115 -0.637529 0
M  V30 21340 C 2006.07 3.12961 -1.3516 0
M  V30 21341 H 2007.26 1.706 -2.46649 0
M  V30 21342 H 2004.81 0.858019 -1.30643 0
M  V30 21343 H 2005.55 3.2198 -0.387199 0
M  V30 21344 H 2005.33 3.27184 -2.16086 0
M  V30 21345 H 2006.82 3.92755 -1.41891 0
M  V30 21346 N 2007.26 1.30423 0.884744 0
M  V30 21347 C 2008.19 1.19397 2.00666 0
M  V30 21348 C 2009.17 0.084568 1.6989 0
M  V30 21349 O 2010.36 0.266641 1.92361 0
M  V30 21350 C 2007.49 0.885244 3.35828 0
M  V30 21351 C 2006.44 1.9526 3.80864 0
M  V30 21352 C 2005.77 1.49687 5.13321 0
M  V30 21353 C 2007.07 3.3637 3.99566 0
M  V30 21354 H 2008.76 2.13256 2.10148 0
M  V30 21355 H 2006.31 1.02669 1.00971 0
M  V30 21356 H 2008.26 0.794764 4.13837 0
M  V30 21357 H 2006.98 -0.0890295 3.26479 0
M  V30 21358 H 2005.64 2.03272 3.05084 0
M  V30 21359 H 2005.29 0.510855 5.00399 0
M  V30 21360 H 2004.99 2.2108 5.44424 0
M  V30 21361 H 2006.51 1.42018 5.93855 0
M  V30 21362 H 2007.93 3.31115 4.68012 0
M  V30 21363 H 2006.32 4.05852 4.42046 0
M  V30 21364 H 2007.39 3.78244 3.03414 0
M  V30 21365 N 2008.74 -1.09711 1.13142 0
M  V30 21366 C 2010.15 -1.63323 0.904565 0
M  V30 21367 C 2010.5 -1.88052 -0.559546 0
M  V30 21368 O 2009.62 -1.62804 -1.42562 0
M  V30 21369 C 2010.22 -2.96707 1.63556 0
M  V30 21370 C 2008.78 -3.47156 1.45465 0
M  V30 21371 C 2007.93 -2.21625 1.66667 0
M  V30 21372 H 2010.88 -0.931125 1.28514 0
M  V30 21373 H 2010.9 -3.64525 1.09094 0
M  V30 21374 H 2010.41 -2.78677 2.70113 0
M  V30 21375 H 2008.51 -3.70315 0.411972 0
M  V30 21376 H 2008.62 -4.24784 2.21576 0
M  V30 21377 H 2006.99 -2.30136 1.0913 0
M  V30 21378 H 2007.77 -2.06118 2.74537 0
M  V30 21379 N 2010.22 -0.924476 -1.27637 0
M  V30 21380 C 2011.15 -0.438348 -2.29349 0
M  V30 21381 C 2012.13 0.499673 -1.62595 0
M  V30 21382 O 2013.31 0.405114 -1.89928 0
M  V30 21383 C 2010.44 0.312668 -3.4589 0
M  V30 21384 C 2009.4 -0.537216 -4.24615 0
M  V30 21385 C 2008.72 0.342776 -5.336 0
M  V30 21386 C 2010.02 -1.80003 -4.90302 0
M  V30 21387 H 2011.72 -1.28838 -2.70261 0
M  V30 21388 H 2009.26 -0.620964 -1.29923 0
M  V30 21389 H 2011.22 0.66367 -4.16141 0
M  V30 21390 H 2009.94 1.1967 -3.03886 0
M  V30 21391 H 2008.6 -0.870883 -3.56106 0
M  V30 21392 H 2008.25 1.22567 -4.87838 0
M  V30 21393 H 2007.95 -0.222352 -5.87179 0
M  V30 21394 H 2009.47 0.689422 -6.06695 0
M  V30 21395 H 2010.88 -1.51729 -5.52857 0
M  V30 21396 H 2009.28 -2.3084 -5.53925 0
M  V30 21397 H 2010.35 -2.52148 -4.14186 0
M  V30 21398 N 2011.69 1.41711 -0.689627 0
M  V30 21399 C 2013.11 1.84377 -0.293587 0
M  V30 21400 C 2013.46 1.57711 1.16712 0
M  V30 21401 O 2012.58 1.0445 1.89523 0
M  V30 21402 C 2013.18 3.34691 -0.526073 0
M  V30 21403 C 2011.74 3.7595 -0.184009 0
M  V30 21404 C 2010.88 2.65167 -0.811277 0
M  V30 21405 H 2013.83 1.31347 -0.890718 0
M  V30 21406 H 2013.85 3.7988 0.217124 0
M  V30 21407 H 2013.37 3.54068 -1.58927 0
M  V30 21408 H 2011.47 3.62176 0.875158 0
M  V30 21409 H 2011.58 4.74875 -0.63488 0
M  V30 21410 H 2009.94 2.53554 -0.241363 0
M  V30 21411 H 2010.73 2.87363 -1.87822 0
M  V30 21412 N 2013.17 0.433965 1.51507 0
M  V30 21413 C 2014.1 -0.41493 2.25413 0
M  V30 21414 C 2015.12 -0.989176 1.29303 0
M  V30 21415 O 2016.31 -0.883889 1.55079 0
M  V30 21416 C 2013.41 -1.59207 2.99176 0
M  V30 21417 C 2012.58 -1.1373 4.22355 0
M  V30 21418 C 2011.64 -2.18418 4.78727 0
M  V30 21419 O 2010.66 -1.77991 5.40655 0
M  V30 21420 N 2011.87 -3.50866 4.62465 0
M  V30 21421 H 2014.63 0.218474 2.98903 0
M  V30 21422 H 2012.19 0.26267 1.59755 0
M  V30 21423 H 2014.18 -2.28857 3.33776 0
M  V30 21424 H 2012.75 -2.13089 2.28718 0
M  V30 21425 H 2011.97 -0.267997 3.93288 0
M  V30 21426 H 2013.26 -0.8108 5.02298 0
M  V30 21427 H 2012.66 -3.86446 4.1313 0
M  V30 21428 H 2011.22 -4.1642 5.01436 0
M  V30 21429 N 2014.65 -1.56732 0.165206 0
M  V30 21430 C 2015.88 -2.01506 -0.490943 0
M  V30 21431 C 2016.3 -1.04466 -1.56424 0
M  V30 21432 O 2015.66 -0.0232331 -1.81285 0
M  V30 21433 C 2015.71 -3.4492 -1.05179 0
M  V30 21434 O 2014.81 -3.50937 -2.16603 0
M  V30 21435 H 2014.15 -0.653393 -0.11821 0
M  V30 21436 H 2016.68 -2.02846 0.267298 0
M  V30 21437 H 2016.69 -3.84099 -1.37593 0
M  V30 21438 H 2015.37 -4.15049 -0.265916 0
M  V30 21439 H 2013.94 -3.23613 -1.85281 0
M  V30 21440 N 2016.13 0.10854 -1.57226 0
M  V30 21441 C 2017.35 0.832276 -1.89968 0
M  V30 21442 C 2017.78 1.72143 -0.758179 0
M  V30 21443 O 2017.14 1.78952 0.290864 0
M  V30 21444 C 2017.18 1.63287 -3.21512 0
M  V30 21445 O 2016.29 2.74071 -3.08154 0
M  V30 21446 H 2015.63 0.229508 -0.623075 0
M  V30 21447 H 2018.16 0.0877974 -2.04412 0
M  V30 21448 H 2018.17 2.01992 -3.5449 0
M  V30 21449 H 2016.84 0.98022 -4.04184 0
M  V30 21450 H 2015.42 2.38492 -2.86664 0
M  V30 21451 N 2017.61 1.52975 0.379009 0
M  V30 21452 C 2018.83 1.72396 1.144 0
M  V30 21453 C 2019.25 0.446816 1.83437 0
M  V30 21454 O 2018.61 -0.579403 1.73058 0
M  V30 21455 C 2018.66 2.88032 2.18449 0
M  V30 21456 O 2018.38 4.10803 1.52225 0
M  V30 21457 C 2019.88 3.19215 3.07599 0
M  V30 21458 H 2017.1 0.576943 0.342605 0
M  V30 21459 H 2019.64 1.99666 0.442025 0
M  V30 21460 H 2017.8 2.63195 2.84266 0
M  V30 21461 H 2018.21 4.75461 2.21443 0
M  V30 21462 H 2019.69 4.03565 3.76615 0
M  V30 21463 H 2020.16 2.34014 3.71664 0
M  V30 21464 H 2020.77 3.45928 2.47415 0
M  V30 21465 N 2019.08 -0.63804 1.44107 0
M  V30 21466 C 2020.32 -1.40936 1.48042 0
M  V30 21467 C 2020.69 -1.91699 0.107433 0
M  V30 21468 O 2021.89 -2.68791 0.021461 0
M  V30 21469 C 2020.16 -2.54837 2.50585 0
M  V30 21470 S 2021.72 -3.43126 2.73514 0
M  V30 21471 H 2018.54 -0.480893 0.523701 0
M  V30 21472 H 2021.14 -0.739311 1.80982 0
M  V30 21473 H 2019.84 -2.15843 3.49056 0
M  V30 21474 H 2019.37 -3.26677 2.19194 0
M  V30 21475 H 2021.39 -4.52061 2.04586 0
M  V30 21476 O 2020.6 -1.41339 -0.781372 0
M  V30 21477 H 2021.29 -1.30864 -1.42809 0
M  V30 END ATOM
M  V30 BEGIN BOND
M  V30 END BOND
M  V30 END CTAB
M  END
$$$$
