drugbank_target|P36507 Dual specificity mitogen-activated protein kinase kinase 2 (DB06616; DB08911; DB11689; DB11967; DB12010)
 OpenBabel12092120583D

  0  0  0     0  0            999 V3000
M  V30 BEGIN CTAB
M  V30 COUNTS 6283 6348 0 0 0
M  V30 BEGIN ATOM
M  V30 1 H -0.908 1.98254 -0.117106 0
M  V30 2 N 0 1.576 0 0
M  V30 3 C 0.933 2.03868 1.02534 0
M  V30 4 C 1.911 0.928543 1.3348 0
M  V30 5 O 3.095 1.19667 1.45644 0
M  V30 6 C 0.222 2.43627 2.35294 0
M  V30 7 C -0.732 3.65373 2.2001 0
M  V30 8 S 0.101 5.13292 1.52614 0
M  V30 9 C 1.257 5.56322 2.86805 0
M  V30 10 H 1.49 2.90518 0.631377 0
M  V30 11 H -0.977 1.52953 0.210867 0
M  V30 12 H 0.981 2.67203 3.11629 0
M  V30 13 H -0.358 1.57376 2.7183 0
M  V30 14 H -1.165 3.90944 3.18086 0
M  V30 15 H -1.563 3.418 1.51819 0
M  V30 16 H 0.729 5.58782 3.83104 0
M  V30 17 H 1.672 6.56266 2.65933 0
M  V30 18 H 2.08 4.83886 2.90714 0
M  V30 19 N 1.4781 -0.272755 1.55222 0
M  V30 20 C 2.4081 -1.34136 1.91127 0
M  V30 21 C 3.3891 -1.51513 0.773168 0
M  V30 22 O 4.5741 -1.64552 1.03132 0
M  V30 23 C 1.7041 -2.70083 2.1834 0
M  V30 24 C 0.6581 -2.67437 3.34158 0
M  V30 25 C -0.0159 -4.06938 3.46851 0
M  V30 26 C 1.2841 -2.26686 4.70543 0
M  V30 27 H 2.9781 -1.04333 2.80633 0
M  V30 28 H 0.5241 -0.500454 1.35024 0
M  V30 29 H 2.4771 -3.44952 2.42046 0
M  V30 30 H 1.2011 -3.01469 1.25634 0
M  V30 31 H -0.1399 -1.95026 3.1042 0
M  V30 32 H -0.4919 -4.35547 2.51611 0
M  V30 33 H -0.7919 -4.06062 4.2472 0
M  V30 34 H 0.7321 -4.83545 3.72849 0
M  V30 35 H 2.1461 -2.91277 4.93792 0
M  V30 36 H 0.5431 -2.36971 5.5133 0
M  V30 37 H 1.6131 -1.21818 4.69349 0
M  V30 38 N 2.9562 -1.48159 -0.537278 0
M  V30 39 C 3.9192 -1.61665 -1.62472 0
M  V30 40 C 4.9192 -0.490395 -1.5314 0
M  V30 41 O 6.1092 -0.755998 -1.5694 0
M  V30 42 C 3.2412 -1.57997 -3.02076 0
M  V30 43 H 4.4342 -2.58621 -1.51839 0
M  V30 44 H 1.9872 -1.36647 -0.758771 0
M  V30 45 H 2.7222 -0.624913 -3.18222 0
M  V30 46 H 2.5072 -2.39755 -3.10258 0
M  V30 47 H 3.9972 -1.70627 -3.81151 0
M  V30 48 N 4.4343 0.785586 -1.36625 0
M  V30 49 C 5.8503 1.08419 -1.17122 0
M  V30 50 C 6.0503 2.015 0.00208491 0
M  V30 51 O 5.1063 2.43551 0.666278 0
M  V30 52 C 6.4193 1.69498 -2.48377 0
M  V30 53 C 7.9673 1.81821 -2.54775 0
M  V30 54 C 8.4423 2.46315 -3.86126 0
M  V30 55 N 9.9333 2.53779 -3.87492 0
M  V30 56 C 10.6683 3.045 -4.85868 0
M  V30 57 N 10.1643 3.55499 -5.94637 0
M  V30 58 N 11.9573 3.03247 -4.73284 0
M  V30 59 H 4.1083 0.167264 -2.1174 0
M  V30 60 H 6.3713 0.13682 -0.938075 0
M  V30 61 H 6.0773 1.08571 -3.34522 0
M  V30 62 H 5.9513 2.6896 -2.64462 0
M  V30 63 H 8.3383 2.41884 -1.69045 0
M  V30 64 H 8.4193 0.811532 -2.42586 0
M  V30 65 H 8.0633 1.86895 -4.72263 0
M  V30 66 H 7.9933 3.47561 -3.95612 0
M  V30 67 H 10.4843 2.17672 -3.08913 0
M  V30 68 H 10.7973 3.92562 -6.65669 0
M  V30 69 H 9.1423 3.5364 -5.98301 0
M  V30 70 H 12.3333 2.62696 -3.87438 0
M  V30 71 H 12.5063 3.42467 -5.50109 0
M  V30 72 N 5.9124 1.20967 1.01018 0
M  V30 73 C 7.3284 0.965905 1.27053 0
M  V30 74 C 7.5284 -0.350785 1.98423 0
M  V30 75 O 6.5844 -1.07773 2.28344 0
M  V30 76 C 7.8974 2.15294 2.09926 0
M  V30 77 C 9.4454 2.19463 2.23171 0
M  V30 78 C 9.9204 3.3767 3.09424 0
M  V30 79 N 11.4114 3.37724 3.17012 0
M  V30 80 C 12.1464 4.25837 3.83993 0
M  V30 81 N 11.6424 5.24138 4.53047 0
M  V30 82 N 13.4354 4.1366 3.80581 0
M  V30 83 H 5.5864 2.0565 0.531194 0
M  V30 84 H 7.8494 0.90024 0.297106 0
M  V30 85 H 7.5554 3.10684 1.64828 0
M  V30 86 H 7.4294 2.13923 3.10672 0
M  V30 87 H 9.8164 1.24632 2.6749 0
M  V30 88 H 9.8974 2.2488 1.21912 0
M  V30 89 H 9.5414 4.32791 2.65808 0
M  V30 90 H 9.4714 3.29491 4.10784 0
M  V30 91 H 11.9624 2.6658 2.6785 0
M  V30 92 H 12.2754 5.87684 5.01844 0
M  V30 93 H 10.6204 5.28068 4.5185 0
M  V30 94 H 13.8114 3.36127 3.25785 0
M  V30 95 H 13.9844 4.82538 4.32505 0
M  V30 96 N 7.3905 -1.2043 1.01659 0
M  V30 97 C 8.3375 -2.23215 0.586822 0
M  V30 98 C 9.3075 -1.61382 -0.393085 0
M  V30 99 O 10.4925 -1.88544 -0.292525 0
M  V30 100 C 7.6325 -3.45032 -0.0687464 0
M  V30 101 C 6.7455 -4.21296 0.955724 0
M  V30 102 C 5.8805 -5.30507 0.271208 0
M  V30 103 C 4.9195 -5.98515 1.28244 0
M  V30 104 N 4.0565 -6.99316 0.62459 0
M  V30 105 H 8.8965 -2.59336 1.46796 0
M  V30 106 H 6.4335 -1.27431 0.734836 0
M  V30 107 H 8.3915 -4.1459 -0.465965 0
M  V30 108 H 7.0215 -3.09604 -0.913529 0
M  V30 109 H 6.0735 -3.50803 1.4711 0
M  V30 110 H 7.3855 -4.6803 1.72479 0
M  V30 111 H 6.5395 -6.06428 -0.18151 0
M  V30 112 H 5.2785 -4.8481 -0.530163 0
M  V30 113 H 4.2835 -5.21355 1.74554 0
M  V30 114 H 5.5085 -6.46298 2.08509 0
M  V30 115 H 3.4545 -6.55812 -0.156914 0
M  V30 116 H 3.3715 -7.44178 1.33172 0
M  V30 117 H 4.6395 -7.79255 0.195462 0
M  V30 118 N 8.8686 -0.792821 -1.36206 0
M  V30 119 C 10.2796 -0.429513 -1.81692 0
M  V30 120 C 10.6306 1.04695 -1.65932 0
M  V30 121 O 9.7556 1.81256 -1.18218 0
M  V30 122 C 10.3506 -0.772831 -3.29868 0
M  V30 123 C 8.9096 -0.462307 -3.7355 0
M  V30 124 C 8.0566 -1.00569 -2.5842 0
M  V30 125 H 11.0076 -0.985672 -1.24379 0
M  V30 126 H 11.0286 -0.0651928 -3.80444 0
M  V30 127 H 10.5406 -1.84747 -3.41307 0
M  V30 128 H 8.6416 0.604158 -3.67669 0
M  V30 129 H 8.7546 -0.985299 -4.68859 0
M  V30 130 H 7.1186 -0.428734 -2.51066 0
M  V30 131 H 7.9016 -2.08616 -2.72643 0
M  V30 132 N 10.3467 1.47872 -0.545128 0
M  V30 133 C 11.5927 2.02793 -0.0166104 0
M  V30 134 C 11.9257 1.41987 1.32489 0
M  V30 135 O 11.2007 0.571045 1.85928 0
M  V30 136 C 11.4837 3.59989 0.0893294 0
M  V30 137 C 11.3367 4.3125 -1.27841 0
M  V30 138 C 12.6557 4.32606 0.808724 0
M  V30 139 H 9.7747 0.736962 -0.00751035 0
M  V30 140 H 12.4167 1.76433 -0.705085 0
M  V30 141 H 10.5667 3.82579 0.675681 0
M  V30 142 H 12.2387 4.20035 -1.90704 0
M  V30 143 H 10.4817 3.92076 -1.85632 0
M  V30 144 H 11.1527 5.39736 -1.15713 0
M  V30 145 H 13.6287 4.14936 0.310992 0
M  V30 146 H 12.5047 5.42251 0.851782 0
M  V30 147 H 12.7657 4.00963 1.86229 0
M  V30 148 N 11.8248 0.280983 1.55075 0
M  V30 149 C 12.7548 -0.597469 2.25727 0
M  V30 150 C 13.7358 -1.15417 1.24952 0
M  V30 151 O 14.9208 -1.18722 1.53684 0
M  V30 152 C 12.0508 -1.7789 2.98283 0
M  V30 153 C 11.0048 -1.35347 4.06036 0
M  V30 154 C 10.3308 -2.61846 4.66198 0
M  V30 155 C 11.6308 -0.499354 5.19907 0
M  V30 156 H 13.3248 -0.00824265 2.99399 0
M  V30 157 H 10.8708 -0.0025244 1.44 0
M  V30 158 H 12.8238 -2.39937 3.46422 0
M  V30 159 H 11.5478 -2.39405 2.22155 0
M  V30 160 H 10.2068 -0.756156 3.58717 0
M  V30 161 H 9.8548 -3.21632 3.86732 0
M  V30 162 H 9.5548 -2.3409 5.38958 0
M  V30 163 H 11.0788 -3.24732 5.1709 0
M  V30 164 H 12.4928 -1.02498 5.64063 0
M  V30 165 H 10.8898 -0.316424 5.99265 0
M  V30 166 H 11.9598 0.480459 4.82514 0
M  V30 167 N 13.3029 -1.57598 0.00835791 0
M  V30 168 C 14.7139 -1.7892 -0.53333 0
M  V30 169 C 15.0649 -0.916609 -1.73473 0
M  V30 170 O 14.1899 -0.121336 -2.1606 0
M  V30 171 C 14.7849 -3.24488 -0.974313 0
M  V30 172 C 13.3439 -3.46878 -1.46125 0
M  V30 173 C 12.4909 -2.74157 -0.416302 0
M  V30 174 H 15.4419 -1.56958 0.234495 0
M  V30 175 H 15.4629 -3.3306 -1.83988 0
M  V30 176 H 14.9749 -3.87972 -0.099718 0
M  V30 177 H 13.0759 -2.8862 -2.35646 0
M  V30 178 H 13.1889 -4.55572 -1.48295 0
M  V30 179 H 11.5529 -2.39022 -0.87981 0
M  V30 180 H 12.3359 -3.40345 0.44947 0
M  V30 181 N 14.781 0.264519 -1.55364 0
M  V30 182 C 15.744 1.31046 -1.88042 0
M  V30 183 C 16.744 1.41943 -0.755569 0
M  V30 184 O 17.934 1.40947 -1.02369 0
M  V30 185 C 15.066 2.69067 -2.09323 0
M  V30 186 H 16.259 1.03297 -2.81549 0
M  V30 187 H 13.812 0.502989 -1.47986 0
M  V30 188 H 14.547 3.01982 -1.18226 0
M  V30 189 H 14.332 2.62542 -2.91229 0
M  V30 190 H 15.822 3.44623 -2.35848 0
M  V30 191 N 16.2591 1.48442 0.529413 0
M  V30 192 C 17.1891 1.65902 1.64313 0
M  V30 193 C 18.1701 0.507897 1.6234 0
M  V30 194 O 19.3551 0.740503 1.79528 0
M  V30 195 C 16.4851 1.69911 3.02898 0
M  V30 196 C 15.4391 2.8453 3.19729 0
M  V30 197 C 14.7651 2.73629 4.59381 0
M  V30 198 C 16.0651 4.25821 3.02447 0
M  V30 199 H 17.7591 2.5914 1.49955 0
M  V30 200 H 15.3051 1.24709 0.719982 0
M  V30 201 H 17.2581 1.80715 3.80684 0
M  V30 202 H 15.9821 0.732524 3.18279 0
M  V30 203 H 14.6411 2.73283 2.44361 0
M  V30 204 H 14.2891 1.74938 4.71599 0
M  V30 205 H 13.9891 3.50541 4.71588 0
M  V30 206 H 15.5131 2.86401 5.39265 0
M  V30 207 H 16.9271 4.37898 3.70024 0
M  V30 208 H 15.3241 5.03735 3.26146 0
M  V30 209 H 16.3941 4.42244 1.98867 0
M  V30 210 N 17.7372 -0.778329 1.37039 0
M  V30 211 C 18.9652 -1.56734 1.35063 0
M  V30 212 C 19.3802 -1.88686 -0.0655597 0
M  V30 213 O 18.7372 -1.5096 -1.02554 0
M  V30 214 C 18.7882 -2.88163 2.18276 0
M  V30 215 O 18.5092 -2.57583 3.54376 0
M  V30 216 C 20.0102 -3.82422 2.24206 0
M  V30 217 H 17.2302 -0.485778 0.462883 0
M  V30 218 H 19.7742 -0.965185 1.8029 0
M  V30 219 H 17.9292 -3.44818 1.76576 0
M  V30 220 H 18.3432 -3.41699 3.97922 0
M  V30 221 H 19.8172 -4.71667 2.86765 0
M  V30 222 H 20.2942 -4.21078 1.24861 0
M  V30 223 H 20.9002 -3.31697 2.6619 0
M  V30 224 N 19.2153 -1.21501 -1.00376 0
M  V30 225 C 20.4643 -1.02718 -1.73586 0
M  V30 226 C 20.7773 0.439589 -1.90596 0
M  V30 227 O 21.9833 0.746848 -2.61026 0
M  V30 228 C 20.4393 -1.78929 -3.1227 0
M  V30 229 C 20.0473 -3.29783 -3.03228 0
M  V30 230 C 21.7913 -1.68557 -3.89601 0
M  V30 231 C 19.6983 -3.98479 -4.36999 0
M  V30 232 H 18.6283 -0.380733 -0.650814 0
M  V30 233 H 21.2793 -1.45248 -1.1214 0
M  V30 234 H 19.6613 -1.29192 -3.74333 0
M  V30 235 H 20.8353 -3.86832 -2.50395 0
M  V30 236 H 19.1503 -3.40711 -2.39385 0
M  V30 237 H 21.7473 -2.17211 -4.88593 0
M  V30 238 H 22.0903 -0.644021 -4.11288 0
M  V30 239 H 22.6233 -2.15778 -3.34193 0
M  V30 240 H 19.3623 -5.02841 -4.20513 0
M  V30 241 H 18.8823 -3.46219 -4.89788 0
M  V30 242 H 20.5613 -4.03462 -5.05794 0
M  V30 243 N 20.6934 1.19889 -1.02296 0
M  V30 244 C 21.6414 2.24938 -0.592081 0
M  V30 245 C 22.6354 1.65257 0.372357 0
M  V30 246 O 23.8414 1.78371 0.241583 0
M  V30 247 H 20.2164 0.731787 -0.173182 0
M  V30 248 H 22.1874 2.58603 -1.48885 0
M  V30 249 C 20.9364 3.47668 0.047351 0
M  V30 250 H 20.2594 3.93875 -0.685772 0
M  V30 251 H 21.6994 4.22852 0.311862 0
M  V30 252 C 20.1584 3.11136 1.29212 0
M  V30 253 O 20.6884 3.2325 2.38479 0
M  V30 254 N 18.8944 2.65625 1.17863 0
M  V30 255 H 18.4414 2.55968 0.289493 0
M  V30 256 H 18.3994 2.41553 2.01245 0
M  V30 257 N 22.1715 0.800033 1.35784 0
M  V30 258 C 23.5825 0.439142 1.81462 0
M  V30 259 C 23.9335 -1.03813 1.66485 0
M  V30 260 O 23.0585 -1.80626 1.19177 0
M  V30 261 C 23.6535 0.790314 3.29453 0
M  V30 262 C 22.2125 0.482111 3.733 0
M  V30 263 C 21.3595 1.01938 2.57883 0
M  V30 264 H 24.3105 0.992254 1.23855 0
M  V30 265 H 24.3315 0.0853677 3.80404 0
M  V30 266 H 23.8435 1.86554 3.40322 0
M  V30 267 H 21.9445 -0.584652 3.67984 0
M  V30 268 H 22.0575 1.01015 4.6833 0
M  V30 269 H 20.4215 0.442043 2.50835 0
M  V30 270 H 21.2045 2.10059 2.71533 0
M  V30 271 N 23.6496 -1.47581 0.552962 0
M  V30 272 C 24.8776 -2.06875 0.0320556 0
M  V30 273 C 25.2926 -1.40625 -1.25976 0
M  V30 274 O 24.6496 -0.501349 -1.75479 0
M  V30 275 C 24.7006 -3.61092 -0.17167 0
M  V30 276 O 24.4216 -4.24858 1.06899 0
M  V30 277 C 25.9226 -4.37242 -0.730344 0
M  V30 278 H 23.1426 -0.669561 0.043915 0
M  V30 279 H 25.6866 -1.89646 0.765163 0
M  V30 280 H 23.8416 -3.7785 -0.854894 0
M  V30 281 H 24.2556 -5.17334 0.864059 0
M  V30 282 H 25.7296 -5.45842 -0.822203 0
M  V30 283 H 26.2066 -4.03235 -1.74064 0
M  V30 284 H 26.8126 -4.25219 -0.0829543 0
M  V30 285 N 25.1277 -0.289203 -1.54924 0
M  V30 286 C 26.3767 0.324231 -1.99077 0
M  V30 287 C 26.6897 1.5591 -1.18117 0
M  V30 288 O 27.8957 2.24637 -1.52481 0
M  V30 289 C 26.3517 0.628209 -3.54375 0
M  V30 290 C 25.9597 -0.587647 -4.44129 0
M  V30 291 C 27.7037 1.20349 -4.07083 0
M  V30 292 C 25.6107 -0.257475 -5.90839 0
M  V30 293 H 24.5407 0.124924 -0.743579 0
M  V30 294 H 27.1917 -0.396063 -1.79175 0
M  V30 295 H 25.5737 1.40778 -3.70132 0
M  V30 296 H 26.7477 -1.36418 -4.40144 0
M  V30 297 H 25.0627 -1.08074 -4.0213 0
M  V30 298 H 27.6597 1.46456 -5.14252 0
M  V30 299 H 28.0027 2.14195 -3.56968 0
M  V30 300 H 28.5357 0.485889 -3.94821 0
M  V30 301 H 25.2747 -1.16419 -6.45079 0
M  V30 302 H 24.7947 0.482018 -5.9786 0
M  V30 303 H 26.4737 0.145238 -6.46837 0
M  V30 304 N 26.6058 1.57591 -0.0167156 0
M  V30 305 C 27.5688 2.08393 0.954204 0
M  V30 306 C 28.5688 0.996531 1.26198 0
M  V30 307 O 29.7588 1.25858 1.20438 0
M  V30 308 C 26.8908 2.5394 2.27436 0
M  V30 309 H 28.0838 2.95455 0.514451 0
M  V30 310 H 25.6368 1.54582 0.231089 0
M  V30 311 H 26.3718 1.70171 2.76066 0
M  V30 312 H 26.1568 3.33371 2.06412 0
M  V30 313 H 27.6468 2.93512 2.97053 0
M  V30 314 N 28.0839 -0.256276 1.55502 0
M  V30 315 C 28.9939 -1.33882 1.92647 0
M  V30 316 C 30.0099 -1.53159 0.825727 0
M  V30 317 O 31.1859 -1.66963 1.12629 0
M  V30 318 C 28.2509 -2.6751 2.20543 0
M  V30 319 C 27.3119 -2.56836 3.43997 0
M  V30 320 C 26.5449 -3.84092 3.70553 0
M  V30 321 O 26.7679 -4.85545 2.99336 0
M  V30 322 O 25.7019 -3.83288 4.64084 0
M  V30 323 H 29.5279 -1.05374 2.84833 0
M  V30 324 H 27.1129 -0.456237 1.42263 0
M  V30 325 H 28.9949 -3.46492 2.39835 0
M  V30 326 H 27.6699 -2.9577 1.31536 0
M  V30 327 H 26.5769 -1.76172 3.30021 0
M  V30 328 H 27.9099 -2.33523 4.33275 0
M  V30 329 N 29.562 -1.4872 -0.521534 0
M  V30 330 C 30.81 -1.56857 -1.27437 0
M  V30 331 C 31.131 -0.247982 -1.93417 0
M  V30 332 O 30.401 0.731151 -1.81744 0
M  V30 333 H 28.981 -0.577885 -0.473347 0
M  V30 334 H 31.643 -1.85233 -0.606205 0
M  V30 335 H 30.739 -2.35402 -2.0492 0
M  V30 336 N 31.0401 0.771051 -1.3745 0
M  V30 337 C 32.4511 1.34737 -1.29239 0
M  V30 338 C 32.8021 1.96109 0.0596908 0
M  V30 339 O 31.9271 1.93865 0.961534 0
M  V30 340 C 32.5221 2.44973 -2.34037 0
M  V30 341 C 31.0811 2.98372 -2.29458 0
M  V30 342 C 30.2281 1.71595 -2.17831 0
M  V30 343 H 33.1791 0.571256 -1.48062 0
M  V30 344 H 33.2001 3.24471 -1.98744 0
M  V30 345 H 32.7121 2.00276 -3.32432 0
M  V30 346 H 30.8131 3.47443 -1.34589 0
M  V30 347 H 30.9261 3.53939 -3.229 0
M  V30 348 H 29.2901 1.94547 -1.64388 0
M  V30 349 H 30.0731 1.29001 -3.18141 0
M  V30 350 N 32.5182 1.22032 0.997298 0
M  V30 351 C 33.7432 1.06921 1.77715 0
M  V30 352 C 34.1682 -0.376226 1.84299 0
M  V30 353 O 33.5262 -1.27165 1.29223 0
M  V30 354 C 33.5742 1.67996 3.19076 0
M  V30 355 O 32.6782 0.930653 4.01762 0
M  V30 356 H 32.0192 0.375814 0.547412 0
M  V30 357 H 34.5492 1.61737 1.25309 0
M  V30 358 H 34.5592 1.72538 3.69723 0
M  V30 359 H 33.2342 2.73182 3.13599 0
M  V30 360 H 31.8112 0.960917 3.60307 0
M  V30 361 N 33.9963 -1.19345 1.0293 0
M  V30 362 C 35.4073 -1.70725 0.755633 0
M  V30 363 C 35.7583 -1.82326 -0.724676 0
M  V30 364 O 34.8833 -1.49471 -1.56484 0
M  V30 365 C 35.4783 -3.10084 1.36503 0
M  V30 366 C 34.0373 -3.58723 1.13994 0
M  V30 367 C 33.1843 -2.35577 1.46283 0
M  V30 368 H 36.1353 -1.0418 1.19718 0
M  V30 369 H 36.1563 -3.72787 0.762217 0
M  V30 370 H 35.6683 -3.01609 2.44241 0
M  V30 371 H 33.7693 -3.72512 0.0807901 0
M  V30 372 H 33.8823 -4.42816 1.82894 0
M  V30 373 H 32.2463 -2.38935 0.88217 0
M  V30 374 H 33.0293 -2.29731 2.55105 0
M  V30 375 N 35.4744 -0.807222 -1.35358 0
M  V30 376 C 36.7024 -0.400377 -2.02989 0
M  V30 377 C 37.1174 0.988859 -1.60832 0
M  V30 378 O 36.4744 1.63729 -0.806175 0
M  V30 379 C 36.5254 -0.474867 -3.58368 0
M  V30 380 O 36.2464 -1.80933 -3.98992 0
M  V30 381 C 37.7474 -0.0609112 -4.43258 0
M  V30 382 H 34.9674 -0.162587 -0.651004 0
M  V30 383 H 37.5114 -1.09102 -1.72965 0
M  V30 384 H 35.6664 0.167534 -3.87038 0
M  V30 385 H 36.0804 -1.77256 -4.9364 0
M  V30 386 H 37.5544 -0.164145 -5.51756 0
M  V30 387 H 38.0314 0.993831 -4.27808 0
M  V30 388 H 38.6374 -0.676492 -4.19885 0
M  V30 389 N 36.9525 1.47285 -0.560781 0
M  V30 390 C 38.1775 2.07359 -0.0410566 0
M  V30 391 C 38.6025 1.41017 1.24483 0
M  V30 392 O 37.9605 0.486368 1.74654 0
M  V30 393 C 38.0085 3.6035 0.134123 0
M  V30 394 O 37.1125 3.94681 1.19587 0
M  V30 395 H 36.4535 0.661887 -0.0529291 0
M  V30 396 H 38.9835 1.89252 -0.777482 0
M  V30 397 H 38.9935 4.0652 0.347207 0
M  V30 398 H 37.6685 4.08034 -0.805047 0
M  V30 399 H 36.2455 3.60251 0.962987 0
M  V30 400 N 38.4306 0.297415 1.54768 0
M  V30 401 C 39.3406 -0.58983 2.27064 0
M  V30 402 C 40.3566 -1.15144 1.30453 0
M  V30 403 O 41.5326 -1.17699 1.63428 0
M  V30 404 C 38.5976 -1.74714 2.9946 0
M  V30 405 C 37.6586 -1.21997 4.11601 0
M  V30 406 C 36.8916 -2.32212 4.80535 0
M  V30 407 O 37.1146 -3.52036 4.48806 0
M  V30 408 O 36.0486 -1.99106 5.68014 0
M  V30 409 H 39.8746 -0.00348199 3.037 0
M  V30 410 H 37.4596 0.0640035 1.49263 0
M  V30 411 H 39.3416 -2.42147 3.44881 0
M  V30 412 H 38.0166 -2.32016 2.25722 0
M  V30 413 H 36.9236 -0.511458 3.70587 0
M  V30 414 H 38.2566 -0.692419 4.87305 0
M  V30 415 N 39.9087 -1.5758 0.0250728 0
M  V30 416 C 41.1567 -1.91255 -0.653151 0
M  V30 417 C 41.4777 -0.901691 -1.729 0
M  V30 418 O 40.7477 0.0573785 -1.95816 0
M  V30 419 H 39.3277 -0.705942 -0.244243 0
M  V30 420 H 41.9897 -1.94767 0.0719209 0
M  V30 421 H 41.0857 -2.91752 -1.10847 0
M  V30 422 N 41.3868 0.248026 -1.55636 0
M  V30 423 C 42.3498 1.29044 -1.89421 0
M  V30 424 C 43.3498 1.41134 -0.770581 0
M  V30 425 O 44.5398 1.39854 -1.03858 0
M  V30 426 C 41.6718 2.66831 -2.12165 0
M  V30 427 H 42.8648 1.00305 -2.82629 0
M  V30 428 H 40.4178 0.487265 -1.48511 0
M  V30 429 H 41.1528 3.00711 -1.21422 0
M  V30 430 H 40.9378 2.59438 -2.93997 0
M  V30 431 H 42.4278 3.42103 -2.3949 0
M  V30 432 N 42.8649 1.48995 0.513639 0
M  V30 433 C 44.0899 1.61792 1.29762 0
M  V30 434 C 44.5149 0.284475 1.85936 0
M  V30 435 O 43.8729 -0.746185 1.65232 0
M  V30 436 C 43.9209 2.67993 2.41272 0
M  V30 437 O 43.0249 2.26287 3.44772 0
M  V30 438 H 42.3659 0.541963 0.38363 0
M  V30 439 H 44.8959 1.95097 0.616307 0
M  V30 440 H 44.9059 2.89772 2.87221 0
M  V30 441 H 43.5809 3.64791 1.9975 0
M  V30 442 H 42.1579 2.14788 3.04829 0
M  V30 443 N 44.343 -0.763751 1.37857 0
M  V30 444 C 45.253 -1.90817 1.36478 0
M  V30 445 C 46.269 -1.71997 0.263248 0
M  V30 446 O 47.445 -1.95095 0.499979 0
M  V30 447 C 44.51 -3.2605 1.17864 0
M  V30 448 C 43.571 -3.57467 2.3773 0
M  V30 449 C 42.804 -4.86249 2.19995 0
M  V30 450 O 43.027 -5.57884 1.18836 0
M  V30 451 O 41.961 -5.16911 3.08361 0
M  V30 452 H 45.787 -1.94933 2.32884 0
M  V30 453 H 43.372 -0.907619 1.1867 0
M  V30 454 H 45.254 -4.06924 1.09504 0
M  V30 455 H 43.929 -3.22769 0.245372 0
M  V30 456 H 42.836 -2.76796 2.51664 0
M  V30 457 H 44.169 -3.655 3.29652 0
M  V30 458 N 45.8211 -1.22559 -0.990812 0
M  V30 459 C 46.7841 -0.998863 -2.0629 0
M  V30 460 C 47.7841 0.0354834 -1.60761 0
M  V30 461 O 48.9741 -0.203231 -1.7301 0
M  V30 462 C 46.1061 -0.509203 -3.37076 0
M  V30 463 H 47.2991 -1.95014 -2.27837 0
M  V30 464 H 44.8521 -1.04456 -1.16269 0
M  V30 465 H 45.5871 0.446335 -3.21214 0
M  V30 466 H 45.3721 -1.25547 -3.71457 0
M  V30 467 H 46.8621 -0.370888 -4.1595 0
M  V30 468 N 47.2992 1.18797 -1.03562 0
M  V30 469 C 48.2472 2.24297 -0.615905 0
M  V30 470 C 49.2412 1.65643 0.354808 0
M  V30 471 O 50.4472 1.78618 0.22265 0
M  V30 472 H 46.8222 0.729909 -0.180934 0
M  V30 473 H 48.7932 2.5701 -1.5162 0
M  V30 474 C 47.5422 3.47698 0.0104735 0
M  V30 475 H 46.8652 3.93125 -0.727509 0
M  V30 476 H 48.3052 4.23159 0.266995 0
M  V30 477 C 46.7642 3.12489 1.25905 0
M  V30 478 O 47.2942 3.25761 2.35038 0
M  V30 479 N 45.5002 2.6686 1.15039 0
M  V30 480 H 45.0472 2.56261 0.262328 0
M  V30 481 H 45.0052 2.43674 1.98672 0
M  V30 482 N 48.7773 0.814389 1.34928 0
M  V30 483 C 49.7073 0.244827 2.32213 0
M  V30 484 C 50.6883 -0.634024 1.57842 0
M  V30 485 O 51.8733 -0.562676 1.8587 0
M  V30 486 C 49.0033 -0.601106 3.42058 0
M  V30 487 C 47.9573 0.179896 4.27622 0
M  V30 488 C 47.2833 -0.788237 5.28858 0
M  V30 489 C 48.5833 1.38329 5.03649 0
M  V30 490 H 50.2773 1.05763 2.80097 0
M  V30 491 H 47.8233 0.510029 1.34665 0
M  V30 492 H 49.7763 -1.00968 4.09125 0
M  V30 493 H 48.5003 -1.44688 2.92802 0
M  V30 494 H 47.1593 0.569739 3.62146 0
M  V30 495 H 46.8073 -1.62973 4.75866 0
M  V30 496 H 46.5073 -0.269942 5.8698 0
M  V30 497 H 48.0313 -1.19485 5.98795 0
M  V30 498 H 49.4453 1.04918 5.63618 0
M  V30 499 H 47.8423 1.83662 5.71304 0
M  V30 500 H 48.9123 2.16592 4.33839 0
M  V30 501 N 50.2554 -1.46986 0.568584 0
M  V30 502 C 51.5014 -2.02741 0.0488709 0
M  V30 503 C 51.8344 -1.44077 -1.30214 0
M  V30 504 O 51.1094 -0.600552 -1.84996 0
M  V30 505 C 51.3924 -3.60086 -0.032047 0
M  V30 506 C 51.2454 -4.29162 1.34686 0
M  V30 507 C 52.5644 -4.33838 -0.739798 0
M  V30 508 H 49.6834 -0.736749 0.0192338 0
M  V30 509 H 52.3254 -1.75289 0.733065 0
M  V30 510 H 50.4754 -3.83606 -0.61473 0
M  V30 511 H 52.1474 -4.16948 1.97362 0
M  V30 512 H 50.3904 -3.89073 1.91846 0
M  V30 513 H 51.0614 -5.37826 1.24285 0
M  V30 514 H 53.5374 -4.15378 -0.244939 0
M  V30 515 H 52.4134 -5.43537 -0.765406 0
M  V30 516 H 52.6744 -4.03875 -1.79827 0
M  V30 517 N 51.7335 -0.305618 -1.54608 0
M  V30 518 C 53.0105 0.355652 -1.92339 0
M  V30 519 C 53.3905 1.71324 -1.23335 0
M  V30 520 O 52.7385 2.25473 -0.370702 0
M  V30 521 C 52.9485 0.46572 -3.45879 0
M  V30 522 C 54.2965 0.734426 -4.182 0
M  V30 523 O 55.3205 0.54935 -3.51938 0
M  V30 524 O 54.1795 1.09024 -5.35515 0
M  V30 525 H 51.2735 0.199666 -0.802535 0
M  V30 526 H 53.8195 -0.354017 -1.65966 0
M  V30 527 H 52.5915 -0.488461 -3.88239 0
M  V30 528 H 52.2145 1.22367 -3.78301 0
M  V30 529 N 53.2116 1.57565 -0.0334293 0
M  V30 530 C 54.1416 2.13511 0.945265 0
M  V30 531 C 55.1226 1.05231 1.33643 0
M  V30 532 O 56.3076 1.33084 1.41429 0
M  V30 533 C 53.4376 2.6657 2.22616 0
M  V30 534 C 52.3916 3.79676 1.97561 0
M  V30 535 C 51.7176 4.1918 3.31952 0
M  V30 536 C 53.0176 5.0557 1.31135 0
M  V30 537 H 54.7116 2.95538 0.479325 0
M  V30 538 H 52.2576 1.42166 0.229115 0
M  V30 539 H 54.2106 3.04344 2.91466 0
M  V30 540 H 52.9346 1.8171 2.71384 0
M  V30 541 H 51.5936 3.42347 1.31127 0
M  V30 542 H 51.2416 3.31296 3.78487 0
M  V30 543 H 50.9416 4.95402 3.15992 0
M  V30 544 H 52.4656 4.59541 4.02063 0
M  V30 545 H 53.8796 5.40903 1.89992 0
M  V30 546 H 52.2766 5.86818 1.25559 0
M  V30 547 H 53.3466 4.84062 0.284894 0
M  V30 548 N 54.6897 -0.239769 1.55765 0
M  V30 549 C 55.6217 -1.32001 1.87372 0
M  V30 550 C 56.6347 -1.43944 0.760522 0
M  V30 551 O 57.8237 -1.45167 1.0387 0
M  V30 552 C 54.9237 -2.69779 2.05115 0
M  V30 553 C 54.0967 -2.80014 3.36022 0
M  V30 554 C 53.1557 -3.98684 3.4342 0
M  V30 555 O 52.1817 -3.87877 4.16582 0
M  V30 556 N 53.3837 -5.12176 2.73232 0
M  V30 557 H 56.1487 -1.0522 2.80622 0
M  V30 558 H 53.7097 -0.429857 1.56089 0
M  V30 559 H 55.7017 -3.47517 2.07399 0
M  V30 560 H 54.2717 -2.89237 1.18577 0
M  V30 561 H 53.4917 -1.88896 3.45994 0
M  V30 562 H 54.7797 -2.83808 4.22292 0
M  V30 563 H 54.1777 -5.2385 2.13536 0
M  V30 564 H 52.7347 -5.88022 2.81199 0
M  V30 565 N 56.1678 -1.49265 -0.50573 0
M  V30 566 C 57.1148 -1.65585 -1.6078 0
M  V30 567 C 58.0848 -0.497396 -1.58478 0
M  V30 568 O 59.2698 -0.72385 -1.76536 0
M  V30 569 C 56.4098 -1.72408 -2.98948 0
M  V30 570 C 55.5228 -2.99525 -3.11301 0
M  V30 571 C 54.6578 -2.97356 -4.40174 0
M  V30 572 C 53.6968 -4.19074 -4.46143 0
M  V30 573 N 52.8338 -4.14841 -5.66437 0
M  V30 574 H 57.6738 -2.59688 -1.46172 0
M  V30 575 H 55.2108 -1.28761 -0.711261 0
M  V30 576 H 57.1688 -1.74344 -3.79025 0
M  V30 577 H 55.7988 -0.817753 -3.1227 0
M  V30 578 H 54.8508 -3.07222 -2.24318 0
M  V30 579 H 56.1628 -3.89518 -3.11572 0
M  V30 580 H 55.3168 -2.97829 -5.28567 0
M  V30 581 H 54.0558 -2.05133 -4.42461 0
M  V30 582 H 53.0608 -4.1885 -3.56153 0
M  V30 583 H 54.2858 -5.12483 -4.45575 0
M  V30 584 H 52.2318 -3.25453 -5.69575 0
M  V30 585 H 52.1488 -4.98564 -5.68304 0
M  V30 586 H 53.4168 -4.1941 -6.57051 0
M  V30 587 N 57.6459 0.756429 -1.3826 0
M  V30 588 C 58.5929 1.87011 -1.35261 0
M  V30 589 C 59.5629 1.64695 -0.215616 0
M  V30 590 O 60.7479 1.864 -0.407399 0
M  V30 591 C 57.8879 3.24275 -1.18068 0
M  V30 592 C 57.0009 3.58442 -2.41129 0
M  V30 593 C 56.1359 4.84994 -2.16689 0
M  V30 594 C 55.1749 5.11939 -3.35537 0
M  V30 595 N 54.3119 6.29685 -3.10549 0
M  V30 596 H 59.1519 1.8891 -2.30472 0
M  V30 597 H 56.6889 0.923373 -1.14509 0
M  V30 598 H 58.6469 4.03479 -1.06116 0
M  V30 599 H 57.2769 3.21711 -0.264973 0
M  V30 600 H 56.3289 2.74103 -2.63764 0
M  V30 601 H 57.6409 3.74283 -3.29717 0
M  V30 602 H 56.7949 5.72135 -2.01857 0
M  V30 603 H 55.5339 4.71286 -1.25462 0
M  V30 604 H 54.5389 4.23268 -3.50891 0
M  V30 605 H 55.7639 5.27546 -4.27635 0
M  V30 606 H 53.7099 6.17306 -2.21967 0
M  V30 607 H 53.6269 6.46014 -3.92686 0
M  V30 608 H 54.8949 7.19722 -2.99367 0
M  V30 609 N 59.124 1.23083 0.984299 0
M  V30 610 C 60.054 1.03292 2.09411 0
M  V30 611 C 61.035 -0.048923 1.7003 0
M  V30 612 O 62.22 0.114967 1.93859 0
M  V30 613 C 59.35 0.619155 3.41736 0
M  V30 614 C 58.304 1.64791 3.95004 0
M  V30 615 C 57.63 1.0897 5.23478 0
M  V30 616 C 58.93 3.03999 4.24714 0
M  V30 617 H 60.624 1.96119 2.26225 0
M  V30 618 H 58.17 0.944344 1.08711 0
M  V30 619 H 60.123 0.467777 4.18796 0
M  V30 620 H 58.847 -0.344786 3.24775 0
M  V30 621 H 57.506 1.78721 3.20085 0
M  V30 622 H 57.154 0.11686 5.02864 0
M  V30 623 H 56.854 1.77704 5.60085 0
M  V30 624 H 58.378 0.950093 6.03163 0
M  V30 625 H 59.792 2.93393 4.92538 0
M  V30 626 H 58.189 3.69936 4.72512 0
M  V30 627 H 59.259 3.53285 3.32142 0
M  V30 628 N 60.6021 -1.18246 1.0419 0
M  V30 629 C 61.5121 -2.25574 0.644476 0
M  V30 630 C 62.5281 -1.70845 -0.329826 0
M  V30 631 O 63.7041 -2.00554 -0.184443 0
M  V30 632 C 60.7691 -3.46697 0.014877 0
M  V30 633 C 59.8301 -4.16554 1.03834 0
M  V30 634 C 59.0631 -5.31894 0.438692 0
M  V30 635 O 59.2861 -5.65385 -0.754752 0
M  V30 636 O 58.2201 -5.90459 1.168 0
M  V30 637 H 62.0461 -2.61836 1.53869 0
M  V30 638 H 59.6311 -1.25352 0.812854 0
M  V30 639 H 61.5131 -4.20062 -0.335538 0
M  V30 640 H 60.1881 -3.12255 -0.853138 0
M  V30 641 H 59.0951 -3.45251 1.44057 0
M  V30 642 H 60.4281 -4.54998 1.87716 0
M  V30 643 N 62.0802 -0.821533 -1.34494 0
M  V30 644 C 62.9902 -0.244355 -2.33324 0
M  V30 645 C 64.0062 0.620527 -1.62559 0
M  V30 646 O 65.1822 0.528754 -1.94335 0
M  V30 647 C 62.2472 0.585368 -3.41723 0
M  V30 648 C 61.3082 -0.301752 -4.28238 0
M  V30 649 C 60.5412 0.488466 -5.3146 0
M  V30 650 O 60.7642 1.72186 -5.4379 0
M  V30 651 O 59.6982 -0.12848 -6.01763 0
M  V30 652 H 63.5242 -1.06231 -2.84515 0
M  V30 653 H 61.1092 -0.583645 -1.37528 0
M  V30 654 H 62.9912 1.05747 -4.07916 0
M  V30 655 H 61.6662 1.38068 -2.92778 0
M  V30 656 H 60.5732 -0.821315 -3.64973 0
M  V30 657 H 61.9062 -1.06138 -4.8062 0
M  V30 658 N 63.5583 1.46682 -0.576371 0
M  V30 659 C 64.4883 2.33028 0.148397 0
M  V30 660 C 65.4693 1.44961 0.889956 0
M  V30 661 O 66.6543 1.73789 0.866662 0
M  V30 662 C 63.7843 3.27117 1.1667 0
M  V30 663 C 62.7383 4.24575 0.540386 0
M  V30 664 C 62.0643 5.08126 1.6647 0
M  V30 665 C 63.3643 5.19722 -0.518331 0
M  V30 666 H 65.0583 2.93875 -0.572509 0
M  V30 667 H 62.6043 1.41315 -0.276768 0
M  V30 668 H 64.5573 3.86374 1.68204 0
M  V30 669 H 63.2813 2.64364 1.9178 0
M  V30 670 H 61.9403 3.66571 0.0461769 0
M  V30 671 H 61.5883 4.41762 2.40531 0
M  V30 672 H 61.2883 5.74122 1.25131 0
M  V30 673 H 62.8123 5.70246 2.18293 0
M  V30 674 H 64.2263 5.73232 -0.0883058 0
M  V30 675 H 62.6233 5.94026 -0.851679 0
M  V30 676 H 63.6933 4.64037 -1.40703 0
M  V30 677 N 65.0364 0.313813 1.54444 0
M  V30 678 C 65.9464 -0.565714 2.27677 0
M  V30 679 C 66.9624 -1.13754 1.31666 0
M  V30 680 O 68.1384 -1.15959 1.64668 0
M  V30 681 C 65.2034 -1.71528 3.01296 0
M  V30 682 C 64.2644 -1.17624 4.12872 0
M  V30 683 C 63.4974 -2.27102 4.8297 0
M  V30 684 O 63.7204 -3.47256 4.52514 0
M  V30 685 O 62.6544 -1.9307 5.70094 0
M  V30 686 H 66.4804 0.0287296 3.03686 0
M  V30 687 H 64.0654 0.0798312 1.49187 0
M  V30 688 H 65.9474 -2.38476 3.4743 0
M  V30 689 H 64.6224 -2.29608 2.2817 0
M  V30 690 H 63.5294 -0.472124 3.71109 0
M  V30 691 H 64.8624 -0.640695 4.88012 0
M  V30 692 N 66.5145 -1.57545 0.0417849 0
M  V30 693 C 67.4445 -2.14009 -0.933929 0
M  V30 694 C 68.4255 -1.05938 -1.33083 0
M  V30 695 O 69.6105 -1.33833 -1.40721 0
M  V30 696 C 66.7405 -2.67747 -2.21199 0
M  V30 697 C 65.6945 -3.80718 -1.95544 0
M  V30 698 C 65.0205 -4.20935 -3.29724 0
M  V30 699 C 66.3205 -5.06258 -1.28452 0
M  V30 700 H 68.0145 -2.95788 -0.463645 0
M  V30 701 H 65.5605 -1.42285 -0.221573 0
M  V30 702 H 67.5135 -3.05886 -2.89848 0
M  V30 703 H 66.2375 -1.83147 -2.70416 0
M  V30 704 H 64.8965 -3.43037 -1.2931 0
M  V30 705 H 64.5445 -3.33298 -3.76724 0
M  V30 706 H 64.2445 -4.9707 -3.13361 0
M  V30 707 H 65.7685 -4.61666 -3.9962 0
M  V30 708 H 67.1825 -5.41903 -1.8712 0
M  V30 709 H 65.5795 -5.87475 -1.22445 0
M  V30 710 H 66.6495 -4.84207 -0.259219 0
M  V30 711 N 67.9926 0.231505 -1.5589 0
M  V30 712 C 69.2696 0.981096 -1.69215 0
M  V30 713 C 69.6496 2.02799 -0.586164 0
M  V30 714 O 68.9976 2.24823 0.408253 0
M  V30 715 C 69.2076 1.60054 -3.10135 0
M  V30 716 C 70.5556 2.09658 -3.69227 0
M  V30 717 O 71.5796 1.69967 -3.13033 0
M  V30 718 O 70.4386 2.8258 -4.67772 0
M  V30 719 H 67.5326 0.457653 -0.688827 0
M  V30 720 H 70.0786 0.224073 -1.68214 0
M  V30 721 H 68.8506 0.844105 -3.82087 0
M  V30 722 H 68.4736 2.42336 -3.15212 0
M  V30 723 N 69.4707 1.49531 0.497807 0
M  V30 724 C 70.3807 1.69176 1.62532 0
M  V30 725 C 71.3967 0.5744 1.64246 0
M  V30 726 O 72.5727 0.849497 1.82608 0
M  V30 727 C 69.6377 1.75695 2.98885 0
M  V30 728 C 68.6987 2.9929 3.07773 0
M  V30 729 C 67.9317 3.05488 4.37622 0
M  V30 730 O 68.1547 2.19192 5.26603 0
M  V30 731 O 67.0887 3.9798 4.51548 0
M  V30 732 H 70.9147 2.647 1.48887 0
M  V30 733 H 68.4997 1.3331 0.674441 0
M  V30 734 H 70.3817 1.82317 3.79919 0
M  V30 735 H 69.0567 0.8335 3.12785 0
M  V30 736 H 67.9637 2.98183 2.25915 0
M  V30 737 H 69.2967 3.91125 2.98801 0
M  V30 738 N 70.9488 -0.749086 1.3866 0
M  V30 739 C 71.8808 -1.87273 1.32142 0
M  V30 740 C 72.8938 -1.61127 0.232787 0
M  V30 741 O 74.0828 -1.71623 0.49069 0
M  V30 742 C 71.1828 -3.23005 1.02571 0
M  V30 743 C 70.3558 -3.7662 2.22433 0
M  V30 744 C 69.4148 -4.90879 1.89537 0
M  V30 745 O 68.4408 -5.05276 2.62078 0
M  V30 746 N 69.6428 -5.74198 0.853031 0
M  V30 747 H 72.4078 -1.93373 2.28969 0
M  V30 748 H 69.9688 -0.929216 1.32579 0
M  V30 749 H 71.9608 -3.96992 0.786085 0
M  V30 750 H 70.5308 -3.12262 0.145249 0
M  V30 751 H 69.7508 -2.94147 2.62434 0
M  V30 752 H 71.0388 -4.09173 3.02415 0
M  V30 753 H 70.4368 -5.6514 0.25155 0
M  V30 754 H 68.9938 -6.48313 0.67329 0
M  V30 755 N 72.4269 -1.23603 -0.977757 0
M  V30 756 C 73.3589 -0.977369 -2.07317 0
M  V30 757 C 74.3719 0.0495845 -1.62724 0
M  V30 758 O 75.5609 -0.186261 -1.77526 0
M  V30 759 C 72.6609 -0.451216 -3.35883 0
M  V30 760 C 71.8339 -1.53896 -4.09432 0
M  V30 761 C 70.8929 -1.01721 -5.16274 0
M  V30 762 O 69.9189 -1.70676 -5.43009 0
M  V30 763 N 71.1209 0.153594 -5.80297 0
M  V30 764 H 73.8859 -1.92047 -2.30082 0
M  V30 765 H 71.4469 -1.14497 -1.14465 0
M  V30 766 H 73.4389 -0.0871574 -4.04606 0
M  V30 767 H 72.0089 0.397368 -3.10064 0
M  V30 768 H 71.2289 -2.07566 -3.35127 0
M  V30 769 H 72.5169 -2.27037 -4.55337 0
M  V30 770 H 71.9149 0.730323 -5.60966 0
M  V30 771 H 70.4719 0.458892 -6.50183 0
M  V30 772 N 73.905 1.17692 -1.04816 0
M  V30 773 C 74.852 2.21581 -0.645797 0
M  V30 774 C 75.822 1.62367 0.350159 0
M  V30 775 O 77.007 1.89254 0.242433 0
M  V30 776 C 74.147 3.45092 -0.0227568 0
M  V30 777 C 73.26 4.18613 -1.06709 0
M  V30 778 C 72.395 5.29602 -0.411767 0
M  V30 779 C 71.434 5.94904 -1.44067 0
M  V30 780 N 70.571 6.97414 -0.809781 0
M  V30 781 H 75.411 2.55353 -1.5362 0
M  V30 782 H 72.948 1.25438 -0.768364 0
M  V30 783 H 74.906 4.15679 0.35588 0
M  V30 784 H 73.536 3.11917 0.831122 0
M  V30 785 H 72.588 3.46779 -1.5636 0
M  V30 786 H 73.9 4.63293 -1.84827 0
M  V30 787 H 73.054 6.06696 0.0206623 0
M  V30 788 H 71.793 4.86045 0.401438 0
M  V30 789 H 70.798 5.16544 -1.88316 0
M  V30 790 H 72.023 6.40542 -2.25571 0
M  V30 791 H 69.969 6.55998 -0.0170186 0
M  V30 792 H 69.886 7.40386 -1.52856 0
M  V30 793 H 71.154 7.78463 -0.401999 0
M  V30 794 N 75.3831 0.828654 1.34056 0
M  V30 795 C 76.3301 0.252567 2.29414 0
M  V30 796 C 77.3001 -0.62588 1.53857 0
M  V30 797 O 78.4851 -0.566312 1.82202 0
M  V30 798 C 75.6251 -0.574831 3.40279 0
M  V30 799 C 74.7381 0.326499 4.30764 0
M  V30 800 C 73.8731 -0.511016 5.28736 0
M  V30 801 C 72.9121 0.389342 6.1086 0
M  V30 802 N 72.0491 -0.409439 7.00905 0
M  V30 803 H 76.8891 1.07108 2.78086 0
M  V30 804 H 74.4261 0.539677 1.36843 0
M  V30 805 H 76.3841 -1.06992 4.03248 0
M  V30 806 H 75.0141 -1.35841 2.92826 0
M  V30 807 H 74.0661 0.939837 3.68607 0
M  V30 808 H 75.3781 1.01857 4.88289 0
M  V30 809 H 74.5321 -1.07035 5.97184 0
M  V30 810 H 73.2711 -1.23657 4.71763 0
M  V30 811 H 72.2761 0.960769 5.4134 0
M  V30 812 H 73.5011 1.1131 6.69916 0
M  V30 813 H 71.4471 -1.11856 6.46393 0
M  V30 814 H 71.3641 0.224126 7.55668 0
M  V30 815 H 72.6321 -0.951336 7.73673 0
M  V30 816 N 76.8612 -1.46375 0.584142 0
M  V30 817 C 78.2772 -1.57694 0.245929 0
M  V30 818 C 78.4772 -1.57903 -1.25175 0
M  V30 819 O 77.5332 -1.49676 -2.03355 0
M  V30 820 C 78.8462 -2.87028 0.896402 0
M  V30 821 C 80.3942 -3.00662 0.870127 0
M  V30 822 C 80.8692 -4.32734 1.50017 0
M  V30 823 N 82.3602 -4.39436 1.46458 0
M  V30 824 C 83.0952 -5.40248 1.92144 0
M  V30 825 N 82.5912 -6.47726 2.4581 0
M  V30 826 N 84.3842 -5.31459 1.83052 0
M  V30 827 H 76.5352 -1.44483 1.55687 0
M  V30 828 H 78.7982 -0.689291 0.650831 0
M  V30 829 H 78.5042 -2.9269 1.95002 0
M  V30 830 H 78.3782 -3.75014 0.405486 0
M  V30 831 H 80.7652 -2.94581 -0.174871 0
M  V30 832 H 80.8462 -2.14148 1.39908 0
M  V30 833 H 80.4902 -4.39573 2.54437 0
M  V30 834 H 80.4202 -5.18025 0.946432 0
M  V30 835 H 82.9112 -3.62367 1.07231 0
M  V30 836 H 83.2242 -7.20863 2.78525 0
M  V30 837 H 81.5692 -6.48542 2.49836 0
M  V30 838 H 84.7602 -4.46396 1.40883 0
M  V30 839 H 84.9332 -6.09881 2.18973 0
M  V30 840 N 78.3393 -0.321999 -1.54275 0
M  V30 841 C 79.2693 0.537411 -2.27231 0
M  V30 842 C 80.2503 1.12064 -1.27968 0
M  V30 843 O 81.4353 1.14606 -1.56777 0
M  V30 844 C 78.5653 1.69919 -3.02894 0
M  V30 845 C 77.5193 1.24534 -4.09482 0
M  V30 846 C 76.8453 2.49394 -4.72977 0
M  V30 847 C 78.1453 0.361335 -5.21049 0
M  V30 848 H 79.8393 -0.0711406 -2.99315 0
M  V30 849 H 77.3853 -0.0356555 -1.43956 0
M  V30 850 H 79.3383 2.30668 -3.52662 0
M  V30 851 H 78.0623 2.33431 -2.28424 0
M  V30 852 H 76.7213 0.660782 -3.60596 0
M  V30 853 H 76.3693 3.11265 -3.95124 0
M  V30 854 H 76.0693 2.19718 -5.44975 0
M  V30 855 H 77.5933 3.10908 -5.25517 0
M  V30 856 H 79.0073 0.875072 -5.66582 0
M  V30 857 H 77.4043 0.157428 -5.99893 0
M  V30 858 H 78.4743 -0.60822 -4.8107 0
M  V30 859 N 79.8174 1.5752 -0.0501392 0
M  V30 860 C 80.7274 2.14952 0.939827 0
M  V30 861 C 81.7434 1.10706 1.34239 0
M  V30 862 O 82.9194 1.42869 1.41952 0
M  V30 863 C 79.9844 2.68232 2.19665 0
M  V30 864 C 79.0454 3.87272 1.85253 0
M  V30 865 C 78.2784 4.38002 3.04943 0
M  V30 866 O 78.5014 3.87811 4.18281 0
M  V30 867 O 77.4354 5.29602 2.86017 0
M  V30 868 H 81.2614 2.9986 0.481392 0
M  V30 869 H 78.8464 1.4841 0.171699 0
M  V30 870 H 80.7284 3.02475 2.93406 0
M  V30 871 H 79.4034 1.86395 2.64648 0
M  V30 872 H 78.3104 3.5792 1.0883 0
M  V30 873 H 79.6434 4.70336 1.4507 0
M  V30 874 N 81.2955 -0.223234 1.56011 0
M  V30 875 C 82.2585 -1.26014 1.9145 0
M  V30 876 C 83.2585 -1.3989 0.792937 0
M  V30 877 O 84.4485 -1.38184 1.0607 0
M  V30 878 C 81.5805 -2.63422 2.16383 0
M  V30 879 H 82.7735 -0.95796 2.84189 0
M  V30 880 H 80.3265 -0.463576 1.49267 0
M  V30 881 H 81.0615 -2.98741 1.2619 0
M  V30 882 H 80.8465 -2.54728 2.98088 0
M  V30 883 H 82.3365 -3.38249 2.44903 0
M  V30 884 N 82.7736 -1.49793 -0.48987 0
M  V30 885 C 84.0206 -1.59841 -1.24327 0
M  V30 886 C 84.3486 -0.290135 -1.92324 0
M  V30 887 O 83.6036 0.722749 -1.81865 0
M  V30 888 C 83.9026 -2.71488 -2.32441 0
M  V30 889 C 83.5686 -4.12614 -1.81826 0
M  V30 890 C 82.2306 -4.51017 -1.67742 0
M  V30 891 C 84.5826 -5.00892 -1.4407 0
M  V30 892 C 81.9106 -5.75459 -1.14297 0
M  V30 893 C 84.2626 -6.25863 -0.920742 0
M  V30 894 C 82.9266 -6.63086 -0.766383 0
M  V30 895 H 82.1966 -0.584899 -0.454944 0
M  V30 896 H 84.8436 -1.83663 -0.542215 0
M  V30 897 H 83.1486 -2.4168 -3.0838 0
M  V30 898 H 84.8456 -2.76469 -2.90458 0
M  V30 899 H 81.4356 -3.82307 -1.93751 0
M  V30 900 H 85.6196 -4.7187 -1.53794 0
M  V30 901 H 80.8756 -6.02989 -1.01068 0
M  V30 902 H 85.0496 -6.9364 -0.619448 0
M  V30 903 H 82.6766 -7.59393 -0.350083 0
M  V30 904 N 84.2517 0.741722 -1.39055 0
M  V30 905 C 85.1817 1.869 -1.39966 0
M  V30 906 C 86.1627 1.6804 -0.26392 0
M  V30 907 O 87.3477 1.88458 -0.468755 0
M  V30 908 C 84.4777 3.24572 -1.23574 0
M  V30 909 C 83.4317 3.58056 -2.34477 0
M  V30 910 C 82.7577 4.94593 -2.0318 0
M  V30 911 C 84.0577 3.61716 -3.76774 0
M  V30 912 H 85.7517 1.86395 -2.34302 0
M  V30 913 H 83.2977 0.895361 -1.1278 0
M  V30 914 H 85.2507 4.031 -1.22834 0
M  V30 915 H 83.9747 3.25587 -0.257045 0
M  V30 916 H 82.6337 2.81854 -2.34423 0
M  V30 917 H 82.2817 4.92181 -1.03765 0
M  V30 918 H 81.9817 5.17964 -2.77465 0
M  V30 919 H 83.5057 5.75486 -2.04079 0
M  V30 920 H 84.9197 4.30335 -3.78794 0
M  V30 921 H 83.3167 3.96603 -4.50362 0
M  V30 922 H 84.3867 2.61672 -4.08235 0
M  V30 923 N 85.7298 1.2412 0.971189 0
M  V30 924 C 86.9578 1.10575 1.74874 0
M  V30 925 C 87.3728 -0.342017 1.85676 0
M  V30 926 O 86.7298 -1.23617 1.34258 0
M  V30 927 C 86.7808 1.73579 3.171 0
M  V30 928 O 86.5018 3.12695 3.06844 0
M  V30 929 C 88.0028 1.65598 4.11208 0
M  V30 930 H 85.2228 0.386504 0.548503 0
M  V30 931 H 87.7668 1.64156 1.21955 0
M  V30 932 H 85.9218 1.24009 3.67016 0
M  V30 933 H 86.3358 3.43412 3.96445 0
M  V30 934 H 87.8098 2.1437 5.08674 0
M  V30 935 H 88.2868 0.616532 4.34851 0
M  V30 936 H 88.8928 2.14578 3.67201 0
M  V30 937 N 87.2079 -1.17134 1.05439 0
M  V30 938 C 88.1399 -2.2078 0.615539 0
M  V30 939 C 89.1529 -1.59584 -0.322001 0
M  V30 940 O 90.3419 -1.78133 -0.114344 0
M  V30 941 C 87.4419 -3.38691 -0.118938 0
M  V30 942 C 86.6149 -4.29454 0.829924 0
M  V30 943 C 85.6739 -5.26024 0.136258 0
M  V30 944 O 84.6999 -5.63952 0.77115 0
M  V30 945 N 85.9019 -5.69487 -1.1254 0
M  V30 946 H 88.6669 -2.59052 1.50705 0
M  V30 947 H 86.2279 -1.32058 0.936603 0
M  V30 948 H 88.2199 -4.00329 -0.593179 0
M  V30 949 H 86.7899 -2.98996 -0.91215 0
M  V30 950 H 86.0099 -3.65211 1.48373 0
M  V30 951 H 87.2979 -4.86984 1.47392 0
M  V30 952 H 86.6959 -5.4075 -1.6615 0
M  V30 953 H 85.2529 -6.33257 -1.54366 0
M  V30 954 N 88.686 -0.835752 -1.33615 0
M  V30 955 C 89.633 -0.26473 -2.29277 0
M  V30 956 C 90.603 0.617712 -1.54187 0
M  V30 957 O 91.788 0.556641 -1.825 0
M  V30 958 C 88.928 0.556777 -3.40579 0
M  V30 959 C 88.041 -0.349339 -4.30585 0
M  V30 960 C 87.176 0.482969 -5.29 0
M  V30 961 C 86.215 -0.421732 -6.10645 0
M  V30 962 N 85.352 0.372262 -7.01112 0
M  V30 963 H 90.192 -1.08582 -2.77514 0
M  V30 964 H 87.729 -0.546927 -1.36554 0
M  V30 965 H 89.687 1.04852 -4.03809 0
M  V30 966 H 88.317 1.34286 -2.93542 0
M  V30 967 H 87.369 -0.959372 -3.68104 0
M  V30 968 H 88.681 -1.04445 -4.87742 0
M  V30 969 H 87.835 1.03866 -5.97743 0
M  V30 970 H 86.574 1.21153 -4.72412 0
M  V30 971 H 85.579 -0.989464 -5.40823 0
M  V30 972 H 86.804 -1.14861 -6.69316 0
M  V30 973 H 84.75 1.08426 -6.46977 0
M  V30 974 H 84.667 -0.264198 -7.55538 0
M  V30 975 H 85.935 0.910293 -7.74167 0
M  V30 976 N 90.1641 1.46063 -0.591896 0
M  V30 977 C 91.1271 2.28854 0.125973 0
M  V30 978 C 92.1271 1.38903 0.810107 0
M  V30 979 O 93.3171 1.61186 0.66066 0
M  V30 980 C 90.4491 3.19526 1.1881 0
M  V30 981 H 91.6421 2.93802 -0.601717 0
M  V30 982 H 89.1951 1.52325 -0.350254 0
M  V30 983 H 89.9301 2.59345 1.94707 0
M  V30 984 H 89.7151 3.85766 0.701936 0
M  V30 985 H 91.2051 3.81817 1.69132 0
M  V30 986 N 91.6422 0.330177 1.54103 0
M  V30 987 C 92.5892 -0.532762 2.24567 0
M  V30 988 C 93.5592 -1.10635 1.23892 0
M  V30 989 O 94.7442 -1.14546 1.5259 0
M  V30 990 C 91.8842 -1.6845 3.01195 0
M  V30 991 C 90.9972 -1.13951 4.167 0
M  V30 992 C 90.1322 -2.25746 4.80845 0
M  V30 993 C 89.1712 -1.6853 5.88442 0
M  V30 994 N 88.3082 -2.74014 6.46421 0
M  V30 995 H 93.1482 0.0746905 2.97906 0
M  V30 996 H 90.6852 0.048632 1.4702 0
M  V30 997 H 92.6432 -2.36234 3.43874 0
M  V30 998 H 91.2732 -2.26314 2.30178 0
M  V30 999 H 90.3252 -0.35301 3.78758 0
M  V30 1000 H 91.6372 -0.680892 4.94131 0
M  V30 1001 H 90.7912 -3.01422 5.26526 0
M  V30 1002 H 89.5302 -2.74947 4.0281 0
M  V30 1003 H 88.5352 -0.913543 5.42157 0
M  V30 1004 H 89.7602 -1.20198 6.68378 0
M  V30 1005 H 87.7062 -3.22494 5.71256 0
M  V30 1006 H 87.6232 -2.32735 7.19285 0
M  V30 1007 H 88.8912 -3.49499 6.96757 0
M  V30 1008 N 93.1203 -1.57491 0.0584922 0
M  V30 1009 C 94.3663 -1.93264 -0.614558 0
M  V30 1010 C 94.6993 -0.937717 -1.7006 0
M  V30 1011 O 93.9743 0.0351652 -1.94468 0
M  V30 1012 C 94.2573 -3.3938 -1.20386 0
M  V30 1013 C 94.1103 -4.49625 -0.125375 0
M  V30 1014 C 95.4293 -3.86039 -2.11334 0
M  V30 1015 H 92.5483 -0.702791 -0.221933 0
M  V30 1016 H 95.1903 -1.8961 0.12175 0
M  V30 1017 H 93.3403 -3.42626 -1.83139 0
M  V30 1018 H 95.0123 -4.58506 0.506971 0
M  V30 1019 H 93.2553 -4.30354 0.545672 0
M  V30 1020 H 93.9263 -5.48967 -0.577861 0
M  V30 1021 H 96.4023 -3.84716 -1.58534 0
M  V30 1022 H 95.2783 -4.88914 -2.49507 0
M  V30 1023 H 95.5393 -3.23215 -3.01636 0
M  V30 1024 N 94.5984 0.214957 -1.56127 0
M  V30 1025 C 95.8464 0.936518 -1.79091 0
M  V30 1026 C 96.1674 1.84606 -0.628148 0
M  V30 1027 O 95.4374 1.92664 0.35462 0
M  V30 1028 H 94.0174 0.3488 -0.660566 0
M  V30 1029 H 96.6794 0.22523 -1.93594 0
M  V30 1030 H 95.7754 1.53943 -2.71492 0
M  V30 1031 N 96.0765 1.50051 0.48192 0
M  V30 1032 C 96.9865 1.7089 1.60728 0
M  V30 1033 C 98.0025 0.591788 1.63627 0
M  V30 1034 O 99.1785 0.868817 1.81696 0
M  V30 1035 C 96.2435 1.78855 2.97005 0
M  V30 1036 C 95.3045 3.02537 3.04581 0
M  V30 1037 C 94.5375 3.10112 4.34357 0
M  V30 1038 O 94.7605 2.24765 5.24249 0
M  V30 1039 O 93.6945 4.02747 4.47301 0
M  V30 1040 H 97.5205 2.66264 1.46072 0
M  V30 1041 H 95.1055 1.34018 0.660264 0
M  V30 1042 H 96.9875 1.86336 3.77964 0
M  V30 1043 H 95.6625 0.866628 3.11883 0
M  V30 1044 H 94.5695 3.00563 2.22739 0
M  V30 1045 H 95.9025 3.94272 2.94636 0
M  V30 1046 N 97.5546 -0.734337 1.39446 0
M  V30 1047 C 98.4846 -1.86155 1.40955 0
M  V30 1048 C 99.4656 -1.67898 0.272827 0
M  V30 1049 O 100.651 -1.88207 0.478743 0
M  V30 1050 C 97.7806 -3.23912 1.25294 0
M  V30 1051 C 96.7346 -3.56808 2.36373 0
M  V30 1052 C 96.0606 -4.93508 2.058 0
M  V30 1053 C 97.3606 -3.59713 3.78687 0
M  V30 1054 H 99.0546 -1.8515 2.35287 0
M  V30 1055 H 96.6006 -0.889367 1.13253 0
M  V30 1056 H 98.5536 -4.02443 1.2497 0
M  V30 1057 H 97.2776 -3.25446 0.274308 0
M  V30 1058 H 95.9366 -2.80606 2.35914 0
M  V30 1059 H 95.5846 -4.91623 1.06374 0
M  V30 1060 H 95.2846 -5.16486 2.80208 0
M  V30 1061 H 96.8086 -5.74396 2.07128 0
M  V30 1062 H 98.2226 -4.2832 3.81071 0
M  V30 1063 H 96.6196 -3.94209 4.52459 0
M  V30 1064 H 97.6896 -2.59504 4.09617 0
M  V30 1065 N 99.0327 -1.24633 -0.964593 0
M  V30 1066 C 99.9797 -1.04144 -2.05968 0
M  V30 1067 C 100.95 0.046262 -1.66036 0
M  V30 1068 O 102.135 -0.108972 -1.90489 0
M  V30 1069 C 99.2747 -0.65563 -3.38815 0
M  V30 1070 C 98.3877 -1.81714 -3.91923 0
M  V30 1071 C 97.5227 -1.37662 -5.13052 0
M  V30 1072 C 96.5617 -2.50788 -5.58365 0
M  V30 1073 N 95.6987 -2.07582 -6.70712 0
M  V30 1074 H 100.539 -1.9787 -2.22827 0
M  V30 1075 H 98.0757 -0.9855 -1.09208 0
M  V30 1076 H 100.034 -0.412954 -4.15151 0
M  V30 1077 H 98.6637 0.244627 -3.21872 0
M  V30 1078 H 97.7157 -2.1734 -3.12198 0
M  V30 1079 H 99.0277 -2.66705 -4.21509 0
M  V30 1080 H 98.1817 -1.093 -5.96773 0
M  V30 1081 H 96.9207 -0.497293 -4.85158 0
M  V30 1082 H 95.9257 -2.79906 -4.73215 0
M  V30 1083 H 97.1507 -3.39283 -5.88272 0
M  V30 1084 H 95.0967 -1.22051 -6.44546 0
M  V30 1085 H 95.0137 -2.86125 -6.99763 0
M  V30 1086 H 96.2817 -1.82369 -7.57867 0
M  V30 1087 N 100.511 1.16574 -1.06058 0
M  V30 1088 C 101.788 1.83048 -0.689416 0
M  V30 1089 C 102.168 1.94122 0.829443 0
M  V30 1090 O 101.516 1.48249 1.7388 0
M  V30 1091 C 101.726 3.20186 -1.38859 0
M  V30 1092 C 103.074 3.95989 -1.53226 0
M  V30 1093 O 104.098 3.29696 -1.3483 0
M  V30 1094 O 102.957 5.14813 -1.83384 0
M  V30 1095 H 100.051 0.790258 -0.243764 0
M  V30 1096 H 102.597 1.23797 -1.16071 0
M  V30 1097 H 101.369 3.07146 -2.4244 0
M  V30 1098 H 100.992 3.87112 -0.907216 0
M  V30 1099 N 101.989 0.842826 1.3317 0
M  V30 1100 C 103.266 0.362216 1.92217 0
M  V30 1101 C 103.646 -1.15289 1.76838 0
M  V30 1102 O 102.994 -1.96914 1.15919 0
M  V30 1103 C 103.204 0.813495 3.39387 0
M  V30 1104 C 104.552 0.823804 4.16532 0
M  V30 1105 O 105.576 0.757358 3.48055 0
M  V30 1106 O 104.435 0.915193 5.38782 0
M  V30 1107 H 101.529 0.103317 0.820521 0
M  V30 1108 H 104.075 0.928942 1.42017 0
M  V30 1109 H 102.847 1.85624 3.4447 0
M  V30 1110 H 102.47 0.223561 3.96971 0
M  V30 1111 N 103.467 -1.45747 0.599634 0
M  V30 1112 C 104.744 -1.95585 0.0240846 0
M  V30 1113 C 105.124 -1.54217 -1.44154 0
M  V30 1114 O 104.472 -0.800903 -2.14004 0
M  V30 1115 C 104.682 -3.48344 0.21385 0
M  V30 1116 C 106.03 -4.24504 0.0904902 0
M  V30 1117 O 107.054 -3.55911 0.143558 0
M  V30 1118 O 105.913 -5.46491 -0.0310766 0
M  V30 1119 H 103.007 -0.82602 -0.0402478 0
M  V30 1120 H 105.553 -1.55951 0.669139 0
M  V30 1121 H 104.325 -3.71397 1.23206 0
M  V30 1122 H 103.948 -3.9485 -0.466842 0
M  V30 1123 N 104.945 -0.338344 -1.53925 0
M  V30 1124 C 106.192 0.259758 -2.00827 0
M  V30 1125 C 106.52 1.50973 -1.22628 0
M  V30 1126 O 105.775 1.93379 -0.300509 0
M  V30 1127 C 106.074 0.62448 -3.51902 0
M  V30 1128 C 105.74 -0.528006 -4.47798 0
M  V30 1129 C 104.402 -0.844298 -4.73735 0
M  V30 1130 C 106.754 -1.30143 -5.0469 0
M  V30 1131 C 104.082 -1.93648 -5.53821 0
M  V30 1132 C 106.434 -2.38382 -5.85967 0
M  V30 1133 C 105.098 -2.70576 -6.10201 0
M  V30 1134 H 104.368 0.0950523 -0.734878 0
M  V30 1135 H 107.015 -0.465182 -1.85764 0
M  V30 1136 H 105.32 1.43006 -3.64769 0
M  V30 1137 H 107.017 1.09905 -3.85645 0
M  V30 1138 H 103.607 -0.271421 -4.2774 0
M  V30 1139 H 107.791 -1.07033 -4.84621 0
M  V30 1140 H 103.047 -2.19021 -5.70824 0
M  V30 1141 H 107.221 -2.98746 -6.29066 0
M  V30 1142 H 104.848 -3.55333 -6.72044 0
M  V30 1143 N 106.423 1.57458 -0.0668435 0
M  V30 1144 C 107.333 2.15937 0.916975 0
M  V30 1145 C 108.349 1.12123 1.33058 0
M  V30 1146 O 109.525 1.44366 1.40429 0
M  V30 1147 C 106.59 2.70547 2.16807 0
M  V30 1148 C 105.651 3.89215 1.81135 0
M  V30 1149 C 104.884 4.41211 3.0028 0
M  V30 1150 O 105.107 3.92225 4.14144 0
M  V30 1151 O 104.041 5.32605 2.80384 0
M  V30 1152 H 107.867 3.00354 0.449561 0
M  V30 1153 H 105.452 1.48584 0.155949 0
M  V30 1154 H 107.334 3.0557 2.90181 0
M  V30 1155 H 106.009 1.89192 2.62656 0
M  V30 1156 H 104.916 3.59054 1.05028 0
M  V30 1157 H 106.249 4.71848 1.40073 0
M  V30 1158 N 107.901 -0.206675 1.56239 0
M  V30 1159 C 109.317 -0.557025 1.49564 0
M  V30 1160 C 109.517 -1.86424 0.764735 0
M  V30 1161 O 108.573 -2.50584 0.310491 0
M  V30 1162 C 109.886 -0.622478 2.94186 0
M  V30 1163 C 111.434 -0.712099 3.04792 0
M  V30 1164 C 111.909 -0.808767 4.50803 0
M  V30 1165 N 113.4 -0.8726 4.54907 0
M  V30 1166 C 114.135 -0.967365 5.65181 0
M  V30 1167 N 113.631 -1.02515 6.85173 0
M  V30 1168 N 115.424 -1.00366 5.53067 0
M  V30 1169 H 107.575 0.650943 2.02179 0
M  V30 1170 H 109.838 0.230387 0.919579 0
M  V30 1171 H 109.544 0.268727 3.50672 0
M  V30 1172 H 109.418 -1.4811 3.46905 0
M  V30 1173 H 111.805 -1.59374 2.48363 0
M  V30 1174 H 111.886 0.172489 2.55218 0
M  V30 1175 H 111.53 0.0684754 5.07854 0
M  V30 1176 H 111.46 -1.70899 4.98098 0
M  V30 1177 H 113.951 -0.837657 3.68499 0
M  V30 1178 H 114.264 -1.09765 7.64965 0
M  V30 1179 H 112.609 -0.994026 6.87855 0
M  V30 1180 H 115.8 -0.95527 4.58249 0
M  V30 1181 H 115.973 -1.07405 6.39037 0
M  V30 1182 N 109.379 -1.50304 -0.473955 0
M  V30 1183 C 110.628 -1.60392 -1.22301 0
M  V30 1184 C 110.941 -0.308411 -1.93153 0
M  V30 1185 O 112.147 -0.288156 -2.69966 0
M  V30 1186 C 110.603 -2.83109 -2.2221 0
M  V30 1187 C 110.211 -4.19524 -1.57173 0
M  V30 1188 C 111.955 -3.0254 -2.97775 0
M  V30 1189 C 109.862 -5.33431 -2.55353 0
M  V30 1190 H 108.792 -0.597286 -0.460179 0
M  V30 1191 H 111.443 -1.76731 -0.493803 0
M  V30 1192 H 109.825 -2.60322 -2.9841 0
M  V30 1193 H 110.999 -4.52554 -0.867824 0
M  V30 1194 H 109.314 -4.05674 -0.939002 0
M  V30 1195 H 111.911 -3.84811 -3.71248 0
M  V30 1196 H 112.254 -2.14154 -3.56992 0
M  V30 1197 H 112.787 -3.25494 -2.28688 0
M  V30 1198 H 109.526 -6.23962 -2.00878 0
M  V30 1199 H 109.046 -5.04823 -3.23904 0
M  V30 1200 H 110.725 -5.63887 -3.17239 0
M  V30 1201 N 110.857 0.726932 -1.39834 0
M  V30 1202 C 112.082 1.52121 -1.40976 0
M  V30 1203 C 112.507 1.88098 -0.00826029 0
M  V30 1204 O 111.865 1.52479 0.980807 0
M  V30 1205 C 111.913 2.78021 -2.29644 0
M  V30 1206 O 111.017 3.74272 -1.73188 0
M  V30 1207 H 110.358 0.45908 -0.479731 0
M  V30 1208 H 112.888 0.896207 -1.83927 0
M  V30 1209 H 112.898 3.26671 -2.44438 0
M  V30 1210 H 111.573 2.51169 -3.31492 0
M  V30 1211 H 110.15 3.33073 -1.6768 0
M  V30 1212 N 112.336 1.25143 0.95797 0
M  V30 1213 C 113.246 1.06968 2.08794 0
M  V30 1214 C 114.262 0.00773911 1.73998 0
M  V30 1215 O 115.438 0.207972 2.00323 0
M  V30 1216 C 112.503 0.68691 3.39827 0
M  V30 1217 C 111.564 1.82641 3.88511 0
M  V30 1218 C 110.797 1.46181 5.1329 0
M  V30 1219 O 111.02 0.355971 5.69288 0
M  V30 1220 O 109.954 2.29085 5.566 0
M  V30 1221 H 113.78 2.01723 2.27027 0
M  V30 1222 H 111.365 1.04051 1.07209 0
M  V30 1223 H 113.247 0.485417 4.18595 0
M  V30 1224 H 111.922 -0.231417 3.22872 0
M  V30 1225 H 110.829 2.08274 3.10762 0
M  V30 1226 H 112.162 2.72386 4.09959 0
M  V30 1227 N 113.814 -1.1601 1.06675 0
M  V30 1228 C 114.744 -2.22688 0.702307 0
M  V30 1229 C 115.725 -1.67306 -0.307032 0
M  V30 1230 O 116.91 -1.93352 -0.181305 0
M  V30 1231 C 114.04 -3.47178 0.092038 0
M  V30 1232 C 112.994 -4.15477 1.02777 0
M  V30 1233 C 112.32 -5.33963 0.28061 0
M  V30 1234 C 113.62 -4.66019 2.35846 0
M  V30 1235 H 115.314 -2.53429 1.59419 0
M  V30 1236 H 112.86 -1.21813 0.767961 0
M  V30 1237 H 114.813 -4.21037 -0.174814 0
M  V30 1238 H 113.537 -3.15749 -0.834877 0
M  V30 1239 H 112.196 -3.43549 1.27944 0
M  V30 1240 H 111.844 -4.98788 -0.649545 0
M  V30 1241 H 111.544 -5.806 0.904258 0
M  V30 1242 H 113.068 -6.10596 0.021396 0
M  V30 1243 H 114.482 -5.3144 2.15045 0
M  V30 1244 H 112.879 -5.23293 2.93743 0
M  V30 1245 H 113.949 -3.82023 2.98641 0
M  V30 1246 N 115.292 -0.849877 -1.32721 0
M  V30 1247 C 116.54 -0.450032 -1.97026 0
M  V30 1248 C 116.861 0.996604 -1.67609 0
M  V30 1249 O 116.131 1.6958 -0.980786 0
M  V30 1250 H 114.711 -0.163426 -0.728904 0
M  V30 1251 H 117.373 -1.08526 -1.6189 0
M  V30 1252 H 116.469 -0.591146 -3.0645 0
M  V30 1253 N 116.77 1.45427 -0.607355 0
M  V30 1254 C 117.733 2.28974 0.101693 0
M  V30 1255 C 118.733 1.39754 0.795329 0
M  V30 1256 O 119.923 1.61878 0.643527 0
M  V30 1257 C 117.055 3.20768 1.15414 0
M  V30 1258 H 118.248 2.93147 -0.632844 0
M  V30 1259 H 115.801 1.51945 -0.366391 0
M  V30 1260 H 116.536 2.61395 1.91945 0
M  V30 1261 H 116.321 3.86489 0.66098 0
M  V30 1262 H 117.811 3.83589 1.65073 0
M  V30 1263 N 118.248 0.346503 1.53744 0
M  V30 1264 C 119.496 -0.248612 2.00565 0
M  V30 1265 C 119.817 -1.5083 1.23593 0
M  V30 1266 O 119.087 -1.92858 0.343912 0
M  V30 1267 H 117.667 -0.0948564 0.740953 0
M  V30 1268 H 120.329 0.468341 1.89189 0
M  V30 1269 H 119.425 -0.488994 3.08245 0
M  V30 1270 N 119.726 -1.57421 0.075193 0
M  V30 1271 C 120.674 -2.14124 -0.908508 0
M  V30 1272 C 121.668 -1.07898 -1.30592 0
M  V30 1273 O 122.874 -1.26273 -1.28277 0
M  V30 1274 H 119.249 -0.684707 -0.310935 0
M  V30 1275 H 121.22 -2.95634 -0.405374 0
M  V30 1276 C 119.969 -2.72044 -2.16535 0
M  V30 1277 H 119.292 -3.53456 -1.86839 0
M  V30 1278 H 120.732 -3.15311 -2.83469 0
M  V30 1279 C 119.191 -1.66968 -2.92615 0
M  V30 1280 O 119.721 -1.0967 -3.86439 0
M  V30 1281 N 117.927 -1.37923 -2.55784 0
M  V30 1282 H 117.474 -1.84706 -1.79559 0
M  V30 1283 H 117.432 -0.67852 -3.06991 0
M  V30 1284 N 121.204 0.198386 -1.56346 0
M  V30 1285 C 122.452 0.91747 -1.80075 0
M  V30 1286 C 122.773 1.83929 -0.647692 0
M  V30 1287 O 122.043 1.93029 0.334166 0
M  V30 1288 H 120.623 0.341774 -0.664228 0
M  V30 1289 H 123.285 0.204684 -1.93822 0
M  V30 1290 H 122.381 1.51055 -2.7311 0
M  V30 1291 N 122.682 1.50554 0.465978 0
M  V30 1292 C 123.93 1.61479 1.21528 0
M  V30 1293 C 124.251 0.319596 1.92363 0
M  V30 1294 O 123.521 -0.663194 1.84333 0
M  V30 1295 H 122.101 0.595055 0.451573 0
M  V30 1296 H 124.763 1.87355 0.53704 0
M  V30 1297 H 123.859 2.42846 1.96042 0
M  V30 1298 N 124.16 -0.719506 1.40217 0
M  V30 1299 C 125.406 -1.48152 1.38488 0
M  V30 1300 C 125.739 -1.94195 -0.0141867 0
M  V30 1301 O 125.014 -1.67884 -0.982096 0
M  V30 1302 C 125.297 -2.71035 2.37091 0
M  V30 1303 C 125.15 -2.30912 3.86005 0
M  V30 1304 C 126.469 -3.73182 2.33288 0
M  V30 1305 H 123.588 -0.537395 0.504357 0
M  V30 1306 H 126.23 -0.821472 1.71324 0
M  V30 1307 H 124.38 -3.27352 2.0922 0
M  V30 1308 H 126.052 -1.80107 4.24687 0
M  V30 1309 H 124.295 -1.62958 4.02029 0
M  V30 1310 H 124.966 -3.18978 4.50508 0
M  V30 1311 H 127.442 -3.26485 2.57966 0
M  V30 1312 H 126.318 -4.56806 3.04334 0
M  V30 1313 H 126.579 -4.21202 1.34317 0
M  V30 1314 N 125.638 -1.25649 -0.95132 0
M  V30 1315 C 126.884 -1.10757 -1.69884 0
M  V30 1316 C 127.217 0.350061 -1.91019 0
M  V30 1317 O 126.492 1.25783 -1.48354 0
M  V30 1318 C 126.775 -1.86606 -3.07978 0
M  V30 1319 C 126.628 -3.40217 -2.94232 0
M  V30 1320 C 127.947 -1.65182 -4.07925 0
M  V30 1321 H 125.066 -0.40374 -0.616574 0
M  V30 1322 H 127.708 -1.54521 -1.10558 0
M  V30 1323 H 125.858 -1.49409 -3.58621 0
M  V30 1324 H 127.53 -3.87108 -2.50889 0
M  V30 1325 H 125.773 -3.67759 -2.30078 0
M  V30 1326 H 126.444 -3.88505 -3.92133 0
M  V30 1327 H 128.92 -1.9757 -3.66204 0
M  V30 1328 H 127.796 -2.20683 -5.02583 0
M  V30 1329 H 128.057 -0.593933 -4.38092 0
M  V30 1330 N 127.117 1.15442 -1.07289 0
M  V30 1331 C 128.345 1.90096 -0.81676 0
M  V30 1332 C 128.76 1.7798 0.629966 0
M  V30 1333 O 128.117 1.1313 1.43206 0
M  V30 1334 C 128.168 3.40466 -1.21512 0
M  V30 1335 O 127.889 3.52232 -2.60508 0
M  V30 1336 C 129.39 4.32145 -0.988198 0
M  V30 1337 H 126.61 0.602495 -0.295366 0
M  V30 1338 H 129.154 1.4627 -1.42918 0
M  V30 1339 H 127.309 3.81958 -0.647039 0
M  V30 1340 H 127.723 4.45549 -2.76742 0
M  V30 1341 H 129.197 5.36072 -1.31645 0
M  V30 1342 H 129.674 4.39135 0.0755063 0
M  V30 1343 H 130.28 3.96395 -1.54115 0
M  V30 1344 N 128.595 0.856903 1.32268 0
M  V30 1345 C 129.542 0.301172 2.28827 0
M  V30 1346 C 130.512 -0.593104 1.5515 0
M  V30 1347 O 131.697 -0.527537 1.83362 0
M  V30 1348 C 128.837 -0.502523 3.41422 0
M  V30 1349 C 127.95 0.417797 4.29975 0
M  V30 1350 C 127.085 -0.398749 5.29701 0
M  V30 1351 C 126.124 0.518827 6.09897 0
M  V30 1352 N 125.261 -0.260674 7.01616 0
M  V30 1353 H 130.101 1.12983 2.75751 0
M  V30 1354 H 127.638 0.568582 1.35667 0
M  V30 1355 H 129.596 -0.984141 4.05426 0
M  V30 1356 H 128.226 -1.29599 2.95642 0
M  V30 1357 H 127.278 1.01781 3.66531 0
M  V30 1358 H 128.59 1.12191 4.86019 0
M  V30 1359 H 127.744 -0.943435 5.9932 0
M  V30 1360 H 126.483 -1.13622 4.7428 0
M  V30 1361 H 125.488 1.07538 5.39181 0
M  V30 1362 H 126.713 1.25495 6.67404 0
M  V30 1363 H 124.659 -0.981198 6.4862 0
M  V30 1364 H 124.576 0.384364 7.55022 0
M  V30 1365 H 125.844 -0.787014 7.75517 0
M  V30 1366 N 130.073 -1.45103 0.615059 0
M  V30 1367 C 131.319 -2.02483 0.113347 0
M  V30 1368 C 131.652 -1.48146 -1.25564 0
M  V30 1369 O 130.927 -0.659104 -1.82992 0
M  V30 1370 C 131.21 -3.60005 0.0825278 0
M  V30 1371 C 131.063 -4.2466 1.48271 0
M  V30 1372 C 132.382 -4.35972 -0.601401 0
M  V30 1373 H 129.501 -0.735764 0.0426632 0
M  V30 1374 H 132.143 -1.72868 0.788461 0
M  V30 1375 H 130.293 -3.85367 -0.492378 0
M  V30 1376 H 131.965 -4.10458 2.10527 0
M  V30 1377 H 130.208 -3.82772 2.04127 0
M  V30 1378 H 130.879 -5.336 1.41332 0
M  V30 1379 H 133.355 -4.15947 -0.112666 0
M  V30 1380 H 132.231 -5.45697 -0.592097 0
M  V30 1381 H 132.492 -4.09391 -1.66887 0
M  V30 1382 N 131.551 -0.354651 -1.53558 0
M  V30 1383 C 132.483 0.5315 -2.22952 0
M  V30 1384 C 133.496 1.05503 -1.23988 0
M  V30 1385 O 134.685 0.963279 -1.50277 0
M  V30 1386 C 131.785 1.74538 -2.90499 0
M  V30 1387 C 130.958 1.35524 -4.15875 0
M  V30 1388 C 130.017 2.42999 -4.66731 0
M  V30 1389 O 129.043 2.05844 -5.30676 0
M  V30 1390 N 130.245 3.74423 -4.43608 0
M  V30 1391 H 133.01 -0.0628615 -2.99634 0
M  V30 1392 H 130.571 -0.179302 -1.60904 0
M  V30 1393 H 132.563 2.45892 -3.21433 0
M  V30 1394 H 131.133 2.24686 -2.17336 0
M  V30 1395 H 130.353 0.471998 -3.91364 0
M  V30 1396 H 131.641 1.07071 -4.97406 0
M  V30 1397 H 131.039 4.07391 -3.92491 0
M  V30 1398 H 129.596 4.41913 -4.7912 0
M  V30 1399 N 133.029 1.57378 -0.0835403 0
M  V30 1400 C 133.979 2.09916 0.889905 0
M  V30 1401 C 134.963 1.01151 1.25129 0
M  V30 1402 O 136.155 1.27443 1.2283 0
M  V30 1403 C 133.284 2.67379 2.15322 0
M  V30 1404 C 132.37 3.83167 1.81779 0
M  V30 1405 N 132.761 4.91665 1.18739 0
M  V30 1406 C 131.059 3.92685 2.11459 0
M  V30 1407 C 131.76 5.72409 1.0355 0
M  V30 1408 N 130.736 5.21062 1.54906 0
M  V30 1409 H 134.538 2.91188 0.398378 0
M  V30 1410 H 132.052 1.61956 0.120013 0
M  V30 1411 H 134.049 3.0334 2.8599 0
M  V30 1412 H 132.709 1.87558 2.65051 0
M  V30 1413 H 133.72 5.10784 0.855604 0
M  V30 1414 H 130.397 3.23856 2.63483 0
M  V30 1415 H 131.787 6.69699 0.543425 0
M  V30 1416 N 134.507 -0.190092 1.56449 0
M  V30 1417 C 135.923 -0.54113 1.50146 0
M  V30 1418 C 136.123 -1.85603 0.784465 0
M  V30 1419 O 135.179 -2.5024 0.337051 0
M  V30 1420 C 136.492 -0.591241 2.9483 0
M  V30 1421 C 138.04 -0.679732 3.0553 0
M  V30 1422 C 138.515 -0.760908 4.51635 0
M  V30 1423 N 140.006 -0.824302 4.55806 0
M  V30 1424 C 140.741 -0.907365 5.66175 0
M  V30 1425 N 140.237 -0.952422 6.86222 0
M  V30 1426 N 142.03 -0.94494 5.541 0
M  V30 1427 H 134.181 0.67235 2.01478 0
M  V30 1428 H 136.444 0.240127 0.917084 0
M  V30 1429 H 136.15 0.305905 3.50367 0
M  V30 1430 H 136.024 -1.44422 3.48457 0
M  V30 1431 H 138.411 -1.56731 2.50039 0
M  V30 1432 H 138.492 0.199549 2.5502 0
M  V30 1433 H 138.136 0.122336 5.07753 0
M  V30 1434 H 138.066 -1.65606 4.99882 0
M  V30 1435 H 140.557 -0.798526 3.69367 0
M  V30 1436 H 140.87 -1.01645 7.66086 0
M  V30 1437 H 139.215 -0.921014 6.8887 0
M  V30 1438 H 142.406 -0.906612 4.59236 0
M  V30 1439 H 142.579 -1.00622 6.4014 0
M  V30 1440 N 135.985 -1.50799 -0.457987 0
M  V30 1441 C 137.396 -1.55152 -1.0385 0
M  V30 1442 C 137.747 -0.362719 -1.92818 0
M  V30 1443 O 136.872 0.522915 -2.09987 0
M  V30 1444 C 137.467 -2.81173 -1.89017 0
M  V30 1445 C 136.026 -2.88164 -2.42154 0
M  V30 1446 C 135.173 -2.49591 -1.20829 0
M  V30 1447 H 138.124 -1.56874 -0.240068 0
M  V30 1448 H 138.145 -2.63769 -2.74238 0
M  V30 1449 H 137.657 -3.67677 -1.24238 0
M  V30 1450 H 135.758 -2.06042 -3.10447 0
M  V30 1451 H 135.871 -3.91356 -2.76364 0
M  V30 1452 H 134.235 -2.02322 -1.54719 0
M  V30 1453 H 135.018 -3.38418 -0.576927 0
M  V30 1454 N 137.463 0.71206 -1.40597 0
M  V30 1455 C 138.688 1.50617 -1.42581 0
M  V30 1456 C 139.113 1.88079 -0.0282102 0
M  V30 1457 O 138.471 1.53511 0.964579 0
M  V30 1458 C 138.519 2.7557 -2.3258 0
M  V30 1459 O 137.623 3.72414 -1.77148 0
M  V30 1460 H 136.964 0.453966 -0.484573 0
M  V30 1461 H 139.494 0.876649 -1.84868 0
M  V30 1462 H 139.504 3.2406 -2.47889 0
M  V30 1463 H 138.179 2.47639 -3.34138 0
M  V30 1464 H 136.756 3.31276 -1.71204 0
M  V30 1465 N 138.941 1.26152 0.944643 0
M  V30 1466 C 140.189 1.11271 1.6871 0
M  V30 1467 C 140.51 -0.345166 1.91921 0
M  V30 1468 O 139.78 -1.24387 1.51343 0
M  V30 1469 H 138.36 0.408783 0.625224 0
M  V30 1470 H 141.022 1.58427 1.1352 0
M  V30 1471 H 140.118 1.62879 2.66227 0
M  V30 1472 N 140.419 -1.14872 1.07899 0
M  V30 1473 C 141.349 -2.2193 0.725887 0
M  V30 1474 C 142.33 -1.67622 -0.28927 0
M  V30 1475 O 143.515 -1.93533 -0.160787 0
M  V30 1476 C 140.645 -3.47061 0.128856 0
M  V30 1477 C 139.599 -4.14363 1.07178 0
M  V30 1478 C 138.925 -5.33636 0.337229 0
M  V30 1479 C 140.225 -4.63492 2.40775 0
M  V30 1480 H 141.919 -2.51724 1.62097 0
M  V30 1481 H 139.465 -1.20991 0.780838 0
M  V30 1482 H 141.418 -4.21199 -0.130147 0
M  V30 1483 H 140.142 -3.16617 -0.80134 0
M  V30 1484 H 138.801 -3.42173 1.3158 0
M  V30 1485 H 138.449 -4.99449 -0.596606 0
M  V30 1486 H 138.149 -5.79609 0.965788 0
M  V30 1487 H 139.673 -6.10539 0.0861567 0
M  V30 1488 H 141.087 -5.2913 2.20669 0
M  V30 1489 H 139.484 -5.20148 2.99276 0
M  V30 1490 H 140.554 -3.78834 3.02676 0
M  V30 1491 N 141.898 -0.863906 -1.31812 0
M  V30 1492 C 143.147 -0.46801 -1.96195 0
M  V30 1493 C 143.46 0.983474 -1.69077 0
M  V30 1494 O 144.666 1.48523 -2.27273 0
M  V30 1495 C 143.122 -0.785995 -3.51212 0
M  V30 1496 C 142.73 -2.25383 -3.87178 0
M  V30 1497 C 144.474 -0.458274 -4.22019 0
M  V30 1498 C 142.381 -2.51455 -5.3528 0
M  V30 1499 H 141.311 -0.171283 -0.734287 0
M  V30 1500 H 143.962 -1.05597 -1.50072 0
M  V30 1501 H 142.344 -0.127359 -3.95795 0
M  V30 1502 H 143.518 -2.95502 -3.53575 0
M  V30 1503 H 141.833 -2.54698 -3.2942 0
M  V30 1504 H 144.43 -0.630369 -5.30971 0
M  V30 1505 H 144.773 0.600834 -4.11941 0
M  V30 1506 H 145.306 -1.07319 -3.8305 0
M  V30 1507 H 142.045 -3.56025 -5.50387 0
M  V30 1508 H 141.565 -1.85923 -5.70257 0
M  V30 1509 H 143.244 -2.35874 -6.02472 0
M  V30 1510 N 143.376 1.44774 -0.622745 0
M  V30 1511 C 144.309 2.27792 0.136329 0
M  V30 1512 C 145.287 1.38041 0.859264 0
M  V30 1513 O 146.471 1.67478 0.86506 0
M  V30 1514 C 143.598 3.16776 1.19878 0
M  V30 1515 C 142.644 4.22575 0.57731 0
M  V30 1516 S 143.477 5.31825 -0.626294 0
M  V30 1517 C 144.633 6.24377 0.436378 0
M  V30 1518 H 144.866 2.91824 -0.567967 0
M  V30 1519 H 142.399 1.48838 -0.410677 0
M  V30 1520 H 144.357 3.68596 1.80686 0
M  V30 1521 H 143.018 2.5198 1.87523 0
M  V30 1522 H 142.211 4.84818 1.37721 0
M  V30 1523 H 141.813 3.73974 0.0440439 0
M  V30 1524 H 144.105 6.64689 1.31128 0
M  V30 1525 H 145.048 7.07941 -0.150271 0
M  V30 1526 H 145.456 5.59381 0.758513 0
M  V30 1527 N 144.854 0.36279 1.53368 0
M  V30 1528 C 145.817 -0.472679 2.24273 0
M  V30 1529 C 146.817 -1.012 1.24961 0
M  V30 1530 O 148.007 -0.898194 1.49259 0
M  V30 1531 C 145.139 -1.66039 2.97731 0
M  V30 1532 H 146.332 0.14773 2.99536 0
M  V30 1533 H 143.885 0.114434 1.55881 0
M  V30 1534 H 144.62 -2.31896 2.26704 0
M  V30 1535 H 144.405 -1.28066 3.70596 0
M  V30 1536 H 145.895 -2.25252 3.51641 0
M  V30 1537 N 146.332 -1.57332 0.0918853 0
M  V30 1538 C 147.748 -1.57389 -0.264766 0
M  V30 1539 C 147.948 -1.10281 -1.68643 0
M  V30 1540 O 147.004 -0.777801 -2.40222 0
M  V30 1541 C 148.317 -3.00648 -0.0561195 0
M  V30 1542 C 149.865 -3.12754 -0.124116 0
M  V30 1543 C 150.34 -4.57965 0.0564972 0
M  V30 1544 N 151.831 -4.632 0.00155611 0
M  V30 1545 C 152.566 -5.73281 0.116598 0
M  V30 1546 N 152.062 -6.92208 0.286294 0
M  V30 1547 N 153.855 -5.6207 0.0580973 0
M  V30 1548 H 146.006 -1.86262 1.02079 0
M  V30 1549 H 148.269 -0.859579 0.399786 0
M  V30 1550 H 147.975 -3.393 0.925669 0
M  V30 1551 H 147.849 -3.68623 -0.799823 0
M  V30 1552 H 150.236 -2.73976 -1.09641 0
M  V30 1553 H 150.317 -2.47377 0.651024 0
M  V30 1554 H 149.961 -4.97436 1.02564 0
M  V30 1555 H 149.891 -5.21399 -0.738297 0
M  V30 1556 H 152.382 -3.77686 -0.127192 0
M  V30 1557 H 152.695 -7.71934 0.365676 0
M  V30 1558 H 151.04 -6.94254 0.32192 0
M  V30 1559 H 154.231 -4.68043 -0.0733204 0
M  V30 1560 H 154.404 -6.47824 0.151203 0
M  V30 1561 N 147.81 0.181792 -1.56548 0
M  V30 1562 C 148.757 1.22521 -1.95595 0
M  V30 1563 C 149.727 1.4454 -0.818373 0
M  V30 1564 O 150.912 1.57454 -1.07763 0
M  V30 1565 C 148.052 2.56193 -2.31212 0
M  V30 1566 C 147.165 2.41641 -3.58097 0
M  V30 1567 C 146.3 3.68108 -3.82975 0
M  V30 1568 C 145.339 3.48445 -5.03242 0
M  V30 1569 N 144.476 4.66956 -5.24306 0
M  V30 1570 H 149.316 0.885226 -2.84548 0
M  V30 1571 H 146.853 0.425718 -1.40805 0
M  V30 1572 H 148.811 3.34088 -2.49882 0
M  V30 1573 H 147.441 2.88208 -1.45382 0
M  V30 1574 H 146.493 1.54976 -3.474 0
M  V30 1575 H 147.805 2.23052 -4.46149 0
M  V30 1576 H 146.959 4.54441 -4.01956 0
M  V30 1577 H 145.698 3.89666 -2.93278 0
M  V30 1578 H 144.703 2.60499 -4.8417 0
M  V30 1579 H 145.928 3.2832 -5.9446 0
M  V30 1580 H 143.874 4.88752 -4.37559 0
M  V30 1581 H 143.791 4.51242 -6.06561 0
M  V30 1582 H 145.059 5.54602 -5.47756 0
M  V30 1583 N 149.288 1.51039 0.449983 0
M  V30 1584 C 150.218 1.74379 1.55288 0
M  V30 1585 C 151.199 0.593236 1.5942 0
M  V30 1586 O 152.384 0.834625 1.7535 0
M  V30 1587 C 149.514 1.85728 2.93466 0
M  V30 1588 C 148.468 3.01078 3.04197 0
M  V30 1589 C 147.794 2.97595 4.44231 0
M  V30 1590 C 149.094 4.41254 2.7945 0
M  V30 1591 H 150.788 2.66725 1.36008 0
M  V30 1592 H 148.334 1.2835 0.652864 0
M  V30 1593 H 150.287 2.0064 3.70569 0
M  V30 1594 H 149.011 0.900207 3.13949 0
M  V30 1595 H 147.67 2.85851 2.29531 0
M  V30 1596 H 147.318 1.99691 4.61663 0
M  V30 1597 H 147.018 3.75046 4.52343 0
M  V30 1598 H 148.542 3.14583 5.23326 0
M  V30 1599 H 149.956 4.56897 3.46292 0
M  V30 1600 H 148.353 5.20315 2.98985 0
M  V30 1601 H 149.423 4.52164 1.75144 0
M  V30 1602 N 150.766 -0.704594 1.40972 0
M  V30 1603 C 152.015 -1.46018 1.39146 0
M  V30 1604 C 152.328 -1.956 0.000589254 0
M  V30 1605 O 153.534 -2.71137 -0.1403 0
M  V30 1606 C 151.99 -2.63996 2.4461 0
M  V30 1607 C 151.598 -2.21238 3.89561 0
M  V30 1608 C 153.342 -3.41677 2.51907 0
M  V30 1609 C 151.249 -3.3612 4.86598 0
M  V30 1610 H 150.179 -0.548444 0.517422 0
M  V30 1611 H 152.83 -0.765784 1.66757 0
M  V30 1612 H 151.212 -3.3566 2.10115 0
M  V30 1613 H 152.386 -1.56923 4.33257 0
M  V30 1614 H 150.701 -1.56574 3.85841 0
M  V30 1615 H 153.298 -4.27182 3.2159 0
M  V30 1616 H 153.641 -3.86247 1.55303 0
M  V30 1617 H 154.174 -2.77064 2.85448 0
M  V30 1618 H 150.913 -2.96572 5.84573 0
M  V30 1619 H 150.433 -3.99315 4.47557 0
M  V30 1620 H 152.112 -4.02029 5.06934 0
M  V30 1621 N 152.244 -1.26651 -0.937939 0
M  V30 1622 C 153.194 -1.05156 -2.02302 0
M  V30 1623 C 154.178 0.0171233 -1.60891 0
M  V30 1624 O 155.37 -0.200213 -1.75864 0
M  V30 1625 C 152.499 -0.689962 -3.36295 0
M  V30 1626 C 151.585 -1.79626 -3.84181 0
M  V30 1627 N 151.976 -3.03422 -4.04684 0
M  V30 1628 C 150.274 -1.6806 -4.13124 0
M  V30 1629 C 150.975 -3.75345 -4.444 0
M  V30 1630 N 149.951 -3.03051 -4.51288 0
M  V30 1631 H 153.753 -1.99117 -2.1617 0
M  V30 1632 H 151.267 -1.17216 -1.12402 0
M  V30 1633 H 153.264 -0.517112 -4.13681 0
M  V30 1634 H 151.924 0.242139 -3.23796 0
M  V30 1635 H 152.935 -3.39293 -3.91281 0
M  V30 1636 H 149.612 -0.818629 -4.09396 0
M  V30 1637 H 151.002 -4.81691 -4.68427 0
M  V30 1638 N 153.722 1.14298 -1.08507 0
M  V30 1639 C 154.652 2.21542 -0.737646 0
M  V30 1640 C 155.633 1.67773 0.280377 0
M  V30 1641 O 156.818 1.93616 0.150521 0
M  V30 1642 C 153.948 3.46988 -0.147259 0
M  V30 1643 C 152.902 4.13789 -1.09374 0
M  V30 1644 C 152.228 5.33449 -0.365524 0
M  V30 1645 C 153.528 4.62208 -2.4323 0
M  V30 1646 H 155.222 2.5086 -1.6343 0
M  V30 1647 H 152.768 1.20576 -0.787243 0
M  V30 1648 H 154.721 4.21262 0.107808 0
M  V30 1649 H 153.445 3.17037 0.784538 0
M  V30 1650 H 152.104 3.4147 -1.33393 0
M  V30 1651 H 151.752 4.99759 0.57011 0
M  V30 1652 H 151.452 5.79088 -0.996512 0
M  V30 1653 H 152.976 6.10485 -0.118534 0
M  V30 1654 H 154.39 5.27952 -2.23472 0
M  V30 1655 H 152.787 5.18553 -3.02031 0
M  V30 1656 H 153.857 3.77224 -3.04681 0
M  V30 1657 N 155.201 0.870884 1.31352 0
M  V30 1658 C 156.111 0.330783 2.32256 0
M  V30 1659 C 157.127 -0.559767 1.6475 0
M  V30 1660 O 158.303 -0.456263 1.96164 0
M  V30 1661 C 155.368 -0.458137 3.4366 0
M  V30 1662 C 154.429 0.460482 4.26823 0
M  V30 1663 C 153.662 -0.290881 5.32907 0
M  V30 1664 O 153.885 -1.51885 5.49806 0
M  V30 1665 O 152.819 0.351732 6.00871 0
M  V30 1666 H 156.645 1.16718 2.80376 0
M  V30 1667 H 154.23 0.634285 1.35267 0
M  V30 1668 H 156.112 -0.905343 4.1156 0
M  V30 1669 H 154.787 -1.27106 2.97701 0
M  V30 1670 H 153.694 0.956207 3.61673 0
M  V30 1671 H 155.027 1.23903 4.7635 0
M  V30 1672 N 156.679 -1.44442 0.630414 0
M  V30 1673 C 157.928 -2.01267 0.132073 0
M  V30 1674 C 158.241 -1.50172 -1.25331 0
M  V30 1675 O 159.447 -1.9912 -1.84562 0
M  V30 1676 C 157.903 -3.59422 0.185362 0
M  V30 1677 C 157.511 -4.19514 1.57201 0
M  V30 1678 C 159.255 -4.23724 -0.256553 0
M  V30 1679 C 157.162 -5.69891 1.58045 0
M  V30 1680 H 156.092 -0.752619 0.0456092 0
M  V30 1681 H 158.743 -1.65666 0.789106 0
M  V30 1682 H 157.125 -3.92318 -0.538759 0
M  V30 1683 H 158.299 -3.98156 2.31966 0
M  V30 1684 H 156.614 -3.67496 1.95795 0
M  V30 1685 H 159.211 -5.34019 -0.269767 0
M  V30 1686 H 159.554 -3.96013 -1.28372 0
M  V30 1687 H 160.087 -3.95629 0.41505 0
M  V30 1688 H 156.826 -6.02336 2.58597 0
M  V30 1689 H 156.346 -5.93373 0.875725 0
M  V30 1690 H 158.025 -6.33515 1.31408 0
M  V30 1691 N 158.157 -0.370918 -1.53173 0
M  V30 1692 C 159.104 0.473035 -2.259 0
M  V30 1693 C 160.074 1.07311 -1.26781 0
M  V30 1694 O 161.259 1.1046 -1.55574 0
M  V30 1695 C 158.399 1.60405 -3.05556 0
M  V30 1696 C 157.512 1.02863 -4.19575 0
M  V30 1697 C 156.647 2.12918 -4.86661 0
M  V30 1698 C 155.686 1.52869 -5.92704 0
M  V30 1699 N 154.823 2.56779 -6.53459 0
M  V30 1700 H 159.663 -0.153649 -2.97604 0
M  V30 1701 H 157.2 -0.0875946 -1.46839 0
M  V30 1702 H 159.158 2.27034 -3.50016 0
M  V30 1703 H 157.788 2.20131 -2.36097 0
M  V30 1704 H 156.84 0.252465 -3.79561 0
M  V30 1705 H 158.152 0.549642 -4.95762 0
M  V30 1706 H 157.306 2.87356 -5.34333 0
M  V30 1707 H 156.045 2.6417 -4.09958 0
M  V30 1708 H 155.05 0.769479 -5.44389 0
M  V30 1709 H 156.275 1.02435 -6.7133 0
M  V30 1710 H 154.221 3.07235 -5.79606 0
M  V30 1711 H 154.138 2.13583 -7.25202 0
M  V30 1712 H 155.406 3.30903 -7.05779 0
M  V30 1713 N 159.635 1.57281 -0.100228 0
M  V30 1714 C 161.046 1.81725 0.428107 0
M  V30 1715 C 161.397 1.01619 1.67833 0
M  V30 1716 O 160.522 0.247098 2.14985 0
M  V30 1717 C 161.117 3.29617 0.78347 0
M  V30 1718 C 159.676 3.54808 1.25653 0
M  V30 1719 C 158.823 2.76118 0.255752 0
M  V30 1720 H 161.774 1.55324 -0.325608 0
M  V30 1721 H 161.795 3.4322 1.64256 0
M  V30 1722 H 161.307 3.87893 -0.12665 0
M  V30 1723 H 159.408 3.01868 2.18418 0
M  V30 1724 H 159.521 4.63443 1.21482 0
M  V30 1725 H 157.885 2.43745 0.738956 0
M  V30 1726 H 158.668 3.37145 -0.647136 0
M  V30 1727 N 161.113 -0.173488 1.56642 0
M  V30 1728 C 162.076 -1.19859 1.95362 0
M  V30 1729 C 163.076 -1.37296 0.83704 0
M  V30 1730 O 164.266 -1.34739 1.10413 0
M  V30 1731 C 161.398 -2.56405 2.24654 0
M  V30 1732 H 162.591 -0.867062 2.87092 0
M  V30 1733 H 160.144 -0.415853 1.50666 0
M  V30 1734 H 160.879 -2.94576 1.35631 0
M  V30 1735 H 160.664 -2.45115 3.06041 0
M  V30 1736 H 162.154 -3.30287 2.5554 0
M  V30 1737 N 162.591 -1.51276 -0.441967 0
M  V30 1738 C 163.84 -1.6295 -1.18871 0
M  V30 1739 C 164.153 -0.349312 -1.92456 0
M  V30 1740 O 165.359 -0.345355 -2.69295 0
M  V30 1741 C 163.815 -2.87759 -2.16155 0
M  V30 1742 C 163.423 -4.22764 -1.48239 0
M  V30 1743 C 165.167 -3.08788 -2.91291 0
M  V30 1744 C 163.074 -5.38728 -2.4398 0
M  V30 1745 H 162.004 -0.606913 -0.447406 0
M  V30 1746 H 164.655 -1.77739 -0.456205 0
M  V30 1747 H 163.037 -2.66593 -2.92821 0
M  V30 1748 H 164.211 -4.54293 -0.771635 0
M  V30 1749 H 162.526 -4.07575 -0.852741 0
M  V30 1750 H 165.123 -3.92599 -3.63002 0
M  V30 1751 H 165.466 -2.21679 -3.5237 0
M  V30 1752 H 165.999 -3.30272 -2.21733 0
M  V30 1753 H 162.738 -6.28082 -1.87598 0
M  V30 1754 H 162.258 -5.1158 -3.13123 0
M  V30 1755 H 163.937 -5.70489 -3.05207 0
M  V30 1756 N 164.069 0.697108 -1.41344 0
M  V30 1757 C 165.485 1.00751 -1.2378 0
M  V30 1758 C 165.685 2.01105 -0.126066 0
M  V30 1759 O 164.741 2.47295 0.51004 0
M  V30 1760 C 166.054 1.53359 -2.58653 0
M  V30 1761 C 167.602 1.6525 -2.65822 0
M  V30 1762 C 168.077 2.2126 -4.01009 0
M  V30 1763 N 169.568 2.28622 -4.02847 0
M  V30 1764 C 170.303 2.72984 -5.04249 0
M  V30 1765 N 169.799 3.16962 -6.16041 0
M  V30 1766 N 171.592 2.72534 -4.91611 0
M  V30 1767 H 163.743 0.0322662 -2.12375 0
M  V30 1768 H 166.006 0.0768853 -0.944877 0
M  V30 1769 H 165.712 0.870773 -3.4075 0
M  V30 1770 H 165.586 2.51597 -2.81032 0
M  V30 1771 H 167.973 2.30644 -1.84086 0
M  V30 1772 H 168.054 0.655614 -2.47256 0
M  V30 1773 H 167.698 1.56482 -4.83193 0
M  V30 1774 H 167.628 3.21698 -4.16915 0
M  V30 1775 H 170.119 1.97585 -3.22131 0
M  V30 1776 H 170.432 3.49434 -6.89287 0
M  V30 1777 H 168.777 3.14875 -6.1958 0
M  V30 1778 H 171.968 2.37525 -4.0336 0
M  V30 1779 H 172.141 3.06789 -5.70775 0
M  V30 1780 N 165.547 1.27147 0.931209 0
M  V30 1781 C 166.495 1.09398 2.05268 0
M  V30 1782 C 167.489 0.0180591 1.6939 0
M  V30 1783 O 168.695 0.17551 1.79142 0
M  V30 1784 H 165.07 0.336986 0.672268 0
M  V30 1785 H 167.041 2.04416 2.17386 0
M  V30 1786 C 165.79 0.75424 3.39421 0
M  V30 1787 H 165.113 1.57404 3.67511 0
M  V30 1788 H 166.553 0.669903 4.18674 0
M  V30 1789 C 165.012 -0.541197 3.32525 0
M  V30 1790 O 165.542 -1.57664 3.69466 0
M  V30 1791 N 163.748 -0.535517 2.85623 0
M  V30 1792 H 163.295 0.307511 2.55758 0
M  V30 1793 H 163.253 -1.40236 2.81392 0
M  V30 1794 N 167.025 -1.13721 1.09112 0
M  V30 1795 C 167.957 -2.1871 0.685467 0
M  V30 1796 C 168.97 -1.60527 -0.271068 0
M  V30 1797 O 170.159 -1.78407 -0.0576148 0
M  V30 1798 C 167.259 -3.38898 -0.0111255 0
M  V30 1799 C 166.432 -4.26597 0.966131 0
M  V30 1800 C 165.491 -5.25324 0.303539 0
M  V30 1801 O 164.517 -5.61213 0.950177 0
M  V30 1802 N 165.719 -5.72779 -0.943651 0
M  V30 1803 H 168.484 -2.54126 1.58871 0
M  V30 1804 H 166.045 -1.29012 0.978143 0
M  V30 1805 H 168.037 -4.02014 -0.465517 0
M  V30 1806 H 166.607 -3.01747 -0.816565 0
M  V30 1807 H 165.827 -3.60306 1.59917 0
M  V30 1808 H 167.115 -4.82048 1.6281 0
M  V30 1809 H 166.513 -5.45762 -1.48862 0
M  V30 1810 H 165.07 -6.37847 -1.34142 0
M  V30 1811 N 168.503 -0.877838 -1.30888 0
M  V30 1812 C 169.752 -0.488793 -1.95688 0
M  V30 1813 C 170.065 0.965485 -1.70111 0
M  V30 1814 O 171.271 1.46104 -2.28836 0
M  V30 1815 C 169.727 -0.823201 -3.50359 0
M  V30 1816 C 169.335 -2.29477 -3.84765 0
M  V30 1817 C 171.079 -0.503009 -4.21509 0
M  V30 1818 C 168.986 -2.57118 -5.32583 0
M  V30 1819 H 167.916 -0.179062 -0.732429 0
M  V30 1820 H 170.567 -1.07183 -1.48943 0
M  V30 1821 H 168.949 -0.169331 -3.95638 0
M  V30 1822 H 170.123 -2.99236 -3.5042 0
M  V30 1823 H 168.438 -2.58178 -3.267 0
M  V30 1824 H 171.035 -0.68665 -5.30273 0
M  V30 1825 H 171.378 0.557109 -4.12555 0
M  V30 1826 H 171.911 -1.11376 -3.8189 0
M  V30 1827 H 168.65 -3.61843 -5.4658 0
M  V30 1828 H 168.17 -1.91961 -5.68253 0
M  V30 1829 H 169.849 -2.42251 -5.99936 0
M  V30 1830 N 169.982 1.44106 -0.638065 0
M  V30 1831 C 171.231 2.01194 -0.142744 0
M  V30 1832 C 171.544 1.50835 1.24532 0
M  V30 1833 O 172.75 2.00096 1.83504 0
M  V30 1834 C 171.206 3.59319 -0.20442 0
M  V30 1835 C 170.814 4.18674 -1.59423 0
M  V30 1836 C 172.558 4.23854 0.234079 0
M  V30 1837 C 170.465 5.69045 -1.61065 0
M  V30 1838 H 169.395 0.752367 -0.0495998 0
M  V30 1839 H 172.046 1.65246 -0.797881 0
M  V30 1840 H 170.428 3.92598 0.517946 0
M  V30 1841 H 171.602 3.96921 -2.34074 0
M  V30 1842 H 169.917 3.66453 -1.97741 0
M  V30 1843 H 172.514 5.34155 0.241443 0
M  V30 1844 H 172.857 3.96688 1.2627 0
M  V30 1845 H 173.39 3.95403 -0.436025 0
M  V30 1846 H 170.129 6.00956 -2.61787 0
M  V30 1847 H 169.649 5.929 -0.90718 0
M  V30 1848 H 171.328 6.32809 -1.34766 0
M  V30 1849 N 171.46 0.379036 1.52974 0
M  V30 1850 C 172.876 0.0285448 1.59574 0
M  V30 1851 C 173.076 -1.45542 1.39355 0
M  V30 1852 O 172.132 -2.2187 1.20541 0
M  V30 1853 C 173.445 0.496535 2.96572 0
M  V30 1854 C 174.993 0.451909 3.0972 0
M  V30 1855 C 175.468 0.895924 4.49152 0
M  V30 1856 N 176.959 0.851522 4.55306 0
M  V30 1857 C 177.694 1.16661 5.61407 0
M  V30 1858 N 177.19 1.55166 6.752 0
M  V30 1859 N 178.983 1.08853 5.51459 0
M  V30 1860 H 171.134 1.34525 1.64367 0
M  V30 1861 H 173.397 0.550733 0.771619 0
M  V30 1862 H 173.103 1.53258 3.16552 0
M  V30 1863 H 172.977 -0.109802 3.7704 0
M  V30 1864 H 175.364 -0.575029 2.89443 0
M  V30 1865 H 175.445 1.09392 2.3123 0
M  V30 1866 H 175.089 1.92104 4.70168 0
M  V30 1867 H 175.019 0.23103 5.26093 0
M  V30 1868 H 177.51 0.568038 3.73606 0
M  V30 1869 H 177.823 1.776 7.52116 0
M  V30 1870 H 176.168 1.59044 6.76557 0
M  V30 1871 H 179.359 0.786803 4.6144 0
M  V30 1872 H 179.532 1.33742 6.34048 0
M  V30 1873 N 172.938 -1.57226 0.108567 0
M  V30 1874 C 173.848 -2.18292 -0.859401 0
M  V30 1875 C 174.864 -1.15612 -1.30038 0
M  V30 1876 O 176.04 -1.48039 -1.36552 0
M  V30 1877 C 173.105 -2.762 -2.09558 0
M  V30 1878 C 172.166 -3.93881 -1.70752 0
M  V30 1879 C 171.399 -4.49018 -2.88477 0
M  V30 1880 O 171.622 -4.03068 -4.036 0
M  V30 1881 O 170.556 -5.39852 -2.66164 0
M  V30 1882 H 174.382 -3.01441 -0.369769 0
M  V30 1883 H 171.967 -1.48945 -0.1165 0
M  V30 1884 H 173.849 -3.13156 -2.81978 0
M  V30 1885 H 172.524 -1.96089 -2.57548 0
M  V30 1886 H 171.431 -3.61713 -0.954714 0
M  V30 1887 H 172.764 -4.75396 -1.27513 0
M  V30 1888 N 174.416 0.165178 -1.56732 0
M  V30 1889 C 175.346 1.20651 -1.99914 0
M  V30 1890 C 176.327 1.45827 -0.875705 0
M  V30 1891 O 177.512 1.57057 -1.14223 0
M  V30 1892 C 174.642 2.54401 -2.36427 0
M  V30 1893 C 173.596 2.43782 -3.51787 0
M  V30 1894 C 172.922 3.82078 -3.7406 0
M  V30 1895 C 174.222 1.93732 -4.85041 0
M  V30 1896 H 175.916 0.847534 -2.87154 0
M  V30 1897 H 173.462 0.40625 -1.38151 0
M  V30 1898 H 175.415 3.27458 -2.65234 0
M  V30 1899 H 174.139 2.92098 -1.46103 0
M  V30 1900 H 172.798 1.73178 -3.23117 0
M  V30 1901 H 172.446 4.17179 -2.81017 0
M  V30 1902 H 172.146 3.7584 -4.51684 0
M  V30 1903 H 173.67 4.56712 -4.05274 0
M  V30 1904 H 175.084 2.56569 -5.12684 0
M  V30 1905 H 173.481 1.98428 -5.66345 0
M  V30 1906 H 174.551 0.891962 -4.76626 0
M  V30 1907 N 175.894 1.51508 0.433938 0
M  V30 1908 C 176.826 1.69266 1.54537 0
M  V30 1909 C 177.839 0.573276 1.52373 0
M  V30 1910 O 179.028 0.847698 1.57087 0
M  V30 1911 C 176.128 1.69524 2.93453 0
M  V30 1912 C 175.301 2.98101 3.20085 0
M  V30 1913 C 174.36 2.90502 4.38742 0
M  V30 1914 O 173.386 3.64442 4.3723 0
M  V30 1915 N 174.588 2.06586 5.42496 0
M  V30 1916 H 177.353 2.65145 1.39708 0
M  V30 1917 H 174.914 1.49437 0.622922 0
M  V30 1918 H 176.906 1.62004 3.70859 0
M  V30 1919 H 175.476 0.812245 3.01863 0
M  V30 1920 H 174.696 3.19464 2.30947 0
M  V30 1921 H 175.984 3.83207 3.34708 0
M  V30 1922 H 175.382 1.45896 5.46563 0
M  V30 1923 H 173.939 2.04943 6.18742 0
M  V30 1924 N 177.372 -0.689602 1.41712 0
M  V30 1925 C 178.618 -1.45181 1.41599 0
M  V30 1926 C 178.951 -1.94181 0.0270081 0
M  V30 1927 O 178.226 -1.6993 -0.946265 0
M  V30 1928 C 178.509 -2.65945 2.42787 0
M  V30 1929 C 178.362 -2.22672 3.90816 0
M  V30 1930 C 179.681 -3.68149 2.41151 0
M  V30 1931 H 176.8 -0.526576 0.515642 0
M  V30 1932 H 179.442 -0.784947 1.73028 0
M  V30 1933 H 177.592 -3.2284 2.16116 0
M  V30 1934 H 179.264 -1.71058 4.28412 0
M  V30 1935 H 177.507 -1.54394 4.05395 0
M  V30 1936 H 178.178 -3.0935 4.57172 0
M  V30 1937 H 180.654 -3.2094 2.64834 0
M  V30 1938 H 179.53 -4.50248 3.13955 0
M  V30 1939 H 179.791 -4.18259 1.43221 0
M  V30 1940 N 178.85 -1.27639 -0.924453 0
M  V30 1941 C 179.78 -1.13166 -2.04244 0
M  V30 1942 C 180.761 -0.032256 -1.70069 0
M  V30 1943 O 181.946 -0.207328 -1.9309 0
M  V30 1944 C 179.076 -0.781496 -3.38393 0
M  V30 1945 C 178.03 -1.83449 -3.86692 0
M  V30 1946 C 177.356 -1.33822 -5.17683 0
M  V30 1947 C 178.656 -3.23917 -4.09726 0
M  V30 1948 H 180.35 -2.06689 -2.1661 0
M  V30 1949 H 177.896 -0.995136 -1.04082 0
M  V30 1950 H 179.849 -0.667057 -4.16087 0
M  V30 1951 H 178.573 0.189439 -3.2605 0
M  V30 1952 H 177.232 -1.93789 -3.11193 0
M  V30 1953 H 176.88 -0.35665 -5.01734 0
M  V30 1954 H 176.58 -2.04224 -5.50968 0
M  V30 1955 H 178.104 -1.23679 -5.97943 0
M  V30 1956 H 179.518 -3.16559 -4.77978 0
M  V30 1957 H 177.915 -3.92059 -4.54324 0
M  V30 1958 H 178.985 -3.68729 -3.14908 0
M  V30 1959 N 180.328 1.1314 -1.09713 0
M  V30 1960 C 181.278 2.16709 -0.708593 0
M  V30 1961 C 182.262 1.58471 0.278523 0
M  V30 1962 O 183.454 1.76779 0.088427 0
M  V30 1963 C 180.583 3.43039 -0.133923 0
M  V30 1964 C 179.669 4.08277 -1.14763 0
M  V30 1965 N 180.06 4.48637 -2.33577 0
M  V30 1966 C 178.358 4.34954 -0.986446 0
M  V30 1967 C 179.059 4.9952 -2.98085 0
M  V30 1968 N 178.035 4.94561 -2.25632 0
M  V30 1969 H 181.837 2.45672 -1.61315 0
M  V30 1970 H 179.351 1.29967 -0.973775 0
M  V30 1971 H 181.348 4.16583 0.162465 0
M  V30 1972 H 180.008 3.15549 0.765447 0
M  V30 1973 H 181.019 4.41246 -2.7115 0
M  V30 1974 H 177.696 4.17258 -0.142008 0
M  V30 1975 H 179.086 5.40521 -3.99108 0
M  V30 1976 N 181.806 0.884767 1.30421 0
M  V30 1977 C 182.716 0.355398 2.31892 0
M  V30 1978 C 183.732 -0.542261 1.65335 0
M  V30 1979 O 184.908 -0.435432 1.96637 0
M  V30 1980 C 181.973 -0.421661 3.44126 0
M  V30 1981 C 181.034 0.505727 4.26311 0
M  V30 1982 C 180.267 -0.234343 5.33185 0
M  V30 1983 O 180.49 -1.46045 5.51386 0
M  V30 1984 O 179.424 0.415443 6.00465 0
M  V30 1985 H 183.25 1.19685 2.79122 0
M  V30 1986 H 180.835 0.648596 1.34587 0
M  V30 1987 H 182.717 -0.861641 4.12497 0
M  V30 1988 H 181.392 -1.23942 2.99032 0
M  V30 1989 H 180.299 0.994513 3.60639 0
M  V30 1990 H 181.632 1.28948 4.75009 0
M  V30 1991 N 183.284 -1.43765 0.645699 0
M  V30 1992 C 184.524 -2.03776 0.159542 0
M  V30 1993 C 184.888 -1.49792 -1.2011 0
M  V30 1994 O 186.089 -2.01398 -1.78023 0
M  V30 1995 C 184.36 -3.57036 0.161251 0
M  V30 1996 S 185.919 -4.3804 -0.258159 0
M  V30 1997 H 182.737 -0.707717 0.0682454 0
M  V30 1998 H 185.339 -1.75941 0.852352 0
M  V30 1999 H 184.043 -3.9383 1.15439 0
M  V30 2000 H 183.574 -3.89503 -0.552339 0
M  V30 2001 H 185.589 -4.7302 -1.49889 0
M  V30 2002 N 184.763 -0.387143 -1.52771 0
M  V30 2003 C 185.711 0.463953 -2.27926 0
M  V30 2004 C 186.705 1.06493 -1.31741 0
M  V30 2005 O 187.911 1.00565 -1.49287 0
M  V30 2006 H 184.286 0.16837 -0.732909 0
M  V30 2007 H 186.257 -0.19141 -2.97785 0
M  V30 2008 C 185.006 1.5803 -3.09713 0
M  V30 2009 H 184.329 1.12718 -3.83581 0
M  V30 2010 H 185.769 2.15008 -3.65442 0
M  V30 2011 C 184.228 2.53509 -2.2189 0
M  V30 2012 O 184.758 3.56863 -1.84422 0
M  V30 2013 N 182.964 2.23199 -1.86093 0
M  V30 2014 H 182.511 1.39185 -2.16761 0
M  V30 2015 H 182.469 2.87333 -1.27621 0
M  V30 2016 N 186.241 1.57166 -0.116904 0
M  V30 2017 C 187.466 1.999 0.55271 0
M  V30 2018 C 187.891 0.996039 1.59564 0
M  V30 2019 O 187.249 -0.032556 1.81271 0
M  V30 2020 C 187.297 3.4152 1.15742 0
M  V30 2021 O 186.401 3.44106 2.27299 0
M  V30 2022 H 185.742 0.649447 0.138258 0
M  V30 2023 H 188.272 2.03573 -0.204759 0
M  V30 2024 H 188.282 3.79684 1.49346 0
M  V30 2025 H 186.957 4.14034 0.393493 0
M  V30 2026 H 185.534 3.17759 1.9515 0
M  V30 2027 N 187.719 -0.156864 1.56817 0
M  V30 2028 C 189.13 -0.717916 1.72345 0
M  V30 2029 C 189.481 -1.82124 0.729747 0
M  V30 2030 O 188.606 -2.16141 -0.105781 0
M  V30 2031 C 189.201 -1.30904 3.12489 0
M  V30 2032 C 187.76 -1.81676 3.29653 0
M  V30 2033 C 186.907 -0.701349 2.68284 0
M  V30 2034 H 189.858 0.0686989 1.58551 0
M  V30 2035 H 189.879 -2.17882 3.11942 0
M  V30 2036 H 189.391 -0.505796 3.8479 0
M  V30 2037 H 187.492 -2.64598 2.62333 0
M  V30 2038 H 187.605 -1.95226 4.3752 0
M  V30 2039 H 185.969 -1.12548 2.28484 0
M  V30 2040 H 186.752 0.0902846 3.43181 0
M  V30 2041 N 189.197 -1.51736 -0.425897 0
M  V30 2042 C 190.427 -1.68549 -1.19476 0
M  V30 2043 C 190.835 -0.387288 -1.85194 0
M  V30 2044 O 190.178 0.645142 -1.71999 0
M  V30 2045 C 190.24 -2.75275 -2.31223 0
M  V30 2046 C 189.904 -4.17534 -1.8578 0
M  V30 2047 C 190.901 -5.01936 -1.35485 0
M  V30 2048 C 188.586 -4.6369 -1.93123 0
M  V30 2049 C 190.58 -6.30559 -0.931347 0
M  V30 2050 C 188.267 -5.92307 -1.50384 0
M  V30 2051 C 189.265 -6.75569 -1.00473 0
M  V30 2052 O 188.953 -8.0178 -0.583452 0
M  V30 2053 H 188.685 -0.568525 -0.365725 0
M  V30 2054 H 191.239 -1.98982 -0.509444 0
M  V30 2055 H 189.469 -2.40182 -3.03067 0
M  V30 2056 H 191.158 -2.80853 -2.93047 0
M  V30 2057 H 191.924 -4.67475 -1.29197 0
M  V30 2058 H 187.803 -3.98997 -2.30916 0
M  V30 2059 H 191.347 -6.95498 -0.541084 0
M  V30 2060 H 187.244 -6.2628 -1.56346 0
M  V30 2061 H 188.012 -8.1543 -0.708275 0
M  V30 2062 N 190.675 0.682077 -1.42076 0
M  V30 2063 C 191.924 1.43786 -1.41451 0
M  V30 2064 C 192.237 1.95574 -0.0317074 0
M  V30 2065 O 193.443 2.71326 0.0971462 0
M  V30 2066 C 191.899 2.60071 -2.48779 0
M  V30 2067 C 191.507 2.15013 -3.93031 0
M  V30 2068 C 193.251 3.37626 -2.57311 0
M  V30 2069 C 191.158 3.28336 -4.91883 0
M  V30 2070 H 190.088 0.540143 -0.526082 0
M  V30 2071 H 192.739 0.739157 -1.67955 0
M  V30 2072 H 191.121 3.32275 -2.15429 0
M  V30 2073 H 192.295 1.5001 -4.35699 0
M  V30 2074 H 190.61 1.50416 -3.88284 0
M  V30 2075 H 193.207 4.22012 -3.28345 0
M  V30 2076 H 193.55 3.83727 -1.61429 0
M  V30 2077 H 194.083 2.72488 -2.89819 0
M  V30 2078 H 190.822 2.87234 -5.89217 0
M  V30 2079 H 190.342 3.92145 -4.53853 0
M  V30 2080 H 192.021 3.93913 -5.13265 0
M  V30 2081 N 192.153 1.28127 0.917671 0
M  V30 2082 C 193.399 1.15223 1.66888 0
M  V30 2083 C 193.732 -0.299293 1.9188 0
M  V30 2084 O 193.007 -1.21805 1.51637 0
M  V30 2085 C 193.29 1.94706 3.02922 0
M  V30 2086 C 193.143 3.47898 2.85109 0
M  V30 2087 C 194.462 1.75939 4.03402 0
M  V30 2088 H 191.581 0.419946 0.605652 0
M  V30 2089 H 194.223 1.57398 1.06423 0
M  V30 2090 H 192.373 1.58864 3.54534 0
M  V30 2091 H 194.045 3.93624 2.40537 0
M  V30 2092 H 192.288 3.7373 2.20246 0
M  V30 2093 H 192.959 3.98765 3.81694 0
M  V30 2094 H 195.435 2.07209 3.60837 0
M  V30 2095 H 194.311 2.33931 4.96556 0
M  V30 2096 H 194.572 0.709877 4.36364 0
M  V30 2097 N 193.631 -1.12557 1.10312 0
M  V30 2098 C 194.879 -1.83675 0.843091 0
M  V30 2099 C 195.2 -1.84435 -0.633131 0
M  V30 2100 O 194.47 -1.30657 -1.45964 0
M  V30 2101 H 193.05 -0.680138 0.308904 0
M  V30 2102 H 195.712 -1.36301 1.39313 0
M  V30 2103 H 194.808 -2.87908 1.2048 0
M  V30 2104 N 195.109 -0.891671 -1.2995 0
M  V30 2105 C 196.356 -0.513501 -1.95881 0
M  V30 2106 C 196.684 0.938655 -1.70351 0
M  V30 2107 O 195.939 1.67936 -1.00478 0
M  V30 2108 C 196.238 -0.742868 -3.49594 0
M  V30 2109 C 195.904 -2.17114 -3.95186 0
M  V30 2110 C 194.566 -2.56169 -4.07346 0
M  V30 2111 C 196.918 -3.10162 -4.18866 0
M  V30 2112 C 194.246 -3.87469 -4.4055 0
M  V30 2113 C 196.598 -4.41001 -4.53542 0
M  V30 2114 C 195.262 -4.79941 -4.63911 0
M  V30 2115 H 194.532 -0.187903 -0.71678 0
M  V30 2116 H 197.179 -1.1288 -1.54694 0
M  V30 2117 H 195.484 -0.044586 -3.91775 0
M  V30 2118 H 197.181 -0.429767 -3.9869 0
M  V30 2119 H 193.771 -1.85801 -3.86233 0
M  V30 2120 H 197.955 -2.81206 -4.08946 0
M  V30 2121 H 193.211 -4.17371 -4.46779 0
M  V30 2122 H 197.385 -5.13133 -4.70815 0
M  V30 2123 H 195.012 -5.81719 -4.89395 0
M  V30 2124 N 196.587 1.43421 -0.653314 0
M  V30 2125 C 197.817 2.05864 -0.174238 0
M  V30 2126 C 198.225 1.49052 1.16534 0
M  V30 2127 O 197.568 0.616481 1.73047 0
M  V30 2128 C 197.63 3.59499 -0.00875873 0
M  V30 2129 C 197.294 4.38893 -1.27364 0
M  V30 2130 C 198.291 4.70947 -2.20239 0
M  V30 2131 C 195.976 4.789 -1.51525 0
M  V30 2132 C 197.97 5.41916 -3.35568 0
M  V30 2133 C 195.657 5.49614 -2.67147 0
M  V30 2134 C 196.655 5.81044 -3.58994 0
M  V30 2135 O 196.343 6.50313 -4.72597 0
M  V30 2136 H 196.075 0.670345 -0.0872549 0
M  V30 2137 H 198.629 1.84913 -0.894226 0
M  V30 2138 H 196.859 3.79025 0.7666 0
M  V30 2139 H 198.548 4.0364 0.427687 0
M  V30 2140 H 199.314 4.40558 -2.02815 0
M  V30 2141 H 195.193 4.53843 -0.809158 0
M  V30 2142 H 198.737 5.66365 -4.07279 0
M  V30 2143 H 194.634 5.79419 -2.84505 0
M  V30 2144 H 195.402 6.68795 -4.71864 0
M  V30 2145 N 198.065 0.39524 1.52563 0
M  V30 2146 C 199.313 -0.184678 2.01254 0
M  V30 2147 C 199.634 -1.46822 1.28329 0
M  V30 2148 O 198.904 -1.91666 0.405094 0
M  V30 2149 H 197.484 -0.0712355 0.743596 0
M  V30 2150 H 200.146 0.528293 1.87603 0
M  V30 2151 H 199.242 -0.390681 3.09645 0
M  V30 2152 N 199.544 -1.57102 0.125237 0
M  V30 2153 C 200.507 -2.14471 -0.80838 0
M  V30 2154 C 201.507 -1.0811 -1.19033 0
M  V30 2155 O 202.697 -1.33856 -1.11482 0
M  V30 2156 C 199.829 -2.69005 -2.09402 0
M  V30 2157 H 201.022 -2.98297 -0.309696 0
M  V30 2158 H 198.575 -1.55807 -0.124051 0
M  V30 2159 H 199.31 -1.88785 -2.63687 0
M  V30 2160 H 199.095 -3.46799 -1.82957 0
M  V30 2161 H 200.585 -3.13278 -2.76128 0
M  V30 2162 N 201.022 0.148545 -1.56898 0
M  V30 2163 C 202.269 0.861418 -1.83264 0
M  V30 2164 C 202.597 1.81239 -0.705883 0
M  V30 2165 O 201.852 1.93305 0.305212 0
M  V30 2166 C 202.151 1.67064 -3.1595 0
M  V30 2167 C 201.817 0.866591 -4.42494 0
M  V30 2168 C 200.479 0.644762 -4.76861 0
M  V30 2169 C 202.831 0.30418 -5.20312 0
M  V30 2170 C 200.159 -0.15021 -5.86508 0
M  V30 2171 C 202.511 -0.477824 -6.30793 0
M  V30 2172 C 201.175 -0.710244 -6.63711 0
M  V30 2173 H 200.445 0.315215 -0.670612 0
M  V30 2174 H 203.092 0.125142 -1.91091 0
M  V30 2175 H 201.397 2.47698 -3.03567 0
M  V30 2176 H 203.094 2.22566 -3.33565 0
M  V30 2177 H 199.684 1.04955 -4.15551 0
M  V30 2178 H 203.868 0.462844 -4.94137 0
M  V30 2179 H 199.124 -0.339796 -6.10455 0
M  V30 2180 H 203.298 -0.92076 -6.90286 0
M  V30 2181 H 200.925 -1.3281 -7.48509 0
M  V30 2182 N 202.5 1.5196 0.417844 0
M  V30 2183 C 203.73 1.69181 1.18581 0
M  V30 2184 C 204.138 0.397104 1.84986 0
M  V30 2185 O 203.481 -0.636011 1.72339 0
M  V30 2186 C 203.543 2.76497 2.29759 0
M  V30 2187 C 203.207 4.18514 1.83563 0
M  V30 2188 C 204.204 5.02648 1.32821 0
M  V30 2189 C 201.889 4.64708 1.90661 0
M  V30 2190 C 203.883 6.31044 0.897894 0
M  V30 2191 C 201.57 5.93096 1.47241 0
M  V30 2192 C 202.568 6.76093 0.968891 0
M  V30 2193 O 202.256 8.02078 0.540924 0
M  V30 2194 H 201.988 0.570457 0.362705 0
M  V30 2195 H 204.542 1.99249 0.498885 0
M  V30 2196 H 202.772 2.41786 3.01789 0
M  V30 2197 H 204.461 2.82403 2.91553 0
M  V30 2198 H 205.227 4.68154 1.26716 0
M  V30 2199 H 201.106 4.00216 2.28797 0
M  V30 2200 H 204.65 6.95776 0.504192 0
M  V30 2201 H 200.547 6.271 1.53022 0
M  V30 2202 H 201.315 8.15794 0.66502 0
M  V30 2203 N 203.978 -0.674533 1.42435 0
M  V30 2204 C 205.203 -1.46784 1.46524 0
M  V30 2205 C 205.628 -1.87938 0.078066 0
M  V30 2206 O 204.986 -1.56014 -0.92354 0
M  V30 2207 C 205.034 -2.69307 2.39805 0
M  V30 2208 O 204.138 -3.67587 1.86959 0
M  V30 2209 H 203.479 -0.440959 0.496439 0
M  V30 2210 H 206.009 -0.827326 1.87127 0
M  V30 2211 H 206.019 -3.17374 2.56393 0
M  V30 2212 H 204.694 -2.38692 3.40586 0
M  V30 2213 H 203.271 -3.2662 1.79927 0
M  V30 2214 N 205.456 -1.28612 -0.910864 0
M  V30 2215 C 206.733 -1.06632 -1.63979 0
M  V30 2216 C 207.113 0.393351 -2.07403 0
M  V30 2217 O 206.461 1.37999 -1.82122 0
M  V30 2218 C 206.671 -2.0436 -2.8291 0
M  V30 2219 C 208.019 -2.34666 -3.5386 0
M  V30 2220 O 209.043 -2.02467 -2.93062 0
M  V30 2221 O 207.902 -2.89631 -4.63439 0
M  V30 2222 H 204.996 -0.407737 -0.7195 0
M  V30 2223 H 207.542 -1.39942 -0.959914 0
M  V30 2224 H 206.314 -3.02727 -2.47936 0
M  V30 2225 H 205.937 -1.71714 -3.58609 0
M  V30 2226 N 206.934 1.1197 -1.10907 0
M  V30 2227 C 208.182 1.83225 -0.852819 0
M  V30 2228 C 208.503 1.84769 0.623341 0
M  V30 2229 O 207.773 1.3143 1.45269 0
M  V30 2230 H 206.353 0.67849 -0.312507 0
M  V30 2231 H 209.015 1.3556 -1.40033 0
M  V30 2232 H 208.111 2.87265 -1.22005 0
M  V30 2233 N 208.412 0.89855 1.29475 0
M  V30 2234 C 209.322 0.379974 2.31502 0
M  V30 2235 C 210.338 -0.524695 1.659 0
M  V30 2236 O 211.514 -0.414551 1.97087 0
M  V30 2237 C 208.579 -0.385138 3.44554 0
M  V30 2238 C 207.64 0.550914 4.2575 0
M  V30 2239 C 206.873 -0.177778 5.33404 0
M  V30 2240 O 207.096 -1.40189 5.52904 0
M  V30 2241 O 206.03 0.479106 5.9999 0
M  V30 2242 H 209.856 1.22639 2.77837 0
M  V30 2243 H 207.441 0.662834 1.33891 0
M  V30 2244 H 209.323 -0.817841 4.13388 0
M  V30 2245 H 207.998 -1.20763 3.0033 0
M  V30 2246 H 206.905 1.03271 3.59564 0
M  V30 2247 H 208.238 1.33979 4.73614 0
M  V30 2248 N 209.89 -1.43072 0.660911 0
M  V30 2249 C 211.139 -2.00942 0.174735 0
M  V30 2250 C 211.452 -1.52797 -1.22117 0
M  V30 2251 O 212.658 -2.02991 -1.80297 0
M  V30 2252 C 211.114 -3.58948 0.261559 0
M  V30 2253 C 210.722 -4.16085 1.66064 0
M  V30 2254 C 212.466 -4.24173 -0.166617 0
M  V30 2255 C 210.373 -5.6641 1.70098 0
M  V30 2256 H 209.303 -0.751483 0.0615631 0
M  V30 2257 H 211.954 -1.63955 0.824069 0
M  V30 2258 H 210.336 -3.93372 -0.455421 0
M  V30 2259 H 211.51 -3.93147 2.40359 0
M  V30 2260 H 209.825 -3.6326 2.03546 0
M  V30 2261 H 212.422 -5.34471 -0.156433 0
M  V30 2262 H 212.765 -3.98647 -1.19943 0
M  V30 2263 H 213.298 -3.94659 0.498875 0
M  V30 2264 H 210.037 -5.96715 2.71315 0
M  V30 2265 H 209.557 -5.91382 1.00139 0
M  V30 2266 H 211.236 -6.30585 1.44816 0
M  V30 2267 N 211.368 -0.403325 -1.52352 0
M  V30 2268 C 212.593 0.176499 -2.06648 0
M  V30 2269 C 213.018 1.38577 -1.27193 0
M  V30 2270 O 212.376 1.7879 -0.300637 0
M  V30 2271 C 212.424 0.511061 -3.5696 0
M  V30 2272 O 211.528 1.60294 -3.79973 0
M  V30 2273 H 210.869 0.0167337 -0.663789 0
M  V30 2274 H 213.399 -0.574848 -1.96359 0
M  V30 2275 H 213.409 0.771362 -4.00642 0
M  V30 2276 H 212.084 -0.37296 -4.14224 0
M  V30 2277 H 210.661 1.33526 -3.48174 0
M  V30 2278 N 212.846 1.57033 -0.133567 0
M  V30 2279 C 214.095 1.94861 0.520768 0
M  V30 2280 C 214.408 1.02012 1.66892 0
M  V30 2281 O 215.614 1.29365 2.38699 0
M  V30 2282 C 214.07 3.46362 0.977809 0
M  V30 2283 C 213.678 4.47773 -0.142674 0
M  V30 2284 C 215.422 3.93083 1.60269 0
M  V30 2285 C 213.329 5.90468 0.331883 0
M  V30 2286 H 212.259 0.727453 0.198315 0
M  V30 2287 H 214.91 1.82227 -0.215759 0
M  V30 2288 H 213.292 3.54282 1.7692 0
M  V30 2289 H 214.466 4.51536 -0.919317 0
M  V30 2290 H 212.781 4.10891 -0.675124 0
M  V30 2291 H 215.378 4.97121 1.96914 0
M  V30 2292 H 215.721 3.33876 2.48662 0
M  V30 2293 H 216.254 3.88025 0.876453 0
M  V30 2294 H 212.993 6.53463 -0.516341 0
M  V30 2295 H 212.513 5.90094 1.07469 0
M  V30 2296 H 214.192 6.42179 0.788332 0
M  V30 2297 N 214.325 -0.140222 1.56975 0
M  V30 2298 C 215.565 -0.857823 1.85528 0
M  V30 2299 C 215.929 -1.78039 0.718768 0
M  V30 2300 O 217.13 -2.53795 0.885521 0
M  V30 2301 C 215.401 -1.60615 3.19277 0
M  V30 2302 S 216.96 -2.36824 3.69405 0
M  V30 2303 H 213.778 -0.286727 0.650622 0
M  V30 2304 H 216.38 -0.117408 1.95147 0
M  V30 2305 H 215.084 -0.919994 3.99955 0
M  V30 2306 H 214.615 -2.38735 3.12681 0
M  V30 2307 H 216.63 -3.62148 3.3921 0
M  V30 2308 N 215.803 -1.52179 -0.40978 0
M  V30 2309 C 216.736 -1.70196 -1.52015 0
M  V30 2310 C 217.714 -0.549542 -1.53032 0
M  V30 2311 O 218.898 -0.776815 -1.71749 0
M  V30 2312 C 216.025 -1.74069 -2.90547 0
M  V30 2313 C 215.071 -2.95601 -3.07445 0
M  V30 2314 S 215.904 -4.55956 -2.80827 0
M  V30 2315 C 217.06 -4.62614 -4.21591 0
M  V30 2316 H 217.293 -2.64109 -1.36504 0
M  V30 2317 H 214.826 -1.4221 -0.601312 0
M  V30 2318 H 216.784 -1.76985 -3.70387 0
M  V30 2319 H 215.445 -0.812835 -3.034 0
M  V30 2320 H 214.638 -2.94791 -4.08796 0
M  V30 2321 H 214.24 -2.90569 -2.35469 0
M  V30 2322 H 216.532 -4.39951 -5.15218 0
M  V30 2323 H 217.475 -5.64548 -4.27424 0
M  V30 2324 H 217.883 -3.91654 -4.06531 0
M  V30 2325 N 217.281 0.66697 -1.42791 0
M  V30 2326 C 218.191 1.80962 -1.49299 0
M  V30 2327 C 219.207 1.69775 -0.381108 0
M  V30 2328 O 220.383 1.91188 -0.633188 0
M  V30 2329 C 217.448 3.17156 -1.40045 0
M  V30 2330 C 216.509 3.40242 -2.6179 0
M  V30 2331 C 215.742 4.69939 -2.52969 0
M  V30 2332 O 215.965 5.48372 -1.56985 0
M  V30 2333 O 214.899 4.94441 -3.43237 0
M  V30 2334 H 218.725 1.78427 -2.45759 0
M  V30 2335 H 216.31 0.823713 -1.24641 0
M  V30 2336 H 218.192 3.98413 -1.37276 0
M  V30 2337 H 216.867 3.20312 -0.467138 0
M  V30 2338 H 215.774 2.58802 -2.70134 0
M  V30 2339 H 217.107 3.41923 -3.54047 0
M  V30 2340 N 218.759 1.29093 0.90403 0
M  V30 2341 C 219.709 1.10482 1.99443 0
M  V30 2342 C 220.693 0.0255401 1.6088 0
M  V30 2343 O 221.885 0.24677 1.75271 0
M  V30 2344 C 219.014 0.778882 3.34348 0
M  V30 2345 C 218.1 1.89749 3.79284 0
M  V30 2346 N 218.491 3.14045 3.96497 0
M  V30 2347 C 216.789 1.78955 4.08523 0
M  V30 2348 C 217.49 3.86996 4.34292 0
M  V30 2349 N 216.466 3.14909 4.43095 0
M  V30 2350 H 220.268 2.04778 2.10815 0
M  V30 2351 H 217.782 1.20155 1.09255 0
M  V30 2352 H 219.779 0.62661 4.12164 0
M  V30 2353 H 218.439 -0.156205 3.24324 0
M  V30 2354 H 219.45 3.49548 3.82148 0
M  V30 2355 H 216.127 0.926886 4.07081 0
M  V30 2356 H 217.517 4.93941 4.55491 0
M  V30 2357 N 220.237 -1.11381 1.11499 0
M  V30 2358 C 221.17 -2.16621 0.71769 0
M  V30 2359 C 222.148 -1.60058 -0.286413 0
M  V30 2360 O 223.332 -1.87613 -0.182689 0
M  V30 2361 C 220.459 -3.38646 0.0607265 0
M  V30 2362 C 219.505 -4.13874 1.03008 0
M  V30 2363 S 220.338 -4.70731 2.55289 0
M  V30 2364 C 221.494 -5.96079 1.90895 0
M  V30 2365 H 221.727 -2.49987 1.60915 0
M  V30 2366 H 219.26 -1.23015 0.933092 0
M  V30 2367 H 221.218 -4.09313 -0.311965 0
M  V30 2368 H 219.879 -3.03537 -0.807702 0
M  V30 2369 H 219.072 -5.01333 0.517853 0
M  V30 2370 H 218.674 -3.4897 1.34522 0
M  V30 2371 H 220.966 -6.65948 1.24577 0
M  V30 2372 H 221.909 -6.51946 2.76354 0
M  V30 2373 H 222.317 -5.47652 1.36885 0
M  V30 2374 N 221.715 -0.905404 -1.28997 0
M  V30 2375 C 222.992 -0.453513 -1.9027 0
M  V30 2376 C 223.372 1.06721 -1.82137 0
M  V30 2377 O 222.72 1.91159 -1.25182 0
M  V30 2378 C 222.93 -0.974494 -3.35119 0
M  V30 2379 C 224.278 -1.0216 -4.12127 0
M  V30 2380 O 225.302 -0.922557 -3.44046 0
M  V30 2381 O 224.161 -1.17121 -5.33802 0
M  V30 2382 H 221.255 -0.142347 -0.814657 0
M  V30 2383 H 223.801 -0.995642 -1.37423 0
M  V30 2384 H 222.573 -2.01848 -3.35221 0
M  V30 2385 H 222.196 -0.412706 -3.95452 0
M  V30 2386 N 223.193 1.4272 -0.668489 0
M  V30 2387 C 224.441 2.01226 -0.187769 0
M  V30 2388 C 224.762 1.53092 1.2078 0
M  V30 2389 O 224.032 0.74993 1.80977 0
M  V30 2390 H 222.612 0.744041 -0.0664272 0
M  V30 2391 H 225.274 1.74723 -0.863583 0
M  V30 2392 H 224.37 3.11556 -0.184166 0
M  V30 2393 N 224.671 0.411399 1.52136 0
M  V30 2394 C 225.919 -0.163322 2.01439 0
M  V30 2395 C 226.24 -1.45453 1.29879 0
M  V30 2396 O 225.51 -1.91225 0.4254 0
M  V30 2397 H 224.09 -0.0633447 0.744309 0
M  V30 2398 H 226.752 0.548161 1.87033 0
M  V30 2399 H 225.848 -0.357817 3.10042 0
M  V30 2400 N 226.149 -1.5696 0.141893 0
M  V30 2401 C 227.374 -2.00754 -0.520838 0
M  V30 2402 C 227.799 -1.0213 -1.57959 0
M  V30 2403 O 227.157 0.00371324 -1.813 0
M  V30 2404 C 227.205 -3.43318 -1.10294 0
M  V30 2405 O 226.309 -3.47679 -2.21795 0
M  V30 2406 H 225.65 -0.651564 -0.127908 0
M  V30 2407 H 228.18 -2.03221 0.23712 0
M  V30 2408 H 228.19 -3.82012 -1.43287 0
M  V30 2409 H 226.865 -4.14608 -0.327574 0
M  V30 2410 H 225.442 -3.20824 -1.9007 0
M  V30 2411 N 227.627 0.131896 -1.57047 0
M  V30 2412 C 228.557 1.16384 -2.02428 0
M  V30 2413 C 229.538 1.43936 -0.90644 0
M  V30 2414 O 230.723 1.54599 -1.17528 0
M  V30 2415 C 227.853 2.49328 -2.4177 0
M  V30 2416 C 226.807 2.36266 -3.56879 0
M  V30 2417 C 226.133 3.74057 -3.8208 0
M  V30 2418 C 227.433 1.834 -4.89042 0
M  V30 2419 H 229.127 0.786433 -2.88887 0
M  V30 2420 H 226.673 0.376855 -1.38981 0
M  V30 2421 H 228.626 3.21759 -2.7212 0
M  V30 2422 H 227.35 2.88934 -1.52266 0
M  V30 2423 H 226.009 1.66286 -3.26718 0
M  V30 2424 H 225.657 4.11125 -2.89803 0
M  V30 2425 H 225.357 3.66174 -4.59554 0
M  V30 2426 H 226.881 4.48012 -4.1487 0
M  V30 2427 H 228.295 2.45636 -5.18011 0
M  V30 2428 H 226.692 1.8637 -5.70426 0
M  V30 2429 H 227.762 0.790662 -4.7841 0
M  V30 2430 N 229.106 1.52395 0.401703 0
M  V30 2431 C 230.383 1.57387 1.16141 0
M  V30 2432 C 230.763 0.359359 2.08019 0
M  V30 2433 O 230.111 -0.65326 2.18963 0
M  V30 2434 C 230.321 2.90631 1.93221 0
M  V30 2435 C 231.669 3.43904 2.49028 0
M  V30 2436 O 232.693 2.92421 2.03393 0
M  V30 2437 O 231.552 4.33823 3.32356 0
M  V30 2438 H 228.646 0.634262 0.530698 0
M  V30 2439 H 231.192 1.64725 0.407883 0
M  V30 2440 H 229.964 3.70473 1.25958 0
M  V30 2441 H 229.587 2.8662 2.75563 0
M  V30 2442 N 230.584 -0.659388 1.43143 0
M  V30 2443 C 231.516 -1.7849 1.43784 0
M  V30 2444 C 232.529 -1.5932 0.334787 0
M  V30 2445 O 233.718 -1.68155 0.598842 0
M  V30 2446 C 230.818 -3.15828 1.22906 0
M  V30 2447 C 229.991 -3.61711 2.45934 0
M  V30 2448 C 229.05 -4.77831 2.20371 0
M  V30 2449 O 228.076 -4.87586 2.93681 0
M  V30 2450 N 229.278 -5.67611 1.21647 0
M  V30 2451 H 232.043 -1.7842 2.40803 0
M  V30 2452 H 229.604 -0.84302 1.3822 0
M  V30 2453 H 231.596 -3.91189 1.03697 0
M  V30 2454 H 230.166 -3.10707 0.343542 0
M  V30 2455 H 229.386 -2.76861 2.80609 0
M  V30 2456 H 230.674 -3.89112 3.27825 0
M  V30 2457 H 230.072 -5.62397 0.610449 0
M  V30 2458 H 228.629 -6.42719 1.08423 0
M  V30 2459 N 232.062 -1.29571 -0.897171 0
M  V30 2460 C 233.308 -1.17863 -1.65034 0
M  V30 2461 C 233.641 0.268729 -1.92332 0
M  V30 2462 O 232.916 1.19378 -1.53555 0
M  V30 2463 C 233.199 -1.995 -2.99786 0
M  V30 2464 C 233.052 -3.5239 -2.79538 0
M  V30 2465 C 234.371 -1.82335 -4.00552 0
M  V30 2466 H 231.49 -0.429528 -0.598895 0
M  V30 2467 H 234.132 -1.59072 -1.03905 0
M  V30 2468 H 232.282 -1.64485 -3.51962 0
M  V30 2469 H 233.954 -3.97401 -2.34244 0
M  V30 2470 H 232.197 -3.77187 -2.14273 0
M  V30 2471 H 232.868 -4.04787 -3.75302 0
M  V30 2472 H 235.344 -2.12924 -3.57495 0
M  V30 2473 H 234.22 -2.41801 -4.92771 0
M  V30 2474 H 234.481 -0.779209 -4.35179 0
M  V30 2475 N 233.54 1.10788 -1.12088 0
M  V30 2476 C 234.47 2.19083 -0.807755 0
M  V30 2477 C 235.451 1.6858 0.226859 0
M  V30 2478 O 236.636 1.93997 0.0888475 0
M  V30 2479 C 233.766 3.46344 -0.257576 0
M  V30 2480 C 232.72 4.101 -1.22483 0
M  V30 2481 C 232.046 5.32016 -0.535052 0
M  V30 2482 C 233.346 4.54236 -2.57811 0
M  V30 2483 H 235.04 2.45534 -1.71328 0
M  V30 2484 H 232.586 1.1801 -0.825205 0
M  V30 2485 H 234.539 4.21392 -0.0262679 0
M  V30 2486 H 233.263 3.19373 0.683278 0
M  V30 2487 H 231.922 3.37054 -1.44189 0
M  V30 2488 H 231.57 5.01319 0.410827 0
M  V30 2489 H 231.27 5.75625 -1.18024 0
M  V30 2490 H 232.794 6.09799 -0.312695 0
M  V30 2491 H 234.208 5.20575 -2.40155 0
M  V30 2492 H 232.605 5.08682 -3.18375 0
M  V30 2493 H 233.675 3.6734 -3.16528 0
M  V30 2494 N 235.018 0.912232 1.28515 0
M  V30 2495 C 235.965 0.397954 2.27343 0
M  V30 2496 C 236.935 -0.526766 1.57526 0
M  V30 2497 O 238.12 -0.449292 1.85435 0
M  V30 2498 C 235.26 -0.357263 3.43246 0
M  V30 2499 C 234.373 0.599788 4.27816 0
M  V30 2500 C 233.508 -0.173725 5.30916 0
M  V30 2501 C 232.547 0.777039 6.07148 0
M  V30 2502 N 231.684 0.0371398 7.0209 0
M  V30 2503 H 236.524 1.24577 2.70711 0
M  V30 2504 H 234.061 0.625612 1.33133 0
M  V30 2505 H 236.019 -0.8113 4.09236 0
M  V30 2506 H 234.649 -1.16943 3.00872 0
M  V30 2507 H 233.701 1.17235 3.61884 0
M  V30 2508 H 235.013 1.32704 4.80823 0
M  V30 2509 H 234.167 -0.688394 6.02782 0
M  V30 2510 H 232.906 -0.934041 4.78672 0
M  V30 2511 H 231.911 1.3031 5.34134 0
M  V30 2512 H 233.136 1.53689 6.61481 0
M  V30 2513 H 231.082 -0.705213 6.52198 0
M  V30 2514 H 230.999 0.704249 7.52713 0
M  V30 2515 H 232.267 -0.457383 7.78157 0
M  V30 2516 N 236.496 -1.42363 0.676048 0
M  V30 2517 C 237.406 -2.346 -0.00153389 0
M  V30 2518 C 238.422 -1.5516 -0.787485 0
M  V30 2519 O 239.598 -1.87723 -0.729521 0
M  V30 2520 C 236.663 -3.33705 -0.940298 0
M  V30 2521 C 235.724 -4.29042 -0.148739 0
M  V30 2522 C 234.957 -5.23413 -1.04279 0
M  V30 2523 O 235.18 -5.22749 -2.28232 0
M  V30 2524 O 234.114 -5.99795 -0.502925 0
M  V30 2525 H 237.94 -2.94082 0.758268 0
M  V30 2526 H 235.525 -1.42888 0.436289 0
M  V30 2527 H 237.407 -3.94586 -1.47917 0
M  V30 2528 H 236.082 -2.76695 -1.67993 0
M  V30 2529 H 234.989 -3.71571 0.43427 0
M  V30 2530 H 236.322 -4.89097 0.551805 0
M  V30 2531 N 237.974 -0.419461 -1.51915 0
M  V30 2532 C 238.937 0.389116 -2.25873 0
M  V30 2533 C 239.937 0.964924 -1.28631 0
M  V30 2534 O 241.127 0.842179 -1.52489 0
M  V30 2535 C 238.259 1.54874 -3.03689 0
M  V30 2536 H 239.452 -0.258799 -2.98781 0
M  V30 2537 H 237.005 -0.172209 -1.55348 0
M  V30 2538 H 237.74 2.23323 -2.35154 0
M  V30 2539 H 237.525 1.14223 -3.75094 0
M  V30 2540 H 239.015 2.12046 -3.59759 0
M  V30 2541 N 239.452 1.56882 -0.150215 0
M  V30 2542 C 240.399 2.16922 0.788244 0
M  V30 2543 C 241.369 1.10303 1.24187 0
M  V30 2544 O 242.554 1.38359 1.31383 0
M  V30 2545 C 239.694 2.79754 2.02068 0
M  V30 2546 C 238.807 4.00775 1.61257 0
M  V30 2547 C 237.942 4.51595 2.79705 0
M  V30 2548 C 236.981 5.65074 2.35282 0
M  V30 2549 N 236.118 6.10499 3.4675 0
M  V30 2550 H 240.958 2.96779 0.269444 0
M  V30 2551 H 238.495 1.46599 0.12128 0
M  V30 2552 H 240.453 3.14329 2.74323 0
M  V30 2553 H 239.083 2.02536 2.51354 0
M  V30 2554 H 238.135 3.72158 0.787553 0
M  V30 2555 H 239.447 4.82978 1.24633 0
M  V30 2556 H 238.601 4.88242 3.60145 0
M  V30 2557 H 237.34 3.68406 3.19576 0
M  V30 2558 H 236.345 5.28 1.53283 0
M  V30 2559 H 237.57 6.50052 1.96493 0
M  V30 2560 H 235.516 5.30243 3.86236 0
M  V30 2561 H 235.433 6.87637 3.14152 0
M  V30 2562 H 236.701 6.51791 4.27537 0
M  V30 2563 N 240.93 -0.123565 1.57115 0
M  V30 2564 C 242.346 -0.476961 1.52306 0
M  V30 2565 C 242.546 -1.82109 0.86248 0
M  V30 2566 O 241.602 -2.48586 0.442884 0
M  V30 2567 C 242.915 -0.465661 2.97073 0
M  V30 2568 C 244.463 -0.549534 3.08138 0
M  V30 2569 C 244.938 -0.568669 4.54456 0
M  V30 2570 N 246.429 -0.630237 4.58892 0
M  V30 2571 C 247.164 -0.666415 5.69514 0
M  V30 2572 N 246.66 -0.660514 6.89644 0
M  V30 2573 N 248.453 -0.709077 5.5761 0
M  V30 2574 H 240.604 0.757198 1.98445 0
M  V30 2575 H 242.867 0.278808 0.906074 0
M  V30 2576 H 242.573 0.454232 3.48754 0
M  V30 2577 H 242.447 -1.29513 3.54269 0
M  V30 2578 H 244.834 -1.45985 2.56461 0
M  V30 2579 H 244.915 0.307532 2.53945 0
M  V30 2580 H 244.559 0.337581 5.06777 0
M  V30 2581 H 244.489 -1.44256 5.06456 0
M  V30 2582 H 246.98 -0.641146 3.72421 0
M  V30 2583 H 247.293 -0.690616 7.69708 0
M  V30 2584 H 245.638 -0.628012 6.92157 0
M  V30 2585 H 248.829 -0.711019 4.62668 0
M  V30 2586 H 249.002 -0.733804 6.43832 0
M  V30 2587 N 242.408 -1.52605 -0.393616 0
M  V30 2588 C 243.657 -1.66649 -1.13627 0
M  V30 2589 C 243.97 -0.410364 -1.91247 0
M  V30 2590 O 245.176 -0.430854 -2.68059 0
M  V30 2591 C 243.632 -2.9449 -2.06891 0
M  V30 2592 C 243.24 -4.27266 -1.34714 0
M  V30 2593 C 244.984 -3.17899 -2.81319 0
M  V30 2594 C 242.891 -5.46217 -2.26717 0
M  V30 2595 H 241.821 -0.62084 -0.427871 0
M  V30 2596 H 244.472 -1.791 -0.399428 0
M  V30 2597 H 242.854 -2.75774 -2.84191 0
M  V30 2598 H 244.028 -4.56518 -0.626714 0
M  V30 2599 H 242.343 -4.10081 -0.722643 0
M  V30 2600 H 244.94 -4.03949 -3.50328 0
M  V30 2601 H 245.283 -2.32777 -3.45139 0
M  V30 2602 H 245.816 -3.37159 -2.11113 0
M  V30 2603 H 242.555 -6.33733 -1.67521 0
M  V30 2604 H 242.075 -5.21283 -2.96689 0
M  V30 2605 H 243.754 -5.7991 -2.86903 0
M  V30 2606 N 243.887 0.651787 -1.4349 0
M  V30 2607 C 245.298 1.233 -1.40193 0
M  V30 2608 C 245.649 1.9591 -0.106727 0
M  V30 2609 O 244.774 2.01316 0.793773 0
M  V30 2610 C 245.369 2.24257 -2.53957 0
M  V30 2611 C 243.928 2.77852 -2.5392 0
M  V30 2612 C 243.075 1.52517 -2.3159 0
M  V30 2613 H 246.026 0.443717 -1.52371 0
M  V30 2614 H 246.047 3.0646 -2.25528 0
M  V30 2615 H 245.559 1.71382 -3.4821 0
M  V30 2616 H 243.66 3.34786 -1.63551 0
M  V30 2617 H 243.773 3.25299 -3.51735 0
M  V30 2618 H 242.137 1.79915 -1.80285 0
M  V30 2619 H 242.92 1.01574 -3.27929 0
M  V30 2620 N 245.365 1.30045 0.890287 0
M  V30 2621 C 246.275 1.17885 2.02831 0
M  V30 2622 C 247.291 0.0999609 1.73713 0
M  V30 2623 O 248.467 0.313867 1.98939 0
M  V30 2624 C 245.532 0.866079 3.35708 0
M  V30 2625 C 244.593 2.02979 3.78283 0
M  V30 2626 C 243.826 1.73184 5.0482 0
M  V30 2627 O 244.049 0.657237 5.66601 0
M  V30 2628 O 242.983 2.58267 5.43674 0
M  V30 2629 H 246.809 2.13474 2.16015 0
M  V30 2630 H 244.394 1.09587 1.01543 0
M  V30 2631 H 246.276 0.706623 4.15433 0
M  V30 2632 H 244.951 -0.0599443 3.23644 0
M  V30 2633 H 243.858 2.24454 2.99285 0
M  V30 2634 H 245.191 2.93734 3.94944 0
M  V30 2635 N 246.843 -1.10192 1.12674 0
M  V30 2636 C 247.753 -2.20172 0.810026 0
M  V30 2637 C 248.769 -1.72821 -0.202188 0
M  V30 2638 O 249.945 -2.01369 -0.0351691 0
M  V30 2639 C 247.01 -3.45631 0.272007 0
M  V30 2640 C 246.071 -4.07704 1.34447 0
M  V30 2641 C 245.304 -5.27175 0.832029 0
M  V30 2642 O 245.527 -5.69425 -0.333284 0
M  V30 2643 O 244.461 -5.80168 1.60277 0
M  V30 2644 H 248.287 -2.49701 1.72867 0
M  V30 2645 H 245.872 -1.18977 0.903597 0
M  V30 2646 H 247.754 -4.21394 -0.0230219 0
M  V30 2647 H 246.429 -3.17723 -0.619164 0
M  V30 2648 H 245.336 -3.33614 1.6927 0
M  V30 2649 H 246.669 -4.3982 2.2095 0
M  V30 2650 N 248.321 -0.919034 -1.28029 0
M  V30 2651 C 249.57 -0.550802 -1.94034 0
M  V30 2652 C 249.883 0.910877 -1.73096 0
M  V30 2653 O 251.089 1.3875 -2.33368 0
M  V30 2654 C 249.545 -0.934249 -3.47563 0
M  V30 2655 C 249.153 -2.41602 -3.7727 0
M  V30 2656 C 250.897 -0.636854 -4.19696 0
M  V30 2657 C 248.804 -2.73932 -5.24133 0
M  V30 2658 H 247.734 -0.202273 -0.726362 0
M  V30 2659 H 250.385 -1.11867 -1.45458 0
M  V30 2660 H 248.767 -0.295115 -3.94899 0
M  V30 2661 H 249.941 -3.10233 -3.40723 0
M  V30 2662 H 248.256 -2.68441 -3.18321 0
M  V30 2663 H 250.853 -0.855005 -5.2782 0
M  V30 2664 H 251.196 0.425575 -4.14119 0
M  V30 2665 H 251.729 -1.23469 -3.78154 0
M  V30 2666 H 248.468 -3.79049 -5.34792 0
M  V30 2667 H 247.988 -2.09942 -5.61858 0
M  V30 2668 H 249.667 -2.61215 -5.91925 0
M  V30 2669 N 249.799 1.42003 -0.683588 0
M  V30 2670 C 250.729 2.33487 -0.024866 0
M  V30 2671 C 251.71 1.51163 0.779975 0
M  V30 2672 O 252.895 1.79739 0.735362 0
M  V30 2673 C 250.025 3.3487 0.920836 0
M  V30 2674 C 248.979 4.27414 0.223958 0
M  V30 2675 C 248.305 5.19074 1.2832 0
M  V30 2676 C 249.605 5.14445 -0.90242 0
M  V30 2677 H 251.299 2.88819 -0.788921 0
M  V30 2678 H 248.845 1.38873 -0.38083 0
M  V30 2679 H 250.798 3.97787 1.39081 0
M  V30 2680 H 249.522 2.77861 1.71642 0
M  V30 2681 H 248.181 3.65904 -0.225864 0
M  V30 2682 H 247.829 4.58387 2.071 0
M  V30 2683 H 247.529 5.81822 0.821995 0
M  V30 2684 H 249.053 5.84867 1.75392 0
M  V30 2685 H 250.467 5.70998 -0.513272 0
M  V30 2686 H 248.864 5.86072 -1.28997 0
M  V30 2687 H 249.934 4.52322 -1.74737 0
M  V30 2688 N 251.277 0.427512 1.51691 0
M  V30 2689 C 252.525 -0.141948 2.01601 0
M  V30 2690 C 252.846 -1.44067 1.31414 0
M  V30 2691 O 252.116 -1.90763 0.445658 0
M  V30 2692 H 250.696 -0.0554468 0.744939 0
M  V30 2693 H 253.358 0.567968 1.86441 0
M  V30 2694 H 252.454 -0.324913 3.10404 0
M  V30 2695 N 252.755 -1.56801 0.158532 0
M  V30 2696 C 253.702 -2.17337 -0.776729 0
M  V30 2697 C 254.672 -1.1096 -1.23601 0
M  V30 2698 O 255.857 -1.39054 -1.30647 0
M  V30 2699 C 252.997 -2.80822 -2.00582 0
M  V30 2700 C 252.11 -4.01624 -1.59129 0
M  V30 2701 C 251.245 -4.53072 -2.77306 0
M  V30 2702 C 250.284 -5.66314 -2.32282 0
M  V30 2703 N 249.421 -6.12329 -3.43508 0
M  V30 2704 H 254.261 -2.96918 -0.253701 0
M  V30 2705 H 251.798 -1.46661 -0.113504 0
M  V30 2706 H 253.756 -3.15779 -2.72652 0
M  V30 2707 H 252.386 -2.03866 -2.50277 0
M  V30 2708 H 251.438 -3.72571 -0.767806 0
M  V30 2709 H 252.75 -4.83633 -1.2207 0
M  V30 2710 H 251.904 -4.90145 -3.57551 0
M  V30 2711 H 250.643 -3.70095 -3.17617 0
M  V30 2712 H 249.648 -5.28806 -1.5048 0
M  V30 2713 H 250.873 -6.51085 -1.93043 0
M  V30 2714 H 248.819 -5.32284 -3.83418 0
M  V30 2715 H 248.736 -6.89293 -3.105 0
M  V30 2716 H 250.004 -6.5405 -4.24075 0
M  V30 2717 N 254.233 0.115231 -1.57178 0
M  V30 2718 C 255.479 0.82357 -1.85325 0
M  V30 2719 C 255.812 1.79349 -0.744814 0
M  V30 2720 O 255.087 1.92899 0.249024 0
M  V30 2721 C 255.37 1.57014 -3.24066 0
M  V30 2722 C 255.223 0.619565 -4.45513 0
M  V30 2723 C 256.542 2.52545 -3.60429 0
M  V30 2724 H 253.661 0.297948 -0.674089 0
M  V30 2725 H 256.303 0.0877138 -1.89797 0
M  V30 2726 H 254.453 2.19742 -3.20383 0
M  V30 2727 H 256.125 0.000837639 -4.613 0
M  V30 2728 H 254.368 -0.0686174 -4.33746 0
M  V30 2729 H 255.039 1.17866 -5.3927 0
M  V30 2730 H 257.515 1.9992 -3.64926 0
M  V30 2731 H 256.391 3.01811 -4.58477 0
M  V30 2732 H 256.652 3.35383 -2.88047 0
M  V30 2733 N 255.711 1.52812 0.385517 0
M  V30 2734 C 256.936 1.72207 1.15583 0
M  V30 2735 C 257.361 0.441034 1.82857 0
M  V30 2736 O 256.719 -0.603465 1.70962 0
M  V30 2737 C 256.767 2.87476 2.17692 0
M  V30 2738 O 255.871 2.54693 3.24354 0
M  V30 2739 H 255.212 0.572526 0.336319 0
M  V30 2740 H 257.742 1.99618 0.448744 0
M  V30 2741 H 257.752 3.13072 2.6163 0
M  V30 2742 H 256.427 3.80408 1.68115 0
M  V30 2743 H 255.004 2.3985 2.85529 0
M  V30 2744 N 257.189 -0.644168 1.43834 0
M  V30 2745 C 258.438 -1.39985 1.45214 0
M  V30 2746 C 258.751 -1.95421 0.0835494 0
M  V30 2747 O 259.957 -2.71488 -0.0251748 0
M  V30 2748 C 258.413 -2.53384 2.55587 0
M  V30 2749 C 258.021 -2.04517 3.98594 0
M  V30 2750 C 259.765 -3.30685 2.66172 0
M  V30 2751 C 257.672 -3.1518 5.00416 0
M  V30 2752 H 256.602 -0.526005 0.540218 0
M  V30 2753 H 259.253 -0.694367 1.69855 0
M  V30 2754 H 257.635 -3.26446 2.24163 0
M  V30 2755 H 258.809 -1.38405 4.39523 0
M  V30 2756 H 257.124 -1.40068 3.92135 0
M  V30 2757 H 259.721 -4.13158 3.39418 0
M  V30 2758 H 260.064 -3.79312 1.71546 0
M  V30 2759 H 260.597 -2.64708 2.96942 0
M  V30 2760 H 257.336 -2.71511 5.96625 0
M  V30 2761 H 256.856 -3.79974 4.64091 0
M  V30 2762 H 258.535 -3.80166 5.23529 0
M  V30 2763 N 258.668 -1.30515 -0.883378 0
M  V30 2764 C 259.631 -1.1701 -1.97082 0
M  V30 2765 C 260.631 -0.10089 -1.60483 0
M  V30 2766 O 261.821 -0.349127 -1.70666 0
M  V30 2767 C 258.953 -0.793045 -3.31547 0
M  V30 2768 H 260.146 -2.13622 -2.10489 0
M  V30 2769 H 257.699 -1.13935 -1.06998 0
M  V30 2770 H 258.434 0.172499 -3.23841 0
M  V30 2771 H 258.219 -1.56576 -3.5948 0
M  V30 2772 H 259.709 -0.722073 -4.1131 0
M  V30 2773 N 260.146 1.09593 -1.13257 0
M  V30 2774 C 261.392 1.82003 -0.89458 0
M  V30 2775 C 261.725 1.85402 0.577906 0
M  V30 2776 O 261 1.32099 1.42759 0
M  V30 2777 C 261.283 3.28237 -1.48096 0
M  V30 2778 C 261.136 3.3312 -3.02244 0
M  V30 2779 C 262.455 4.24871 -1.14774 0
M  V30 2780 H 259.574 0.66077 -0.326424 0
M  V30 2781 H 262.216 1.28389 -1.40058 0
M  V30 2782 H 260.366 3.74024 -1.05062 0
M  V30 2783 H 262.038 2.95748 -3.54021 0
M  V30 2784 H 260.281 2.72756 -3.37323 0
M  V30 2785 H 260.952 4.3613 -3.38371 0
M  V30 2786 H 263.428 3.87361 -1.51957 0
M  V30 2787 H 262.304 5.25532 -1.58452 0
M  V30 2788 H 262.565 4.42058 -0.0611849 0
M  V30 2789 N 261.624 0.925811 1.2754 0
M  V30 2790 C 262.554 0.440748 2.29303 0
M  V30 2791 C 263.535 -0.497971 1.62648 0
M  V30 2792 O 264.72 -0.403126 1.8997 0
M  V30 2793 C 261.85 -0.309048 3.45922 0
M  V30 2794 C 260.804 0.54166 4.24559 0
M  V30 2795 C 260.13 -0.337191 5.33636 0
M  V30 2796 C 261.43 1.80516 4.90114 0
M  V30 2797 H 263.124 1.29121 2.70126 0
M  V30 2798 H 260.67 0.622323 1.29858 0
M  V30 2799 H 262.623 -0.659315 4.1621 0
M  V30 2800 H 261.347 -1.19352 3.04011 0
M  V30 2801 H 260.006 0.874609 3.56014 0
M  V30 2802 H 259.654 -1.22056 4.87966 0
M  V30 2803 H 259.354 0.228497 5.87156 0
M  V30 2804 H 260.878 -0.683072 6.06767 0
M  V30 2805 H 262.292 1.52307 5.52698 0
M  V30 2806 H 260.689 2.3142 5.53683 0
M  V30 2807 H 261.759 2.52581 4.13921 0
M  V30 2808 N 263.102 -1.41638 0.69111 0
M  V30 2809 C 264.518 -1.55435 0.362224 0
M  V30 2810 C 264.718 -1.66754 -1.13117 0
M  V30 2811 O 263.774 -1.64348 -1.91692 0
M  V30 2812 C 265.087 -2.79588 1.10684 0
M  V30 2813 C 266.635 -2.9338 1.09075 0
M  V30 2814 C 267.11 -4.20414 1.81703 0
M  V30 2815 N 268.601 -4.27362 1.7865 0
M  V30 2816 C 269.336 -5.24507 2.31689 0
M  V30 2817 N 268.832 -6.27708 2.93179 0
M  V30 2818 N 270.625 -5.16416 2.2197 0
M  V30 2819 H 262.776 -1.32536 1.65976 0
M  V30 2820 H 265.039 -0.639115 0.700168 0
M  V30 2821 H 264.745 -2.77419 2.16175 0
M  V30 2822 H 264.619 -3.70973 0.682545 0
M  V30 2823 H 267.006 -2.95067 0.0441238 0
M  V30 2824 H 267.087 -2.0318 1.55407 0
M  V30 2825 H 266.731 -4.19488 2.86343 0
M  V30 2826 H 266.661 -5.09578 1.32808 0
M  V30 2827 H 269.152 -3.53415 1.33815 0
M  V30 2828 H 269.465 -6.98217 3.31229 0
M  V30 2829 H 267.81 -6.28223 2.97255 0
M  V30 2830 H 271.001 -4.34716 1.73607 0
M  V30 2831 H 271.174 -5.91958 2.63609 0
M  V30 2832 N 264.58 -0.43555 -1.51462 0
M  V30 2833 C 265.828 0.131254 -2.01673 0
M  V30 2834 C 266.149 1.43368 -1.32177 0
M  V30 2835 O 265.419 1.90524 -0.455769 0
M  V30 2836 H 263.999 0.0514954 -0.745223 0
M  V30 2837 H 266.661 -0.577847 -1.86137 0
M  V30 2838 H 265.757 0.308446 -3.10572 0
M  V30 2839 N 266.058 1.56714 -0.166846 0
M  V30 2840 C 266.988 2.20754 0.760913 0
M  V30 2841 C 267.969 1.16178 1.24244 0
M  V30 2842 O 269.154 1.44592 1.29641 0
M  V30 2843 C 266.284 2.84478 1.99223 0
M  V30 2844 C 265.238 3.95053 1.64672 0
M  V30 2845 C 264.564 4.45805 2.95232 0
M  V30 2846 C 265.864 5.14865 0.878155 0
M  V30 2847 H 267.558 2.98537 0.22713 0
M  V30 2848 H 265.104 1.43596 0.107805 0
M  V30 2849 H 267.057 3.27951 2.64624 0
M  V30 2850 H 265.781 2.04056 2.55007 0
M  V30 2851 H 264.44 3.52228 1.01641 0
M  V30 2852 H 264.088 3.62181 3.49047 0
M  V30 2853 H 263.788 5.204 2.7287 0
M  V30 2854 H 265.312 4.91962 3.6167 0
M  V30 2855 H 266.726 5.55059 1.43466 0
M  V30 2856 H 265.123 5.95348 0.753738 0
M  V30 2857 H 266.193 4.84735 -0.126377 0
M  V30 2858 N 267.536 -0.106894 1.57237 0
M  V30 2859 C 268.499 -1.11466 2.0027 0
M  V30 2860 C 269.499 -1.33623 0.894519 0
M  V30 2861 O 270.689 -1.29935 1.16028 0
M  V30 2862 C 267.821 -2.46646 2.35327 0
M  V30 2863 H 269.014 -0.744516 2.90512 0
M  V30 2864 H 266.567 -0.351576 1.52295 0
M  V30 2865 H 267.302 -2.88558 1.48003 0
M  V30 2866 H 267.087 -2.31915 3.16161 0
M  V30 2867 H 268.577 -3.19151 2.69318 0
M  V30 2868 N 269.014 -1.53014 -0.377408 0
M  V30 2869 C 270.244 -1.72265 -1.14054 0
M  V30 2870 C 270.652 -0.44601 -1.83868 0
M  V30 2871 O 269.995 0.590095 -1.73964 0
M  V30 2872 C 270.057 -2.82492 -2.22348 0
M  V30 2873 C 269.721 -4.23233 -1.72402 0
M  V30 2874 C 270.718 -5.05992 -1.19448 0
M  V30 2875 C 268.403 -4.696 -1.78273 0
M  V30 2876 C 270.397 -6.33203 -0.730268 0
M  V30 2877 C 268.084 -5.96792 -1.31464 0
M  V30 2878 C 269.082 -6.78424 -0.789297 0
M  V30 2879 O 268.77 -8.0323 -0.328077 0
M  V30 2880 H 268.502 -0.579873 -0.347453 0
M  V30 2881 H 271.056 -2.00502 -0.445882 0
M  V30 2882 H 269.286 -2.49702 -2.95272 0
M  V30 2883 H 270.975 -2.90034 -2.83963 0
M  V30 2884 H 271.741 -4.71349 -1.14259 0
M  V30 2885 H 267.62 -4.06142 -2.18106 0
M  V30 2886 H 271.164 -6.96868 -0.319542 0
M  V30 2887 H 267.061 -6.30937 -1.36342 0
M  V30 2888 H 267.829 -8.1727 -0.448493 0
M  V30 2889 N 270.492 0.636531 -1.44174 0
M  V30 2890 C 271.422 1.76003 -1.53444 0
M  V30 2891 C 272.403 1.65619 -0.387841 0
M  V30 2892 O 273.588 1.84461 -0.607257 0
M  V30 2893 C 270.718 3.14511 -1.4731 0
M  V30 2894 C 269.672 3.39677 -2.60391 0
M  V30 2895 C 268.998 4.78159 -2.39308 0
M  V30 2896 C 270.298 3.32772 -4.02567 0
M  V30 2897 H 271.992 1.68501 -2.47483 0
M  V30 2898 H 269.538 0.809237 -1.19111 0
M  V30 2899 H 271.491 3.92878 -1.52397 0
M  V30 2900 H 270.215 3.22783 -0.49785 0
M  V30 2901 H 268.874 2.63688 -2.54684 0
M  V30 2902 H 268.522 4.83128 -1.39988 0
M  V30 2903 H 268.222 4.95956 -3.15122 0
M  V30 2904 H 269.746 5.58762 -2.46205 0
M  V30 2905 H 271.16 4.01051 -4.09672 0
M  V30 2906 H 269.557 3.62104 -4.7854 0
M  V30 2907 H 270.627 2.30669 -4.2652 0
M  V30 2908 N 271.97 1.30982 0.876444 0
M  V30 2909 C 273.386 1.09498 1.16113 0
M  V30 2910 C 273.586 -0.13875 2.01022 0
M  V30 2911 O 272.642 -0.829935 2.38471 0
M  V30 2912 C 273.955 2.36308 1.85954 0
M  V30 2913 C 275.503 2.41856 1.98683 0
M  V30 2914 C 275.978 3.6853 2.71937 0
M  V30 2915 N 277.469 3.69387 2.79477 0
M  V30 2916 C 278.204 4.64096 3.36753 0
M  V30 2917 N 277.7 5.69155 3.95012 0
M  V30 2918 N 279.493 4.51626 3.3465 0
M  V30 2919 H 271.644 2.10118 0.310494 0
M  V30 2920 H 273.907 0.926634 0.200131 0
M  V30 2921 H 273.613 3.26388 1.31011 0
M  V30 2922 H 273.487 2.4561 2.86278 0
M  V30 2923 H 275.874 1.52249 2.52793 0
M  V30 2924 H 275.955 2.36523 0.9742 0
M  V30 2925 H 275.599 4.58499 2.18496 0
M  V30 2926 H 275.529 3.71127 3.73593 0
M  V30 2927 H 278.02 2.93438 2.38123 0
M  V30 2928 H 278.333 6.3751 4.36808 0
M  V30 2929 H 276.678 5.72937 3.93406 0
M  V30 2930 H 279.869 3.68728 2.8837 0
M  V30 2931 H 280.042 5.25614 3.7899 0
M  V30 2932 N 273.449 -1.08991 1.13837 0
M  V30 2933 C 274.359 -2.19301 0.833333 0
M  V30 2934 C 275.375 -1.73026 -0.183847 0
M  V30 2935 O 276.551 -2.01395 -0.0138092 0
M  V30 2936 C 273.616 -3.45323 0.308651 0
M  V30 2937 C 272.677 -4.06255 1.38764 0
M  V30 2938 C 271.91 -5.26262 0.887896 0
M  V30 2939 O 272.133 -5.69747 -0.27287 0
M  V30 2940 O 271.067 -5.78435 1.66421 0
M  V30 2941 H 274.893 -2.47854 1.75506 0
M  V30 2942 H 272.478 -1.18012 0.916166 0
M  V30 2943 H 274.36 -4.21394 0.0216739 0
M  V30 2944 H 273.035 -3.18362 -0.585431 0
M  V30 2945 H 271.942 -3.318 1.72799 0
M  V30 2946 H 273.275 -4.37452 2.25602 0
M  V30 2947 N 274.927 -0.932562 -1.27047 0
M  V30 2948 C 275.874 -0.434072 -2.26681 0
M  V30 2949 C 276.844 0.501639 -1.58344 0
M  V30 2950 O 278.029 0.419734 -1.86126 0
M  V30 2951 C 275.169 0.30261 -3.43771 0
M  V30 2952 C 274.282 -0.667774 -4.26808 0
M  V30 2953 C 273.417 0.0892393 -5.31125 0
M  V30 2954 C 272.456 -0.873532 -6.05835 0
M  V30 2955 N 271.593 -0.148832 -7.01942 0
M  V30 2956 H 276.433 -1.28868 -2.68695 0
M  V30 2957 H 273.97 -0.646713 -1.32121 0
M  V30 2958 H 275.928 0.746092 -4.10474 0
M  V30 2959 H 274.558 1.12142 -3.02695 0
M  V30 2960 H 273.61 -1.22978 -3.59973 0
M  V30 2961 H 274.922 -1.40337 -4.78651 0
M  V30 2962 H 274.076 0.592409 -6.03801 0
M  V30 2963 H 272.815 0.85777 -4.80097 0
M  V30 2964 H 271.82 -1.38791 -5.31994 0
M  V30 2965 H 273.045 -1.64193 -6.58952 0
M  V30 2966 H 270.991 0.601365 -6.53238 0
M  V30 2967 H 270.908 -0.82391 -7.51497 0
M  V30 2968 H 272.176 0.333527 -7.78786 0
M  V30 2969 N 276.405 1.4127 -0.698611 0
M  V30 2970 C 277.355 2.27997 -0.0119836 0
M  V30 2971 C 278.339 1.42363 0.749765 0
M  V30 2972 O 279.531 1.65607 0.624758 0
M  V30 2973 C 276.66 3.30702 0.921458 0
M  V30 2974 C 275.746 4.23814 0.155796 0
M  V30 2975 N 276.137 4.98572 -0.852015 0
M  V30 2976 C 274.435 4.44284 0.390836 0
M  V30 2977 C 275.136 5.66744 -1.3106 0
M  V30 2978 N 274.112 5.39867 -0.635944 0
M  V30 2979 H 277.914 2.83232 -0.784649 0
M  V30 2980 H 275.428 1.53518 -0.529711 0
M  V30 2981 H 277.425 3.91661 1.42854 0
M  V30 2982 H 276.085 2.77028 1.69369 0
M  V30 2983 H 277.096 5.03024 -1.23235 0
M  V30 2984 H 273.773 4.01614 1.14071 0
M  V30 2985 H 275.163 6.36672 -2.14707 0
M  V30 2986 N 277.883 0.443576 1.51229 0
M  V30 2987 C 278.815 -0.400608 2.25672 0
M  V30 2988 C 279.828 -0.980945 1.29928 0
M  V30 2989 O 281.017 -0.874024 1.55638 0
M  V30 2990 C 278.117 -1.57304 3.00181 0
M  V30 2991 C 277.29 -1.11046 4.23069 0
M  V30 2992 C 276.349 -2.15374 4.80105 0
M  V30 2993 O 275.375 -1.74554 5.41774 0
M  V30 2994 N 276.577 -3.47922 4.64683 0
M  V30 2995 H 279.342 0.23745 2.98758 0
M  V30 2996 H 276.903 0.272809 1.59585 0
M  V30 2997 H 278.895 -2.26733 3.35223 0
M  V30 2998 H 277.465 -2.11632 2.30066 0
M  V30 2999 H 276.685 -0.243019 3.9345 0
M  V30 3000 H 277.973 -0.778888 5.02803 0
M  V30 3001 H 277.371 -3.83815 4.15575 0
M  V30 3002 H 275.928 -4.13228 5.0407 0
M  V30 3003 N 279.361 -1.56624 0.175154 0
M  V30 3004 C 280.61 -1.96173 -0.468921 0
M  V30 3005 C 280.923 -1.06401 -1.64128 0
M  V30 3006 O 282.129 -1.35648 -2.35185 0
M  V30 3007 C 280.585 -3.48833 -0.885633 0
M  V30 3008 C 280.193 -4.47237 0.261343 0
M  V30 3009 C 281.937 -3.97194 -1.49791 0
M  V30 3010 C 279.844 -5.9114 -0.175214 0
M  V30 3011 H 278.774 -0.732455 -0.178958 0
M  V30 3012 H 281.425 -1.81591 0.263997 0
M  V30 3013 H 279.807 -3.58848 -1.67464 0
M  V30 3014 H 280.981 -4.4894 1.03871 0
M  V30 3015 H 279.296 -4.08956 0.783827 0
M  V30 3016 H 281.893 -5.02167 -1.83665 0
M  V30 3017 H 282.236 -3.40351 -2.39722 0
M  V30 3018 H 282.769 -3.90212 -0.773267 0
M  V30 3019 H 279.508 -6.51865 0.689414 0
M  V30 3020 H 279.028 -5.92735 -0.91786 0
M  V30 3021 H 280.707 -6.44044 -0.617792 0
M  V30 3022 N 280.839 0.0985539 -1.57292 0
M  V30 3023 C 281.772 1.15082 -1.97057 0
M  V30 3024 C 282.75 1.39025 -0.843255 0
M  V30 3025 O 283.934 1.52842 -1.10325 0
M  V30 3026 C 281.061 2.50069 -2.28437 0
M  V30 3027 C 280.107 2.42428 -3.509 0
M  V30 3028 S 280.94 1.84414 -5.02744 0
M  V30 3029 C 282.096 3.21032 -5.37298 0
M  V30 3030 H 282.329 0.811815 -2.86002 0
M  V30 3031 H 279.862 0.306102 -1.51335 0
M  V30 3032 H 281.82 3.27729 -2.47192 0
M  V30 3033 H 280.481 2.8114 -1.40069 0
M  V30 3034 H 279.674 3.41911 -3.70288 0
M  V30 3035 H 279.276 1.72896 -3.31637 0
M  V30 3036 H 281.568 4.17297 -5.33731 0
M  V30 3037 H 282.511 3.06452 -6.38352 0
M  V30 3038 H 282.919 3.20404 -4.64759 0
M  V30 3039 N 282.317 1.53212 0.369288 0
M  V30 3040 C 283.267 1.75769 1.45222 0
M  V30 3041 C 284.251 0.612136 1.48801 0
M  V30 3042 O 285.443 0.870674 1.54105 0
M  V30 3043 C 282.572 1.94769 2.82701 0
M  V30 3044 C 281.658 3.15315 2.83615 0
M  V30 3045 N 282.049 4.37295 2.54178 0
M  V30 3046 C 280.347 3.15962 3.14776 0
M  V30 3047 C 281.048 5.19015 2.62675 0
M  V30 3048 N 280.024 4.55142 2.97232 0
M  V30 3049 H 283.826 2.67691 1.2132 0
M  V30 3050 H 281.34 1.51787 0.577438 0
M  V30 3051 H 283.337 2.09056 3.60696 0
M  V30 3052 H 281.997 1.04073 3.07569 0
M  V30 3053 H 283.008 4.65091 2.27839 0
M  V30 3054 H 279.685 2.35144 3.44983 0
M  V30 3055 H 281.075 6.26305 2.43294 0
M  V30 3056 N 283.795 -0.628877 1.44509 0
M  V30 3057 C 285.211 -0.947305 1.28446 0
M  V30 3058 C 285.411 -2.00275 0.221872 0
M  V30 3059 O 284.467 -2.49447 -0.391471 0
M  V30 3060 C 285.78 -1.40843 2.65676 0
M  V30 3061 C 287.328 -1.52379 2.73404 0
M  V30 3062 C 287.803 -2.01875 4.11109 0
M  V30 3063 N 289.294 -2.09142 4.13296 0
M  V30 3064 C 290.029 -2.48615 5.16699 0
M  V30 3065 N 289.525 -2.87209 6.30462 0
M  V30 3066 N 291.318 -2.48768 5.04054 0
M  V30 3067 H 283.469 0.0690977 2.12288 0
M  V30 3068 H 285.732 -0.0317164 0.947469 0
M  V30 3069 H 285.438 -0.707206 3.44516 0
M  V30 3070 H 285.312 -2.37902 2.92716 0
M  V30 3071 H 287.699 -2.21598 1.9488 0
M  V30 3072 H 287.78 -0.536898 2.50102 0
M  V30 3073 H 287.424 -1.3325 4.90109 0
M  V30 3074 H 287.354 -3.0144 4.31789 0
M  V30 3075 H 289.845 -1.81991 3.31191 0
M  V30 3076 H 290.158 -3.16149 7.05174 0
M  V30 3077 H 288.503 -2.84955 6.33897 0
M  V30 3078 H 291.694 -2.18009 4.14234 0
M  V30 3079 H 291.867 -2.79207 5.84763 0
M  V30 3080 N 285.273 -1.31445 -0.869486 0
M  V30 3081 C 286.55 -1.11795 -1.60503 0
M  V30 3082 C 286.93 0.327168 -2.08549 0
M  V30 3083 O 286.278 1.32135 -1.8642 0
M  V30 3084 C 286.488 -2.13258 -2.76265 0
M  V30 3085 C 287.836 -2.45805 -3.46215 0
M  V30 3086 O 288.86 -2.11688 -2.86473 0
M  V30 3087 O 287.719 -3.04228 -4.5399 0
M  V30 3088 H 284.813 -0.430421 -0.706163 0
M  V30 3089 H 287.359 -1.42925 -0.914907 0
M  V30 3090 H 286.131 -3.10461 -2.3818 0
M  V30 3091 H 285.754 -1.83035 -3.52964 0
M  V30 3092 N 286.751 1.08385 -1.14413 0
M  V30 3093 C 287.997 1.81044 -0.913834 0
M  V30 3094 C 288.33 1.86004 0.558209 0
M  V30 3095 O 287.605 1.33606 1.4135 0
M  V30 3096 C 287.888 3.26648 -1.51569 0
M  V30 3097 C 287.741 3.29895 -3.0576 0
M  V30 3098 C 289.06 4.23629 -1.19273 0
M  V30 3099 H 286.179 0.65727 -0.333414 0
M  V30 3100 H 288.821 1.26896 -1.41412 0
M  V30 3101 H 286.971 3.72889 -1.09023 0
M  V30 3102 H 288.643 2.91977 -3.57137 0
M  V30 3103 H 286.886 2.69163 -3.40197 0
M  V30 3104 H 287.557 4.32516 -3.42977 0
M  V30 3105 H 290.033 3.85727 -1.56057 0
M  V30 3106 H 288.909 5.23822 -1.64017 0
M  V30 3107 H 289.17 4.41968 -0.108068 0
M  V30 3108 N 288.23 0.939286 1.26551 0
M  V30 3109 C 289.177 0.446088 2.26448 0
M  V30 3110 C 290.147 -0.493234 1.58608 0
M  V30 3111 O 291.332 -0.409857 1.86346 0
M  V30 3112 C 288.472 -0.284375 3.43926 0
M  V30 3113 C 287.585 0.690399 4.26448 0
M  V30 3114 C 286.72 -0.0610712 5.31165 0
M  V30 3115 C 285.759 0.905649 6.05363 0
M  V30 3116 N 284.896 0.186055 7.01853 0
M  V30 3117 H 289.736 1.30291 2.68008 0
M  V30 3118 H 287.273 0.65371 1.31776 0
M  V30 3119 H 289.231 -0.724313 4.10864 0
M  V30 3120 H 287.861 -1.10535 3.03285 0
M  V30 3121 H 286.913 1.24885 3.59316 0
M  V30 3122 H 288.225 1.42873 4.779 0
M  V30 3123 H 287.379 -0.56038 6.04106 0
M  V30 3124 H 286.118 -0.832297 4.80546 0
M  V30 3125 H 285.123 1.4161 5.3125 0
M  V30 3126 H 286.348 1.67685 6.58072 0
M  V30 3127 H 284.294 -0.566714 6.53548 0
M  V30 3128 H 284.211 0.863752 7.51049 0
M  V30 3129 H 285.479 -0.292221 7.78952 0
M  V30 3130 N 289.708 -1.40897 0.706093 0
M  V30 3131 C 291.119 -1.84023 0.315052 0
M  V30 3132 C 291.47 -1.5906 -1.14866 0
M  V30 3133 O 290.595 -1.06651 -1.88293 0
M  V30 3134 C 291.19 -3.34055 0.565038 0
M  V30 3135 C 289.749 -3.7571 0.227806 0
M  V30 3136 C 288.896 -2.64204 0.842122 0
M  V30 3137 H 291.847 -1.303 0.905963 0
M  V30 3138 H 291.868 -3.80107 -0.172843 0
M  V30 3139 H 291.38 -3.52192 1.63042 0
M  V30 3140 H 289.481 -3.63172 -0.832895 0
M  V30 3141 H 289.594 -4.74103 0.690174 0
M  V30 3142 H 287.958 -2.53255 0.270893 0
M  V30 3143 H 288.741 -2.85155 1.91158 0
M  V30 3144 N 291.186 -0.45159 -1.50991 0
M  V30 3145 C 292.411 0.110667 -2.07105 0
M  V30 3146 C 292.836 1.3446 -1.31538 0
M  V30 3147 O 292.194 1.77743 -0.357365 0
M  V30 3148 C 292.242 0.397238 -3.58405 0
M  V30 3149 O 291.346 1.48124 -3.84881 0
M  V30 3150 H 290.687 -0.00439271 -0.663985 0
M  V30 3151 H 293.217 -0.637026 -1.9443 0
M  V30 3152 H 293.227 0.64351 -4.02893 0
M  V30 3153 H 291.902 -0.504553 -4.12828 0
M  V30 3154 H 290.479 1.22381 -3.52246 0
M  V30 3155 N 292.664 1.56529 -0.183458 0
M  V30 3156 C 293.612 2.19873 0.758845 0
M  V30 3157 C 294.606 1.16638 1.22849 0
M  V30 3158 O 295.812 1.3481 1.19274 0
M  V30 3159 H 292.187 0.7045 0.263029 0
M  V30 3160 H 294.158 2.97724 0.200755 0
M  V30 3161 C 292.907 2.86314 1.9728 0
M  V30 3162 H 292.23 3.65487 1.62047 0
M  V30 3163 H 293.67 3.3409 2.61075 0
M  V30 3164 C 292.129 1.86729 2.80418 0
M  V30 3165 O 292.659 1.36031 3.77966 0
M  V30 3166 N 290.865 1.55216 2.45675 0
M  V30 3167 H 290.412 1.96636 1.66409 0
M  V30 3168 H 290.37 0.888388 3.01588 0
M  V30 3169 N 294.142 -0.090211 1.57342 0
M  V30 3170 C 295.391 -0.791531 1.8552 0
M  V30 3171 C 295.704 -1.79659 0.773441 0
M  V30 3172 O 296.91 -2.54616 0.942497 0
M  V30 3173 C 295.366 -1.45856 3.2902 0
M  V30 3174 C 294.974 -0.493017 4.45279 0
M  V30 3175 C 296.718 -2.14332 3.66418 0
M  V30 3176 C 294.625 -1.16491 5.79814 0
M  V30 3177 H 293.555 -0.299356 0.692027 0
M  V30 3178 H 296.206 -0.0445343 1.83446 0
M  V30 3179 H 294.588 -2.25318 3.2565 0
M  V30 3180 H 295.762 0.270464 4.60006 0
M  V30 3181 H 294.077 0.0863061 4.16311 0
M  V30 3182 H 296.674 -2.65344 4.64216 0
M  V30 3183 H 297.017 -2.93447 2.95287 0
M  V30 3184 H 297.55 -1.41724 3.71698 0
M  V30 3185 H 294.289 -0.41447 6.54188 0
M  V30 3186 H 293.809 -1.8997 5.68921 0
M  V30 3187 H 295.488 -1.69001 6.24538 0
M  V30 3188 N 295.62 -1.53406 -0.361157 0
M  V30 3189 C 296.55 -1.83136 -1.44857 0
M  V30 3190 C 297.531 -0.685174 -1.5569 0
M  V30 3191 O 298.716 -0.93544 -1.70186 0
M  V30 3192 C 295.846 -2.02522 -2.82138 0
M  V30 3193 C 294.8 -3.18302 -2.86126 0
M  V30 3194 C 294.126 -3.22989 -4.26125 0
M  V30 3195 C 295.426 -4.56796 -2.53248 0
M  V30 3196 H 297.12 -2.74201 -1.20226 0
M  V30 3197 H 294.666 -1.31938 -0.576922 0
M  V30 3198 H 296.619 -2.21904 -3.58241 0
M  V30 3199 H 295.343 -1.08172 -3.08166 0
M  V30 3200 H 294.002 -2.98747 -2.12475 0
M  V30 3201 H 293.65 -2.26267 -4.49235 0
M  V30 3202 H 293.35 -4.00781 -4.29708 0
M  V30 3203 H 294.874 -3.44559 -5.04094 0
M  V30 3204 H 296.288 -4.7631 -3.19064 0
M  V30 3205 H 294.685 -5.36862 -2.68141 0
M  V30 3206 H 295.755 -4.61606 -1.48484 0
M  V30 3207 N 297.098 0.621204 -1.44841 0
M  V30 3208 C 298.344 1.3826 -1.48365 0
M  V30 3209 C 298.677 1.93831 -0.119624 0
M  V30 3210 O 297.952 1.74251 0.864111 0
M  V30 3211 C 298.235 2.54058 -2.55199 0
M  V30 3212 C 298.088 2.03772 -4.00995 0
M  V30 3213 C 299.407 3.56225 -2.58442 0
M  V30 3214 H 296.526 0.501374 -0.540179 0
M  V30 3215 H 299.168 0.7015 -1.76576 0
M  V30 3216 H 297.318 3.12162 -2.31274 0
M  V30 3217 H 298.99 1.50423 -4.36086 0
M  V30 3218 H 297.233 1.34876 -4.12299 0
M  V30 3219 H 297.904 2.87185 -4.71411 0
M  V30 3220 H 300.38 3.07939 -2.79844 0
M  V30 3221 H 299.256 4.34756 -3.3508 0
M  V30 3222 H 299.517 4.10949 -1.63013 0
M  V30 3223 N 298.576 1.31904 0.862503 0
M  V30 3224 C 299.524 1.20125 1.9918 0
M  V30 3225 C 300.518 0.107824 1.69056 0
M  V30 3226 O 301.724 0.270223 1.7796 0
M  V30 3227 H 298.099 0.372148 0.65346 0
M  V30 3228 H 300.07 2.15652 2.06244 0
M  V30 3229 C 298.819 0.933099 3.34946 0
M  V30 3230 H 298.142 1.76664 3.5865 0
M  V30 3231 H 299.582 0.890892 4.14535 0
M  V30 3232 C 298.041 -0.364172 3.34926 0
M  V30 3233 O 298.571 -1.37858 3.77304 0
M  V30 3234 N 296.777 -0.383362 2.8806 0
M  V30 3235 H 296.324 0.442651 2.53768 0
M  V30 3236 H 296.282 -1.25123 2.8843 0
M  V30 3237 N 300.054 -1.07777 1.14986 0
M  V30 3238 C 301.279 -1.84558 0.946213 0
M  V30 3239 C 301.704 -1.81323 -0.500362 0
M  V30 3240 O 301.062 -1.20301 -1.35637 0
M  V30 3241 C 301.11 -3.29736 1.45968 0
M  V30 3242 O 300.214 -4.07149 0.65601 0
M  V30 3243 H 299.555 -0.571641 0.33782 0
M  V30 3244 H 302.085 -1.35991 1.52865 0
M  V30 3245 H 302.095 -3.80574 1.47063 0
M  V30 3246 H 300.77 -3.31406 2.51283 0
M  V30 3247 H 299.347 -3.65994 0.714322 0
M  V30 3248 N 301.532 -0.945985 -1.26051 0
M  V30 3249 C 302.948 -0.649045 -1.45807 0
M  V30 3250 C 303.148 0.796158 -1.85104 0
M  V30 3251 O 302.204 1.57233 -1.97571 0
M  V30 3252 C 303.517 -1.61458 -2.53677 0
M  V30 3253 C 305.065 -1.62481 -2.67524 0
M  V30 3254 C 305.54 -2.57776 -3.7857 0
M  V30 3255 N 307.031 -2.5609 -3.85969 0
M  V30 3256 C 307.766 -3.26508 -4.7136 0
M  V30 3257 N 307.262 -4.0637 -5.61102 0
M  V30 3258 N 309.055 -3.15437 -4.65248 0
M  V30 3259 H 301.206 -1.88005 -0.988328 0
M  V30 3260 H 303.469 -0.808198 -0.4955 0
M  V30 3261 H 303.175 -2.64644 -2.31638 0
M  V30 3262 H 303.049 -1.37036 -3.51427 0
M  V30 3263 H 305.436 -0.600167 -2.88933 0
M  V30 3264 H 305.517 -1.90958 -1.70202 0
M  V30 3265 H 305.161 -3.60361 -3.57913 0
M  V30 3266 H 305.091 -2.26587 -4.75359 0
M  V30 3267 H 307.582 -1.98105 -3.21812 0
M  V30 3268 H 307.895 -4.57042 -6.23164 0
M  V30 3269 H 306.24 -4.10469 -5.60839 0
M  V30 3270 H 309.431 -2.52525 -3.94143 0
M  V30 3271 H 309.604 -3.70584 -5.31575 0
M  V30 3272 N 303.011 1.40521 -0.713556 0
M  V30 3273 C 304.259 2.00527 -0.251692 0
M  V30 3274 C 304.58 1.56857 1.15848 0
M  V30 3275 O 303.85 0.807127 1.785 0
M  V30 3276 H 302.43 0.741551 -0.0900646 0
M  V30 3277 H 305.092 1.71887 -0.918733 0
M  V30 3278 H 304.188 3.10813 -0.283192 0
M  V30 3279 N 304.489 0.459591 1.5075 0
M  V30 3280 C 305.399 -0.34613 2.32033 0
M  V30 3281 C 306.415 -1.00686 1.41909 0
M  V30 3282 O 307.591 -0.997361 1.7497 0
M  V30 3283 C 304.656 -1.42029 3.16273 0
M  V30 3284 C 303.717 -0.777362 4.22203 0
M  V30 3285 C 302.95 -1.80034 5.02418 0
M  V30 3286 O 303.173 -3.02544 4.83553 0
M  V30 3287 O 302.107 -1.37853 5.85901 0
M  V30 3288 H 305.933 0.318054 3.0203 0
M  V30 3289 H 303.518 0.221663 1.47746 0
M  V30 3290 H 305.4 -2.04275 3.68578 0
M  V30 3291 H 304.075 -2.06815 2.49016 0
M  V30 3292 H 302.982 -0.116256 3.73919 0
M  V30 3293 H 304.315 -0.172634 4.91897 0
M  V30 3294 N 305.967 -1.56429 0.191757 0
M  V30 3295 C 307.216 -1.9666 -0.448088 0
M  V30 3296 C 307.529 -1.08136 -1.62991 0
M  V30 3297 O 308.735 -1.38135 -2.33733 0
M  V30 3298 C 307.191 -3.49753 -0.848585 0
M  V30 3299 C 306.799 -4.46935 0.308764 0
M  V30 3300 C 308.543 -3.9876 -1.4557 0
M  V30 3301 C 306.45 -5.91293 -0.112506 0
M  V30 3302 H 305.38 -0.734312 -0.171179 0
M  V30 3303 H 308.031 -1.81301 0.283242 0
M  V30 3304 H 306.413 -3.60604 -1.63649 0
M  V30 3305 H 307.587 -4.47813 1.08627 0
M  V30 3306 H 305.902 -4.08102 0.827158 0
M  V30 3307 H 308.499 -5.04086 -1.78328 0
M  V30 3308 H 308.842 -3.42875 -2.36099 0
M  V30 3309 H 309.375 -3.9101 -0.731836 0
M  V30 3310 H 306.114 -6.51097 0.758514 0
M  V30 3311 H 305.634 -5.93676 -0.854941 0
M  V30 3312 H 307.313 -6.44663 -0.549448 0
M  V30 3313 N 307.445 0.0818655 -1.57387 0
M  V30 3314 C 308.392 1.09834 -2.0299 0
M  V30 3315 C 309.362 1.39043 -0.908639 0
M  V30 3316 O 310.547 1.50282 -1.17559 0
M  V30 3317 C 307.687 2.40971 -2.47037 0
M  V30 3318 C 306.8 2.18379 -3.7274 0
M  V30 3319 C 305.935 3.43008 -4.0561 0
M  V30 3320 C 304.974 3.15736 -5.24383 0
M  V30 3321 N 304.111 4.32667 -5.52941 0
M  V30 3322 H 308.951 0.702472 -2.89602 0
M  V30 3323 H 306.488 0.33531 -1.43227 0
M  V30 3324 H 308.446 3.1752 -2.70623 0
M  V30 3325 H 307.076 2.78379 -1.63417 0
M  V30 3326 H 306.128 1.32569 -3.56552 0
M  V30 3327 H 307.44 1.94227 -4.59431 0
M  V30 3328 H 306.594 4.27958 -4.30043 0
M  V30 3329 H 305.333 3.70225 -3.17466 0
M  V30 3330 H 304.338 2.2918 -4.99757 0
M  V30 3331 H 305.563 2.8985 -6.14136 0
M  V30 3332 H 303.509 4.59935 -4.67756 0
M  V30 3333 H 303.426 4.11753 -6.34031 0
M  V30 3334 H 304.694 5.18644 -5.81918 0
M  V30 3335 N 308.923 1.53595 0.353017 0
M  V30 3336 C 309.853 1.83902 1.43883 0
M  V30 3337 C 310.834 0.693421 1.55324 0
M  V30 3338 O 312.019 0.944452 1.69687 0
M  V30 3339 C 309.149 2.04016 2.8106 0
M  V30 3340 C 308.103 3.19814 2.84434 0
M  V30 3341 C 307.429 3.25244 4.24406 0
M  V30 3342 C 308.729 4.58133 2.50822 0
M  V30 3343 H 310.423 2.74835 1.1877 0
M  V30 3344 H 307.969 1.32242 0.569917 0
M  V30 3345 H 309.922 2.238 3.57059 0
M  V30 3346 H 308.646 1.09804 3.07588 0
M  V30 3347 H 307.305 2.9987 2.10887 0
M  V30 3348 H 306.953 2.28646 4.48029 0
M  V30 3349 H 306.653 4.03054 4.27576 0
M  V30 3350 H 308.177 3.47228 5.0226 0
M  V30 3351 H 309.591 4.77995 3.16534 0
M  V30 3352 H 307.988 5.38276 2.6529 0
M  V30 3353 H 309.058 4.62387 1.46034 0
M  V30 3354 N 310.401 -0.613514 1.45168 0
M  V30 3355 C 311.641 -1.38405 1.5041 0
M  V30 3356 C 312.005 -1.91489 0.139922 0
M  V30 3357 O 313.206 -2.68716 0.067033 0
M  V30 3358 C 311.477 -2.50552 2.5487 0
M  V30 3359 S 313.036 -3.38439 2.79292 0
M  V30 3360 H 309.854 -0.471945 0.531779 0
M  V30 3361 H 312.456 -0.708518 1.82209 0
M  V30 3362 H 311.16 -2.09894 3.52665 0
M  V30 3363 H 310.691 -3.22913 2.24701 0
M  V30 3364 H 312.706 -4.48527 2.12222 0
M  V30 3365 N 311.879 -1.3236 -0.855495 0
M  V30 3366 C 313.156 -1.13491 -1.59309 0
M  V30 3367 C 313.536 0.30503 -2.08885 0
M  V30 3368 O 312.884 1.30151 -1.87811 0
M  V30 3369 C 313.094 -2.16176 -2.73987 0
M  V30 3370 C 314.442 -2.49463 -3.43589 0
M  V30 3371 O 315.466 -2.14715 -2.84211 0
M  V30 3372 O 314.325 -3.09027 -4.50738 0
M  V30 3373 H 311.419 -0.437887 -0.701559 0
M  V30 3374 H 313.965 -1.43887 -0.899696 0
M  V30 3375 H 312.737 -3.1297 -2.34873 0
M  V30 3376 H 312.36 -1.86769 -3.51003 0
M  V30 3377 N 313.357 1.07166 -1.15556 0
M  V30 3378 C 314.604 1.79798 -0.931604 0
M  V30 3379 C 314.932 1.8682 0.54115 0
M  V30 3380 O 314.187 1.34942 1.41736 0
M  V30 3381 C 314.486 3.24707 -1.49332 0
M  V30 3382 C 314.152 3.37781 -2.98688 0
M  V30 3383 C 312.814 3.41057 -3.39461 0
M  V30 3384 C 315.166 3.40424 -3.94665 0
M  V30 3385 C 312.494 3.4458 -4.74849 0
M  V30 3386 C 314.846 3.45485 -5.29927 0
M  V30 3387 C 313.51 3.47039 -5.70193 0
M  V30 3388 H 312.78 0.657928 -0.340898 0
M  V30 3389 H 315.427 1.26091 -1.44129 0
M  V30 3390 H 313.732 3.81208 -0.904859 0
M  V30 3391 H 315.429 3.79486 -1.29582 0
M  V30 3392 H 312.019 3.35932 -2.66172 0
M  V30 3393 H 316.203 3.37113 -3.64237 0
M  V30 3394 H 311.459 3.44083 -5.05388 0
M  V30 3395 H 315.633 3.46476 -6.04092 0
M  V30 3396 H 313.26 3.49522 -6.75084 0
M  V30 3397 N 314.835 0.952656 1.25548 0
M  V30 3398 C 316.083 0.605176 1.92826 0
M  V30 3399 C 316.404 -0.860261 1.74999 0
M  V30 3400 O 315.674 -1.6125 1.11244 0
M  V30 3401 H 314.254 0.220832 0.713612 0
M  V30 3402 H 316.916 1.21047 1.52754 0
M  V30 3403 H 316.012 0.832798 3.00784 0
M  V30 3404 N 316.313 -1.40141 0.720998 0
M  V30 3405 C 317.559 -2.01084 0.263231 0
M  V30 3406 C 317.892 -1.57052 -1.14229 0
M  V30 3407 O 317.167 -0.793027 -1.77599 0
M  V30 3408 C 317.45 -3.58401 0.349344 0
M  V30 3409 C 317.303 -4.12491 1.79363 0
M  V30 3410 C 318.622 -4.39231 -0.276351 0
M  V30 3411 H 315.741 -0.730572 0.0971228 0
M  V30 3412 H 318.383 -1.66543 0.914518 0
M  V30 3413 H 316.533 -3.87958 -0.205165 0
M  V30 3414 H 318.205 -3.93711 2.40394 0
M  V30 3415 H 316.448 -3.66576 2.31958 0
M  V30 3416 H 317.119 -5.21646 1.80524 0
M  V30 3417 H 319.595 -4.15637 0.196184 0
M  V30 3418 H 318.471 -5.48586 -0.185681 0
M  V30 3419 H 318.732 -4.20643 -1.36059 0
M  V30 3420 N 317.792 -0.46758 -1.50504 0
M  V30 3421 C 319.017 0.0886943 -2.0721 0
M  V30 3422 C 319.442 1.33057 -1.32956 0
M  V30 3423 O 318.8 1.77354 -0.376197 0
M  V30 3424 C 318.848 0.359202 -3.58806 0
M  V30 3425 O 317.952 1.44034 -3.8643 0
M  V30 3426 H 317.293 -0.0114349 -0.663902 0
M  V30 3427 H 319.823 -0.657613 -1.93744 0
M  V30 3428 H 319.833 0.600742 -4.03553 0
M  V30 3429 H 318.508 -0.548311 -4.1227 0
M  V30 3430 H 317.085 1.18638 -3.53524 0
M  V30 3431 N 319.27 1.56325 -0.20005 0
M  V30 3432 C 320.518 1.97329 0.436547 0
M  V30 3433 C 320.839 1.08826 1.61808 0
M  V30 3434 O 320.109 0.160604 1.95241 0
M  V30 3435 H 318.689 0.728714 0.164272 0
M  V30 3436 H 321.351 1.92761 -0.287937 0
M  V30 3437 H 320.447 3.02264 0.777353 0
M  V30 3438 N 320.748 -0.0735177 1.57428 0
M  V30 3439 C 321.68 -1.11423 2.00294 0
M  V30 3440 C 322.693 -1.35084 0.908637 0
M  V30 3441 O 323.882 -1.33355 1.18654 0
M  V30 3442 C 320.982 -2.46548 2.32523 0
M  V30 3443 C 320.155 -2.42867 3.63778 0
M  V30 3444 C 319.214 -3.60087 3.83697 0
M  V30 3445 O 318.24 -3.41595 4.55304 0
M  V30 3446 N 319.442 -4.80372 3.25919 0
M  V30 3447 H 322.207 -0.749206 2.90184 0
M  V30 3448 H 319.768 -0.262195 1.59763 0
M  V30 3449 H 321.76 -3.23607 2.43024 0
M  V30 3450 H 320.33 -2.75059 1.48531 0
M  V30 3451 H 319.55 -1.51206 3.64047 0
M  V30 3452 H 320.838 -2.37506 4.49965 0
M  V30 3453 H 320.236 -4.983 2.67795 0
M  V30 3454 H 318.793 -5.54948 3.41871 0
M  V30 3455 N 322.226 -1.5378 -0.344866 0
M  V30 3456 C 323.156 -1.84662 -1.42906 0
M  V30 3457 C 324.137 -0.701648 -1.54955 0
M  V30 3458 O 325.322 -0.953438 -1.69184 0
M  V30 3459 C 322.452 -2.05503 -2.79974 0
M  V30 3460 C 321.406 -3.21318 -2.82734 0
M  V30 3461 C 320.732 -3.2749 -4.22675 0
M  V30 3462 C 322.032 -4.59456 -2.48389 0
M  V30 3463 H 323.726 -2.75461 -1.17311 0
M  V30 3464 H 321.272 -1.32542 -0.562896 0
M  V30 3465 H 323.225 -2.25691 -3.55867 0
M  V30 3466 H 321.949 -1.11434 -3.07002 0
M  V30 3467 H 320.608 -3.00984 -2.09294 0
M  V30 3468 H 320.256 -2.31019 -4.4681 0
M  V30 3469 H 319.956 -4.05316 -4.25433 0
M  V30 3470 H 321.48 -3.49887 -5.00412 0
M  V30 3471 H 322.894 -4.79667 -3.13995 0
M  V30 3472 H 321.291 -5.39675 -2.62432 0
M  V30 3473 H 322.361 -4.63155 -1.4358 0
M  V30 3474 N 323.704 0.605807 -1.45491 0
M  V30 3475 C 324.953 1.36086 -1.48874 0
M  V30 3476 C 325.266 1.95131 -0.135333 0
M  V30 3477 O 326.472 2.7146 -0.0468144 0
M  V30 3478 C 324.928 2.46518 -2.62215 0
M  V30 3479 C 324.536 1.93877 -4.03876 0
M  V30 3480 C 326.28 3.23512 -2.74846 0
M  V30 3481 C 324.187 3.01801 -5.08596 0
M  V30 3482 H 323.117 0.511497 -0.553974 0
M  V30 3483 H 325.768 0.649089 -1.71636 0
M  V30 3484 H 324.15 3.20388 -2.32739 0
M  V30 3485 H 325.324 1.26704 -4.43038 0
M  V30 3486 H 323.639 1.29622 -3.95711 0
M  V30 3487 H 326.236 4.04013 -3.50253 0
M  V30 3488 H 326.579 3.74631 -1.81542 0
M  V30 3489 H 327.112 2.56742 -3.03856 0
M  V30 3490 H 323.851 2.55597 -6.03614 0
M  V30 3491 H 323.371 3.67535 -4.74002 0
M  V30 3492 H 325.05 3.66152 -5.33424 0
M  V30 3493 N 325.182 1.32811 0.848464 0
M  V30 3494 C 326.459 1.14334 1.58704 0
M  V30 3495 C 326.839 -0.293948 2.09043 0
M  V30 3496 O 326.187 -1.29153 1.88499 0
M  V30 3497 C 326.397 2.17626 2.72837 0
M  V30 3498 C 327.745 2.51282 3.42261 0
M  V30 3499 O 328.769 2.16219 2.83068 0
M  V30 3500 O 327.628 3.11413 4.49093 0
M  V30 3501 H 324.722 0.441601 0.699226 0
M  V30 3502 H 327.268 1.44362 0.892053 0
M  V30 3503 H 326.04 3.14211 2.3321 0
M  V30 3504 H 325.663 1.88628 3.50008 0
M  V30 3505 N 326.66 -1.06551 1.16123 0
M  V30 3506 C 327.885 -1.83544 0.965735 0
M  V30 3507 C 328.31 -1.81843 -0.481102 0
M  V30 3508 O 327.668 -1.21732 -1.34354 0
M  V30 3509 C 327.716 -3.28169 1.49457 0
M  V30 3510 O 326.82 -4.0643 0.699157 0
M  V30 3511 H 326.161 -0.568026 0.343864 0
M  V30 3512 H 328.691 -1.34362 1.54299 0
M  V30 3513 H 328.701 -3.78992 1.51092 0
M  V30 3514 H 327.376 -3.28722 2.54784 0
M  V30 3515 H 325.953 -3.65216 0.7531 0
M  V30 3516 N 328.138 -0.959301 -1.25041 0
M  V30 3517 C 329.071 -0.427418 -2.24161 0
M  V30 3518 C 330.049 0.493837 -1.54919 0
M  V30 3519 O 331.233 0.427144 -1.83597 0
M  V30 3520 C 328.36 0.383893 -3.36517 0
M  V30 3521 C 327.406 -0.478431 -4.23808 0
M  V30 3522 S 328.239 -1.91353 -5.00144 0
M  V30 3523 C 329.395 -1.11077 -6.15965 0
M  V30 3524 H 329.628 -1.26743 -2.6893 0
M  V30 3525 H 327.161 -0.763714 -1.34189 0
M  V30 3526 H 329.119 0.846039 -4.01687 0
M  V30 3527 H 327.78 1.19878 -2.90324 0
M  V30 3528 H 326.973 0.14406 -5.03794 0
M  V30 3529 H 326.575 -0.87597 -3.63597 0
M  V30 3530 H 328.867 -0.361699 -6.76534 0
M  V30 3531 H 329.81 -1.88472 -6.82557 0
M  V30 3532 H 330.218 -0.638843 -5.60873 0
M  V30 3533 N 329.616 1.39756 -0.72842 0
M  V30 3534 C 330.579 2.29012 -0.0927297 0
M  V30 3535 C 331.579 1.45992 0.674025 0
M  V30 3536 O 332.769 1.66749 0.50402 0
M  V30 3537 C 329.901 3.29396 0.878137 0
M  V30 3538 H 331.094 2.86729 -0.879011 0
M  V30 3539 H 328.647 1.48293 -0.493847 0
M  V30 3540 H 329.382 2.76722 1.69101 0
M  V30 3541 H 329.167 3.907 0.331051 0
M  V30 3542 H 330.657 3.96199 1.3197 0
M  V30 3543 N 331.094 0.475555 1.50254 0
M  V30 3544 C 332.042 -0.330276 2.30243 0
M  V30 3545 C 333.036 -0.986306 1.37726 0
M  V30 3546 O 334.242 -0.9169 1.54897 0
M  V30 3547 H 330.617 -0.125353 0.741479 0
M  V30 3548 H 332.588 0.364702 2.96163 0
M  V30 3549 C 331.337 -1.39704 3.18399 0
M  V30 3550 H 330.66 -0.901621 3.89501 0
M  V30 3551 H 332.1 -1.93336 3.77355 0
M  V30 3552 C 330.559 -2.4014 2.36293 0
M  V30 3553 O 331.089 -3.45504 2.04914 0
M  V30 3554 N 329.295 -2.1197 1.98789 0
M  V30 3555 H 328.842 -1.2631 2.24507 0
M  V30 3556 H 328.8 -2.79403 1.44157 0
M  V30 3557 N 332.573 -1.56217 0.208337 0
M  V30 3558 C 333.798 -2.02782 -0.435222 0
M  V30 3559 C 334.223 -1.08738 -1.53485 0
M  V30 3560 O 333.581 -0.0731855 -1.81152 0
M  V30 3561 C 333.629 -3.47687 -0.956335 0
M  V30 3562 O 332.733 -3.56773 -2.06849 0
M  V30 3563 H 332.074 -0.656403 -0.100158 0
M  V30 3564 H 334.604 -2.02033 0.3231 0
M  V30 3565 H 334.614 -3.87745 -1.26955 0
M  V30 3566 H 333.289 -4.15624 -0.15143 0
M  V30 3567 H 331.866 -3.28597 -1.76292 0
M  V30 3568 N 334.051 0.0651679 -1.57465 0
M  V30 3569 C 335.298 0.763063 -1.87573 0
M  V30 3570 C 335.626 1.77242 -0.800961 0
M  V30 3571 O 334.881 1.94651 0.202316 0
M  V30 3572 C 335.18 1.50081 -3.24362 0
M  V30 3573 C 334.846 0.630816 -4.46466 0
M  V30 3574 C 333.508 0.391082 -4.79608 0
M  V30 3575 C 335.86 0.0279465 -5.21193 0
M  V30 3576 C 333.188 -0.460894 -5.84887 0
M  V30 3577 C 335.54 -0.811522 -6.27373 0
M  V30 3578 C 334.204 -1.06106 -6.59013 0
M  V30 3579 H 333.474 0.279224 -0.686378 0
M  V30 3580 H 336.121 0.0236726 -1.91485 0
M  V30 3581 H 334.426 2.31258 -3.16271 0
M  V30 3582 H 336.123 2.04571 -3.44894 0
M  V30 3583 H 332.713 0.8278 -4.2053 0
M  V30 3584 H 336.897 0.200262 -4.95896 0
M  V30 3585 H 332.153 -0.662907 -6.07796 0
M  V30 3586 H 336.327 -1.28537 -6.84435 0
M  V30 3587 H 333.954 -1.723 -7.40417 0
M  V30 3588 N 335.529 1.53961 0.336706 0
M  V30 3589 C 336.775 1.7179 1.07777 0
M  V30 3590 C 337.108 0.483263 1.88091 0
M  V30 3591 O 336.383 -0.519747 1.87427 0
M  V30 3592 C 336.666 2.98558 2.01334 0
M  V30 3593 C 336.519 4.32245 1.24437 0
M  V30 3594 C 337.838 3.21023 3.01052 0
M  V30 3595 H 334.957 0.625089 0.390426 0
M  V30 3596 H 337.599 1.86641 0.35567 0
M  V30 3597 H 335.749 2.86028 2.62908 0
M  V30 3598 H 337.421 4.56637 0.654243 0
M  V30 3599 H 335.664 4.30344 0.546458 0
M  V30 3600 H 336.335 5.17137 1.93063 0
M  V30 3601 H 338.811 3.32929 2.49595 0
M  V30 3602 H 337.687 4.11104 3.6371 0
M  V30 3603 H 337.948 2.37637 3.72802 0
M  V30 3604 N 337.007 -0.598083 1.45811 0
M  V30 3605 C 338.255 -1.35413 1.50026 0
M  V30 3606 C 338.576 -1.94444 0.147177 0
M  V30 3607 O 337.846 -1.77701 -0.824571 0
M  V30 3608 H 336.426 -0.502727 0.552517 0
M  V30 3609 H 339.088 -0.701606 1.81834 0
M  V30 3610 H 338.184 -2.16871 2.2444 0
M  V30 3611 N 338.485 -1.33259 -0.841409 0
M  V30 3612 C 339.713 -1.27605 -1.62864 0
M  V30 3613 C 340.128 0.153507 -1.88175 0
M  V30 3614 O 339.485 1.09485 -1.46011 0
M  V30 3615 C 339.536 -2.04596 -2.98031 0
M  V30 3616 O 339.257 -3.41975 -2.73834 0
M  V30 3617 C 340.758 -2.06122 -3.92465 0
M  V30 3618 H 337.978 -0.439718 -0.506842 0
M  V30 3619 H 340.522 -1.75591 -1.04824 0
M  V30 3620 H 338.677 -1.60299 -3.5268 0
M  V30 3621 H 339.091 -3.81549 -3.59889 0
M  V30 3622 H 340.565 -2.64451 -4.84531 0
M  V30 3623 H 341.042 -1.05083 -4.26444 0
M  V30 3624 H 341.648 -2.50427 -3.43753 0
M  V30 3625 N 339.963 1.05934 -1.16686 0
M  V30 3626 C 341.379 1.30938 -0.912542 0
M  V30 3627 C 341.579 1.96803 0.432533 0
M  V30 3628 O 340.635 2.23693 1.17123 0
M  V30 3629 C 341.948 2.18649 -2.06429 0
M  V30 3630 C 343.496 2.32055 -2.10047 0
M  V30 3631 C 343.971 3.23122 -3.24586 0
M  V30 3632 N 345.462 3.30706 -3.24327 0
M  V30 3633 C 346.197 4.01273 -4.09594 0
M  V30 3634 N 345.693 4.74332 -5.04956 0
M  V30 3635 N 347.486 3.97361 -3.97569 0
M  V30 3636 H 339.637 0.615777 -2.03278 0
M  V30 3637 H 341.9 0.334077 -0.887185 0
M  V30 3638 H 341.606 1.77534 -3.03603 0
M  V30 3639 H 341.48 3.19252 -2.00894 0
M  V30 3640 H 343.867 2.72415 -1.13464 0
M  V30 3641 H 343.948 1.31107 -2.19647 0
M  V30 3642 H 343.592 2.83477 -4.2143 0
M  V30 3643 H 343.522 4.24057 -3.12223 0
M  V30 3644 H 346.013 2.78644 -2.55276 0
M  V30 3645 H 346.326 5.25716 -5.6643 0
M  V30 3646 H 344.671 4.733 -5.08933 0
M  V30 3647 H 347.862 3.39405 -3.22369 0
M  V30 3648 H 348.035 4.52089 -4.64241 0
M  V30 3649 N 341.441 0.965919 1.2453 0
M  V30 3650 C 342.666 0.643971 1.97149 0
M  V30 3651 C 343.091 -0.779487 1.71189 0
M  V30 3652 O 342.449 -1.5288 0.974553 0
M  V30 3653 C 342.497 0.922557 3.48599 0
M  V30 3654 O 341.601 0.00707672 4.12399 0
M  V30 3655 H 340.942 0.243647 0.617683 0
M  V30 3656 H 343.472 1.29558 1.58353 0
M  V30 3657 H 343.482 0.853373 3.98976 0
M  V30 3658 H 342.157 1.95996 3.66822 0
M  V30 3659 H 340.734 0.12943 3.72675 0
M  V30 3660 N 342.919 -1.39368 0.735821 0
M  V30 3661 C 344.149 -2.04498 0.293967 0
M  V30 3662 C 344.557 -1.55593 -1.07645 0
M  V30 3663 O 343.9 -0.716324 -1.69158 0
M  V30 3664 C 343.962 -3.58836 0.218342 0
M  V30 3665 C 343.626 -4.30721 1.52736 0
M  V30 3666 C 344.623 -4.57305 2.47322 0
M  V30 3667 C 342.308 -4.69251 1.79189 0
M  V30 3668 C 344.302 -5.21429 3.66593 0
M  V30 3669 C 341.989 -5.33104 2.98737 0
M  V30 3670 C 342.987 -5.59125 3.9226 0
M  V30 3671 O 342.675 -6.21653 5.09708 0
M  V30 3672 H 342.407 -0.664118 0.126189 0
M  V30 3673 H 344.961 -1.79385 1.00051 0
M  V30 3674 H 343.191 -3.8285 -0.544314 0
M  V30 3675 H 344.88 -4.05447 -0.191626 0
M  V30 3676 H 345.646 -4.27983 2.28156 0
M  V30 3677 H 341.525 -4.48354 1.07239 0
M  V30 3678 H 345.069 -5.41656 4.39607 0
M  V30 3679 H 340.966 -5.61846 3.17803 0
M  V30 3680 H 341.734 -6.40146 5.10054 0
M  V30 3681 N 344.397 -0.483516 -1.5 0
M  V30 3682 C 345.33 0.350427 -2.25493 0
M  V30 3683 C 346.308 0.985549 -1.29328 0
M  V30 3684 O 347.492 1.01906 -1.58579 0
M  V30 3685 C 344.619 1.49202 -3.04066 0
M  V30 3686 C 343.665 0.973036 -4.15252 0
M  V30 3687 S 344.498 -0.122237 -5.3536 0
M  V30 3688 C 345.654 1.02294 -6.17484 0
M  V30 3689 H 345.887 -0.290381 -2.95878 0
M  V30 3690 H 343.42 -0.268562 -1.52046 0
M  V30 3691 H 345.378 2.14623 -3.49925 0
M  V30 3692 H 344.039 2.10438 -2.33183 0
M  V30 3693 H 343.232 1.82804 -4.69679 0
M  V30 3694 H 342.834 0.396335 -3.71894 0
M  V30 3695 H 345.126 1.93195 -6.49371 0
M  V30 3696 H 346.069 0.517664 -7.06205 0
M  V30 3697 H 346.477 1.28238 -5.49741 0
M  V30 3698 N 345.875 1.56104 -0.216619 0
M  V30 3699 C 346.838 2.18819 0.681962 0
M  V30 3700 C 347.838 1.14866 1.12528 0
M  V30 3701 O 349.028 1.40128 1.03488 0
M  V30 3702 C 346.16 2.80756 1.93362 0
M  V30 3703 H 347.353 2.99595 0.135254 0
M  V30 3704 H 344.906 1.56265 0.0330003 0
M  V30 3705 H 345.641 2.03837 2.52232 0
M  V30 3706 H 345.426 3.56876 1.62426 0
M  V30 3707 H 346.916 3.28844 2.57393 0
M  V30 3708 N 347.353 -0.0568162 1.57498 0
M  V30 3709 C 348.764 -0.606858 1.76562 0
M  V30 3710 C 349.115 -1.77114 0.844094 0
M  V30 3711 O 348.24 -2.16376 0.0318911 0
M  V30 3712 C 348.835 -1.10766 3.20182 0
M  V30 3713 C 347.394 -1.60344 3.40539 0
M  V30 3714 C 346.541 -0.529311 2.72201 0
M  V30 3715 H 349.492 0.169393 1.57793 0
M  V30 3716 H 349.513 -1.97602 3.25167 0
M  V30 3717 H 349.025 -0.26006 3.87228 0
M  V30 3718 H 347.126 -2.47379 2.78629 0
M  V30 3719 H 347.239 -1.67006 4.4905 0
M  V30 3720 H 345.603 -0.977893 2.35179 0
M  V30 3721 H 346.386 0.308352 3.41912 0
M  V30 3722 N 348.832 -1.54138 -0.328536 0
M  V30 3723 C 349.742 -1.86192 -1.42723 0
M  V30 3724 C 350.758 -0.753382 -1.56844 0
M  V30 3725 O 351.934 -1.04718 -1.72035 0
M  V30 3726 C 348.999 -2.07824 -2.77507 0
M  V30 3727 C 348.06 -3.31641 -2.72603 0
M  V30 3728 C 347.293 -3.52232 -4.00959 0
M  V30 3729 O 347.516 -2.7636 -4.9898 0
M  V30 3730 O 346.45 -4.45699 -4.0452 0
M  V30 3731 H 350.276 -2.79608 -1.18547 0
M  V30 3732 H 347.861 -1.3998 -0.522104 0
M  V30 3733 H 349.743 -2.23411 -3.57303 0
M  V30 3734 H 348.418 -1.17596 -3.01584 0
M  V30 3735 H 347.325 -3.21444 -1.91376 0
M  V30 3736 H 348.658 -4.2191 -2.53481 0
M  V30 3737 N 350.31 0.590341 -1.46126 0
M  V30 3738 C 351.726 0.912917 -1.30912 0
M  V30 3739 C 351.926 1.99616 -0.274893 0
M  V30 3740 O 350.982 2.50397 0.325197 0
M  V30 3741 C 352.295 1.3375 -2.69317 0
M  V30 3742 C 353.843 1.45077 -2.77348 0
M  V30 3743 C 354.318 1.90904 -4.16317 0
M  V30 3744 N 355.809 1.9811 -4.18696 0
M  V30 3745 C 356.544 2.34828 -5.23109 0
M  V30 3746 N 356.04 2.70393 -6.37856 0
M  V30 3747 N 357.833 2.35317 -5.10473 0
M  V30 3748 H 349.984 -0.125358 -2.1203 0
M  V30 3749 H 352.247 0.00658481 -0.947977 0
M  V30 3750 H 351.953 0.615614 -3.4627 0
M  V30 3751 H 351.827 2.30058 -2.9892 0
M  V30 3752 H 354.214 2.16353 -2.00687 0
M  V30 3753 H 354.295 0.4704 -2.51438 0
M  V30 3754 H 353.939 1.20209 -4.9347 0
M  V30 3755 H 353.869 2.89886 -4.39629 0
M  V30 3756 H 356.36 1.73146 -3.359 0
M  V30 3757 H 356.673 2.97341 -7.13308 0
M  V30 3758 H 355.018 2.68048 -6.41229 0
M  V30 3759 H 358.209 2.0695 -4.19868 0
M  V30 3760 H 358.382 2.63605 -5.9196 0
M  V30 3761 N 351.788 1.33704 0.83433 0
M  V30 3762 C 352.718 1.26967 1.95963 0
M  V30 3763 C 353.699 0.149337 1.69443 0
M  V30 3764 O 354.884 0.339852 1.91203 0
M  V30 3765 C 352.014 1.01275 3.32206 0
M  V30 3766 C 350.968 2.09652 3.73136 0
M  V30 3767 C 350.294 1.69166 5.07235 0
M  V30 3768 C 351.594 3.51372 3.86439 0
M  V30 3769 H 353.288 2.2112 2.01857 0
M  V30 3770 H 350.834 1.06447 0.969793 0
M  V30 3771 H 352.787 0.952106 4.10503 0
M  V30 3772 H 351.511 0.0356203 3.26581 0
M  V30 3773 H 350.17 2.14766 2.97104 0
M  V30 3774 H 349.818 0.701437 4.98085 0
M  V30 3775 H 349.518 2.41694 5.35591 0
M  V30 3776 H 351.042 1.64576 5.88003 0
M  V30 3777 H 352.456 3.48734 4.55036 0
M  V30 3778 H 350.853 4.22425 4.26236 0
M  V30 3779 H 351.923 3.89546 2.88759 0
M  V30 3780 N 353.266 -1.05314 1.17247 0
M  V30 3781 C 354.198 -2.13023 0.845812 0
M  V30 3782 C 355.211 -1.62096 -0.151246 0
M  V30 3783 O 356.4 -1.78343 0.0748818 0
M  V30 3784 C 353.5 -3.38047 0.240292 0
M  V30 3785 C 352.673 -4.18255 1.27991 0
M  V30 3786 C 351.732 -5.21625 0.692375 0
M  V30 3787 O 350.758 -5.52619 1.36385 0
M  V30 3788 N 351.96 -5.78201 -0.516178 0
M  V30 3789 H 354.725 -2.41642 1.77283 0
M  V30 3790 H 352.286 -1.21401 1.07115 0
M  V30 3791 H 354.278 -4.04359 -0.16603 0
M  V30 3792 H 352.848 -3.06972 -0.590487 0
M  V30 3793 H 352.068 -3.47451 1.86203 0
M  V30 3794 H 353.356 -4.68643 1.98119 0
M  V30 3795 H 352.754 -5.55301 -1.07969 0
M  V30 3796 H 351.311 -6.4604 -0.86458 0
M  V30 3797 N 354.744 -0.972509 -1.24016 0
M  V30 3798 C 355.992 -0.635776 -1.91839 0
M  V30 3799 C 356.313 0.832312 -1.76345 0
M  V30 3800 O 355.583 1.5946 -1.13795 0
M  V30 3801 H 354.163 -0.232157 -0.710009 0
M  V30 3802 H 356.825 -1.23462 -1.50809 0
M  V30 3803 H 355.921 -0.880545 -2.99421 0
M  V30 3804 N 356.222 1.38976 -0.743202 0
M  V30 3805 C 357.45 2.04636 -0.30525 0
M  V30 3806 C 357.865 1.56044 1.06281 0
M  V30 3807 O 357.222 0.728921 1.67311 0
M  V30 3808 C 357.273 3.60193 -0.307177 0
M  V30 3809 O 356.994 4.06998 -1.62124 0
M  V30 3810 C 358.495 4.4306 0.145928 0
M  V30 3811 H 355.715 0.65788 -0.132041 0
M  V30 3812 H 358.259 1.77866 -1.00915 0
M  V30 3813 H 356.414 3.85835 0.347898 0
M  V30 3814 H 356.828 5.01371 -1.54036 0
M  V30 3815 H 358.302 5.51921 0.0934183 0
M  V30 3816 H 358.779 4.22706 1.19231 0
M  V30 3817 H 359.385 4.22584 -0.479886 0
M  V30 3818 N 357.7 0.491464 1.49741 0
M  V30 3819 C 358.65 -0.311086 2.25868 0
M  V30 3820 C 359.634 -0.943857 1.30308 0
M  V30 3821 O 360.826 -0.853035 1.55088 0
M  V30 3822 C 357.955 -1.38059 3.14316 0
M  V30 3823 C 357.041 -0.754541 4.17334 0
M  V30 3824 N 357.432 0.137216 5.05614 0
M  V30 3825 C 355.73 -1.01621 4.34269 0
M  V30 3826 C 356.431 0.494614 5.79593 0
M  V30 3827 N 355.407 -0.135169 5.43432 0
M  V30 3828 H 359.209 0.37555 2.91491 0
M  V30 3829 H 356.723 0.306917 1.59473 0
M  V30 3830 H 358.72 -1.96891 3.67477 0
M  V30 3831 H 357.38 -2.06901 2.50244 0
M  V30 3832 H 358.391 0.50741 5.15408 0
M  V30 3833 H 355.068 -1.69808 3.81407 0
M  V30 3834 H 356.458 1.2236 6.60665 0
M  V30 3835 N 359.178 -1.55987 0.224894 0
M  V30 3836 C 360.408 -2.02489 -0.41007 0
M  V30 3837 C 360.816 -1.10391 -1.53657 0
M  V30 3838 O 360.159 -0.106458 -1.83391 0
M  V30 3839 C 360.221 -3.45319 -0.999757 0
M  V30 3840 C 359.885 -4.56999 -0.00827976 0
M  V30 3841 C 360.882 -5.13812 0.793314 0
M  V30 3842 C 358.567 -5.02176 0.111442 0
M  V30 3843 C 360.561 -6.14276 1.7013 0
M  V30 3844 C 358.248 -6.02477 1.02296 0
M  V30 3845 C 359.246 -6.58403 1.81643 0
M  V30 3846 O 358.934 -7.56751 2.71262 0
M  V30 3847 H 358.666 -0.667915 -0.104235 0
M  V30 3848 H 361.22 -2.0257 0.339782 0
M  V30 3849 H 359.45 -3.42318 -1.79876 0
M  V30 3850 H 361.139 -3.7545 -1.54248 0
M  V30 3851 H 361.905 -4.79756 0.711288 0
M  V30 3852 H 357.784 -4.58323 -0.49605 0
M  V30 3853 H 361.328 -6.57854 2.32107 0
M  V30 3854 H 357.225 -6.35954 1.10599 0
M  V30 3855 H 357.993 -7.74286 2.65375 0
M  V30 3856 N 360.656 0.0484629 -1.57525 0
M  V30 3857 C 361.881 0.759177 -1.93006 0
M  V30 3858 C 362.306 1.69125 -0.823317 0
M  V30 3859 O 361.664 1.79931 0.222364 0
M  V30 3860 C 361.712 1.50899 -3.27509 0
M  V30 3861 O 360.816 2.62112 -3.18388 0
M  V30 3862 H 360.157 0.205564 -0.631379 0
M  V30 3863 H 362.687 0.00972959 -2.04598 0
M  V30 3864 H 362.697 1.88317 -3.6194 0
M  V30 3865 H 361.372 0.825269 -4.0763 0
M  V30 3866 H 359.949 2.27379 -2.95556 0
M  V30 3867 N 362.134 1.5431 0.320358 0
M  V30 3868 C 363.38 1.72924 1.05949 0
M  V30 3869 C 363.713 0.503185 1.87568 0
M  V30 3870 O 362.988 -0.499839 1.87968 0
M  V30 3871 C 363.271 3.00676 1.98156 0
M  V30 3872 C 363.124 4.3354 1.19845 0
M  V30 3873 C 364.443 3.24198 2.9763 0
M  V30 3874 H 361.562 0.629195 0.383774 0
M  V30 3875 H 364.204 1.87008 0.335854 0
M  V30 3876 H 362.354 2.888 2.59859 0
M  V30 3877 H 364.026 4.57305 0.605773 0
M  V30 3878 H 362.269 4.309 0.500784 0
M  V30 3879 H 362.94 5.19156 1.87567 0
M  V30 3880 H 365.416 3.35557 2.4605 0
M  V30 3881 H 364.292 4.14938 3.59329 0
M  V30 3882 H 364.553 2.41577 3.7026 0
M  V30 3883 N 363.613 -0.582584 1.46437 0
M  V30 3884 C 364.545 -1.70618 1.53043 0
M  V30 3885 C 365.558 -1.57322 0.418769 0
M  V30 3886 O 366.747 -1.64744 0.687136 0
M  V30 3887 C 363.847 -3.08869 1.39474 0
M  V30 3888 C 363.02 -3.48166 2.64762 0
M  V30 3889 C 362.079 -4.65478 2.4539 0
M  V30 3890 O 361.105 -4.71333 3.19114 0
M  V30 3891 N 362.307 -5.60365 1.51564 0
M  V30 3892 H 365.072 -1.65405 2.49923 0
M  V30 3893 H 362.633 -0.768567 1.42494 0
M  V30 3894 H 364.625 -3.85143 1.24287 0
M  V30 3895 H 363.195 -3.08449 0.507758 0
M  V30 3896 H 362.415 -2.61598 2.9489 0
M  V30 3897 H 363.703 -3.71188 3.4799 0
M  V30 3898 H 363.101 -5.5837 0.907705 0
M  V30 3899 H 361.658 -6.36068 1.4234 0
M  V30 3900 N 365.091 -1.34144 -0.827227 0
M  V30 3901 C 366.316 -1.29476 -1.62021 0
M  V30 3902 C 366.741 0.129292 -1.87655 0
M  V30 3903 O 366.099 1.08967 -1.449 0
M  V30 3904 C 366.147 -2.08702 -2.94068 0
M  V30 3905 O 365.251 -1.45359 -3.85933 0
M  V30 3906 H 364.592 -0.444881 -0.492927 0
M  V30 3907 H 367.122 -1.76882 -1.02829 0
M  V30 3908 H 367.132 -2.19898 -3.43669 0
M  V30 3909 H 365.807 -3.12241 -2.74734 0
M  V30 3910 H 364.384 -1.42879 -3.44442 0
M  V30 3911 N 366.569 1.04691 -1.17803 0
M  V30 3912 C 367.846 1.7472 -0.879328 0
M  V30 3913 C 368.226 2.01812 0.619271 0
M  V30 3914 O 367.574 1.65824 1.57209 0
M  V30 3915 C 367.784 3.03686 -1.71976 0
M  V30 3916 C 369.132 3.77542 -1.94286 0
M  V30 3917 O 370.156 3.13569 -1.68976 0
M  V30 3918 O 369.015 4.92506 -2.36855 0
M  V30 3919 H 366.109 0.760011 -0.326056 0
M  V30 3920 H 368.655 1.10813 -1.28525 0
M  V30 3921 H 367.427 2.79754 -2.73594 0
M  V30 3922 H 367.05 3.75332 -1.31194 0
M  V30 3923 N 368.047 0.979072 1.23499 0
M  V30 3924 C 369.296 0.642751 1.91185 0
M  V30 3925 C 369.609 -0.827253 1.77245 0
M  V30 3926 O 370.815 -1.27458 2.39722 0
M  V30 3927 C 369.271 1.09901 3.42709 0
M  V30 3928 C 368.879 2.59327 3.65313 0
M  V30 3929 C 370.623 0.836371 4.16179 0
M  V30 3930 C 368.53 2.98627 5.10467 0
M  V30 3931 H 367.46 0.236698 0.715884 0
M  V30 3932 H 370.111 1.1868 1.39955 0
M  V30 3933 H 368.493 0.48319 3.93041 0
M  V30 3934 H 369.667 3.26136 3.25533 0
M  V30 3935 H 367.982 2.83323 3.05151 0
M  V30 3936 H 370.579 1.10586 5.23139 0
M  V30 3937 H 370.922 -0.227509 4.15678 0
M  V30 3938 H 371.455 1.41371 3.71832 0
M  V30 3939 H 368.194 4.04133 5.16098 0
M  V30 3940 H 367.714 2.3651 5.51201 0
M  V30 3941 H 369.393 2.89159 5.78788 0
M  V30 3942 N 369.525 -1.3858 0.750561 0
M  V30 3943 C 370.771 -2.0095 0.31477 0
M  V30 3944 C 371.126 -1.58509 -1.09053 0
M  V30 3945 O 370.419 -0.8112 -1.7358 0
M  V30 3946 C 370.613 -3.55455 0.372373 0
M  V30 3947 C 370.442 -4.12898 1.78173 0
M  V30 3948 C 369.212 -4.44797 2.39757 0
M  V30 3949 C 371.41 -4.35366 2.7379 0
M  V30 3950 N 369.392 -4.87831 3.72685 0
M  V30 3951 C 370.763 -4.80775 3.91478 0
M  V30 3952 C 372.818 -4.1746 2.71351 0
M  V30 3953 C 371.521 -5.10155 5.07084 0
M  V30 3954 C 373.547 -4.47963 3.86113 0
M  V30 3955 C 372.909 -4.93593 5.02539 0
M  V30 3956 H 369.008 -0.765083 0.161776 0
M  V30 3957 H 371.592 -1.68246 0.979867 0
M  V30 3958 H 369.763 -3.87512 -0.26244 0
M  V30 3959 H 371.495 -4.04614 -0.0834479 0
M  V30 3960 H 368.25 -4.33135 1.91548 0
M  V30 3961 H 368.674 -5.13685 4.40972 0
M  V30 3962 H 373.316 -3.81372 1.82524 0
M  V30 3963 H 371.034 -5.45141 5.96529 0
M  V30 3964 H 374.62 -4.35717 3.85542 0
M  V30 3965 H 373.5 -5.16746 5.89867 0
M  V30 3966 N 371.003 -0.499398 -1.49478 0
M  V30 3967 C 372.228 0.044722 -2.07352 0
M  V30 3968 C 372.653 1.30207 -1.35749 0
M  V30 3969 O 372.011 1.76516 -0.413732 0
M  V30 3970 C 372.059 0.283013 -3.59488 0
M  V30 3971 O 371.163 1.35804 -3.89398 0
M  V30 3972 H 370.504 -0.0255147 -0.66351 0
M  V30 3973 H 373.034 -0.698561 -1.92305 0
M  V30 3974 H 373.044 0.515007 -4.04737 0
M  V30 3975 H 371.719 -0.635636 -4.11014 0
M  V30 3976 H 370.296 1.11113 -3.55961 0
M  V30 3977 N 372.481 1.55866 -0.233164 0
M  V30 3978 C 373.414 2.16794 0.712442 0
M  V30 3979 C 374.392 1.1158 1.18273 0
M  V30 3980 O 375.576 1.39897 1.26337 0
M  V30 3981 C 372.703 2.75757 1.96661 0
M  V30 3982 C 371.749 3.93902 1.63533 0
M  V30 3983 S 372.582 5.30223 0.74995 0
M  V30 3984 C 373.738 5.92631 2.01343 0
M  V30 3985 H 373.971 2.96662 0.194617 0
M  V30 3986 H 371.504 1.5439 -0.0177425 0
M  V30 3987 H 373.462 3.10367 2.68668 0
M  V30 3988 H 372.123 1.9586 2.45556 0
M  V30 3989 H 371.316 4.33702 2.56747 0
M  V30 3990 H 370.918 3.60499 0.995804 0
M  V30 3991 H 373.21 6.09312 2.96219 0
M  V30 3992 H 374.153 6.88388 1.65915 0
M  V30 3993 H 374.561 5.21571 2.15925 0
M  V30 3994 N 373.959 -0.0401083 1.57549 0
M  V30 3995 C 375.207 -0.731677 1.8839 0
M  V30 3996 C 375.528 -1.76481 0.829425 0
M  V30 3997 O 374.798 -1.95411 -0.1383 0
M  V30 3998 H 373.378 -0.273225 0.695239 0
M  V30 3999 H 376.04 -0.00867725 1.94898 0
M  V30 4000 H 375.136 -1.22816 2.86919 0
M  V30 4001 N 375.437 -1.54477 -0.31217 0
M  V30 4002 C 376.367 -1.87652 -1.38957 0
M  V30 4003 C 377.348 -0.734358 -1.53431 0
M  V30 4004 O 378.533 -0.98911 -1.67123 0
M  V30 4005 C 375.663 -2.11396 -2.75552 0
M  V30 4006 C 374.617 -3.27243 -2.75855 0
M  V30 4007 C 373.943 -3.36382 -4.15633 0
M  V30 4008 C 375.243 -4.64622 -2.38587 0
M  V30 4009 H 376.937 -2.77887 -1.11442 0
M  V30 4010 H 374.483 -1.33707 -0.534655 0
M  V30 4011 H 376.436 -2.33189 -3.51 0
M  V30 4012 H 375.16 -1.17921 -3.04569 0
M  V30 4013 H 373.819 -3.05356 -2.02863 0
M  V30 4014 H 373.467 -2.40445 -4.41809 0
M  V30 4015 H 373.167 -4.14249 -4.1674 0
M  V30 4016 H 374.691 -3.60422 -4.92877 0
M  V30 4017 H 376.105 -4.86219 -3.03749 0
M  V30 4018 H 374.502 -5.45121 -2.50925 0
M  V30 4019 H 375.572 -4.66097 -1.33723 0
M  V30 4020 N 376.915 0.57481 -1.46744 0
M  V30 4021 C 378.14 1.36341 -1.56288 0
M  V30 4022 C 378.565 1.86954 -0.207347 0
M  V30 4023 O 377.923 1.62006 0.813871 0
M  V30 4024 C 377.971 2.52147 -2.57787 0
M  V30 4025 O 377.075 3.53834 -2.11838 0
M  V30 4026 H 376.416 0.405713 -0.525636 0
M  V30 4027 H 378.946 0.696453 -1.92382 0
M  V30 4028 H 378.956 2.98958 -2.77648 0
M  V30 4029 H 377.631 2.14663 -3.5622 0
M  V30 4030 H 376.208 3.1345 -2.01999 0
M  V30 4031 N 378.394 1.34581 0.820102 0
M  V30 4032 C 379.324 1.29038 1.94606 0
M  V30 4033 C 380.305 0.1673 1.69275 0
M  V30 4034 O 381.49 0.360112 1.90832 0
M  V30 4035 C 378.62 1.04793 3.31113 0
M  V30 4036 C 377.574 2.13597 3.70891 0
M  V30 4037 C 376.9 1.74537 5.05412 0
M  V30 4038 C 378.2 3.55451 3.8269 0
M  V30 4039 H 379.894 2.23248 1.99501 0
M  V30 4040 H 377.44 1.0747 0.958449 0
M  V30 4041 H 379.393 0.995592 4.0947 0
M  V30 4042 H 378.117 0.0702565 3.26524 0
M  V30 4043 H 376.776 2.17905 2.9481 0
M  V30 4044 H 376.424 0.754226 4.97313 0
M  V30 4045 H 376.124 2.47361 5.32997 0
M  V30 4046 H 377.648 1.70803 5.86224 0
M  V30 4047 H 379.062 3.5354 4.51312 0
M  V30 4048 H 377.459 4.26922 4.21732 0
M  V30 4049 H 378.529 3.92587 2.84611 0
M  V30 4050 N 379.872 -1.04064 1.18357 0
M  V30 4051 C 381.118 -1.77528 0.980397 0
M  V30 4052 C 381.451 -1.87948 -0.48879 0
M  V30 4053 O 380.726 -1.3876 -1.36293 0
M  V30 4054 C 381.009 -3.20797 1.63588 0
M  V30 4055 C 380.862 -3.1832 3.17793 0
M  V30 4056 C 382.181 -4.18911 1.34914 0
M  V30 4057 H 379.3 -0.644443 0.357578 0
M  V30 4058 H 381.942 -1.2156 1.46024 0
M  V30 4059 H 380.092 -3.68586 1.22788 0
M  V30 4060 H 381.764 -2.78521 3.67728 0
M  V30 4061 H 380.007 -2.56351 3.49952 0
M  V30 4062 H 380.678 -4.19489 3.58794 0
M  V30 4063 H 383.154 -3.7967 1.70265 0
M  V30 4064 H 382.03 -5.17374 1.83346 0
M  V30 4065 H 382.291 -4.41262 0.272027 0
M  V30 4066 N 381.35 -0.985608 -1.22978 0
M  V30 4067 C 382.26 -0.538548 -2.28335 0
M  V30 4068 C 383.276 0.409163 -1.69121 0
M  V30 4069 O 384.452 0.277797 -1.99475 0
M  V30 4070 C 381.517 0.146867 -3.46389 0
M  V30 4071 C 380.578 -0.842896 -4.20944 0
M  V30 4072 C 379.811 -0.190095 -5.33361 0
M  V30 4073 O 380.034 1.01767 -5.61248 0
M  V30 4074 O 378.968 -0.891289 -5.95264 0
M  V30 4075 H 382.794 -1.41487 -2.68729 0
M  V30 4076 H 380.379 -0.753495 -1.29007 0
M  V30 4077 H 382.261 0.531125 -4.1804 0
M  V30 4078 H 380.936 0.997871 -3.07935 0
M  V30 4079 H 379.843 -1.27795 -3.51595 0
M  V30 4080 H 381.176 -1.66287 -4.6326 0
M  V30 4081 N 382.828 1.3818 -0.7579 0
M  V30 4082 C 383.758 2.33027 -0.148597 0
M  V30 4083 C 384.739 1.55085 0.69875 0
M  V30 4084 O 385.924 1.83384 0.639053 0
M  V30 4085 C 383.054 3.3928 0.742034 0
M  V30 4086 C 382.008 4.28 -0.00291946 0
M  V30 4087 C 381.334 5.25146 1.00625 0
M  V30 4088 C 382.634 5.08938 -1.17385 0
M  V30 4089 H 384.328 2.84231 -0.940909 0
M  V30 4090 H 381.874 1.36659 -0.453908 0
M  V30 4091 H 383.827 4.046 1.17799 0
M  V30 4092 H 382.551 2.86569 1.56671 0
M  V30 4093 H 381.21 3.64192 -0.419504 0
M  V30 4094 H 380.858 4.68721 1.8251 0
M  V30 4095 H 380.558 5.85361 0.512428 0
M  V30 4096 H 382.082 5.93342 1.44143 0
M  V30 4097 H 383.496 5.67474 -0.815224 0
M  V30 4098 H 381.893 5.7841 -1.59882 0
M  V30 4099 H 382.963 4.42424 -1.98468 0
M  V30 4100 N 384.306 0.507319 1.49211 0
M  V30 4101 C 385.269 -0.256763 2.27757 0
M  V30 4102 C 386.269 -0.888287 1.34038 0
M  V30 4103 O 387.459 -0.751841 1.5714 0
M  V30 4104 C 384.591 -1.36905 3.12202 0
M  V30 4105 H 385.784 0.432557 2.96764 0
M  V30 4106 H 383.337 0.262488 1.5408 0
M  V30 4107 H 384.072 -2.09233 2.47775 0
M  V30 4108 H 383.857 -0.921599 3.81115 0
M  V30 4109 H 385.347 -1.9071 3.7151 0
M  V30 4110 N 385.784 -1.5574 0.241426 0
M  V30 4111 C 387.03 -1.99104 -0.385406 0
M  V30 4112 C 387.363 -1.1293 -1.57988 0
M  V30 4113 O 386.638 -0.191449 -1.93555 0
M  V30 4114 C 386.921 -3.51087 -0.800616 0
M  V30 4115 C 386.774 -4.48028 0.398874 0
M  V30 4116 C 388.093 -4.08015 -1.64959 0
M  V30 4117 H 385.212 -0.723848 -0.138614 0
M  V30 4118 H 387.854 -1.86903 0.341642 0
M  V30 4119 H 386.004 -3.61615 -1.4201 0
M  V30 4120 H 387.676 -4.49487 1.03726 0
M  V30 4121 H 385.919 -4.21077 1.04293 0
M  V30 4122 H 386.59 -5.51962 0.0651056 0
M  V30 4123 H 389.066 -4.00555 -1.12672 0
M  V30 4124 H 387.942 -5.14635 -1.90898 0
M  V30 4125 H 388.203 -3.56131 -2.61961 0
M  V30 4126 N 387.262 0.0317525 -1.57568 0
M  V30 4127 C 388.51 0.721676 -1.88776 0
M  V30 4128 C 388.831 1.76039 -0.838772 0
M  V30 4129 O 388.101 1.95482 0.127935 0
M  V30 4130 H 386.681 0.269534 -0.696678 0
M  V30 4131 H 389.343 -0.00165879 -1.949 0
M  V30 4132 H 388.439 1.21293 -2.87566 0
M  V30 4133 N 388.74 1.54641 0.303973 0
M  V30 4134 C 390.156 1.45788 0.649463 0
M  V30 4135 C 390.356 0.64666 1.90842 0
M  V30 4136 O 389.412 0.153183 2.52035 0
M  V30 4137 C 390.725 2.89718 0.805227 0
M  V30 4138 C 392.273 2.99742 0.901305 0
M  V30 4139 C 392.748 4.44863 1.08909 0
M  V30 4140 N 394.239 4.48559 1.15536 0
M  V30 4141 C 394.974 5.58026 1.3189 0
M  V30 4142 N 394.47 6.77422 1.45161 0
M  V30 4143 N 396.263 5.45708 1.34755 0
M  V30 4144 H 388.414 2.05854 -0.523237 0
M  V30 4145 H 390.677 0.932186 -0.172431 0
M  V30 4146 H 390.383 3.51666 -0.0489108 0
M  V30 4147 H 390.257 3.36964 1.69513 0
M  V30 4148 H 392.644 2.3791 1.74593 0
M  V30 4149 H 392.725 2.55797 -0.0125531 0
M  V30 4150 H 392.369 5.07288 0.249241 0
M  V30 4151 H 392.299 4.86436 2.01713 0
M  V30 4152 H 394.79 3.6254 1.06646 0
M  V30 4153 H 395.103 7.56604 1.57387 0
M  V30 4154 H 393.448 6.80292 1.42223 0
M  V30 4155 H 396.639 4.51378 1.23996 0
M  V30 4156 H 396.812 6.3107 1.47157 0
M  V30 4157 N 390.218 -0.567019 1.47046 0
M  V30 4158 C 391.448 -1.34831 1.56538 0
M  V30 4159 C 391.856 -1.8802 0.21101 0
M  V30 4160 O 391.199 -1.65152 -0.804387 0
M  V30 4161 C 391.261 -2.56139 2.52256 0
M  V30 4162 C 390.925 -2.24307 3.98165 0
M  V30 4163 C 391.922 -1.82192 4.86931 0
M  V30 4164 C 389.607 -2.35968 4.43423 0
M  V30 4165 C 391.601 -1.52153 6.18973 0
M  V30 4166 C 389.288 -2.05542 5.75496 0
M  V30 4167 C 390.286 -1.63701 6.63092 0
M  V30 4168 O 389.974 -1.33657 7.92711 0
M  V30 4169 H 389.706 -0.417683 0.531523 0
M  V30 4170 H 392.26 -0.694726 1.93294 0
M  V30 4171 H 390.49 -3.24356 2.10548 0
M  V30 4172 H 392.179 -3.18214 2.51982 0
M  V30 4173 H 392.945 -1.72684 4.53217 0
M  V30 4174 H 388.824 -2.67495 3.75456 0
M  V30 4175 H 392.368 -1.19421 6.87302 0
M  V30 4176 H 388.265 -2.14679 6.08755 0
M  V30 4177 H 389.033 -1.4737 8.05124 0
M  V30 4178 N 391.696 -1.35014 -0.812953 0
M  V30 4179 C 393.107 -1.25035 -1.38648 0
M  V30 4180 C 393.458 0.119967 -1.95833 0
M  V30 4181 O 392.583 1.02069 -1.90816 0
M  V30 4182 C 393.178 -2.26394 -2.52054 0
M  V30 4183 C 391.737 -2.20175 -3.05287 0
M  V30 4184 C 390.884 -2.12451 -1.78213 0
M  V30 4185 H 393.835 -1.46235 -0.616516 0
M  V30 4186 H 393.856 -1.88672 -3.30429 0
M  V30 4187 H 393.368 -3.26116 -2.10404 0
M  V30 4188 H 391.469 -1.23841 -3.51417 0
M  V30 4189 H 391.582 -3.11863 -3.63701 0
M  V30 4190 H 389.946 -1.58328 -1.9951 0
M  V30 4191 H 390.729 -3.14024 -1.38723 0
M  V30 4192 N 393.175 1.03435 -1.18907 0
M  V30 4193 C 394.424 1.76143 -0.982669 0
M  V30 4194 C 394.737 1.89416 0.487953 0
M  V30 4195 O 395.943 2.59041 0.813036 0
M  V30 4196 C 394.399 3.16722 -1.70924 0
M  V30 4197 C 394.007 3.11522 -3.21959 0
M  V30 4198 C 395.751 3.93764 -1.58588 0
M  V30 4199 C 393.658 4.46999 -3.87228 0
M  V30 4200 H 392.588 0.660292 -0.364047 0
M  V30 4201 H 395.239 1.158 -1.42347 0
M  V30 4202 H 393.621 3.775 -1.19623 0
M  V30 4203 H 394.795 2.60158 -3.80335 0
M  V30 4204 H 393.11 2.47978 -3.34508 0
M  V30 4205 H 395.707 4.93963 -2.04707 0
M  V30 4206 H 396.05 4.12794 -0.539142 0
M  V30 4207 H 396.583 3.39576 -2.07203 0
M  V30 4208 H 393.322 4.33174 -4.91976 0
M  V30 4209 H 392.842 4.98441 -3.33642 0
M  V30 4210 H 394.521 5.15898 -3.90459 0
M  V30 4211 N 394.653 0.992116 1.22453 0
M  V30 4212 C 396.064 0.702776 1.72968 0
M  V30 4213 C 396.415 -0.780399 1.80012 0
M  V30 4214 O 395.54 -1.61007 1.44589 0
M  V30 4215 C 396.135 1.26903 3.14135 0
M  V30 4216 C 394.694 1.02909 3.62059 0
M  V30 4217 C 393.841 1.38969 2.39964 0
M  V30 4218 H 396.792 1.16457 1.07812 0
M  V30 4219 H 396.813 0.647223 3.74955 0
M  V30 4220 H 396.325 2.34851 3.08977 0
M  V30 4221 H 394.426 -0.0337979 3.72585 0
M  V30 4222 H 394.539 1.69191 4.48231 0
M  V30 4223 H 392.903 0.808279 2.41535 0
M  V30 4224 H 393.686 2.4792 2.37467 0
M  V30 4225 N 396.131 -1.37776 0.765217 0
M  V30 4226 C 397.542 -1.82521 0.392819 0
M  V30 4227 C 397.893 -1.63789 -1.08017 0
M  V30 4228 O 397.018 -1.14542 -1.83601 0
M  V30 4229 C 397.613 -3.31358 0.706214 0
M  V30 4230 C 396.172 -3.74406 0.386952 0
M  V30 4231 C 395.319 -2.60394 0.953422 0
M  V30 4232 H 398.27 -1.2634 0.960412 0
M  V30 4233 H 398.291 -3.80498 -0.0114706 0
M  V30 4234 H 397.803 -3.44959 1.77833 0
M  V30 4235 H 395.904 -3.66377 -0.678112 0
M  V30 4236 H 396.017 -4.70749 0.890636 0
M  V30 4237 H 394.381 -2.51878 0.378064 0
M  V30 4238 H 395.164 -2.76791 2.03081 0
M  V30 4239 N 397.609 -0.515225 -1.4894 0
M  V30 4240 C 399.02 -0.0710067 -1.86565 0
M  V30 4241 C 399.371 1.34733 -1.42623 0
M  V30 4242 O 398.496 2.00653 -0.810379 0
M  V30 4243 C 399.091 -0.122083 -3.3858 0
M  V30 4244 C 397.65 0.266863 -3.75453 0
M  V30 4245 C 396.797 -0.488376 -2.72966 0
M  V30 4246 H 399.748 -0.727266 -1.41055 0
M  V30 4247 H 399.769 0.669818 -3.74558 0
M  V30 4248 H 399.281 -1.15448 -3.70531 0
M  V30 4249 H 397.382 1.30196 -3.49113 0
M  V30 4250 H 397.495 -0.0624811 -4.79059 0
M  V30 4251 H 395.859 0.0635622 -2.54621 0
M  V30 4252 H 396.642 -1.52113 -3.07761 0
M  V30 4253 N 399.087 1.5561 -0.249682 0
M  V30 4254 C 400.364 1.90932 0.424761 0
M  V30 4255 C 400.744 1.17078 1.75658 0
M  V30 4256 O 400.092 0.289176 2.26663 0
M  V30 4257 C 400.302 3.43975 0.590109 0
M  V30 4258 C 401.65 4.15281 0.884714 0
M  V30 4259 O 402.674 3.49729 0.67587 0
M  V30 4260 O 401.533 5.31236 1.28259 0
M  V30 4261 H 398.627 0.794815 0.228468 0
M  V30 4262 H 401.173 1.67135 -0.293954 0
M  V30 4263 H 399.945 3.89748 -0.34818 0
M  V30 4264 H 399.568 3.73644 1.35926 0
M  V30 4265 N 400.565 -0.0233959 1.57583 0
M  V30 4266 C 401.528 -1.00693 2.05897 0
M  V30 4267 C 402.528 -1.28693 0.964092 0
M  V30 4268 O 403.718 -1.23602 1.22753 0
M  V30 4269 C 400.85 -2.33825 2.4807 0
M  V30 4270 H 402.043 -0.589476 2.9405 0
M  V30 4271 H 399.596 -0.270354 1.53944 0
M  V30 4272 H 400.331 -2.80307 1.6309 0
M  V30 4273 H 400.116 -2.1483 3.2801 0
M  V30 4274 H 401.606 -3.04426 2.85857 0
M  V30 4275 N 402.043 -1.548 -0.295768 0
M  V30 4276 C 402.99 -1.86113 -1.36494 0
M  V30 4277 C 403.96 -0.7105 -1.50137 0
M  V30 4278 O 405.145 -0.959626 -1.64912 0
M  V30 4279 C 402.285 -2.11861 -2.72413 0
M  V30 4280 C 401.398 -3.39471 -2.67177 0
M  V30 4281 C 400.533 -3.55035 -3.95125 0
M  V30 4282 C 399.572 -4.76418 -3.84308 0
M  V30 4283 N 398.709 -4.8876 -5.04042 0
M  V30 4284 H 403.549 -2.77314 -1.09091 0
M  V30 4285 H 401.086 -1.37315 -0.52753 0
M  V30 4286 H 403.044 -2.24786 -3.51464 0
M  V30 4287 H 401.674 -1.2392 -2.98066 0
M  V30 4288 H 400.726 -3.35139 -1.79962 0
M  V30 4289 H 402.038 -4.28646 -2.55076 0
M  V30 4290 H 401.192 -3.67653 -4.82614 0
M  V30 4291 H 399.931 -2.64002 -4.10066 0
M  V30 4292 H 398.936 -4.63827 -2.95202 0
M  V30 4293 H 400.161 -5.68863 -3.70906 0
M  V30 4294 H 398.107 -4.00652 -5.19436 0
M  V30 4295 H 398.024 -5.71945 -4.94384 0
M  V30 4296 H 399.292 -5.0574 -5.93167 0
M  V30 4297 N 403.521 0.559213 -1.47345 0
M  V30 4298 C 404.431 1.69388 -1.62311 0
M  V30 4299 C 405.447 1.6648 -0.505993 0
M  V30 4300 O 406.623 1.85964 -0.773262 0
M  V30 4301 C 403.688 3.05894 -1.63185 0
M  V30 4302 C 402.749 3.19885 -2.86307 0
M  V30 4303 C 401.982 4.49879 -2.87131 0
M  V30 4304 O 402.205 5.35217 -1.97229 0
M  V30 4305 O 401.139 4.67618 -3.78968 0
M  V30 4306 H 404.965 1.59706 -2.58317 0
M  V30 4307 H 402.55 0.728989 -1.30407 0
M  V30 4308 H 404.432 3.87133 -1.66451 0
M  V30 4309 H 403.107 3.15964 -0.70345 0
M  V30 4310 H 402.014 2.38052 -2.88587 0
M  V30 4311 H 403.347 3.14718 -3.78435 0
M  V30 4312 N 404.999 1.35443 0.805782 0
M  V30 4313 C 405.929 1.31095 1.93226 0
M  V30 4314 C 406.91 0.185244 1.69088 0
M  V30 4315 O 408.095 0.380332 1.90439 0
M  V30 4316 C 405.225 1.08299 3.29983 0
M  V30 4317 C 404.179 2.17519 3.68605 0
M  V30 4318 C 403.505 1.79887 5.03532 0
M  V30 4319 C 404.805 3.5949 3.78898 0
M  V30 4320 H 406.499 2.25352 1.97122 0
M  V30 4321 H 404.045 1.0848 0.946996 0
M  V30 4322 H 405.998 1.03897 4.08391 0
M  V30 4323 H 404.722 0.104885 3.26432 0
M  V30 4324 H 403.381 2.2102 2.92482 0
M  V30 4325 H 403.029 0.80693 4.96485 0
M  V30 4326 H 402.729 2.53001 5.30344 0
M  V30 4327 H 404.253 1.77011 5.84379 0
M  V30 4328 H 405.667 3.58307 4.47536 0
M  V30 4329 H 404.064 4.31371 4.1718 0
M  V30 4330 H 405.134 3.95584 2.80431 0
M  V30 4331 N 406.477 -1.02803 1.19454 0
M  V30 4332 C 407.387 -2.14575 0.948408 0
M  V30 4333 C 408.403 -1.73757 -0.091871 0
M  V30 4334 O 409.579 -2.01185 0.0929654 0
M  V30 4335 C 406.644 -3.43202 0.491265 0
M  V30 4336 C 405.705 -3.98328 1.60103 0
M  V30 4337 C 404.938 -5.20816 1.16561 0
M  V30 4338 O 405.161 -5.70392 0.0295238 0
M  V30 4339 O 404.095 -5.68801 1.96849 0
M  V30 4340 H 407.921 -2.38202 1.88397 0
M  V30 4341 H 405.506 -1.12989 0.977433 0
M  V30 4342 H 407.388 -4.20687 0.245015 0
M  V30 4343 H 406.063 -3.21018 -0.415851 0
M  V30 4344 H 404.97 -3.22174 1.90144 0
M  V30 4345 H 406.303 -4.24879 2.48473 0
M  V30 4346 N 407.956 -0.998596 -1.21925 0
M  V30 4347 C 408.919 -0.558679 -2.22287 0
M  V30 4348 C 409.919 0.361525 -1.56683 0
M  V30 4349 O 411.109 0.152695 -1.73529 0
M  V30 4350 C 408.241 0.18661 -3.40389 0
M  V30 4351 H 409.434 -1.4463 -2.62721 0
M  V30 4352 H 406.987 -0.786413 -1.35075 0
M  V30 4353 H 407.722 1.08996 -3.05435 0
M  V30 4354 H 407.507 -0.474188 -3.89222 0
M  V30 4355 H 408.997 0.482367 -4.14805 0
M  V30 4356 N 409.434 1.37368 -0.772513 0
M  V30 4357 C 410.683 1.98918 -0.333861 0
M  V30 4358 C 410.996 1.62017 1.09589 0
M  V30 4359 O 412.202 2.16676 1.63596 0
M  V30 4360 C 410.658 3.55735 -0.545971 0
M  V30 4361 C 410.266 4.01573 -1.98603 0
M  V30 4362 C 412.01 4.24156 -0.170979 0
M  V30 4363 C 409.917 5.51102 -2.1457 0
M  V30 4364 H 408.847 0.744214 -0.121085 0
M  V30 4365 H 411.498 1.56888 -0.95175 0
M  V30 4366 H 409.88 3.95748 0.141387 0
M  V30 4367 H 411.054 3.72803 -2.7084 0
M  V30 4368 H 409.369 3.45937 -2.31769 0
M  V30 4369 H 411.966 5.34024 -0.26878 0
M  V30 4370 H 412.309 4.06917 0.878855 0
M  V30 4371 H 412.842 3.89447 -0.810914 0
M  V30 4372 H 409.581 5.73268 -3.17875 0
M  V30 4373 H 409.101 5.81554 -1.46817 0
M  V30 4374 H 410.78 6.17083 -1.94468 0
M  V30 4375 N 410.912 0.523116 1.48665 0
M  V30 4376 C 412.159 -0.0134763 2.02496 0
M  V30 4377 C 412.487 -1.3493 1.40086 0
M  V30 4378 O 411.742 -1.88286 0.533567 0
M  V30 4379 C 412.041 -0.191671 3.56886 0
M  V30 4380 C 411.707 1.06893 4.38046 0
M  V30 4381 C 410.369 1.41443 4.59943 0
M  V30 4382 C 412.721 1.90584 4.85106 0
M  V30 4383 C 410.049 2.59594 5.26144 0
M  V30 4384 C 412.401 3.07907 5.52609 0
M  V30 4385 C 411.065 3.42811 5.72745 0
M  V30 4386 H 410.335 -0.00493133 0.740984 0
M  V30 4387 H 412.982 0.687751 1.78724 0
M  V30 4388 H 411.287 -0.97561 3.79459 0
M  V30 4389 H 412.984 -0.621659 3.96152 0
M  V30 4390 H 409.574 0.789848 4.21259 0
M  V30 4391 H 413.758 1.65203 4.67997 0
M  V30 4392 H 409.014 2.86847 5.39934 0
M  V30 4393 H 413.188 3.73066 5.88043 0
M  V30 4394 H 410.815 4.34462 6.23816 0
M  V30 4395 N 412.39 -1.55475 0.257931 0
M  V30 4396 C 413.638 -1.98813 -0.363009 0
M  V30 4397 C 413.959 -1.14757 -1.57657 0
M  V30 4398 O 413.229 -0.232956 -1.9451 0
M  V30 4399 H 411.809 -0.734308 -0.137113 0
M  V30 4400 H 414.471 -1.9156 0.359281 0
M  V30 4401 H 413.567 -3.04941 -0.664634 0
M  V30 4402 N 413.868 0.0150385 -1.57593 0
M  V30 4403 C 415.284 0.370907 -1.5523 0
M  V30 4404 C 415.484 1.75735 -0.985882 0
M  V30 4405 O 414.54 2.44944 -0.613077 0
M  V30 4406 C 415.853 0.259908 -2.99575 0
M  V30 4407 C 417.401 0.335959 -3.11192 0
M  V30 4408 C 417.876 0.254253 -4.57294 0
M  V30 4409 N 419.367 0.312618 -4.62144 0
M  V30 4410 C 420.102 0.272505 -5.72752 0
M  V30 4411 N 419.598 0.183864 -6.92556 0
M  V30 4412 N 421.391 0.323267 -5.6117 0
M  V30 4413 H 413.542 -0.892104 -1.92757 0
M  V30 4414 H 415.805 -0.340563 -0.884715 0
M  V30 4415 H 415.511 -0.693403 -3.44797 0
M  V30 4416 H 415.385 1.048 -3.62349 0
M  V30 4417 H 417.772 1.27971 -2.65909 0
M  V30 4418 H 417.853 -0.481739 -2.51223 0
M  V30 4419 H 417.497 -0.685887 -5.03247 0
M  V30 4420 H 417.427 1.09024 -5.15191 0
M  V30 4421 H 419.918 0.38307 -3.75953 0
M  V30 4422 H 420.231 0.15874 -7.72637 0
M  V30 4423 H 418.576 0.149708 -6.94839 0
M  V30 4424 H 421.767 0.390607 -4.66467 0
M  V30 4425 H 421.94 0.288539 -6.47357 0
M  V30 4426 N 415.346 1.54954 0.287554 0
M  V30 4427 C 416.757 1.65732 0.859634 0
M  V30 4428 C 417.108 0.574767 1.87592 0
M  V30 4429 O 416.233 -0.286299 2.14498 0
M  V30 4430 C 416.828 3.00438 1.56597 0
M  V30 4431 C 415.387 3.13292 2.08627 0
M  V30 4432 C 414.534 2.61473 0.923416 0
M  V30 4433 H 417.485 1.5857 0.0642338 0
M  V30 4434 H 417.506 2.92613 2.43224 0
M  V30 4435 H 417.018 3.79207 0.826053 0
M  V30 4436 H 415.119 2.39268 2.85625 0
M  V30 4437 H 415.232 4.19647 2.31157 0
M  V30 4438 H 413.596 2.18264 1.31275 0
M  V30 4439 H 414.379 3.42733 0.197241 0
M  V30 4440 N 416.824 -0.551391 1.4764 0
M  V30 4441 C 418.07 -1.31024 1.54792 0
M  V30 4442 C 418.403 -1.9304 0.211967 0
M  V30 4443 O 417.678 -1.78175 -0.77999 0
M  V30 4444 C 417.961 -2.41593 2.67029 0
M  V30 4445 C 417.814 -1.84408 4.10261 0
M  V30 4446 C 419.133 -3.43488 2.75143 0
M  V30 4447 H 416.252 -0.475031 0.563485 0
M  V30 4448 H 418.894 -0.616454 1.79722 0
M  V30 4449 H 417.044 -3.00772 2.45904 0
M  V30 4450 H 418.716 -1.29445 4.42766 0
M  V30 4451 H 416.959 -1.15051 4.18265 0
M  V30 4452 H 417.63 -2.64367 4.84576 0
M  V30 4453 H 420.106 -2.94236 2.94218 0
M  V30 4454 H 418.982 -4.18274 3.55441 0
M  V30 4455 H 419.243 -4.02703 1.82435 0
M  V30 4456 N 418.302 -1.35869 -0.798587 0
M  V30 4457 C 419.548 -1.2978 -1.55836 0
M  V30 4458 C 419.881 0.125322 -1.93795 0
M  V30 4459 O 419.156 1.07658 -1.61987 0
M  V30 4460 C 419.439 -2.21188 -2.84162 0
M  V30 4461 C 419.292 -3.72155 -2.52628 0
M  V30 4462 C 420.611 -2.11545 -3.85923 0
M  V30 4463 H 417.73 -0.472769 -0.565383 0
M  V30 4464 H 420.372 -1.66341 -0.918192 0
M  V30 4465 H 418.522 -1.90139 -3.38791 0
M  V30 4466 H 420.194 -4.13682 -2.04121 0
M  V30 4467 H 418.437 -3.92042 -1.85704 0
M  V30 4468 H 419.108 -4.31511 -3.44242 0
M  V30 4469 H 421.584 -2.38855 -3.40716 0
M  V30 4470 H 420.46 -2.77688 -4.73477 0
M  V30 4471 H 420.721 -1.09987 -4.282 0
M  V30 4472 N 419.78 1.02168 -1.19998 0
M  V30 4473 C 421.057 1.72816 -0.916191 0
M  V30 4474 C 421.437 2.03081 0.576325 0
M  V30 4475 O 420.785 1.69122 1.53656 0
M  V30 4476 C 420.995 2.9997 -1.78378 0
M  V30 4477 C 422.343 3.73336 -2.02251 0
M  V30 4478 O 423.367 3.09914 -1.75589 0
M  V30 4479 O 422.226 4.87371 -2.47249 0
M  V30 4480 H 419.32 0.752924 -0.342103 0
M  V30 4481 H 421.866 1.08062 -1.30846 0
M  V30 4482 H 420.638 2.73888 -2.79466 0
M  V30 4483 H 420.261 3.72464 -1.39126 0
M  V30 4484 N 421.258 1.00505 1.21394 0
M  V30 4485 C 422.506 0.686415 1.90086 0
M  V30 4486 C 422.827 -0.785264 1.7849 0
M  V30 4487 O 422.097 -1.56387 1.17983 0
M  V30 4488 H 420.677 0.2509 0.703604 0
M  V30 4489 H 423.339 1.27417 1.47482 0
M  V30 4490 H 422.435 0.959621 2.96981 0
M  V30 4491 N 422.737 -1.36956 0.779787 0
M  V30 4492 C 423.647 -2.33965 0.172491 0
M  V30 4493 C 424.663 -1.60574 -0.670222 0
M  V30 4494 O 425.839 -1.92617 -0.588263 0
M  V30 4495 C 422.904 -3.39761 -0.690173 0
M  V30 4496 C 421.965 -4.28964 0.169924 0
M  V30 4497 C 421.198 -5.29707 -0.651662 0
M  V30 4498 O 421.421 -5.38238 -1.88827 0
M  V30 4499 O 420.355 -6.01873 -0.0566264 0
M  V30 4500 H 424.181 -2.87647 0.974321 0
M  V30 4501 H 421.766 -1.39258 0.541078 0
M  V30 4502 H 423.648 -4.04471 -1.1824 0
M  V30 4503 H 422.323 -2.88394 -1.47006 0
M  V30 4504 H 421.23 -3.67326 0.708696 0
M  V30 4505 H 422.563 -4.83656 0.913085 0
M  V30 4506 N 424.215 -0.530993 -1.48385 0
M  V30 4507 C 425.125 0.23503 -2.3342 0
M  V30 4508 C 426.141 0.93801 -1.46552 0
M  V30 4509 O 427.317 0.912745 -1.7953 0
M  V30 4510 C 424.382 1.26778 -3.22689 0
M  V30 4511 C 423.443 0.575038 -4.25431 0
M  V30 4512 C 422.676 1.55858 -5.10435 0
M  V30 4513 O 422.899 2.79129 -4.97437 0
M  V30 4514 O 421.833 1.09742 -5.91811 0
M  V30 4515 H 425.659 -0.461794 -3.00169 0
M  V30 4516 H 423.244 -0.291903 -1.46521 0
M  V30 4517 H 425.126 1.86457 -3.77904 0
M  V30 4518 H 423.801 1.94699 -2.586 0
M  V30 4519 H 422.708 -0.0622782 -3.74048 0
M  V30 4520 H 424.041 -0.062253 -4.92161 0
M  V30 4521 N 425.693 1.55336 -0.266172 0
M  V30 4522 C 426.941 1.99003 0.35246 0
M  V30 4523 C 427.262 1.15591 1.57047 0
M  V30 4524 O 426.532 0.243268 1.94384 0
M  V30 4525 H 425.112 0.735025 0.133217 0
M  V30 4526 H 427.774 1.91367 -0.369434 0
M  V30 4527 H 426.87 3.05289 0.648453 0
M  V30 4528 N 427.171 -0.0066808 1.57599 0
M  V30 4529 C 428.081 -1.01671 2.11424 0
M  V30 4530 C 429.097 -1.38143 1.05795 0
M  V30 4531 O 430.273 -1.47011 1.37658 0
M  V30 4532 C 427.338 -2.29192 2.60139 0
M  V30 4533 C 426.399 -1.99094 3.80342 0
M  V30 4534 C 425.632 -3.20535 4.26724 0
M  V30 4535 O 425.855 -4.3199 3.72479 0
M  V30 4536 O 424.789 -3.04924 5.18946 0
M  V30 4537 H 428.615 -0.589181 2.9793 0
M  V30 4538 H 426.2 -0.225091 1.47695 0
M  V30 4539 H 428.082 -3.0412 2.917 0
M  V30 4540 H 426.757 -2.71195 1.76733 0
M  V30 4541 H 425.664 -1.21663 3.53764 0
M  V30 4542 H 426.997 -1.61931 4.648 0
M  V30 4543 N 428.649 -1.55105 -0.279332 0
M  V30 4544 C 430.06 -1.66186 -0.850832 0
M  V30 4545 C 430.411 -0.584707 -1.87285 0
M  V30 4546 O 429.536 0.274919 -2.14647 0
M  V30 4547 C 430.131 -3.01264 -1.55001 0
M  V30 4548 C 428.69 -3.14394 -2.06963 0
M  V30 4549 C 427.837 -2.61959 -0.909536 0
M  V30 4550 H 430.788 -1.58602 -0.0558235 0
M  V30 4551 H 430.809 -2.93899 -2.41669 0
M  V30 4552 H 430.321 -3.7964 -0.805931 0
M  V30 4553 H 428.422 -2.4078 -2.84352 0
M  V30 4554 H 428.535 -4.20867 -2.28928 0
M  V30 4555 H 426.899 -2.18957 -1.30116 0
M  V30 4556 H 427.682 -3.42833 -0.179062 0
M  V30 4557 N 430.127 0.543554 -1.4793 0
M  V30 4558 C 431.077 1.64527 -1.57844 0
M  V30 4559 C 432.061 1.54869 -0.436408 0
M  V30 4560 O 433.253 1.63119 -0.687101 0
M  V30 4561 C 430.382 3.03281 -1.6086 0
M  V30 4562 C 429.468 3.18093 -2.80495 0
M  V30 4563 N 429.859 3.02923 -4.05057 0
M  V30 4564 C 428.157 3.49121 -2.77543 0
M  V30 4565 C 428.858 3.20791 -4.85251 0
M  V30 4566 N 427.834 3.47749 -4.17818 0
M  V30 4567 H 431.636 1.51388 -2.5191 0
M  V30 4568 H 429.15 0.748671 -1.44113 0
M  V30 4569 H 431.147 3.82403 -1.66054 0
M  V30 4570 H 429.807 3.17521 -0.678996 0
M  V30 4571 H 430.818 2.79966 -4.35705 0
M  V30 4572 H 427.495 3.69804 -1.93781 0
M  V30 4573 H 428.885 3.13915 -5.9406 0
M  V30 4574 N 431.605 1.3629 0.791371 0
M  V30 4575 C 432.83 1.33726 1.58531 0
M  V30 4576 C 433.255 -0.0794933 1.87932 0
M  V30 4577 O 432.613 -1.05087 1.47738 0
M  V30 4578 C 432.661 2.16425 2.88431 0
M  V30 4579 O 431.765 1.5554 3.81944 0
M  V30 4580 H 431.106 0.457793 0.480959 0
M  V30 4581 H 433.636 1.79547 0.981031 0
M  V30 4582 H 433.646 2.28933 3.37718 0
M  V30 4583 H 432.321 3.19415 2.66359 0
M  V30 4584 H 430.898 1.51961 3.40532 0
M  V30 4585 N 433.083 -1.0153 1.20538 0
M  V30 4586 C 434.332 -1.74558 1.01057 0
M  V30 4587 C 434.645 -1.90168 -0.457756 0
M  V30 4588 O 435.851 -2.60301 -0.771722 0
M  V30 4589 C 434.307 -3.13963 1.75941 0
M  V30 4590 C 433.915 -3.06361 3.26875 0
M  V30 4591 C 435.659 -3.91191 1.64832 0
M  V30 4592 C 433.566 -4.40782 3.94291 0
M  V30 4593 H 432.496 -0.654417 0.374505 0
M  V30 4594 H 435.147 -1.13521 1.44171 0
M  V30 4595 H 433.529 -3.75549 1.25614 0
M  V30 4596 H 434.703 -2.54074 3.84425 0
M  V30 4597 H 433.018 -2.42625 3.38411 0
M  V30 4598 H 435.615 -4.90644 2.12539 0
M  V30 4599 H 435.958 -4.11884 0.604745 0
M  V30 4600 H 436.491 -3.36236 2.12579 0
M  V30 4601 H 433.23 -4.25292 4.98805 0
M  V30 4602 H 432.75 -4.9307 3.41529 0
M  V30 4603 H 434.429 -5.09621 3.98617 0
M  V30 4604 N 434.561 -1.01147 -1.20859 0
M  V30 4605 C 435.786 -0.716698 -1.94623 0
M  V30 4606 C 436.211 0.715415 -1.73964 0
M  V30 4607 O 435.569 1.49157 -1.03062 0
M  V30 4608 C 435.617 -1.0513 -3.44935 0
M  V30 4609 O 434.721 -0.160131 -4.12089 0
M  V30 4610 H 434.062 -0.266404 -0.608214 0
M  V30 4611 H 436.592 -1.35346 -1.53436 0
M  V30 4612 H 436.602 -1.00086 -3.95533 0
M  V30 4613 H 435.277 -2.09475 -3.59295 0
M  V30 4614 H 433.854 -0.267657 -3.71938 0
M  V30 4615 N 436.039 1.36541 -0.78704 0
M  V30 4616 C 437.45 1.81873 -0.421807 0
M  V30 4617 C 437.801 1.65487 1.05397 0
M  V30 4618 O 436.926 1.17448 1.81755 0
M  V30 4619 C 437.521 3.30192 -0.758841 0
M  V30 4620 C 436.08 3.73743 -0.446468 0
M  V30 4621 C 435.227 2.58844 -0.994728 0
M  V30 4622 H 438.178 1.24796 -0.98039 0
M  V30 4623 H 438.199 3.80468 -0.0490648 0
M  V30 4624 H 437.711 3.42087 -1.83299 0
M  V30 4625 H 435.812 3.6741 0.619739 0
M  V30 4626 H 435.925 4.69272 -0.965415 0
M  V30 4627 H 434.289 2.51245 -0.418087 0
M  V30 4628 H 435.072 2.73525 -2.07458 0
M  V30 4629 N 437.518 0.538854 1.48102 0
M  V30 4630 C 438.934 0.19732 1.58376 0
M  V30 4631 C 439.134 -1.29971 1.5398 0
M  V30 4632 O 438.19 -2.07861 1.43352 0
M  V30 4633 C 439.503 0.807716 2.89649 0
M  V30 4634 C 441.051 0.77726 3.03196 0
M  V30 4635 C 441.526 1.36639 4.37143 0
M  V30 4636 N 443.017 1.32875 4.43732 0
M  V30 4637 C 443.752 1.7544 5.45901 0
M  V30 4638 N 443.248 2.25776 6.54979 0
M  V30 4639 N 445.041 1.66623 5.36836 0
M  V30 4640 H 437.192 1.5117 1.49202 0
M  V30 4641 H 439.455 0.629327 0.708979 0
M  V30 4642 H 439.161 1.85909 2.98548 0
M  V30 4643 H 439.035 0.289975 3.76084 0
M  V30 4644 H 441.422 -0.265374 2.93904 0
M  V30 4645 H 441.503 1.33256 2.18349 0
M  V30 4646 H 441.147 2.408 4.47189 0
M  V30 4647 H 441.077 0.786689 5.20691 0
M  V30 4648 H 443.568 0.96037 3.65493 0
M  V30 4649 H 443.881 2.56226 7.29087 0
M  V30 4650 H 442.226 2.29775 6.55918 0
M  V30 4651 H 445.417 1.27089 4.50517 0
M  V30 4652 H 445.59 2.00115 6.16326 0
M  V30 4653 N 438.996 -1.55193 0.274407 0
M  V30 4654 C 440.407 -1.85358 -0.223488 0
M  V30 4655 C 440.758 -1.19642 -1.555 0
M  V30 4656 O 439.883 -0.484498 -2.10907 0
M  V30 4657 C 440.478 -3.36282 -0.412285 0
M  V30 4658 C 439.037 -3.66574 -0.854413 0
M  V30 4659 C 438.184 -2.7725 0.0527056 0
M  V30 4660 H 441.135 -1.50743 0.496215 0
M  V30 4661 H 441.156 -3.59349 -1.25094 0
M  V30 4662 H 440.668 -3.84083 0.556965 0
M  V30 4663 H 438.769 -3.24273 -1.83516 0
M  V30 4664 H 438.882 -4.74073 -0.692226 0
M  V30 4665 H 437.246 -2.50447 -0.463484 0
M  V30 4666 H 438.029 -3.27865 1.01783 0
M  V30 4667 N 440.474 -0.00167713 -1.576 0
M  V30 4668 C 441.89 0.354422 -1.55615 0
M  V30 4669 C 442.09 1.74679 -1.00447 0
M  V30 4670 O 441.146 2.4428 -0.639022 0
M  V30 4671 C 442.459 0.22812 -2.99833 0
M  V30 4672 C 444.007 0.302934 -3.11531 0
M  V30 4673 C 444.482 0.205737 -4.57538 0
M  V30 4674 N 445.973 0.263584 -4.62449 0
M  V30 4675 C 446.708 0.211742 -5.73009 0
M  V30 4676 N 446.204 0.110399 -6.92712 0
M  V30 4677 N 447.997 0.263729 -5.61481 0
M  V30 4678 H 440.148 -0.912498 -1.918 0
M  V30 4679 H 442.411 -0.349928 -0.881053 0
M  V30 4680 H 442.117 -0.729934 -3.44042 0
M  V30 4681 H 441.991 1.00951 -3.6344 0
M  V30 4682 H 444.378 1.25143 -2.67251 0
M  V30 4683 H 444.459 -0.508357 -2.50698 0
M  V30 4684 H 444.103 -0.739225 -5.02492 0
M  V30 4685 H 444.033 1.03554 -5.16318 0
M  V30 4686 H 446.524 0.343173 -3.76339 0
M  V30 4687 H 446.837 0.0767828 -7.72762 0
M  V30 4688 H 445.182 0.0760025 -6.94958 0
M  V30 4689 H 448.373 0.34111 -4.66855 0
M  V30 4690 H 448.546 0.219862 -6.47627 0
M  V30 4691 N 441.952 1.55251 0.271103 0
M  V30 4692 C 443.363 1.66635 0.842007 0
M  V30 4693 C 443.714 0.594631 1.86972 0
M  V30 4694 O 442.839 -0.263532 2.14789 0
M  V30 4695 C 443.434 3.02082 1.53401 0
M  V30 4696 C 441.993 3.15487 2.05293 0
M  V30 4697 C 441.14 2.62438 0.895631 0
M  V30 4698 H 444.091 1.58629 0.0474117 0
M  V30 4699 H 444.112 2.95176 2.40107 0
M  V30 4700 H 443.624 3.80062 0.785786 0
M  V30 4701 H 441.725 2.42284 2.83071 0
M  V30 4702 H 441.838 4.22075 2.26693 0
M  V30 4703 H 440.202 2.19644 1.28953 0
M  V30 4704 H 440.985 3.42923 0.160878 0
M  V30 4705 N 443.43 -0.535701 1.48216 0
M  V30 4706 C 444.841 -1.11769 1.49548 0
M  V30 4707 C 445.192 -1.94442 0.26207 0
M  V30 4708 O 444.317 -2.06987 -0.631287 0
M  V30 4709 C 444.912 -2.03367 2.70975 0
M  V30 4710 C 443.471 -2.56795 2.75196 0
M  V30 4711 C 442.618 -1.33631 2.42977 0
M  V30 4712 H 445.569 -0.321232 1.55415 0
M  V30 4713 H 445.59 -2.87569 2.49167 0
M  V30 4714 H 445.102 -1.43169 3.60727 0
M  V30 4715 H 443.203 -3.20731 1.89638 0
M  V30 4716 H 443.316 -2.9632 3.76472 0
M  V30 4717 H 441.68 -1.6502 1.94012 0
M  V30 4718 H 442.463 -0.75194 3.34964 0
M  V30 4719 N 444.908 -1.36708 -0.784132 0
M  V30 4720 C 446.156 -1.30972 -1.53918 0
M  V30 4721 C 446.477 0.109086 -1.94695 0
M  V30 4722 O 445.747 1.05048 -1.65353 0
M  V30 4723 H 444.327 -0.481819 -0.570841 0
M  V30 4724 H 446.989 -1.71063 -0.934002 0
M  V30 4725 H 446.085 -1.94061 -2.44431 0
M  V30 4726 N 446.386 1.0089 -1.21074 0
M  V30 4727 C 447.802 1.2695 -0.967257 0
M  V30 4728 C 448.002 1.9846 0.348673 0
M  V30 4729 O 447.058 2.28459 1.0753 0
M  V30 4730 C 448.371 2.09697 -2.15517 0
M  V30 4731 C 449.919 2.22937 -2.197 0
M  V30 4732 C 450.394 3.09064 -3.37999 0
M  V30 4733 N 451.885 3.16653 -3.38061 0
M  V30 4734 C 452.62 3.8354 -4.26245 0
M  V30 4735 N 452.116 4.52488 -5.2462 0
M  V30 4736 N 453.909 3.80141 -4.14064 0
M  V30 4737 H 446.06 0.529005 -2.05707 0
M  V30 4738 H 448.323 0.296148 -0.900556 0
M  V30 4739 H 448.029 1.64497 -3.10859 0
M  V30 4740 H 447.903 3.10444 -2.14253 0
M  V30 4741 H 450.29 2.67357 -1.24916 0
M  V30 4742 H 450.371 1.21673 -2.2501 0
M  V30 4743 H 450.015 2.65347 -4.33074 0
M  V30 4744 H 449.945 4.10433 -3.29928 0
M  V30 4745 H 452.436 2.67566 -2.66865 0
M  V30 4746 H 452.749 5.01219 -5.88217 0
M  V30 4747 H 451.094 4.51288 -5.28549 0
M  V30 4748 H 454.285 3.25427 -3.36474 0
M  V30 4749 H 454.458 4.31992 -4.82998 0
M  V30 4750 N 447.864 1.01787 1.20321 0
M  V30 4751 C 449.275 0.739307 1.71438 0
M  V30 4752 C 449.626 -0.742041 1.81627 0
M  V30 4753 O 448.751 -1.57903 1.47971 0
M  V30 4754 C 449.346 1.33538 3.11373 0
M  V30 4755 C 447.905 1.10566 3.59795 0
M  V30 4756 C 447.052 1.44028 2.36962 0
M  V30 4757 H 450.003 1.18718 1.05317 0
M  V30 4758 H 450.024 0.726611 3.73498 0
M  V30 4759 H 449.536 2.41352 3.03926 0
M  V30 4760 H 447.637 0.0452405 3.72573 0
M  V30 4761 H 447.75 1.78661 4.44542 0
M  V30 4762 H 446.114 0.85933 2.39766 0
M  V30 4763 H 446.897 2.52901 2.32155 0
M  V30 4764 N 449.342 -1.36122 0.79427 0
M  V30 4765 C 450.588 -1.99406 0.369452 0
M  V30 4766 C 450.921 -1.62886 -1.05743 0
M  V30 4767 O 450.196 -0.886053 -1.73145 0
M  V30 4768 C 450.479 -3.56046 0.538833 0
M  V30 4769 C 450.332 -4.02404 2.00976 0
M  V30 4770 C 451.651 -4.40079 -0.0431359 0
M  V30 4771 H 448.77 -0.724397 0.135712 0
M  V30 4772 H 451.412 -1.61461 1.00151 0
M  V30 4773 H 449.562 -3.885 0.000771004 0
M  V30 4774 H 451.234 -3.80415 2.60926 0
M  V30 4775 H 449.477 -3.53765 2.51063 0
M  V30 4776 H 450.148 -5.11344 2.07922 0
M  V30 4777 H 452.624 -4.14013 0.416228 0
M  V30 4778 H 451.5 -5.48799 0.105374 0
M  V30 4779 H 451.761 -4.27264 -1.13571 0
M  V30 4780 N 450.82 -0.546701 -1.47814 0
M  V30 4781 C 452.045 -0.021268 -2.07389 0
M  V30 4782 C 452.47 1.25822 -1.39822 0
M  V30 4783 O 451.828 1.75111 -0.46968 0
M  V30 4784 C 451.876 0.168502 -3.60206 0
M  V30 4785 O 450.98 1.23347 -3.93522 0
M  V30 4786 H 450.321 -0.0466108 -0.662362 0
M  V30 4787 H 452.851 -0.759387 -1.89985 0
M  V30 4788 H 452.861 0.385982 -4.0617 0
M  V30 4789 H 451.536 -0.766075 -4.08784 0
M  V30 4790 H 450.113 0.997319 -3.59316 0
M  V30 4791 N 452.299 1.55045 -0.282633 0
M  V30 4792 C 453.547 1.99365 0.331334 0
M  V30 4793 C 453.868 1.1725 1.55812 0
M  V30 4794 O 453.138 0.263871 1.94115 0
M  V30 4795 H 451.718 0.736397 0.125414 0
M  V30 4796 H 454.38 1.90964 -0.389711 0
M  V30 4797 H 453.476 3.0596 0.616036 0
M  V30 4798 N 453.777 0.010035 1.57597 0
M  V30 4799 C 454.727 -0.986858 2.05536 0
M  V30 4800 C 455.711 -1.29711 0.952042 0
M  V30 4801 O 456.903 -1.28641 1.21575 0
M  V30 4802 C 454.032 -2.2756 2.57043 0
M  V30 4803 C 453.118 -1.99455 3.74271 0
M  V30 4804 N 453.509 -1.41546 4.85591 0
M  V30 4805 C 451.807 -2.29547 3.82393 0
M  V30 4806 C 452.508 -1.3014 5.66956 0
M  V30 4807 N 451.484 -1.79044 5.13268 0
M  V30 4808 H 455.286 -0.533778 2.89012 0
M  V30 4809 H 452.8 -0.195432 1.6122 0
M  V30 4810 H 454.797 -2.99829 2.89669 0
M  V30 4811 H 453.457 -2.73512 1.7499 0
M  V30 4812 H 454.468 -1.09294 5.06236 0
M  V30 4813 H 451.145 -2.78304 3.11213 0
M  V30 4814 H 452.535 -0.855237 6.66435 0
M  V30 4815 N 455.255 -1.55392 -0.262866 0
M  V30 4816 C 456.503 -1.76127 -0.991147 0
M  V30 4817 C 456.824 -0.571083 -1.8645 0
M  V30 4818 O 456.094 0.413698 -1.91482 0
M  V30 4819 H 454.674 -0.649528 -0.368948 0
M  V30 4820 H 457.336 -1.9281 -0.284655 0
M  V30 4821 H 456.432 -2.6663 -1.62219 0
M  V30 4822 N 456.733 0.527833 -1.48498 0
M  V30 4823 C 457.666 1.64892 -1.57753 0
M  V30 4824 C 458.644 1.5687 -0.427867 0
M  V30 4825 O 459.828 1.77311 -0.639764 0
M  V30 4826 C 456.955 3.03301 -1.50752 0
M  V30 4827 C 456.001 3.29675 -2.70586 0
M  V30 4828 S 456.834 3.15712 -4.32535 0
M  V30 4829 C 457.99 4.56564 -4.28136 0
M  V30 4830 H 458.223 1.56792 -2.52594 0
M  V30 4831 H 455.756 0.710959 -1.37057 0
M  V30 4832 H 457.714 3.83123 -1.474 0
M  V30 4833 H 456.375 3.08839 -0.572454 0
M  V30 4834 H 455.568 4.3065 -2.61833 0
M  V30 4835 H 455.17 2.57526 -2.71212 0
M  V30 4836 H 457.462 5.48126 -3.98201 0
M  V30 4837 H 458.405 4.70371 -5.29298 0
M  V30 4838 H 458.813 4.35987 -3.58574 0
M  V30 4839 N 458.211 1.37122 0.776871 0
M  V30 4840 C 459.488 1.22586 1.52421 0
M  V30 4841 C 459.868 -0.182726 2.10308 0
M  V30 4842 O 459.216 -1.18979 1.9508 0
M  V30 4843 C 459.426 2.31782 2.60918 0
M  V30 4844 C 460.774 2.69071 3.2846 0
M  V30 4845 O 461.798 2.3092 2.71209 0
M  V30 4846 O 460.657 3.3478 4.31954 0
M  V30 4847 H 457.751 0.478045 0.674835 0
M  V30 4848 H 460.297 1.48888 0.814275 0
M  V30 4849 H 459.069 3.26131 2.16227 0
M  V30 4850 H 458.692 2.06916 3.39517 0
M  V30 4851 N 459.689 -1.00246 1.21608 0
M  V30 4852 C 460.914 -1.78167 1.06167 0
M  V30 4853 C 461.339 -1.84138 -0.384035 0
M  V30 4854 O 460.697 -1.28683 -1.27712 0
M  V30 4855 C 460.745 -3.19786 1.66642 0
M  V30 4856 O 459.849 -4.02153 0.913613 0
M  V30 4857 H 459.19 -0.549 0.37349 0
M  V30 4858 H 461.72 -1.25994 1.61204 0
M  V30 4859 H 461.73 -3.70451 1.70969 0
M  V30 4860 H 460.405 -3.14754 2.7185 0
M  V30 4861 H 458.982 -3.60711 0.945635 0
M  V30 4862 N 461.167 -1.02423 -1.1978 0
M  V30 4863 C 462.583 -0.740459 -1.41384 0
M  V30 4864 C 462.783 0.676827 -1.89793 0
M  V30 4865 O 461.839 1.4435 -2.0717 0
M  V30 4866 C 463.152 -1.77264 -2.42895 0
M  V30 4867 C 464.7 -1.79165 -2.56649 0
M  V30 4868 C 465.175 -2.8133 -3.6141 0
M  V30 4869 N 466.666 -2.80118 -3.68901 0
M  V30 4870 C 467.401 -3.55824 -4.49641 0
M  V30 4871 N 466.897 -4.41231 -5.34123 0
M  V30 4872 N 468.69 -3.44387 -4.44246 0
M  V30 4873 H 460.841 -1.9391 -0.866764 0
M  V30 4874 H 463.104 -0.838074 -0.443098 0
M  V30 4875 H 462.81 -2.7884 -2.14339 0
M  V30 4876 H 462.684 -1.59108 -3.42001 0
M  V30 4877 H 465.071 -0.782702 -2.84531 0
M  V30 4878 H 465.152 -2.01396 -1.57713 0
M  V30 4879 H 464.796 -3.82394 -3.34271 0
M  V30 4880 H 464.726 -2.56359 -4.59986 0
M  V30 4881 H 467.217 -2.1817 -3.08562 0
M  V30 4882 H 467.53 -4.95747 -5.92836 0
M  V30 4883 H 465.875 -4.45306 -5.33599 0
M  V30 4884 H 469.066 -2.7708 -3.77285 0
M  V30 4885 H 469.239 -4.0364 -5.06931 0
M  V30 4886 N 462.645 1.35699 -0.801477 0
M  V30 4887 C 464.056 1.81415 -0.441073 0
M  V30 4888 C 464.407 1.66595 1.03636 0
M  V30 4889 O 463.532 1.19369 1.80499 0
M  V30 4890 C 464.127 3.29369 -0.793819 0
M  V30 4891 C 462.686 3.73248 -0.486083 0
M  V30 4892 C 461.833 2.57775 -1.02213 0
M  V30 4893 H 464.784 1.23749 -0.993572 0
M  V30 4894 H 464.805 3.80395 -0.0894158 0
M  V30 4895 H 464.317 3.40123 -1.86917 0
M  V30 4896 H 462.418 3.68046 0.580735 0
M  V30 4897 H 462.531 4.68222 -1.01513 0
M  V30 4898 H 460.895 2.50788 -0.444712 0
M  V30 4899 H 461.678 2.71309 -2.10348 0
M  V30 4900 N 464.123 0.554532 1.47522 0
M  V30 4901 C 465.086 -0.184174 2.28459 0
M  V30 4902 C 466.086 -0.845195 1.36796 0
M  V30 4903 O 467.276 -0.701467 1.59452 0
M  V30 4904 C 464.408 -1.26903 3.16399 0
M  V30 4905 H 465.601 0.526751 2.95238 0
M  V30 4906 H 463.154 0.311375 1.53167 0
M  V30 4907 H 463.889 -2.01244 2.54306 0
M  V30 4908 H 463.674 -0.799883 3.83854 0
M  V30 4909 H 465.164 -1.78794 3.77389 0
M  V30 4910 N 465.601 -1.54893 0.290851 0
M  V30 4911 C 466.534 -2.19289 -0.631489 0
M  V30 4912 C 467.512 -1.15893 -1.14051 0
M  V30 4913 O 468.696 -1.4449 -1.21058 0
M  V30 4914 C 465.823 -2.82866 -1.86291 0
M  V30 4915 C 464.869 -3.997 -1.48801 0
M  V30 4916 S 465.702 -5.32641 -0.552644 0
M  V30 4917 C 466.858 -5.99696 -1.79209 0
M  V30 4918 H 467.091 -2.9718 -0.0843791 0
M  V30 4919 H 464.624 -1.54218 0.075031 0
M  V30 4920 H 466.582 -3.20124 -2.56964 0
M  V30 4921 H 465.243 -2.04839 -2.38117 0
M  V30 4922 H 464.436 -4.42932 -2.40473 0
M  V30 4923 H 464.038 -3.63947 -0.861321 0
M  V30 4924 H 466.33 -6.19886 -2.734 0
M  V30 4925 H 467.273 -6.94071 -1.40251 0
M  V30 4926 H 467.681 -5.29226 -1.96419 0
M  V30 4927 N 467.08 -0.0183926 -1.57589 0
M  V30 4928 C 468.043 0.951986 -2.08494 0
M  V30 4929 C 469.043 1.26092 -0.997874 0
M  V30 4930 O 470.233 1.20304 -1.25987 0
M  V30 4931 C 467.365 2.27165 -2.54182 0
M  V30 4932 H 468.558 0.511307 -2.95509 0
M  V30 4933 H 466.111 0.229444 -1.54607 0
M  V30 4934 H 466.846 2.75884 -1.70465 0
M  V30 4935 H 466.631 2.06057 -3.33591 0
M  V30 4936 H 468.121 2.9674 -2.93828 0
M  V30 4937 N 468.558 1.5553 0.254621 0
M  V30 4938 C 469.807 1.76202 0.981612 0
M  V30 4939 C 470.12 0.580883 1.86776 0
M  V30 4940 O 471.326 0.670448 2.63092 0
M  V30 4941 C 469.782 3.11921 1.79537 0
M  V30 4942 C 469.39 4.37659 0.956991 0
M  V30 4943 C 471.134 3.41936 2.51555 0
M  V30 4944 C 469.041 5.64411 1.76619 0
M  V30 4945 H 467.971 0.656841 0.370237 0
M  V30 4946 H 470.622 1.81969 0.236556 0
M  V30 4947 H 469.004 3.00241 2.58208 0
M  V30 4948 H 470.178 4.60307 0.21315 0
M  V30 4949 H 468.493 4.14922 0.350497 0
M  V30 4950 H 471.09 4.33849 3.12536 0
M  V30 4951 H 471.433 2.62905 3.22779 0
M  V30 4952 H 471.966 3.54797 1.799 0
M  V30 4953 H 468.705 6.46241 1.09783 0
M  V30 4954 H 468.225 5.45877 2.48551 0
M  V30 4955 H 469.904 6.03386 2.33527 0
M  V30 4956 N 470.036 -0.519951 1.48776 0
M  V30 4957 C 471.283 -1.27522 1.57303 0
M  V30 4958 C 471.611 -1.92869 0.251328 0
M  V30 4959 O 470.866 -1.80372 -0.759243 0
M  V30 4960 C 471.165 -2.37864 2.6675 0
M  V30 4961 C 470.831 -1.90103 4.08867 0
M  V30 4962 C 469.493 -1.76795 4.47546 0
M  V30 4963 C 471.845 -1.54133 4.97888 0
M  V30 4964 C 469.173 -1.25868 5.73039 0
M  V30 4965 C 471.525 -1.04665 6.23881 0
M  V30 4966 C 470.189 -0.899823 6.61407 0
M  V30 4967 H 469.459 -0.466636 0.575614 0
M  V30 4968 H 472.106 -0.579109 1.82534 0
M  V30 4969 H 470.411 -3.13186 2.35418 0
M  V30 4970 H 472.108 -2.95969 2.70561 0
M  V30 4971 H 468.698 -2.01414 3.78326 0
M  V30 4972 H 472.882 -1.6327 4.68675 0
M  V30 4973 H 468.138 -1.13196 6.0083 0
M  V30 4974 H 472.312 -0.759074 6.92251 0
M  V30 4975 H 469.939 -0.503011 7.58534 0
M  V30 4976 N 471.514 -1.37532 -0.769588 0
M  V30 4977 C 472.424 -1.35668 -1.91393 0
M  V30 4978 C 473.44 -0.255954 -1.72107 0
M  V30 4979 O 474.616 -0.491704 -1.95305 0
M  V30 4980 C 471.681 -1.16481 -3.26547 0
M  V30 4981 C 470.742 -2.36212 -3.58472 0
M  V30 4982 C 469.975 -2.17932 -4.87177 0
M  V30 4983 O 470.198 -1.1647 -5.58382 0
M  V30 4984 O 469.132 -3.06167 -5.18214 0
M  V30 4985 H 472.958 -2.32055 -1.95918 0
M  V30 4986 H 470.543 -1.18284 -0.912641 0
M  V30 4987 H 472.425 -1.07778 -4.07384 0
M  V30 4988 H 471.1 -0.231687 -3.2287 0
M  V30 4989 H 470.007 -2.50488 -2.77861 0
M  V30 4990 H 471.34 -3.281 -3.66894 0
M  V30 4991 N 472.992 0.995999 -1.22138 0
M  V30 4992 C 473.922 2.10387 -1.01289 0
M  V30 4993 C 474.903 1.69975 0.0651454 0
M  V30 4994 O 476.088 1.9396 -0.0964628 0
M  V30 4995 C 473.218 3.42312 -0.586517 0
M  V30 4996 C 472.172 3.96558 -1.61014 0
M  V30 4997 C 471.498 5.24494 -1.0397 0
M  V30 4998 C 472.798 4.27595 -2.99933 0
M  V30 4999 H 474.492 2.28086 -1.93951 0
M  V30 5000 H 472.038 1.09607 -0.933928 0
M  V30 5001 H 473.991 4.19223 -0.427793 0
M  V30 5002 H 472.715 3.24431 0.375761 0
M  V30 5003 H 471.374 3.21776 -1.75658 0
M  V30 5004 H 471.022 5.02953 -0.0688703 0
M  V30 5005 H 470.722 5.61755 -1.72352 0
M  V30 5006 H 472.246 6.04042 -0.892494 0
M  V30 5007 H 473.66 4.95315 -2.8868 0
M  V30 5008 H 472.057 4.76021 -3.6541 0
M  V30 5009 H 473.127 3.35498 -3.50099 0
M  V30 5010 N 474.47 1.03057 1.19235 0
M  V30 5011 C 475.4 0.633497 2.24742 0
M  V30 5012 C 476.381 -0.358335 1.66283 0
M  V30 5013 O 477.566 -0.240676 1.92703 0
M  V30 5014 C 474.696 -0.0147648 3.47297 0
M  V30 5015 C 473.65 0.899527 4.18441 0
M  V30 5016 C 472.976 0.116281 5.34574 0
M  V30 5017 C 474.276 2.21404 4.73051 0
M  V30 5018 H 475.97 1.5155 2.58211 0
M  V30 5019 H 473.516 0.73014 1.24117 0
M  V30 5020 H 475.469 -0.304202 4.20301 0
M  V30 5021 H 474.193 -0.931577 3.13032 0
M  V30 5022 H 472.852 1.17319 3.47321 0
M  V30 5023 H 472.5 -0.802619 4.96555 0
M  V30 5024 H 472.2 0.725293 5.83107 0
M  V30 5025 H 473.724 -0.166376 6.10373 0
M  V30 5026 H 475.138 1.98601 5.37802 0
M  V30 5027 H 473.535 2.77512 5.32078 0
M  V30 5028 H 474.605 2.86752 3.91026 0
M  V30 5029 N 475.948 -1.35272 0.808662 0
M  V30 5030 C 477.225 -1.93077 0.313181 0
M  V30 5031 C 477.605 -1.73847 -1.19752 0
M  V30 5032 O 476.953 -1.1087 -1.998 0
M  V30 5033 C 477.163 -3.41347 0.726859 0
M  V30 5034 C 478.511 -4.18493 0.717532 0
M  V30 5035 O 479.535 -3.4987 0.668535 0
M  V30 5036 O 478.394 -5.40937 0.777779 0
M  V30 5037 H 475.488 -0.822885 0.0824018 0
M  V30 5038 H 478.034 -1.44335 0.892499 0
M  V30 5039 H 476.806 -3.49082 1.76797 0
M  V30 5040 H 476.429 -3.97411 0.122461 0
M  V30 5041 N 477.426 -0.562348 -1.47226 0
M  V30 5042 C 478.656 -0.0451619 -2.06551 0
M  V30 5043 C 479.064 1.25626 -1.41473 0
M  V30 5044 O 478.407 1.76563 -0.507061 0
M  V30 5045 C 478.469 0.216068 -3.5885 0
M  V30 5046 C 478.133 -0.996691 -4.45999 0
M  V30 5047 C 479.13 -1.90358 -4.83797 0
M  V30 5048 C 476.815 -1.21281 -4.87438 0
M  V30 5049 C 478.809 -3.01023 -5.6184 0
M  V30 5050 C 476.496 -2.32255 -5.65244 0
M  V30 5051 C 477.494 -3.21956 -6.02356 0
M  V30 5052 O 477.182 -4.31005 -6.78594 0
M  V30 5053 H 476.914 -0.0451646 -0.67449 0
M  V30 5054 H 479.468 -0.776842 -1.90143 0
M  V30 5055 H 477.698 1.00212 -3.7349 0
M  V30 5056 H 479.387 0.679264 -4.00176 0
M  V30 5057 H 480.153 -1.74868 -4.52378 0
M  V30 5058 H 476.032 -0.523767 -4.58015 0
M  V30 5059 H 479.576 -3.71064 -5.90726 0
M  V30 5060 H 475.473 -2.47715 -5.96077 0
M  V30 5061 H 476.241 -4.29118 -6.96994 0
M  V30 5062 N 478.904 1.54736 -0.299062 0
M  V30 5063 C 480.153 1.99279 0.311549 0
M  V30 5064 C 480.466 1.19107 1.55154 0
M  V30 5065 O 481.672 1.53908 2.23662 0
M  V30 5066 C 480.128 3.54768 0.605632 0
M  V30 5067 C 479.736 4.43746 -0.615914 0
M  V30 5068 C 481.48 4.07841 1.17754 0
M  V30 5069 C 479.387 5.90663 -0.29509 0
M  V30 5070 H 478.317 0.744359 0.120187 0
M  V30 5071 H 480.968 1.78919 -0.407464 0
M  V30 5072 H 479.35 3.71021 1.38419 0
M  V30 5073 H 480.524 4.39267 -1.39218 0
M  V30 5074 H 478.839 4.01434 -1.10633 0
M  V30 5075 H 481.436 5.15174 1.43179 0
M  V30 5076 H 481.779 3.58324 2.11918 0
M  V30 5077 H 482.312 3.95123 0.460739 0
M  V30 5078 H 479.051 6.44325 -1.20524 0
M  V30 5079 H 478.571 5.98155 0.44394 0
M  V30 5080 H 480.25 6.46916 0.104048 0
M  V30 5081 N 480.382 0.0267497 1.57577 0
M  V30 5082 C 481.628 -0.653371 1.91987 0
M  V30 5083 C 481.961 -1.71915 0.903263 0
M  V30 5084 O 481.236 -1.94358 -0.0743387 0
M  V30 5085 C 481.519 -1.272 3.36886 0
M  V30 5086 C 481.372 -0.215938 4.49281 0
M  V30 5087 C 482.691 -2.19069 3.81703 0
M  V30 5088 H 479.81 -0.236047 0.698177 0
M  V30 5089 H 482.452 0.0835236 1.89816 0
M  V30 5090 H 480.602 -1.90005 3.38866 0
M  V30 5091 H 482.274 0.41449 4.59434 0
M  V30 5092 H 480.517 0.458855 4.31366 0
M  V30 5093 H 481.188 -0.688347 5.47691 0
M  V30 5094 H 483.664 -1.66253 3.81444 0
M  V30 5095 H 482.54 -2.59307 4.83788 0
M  V30 5096 H 482.801 -3.08087 3.17072 0
M  V30 5097 N 481.861 -1.55662 -0.24637 0
M  V30 5098 C 482.809 -1.91186 -1.3248 0
M  V30 5099 C 483.803 -0.790996 -1.49799 0
M  V30 5100 O 485.009 -0.975617 -1.51267 0
M  V30 5101 H 481.384 -0.607207 -0.443626 0
M  V30 5102 H 483.355 -2.81221 -0.997853 0
M  V30 5103 C 482.104 -2.22349 -2.67313 0
M  V30 5104 H 481.427 -3.08097 -2.54786 0
M  V30 5105 H 482.867 -2.51107 -3.41645 0
M  V30 5106 C 481.326 -1.04001 -3.20446 0
M  V30 5107 O 481.856 -0.28828 -4.00664 0
M  V30 5108 N 480.062 -0.830494 -2.7848 0
M  V30 5109 H 479.609 -1.4435 -2.13356 0
M  V30 5110 H 479.567 -0.0403258 -3.14374 0
M  V30 5111 N 483.339 0.512053 -1.4905 0
M  V30 5112 C 484.249 1.64139 -1.67617 0
M  V30 5113 C 485.265 1.64786 -0.558701 0
M  V30 5114 O 486.441 1.8341 -0.832034 0
M  V30 5115 C 483.506 3.00548 -1.72835 0
M  V30 5116 C 482.567 3.10615 -2.96339 0
M  V30 5117 C 481.8 4.40517 -3.01298 0
M  V30 5118 O 482.023 5.28671 -2.14157 0
M  V30 5119 O 480.957 4.55325 -3.93653 0
M  V30 5120 H 484.783 1.51407 -2.63267 0
M  V30 5121 H 482.368 0.687131 -1.32661 0
M  V30 5122 H 484.25 3.81641 -1.78683 0
M  V30 5123 H 482.925 3.13566 -0.803616 0
M  V30 5124 H 481.832 2.2875 -2.96014 0
M  V30 5125 H 483.165 3.0252 -3.88256 0
M  V30 5126 N 484.817 1.37938 0.762283 0
M  V30 5127 C 486.228 1.30094 1.33912 0
M  V30 5128 C 486.579 -0.0472026 1.96143 0
M  V30 5129 O 485.704 -0.94917 1.94473 0
M  V30 5130 C 486.299 2.35592 2.43478 0
M  V30 5131 C 484.858 2.31353 2.96905 0
M  V30 5132 C 484.005 2.18919 1.70205 0
M  V30 5133 H 486.956 1.48423 0.561816 0
M  V30 5134 H 486.977 2.00806 3.23199 0
M  V30 5135 H 486.489 3.33701 1.98155 0
M  V30 5136 H 484.59 1.36799 3.46579 0
M  V30 5137 H 484.703 3.25147 3.51875 0
M  V30 5138 H 483.067 1.65624 1.93496 0
M  V30 5139 H 483.85 3.18956 1.26973 0
M  V30 5140 N 486.295 -0.989507 1.22664 0
M  V30 5141 C 487.706 -1.54406 1.04955 0
M  V30 5142 C 488.057 -1.92366 -0.385951 0
M  V30 5143 O 487.182 -1.75111 -1.27142 0
M  V30 5144 C 487.777 -2.80578 1.89899 0
M  V30 5145 C 486.336 -3.32464 1.76478 0
M  V30 5146 C 485.483 -2.05524 1.86159 0
M  V30 5147 H 488.434 -0.810211 1.3646 0
M  V30 5148 H 488.455 -3.53075 1.4184 0
M  V30 5149 H 487.967 -2.52918 2.94371 0
M  V30 5150 H 486.068 -3.65024 0.747528 0
M  V30 5151 H 486.181 -4.02838 2.59342 0
M  V30 5152 H 484.545 -2.19241 1.29636 0
M  V30 5153 H 485.328 -1.80258 2.92168 0
M  V30 5154 N 487.773 -1.03688 -1.18687 0
M  V30 5155 C 489.184 -0.766488 -1.70241 0
M  V30 5156 C 489.535 0.713052 -1.82784 0
M  V30 5157 O 488.66 1.55529 -1.50465 0
M  V30 5158 C 489.255 -1.38475 -3.09209 0
M  V30 5159 C 487.814 -1.16276 -3.5799 0
M  V30 5160 C 486.961 -1.4778 -2.34641 0
M  V30 5161 H 489.912 -1.20378 -1.03415 0
M  V30 5162 H 489.933 -0.785939 -3.72295 0
M  V30 5163 H 489.445 -2.46157 -3.00048 0
M  V30 5164 H 487.546 -0.104508 -3.72453 0
M  V30 5165 H 487.659 -1.8571 -4.41643 0
M  V30 5166 H 486.023 -0.897366 -2.38368 0
M  V30 5167 H 486.806 -2.56562 -2.28102 0
M  V30 5168 N 489.251 1.34841 -0.815825 0
M  V30 5169 C 490.198 2.29644 -0.230664 0
M  V30 5170 C 491.168 1.53253 0.640533 0
M  V30 5171 O 492.353 1.81653 0.583672 0
M  V30 5172 C 489.493 3.39715 0.607275 0
M  V30 5173 C 488.606 4.31056 -0.28538 0
M  V30 5174 C 487.741 5.28225 0.561446 0
M  V30 5175 C 486.78 6.11204 -0.331035 0
M  V30 5176 N 485.917 7.00483 0.476302 0
M  V30 5177 H 490.757 2.79095 -1.0445 0
M  V30 5178 H 488.294 1.37351 -0.526595 0
M  V30 5179 H 490.252 4.02208 1.10835 0
M  V30 5180 H 488.882 2.91517 1.38629 0
M  V30 5181 H 487.934 3.69487 -0.904621 0
M  V30 5182 H 489.246 4.89239 -0.97193 0
M  V30 5183 H 488.4 5.96135 1.12728 0
M  V30 5184 H 487.139 4.70562 1.28153 0
M  V30 5185 H 486.144 5.42232 -0.909069 0
M  V30 5186 H 487.369 6.70947 -1.04912 0
M  V30 5187 H 485.315 6.45296 1.18019 0
M  V30 5188 H 485.232 7.55847 -0.152008 0
M  V30 5189 H 486.5 7.7273 1.02512 0
M  V30 5190 N 490.729 0.570148 1.46925 0
M  V30 5191 C 491.659 -0.158274 2.32963 0
M  V30 5192 C 492.64 -0.896093 1.44583 0
M  V30 5193 O 493.825 -0.874022 1.7342 0
M  V30 5194 C 490.955 -1.18055 3.26619 0
M  V30 5195 C 489.909 -0.558379 4.24342 0
M  V30 5196 C 489.235 -1.68623 5.07415 0
M  V30 5197 C 490.535 0.496295 5.19937 0
M  V30 5198 H 492.229 0.560046 2.94115 0
M  V30 5199 H 489.775 0.270775 1.41431 0
M  V30 5200 H 491.728 -1.69841 3.85658 0
M  V30 5201 H 490.452 -1.92899 2.63548 0
M  V30 5202 H 489.111 -0.0617157 3.66548 0
M  V30 5203 H 488.759 -2.42402 4.40738 0
M  V30 5204 H 488.459 -1.27564 5.73586 0
M  V30 5205 H 489.983 -2.20709 5.69315 0
M  V30 5206 H 491.397 0.0640052 5.73264 0
M  V30 5207 H 489.794 0.82649 5.94381 0
M  V30 5208 H 490.864 1.38735 4.6463 0
M  V30 5209 N 492.207 -1.54576 0.307264 0
M  V30 5210 C 493.618 -1.8579 -0.184121 0
M  V30 5211 C 493.969 -1.22914 -1.52927 0
M  V30 5212 O 493.094 -0.529126 -2.09831 0
M  V30 5213 C 493.689 -3.37081 -0.340862 0
M  V30 5214 C 492.248 -3.68304 -0.776465 0
M  V30 5215 C 491.395 -2.77076 0.111503 0
M  V30 5216 H 494.346 -1.49656 0.528078 0
M  V30 5217 H 494.367 -3.61922 -1.17443 0
M  V30 5218 H 493.879 -3.82815 0.638309 0
M  V30 5219 H 491.98 -3.28092 -1.76596 0
M  V30 5220 H 492.093 -4.75434 -0.591512 0
M  V30 5221 H 490.457 -2.51374 -0.410256 0
M  V30 5222 H 491.24 -3.25632 1.08714 0
M  V30 5223 N 493.685 -0.035106 -1.57561 0
M  V30 5224 C 494.633 0.962707 -2.11742 0
M  V30 5225 C 495.627 1.33296 -1.0454 0
M  V30 5226 O 496.833 1.31449 -1.22968 0
M  V30 5227 H 493.208 0.32826 -0.676572 0
M  V30 5228 H 495.179 0.48048 -2.94506 0
M  V30 5229 C 493.928 2.23388 -2.66445 0
M  V30 5230 H 493.251 1.95774 -3.48587 0
M  V30 5231 H 494.691 2.91402 -3.07995 0
M  V30 5232 C 493.15 2.96769 -1.59467 0
M  V30 5233 O 493.68 3.89105 -0.998 0
M  V30 5234 N 491.886 2.59212 -1.31369 0
M  V30 5235 H 491.433 1.84202 -1.80076 0
M  V30 5236 H 491.391 3.08618 -0.600173 0
M  V30 5237 N 495.163 1.55791 0.238111 0
M  V30 5238 C 496.411 1.77681 0.963001 0
M  V30 5239 C 496.732 0.600674 1.85518 0
M  V30 5240 O 496.002 -0.383182 1.92116 0
M  V30 5241 H 494.582 0.655315 0.358568 0
M  V30 5242 H 497.244 1.93239 0.253945 0
M  V30 5243 H 496.34 2.69177 1.57956 0
M  V30 5244 N 496.642 -0.504142 1.49319 0
M  V30 5245 C 497.888 -1.26033 1.58882 0
M  V30 5246 C 498.221 -1.92268 0.273274 0
M  V30 5247 O 497.496 -1.80567 -0.72291 0
M  V30 5248 C 497.779 -2.32976 2.7458 0
M  V30 5249 C 497.632 -1.71263 4.1592 0
M  V30 5250 C 498.951 -3.34561 2.85932 0
M  V30 5251 H 496.07 -0.456863 0.578312 0
M  V30 5252 H 498.712 -0.558965 1.81592 0
M  V30 5253 H 496.862 -2.92796 2.55348 0
M  V30 5254 H 498.534 -1.15294 4.4666 0
M  V30 5255 H 496.777 -1.01686 4.21714 0
M  V30 5256 H 497.448 -2.48816 4.92742 0
M  V30 5257 H 499.924 -2.84727 3.0343 0
M  V30 5258 H 498.8 -4.06754 3.68568 0
M  V30 5259 H 499.061 -3.96695 1.95154 0
M  V30 5260 N 498.12 -1.38341 -0.754957 0
M  V30 5261 C 499.367 -1.34473 -1.51404 0
M  V30 5262 C 499.695 0.0656458 -1.94389 0
M  V30 5263 O 498.95 1.04244 -1.65625 0
M  V30 5264 C 499.249 -2.2452 -2.78075 0
M  V30 5265 C 498.915 -3.72512 -2.54059 0
M  V30 5266 C 497.577 -4.1284 -2.47218 0
M  V30 5267 C 499.929 -4.66197 -2.33044 0
M  V30 5268 C 497.257 -5.44945 -2.17376 0
M  V30 5269 C 499.609 -5.98558 -2.04723 0
M  V30 5270 C 498.273 -6.37972 -1.96337 0
M  V30 5271 H 497.543 -0.492072 -0.554027 0
M  V30 5272 H 500.19 -1.70687 -0.868223 0
M  V30 5273 H 498.495 -1.81357 -3.473 0
M  V30 5274 H 500.192 -2.18832 -3.36026 0
M  V30 5275 H 496.782 -3.40538 -2.60253 0
M  V30 5276 H 500.966 -4.35888 -2.37309 0
M  V30 5277 H 496.222 -5.74426 -2.09391 0
M  V30 5278 H 500.396 -6.70693 -1.87465 0
M  V30 5279 H 498.023 -7.40258 -1.72978 0
M  V30 5280 N 499.598 0.982988 -1.23187 0
M  V30 5281 C 500.826 1.75921 -1.08901 0
M  V30 5282 C 501.241 1.85341 0.359719 0
M  V30 5283 O 500.598 1.33072 1.24892 0
M  V30 5284 C 500.649 3.18742 -1.70545 0
M  V30 5285 O 500.37 3.09814 -3.09753 0
M  V30 5286 C 501.871 4.1277 -1.61667 0
M  V30 5287 H 499.091 0.552166 -0.381252 0
M  V30 5288 H 501.635 1.23516 -1.62985 0
M  V30 5289 H 499.79 3.68182 -1.20501 0
M  V30 5290 H 500.204 3.99703 -3.39614 0
M  V30 5291 H 501.678 5.10697 -2.09506 0
M  V30 5292 H 502.155 4.3542 -0.575009 0
M  V30 5293 H 502.761 3.69232 -2.11064 0
M  V30 5294 N 501.076 1.04316 1.18135 0
M  V30 5295 C 502.487 0.775505 1.69832 0
M  V30 5296 C 502.838 -0.703348 1.8316 0
M  V30 5297 O 501.963 -1.54729 1.51287 0
M  V30 5298 C 502.558 1.40112 3.0847 0
M  V30 5299 C 501.117 1.18172 3.57368 0
M  V30 5300 C 500.264 1.49022 2.33854 0
M  V30 5301 H 503.215 1.20925 1.02775 0
M  V30 5302 H 503.236 0.805672 3.71873 0
M  V30 5303 H 502.748 2.47744 2.98738 0
M  V30 5304 H 500.849 0.124258 3.72393 0
M  V30 5305 H 500.962 1.8805 4.40652 0
M  V30 5306 H 499.326 0.909995 2.37889 0
M  V30 5307 H 500.109 2.57768 2.26738 0
M  V30 5308 N 502.554 -1.34406 0.822964 0
M  V30 5309 C 503.831 -1.92733 0.333641 0
M  V30 5310 C 504.211 -1.75107 -1.17901 0
M  V30 5311 O 503.559 -1.12983 -1.98613 0
M  V30 5312 C 503.769 -3.40557 0.763023 0
M  V30 5313 C 505.117 -4.17709 0.761879 0
M  V30 5314 O 506.141 -3.49141 0.705606 0
M  V30 5315 O 505 -5.40082 0.835109 0
M  V30 5316 H 502.094 -0.821964 0.0911249 0
M  V30 5317 H 504.64 -1.4338 0.907757 0
M  V30 5318 H 503.412 -3.47187 1.8049 0
M  V30 5319 H 503.035 -3.97259 0.164605 0
M  V30 5320 N 504.032 -0.577932 -1.46621 0
M  V30 5321 C 505.279 -0.0616879 -2.02406 0
M  V30 5322 C 505.607 1.29638 -1.44997 0
M  V30 5323 O 504.862 1.86176 -0.60308 0
M  V30 5324 C 505.161 0.0590832 -3.57351 0
M  V30 5325 C 504.827 -1.23077 -4.33777 0
M  V30 5326 C 503.489 -1.58416 -4.54376 0
M  V30 5327 C 505.841 -2.08457 -4.77698 0
M  V30 5328 C 503.169 -2.78943 -5.16147 0
M  V30 5329 C 505.521 -3.28204 -5.408 0
M  V30 5330 C 504.185 -3.63832 -5.59627 0
M  V30 5331 H 503.455 -0.0225732 -0.740656 0
M  V30 5332 H 506.102 -0.753609 -1.76048 0
M  V30 5333 H 504.407 0.834104 -3.82818 0
M  V30 5334 H 506.104 0.474202 -3.98186 0
M  V30 5335 H 502.694 -0.945652 -4.18038 0
M  V30 5336 H 506.878 -1.82459 -4.61544 0
M  V30 5337 H 502.134 -3.06689 -5.28916 0
M  V30 5338 H 506.308 -3.94634 -5.73792 0
M  V30 5339 H 503.935 -4.57315 -6.07262 0
M  V30 5340 N 505.51 1.54411 -0.315457 0
M  V30 5341 C 506.442 2.21527 0.588067 0
M  V30 5342 C 507.455 1.21263 1.08624 0
M  V30 5343 O 508.644 1.47777 1.00121 0
M  V30 5344 C 505.744 2.85963 1.81875 0
M  V30 5345 C 504.917 4.12291 1.46063 0
M  V30 5346 C 503.976 4.60396 2.54799 0
M  V30 5347 O 503.002 5.25265 2.19283 0
M  V30 5348 N 504.204 4.33935 3.85591 0
M  V30 5349 H 506.969 2.99697 0.013414 0
M  V30 5350 H 504.53 1.61308 -0.138295 0
M  V30 5351 H 506.522 3.15071 2.53993 0
M  V30 5352 H 505.092 2.11548 2.30144 0
M  V30 5353 H 504.312 3.90036 0.571445 0
M  V30 5354 H 505.6 4.9452 1.19695 0
M  V30 5355 H 504.998 3.81996 4.17248 0
M  V30 5356 H 503.555 4.67718 4.53964 0
M  V30 5357 N 506.988 0.0434614 1.5754 0
M  V30 5358 C 507.898 -0.94893 2.14552 0
M  V30 5359 C 508.914 -1.34707 1.10136 0
M  V30 5360 O 510.09 -1.42557 1.42266 0
M  V30 5361 C 507.155 -2.208 2.67298 0
M  V30 5362 C 506.216 -1.86893 3.86484 0
M  V30 5363 C 505.449 -3.06797 4.36705 0
M  V30 5364 O 505.672 -4.19921 3.86034 0
M  V30 5365 O 504.606 -2.8826 5.28384 0
M  V30 5366 H 508.432 -0.494099 2.99654 0
M  V30 5367 H 506.017 -0.177989 1.48336 0
M  V30 5368 H 507.899 -2.94686 3.01228 0
M  V30 5369 H 506.574 -2.65436 1.85272 0
M  V30 5370 H 505.481 -1.10347 3.57455 0
M  V30 5371 H 506.814 -1.47062 4.69716 0
M  V30 5372 N 508.466 -1.55915 -0.229846 0
M  V30 5373 C 509.713 -1.78542 -0.955452 0
M  V30 5374 C 510.041 -0.610785 -1.84661 0
M  V30 5375 O 509.296 0.405213 -1.91459 0
M  V30 5376 C 509.595 -3.06845 -1.8325 0
M  V30 5377 C 509.261 -4.37395 -1.09528 0
M  V30 5378 C 507.923 -4.72868 -0.891598 0
M  V30 5379 C 510.275 -5.18029 -0.574046 0
M  V30 5380 C 507.603 -5.86496 -0.154655 0
M  V30 5381 C 509.955 -6.32423 0.149513 0
M  V30 5382 C 508.619 -6.66504 0.364519 0
M  V30 5383 H 507.889 -0.653333 -0.349625 0
M  V30 5384 H 510.536 -1.90183 -0.224235 0
M  V30 5385 H 508.841 -2.90291 -2.63132 0
M  V30 5386 H 510.538 -3.21553 -2.39592 0
M  V30 5387 H 507.128 -4.09538 -1.26399 0
M  V30 5388 H 511.312 -4.91066 -0.718899 0
M  V30 5389 H 506.568 -6.11396 0.0222356 0
M  V30 5390 H 510.742 -6.94137 0.560947 0
M  V30 5391 H 508.369 -7.54397 0.937495 0
M  V30 5392 N 509.944 0.496216 -1.49584 0
M  V30 5393 C 511.19 1.25189 -1.59548 0
M  V30 5394 C 511.523 1.9212 -0.283466 0
M  V30 5395 O 510.798 1.80947 0.713324 0
M  V30 5396 C 511.081 2.31516 -2.75812 0
M  V30 5397 C 510.934 1.69054 -4.16822 0
M  V30 5398 C 512.253 3.3304 -2.87702 0
M  V30 5399 H 509.372 0.45379 -0.580727 0
M  V30 5400 H 512.014 0.549327 -1.81886 0
M  V30 5401 H 510.164 2.91438 -2.56897 0
M  V30 5402 H 511.836 1.12923 -4.47265 0
M  V30 5403 H 510.079 0.994485 -4.22247 0
M  V30 5404 H 510.75 2.462 -4.94054 0
M  V30 5405 H 513.226 2.83114 -3.04936 0
M  V30 5406 H 512.102 4.04794 -3.7072 0
M  V30 5407 H 512.363 3.95655 -1.97255 0
M  V30 5408 N 511.423 1.38739 0.74761 0
M  V30 5409 C 512.371 1.36573 1.88283 0
M  V30 5410 C 513.365 0.250712 1.67534 0
M  V30 5411 O 514.571 0.420073 1.7503 0
M  V30 5412 H 510.946 0.42619 0.619569 0
M  V30 5413 H 512.917 2.32356 1.87226 0
M  V30 5414 C 511.666 1.21361 3.25832 0
M  V30 5415 H 510.989 2.06424 3.42388 0
M  V30 5416 H 512.429 1.23901 4.05493 0
M  V30 5417 C 510.888 -0.0790099 3.36807 0
M  V30 5418 O 511.418 -1.05385 3.8763 0
M  V30 5419 N 509.624 -0.13785 2.90273 0
M  V30 5420 H 509.171 0.656128 2.49104 0
M  V30 5421 H 509.129 -1.00228 2.97996 0
M  V30 5422 N 512.901 -0.976442 1.23707 0
M  V30 5423 C 513.848 -2.06952 1.02174 0
M  V30 5424 C 514.818 -1.65984 -0.0621034 0
M  V30 5425 O 516.003 -1.90584 0.0907906 0
M  V30 5426 C 513.143 -3.39425 0.62327 0
M  V30 5427 C 512.256 -3.9364 1.77966 0
M  V30 5428 C 511.391 -5.14343 1.3276 0
M  V30 5429 C 510.43 -5.60733 2.45449 0
M  V30 5430 N 509.567 -6.72662 2.01172 0
M  V30 5431 H 514.407 -2.24704 1.95734 0
M  V30 5432 H 511.944 -1.10143 0.975034 0
M  V30 5433 H 513.902 -4.15526 0.37332 0
M  V30 5434 H 512.532 -3.21624 -0.275329 0
M  V30 5435 H 511.584 -3.14258 2.14351 0
M  V30 5436 H 512.896 -4.24035 2.62671 0
M  V30 5437 H 512.05 -5.97789 1.03601 0
M  V30 5438 H 510.789 -4.8561 0.450975 0
M  V30 5439 H 509.794 -4.75865 2.75378 0
M  V30 5440 H 511.019 -5.91483 3.33654 0
M  V30 5441 H 508.965 -6.45681 1.15895 0
M  V30 5442 H 508.882 -7.02462 2.79434 0
M  V30 5443 H 510.15 -7.59572 1.75129 0
M  V30 5444 N 514.379 -1.04941 -1.1758 0
M  V30 5445 C 515.619 -0.766996 -1.89464 0
M  V30 5446 C 515.983 0.693123 -1.79053 0
M  V30 5447 O 517.184 1.08953 -2.45729 0
M  V30 5448 C 515.455 -1.23108 -3.35528 0
M  V30 5449 S 517.014 -1.07565 -4.25412 0
M  V30 5450 H 513.832 -0.278616 -0.654136 0
M  V30 5451 H 516.434 -1.34352 -1.4202 0
M  V30 5452 H 515.138 -2.28896 -3.40639 0
M  V30 5453 H 514.669 -0.648724 -3.88014 0
M  V30 5454 H 516.684 0.00169467 -4.962 0
M  V30 5455 N 515.857 1.33968 -0.830081 0
M  V30 5456 C 516.787 2.31911 -0.271911 0
M  V30 5457 C 517.768 1.58571 0.61556 0
M  V30 5458 O 518.953 1.86514 0.540946 0
M  V30 5459 C 516.083 3.42737 0.561146 0
M  V30 5460 C 515.037 4.27383 -0.229789 0
M  V30 5461 C 514.363 5.29742 0.726463 0
M  V30 5462 C 515.663 5.02 -1.44197 0
M  V30 5463 H 517.357 2.78844 -1.09025 0
M  V30 5464 H 514.903 1.34061 -0.52571 0
M  V30 5465 H 516.856 4.10276 0.961867 0
M  V30 5466 H 515.58 2.94471 1.41261 0
M  V30 5467 H 514.239 3.61456 -0.611964 0
M  V30 5468 H 513.887 4.77736 1.57408 0
M  V30 5469 H 513.587 5.87255 0.20142 0
M  V30 5470 H 515.111 6.00149 1.12489 0
M  V30 5471 H 516.525 5.62355 -1.11488 0
M  V30 5472 H 514.922 5.69122 -1.90317 0
M  V30 5473 H 515.992 4.31281 -2.2164 0
M  V30 5474 N 517.335 0.585699 1.46312 0
M  V30 5475 C 518.584 0.0701192 2.01578 0
M  V30 5476 C 518.897 -1.29889 1.46247 0
M  V30 5477 O 520.103 -1.90598 1.93351 0
M  V30 5478 C 518.559 0.0747499 3.59822 0
M  V30 5479 C 518.167 1.44226 4.24149 0
M  V30 5480 C 519.911 -0.38673 4.22735 0
M  V30 5481 C 517.818 1.40446 5.74481 0
M  V30 5482 H 516.748 0.0224441 0.753666 0
M  V30 5483 H 519.399 0.737789 1.68015 0
M  V30 5484 H 517.781 -0.659144 3.90476 0
M  V30 5485 H 518.955 2.19612 4.05101 0
M  V30 5486 H 517.27 1.84401 3.73343 0
M  V30 5487 H 519.867 -0.433853 5.32937 0
M  V30 5488 H 520.21 -1.40489 3.91878 0
M  V30 5489 H 520.743 0.293195 3.96718 0
M  V30 5490 H 517.482 2.39952 6.10003 0
M  V30 5491 H 517.002 0.692845 5.95785 0
M  V30 5492 H 518.681 1.11865 6.37256 0
M  V30 5493 N 518.813 -1.54241 0.323641 0
M  V30 5494 C 519.76 -2.24339 -0.542277 0
M  V30 5495 C 520.73 -1.23421 -1.11159 0
M  V30 5496 O 521.915 -1.52104 -1.15192 0
M  V30 5497 C 519.055 -3.00479 -1.69725 0
M  V30 5498 C 518.168 -4.16214 -1.15716 0
M  V30 5499 C 517.303 -4.79884 -2.27783 0
M  V30 5500 C 516.342 -5.87722 -1.71023 0
M  V30 5501 N 515.479 -6.45254 -2.76752 0
M  V30 5502 H 520.319 -2.97935 0.0620613 0
M  V30 5503 H 517.856 -1.47039 0.0423993 0
M  V30 5504 H 519.814 -3.42869 -2.3769 0
M  V30 5505 H 518.444 -2.29217 -2.27288 0
M  V30 5506 H 517.496 -3.78605 -0.369063 0
M  V30 5507 H 518.808 -4.93838 -0.701832 0
M  V30 5508 H 517.962 -5.25243 -3.03651 0
M  V30 5509 H 516.701 -4.01641 -2.76652 0
M  V30 5510 H 515.706 -5.41765 -0.936518 0
M  V30 5511 H 516.931 -6.67863 -1.2303 0
M  V30 5512 H 514.877 -5.69884 -3.24912 0
M  V30 5513 H 514.794 -7.18292 -2.35782 0
M  V30 5514 H 516.062 -6.95269 -3.5245 0
M  V30 5515 N 520.291 -0.0518155 -1.57515 0
M  V30 5516 C 521.239 0.940195 -2.12751 0
M  V30 5517 C 522.233 1.3218 -1.05948 0
M  V30 5518 O 523.439 1.30138 -1.24355 0
M  V30 5519 H 519.814 0.321066 -0.680015 0
M  V30 5520 H 521.785 0.449217 -2.94999 0
M  V30 5521 C 520.534 2.2055 -2.68799 0
M  V30 5522 H 519.857 1.92066 -3.50643 0
M  V30 5523 H 521.297 2.88119 -3.11068 0
M  V30 5524 C 519.756 2.95061 -1.62605 0
M  V30 5525 O 520.286 3.88025 -1.03921 0
M  V30 5526 N 518.492 2.57804 -1.34111 0
M  V30 5527 H 518.039 1.82281 -1.8202 0
M  V30 5528 H 517.997 3.07964 -0.632872 0
M  V30 5529 N 521.769 1.56035 0.221574 0
M  V30 5530 C 523.18 1.69229 0.788567 0
M  V30 5531 C 523.531 0.653814 1.84986 0
M  V30 5532 O 522.656 -0.195065 2.15519 0
M  V30 5533 C 523.251 3.06809 1.43713 0
M  V30 5534 C 521.81 3.21858 1.95152 0
M  V30 5535 C 520.957 2.65155 0.811685 0
M  V30 5536 H 523.908 1.587 -0.00307894 0
M  V30 5537 H 523.929 3.02666 2.30594 0
M  V30 5538 H 523.441 3.82369 0.664475 0
M  V30 5539 H 521.542 2.51167 2.7522 0
M  V30 5540 H 521.655 4.29073 2.1315 0
M  V30 5541 H 520.019 2.23635 1.21899 0
M  V30 5542 H 520.802 3.43261 0.0516987 0
M  V30 5543 N 523.247 -0.488276 1.49845 0
M  V30 5544 C 524.21 -1.57069 1.66919 0
M  V30 5545 C 525.21 -1.51445 0.540479 0
M  V30 5546 O 526.4 -1.5437 0.807188 0
M  V30 5547 C 523.532 -2.96718 1.67844 0
M  V30 5548 H 524.725 -1.43254 2.63474 0
M  V30 5549 H 522.278 -0.713435 1.39068 0
M  V30 5550 H 523.013 -3.15996 0.7292 0
M  V30 5551 H 522.798 -3.02208 2.49826 0
M  V30 5552 H 524.288 -3.75335 1.83066 0
M  V30 5553 N 524.725 -1.39134 -0.740242 0
M  V30 5554 C 525.635 -1.39697 -1.88473 0
M  V30 5555 C 526.651 -0.292403 -1.71526 0
M  V30 5556 O 527.827 -0.533021 -1.94219 0
M  V30 5557 C 524.892 -1.23382 -3.24003 0
M  V30 5558 C 523.953 -2.43763 -3.53381 0
M  V30 5559 C 523.186 -2.28216 -4.82445 0
M  V30 5560 O 523.409 -1.28288 -5.55786 0
M  V30 5561 O 522.343 -3.1709 -5.11603 0
M  V30 5562 H 526.169 -2.36159 -1.90952 0
M  V30 5563 H 523.754 -1.20194 -0.887346 0
M  V30 5564 H 525.636 -1.16395 -4.05006 0
M  V30 5565 H 524.311 -0.300121 -3.22306 0
M  V30 5566 H 523.218 -2.56325 -2.72485 0
M  V30 5567 H 524.551 -3.35808 -3.59852 0
M  V30 5568 N 526.204 0.969867 -1.24223 0
M  V30 5569 C 527.62 1.23809 -1.00716 0
M  V30 5570 C 527.82 1.99469 0.285358 0
M  V30 5571 O 526.876 2.31764 1.00207 0
M  V30 5572 C 528.189 2.02734 -2.2208 0
M  V30 5573 C 529.737 2.15834 -2.26681 0
M  V30 5574 C 530.212 2.98154 -3.47661 0
M  V30 5575 N 531.703 3.05737 -3.47964 0
M  V30 5576 C 532.438 3.69785 -4.38231 0
M  V30 5577 N 531.934 4.35569 -5.3875 0
M  V30 5578 N 533.727 3.66775 -4.25949 0
M  V30 5579 H 525.878 0.463294 -2.07286 0
M  V30 5580 H 528.141 0.267348 -0.909521 0
M  V30 5581 H 527.847 1.54524 -3.15935 0
M  V30 5582 H 527.721 3.0347 -2.24021 0
M  V30 5583 H 530.108 2.63248 -1.33359 0
M  V30 5584 H 530.189 1.14453 -2.28767 0
M  V30 5585 H 529.833 2.51435 -4.41297 0
M  V30 5586 H 529.763 3.99729 -3.42818 0
M  V30 5587 H 532.254 2.58941 -2.75242 0
M  V30 5588 H 532.567 4.82251 -6.03866 0
M  V30 5589 H 530.912 4.34244 -5.42639 0
M  V30 5590 H 534.103 3.14558 -3.46657 0
M  V30 5591 H 534.276 4.16407 -4.96497 0
M  V30 5592 N 527.682 1.05563 1.17022 0
M  V30 5593 C 528.645 0.664098 2.19368 0
M  V30 5594 C 529.645 -0.286358 1.5823 0
M  V30 5595 O 530.835 -0.069728 1.7406 0
M  V30 5596 C 527.967 -0.0239932 3.40892 0
M  V30 5597 H 529.16 1.57 2.55521 0
M  V30 5598 H 526.713 0.849964 1.31169 0
M  V30 5599 H 527.448 -0.942988 3.10287 0
M  V30 5600 H 527.233 0.659351 3.86516 0
M  V30 5601 H 528.723 -0.283909 4.16634 0
M  V30 5602 N 529.16 -1.33526 0.837174 0
M  V30 5603 C 530.437 -1.92369 0.354065 0
M  V30 5604 C 530.817 -1.76348 -1.16038 0
M  V30 5605 O 530.165 -1.15083 -1.97403 0
M  V30 5606 C 530.375 -3.39728 0.799101 0
M  V30 5607 C 531.723 -4.16877 0.806139 0
M  V30 5608 O 532.747 -3.48373 0.742597 0
M  V30 5609 O 531.606 -5.39166 0.892345 0
M  V30 5610 H 528.7 -0.820952 0.0998378 0
M  V30 5611 H 531.246 -1.42409 0.922913 0
M  V30 5612 H 530.018 -3.45254 1.84162 0
M  V30 5613 H 529.641 -3.97062 0.206731 0
M  V30 5614 N 530.638 -0.59345 -1.46 0
M  V30 5615 C 531.568 0.121192 -2.33185 0
M  V30 5616 C 532.549 0.872977 -1.4599 0
M  V30 5617 O 533.734 0.846321 -1.74789 0
M  V30 5618 C 530.864 1.12844 -3.28456 0
M  V30 5619 C 529.818 0.4908 -4.25177 0
M  V30 5620 C 529.144 1.60529 -5.10034 0
M  V30 5621 C 530.444 -0.578949 -5.19081 0
M  V30 5622 H 532.138 -0.606767 -2.93187 0
M  V30 5623 H 529.684 -0.293242 -1.40983 0
M  V30 5624 H 531.637 1.63684 -3.88311 0
M  V30 5625 H 530.361 1.88681 -2.66584 0
M  V30 5626 H 529.02 0.00339328 -3.666 0
M  V30 5627 H 528.668 2.35359 -4.44539 0
M  V30 5628 H 528.368 1.18422 -5.75543 0
M  V30 5629 H 529.892 2.11623 -5.72755 0
M  V30 5630 H 531.306 -0.155199 -5.7309 0
M  V30 5631 H 529.703 -0.920947 -5.92991 0
M  V30 5632 H 530.773 -1.46109 -4.62364 0
M  V30 5633 N 532.116 1.54067 -0.331816 0
M  V30 5634 C 533.063 2.24623 0.530372 0
M  V30 5635 C 534.033 1.24009 1.10503 0
M  V30 5636 O 535.218 1.52712 1.14384 0
M  V30 5637 C 532.358 3.01374 1.68129 0
M  V30 5638 C 531.471 4.16821 1.13507 0
M  V30 5639 C 530.606 4.81085 2.25234 0
M  V30 5640 C 529.645 5.88621 1.67903 0
M  V30 5641 N 528.782 6.46713 2.73326 0
M  V30 5642 H 533.622 2.97898 -0.0778607 0
M  V30 5643 H 531.159 1.47014 -0.0501965 0
M  V30 5644 H 533.117 3.44125 2.35868 0
M  V30 5645 H 531.747 2.30419 2.26069 0
M  V30 5646 H 530.799 3.78796 0.348979 0
M  V30 5647 H 532.111 4.94203 0.675633 0
M  V30 5648 H 531.265 5.26846 3.00862 0
M  V30 5649 H 530.004 4.03102 2.74518 0
M  V30 5650 H 529.009 5.42254 0.907773 0
M  V30 5651 H 530.234 6.68506 1.19487 0
M  V30 5652 H 528.18 5.71599 3.21886 0
M  V30 5653 H 528.097 7.19532 2.3197 0
M  V30 5654 H 529.365 6.97129 3.48758 0
M  V30 5655 N 533.594 0.0601682 1.57485 0
M  V30 5656 C 534.527 -0.94676 2.07634 0
M  V30 5657 C 535.505 -1.29837 0.978826 0
M  V30 5658 O 536.689 -1.40969 1.2514 0
M  V30 5659 C 533.816 -2.25822 2.52433 0
M  V30 5660 C 532.862 -2.05901 3.73507 0
M  V30 5661 S 533.695 -1.32907 5.18745 0
M  V30 5662 C 534.851 -2.65356 5.66866 0
M  V30 5663 H 535.084 -0.520003 2.92717 0
M  V30 5664 H 532.617 -0.152319 1.53647 0
M  V30 5665 H 534.575 -3.01201 2.78905 0
M  V30 5666 H 533.236 -2.65624 1.67639 0
M  V30 5667 H 532.429 -3.02929 4.02803 0
M  V30 5668 H 532.031 -1.38659 3.47347 0
M  V30 5669 H 534.323 -3.61492 5.73001 0
M  V30 5670 H 535.266 -2.40685 6.6594 0
M  V30 5671 H 535.674 -2.72028 4.94632 0
M  V30 5672 N 535.072 -1.5615 -0.213296 0
M  V30 5673 C 536.002 -1.96109 -1.26742 0
M  V30 5674 C 536.983 -0.830448 -1.48451 0
M  V30 5675 O 538.168 -1.09339 -1.60495 0
M  V30 5676 C 535.298 -2.28492 -2.61551 0
M  V30 5677 C 534.252 -3.44124 -2.54485 0
M  V30 5678 C 533.578 -3.62134 -3.93399 0
M  V30 5679 C 534.878 -4.78855 -2.08556 0
M  V30 5680 H 536.572 -2.84412 -0.935434 0
M  V30 5681 H 534.118 -1.36836 -0.44854 0
M  V30 5682 H 536.071 -2.55039 -3.3546 0
M  V30 5683 H 534.795 -1.37052 -2.96453 0
M  V30 5684 H 533.454 -3.17639 -1.83033 0
M  V30 5685 H 533.102 -2.68055 -4.25623 0
M  V30 5686 H 532.802 -4.39913 -3.89551 0
M  V30 5687 H 534.326 -3.91038 -4.68958 0
M  V30 5688 H 535.74 -5.04552 -2.72213 0
M  V30 5689 H 534.137 -5.59975 -2.1575 0
M  V30 5690 H 535.207 -4.73657 -1.03811 0
M  V30 5691 N 536.55 0.480323 -1.50102 0
M  V30 5692 C 537.778 1.25657 -1.64371 0
M  V30 5693 C 538.193 1.86011 -0.323316 0
M  V30 5694 O 537.55 1.68803 0.693682 0
M  V30 5695 C 537.601 2.37197 -2.728 0
M  V30 5696 O 537.322 1.7932 -3.9972 0
M  V30 5697 C 538.823 3.2823 -2.9796 0
M  V30 5698 H 536.043 0.380369 -0.552775 0
M  V30 5699 H 538.587 0.574379 -1.96268 0
M  V30 5700 H 536.742 3.01208 -2.43623 0
M  V30 5701 H 537.156 2.52701 -4.59611 0
M  V30 5702 H 538.63 4.02725 -3.77513 0
M  V30 5703 H 539.107 3.86462 -2.08671 0
M  V30 5704 H 539.713 2.69964 -3.28633 0
M  V30 5705 N 538.028 1.39524 0.732853 0
M  V30 5706 C 538.976 1.38563 1.86824 0
M  V30 5707 C 539.97 0.268467 1.67259 0
M  V30 5708 O 541.176 0.438613 1.74574 0
M  V30 5709 H 537.551 0.432737 0.615014 0
M  V30 5710 H 539.522 2.34328 1.84751 0
M  V30 5711 C 538.271 1.2481 3.24527 0
M  V30 5712 H 537.594 2.10044 3.40179 0
M  V30 5713 H 539.034 1.28194 4.04156 0
M  V30 5714 C 537.493 -0.0432825 3.36872 0
M  V30 5715 O 538.023 -1.01268 3.88726 0
M  V30 5716 N 536.229 -0.107055 2.90403 0
M  V30 5717 H 535.776 0.682512 2.48394 0
M  V30 5718 H 535.734 -0.970618 2.99042 0
M  V30 5719 N 539.506 -0.963266 1.24736 0
M  V30 5720 C 540.456 -2.0438 1.01058 0
M  V30 5721 C 541.44 -1.60824 -0.0495354 0
M  V30 5722 O 542.632 -1.76232 0.164741 0
M  V30 5723 C 539.761 -3.37617 0.622067 0
M  V30 5724 C 538.847 -3.87722 1.7185 0
M  V30 5725 N 539.238 -4.10715 2.95207 0
M  V30 5726 C 537.536 -4.16426 1.59703 0
M  V30 5727 C 538.237 -4.51872 3.66315 0
M  V30 5728 N 537.213 -4.57302 2.93897 0
M  V30 5729 H 541.015 -2.20138 1.94721 0
M  V30 5730 H 538.529 -1.14741 1.14927 0
M  V30 5731 H 540.526 -4.14638 0.43366 0
M  V30 5732 H 539.186 -3.23242 -0.307327 0
M  V30 5733 H 540.197 -3.98037 3.31341 0
M  V30 5734 H 536.874 -4.10962 0.73598 0
M  V30 5735 H 538.264 -4.78037 4.72155 0
M  V30 5736 N 540.985 -1.06182 -1.16461 0
M  V30 5737 C 542.213 -0.798583 -1.90867 0
M  V30 5738 C 542.628 0.646921 -1.77371 0
M  V30 5739 O 541.985 1.44279 -1.11758 0
M  V30 5740 C 542.036 -1.18258 -3.4161 0
M  V30 5741 O 541.757 -2.57135 -3.54701 0
M  V30 5742 C 543.258 -0.946917 -4.33069 0
M  V30 5743 H 540.478 -0.289603 -0.605286 0
M  V30 5744 H 543.022 -1.41515 -1.47627 0
M  V30 5745 H 541.177 -0.610562 -3.82558 0
M  V30 5746 H 541.591 -2.72477 -4.4817 0
M  V30 5747 H 543.065 -1.26523 -5.37304 0
M  V30 5748 H 543.542 0.117406 -4.39043 0
M  V30 5749 H 544.148 -1.50326 -3.97847 0
M  V30 5750 N 542.463 1.3308 -0.844243 0
M  V30 5751 C 543.71 1.97605 -0.44255 0
M  V30 5752 C 544.038 1.66856 0.999458 0
M  V30 5753 O 543.293 0.943586 1.7145 0
M  V30 5754 C 543.592 3.52045 -0.616354 0
M  V30 5755 C 543.258 4.02757 -2.02726 0
M  V30 5756 C 541.92 4.16316 -2.41317 0
M  V30 5757 C 544.272 4.29776 -2.9486 0
M  V30 5758 C 541.6 4.54232 -3.71335 0
M  V30 5759 C 543.952 4.69146 -4.24364 0
M  V30 5760 C 542.616 4.80911 -4.62904 0
M  V30 5761 H 541.886 0.723088 -0.161941 0
M  V30 5762 H 544.533 1.58663 -1.0723 0
M  V30 5763 H 542.838 3.91681 0.0966812 0
M  V30 5764 H 544.535 3.99981 -0.285756 0
M  V30 5765 H 541.125 3.9268 -1.71756 0
M  V30 5766 H 545.309 4.18818 -2.6628 0
M  V30 5767 H 540.565 4.61535 -4.00993 0
M  V30 5768 H 544.739 4.89008 -4.95827 0
M  V30 5769 H 542.366 5.10048 -5.63698 0
M  V30 5770 N 543.941 0.601185 1.45683 0
M  V30 5771 C 545.19 0.0914953 2.01492 0
M  V30 5772 C 545.503 -1.28331 1.47616 0
M  V30 5773 O 546.709 -1.88537 1.95362 0
M  V30 5774 C 545.165 0.11291 3.59723 0
M  V30 5775 C 544.773 1.48717 4.22596 0
M  V30 5776 C 546.517 -0.341871 4.23121 0
M  V30 5777 C 544.424 1.46531 5.7296 0
M  V30 5778 H 543.354 0.0304365 0.753385 0
M  V30 5779 H 546.005 0.755568 1.67223 0
M  V30 5780 H 544.387 -0.617692 3.91153 0
M  V30 5781 H 545.561 2.23897 4.02749 0
M  V30 5782 H 543.876 1.88351 3.71366 0
M  V30 5783 H 546.473 -0.377304 5.33367 0
M  V30 5784 H 546.816 -1.36325 3.93346 0
M  V30 5785 H 547.349 0.335256 3.96385 0
M  V30 5786 H 544.088 2.46408 6.07423 0
M  V30 5787 H 543.608 0.755997 5.95017 0
M  V30 5788 H 545.287 1.18618 6.36034 0
M  V30 5789 N 545.419 -1.53889 0.339982 0
M  V30 5790 C 546.366 -2.24902 -0.518452 0
M  V30 5791 C 547.336 -1.24593 -1.09844 0
M  V30 5792 O 548.521 -1.53317 -1.13572 0
M  V30 5793 C 545.661 -3.02262 -1.66529 0
M  V30 5794 C 544.774 -4.17418 -1.11295 0
M  V30 5795 C 543.909 -4.82273 -2.2268 0
M  V30 5796 C 542.948 -5.89503 -1.6478 0
M  V30 5797 N 542.085 -6.48153 -2.69893 0
M  V30 5798 H 546.925 -2.97853 0.0936579 0
M  V30 5799 H 544.462 -1.46986 0.0579924 0
M  V30 5800 H 546.42 -3.45371 -2.3404 0
M  V30 5801 H 545.05 -2.31614 -2.24844 0
M  V30 5802 H 544.102 -3.78976 -0.328886 0
M  V30 5803 H 545.414 -4.94554 -0.649414 0
M  V30 5804 H 544.568 -5.28435 -2.98063 0
M  V30 5805 H 543.307 -4.04552 -2.72376 0
M  V30 5806 H 542.312 -5.42728 -0.879004 0
M  V30 5807 H 543.537 -6.6913 -1.1594 0
M  V30 5808 H 541.483 -5.73298 -3.1885 0
M  V30 5809 H 541.4 -7.20752 -2.28151 0
M  V30 5810 H 542.668 -6.98968 -3.45056 0
M  V30 5811 N 546.897 -0.0685191 -1.57451 0
M  V30 5812 C 548.313 0.288101 -1.56978 0
M  V30 5813 C 548.513 1.70262 -1.07765 0
M  V30 5814 O 547.569 2.4135 -0.742054 0
M  V30 5815 C 548.882 0.100745 -3.00531 0
M  V30 5816 C 550.43 0.170531 -3.12535 0
M  V30 5817 C 550.905 0.0114944 -4.57999 0
M  V30 5818 N 552.396 0.0672065 -4.63151 0
M  V30 5819 C 553.131 -0.0314813 -5.73391 0
M  V30 5820 N 552.627 -0.183503 -6.92557 0
M  V30 5821 N 554.42 0.0253489 -5.62094 0
M  V30 5822 H 546.571 -0.993026 -1.87757 0
M  V30 5823 H 548.834 -0.386981 -0.865419 0
M  V30 5824 H 548.54 -0.875197 -3.40636 0
M  V30 5825 H 548.414 0.854457 -3.67395 0
M  V30 5826 H 550.801 1.13696 -2.72318 0
M  V30 5827 H 550.882 -0.614229 -2.48316 0
M  V30 5828 H 550.526 -0.951684 -4.98904 0
M  V30 5829 H 550.456 0.815617 -5.20245 0
M  V30 5830 H 552.947 0.183246 -3.77455 0
M  V30 5831 H 553.26 -0.251041 -7.72392 0
M  V30 5832 H 551.605 -0.218822 -6.94655 0
M  V30 5833 H 554.796 0.142794 -4.67882 0
M  V30 5834 H 554.969 -0.0550166 -6.47977 0
M  V30 5835 N 548.375 1.56261 0.205012 0
M  V30 5836 C 549.6 1.84491 0.947512 0
M  V30 5837 C 550.025 0.650894 1.76479 0
M  V30 5838 O 549.383 -0.40035 1.76824 0
M  V30 5839 C 549.431 3.10863 1.82747 0
M  V30 5840 O 548.535 2.90719 2.925 0
M  V30 5841 H 547.876 0.607783 0.267386 0
M  V30 5842 H 550.406 2.03485 0.213323 0
M  V30 5843 H 550.416 3.41399 2.23407 0
M  V30 5844 H 549.091 3.97392 1.2269 0
M  V30 5845 H 547.668 2.71457 2.55667 0
M  V30 5846 N 549.853 -0.472356 1.50355 0
M  V30 5847 C 550.763 -1.59637 1.7191 0
M  V30 5848 C 551.779 -1.63247 0.602195 0
M  V30 5849 O 552.955 -1.81139 0.880369 0
M  V30 5850 C 550.02 -2.9586 1.80742 0
M  V30 5851 C 549.081 -3.02649 3.04471 0
M  V30 5852 C 548.314 -4.32374 3.12872 0
M  V30 5853 O 548.537 -5.22807 2.28099 0
M  V30 5854 O 547.471 -4.44728 4.05587 0
M  V30 5855 H 551.297 -1.44373 2.67189 0
M  V30 5856 H 548.882 -0.651717 1.34436 0
M  V30 5857 H 550.764 -3.7677 1.88739 0
M  V30 5858 H 549.439 -3.11325 0.88647 0
M  V30 5859 H 548.346 -2.20821 3.01975 0
M  V30 5860 H 549.679 -2.92119 3.9614 0
M  V30 5861 N 551.331 -1.39911 -0.725443 0
M  V30 5862 C 552.577 -1.37858 -1.48738 0
M  V30 5863 C 552.91 0.0224187 -1.94187 0
M  V30 5864 O 552.185 0.989204 -1.67466 0
M  V30 5865 C 552.468 -2.3594 -2.72038 0
M  V30 5866 C 552.321 -3.85023 -2.32546 0
M  V30 5867 C 553.64 -2.31704 -3.74167 0
M  V30 5868 H 550.759 -0.502074 -0.539528 0
M  V30 5869 H 553.401 -1.70974 -0.828728 0
M  V30 5870 H 551.551 -2.0783 -3.28236 0
M  V30 5871 H 553.223 -4.2392 -1.81905 0
M  V30 5872 H 551.466 -4.01334 -1.64661 0
M  V30 5873 H 552.137 -4.49152 -3.20884 0
M  V30 5874 H 554.613 -2.5658 -3.27576 0
M  V30 5875 H 553.489 -3.02395 -4.58092 0
M  V30 5876 H 553.75 -1.3253 -4.21768 0
M  V30 5877 N 552.809 0.956637 -1.25245 0
M  V30 5878 C 553.719 2.0868 -1.0719 0
M  V30 5879 C 554.735 1.73997 -0.00959074 0
M  V30 5880 O 555.911 2.00301 -0.210104 0
M  V30 5881 C 552.976 3.39754 -0.690526 0
M  V30 5882 C 552.037 3.88316 -1.83055 0
M  V30 5883 C 551.27 5.13134 -1.46728 0
M  V30 5884 O 551.493 5.6925 -0.362029 0
M  V30 5885 O 550.427 5.56356 -2.29677 0
M  V30 5886 H 554.253 2.26813 -2.01965 0
M  V30 5887 H 551.838 1.07098 -1.04165 0
M  V30 5888 H 553.72 4.18543 -0.489871 0
M  V30 5889 H 552.395 3.22896 0.227981 0
M  V30 5890 H 551.302 3.1054 -2.08604 0
M  V30 5891 H 552.635 4.09669 -2.72822 0
M  V30 5892 N 554.287 1.06798 1.15896 0
M  V30 5893 C 555.197 0.694564 2.24083 0
M  V30 5894 C 556.213 -0.291687 1.71538 0
M  V30 5895 O 557.389 -0.139723 2.00915 0
M  V30 5896 C 554.454 0.0921014 3.46578 0
M  V30 5897 C 553.515 1.13087 4.14137 0
M  V30 5898 C 552.748 0.557064 5.30785 0
M  V30 5899 O 552.971 -0.628623 5.66925 0
M  V30 5900 O 551.905 1.29924 5.8771 0
M  V30 5901 H 555.731 1.59663 2.58344 0
M  V30 5902 H 553.316 0.840575 1.2351 0
M  V30 5903 H 555.198 -0.241884 4.20705 0
M  V30 5904 H 553.873 -0.78337 3.14078 0
M  V30 5905 H 552.78 1.51712 3.41957 0
M  V30 5906 H 554.113 1.97805 4.50704 0
M  V30 5907 N 555.766 -1.3263 0.851289 0
M  V30 5908 C 557.012 -1.9766 0.453694 0
M  V30 5909 C 557.345 -1.67225 -0.987396 0
M  V30 5910 O 556.62 -0.958693 -1.69232 0
M  V30 5911 C 556.903 -3.5344 0.68936 0
M  V30 5912 C 556.756 -3.93517 2.17862 0
M  V30 5913 C 558.075 -4.39866 0.143555 0
M  V30 5914 H 555.194 -0.717989 0.166314 0
M  V30 5915 H 557.836 -1.57068 1.06909 0
M  V30 5916 H 555.986 -3.88147 0.165546 0
M  V30 5917 H 557.658 -3.69006 2.76826 0
M  V30 5918 H 555.901 -3.42798 2.65841 0
M  V30 5919 H 556.572 -5.02065 2.29422 0
M  V30 5920 H 559.048 -4.11875 0.591451 0
M  V30 5921 H 557.924 -5.47858 0.338043 0
M  V30 5922 H 558.185 -4.31696 -0.953466 0
M  V30 5923 N 557.244 -0.608902 -1.45362 0
M  V30 5924 C 558.521 -0.0365378 -1.95566 0
M  V30 5925 C 558.901 1.43169 -1.55131 0
M  V30 5926 O 558.249 2.1349 -0.814513 0
M  V30 5927 C 558.459 -0.236026 -3.48201 0
M  V30 5928 C 559.807 -0.117518 -4.24437 0
M  V30 5929 O 560.831 -0.166217 -3.55812 0
M  V30 5930 O 559.69 -0.00372127 -5.465 0
M  V30 5931 H 556.784 0.0349874 -0.82626 0
M  V30 5932 H 559.33 -0.679055 -1.55521 0
M  V30 5933 H 558.102 -1.25569 -3.70605 0
M  V30 5934 H 557.725 0.441691 -3.95139 0
M  V30 5935 N 558.722 1.53707 -0.348139 0
M  V30 5936 C 559.969 2.00988 0.246966 0
M  V30 5937 C 560.297 1.23586 1.50189 0
M  V30 5938 O 559.552 0.312817 1.93184 0
M  V30 5939 C 559.851 3.52292 0.602061 0
M  V30 5940 C 559.517 4.47453 -0.556509 0
M  V30 5941 C 558.179 4.73188 -0.874446 0
M  V30 5942 C 560.531 5.03851 -1.33354 0
M  V30 5943 C 557.859 5.52577 -1.9717 0
M  V30 5944 C 560.211 5.84437 -2.42108 0
M  V30 5945 C 558.875 6.08465 -2.74456 0
M  V30 5946 H 558.145 0.735469 0.0903712 0
M  V30 5947 H 560.792 1.85464 -0.477001 0
M  V30 5948 H 559.097 3.65672 1.40681 0
M  V30 5949 H 560.794 3.86337 1.07447 0
M  V30 5950 H 557.384 4.27558 -0.298652 0
M  V30 5951 H 561.568 4.8393 -1.10117 0
M  V30 5952 H 556.824 5.69418 -2.22651 0
M  V30 5953 H 560.998 6.27151 -3.02745 0
M  V30 5954 H 558.625 6.69768 -3.59604 0
M  V30 5955 N 560.2 0.0768682 1.57412 0
M  V30 5956 C 561.163 -0.873949 2.11884 0
M  V30 5957 C 562.163 -1.22301 1.04398 0
M  V30 5958 O 563.353 -1.15545 1.30365 0
M  V30 5959 C 560.485 -2.17575 2.62438 0
M  V30 5960 H 561.678 -0.401278 2.97203 0
M  V30 5961 H 559.231 -0.171904 1.55352 0
M  V30 5962 H 559.966 -2.69368 1.80587 0
M  V30 5963 H 559.751 -1.93534 3.41009 0
M  V30 5964 H 561.241 -2.85631 3.04639 0
M  V30 5965 N 561.678 -1.56367 -0.196722 0
M  V30 5966 C 562.926 -1.80172 -0.915554 0
M  V30 5967 C 563.247 -0.649649 -1.8386 0
M  V30 5968 O 562.517 0.332111 -1.93064 0
M  V30 5969 H 561.097 -0.664592 -0.341067 0
M  V30 5970 H 563.759 -1.93844 -0.202622 0
M  V30 5971 H 562.855 -2.7327 -1.50764 0
M  V30 5972 N 563.156 0.464375 -1.50603 0
M  V30 5973 C 564.402 1.21485 -1.63135 0
M  V30 5974 C 564.757 1.89538 -0.33063 0
M  V30 5975 O 564.05 1.79432 0.671903 0
M  V30 5976 C 564.244 2.278 -2.75394 0
M  V30 5977 C 564.073 1.70178 -4.16257 0
M  V30 5978 C 562.843 1.49854 -4.82568 0
M  V30 5979 C 565.041 1.19298 -5.00272 0
M  V30 5980 N 563.023 0.875458 -6.07626 0
M  V30 5981 C 564.394 0.693527 -6.16109 0
M  V30 5982 C 566.449 1.08216 -4.85998 0
M  V30 5983 C 565.152 0.0941808 -7.19238 0
M  V30 5984 C 567.178 0.496745 -5.8931 0
M  V30 5985 C 566.54 0.00770448 -7.044 0
M  V30 5986 H 562.639 0.433184 -0.651057 0
M  V30 5987 H 565.223 0.515748 -1.87745 0
M  V30 5988 H 563.394 2.95129 -2.52495 0
M  V30 5989 H 565.126 2.94814 -2.77249 0
M  V30 5990 H 561.881 1.75269 -4.39975 0
M  V30 5991 H 562.305 0.582135 -6.74493 0
M  V30 5992 H 566.947 1.44617 -3.97298 0
M  V30 5993 H 564.665 -0.28202 -8.07608 0
M  V30 5994 H 568.251 0.413275 -5.8033 0
M  V30 5995 H 567.131 -0.438188 -7.82975 0
M  V30 5996 N 564.634 1.40294 0.718013 0
M  V30 5997 C 565.564 1.43118 1.84498 0
M  V30 5998 C 566.545 0.292403 1.67568 0
M  V30 5999 O 567.73 0.500675 1.87635 0
M  V30 6000 C 564.86 1.29065 3.22427 0
M  V30 6001 C 563.814 2.40521 3.54025 0
M  V30 6002 C 563.14 2.11546 4.91073 0
M  V30 6003 C 564.44 3.82859 3.55269 0
M  V30 6004 H 566.134 2.37432 1.82391 0
M  V30 6005 H 563.68 1.14283 0.87609 0
M  V30 6006 H 565.633 1.29658 4.00957 0
M  V30 6007 H 564.357 0.312271 3.25104 0
M  V30 6008 H 563.016 2.39173 2.77834 0
M  V30 6009 H 562.664 1.12104 4.90348 0
M  V30 6010 H 562.364 2.86216 5.1318 0
M  V30 6011 H 563.888 2.13817 5.71939 0
M  V30 6012 H 565.302 3.86044 4.23843 0
M  V30 6013 H 563.699 4.57029 3.88902 0
M  V30 6014 H 564.769 4.12617 2.54706 0
M  V30 6015 N 566.112 -0.949982 1.2575 0
M  V30 6016 C 567.352 -1.70994 1.11984 0
M  V30 6017 C 567.716 -1.89095 -0.332746 0
M  V30 6018 O 568.917 -2.62192 -0.592331 0
M  V30 6019 C 567.188 -3.05286 1.85837 0
M  V30 6020 S 568.747 -3.96477 1.88019 0
M  V30 6021 H 565.565 -0.587689 0.400178 0
M  V30 6022 H 568.167 -1.13271 1.59342 0
M  V30 6023 H 566.871 -2.89785 2.90608 0
M  V30 6024 H 566.402 -3.68069 1.38885 0
M  V30 6025 H 568.417 -4.86814 0.96057 0
M  V30 6026 N 567.59 -1.07411 -1.15328 0
M  V30 6027 C 568.537 -0.694995 -2.20087 0
M  V30 6028 C 569.507 0.313904 -1.63107 0
M  V30 6029 O 570.692 0.200216 -1.89747 0
M  V30 6030 C 567.832 -0.0996218 -3.44956 0
M  V30 6031 C 566.945 -1.16007 -4.16133 0
M  V30 6032 C 566.08 -0.529636 -5.28553 0
M  V30 6033 C 565.119 -1.57283 -5.91548 0
M  V30 6034 N 564.256 -0.964932 -6.95438 0
M  V30 6035 H 569.096 -1.5927 -2.51867 0
M  V30 6036 H 566.633 -0.796115 -1.23695 0
M  V30 6037 H 568.591 0.263197 -4.16369 0
M  V30 6038 H 567.221 0.761435 -3.13691 0
M  V30 6039 H 566.273 -1.64045 -3.4321 0
M  V30 6040 H 567.585 -1.95101 -4.59061 0
M  V30 6041 H 566.739 -0.114487 -6.06592 0
M  V30 6042 H 565.478 0.29307 -4.86819 0
M  V30 6043 H 564.483 -1.99775 -5.12221 0
M  V30 6044 H 565.708 -2.39783 -6.35359 0
M  V30 6045 H 563.654 -0.16314 -6.55797 0
M  V30 6046 H 563.571 -1.69311 -7.36797 0
M  V30 6047 H 564.839 -0.575305 -7.77374 0
M  V30 6048 N 569.068 1.32177 -0.85831 0
M  V30 6049 C 570.296 2.01313 -0.477582 0
M  V30 6050 C 570.711 1.6449 0.926736 0
M  V30 6051 O 570.068 0.868096 1.60531 0
M  V30 6052 C 570.119 3.56293 -0.611337 0
M  V30 6053 O 569.84 3.91794 -1.96034 0
M  V30 6054 C 571.341 4.42702 -0.230093 0
M  V30 6055 H 568.561 0.644323 -0.187322 0
M  V30 6056 H 571.105 1.68674 -1.15626 0
M  V30 6057 H 569.26 3.87395 0.0196494 0
M  V30 6058 H 569.674 4.86513 -1.95973 0
M  V30 6059 H 571.148 5.50727 -0.374674 0
M  V30 6060 H 571.625 4.3129 0.829779 0
M  V30 6061 H 572.231 4.16997 -0.836302 0
M  V30 6062 N 570.547 0.616602 1.45037 0
M  V30 6063 C 571.477 -0.0840787 2.33349 0
M  V30 6064 C 572.458 -0.849641 1.4736 0
M  V30 6065 O 573.643 -0.818407 1.76113 0
M  V30 6066 C 570.773 -1.07604 3.3021 0
M  V30 6067 C 569.727 -0.423096 4.25904 0
M  V30 6068 C 569.053 -1.52394 5.12523 0
M  V30 6069 C 570.353 0.661457 5.18095 0
M  V30 6070 H 572.047 0.653333 2.92185 0
M  V30 6071 H 569.593 0.315634 1.40498 0
M  V30 6072 H 571.546 -1.57485 3.90866 0
M  V30 6073 H 570.27 -1.84416 2.69552 0
M  V30 6074 H 568.929 0.05493 3.66559 0
M  V30 6075 H 568.577 -2.28257 4.48227 0
M  V30 6076 H 568.277 -1.09251 5.77354 0
M  V30 6077 H 569.801 -2.02485 5.76049 0
M  V30 6078 H 571.215 0.246353 5.7277 0
M  V30 6079 H 569.612 1.01517 5.91451 0
M  V30 6080 H 570.682 1.53446 4.59981 0
M  V30 6081 N 572.025 -1.5352 0.356285 0
M  V30 6082 C 573.441 -1.59599 0.00485267 0
M  V30 6083 C 573.641 -1.37179 -1.47595 0
M  V30 6084 O 572.697 -1.17234 -2.23635 0
M  V30 6085 C 574.01 -2.97277 0.452454 0
M  V30 6086 C 575.558 -3.10357 0.405881 0
M  V30 6087 C 576.033 -4.50432 0.829148 0
M  V30 6088 N 577.524 -4.5652 0.783838 0
M  V30 6089 C 578.259 -5.63077 1.08315 0
M  V30 6090 N 577.755 -6.77429 1.45126 0
M  V30 6091 N 579.548 -5.53014 1.00655 0
M  V30 6092 H 571.699 -1.66346 1.32071 0
M  V30 6093 H 573.962 -0.77971 0.539218 0
M  V30 6094 H 573.668 -3.18792 1.48542 0
M  V30 6095 H 573.542 -3.76836 -0.165762 0
M  V30 6096 H 575.929 -2.88558 -0.617934 0
M  V30 6097 H 576.01 -2.32828 1.05947 0
M  V30 6098 H 575.654 -4.72968 1.85103 0
M  V30 6099 H 575.584 -5.26378 0.152906 0
M  V30 6100 H 578.075 -3.74408 0.512513 0
M  V30 6101 H 578.388 -7.54669 1.66415 0
M  V30 6102 H 576.733 -6.78844 1.48983 0
M  V30 6103 H 579.924 -4.62557 0.718215 0
M  V30 6104 H 580.097 -6.35964 1.24315 0
M  V30 6105 N 573.503 -0.0852151 -1.57369 0
M  V30 6106 C 574.433 0.874556 -2.16503 0
M  V30 6107 C 575.414 1.30111 -1.09568 0
M  V30 6108 O 576.599 1.36977 -1.37662 0
M  V30 6109 C 573.729 2.13731 -2.73745 0
M  V30 6110 C 572.683 1.84971 -3.85966 0
M  V30 6111 C 572.009 3.17991 -4.29867 0
M  V30 6112 C 573.309 1.14442 -5.09608 0
M  V30 6113 H 575.003 0.381899 -2.96954 0
M  V30 6114 H 572.549 0.18225 -1.42842 0
M  V30 6115 H 574.502 2.81302 -3.13763 0
M  V30 6116 H 573.226 2.65263 -1.90534 0
M  V30 6117 H 571.885 1.19801 -3.46473 0
M  V30 6118 H 571.533 3.6739 -3.4356 0
M  V30 6119 H 571.233 2.99534 -5.05523 0
M  V30 6120 H 572.757 3.86737 -4.72511 0
M  V30 6121 H 574.171 1.72105 -5.46857 0
M  V30 6122 H 572.568 1.06197 -5.90629 0
M  V30 6123 H 573.638 0.12559 -4.84737 0
M  V30 6124 N 574.981 1.5647 0.188427 0
M  V30 6125 C 575.929 1.95971 1.25293 0
M  V30 6126 C 576.923 0.846047 1.4676 0
M  V30 6127 O 578.129 1.03109 1.47542 0
M  V30 6128 H 574.504 0.623253 0.420784 0
M  V30 6129 H 576.475 2.84731 0.892792 0
M  V30 6130 C 575.224 2.32116 2.58877 0
M  V30 6131 H 574.547 3.17341 2.43176 0
M  V30 6132 H 575.987 2.63613 3.3209 0
M  V30 6133 C 574.446 1.15823 3.16365 0
M  V30 6134 O 574.976 0.436785 3.99318 0
M  V30 6135 N 573.182 0.933278 2.75206 0
M  V30 6136 H 572.729 1.52169 2.07852 0
M  V30 6137 H 572.687 0.156976 3.14008 0
M  V30 6138 N 576.459 -0.456382 1.50847 0
M  V30 6139 C 577.391 -1.57033 1.66953 0
M  V30 6140 C 578.404 -1.53207 0.550593 0
M  V30 6141 O 579.593 -1.58328 0.824285 0
M  V30 6142 C 576.693 -2.95937 1.65149 0
M  V30 6143 C 575.866 -3.24475 2.93317 0
M  V30 6144 C 574.925 -4.43007 2.83957 0
M  V30 6145 O 573.951 -4.42592 3.57912 0
M  V30 6146 N 575.153 -5.45503 1.9851 0
M  V30 6147 H 577.918 -1.43629 2.63042 0
M  V30 6148 H 575.479 -0.645037 1.48495 0
M  V30 6149 H 577.471 -3.73224 1.56481 0
M  V30 6150 H 576.041 -3.03036 0.767343 0
M  V30 6151 H 575.261 -2.35664 3.16 0
M  V30 6152 H 576.549 -3.4036 3.78196 0
M  V30 6153 H 575.947 -5.48668 1.37766 0
M  V30 6154 H 574.504 -6.21716 1.95735 0
M  V30 6155 N 577.937 -1.40673 -0.710563 0
M  V30 6156 C 579.348 -1.34975 -1.28991 0
M  V30 6157 C 579.699 -0.0256272 -1.96183 0
M  V30 6158 O 578.824 0.876339 -1.97862 0
M  V30 6159 C 579.419 -2.44467 -2.34567 0
M  V30 6160 C 577.978 -2.42213 -2.88114 0
M  V30 6161 C 577.125 -2.25085 -1.61963 0
M  V30 6162 H 580.076 -1.50406 -0.506343 0
M  V30 6163 H 580.097 -2.12663 -3.15523 0
M  V30 6164 H 579.609 -3.40825 -1.85634 0
M  V30 6165 H 577.71 -1.49568 -3.41263 0
M  V30 6166 H 577.823 -3.37983 -3.39565 0
M  V30 6167 H 576.187 -1.72691 -1.87216 0
M  V30 6168 H 576.97 -3.23449 -1.15047 0
M  V30 6169 N 579.415 0.9433 -1.26252 0
M  V30 6170 C 580.663 1.68592 -1.11451 0
M  V30 6171 C 580.984 1.91957 0.343123 0
M  V30 6172 O 580.254 1.51475 1.24226 0
M  V30 6173 H 578.834 0.624789 -0.409448 0
M  V30 6174 H 581.496 1.13351 -1.58548 0
M  V30 6175 H 580.592 2.66054 -1.63162 0
M  V30 6176 N 580.893 1.08022 1.14757 0
M  V30 6177 C 582.121 0.828847 1.89572 0
M  V30 6178 C 582.536 -0.618621 1.78377 0
M  V30 6179 O 581.893 -1.42482 1.1404 0
M  V30 6180 C 581.944 1.23677 3.39685 0
M  V30 6181 O 581.665 2.62746 3.50566 0
M  V30 6182 C 583.166 1.01569 4.31507 0
M  V30 6183 H 580.386 0.299196 0.600602 0
M  V30 6184 H 582.93 1.43846 1.45357 0
M  V30 6185 H 581.085 0.671347 3.81539 0
M  V30 6186 H 581.499 2.79573 4.43778 0
M  V30 6187 H 582.973 1.35055 5.35223 0
M  V30 6188 H 583.45 -0.0475433 4.39174 0
M  V30 6189 H 584.056 1.56636 3.95405 0
M  V30 6190 N 582.371 -1.3172 0.865308 0
M  V30 6191 C 583.782 -1.79104 0.527126 0
M  V30 6192 C 584.133 -1.7135 -0.955695 0
M  V30 6193 O 583.258 -1.27845 -1.74598 0
M  V30 6194 C 583.853 -3.25207 0.950061 0
M  V30 6195 C 582.412 -3.70504 0.663611 0
M  V30 6196 C 581.559 -2.52605 1.14395 0
M  V30 6197 H 584.51 -1.18868 1.05148 0
M  V30 6198 H 584.531 -3.79535 0.270805 0
M  V30 6199 H 584.043 -3.30818 2.02931 0
M  V30 6200 H 582.144 -3.70398 -0.404474 0
M  V30 6201 H 582.257 -4.62845 1.23737 0
M  V30 6202 H 580.621 -2.4838 0.563859 0
M  V30 6203 H 581.404 -2.60964 2.23053 0
M  V30 6204 N 583.85 -0.624285 -1.44708 0
M  V30 6205 C 585.077 -0.132919 -2.06473 0
M  V30 6206 C 585.493 1.18967 -1.46602 0
M  V30 6207 O 584.85 1.72824 -0.586341 0
M  V30 6208 C 584.901 -0.00465418 -3.615 0
M  V30 6209 O 584.622 -1.27494 -4.19138 0
M  V30 6210 C 586.123 0.516213 -4.40284 0
M  V30 6211 H 583.343 -0.0765201 -0.666623 0
M  V30 6212 H 585.887 -0.856751 -1.85688 0
M  V30 6213 H 584.042 0.669583 -3.8157 0
M  V30 6214 H 584.456 -1.11536 -5.12504 0
M  V30 6215 H 585.93 0.554994 -5.49203 0
M  V30 6216 H 586.407 1.5419 -4.11245 0
M  V30 6217 H 587.013 -0.124542 -4.25118 0
M  V30 6218 N 585.328 1.53329 -0.364422 0
M  V30 6219 C 586.744 1.59594 -0.0133165 0
M  V30 6220 C 586.944 1.37959 1.46865 0
M  V30 6221 O 586 1.18418 2.2301 0
M  V30 6222 C 587.313 2.97032 -0.468213 0
M  V30 6223 C 588.861 3.10138 -0.422334 0
M  V30 6224 C 589.336 4.49986 -0.853024 0
M  V30 6225 N 590.827 4.56098 -0.808037 0
M  V30 6226 C 591.562 5.62495 -1.11299 0
M  V30 6227 N 591.058 6.7665 -1.48717 0
M  V30 6228 N 592.851 5.52473 -1.03586 0
M  V30 6229 H 585.002 1.65644 -1.32951 0
M  V30 6230 H 587.265 0.77684 -0.543345 0
M  V30 6231 H 586.971 3.18 -1.5023 0
M  V30 6232 H 586.845 3.76918 0.145775 0
M  V30 6233 H 589.232 2.88881 0.602622 0
M  V30 6234 H 589.313 2.32263 -1.0718 0
M  V30 6235 H 588.957 4.7198 -1.87609 0
M  V30 6236 H 588.887 5.26289 -0.180819 0
M  V30 6237 H 591.378 3.74131 -0.532361 0
M  V30 6238 H 591.691 7.53776 -1.70415 0
M  V30 6239 H 590.036 6.78044 -1.52581 0
M  V30 6240 H 593.227 4.6217 -0.742736 0
M  V30 6241 H 593.4 6.35295 -1.27686 0
M  V30 6242 N 586.806 0.0935595 1.57322 0
M  V30 6243 C 588.034 -0.578934 1.98635 0
M  V30 6244 C 588.449 -1.61819 0.972626 0
M  V30 6245 O 587.806 -1.82461 -0.0379638 0
M  V30 6246 C 587.857 -1.22802 3.40003 0
M  V30 6247 O 587.578 -0.230334 4.37494 0
M  V30 6248 C 589.079 -1.98627 3.96311 0
M  V30 6249 H 586.299 -0.155324 0.652775 0
M  V30 6250 H 588.843 0.172393 2.03772 0
M  V30 6251 H 586.998 -1.93029 3.35885 0
M  V30 6252 H 587.412 -0.698649 5.19826 0
M  V30 6253 H 588.886 -2.39405 4.97382 0
M  V30 6254 H 589.363 -2.85151 3.34044 0
M  V30 6255 H 589.969 -1.3322 4.03897 0
M  V30 6256 N 588.284 -1.56567 -0.180126 0
M  V30 6257 C 589.247 -1.94852 -1.20686 0
M  V30 6258 C 590.247 -0.831212 -1.3765 0
M  V30 6259 O 591.437 -1.09841 -1.35206 0
M  V30 6260 C 588.569 -2.23565 -2.57355 0
M  V30 6261 H 589.762 -2.86722 -0.879225 0
M  V30 6262 H 587.315 -1.50489 -0.422237 0
M  V30 6263 H 588.05 -1.34381 -2.95148 0
M  V30 6264 H 587.835 -3.04999 -2.46411 0
M  V30 6265 H 589.325 -2.54137 -3.31367 0
M  V30 6266 N 589.762 0.448376 -1.51087 0
M  V30 6267 C 591.008 1.20049 -1.6345 0
M  V30 6268 C 591.341 1.91121 -0.344444 0
M  V30 6269 O 590.616 1.83125 0.655396 0
M  V30 6270 C 590.899 2.22624 -2.83038 0
M  V30 6271 C 590.752 1.55708 -4.21989 0
M  V30 6272 C 592.071 3.23718 -2.98152 0
M  V30 6273 H 589.19 0.435085 -0.59487 0
M  V30 6274 H 591.832 0.491183 -1.83541 0
M  V30 6275 H 589.982 2.83117 -2.66039 0
M  V30 6276 H 591.654 0.986367 -4.50631 0
M  V30 6277 H 589.897 0.859647 -4.25197 0
M  V30 6278 H 590.568 2.30357 -5.01637 0
M  V30 6279 H 593.044 2.73269 -3.13788 0
M  V30 6280 H 591.92 3.92795 -3.83411 0
M  V30 6281 H 592.181 3.89179 -2.09743 0
M  V30 6282 O 591.279 1.50177 0.59407 0
M  V30 6283 H 591.97 1.48064 1.24887 0
M  V30 END ATOM
M  V30 BEGIN BOND
M  V30 END BOND
M  V30 END CTAB
M  END
$$$$
