drugbank_target|Q9L888 Alanine racemase (DB00260)
 OpenBabel12092119403D

  0  0  0     0  0            999 V3000
M  V30 BEGIN CTAB
M  V30 COUNTS 5780 5832 0 0 0
M  V30 BEGIN ATOM
M  V30 1 H -0.908 1.98254 -0.117106 0
M  V30 2 N 0 1.576 0 0
M  V30 3 C 0.933 2.03868 1.02534 0
M  V30 4 C 1.911 0.928543 1.3348 0
M  V30 5 O 3.095 1.19667 1.45644 0
M  V30 6 C 0.222 2.43627 2.35294 0
M  V30 7 C -0.732 3.65373 2.2001 0
M  V30 8 S 0.101 5.13292 1.52614 0
M  V30 9 C 1.257 5.56322 2.86805 0
M  V30 10 H 1.49 2.90518 0.631377 0
M  V30 11 H -0.977 1.52953 0.210867 0
M  V30 12 H 0.981 2.67203 3.11629 0
M  V30 13 H -0.358 1.57376 2.7183 0
M  V30 14 H -1.165 3.90944 3.18086 0
M  V30 15 H -1.563 3.418 1.51819 0
M  V30 16 H 0.729 5.58782 3.83104 0
M  V30 17 H 1.672 6.56266 2.65933 0
M  V30 18 H 2.08 4.83886 2.90714 0
M  V30 19 N 1.4781 -0.272755 1.55222 0
M  V30 20 C 2.4411 -1.32041 1.87344 0
M  V30 21 C 3.4411 -1.42342 0.74803 0
M  V30 22 O 4.6311 -1.41488 1.0162 0
M  V30 23 C 1.7631 -2.70173 2.07893 0
M  V30 24 H 2.9561 -1.04789 2.80997 0
M  V30 25 H 0.5091 -0.51083 1.47717 0
M  V30 26 H 1.2441 -3.02605 1.16622 0
M  V30 27 H 1.0291 -2.64082 2.89833 0
M  V30 28 H 2.5191 -3.45869 2.34017 0
M  V30 29 N 2.9562 -1.48159 -0.537278 0
M  V30 30 C 4.2022 -1.56035 -1.29541 0
M  V30 31 C 4.5352 -0.230377 -1.92829 0
M  V30 32 O 3.8102 0.762952 -1.78911 0
M  V30 33 C 4.0932 -2.69323 -2.39034 0
M  V30 34 C 3.9462 -4.12002 -1.80485 0
M  V30 35 C 5.2652 -2.78408 -3.40847 0
M  V30 36 H 2.3842 -0.567992 -0.469632 0
M  V30 37 H 5.0262 -1.80302 -0.599277 0
M  V30 38 H 3.1762 -2.48763 -2.98412 0
M  V30 39 H 4.8482 -4.43981 -1.25215 0
M  V30 40 H 3.0912 -4.19344 -1.11055 0
M  V30 41 H 3.7622 -4.87077 -2.59731 0
M  V30 42 H 6.2382 -2.97012 -2.91416 0
M  V30 43 H 5.1142 -3.59416 -4.14863 0
M  V30 44 H 5.3752 -1.86269 -4.00944 0
M  V30 45 N 4.4343 0.785586 -1.36625 0
M  V30 46 C 5.6623 1.57448 -1.3423 0
M  V30 47 C 6.0773 1.88649 0.0755653 0
M  V30 48 O 5.4343 1.50414 1.03354 0
M  V30 49 C 5.4853 2.89316 -2.16745 0
M  V30 50 O 5.2063 2.59459 -3.53005 0
M  V30 51 C 6.7073 3.83606 -2.22174 0
M  V30 52 H 3.9273 0.488226 -0.4603 0
M  V30 53 H 6.4713 0.974733 -1.79775 0
M  V30 54 H 4.6263 3.4575 -1.74745 0
M  V30 55 H 5.0403 3.43804 -3.96105 0
M  V30 56 H 6.5143 4.73181 -2.8426 0
M  V30 57 H 6.9913 4.21734 -1.22627 0
M  V30 58 H 7.5973 3.33104 -2.64427 0
M  V30 59 N 5.9124 1.20967 1.01018 0
M  V30 60 C 7.3234 1.02319 1.56165 0
M  V30 61 C 7.6744 -0.418546 1.91684 0
M  V30 62 O 6.7994 -1.30096 1.72928 0
M  V30 63 C 7.3944 1.85109 2.8376 0
M  V30 64 C 5.9534 1.70809 3.35412 0
M  V30 65 C 5.1004 1.82643 2.08655 0
M  V30 66 H 8.0514 1.35065 0.833255 0
M  V30 67 H 8.0724 1.35827 3.55431 0
M  V30 68 H 7.5844 2.90035 2.57878 0
M  V30 69 H 5.6854 0.685464 3.66241 0
M  V30 70 H 5.7984 2.52467 4.07182 0
M  V30 71 H 4.1624 1.25896 2.21409 0
M  V30 72 H 4.9454 2.89066 1.85191 0
M  V30 73 N 7.3905 -1.2043 1.01659 0
M  V30 74 C 8.6395 -1.89118 0.701237 0
M  V30 75 C 8.9525 -1.79705 -0.772358 0
M  V30 76 O 10.1585 -2.43528 -1.20026 0
M  V30 77 C 8.6145 -3.39168 1.20388 0
M  V30 78 C 8.2225 -3.57166 2.70438 0
M  V30 79 C 9.9665 -4.1341 0.963953 0
M  V30 80 C 7.8735 -5.01042 3.14183 0
M  V30 81 H 6.8035 -0.708267 0.2586 0
M  V30 82 H 9.4545 -1.36239 1.22927 0
M  V30 83 H 7.8365 -3.91369 0.603824 0
M  V30 84 H 9.0105 -3.15351 3.35992 0
M  V30 85 H 7.3255 -2.96294 2.92572 0
M  V30 86 H 9.9225 -5.19491 1.26621 0
M  V30 87 H 10.2655 -4.16181 -0.099578 0
M  V30 88 H 10.7985 -3.67309 1.52738 0
M  V30 89 H 7.5375 -5.03426 4.19812 0
M  V30 90 H 7.0575 -5.43668 2.53348 0
M  V30 91 H 8.7365 -5.69623 3.0682 0
M  V30 92 N 8.8686 -0.792821 -1.36206 0
M  V30 93 C 10.0936 -0.377701 -2.03932 0
M  V30 94 C 10.5186 0.998947 -1.59382 0
M  V30 95 O 9.8766 1.64421 -0.763903 0
M  V30 96 C 9.9246 -0.453635 -3.57735 0
M  V30 97 O 9.0286 0.538151 -4.08874 0
M  V30 98 H 8.3696 -0.159855 -0.644471 0
M  V30 99 H 10.8996 -1.07488 -1.7409 0
M  V30 100 H 10.9096 -0.318464 -4.06755 0
M  V30 101 H 9.5846 -1.45784 -3.89512 0
M  V30 102 H 8.1616 0.364359 -3.71116 0
M  V30 103 N 10.3467 1.47872 -0.545128 0
M  V30 104 C 11.2767 2.32661 0.197793 0
M  V30 105 C 12.2577 1.43041 0.920504 0
M  V30 106 O 13.4427 1.71912 0.90333 0
M  V30 107 C 10.5727 3.24569 1.23582 0
M  V30 108 C 9.5267 4.23333 0.630323 0
M  V30 109 C 8.8527 5.0448 1.77211 0
M  V30 110 C 10.1527 5.20704 -0.407974 0
M  V30 111 H 11.8467 2.95024 -0.510045 0
M  V30 112 H 9.3927 1.4187 -0.246731 0
M  V30 113 H 11.3457 3.8272 1.76362 0
M  V30 114 H 10.0697 2.60236 1.97344 0
M  V30 115 H 8.7287 3.6639 0.123922 0
M  V30 116 H 8.3767 4.36561 2.49847 0
M  V30 117 H 8.0767 5.71339 1.37281 0
M  V30 118 H 9.6007 5.65487 2.3034 0
M  V30 119 H 11.0147 5.7329 0.033305 0
M  V30 120 H 9.4117 5.95699 -0.725486 0
M  V30 121 H 10.4817 4.66917 -1.30828 0
M  V30 122 N 11.8248 0.280983 1.55075 0
M  V30 123 C 13.0528 -0.337293 2.04132 0
M  V30 124 C 13.4678 -1.4903 1.15912 0
M  V30 125 O 12.8248 -1.81606 0.180459 0
M  V30 126 C 12.8758 -0.812706 3.52246 0
M  V30 127 O 12.5968 0.294387 4.3711 0
M  V30 128 C 14.0978 -1.4982 4.17216 0
M  V30 129 H 11.3178 -0.0761638 0.666663 0
M  V30 130 H 13.8618 0.414787 2.00249 0
M  V30 131 H 12.0168 -1.51486 3.56554 0
M  V30 132 H 12.4308 -0.0721325 5.2445 0
M  V30 133 H 13.9048 -1.7822 5.22438 0
M  V30 134 H 14.3818 -2.43168 3.65741 0
M  V30 135 H 14.9878 -0.839742 4.16927 0
M  V30 136 N 13.3029 -1.57598 0.00835791 0
M  V30 137 C 14.7139 -1.7892 -0.53333 0
M  V30 138 C 15.0649 -0.916609 -1.73473 0
M  V30 139 O 14.1899 -0.121336 -2.1606 0
M  V30 140 C 14.7849 -3.24488 -0.974313 0
M  V30 141 C 13.3439 -3.46878 -1.46125 0
M  V30 142 C 12.4909 -2.74157 -0.416302 0
M  V30 143 H 15.4419 -1.56958 0.234495 0
M  V30 144 H 15.4629 -3.3306 -1.83988 0
M  V30 145 H 14.9749 -3.87972 -0.099718 0
M  V30 146 H 13.0759 -2.8862 -2.35646 0
M  V30 147 H 13.1889 -4.55572 -1.48295 0
M  V30 148 H 11.5529 -2.39022 -0.87981 0
M  V30 149 H 12.3359 -3.40345 0.44947 0
M  V30 150 N 14.781 0.264519 -1.55364 0
M  V30 151 C 16.029 0.993021 -1.76021 0
M  V30 152 C 16.35 1.86511 -0.569099 0
M  V30 153 O 15.62 1.91438 0.415735 0
M  V30 154 H 14.2 0.369639 -0.649135 0
M  V30 155 H 16.862 0.286707 -1.9278 0
M  V30 156 H 15.958 1.62502 -2.66457 0
M  V30 157 N 16.2591 1.48442 0.529413 0
M  V30 158 C 17.5051 1.5672 1.28711 0
M  V30 159 C 17.8381 0.2406 1.92704 0
M  V30 160 O 17.1131 -0.753454 1.79313 0
M  V30 161 C 17.3961 2.70587 2.37603 0
M  V30 162 C 17.2491 4.12953 1.78297 0
M  V30 163 C 18.5681 2.80212 3.39366 0
M  V30 164 H 15.6871 0.570474 0.466613 0
M  V30 165 H 18.3291 1.80617 0.589706 0
M  V30 166 H 16.4791 2.50342 2.97088 0
M  V30 167 H 18.1511 4.44639 1.22858 0
M  V30 168 H 16.3941 4.19927 1.0883 0
M  V30 169 H 17.0651 4.88448 2.57144 0
M  V30 170 H 19.5411 2.98553 2.89836 0
M  V30 171 H 18.4171 3.61611 4.12951 0
M  V30 172 H 18.6781 1.88393 3.99951 0
M  V30 173 N 17.7372 -0.778329 1.37039 0
M  V30 174 C 18.6672 -1.90546 1.34962 0
M  V30 175 C 19.6482 -1.68681 0.219274 0
M  V30 176 O 20.8332 -1.89634 0.418624 0
M  V30 177 C 17.9632 -3.27734 1.14925 0
M  V30 178 C 16.9172 -3.64147 2.24902 0
M  V30 179 C 16.2432 -4.99806 1.89996 0
M  V30 180 C 17.5432 -3.71579 3.67051 0
M  V30 181 H 19.2372 -1.92541 2.29277 0
M  V30 182 H 16.7832 -0.924948 1.10366 0
M  V30 183 H 18.7362 -4.06215 1.12104 0
M  V30 184 H 17.4602 -3.26154 0.170631 0
M  V30 185 H 16.1192 -2.8797 2.26868 0
M  V30 186 H 15.7672 -4.94759 0.906796 0
M  V30 187 H 15.4672 -5.25139 2.63634 0
M  V30 188 H 16.9912 -5.80694 1.88749 0
M  V30 189 H 18.4052 -4.40227 3.67251 0
M  V30 190 H 16.8022 -4.08405 4.39688 0
M  V30 191 H 17.8722 -2.72404 4.01154 0
M  V30 192 N 19.2153 -1.21501 -1.00376 0
M  V30 193 C 20.1783 -0.976927 -2.07337 0
M  V30 194 C 21.1783 0.0525322 -1.60714 0
M  V30 195 O 22.3683 -0.184869 -1.73216 0
M  V30 196 C 19.5003 -0.473423 -3.37597 0
M  V30 197 H 20.6933 -1.92587 -2.29892 0
M  V30 198 H 18.2463 -1.03217 -1.17371 0
M  V30 199 H 18.9813 0.480379 -3.20722 0
M  V30 200 H 18.7663 -1.216 -3.72768 0
M  V30 201 H 20.2563 -0.32675 -4.1632 0
M  V30 202 N 20.6934 1.19889 -1.02296 0
M  V30 203 C 21.6034 2.26571 -0.608508 0
M  V30 204 C 22.6194 1.70299 0.356964 0
M  V30 205 O 23.7954 2.00235 0.216326 0
M  V30 206 C 20.8604 3.46677 0.0402814 0
M  V30 207 C 19.9214 4.18153 -0.97194 0
M  V30 208 C 19.1544 5.32525 -0.354016 0
M  V30 209 O 19.3774 5.64112 0.844604 0
M  V30 210 O 18.3114 5.92242 -1.07391 0
M  V30 211 H 22.1374 2.64251 -1.49684 0
M  V30 212 H 19.7224 1.26629 -0.792809 0
M  V30 213 H 21.6044 4.19475 0.402324 0
M  V30 214 H 20.2794 3.10858 0.902707 0
M  V30 215 H 19.1864 3.47499 -1.38546 0
M  V30 216 H 20.5194 4.57927 -1.80454 0
M  V30 217 N 22.1715 0.800033 1.35784 0
M  V30 218 C 23.1345 0.211565 2.28221 0
M  V30 219 C 24.1345 -0.59728 1.49296 0
M  V30 220 O 25.3245 -0.416721 1.69142 0
M  V30 221 C 22.4565 -0.705846 3.33513 0
M  V30 222 H 23.6495 1.02677 2.81776 0
M  V30 223 H 21.2025 0.570211 1.45528 0
M  V30 224 H 21.9375 -1.54498 2.85133 0
M  V30 225 H 21.7225 -0.127655 3.91892 0
M  V30 226 H 23.2125 -1.11211 4.02519 0
M  V30 227 N 23.6496 -1.47581 0.552962 0
M  V30 228 C 24.5796 -2.32762 -0.185451 0
M  V30 229 C 25.5606 -1.43527 -0.912905 0
M  V30 230 O 26.7456 -1.72388 -0.894201 0
M  V30 231 C 23.8756 -3.25219 -1.21859 0
M  V30 232 C 22.8296 -4.23661 -0.607864 0
M  V30 233 C 22.1556 -5.05413 -1.74533 0
M  V30 234 C 23.4556 -5.20481 0.435582 0
M  V30 235 H 25.1496 -2.94749 0.525684 0
M  V30 236 H 22.6956 -1.41738 0.254251 0
M  V30 237 H 24.6486 -3.8365 -1.7433 0
M  V30 238 H 23.3726 -2.61279 -1.95961 0
M  V30 239 H 22.0316 -3.66451 -0.104489 0
M  V30 240 H 21.6796 -4.3788 -2.47529 0
M  V30 241 H 21.3796 -5.72059 -1.34249 0
M  V30 242 H 22.9036 -5.66701 -2.27338 0
M  V30 243 H 24.3176 -5.733 -0.00290157 0
M  V30 244 H 22.7146 -5.95305 0.757067 0
M  V30 245 H 23.7846 -4.66217 1.33303 0
M  V30 246 N 25.1277 -0.289203 -1.54924 0
M  V30 247 C 26.3737 0.323998 -2.00195 0
M  V30 248 C 26.7067 1.54441 -1.17735 0
M  V30 249 O 25.9817 1.92875 -0.250878 0
M  V30 250 C 26.2647 0.692276 -3.53383 0
M  V30 251 C 26.1177 -0.536457 -4.46589 0
M  V30 252 C 27.4367 1.52335 -4.12895 0
M  V30 253 H 24.5557 0.116289 -0.727768 0
M  V30 254 H 27.1977 -0.398954 -1.85764 0
M  V30 255 H 25.3477 1.30822 -3.65811 0
M  V30 256 H 27.0197 -1.17499 -4.46085 0
M  V30 257 H 25.2627 -1.17192 -4.1767 0
M  V30 258 H 25.9337 -0.234806 -5.515 0
M  V30 259 H 28.4097 1.00302 -4.0383 0
M  V30 260 H 27.2857 1.74982 -5.20262 0
M  V30 261 H 27.5467 2.50886 -3.64018 0
M  V30 262 N 26.6058 1.57591 -0.0167156 0
M  V30 263 C 27.8828 1.82547 0.702564 0
M  V30 264 C 28.2628 0.898018 1.91047 0
M  V30 265 O 27.6108 -0.0493456 2.28447 0
M  V30 266 C 27.8208 3.31459 1.09251 0
M  V30 267 C 29.1688 3.97622 1.48937 0
M  V30 268 O 30.1928 3.35881 1.18584 0
M  V30 269 O 29.0518 5.06415 2.05442 0
M  V30 270 H 26.1458 0.752268 0.343544 0
M  V30 271 H 28.6918 1.69644 -0.0434495 0
M  V30 272 H 27.4638 3.9061 0.23227 0
M  V30 273 H 27.0868 3.49422 1.89709 0
M  V30 274 N 28.0839 -0.256276 1.55502 0
M  V30 275 C 29.0139 -1.32102 1.92539 0
M  V30 276 C 29.9949 -1.50684 0.789194 0
M  V30 277 O 31.1799 -1.63449 1.04872 0
M  V30 278 C 28.3099 -2.67752 2.21192 0
M  V30 279 C 27.2639 -2.63878 3.36975 0
M  V30 280 C 26.5899 -4.03236 3.51147 0
M  V30 281 C 27.8899 -2.21682 4.72921 0
M  V30 282 H 29.5839 -1.01351 2.81724 0
M  V30 283 H 27.1299 -0.486105 1.35547 0
M  V30 284 H 29.0829 -3.42365 2.45691 0
M  V30 285 H 27.8069 -3.0012 1.28824 0
M  V30 286 H 26.4659 -1.91722 3.12471 0
M  V30 287 H 26.1139 -4.32854 2.56216 0
M  V30 288 H 25.8139 -4.01535 4.29003 0
M  V30 289 H 27.3379 -4.79563 3.77957 0
M  V30 290 H 28.7519 -2.86023 4.96854 0
M  V30 291 H 27.1489 -2.3111 5.53812 0
M  V30 292 H 28.2189 -1.16833 4.70615 0
M  V30 293 N 29.562 -1.4872 -0.521534 0
M  V30 294 C 30.81 -1.56857 -1.27437 0
M  V30 295 C 31.131 -0.247982 -1.93417 0
M  V30 296 O 30.401 0.731151 -1.81744 0
M  V30 297 H 28.981 -0.577885 -0.473347 0
M  V30 298 H 31.643 -1.85233 -0.606205 0
M  V30 299 H 30.739 -2.35402 -2.0492 0
M  V30 300 N 31.0401 0.771051 -1.3745 0
M  V30 301 C 32.0031 1.86598 -1.33093 0
M  V30 302 C 33.0031 1.59076 -0.234845 0
M  V30 303 O 34.1931 1.67145 -0.490732 0
M  V30 304 C 31.3251 3.23747 -1.06773 0
M  V30 305 H 32.5181 1.91873 -2.30488 0
M  V30 306 H 30.0711 0.970876 -1.2249 0
M  V30 307 H 30.8061 3.24148 -0.099129 0
M  V30 308 H 30.5911 3.45115 -1.86112 0
M  V30 309 H 32.0811 4.03824 -1.06377 0
M  V30 310 N 32.5182 1.22032 0.997298 0
M  V30 311 C 33.7672 1.03637 1.73038 0
M  V30 312 C 34.0802 -0.429475 1.90827 0
M  V30 313 O 35.2862 -0.732995 2.61418 0
M  V30 314 C 33.7422 1.80582 3.11317 0
M  V30 315 C 33.3502 3.31387 3.01474 0
M  V30 316 C 35.0942 1.70621 3.88701 0
M  V30 317 C 33.0012 4.00791 4.3488 0
M  V30 318 H 31.9312 0.384179 0.648785 0
M  V30 319 H 34.5822 1.4584 1.11368 0
M  V30 320 H 32.9642 1.31175 3.73643 0
M  V30 321 H 34.1382 3.88155 2.4834 0
M  V30 322 H 32.4532 3.41976 2.37575 0
M  V30 323 H 35.0502 2.19799 4.87434 0
M  V30 324 H 35.3932 0.665823 4.10941 0
M  V30 325 H 35.9262 2.17547 3.33044 0
M  V30 326 H 32.6652 5.05064 4.1784 0
M  V30 327 H 32.1852 3.48811 4.87945 0
M  V30 328 H 33.8642 4.06139 5.03647 0
M  V30 329 N 33.9963 -1.19345 1.0293 0
M  V30 330 C 34.9063 -2.26245 0.620515 0
M  V30 331 C 35.9223 -1.70486 -0.347928 0
M  V30 332 O 37.0983 -2.00347 -0.205704 0
M  V30 333 C 34.1633 -3.46693 -0.0218957 0
M  V30 334 C 33.2243 -4.17632 0.994102 0
M  V30 335 C 32.4573 -5.32329 0.382253 0
M  V30 336 O 32.6803 -5.64552 -0.814676 0
M  V30 337 O 31.6143 -5.91664 1.10531 0
M  V30 338 H 35.4403 -2.63453 1.51083 0
M  V30 339 H 33.0253 -1.26207 0.799513 0
M  V30 340 H 34.9073 -4.19683 -0.380072 0
M  V30 341 H 33.5823 -3.11333 -0.886209 0
M  V30 342 H 32.4893 -3.4676 1.40387 0
M  V30 343 H 33.8223 -4.56964 1.8288 0
M  V30 344 N 35.4744 -0.807222 -1.35358 0
M  V30 345 C 36.4244 -0.190706 -2.27201 0
M  V30 346 C 37.4084 0.635838 -1.47804 0
M  V30 347 O 38.6004 0.492991 -1.69996 0
M  V30 348 C 35.7294 0.659337 -3.36909 0
M  V30 349 C 34.8154 -0.176971 -4.23731 0
M  V30 350 N 35.2064 -1.24029 -4.90357 0
M  V30 351 C 33.5044 0.0412953 -4.45981 0
M  V30 352 C 34.2054 -1.75092 -5.54723 0
M  V30 353 N 33.1814 -1.05727 -5.33219 0
M  V30 354 H 36.9834 -1.0043 -2.76208 0
M  V30 355 H 34.4974 -0.648445 -1.48892 0
M  V30 356 H 36.4944 1.11706 -4.01656 0
M  V30 357 H 35.1544 1.47127 -2.89454 0
M  V30 358 H 36.1654 -1.62295 -4.91814 0
M  V30 359 H 32.8424 0.82232 -4.09322 0
M  V30 360 H 34.2324 -2.63963 -6.17878 0
M  V30 361 N 36.9525 1.47285 -0.560781 0
M  V30 362 C 37.9005 2.31756 0.197942 0
M  V30 363 C 38.8945 1.43146 0.905854 0
M  V30 364 O 40.1005 1.59891 0.826733 0
M  V30 365 H 36.4755 0.747438 0.0827049 0
M  V30 366 H 38.4465 2.9359 -0.533629 0
M  V30 367 C 37.1955 3.25874 1.21249 0
M  V30 368 H 36.5185 3.94023 0.67719 0
M  V30 369 H 37.9585 3.87803 1.71419 0
M  V30 370 C 36.4175 2.49651 2.26221 0
M  V30 371 O 36.9475 2.24355 3.33208 0
M  V30 372 N 35.1535 2.10597 2.00243 0
M  V30 373 H 34.7005 2.31369 1.13252 0
M  V30 374 H 34.6585 1.59913 2.70694 0
M  V30 375 N 38.4306 0.297415 1.54768 0
M  V30 376 C 39.6766 -0.313376 2.00364 0
M  V30 377 C 40.0096 -1.53815 1.18553 0
M  V30 378 O 39.2846 -1.92739 0.261103 0
M  V30 379 C 39.5676 -0.673525 3.53745 0
M  V30 380 C 39.4206 0.560133 4.46299 0
M  V30 381 C 40.7396 -1.50143 4.13697 0
M  V30 382 H 37.8586 -0.112428 0.728374 0
M  V30 383 H 40.5006 0.4088 1.8555 0
M  V30 384 H 38.6506 -1.28881 3.665 0
M  V30 385 H 40.3226 1.19863 4.45455 0
M  V30 386 H 38.5656 1.19405 4.17043 0
M  V30 387 H 39.2366 0.26405 5.51368 0
M  V30 388 H 41.7126 -0.981588 4.04356 0
M  V30 389 H 40.5886 -1.72221 5.21182 0
M  V30 390 H 40.8496 -2.48952 3.65343 0
M  V30 391 N 39.9087 -1.5758 0.0250728 0
M  V30 392 C 41.3247 -1.56124 -0.331282 0
M  V30 393 C 41.5247 -1.03029 -1.73169 0
M  V30 394 O 40.5807 -0.675215 -2.43305 0
M  V30 395 C 41.8937 -3.00139 -0.183584 0
M  V30 396 C 43.4417 -3.11946 -0.256654 0
M  V30 397 C 43.9167 -4.57793 -0.137792 0
M  V30 398 N 45.4077 -4.6279 -0.194904 0
M  V30 399 C 46.1427 -5.7326 -0.126655 0
M  V30 400 N 45.6387 -6.928 -0.00755288 0
M  V30 401 N 47.4317 -5.61811 -0.180348 0
M  V30 402 H 39.5827 -1.90424 0.94087 0
M  V30 403 H 41.8457 -0.875761 0.362968 0
M  V30 404 H 41.5517 -3.4292 0.780927 0
M  V30 405 H 41.4257 -3.64899 -0.955448 0
M  V30 406 H 43.8127 -2.69079 -1.21162 0
M  V30 407 H 43.8937 -2.49915 0.545517 0
M  V30 408 H 43.5377 -5.01339 0.813739 0
M  V30 409 H 43.4677 -5.17798 -0.958775 0
M  V30 410 H 45.9587 -3.76807 -0.287267 0
M  V30 411 H 46.2717 -7.72791 0.0379428 0
M  V30 412 H 44.6167 -6.94995 0.0271731 0
M  V30 413 H 47.8077 -4.6731 -0.271767 0
M  V30 414 H 47.9807 -6.47882 -0.123697 0
M  V30 415 N 41.3868 0.248026 -1.55636 0
M  V30 416 C 42.3168 1.31079 -1.93237 0
M  V30 417 C 43.2978 1.50264 -0.797174 0
M  V30 418 O 44.4828 1.62891 -1.05737 0
M  V30 419 C 41.6128 2.66575 -2.22609 0
M  V30 420 C 40.5668 2.62087 -3.3837 0
M  V30 421 C 39.8928 4.01369 -3.53281 0
M  V30 422 C 41.1928 2.19171 -4.7409 0
M  V30 423 H 42.8868 0.998556 -2.82257 0
M  V30 424 H 40.4328 0.47891 -1.35803 0
M  V30 425 H 42.3858 3.41057 -2.47503 0
M  V30 426 H 41.1098 2.99432 -1.30414 0
M  V30 427 H 39.7688 1.90063 -3.13483 0
M  V30 428 H 39.4168 4.31489 -2.58508 0
M  V30 429 H 39.1168 3.99254 -4.31127 0
M  V30 430 H 40.6408 4.77552 -3.80495 0
M  V30 431 H 42.0548 2.83384 -4.98363 0
M  V30 432 H 40.4518 2.2817 -5.5503 0
M  V30 433 H 41.5218 1.14336 -4.71227 0
M  V30 434 N 42.8649 1.48995 0.513639 0
M  V30 435 C 43.7949 1.67636 1.62544 0
M  V30 436 C 44.7759 0.525087 1.61793 0
M  V30 437 O 45.9609 0.759502 1.78732 0
M  V30 438 C 43.0909 1.73114 3.01079 0
M  V30 439 C 42.0449 2.87905 3.16693 0
M  V30 440 C 41.3709 2.78486 4.56453 0
M  V30 441 C 42.6709 4.29005 2.97913 0
M  V30 442 H 44.3649 2.60716 1.47198 0
M  V30 443 H 41.9109 1.25465 0.706714 0
M  V30 444 H 43.8639 1.84742 3.78746 0
M  V30 445 H 42.5879 0.766241 3.17484 0
M  V30 446 H 41.2469 2.75859 2.41448 0
M  V30 447 H 40.8949 1.7993 4.69717 0
M  V30 448 H 40.5949 3.55523 4.67843 0
M  V30 449 H 42.1189 2.92104 5.36197 0
M  V30 450 H 43.5329 4.41798 3.65359 0
M  V30 451 H 41.9299 5.07166 3.20785 0
M  V30 452 H 42.9999 4.44329 1.94165 0
M  V30 453 N 44.343 -0.763751 1.37857 0
M  V30 454 C 45.583 -1.53551 1.34913 0
M  V30 455 C 45.947 -1.91895 -0.0635882 0
M  V30 456 O 47.148 -2.67916 -0.217825 0
M  V30 457 C 45.419 -2.76126 2.26912 0
M  V30 458 S 46.978 -3.66105 2.41893 0
M  V30 459 H 43.796 -0.52559 0.478828 0
M  V30 460 H 46.398 -0.897435 1.73685 0
M  V30 461 H 45.102 -2.4605 3.28463 0
M  V30 462 H 44.633 -3.44887 1.89253 0
M  V30 463 H 46.648 -4.68473 1.63545 0
M  V30 464 N 45.8211 -1.22559 -0.990812 0
M  V30 465 C 46.7311 -1.01394 -2.11557 0
M  V30 466 C 47.7471 0.0383962 -1.73958 0
M  V30 467 O 48.9231 -0.154787 -2.00804 0
M  V30 468 C 45.9881 -0.596569 -3.41529 0
M  V30 469 C 45.0491 -1.72276 -3.93217 0
M  V30 470 C 44.2821 -1.32521 -5.16985 0
M  V30 471 O 44.5051 -0.204909 -5.70032 0
M  V30 472 O 43.4391 -2.14247 -5.62478 0
M  V30 473 H 47.2651 -1.95633 -2.32296 0
M  V30 474 H 44.8501 -1.01172 -1.0993 0
M  V30 475 H 46.7321 -0.374263 -4.19735 0
M  V30 476 H 45.4071 0.316939 -3.22145 0
M  V30 477 H 44.3141 -1.99961 -3.16174 0
M  V30 478 H 45.6471 -2.61421 -4.17037 0
M  V30 479 N 47.2992 1.18797 -1.03562 0
M  V30 480 C 48.2312 2.21731 -0.580337 0
M  V30 481 C 49.2442 1.59051 0.347349 0
M  V30 482 O 50.4332 1.77929 0.142669 0
M  V30 483 C 47.5332 3.38459 0.172805 0
M  V30 484 C 46.7062 4.3072 -0.761496 0
M  V30 485 C 45.7652 5.26174 -0.0525547 0
M  V30 486 O 44.7912 5.65108 -0.681333 0
M  V30 487 N 45.9932 5.67624 1.21586 0
M  V30 488 H 48.7582 2.61417 -1.46565 0
M  V30 489 H 46.3192 1.33531 -0.915476 0
M  V30 490 H 48.3112 3.99335 0.656793 0
M  V30 491 H 46.8812 2.97507 0.959602 0
M  V30 492 H 46.1012 3.67525 -1.42544 0
M  V30 493 H 47.3892 4.89267 -1.39626 0
M  V30 494 H 46.7872 5.38038 1.74732 0
M  V30 495 H 45.3442 6.30721 1.64421 0
M  V30 496 N 48.7773 0.814389 1.34928 0
M  V30 497 C 49.7403 0.235759 2.27984 0
M  V30 498 C 50.7403 -0.581412 1.49921 0
M  V30 499 O 51.9303 -0.398758 1.69575 0
M  V30 500 C 49.0623 -0.670433 3.34242 0
M  V30 501 H 50.2553 1.05659 2.80671 0
M  V30 502 H 47.8083 0.585614 1.44915 0
M  V30 503 H 48.5433 -1.51466 2.86755 0
M  V30 504 H 48.3283 -0.0860822 3.92005 0
M  V30 505 H 49.8183 -1.06935 4.03676 0
M  V30 506 N 50.2554 -1.46986 0.568584 0
M  V30 507 C 51.6714 -1.57946 0.229189 0
M  V30 508 C 51.8714 -1.56567 -1.26843 0
M  V30 509 O 50.9274 -1.47511 -2.04931 0
M  V30 510 C 52.2404 -2.87963 0.865909 0
M  V30 511 C 53.7884 -3.01568 0.838188 0
M  V30 512 C 54.2634 -4.34301 1.45419 0
M  V30 513 N 55.7544 -4.40965 1.41788 0
M  V30 514 C 56.4894 -5.42256 1.86403 0
M  V30 515 N 55.9854 -6.50297 2.38926 0
M  V30 516 N 57.7784 -5.3337 1.77405 0
M  V30 517 H 49.9294 -1.46126 1.54146 0
M  V30 518 H 52.1924 -0.696156 0.643484 0
M  V30 519 H 51.8984 -2.94742 1.91886 0
M  V30 520 H 51.7724 -3.75423 0.365687 0
M  V30 521 H 54.1594 -2.94379 -0.206106 0
M  V30 522 H 54.2404 -2.1562 1.37629 0
M  V30 523 H 53.8844 -4.42247 2.49761 0
M  V30 524 H 53.8144 -5.19 0.891435 0
M  V30 525 H 56.3054 -3.63484 1.03381 0
M  V30 526 H 56.6184 -7.23777 2.70863 0
M  V30 527 H 54.9634 -6.51155 2.42944 0
M  V30 528 H 58.1544 -4.47865 1.3614 0
M  V30 529 H 58.3274 -6.12169 2.12492 0
M  V30 530 N 51.7335 -0.305618 -1.54608 0
M  V30 531 C 52.9815 0.301701 -1.99835 0
M  V30 532 C 53.3025 1.54054 -1.19551 0
M  V30 533 O 52.5725 1.93702 -0.292658 0
M  V30 534 H 51.1525 0.114468 -0.738178 0
M  V30 535 H 53.8145 -0.418016 -1.90364 0
M  V30 536 H 52.9105 0.570548 -3.06841 0
M  V30 537 N 53.2116 1.57565 -0.0334293 0
M  V30 538 C 54.1746 2.09393 0.932048 0
M  V30 539 C 55.1746 1.00986 1.25134 0
M  V30 540 O 56.3646 1.27129 1.19096 0
M  V30 541 C 53.4966 2.56338 2.2473 0
M  V30 542 H 54.6896 2.95984 0.483085 0
M  V30 543 H 52.2426 1.54819 0.21468 0
M  V30 544 H 52.9776 1.7309 2.74245 0
M  V30 545 H 52.7626 3.35542 2.02865 0
M  V30 546 H 54.2526 2.96646 2.93923 0
M  V30 547 N 54.6897 -0.239769 1.55765 0
M  V30 548 C 55.6217 -1.32001 1.87372 0
M  V30 549 C 56.6347 -1.43944 0.760522 0
M  V30 550 O 57.8237 -1.45167 1.0387 0
M  V30 551 C 54.9237 -2.69779 2.05115 0
M  V30 552 C 54.0967 -2.80014 3.36022 0
M  V30 553 C 53.1557 -3.98684 3.4342 0
M  V30 554 O 52.1817 -3.87877 4.16582 0
M  V30 555 N 53.3837 -5.12176 2.73232 0
M  V30 556 H 56.1487 -1.0522 2.80622 0
M  V30 557 H 53.7097 -0.429857 1.56089 0
M  V30 558 H 55.7017 -3.47517 2.07399 0
M  V30 559 H 54.2717 -2.89237 1.18577 0
M  V30 560 H 53.4917 -1.88896 3.45994 0
M  V30 561 H 54.7797 -2.83808 4.22292 0
M  V30 562 H 54.1777 -5.2385 2.13536 0
M  V30 563 H 52.7347 -5.88022 2.81199 0
M  V30 564 N 56.1678 -1.49265 -0.50573 0
M  V30 565 C 57.4138 -1.58748 -1.26202 0
M  V30 566 C 57.7468 -0.271227 -1.92297 0
M  V30 567 O 57.0218 0.724831 -1.80489 0
M  V30 568 C 57.3048 -2.74332 -2.33268 0
M  V30 569 C 57.1578 -4.15737 -1.71705 0
M  V30 570 C 58.4768 -2.85576 -3.34865 0
M  V30 571 H 55.5958 -0.577826 -0.457478 0
M  V30 572 H 58.2378 -1.81532 -0.560897 0
M  V30 573 H 56.3878 -2.55036 -2.93068 0
M  V30 574 H 58.0598 -4.46537 -1.15769 0
M  V30 575 H 56.3028 -4.21605 -1.02135 0
M  V30 576 H 56.9738 -4.92477 -2.49341 0
M  V30 577 H 59.4498 -3.03127 -2.8505 0
M  V30 578 H 58.3258 -3.68135 -4.07146 0
M  V30 579 H 58.5868 -1.94732 -3.96903 0
M  V30 580 N 57.6459 0.756429 -1.3826 0
M  V30 581 C 58.5789 1.87802 -1.29637 0
M  V30 582 C 59.5569 1.61667 -0.173939 0
M  V30 583 O 60.7409 1.85208 -0.350775 0
M  V30 584 C 57.8679 3.23354 -1.00797 0
M  V30 585 C 56.9139 3.68379 -2.14939 0
M  V30 586 S 57.7469 3.8025 -3.77054 0
M  V30 587 C 58.9029 5.18626 -3.50396 0
M  V30 588 H 59.1359 1.94829 -2.24564 0
M  V30 589 H 56.6689 0.919117 -1.24063 0
M  V30 590 H 58.6269 4.01637 -0.848413 0
M  V30 591 H 57.2879 3.14008 -0.0759369 0
M  V30 592 H 56.4809 4.66693 -1.90299 0
M  V30 593 H 56.0829 2.97242 -2.26988 0
M  V30 594 H 58.3749 6.04289 -3.06334 0
M  V30 595 H 59.3179 5.48286 -4.48094 0
M  V30 596 H 59.7259 4.87289 -2.84973 0
M  V30 597 N 59.124 1.23083 0.984299 0
M  V30 598 C 60.087 1.00979 2.05757 0
M  V30 599 C 61.087 -0.0269573 1.60777 0
M  V30 600 O 62.277 0.212403 1.729 0
M  V30 601 C 59.409 0.527072 3.36801 0
M  V30 602 H 60.602 1.9622 2.26799 0
M  V30 603 H 58.155 1.05072 1.15714 0
M  V30 604 H 58.89 -0.429294 3.21446 0
M  V30 605 H 58.675 1.27515 3.70786 0
M  V30 606 H 60.165 0.392942 4.15747 0
M  V30 607 N 60.6021 -1.18246 1.0419 0
M  V30 608 C 61.8481 -1.88536 0.747122 0
M  V30 609 C 62.1811 -1.80223 -0.723409 0
M  V30 610 O 61.4561 -1.20337 -1.52804 0
M  V30 611 C 61.7391 -3.38968 1.21544 0
M  V30 612 C 61.5921 -3.56084 2.74816 0
M  V30 613 C 62.9111 -4.32648 0.806482 0
M  V30 614 H 60.0301 -0.684619 0.272883 0
M  V30 615 H 62.6721 -1.39113 1.29413 0
M  V30 616 H 60.8221 -3.8119 0.750081 0
M  V30 617 H 62.4941 -3.22946 3.29399 0
M  V30 618 H 60.7371 -2.98699 3.14582 0
M  V30 619 H 61.4081 -4.61639 3.02644 0
M  V30 620 H 63.8841 -3.98211 1.20695 0
M  V30 621 H 62.7601 -5.36462 1.1619 0
M  V30 622 H 63.0211 -4.41146 -0.29029 0
M  V30 623 N 62.0802 -0.821533 -1.34494 0
M  V30 624 C 63.3262 -0.409552 -1.98622 0
M  V30 625 C 63.6592 1.0244 -1.64984 0
M  V30 626 O 62.9342 1.71325 -0.920758 0
M  V30 627 C 63.2172 -0.610458 -3.54888 0
M  V30 628 C 63.0702 -2.09043 -3.98273 0
M  V30 629 C 64.3892 -0.0455379 -4.40076 0
M  V30 630 H 61.5082 -0.15028 -0.721516 0
M  V30 631 H 64.1502 -1.03384 -1.59411 0
M  V30 632 H 62.3002 -0.079044 -3.8842 0
M  V30 633 H 63.9722 -2.68537 -3.75081 0
M  V30 634 H 62.2152 -2.58139 -3.48635 0
M  V30 635 H 62.8862 -2.18182 -5.07051 0
M  V30 636 H 65.3622 -0.499557 -4.1309 0
M  V30 637 H 64.2382 -0.215922 -5.48475 0
M  V30 638 H 64.4992 1.04939 -4.29465 0
M  V30 639 N 63.5583 1.46682 -0.576371 0
M  V30 640 C 64.5053 2.30241 0.160499 0
M  V30 641 C 65.4753 1.40233 0.890162 0
M  V30 642 O 66.6603 1.69186 0.882084 0
M  V30 643 C 63.8003 3.24578 1.1723 0
M  V30 644 C 62.9133 4.29684 0.446736 0
M  V30 645 C 62.0483 5.11154 1.44551 0
M  V30 646 C 61.0873 6.08015 0.70599 0
M  V30 647 N 60.2243 6.82376 1.65251 0
M  V30 648 H 65.0643 2.92727 -0.558127 0
M  V30 649 H 62.6013 1.44272 -0.287056 0
M  V30 650 H 64.5593 3.77711 1.77172 0
M  V30 651 H 63.1893 2.63916 1.85872 0
M  V30 652 H 62.2413 3.79458 -0.267594 0
M  V30 653 H 63.5533 4.98626 -0.131686 0
M  V30 654 H 62.7073 5.68533 2.11791 0
M  V30 655 H 61.4463 4.42158 2.05786 0
M  V30 656 H 60.4513 5.49796 0.0197725 0
M  V30 657 H 61.6763 6.79028 0.09912 0
M  V30 658 H 59.6223 6.16094 2.25308 0
M  V30 659 H 59.5393 7.47556 1.12673 0
M  V30 660 H 60.8073 7.44316 2.31546 0
M  V30 661 N 65.0364 0.313813 1.54444 0
M  V30 662 C 65.9994 -0.54379 2.22656 0
M  V30 663 C 66.9994 -1.05124 1.21678 0
M  V30 664 O 68.1894 -0.945225 1.46325 0
M  V30 665 C 65.3214 -1.75427 2.92298 0
M  V30 666 H 66.5144 0.0523599 2.99854 0
M  V30 667 H 64.0674 0.0647834 1.56166 0
M  V30 668 H 64.8024 -2.38991 2.19211 0
M  V30 669 H 64.5874 -1.39791 3.66334 0
M  V30 670 H 66.0774 -2.36325 3.44297 0
M  V30 671 N 66.5145 -1.57545 0.0417849 0
M  V30 672 C 67.7915 -1.83642 -0.673433 0
M  V30 673 C 68.1715 -0.928298 -1.89594 0
M  V30 674 O 67.5195 0.0129955 -2.28496 0
M  V30 675 C 67.7295 -3.33155 -1.03964 0
M  V30 676 C 69.0775 -3.99941 -1.42592 0
M  V30 677 O 70.1015 -3.37725 -1.13226 0
M  V30 678 O 68.9605 -5.09619 -1.9736 0
M  V30 679 H 66.0545 -0.757638 -0.331533 0
M  V30 680 H 68.6005 -1.69554 0.070433 0
M  V30 681 H 67.3725 -3.9093 -0.170098 0
M  V30 682 H 66.9955 -3.52396 -1.84126 0
M  V30 683 N 67.9926 0.231505 -1.5589 0
M  V30 684 C 69.2406 0.955461 -1.78088 0
M  V30 685 C 69.5616 1.85262 -0.608533 0
M  V30 686 O 68.8316 1.92277 0.375035 0
M  V30 687 H 67.4116 0.355787 -0.656829 0
M  V30 688 H 70.0736 0.245751 -1.93344 0
M  V30 689 H 69.1696 1.56814 -2.69844 0
M  V30 690 N 69.4707 1.49531 0.497807 0
M  V30 691 C 70.7007 1.62657 1.27382 0
M  V30 692 C 71.1087 0.298488 1.86831 0
M  V30 693 O 70.4517 -0.72647 1.68725 0
M  V30 694 C 70.5137 2.6393 2.44093 0
M  V30 695 C 70.1777 4.08195 2.05489 0
M  V30 696 C 71.1747 4.949 1.59279 0
M  V30 697 C 68.8597 4.53948 2.15026 0
M  V30 698 C 70.8537 6.25397 1.23113 0
M  V30 699 C 68.5407 5.84458 1.78473 0
M  V30 700 C 69.5387 6.70006 1.32591 0
M  V30 701 O 69.2267 7.98083 0.965327 0
M  V30 702 H 68.9587 0.550429 0.392434 0
M  V30 703 H 71.5127 1.96325 0.603801 0
M  V30 704 H 69.7427 2.25449 3.14181 0
M  V30 705 H 71.4317 2.66552 3.06113 0
M  V30 706 H 72.1977 4.60779 1.51354 0
M  V30 707 H 68.0767 3.87525 2.4969 0
M  V30 708 H 71.6207 6.92125 0.872299 0
M  V30 709 H 67.5177 6.18107 1.86048 0
M  V30 710 H 68.2857 8.11122 1.09652 0
M  V30 711 N 70.9488 -0.749086 1.3866 0
M  V30 712 C 72.1968 -1.50535 1.34847 0
M  V30 713 C 72.5178 -1.94909 -0.0595016 0
M  V30 714 O 71.7878 -1.67973 -1.00806 0
M  V30 715 H 70.3678 -0.558395 0.49619 0
M  V30 716 H 73.0298 -0.890165 1.73384 0
M  V30 717 H 72.1258 -2.39413 2.00219 0
M  V30 718 N 72.4269 -1.23603 -0.977757 0
M  V30 719 C 73.3769 -0.986664 -2.05545 0
M  V30 720 C 74.3609 0.0683009 -1.60755 0
M  V30 721 O 75.5529 -0.144162 -1.76412 0
M  V30 722 C 72.6819 -0.582623 -3.3832 0
M  V30 723 C 71.7679 -1.67313 -3.89701 0
M  V30 724 N 72.1589 -2.90394 -4.14132 0
M  V30 725 C 70.4569 -1.54832 -4.18262 0
M  V30 726 C 71.1579 -3.61017 -4.56116 0
M  V30 727 N 70.1339 -2.8854 -4.60701 0
M  V30 728 H 73.9359 -1.92139 -2.22396 0
M  V30 729 H 71.4499 -1.1358 -1.16074 0
M  V30 730 H 73.4469 -0.38524 -4.15116 0
M  V30 731 H 72.1069 0.34503 -3.22862 0
M  V30 732 H 73.1179 -3.26673 -4.01877 0
M  V30 733 H 69.7949 -0.687969 -4.11793 0
M  V30 734 H 71.1849 -4.66544 -4.83514 0
M  V30 735 N 73.905 1.17692 -1.04816 0
M  V30 736 C 75.153 1.87488 -0.754497 0
M  V30 737 C 75.474 1.81205 0.720407 0
M  V30 738 O 74.744 1.23544 1.52032 0
M  V30 739 H 73.324 0.694101 -0.276102 0
M  V30 740 H 75.986 1.42793 -1.32651 0
M  V30 741 H 75.082 2.93328 -1.06606 0
M  V30 742 N 75.3831 0.828654 1.34056 0
M  V30 743 C 76.3461 0.259927 2.27721 0
M  V30 744 C 77.3461 -0.565478 1.50529 0
M  V30 745 O 78.5361 -0.38075 1.69988 0
M  V30 746 C 75.6681 -0.634944 3.34935 0
M  V30 747 H 76.8611 1.0863 2.79534 0
M  V30 748 H 74.4141 0.600951 1.44285 0
M  V30 749 H 75.1491 -1.48416 2.88346 0
M  V30 750 H 74.9341 -0.0444999 3.92075 0
M  V30 751 H 76.4241 -1.02648 4.04788 0
M  V30 752 N 76.8612 -1.46375 0.584142 0
M  V30 753 C 78.1072 -2.02678 0.0703716 0
M  V30 754 C 78.4402 -1.4545 -1.28678 0
M  V30 755 O 77.7152 -0.62014 -1.84349 0
M  V30 756 C 77.9982 -3.60099 0.00614674 0
M  V30 757 C 77.8512 -4.27709 1.3923 0
M  V30 758 C 79.1702 -4.34598 -0.693742 0
M  V30 759 H 76.2892 -0.736504 0.027047 0
M  V30 760 H 78.9312 -1.74501 0.751615 0
M  V30 761 H 77.0812 -3.84236 -0.574009 0
M  V30 762 H 78.7532 -4.14832 2.01773 0
M  V30 763 H 76.9962 -3.87016 1.95962 0
M  V30 764 H 77.6672 -5.36478 1.29982 0
M  V30 765 H 80.1432 -4.15615 -0.200869 0
M  V30 766 H 79.0192 -5.44318 -0.707714 0
M  V30 767 H 79.2802 -4.05759 -1.75533 0
M  V30 768 N 78.3393 -0.321999 -1.54275 0
M  V30 769 C 79.2713 0.578671 -2.21775 0
M  V30 770 C 80.2843 1.08109 -1.21722 0
M  V30 771 O 81.4733 0.994938 -1.482 0
M  V30 772 C 78.5733 1.80661 -2.86731 0
M  V30 773 C 77.7463 1.44314 -4.12907 0
M  V30 774 C 76.8053 2.52845 -4.61472 0
M  V30 775 O 75.8313 2.17054 -5.2619 0
M  V30 776 N 77.0333 3.83748 -4.35566 0
M  V30 777 H 79.7983 0.000709447 -2.997 0
M  V30 778 H 77.3593 -0.145132 -1.61248 0
M  V30 779 H 79.3513 2.52655 -3.16145 0
M  V30 780 H 77.9213 2.29245 -2.12521 0
M  V30 781 H 77.1413 0.554906 -3.90275 0
M  V30 782 H 78.4293 1.17598 -4.95023 0
M  V30 783 H 77.8273 4.15625 -3.83761 0
M  V30 784 H 76.3843 4.51977 -4.69638 0
M  V30 785 N 79.8174 1.5752 -0.0501392 0
M  V30 786 C 81.0454 1.96963 0.633492 0
M  V30 787 C 81.4604 0.927631 1.6444 0
M  V30 788 O 80.8174 -0.0882665 1.82286 0
M  V30 789 C 80.8684 3.36487 1.32132 0
M  V30 790 O 80.5894 4.36693 0.350894 0
M  V30 791 C 82.0904 3.90682 2.09481 0
M  V30 792 H 79.3104 0.648244 0.173266 0
M  V30 793 H 81.8544 2.0417 -0.116134 0
M  V30 794 H 80.0094 3.30434 2.02218 0
M  V30 795 H 80.4234 5.17702 0.841735 0
M  V30 796 H 81.8974 4.90591 2.5303 0
M  V30 797 H 82.3744 3.26053 2.94255 0
M  V30 798 H 82.9804 4.00069 1.44307 0
M  V30 799 N 81.2955 -0.223234 1.56011 0
M  V30 800 C 82.2585 -1.26014 1.9145 0
M  V30 801 C 83.2585 -1.3989 0.792937 0
M  V30 802 O 84.4485 -1.38184 1.0607 0
M  V30 803 C 81.5805 -2.63422 2.16383 0
M  V30 804 H 82.7735 -0.95796 2.84189 0
M  V30 805 H 80.3265 -0.463576 1.49267 0
M  V30 806 H 81.0615 -2.98741 1.2619 0
M  V30 807 H 80.8465 -2.54728 2.98088 0
M  V30 808 H 82.3365 -3.38249 2.44903 0
M  V30 809 N 82.7736 -1.49793 -0.48987 0
M  V30 810 C 84.1896 -1.36803 -0.822022 0
M  V30 811 C 84.3896 -0.409652 -1.97292 0
M  V30 812 O 83.4456 0.154614 -2.52026 0
M  V30 813 C 84.7586 -2.77768 -1.15175 0
M  V30 814 C 86.3066 -2.86549 -1.25931 0
M  V30 815 C 86.7816 -4.28306 -1.62228 0
M  V30 816 N 88.2726 -4.31169 -1.69256 0
M  V30 817 C 89.0076 -5.37832 -1.98807 0
M  V30 818 N 88.5036 -6.54726 -2.26507 0
M  V30 819 N 90.2966 -5.25258 -2.00152 0
M  V30 820 H 82.4476 -2.10691 0.268881 0
M  V30 821 H 84.7106 -0.946241 0.057728 0
M  V30 822 H 84.4166 -3.49648 -0.379335 0
M  V30 823 H 84.2906 -3.13836 -2.09253 0
M  V30 824 H 86.6776 -2.14899 -2.02243 0
M  V30 825 H 86.7586 -2.54049 -0.298776 0
M  V30 826 H 86.4026 -5.00486 -0.864622 0
M  V30 827 H 86.3326 -4.58279 -2.594 0
M  V30 828 H 88.8236 -3.4687 -1.49965 0
M  V30 829 H 89.1366 -7.31833 -2.48276 0
M  V30 830 H 87.4816 -6.57933 -2.23939 0
M  V30 831 H 90.6726 -4.32938 -1.77996 0
M  V30 832 H 90.8456 -6.08476 -2.22848 0
M  V30 833 N 84.2517 0.741722 -1.39055 0
M  V30 834 C 85.2147 1.83733 -1.37021 0
M  V30 835 C 86.2147 1.58542 -0.268534 0
M  V30 836 O 87.4047 1.66067 -0.526076 0
M  V30 837 C 84.5367 3.2141 -1.13617 0
M  V30 838 H 85.7297 1.86941 -2.34506 0
M  V30 839 H 83.2827 0.944676 -1.24521 0
M  V30 840 H 84.0177 3.23865 -0.167863 0
M  V30 841 H 83.8027 3.4109 -1.93391 0
M  V30 842 H 85.2927 4.01477 -1.14918 0
M  V30 843 N 85.7298 1.2412 0.971189 0
M  V30 844 C 86.6928 1.03156 2.04674 0
M  V30 845 C 87.6928 -0.00990322 1.60797 0
M  V30 846 O 88.8828 0.230729 1.72665 0
M  V30 847 C 86.0148 0.562765 3.36223 0
M  V30 848 H 87.2078 1.98614 2.24705 0
M  V30 849 H 84.7608 1.06293 1.14593 0
M  V30 850 H 85.4958 -0.395176 3.21883 0
M  V30 851 H 85.2808 1.31441 3.69413 0
M  V30 852 H 86.7708 0.437015 4.15307 0
M  V30 853 N 87.2079 -1.17134 1.05439 0
M  V30 854 C 88.1379 -2.2342 0.678649 0
M  V30 855 C 89.1189 -1.66971 -0.32476 0
M  V30 856 O 90.3039 -1.93149 -0.201802 0
M  V30 857 C 87.4339 -3.47256 0.0552099 0
M  V30 858 C 86.3879 -4.16543 0.98365 0
M  V30 859 C 85.7139 -5.34231 0.223961 0
M  V30 860 C 87.0139 -4.68495 2.3089 0
M  V30 861 H 88.7079 -2.55105 1.56722 0
M  V30 862 H 86.2539 -1.2262 0.754998 0
M  V30 863 H 88.2069 -4.20828 -0.21946 0
M  V30 864 H 86.9309 -3.14846 -0.868319 0
M  V30 865 H 85.5899 -3.44887 1.24293 0
M  V30 866 H 85.2379 -4.98071 -0.702412 0
M  V30 867 H 84.9379 -5.81527 0.842627 0
M  V30 868 H 86.4619 -6.10585 -0.0433671 0
M  V30 869 H 87.8759 -5.33691 2.09396 0
M  V30 870 H 86.2729 -5.26379 2.88176 0
M  V30 871 H 87.3429 -3.85169 2.94572 0
M  V30 872 N 88.686 -0.835752 -1.33615 0
M  V30 873 C 89.649 -0.272 -2.2758 0
M  V30 874 C 90.649 0.557487 -1.50827 0
M  V30 875 O 91.839 0.37173 -1.70188 0
M  V30 876 C 88.971 0.617173 -3.35267 0
M  V30 877 H 90.164 -1.10111 -2.78954 0
M  V30 878 H 87.717 -0.608594 -1.43965 0
M  V30 879 H 88.452 1.46884 -2.89129 0
M  V30 880 H 88.237 0.0237066 -3.92093 0
M  V30 881 H 89.727 1.005 -4.05326 0
M  V30 882 N 90.1641 1.46063 -0.591896 0
M  V30 883 C 91.1271 2.28854 0.125973 0
M  V30 884 C 92.1271 1.38903 0.810107 0
M  V30 885 O 93.3171 1.61186 0.66066 0
M  V30 886 C 90.4491 3.19526 1.1881 0
M  V30 887 H 91.6421 2.93802 -0.601717 0
M  V30 888 H 89.1951 1.52325 -0.350254 0
M  V30 889 H 89.9301 2.59345 1.94707 0
M  V30 890 H 89.7151 3.85766 0.701936 0
M  V30 891 H 91.2051 3.81817 1.69132 0
M  V30 892 N 91.6422 0.330177 1.54103 0
M  V30 893 C 92.8902 -0.269871 2.0029 0
M  V30 894 C 93.2112 -1.52133 1.21986 0
M  V30 895 O 92.4812 -1.93212 0.323438 0
M  V30 896 H 91.0612 -0.10271 0.739905 0
M  V30 897 H 93.7232 0.448249 1.89675 0
M  V30 898 H 92.8192 -0.52166 3.07709 0
M  V30 899 N 93.1203 -1.57491 0.0584922 0
M  V30 900 C 94.0833 -2.1085 -0.898617 0
M  V30 901 C 95.0833 -1.02964 -1.23511 0
M  V30 902 O 96.2733 -1.29007 -1.17059 0
M  V30 903 C 93.4053 -2.59881 -2.20623 0
M  V30 904 H 94.5983 -2.96715 -0.435936 0
M  V30 905 H 92.1513 -1.55141 -0.190023 0
M  V30 906 H 92.8863 -1.77431 -2.71457 0
M  V30 907 H 92.6713 -3.38727 -1.97501 0
M  V30 908 H 94.1613 -3.01285 -2.89166 0
M  V30 909 N 94.5984 0.214957 -1.56127 0
M  V30 910 C 95.5614 1.24997 -1.92116 0
M  V30 911 C 96.5614 1.39467 -0.800344 0
M  V30 912 O 97.7514 1.37619 -1.06802 0
M  V30 913 C 94.8834 2.62271 -2.17777 0
M  V30 914 H 96.0764 0.942875 -2.84693 0
M  V30 915 H 93.6294 0.455654 -1.49511 0
M  V30 916 H 94.3644 2.98068 -1.27773 0
M  V30 917 H 94.1494 2.53143 -2.99434 0
M  V30 918 H 95.6394 3.36946 -2.46693 0
M  V30 919 N 96.0765 1.50051 0.48192 0
M  V30 920 C 96.9865 1.7089 1.60728 0
M  V30 921 C 98.0025 0.591788 1.63627 0
M  V30 922 O 99.1785 0.868817 1.81696 0
M  V30 923 C 96.2435 1.78855 2.97005 0
M  V30 924 C 95.3045 3.02537 3.04581 0
M  V30 925 C 94.5375 3.10112 4.34357 0
M  V30 926 O 94.7605 2.24765 5.24249 0
M  V30 927 O 93.6945 4.02747 4.47301 0
M  V30 928 H 97.5205 2.66264 1.46072 0
M  V30 929 H 95.1055 1.34018 0.660264 0
M  V30 930 H 96.9875 1.86336 3.77964 0
M  V30 931 H 95.6625 0.866628 3.11883 0
M  V30 932 H 94.5695 3.00563 2.22739 0
M  V30 933 H 95.9025 3.94272 2.94636 0
M  V30 934 N 97.5546 -0.734337 1.39446 0
M  V30 935 C 98.4846 -1.86155 1.40955 0
M  V30 936 C 99.4656 -1.67898 0.272827 0
M  V30 937 O 100.651 -1.88207 0.478743 0
M  V30 938 C 97.7806 -3.23912 1.25294 0
M  V30 939 C 96.7346 -3.56808 2.36373 0
M  V30 940 C 96.0606 -4.93508 2.058 0
M  V30 941 C 97.3606 -3.59713 3.78687 0
M  V30 942 H 99.0546 -1.8515 2.35287 0
M  V30 943 H 96.6006 -0.889367 1.13253 0
M  V30 944 H 98.5536 -4.02443 1.2497 0
M  V30 945 H 97.2776 -3.25446 0.274308 0
M  V30 946 H 95.9366 -2.80606 2.35914 0
M  V30 947 H 95.5846 -4.91623 1.06374 0
M  V30 948 H 95.2846 -5.16486 2.80208 0
M  V30 949 H 96.8086 -5.74396 2.07128 0
M  V30 950 H 98.2226 -4.2832 3.81071 0
M  V30 951 H 96.6196 -3.94209 4.52459 0
M  V30 952 H 97.6896 -2.59504 4.09617 0
M  V30 953 N 99.0327 -1.24633 -0.964593 0
M  V30 954 C 100.281 -1.08573 -1.70459 0
M  V30 955 C 100.602 0.375655 -1.91347 0
M  V30 956 O 99.8717 1.26779 -1.49345 0
M  V30 957 H 98.4517 -0.398784 -0.631649 0
M  V30 958 H 101.114 -1.56601 -1.16026 0
M  V30 959 H 100.21 -1.58623 -2.68785 0
M  V30 960 N 100.511 1.16574 -1.06058 0
M  V30 961 C 101.757 1.87324 -0.777022 0
M  V30 962 C 102.09 1.81351 0.694645 0
M  V30 963 O 101.365 1.22753 1.50871 0
M  V30 964 C 101.648 3.36991 -1.26922 0
M  V30 965 C 101.501 3.51667 -2.80447 0
M  V30 966 C 102.82 4.3131 -0.87521 0
M  V30 967 H 99.9388 0.680191 -0.28374 0
M  V30 968 H 102.581 1.37036 -1.3161 0
M  V30 969 H 100.731 3.79949 -0.81063 0
M  V30 970 H 102.403 3.17664 -3.34495 0
M  V30 971 H 100.646 2.93656 -3.19294 0
M  V30 972 H 101.317 4.56766 -3.0995 0
M  V30 973 H 103.793 3.9624 -1.27014 0
M  V30 974 H 102.669 5.34545 -1.2471 0
M  V30 975 H 102.93 4.41552 0.220071 0
M  V30 976 N 101.989 0.842826 1.3317 0
M  V30 977 C 102.952 0.284065 2.27433 0
M  V30 978 C 103.952 -0.54948 1.5112 0
M  V30 979 O 105.142 -0.362699 1.70382 0
M  V30 980 C 102.274 -0.599384 3.35589 0
M  V30 981 H 103.467 1.11589 2.78366 0
M  V30 982 H 101.02 0.616221 1.4364 0
M  V30 983 H 101.755 -1.45349 2.89904 0
M  V30 984 H 101.54 -0.00291266 3.921 0
M  V30 985 H 103.03 -0.983488 4.05854 0
M  V30 986 N 103.467 -1.45747 0.599634 0
M  V30 987 C 104.695 -2.06668 0.0978551 0
M  V30 988 C 105.11 -1.44562 -1.21439 0
M  V30 989 O 104.467 -0.556923 -1.73795 0
M  V30 990 C 104.518 -3.61456 -0.0567044 0
M  V30 991 O 104.239 -4.21242 1.20361 0
M  V30 992 C 105.74 -4.39345 -0.590869 0
M  V30 993 H 102.96 -0.667825 0.0651943 0
M  V30 994 H 105.504 -1.87115 0.82511 0
M  V30 995 H 103.659 -3.80378 -0.734251 0
M  V30 996 H 104.073 -5.14323 1.02821 0
M  V30 997 H 105.547 -5.48182 -0.648131 0
M  V30 998 H 106.024 -4.08568 -1.61147 0
M  V30 999 H 106.63 -4.25268 0.0523679 0
M  V30 1000 N 104.945 -0.338344 -1.53925 0
M  V30 1001 C 106.191 0.260143 -2.01125 0
M  V30 1002 C 106.524 1.50617 -1.22589 0
M  V30 1003 O 105.799 1.91979 -0.312113 0
M  V30 1004 C 106.082 0.579499 -3.55407 0
M  V30 1005 C 105.935 -0.678264 -4.44657 0
M  V30 1006 C 107.254 1.39122 -4.17532 0
M  V30 1007 H 104.373 0.0930772 -0.731099 0
M  V30 1008 H 107.015 -0.457852 -1.84401 0
M  V30 1009 H 105.165 1.19118 -3.69788 0
M  V30 1010 H 106.837 -1.31631 -4.42121 0
M  V30 1011 H 105.08 -1.3042 -4.13731 0
M  V30 1012 H 105.751 -0.410143 -5.50474 0
M  V30 1013 H 108.227 0.874035 -4.06817 0
M  V30 1014 H 107.103 1.58342 -5.25565 0
M  V30 1015 H 107.364 2.39178 -3.71815 0
M  V30 1016 N 106.423 1.57458 -0.0668435 0
M  V30 1017 C 107.7 1.8469 0.644132 0
M  V30 1018 C 108.08 0.958343 1.88093 0
M  V30 1019 O 107.428 0.0233579 2.28488 0
M  V30 1020 C 107.638 3.34767 0.986509 0
M  V30 1021 C 108.986 4.02159 1.36212 0
M  V30 1022 O 110.01 3.39484 1.07839 0
M  V30 1023 O 108.869 5.12694 1.89227 0
M  V30 1024 H 105.963 0.762816 0.319437 0
M  V30 1025 H 108.509 1.6942 -0.0973986 0
M  V30 1026 H 107.281 3.91151 0.107883 0
M  V30 1027 H 106.904 3.55281 1.78497 0
M  V30 1028 N 107.901 -0.206675 1.56239 0
M  V30 1029 C 108.811 -1.27686 1.96808 0
M  V30 1030 C 109.827 -1.50455 0.874035 0
M  V30 1031 O 111.003 -1.63295 1.17884 0
M  V30 1032 C 108.068 -2.60358 2.28942 0
M  V30 1033 C 107.129 -2.45762 3.51994 0
M  V30 1034 C 106.362 -3.72108 3.82585 0
M  V30 1035 O 106.585 -4.75776 3.14631 0
M  V30 1036 O 105.519 -3.6833 4.76043 0
M  V30 1037 H 109.345 -0.962593 2.88041 0
M  V30 1038 H 106.93 -0.410746 1.43643 0
M  V30 1039 H 108.812 -3.38687 2.50737 0
M  V30 1040 H 107.487 -2.91435 1.4088 0
M  V30 1041 H 106.394 -1.65584 3.35459 0
M  V30 1042 H 107.727 -2.19621 4.40486 0
M  V30 1043 N 109.379 -1.50304 -0.473955 0
M  V30 1044 C 110.342 -1.6841 -1.55469 0
M  V30 1045 C 111.342 -0.554905 -1.50922 0
M  V30 1046 O 112.532 -0.821882 -1.53593 0
M  V30 1047 C 109.664 -1.70667 -2.95102 0
M  V30 1048 H 110.857 -2.64828 -1.40733 0
M  V30 1049 H 108.41 -1.39742 -0.700132 0
M  V30 1050 H 109.145 -0.75932 -3.15285 0
M  V30 1051 H 108.93 -2.52698 -2.9981 0
M  V30 1052 H 110.42 -1.8664 -3.73571 0
M  V30 1053 N 110.857 0.726932 -1.39834 0
M  V30 1054 C 111.787 1.85405 -1.41941 0
M  V30 1055 C 112.768 1.67751 -0.281728 0
M  V30 1056 O 113.953 1.8795 -0.488717 0
M  V30 1057 C 111.083 3.23243 -1.2701 0
M  V30 1058 C 110.037 3.55549 -2.38262 0
M  V30 1059 C 109.363 4.9241 -2.08415 0
M  V30 1060 C 110.663 3.577 -3.80589 0
M  V30 1061 H 112.357 1.83899 -2.36266 0
M  V30 1062 H 109.903 0.883349 -1.13723 0
M  V30 1063 H 111.856 4.01775 -1.27103 0
M  V30 1064 H 110.58 3.25296 -0.291564 0
M  V30 1065 H 109.239 2.79351 -2.37399 0
M  V30 1066 H 108.887 4.91052 -1.0898 0
M  V30 1067 H 108.587 5.14992 -2.82943 0
M  V30 1068 H 110.111 5.73289 -2.10171 0
M  V30 1069 H 111.525 4.26293 -3.83337 0
M  V30 1070 H 109.922 3.91804 -4.54543 0
M  V30 1071 H 110.992 2.57328 -4.10987 0
M  V30 1072 N 112.336 1.25143 0.95797 0
M  V30 1073 C 113.299 1.05321 2.03569 0
M  V30 1074 C 114.299 0.007152 1.60798 0
M  V30 1075 O 115.489 0.24903 1.72411 0
M  V30 1076 C 112.621 0.598394 3.35607 0
M  V30 1077 H 113.814 2.00986 2.22586 0
M  V30 1078 H 111.367 1.07502 1.13459 0
M  V30 1079 H 112.102 -0.361014 3.22284 0
M  V30 1080 H 111.887 1.35351 3.67998 0
M  V30 1081 H 113.377 0.48104 4.1482 0
M  V30 1082 N 113.814 -1.1601 1.06675 0
M  V30 1083 C 114.744 -2.22688 0.702307 0
M  V30 1084 C 115.725 -1.67306 -0.307032 0
M  V30 1085 O 116.91 -1.93352 -0.181305 0
M  V30 1086 C 114.04 -3.47178 0.092038 0
M  V30 1087 C 112.994 -4.15477 1.02777 0
M  V30 1088 C 112.32 -5.33963 0.28061 0
M  V30 1089 C 113.62 -4.66019 2.35846 0
M  V30 1090 H 115.314 -2.53429 1.59419 0
M  V30 1091 H 112.86 -1.21813 0.767961 0
M  V30 1092 H 114.813 -4.21037 -0.174814 0
M  V30 1093 H 113.537 -3.15749 -0.834877 0
M  V30 1094 H 112.196 -3.43549 1.27944 0
M  V30 1095 H 111.844 -4.98788 -0.649545 0
M  V30 1096 H 111.544 -5.806 0.904258 0
M  V30 1097 H 113.068 -6.10596 0.021396 0
M  V30 1098 H 114.482 -5.3144 2.15045 0
M  V30 1099 H 112.879 -5.23293 2.93743 0
M  V30 1100 H 113.949 -3.82023 2.98641 0
M  V30 1101 N 115.292 -0.849877 -1.32721 0
M  V30 1102 C 116.708 -0.539102 -1.50219 0
M  V30 1103 C 116.908 0.931271 -1.78689 0
M  V30 1104 O 115.964 1.71455 -1.85363 0
M  V30 1105 C 117.277 -1.42196 -2.64954 0
M  V30 1106 C 118.825 -1.42189 -2.78839 0
M  V30 1107 C 119.3 -2.28985 -3.96648 0
M  V30 1108 N 120.791 -2.26754 -4.03902 0
M  V30 1109 C 121.526 -2.90644 -4.94281 0
M  V30 1110 N 121.022 -3.63629 -5.897 0
M  V30 1111 N 122.815 -2.80057 -4.87365 0
M  V30 1112 H 114.966 -1.80156 -1.12506 0
M  V30 1113 H 117.229 -0.769217 -0.554085 0
M  V30 1114 H 116.935 -2.46733 -2.50631 0
M  V30 1115 H 116.809 -1.10591 -3.60624 0
M  V30 1116 H 119.196 -0.38419 -2.92588 0
M  V30 1117 H 119.277 -1.77807 -1.83898 0
M  V30 1118 H 118.921 -3.32819 -3.83658 0
M  V30 1119 H 118.851 -1.90702 -4.90857 0
M  V30 1120 H 121.342 -1.73688 -3.3562 0
M  V30 1121 H 121.655 -4.09558 -6.55349 0
M  V30 1122 H 120 -3.67737 -5.89741 0
M  V30 1123 H 123.191 -2.22593 -4.11789 0
M  V30 1124 H 123.364 -3.30132 -5.57599 0
M  V30 1125 N 116.77 1.45427 -0.607355 0
M  V30 1126 C 117.733 2.28974 0.101693 0
M  V30 1127 C 118.733 1.39754 0.795329 0
M  V30 1128 O 119.923 1.61878 0.643527 0
M  V30 1129 C 117.055 3.20768 1.15414 0
M  V30 1130 H 118.248 2.93147 -0.632844 0
M  V30 1131 H 115.801 1.51945 -0.366391 0
M  V30 1132 H 116.536 2.61395 1.91945 0
M  V30 1133 H 116.321 3.86489 0.66098 0
M  V30 1134 H 117.811 3.83589 1.65073 0
M  V30 1135 N 118.248 0.346503 1.53744 0
M  V30 1136 C 119.211 -0.496439 2.23759 0
M  V30 1137 C 120.211 -1.0252 1.2388 0
M  V30 1138 O 121.401 -0.913974 1.48297 0
M  V30 1139 C 118.533 -1.69187 2.95954 0
M  V30 1140 H 119.726 0.115952 2.99676 0
M  V30 1141 H 117.279 0.0978939 1.55993 0
M  V30 1142 H 118.014 -2.34288 2.24231 0
M  V30 1143 H 117.799 -1.31989 3.69217 0
M  V30 1144 H 119.289 -2.28969 3.49232 0
M  V30 1145 N 119.726 -1.57421 0.075193 0
M  V30 1146 C 120.974 -1.93236 -0.591974 0
M  V30 1147 C 121.295 -0.956241 -1.69944 0
M  V30 1148 O 120.565 -0.00494792 -1.95899 0
M  V30 1149 H 119.145 -0.713355 -0.22166 0
M  V30 1150 H 121.807 -1.9444 0.133848 0
M  V30 1151 H 120.903 -2.95131 -1.01509 0
M  V30 1152 N 121.204 0.198386 -1.56346 0
M  V30 1153 C 122.453 0.917451 -1.79627 0
M  V30 1154 C 122.766 1.8456 -0.64784 0
M  V30 1155 O 123.972 2.60504 -0.764859 0
M  V30 1156 C 122.428 1.68175 -3.18191 0
M  V30 1157 C 122.036 0.798589 -4.40825 0
M  V30 1158 C 123.78 2.39065 -3.50782 0
M  V30 1159 C 121.687 1.56157 -5.70411 0
M  V30 1160 H 120.617 0.346317 -0.669762 0
M  V30 1161 H 123.268 0.170801 -1.82703 0
M  V30 1162 H 121.65 2.47216 -3.09354 0
M  V30 1163 H 122.824 0.0470665 -4.60776 0
M  V30 1164 H 121.139 0.200686 -4.15916 0
M  V30 1165 H 123.736 2.96692 -4.44835 0
M  V30 1166 H 124.079 3.13091 -2.74371 0
M  V30 1167 H 124.612 1.66993 -3.61052 0
M  V30 1168 H 121.351 0.864142 -6.49779 0
M  V30 1169 H 120.871 2.2871 -5.54483 0
M  V30 1170 H 122.55 2.11622 -6.11412 0
M  V30 1171 N 122.682 1.50554 0.465978 0
M  V30 1172 C 123.907 1.65838 1.24549 0
M  V30 1173 C 124.332 0.343486 1.84937 0
M  V30 1174 O 123.69 -0.69324 1.67523 0
M  V30 1175 C 123.738 2.75533 2.32624 0
M  V30 1176 O 122.842 2.37142 3.37398 0
M  V30 1177 H 122.183 0.553893 0.366194 0
M  V30 1178 H 124.713 1.96959 0.553927 0
M  V30 1179 H 124.723 2.98763 2.77857 0
M  V30 1180 H 123.398 3.70962 1.88043 0
M  V30 1181 H 121.975 2.24377 2.97841 0
M  V30 1182 N 124.16 -0.719506 1.40217 0
M  V30 1183 C 125.123 -1.8153 1.39927 0
M  V30 1184 C 126.123 -1.58095 0.293723 0
M  V30 1185 O 127.313 -1.65209 0.552429 0
M  V30 1186 C 124.445 -3.19561 1.18716 0
M  V30 1187 H 125.638 -1.83186 2.37451 0
M  V30 1188 H 123.191 -0.924746 1.26008 0
M  V30 1189 H 123.926 -3.23557 0.219366 0
M  V30 1190 H 123.711 -3.3797 1.98793 0
M  V30 1191 H 125.201 -3.99598 1.21291 0
M  V30 1192 N 125.638 -1.25649 -0.95132 0
M  V30 1193 C 127.049 -1.09654 -1.51106 0
M  V30 1194 C 127.4 0.326615 -1.93462 0
M  V30 1195 O 126.525 1.21697 -1.78938 0
M  V30 1196 C 127.12 -1.98437 -2.74605 0
M  V30 1197 C 125.679 -1.86618 -3.2688 0
M  V30 1198 C 124.826 -1.9239 -1.99703 0
M  V30 1199 H 127.777 -1.38887 -0.767865 0
M  V30 1200 H 127.798 -1.5263 -3.48546 0
M  V30 1201 H 127.31 -3.02009 -2.43746 0
M  V30 1202 H 125.411 -0.859421 -3.62553 0
M  V30 1203 H 125.524 -2.71607 -3.94673 0
M  V30 1204 H 123.888 -1.36317 -2.15151 0
M  V30 1205 H 124.671 -2.97573 -1.71188 0
M  V30 1206 N 127.117 1.15442 -1.07289 0
M  V30 1207 C 128.363 1.86489 -0.796846 0
M  V30 1208 C 128.696 1.82078 0.675371 0
M  V30 1209 O 127.971 1.24346 1.4956 0
M  V30 1210 C 128.254 3.35626 -1.30489 0
M  V30 1211 C 128.107 3.48673 -2.84161 0
M  V30 1212 C 129.426 4.30357 -0.920907 0
M  V30 1213 H 126.545 0.677144 -0.290939 0
M  V30 1214 H 129.187 1.35633 -1.33056 0
M  V30 1215 H 127.337 3.79068 -0.850883 0
M  V30 1216 H 129.009 3.14099 -3.37846 0
M  V30 1217 H 127.252 2.90253 -3.22391 0
M  V30 1218 H 127.923 4.53453 -3.14777 0
M  V30 1219 H 130.399 3.94871 -1.3121 0
M  V30 1220 H 129.275 5.33193 -1.30372 0
M  V30 1221 H 129.536 4.4176 0.173226 0
M  V30 1222 N 128.595 0.856903 1.32268 0
M  V30 1223 C 129.525 0.31858 2.31316 0
M  V30 1224 C 130.506 -0.583487 1.59779 0
M  V30 1225 O 131.691 -0.503259 1.87566 0
M  V30 1226 C 128.821 -0.491979 3.43798 0
M  V30 1227 C 127.775 0.315849 4.26833 0
M  V30 1228 C 127.101 -0.619586 5.31098 0
M  V30 1229 C 128.401 1.54282 4.98993 0
M  V30 1230 H 130.095 1.14621 2.76591 0
M  V30 1231 H 127.641 0.552613 1.32974 0
M  V30 1232 H 129.594 -0.879012 4.1213 0
M  V30 1233 H 128.318 -1.35299 2.97257 0
M  V30 1234 H 126.977 0.684664 3.6015 0
M  V30 1235 H 126.625 -1.47751 4.8081 0
M  V30 1236 H 126.325 -0.0830621 5.87541 0
M  V30 1237 H 127.849 -1.00375 6.02293 0
M  V30 1238 H 129.263 1.22796 5.59995 0
M  V30 1239 H 127.66 2.01745 5.65172 0
M  V30 1240 H 128.73 2.30285 4.26728 0
M  V30 1241 N 130.073 -1.45103 0.615059 0
M  V30 1242 C 131.036 -2.29025 -0.0895485 0
M  V30 1243 C 132.036 -1.40174 -0.787906 0
M  V30 1244 O 133.226 -1.62217 -0.634933 0
M  V30 1245 C 130.358 -3.21376 -1.13711 0
M  V30 1246 H 131.551 -2.92807 0.648382 0
M  V30 1247 H 129.104 -1.51749 0.374444 0
M  V30 1248 H 129.839 -2.6241 -1.90556 0
M  V30 1249 H 129.624 -3.86834 -0.640475 0
M  V30 1250 H 131.114 -3.84459 -1.63036 0
M  V30 1251 N 131.551 -0.354651 -1.53558 0
M  V30 1252 C 132.797 0.231422 -2.02079 0
M  V30 1253 C 133.152 1.47308 -1.23767 0
M  V30 1254 O 132.445 1.8891 -0.319947 0
M  V30 1255 C 132.639 0.587121 -3.52545 0
M  V30 1256 C 132.468 -0.618513 -4.45426 0
M  V30 1257 C 131.238 -1.12724 -4.92566 0
M  V30 1258 C 133.436 -1.48039 -4.92533 0
M  V30 1259 N 131.418 -2.29404 -5.69427 0
M  V30 1260 C 132.789 -2.49397 -5.67628 0
M  V30 1261 C 134.844 -1.50454 -4.74624 0
M  V30 1262 C 133.547 -3.53013 -6.26717 0
M  V30 1263 C 135.573 -2.52958 -5.34571 0
M  V30 1264 C 134.935 -3.5304 -6.09543 0
M  V30 1265 H 131.034 0.0476909 -0.780544 0
M  V30 1266 H 133.618 -0.496727 -1.88257 0
M  V30 1267 H 131.789 1.28436 -3.6655 0
M  V30 1268 H 133.521 1.15734 -3.87799 0
M  V30 1269 H 130.276 -0.693577 -4.68494 0
M  V30 1270 H 130.7 -2.88347 -6.12524 0
M  V30 1271 H 135.342 -0.744356 -4.16196 0
M  V30 1272 H 133.06 -4.2992 -6.84247 0
M  V30 1273 H 136.646 -2.55667 -5.22614 0
M  V30 1274 H 135.526 -4.31056 -6.55103 0
M  V30 1275 N 133.029 1.57378 -0.0835403 0
M  V30 1276 C 133.959 2.1641 0.87686 0
M  V30 1277 C 134.94 1.09429 1.30228 0
M  V30 1278 O 136.125 1.37516 1.37124 0
M  V30 1279 C 133.255 2.73517 2.14022 0
M  V30 1280 C 132.209 3.85769 1.85381 0
M  V30 1281 C 131.535 4.29529 3.18448 0
M  V30 1282 C 132.835 5.09486 1.14984 0
M  V30 1283 H 134.529 2.96914 0.385059 0
M  V30 1284 H 132.075 1.42823 0.18377 0
M  V30 1285 H 134.028 3.13463 2.81636 0
M  V30 1286 H 132.752 1.90252 2.65465 0
M  V30 1287 H 131.411 3.46345 1.20169 0
M  V30 1288 H 131.059 3.43169 3.67755 0
M  V30 1289 H 130.759 5.05204 3.00071 0
M  V30 1290 H 132.283 4.72099 3.8724 0
M  V30 1291 H 133.697 5.46674 1.72687 0
M  V30 1292 H 132.094 5.90515 1.06826 0
M  V30 1293 H 133.164 4.84724 0.130749 0
M  V30 1294 N 134.507 -0.190092 1.56449 0
M  V30 1295 C 135.457 -1.23977 1.91347 0
M  V30 1296 C 136.441 -1.40747 0.779693 0
M  V30 1297 O 137.633 -1.43033 1.04262 0
M  V30 1298 C 134.762 -2.58347 2.26079 0
M  V30 1299 C 133.848 -2.4535 3.45925 0
M  V30 1300 N 134.239 -2.02039 4.63696 0
M  V30 1301 C 132.537 -2.76229 3.50162 0
M  V30 1302 C 133.238 -2.01053 5.4585 0
M  V30 1303 N 132.214 -2.42747 4.8639 0
M  V30 1304 H 136.016 -0.896318 2.79899 0
M  V30 1305 H 133.53 -0.398496 1.57435 0
M  V30 1306 H 135.527 -3.34173 2.49267 0
M  V30 1307 H 134.187 -2.93512 1.38856 0
M  V30 1308 H 135.198 -1.7267 4.88268 0
M  V30 1309 H 131.875 -3.15556 2.73369 0
M  V30 1310 H 133.265 -1.69426 6.50188 0
M  V30 1311 N 135.985 -1.50799 -0.457987 0
M  V30 1312 C 137.396 -1.55152 -1.0385 0
M  V30 1313 C 137.747 -0.362719 -1.92818 0
M  V30 1314 O 136.872 0.522915 -2.09987 0
M  V30 1315 C 137.467 -2.81173 -1.89017 0
M  V30 1316 C 136.026 -2.88164 -2.42154 0
M  V30 1317 C 135.173 -2.49591 -1.20829 0
M  V30 1318 H 138.124 -1.56874 -0.240068 0
M  V30 1319 H 138.145 -2.63769 -2.74238 0
M  V30 1320 H 137.657 -3.67677 -1.24238 0
M  V30 1321 H 135.758 -2.06042 -3.10447 0
M  V30 1322 H 135.871 -3.91356 -2.76364 0
M  V30 1323 H 134.235 -2.02322 -1.54719 0
M  V30 1324 H 135.018 -3.38418 -0.576927 0
M  V30 1325 N 137.463 0.71206 -1.40597 0
M  V30 1326 C 138.874 1.29135 -1.34837 0
M  V30 1327 C 139.225 1.96186 -0.0235395 0
M  V30 1328 O 138.35 1.97768 0.878444 0
M  V30 1329 C 138.945 2.34827 -2.44217 0
M  V30 1330 C 137.504 2.88371 -2.41907 0
M  V30 1331 C 136.651 1.62202 -2.24913 0
M  V30 1332 H 139.602 0.507944 -1.50352 0
M  V30 1333 H 139.623 3.15749 -2.12327 0
M  V30 1334 H 139.135 1.85996 -3.40627 0
M  V30 1335 H 137.236 3.41422 -1.49204 0
M  V30 1336 H 137.349 3.39925 -3.37621 0
M  V30 1337 H 135.713 1.874 -1.72492 0
M  V30 1338 H 136.496 1.15391 -3.23326 0
M  V30 1339 N 138.941 1.26152 0.944643 0
M  V30 1340 C 140.189 1.11271 1.6871 0
M  V30 1341 C 140.51 -0.345166 1.91921 0
M  V30 1342 O 139.78 -1.24387 1.51343 0
M  V30 1343 H 138.36 0.408783 0.625224 0
M  V30 1344 H 141.022 1.58427 1.1352 0
M  V30 1345 H 140.118 1.62879 2.66227 0
M  V30 1346 N 140.419 -1.14872 1.07899 0
M  V30 1347 C 141.668 -1.85135 0.800499 0
M  V30 1348 C 141.981 -1.83547 -0.676014 0
M  V30 1349 O 143.187 -2.49548 -1.06948 0
M  V30 1350 C 141.643 -3.3231 1.38197 0
M  V30 1351 C 141.251 -3.42329 2.8899 0
M  V30 1352 C 142.995 -4.0772 1.18174 0
M  V30 1353 C 140.902 -4.83684 3.403 0
M  V30 1354 H 139.832 -0.693563 0.29578 0
M  V30 1355 H 142.483 -1.29532 1.29976 0
M  V30 1356 H 140.865 -3.87618 0.810431 0
M  V30 1357 H 142.039 -2.97097 3.52236 0
M  V30 1358 H 140.354 -2.80369 3.07867 0
M  V30 1359 H 142.951 -5.12049 1.5398 0
M  V30 1360 H 143.294 -4.16124 0.12117 0
M  V30 1361 H 143.827 -3.58696 1.71994 0
M  V30 1362 H 140.566 -4.80465 4.45907 0
M  V30 1363 H 140.086 -5.29474 2.81811 0
M  V30 1364 H 141.765 -5.52558 3.36584 0
M  V30 1365 N 141.898 -0.863906 -1.31812 0
M  V30 1366 C 143.175 -0.39275 -1.91616 0
M  V30 1367 C 143.555 1.12461 -1.7865 0
M  V30 1368 O 142.903 1.95045 -1.19037 0
M  V30 1369 C 143.113 -0.867385 -3.38049 0
M  V30 1370 C 144.461 -0.889966 -4.15168 0
M  V30 1371 O 145.485 -0.812635 -3.46806 0
M  V30 1372 O 144.344 -1.00079 -5.37258 0
M  V30 1373 H 141.438 -0.116358 -0.818773 0
M  V30 1374 H 143.984 -0.951418 -1.40521 0
M  V30 1375 H 142.756 -1.91081 -3.41473 0
M  V30 1376 H 142.379 -0.286687 -3.96565 0
M  V30 1377 N 143.376 1.44774 -0.622745 0
M  V30 1378 C 144.623 2.02121 -0.1239 0
M  V30 1379 C 144.951 1.48915 1.25118 0
M  V30 1380 O 144.206 0.660045 1.84233 0
M  V30 1381 C 144.505 3.57364 -0.0508323 0
M  V30 1382 C 144.171 4.29787 -1.36358 0
M  V30 1383 C 142.833 4.4929 -1.72314 0
M  V30 1384 C 145.185 4.71062 -2.23048 0
M  V30 1385 C 142.513 5.07325 -2.94682 0
M  V30 1386 C 144.865 5.30452 -3.44679 0
M  V30 1387 C 143.529 5.48175 -3.80868 0
M  V30 1388 H 142.799 0.739612 -0.0453381 0
M  V30 1389 H 145.446 1.73648 -0.807389 0
M  V30 1390 H 143.751 3.85202 0.715991 0
M  V30 1391 H 145.448 3.99456 0.351533 0
M  V30 1392 H 142.038 4.14932 -1.07375 0
M  V30 1393 H 146.222 4.55715 -1.96565 0
M  V30 1394 H 141.478 5.19235 -3.22809 0
M  V30 1395 H 145.652 5.61385 -4.12092 0
M  V30 1396 H 143.279 5.92912 -4.75773 0
M  V30 1397 N 144.854 0.36279 1.53368 0
M  V30 1398 C 146.27 0.0116182 1.59596 0
M  V30 1399 C 146.47 -1.47012 1.37803 0
M  V30 1400 O 145.526 -2.23136 1.18181 0
M  V30 1401 C 146.839 0.465052 2.97082 0
M  V30 1402 C 148.387 0.419033 3.10182 0
M  V30 1403 C 148.862 0.848235 4.50077 0
M  V30 1404 N 150.353 0.803183 4.56183 0
M  V30 1405 C 151.088 1.107 5.62613 0
M  V30 1406 N 150.584 1.47996 6.76808 0
M  V30 1407 N 152.377 1.02998 5.52583 0
M  V30 1408 H 144.528 1.32775 1.65785 0
M  V30 1409 H 146.791 0.542518 0.777417 0
M  V30 1410 H 146.497 1.49892 3.18159 0
M  V30 1411 H 146.371 -0.149786 3.76902 0
M  V30 1412 H 148.758 -0.605696 2.88817 0
M  V30 1413 H 148.839 1.06933 2.32377 0
M  V30 1414 H 148.483 1.87107 4.7218 0
M  V30 1415 H 148.413 0.175218 5.26308 0
M  V30 1416 H 150.904 0.52838 3.74188 0
M  V30 1417 H 151.217 1.69613 7.53957 0
M  V30 1418 H 149.562 1.51859 6.78206 0
M  V30 1419 H 152.753 0.737817 4.62249 0
M  V30 1420 H 152.926 1.2701 6.35431 0
M  V30 1421 N 146.332 -1.57332 0.0918853 0
M  V30 1422 C 147.743 -1.81496 -0.437739 0
M  V30 1423 C 148.094 -1.00727 -1.6837 0
M  V30 1424 O 147.219 -0.235694 -2.15113 0
M  V30 1425 C 147.814 -3.29197 -0.800939 0
M  V30 1426 C 146.373 -3.54136 -1.27532 0
M  V30 1427 C 145.52 -2.75979 -0.270392 0
M  V30 1428 H 148.471 -1.55494 0.317366 0
M  V30 1429 H 148.492 -3.42344 -1.66074 0
M  V30 1430 H 148.004 -3.87955 0.106078 0
M  V30 1431 H 146.105 -3.00705 -2.20016 0
M  V30 1432 H 146.218 -4.62792 -1.23938 0
M  V30 1433 H 144.582 -2.43349 -0.751872 0
M  V30 1434 H 145.365 -3.37484 0.629248 0
M  V30 1435 N 147.81 0.181792 -1.56548 0
M  V30 1436 C 148.773 1.20894 -1.94724 0
M  V30 1437 C 149.773 1.37738 -0.829747 0
M  V30 1438 O 150.963 1.35323 -1.09697 0
M  V30 1439 C 148.095 2.57593 -2.23291 0
M  V30 1440 H 149.288 0.882275 -2.86629 0
M  V30 1441 H 146.841 0.423838 -1.50444 0
M  V30 1442 H 147.576 2.95291 -1.34067 0
M  V30 1443 H 147.361 2.46735 -3.04736 0
M  V30 1444 H 148.851 3.31637 -2.53785 0
M  V30 1445 N 149.288 1.51039 0.449983 0
M  V30 1446 C 150.218 1.74379 1.55288 0
M  V30 1447 C 151.199 0.593236 1.5942 0
M  V30 1448 O 152.384 0.834625 1.7535 0
M  V30 1449 C 149.514 1.85728 2.93466 0
M  V30 1450 C 148.468 3.01078 3.04197 0
M  V30 1451 C 147.794 2.97595 4.44231 0
M  V30 1452 C 149.094 4.41254 2.7945 0
M  V30 1453 H 150.788 2.66725 1.36008 0
M  V30 1454 H 148.334 1.2835 0.652864 0
M  V30 1455 H 150.287 2.0064 3.70569 0
M  V30 1456 H 149.011 0.900207 3.13949 0
M  V30 1457 H 147.67 2.85851 2.29531 0
M  V30 1458 H 147.318 1.99691 4.61663 0
M  V30 1459 H 147.018 3.75046 4.52343 0
M  V30 1460 H 148.542 3.14583 5.23326 0
M  V30 1461 H 149.956 4.56897 3.46292 0
M  V30 1462 H 148.353 5.20315 2.98985 0
M  V30 1463 H 149.423 4.52164 1.75144 0
M  V30 1464 N 150.766 -0.704594 1.40972 0
M  V30 1465 C 151.696 -1.83124 1.44872 0
M  V30 1466 C 152.677 -1.67281 0.30838 0
M  V30 1467 O 153.862 -1.87149 0.518556 0
M  V30 1468 C 150.992 -3.21181 1.32136 0
M  V30 1469 C 149.946 -3.51714 2.43888 0
M  V30 1470 C 149.272 -4.89032 2.16222 0
M  V30 1471 C 150.572 -3.516 3.86232 0
M  V30 1472 H 152.266 -1.80117 2.39161 0
M  V30 1473 H 149.812 -0.865145 1.15114 0
M  V30 1474 H 151.765 -3.99702 1.33479 0
M  V30 1475 H 150.489 -3.24791 0.343279 0
M  V30 1476 H 149.148 -2.75539 2.41813 0
M  V30 1477 H 148.796 -4.89256 1.16778 0
M  V30 1478 H 148.496 -5.10426 2.911 0
M  V30 1479 H 150.02 -5.69873 2.19265 0
M  V30 1480 H 151.434 -4.2014 3.9007 0
M  V30 1481 H 149.831 -3.84523 4.60719 0
M  V30 1482 H 150.901 -2.50757 4.15029 0
M  V30 1483 N 152.244 -1.26651 -0.937939 0
M  V30 1484 C 153.207 -1.08546 -2.01867 0
M  V30 1485 C 154.207 -0.0327327 -1.60767 0
M  V30 1486 O 155.397 -0.276427 -1.71993 0
M  V30 1487 C 152.529 -0.651711 -3.34613 0
M  V30 1488 H 153.722 -2.04502 -2.1936 0
M  V30 1489 H 151.275 -1.09294 -1.11734 0
M  V30 1490 H 152.01 0.309696 -3.22818 0
M  V30 1491 H 151.795 -1.41189 -3.65798 0
M  V30 1492 H 153.285 -0.546973 -4.14002 0
M  V30 1493 N 153.722 1.14298 -1.08507 0
M  V30 1494 C 154.97 1.84993 -0.813763 0
M  V30 1495 C 155.291 1.83405 0.662393 0
M  V30 1496 O 154.561 1.28319 1.48024 0
M  V30 1497 H 153.141 0.684966 -0.298045 0
M  V30 1498 H 155.803 1.385 -1.37126 0
M  V30 1499 H 154.899 2.89788 -1.15884 0
M  V30 1500 N 155.201 0.870884 1.31352 0
M  V30 1501 C 156.447 0.482987 1.96965 0
M  V30 1502 C 156.78 -0.962462 1.68672 0
M  V30 1503 O 156.055 -1.6779 0.98371 0
M  V30 1504 C 156.338 0.741752 3.52378 0
M  V30 1505 C 156.191 2.2368 3.9024 0
M  V30 1506 C 157.51 0.208838 4.39604 0
M  V30 1507 H 154.629 0.176955 0.715441 0
M  V30 1508 H 157.271 1.09229 1.55464 0
M  V30 1509 H 155.421 0.223149 3.87859 0
M  V30 1510 H 157.093 2.82273 3.64856 0
M  V30 1511 H 155.336 2.70901 3.38814 0
M  V30 1512 H 156.007 2.3685 4.98604 0
M  V30 1513 H 158.483 0.652529 4.10952 0
M  V30 1514 H 157.359 0.419336 5.47296 0
M  V30 1515 H 157.62 -0.889275 4.33064 0
M  V30 1516 N 156.679 -1.44442 0.630414 0
M  V30 1517 C 157.611 -2.2892 -0.113347 0
M  V30 1518 C 158.624 -1.41243 -0.80959 0
M  V30 1519 O 159.813 -1.65402 -0.671156 0
M  V30 1520 C 156.913 -3.17594 -1.18266 0
M  V30 1521 C 156.086 -4.33682 -0.569073 0
M  V30 1522 C 155.145 -5.03397 -1.53226 0
M  V30 1523 O 154.171 -5.59438 -1.04967 0
M  V30 1524 N 155.373 -5.04783 -2.86661 0
M  V30 1525 H 158.138 -2.93392 0.611636 0
M  V30 1526 H 155.699 -1.54881 0.471523 0
M  V30 1527 H 157.691 -3.61097 -1.82732 0
M  V30 1528 H 156.261 -2.54876 -1.80988 0
M  V30 1529 H 155.481 -3.9338 0.254187 0
M  V30 1530 H 156.769 -5.08608 -0.139767 0
M  V30 1531 H 156.167 -4.60584 -3.28449 0
M  V30 1532 H 154.724 -5.52077 -3.46489 0
M  V30 1533 N 158.157 -0.370918 -1.53173 0
M  V30 1534 C 159.406 0.218249 -2.00516 0
M  V30 1535 C 159.719 1.49429 -1.26215 0
M  V30 1536 O 160.925 2.16239 -1.64174 0
M  V30 1537 C 159.381 0.43948 -3.57207 0
M  V30 1538 C 158.989 -0.822244 -4.4039 0
M  V30 1539 C 160.733 0.986012 -4.1289 0
M  V30 1540 C 158.64 -0.570304 -5.88644 0
M  V30 1541 H 157.57 0.0853333 -0.749156 0
M  V30 1542 H 160.221 -0.490483 -1.76823 0
M  V30 1543 H 158.603 1.20961 -3.77074 0
M  V30 1544 H 159.777 -1.59557 -4.32294 0
M  V30 1545 H 158.092 -1.29238 -3.95836 0
M  V30 1546 H 160.689 1.18991 -5.21292 0
M  V30 1547 H 161.032 1.94972 -3.6782 0
M  V30 1548 H 161.565 0.27592 -3.96842 0
M  V30 1549 H 158.304 -1.50449 -6.38001 0
M  V30 1550 H 157.824 0.164427 -5.99575 0
M  V30 1551 H 159.503 -0.19784 -6.46697 0
M  V30 1552 N 159.635 1.57281 -0.100228 0
M  V30 1553 C 160.883 1.94153 0.561157 0
M  V30 1554 C 161.204 0.983157 1.68401 0
M  V30 1555 O 160.474 0.0361132 1.95867 0
M  V30 1556 H 159.054 0.716791 0.210283 0
M  V30 1557 H 161.716 1.94202 -0.164765 0
M  V30 1558 H 160.812 2.96709 0.968008 0
M  V30 1559 N 161.113 -0.173488 1.56642 0
M  V30 1560 C 162.043 -1.2171 1.99271 0
M  V30 1561 C 163.024 -1.46289 0.867959 0
M  V30 1562 O 164.209 -1.5766 1.13388 0
M  V30 1563 C 161.339 -2.55651 2.35074 0
M  V30 1564 C 160.293 -2.45645 3.50489 0
M  V30 1565 C 159.619 -3.84056 3.72028 0
M  V30 1566 C 160.919 -1.96302 4.84007 0
M  V30 1567 H 162.613 -0.86275 2.867 0
M  V30 1568 H 160.159 -0.413571 1.37933 0
M  V30 1569 H 162.112 -3.2886 2.63494 0
M  V30 1570 H 160.836 -2.92869 1.44552 0
M  V30 1571 H 159.495 -1.7489 3.22194 0
M  V30 1572 H 159.143 -4.18664 2.788 0
M  V30 1573 H 158.843 -3.7823 4.49684 0
M  V30 1574 H 160.367 -4.58854 4.02846 0
M  V30 1575 H 161.781 -2.59284 5.11317 0
M  V30 1576 H 160.178 -2.01429 5.65284 0
M  V30 1577 H 161.248 -0.917226 4.76146 0
M  V30 1578 N 162.591 -1.51276 -0.441967 0
M  V30 1579 C 163.816 -1.67799 -1.21895 0
M  V30 1580 C 164.241 -0.372864 -1.84367 0
M  V30 1581 O 163.599 0.666501 -1.68604 0
M  V30 1582 C 163.647 -2.79199 -2.28211 0
M  V30 1583 O 162.751 -2.42479 -3.33583 0
M  V30 1584 H 162.092 -0.559649 -0.357336 0
M  V30 1585 H 164.622 -1.97815 -0.522522 0
M  V30 1586 H 164.632 -3.03146 -2.73069 0
M  V30 1587 H 163.307 -3.73906 -1.82118 0
M  V30 1588 H 161.884 -2.29087 -2.94234 0
M  V30 1589 N 164.069 0.697108 -1.41344 0
M  V30 1590 C 165.294 1.49096 -1.44171 0
M  V30 1591 C 165.719 1.88038 -0.0481568 0
M  V30 1592 O 165.077 1.54525 0.948243 0
M  V30 1593 C 165.125 2.73088 -2.3549 0
M  V30 1594 O 164.229 3.70514 -1.81088 0
M  V30 1595 H 163.57 0.448801 -0.489361 0
M  V30 1596 H 166.1 0.856992 -1.85787 0
M  V30 1597 H 166.11 3.21413 -2.51312 0
M  V30 1598 H 164.785 2.44081 -3.36745 0
M  V30 1599 H 163.362 3.29441 -1.74708 0
M  V30 1600 N 165.547 1.27147 0.931209 0
M  V30 1601 C 166.479 1.05364 2.03546 0
M  V30 1602 C 167.492 0.0108438 1.62796 0
M  V30 1603 O 168.681 0.25202 1.76712 0
M  V30 1604 C 165.781 0.575566 3.33977 0
M  V30 1605 C 164.954 1.68985 4.03439 0
M  V30 1606 C 164.013 1.20813 5.12143 0
M  V30 1607 O 163.039 1.90712 5.363 0
M  V30 1608 N 164.241 0.0618851 5.80467 0
M  V30 1609 H 167.006 2.00454 2.22796 0
M  V30 1610 H 164.567 1.18666 1.10136 0
M  V30 1611 H 166.559 0.237264 4.04004 0
M  V30 1612 H 165.129 -0.282016 3.11325 0
M  V30 1613 H 164.349 2.19861 3.27192 0
M  V30 1614 H 165.637 2.4378 4.46597 0
M  V30 1615 H 165.035 -0.521621 5.6329 0
M  V30 1616 H 163.592 -0.217264 6.51438 0
M  V30 1617 N 167.025 -1.13721 1.09112 0
M  V30 1618 C 168.441 -1.36914 0.820174 0
M  V30 1619 C 168.641 -1.93356 -0.567079 0
M  V30 1620 O 167.697 -2.15093 -1.32255 0
M  V30 1621 C 169.01 -2.3235 1.90877 0
M  V30 1622 C 170.558 -2.45973 1.93562 0
M  V30 1623 C 171.033 -3.44714 3.01556 0
M  V30 1624 N 172.524 -3.52263 3.00775 0
M  V30 1625 C 173.259 -4.28536 3.80978 0
M  V30 1626 N 172.755 -5.07991 4.71081 0
M  V30 1627 N 174.548 -4.23804 3.69251 0
M  V30 1628 H 166.699 -0.754348 1.98553 0
M  V30 1629 H 168.962 -0.3944 0.862063 0
M  V30 1630 H 168.668 -1.98027 2.90651 0
M  V30 1631 H 168.542 -3.32332 1.78424 0
M  V30 1632 H 170.929 -2.79584 0.944286 0
M  V30 1633 H 171.01 -1.45926 2.10093 0
M  V30 1634 H 170.654 -3.11835 4.00901 0
M  V30 1635 H 170.584 -4.44558 2.82269 0
M  V30 1636 H 173.075 -2.95567 2.35475 0
M  V30 1637 H 173.388 -5.63487 5.28869 0
M  V30 1638 H 171.733 -5.07235 4.75119 0
M  V30 1639 H 174.924 -3.60806 2.98222 0
M  V30 1640 H 175.097 -4.82995 4.31995 0
M  V30 1641 N 168.503 -0.877838 -1.30888 0
M  V30 1642 C 169.435 -0.296607 -2.27273 0
M  V30 1643 C 170.448 0.544799 -1.53414 0
M  V30 1644 O 171.637 0.365511 -1.74718 0
M  V30 1645 C 168.737 0.597481 -3.33592 0
M  V30 1646 C 167.91 -0.213251 -4.3688 0
M  V30 1647 C 166.969 0.610208 -5.2265 0
M  V30 1648 O 165.995 0.035441 -5.69189 0
M  V30 1649 N 167.197 1.92071 -5.47804 0
M  V30 1650 H 169.962 -1.12492 -2.77787 0
M  V30 1651 H 167.523 -0.740105 -1.43993 0
M  V30 1652 H 169.515 1.15425 -3.87891 0
M  V30 1653 H 168.085 1.32647 -2.83061 0
M  V30 1654 H 167.305 -0.951466 -3.82545 0
M  V30 1655 H 168.593 -0.769262 -5.02951 0
M  V30 1656 H 167.991 2.4107 -5.11763 0
M  V30 1657 H 166.548 2.42508 -6.05007 0
M  V30 1658 N 169.982 1.44106 -0.638065 0
M  V30 1659 C 170.912 2.33448 0.0494287 0
M  V30 1660 C 171.893 1.48606 0.827672 0
M  V30 1661 O 173.078 1.77308 0.792173 0
M  V30 1662 C 170.208 3.31771 1.02691 0
M  V30 1663 C 169.162 4.26485 0.359823 0
M  V30 1664 C 168.488 5.14729 1.44769 0
M  V30 1665 C 169.788 5.17056 -0.738296 0
M  V30 1666 H 171.482 2.91183 -0.696636 0
M  V30 1667 H 169.028 1.40014 -0.336456 0
M  V30 1668 H 170.981 3.93161 1.51666 0
M  V30 1669 H 169.705 2.7226 1.80395 0
M  V30 1670 H 168.364 3.66437 -0.10934 0
M  V30 1671 H 168.012 4.51566 2.21578 0
M  V30 1672 H 167.712 5.78913 1.00668 0
M  V30 1673 H 169.236 5.78991 1.93911 0
M  V30 1674 H 170.65 5.72342 -0.331354 0
M  V30 1675 H 169.047 5.89879 -1.10286 0
M  V30 1676 H 170.117 4.57652 -1.60258 0
M  V30 1677 N 171.46 0.379036 1.52974 0
M  V30 1678 C 172.737 -0.263479 1.93817 0
M  V30 1679 C 173.117 -1.65244 1.31368 0
M  V30 1680 O 172.465 -2.23448 0.477856 0
M  V30 1681 C 172.675 -0.300166 3.47707 0
M  V30 1682 C 174.023 -0.534061 4.21228 0
M  V30 1683 O 175.047 -0.38081 3.54159 0
M  V30 1684 O 173.906 -0.833501 5.40106 0
M  V30 1685 H 171 -0.161149 0.811147 0
M  V30 1686 H 173.546 0.432798 1.64088 0
M  V30 1687 H 172.318 0.673138 3.85467 0
M  V30 1688 H 171.941 -1.04179 3.83709 0
M  V30 1689 N 172.938 -1.57226 0.108567 0
M  V30 1690 C 173.848 -2.18292 -0.859401 0
M  V30 1691 C 174.864 -1.15612 -1.30038 0
M  V30 1692 O 176.04 -1.48039 -1.36552 0
M  V30 1693 C 173.105 -2.762 -2.09558 0
M  V30 1694 C 172.166 -3.93881 -1.70752 0
M  V30 1695 C 171.399 -4.49018 -2.88477 0
M  V30 1696 O 171.622 -4.03068 -4.036 0
M  V30 1697 O 170.556 -5.39852 -2.66164 0
M  V30 1698 H 174.382 -3.01441 -0.369769 0
M  V30 1699 H 171.967 -1.48945 -0.1165 0
M  V30 1700 H 173.849 -3.13156 -2.81978 0
M  V30 1701 H 172.524 -1.96089 -2.57548 0
M  V30 1702 H 171.431 -3.61713 -0.954714 0
M  V30 1703 H 172.764 -4.75396 -1.27513 0
M  V30 1704 N 174.416 0.165178 -1.56732 0
M  V30 1705 C 175.346 1.20651 -1.99914 0
M  V30 1706 C 176.327 1.45827 -0.875705 0
M  V30 1707 O 177.512 1.57057 -1.14223 0
M  V30 1708 C 174.642 2.54401 -2.36427 0
M  V30 1709 C 173.596 2.43782 -3.51787 0
M  V30 1710 C 172.922 3.82078 -3.7406 0
M  V30 1711 C 174.222 1.93732 -4.85041 0
M  V30 1712 H 175.916 0.847534 -2.87154 0
M  V30 1713 H 173.462 0.40625 -1.38151 0
M  V30 1714 H 175.415 3.27458 -2.65234 0
M  V30 1715 H 174.139 2.92098 -1.46103 0
M  V30 1716 H 172.798 1.73178 -3.23117 0
M  V30 1717 H 172.446 4.17179 -2.81017 0
M  V30 1718 H 172.146 3.7584 -4.51684 0
M  V30 1719 H 173.67 4.56712 -4.05274 0
M  V30 1720 H 175.084 2.56569 -5.12684 0
M  V30 1721 H 173.481 1.98428 -5.66345 0
M  V30 1722 H 174.551 0.891962 -4.76626 0
M  V30 1723 N 175.894 1.51508 0.433938 0
M  V30 1724 C 176.824 1.76016 1.53429 0
M  V30 1725 C 177.805 0.610112 1.58782 0
M  V30 1726 O 178.99 0.853177 1.74455 0
M  V30 1727 C 176.12 1.88831 2.9148 0
M  V30 1728 C 175.074 3.04288 3.00987 0
M  V30 1729 C 174.4 3.0229 4.4105 0
M  V30 1730 C 175.7 4.44193 2.74754 0
M  V30 1731 H 177.394 2.68152 1.33171 0
M  V30 1732 H 174.94 1.29035 0.639214 0
M  V30 1733 H 176.893 2.04559 3.6842 0
M  V30 1734 H 175.617 0.933455 3.12976 0
M  V30 1735 H 174.276 2.8827 2.26486 0
M  V30 1736 H 173.924 2.04576 4.59519 0
M  V30 1737 H 173.624 3.79822 4.4834 0
M  V30 1738 H 175.148 3.20116 5.1996 0
M  V30 1739 H 176.562 4.60544 3.41426 0
M  V30 1740 H 174.959 5.23457 2.9345 0
M  V30 1741 H 176.029 4.53996 1.70339 0
M  V30 1742 N 177.372 -0.689602 1.41712 0
M  V30 1743 C 178.6 -1.47827 1.44758 0
M  V30 1744 C 179.015 -1.88721 0.0545703 0
M  V30 1745 O 178.372 -1.57176 -0.927463 0
M  V30 1746 C 178.423 -2.73698 2.3616 0
M  V30 1747 O 178.144 -2.34524 3.7004 0
M  V30 1748 C 179.645 -3.67389 2.48072 0
M  V30 1749 H 176.865 -0.455357 0.49284 0
M  V30 1750 H 179.409 -0.848574 1.86063 0
M  V30 1751 H 177.564 -3.32891 1.98148 0
M  V30 1752 H 177.978 -3.15701 4.18847 0
M  V30 1753 H 179.452 -4.52475 3.16181 0
M  V30 1754 H 179.929 -4.12284 1.51388 0
M  V30 1755 H 180.535 -3.14097 2.86746 0
M  V30 1756 N 178.85 -1.27639 -0.924453 0
M  V30 1757 C 179.813 -1.10681 -2.00705 0
M  V30 1758 C 180.813 -0.0497823 -1.60723 0
M  V30 1759 O 182.003 -0.294654 -1.7169 0
M  V30 1760 C 179.135 -0.687164 -3.33902 0
M  V30 1761 H 180.328 -2.06817 -2.17179 0
M  V30 1762 H 177.881 -1.10473 -1.10569 0
M  V30 1763 H 178.616 0.275439 -3.23128 0
M  V30 1764 H 178.401 -1.45061 -3.6428 0
M  V30 1765 H 179.891 -0.590853 -4.13399 0
M  V30 1766 N 180.328 1.1314 -1.09713 0
M  V30 1767 C 181.574 1.84757 -0.836224 0
M  V30 1768 C 181.907 1.8347 0.636598 0
M  V30 1769 O 181.182 1.27491 1.46889 0
M  V30 1770 C 181.465 3.32782 -1.37578 0
M  V30 1771 C 181.318 3.42567 -2.91493 0
M  V30 1772 C 182.637 4.28307 -1.01198 0
M  V30 1773 H 179.756 0.67082 -0.305236 0
M  V30 1774 H 182.398 1.3278 -1.35903 0
M  V30 1775 H 180.548 3.77177 -0.931097 0
M  V30 1776 H 182.22 3.06862 -3.44432 0
M  V30 1777 H 180.463 2.83349 -3.28475 0
M  V30 1778 H 181.134 4.46674 -3.24324 0
M  V30 1779 H 183.61 3.91999 -1.39556 0
M  V30 1780 H 182.486 5.30307 -1.41653 0
M  V30 1781 H 182.747 4.42029 0.0794833 0
M  V30 1782 N 181.806 0.884767 1.30421 0
M  V30 1783 C 183.222 0.57874 1.48737 0
M  V30 1784 C 183.422 -0.883567 1.81095 0
M  V30 1785 O 182.478 -1.6648 1.89844 0
M  V30 1786 C 183.791 1.49171 2.61091 0
M  V30 1787 C 185.339 1.49532 2.74971 0
M  V30 1788 C 185.814 2.39421 3.90438 0
M  V30 1789 N 187.305 2.37383 3.97748 0
M  V30 1790 C 188.04 3.03647 4.86401 0
M  V30 1791 N 187.536 3.79136 5.79852 0
M  V30 1792 N 189.329 2.9288 4.79768 0
M  V30 1793 H 181.48 1.83075 1.0769 0
M  V30 1794 H 183.743 0.783637 0.533495 0
M  V30 1795 H 183.449 2.53291 2.44001 0
M  V30 1796 H 183.323 1.20113 3.57565 0
M  V30 1797 H 185.71 0.46163 2.91467 0
M  V30 1798 H 185.791 1.8262 1.79119 0
M  V30 1799 H 185.435 3.42874 3.74699 0
M  V30 1800 H 185.365 2.03649 4.85628 0
M  V30 1801 H 187.856 1.82525 3.30897 0
M  V30 1802 H 188.169 4.26789 6.4426 0
M  V30 1803 H 186.514 3.83243 5.79784 0
M  V30 1804 H 189.705 2.33433 4.05742 0
M  V30 1805 H 189.878 3.448 5.4865 0
M  V30 1806 N 183.284 -1.43765 0.645699 0
M  V30 1807 C 184.561 -1.9541 0.0862963 0
M  V30 1808 C 184.941 -1.58725 -1.39175 0
M  V30 1809 O 184.289 -0.868581 -2.11348 0
M  V30 1810 C 184.499 -3.47488 0.324565 0
M  V30 1811 C 185.847 -4.24001 0.225497 0
M  V30 1812 O 186.871 -3.55274 0.256715 0
M  V30 1813 O 185.73 -5.46313 0.142801 0
M  V30 1814 H 182.824 -0.826882 -0.0139483 0
M  V30 1815 H 185.37 -1.53743 0.718415 0
M  V30 1816 H 184.142 -3.67289 1.3496 0
M  V30 1817 H 183.765 -3.96135 -0.340987 0
M  V30 1818 N 184.763 -0.387143 -1.52771 0
M  V30 1819 C 185.991 0.195869 -2.05971 0
M  V30 1820 C 186.406 1.40691 -1.25903 0
M  V30 1821 O 185.763 1.79931 -0.305134 0
M  V30 1822 C 185.814 0.56812 -3.57008 0
M  V30 1823 O 185.535 -0.594803 -4.34043 0
M  V30 1824 C 187.036 1.20723 -4.26545 0
M  V30 1825 H 184.256 0.0300578 -0.670326 0
M  V30 1826 H 186.8 -0.551749 -1.96916 0
M  V30 1827 H 184.955 1.26564 -3.66143 0
M  V30 1828 H 185.369 -0.289322 -5.23701 0
M  V30 1829 H 186.843 1.41807 -5.33474 0
M  V30 1830 H 187.32 2.17395 -3.81623 0
M  V30 1831 H 187.926 0.550535 -4.21722 0
M  V30 1832 N 186.241 1.57166 -0.116904 0
M  V30 1833 C 187.489 1.94737 0.540533 0
M  V30 1834 C 187.81 1.00096 1.67349 0
M  V30 1835 O 187.08 0.0568854 1.95817 0
M  V30 1836 H 185.66 0.718981 0.202669 0
M  V30 1837 H 188.322 1.94017 -0.185353 0
M  V30 1838 H 187.418 2.97719 0.936483 0
M  V30 1839 N 187.719 -0.156864 1.56817 0
M  V30 1840 C 189.135 -0.50916 1.5126 0
M  V30 1841 C 189.335 -1.83897 0.823658 0
M  V30 1842 O 188.391 -2.49469 0.390055 0
M  V30 1843 C 189.704 -0.52857 2.96018 0
M  V30 1844 C 191.252 -0.614771 3.06903 0
M  V30 1845 C 191.727 -0.664938 4.53147 0
M  V30 1846 N 193.218 -0.727433 4.57452 0
M  V30 1847 C 193.953 -0.787067 5.67973 0
M  V30 1848 N 193.449 -0.806649 6.88088 0
M  V30 1849 N 195.242 -0.827195 5.5598 0
M  V30 1850 H 187.393 0.714935 2.00006 0
M  V30 1851 H 189.656 0.259526 0.911784 0
M  V30 1852 H 189.362 0.380154 3.49639 0
M  V30 1853 H 189.236 -1.36998 3.51442 0
M  V30 1854 H 191.623 -1.51392 2.53307 0
M  V30 1855 H 191.704 0.253597 2.5454 0
M  V30 1856 H 191.348 0.230011 5.07379 0
M  V30 1857 H 191.278 -1.54966 5.03282 0
M  V30 1858 H 193.769 -0.719998 3.70978 0
M  V30 1859 H 194.082 -0.853727 7.6807 0
M  V30 1860 H 192.427 -0.774687 6.90669 0
M  V30 1861 H 195.618 -0.808998 4.61056 0
M  V30 1862 H 195.791 -0.870206 6.4213 0
M  V30 1863 N 189.197 -1.51736 -0.425897 0
M  V30 1864 C 190.425 -1.68794 -1.1965 0
M  V30 1865 C 190.84 -0.390164 -1.84725 0
M  V30 1866 O 190.197 0.632376 -1.71194 0
M  V30 1867 C 190.248 -2.81174 -2.27208 0
M  V30 1868 O 189.969 -4.05925 -1.64793 0
M  V30 1869 C 191.47 -3.09599 -3.17275 0
M  V30 1870 H 188.69 -0.566128 -0.360194 0
M  V30 1871 H 191.234 -1.98211 -0.503249 0
M  V30 1872 H 189.389 -2.54324 -2.9223 0
M  V30 1873 H 189.803 -4.68423 -2.35967 0
M  V30 1874 H 191.277 -3.91786 -3.88854 0
M  V30 1875 H 191.754 -2.22468 -3.78688 0
M  V30 1876 H 192.36 -3.38151 -2.57941 0
M  V30 1877 N 190.675 0.682077 -1.42076 0
M  V30 1878 C 191.638 1.77756 -1.44691 0
M  V30 1879 C 192.638 1.5726 -0.335535 0
M  V30 1880 O 193.828 1.63686 -0.596037 0
M  V30 1881 C 190.96 3.16301 -1.27146 0
M  V30 1882 H 192.153 1.76826 -2.42224 0
M  V30 1883 H 189.706 0.891012 -1.28416 0
M  V30 1884 H 190.441 3.22862 -0.305075 0
M  V30 1885 H 190.226 3.32581 -2.07683 0
M  V30 1886 H 191.716 3.96241 -1.31843 0
M  V30 1887 N 192.153 1.28127 0.917671 0
M  V30 1888 C 193.381 1.17892 1.70026 0
M  V30 1889 C 193.796 -0.262958 1.8696 0
M  V30 1890 O 193.153 -1.17811 1.3938 0
M  V30 1891 C 193.204 1.86872 3.09453 0
M  V30 1892 O 192.925 3.25428 2.93306 0
M  V30 1893 C 194.426 1.8289 4.03815 0
M  V30 1894 H 191.646 0.40942 0.531617 0
M  V30 1895 H 194.19 1.69181 1.14883 0
M  V30 1896 H 192.345 1.39464 3.61426 0
M  V30 1897 H 192.759 3.59918 3.81523 0
M  V30 1898 H 194.233 2.35751 4.99125 0
M  V30 1899 H 194.71 0.800412 4.31845 0
M  V30 1900 H 195.316 2.29959 3.57769 0
M  V30 1901 N 193.631 -1.12557 1.10312 0
M  V30 1902 C 194.877 -1.84311 0.846011 0
M  V30 1903 C 195.21 -1.83805 -0.626859 0
M  V30 1904 O 194.485 -1.28268 -1.46211 0
M  V30 1905 C 194.768 -3.32048 1.39341 0
M  V30 1906 C 194.621 -3.41016 2.93305 0
M  V30 1907 C 195.94 -4.27764 1.03468 0
M  V30 1908 H 193.059 -0.669192 0.30879 0
M  V30 1909 H 195.701 -1.32057 1.36605 0
M  V30 1910 H 193.851 -3.76678 0.951087 0
M  V30 1911 H 195.523 -3.05031 3.46055 0
M  V30 1912 H 193.766 -2.81603 3.29973 0
M  V30 1913 H 194.437 -4.44948 3.26689 0
M  V30 1914 H 196.913 -3.91253 1.41633 0
M  V30 1915 H 195.789 -5.29549 1.44463 0
M  V30 1916 H 196.05 -4.42064 -0.0560404 0
M  V30 1917 N 195.109 -0.891671 -1.2995 0
M  V30 1918 C 196.337 -0.52866 -2.00032 0
M  V30 1919 C 196.752 0.884574 -1.66795 0
M  V30 1920 O 196.109 1.5827 -0.908669 0
M  V30 1921 C 196.16 -0.701814 -3.54622 0
M  V30 1922 O 195.881 -2.05942 -3.86678 0
M  V30 1923 C 197.382 -0.342683 -4.41973 0
M  V30 1924 H 194.602 -0.203659 -0.639347 0
M  V30 1925 H 197.146 -1.19881 -1.65677 0
M  V30 1926 H 195.301 -0.0789468 -3.8732 0
M  V30 1927 H 195.715 -2.08291 -4.81368 0
M  V30 1928 H 197.189 -0.514709 -5.49595 0
M  V30 1929 H 197.666 0.71975 -4.33262 0
M  V30 1930 H 198.272 -0.942154 -4.14733 0
M  V30 1931 N 196.587 1.43421 -0.653314 0
M  V30 1932 C 197.833 2.02111 -0.166992 0
M  V30 1933 C 198.166 1.51423 1.21592 0
M  V30 1934 O 197.441 0.707389 1.8118 0
M  V30 1935 C 197.724 3.5966 -0.177948 0
M  V30 1936 C 197.577 4.20579 -1.59478 0
M  V30 1937 C 198.896 4.37413 0.4856 0
M  V30 1938 H 196.015 0.734374 -0.0621557 0
M  V30 1939 H 198.657 1.70717 -0.834016 0
M  V30 1940 H 196.807 3.86537 0.390032 0
M  V30 1941 H 198.479 4.04732 -2.21336 0
M  V30 1942 H 196.722 3.77226 -2.14204 0
M  V30 1943 H 197.393 5.29665 -1.5543 0
M  V30 1944 H 199.869 4.161 0.00234528 0
M  V30 1945 H 198.745 5.47075 0.447207 0
M  V30 1946 H 199.006 4.13672 1.55974 0
M  V30 1947 N 198.065 0.39524 1.52563 0
M  V30 1948 C 199.012 -0.437036 2.26624 0
M  V30 1949 C 199.982 -1.05281 1.28472 0
M  V30 1950 O 201.167 -1.07971 1.57311 0
M  V30 1951 C 198.307 -1.55524 3.08069 0
M  V30 1952 C 197.42 -0.961745 4.21158 0
M  V30 1953 C 196.555 -2.05149 4.89987 0
M  V30 1954 C 195.594 -1.4342 5.95061 0
M  V30 1955 N 194.731 -2.46351 6.57462 0
M  V30 1956 H 199.571 0.200976 2.97322 0
M  V30 1957 H 197.108 0.110944 1.46681 0
M  V30 1958 H 199.066 -2.21437 3.53584 0
M  V30 1959 H 197.696 -2.16348 2.3957 0
M  V30 1960 H 196.748 -0.192048 3.79915 0
M  V30 1961 H 198.06 -0.470701 4.96574 0
M  V30 1962 H 197.214 -2.78819 5.38837 0
M  V30 1963 H 195.953 -2.57615 4.14109 0
M  V30 1964 H 194.958 -0.682774 5.45544 0
M  V30 1965 H 196.183 -0.917416 6.72875 0
M  V30 1966 H 194.129 -2.97975 5.8442 0
M  V30 1967 H 194.046 -2.02019 7.28508 0
M  V30 1968 H 195.314 -3.19633 7.10954 0
M  V30 1969 N 199.544 -1.57102 0.125237 0
M  V30 1970 C 200.79 -1.95697 -0.532035 0
M  V30 1971 C 201.123 -1.009 -1.6593 0
M  V30 1972 O 200.398 -0.047347 -1.94442 0
M  V30 1973 C 200.681 -3.44181 -1.05884 0
M  V30 1974 C 200.534 -4.49752 0.0654392 0
M  V30 1975 C 201.853 -3.94655 -1.9477 0
M  V30 1976 H 198.972 -0.711571 -0.191925 0
M  V30 1977 H 201.614 -1.88923 0.20206 0
M  V30 1978 H 199.764 -3.50085 -1.68442 0
M  V30 1979 H 201.436 -4.55943 0.700982 0
M  V30 1980 H 199.679 -4.27653 0.727709 0
M  V30 1981 H 200.35 -5.50924 -0.344505 0
M  V30 1982 H 202.826 -3.91094 -1.42074 0
M  V30 1983 H 201.702 -4.99057 -2.28546 0
M  V30 1984 H 201.963 -3.35718 -2.87656 0
M  V30 1985 N 201.022 0.148545 -1.56898 0
M  V30 1986 C 202.299 0.890019 -1.74178 0
M  V30 1987 C 202.679 1.99407 -0.692839 0
M  V30 1988 O 202.027 2.26671 0.288505 0
M  V30 1989 C 202.237 1.43389 -3.18183 0
M  V30 1990 C 203.585 1.89791 -3.79822 0
M  V30 1991 O 204.609 1.53134 -3.21603 0
M  V30 1992 O 203.468 2.57387 -4.82093 0
M  V30 1993 H 200.562 0.420496 -0.712118 0
M  V30 1994 H 203.108 0.134591 -1.69165 0
M  V30 1995 H 201.88 0.640383 -3.86024 0
M  V30 1996 H 201.503 2.25287 -3.27615 0
M  V30 1997 N 202.5 1.5196 0.417844 0
M  V30 1998 C 203.728 1.69426 1.18753 0
M  V30 1999 C 204.143 0.399955 1.84515 0
M  V30 2000 O 203.5 -0.623288 1.71527 0
M  V30 2001 C 203.551 2.82375 2.25714 0
M  V30 2002 O 203.272 4.06793 1.62638 0
M  V30 2003 C 204.773 3.11277 3.15628 0
M  V30 2004 H 201.993 0.568031 0.357186 0
M  V30 2005 H 204.537 1.98475 0.49273 0
M  V30 2006 H 202.692 2.5587 2.90877 0
M  V30 2007 H 203.106 4.69667 2.3348 0
M  V30 2008 H 204.58 3.93843 3.86771 0
M  V30 2009 H 205.057 2.24473 3.77503 0
M  V30 2010 H 205.663 3.39515 2.56144 0
M  V30 2011 N 203.978 -0.674533 1.42435 0
M  V30 2012 C 205.226 -1.43175 1.42637 0
M  V30 2013 C 205.547 -1.94951 0.0438992 0
M  V30 2014 O 204.817 -1.7308 -0.917607 0
M  V30 2015 H 203.397 -0.531307 0.525092 0
M  V30 2016 H 206.059 -0.797006 1.77859 0
M  V30 2017 H 205.155 -2.28463 2.12629 0
M  V30 2018 N 205.456 -1.28612 -0.910864 0
M  V30 2019 C 206.386 -1.15326 -2.03032 0
M  V30 2020 C 207.367 -0.0502924 -1.70026 0
M  V30 2021 O 208.552 -0.227797 -1.92859 0
M  V30 2022 C 205.682 -0.817343 -3.37545 0
M  V30 2023 C 204.636 -1.8754 -3.84724 0
M  V30 2024 C 203.962 -1.39305 -5.16235 0
M  V30 2025 C 205.262 -3.28244 -4.06267 0
M  V30 2026 H 206.956 -2.08975 -2.14406 0
M  V30 2027 H 204.502 -1.00612 -1.03021 0
M  V30 2028 H 206.455 -0.711151 -4.15356 0
M  V30 2029 H 205.179 0.154846 -3.26233 0
M  V30 2030 H 203.838 -1.97079 -3.09121 0
M  V30 2031 H 203.486 -0.409846 -5.01328 0
M  V30 2032 H 203.186 -2.10057 -5.48771 0
M  V30 2033 H 204.71 -1.30014 -5.96598 0
M  V30 2034 H 206.124 -3.21611 -4.74594 0
M  V30 2035 H 204.521 -3.96855 -4.5014 0
M  V30 2036 H 205.591 -3.72048 -3.10979 0
M  V30 2037 N 206.934 1.1197 -1.10907 0
M  V30 2038 C 207.882 2.19927 -0.757303 0
M  V30 2039 C 208.876 1.67564 0.248747 0
M  V30 2040 O 210.082 1.79672 0.108605 0
M  V30 2041 H 206.457 0.716925 -0.226987 0
M  V30 2042 H 208.428 2.46847 -1.67658 0
M  V30 2043 C 207.177 3.47061 -0.210671 0
M  V30 2044 H 206.5 3.87703 -0.976049 0
M  V30 2045 H 207.94 4.24 -0.0026584 0
M  V30 2046 C 206.399 3.19864 1.05777 0
M  V30 2047 O 206.929 3.40049 2.13845 0
M  V30 2048 N 205.135 2.73636 0.978349 0
M  V30 2049 H 204.682 2.5741 0.0988246 0
M  V30 2050 H 204.64 2.55815 1.82773 0
M  V30 2051 N 208.412 0.89855 1.29475 0
M  V30 2052 C 209.828 0.594483 1.48115 0
M  V30 2053 C 210.028 -0.86431 1.82022 0
M  V30 2054 O 209.084 -1.64457 1.91599 0
M  V30 2055 C 210.397 1.51932 2.59494 0
M  V30 2056 C 211.945 1.5244 2.7337 0
M  V30 2057 C 212.42 2.43548 3.87877 0
M  V30 2058 N 213.911 2.41589 3.95208 0
M  V30 2059 C 214.646 3.08789 4.83153 0
M  V30 2060 N 214.142 3.85265 5.75798 0
M  V30 2061 N 215.935 2.97952 4.76635 0
M  V30 2062 H 208.086 1.84207 1.05742 0
M  V30 2063 H 210.349 0.789251 0.525154 0
M  V30 2064 H 210.055 2.55865 2.41301 0
M  V30 2065 H 209.929 1.23899 3.56271 0
M  V30 2066 H 212.316 0.492518 2.90961 0
M  V30 2067 H 212.397 1.8451 1.77172 0
M  V30 2068 H 212.041 3.46829 3.71041 0
M  V30 2069 H 211.971 2.08788 4.83441 0
M  V30 2070 H 214.462 1.86025 3.28943 0
M  V30 2071 H 214.775 4.33598 6.39697 0
M  V30 2072 H 213.12 3.89371 5.75687 0
M  V30 2073 H 216.311 2.37723 4.03244 0
M  V30 2074 H 216.484 3.50599 5.44962 0
M  V30 2075 N 209.89 -1.43072 0.660911 0
M  V30 2076 C 210.838 -2.32569 -0.0378199 0
M  V30 2077 C 211.832 -1.49046 -0.805092 0
M  V30 2078 O 213.038 -1.65206 -0.714624 0
M  V30 2079 H 209.413 -0.75136 -0.031019 0
M  V30 2080 H 211.384 -2.89216 0.734609 0
M  V30 2081 C 210.133 -3.33453 -0.985124 0
M  V30 2082 H 209.456 -3.97752 -0.404147 0
M  V30 2083 H 210.896 -3.98691 -1.44297 0
M  V30 2084 C 209.355 -2.64642 -2.08486 0
M  V30 2085 O 209.885 -2.46776 -3.16961 0
M  V30 2086 N 208.091 -2.23891 -1.8526 0
M  V30 2087 H 207.638 -2.38621 -0.970449 0
M  V30 2088 H 207.596 -1.78181 -2.59034 0
M  V30 2089 N 211.368 -0.403325 -1.52352 0
M  V30 2090 C 212.616 0.174003 -2.0135 0
M  V30 2091 C 212.937 1.46139 -1.29106 0
M  V30 2092 O 212.207 1.91448 -0.415253 0
M  V30 2093 H 210.787 0.0672911 -0.743963 0
M  V30 2094 H 213.449 -0.538235 -1.87321 0
M  V30 2095 H 212.545 0.374254 -3.09848 0
M  V30 2096 N 212.846 1.57033 -0.133567 0
M  V30 2097 C 214.092 1.95976 0.521649 0
M  V30 2098 C 214.425 1.01779 1.65393 0
M  V30 2099 O 213.7 0.0576581 1.94415 0
M  V30 2100 C 213.983 3.44738 1.04057 0
M  V30 2101 C 213.836 4.49711 -0.0892897 0
M  V30 2102 C 215.155 3.95682 1.92675 0
M  V30 2103 H 212.274 0.712579 0.188149 0
M  V30 2104 H 214.916 1.88813 -0.212076 0
M  V30 2105 H 213.066 3.50973 1.66583 0
M  V30 2106 H 214.738 4.55565 -0.725152 0
M  V30 2107 H 212.981 4.27261 -0.750378 0
M  V30 2108 H 213.652 5.51099 0.315284 0
M  V30 2109 H 216.128 3.91841 1.39998 0
M  V30 2110 H 215.004 5.00262 2.25897 0
M  V30 2111 H 215.265 3.37239 2.85872 0
M  V30 2112 N 214.325 -0.140222 1.56975 0
M  V30 2113 C 215.736 -0.699596 1.73097 0
M  V30 2114 C 216.087 -1.8134 0.749022 0
M  V30 2115 O 215.212 -2.16241 -0.0828503 0
M  V30 2116 C 215.807 -1.27582 3.1386 0
M  V30 2117 C 214.366 -1.78169 3.31561 0
M  V30 2118 C 213.513 -0.672855 2.69013 0
M  V30 2119 H 216.464 0.0855115 1.58469 0
M  V30 2120 H 216.485 -2.14561 3.14235 0
M  V30 2121 H 215.997 -0.464955 3.85305 0
M  V30 2122 H 214.098 -2.61801 2.65124 0
M  V30 2123 H 214.211 -1.90574 4.39566 0
M  V30 2124 H 212.575 -1.10118 2.29665 0
M  V30 2125 H 213.358 0.126679 3.43066 0
M  V30 2126 N 215.803 -1.52179 -0.40978 0
M  V30 2127 C 217.214 -1.58377 -0.988615 0
M  V30 2128 C 217.565 -0.423879 -1.91566 0
M  V30 2129 O 216.69 0.455844 -2.11544 0
M  V30 2130 C 217.285 -2.87044 -1.79976 0
M  V30 2131 C 215.844 -2.95722 -2.32863 0
M  V30 2132 C 214.991 -2.53309 -1.12828 0
M  V30 2133 H 217.942 -1.57558 -0.190039 0
M  V30 2134 H 217.963 -2.7236 -2.65707 0
M  V30 2135 H 217.475 -3.71444 -1.12478 0
M  V30 2136 H 215.576 -2.15814 -3.03735 0
M  V30 2137 H 215.689 -3.99951 -2.63773 0
M  V30 2138 H 214.053 -2.07142 -1.48204 0
M  V30 2139 H 214.836 -3.40082 -0.46897 0
M  V30 2140 N 217.281 0.66697 -1.42791 0
M  V30 2141 C 218.244 1.76211 -1.46568 0
M  V30 2142 C 219.244 1.56896 -0.352196 0
M  V30 2143 O 220.434 1.63044 -0.613364 0
M  V30 2144 C 217.566 3.14935 -1.30494 0
M  V30 2145 H 218.759 1.74247 -2.44086 0
M  V30 2146 H 216.312 0.877342 -1.29354 0
M  V30 2147 H 217.047 3.2252 -0.339301 0
M  V30 2148 H 216.832 3.30359 -2.11199 0
M  V30 2149 H 218.322 3.94821 -1.36038 0
M  V30 2150 N 218.759 1.29093 0.90403 0
M  V30 2151 C 219.691 1.09658 2.01266 0
M  V30 2152 C 220.704 0.0453729 1.62737 0
M  V30 2153 O 221.893 0.289446 1.76138 0
M  V30 2154 C 218.993 0.646278 3.32681 0
M  V30 2155 C 218.166 1.77505 3.99763 0
M  V30 2156 C 217.225 1.31649 5.09465 0
M  V30 2157 O 216.251 2.02045 5.32134 0
M  V30 2158 N 217.453 0.184997 5.80205 0
M  V30 2159 H 220.218 2.05135 2.18494 0
M  V30 2160 H 217.779 1.20975 1.07594 0
M  V30 2161 H 219.771 0.322906 4.0341 0
M  V30 2162 H 218.341 -0.215916 3.11853 0
M  V30 2163 H 217.561 2.26752 3.22455 0
M  V30 2164 H 218.849 2.53198 4.41325 0
M  V30 2165 H 218.247 -0.402021 5.6427 0
M  V30 2166 H 216.804 -0.0790358 6.51752 0
M  V30 2167 N 220.237 -1.11381 1.11499 0
M  V30 2168 C 221.467 -1.86663 0.885464 0
M  V30 2169 C 221.875 -1.80464 -0.568281 0
M  V30 2170 O 221.218 -1.18445 -1.40415 0
M  V30 2171 C 221.28 -3.36337 1.26956 0
M  V30 2172 C 220.944 -3.66304 2.73259 0
M  V30 2173 C 221.941 -3.63733 3.71476 0
M  V30 2174 C 219.626 -3.9529 3.09921 0
M  V30 2175 C 221.62 -3.89725 5.04374 0
M  V30 2176 C 219.307 -4.20941 4.43004 0
M  V30 2177 C 220.305 -4.18147 5.40039 0
M  V30 2178 O 219.993 -4.43153 6.70724 0
M  V30 2179 H 219.725 -0.597114 0.316908 0
M  V30 2180 H 222.279 -1.41782 1.48617 0
M  V30 2181 H 220.509 -3.81826 0.611999 0
M  V30 2182 H 222.198 -3.92986 1.01573 0
M  V30 2183 H 222.964 -3.41389 3.44498 0
M  V30 2184 H 218.843 -3.966 2.35009 0
M  V30 2185 H 222.387 -3.8746 5.80104 0
M  V30 2186 H 218.284 -4.42761 4.69716 0
M  V30 2187 H 219.052 -4.60717 6.76522 0
M  V30 2188 N 221.715 -0.905404 -1.28997 0
M  V30 2189 C 223.126 -0.581953 -1.77398 0
M  V30 2190 C 223.477 0.902552 -1.74208 0
M  V30 2191 O 222.602 1.70584 -1.33154 0
M  V30 2192 C 223.197 -1.04961 -3.22131 0
M  V30 2193 C 221.756 -0.777229 -3.68288 0
M  V30 2194 C 220.903 -1.22109 -2.48967 0
M  V30 2195 H 223.854 -1.08754 -1.15578 0
M  V30 2196 H 223.875 -0.387387 -3.78523 0
M  V30 2197 H 223.387 -2.13008 -3.24421 0
M  V30 2198 H 221.488 0.290383 -3.71467 0
M  V30 2199 H 221.601 -1.37911 -4.58822 0
M  V30 2200 H 219.965 -0.639971 -2.46529 0
M  V30 2201 H 220.748 -2.30972 -2.53982 0
M  V30 2202 N 223.193 1.4272 -0.668489 0
M  V30 2203 C 224.418 2.06484 -0.194758 0
M  V30 2204 C 224.843 1.49862 1.13679 0
M  V30 2205 O 224.201 0.614582 1.70565 0
M  V30 2206 C 224.249 3.60353 -0.133546 0
M  V30 2207 O 223.353 4.02464 0.899806 0
M  V30 2208 H 222.694 0.656137 -0.10188 0
M  V30 2209 H 225.224 1.82964 -0.915722 0
M  V30 2210 H 225.234 4.07976 0.0447041 0
M  V30 2211 H 223.909 4.00938 -1.1055 0
M  V30 2212 H 222.486 3.66402 0.693109 0
M  V30 2213 N 224.671 0.411399 1.52136 0
M  V30 2214 C 225.604 -0.457614 2.23565 0
M  V30 2215 C 226.582 -1.04613 1.24478 0
M  V30 2216 O 227.766 -1.09356 1.53536 0
M  V30 2217 C 224.893 -1.6354 2.96602 0
M  V30 2218 C 223.939 -1.17005 4.10137 0
M  V30 2219 S 224.772 -0.13333 5.35334 0
M  V30 2220 C 225.928 -1.31638 6.119 0
M  V30 2221 H 226.161 0.148883 2.96927 0
M  V30 2222 H 223.694 0.195713 1.53155 0
M  V30 2223 H 225.652 -2.31074 3.39286 0
M  V30 2224 H 224.313 -2.21324 2.22878 0
M  V30 2225 H 223.506 -2.05005 4.60422 0
M  V30 2226 H 223.108 -0.573319 3.6958 0
M  V30 2227 H 225.4 -2.23957 6.39413 0
M  V30 2228 H 226.343 -0.854014 7.02931 0
M  V30 2229 H 226.751 -1.54321 5.42997 0
M  V30 2230 N 226.149 -1.5696 0.141893 0
M  V30 2231 C 227.079 -2.19516 -0.795936 0
M  V30 2232 C 228.06 -1.14187 -1.26077 0
M  V30 2233 O 229.245 -1.42511 -1.31925 0
M  V30 2234 C 226.375 -2.81272 -2.03723 0
M  V30 2235 C 225.329 -3.92384 -1.70936 0
M  V30 2236 C 224.655 -4.41052 -3.02287 0
M  V30 2237 C 225.955 -5.13403 -0.959954 0
M  V30 2238 H 227.649 -2.98138 -0.274596 0
M  V30 2239 H 225.195 -1.43406 -0.130636 0
M  V30 2240 H 227.148 -3.237 -2.69808 0
M  V30 2241 H 225.872 -1.99973 -2.58221 0
M  V30 2242 H 224.531 -3.50566 -1.07232 0
M  V30 2243 H 224.179 -3.56582 -3.54765 0
M  V30 2244 H 223.879 -5.15993 -2.81114 0
M  V30 2245 H 225.403 -4.86146 -3.69451 0
M  V30 2246 H 226.817 -5.52706 -1.52279 0
M  V30 2247 H 225.214 -5.94073 -0.848357 0
M  V30 2248 H 226.284 -4.84875 0.0492434 0
M  V30 2249 N 227.627 0.131896 -1.57047 0
M  V30 2250 C 228.855 0.856461 -1.88341 0
M  V30 2251 C 229.27 1.74042 -0.731757 0
M  V30 2252 O 228.627 1.80051 0.297945 0
M  V30 2253 C 228.678 1.70064 -3.18999 0
M  V30 2254 O 228.399 0.852278 -4.2973 0
M  V30 2255 C 229.9 2.53148 -3.63911 0
M  V30 2256 H 227.12 0.246885 -0.62393 0
M  V30 2257 H 229.664 0.120152 -2.04147 0
M  V30 2258 H 227.819 2.38984 -3.04902 0
M  V30 2259 H 228.233 1.43329 -5.04537 0
M  V30 2260 H 229.707 3.07931 -4.58129 0
M  V30 2261 H 230.184 3.29901 -2.89935 0
M  V30 2262 H 230.79 1.89492 -3.80753 0
M  V30 2263 N 229.106 1.52395 0.401703 0
M  V30 2264 C 230.069 1.75636 1.47257 0
M  V30 2265 C 231.069 0.62628 1.48103 0
M  V30 2266 O 232.259 0.894227 1.49497 0
M  V30 2267 C 229.391 1.84553 2.86624 0
M  V30 2268 H 230.584 2.71241 1.27938 0
M  V30 2269 H 228.137 1.42923 0.632662 0
M  V30 2270 H 228.872 0.908882 3.11303 0
M  V30 2271 H 228.657 2.66715 2.87412 0
M  V30 2272 H 230.147 2.04251 3.64241 0
M  V30 2273 N 230.584 -0.659388 1.43143 0
M  V30 2274 C 231.514 -1.78422 1.50625 0
M  V30 2275 C 232.495 -1.66216 0.361443 0
M  V30 2276 O 233.68 -1.85404 0.577834 0
M  V30 2277 C 230.81 -3.16815 1.42287 0
M  V30 2278 C 229.764 -3.43777 2.54954 0
M  V30 2279 C 229.09 -4.81905 2.31671 0
M  V30 2280 C 230.39 -3.39134 3.97222 0
M  V30 2281 H 232.084 -1.72417 2.44771 0
M  V30 2282 H 229.63 -0.828084 1.17808 0
M  V30 2283 H 231.583 -3.95253 1.46127 0
M  V30 2284 H 230.307 -3.23534 0.446435 0
M  V30 2285 H 228.966 -2.67707 2.50457 0
M  V30 2286 H 228.614 -4.85294 1.32284 0
M  V30 2287 H 228.314 -5.00906 3.07192 0
M  V30 2288 H 229.838 -5.62609 2.37284 0
M  V30 2289 H 231.252 -4.07518 4.03239 0
M  V30 2290 H 229.649 -3.69671 4.72719 0
M  V30 2291 H 230.719 -2.37426 4.22797 0
M  V30 2292 N 232.062 -1.29571 -0.897171 0
M  V30 2293 C 233.478 -1.07637 -1.17841 0
M  V30 2294 C 233.678 0.170713 -2.00776 0
M  V30 2295 O 232.734 0.867768 -2.3712 0
M  V30 2296 C 234.047 -2.3332 -1.8969 0
M  V30 2297 C 235.595 -2.38664 -2.02505 0
M  V30 2298 C 236.07 -3.64157 -2.77765 0
M  V30 2299 N 237.561 -3.64894 -2.85318 0
M  V30 2300 C 238.296 -4.58679 -3.44094 0
M  V30 2301 N 237.792 -5.62799 -4.04017 0
M  V30 2302 N 239.585 -4.46245 -3.41793 0
M  V30 2303 H 231.736 -2.09598 -0.343883 0
M  V30 2304 H 233.999 -0.923333 -0.214848 0
M  V30 2305 H 233.705 -3.24262 -1.36187 0
M  V30 2306 H 233.579 -2.41025 -2.9015 0
M  V30 2307 H 235.966 -1.48208 -2.55183 0
M  V30 2308 H 236.047 -2.34943 -1.01171 0
M  V30 2309 H 235.691 -4.54965 -2.25763 0
M  V30 2310 H 235.621 -3.65137 -3.7945 0
M  V30 2311 H 238.112 -2.89613 -2.42761 0
M  V30 2312 H 238.425 -6.3048 -4.46895 0
M  V30 2313 H 236.77 -5.66605 -4.02472 0
M  V30 2314 H 239.961 -3.64094 -2.94199 0
M  V30 2315 H 240.134 -5.19518 -3.87304 0
M  V30 2316 N 233.54 1.10788 -1.12088 0
M  V30 2317 C 234.956 1.34691 -0.856186 0
M  V30 2318 C 235.156 1.94791 0.515615 0
M  V30 2319 O 234.212 2.18524 1.26505 0
M  V30 2320 C 235.525 2.27208 -1.9697 0
M  V30 2321 C 237.073 2.40755 -2.00016 0
M  V30 2322 C 237.548 3.36598 -3.1059 0
M  V30 2323 N 239.039 3.44164 -3.10008 0
M  V30 2324 C 239.774 4.18284 -3.92206 0
M  V30 2325 N 239.27 4.95322 -4.84384 0
M  V30 2326 N 241.063 4.13865 -3.80357 0
M  V30 2327 H 233.214 0.70144 -2.00483 0
M  V30 2328 H 235.477 0.371405 -0.872217 0
M  V30 2329 H 235.183 1.90251 -2.958 0
M  V30 2330 H 235.057 3.27485 -1.87172 0
M  V30 2331 H 237.444 2.76982 -1.01808 0
M  V30 2332 H 237.525 1.40305 -2.13888 0
M  V30 2333 H 237.169 3.01096 -4.09028 0
M  V30 2334 H 237.099 4.36918 -2.93956 0
M  V30 2335 H 239.59 2.8922 -2.43228 0
M  V30 2336 H 239.903 5.49267 -5.43623 0
M  V30 2337 H 238.248 4.94459 -4.884 0
M  V30 2338 H 241.439 3.52773 -3.07683 0
M  V30 2339 H 241.612 4.71372 -4.44649 0
M  V30 2340 N 235.018 0.912232 1.28515 0
M  V30 2341 C 235.981 0.404223 2.25607 0
M  V30 2342 C 236.981 -0.468602 1.53821 0
M  V30 2343 O 238.171 -0.271873 1.72065 0
M  V30 2344 C 235.303 -0.420653 3.38295 0
M  V30 2345 H 236.496 1.26188 2.7206 0
M  V30 2346 H 234.049 0.691495 1.40171 0
M  V30 2347 H 234.784 -1.29777 2.97201 0
M  V30 2348 H 234.569 0.204935 3.91564 0
M  V30 2349 H 236.059 -0.766971 4.10496 0
M  V30 2350 N 236.496 -1.42363 0.676048 0
M  V30 2351 C 237.742 -2.0182 0.199125 0
M  V30 2352 C 238.075 -1.53339 -1.19168 0
M  V30 2353 O 237.35 -0.736124 -1.80032 0
M  V30 2354 C 237.633 -3.59331 0.235144 0
M  V30 2355 C 237.486 -4.17989 1.66149 0
M  V30 2356 C 238.805 -4.3813 -0.41595 0
M  V30 2357 H 235.924 -0.733293 0.0738311 0
M  V30 2358 H 238.566 -1.69368 0.86107 0
M  V30 2359 H 236.716 -3.87109 -0.328487 0
M  V30 2360 H 238.388 -4.0116 2.27747 0
M  V30 2361 H 236.631 -3.7377 2.20178 0
M  V30 2362 H 237.302 -5.27126 1.63837 0
M  V30 2363 H 239.778 -4.16051 0.0638529 0
M  V30 2364 H 238.654 -5.47717 -0.360115 0
M  V30 2365 H 238.915 -4.16101 -1.49373 0
M  V30 2366 N 237.974 -0.419461 -1.51915 0
M  V30 2367 C 238.937 0.389116 -2.25873 0
M  V30 2368 C 239.937 0.964924 -1.28631 0
M  V30 2369 O 241.127 0.842179 -1.52489 0
M  V30 2370 C 238.259 1.54874 -3.03689 0
M  V30 2371 H 239.452 -0.258799 -2.98781 0
M  V30 2372 H 237.005 -0.172209 -1.55348 0
M  V30 2373 H 237.74 2.23323 -2.35154 0
M  V30 2374 H 237.525 1.14223 -3.75094 0
M  V30 2375 H 239.015 2.12046 -3.59759 0
M  V30 2376 N 239.452 1.56882 -0.150215 0
M  V30 2377 C 240.362 2.20494 0.801222 0
M  V30 2378 C 241.378 1.19019 1.26927 0
M  V30 2379 O 242.554 1.51607 1.32579 0
M  V30 2380 C 239.619 2.81659 2.02161 0
M  V30 2381 C 238.68 3.9827 1.60249 0
M  V30 2382 C 237.913 4.56508 2.7647 0
M  V30 2383 O 238.136 4.13627 3.92771 0
M  V30 2384 O 237.07 5.46719 2.51757 0
M  V30 2385 H 240.896 3.02315 0.289717 0
M  V30 2386 H 238.481 1.49202 0.0769684 0
M  V30 2387 H 240.363 3.20522 2.73576 0
M  V30 2388 H 239.038 2.02849 2.52258 0
M  V30 2389 H 237.945 3.64117 0.858477 0
M  V30 2390 H 239.278 4.78609 1.14864 0
M  V30 2391 N 240.93 -0.123565 1.57115 0
M  V30 2392 C 241.862 -1.17739 1.96648 0
M  V30 2393 C 242.875 -1.37906 0.865201 0
M  V30 2394 O 244.064 -1.37062 1.14351 0
M  V30 2395 C 241.164 -2.53821 2.24562 0
M  V30 2396 C 240.337 -2.54317 3.55867 0
M  V30 2397 C 239.396 -3.72112 3.72047 0
M  V30 2398 O 238.422 -3.55907 4.44206 0
M  V30 2399 N 239.624 -4.90498 3.10471 0
M  V30 2400 H 242.389 -0.841147 2.87654 0
M  V30 2401 H 239.95 -0.31289 1.58848 0
M  V30 2402 H 241.942 -3.31175 2.32606 0
M  V30 2403 H 240.512 -2.79645 1.39705 0
M  V30 2404 H 239.732 -1.62711 3.59053 0
M  V30 2405 H 241.02 -2.51701 4.42181 0
M  V30 2406 H 240.418 -5.06567 2.51806 0
M  V30 2407 H 238.975 -5.65544 3.24043 0
M  V30 2408 N 242.408 -1.52605 -0.393616 0
M  V30 2409 C 243.371 -1.76415 -1.46323 0
M  V30 2410 C 244.371 -0.634126 -1.47768 0
M  V30 2411 O 245.561 -0.902142 -1.4902 0
M  V30 2412 C 242.693 -1.8607 -2.85641 0
M  V30 2413 H 243.886 -2.71916 -1.26498 0
M  V30 2414 H 241.439 -1.43257 -0.625073 0
M  V30 2415 H 242.174 -0.925378 -3.10817 0
M  V30 2416 H 241.959 -2.68235 -2.85993 0
M  V30 2417 H 243.449 -2.06179 -3.63153 0
M  V30 2418 N 243.887 0.651787 -1.4349 0
M  V30 2419 C 245.136 1.40754 -1.44469 0
M  V30 2420 C 245.449 1.95463 -0.0731845 0
M  V30 2421 O 246.655 2.71471 0.0395721 0
M  V30 2422 C 245.111 2.54735 -2.5424 0
M  V30 2423 C 244.719 2.06628 -3.97504 0
M  V30 2424 C 246.463 3.32092 -2.64414 0
M  V30 2425 C 244.37 3.17829 -4.98737 0
M  V30 2426 H 243.3 0.528862 -0.53742 0
M  V30 2427 H 245.951 0.703365 -1.69485 0
M  V30 2428 H 244.333 3.2763 -2.22428 0
M  V30 2429 H 245.507 1.40734 -4.38783 0
M  V30 2430 H 243.822 1.42146 -3.91387 0
M  V30 2431 H 246.419 4.14952 -3.37223 0
M  V30 2432 H 246.762 3.80217 -1.69532 0
M  V30 2433 H 247.295 2.66279 -2.95534 0
M  V30 2434 H 244.034 2.74671 -5.95177 0
M  V30 2435 H 243.554 3.82429 -4.62069 0
M  V30 2436 H 245.233 3.82937 -5.21505 0
M  V30 2437 N 245.365 1.30045 0.890287 0
M  V30 2438 C 246.611 1.18737 1.64406 0
M  V30 2439 C 246.944 -0.258525 1.92472 0
M  V30 2440 O 246.219 -1.18562 1.54186 0
M  V30 2441 C 246.502 2.01087 2.98724 0
M  V30 2442 C 246.355 3.53867 2.77665 0
M  V30 2443 C 247.674 1.84457 3.9958 0
M  V30 2444 H 244.793 0.432698 0.596608 0
M  V30 2445 H 247.435 1.5962 1.0306 0
M  V30 2446 H 245.585 1.66349 3.51084 0
M  V30 2447 H 247.257 3.98637 2.32133 0
M  V30 2448 H 245.5 3.78318 2.12269 0
M  V30 2449 H 246.171 4.06772 3.7315 0
M  V30 2450 H 248.647 2.14817 3.56361 0
M  V30 2451 H 247.523 2.44411 4.91482 0
M  V30 2452 H 247.784 0.802276 4.3476 0
M  V30 2453 N 246.843 -1.10192 1.12674 0
M  V30 2454 C 248.254 -1.63707 0.897604 0
M  V30 2455 C 248.605 -1.87812 -0.567546 0
M  V30 2456 O 247.73 -1.62196 -1.43253 0
M  V30 2457 C 248.325 -2.974 1.62292 0
M  V30 2458 C 246.884 -3.47772 1.43986 0
M  V30 2459 C 246.031 -2.22332 1.65722 0
M  V30 2460 H 248.982 -0.936587 1.28116 0
M  V30 2461 H 249.003 -3.64986 1.07541 0
M  V30 2462 H 248.515 -2.79824 2.68924 0
M  V30 2463 H 246.616 -3.70487 0.396206 0
M  V30 2464 H 246.729 -4.25723 2.19765 0
M  V30 2465 H 245.093 -2.30599 1.08149 0
M  V30 2466 H 245.876 -2.07285 2.73657 0
M  V30 2467 N 248.321 -0.919034 -1.28029 0
M  V30 2468 C 249.737 -0.617972 -1.4715 0
M  V30 2469 C 249.937 0.835242 -1.83374 0
M  V30 2470 O 248.993 1.61388 -1.94191 0
M  V30 2471 C 250.306 -1.56041 -2.57044 0
M  V30 2472 C 251.854 -1.56769 -2.7091 0
M  V30 2473 C 252.329 -2.49688 -3.83953 0
M  V30 2474 N 253.82 -2.47845 -3.91314 0
M  V30 2475 C 254.555 -3.16437 -4.78179 0
M  V30 2476 N 254.051 -3.94376 -5.69596 0
M  V30 2477 N 255.844 -3.05498 -4.71834 0
M  V30 2478 H 247.995 -1.85866 -1.02798 0
M  V30 2479 H 250.258 -0.797506 -0.512531 0
M  V30 2480 H 249.964 -2.59671 -2.372 0
M  V30 2481 H 249.838 -1.29551 -3.54255 0
M  V30 2482 H 252.225 -0.538745 -2.90141 0
M  V30 2483 H 252.306 -1.87305 -1.74214 0
M  V30 2484 H 251.95 -3.52688 -3.65477 0
M  V30 2485 H 251.88 -2.16453 -4.80058 0
M  V30 2486 H 254.371 -1.91234 -3.25941 0
M  V30 2487 H 254.684 -4.43721 -6.32718 0
M  V30 2488 H 253.029 -3.98481 -5.69419 0
M  V30 2489 H 256.22 -2.44108 -3.99411 0
M  V30 2490 H 256.393 -3.59225 -5.39316 0
M  V30 2491 N 249.799 1.42003 -0.683588 0
M  V30 2492 C 251.047 2.01015 -0.209101 0
M  V30 2493 C 251.368 1.54365 1.19149 0
M  V30 2494 O 250.638 0.769083 1.80172 0
M  V30 2495 H 249.218 0.743294 -0.074315 0
M  V30 2496 H 251.88 1.73798 -0.882066 0
M  V30 2497 H 250.976 3.11343 -0.2172 0
M  V30 2498 N 251.277 0.427512 1.51691 0
M  V30 2499 C 252.207 -0.3796 2.30394 0
M  V30 2500 C 253.188 -1.02982 1.35384 0
M  V30 2501 O 254.373 -1.03534 1.643 0
M  V30 2502 C 251.503 -1.48649 3.1388 0
M  V30 2503 C 250.457 -0.960294 4.17088 0
M  V30 2504 C 249.783 -2.16219 4.89033 0
M  V30 2505 C 251.083 -0.00153679 5.223 0
M  V30 2506 H 252.777 0.277164 2.98114 0
M  V30 2507 H 250.323 0.134739 1.43368 0
M  V30 2508 H 252.276 -2.05826 3.67714 0
M  V30 2509 H 251 -2.1714 2.43962 0
M  V30 2510 H 249.659 -0.410806 3.64291 0
M  V30 2511 H 249.307 -2.83307 4.15628 0
M  V30 2512 H 249.007 -1.81654 5.58816 0
M  V30 2513 H 250.531 -2.73968 5.45687 0
M  V30 2514 H 251.945 -0.482687 5.71264 0
M  V30 2515 H 250.342 0.256199 5.99553 0
M  V30 2516 H 251.412 0.938174 4.75738 0
M  V30 2517 N 252.755 -1.56801 0.158532 0
M  V30 2518 C 253.688 -2.13148 -0.815065 0
M  V30 2519 C 254.666 -1.0581 -1.23462 0
M  V30 2520 O 255.85 -1.3371 -1.32868 0
M  V30 2521 C 252.977 -2.6606 -2.09594 0
M  V30 2522 C 252.023 -3.85651 -1.82141 0
M  V30 2523 S 252.856 -5.26041 -1.00207 0
M  V30 2524 C 254.012 -5.8235 -2.29389 0
M  V30 2525 H 254.245 -2.95396 -0.335937 0
M  V30 2526 H 251.778 -1.54299 -0.0559391 0
M  V30 2527 H 253.736 -2.97195 -2.8317 0
M  V30 2528 H 252.397 -1.83921 -2.54621 0
M  V30 2529 H 251.59 -4.20958 -2.77147 0
M  V30 2530 H 251.192 -3.55338 -1.16667 0
M  V30 2531 H 253.484 -5.94485 -3.24952 0
M  V30 2532 H 254.427 -6.79688 -1.9857 0
M  V30 2533 H 254.835 -5.10675 -2.40564 0
M  V30 2534 N 254.233 0.115231 -1.57178 0
M  V30 2535 C 255.458 0.840354 -1.89612 0
M  V30 2536 C 255.883 1.72464 -0.750845 0
M  V30 2537 O 255.241 1.78826 0.298478 0
M  V30 2538 C 255.289 1.64654 -3.20814 0
M  V30 2539 O 254.393 2.7538 -3.06985 0
M  V30 2540 H 253.734 0.232158 -0.622092 0
M  V30 2541 H 256.264 0.0964977 -2.04372 0
M  V30 2542 H 256.274 2.03499 -3.53627 0
M  V30 2543 H 254.949 0.997416 -4.03763 0
M  V30 2544 H 253.526 2.3971 -2.85646 0
M  V30 2545 N 255.711 1.52812 0.385517 0
M  V30 2546 C 256.661 1.74219 1.47078 0
M  V30 2547 C 257.645 0.59632 1.49442 0
M  V30 2548 O 258.837 0.85428 1.5502 0
M  V30 2549 C 255.966 1.9176 2.84751 0
M  V30 2550 C 255.052 3.12289 2.86943 0
M  V30 2551 N 255.443 4.34575 2.58802 0
M  V30 2552 C 253.741 3.12605 3.1811 0
M  V30 2553 C 254.442 5.162 2.68166 0
M  V30 2554 N 253.418 4.51964 3.02043 0
M  V30 2555 H 257.22 2.6639 1.24152 0
M  V30 2556 H 254.734 1.51166 0.593504 0
M  V30 2557 H 256.731 2.05218 3.62893 0
M  V30 2558 H 255.391 1.00805 3.08656 0
M  V30 2559 H 256.402 4.62649 2.32759 0
M  V30 2560 H 253.079 2.31472 3.47458 0
M  V30 2561 H 254.469 6.23689 2.49923 0
M  V30 2562 N 257.189 -0.644168 1.43834 0
M  V30 2563 C 258.122 -1.76906 1.44151 0
M  V30 2564 C 259.1 -1.59774 0.301857 0
M  V30 2565 O 260.284 -1.81834 0.496841 0
M  V30 2566 C 257.411 -3.14321 1.26174 0
M  V30 2567 C 256.457 -3.50134 2.43533 0
M  V30 2568 S 257.29 -3.49085 4.06079 0
M  V30 2569 C 258.446 -4.89142 3.90501 0
M  V30 2570 H 258.679 -1.76368 2.39336 0
M  V30 2571 H 256.212 -0.817624 1.30974 0
M  V30 2572 H 258.17 -3.93625 1.16489 0
M  V30 2573 H 256.831 -3.12412 0.325224 0
M  V30 2574 H 256.024 -4.50095 2.26783 0
M  V30 2575 H 255.626 -2.78264 2.4989 0
M  V30 2576 H 257.918 -5.78036 3.53385 0
M  V30 2577 H 258.861 -5.10945 4.90246 0
M  V30 2578 H 259.269 -4.63102 3.22795 0
M  V30 2579 N 258.668 -1.30515 -0.883378 0
M  V30 2580 C 259.914 -1.19607 -1.63774 0
M  V30 2581 C 260.247 0.248314 -1.92606 0
M  V30 2582 O 259.522 1.17742 -1.54813 0
M  V30 2583 C 259.805 -2.02669 -2.97653 0
M  V30 2584 C 259.658 -3.55335 -2.75784 0
M  V30 2585 C 260.977 -1.86573 -3.98596 0
M  V30 2586 H 258.096 -0.435856 -0.594305 0
M  V30 2587 H 260.738 -1.60165 -1.02212 0
M  V30 2588 H 258.888 -1.68208 -3.50197 0
M  V30 2589 H 260.56 -3.99863 -2.30016 0
M  V30 2590 H 258.803 -3.79438 -2.1026 0
M  V30 2591 H 259.474 -4.08745 -3.70988 0
M  V30 2592 H 261.95 -2.16703 -3.55217 0
M  V30 2593 H 260.826 -2.47014 -4.90179 0
M  V30 2594 H 261.087 -0.825321 -4.34328 0
M  V30 2595 N 260.146 1.09593 -1.13257 0
M  V30 2596 C 261.376 1.85231 -0.915049 0
M  V30 2597 C 261.784 1.81345 0.539498 0
M  V30 2598 O 261.127 1.20664 1.38513 0
M  V30 2599 C 261.189 3.34275 -1.3229 0
M  V30 2600 C 260.853 3.6191 -2.79052 0
M  V30 2601 C 261.85 3.57777 -3.77216 0
M  V30 2602 C 259.535 3.90309 -3.16171 0
M  V30 2603 C 261.529 3.81652 -5.1051 0
M  V30 2604 C 259.216 4.13839 -4.49644 0
M  V30 2605 C 260.214 4.09502 -5.46623 0
M  V30 2606 O 259.902 4.32426 -6.77689 0
M  V30 2607 H 259.634 0.591997 -0.326367 0
M  V30 2608 H 262.188 1.394 -1.50854 0
M  V30 2609 H 260.418 3.80805 -0.672667 0
M  V30 2610 H 262.107 3.9132 -1.07812 0
M  V30 2611 H 262.873 3.35865 -3.49885 0
M  V30 2612 H 258.752 3.92811 -2.41289 0
M  V30 2613 H 262.296 3.78182 -5.86195 0
M  V30 2614 H 258.193 4.35232 -4.767 0
M  V30 2615 H 258.961 4.49896 -6.83766 0
M  V30 2616 N 261.624 0.925811 1.2754 0
M  V30 2617 C 262.587 0.428129 2.25166 0
M  V30 2618 C 263.587 -0.452261 1.54309 0
M  V30 2619 O 264.777 -0.253608 1.72344 0
M  V30 2620 C 261.909 -0.384749 3.38722 0
M  V30 2621 H 263.102 1.29066 2.70706 0
M  V30 2622 H 260.655 0.706323 1.3943 0
M  V30 2623 H 261.39 -1.26618 2.98561 0
M  V30 2624 H 261.175 0.246454 3.91325 0
M  V30 2625 H 262.665 -0.723389 4.11287 0
M  V30 2626 N 263.102 -1.41638 0.69111 0
M  V30 2627 C 264.379 -1.95036 0.148421 0
M  V30 2628 C 264.759 -1.63072 -1.34055 0
M  V30 2629 O 264.107 -0.93538 -2.08478 0
M  V30 2630 C 264.317 -3.46279 0.434951 0
M  V30 2631 C 265.665 -4.23069 0.360275 0
M  V30 2632 O 266.689 -3.54277 0.369613 0
M  V30 2633 O 265.548 -5.45583 0.316534 0
M  V30 2634 H 262.642 -0.826908 0.0123654 0
M  V30 2635 H 265.188 -1.5138 0.766963 0
M  V30 2636 H 263.96 -3.6281 1.46576 0
M  V30 2637 H 263.583 -3.97019 -0.214787 0
M  V30 2638 N 264.58 -0.43555 -1.51462 0
M  V30 2639 C 265.512 0.41257 -2.25456 0
M  V30 2640 C 266.525 0.987822 -1.29406 0
M  V30 2641 O 267.714 0.882266 -1.55172 0
M  V30 2642 C 264.814 1.58894 -2.99342 0
M  V30 2643 C 263.987 1.13288 -4.22474 0
M  V30 2644 C 263.046 2.17917 -4.78956 0
M  V30 2645 O 262.072 1.77425 -5.40841 0
M  V30 2646 N 263.274 3.50382 -4.62832 0
M  V30 2647 H 266.039 -0.221603 -2.9888 0
M  V30 2648 H 263.6 -0.264342 -1.59727 0
M  V30 2649 H 265.592 2.28508 -3.34015 0
M  V30 2650 H 264.162 2.12849 -2.28941 0
M  V30 2651 H 263.382 0.263881 -3.93316 0
M  V30 2652 H 264.67 0.805542 -5.02383 0
M  V30 2653 H 264.068 3.86013 -4.13534 0
M  V30 2654 H 262.625 4.15895 -5.01871 0
M  V30 2655 N 266.058 1.56714 -0.166846 0
M  V30 2656 C 267.469 1.83378 0.350646 0
M  V30 2657 C 267.82 1.08646 1.63372 0
M  V30 2658 O 266.945 0.338058 2.13743 0
M  V30 2659 C 267.54 3.32643 0.642963 0
M  V30 2660 C 266.099 3.59818 1.10491 0
M  V30 2661 C 265.246 2.76954 0.138411 0
M  V30 2662 H 268.197 1.53803 -0.391193 0
M  V30 2663 H 268.218 3.49878 1.49551 0
M  V30 2664 H 267.73 3.87007 -0.291055 0
M  V30 2665 H 265.831 3.1086 2.05418 0
M  V30 2666 H 265.944 4.68178 1.01716 0
M  V30 2667 H 264.308 2.4666 0.634911 0
M  V30 2668 H 265.091 3.34097 -0.789549 0
M  V30 2669 N 267.536 -0.106894 1.57237 0
M  V30 2670 C 268.499 -1.11466 2.0027 0
M  V30 2671 C 269.499 -1.33623 0.894519 0
M  V30 2672 O 270.689 -1.29935 1.16028 0
M  V30 2673 C 267.821 -2.46646 2.35327 0
M  V30 2674 H 269.014 -0.744516 2.90512 0
M  V30 2675 H 266.567 -0.351576 1.52295 0
M  V30 2676 H 267.302 -2.88558 1.48003 0
M  V30 2677 H 267.087 -2.31915 3.16161 0
M  V30 2678 H 268.577 -3.19151 2.69318 0
M  V30 2679 N 269.014 -1.53014 -0.377408 0
M  V30 2680 C 269.962 -1.7927 -1.48206 0
M  V30 2681 C 270.956 -0.661195 -1.55963 0
M  V30 2682 O 272.162 -0.843908 -1.58991 0
M  V30 2683 H 268.537 -0.567425 -0.493491 0
M  V30 2684 H 270.508 -2.71753 -1.2326 0
M  V30 2685 C 269.257 -1.98894 -2.85196 0
M  V30 2686 H 268.58 -2.85395 -2.79981 0
M  V30 2687 H 270.02 -2.21249 -3.61698 0
M  V30 2688 C 268.479 -0.764691 -3.28107 0
M  V30 2689 O 269.009 0.0523226 -4.01666 0
M  V30 2690 N 267.215 -0.591493 -2.84517 0
M  V30 2691 H 266.762 -1.25749 -2.24822 0
M  V30 2692 H 266.72 0.226253 -3.13585 0
M  V30 2693 N 270.492 0.636531 -1.44174 0
M  V30 2694 C 271.903 1.21806 -1.41493 0
M  V30 2695 C 272.254 1.95785 -0.1275 0
M  V30 2696 O 271.379 2.02147 0.772376 0
M  V30 2697 C 271.974 2.21551 -2.56321 0
M  V30 2698 C 270.533 2.75143 -2.56853 0
M  V30 2699 C 269.68 1.50052 -2.33195 0
M  V30 2700 H 272.631 0.427531 -1.52833 0
M  V30 2701 H 272.652 3.0405 -2.28765 0
M  V30 2702 H 272.164 1.67679 -3.50008 0
M  V30 2703 H 270.265 3.33033 -1.67093 0
M  V30 2704 H 270.378 3.2155 -3.55165 0
M  V30 2705 H 268.742 1.77993 -1.82183 0
M  V30 2706 H 269.525 0.980903 -3.28988 0
M  V30 2707 N 271.97 1.30982 0.876444 0
M  V30 2708 C 273.216 1.20474 1.63138 0
M  V30 2709 C 273.549 -0.238096 1.92735 0
M  V30 2710 O 272.824 -1.1692 1.55435 0
M  V30 2711 C 273.107 2.04244 2.96574 0
M  V30 2712 C 272.96 3.56793 2.73896 0
M  V30 2713 C 274.279 1.88684 3.97601 0
M  V30 2714 H 271.398 0.439001 0.591985 0
M  V30 2715 H 274.04 1.60704 1.01361 0
M  V30 2716 H 272.19 1.70063 3.493 0
M  V30 2717 H 273.862 4.01077 2.27892 0
M  V30 2718 H 272.105 3.80548 2.08245 0
M  V30 2719 H 272.776 4.10706 3.68815 0
M  V30 2720 H 275.252 2.18584 3.54062 0
M  V30 2721 H 274.128 2.4961 4.88862 0
M  V30 2722 H 274.389 0.848343 4.33884 0
M  V30 2723 N 273.449 -1.08991 1.13837 0
M  V30 2724 C 274.397 -2.17841 0.815347 0
M  V30 2725 C 275.391 -1.68164 -0.204233 0
M  V30 2726 O 276.597 -1.79897 -0.0609304 0
M  V30 2727 H 272.972 -0.710654 0.245915 0
M  V30 2728 H 274.943 -2.42315 1.74143 0
M  V30 2729 C 273.692 -3.46381 0.302614 0
M  V30 2730 H 273.015 -3.84979 1.0785 0
M  V30 2731 H 274.455 -4.23844 0.115074 0
M  V30 2732 C 272.914 -3.22556 -0.972591 0
M  V30 2733 O 273.444 -3.45599 -2.04754 0
M  V30 2734 N 271.65 -2.76134 -0.905455 0
M  V30 2735 H 271.197 -2.57582 -0.0305421 0
M  V30 2736 H 271.155 -2.60571 -1.75926 0
M  V30 2737 N 274.927 -0.932562 -1.27047 0
M  V30 2738 C 276.204 -0.49377 -1.89265 0
M  V30 2739 C 276.584 1.02833 -1.8436 0
M  V30 2740 O 275.932 1.88461 -1.29209 0
M  V30 2741 C 276.142 -1.04536 -3.32976 0
M  V30 2742 C 277.49 -1.10879 -4.09867 0
M  V30 2743 O 278.514 -0.995327 -3.42011 0
M  V30 2744 O 277.373 -1.28417 -5.31198 0
M  V30 2745 H 274.467 -0.159596 -0.811454 0
M  V30 2746 H 277.013 -1.02457 -1.3528 0
M  V30 2747 H 275.785 -2.08913 -3.30864 0
M  V30 2748 H 275.408 -0.496494 -3.94488 0
M  V30 2749 N 276.405 1.4127 -0.698611 0
M  V30 2750 C 277.651 2.01478 -0.231207 0
M  V30 2751 C 277.984 1.55215 1.16713 0
M  V30 2752 O 277.259 0.764672 1.78838 0
M  V30 2753 C 277.542 3.58912 -0.292281 0
M  V30 2754 C 277.395 4.15293 -1.72778 0
M  V30 2755 C 278.714 4.38736 0.346194 0
M  V30 2756 H 275.833 0.732025 -0.0854878 0
M  V30 2757 H 278.475 1.67977 -0.887906 0
M  V30 2758 H 276.625 3.87582 0.26686 0
M  V30 2759 H 278.297 3.97486 -2.341 0
M  V30 2760 H 276.54 3.7022 -2.26096 0
M  V30 2761 H 277.211 5.24452 -1.72202 0
M  V30 2762 H 279.687 4.15897 -0.130035 0
M  V30 2763 H 278.563 5.48221 0.272932 0
M  V30 2764 H 278.824 4.18425 1.42734 0
M  V30 2765 N 277.883 0.443576 1.51229 0
M  V30 2766 C 278.815 -0.400608 2.25672 0
M  V30 2767 C 279.828 -0.980945 1.29928 0
M  V30 2768 O 281.017 -0.874024 1.55638 0
M  V30 2769 C 278.117 -1.57304 3.00181 0
M  V30 2770 C 277.29 -1.11046 4.23069 0
M  V30 2771 C 276.349 -2.15374 4.80105 0
M  V30 2772 O 275.375 -1.74554 5.41774 0
M  V30 2773 N 276.577 -3.47922 4.64683 0
M  V30 2774 H 279.342 0.23745 2.98758 0
M  V30 2775 H 276.903 0.272809 1.59585 0
M  V30 2776 H 278.895 -2.26733 3.35223 0
M  V30 2777 H 277.465 -2.11632 2.30066 0
M  V30 2778 H 276.685 -0.243019 3.9345 0
M  V30 2779 H 277.973 -0.778888 5.02803 0
M  V30 2780 H 277.371 -3.83815 4.15575 0
M  V30 2781 H 275.928 -4.13228 5.0407 0
M  V30 2782 N 279.361 -1.56624 0.175154 0
M  V30 2783 C 280.324 -2.16934 -0.739738 0
M  V30 2784 C 281.324 -1.11842 -1.15533 0
M  V30 2785 O 282.514 -1.37335 -1.07167 0
M  V30 2786 C 279.646 -2.75531 -2.00738 0
M  V30 2787 H 280.839 -2.99131 -0.214639 0
M  V30 2788 H 278.392 -1.56123 -0.0744197 0
M  V30 2789 H 279.127 -1.97078 -2.57548 0
M  V30 2790 H 278.912 -3.52444 -1.71831 0
M  V30 2791 H 280.402 -3.21904 -2.66021 0
M  V30 2792 N 280.839 0.0985539 -1.57292 0
M  V30 2793 C 281.771 1.14595 -1.98496 0
M  V30 2794 C 282.784 1.36512 -0.887031 0
M  V30 2795 O 283.973 1.35225 -1.16518 0
M  V30 2796 C 281.073 2.50216 -2.28572 0
M  V30 2797 C 280.246 2.48624 -3.59868 0
M  V30 2798 C 279.305 3.66146 -3.7792 0
M  V30 2799 O 278.331 3.48795 -4.49812 0
M  V30 2800 N 279.533 4.85496 -3.18235 0
M  V30 2801 H 282.298 0.795277 -2.88956 0
M  V30 2802 H 279.859 0.287579 -1.59325 0
M  V30 2803 H 281.851 3.27432 -2.37845 0
M  V30 2804 H 280.421 2.77387 -1.44136 0
M  V30 2805 H 279.641 1.56978 -3.61596 0
M  V30 2806 H 280.929 2.44635 -4.46129 0
M  V30 2807 H 280.327 5.02497 -2.59833 0
M  V30 2808 H 278.884 5.60317 -3.32999 0
M  V30 2809 N 282.317 1.53212 0.369288 0
M  V30 2810 C 283.733 1.42902 0.710712 0
M  V30 2811 C 283.933 0.565135 1.93413 0
M  V30 2812 O 282.989 0.0461484 2.52458 0
M  V30 2813 C 284.302 2.86042 0.927382 0
M  V30 2814 C 285.85 2.9565 1.02762 0
M  V30 2815 C 286.325 4.39843 1.27679 0
M  V30 2816 N 287.816 4.43256 1.34457 0
M  V30 2817 C 288.551 5.51929 1.55439 0
M  V30 2818 N 288.047 6.70655 1.73762 0
M  V30 2819 N 289.84 5.39502 1.57779 0
M  V30 2820 H 281.991 2.07888 -0.435457 0
M  V30 2821 H 284.254 0.938661 -0.132739 0
M  V30 2822 H 283.96 3.51557 0.100287 0
M  V30 2823 H 283.834 3.29472 1.83653 0
M  V30 2824 H 286.221 2.30291 1.84527 0
M  V30 2825 H 286.302 2.5562 0.0959504 0
M  V30 2826 H 285.946 5.05774 0.464175 0
M  V30 2827 H 285.876 4.77443 2.22162 0
M  V30 2828 H 288.367 3.5769 1.21926 0
M  V30 2829 H 288.68 7.49248 1.89335 0
M  V30 2830 H 287.025 6.73648 1.70948 0
M  V30 2831 H 290.216 4.45713 1.43029 0
M  V30 2832 H 290.389 6.2426 1.7379 0
M  V30 2833 N 283.795 -0.628877 1.44509 0
M  V30 2834 C 285.042 -1.38839 1.47411 0
M  V30 2835 C 285.37 -1.94202 0.10757 0
M  V30 2836 O 284.625 -1.74243 -0.890947 0
M  V30 2837 C 284.924 -2.56995 2.48371 0
M  V30 2838 C 284.59 -2.19908 3.93639 0
M  V30 2839 C 283.252 -2.09506 4.33198 0
M  V30 2840 C 285.604 -1.9064 4.85083 0
M  V30 2841 C 282.932 -1.68028 5.62124 0
M  V30 2842 C 285.284 -1.50655 6.14399 0
M  V30 2843 C 283.948 -1.38796 6.5291 0
M  V30 2844 H 283.218 -0.508048 0.539414 0
M  V30 2845 H 285.865 -0.712913 1.77735 0
M  V30 2846 H 284.17 -3.29786 2.11538 0
M  V30 2847 H 285.867 -3.15223 2.47861 0
M  V30 2848 H 282.457 -2.28922 3.62343 0
M  V30 2849 H 286.641 -1.97585 4.55273 0
M  V30 2850 H 281.897 -1.57452 5.90778 0
M  V30 2851 H 286.071 -1.27048 6.84713 0
M  V30 2852 H 283.698 -1.06429 7.52713 0
M  V30 2853 N 285.273 -1.31445 -0.869486 0
M  V30 2854 C 286.501 -1.24122 -1.65534 0
M  V30 2855 C 286.916 0.193387 -1.87807 0
M  V30 2856 O 286.273 1.12557 -1.43656 0
M  V30 2857 C 286.324 -1.98229 -3.02304 0
M  V30 2858 O 286.045 -3.3609 -2.81026 0
M  V30 2859 C 287.546 -1.97751 -3.96749 0
M  V30 2860 H 284.766 -0.428868 -0.516055 0
M  V30 2861 H 287.31 -1.73328 -1.08525 0
M  V30 2862 H 285.465 -1.52782 -3.56001 0
M  V30 2863 H 285.879 -3.7383 -3.67902 0
M  V30 2864 H 287.353 -2.54114 -4.90031 0
M  V30 2865 H 287.83 -0.960137 -4.28577 0
M  V30 2866 H 288.436 -2.43079 -3.48988 0
M  V30 2867 N 286.751 1.08385 -1.14413 0
M  V30 2868 C 288.028 1.77429 -0.823297 0
M  V30 2869 C 288.408 1.9974 0.683163 0
M  V30 2870 O 287.756 1.60739 1.62405 0
M  V30 2871 C 287.966 3.09004 -1.62227 0
M  V30 2872 C 289.314 3.83532 -1.82177 0
M  V30 2873 O 290.338 3.18786 -1.58915 0
M  V30 2874 O 289.197 4.99792 -2.21067 0
M  V30 2875 H 286.291 0.769999 -0.301712 0
M  V30 2876 H 288.837 1.14846 -1.24934 0
M  V30 2877 H 287.609 2.88316 -2.64555 0
M  V30 2878 H 287.232 3.79316 -1.19187 0
M  V30 2879 N 288.23 0.939286 1.26551 0
M  V30 2880 C 289.163 0.391702 2.24813 0
M  V30 2881 C 290.141 -0.518421 1.54114 0
M  V30 2882 O 291.325 -0.456299 1.82894 0
M  V30 2883 C 288.452 -0.437382 3.35864 0
M  V30 2884 C 287.498 0.410946 4.24516 0
M  V30 2885 S 288.331 1.83372 5.03125 0
M  V30 2886 C 289.487 1.01264 6.17654 0
M  V30 2887 H 289.72 1.22448 2.70913 0
M  V30 2888 H 287.253 0.742269 1.35387 0
M  V30 2889 H 289.211 -0.909837 4.0029 0
M  V30 2890 H 287.872 -1.24482 2.8838 0
M  V30 2891 H 287.065 -0.224191 5.03501 0
M  V30 2892 H 286.667 0.818014 3.64945 0
M  V30 2893 H 288.959 0.254023 6.77024 0
M  V30 2894 H 289.902 1.77589 6.85469 0
M  V30 2895 H 290.31 0.549532 5.61819 0
M  V30 2896 N 289.708 -1.40897 0.706093 0
M  V30 2897 C 290.638 -2.33418 0.0620085 0
M  V30 2898 C 291.619 -1.52385 -0.755827 0
M  V30 2899 O 292.804 -1.80886 -0.706674 0
M  V30 2900 C 289.934 -3.36293 -0.867445 0
M  V30 2901 C 288.888 -4.27716 -0.155932 0
M  V30 2902 C 288.214 -5.2105 -1.20046 0
M  V30 2903 C 289.514 -5.12944 0.984149 0
M  V30 2904 H 291.208 -2.87527 0.83477 0
M  V30 2905 H 288.754 -1.38249 0.402875 0
M  V30 2906 H 290.707 -3.99949 -1.32735 0
M  V30 2907 H 289.431 -2.80556 -1.67199 0
M  V30 2908 H 288.09 -3.65498 0.284047 0
M  V30 2909 H 287.738 -4.61624 -1.99781 0
M  V30 2910 H 287.438 -5.83056 -0.729328 0
M  V30 2911 H 288.962 -5.87584 -1.66066 0
M  V30 2912 H 290.376 -5.70109 0.604048 0
M  V30 2913 H 288.773 -5.83945 1.38304 0
M  V30 2914 H 289.843 -4.49485 1.81911 0
M  V30 2915 N 291.186 -0.45159 -1.50991 0
M  V30 2916 C 292.149 0.341117 -2.26647 0
M  V30 2917 C 293.149 0.937422 -1.30649 0
M  V30 2918 O 294.339 0.809644 -1.54241 0
M  V30 2919 C 291.471 1.48398 -3.06905 0
M  V30 2920 H 292.664 -0.322117 -2.98165 0
M  V30 2921 H 290.217 -0.205122 -1.54948 0
M  V30 2922 H 290.952 2.18284 -2.39838 0
M  V30 2923 H 290.737 1.06241 -3.77432 0
M  V30 2924 H 292.227 2.04367 -3.64176 0
M  V30 2925 N 292.664 1.56529 -0.183458 0
M  V30 2926 C 293.596 2.15747 0.773697 0
M  V30 2927 C 294.609 1.1162 1.1851 0
M  V30 2928 O 295.798 1.3876 1.12285 0
M  V30 2929 C 292.898 2.6952 2.05456 0
M  V30 2930 C 292.071 3.98429 1.8048 0
M  V30 2931 C 291.13 4.37145 2.92901 0
M  V30 2932 O 290.156 5.04791 2.6301 0
M  V30 2933 N 291.358 3.99695 4.2098 0
M  V30 2934 H 294.123 2.98505 0.26736 0
M  V30 2935 H 291.684 1.619 -0.0010878 0
M  V30 2936 H 293.676 2.92412 2.79781 0
M  V30 2937 H 292.246 1.91282 2.47245 0
M  V30 2938 H 291.466 3.8379 0.899947 0
M  V30 2939 H 292.754 4.82597 1.61175 0
M  V30 2940 H 292.152 3.4526 4.48121 0
M  V30 2941 H 290.709 4.27562 4.9197 0
M  V30 2942 N 294.142 -0.090211 1.57342 0
M  V30 2943 C 295.105 -1.09335 2.01441 0
M  V30 2944 C 296.105 -1.32666 0.908641 0
M  V30 2945 O 297.295 -1.28697 1.174 0
M  V30 2946 C 294.427 -2.44136 2.3793 0
M  V30 2947 H 295.62 -0.713662 2.91285 0
M  V30 2948 H 293.173 -0.335404 1.52659 0
M  V30 2949 H 293.908 -2.86972 1.51055 0
M  V30 2950 H 293.693 -2.28548 3.18603 0
M  V30 2951 H 295.183 -3.16277 2.72688 0
M  V30 2952 N 295.62 -1.53406 -0.361157 0
M  V30 2953 C 297.036 -1.43277 -0.703124 0
M  V30 2954 C 297.236 -0.575384 -1.9311 0
M  V30 2955 O 296.292 -0.0595362 -2.5243 0
M  V30 2956 C 297.605 -2.8653 -0.9122 0
M  V30 2957 C 299.153 -2.96191 -1.01193 0
M  V30 2958 C 299.628 -4.40514 -1.25345 0
M  V30 2959 N 301.119 -4.43962 -1.32105 0
M  V30 2960 C 301.854 -5.52746 -1.5251 0
M  V30 2961 N 301.35 -6.71567 -1.70203 0
M  V30 2962 N 303.143 -5.40331 -1.54916 0
M  V30 2963 H 295.294 -2.07654 0.446475 0
M  V30 2964 H 297.557 -0.937944 0.137715 0
M  V30 2965 H 297.263 -3.51605 -0.0816414 0
M  V30 2966 H 297.137 -3.30441 -1.81903 0
M  V30 2967 H 299.524 -2.31266 -1.83303 0
M  V30 2968 H 299.605 -2.55667 -0.0823929 0
M  V30 2969 H 299.249 -5.06014 -0.437346 0
M  V30 2970 H 299.179 -4.78614 -2.19627 0
M  V30 2971 H 301.67 -3.58332 -1.20028 0
M  V30 2972 H 301.983 -7.50241 -1.85359 0
M  V30 2973 H 300.328 -6.74545 -1.67373 0
M  V30 2974 H 303.519 -4.46465 -1.40663 0
M  V30 2975 H 303.692 -6.25173 -1.70477 0
M  V30 2976 N 297.098 0.621204 -1.44841 0
M  V30 2977 C 298.008 1.7612 -1.5498 0
M  V30 2978 C 299.024 1.68477 -0.434927 0
M  V30 2979 O 300.2 1.89076 -0.693693 0
M  V30 2980 C 297.265 3.1254 -1.50065 0
M  V30 2981 C 296.326 3.31741 -2.72482 0
M  V30 2982 C 295.559 4.61653 -2.67792 0
M  V30 2983 O 295.782 5.431 -1.74352 0
M  V30 2984 O 294.716 4.83271 -3.58794 0
M  V30 2985 H 298.542 1.70518 -2.51311 0
M  V30 2986 H 296.127 0.783643 -1.27198 0
M  V30 2987 H 298.009 3.93844 -1.49882 0
M  V30 2988 H 296.684 3.18663 -0.568806 0
M  V30 2989 H 295.591 2.50077 -2.7823 0
M  V30 2990 H 296.924 3.30486 -3.64746 0
M  V30 2991 N 298.576 1.31904 0.862503 0
M  V30 2992 C 299.508 1.16005 1.97675 0
M  V30 2993 C 300.521 0.0971234 1.6251 0
M  V30 2994 O 301.71 0.345337 1.75128 0
M  V30 2995 C 298.81 0.751791 3.30456 0
M  V30 2996 C 297.983 1.90133 3.93914 0
M  V30 2997 C 297.042 1.4779 5.05019 0
M  V30 2998 O 296.068 2.18872 5.25437 0
M  V30 2999 N 297.27 0.369491 5.79323 0
M  V30 3000 H 300.035 2.11982 2.11857 0
M  V30 3001 H 297.596 1.24337 1.03691 0
M  V30 3002 H 299.588 0.451084 4.02178 0
M  V30 3003 H 298.158 -0.116593 3.12382 0
M  V30 3004 H 297.378 2.36896 3.15078 0
M  V30 3005 H 298.666 2.67111 4.33047 0
M  V30 3006 H 298.064 -0.222299 5.65263 0
M  V30 3007 H 296.621 0.128354 6.51674 0
M  V30 3008 N 300.054 -1.07777 1.14986 0
M  V30 3009 C 301.302 -1.79934 0.920235 0
M  V30 3010 C 301.623 -1.86955 -0.554336 0
M  V30 3011 O 300.893 -1.36731 -1.40291 0
M  V30 3012 H 299.473 -0.666424 0.337473 0
M  V30 3013 H 302.135 -1.3027 1.44968 0
M  V30 3014 H 301.231 -2.82539 1.32583 0
M  V30 3015 N 301.532 -0.945985 -1.26051 0
M  V30 3016 C 302.778 -0.597002 -1.93814 0
M  V30 3017 C 303.111 0.862484 -1.73997 0
M  V30 3018 O 302.386 1.61769 -1.07986 0
M  V30 3019 C 302.669 -0.945937 -3.47454 0
M  V30 3020 C 302.522 -2.46052 -3.76535 0
M  V30 3021 C 303.841 -0.464785 -4.37639 0
M  V30 3022 H 300.96 -0.218366 -0.703907 0
M  V30 3023 H 303.602 -1.18107 -1.48831 0
M  V30 3024 H 301.752 -0.448902 -3.85898 0
M  V30 3025 H 303.424 -3.03065 -3.47778 0
M  V30 3026 H 301.667 -2.90194 -3.22444 0
M  V30 3027 H 302.338 -2.65517 -4.83947 0
M  V30 3028 H 304.814 -0.891016 -4.06448 0
M  V30 3029 H 303.69 -0.737712 -5.4392 0
M  V30 3030 H 303.951 0.635274 -4.37512 0
M  V30 3031 N 303.011 1.40521 -0.713556 0
M  V30 3032 C 304.427 1.54839 -0.386907 0
M  V30 3033 C 304.627 1.68532 1.1045 0
M  V30 3034 O 303.683 1.67377 1.89053 0
M  V30 3035 C 304.996 2.77792 -1.15118 0
M  V30 3036 C 306.544 2.91607 -1.13729 0
M  V30 3037 C 307.019 4.1747 -1.88368 0
M  V30 3038 N 308.51 4.24466 -1.85427 0
M  V30 3039 C 309.245 5.20755 -2.40004 0
M  V30 3040 N 308.741 6.22965 -3.03129 0
M  V30 3041 N 310.534 5.1282 -2.30158 0
M  V30 3042 H 302.685 1.29879 -1.68063 0
M  V30 3043 H 304.948 0.627896 -0.710247 0
M  V30 3044 H 304.654 2.73944 -2.20561 0
M  V30 3045 H 304.528 3.6984 -0.741477 0
M  V30 3046 H 306.915 2.94959 -0.0910608 0
M  V30 3047 H 306.996 2.00682 -1.5862 0
M  V30 3048 H 306.64 4.1488 -2.9298 0
M  V30 3049 H 306.57 5.074 -1.40898 0
M  V30 3050 H 309.061 3.51241 -1.3942 0
M  V30 3051 H 309.374 6.92859 -3.42295 0
M  V30 3052 H 307.719 6.23415 -3.07212 0
M  V30 3053 H 310.91 4.31899 -1.80501 0
M  V30 3054 H 311.083 5.87689 -2.72993 0
M  V30 3055 N 304.489 0.459591 1.5075 0
M  V30 3056 C 305.736 -0.0993495 2.02256 0
M  V30 3057 C 306.064 -1.40751 1.34237 0
M  V30 3058 O 305.319 -1.90379 0.453228 0
M  V30 3059 C 305.618 -0.342866 3.55752 0
M  V30 3060 C 305.284 0.88218 4.42186 0
M  V30 3061 C 303.946 1.21808 4.65528 0
M  V30 3062 C 306.298 1.69837 4.92752 0
M  V30 3063 C 303.626 2.37045 5.36681 0
M  V30 3064 C 305.978 2.84192 5.65171 0
M  V30 3065 C 304.642 3.1821 5.8677 0
M  V30 3066 H 303.912 -0.0363545 0.740108 0
M  V30 3067 H 306.559 0.611329 1.8148 0
M  V30 3068 H 304.864 -1.13567 3.7498 0
M  V30 3069 H 306.561 -0.789121 3.93159 0
M  V30 3070 H 303.151 0.610467 4.2423 0
M  V30 3071 H 307.335 1.45205 4.74583 0
M  V30 3072 H 302.591 2.63689 5.51614 0
M  V30 3073 H 306.765 3.4779 6.03337 0
M  V30 3074 H 304.392 4.07613 6.41682 0
M  V30 3075 N 305.967 -1.56429 0.191757 0
M  V30 3076 C 306.877 -2.22541 -0.742481 0
M  V30 3077 C 307.893 -1.22342 -1.23727 0
M  V30 3078 O 309.069 -1.55069 -1.28513 0
M  V30 3079 C 306.134 -2.8692 -1.94623 0
M  V30 3080 C 305.195 -4.02378 -1.49633 0
M  V30 3081 C 304.428 -4.63678 -2.6427 0
M  V30 3082 O 304.651 -4.23895 -3.81666 0
M  V30 3083 O 303.585 -5.53202 -2.37174 0
M  V30 3084 H 307.411 -3.02977 -0.209462 0
M  V30 3085 H 304.996 -1.49353 -0.0373832 0
M  V30 3086 H 306.878 -3.27663 -2.64982 0
M  V30 3087 H 305.553 -2.09466 -2.46791 0
M  V30 3088 H 304.46 -3.66265 -0.761636 0
M  V30 3089 H 305.793 -4.81487 -1.02134 0
M  V30 3090 N 307.445 0.0818655 -1.57387 0
M  V30 3091 C 308.691 0.784074 -1.8703 0
M  V30 3092 C 309.024 1.77729 -0.782689 0
M  V30 3093 O 308.299 1.93384 0.208051 0
M  V30 3094 C 308.582 1.50105 -3.27323 0
M  V30 3095 C 308.435 0.524925 -4.46727 0
M  V30 3096 C 309.754 2.44843 -3.65705 0
M  V30 3097 H 306.873 0.283582 -0.680257 0
M  V30 3098 H 309.515 0.0474352 -1.89941 0
M  V30 3099 H 307.665 2.12897 -3.24972 0
M  V30 3100 H 309.337 -0.0970111 -4.61198 0
M  V30 3101 H 307.58 -0.160606 -4.33503 0
M  V30 3102 H 308.251 1.064 -5.41648 0
M  V30 3103 H 310.727 1.92135 -3.69085 0
M  V30 3104 H 309.603 2.92018 -4.64776 0
M  V30 3105 H 309.864 3.29197 -2.95096 0
M  V30 3106 N 308.923 1.53595 0.353017 0
M  V30 3107 C 309.886 1.80232 1.41594 0
M  V30 3108 C 310.886 0.673081 1.46035 0
M  V30 3109 O 312.076 0.941335 1.46576 0
M  V30 3110 C 309.208 1.93578 2.80607 0
M  V30 3111 H 310.401 2.75174 1.19244 0
M  V30 3112 H 307.954 1.44864 0.586872 0
M  V30 3113 H 308.689 1.00746 3.08254 0
M  V30 3114 H 308.474 2.75724 2.78781 0
M  V30 3115 H 309.964 2.15735 3.57558 0
M  V30 3116 N 310.401 -0.613514 1.45168 0
M  V30 3117 C 311.351 -1.71871 1.49815 0
M  V30 3118 C 312.335 -1.56774 0.362021 0
M  V30 3119 O 313.527 -1.66212 0.608493 0
M  V30 3120 C 310.656 -3.1061 1.46207 0
M  V30 3121 C 309.742 -3.31114 2.64999 0
M  V30 3122 N 310.133 -3.21904 3.90143 0
M  V30 3123 C 308.431 -3.61966 2.6057 0
M  V30 3124 C 309.132 -3.43577 4.69393 0
M  V30 3125 N 308.108 -3.67287 4.00751 0
M  V30 3126 H 311.91 -1.63235 2.444 0
M  V30 3127 H 309.424 -0.816577 1.40377 0
M  V30 3128 H 311.421 -3.8989 1.4762 0
M  V30 3129 H 310.081 -3.20399 0.52673 0
M  V30 3130 H 311.092 -3.00436 4.21852 0
M  V30 3131 H 307.769 -3.78629 1.75916 0
M  V30 3132 H 309.159 -3.41901 5.78406 0
M  V30 3133 N 311.879 -1.3236 -0.855495 0
M  V30 3134 C 312.809 -1.23833 -1.97958 0
M  V30 3135 C 313.79 -0.122361 -1.69659 0
M  V30 3136 O 314.975 -0.30939 -1.9172 0
M  V30 3137 C 312.105 -0.959772 -3.33775 0
M  V30 3138 C 311.059 -2.03689 -3.76424 0
M  V30 3139 C 310.385 -1.61075 -5.09862 0
M  V30 3140 C 311.685 -3.4518 -3.9198 0
M  V30 3141 H 313.379 -2.1788 -2.0535 0
M  V30 3142 H 310.925 -1.04891 -0.986605 0
M  V30 3143 H 312.878 -0.886678 -4.11966 0
M  V30 3144 H 311.602 0.0163404 -3.26596 0
M  V30 3145 H 310.261 -2.10012 -3.00484 0
M  V30 3146 H 309.909 -0.622107 -4.99138 0
M  V30 3147 H 309.609 -2.33143 -5.39368 0
M  V30 3148 H 311.133 -1.55201 -5.90546 0
M  V30 3149 H 312.547 -3.4145 -4.60526 0
M  V30 3150 H 310.944 -4.1559 -4.32903 0
M  V30 3151 H 312.014 -3.84903 -2.94919 0
M  V30 3152 N 313.357 1.07166 -1.15556 0
M  V30 3153 C 314.582 1.84053 -0.955988 0
M  V30 3154 C 315.007 1.81586 0.490739 0
M  V30 3155 O 314.365 1.21018 1.34997 0
M  V30 3156 C 314.413 3.28957 -1.47714 0
M  V30 3157 O 313.517 4.06795 -0.677593 0
M  V30 3158 H 312.858 0.569842 -0.340847 0
M  V30 3159 H 315.388 1.35178 -1.53584 0
M  V30 3160 H 315.398 3.79788 -1.4908 0
M  V30 3161 H 314.073 3.30068 -2.53037 0
M  V30 3162 H 312.65 3.6561 -0.733721 0
M  V30 3163 N 314.835 0.952656 1.25548 0
M  V30 3164 C 315.783 0.462354 2.27958 0
M  V30 3165 C 316.777 -0.46634 1.62855 0
M  V30 3166 O 317.983 -0.343287 1.76696 0
M  V30 3167 H 314.358 0.13101 0.7405 0
M  V30 3168 H 316.329 1.33839 2.66702 0
M  V30 3169 C 315.078 -0.24628 3.46827 0
M  V30 3170 H 314.401 0.459192 3.97154 0
M  V30 3171 H 315.841 -0.553393 4.20373 0
M  V30 3172 C 314.3 -1.4681 3.0323 0
M  V30 3173 O 314.83 -2.56591 3.09069 0
M  V30 3174 N 313.036 -1.32874 2.58443 0
M  V30 3175 H 312.583 -0.435536 2.53891 0
M  V30 3176 H 312.541 -2.14742 2.29637 0
M  V30 3177 N 316.313 -1.40141 0.720998 0
M  V30 3178 C 317.538 -2.05618 0.271258 0
M  V30 3179 C 317.963 -1.53978 -1.08039 0
M  V30 3180 O 317.321 -0.677463 -1.68167 0
M  V30 3181 C 317.369 -3.59609 0.267197 0
M  V30 3182 O 316.473 -4.05526 -0.749814 0
M  V30 3183 H 315.814 -0.651904 0.126162 0
M  V30 3184 H 318.344 -1.79439 0.982997 0
M  V30 3185 H 318.354 -4.0786 0.106744 0
M  V30 3186 H 317.029 -3.96559 1.25354 0
M  V30 3187 H 315.606 -3.68722 -0.556644 0
M  V30 3188 N 317.792 -0.46758 -1.50504 0
M  V30 3189 C 319.017 0.0886943 -2.0721 0
M  V30 3190 C 319.442 1.33057 -1.32956 0
M  V30 3191 O 318.8 1.77354 -0.376197 0
M  V30 3192 C 318.848 0.359202 -3.58806 0
M  V30 3193 O 317.952 1.44034 -3.8643 0
M  V30 3194 H 317.293 -0.0114349 -0.663902 0
M  V30 3195 H 319.823 -0.657613 -1.93744 0
M  V30 3196 H 319.833 0.600742 -4.03553 0
M  V30 3197 H 318.508 -0.548311 -4.1227 0
M  V30 3198 H 317.085 1.18638 -3.53524 0
M  V30 3199 N 319.27 1.56325 -0.20005 0
M  V30 3200 C 320.233 2.18084 0.705132 0
M  V30 3201 C 321.233 1.13666 1.1374 0
M  V30 3202 O 322.423 1.39023 1.04968 0
M  V30 3203 C 319.555 2.78689 1.96329 0
M  V30 3204 H 320.748 2.99435 0.167023 0
M  V30 3205 H 318.301 1.56221 0.0495725 0
M  V30 3206 H 319.036 2.0115 2.5438 0
M  V30 3207 H 318.821 3.55133 1.66202 0
M  V30 3208 H 320.311 3.26096 2.60866 0
M  V30 3209 N 320.748 -0.0735177 1.57428 0
M  V30 3210 C 321.976 -0.785969 1.9139 0
M  V30 3211 C 322.391 -1.71207 0.795847 0
M  V30 3212 O 321.748 -1.81033 -0.230915 0
M  V30 3213 C 321.799 -1.58107 3.25091 0
M  V30 3214 O 321.52 -0.6922 4.32597 0
M  V30 3215 C 323.021 -2.39467 3.73055 0
M  V30 3216 H 320.241 -0.223558 0.632663 0
M  V30 3217 H 322.785 -0.044302 2.04452 0
M  V30 3218 H 320.94 -2.27503 3.13562 0
M  V30 3219 H 321.354 -1.24504 5.09508 0
M  V30 3220 H 322.828 -2.90716 4.69242 0
M  V30 3221 H 323.305 -3.18913 3.01979 0
M  V30 3222 H 323.911 -1.7523 3.87523 0
M  V30 3223 N 322.226 -1.5378 -0.344866 0
M  V30 3224 C 323.159 -1.7649 -1.4466 0
M  V30 3225 C 324.137 -0.613954 -1.50563 0
M  V30 3226 O 325.321 -0.84896 -1.683 0
M  V30 3227 C 322.448 -1.86235 -2.82903 0
M  V30 3228 C 321.494 -3.08375 -2.94631 0
M  V30 3229 S 322.327 -4.67457 -2.61236 0
M  V30 3230 C 323.483 -4.80079 -4.0159 0
M  V30 3231 H 323.716 -2.69661 -1.2518 0
M  V30 3232 H 321.249 -1.44632 -0.540455 0
M  V30 3233 H 323.207 -1.92535 -3.62547 0
M  V30 3234 H 321.868 -0.940786 -2.9968 0
M  V30 3235 H 321.061 -3.11865 -3.95925 0
M  V30 3236 H 320.663 -3.00294 -2.22934 0
M  V30 3237 H 322.955 -4.61407 -4.96094 0
M  V30 3238 H 323.898 -5.82168 -4.03095 0
M  V30 3239 H 324.306 -4.08544 -3.89554 0
M  V30 3240 N 323.704 0.605807 -1.45491 0
M  V30 3241 C 324.929 1.39625 -1.53361 0
M  V30 3242 C 325.354 1.87351 -0.167645 0
M  V30 3243 O 324.712 1.60243 0.848051 0
M  V30 3244 C 324.76 2.57559 -2.5238 0
M  V30 3245 O 323.864 3.58248 -2.04285 0
M  V30 3246 H 323.205 0.416771 -0.516912 0
M  V30 3247 H 325.735 0.737103 -1.90861 0
M  V30 3248 H 325.745 3.0478 -2.71244 0
M  V30 3249 H 324.42 2.22171 -3.51586 0
M  V30 3250 H 322.997 3.17664 -1.95305 0
M  V30 3251 N 325.182 1.32811 0.848464 0
M  V30 3252 C 326.598 1.11937 1.13764 0
M  V30 3253 C 326.798 -0.0960789 2.01271 0
M  V30 3254 O 325.854 -0.779165 2.40178 0
M  V30 3255 C 327.167 2.402 1.809 0
M  V30 3256 C 328.715 2.46016 1.93508 0
M  V30 3257 C 329.19 3.74215 2.64059 0
M  V30 3258 N 330.681 3.75232 2.71579 0
M  V30 3259 C 331.416 4.71134 3.26833 0
M  V30 3260 N 330.912 5.77406 3.8285 0
M  V30 3261 N 332.705 4.58623 3.24995 0
M  V30 3262 H 324.856 2.1073 0.265855 0
M  V30 3263 H 327.119 0.930671 0.180431 0
M  V30 3264 H 326.825 3.29093 1.24058 0
M  V30 3265 H 326.699 2.51628 2.81004 0
M  V30 3266 H 329.086 1.57577 2.49506 0
M  V30 3267 H 329.167 2.38536 0.923811 0
M  V30 3268 H 328.811 4.63031 2.08722 0
M  V30 3269 H 328.741 3.78968 3.65637 0
M  V30 3270 H 331.232 2.98423 2.31845 0
M  V30 3271 H 331.545 6.46632 4.23187 0
M  V30 3272 H 329.89 5.81152 3.81165 0
M  V30 3273 H 333.081 3.74762 2.80484 0
M  V30 3274 H 333.254 5.33535 3.67756 0
M  V30 3275 N 326.66 -1.06551 1.16123 0
M  V30 3276 C 328.071 -1.60768 0.949232 0
M  V30 3277 C 328.422 -1.89523 -0.507508 0
M  V30 3278 O 327.547 -1.66671 -1.38021 0
M  V30 3279 C 328.142 -2.92086 1.71671 0
M  V30 3280 C 326.701 -3.43015 1.54977 0
M  V30 3281 C 325.848 -2.16947 1.72711 0
M  V30 3282 H 328.799 -0.895354 1.31031 0
M  V30 3283 H 328.82 -3.6138 1.19099 0
M  V30 3284 H 328.332 -2.71127 2.7769 0
M  V30 3285 H 326.433 -3.69039 0.513873 0
M  V30 3286 H 326.546 -4.18516 2.33198 0
M  V30 3287 H 324.91 -2.27041 1.15431 0
M  V30 3288 H 325.693 -1.98473 2.80113 0
M  V30 3289 N 328.138 -0.959301 -1.25041 0
M  V30 3290 C 329.415 -0.533805 -1.88175 0
M  V30 3291 C 329.795 0.988994 -1.865 0
M  V30 3292 O 329.143 1.85677 -1.33177 0
M  V30 3293 C 329.353 -1.11575 -3.30684 0
M  V30 3294 C 330.701 -1.19548 -4.07423 0
M  V30 3295 O 331.725 -1.06765 -3.39823 0
M  V30 3296 O 330.584 -1.39656 -5.28354 0
M  V30 3297 H 327.678 -0.176772 -0.807887 0
M  V30 3298 H 330.224 -1.05303 -1.33076 0
M  V30 3299 H 328.996 -2.15884 -3.26358 0
M  V30 3300 H 328.619 -0.580059 -3.93346 0
M  V30 3301 N 329.616 1.39756 -0.72842 0
M  V30 3302 C 330.546 2.33289 -0.0991354 0
M  V30 3303 C 331.527 1.53568 0.731489 0
M  V30 3304 O 332.712 1.81987 0.677807 0
M  V30 3305 C 329.842 3.3763 0.813834 0
M  V30 3306 C 328.796 4.2791 0.0878663 0
M  V30 3307 C 328.122 5.22894 1.11741 0
M  V30 3308 C 329.422 5.11314 -1.06563 0
M  V30 3309 H 331.116 2.86163 -0.880408 0
M  V30 3310 H 328.662 1.37591 -0.424819 0
M  V30 3311 H 330.615 4.0201 1.26355 0
M  V30 3312 H 329.339 2.83181 1.62715 0
M  V30 3313 H 327.998 3.65 -0.342159 0
M  V30 3314 H 327.646 4.64744 1.92412 0
M  V30 3315 H 327.346 5.84143 0.636477 0
M  V30 3316 H 328.87 5.90151 1.56697 0
M  V30 3317 H 330.284 5.69076 -0.694671 0
M  V30 3318 H 328.681 5.81671 -1.47577 0
M  V30 3319 H 329.751 4.46534 -1.89038 0
M  V30 3320 N 331.094 0.475555 1.50254 0
M  V30 3321 C 332.057 -0.305016 2.27161 0
M  V30 3322 C 333.057 -0.916519 1.32123 0
M  V30 3323 O 334.247 -0.785003 1.5551 0
M  V30 3324 C 331.379 -1.43496 3.09227 0
M  V30 3325 H 332.572 0.369511 2.97615 0
M  V30 3326 H 330.125 0.229747 1.54602 0
M  V30 3327 H 330.86 -2.14441 2.43281 0
M  V30 3328 H 330.645 -1.00223 3.79075 0
M  V30 3329 H 332.135 -1.98548 3.67381 0
M  V30 3330 N 332.573 -1.56217 0.208337 0
M  V30 3331 C 333.82 -1.97949 -0.42692 0
M  V30 3332 C 334.148 -1.09562 -1.60706 0
M  V30 3333 O 333.403 -0.137616 -1.95216 0
M  V30 3334 C 333.702 -3.45441 -0.916797 0
M  V30 3335 C 333.368 -4.50646 0.151391 0
M  V30 3336 C 332.03 -4.79139 0.444867 0
M  V30 3337 C 334.382 -5.13811 0.874492 0
M  V30 3338 C 331.71 -5.68084 1.46619 0
M  V30 3339 C 334.062 -6.03861 1.88506 0
M  V30 3340 C 332.726 -6.30704 2.18559 0
M  V30 3341 H 331.996 -0.724345 -0.156221 0
M  V30 3342 H 334.643 -1.89006 0.308084 0
M  V30 3343 H 332.948 -3.51521 -1.73032 0
M  V30 3344 H 334.645 -3.75094 -1.41794 0
M  V30 3345 H 331.235 -4.28511 -0.0875068 0
M  V30 3346 H 335.419 -4.91879 0.660996 0
M  V30 3347 H 330.675 -5.87151 1.7048 0
M  V30 3348 H 334.849 -6.51861 2.45051 0
M  V30 3349 H 332.476 -6.99424 2.97843 0
M  V30 3350 N 334.051 0.0651679 -1.57465 0
M  V30 3351 C 335.328 0.79644 -1.78651 0
M  V30 3352 C 335.708 1.95454 -0.797566 0
M  V30 3353 O 335.056 2.27882 0.167946 0
M  V30 3354 C 335.266 1.26322 -3.25337 0
M  V30 3355 C 336.614 1.6939 -3.89348 0
M  V30 3356 O 337.638 1.35872 -3.29268 0
M  V30 3357 O 336.497 2.31471 -4.95059 0
M  V30 3358 H 333.591 0.382157 -0.733407 0
M  V30 3359 H 336.137 0.0447311 -1.69641 0
M  V30 3360 H 334.909 0.434859 -3.88876 0
M  V30 3361 H 334.532 2.07604 -3.39096 0
M  V30 3362 N 335.529 1.53961 0.336706 0
M  V30 3363 C 336.462 1.77255 1.43722 0
M  V30 3364 C 337.44 0.62193 1.50236 0
M  V30 3365 O 338.624 0.857874 1.67847 0
M  V30 3366 C 335.751 1.87733 2.81912 0
M  V30 3367 C 334.797 3.09933 2.92991 0
M  V30 3368 S 335.63 4.68836 2.58753 0
M  V30 3369 C 336.786 4.82202 3.99039 0
M  V30 3370 H 337.019 2.70322 1.23748 0
M  V30 3371 H 334.552 1.44917 0.532777 0
M  V30 3372 H 336.51 1.94455 3.61521 0
M  V30 3373 H 335.171 0.956666 2.99177 0
M  V30 3374 H 334.364 3.1396 3.94265 0
M  V30 3375 H 333.966 3.01472 2.21338 0
M  V30 3376 H 336.258 4.64032 4.9364 0
M  V30 3377 H 337.201 5.84298 4.00002 0
M  V30 3378 H 337.609 4.10604 3.87382 0
M  V30 3379 N 337.007 -0.598083 1.45811 0
M  V30 3380 C 338.253 -1.35882 1.50545 0
M  V30 3381 C 338.586 -1.93616 0.150445 0
M  V30 3382 O 337.861 -1.75604 -0.83628 0
M  V30 3383 C 338.144 -2.49966 2.59208 0
M  V30 3384 C 337.997 -1.97367 4.04186 0
M  V30 3385 C 339.316 -3.52068 2.64076 0
M  V30 3386 H 336.435 -0.492717 0.548087 0
M  V30 3387 H 339.077 -0.673319 1.77669 0
M  V30 3388 H 337.227 -3.08443 2.3621 0
M  V30 3389 H 338.899 -1.43466 4.38423 0
M  V30 3390 H 337.142 -1.283 4.14393 0
M  V30 3391 H 337.813 -2.79649 4.75921 0
M  V30 3392 H 340.289 -3.03448 2.84708 0
M  V30 3393 H 339.165 -4.2937 3.41954 0
M  V30 3394 H 339.426 -4.08304 1.69531 0
M  V30 3395 N 338.485 -1.33259 -0.841409 0
M  V30 3396 C 339.901 -1.12538 -1.13169 0
M  V30 3397 C 340.101 0.0854037 -2.01319 0
M  V30 3398 O 339.157 0.766417 -2.40587 0
M  V30 3399 C 340.47 -2.41156 -1.79623 0
M  V30 3400 C 342.018 -2.47038 -1.922 0
M  V30 3401 C 342.493 -3.7561 -2.6207 0
M  V30 3402 N 343.984 -3.76667 -2.69585 0
M  V30 3403 C 344.719 -4.72861 -3.2433 0
M  V30 3404 N 344.215 -5.79428 -3.79783 0
M  V30 3405 N 346.008 -4.6034 -3.22558 0
M  V30 3406 H 338.159 -2.10868 -0.254676 0
M  V30 3407 H 340.422 -0.931615 -0.175493 0
M  V30 3408 H 340.128 -3.29747 -1.22311 0
M  V30 3409 H 340.002 -2.53114 -2.79666 0
M  V30 3410 H 342.389 -1.58898 -2.48667 0
M  V30 3411 H 342.47 -2.39022 -0.911148 0
M  V30 3412 H 342.114 -4.64131 -2.06263 0
M  V30 3413 H 342.044 -3.80902 -3.63622 0
M  V30 3414 H 344.535 -2.99648 -2.30259 0
M  V30 3415 H 344.848 -6.48867 -4.19752 0
M  V30 3416 H 343.193 -5.83166 -3.78078 0
M  V30 3417 H 346.384 -3.76244 -2.78492 0
M  V30 3418 H 346.557 -5.35478 -3.64921 0
M  V30 3419 N 339.963 1.05934 -1.16686 0
M  V30 3420 C 341.374 1.60263 -0.957745 0
M  V30 3421 C 341.725 1.89789 0.49745 0
M  V30 3422 O 340.85 1.67401 1.37135 0
M  V30 3423 C 341.445 2.91172 -1.73218 0
M  V30 3424 C 340.004 3.42188 -1.56794 0
M  V30 3425 C 339.151 2.16028 -1.73859 0
M  V30 3426 H 342.102 0.888392 -1.31504 0
M  V30 3427 H 342.123 3.60744 -1.21014 0
M  V30 3428 H 341.635 2.6965 -2.79124 0
M  V30 3429 H 339.736 3.68762 -0.533437 0
M  V30 3430 H 339.849 4.17273 -2.35414 0
M  V30 3431 H 338.213 2.26426 -1.16633 0
M  V30 3432 H 338.996 1.96985 -2.81161 0
M  V30 3433 N 341.441 0.965919 1.2453 0
M  V30 3434 C 342.689 0.625593 1.92174 0
M  V30 3435 C 343.01 -0.841652 1.75901 0
M  V30 3436 O 342.28 -1.60061 1.12948 0
M  V30 3437 H 340.86 0.228388 0.71123 0
M  V30 3438 H 343.522 1.2266 1.51461 0
M  V30 3439 H 342.618 0.864653 2.99884 0
M  V30 3440 N 342.919 -1.39368 0.735821 0
M  V30 3441 C 344.168 -1.99733 0.281004 0
M  V30 3442 C 344.481 -1.59055 -1.13846 0
M  V30 3443 O 345.687 -2.12262 -1.69284 0
M  V30 3444 C 344.143 -3.57057 0.451462 0
M  V30 3445 C 343.751 -4.06697 1.87886 0
M  V30 3446 C 345.495 -4.2446 0.0584616 0
M  V30 3447 C 343.402 -5.56598 1.99883 0
M  V30 3448 H 342.332 -0.747163 0.101311 0
M  V30 3449 H 344.983 -1.59357 0.909819 0
M  V30 3450 H 343.365 -3.95234 -0.246263 0
M  V30 3451 H 344.539 -3.79853 2.60861 0
M  V30 3452 H 342.854 -3.5196 2.22515 0
M  V30 3453 H 345.451 -5.34549 0.127099 0
M  V30 3454 H 345.794 -4.04444 -0.986433 0
M  V30 3455 H 346.327 -3.9146 0.707374 0
M  V30 3456 H 343.066 -5.81494 3.02564 0
M  V30 3457 H 342.586 -5.85242 1.31346 0
M  V30 3458 H 344.265 -6.22022 1.78039 0
M  V30 3459 N 344.397 -0.483516 -1.5 0
M  V30 3460 C 345.36 0.292965 -2.2732 0
M  V30 3461 C 346.36 0.909499 -1.32608 0
M  V30 3462 O 347.55 0.776745 -1.55924 0
M  V30 3463 C 344.682 1.41854 -3.09984 0
M  V30 3464 H 345.875 -0.385289 -2.97415 0
M  V30 3465 H 343.428 -0.237942 -1.54478 0
M  V30 3466 H 344.163 2.13148 -2.44414 0
M  V30 3467 H 343.948 0.982114 -3.79601 0
M  V30 3468 H 345.438 1.96597 -3.68429 0
M  V30 3469 N 345.875 1.56104 -0.216619 0
M  V30 3470 C 347.121 1.98466 0.417033 0
M  V30 3471 C 347.454 1.10403 1.59765 0
M  V30 3472 O 346.729 0.160632 1.93836 0
M  V30 3473 C 347.012 3.49769 0.85637 0
M  V30 3474 C 346.865 4.48606 -0.327546 0
M  V30 3475 C 348.184 4.05339 1.7143 0
M  V30 3476 H 345.303 0.721551 0.150112 0
M  V30 3477 H 347.945 1.87423 -0.311864 0
M  V30 3478 H 346.095 3.5931 1.47745 0
M  V30 3479 H 347.767 4.5108 -0.965618 0
M  V30 3480 H 346.01 4.22682 -0.975805 0
M  V30 3481 H 346.681 5.51995 0.0227149 0
M  V30 3482 H 349.157 3.98712 1.19031 0
M  V30 3483 H 348.033 5.11533 1.99061 0
M  V30 3484 H 348.294 3.51918 2.67593 0
M  V30 3485 N 347.353 -0.0568162 1.57498 0
M  V30 3486 C 348.583 -0.764515 1.91934 0
M  V30 3487 C 348.991 -1.70877 0.81227 0
M  V30 3488 O 348.334 -1.82351 -0.222213 0
M  V30 3489 C 348.396 -1.5994 3.21962 0
M  V30 3490 C 348.06 -0.822925 4.4953 0
M  V30 3491 C 349.057 -0.135464 5.19723 0
M  V30 3492 C 346.742 -0.785666 4.96117 0
M  V30 3493 C 348.736 0.578861 6.34766 0
M  V30 3494 C 346.423 -0.0675784 6.11063 0
M  V30 3495 C 347.421 0.613471 6.80239 0
M  V30 3496 O 347.109 1.31996 7.92989 0
M  V30 3497 H 346.841 -0.221647 0.63863 0
M  V30 3498 H 349.395 -0.0268218 2.05382 0
M  V30 3499 H 347.625 -2.38026 3.04763 0
M  V30 3500 H 349.314 -2.18715 3.41934 0
M  V30 3501 H 350.08 -0.155458 4.84751 0
M  V30 3502 H 345.959 -1.30524 4.42136 0
M  V30 3503 H 349.503 1.111 6.88696 0
M  V30 3504 H 345.4 -0.0455636 6.45484 0
M  V30 3505 H 346.168 1.23077 8.09194 0
M  V30 3506 N 348.832 -1.54138 -0.328536 0
M  V30 3507 C 350.08 -1.71765 -1.06496 0
M  V30 3508 C 350.401 -0.49149 -1.88704 0
M  V30 3509 O 349.671 0.494539 -1.89555 0
M  V30 3510 H 348.251 -0.633295 -0.396164 0
M  V30 3511 H 350.913 -1.91429 -0.366176 0
M  V30 3512 H 350.009 -2.5951 -1.73381 0
M  V30 3513 N 350.31 0.590341 -1.46126 0
M  V30 3514 C 351.24 1.71032 -1.58966 0
M  V30 3515 C 352.221 1.64302 -0.440335 0
M  V30 3516 O 353.406 1.82436 -0.665634 0
M  V30 3517 C 350.536 3.09665 -1.57241 0
M  V30 3518 C 349.49 3.31221 -2.71066 0
M  V30 3519 C 348.816 4.70303 -2.54399 0
M  V30 3520 C 350.116 3.19796 -4.1295 0
M  V30 3521 H 351.81 1.60543 -2.52718 0
M  V30 3522 H 349.356 0.770933 -1.21625 0
M  V30 3523 H 351.309 3.87831 -1.64819 0
M  V30 3524 H 350.033 3.21036 -0.600289 0
M  V30 3525 H 348.692 2.55452 -2.62944 0
M  V30 3526 H 348.34 4.78429 -1.55288 0
M  V30 3527 H 348.04 4.85679 -3.30741 0
M  V30 3528 H 349.564 5.50647 -2.63857 0
M  V30 3529 H 350.978 3.87815 -4.22223 0
M  V30 3530 H 349.375 3.46696 -4.89818 0
M  V30 3531 H 350.445 2.16983 -4.33643 0
M  V30 3532 N 351.788 1.33704 0.83433 0
M  V30 3533 C 353.013 1.28615 1.62705 0
M  V30 3534 C 353.438 -0.139242 1.87584 0
M  V30 3535 O 352.796 -1.09734 1.4432 0
M  V30 3536 C 352.844 2.07139 2.95171 0
M  V30 3537 O 351.948 1.4331 3.86699 0
M  V30 3538 H 351.289 0.44226 0.49528 0
M  V30 3539 H 353.819 1.76335 1.03766 0
M  V30 3540 H 353.829 2.18073 3.44831 0
M  V30 3541 H 352.504 3.10779 2.76386 0
M  V30 3542 H 351.081 1.4105 3.45195 0
M  V30 3543 N 353.266 -1.05314 1.17247 0
M  V30 3544 C 354.677 -1.59753 0.96623 0
M  V30 3545 C 355.028 -1.9005 -0.487378 0
M  V30 3546 O 354.153 -1.68126 -1.36245 0
M  V30 3547 C 354.748 -2.90249 1.74759 0
M  V30 3548 C 353.307 -3.41352 1.58606 0
M  V30 3549 C 352.454 -2.15103 1.75002 0
M  V30 3550 H 355.405 -0.881406 1.31973 0
M  V30 3551 H 355.426 -3.60097 1.22925 0
M  V30 3552 H 354.938 -2.68166 2.8055 0
M  V30 3553 H 353.039 -3.68474 0.552985 0
M  V30 3554 H 353.152 -4.16019 2.37624 0
M  V30 3555 H 351.516 -2.25804 1.17833 0
M  V30 3556 H 352.299 -1.95491 2.82202 0
M  V30 3557 N 354.744 -0.972509 -1.24016 0
M  V30 3558 C 355.99 -0.637978 -1.92504 0
M  V30 3559 C 356.323 0.825383 -1.75787 0
M  V30 3560 O 355.598 1.59442 -1.11393 0
M  V30 3561 C 355.881 -1.01942 -3.45369 0
M  V30 3562 C 355.734 -2.53983 -3.71231 0
M  V30 3563 C 357.053 -0.55751 -4.36555 0
M  V30 3564 H 354.172 -0.233248 -0.699117 0
M  V30 3565 H 356.814 -1.21238 -1.46292 0
M  V30 3566 H 354.964 -0.530656 -3.84859 0
M  V30 3567 H 356.636 -3.10374 -3.41271 0
M  V30 3568 H 354.879 -2.96968 -3.16216 0
M  V30 3569 H 355.55 -2.75723 -4.78206 0
M  V30 3570 H 358.026 -0.977029 -4.04467 0
M  V30 3571 H 356.902 -0.85292 -5.42233 0
M  V30 3572 H 357.163 0.542328 -4.38761 0
M  V30 3573 N 356.222 1.38976 -0.743202 0
M  V30 3574 C 357.633 1.83123 -0.363732 0
M  V30 3575 C 357.984 1.6205 1.10609 0
M  V30 3576 O 357.109 1.11606 1.854 0
M  V30 3577 C 357.704 3.32439 -0.653408 0
M  V30 3578 C 356.263 3.74974 -0.327338 0
M  V30 3579 C 355.41 2.61878 -0.911875 0
M  V30 3580 H 358.361 1.27852 -0.940191 0
M  V30 3581 H 358.382 3.80432 0.0720031 0
M  V30 3582 H 357.894 3.47745 -1.72323 0
M  V30 3583 H 355.995 3.65252 0.736314 0
M  V30 3584 H 356.108 4.72106 -0.815631 0
M  V30 3585 H 354.472 2.52448 -0.337944 0
M  V30 3586 H 355.255 2.79987 -1.98651 0
M  V30 3587 N 357.7 0.491464 1.49741 0
M  V30 3588 C 358.61 -0.296835 2.32715 0
M  V30 3589 C 359.626 -0.976536 1.44013 0
M  V30 3590 O 360.802 -0.960023 1.77047 0
M  V30 3591 C 357.867 -1.35288 3.19215 0
M  V30 3592 C 356.928 -0.687632 4.23757 0
M  V30 3593 C 356.161 -1.69336 5.06123 0
M  V30 3594 O 356.384 -2.92219 4.89861 0
M  V30 3595 O 355.318 -1.25394 5.88693 0
M  V30 3596 H 359.144 0.382048 3.01287 0
M  V30 3597 H 356.729 0.252953 1.47243 0
M  V30 3598 H 358.611 -1.96411 3.72828 0
M  V30 3599 H 357.286 -2.01487 2.53347 0
M  V30 3600 H 356.193 -0.0369159 3.74082 0
M  V30 3601 H 357.526 -0.0682566 4.92153 0
M  V30 3602 N 359.178 -1.55987 0.224894 0
M  V30 3603 C 360.108 -2.23426 -0.678457 0
M  V30 3604 C 361.089 -1.20709 -1.19847 0
M  V30 3605 O 362.274 -1.49304 -1.24186 0
M  V30 3606 C 359.404 -2.91676 -1.88527 0
M  V30 3607 C 358.358 -4.00893 -1.49896 0
M  V30 3608 C 357.684 -4.56455 -2.78483 0
M  V30 3609 C 358.984 -5.17769 -0.686461 0
M  V30 3610 H 360.678 -2.99175 -0.116173 0
M  V30 3611 H 358.224 -1.43897 -0.054436 0
M  V30 3612 H 360.177 -3.37547 -2.5227 0
M  V30 3613 H 358.901 -2.1338 -2.47258 0
M  V30 3614 H 357.56 -3.55758 -0.884985 0
M  V30 3615 H 357.208 -3.74886 -3.35365 0
M  V30 3616 H 356.908 -5.30169 -2.53368 0
M  V30 3617 H 358.432 -5.05047 -3.43162 0
M  V30 3618 H 359.846 -5.60001 -1.22767 0
M  V30 3619 H 358.243 -5.97735 -0.532259 0
M  V30 3620 H 359.313 -4.83932 0.306196 0
M  V30 3621 N 360.656 0.0484629 -1.57525 0
M  V30 3622 C 361.904 0.741657 -1.88 0
M  V30 3623 C 362.225 1.76918 -0.820054 0
M  V30 3624 O 361.495 1.95335 0.148661 0
M  V30 3625 H 360.075 0.276908 -0.69378 0
M  V30 3626 H 362.737 0.019013 -1.94891 0
M  V30 3627 H 361.833 1.24336 -2.86264 0
M  V30 3628 N 362.134 1.5431 0.320358 0
M  V30 3629 C 363.411 1.63322 1.07635 0
M  V30 3630 C 363.791 0.46912 2.05821 0
M  V30 3631 O 363.139 -0.536274 2.22118 0
M  V30 3632 C 363.349 3.00465 1.77544 0
M  V30 3633 C 364.697 3.56621 2.30449 0
M  V30 3634 O 365.721 3.02791 1.87606 0
M  V30 3635 O 364.58 4.5083 3.08892 0
M  V30 3636 H 361.674 0.661502 0.496331 0
M  V30 3637 H 364.22 1.66656 0.319992 0
M  V30 3638 H 362.992 3.76629 1.06143 0
M  V30 3639 H 362.615 3.00824 2.59982 0
M  V30 3640 N 363.613 -0.582584 1.46437 0
M  V30 3641 C 364.546 -1.70633 1.51524 0
M  V30 3642 C 365.524 -1.58349 0.369351 0
M  V30 3643 O 366.708 -1.79563 0.573516 0
M  V30 3644 C 363.835 -3.08687 1.39392 0
M  V30 3645 C 362.881 -3.3949 2.58164 0
M  V30 3646 S 363.714 -3.31548 4.20519 0
M  V30 3647 C 364.87 -4.72139 4.10896 0
M  V30 3648 H 365.103 -1.66058 2.46601 0
M  V30 3649 H 362.636 -0.761337 1.34324 0
M  V30 3650 H 364.594 -3.8833 1.33079 0
M  V30 3651 H 363.255 -3.10751 0.457436 0
M  V30 3652 H 362.448 -4.40071 2.45669 0
M  V30 3653 H 362.05 -2.67415 2.61468 0
M  V30 3654 H 364.342 -5.62527 3.77584 0
M  V30 3655 H 365.285 -4.89692 5.11476 0
M  V30 3656 H 365.693 -4.48995 3.42146 0
M  V30 3657 N 365.091 -1.34144 -0.827227 0
M  V30 3658 C 366.339 -1.26009 -1.58007 0
M  V30 3659 C 366.66 0.170971 -1.94249 0
M  V30 3660 O 365.93 1.10256 -1.61927 0
M  V30 3661 H 364.51 -0.463414 -0.585881 0
M  V30 3662 H 367.172 -1.68005 -0.987951 0
M  V30 3663 H 366.268 -1.86187 -2.50481 0
M  V30 3664 N 366.569 1.04691 -1.17803 0
M  V30 3665 C 367.499 2.14494 -0.92275 0
M  V30 3666 C 368.48 1.69546 0.137179 0
M  V30 3667 O 369.665 1.94195 -0.0141108 0
M  V30 3668 C 366.795 3.44491 -0.440803 0
M  V30 3669 C 365.749 4.03031 -1.4405 0
M  V30 3670 C 365.075 5.28432 -0.81631 0
M  V30 3671 C 366.375 4.39932 -2.81527 0
M  V30 3672 H 368.069 2.36107 -1.84103 0
M  V30 3673 H 365.615 1.1347 -0.886599 0
M  V30 3674 H 367.568 4.2066 -0.249602 0
M  V30 3675 H 366.292 3.22546 0.513025 0
M  V30 3676 H 364.951 3.28937 -1.61853 0
M  V30 3677 H 364.599 5.02792 0.144511 0
M  V30 3678 H 364.299 5.68559 -1.48371 0
M  V30 3679 H 365.823 6.07284 -0.635496 0
M  V30 3680 H 367.237 5.07113 -2.67412 0
M  V30 3681 H 365.634 4.9109 -3.44892 0
M  V30 3682 H 366.704 3.50045 -3.35554 0
M  V30 3683 N 368.047 0.979072 1.23499 0
M  V30 3684 C 369.293 0.648178 1.92163 0
M  V30 3685 C 369.626 -0.816049 1.76222 0
M  V30 3686 O 368.901 -1.58849 1.12237 0
M  V30 3687 C 369.184 1.03773 3.44824 0
M  V30 3688 C 369.037 2.55948 3.69879 0
M  V30 3689 C 370.356 0.580653 4.36253 0
M  V30 3690 H 367.475 0.236952 0.69787 0
M  V30 3691 H 370.117 1.22012 1.45647 0
M  V30 3692 H 368.267 0.551058 3.84572 0
M  V30 3693 H 369.939 3.12179 3.3962 0
M  V30 3694 H 368.182 2.98641 3.14636 0
M  V30 3695 H 368.853 2.78255 4.76737 0
M  V30 3696 H 371.329 0.998465 4.03943 0
M  V30 3697 H 370.205 0.881663 5.41773 0
M  V30 3698 H 370.466 -0.519052 4.39042 0
M  V30 3699 N 369.525 -1.3858 0.750561 0
M  V30 3700 C 370.936 -1.82927 0.373438 0
M  V30 3701 C 371.287 -1.62634 -1.09748 0
M  V30 3702 O 370.412 -1.12588 -1.84805 0
M  V30 3703 C 371.007 -3.32088 0.671029 0
M  V30 3704 C 369.566 -3.74795 0.34722 0
M  V30 3705 C 368.713 -2.61391 0.92575 0
M  V30 3706 H 371.664 -1.27351 0.946958 0
M  V30 3707 H 371.685 -3.80465 -0.0518269 0
M  V30 3708 H 371.197 -3.46826 1.74164 0
M  V30 3709 H 369.298 -3.65638 -0.716933 0
M  V30 3710 H 369.411 -4.71667 0.840656 0
M  V30 3711 H 367.775 -2.52265 0.351327 0
M  V30 3712 H 368.558 -2.78929 2.00133 0
M  V30 3713 N 371.003 -0.499398 -1.49478 0
M  V30 3714 C 371.966 0.268838 -2.27618 0
M  V30 3715 C 372.966 0.895383 -1.33565 0
M  V30 3716 O 374.156 0.760164 -1.56739 0
M  V30 3717 C 371.288 1.38559 -3.11471 0
M  V30 3718 H 372.481 -0.416812 -2.96989 0
M  V30 3719 H 370.034 -0.254313 -1.54217 0
M  V30 3720 H 370.769 2.10544 -2.46661 0
M  V30 3721 H 370.554 0.941797 -3.80621 0
M  V30 3722 H 372.044 1.92678 -3.70493 0
M  V30 3723 N 372.481 1.55866 -0.233164 0
M  V30 3724 C 373.414 2.16794 0.712442 0
M  V30 3725 C 374.392 1.1158 1.18273 0
M  V30 3726 O 375.576 1.39897 1.26337 0
M  V30 3727 C 372.703 2.75757 1.96661 0
M  V30 3728 C 371.749 3.93902 1.63533 0
M  V30 3729 S 372.582 5.30223 0.74995 0
M  V30 3730 C 373.738 5.92631 2.01343 0
M  V30 3731 H 373.971 2.96662 0.194617 0
M  V30 3732 H 371.504 1.5439 -0.0177425 0
M  V30 3733 H 373.462 3.10367 2.68668 0
M  V30 3734 H 372.123 1.9586 2.45556 0
M  V30 3735 H 371.316 4.33702 2.56747 0
M  V30 3736 H 370.918 3.60499 0.995804 0
M  V30 3737 H 373.21 6.09312 2.96219 0
M  V30 3738 H 374.153 6.88388 1.65915 0
M  V30 3739 H 374.561 5.21571 2.15925 0
M  V30 3740 N 373.959 -0.0401083 1.57549 0
M  V30 3741 C 375.187 -0.745196 1.93014 0
M  V30 3742 C 375.602 -1.6948 0.831984 0
M  V30 3743 O 374.959 -1.81482 -0.192463 0
M  V30 3744 C 375.01 -1.51176 3.28372 0
M  V30 3745 O 374.731 -0.600284 4.33968 0
M  V30 3746 C 376.232 -2.315 3.78051 0
M  V30 3747 H 373.452 -0.210088 0.637263 0
M  V30 3748 H 375.996 -0.000924689 2.045 0
M  V30 3749 H 374.151 -2.20801 3.18317 0
M  V30 3750 H 374.565 -1.13669 5.12035 0
M  V30 3751 H 376.039 -2.80697 4.75303 0
M  V30 3752 H 376.516 -3.12436 3.08675 0
M  V30 3753 H 377.122 -1.66971 3.91153 0
M  V30 3754 N 375.437 -1.54477 -0.31217 0
M  V30 3755 C 376.683 -1.73483 -1.0503 0
M  V30 3756 C 377.016 -0.513125 -1.87298 0
M  V30 3757 O 376.291 0.489864 -1.8823 0
M  V30 3758 C 376.574 -3.01723 -1.96558 0
M  V30 3759 C 376.427 -4.3417 -1.17545 0
M  V30 3760 C 377.746 -3.25772 -2.95907 0
M  V30 3761 H 374.865 -0.631222 -0.380432 0
M  V30 3762 H 377.507 -1.87184 -0.325932 0
M  V30 3763 H 375.657 -2.90174 -2.58324 0
M  V30 3764 H 377.329 -4.5762 -0.581513 0
M  V30 3765 H 375.572 -4.31159 -0.477925 0
M  V30 3766 H 376.243 -5.20143 -1.84811 0
M  V30 3767 H 378.719 -3.36857 -2.44267 0
M  V30 3768 H 377.595 -4.16838 -3.57123 0
M  V30 3769 H 377.856 -2.43537 -3.68974 0
M  V30 3770 N 376.915 0.57481 -1.46744 0
M  V30 3771 C 377.862 1.68329 -1.57905 0
M  V30 3772 C 378.832 1.60625 -0.422927 0
M  V30 3773 O 380.017 1.79721 -0.640711 0
M  V30 3774 C 377.157 3.06665 -1.58274 0
M  V30 3775 C 376.27 3.24935 -2.84678 0
M  V30 3776 C 375.405 4.53566 -2.76499 0
M  V30 3777 C 374.444 4.65207 -3.97806 0
M  V30 3778 N 373.581 5.85172 -3.87967 0
M  V30 3779 H 378.421 1.58127 -2.52587 0
M  V30 3780 H 375.958 0.770552 -1.25303 0
M  V30 3781 H 377.916 3.86745 -1.56473 0
M  V30 3782 H 376.546 3.15745 -0.671194 0
M  V30 3783 H 375.598 2.38405 -2.96424 0
M  V30 3784 H 376.91 3.29403 -3.7456 0
M  V30 3785 H 376.064 5.41885 -2.72848 0
M  V30 3786 H 374.803 4.51548 -1.8427 0
M  V30 3787 H 373.808 3.75304 -4.0178 0
M  V30 3788 H 375.033 4.68997 -4.9114 0
M  V30 3789 H 372.979 5.84137 -2.98529 0
M  V30 3790 H 372.896 5.90943 -4.71511 0
M  V30 3791 H 374.164 6.759 -3.88303 0
M  V30 3792 N 378.394 1.34581 0.820102 0
M  V30 3793 C 379.634 1.28448 1.58998 0
M  V30 3794 C 379.998 -0.142883 1.91468 0
M  V30 3795 O 381.199 -0.328422 2.66786 0
M  V30 3796 C 379.47 2.153 2.85273 0
M  V30 3797 S 381.029 2.26548 3.75794 0
M  V30 3798 H 377.847 0.456685 0.54494 0
M  V30 3799 H 380.449 1.69825 0.968487 0
M  V30 3800 H 379.153 3.18008 2.59421 0
M  V30 3801 H 378.684 1.7483 3.52417 0
M  V30 3802 H 380.699 1.44034 4.74835 0
M  V30 3803 N 379.872 -1.04064 1.18357 0
M  V30 3804 C 381.1 -1.80916 1.00384 0
M  V30 3805 C 381.515 -1.83414 -0.447738 0
M  V30 3806 O 380.872 -1.26962 -1.31099 0
M  V30 3807 C 380.923 -3.26516 1.55144 0
M  V30 3808 O 380.644 -3.2424 2.94618 0
M  V30 3809 C 382.145 -4.20013 1.41789 0
M  V30 3810 H 379.365 -0.569728 0.354474 0
M  V30 3811 H 381.909 -1.31151 1.56906 0
M  V30 3812 H 380.064 -3.73512 1.02798 0
M  V30 3813 H 380.478 -4.15452 3.20156 0
M  V30 3814 H 381.952 -5.20111 1.84901 0
M  V30 3815 H 382.429 -4.37667 0.36661 0
M  V30 3816 H 383.035 -3.78881 1.93207 0
M  V30 3817 N 381.35 -0.985608 -1.22978 0
M  V30 3818 C 382.596 -0.65836 -1.91816 0
M  V30 3819 C 382.929 0.806692 -1.76653 0
M  V30 3820 O 382.204 1.58252 -1.13078 0
M  V30 3821 C 382.487 -1.056 -3.44268 0
M  V30 3822 C 382.34 -2.57906 -3.68516 0
M  V30 3823 C 383.659 -0.603781 -4.35939 0
M  V30 3824 H 380.778 -0.24065 -0.696604 0
M  V30 3825 H 383.42 -1.22783 -1.44998 0
M  V30 3826 H 381.57 -0.571445 -3.84274 0
M  V30 3827 H 383.242 -3.13976 -3.3796 0
M  V30 3828 H 381.485 -3.00305 -3.13048 0
M  V30 3829 H 382.156 -2.80779 -4.75255 0
M  V30 3830 H 384.632 -1.01987 -4.03408 0
M  V30 3831 H 383.508 -0.910383 -5.41298 0
M  V30 3832 H 383.769 0.495761 -4.39312 0
M  V30 3833 N 382.828 1.3818 -0.7579 0
M  V30 3834 C 383.791 2.28764 -0.141286 0
M  V30 3835 C 384.791 1.47388 0.642907 0
M  V30 3836 O 385.981 1.67781 0.468536 0
M  V30 3837 C 383.113 3.31184 0.808069 0
M  V30 3838 H 384.306 2.848 -0.939633 0
M  V30 3839 H 381.859 1.47212 -0.525191 0
M  V30 3840 H 382.594 2.80247 1.63193 0
M  V30 3841 H 382.379 3.91314 0.248104 0
M  V30 3842 H 383.869 3.98909 1.23536 0
M  V30 3843 N 384.306 0.507319 1.49211 0
M  V30 3844 C 385.236 -0.256939 2.32082 0
M  V30 3845 C 386.217 -0.956609 1.40652 0
M  V30 3846 O 387.402 -0.946788 1.69557 0
M  V30 3847 C 384.532 -1.31802 3.21318 0
M  V30 3848 C 383.486 -0.737855 4.21592 0
M  V30 3849 C 382.812 -1.89992 4.99807 0
M  V30 3850 C 384.112 0.275325 5.21574 0
M  V30 3851 H 385.806 0.434798 2.96226 0
M  V30 3852 H 383.352 0.210546 1.42452 0
M  V30 3853 H 385.305 -1.86045 3.78107 0
M  V30 3854 H 384.029 -2.03903 2.5513 0
M  V30 3855 H 382.688 -0.217126 3.65956 0
M  V30 3856 H 382.336 -2.60877 4.30061 0
M  V30 3857 H 382.036 -1.51777 5.6766 0
M  V30 3858 H 383.56 -2.44657 5.59442 0
M  V30 3859 H 384.974 -0.179193 5.7302 0
M  V30 3860 H 383.371 0.573649 5.97352 0
M  V30 3861 H 384.441 1.18903 4.70096 0
M  V30 3862 N 385.784 -1.5574 0.241426 0
M  V30 3863 C 387.03 -1.99104 -0.385406 0
M  V30 3864 C 387.363 -1.1293 -1.57988 0
M  V30 3865 O 386.638 -0.191449 -1.93555 0
M  V30 3866 C 386.921 -3.51087 -0.800616 0
M  V30 3867 C 386.774 -4.48028 0.398874 0
M  V30 3868 C 388.093 -4.08015 -1.64959 0
M  V30 3869 H 385.212 -0.723848 -0.138614 0
M  V30 3870 H 387.854 -1.86903 0.341642 0
M  V30 3871 H 386.004 -3.61615 -1.4201 0
M  V30 3872 H 387.676 -4.49487 1.03726 0
M  V30 3873 H 385.919 -4.21077 1.04293 0
M  V30 3874 H 386.59 -5.51962 0.0651056 0
M  V30 3875 H 389.066 -4.00555 -1.12672 0
M  V30 3876 H 387.942 -5.14635 -1.90898 0
M  V30 3877 H 388.203 -3.56131 -2.61961 0
M  V30 3878 N 387.262 0.0317525 -1.57568 0
M  V30 3879 C 388.209 1.0332 -2.06382 0
M  V30 3880 C 389.179 1.36082 -0.952414 0
M  V30 3881 O 390.364 1.46466 -1.2228 0
M  V30 3882 C 387.504 2.32989 -2.54578 0
M  V30 3883 C 386.617 2.0641 -3.79498 0
M  V30 3884 C 385.752 3.2993 -4.16317 0
M  V30 3885 C 384.791 2.98893 -5.34162 0
M  V30 3886 N 383.928 4.14857 -5.66426 0
M  V30 3887 H 388.768 0.609982 -2.9169 0
M  V30 3888 H 386.305 0.289573 -1.44222 0
M  V30 3889 H 388.263 3.0875 -2.80587 0
M  V30 3890 H 386.893 2.73039 -1.7219 0
M  V30 3891 H 385.945 1.21158 -3.6059 0
M  V30 3892 H 387.257 1.79513 -4.65378 0
M  V30 3893 H 386.411 4.1406 -4.4344 0
M  V30 3894 H 385.15 3.59938 -3.29083 0
M  V30 3895 H 384.155 2.13164 -5.06795 0
M  V30 3896 H 385.38 2.70165 -6.23047 0
M  V30 3897 H 383.326 4.44821 -4.82151 0
M  V30 3898 H 383.243 3.91374 -6.4681 0
M  V30 3899 H 384.511 4.99868 -5.98124 0
M  V30 3900 N 388.74 1.54641 0.303973 0
M  V30 3901 C 389.965 1.78092 1.06292 0
M  V30 3902 C 390.39 0.537342 1.80262 0
M  V30 3903 O 389.748 -0.511993 1.7392 0
M  V30 3904 C 389.796 2.98612 2.02147 0
M  V30 3905 O 388.9 2.71528 3.10397 0
M  V30 3906 H 388.241 0.589548 0.305497 0
M  V30 3907 H 390.771 2.01716 0.3423 0
M  V30 3908 H 390.781 3.265 2.44667 0
M  V30 3909 H 389.456 3.88785 1.47714 0
M  V30 3910 H 388.033 2.54648 2.72413 0
M  V30 3911 N 390.218 -0.567019 1.47046 0
M  V30 3912 C 391.467 -1.32091 1.5243 0
M  V30 3913 C 391.78 -1.94704 0.187021 0
M  V30 3914 O 392.986 -2.7124 0.118771 0
M  V30 3915 C 391.442 -2.39479 2.68659 0
M  V30 3916 C 391.05 -1.831 4.08874 0
M  V30 3917 C 392.794 -3.16111 2.83327 0
M  V30 3918 C 390.701 -2.8821 5.16419 0
M  V30 3919 H 389.631 -0.496629 0.56734 0
M  V30 3920 H 392.282 -0.603354 1.73297 0
M  V30 3921 H 390.664 -3.14105 2.41152 0
M  V30 3922 H 391.838 -1.14913 4.46242 0
M  V30 3923 H 390.153 -1.19085 3.99008 0
M  V30 3924 H 392.75 -3.94585 3.60842 0
M  V30 3925 H 393.093 -3.69686 1.91411 0
M  V30 3926 H 393.626 -2.48595 3.10556 0
M  V30 3927 H 390.365 -2.39504 6.10179 0
M  V30 3928 H 389.885 -3.54839 4.8358 0
M  V30 3929 H 391.564 -3.51881 5.42945 0
M  V30 3930 N 391.696 -1.35014 -0.812953 0
M  V30 3931 C 393.112 -1.14914 -1.10757 0
M  V30 3932 C 393.312 0.0426818 -2.01455 0
M  V30 3933 O 392.368 0.715212 -2.42159 0
M  V30 3934 C 393.681 -2.44911 -1.74468 0
M  V30 3935 C 395.229 -2.5106 -1.86917 0
M  V30 3936 C 395.704 -3.81085 -2.54044 0
M  V30 3937 N 397.195 -3.82301 -2.61535 0
M  V30 3938 C 397.93 -4.79634 -3.14227 0
M  V30 3939 N 397.426 -5.87353 -3.67407 0
M  V30 3940 N 399.219 -4.67078 -3.12721 0
M  V30 3941 H 391.37 -2.1136 -0.20989 0
M  V30 3942 H 393.633 -0.935128 -0.155692 0
M  V30 3943 H 393.339 -3.32267 -1.15289 0
M  V30 3944 H 393.213 -2.58989 -2.74234 0
M  V30 3945 H 395.6 -1.64137 -2.45241 0
M  V30 3946 H 395.681 -2.40901 -0.860242 0
M  V30 3947 H 395.325 -4.68402 -1.96372 0
M  V30 3948 H 395.255 -3.88529 -3.55461 0
M  V30 3949 H 397.746 -3.04465 -2.23851 0
M  V30 3950 H 398.059 -6.57624 -4.05894 0
M  V30 3951 H 396.404 -5.91054 -3.65623 0
M  V30 3952 H 399.595 -3.82067 -2.70449 0
M  V30 3953 H 399.768 -5.43098 -3.53481 0
M  V30 3954 N 393.175 1.03435 -1.18907 0
M  V30 3955 C 394.138 2.09756 -0.923844 0
M  V30 3956 C 395.138 1.60528 0.093416 0
M  V30 3957 O 396.328 1.73631 -0.140727 0
M  V30 3958 C 393.46 3.38692 -0.387354 0
M  V30 3959 H 394.653 2.34719 -1.86674 0
M  V30 3960 H 392.206 1.19959 -1.00197 0
M  V30 3961 H 392.941 3.19396 0.561845 0
M  V30 3962 H 392.726 3.75742 -1.12074 0
M  V30 3963 H 394.216 4.17016 -0.220694 0
M  V30 3964 N 394.653 0.992116 1.22453 0
M  V30 3965 C 395.901 0.666215 1.90804 0
M  V30 3966 C 396.222 -0.804152 1.77647 0
M  V30 3967 O 395.492 -1.57629 1.16318 0
M  V30 3968 H 394.072 0.243423 0.706225 0
M  V30 3969 H 396.734 1.25845 1.48825 0
M  V30 3970 H 395.83 0.928069 2.97982 0
M  V30 3971 N 396.131 -1.37776 0.765217 0
M  V30 3972 C 397.041 -2.34135 0.147666 0
M  V30 3973 C 398.057 -1.59854 -0.687215 0
M  V30 3974 O 399.233 -1.91983 -0.608659 0
M  V30 3975 C 396.298 -3.3901 -0.72617 0
M  V30 3976 C 395.359 -4.2912 0.124417 0
M  V30 3977 C 394.592 -5.28986 -0.707807 0
M  V30 3978 O 394.815 -5.36205 -1.94525 0
M  V30 3979 O 393.749 -6.01779 -0.12046 0
M  V30 3980 H 397.575 -2.88664 0.943758 0
M  V30 3981 H 395.16 -1.39824 0.526277 0
M  V30 3982 H 397.042 -4.03195 -1.22524 0
M  V30 3983 H 395.717 -2.86819 -1.50056 0
M  V30 3984 H 394.624 -3.68057 0.669696 0
M  V30 3985 H 395.957 -4.84598 0.861736 0
M  V30 3986 N 397.609 -0.515225 -1.4894 0
M  V30 3987 C 398.834 0.022727 -2.07388 0
M  V30 3988 C 399.259 1.2876 -1.37122 0
M  V30 3989 O 398.617 1.76067 -0.432431 0
M  V30 3990 C 398.665 0.244869 -3.59768 0
M  V30 3991 O 397.769 1.31667 -3.90817 0
M  V30 3992 H 397.11 -0.0325506 -0.663202 0
M  V30 3993 H 399.64 -0.718918 -1.91553 0
M  V30 3994 H 399.65 0.47205 -4.0526 0
M  V30 3995 H 398.325 -0.679194 -4.10317 0
M  V30 3996 H 396.902 1.07331 -3.5712 0
M  V30 3997 N 399.087 1.5561 -0.249682 0
M  V30 3998 C 400.333 1.99306 0.374841 0
M  V30 3999 C 400.666 1.13767 1.57387 0
M  V30 4000 O 399.941 0.201711 1.93451 0
M  V30 4001 C 400.224 3.51507 0.781986 0
M  V30 4002 C 400.077 4.4781 -0.422629 0
M  V30 4003 C 401.396 4.08884 1.62793 0
M  V30 4004 H 398.515 0.724572 0.134773 0
M  V30 4005 H 401.157 1.86719 -0.351549 0
M  V30 4006 H 399.307 3.62363 1.4009 0
M  V30 4007 H 400.979 4.48931 -1.06108 0
M  V30 4008 H 399.222 4.20518 -1.06524 0
M  V30 4009 H 399.893 5.51919 -0.0943766 0
M  V30 4010 H 402.369 4.01147 1.10547 0
M  V30 4011 H 401.245 5.1564 1.88166 0
M  V30 4012 H 401.506 3.57515 2.60068 0
M  V30 4013 N 400.565 -0.0233959 1.57583 0
M  V30 4014 C 401.79 -0.728376 1.94189 0
M  V30 4015 C 402.215 -1.67793 0.850119 0
M  V30 4016 O 401.573 -1.80262 -0.19371 0
M  V30 4017 C 401.621 -1.45669 3.29868 0
M  V30 4018 O 400.725 -2.57013 3.22518 0
M  V30 4019 H 400.066 -0.195493 0.63457 0
M  V30 4020 H 402.596 0.0228214 2.04587 0
M  V30 4021 H 402.606 -1.82535 3.6489 0
M  V30 4022 H 401.281 -0.760314 4.08891 0
M  V30 4023 H 399.858 -2.22648 2.99136 0
M  V30 4024 N 402.043 -1.548 -0.295768 0
M  V30 4025 C 403.273 -1.78069 -1.04762 0
M  V30 4026 C 403.681 -0.542847 -1.81245 0
M  V30 4027 O 403.024 0.497051 -1.76848 0
M  V30 4028 C 403.086 -2.93881 -2.07061 0
M  V30 4029 C 402.75 -4.31777 -1.49725 0
M  V30 4030 C 403.747 -5.11613 -0.924581 0
M  V30 4031 C 401.432 -4.78389 -1.5313 0
M  V30 4032 C 403.426 -6.36184 -0.393594 0
M  V30 4033 C 401.113 -6.02921 -0.996447 0
M  V30 4034 C 402.111 -6.81654 -0.428569 0
M  V30 4035 O 401.799 -8.0384 0.0981593 0
M  V30 4036 H 401.531 -0.597475 -0.316226 0
M  V30 4037 H 404.085 -2.02584 -0.338973 0
M  V30 4038 H 402.315 -2.65003 -2.81621 0
M  V30 4039 H 404.004 -3.04679 -2.6819 0
M  V30 4040 H 404.77 -4.76743 -0.891136 0
M  V30 4041 H 400.649 -4.17132 -1.9627 0
M  V30 4042 H 404.193 -6.97582 0.0503014 0
M  V30 4043 H 400.09 -6.37277 -1.02706 0
M  V30 4044 H 400.858 -8.18499 -0.0146455 0
M  V30 4045 N 403.521 0.559213 -1.47345 0
M  V30 4046 C 404.769 1.31388 -1.53563 0
M  V30 4047 C 405.09 1.93985 -0.198678 0
M  V30 4048 O 404.36 1.79825 0.777167 0
M  V30 4049 H 402.94 0.487901 -0.565652 0
M  V30 4050 H 405.602 0.65315 -1.8363 0
M  V30 4051 H 404.698 2.10844 -2.30111 0
M  V30 4052 N 404.999 1.35443 0.805782 0
M  V30 4053 C 405.949 1.24972 1.90699 0
M  V30 4054 C 406.933 0.144806 1.60247 0
M  V30 4055 O 408.125 0.376102 1.72958 0
M  V30 4056 C 405.254 1.02475 3.27649 0
M  V30 4057 C 404.34 2.17361 3.64164 0
M  V30 4058 N 404.731 3.42591 3.72109 0
M  V30 4059 C 403.029 2.08765 3.94123 0
M  V30 4060 C 403.73 4.18144 4.04389 0
M  V30 4061 N 402.706 3.4691 4.18515 0
M  V30 4062 H 406.508 2.19852 1.95044 0
M  V30 4063 H 404.022 1.27928 1.00041 0
M  V30 4064 H 406.019 0.930617 4.06381 0
M  V30 4065 H 404.679 0.0848009 3.24589 0
M  V30 4066 H 405.69 3.76932 3.55166 0
M  V30 4067 H 402.367 1.22629 3.99084 0
M  V30 4068 H 403.757 5.26367 4.17597 0
M  V30 4069 N 406.477 -1.02803 1.19454 0
M  V30 4070 C 407.705 -1.79841 1.02297 0
M  V30 4071 C 408.12 -1.83879 -0.428259 0
M  V30 4072 O 407.477 -1.28345 -1.29745 0
M  V30 4073 C 407.528 -3.24852 1.58598 0
M  V30 4074 O 407.249 -3.21097 2.98041 0
M  V30 4075 C 408.75 -4.18485 1.46236 0
M  V30 4076 H 405.97 -0.565936 0.360496 0
M  V30 4077 H 408.514 -1.2948 1.58288 0
M  V30 4078 H 406.669 -3.72401 1.06753 0
M  V30 4079 H 407.083 -4.12033 3.24545 0
M  V30 4080 H 408.557 -5.18121 1.90407 0
M  V30 4081 H 409.034 -4.37254 0.41301 0
M  V30 4082 H 409.64 -3.76811 1.97215 0
M  V30 4083 N 407.956 -0.998596 -1.21925 0
M  V30 4084 C 409.202 -0.688337 -1.91399 0
M  V30 4085 C 409.557 0.771805 -1.76241 0
M  V30 4086 O 408.85 1.55153 -1.1242 0
M  V30 4087 C 409.044 -1.03648 -3.42041 0
M  V30 4088 C 408.873 -2.52892 -3.71855 0
M  V30 4089 C 407.643 -3.19389 -3.91559 0
M  V30 4090 C 409.841 -3.5103 -3.75875 0
M  V30 4091 N 407.823 -4.5805 -4.08734 0
M  V30 4092 C 409.194 -4.75174 -3.98259 0
M  V30 4093 C 411.249 -3.45257 -3.58751 0
M  V30 4094 C 409.952 -5.94247 -4.05294 0
M  V30 4095 C 411.978 -4.63712 -3.67049 0
M  V30 4096 C 411.34 -5.86658 -3.89887 0
M  V30 4097 H 407.439 -0.303251 -0.720807 0
M  V30 4098 H 410.023 -1.27977 -1.46731 0
M  V30 4099 H 408.194 -0.473569 -3.85502 0
M  V30 4100 H 409.926 -0.681619 -3.98919 0
M  V30 4101 H 406.681 -2.69846 -3.89205 0
M  V30 4102 H 407.105 -5.29989 -4.21237 0
M  V30 4103 H 411.747 -2.51215 -3.40075 0
M  V30 4104 H 409.465 -6.88687 -4.22772 0
M  V30 4105 H 413.051 -4.6084 -3.5513 0
M  V30 4106 H 411.931 -6.76786 -3.96144 0
M  V30 4107 N 409.434 1.37368 -0.772513 0
M  V30 4108 C 410.662 2.03942 -0.348588 0
M  V30 4109 C 411.077 1.58264 1.02947 0
M  V30 4110 O 410.434 0.764246 1.65727 0
M  V30 4111 C 410.485 3.5946 -0.38351 0
M  V30 4112 O 410.206 4.03468 -1.70721 0
M  V30 4113 C 411.707 4.4327 0.0519152 0
M  V30 4114 H 408.927 0.654931 -0.145966 0
M  V30 4115 H 411.471 1.75686 -1.04665 0
M  V30 4116 H 409.626 3.86486 0.265978 0
M  V30 4117 H 410.04 4.97991 -1.64636 0
M  V30 4118 H 411.514 5.51995 -0.0236733 0
M  V30 4119 H 411.991 4.2514 1.10238 0
M  V30 4120 H 412.597 4.21471 -0.569415 0
M  V30 4121 N 410.912 0.523116 1.48665 0
M  V30 4122 C 411.875 -0.232592 2.28017 0
M  V30 4123 C 412.875 -0.874021 1.34972 0
M  V30 4124 O 414.065 -0.735132 1.57929 0
M  V30 4125 C 411.197 -1.33586 3.13636 0
M  V30 4126 H 412.39 0.464008 2.96289 0
M  V30 4127 H 409.943 0.278816 1.53793 0
M  V30 4128 H 410.678 -2.06593 2.4998 0
M  V30 4129 H 410.463 -0.881125 3.82071 0
M  V30 4130 H 411.953 -1.86759 3.73511 0
M  V30 4131 N 412.39 -1.55475 0.257931 0
M  V30 4132 C 413.322 -2.19192 -0.669881 0
M  V30 4133 C 414.335 -1.17148 -1.1305 0
M  V30 4134 O 415.524 -1.43959 -1.05537 0
M  V30 4135 C 412.624 -2.79016 -1.92363 0
M  V30 4136 C 411.797 -4.06586 -1.61265 0
M  V30 4137 C 410.856 -4.50622 -2.7171 0
M  V30 4138 O 409.882 -5.16765 -2.38627 0
M  V30 4139 N 411.084 -4.19325 -4.01431 0
M  V30 4140 H 413.849 -2.99441 -0.124635 0
M  V30 4141 H 411.41 -1.6171 0.0783311 0
M  V30 4142 H 413.402 -3.05427 -2.65511 0
M  V30 4143 H 411.972 -2.0286 -2.37837 0
M  V30 4144 H 411.192 -3.87646 -0.715811 0
M  V30 4145 H 412.48 -4.89737 -1.37967 0
M  V30 4146 H 411.878 -3.66247 -4.31138 0
M  V30 4147 H 410.435 -4.50547 -4.7101 0
M  V30 4148 N 413.868 0.0150385 -1.57593 0
M  V30 4149 C 415.284 0.370907 -1.5523 0
M  V30 4150 C 415.484 1.75735 -0.985882 0
M  V30 4151 O 414.54 2.44944 -0.613077 0
M  V30 4152 C 415.853 0.259908 -2.99575 0
M  V30 4153 C 417.401 0.335959 -3.11192 0
M  V30 4154 C 417.876 0.254253 -4.57294 0
M  V30 4155 N 419.367 0.312618 -4.62144 0
M  V30 4156 C 420.102 0.272505 -5.72752 0
M  V30 4157 N 419.598 0.183864 -6.92556 0
M  V30 4158 N 421.391 0.323267 -5.6117 0
M  V30 4159 H 413.542 -0.892104 -1.92757 0
M  V30 4160 H 415.805 -0.340563 -0.884715 0
M  V30 4161 H 415.511 -0.693403 -3.44797 0
M  V30 4162 H 415.385 1.048 -3.62349 0
M  V30 4163 H 417.772 1.27971 -2.65909 0
M  V30 4164 H 417.853 -0.481739 -2.51223 0
M  V30 4165 H 417.497 -0.685887 -5.03247 0
M  V30 4166 H 417.427 1.09024 -5.15191 0
M  V30 4167 H 419.918 0.38307 -3.75953 0
M  V30 4168 H 420.231 0.15874 -7.72637 0
M  V30 4169 H 418.576 0.149708 -6.94839 0
M  V30 4170 H 421.767 0.390607 -4.66467 0
M  V30 4171 H 421.94 0.288539 -6.47357 0
M  V30 4172 N 415.346 1.54954 0.287554 0
M  V30 4173 C 416.623 1.65569 1.04146 0
M  V30 4174 C 417.003 0.512672 2.0478 0
M  V30 4175 O 416.351 -0.489038 2.23205 0
M  V30 4176 C 416.561 3.04163 1.71131 0
M  V30 4177 C 417.909 3.61429 2.22832 0
M  V30 4178 O 418.933 3.06702 1.81141 0
M  V30 4179 O 417.792 4.57281 2.9926 0
M  V30 4180 H 414.886 0.671881 0.482188 0
M  V30 4181 H 417.432 1.67297 0.28457 0
M  V30 4182 H 416.204 3.78796 0.981303 0
M  V30 4183 H 415.827 3.06271 2.53543 0
M  V30 4184 N 416.824 -0.551391 1.4764 0
M  V30 4185 C 418.052 -1.33357 1.58189 0
M  V30 4186 C 418.467 -1.87342 0.234199 0
M  V30 4187 O 417.824 -1.65301 -0.77343 0
M  V30 4188 C 417.875 -2.49942 2.61173 0
M  V30 4189 O 417.596 -1.98187 3.90709 0
M  V30 4190 C 419.097 -3.42072 2.8196 0
M  V30 4191 H 416.317 -0.40631 0.533998 0
M  V30 4192 H 418.861 -0.667367 1.93304 0
M  V30 4193 H 417.016 -3.12489 2.28975 0
M  V30 4194 H 417.43 -2.74342 4.47031 0
M  V30 4195 H 418.904 -4.20278 3.57869 0
M  V30 4196 H 419.381 -3.95978 1.89995 0
M  V30 4197 H 419.987 -2.85336 3.15378 0
M  V30 4198 N 418.302 -1.35869 -0.798587 0
M  V30 4199 C 419.25 -1.29491 -1.93222 0
M  V30 4200 C 420.244 -0.18836 -1.6835 0
M  V30 4201 O 421.45 -0.354822 -1.76468 0
M  V30 4202 H 417.825 -0.402901 -0.63496 0
M  V30 4203 H 419.796 -2.25247 -1.9572 0
M  V30 4204 C 418.545 -1.09184 -3.30112 0
M  V30 4205 H 417.868 -1.93574 -3.49813 0
M  V30 4206 H 419.308 -1.08766 -4.09812 0
M  V30 4207 C 417.767 0.203959 -3.36282 0
M  V30 4208 O 418.297 1.19699 -3.83451 0
M  V30 4209 N 416.503 0.245488 -2.89561 0
M  V30 4210 H 416.05 -0.563223 -2.51367 0
M  V30 4211 H 416.008 1.11219 -2.94071 0
M  V30 4212 N 419.78 1.02168 -1.19998 0
M  V30 4213 C 420.71 2.12488 -0.96804 0
M  V30 4214 C 421.691 1.69799 0.101185 0
M  V30 4215 O 422.876 1.94121 -0.0552993 0
M  V30 4216 C 420.006 3.43479 -0.513776 0
M  V30 4217 C 418.96 3.99884 -1.52566 0
M  V30 4218 C 418.286 5.26582 -0.928214 0
M  V30 4219 C 419.586 4.33861 -2.90795 0
M  V30 4220 H 421.28 2.32149 -1.89069 0
M  V30 4221 H 418.826 1.11564 -0.910468 0
M  V30 4222 H 420.779 4.20036 -0.338774 0
M  V30 4223 H 419.503 3.23561 0.444493 0
M  V30 4224 H 418.162 3.25429 -1.68794 0
M  V30 4225 H 417.81 5.02986 0.0378289 0
M  V30 4226 H 417.51 5.65284 -1.60397 0
M  V30 4227 H 419.034 6.05799 -0.764167 0
M  V30 4228 H 420.448 5.01327 -2.78109 0
M  V30 4229 H 418.845 4.83664 -3.55231 0
M  V30 4230 H 419.915 3.42848 -3.42904 0
M  V30 4231 N 421.258 1.00505 1.21394 0
M  V30 4232 C 422.221 0.570459 2.21987 0
M  V30 4233 C 423.221 -0.353211 1.56873 0
M  V30 4234 O 424.411 -0.14349 1.73608 0
M  V30 4235 C 421.543 -0.168555 3.40483 0
M  V30 4236 H 422.736 1.46021 2.6195 0
M  V30 4237 H 420.289 0.793565 1.34656 0
M  V30 4238 H 421.024 -1.07374 3.06009 0
M  V30 4239 H 420.809 0.494823 3.88965 0
M  V30 4240 H 422.299 -0.460362 4.15055 0
M  V30 4241 N 422.737 -1.36956 0.779787 0
M  V30 4242 C 423.667 -2.32761 0.185651 0
M  V30 4243 C 424.648 -1.56177 -0.673989 0
M  V30 4244 O 425.833 -1.84378 -0.609797 0
M  V30 4245 C 422.963 -3.40418 -0.687964 0
M  V30 4246 C 421.917 -4.27941 0.0710102 0
M  V30 4247 C 421.243 -5.26681 -0.922573 0
M  V30 4248 C 422.543 -5.07006 1.25467 0
M  V30 4249 H 424.237 -2.82698 0.986008 0
M  V30 4250 H 421.783 -1.3592 0.475592 0
M  V30 4251 H 423.736 -4.06423 -1.11348 0
M  V30 4252 H 422.46 -2.89025 -1.52093 0
M  V30 4253 H 421.119 -3.63478 0.47739 0
M  V30 4254 H 420.767 -4.71565 -1.7503 0
M  V30 4255 H 420.467 -5.86103 -0.419237 0
M  V30 4256 H 421.991 -5.9556 -1.34686 0
M  V30 4257 H 423.405 -5.66105 0.905401 0
M  V30 4258 H 421.802 -5.75793 1.69063 0
M  V30 4259 H 422.872 -4.3921 2.05481 0
M  V30 4260 N 424.215 -0.530993 -1.48385 0
M  V30 4261 C 425.145 0.219985 -2.32461 0
M  V30 4262 C 426.126 0.934111 -1.42156 0
M  V30 4263 O 427.311 0.919694 -1.71042 0
M  V30 4264 C 424.441 1.26674 -3.23375 0
M  V30 4265 C 423.395 0.67069 -4.22712 0
M  V30 4266 C 422.721 1.82017 -5.02766 0
M  V30 4267 C 424.021 -0.358268 -5.2107 0
M  V30 4268 H 425.715 -0.48187 -2.95497 0
M  V30 4269 H 423.261 -0.233182 -1.42099 0
M  V30 4270 H 425.214 1.80006 -3.81019 0
M  V30 4271 H 423.938 1.99818 -2.58341 0
M  V30 4272 H 422.597 0.158878 -3.66256 0
M  V30 4273 H 422.245 2.54002 -4.34157 0
M  V30 4274 H 421.945 1.42727 -5.70003 0
M  V30 4275 H 423.469 2.35725 -5.63264 0
M  V30 4276 H 424.883 0.0880081 -5.73232 0
M  V30 4277 H 423.28 -0.66861 -5.96364 0
M  V30 4278 H 424.35 -1.26367 -4.68145 0
M  V30 4279 N 425.693 1.55336 -0.266172 0
M  V30 4280 C 427.104 1.85236 0.233315 0
M  V30 4281 C 427.455 1.18816 1.56132 0
M  V30 4282 O 426.58 0.473307 2.11161 0
M  V30 4283 C 427.175 3.36059 0.430113 0
M  V30 4284 C 425.734 3.66116 0.873842 0
M  V30 4285 C 424.881 2.77274 -0.0380016 0
M  V30 4286 H 427.832 1.51004 -0.488214 0
M  V30 4287 H 427.853 3.58681 1.26998 0
M  V30 4288 H 427.365 3.84373 -0.536588 0
M  V30 4289 H 425.466 3.23295 1.85233 0
M  V30 4290 H 425.579 4.73699 0.717358 0
M  V30 4291 H 423.943 2.50198 0.476759 0
M  V30 4292 H 424.726 3.284 -1.00042 0
M  V30 4293 N 427.171 -0.0066808 1.57599 0
M  V30 4294 C 428.417 -0.693947 1.90558 0
M  V30 4295 C 428.75 -1.73792 0.866594 0
M  V30 4296 O 428.025 -1.94156 -0.115548 0
M  V30 4297 C 428.308 -1.34317 3.34112 0
M  V30 4298 C 428.161 -0.311189 4.48722 0
M  V30 4299 C 429.48 -2.27116 3.7697 0
M  V30 4300 H 426.599 -0.250803 0.693013 0
M  V30 4301 H 429.241 0.043242 1.89951 0
M  V30 4302 H 427.391 -1.9715 3.3476 0
M  V30 4303 H 429.063 0.316944 4.6021 0
M  V30 4304 H 427.306 0.367253 4.32243 0
M  V30 4305 H 427.977 -0.804366 5.46108 0
M  V30 4306 H 430.453 -1.74306 3.77831 0
M  V30 4307 H 429.329 -2.69511 4.78179 0
M  V30 4308 H 429.59 -3.14743 3.10466 0
M  V30 4309 N 428.649 -1.55105 -0.279332 0
M  V30 4310 C 429.897 -1.75066 -1.00977 0
M  V30 4311 C 430.218 -0.551276 -1.87045 0
M  V30 4312 O 429.488 0.433984 -1.91032 0
M  V30 4313 H 428.068 -0.645578 -0.375816 0
M  V30 4314 H 430.73 -1.92497 -0.305089 0
M  V30 4315 H 429.826 -2.64894 -1.65038 0
M  V30 4316 N 430.127 0.543554 -1.4793 0
M  V30 4317 C 431.357 1.32324 -1.58663 0
M  V30 4318 C 431.765 1.8766 -0.240896 0
M  V30 4319 O 431.108 1.66411 0.778011 0
M  V30 4320 C 431.17 2.52094 -2.56299 0
M  V30 4321 C 430.834 2.17944 -4.01683 0
M  V30 4322 C 431.831 1.74422 -4.89768 0
M  V30 4323 C 429.516 2.28884 -4.47121 0
M  V30 4324 C 431.51 1.42287 -6.21316 0
M  V30 4325 C 429.197 1.96361 -5.78693 0
M  V30 4326 C 430.195 1.53132 -6.65612 0
M  V30 4327 O 429.883 1.21029 -7.94737 0
M  V30 4328 H 429.615 0.409174 -0.538101 0
M  V30 4329 H 432.169 0.663887 -1.94375 0
M  V30 4330 H 430.399 3.20965 -2.15681 0
M  V30 4331 H 432.088 3.14165 -2.57012 0
M  V30 4332 H 432.854 1.65452 -4.55907 0
M  V30 4333 H 428.733 2.61488 -3.79664 0
M  V30 4334 H 432.277 1.08472 -6.89115 0
M  V30 4335 H 428.174 2.04967 -6.12094 0
M  V30 4336 H 428.942 1.34543 -8.07366 0
M  V30 4337 N 431.605 1.3629 0.791371 0
M  V30 4338 C 432.568 1.30309 1.88553 0
M  V30 4339 C 433.568 0.211204 1.59407 0
M  V30 4340 O 434.758 0.465865 1.67855 0
M  V30 4341 C 431.89 1.01956 3.25297 0
M  V30 4342 H 433.083 2.27614 1.95273 0
M  V30 4343 H 430.636 1.21035 0.988953 0
M  V30 4344 H 431.371 0.050998 3.2426 0
M  V30 4345 H 431.156 1.80968 3.4784 0
M  V30 4346 H 432.646 1.0037 4.05359 0
M  V30 4347 N 433.083 -1.0153 1.20538 0
M  V30 4348 C 434.36 -1.72327 0.925343 0
M  V30 4349 C 434.74 -2.03383 -0.565547 0
M  V30 4350 O 434.088 -1.69934 -1.52757 0
M  V30 4351 C 434.298 -2.9902 1.79967 0
M  V30 4352 C 435.646 -3.72258 2.04228 0
M  V30 4353 O 436.67 -3.08979 1.77231 0
M  V30 4354 O 435.529 -4.86053 2.4983 0
M  V30 4355 H 432.623 -0.751099 0.346092 0
M  V30 4356 H 435.169 -1.07366 1.31417 0
M  V30 4357 H 433.941 -2.72402 2.80915 0
M  V30 4358 H 433.564 -3.71721 1.41099 0
M  V30 4359 N 434.561 -1.01147 -1.20859 0
M  V30 4360 C 435.809 -0.696486 -1.89719 0
M  V30 4361 C 436.13 0.775788 -1.78904 0
M  V30 4362 O 435.4 1.55759 -1.18811 0
M  V30 4363 H 433.98 -0.254628 -0.702263 0
M  V30 4364 H 436.642 -1.28197 -1.46804 0
M  V30 4365 H 435.738 -0.975357 -2.96468 0
M  V30 4366 N 436.039 1.36541 -0.78704 0
M  V30 4367 C 437.288 1.98552 -0.35494 0
M  V30 4368 C 437.601 1.63171 1.07864 0
M  V30 4369 O 438.807 2.18399 1.61289 0
M  V30 4370 C 437.263 3.55136 -0.583671 0
M  V30 4371 C 436.871 3.99444 -2.02851 0
M  V30 4372 C 438.615 4.2395 -0.215957 0
M  V30 4373 C 436.522 5.48796 -2.20403 0
M  V30 4374 H 435.452 0.742888 -0.128972 0
M  V30 4375 H 438.103 1.5587 -0.968337 0
M  V30 4376 H 436.485 3.95875 0.0994046 0
M  V30 4377 H 437.659 3.6991 -2.74779 0
M  V30 4378 H 435.974 3.43459 -2.35425 0
M  V30 4379 H 438.571 5.33709 -0.325405 0
M  V30 4380 H 438.914 4.07827 0.835646 0
M  V30 4381 H 439.447 3.88565 -0.852175 0
M  V30 4382 H 436.186 5.69864 -3.23937 0
M  V30 4383 H 435.706 5.79964 -1.52977 0
M  V30 4384 H 437.385 6.14986 -2.01002 0
M  V30 4385 N 437.518 0.538854 1.48102 0
M  V30 4386 C 438.765 0.0080018 2.02498 0
M  V30 4387 C 439.093 -1.33437 1.41509 0
M  V30 4388 O 438.348 -1.87709 0.553507 0
M  V30 4389 C 438.647 -0.153808 3.57069 0
M  V30 4390 C 438.313 1.11533 4.36888 0
M  V30 4391 C 436.975 1.46314 4.58417 0
M  V30 4392 C 439.327 1.95718 4.83057 0
M  V30 4393 C 436.655 2.6516 5.23361 0
M  V30 4394 C 439.007 3.13751 5.49312 0
M  V30 4395 C 437.671 3.48866 5.69077 0
M  V30 4396 H 436.941 0.00292807 0.740994 0
M  V30 4397 H 439.588 0.706668 1.77984 0
M  V30 4398 H 437.893 -0.935309 3.80472 0
M  V30 4399 H 439.59 -0.579607 3.96789 0
M  V30 4400 H 436.18 0.834484 4.20398 0
M  V30 4401 H 440.364 1.70158 4.66219 0
M  V30 4402 H 435.62 2.92558 5.36861 0
M  V30 4403 H 439.794 3.79282 5.84053 0
M  V30 4404 H 437.421 4.41054 6.19173 0
M  V30 4405 N 438.996 -1.55193 0.274407 0
M  V30 4406 C 440.412 -1.59401 -0.0797543 0
M  V30 4407 C 440.612 -1.29162 -1.54659 0
M  V30 4408 O 439.668 -1.05215 -2.29534 0
M  V30 4409 C 440.981 -2.99257 0.294238 0
M  V30 4410 C 442.529 -3.12072 0.240796 0
M  V30 4411 C 443.004 -4.54194 0.589218 0
M  V30 4412 N 444.495 -4.60033 0.540744 0
M  V30 4413 C 445.23 -5.68027 0.783147 0
M  V30 4414 N 444.726 -6.8417 1.09013 0
M  V30 4415 N 446.519 -5.57572 0.711993 0
M  V30 4416 H 438.67 -1.73113 1.23067 0
M  V30 4417 H 440.933 -0.807197 0.497129 0
M  V30 4418 H 440.639 -3.26217 1.31435 0
M  V30 4419 H 440.513 -3.75427 -0.365281 0
M  V30 4420 H 442.9 -2.84877 -0.770024 0
M  V30 4421 H 442.981 -2.38117 0.934563 0
M  V30 4422 H 442.625 -4.82115 1.59772 0
M  V30 4423 H 442.555 -5.26448 -0.126331 0
M  V30 4424 H 445.046 -3.76599 0.313327 0
M  V30 4425 H 445.359 -7.6243 1.26178 0
M  V30 4426 H 443.704 -6.85787 1.12789 0
M  V30 4427 H 446.895 -4.65714 0.472014 0
M  V30 4428 H 447.068 -6.41659 0.90429 0
M  V30 4429 N 440.474 -0.00167713 -1.576 0
M  V30 4430 C 441.699 0.69739 -1.95323 0
M  V30 4431 C 442.124 1.6642 -0.876706 0
M  V30 4432 O 441.482 1.80548 0.165007 0
M  V30 4433 C 441.53 1.40403 -3.32144 0
M  V30 4434 O 440.634 2.5185 -3.26566 0
M  V30 4435 H 439.975 0.185373 -0.637599 0
M  V30 4436 H 442.505 -0.0553665 -2.04525 0
M  V30 4437 H 442.515 1.76707 -3.67748 0
M  V30 4438 H 441.19 0.695167 -4.10049 0
M  V30 4439 H 439.767 2.17861 -3.0264 0
M  V30 4440 N 441.952 1.55251 0.271103 0
M  V30 4441 C 442.882 1.9127 1.33933 0
M  V30 4442 C 443.863 0.77478 1.5143 0
M  V30 4443 O 445.048 1.03307 1.64442 0
M  V30 4444 C 442.178 2.18627 2.69851 0
M  V30 4445 C 441.132 3.34442 2.67081 0
M  V30 4446 C 440.458 3.47284 4.06569 0
M  V30 4447 C 441.758 4.70784 2.26185 0
M  V30 4448 H 443.452 2.80744 1.04035 0
M  V30 4449 H 440.998 1.35077 0.499017 0
M  V30 4450 H 442.951 2.42413 3.44694 0
M  V30 4451 H 441.675 1.25955 3.01335 0
M  V30 4452 H 440.334 3.10627 1.94695 0
M  V30 4453 H 439.982 2.52074 4.35279 0
M  V30 4454 H 439.682 4.25152 4.0561 0
M  V30 4455 H 441.206 3.73363 4.83148 0
M  V30 4456 H 442.62 4.94102 2.90751 0
M  V30 4457 H 441.017 5.51582 2.36384 0
M  V30 4458 H 442.087 4.69478 1.21319 0
M  V30 4459 N 443.43 -0.535701 1.48216 0
M  V30 4460 C 444.678 -1.28928 1.55634 0
M  V30 4461 C 444.999 -1.93645 0.229514 0
M  V30 4462 O 444.269 -1.81038 -0.74846 0
M  V30 4463 H 442.849 -0.47884 0.573342 0
M  V30 4464 H 445.511 -0.623853 1.84646 0
M  V30 4465 H 444.607 -2.07157 2.33436 0
M  V30 4466 N 444.908 -1.36708 -0.784132 0
M  V30 4467 C 446.156 -1.30972 -1.53918 0
M  V30 4468 C 446.477 0.109086 -1.94695 0
M  V30 4469 O 445.747 1.05048 -1.65353 0
M  V30 4470 H 444.327 -0.481819 -0.570841 0
M  V30 4471 H 446.989 -1.71063 -0.934002 0
M  V30 4472 H 446.085 -1.94061 -2.44431 0
M  V30 4473 N 446.386 1.0089 -1.21074 0
M  V30 4474 C 447.802 1.2695 -0.967257 0
M  V30 4475 C 448.002 1.9846 0.348673 0
M  V30 4476 O 447.058 2.28459 1.0753 0
M  V30 4477 C 448.371 2.09697 -2.15517 0
M  V30 4478 C 449.919 2.22937 -2.197 0
M  V30 4479 C 450.394 3.09064 -3.37999 0
M  V30 4480 N 451.885 3.16653 -3.38061 0
M  V30 4481 C 452.62 3.8354 -4.26245 0
M  V30 4482 N 452.116 4.52488 -5.2462 0
M  V30 4483 N 453.909 3.80141 -4.14064 0
M  V30 4484 H 446.06 0.529005 -2.05707 0
M  V30 4485 H 448.323 0.296148 -0.900556 0
M  V30 4486 H 448.029 1.64497 -3.10859 0
M  V30 4487 H 447.903 3.10444 -2.14253 0
M  V30 4488 H 450.29 2.67357 -1.24916 0
M  V30 4489 H 450.371 1.21673 -2.2501 0
M  V30 4490 H 450.015 2.65347 -4.33074 0
M  V30 4491 H 449.945 4.10433 -3.29928 0
M  V30 4492 H 452.436 2.67566 -2.66865 0
M  V30 4493 H 452.749 5.01219 -5.88217 0
M  V30 4494 H 451.094 4.51288 -5.28549 0
M  V30 4495 H 454.285 3.25427 -3.36474 0
M  V30 4496 H 454.458 4.31992 -4.82998 0
M  V30 4497 N 447.864 1.01787 1.20321 0
M  V30 4498 C 448.794 0.609625 2.25401 0
M  V30 4499 C 449.775 -0.375951 1.65893 0
M  V30 4500 O 450.96 -0.261101 1.92437 0
M  V30 4501 C 448.09 -0.0515995 3.47262 0
M  V30 4502 C 447.044 0.855095 4.19371 0
M  V30 4503 C 446.37 0.0595757 5.34667 0
M  V30 4504 C 447.67 2.16374 4.75373 0
M  V30 4505 H 449.364 1.48803 2.59804 0
M  V30 4506 H 446.91 0.716934 1.24884 0
M  V30 4507 H 448.863 -0.348764 4.19954 0
M  V30 4508 H 447.587 -0.964726 3.12027 0
M  V30 4509 H 446.246 1.13628 3.48546 0
M  V30 4510 H 445.894 -0.85524 4.95676 0
M  V30 4511 H 445.594 0.663406 5.83843 0
M  V30 4512 H 447.118 -0.231105 6.10162 0
M  V30 4513 H 448.532 1.92885 5.39878 0
M  V30 4514 H 446.929 2.71853 5.34991 0
M  V30 4515 H 447.999 2.82589 3.94045 0
M  V30 4516 N 449.342 -1.36122 0.79427 0
M  V30 4517 C 450.274 -2.28683 0.153903 0
M  V30 4518 C 451.287 -1.49707 -0.639669 0
M  V30 4519 O 452.476 -1.7209 -0.474054 0
M  V30 4520 C 449.576 -3.29202 -0.804921 0
M  V30 4521 C 448.749 -4.37358 -0.060366 0
M  V30 4522 C 447.808 -5.17811 -0.935849 0
M  V30 4523 O 446.834 -5.67853 -0.391309 0
M  V30 4524 N 448.036 -5.34721 -2.25951 0
M  V30 4525 H 450.801 -2.84278 0.949008 0
M  V30 4526 H 448.362 -1.4834 0.648611 0
M  V30 4527 H 450.354 -3.79914 -1.39455 0
M  V30 4528 H 448.924 -2.74212 -1.50088 0
M  V30 4529 H 448.144 -3.87746 0.710382 0
M  V30 4530 H 449.432 -5.06777 0.45324 0
M  V30 4531 H 448.83 -4.95687 -2.72601 0
M  V30 4532 H 447.387 -5.88657 -2.79867 0
M  V30 4533 N 450.82 -0.546701 -1.47814 0
M  V30 4534 C 452.066 -0.0187684 -2.02791 0
M  V30 4535 C 452.399 1.32338 -1.42128 0
M  V30 4536 O 451.674 1.85867 -0.573023 0
M  V30 4537 C 451.957 0.0854985 -3.59998 0
M  V30 4538 C 451.81 -1.283 -4.31114 0
M  V30 4539 C 453.129 0.80412 -4.32691 0
M  V30 4540 H 450.248 -0.0082946 -0.736953 0
M  V30 4541 H 452.89 -0.706962 -1.76358 0
M  V30 4542 H 451.04 0.671609 -3.82651 0
M  V30 4543 H 452.712 -1.91151 -4.19832 0
M  V30 4544 H 450.955 -1.86049 -3.91878 0
M  V30 4545 H 451.626 -1.16287 -5.39612 0
M  V30 4546 H 454.102 0.306576 -4.14969 0
M  V30 4547 H 452.978 0.846011 -5.42341 0
M  V30 4548 H 453.239 1.85802 -4.01161 0
M  V30 4549 N 452.299 1.55045 -0.282633 0
M  V30 4550 C 453.524 2.04628 0.337977 0
M  V30 4551 C 453.949 1.15937 1.48123 0
M  V30 4552 O 453.307 0.159532 1.80597 0
M  V30 4553 C 453.355 3.51854 0.78936 0
M  V30 4554 O 452.459 3.66236 1.89592 0
M  V30 4555 H 451.8 0.660434 0.0687261 0
M  V30 4556 H 454.33 2.00261 -0.419124 0
M  V30 4557 H 454.34 3.93361 1.08311 0
M  V30 4558 H 453.015 4.15873 -0.0470419 0
M  V30 4559 H 451.592 3.36633 1.60413 0
M  V30 4560 N 453.777 0.010035 1.57597 0
M  V30 4561 C 455.026 -0.671945 1.90178 0
M  V30 4562 C 455.339 -1.74376 0.886131 0
M  V30 4563 O 456.545 -2.48107 1.10252 0
M  V30 4564 C 455.001 -1.24636 3.3763 0
M  V30 4565 C 454.609 -0.208838 4.47513 0
M  V30 4566 C 456.353 -1.90595 3.79307 0
M  V30 4567 C 454.26 -0.793814 5.86048 0
M  V30 4568 H 453.19 -0.25474 0.709665 0
M  V30 4569 H 455.841 0.0722206 1.83358 0
M  V30 4570 H 454.223 -2.04152 3.3932 0
M  V30 4571 H 455.397 0.562463 4.57354 0
M  V30 4572 H 453.712 0.350889 4.14919 0
M  V30 4573 H 456.309 -2.35284 4.80151 0
M  V30 4574 H 456.652 -2.74074 3.13352 0
M  V30 4575 H 457.185 -1.17798 3.79958 0
M  V30 4576 H 453.924 0.00240855 6.555 0
M  V30 4577 H 453.444 -1.53404 5.79851 0
M  V30 4578 H 455.123 -1.2894 6.34022 0
M  V30 4579 N 455.255 -1.55392 -0.262866 0
M  V30 4580 C 456.203 -1.8977 -1.345 0
M  V30 4581 C 457.197 -0.775063 -1.50629 0
M  V30 4582 O 458.403 -0.959519 -1.52293 0
M  V30 4583 H 454.778 -0.602467 -0.450041 0
M  V30 4584 H 456.749 -2.80147 -1.02762 0
M  V30 4585 C 455.498 -2.19501 -2.69657 0
M  V30 4586 H 454.821 -3.05378 -2.5804 0
M  V30 4587 H 456.261 -2.47469 -3.44289 0
M  V30 4588 C 454.72 -1.00597 -3.21531 0
M  V30 4589 O 455.25 -0.245768 -4.00947 0
M  V30 4590 N 453.456 -0.800911 -2.79345 0
M  V30 4591 H 453.003 -1.42079 -2.14875 0
M  V30 4592 H 452.961 -0.00697996 -3.14399 0
M  V30 4593 N 456.733 0.527833 -1.48498 0
M  V30 4594 C 457.981 1.28101 -1.56316 0
M  V30 4595 C 458.302 1.9352 -0.239781 0
M  V30 4596 O 457.572 1.81433 0.738849 0
M  V30 4597 H 456.152 0.475793 -0.575873 0
M  V30 4598 H 458.814 0.614052 -1.84974 0
M  V30 4599 H 457.91 2.05916 -2.34532 0
M  V30 4600 N 458.211 1.37122 0.776871 0
M  V30 4601 C 459.627 1.1781 1.07671 0
M  V30 4602 C 459.827 0.0107454 2.01497 0
M  V30 4603 O 458.883 -0.650756 2.4397 0
M  V30 4604 C 460.196 2.49451 1.67913 0
M  V30 4605 C 461.744 2.55927 1.80195 0
M  V30 4606 C 462.219 3.87686 2.43851 0
M  V30 4607 N 463.71 3.891 2.51307 0
M  V30 4608 C 464.445 4.87797 3.014 0
M  V30 4609 N 463.941 5.96888 3.51705 0
M  V30 4610 N 465.734 4.75205 3.00227 0
M  V30 4611 H 457.885 2.11843 0.153778 0
M  V30 4612 H 460.148 0.938927 0.130844 0
M  V30 4613 H 459.854 3.35207 1.06439 0
M  V30 4614 H 459.728 2.66169 2.67271 0
M  V30 4615 H 462.115 1.70582 2.40803 0
M  V30 4616 H 462.196 2.43097 0.796069 0
M  V30 4617 H 461.84 4.73444 1.83884 0
M  V30 4618 H 461.77 3.97817 3.45035 0
M  V30 4619 H 464.261 3.10293 2.157 0
M  V30 4620 H 464.574 6.68155 3.88316 0
M  V30 4621 H 462.919 6.0054 3.49824 0
M  V30 4622 H 466.11 3.89103 2.60224 0
M  V30 4623 H 466.283 5.52279 3.38957 0
M  V30 4624 N 459.689 -1.00246 1.21608 0
M  V30 4625 C 461.105 -1.26435 0.973975 0
M  V30 4626 C 461.305 -1.98642 -0.338143 0
M  V30 4627 O 460.361 -2.29026 -1.06317 0
M  V30 4628 C 461.674 -2.08551 2.16626 0
M  V30 4629 C 463.222 -2.21769 2.20879 0
M  V30 4630 C 463.697 -3.07267 3.39633 0
M  V30 4631 N 465.188 -3.14855 3.39736 0
M  V30 4632 C 465.923 -3.81274 4.28273 0
M  V30 4633 N 465.419 -4.497 5.27012 0
M  V30 4634 N 467.212 -3.7794 4.16074 0
M  V30 4635 H 459.363 -0.518089 2.05984 0
M  V30 4636 H 461.626 -0.291368 0.902113 0
M  V30 4637 H 461.332 -1.62847 3.11727 0
M  V30 4638 H 461.206 -3.09303 2.15897 0
M  V30 4639 H 463.593 -2.66691 1.26332 0
M  V30 4640 H 463.674 -1.20478 2.25652 0
M  V30 4641 H 463.318 -2.63047 4.34475 0
M  V30 4642 H 463.248 -4.08678 3.321 0
M  V30 4643 H 465.739 -2.66147 2.6828 0
M  V30 4644 H 466.052 -4.98092 5.90867 0
M  V30 4645 H 464.397 -4.48479 5.30935 0
M  V30 4646 H 467.588 -3.23638 3.38195 0
M  V30 4647 H 467.761 -4.29424 4.85282 0
M  V30 4648 N 461.167 -1.02423 -1.1978 0
M  V30 4649 C 462.583 -0.740459 -1.41384 0
M  V30 4650 C 462.783 0.676827 -1.89793 0
M  V30 4651 O 461.839 1.4435 -2.0717 0
M  V30 4652 C 463.152 -1.77264 -2.42895 0
M  V30 4653 C 464.7 -1.79165 -2.56649 0
M  V30 4654 C 465.175 -2.8133 -3.6141 0
M  V30 4655 N 466.666 -2.80118 -3.68901 0
M  V30 4656 C 467.401 -3.55824 -4.49641 0
M  V30 4657 N 466.897 -4.41231 -5.34123 0
M  V30 4658 N 468.69 -3.44387 -4.44246 0
M  V30 4659 H 460.841 -1.9391 -0.866764 0
M  V30 4660 H 463.104 -0.838074 -0.443098 0
M  V30 4661 H 462.81 -2.7884 -2.14339 0
M  V30 4662 H 462.684 -1.59108 -3.42001 0
M  V30 4663 H 465.071 -0.782702 -2.84531 0
M  V30 4664 H 465.152 -2.01396 -1.57713 0
M  V30 4665 H 464.796 -3.82394 -3.34271 0
M  V30 4666 H 464.726 -2.56359 -4.59986 0
M  V30 4667 H 467.217 -2.1817 -3.08562 0
M  V30 4668 H 467.53 -4.95747 -5.92836 0
M  V30 4669 H 465.875 -4.45306 -5.33599 0
M  V30 4670 H 469.066 -2.7708 -3.77285 0
M  V30 4671 H 469.239 -4.0364 -5.06931 0
M  V30 4672 N 462.645 1.35699 -0.801477 0
M  V30 4673 C 464.056 1.81415 -0.441073 0
M  V30 4674 C 464.407 1.66595 1.03636 0
M  V30 4675 O 463.532 1.19369 1.80499 0
M  V30 4676 C 464.127 3.29369 -0.793819 0
M  V30 4677 C 462.686 3.73248 -0.486083 0
M  V30 4678 C 461.833 2.57775 -1.02213 0
M  V30 4679 H 464.784 1.23749 -0.993572 0
M  V30 4680 H 464.805 3.80395 -0.0894158 0
M  V30 4681 H 464.317 3.40123 -1.86917 0
M  V30 4682 H 462.418 3.68046 0.580735 0
M  V30 4683 H 462.531 4.68222 -1.01513 0
M  V30 4684 H 460.895 2.50788 -0.444712 0
M  V30 4685 H 461.678 2.71309 -2.10348 0
M  V30 4686 N 464.123 0.554532 1.47522 0
M  V30 4687 C 465.371 0.0294208 2.02079 0
M  V30 4688 C 465.692 -1.32411 1.43151 0
M  V30 4689 O 464.962 -1.863 0.605728 0
M  V30 4690 H 463.542 0.00788672 0.746958 0
M  V30 4691 H 466.204 0.723934 1.80956 0
M  V30 4692 H 465.3 -0.0606745 3.12041 0
M  V30 4693 N 465.601 -1.54893 0.290851 0
M  V30 4694 C 466.847 -2.0023 -0.321867 0
M  V30 4695 C 467.18 -1.179 -1.54316 0
M  V30 4696 O 466.455 -0.25293 -1.92848 0
M  V30 4697 C 466.738 -3.53456 -0.688515 0
M  V30 4698 C 466.591 -4.46532 0.541209 0
M  V30 4699 C 467.91 -4.13057 -1.51895 0
M  V30 4700 H 465.029 -0.727891 -0.115515 0
M  V30 4701 H 467.671 -1.85722 0.400931 0
M  V30 4702 H 465.821 -3.6595 -1.30433 0
M  V30 4703 H 467.493 -4.4596 1.17973 0
M  V30 4704 H 465.736 -4.17545 1.17636 0
M  V30 4705 H 466.407 -5.51475 0.240675 0
M  V30 4706 H 468.883 -4.03937 -0.99872 0
M  V30 4707 H 467.759 -5.20448 -1.74429 0
M  V30 4708 H 468.02 -3.64284 -2.50498 0
M  V30 4709 N 467.08 -0.0183926 -1.57589 0
M  V30 4710 C 468.328 0.661253 -1.90976 0
M  V30 4711 C 468.649 1.73281 -0.894353 0
M  V30 4712 O 467.919 1.9579 0.0656788 0
M  V30 4713 H 466.499 0.247233 -0.704901 0
M  V30 4714 H 469.161 -0.0636639 -1.94796 0
M  V30 4715 H 468.257 1.12083 -2.9128 0
M  V30 4716 N 468.558 1.5553 0.254621 0
M  V30 4717 C 469.974 1.4778 0.602753 0
M  V30 4718 C 470.174 0.707047 1.88688 0
M  V30 4719 O 469.23 0.233288 2.5142 0
M  V30 4720 C 470.543 2.92133 0.712648 0
M  V30 4721 C 472.091 3.02458 0.805488 0
M  V30 4722 C 472.566 4.48102 0.947009 0
M  V30 4723 N 474.057 4.52008 1.01207 0
M  V30 4724 C 474.792 5.61939 1.1407 0
M  V30 4725 N 474.288 6.81697 1.23536 0
M  V30 4726 N 476.081 5.49719 1.17325 0
M  V30 4727 H 468.232 2.04085 -0.588463 0
M  V30 4728 H 470.495 0.926229 -0.202001 0
M  V30 4729 H 470.201 3.51332 -0.160766 0
M  V30 4730 H 470.075 3.42187 1.58707 0
M  V30 4731 H 472.462 2.43344 1.66936 0
M  V30 4732 H 472.543 2.55627 -0.0939266 0
M  V30 4733 H 472.187 5.07824 0.087725 0
M  V30 4734 H 472.117 4.92607 1.86135 0
M  V30 4735 H 474.608 3.65749 0.950577 0
M  V30 4736 H 474.921 7.61228 1.33236 0
M  V30 4737 H 473.266 6.84473 1.20508 0
M  V30 4738 H 476.457 4.55095 1.09573 0
M  V30 4739 H 476.63 6.35432 1.27005 0
M  V30 4740 N 470.036 -0.519951 1.48776 0
M  V30 4741 C 471.285 -1.27175 1.56555 0
M  V30 4742 C 471.598 -1.9401 0.248869 0
M  V30 4743 O 472.804 -2.70725 0.205004 0
M  V30 4744 C 471.26 -2.30811 2.76142 0
M  V30 4745 C 470.868 -1.7 4.14493 0
M  V30 4746 C 472.612 -3.06937 2.9324 0
M  V30 4747 C 470.519 -2.71635 5.25327 0
M  V30 4748 H 469.449 -0.478329 0.582853 0
M  V30 4749 H 472.1 -0.547916 1.75129 0
M  V30 4750 H 470.482 -3.06274 2.51023 0
M  V30 4751 H 471.656 -1.00658 4.49672 0
M  V30 4752 H 469.971 -1.06331 4.02595 0
M  V30 4753 H 472.568 -3.82905 3.73213 0
M  V30 4754 H 472.911 -3.63409 2.03075 0
M  V30 4755 H 473.444 -2.38589 3.18308 0
M  V30 4756 H 470.183 -2.1997 6.1749 0
M  V30 4757 H 469.703 -3.39275 4.94624 0
M  V30 4758 H 471.382 -3.34429 5.53865 0
M  V30 4759 N 471.514 -1.37532 -0.769588 0
M  V30 4760 C 472.754 -1.34261 -1.54122 0
M  V30 4761 C 473.118 0.0717222 -1.91866 0
M  V30 4762 O 474.319 0.22918 -2.67821 0
M  V30 4763 C 472.59 -2.2574 -2.77086 0
M  V30 4764 S 474.149 -2.40339 -3.67127 0
M  V30 4765 H 470.967 -0.476595 -0.527615 0
M  V30 4766 H 473.569 -1.73303 -0.90479 0
M  V30 4767 H 472.273 -3.27417 -2.4744 0
M  V30 4768 H 471.804 -1.87789 -3.45686 0
M  V30 4769 H 473.819 -1.61558 -4.69163 0
M  V30 4770 N 472.992 0.995999 -1.22138 0
M  V30 4771 C 473.925 2.08302 -0.931952 0
M  V30 4772 C 474.903 1.62127 0.123956 0
M  V30 4773 O 476.087 1.88499 -0.00696004 0
M  V30 4774 C 473.214 3.36317 -0.401068 0
M  V30 4775 C 472.26 4.01413 -1.44117 0
M  V30 4776 S 473.093 4.42664 -3.01345 0
M  V30 4777 C 474.249 5.73853 -2.49887 0
M  V30 4778 H 474.482 2.32532 -1.85246 0
M  V30 4779 H 472.015 1.13005 -1.0521 0
M  V30 4780 H 473.973 4.10375 -0.101352 0
M  V30 4781 H 472.634 3.10123 0.498272 0
M  V30 4782 H 471.827 4.9358 -1.01952 0
M  V30 4783 H 471.429 3.33668 -1.68943 0
M  V30 4784 H 473.721 6.50039 -1.90934 0
M  V30 4785 H 474.664 6.20841 -3.40532 0
M  V30 4786 H 475.072 5.31105 -1.9128 0
M  V30 4787 N 474.47 1.03057 1.19235 0
M  V30 4788 C 475.747 0.642608 1.84743 0
M  V30 4789 C 476.127 -0.878577 1.91948 0
M  V30 4790 O 475.475 -1.77597 1.43776 0
M  V30 4791 C 475.685 1.30665 3.23616 0
M  V30 4792 C 477.033 1.43098 3.9976 0
M  V30 4793 O 478.057 1.26396 3.3302 0
M  V30 4794 O 476.916 1.70223 5.19313 0
M  V30 4795 H 474.01 0.223573 0.796206 0
M  V30 4796 H 476.556 1.12883 1.26711 0
M  V30 4797 H 475.328 2.34544 3.13217 0
M  V30 4798 H 474.951 0.808405 3.89295 0
M  V30 4799 N 475.948 -1.35272 0.808662 0
M  V30 4800 C 476.88 -2.28507 0.178149 0
M  V30 4801 C 477.893 -1.50377 -0.623754 0
M  V30 4802 O 479.082 -1.72583 -0.455774 0
M  V30 4803 C 476.182 -3.30038 -0.769959 0
M  V30 4804 C 475.355 -4.37398 -0.0139749 0
M  V30 4805 C 474.414 -5.18775 -0.880875 0
M  V30 4806 O 473.44 -5.68236 -0.331059 0
M  V30 4807 N 474.642 -5.37087 -2.20267 0
M  V30 4808 H 477.407 -2.83255 0.979106 0
M  V30 4809 H 474.968 -1.47643 0.664308 0
M  V30 4810 H 476.96 -3.81371 -1.35418 0
M  V30 4811 H 475.53 -2.75789 -1.47171 0
M  V30 4812 H 474.75 -3.86971 0.751468 0
M  V30 4813 H 476.038 -5.06268 0.506965 0
M  V30 4814 H 475.436 -4.9855 -2.67328 0
M  V30 4815 H 473.993 -5.91593 -2.73608 0
M  V30 4816 N 477.426 -0.562348 -1.47226 0
M  V30 4817 C 478.673 -0.0402165 -2.0246 0
M  V30 4818 C 479.001 1.31169 -1.43614 0
M  V30 4819 O 478.256 1.86805 -0.5833 0
M  V30 4820 C 478.555 0.0969817 -3.57268 0
M  V30 4821 C 478.221 -1.1847 -4.35058 0
M  V30 4822 C 476.883 -1.53588 -4.56031 0
M  V30 4823 C 479.235 -2.03378 -4.79882 0
M  V30 4824 C 476.563 -2.73452 -5.19077 0
M  V30 4825 C 478.915 -3.2245 -5.44251 0
M  V30 4826 C 477.579 -3.57876 -5.63455 0
M  V30 4827 H 476.849 -0.0147163 -0.740854 0
M  V30 4828 H 479.496 -0.734895 -1.76838 0
M  V30 4829 H 477.801 0.87466 -3.81912 0
M  V30 4830 H 479.498 0.516408 -3.97661 0
M  V30 4831 H 476.088 -0.90126 -4.19017 0
M  V30 4832 H 480.272 -1.77553 -4.63453 0
M  V30 4833 H 475.528 -3.01062 -5.32139 0
M  V30 4834 H 479.702 -3.88526 -5.77945 0
M  V30 4835 H 477.329 -4.50849 -6.12078 0
M  V30 4836 N 478.904 1.54736 -0.299062 0
M  V30 4837 C 480.15 2.00397 0.311244 0
M  V30 4838 C 480.483 1.18716 1.53688 0
M  V30 4839 O 479.758 0.263154 1.92712 0
M  V30 4840 C 480.041 3.53817 0.669761 0
M  V30 4841 C 479.894 4.46239 -0.564882 0
M  V30 4842 C 481.213 4.13856 1.49702 0
M  V30 4843 H 478.332 0.728493 0.111653 0
M  V30 4844 H 480.974 1.85506 -0.410774 0
M  V30 4845 H 479.124 3.66637 1.28491 0
M  V30 4846 H 480.796 4.45328 -1.20337 0
M  V30 4847 H 479.039 4.16916 -1.19849 0
M  V30 4848 H 479.71 5.5134 -0.269918 0
M  V30 4849 H 482.186 4.04461 0.977284 0
M  V30 4850 H 481.062 5.21365 1.71666 0
M  V30 4851 H 481.323 3.65608 2.48563 0
M  V30 4852 N 480.382 0.0267497 1.57577 0
M  V30 4853 C 481.628 -0.653371 1.91987 0
M  V30 4854 C 481.961 -1.71915 0.903263 0
M  V30 4855 O 481.236 -1.94358 -0.0743387 0
M  V30 4856 C 481.519 -1.272 3.36886 0
M  V30 4857 C 481.372 -0.215938 4.49281 0
M  V30 4858 C 482.691 -2.19069 3.81703 0
M  V30 4859 H 479.81 -0.236047 0.698177 0
M  V30 4860 H 482.452 0.0835236 1.89816 0
M  V30 4861 H 480.602 -1.90005 3.38866 0
M  V30 4862 H 482.274 0.41449 4.59434 0
M  V30 4863 H 480.517 0.458855 4.31366 0
M  V30 4864 H 481.188 -0.688347 5.47691 0
M  V30 4865 H 483.664 -1.66253 3.81444 0
M  V30 4866 H 482.54 -2.59307 4.83788 0
M  V30 4867 H 482.801 -3.08087 3.17072 0
M  V30 4868 N 481.861 -1.55662 -0.24637 0
M  V30 4869 C 483.138 -1.68272 -0.997198 0
M  V30 4870 C 483.518 -0.566785 -2.03349 0
M  V30 4871 O 482.866 0.429688 -2.24424 0
M  V30 4872 C 483.076 -3.08594 -1.63006 0
M  V30 4873 C 484.424 -3.6721 -2.13171 0
M  V30 4874 O 485.448 -3.11397 -1.72946 0
M  V30 4875 O 484.307 -4.65054 -2.87031 0
M  V30 4876 H 481.401 -0.684429 -0.464205 0
M  V30 4877 H 483.947 -1.67993 -0.240114 0
M  V30 4878 H 482.719 -3.81264 -0.880527 0
M  V30 4879 H 482.342 -3.12886 -2.45333 0
M  V30 4880 N 483.339 0.512053 -1.4905 0
M  V30 4881 C 484.269 1.62365 -1.67809 0
M  V30 4882 C 485.25 1.61737 -0.526809 0
M  V30 4883 O 486.435 1.78651 -0.761404 0
M  V30 4884 C 483.565 3.00895 -1.73435 0
M  V30 4885 C 482.519 3.16387 -2.88242 0
M  V30 4886 C 481.845 4.56157 -2.78971 0
M  V30 4887 C 483.145 2.97457 -4.29321 0
M  V30 4888 H 484.839 1.46921 -2.60873 0
M  V30 4889 H 482.385 0.705379 -1.2554 0
M  V30 4890 H 484.338 3.78549 -1.85145 0
M  V30 4891 H 483.062 3.17403 -0.769619 0
M  V30 4892 H 481.721 2.41155 -2.76116 0
M  V30 4893 H 481.369 4.69525 -1.8043 0
M  V30 4894 H 481.069 4.67465 -3.5602 0
M  V30 4895 H 482.593 5.35886 -2.92675 0
M  V30 4896 H 484.007 3.64888 -4.42187 0
M  V30 4897 H 482.404 3.20245 -5.07507 0
M  V30 4898 H 483.474 1.93692 -4.44535 0
M  V30 4899 N 484.817 1.37938 0.762283 0
M  V30 4900 C 486.065 1.33404 1.51815 0
M  V30 4901 C 486.386 -0.0780975 1.94844 0
M  V30 4902 O 485.656 -1.02405 1.67003 0
M  V30 4903 H 484.236 0.490839 0.563104 0
M  V30 4904 H 486.898 1.72527 0.906669 0
M  V30 4905 H 485.994 1.97926 2.41313 0
M  V30 4906 N 486.295 -0.989507 1.22664 0
M  V30 4907 C 487.706 -1.54406 1.04955 0
M  V30 4908 C 488.057 -1.92366 -0.385951 0
M  V30 4909 O 487.182 -1.75111 -1.27142 0
M  V30 4910 C 487.777 -2.80578 1.89899 0
M  V30 4911 C 486.336 -3.32464 1.76478 0
M  V30 4912 C 485.483 -2.05524 1.86159 0
M  V30 4913 H 488.434 -0.810211 1.3646 0
M  V30 4914 H 488.455 -3.53075 1.4184 0
M  V30 4915 H 487.967 -2.52918 2.94371 0
M  V30 4916 H 486.068 -3.65024 0.747528 0
M  V30 4917 H 486.181 -4.02838 2.59342 0
M  V30 4918 H 484.545 -2.19241 1.29636 0
M  V30 4919 H 485.328 -1.80258 2.92168 0
M  V30 4920 N 487.773 -1.03688 -1.18687 0
M  V30 4921 C 489.021 -0.736572 -1.88199 0
M  V30 4922 C 489.342 0.737665 -1.80509 0
M  V30 4923 O 488.612 1.53204 -1.22088 0
M  V30 4924 H 487.192 -0.269466 -0.696704 0
M  V30 4925 H 489.854 -1.31282 -1.44052 0
M  V30 4926 H 488.95 -1.03802 -2.94332 0
M  V30 4927 N 489.251 1.34841 -0.815825 0
M  V30 4928 C 490.667 1.51543 -0.500697 0
M  V30 4929 C 490.867 1.76261 0.976444 0
M  V30 4930 O 489.923 1.8094 1.76117 0
M  V30 4931 C 491.236 2.68487 -1.35407 0
M  V30 4932 C 492.784 2.82368 -1.35046 0
M  V30 4933 C 493.259 4.02347 -2.18816 0
M  V30 4934 N 494.75 4.09542 -2.16402 0
M  V30 4935 C 495.485 5.01517 -2.77971 0
M  V30 4936 N 494.981 5.98763 -3.48503 0
M  V30 4937 N 496.774 4.94334 -2.67563 0
M  V30 4938 H 488.925 1.17055 -1.77234 0
M  V30 4939 H 491.188 0.573481 -0.754866 0
M  V30 4940 H 490.894 2.56829 -2.40274 0
M  V30 4941 H 490.768 3.63321 -1.01377 0
M  V30 4942 H 493.155 2.93471 -0.309604 0
M  V30 4943 H 493.236 1.88363 -1.73069 0
M  V30 4944 H 492.88 3.92004 -3.22948 0
M  V30 4945 H 492.81 4.95551 -1.78148 0
M  V30 4946 H 495.301 3.39932 -1.65091 0
M  V30 4947 H 495.614 6.6556 -3.92747 0
M  V30 4948 H 493.959 5.98909 -3.52609 0
M  V30 4949 H 497.15 4.1732 -2.12041 0
M  V30 4950 H 497.323 5.6582 -3.15834 0
M  V30 4951 N 490.729 0.570148 1.46925 0
M  V30 4952 C 492.14 0.1402 1.86173 0
M  V30 4953 C 492.491 -1.29347 1.47526 0
M  V30 4954 O 491.616 -1.97508 0.884292 0
M  V30 4955 C 492.211 0.247661 3.37894 0
M  V30 4956 C 490.77 -0.127332 3.76185 0
M  V30 4957 C 489.917 0.589349 2.70965 0
M  V30 4958 H 492.868 0.779117 1.38259 0
M  V30 4959 H 492.889 -0.530341 3.76786 0
M  V30 4960 H 492.401 1.29121 3.65991 0
M  V30 4961 H 490.502 -1.17149 3.53704 0
M  V30 4962 H 490.615 0.240238 4.78497 0
M  V30 4963 H 488.979 0.0309824 2.54681 0
M  V30 4964 H 489.762 1.6343 3.01903 0
M  V30 4965 N 492.207 -1.54576 0.307264 0
M  V30 4966 C 493.484 -1.92377 -0.353605 0
M  V30 4967 C 493.864 -1.23517 -1.71192 0
M  V30 4968 O 493.212 -0.373101 -2.25433 0
M  V30 4969 C 493.422 -3.45928 -0.462039 0
M  V30 4970 C 494.77 -4.18278 -0.729975 0
M  V30 4971 O 495.794 -3.51997 -0.545605 0
M  V30 4972 O 494.653 -5.3563 -1.08454 0
M  V30 4973 H 491.747 -0.802747 -0.198812 0
M  V30 4974 H 494.293 -1.65929 0.355783 0
M  V30 4975 H 493.065 -3.88187 0.492592 0
M  V30 4976 H 492.688 -3.78431 -1.21965 0
M  V30 4977 N 493.685 -0.035106 -1.57561 0
M  V30 4978 C 494.931 0.64318 -1.92331 0
M  V30 4979 C 495.264 1.71434 -0.912368 0
M  V30 4980 O 494.539 1.94395 0.0640303 0
M  V30 4981 C 494.822 1.25411 -3.37556 0
M  V30 4982 C 494.675 0.192109 -4.4939 0
M  V30 4983 C 495.994 2.17041 -3.82859 0
M  V30 4984 H 493.113 0.232341 -0.699419 0
M  V30 4985 H 495.755 -0.0935889 -1.89769 0
M  V30 4986 H 493.905 1.88205 -3.39869 0
M  V30 4987 H 495.577 -0.438849 -4.59208 0
M  V30 4988 H 493.82 -0.481725 -4.31117 0
M  V30 4989 H 494.491 0.659292 -5.48049 0
M  V30 4990 H 496.967 1.64228 -3.8232 0
M  V30 4991 H 495.843 2.56738 -4.85157 0
M  V30 4992 H 496.104 3.06401 -3.18702 0
M  V30 4993 N 495.163 1.55791 0.238111 0
M  V30 4994 C 496.126 1.90239 1.27835 0
M  V30 4995 C 497.126 0.779552 1.4064 0
M  V30 4996 O 498.316 1.04747 1.3919 0
M  V30 4997 C 495.448 2.13859 2.65475 0
M  V30 4998 H 496.641 2.83262 0.985034 0
M  V30 4999 H 494.194 1.48818 0.477799 0
M  V30 5000 H 494.929 1.23334 2.99932 0
M  V30 5001 H 494.714 2.95643 2.57561 0
M  V30 5002 H 496.204 2.41664 3.40571 0
M  V30 5003 N 496.642 -0.504142 1.49319 0
M  V30 5004 C 497.552 -1.63248 1.68486 0
M  V30 5005 C 498.568 -1.64488 0.567432 0
M  V30 5006 O 499.744 -1.82966 0.841749 0
M  V30 5007 C 496.809 -2.99627 1.74426 0
M  V30 5008 C 495.87 -3.09039 2.97982 0
M  V30 5009 C 495.103 -4.38913 3.0363 0
M  V30 5010 O 495.326 -5.27528 2.16958 0
M  V30 5011 O 494.26 -4.53231 3.96062 0
M  V30 5012 H 498.086 -1.50008 2.64067 0
M  V30 5013 H 495.671 -0.680086 1.33023 0
M  V30 5014 H 497.553 -3.80689 1.80705 0
M  V30 5015 H 496.228 -3.13136 0.820233 0
M  V30 5016 H 495.135 -2.27177 2.97223 0
M  V30 5017 H 496.468 -3.00456 3.89855 0
M  V30 5018 N 498.12 -1.38341 -0.754957 0
M  V30 5019 C 499.368 -1.34208 -1.51105 0
M  V30 5020 C 499.689 0.0677634 -1.94882 0
M  V30 5021 O 498.959 1.01517 -1.67544 0
M  V30 5022 H 497.539 -0.493819 -0.560493 0
M  V30 5023 H 500.201 -1.73005 -0.897507 0
M  V30 5024 H 499.297 -1.99203 -2.4026 0
M  V30 5025 N 499.598 0.982988 -1.23187 0
M  V30 5026 C 500.875 1.69814 -0.970707 0
M  V30 5027 C 501.255 2.04811 0.511424 0
M  V30 5028 O 500.603 1.73924 1.48198 0
M  V30 5029 C 500.813 2.94143 -1.87831 0
M  V30 5030 C 502.161 3.66712 -2.14026 0
M  V30 5031 O 503.185 3.04171 -1.8536 0
M  V30 5032 O 502.044 4.79258 -2.62629 0
M  V30 5033 H 499.138 0.741659 -0.365884 0
M  V30 5034 H 501.684 1.03844 -1.34218 0
M  V30 5035 H 500.456 2.64858 -2.88038 0
M  V30 5036 H 500.079 3.6785 -1.50905 0
M  V30 5037 N 501.076 1.04316 1.18135 0
M  V30 5038 C 501.986 0.646876 2.25505 0
M  V30 5039 C 503.002 -0.328008 1.7088 0
M  V30 5040 O 504.178 -0.182309 2.00573 0
M  V30 5041 C 501.243 0.0185664 3.46695 0
M  V30 5042 C 500.304 1.04277 4.16443 0
M  V30 5043 C 499.537 0.444352 5.31847 0
M  V30 5044 O 499.76 -0.748735 5.65465 0
M  V30 5045 O 498.694 1.17428 5.90334 0
M  V30 5046 H 502.52 1.54147 2.61672 0
M  V30 5047 H 500.105 0.814188 1.25265 0
M  V30 5048 H 501.987 -0.331068 4.20097 0
M  V30 5049 H 500.662 -0.849814 3.12346 0
M  V30 5050 H 499.569 1.44425 3.45098 0
M  V30 5051 H 500.902 1.882 4.54798 0
M  V30 5052 N 502.554 -1.34406 0.822964 0
M  V30 5053 C 503.517 -2.2783 0.250271 0
M  V30 5054 C 504.517 -1.50288 -0.571854 0
M  V30 5055 O 505.707 -1.69825 -0.387952 0
M  V30 5056 C 502.839 -3.34663 -0.649137 0
M  V30 5057 H 504.032 -2.79992 1.07444 0
M  V30 5058 H 501.585 -1.44539 0.594829 0
M  V30 5059 H 502.32 -2.87714 -1.49637 0
M  V30 5060 H 502.105 -3.92052 -0.0611199 0
M  V30 5061 H 503.595 -4.04349 -1.04363 0
M  V30 5062 N 504.032 -0.577932 -1.46621 0
M  V30 5063 C 505.281 -0.0594281 -2.01612 0
M  V30 5064 C 505.594 1.30663 -1.45556 0
M  V30 5065 O 506.8 1.91621 -1.92337 0
M  V30 5066 C 505.256 -0.0556666 -3.59857 0
M  V30 5067 C 504.864 -1.41975 -4.24908 0
M  V30 5068 C 506.608 0.409143 -4.22524 0
M  V30 5069 C 504.515 -1.37397 -5.75218 0
M  V30 5070 H 503.445 -0.0184469 -0.753774 0
M  V30 5071 H 506.096 -0.728869 -1.68404 0
M  V30 5072 H 504.478 0.679843 -3.90121 0
M  V30 5073 H 505.652 -2.17461 -4.0626 0
M  V30 5074 H 503.967 -1.82419 -3.74316 0
M  V30 5075 H 506.564 0.46211 -5.32699 0
M  V30 5076 H 506.907 1.42565 -3.91128 0
M  V30 5077 H 507.44 -0.272152 -3.96868 0
M  V30 5078 H 504.179 -2.36714 -6.11267 0
M  V30 5079 H 503.699 -0.661239 -5.96144 0
M  V30 5080 H 505.378 -1.08484 -6.3784 0
M  V30 5081 N 505.51 1.54411 -0.315457 0
M  V30 5082 C 506.44 2.27002 0.547039 0
M  V30 5083 C 507.421 1.27492 1.12605 0
M  V30 5084 O 508.606 1.5629 1.15269 0
M  V30 5085 C 505.736 3.02171 1.71201 0
M  V30 5086 C 504.69 4.0895 1.26268 0
M  V30 5087 C 504.016 4.71915 2.51396 0
M  V30 5088 C 505.316 5.20891 0.383419 0
M  V30 5089 H 507.01 2.99343 -0.0584517 0
M  V30 5090 H 504.556 1.4397 -0.0295527 0
M  V30 5091 H 506.509 3.51681 2.32161 0
M  V30 5092 H 505.233 2.27433 2.34397 0
M  V30 5093 H 503.892 3.60312 0.676062 0
M  V30 5094 H 503.54 3.93801 3.12937 0
M  V30 5095 H 503.24 5.44039 2.22026 0
M  V30 5096 H 504.764 5.24195 3.13133 0
M  V30 5097 H 506.178 5.66206 0.899082 0
M  V30 5098 H 504.575 5.99821 0.182857 0
M  V30 5099 H 505.645 4.81324 -0.587821 0
M  V30 5100 N 506.988 0.0434614 1.5754 0
M  V30 5101 C 508.235 -0.632035 1.92384 0
M  V30 5102 C 508.563 -1.71304 0.921157 0
M  V30 5103 O 507.818 -1.95583 -0.067744 0
M  V30 5104 C 508.117 -1.2738 3.3393 0
M  V30 5105 C 507.783 -0.321757 4.49751 0
M  V30 5106 C 506.445 -0.0597611 4.81163 0
M  V30 5107 C 508.797 0.331158 5.20147 0
M  V30 5108 C 506.125 0.862715 5.80322 0
M  V30 5109 C 508.477 1.24178 6.20292 0
M  V30 5110 C 507.141 1.51252 6.50138 0
M  V30 5111 H 506.411 -0.231278 0.703983 0
M  V30 5112 H 509.058 0.108294 1.91194 0
M  V30 5113 H 507.363 -2.08921 3.3145 0
M  V30 5114 H 509.06 -1.80326 3.58167 0
M  V30 5115 H 505.65 -0.53614 4.25233 0
M  V30 5116 H 509.834 0.141826 4.96097 0
M  V30 5117 H 505.09 1.08003 6.01785 0
M  V30 5118 H 509.264 1.75381 6.73954 0
M  V30 5119 H 506.891 2.22897 7.26788 0
M  V30 5120 N 508.466 -1.55915 -0.229846 0
M  V30 5121 C 509.714 -1.7819 -0.953565 0
M  V30 5122 C 510.035 -0.610504 -1.85197 0
M  V30 5123 O 509.305 0.372988 -1.92316 0
M  V30 5124 H 507.885 -0.657208 -0.355087 0
M  V30 5125 H 510.547 -1.9337 -0.243693 0
M  V30 5126 H 509.643 -2.70011 -1.56527 0
M  V30 5127 N 509.944 0.496216 -1.49584 0
M  V30 5128 C 511.355 1.07765 -1.52459 0
M  V30 5129 C 511.706 1.93679 -0.31353 0
M  V30 5130 O 510.831 2.08588 0.576186 0
M  V30 5131 C 511.426 1.96111 -2.76271 0
M  V30 5132 C 509.985 2.49409 -2.81908 0
M  V30 5133 C 509.132 1.27142 -2.46435 0
M  V30 5134 H 512.083 0.279914 -1.56212 0
M  V30 5135 H 512.104 2.80862 -2.56704 0
M  V30 5136 H 511.616 1.33555 -3.64396 0
M  V30 5137 H 509.717 3.1559 -1.98074 0
M  V30 5138 H 509.83 2.86234 -3.84196 0
M  V30 5139 H 508.194 1.59818 -1.98319 0
M  V30 5140 H 508.977 0.662866 -3.3684 0
M  V30 5141 N 511.423 1.38739 0.74761 0
M  V30 5142 C 512.671 1.35007 1.50391 0
M  V30 5143 C 512.992 -0.0574274 1.94915 0
M  V30 5144 O 512.262 -1.00628 1.6808 0
M  V30 5145 H 510.842 0.496784 0.557866 0
M  V30 5146 H 513.504 1.73479 0.888319 0
M  V30 5147 H 512.6 2.00474 2.392 0
M  V30 5148 N 512.901 -0.976442 1.23707 0
M  V30 5149 C 514.126 -1.75875 1.09922 0
M  V30 5150 C 514.551 -1.84911 -0.34489 0
M  V30 5151 O 513.909 -1.31363 -1.24954 0
M  V30 5152 C 513.957 -3.16179 1.73388 0
M  V30 5153 O 513.061 -4.00124 0.99871 0
M  V30 5154 H 512.402 -0.540954 0.385052 0
M  V30 5155 H 514.932 -1.22546 1.6384 0
M  V30 5156 H 514.942 -3.66741 1.78788 0
M  V30 5157 H 513.617 -3.08917 2.78466 0
M  V30 5158 H 512.194 -3.58624 1.02193 0
M  V30 5159 N 514.379 -1.04941 -1.1758 0
M  V30 5160 C 515.327 -0.64204 -2.23563 0
M  V30 5161 C 516.321 0.335453 -1.66045 0
M  V30 5162 O 517.527 0.20179 -1.78865 0
M  V30 5163 H 513.902 -0.18944 -0.727748 0
M  V30 5164 H 515.873 -1.54609 -2.55223 0
M  V30 5165 C 514.622 -0.0301051 -3.47687 0
M  V30 5166 H 513.945 -0.773339 -3.92249 0
M  V30 5167 H 515.385 0.217592 -4.23441 0
M  V30 5168 C 513.844 1.2225 -3.13937 0
M  V30 5169 O 514.374 2.3122 -3.28482 0
M  V30 5170 N 512.58 1.11917 -2.68185 0
M  V30 5171 H 512.127 0.232403 -2.5655 0
M  V30 5172 H 512.085 1.95814 -2.45976 0
M  V30 5173 N 515.857 1.33968 -0.830081 0
M  V30 5174 C 517.105 1.97672 -0.420734 0
M  V30 5175 C 517.426 1.66111 1.02138 0
M  V30 5176 O 516.696 0.955503 1.71017 0
M  V30 5177 H 515.276 0.73125 -0.152587 0
M  V30 5178 H 517.938 1.63483 -1.0611 0
M  V30 5179 H 517.034 3.07294 -0.545588 0
M  V30 5180 N 517.335 0.585699 1.46312 0
M  V30 5181 C 518.245 -0.148236 2.34131 0
M  V30 5182 C 519.261 -0.882972 1.49932 0
M  V30 5183 O 520.437 -0.845484 1.82794 0
M  V30 5184 C 517.502 -1.14714 3.27172 0
M  V30 5185 C 516.563 -0.416746 4.27272 0
M  V30 5186 C 515.796 -1.36806 5.15868 0
M  V30 5187 O 516.019 -2.60475 5.07454 0
M  V30 5188 O 514.953 -0.877018 5.95476 0
M  V30 5189 H 518.779 0.572882 2.98248 0
M  V30 5190 H 516.364 0.346082 1.45336 0
M  V30 5191 H 518.246 -1.72303 3.84564 0
M  V30 5192 H 516.921 -1.84967 2.65648 0
M  V30 5193 H 515.828 0.201061 3.73559 0
M  V30 5194 H 517.161 0.244872 4.9159 0
M  V30 5195 N 518.813 -1.54241 0.323641 0
M  V30 5196 C 520.224 -1.85975 -0.164405 0
M  V30 5197 C 520.575 -1.24529 -1.51615 0
M  V30 5198 O 519.7 -0.551351 -2.09258 0
M  V30 5199 C 520.295 -3.37424 -0.305091 0
M  V30 5200 C 518.854 -3.69107 -0.737358 0
M  V30 5201 C 518.001 -2.76942 0.140884 0
M  V30 5202 H 520.952 -1.49088 0.543922 0
M  V30 5203 H 520.973 -3.63147 -1.13598 0
M  V30 5204 H 520.485 -3.82116 0.678876 0
M  V30 5205 H 518.586 -3.29947 -1.73107 0
M  V30 5206 H 518.699 -4.76035 -0.541053 0
M  V30 5207 H 517.063 -2.51795 -0.383572 0
M  V30 5208 H 517.846 -3.24461 1.12162 0
M  V30 5209 N 520.291 -0.0518155 -1.57515 0
M  V30 5210 C 521.519 0.631395 -1.9703 0
M  V30 5211 C 521.934 1.64341 -0.92938 0
M  V30 5212 O 521.291 1.82296 0.0863266 0
M  V30 5213 C 521.342 1.31774 -3.36627 0
M  V30 5214 O 521.063 0.346247 -4.3673 0
M  V30 5215 C 522.564 2.09065 -3.90905 0
M  V30 5216 H 519.784 0.172576 -0.648428 0
M  V30 5217 H 522.328 -0.118306 -2.04158 0
M  V30 5218 H 520.483 2.01867 -3.30649 0
M  V30 5219 H 520.897 0.836226 -5.17791 0
M  V30 5220 H 522.371 2.52508 -4.9086 0
M  V30 5221 H 522.848 2.93908 -3.26366 0
M  V30 5222 H 523.454 1.43882 -4.00223 0
M  V30 5223 N 521.769 1.56035 0.221574 0
M  V30 5224 C 522.732 1.91584 1.2581 0
M  V30 5225 C 523.732 0.794425 1.39805 0
M  V30 5226 O 524.922 1.06217 1.38071 0
M  V30 5227 C 522.054 2.16663 2.63192 0
M  V30 5228 H 523.247 2.8429 0.954935 0
M  V30 5229 H 520.8 1.49316 0.461988 0
M  V30 5230 H 521.535 1.26508 2.98607 0
M  V30 5231 H 521.32 2.98358 2.5441 0
M  V30 5232 H 522.81 2.45262 3.37988 0
M  V30 5233 N 523.247 -0.488276 1.49845 0
M  V30 5234 C 524.179 -1.60539 1.63584 0
M  V30 5235 C 525.192 -1.5434 0.517972 0
M  V30 5236 O 526.381 -1.60041 0.790516 0
M  V30 5237 C 523.481 -2.99374 1.58835 0
M  V30 5238 C 522.654 -3.30624 2.86368 0
M  V30 5239 C 521.713 -4.4893 2.74496 0
M  V30 5240 O 520.739 -4.50085 3.48443 0
M  V30 5241 N 521.941 -5.49591 1.86894 0
M  V30 5242 H 524.706 -1.49176 2.59936 0
M  V30 5243 H 522.267 -0.67639 1.47094 0
M  V30 5244 H 524.259 -3.76459 1.48529 0
M  V30 5245 H 522.829 -3.04595 0.702892 0
M  V30 5246 H 522.049 -2.42314 3.1093 0
M  V30 5247 H 523.337 -3.48305 3.70892 0
M  V30 5248 H 522.735 -5.51467 1.26097 0
M  V30 5249 H 521.292 -6.25728 1.82503 0
M  V30 5250 N 524.725 -1.39134 -0.740242 0
M  V30 5251 C 526.002 -1.26584 -1.49117 0
M  V30 5252 C 526.382 0.126902 -2.10718 0
M  V30 5253 O 525.73 1.13765 -1.98166 0
M  V30 5254 C 525.94 -2.38619 -2.54681 0
M  V30 5255 C 527.288 -2.77685 -3.21211 0
M  V30 5256 O 528.312 -2.38029 -2.64991 0
M  V30 5257 O 527.171 -3.46115 -4.22926 0
M  V30 5258 H 524.265 -0.495769 -0.661923 0
M  V30 5259 H 526.811 -1.50995 -0.774514 0
M  V30 5260 H 525.583 -3.3175 -2.07504 0
M  V30 5261 H 525.206 -2.15845 -3.33911 0
M  V30 5262 N 526.204 0.969867 -1.24223 0
M  V30 5263 C 527.45 1.71582 -1.09231 0
M  V30 5264 C 527.805 1.88898 0.365432 0
M  V30 5265 O 527.098 1.43781 1.2664 0
M  V30 5266 C 527.292 3.10883 -1.76314 0
M  V30 5267 C 527.121 3.07155 -3.2846 0
M  V30 5268 C 525.891 3.11757 -3.97663 0
M  V30 5269 C 528.089 2.895 -4.25082 0
M  V30 5270 N 526.071 2.98025 -5.36707 0
M  V30 5271 C 527.442 2.84041 -5.51109 0
M  V30 5272 C 529.497 2.74064 -4.15684 0
M  V30 5273 C 528.2 2.64725 -6.68815 0
M  V30 5274 C 530.226 2.56115 -5.33066 0
M  V30 5275 C 529.588 2.51363 -6.58024 0
M  V30 5276 H 525.687 0.636496 -0.454309 0
M  V30 5277 H 528.271 1.15004 -1.57106 0
M  V30 5278 H 526.442 3.65657 -1.30955 0
M  V30 5279 H 528.174 3.74171 -1.54201 0
M  V30 5280 H 524.929 3.20352 -3.48814 0
M  V30 5281 H 525.353 2.94405 -6.09635 0
M  V30 5282 H 529.995 2.76521 -3.19837 0
M  V30 5283 H 527.713 2.61011 -7.64787 0
M  V30 5284 H 531.299 2.45119 -5.27644 0
M  V30 5285 H 530.179 2.37651 -7.47323 0
M  V30 5286 N 527.682 1.05563 1.17022 0
M  V30 5287 C 528.645 0.664098 2.19368 0
M  V30 5288 C 529.645 -0.286358 1.5823 0
M  V30 5289 O 530.835 -0.069728 1.7406 0
M  V30 5290 C 527.967 -0.0239932 3.40892 0
M  V30 5291 H 529.16 1.57 2.55521 0
M  V30 5292 H 526.713 0.849964 1.31169 0
M  V30 5293 H 527.448 -0.942988 3.10287 0
M  V30 5294 H 527.233 0.659351 3.86516 0
M  V30 5295 H 528.723 -0.283909 4.16634 0
M  V30 5296 N 529.16 -1.33526 0.837174 0
M  V30 5297 C 530.437 -1.92369 0.354065 0
M  V30 5298 C 530.817 -1.76348 -1.16038 0
M  V30 5299 O 530.165 -1.15083 -1.97403 0
M  V30 5300 C 530.375 -3.39728 0.799101 0
M  V30 5301 C 531.723 -4.16877 0.806139 0
M  V30 5302 O 532.747 -3.48373 0.742597 0
M  V30 5303 O 531.606 -5.39166 0.892345 0
M  V30 5304 H 528.7 -0.820952 0.0998378 0
M  V30 5305 H 531.246 -1.42409 0.922913 0
M  V30 5306 H 530.018 -3.45254 1.84162 0
M  V30 5307 H 529.641 -3.97062 0.206731 0
M  V30 5308 N 530.638 -0.59345 -1.46 0
M  V30 5309 C 531.568 0.121192 -2.33185 0
M  V30 5310 C 532.549 0.872977 -1.4599 0
M  V30 5311 O 533.734 0.846321 -1.74789 0
M  V30 5312 C 530.864 1.12844 -3.28456 0
M  V30 5313 C 529.818 0.4908 -4.25177 0
M  V30 5314 C 529.144 1.60529 -5.10034 0
M  V30 5315 C 530.444 -0.578949 -5.19081 0
M  V30 5316 H 532.138 -0.606767 -2.93187 0
M  V30 5317 H 529.684 -0.293242 -1.40983 0
M  V30 5318 H 531.637 1.63684 -3.88311 0
M  V30 5319 H 530.361 1.88681 -2.66584 0
M  V30 5320 H 529.02 0.00339328 -3.666 0
M  V30 5321 H 528.668 2.35359 -4.44539 0
M  V30 5322 H 528.368 1.18422 -5.75543 0
M  V30 5323 H 529.892 2.11623 -5.72755 0
M  V30 5324 H 531.306 -0.155199 -5.7309 0
M  V30 5325 H 529.703 -0.920947 -5.92991 0
M  V30 5326 H 530.773 -1.46109 -4.62364 0
M  V30 5327 N 532.116 1.54067 -0.331816 0
M  V30 5328 C 533.046 2.27569 0.522932 0
M  V30 5329 C 534.027 1.28679 1.11247 0
M  V30 5330 O 535.212 1.57504 1.13605 0
M  V30 5331 C 532.342 3.0397 1.67987 0
M  V30 5332 C 531.296 4.10267 1.21924 0
M  V30 5333 C 530.622 4.74555 2.46377 0
M  V30 5334 C 531.922 5.21268 0.32815 0
M  V30 5335 H 533.616 2.99264 -0.0901977 0
M  V30 5336 H 531.162 1.4393 -0.044821 0
M  V30 5337 H 533.115 3.54123 2.28418 0
M  V30 5338 H 531.839 2.29906 2.31971 0
M  V30 5339 H 530.498 3.61009 0.637809 0
M  V30 5340 H 530.146 3.97098 3.08743 0
M  V30 5341 H 529.846 5.46363 2.16243 0
M  V30 5342 H 531.37 5.27487 3.07555 0
M  V30 5343 H 532.784 5.67128 0.838978 0
M  V30 5344 H 531.181 5.99982 0.119228 0
M  V30 5345 H 532.251 4.80673 -0.638839 0
M  V30 5346 N 533.594 0.0601682 1.57485 0
M  V30 5347 C 534.842 -0.610386 1.92662 0
M  V30 5348 C 535.163 -1.70849 0.939981 0
M  V30 5349 O 534.433 -1.95895 -0.0137455 0
M  V30 5350 H 533.013 -0.228457 0.711208 0
M  V30 5351 H 535.675 0.115288 1.94559 0
M  V30 5352 H 534.771 -1.0432 2.94149 0
M  V30 5353 N 535.072 -1.5615 -0.213296 0
M  V30 5354 C 536.3 -1.83638 -0.953139 0
M  V30 5355 C 536.715 -0.640362 -1.77609 0
M  V30 5356 O 536.072 0.391071 -1.78261 0
M  V30 5357 C 536.123 -3.09735 -1.86405 0
M  V30 5358 O 535.844 -4.24723 -1.07435 0
M  V30 5359 C 537.345 -3.5027 -2.71709 0
M  V30 5360 H 534.565 -0.610263 -0.278962 0
M  V30 5361 H 537.109 -2.03247 -0.226035 0
M  V30 5362 H 535.264 -2.92077 -2.545 0
M  V30 5363 H 535.678 -4.9641 -1.69343 0
M  V30 5364 H 537.152 -4.41515 -3.31313 0
M  V30 5365 H 537.629 -2.72406 -3.44516 0
M  V30 5366 H 538.235 -3.70396 -2.09015 0
M  V30 5367 N 536.55 0.480323 -1.50102 0
M  V30 5368 C 537.799 1.22979 -1.59872 0
M  V30 5369 C 538.112 1.93282 -0.30022 0
M  V30 5370 O 539.318 2.70086 -0.276709 0
M  V30 5371 C 537.774 2.23408 -2.82164 0
M  V30 5372 C 537.382 1.5895 -4.18854 0
M  V30 5373 C 539.126 2.99055 -3.01275 0
M  V30 5374 C 537.033 2.57611 -5.32344 0
M  V30 5375 H 535.963 0.462707 -0.59533 0
M  V30 5376 H 538.614 0.501291 -1.7652 0
M  V30 5377 H 536.996 2.99511 -2.59055 0
M  V30 5378 H 538.17 0.887 -4.52182 0
M  V30 5379 H 536.485 0.956191 -4.05273 0
M  V30 5380 H 539.082 3.72876 -3.83233 0
M  V30 5381 H 539.425 3.57897 -2.12639 0
M  V30 5382 H 539.958 2.30066 -3.24522 0
M  V30 5383 H 536.697 2.03521 -6.23105 0
M  V30 5384 H 536.217 3.26041 -5.03445 0
M  V30 5385 H 537.896 3.19627 -5.62537 0
M  V30 5386 N 538.028 1.39524 0.732853 0
M  V30 5387 C 538.978 1.34905 1.83806 0
M  V30 5388 C 539.962 0.229546 1.59254 0
M  V30 5389 O 541.154 0.467255 1.70721 0
M  V30 5390 C 538.283 1.19699 3.21756 0
M  V30 5391 C 537.369 2.36359 3.5213 0
M  V30 5392 N 537.76 3.61834 3.53426 0
M  V30 5393 C 536.058 2.29363 3.82503 0
M  V30 5394 C 536.759 4.38992 3.81655 0
M  V30 5395 N 535.735 3.68606 3.99538 0
M  V30 5396 H 539.537 2.29882 1.83116 0
M  V30 5397 H 537.051 1.33051 0.931194 0
M  V30 5398 H 539.048 1.14472 4.00876 0
M  V30 5399 H 537.708 0.256739 3.23683 0
M  V30 5400 H 538.719 3.95228 3.34686 0
M  V30 5401 H 535.396 1.43612 3.92023 0
M  V30 5402 H 536.786 5.47763 3.89108 0
M  V30 5403 N 539.506 -0.963266 1.24736 0
M  V30 5404 C 540.736 -1.73913 1.11524 0
M  V30 5405 C 541.144 -1.86218 -0.334612 0
M  V30 5406 O 540.487 -1.3531 -1.24245 0
M  V30 5407 C 540.549 -3.17501 1.68622 0
M  V30 5408 C 540.213 -3.28655 3.17546 0
M  V30 5409 C 541.21 -3.13637 4.14642 0
M  V30 5410 C 538.895 -3.52753 3.5759 0
M  V30 5411 C 540.889 -3.2255 5.49764 0
M  V30 5412 C 538.576 -3.61303 4.92852 0
M  V30 5413 C 539.574 -3.46214 5.88748 0
M  V30 5414 O 539.262 -3.5443 7.2155 0
M  V30 5415 H 538.994 -0.552057 0.390139 0
M  V30 5416 H 541.548 -1.2177 1.65412 0
M  V30 5417 H 539.778 -3.70969 1.09172 0
M  V30 5418 H 541.467 -3.76914 1.50635 0
M  V30 5419 H 542.233 -2.94899 3.85045 0
M  V30 5420 H 538.112 -3.63561 2.83451 0
M  V30 5421 H 541.656 -3.1069 6.24594 0
M  V30 5422 H 537.553 -3.79556 5.22118 0
M  V30 5423 H 538.321 -3.71116 7.29531 0
M  V30 5424 N 540.985 -1.06182 -1.16461 0
M  V30 5425 C 541.895 -0.682671 -2.24448 0
M  V30 5426 C 542.911 0.30078 -1.71381 0
M  V30 5427 O 544.087 0.150376 -2.00838 0
M  V30 5428 C 541.152 -0.0737202 -3.46622 0
M  V30 5429 C 540.213 -1.10889 -4.14731 0
M  V30 5430 C 539.446 -0.528908 -5.31073 0
M  V30 5431 O 539.669 0.65868 -5.66584 0
M  V30 5432 O 538.603 -1.26805 -5.88391 0
M  V30 5433 H 542.429 -1.58291 -2.59187 0
M  V30 5434 H 540.014 -0.834013 -1.23954 0
M  V30 5435 H 541.896 0.264192 -4.20571 0
M  V30 5436 H 540.571 0.800015 -3.13658 0
M  V30 5437 H 539.478 -1.49896 -3.42756 0
M  V30 5438 H 540.811 -1.95412 -4.51747 0
M  V30 5439 N 542.463 1.3308 -0.844243 0
M  V30 5440 C 543.709 1.97898 -0.443206 0
M  V30 5441 C 544.042 1.66699 0.99625 0
M  V30 5442 O 543.317 0.949704 1.69738 0
M  V30 5443 C 543.6 3.53801 -0.670606 0
M  V30 5444 C 543.453 3.94667 -2.15772 0
M  V30 5445 C 544.772 4.39936 -0.120226 0
M  V30 5446 H 541.891 0.718861 -0.162504 0
M  V30 5447 H 544.533 1.57633 -1.06075 0
M  V30 5448 H 542.683 3.88229 -0.14496 0
M  V30 5449 H 544.355 3.70469 -2.74865 0
M  V30 5450 H 542.598 3.44203 -2.6402 0
M  V30 5451 H 543.269 5.03275 -2.26757 0
M  V30 5452 H 545.745 4.12183 -0.5696 0
M  V30 5453 H 544.621 5.4803 -0.308984 0
M  V30 5454 H 544.882 4.31184 0.976347 0
M  V30 5455 N 543.941 0.601185 1.45683 0
M  V30 5456 C 545.187 0.0940202 2.02582 0
M  V30 5457 C 545.52 -1.26972 1.46941 0
M  V30 5458 O 544.795 -1.83613 0.641612 0
M  V30 5459 C 545.078 0.0481715 3.60068 0
M  V30 5460 C 544.931 1.44212 4.26055 0
M  V30 5461 C 546.25 -0.642975 4.35378 0
M  V30 5462 H 543.369 0.0356404 0.736138 0
M  V30 5463 H 546.011 0.771929 1.73612 0
M  V30 5464 H 544.161 -0.529128 3.8488 0
M  V30 5465 H 545.833 2.06601 4.12449 0
M  V30 5466 H 544.076 2.00465 3.84703 0
M  V30 5467 H 544.747 1.36234 5.34925 0
M  V30 5468 H 547.223 -0.152351 4.15821 0
M  V30 5469 H 546.099 -0.644141 5.45107 0
M  V30 5470 H 546.36 -1.70785 4.0778 0
M  V30 5471 N 545.419 -1.53889 0.339982 0
M  V30 5472 C 546.647 -2.05271 -0.259114 0
M  V30 5473 C 547.062 -1.21517 -1.44496 0
M  V30 5474 O 546.419 -0.24966 -1.80784 0
M  V30 5475 C 546.47 -3.55092 -0.677634 0
M  V30 5476 O 546.191 -4.35667 0.461051 0
M  V30 5477 C 547.692 -4.22631 -1.33782 0
M  V30 5478 H 544.912 -0.669085 -0.0506566 0
M  V30 5479 H 547.456 -1.9852 0.490935 0
M  V30 5480 H 545.611 -3.62077 -1.37763 0
M  V30 5481 H 546.025 -5.24343 0.128144 0
M  V30 5482 H 547.499 -5.28861 -1.58145 0
M  V30 5483 H 547.976 -3.74758 -2.29027 0
M  V30 5484 H 548.582 -4.19829 -0.679957 0
M  V30 5485 N 546.897 -0.0685191 -1.57451 0
M  V30 5486 C 548.122 0.613919 -1.98106 0
M  V30 5487 C 548.547 1.62551 -0.946501 0
M  V30 5488 O 547.905 1.81085 0.0882824 0
M  V30 5489 C 547.953 1.26189 -3.378 0
M  V30 5490 O 547.057 2.37773 -3.36954 0
M  V30 5491 H 546.398 0.158163 -0.644888 0
M  V30 5492 H 548.928 -0.142063 -2.04106 0
M  V30 5493 H 548.938 1.60951 -3.74912 0
M  V30 5494 H 547.613 0.520625 -4.12629 0
M  V30 5495 H 546.19 2.04829 -3.11608 0
M  V30 5496 N 548.375 1.56261 0.205012 0
M  V30 5497 C 549.786 1.70056 0.770574 0
M  V30 5498 C 550.137 0.673398 1.84282 0
M  V30 5499 O 549.262 -0.172196 2.15714 0
M  V30 5500 C 549.857 3.08316 1.40451 0
M  V30 5501 C 548.416 3.2391 1.91727 0
M  V30 5502 C 547.563 2.66001 0.783516 0
M  V30 5503 H 550.514 1.58688 -0.019911 0
M  V30 5504 H 550.535 3.05094 2.27371 0
M  V30 5505 H 550.047 3.83053 0.623882 0
M  V30 5506 H 548.148 2.54072 2.7254 0
M  V30 5507 H 548.261 4.3131 2.08588 0
M  V30 5508 H 546.625 2.24915 1.19521 0
M  V30 5509 H 547.408 3.43297 0.0152883 0
M  V30 5510 N 549.853 -0.472356 1.50355 0
M  V30 5511 C 551.269 -0.806001 1.37753 0
M  V30 5512 C 551.469 -1.968 0.432649 0
M  V30 5513 O 550.525 -2.52189 -0.12519 0
M  V30 5514 C 551.838 -1.11926 2.79093 0
M  V30 5515 C 553.386 -1.22579 2.87999 0
M  V30 5516 C 553.861 -1.57218 4.3017 0
M  V30 5517 N 555.352 -1.64212 4.33115 0
M  V30 5518 C 556.087 -1.92517 5.40116 0
M  V30 5519 N 555.583 -2.1885 6.57325 0
M  V30 5520 N 557.376 -1.94008 5.27558 0
M  V30 5521 H 549.527 0.293451 2.10363 0
M  V30 5522 H 551.79 0.0687672 0.945503 0
M  V30 5523 H 551.496 -0.338504 3.50067 0
M  V30 5524 H 551.37 -2.05577 3.16256 0
M  V30 5525 H 553.757 -1.99722 2.17245 0
M  V30 5526 H 553.838 -0.269107 2.54381 0
M  V30 5527 H 553.482 -0.806154 5.01461 0
M  V30 5528 H 553.412 -2.54034 4.61275 0
M  V30 5529 H 555.903 -1.45906 3.48597 0
M  V30 5530 H 556.216 -2.39718 7.3468 0
M  V30 5531 H 554.561 -2.16245 6.60502 0
M  V30 5532 H 557.752 -1.72931 4.34986 0
M  V30 5533 H 557.925 -2.15731 6.11035 0
M  V30 5534 N 551.331 -1.39911 -0.725443 0
M  V30 5535 C 552.579 -1.37382 -1.48224 0
M  V30 5536 C 552.9 0.0264107 -1.94982 0
M  V30 5537 O 552.17 0.979408 -1.6966 0
M  V30 5538 H 550.75 -0.505596 -0.549892 0
M  V30 5539 H 553.412 -1.7487 -0.860608 0
M  V30 5540 H 552.508 -2.04254 -2.3598 0
M  V30 5541 N 552.809 0.956637 -1.25245 0
M  V30 5542 C 554.225 1.22733 -1.02023 0
M  V30 5543 C 554.425 1.99761 0.264186 0
M  V30 5544 O 553.481 2.32814 0.977436 0
M  V30 5545 C 554.794 2.00367 -2.24217 0
M  V30 5546 C 556.342 2.13418 -2.28958 0
M  V30 5547 C 556.817 2.9445 -3.50803 0
M  V30 5548 N 558.308 3.02029 -3.51187 0
M  V30 5549 C 559.043 3.65116 -4.42129 0
M  V30 5550 N 558.539 4.2983 -5.43339 0
M  V30 5551 N 560.332 3.62237 -4.29815 0
M  V30 5552 H 552.483 0.441282 -2.07765 0
M  V30 5553 H 554.746 0.257686 -0.912306 0
M  V30 5554 H 554.452 1.51165 -3.17556 0
M  V30 5555 H 554.326 3.01077 -2.27228 0
M  V30 5556 H 556.713 2.61819 -1.36143 0
M  V30 5557 H 556.794 1.1202 -2.29968 0
M  V30 5558 H 556.438 2.46741 -4.43939 0
M  V30 5559 H 556.368 3.9607 -3.47039 0
M  V30 5560 H 558.859 2.56007 -2.77973 0
M  V30 5561 H 559.172 4.75819 -6.08947 0
M  V30 5562 H 557.517 4.28465 -5.47214 0
M  V30 5563 H 560.708 3.10863 -3.49974 0
M  V30 5564 H 560.881 4.11117 -5.00886 0
M  V30 5565 N 554.287 1.06798 1.15896 0
M  V30 5566 C 555.536 0.782796 1.8589 0
M  V30 5567 C 555.849 -0.693498 1.82893 0
M  V30 5568 O 557.055 -1.09325 2.48516 0
M  V30 5569 C 555.511 1.3502 3.33613 0
M  V30 5570 C 555.119 2.8571 3.45071 0
M  V30 5571 C 556.863 1.14278 4.08829 0
M  V30 5572 C 554.77 3.35669 4.86909 0
M  V30 5573 H 553.7 0.289149 0.696354 0
M  V30 5574 H 556.351 1.28734 1.30766 0
M  V30 5575 H 554.733 0.773407 3.88374 0
M  V30 5576 H 555.907 3.49385 3.00445 0
M  V30 5577 H 554.222 3.05178 2.83294 0
M  V30 5578 H 556.819 1.49087 5.13495 0
M  V30 5579 H 557.162 0.0814575 4.1622 0
M  V30 5580 H 557.695 1.68563 3.60321 0
M  V30 5581 H 554.434 4.41302 4.84698 0
M  V30 5582 H 553.954 2.76745 5.32139 0
M  V30 5583 H 555.633 3.31296 5.55745 0
M  V30 5584 N 555.766 -1.3263 0.851289 0
M  V30 5585 C 556.994 -2.01563 0.466899 0
M  V30 5586 C 557.409 -1.63996 -0.935447 0
M  V30 5587 O 556.766 -0.85957 -1.6099 0
M  V30 5588 C 556.817 -3.56613 0.592433 0
M  V30 5589 O 556.538 -3.92828 1.93954 0
M  V30 5590 C 558.039 -4.42818 0.206612 0
M  V30 5591 H 555.259 -0.645307 0.183902 0
M  V30 5592 H 557.803 -1.69285 1.1473 0
M  V30 5593 H 555.958 -3.87379 -0.0401936 0
M  V30 5594 H 556.372 -4.87545 1.9339 0
M  V30 5595 H 557.846 -5.50918 0.345462 0
M  V30 5596 H 558.323 -4.30844 -0.85264 0
M  V30 5597 H 558.929 -4.17434 0.814176 0
M  V30 5598 N 557.244 -0.608902 -1.45362 0
M  V30 5599 C 558.66 -0.272659 -1.57254 0
M  V30 5600 C 558.86 1.22477 -1.60005 0
M  V30 5601 O 557.916 2.00785 -1.53106 0
M  V30 5602 C 559.229 -0.944991 -2.85465 0
M  V30 5603 C 560.777 -0.921033 -2.99142 0
M  V30 5604 C 561.252 -1.5734 -4.30126 0
M  V30 5605 N 562.743 -1.53895 -4.36887 0
M  V30 5606 C 563.478 -2.01286 -5.36909 0
M  V30 5607 N 562.974 -2.56768 -6.43461 0
M  V30 5608 N 564.767 -1.92046 -5.28275 0
M  V30 5609 H 556.918 -1.58117 -1.4182 0
M  V30 5610 H 559.181 -0.662437 -0.678146 0
M  V30 5611 H 558.887 -1.99941 -2.89338 0
M  V30 5612 H 558.761 -0.469079 -3.74272 0
M  V30 5613 H 561.148 0.124846 -2.94836 0
M  V30 5614 H 561.229 -1.43522 -2.11743 0
M  V30 5615 H 560.873 -2.61862 -4.35191 0
M  V30 5616 H 560.803 -1.03422 -5.16344 0
M  V30 5617 H 563.294 -1.13366 -3.60495 0
M  V30 5618 H 563.607 -2.9072 -7.16032 0
M  V30 5619 H 561.952 -2.60808 -6.44208 0
M  V30 5620 H 565.143 -1.48439 -4.43941 0
M  V30 5621 H 565.316 -2.29293 -6.06077 0
M  V30 5622 N 558.722 1.53707 -0.348139 0
M  V30 5623 C 559.95 2.05406 0.248224 0
M  V30 5624 C 560.365 1.22282 1.43849 0
M  V30 5625 O 559.722 0.259244 1.80649 0
M  V30 5626 C 559.773 3.55446 0.658793 0
M  V30 5627 O 559.494 4.35417 -0.484149 0
M  V30 5628 C 560.995 4.23335 1.31539 0
M  V30 5629 H 558.215 0.669344 0.0471075 0
M  V30 5630 H 560.759 1.98257 -0.501456 0
M  V30 5631 H 558.914 3.62803 1.35841 0
M  V30 5632 H 559.328 5.24268 -0.155949 0
M  V30 5633 H 560.802 5.29692 1.55338 0
M  V30 5634 H 561.279 3.75967 2.27036 0
M  V30 5635 H 561.885 4.20184 0.657683 0
M  V30 5636 N 560.2 0.0768682 1.57412 0
M  V30 5637 C 561.43 -0.5991 1.97723 0
M  V30 5638 C 561.838 -1.63378 0.954166 0
M  V30 5639 O 561.181 -1.83578 -0.0668706 0
M  V30 5640 C 561.243 -1.32078 3.34358 0
M  V30 5641 C 560.907 -0.438985 4.54887 0
M  V30 5642 C 561.904 0.305492 5.19002 0
M  V30 5643 C 559.589 -0.362378 5.00991 0
M  V30 5644 C 561.583 1.11475 6.27576 0
M  V30 5645 C 559.27 0.450543 6.09437 0
M  V30 5646 C 560.268 1.18777 6.72593 0
M  V30 5647 O 559.956 1.98727 7.7895 0
M  V30 5648 H 559.688 -0.166725 0.655117 0
M  V30 5649 H 562.242 0.147337 2.04871 0
M  V30 5650 H 560.472 -2.1134 3.2384 0
M  V30 5651 H 562.161 -1.88949 3.5924 0
M  V30 5652 H 562.927 0.25593 4.84324 0
M  V30 5653 H 558.806 -0.925832 4.51608 0
M  V30 5654 H 562.35 1.69068 6.76803 0
M  V30 5655 H 558.247 0.501651 6.43548 0
M  V30 5656 H 559.015 1.91214 7.95851 0
M  V30 5657 N 561.678 -1.56367 -0.196722 0
M  V30 5658 C 563.094 -1.49916 -0.54749 0
M  V30 5659 C 563.294 -0.77659 -1.85934 0
M  V30 5660 O 562.35 -0.32644 -2.50381 0
M  V30 5661 C 563.663 -2.94577 -0.603734 0
M  V30 5662 C 565.211 -3.05239 -0.692677 0
M  V30 5663 C 565.686 -4.51308 -0.780046 0
M  V30 5664 N 567.177 -4.55453 -0.843616 0
M  V30 5665 C 567.912 -5.65786 -0.931358 0
M  V30 5666 N 567.408 -6.85812 -0.981503 0
M  V30 5667 N 569.201 -5.53695 -0.968421 0
M  V30 5668 H 561.352 -2.01761 0.663803 0
M  V30 5669 H 563.615 -0.918094 0.236238 0
M  V30 5670 H 563.321 -3.50494 0.29105 0
M  V30 5671 H 563.195 -3.47841 -1.45898 0
M  V30 5672 H 565.582 -2.49372 -1.57789 0
M  V30 5673 H 565.663 -2.55103 0.188736 0
M  V30 5674 H 565.307 -5.078 0.100811 0
M  V30 5675 H 565.237 -4.99176 -1.67724 0
M  V30 5676 H 567.728 -3.69025 -0.814176 0
M  V30 5677 H 568.041 -7.65648 -1.04892 0
M  V30 5678 H 566.386 -6.88474 -0.950208 0
M  V30 5679 H 569.577 -4.58848 -0.926072 0
M  V30 5680 H 569.75 -6.39708 -1.03334 0
M  V30 5681 N 563.156 0.464375 -1.50603 0
M  V30 5682 C 564.066 1.58723 -1.72754 0
M  V30 5683 C 565.082 1.62925 -0.610844 0
M  V30 5684 O 566.258 1.8067 -0.889963 0
M  V30 5685 C 563.323 2.94897 -1.82309 0
M  V30 5686 C 562.384 3.0103 -3.06071 0
M  V30 5687 C 561.617 4.30708 -3.1516 0
M  V30 5688 O 561.84 5.2159 -2.30868 0
M  V30 5689 O 560.774 4.42571 -4.0794 0
M  V30 5690 H 564.6 1.42954 -2.67951 0
M  V30 5691 H 562.185 0.644579 -1.3478 0
M  V30 5692 H 564.067 3.75764 -1.90735 0
M  V30 5693 H 562.742 3.10851 -0.902967 0
M  V30 5694 H 561.649 2.19217 -3.03142 0
M  V30 5695 H 562.982 2.90014 -3.97684 0
M  V30 5696 N 564.634 1.40294 0.718013 0
M  V30 5697 C 565.597 1.4012 1.81381 0
M  V30 5698 C 566.597 0.295405 1.58063 0
M  V30 5699 O 567.787 0.554187 1.6515 0
M  V30 5700 C 564.919 1.19056 3.19435 0
M  V30 5701 H 566.112 2.37645 1.82933 0
M  V30 5702 H 563.665 1.26107 0.923405 0
M  V30 5703 H 564.4 0.222809 3.23534 0
M  V30 5704 H 564.185 1.99152 3.37758 0
M  V30 5705 H 565.675 1.21716 3.99468 0
M  V30 5706 N 566.112 -0.949982 1.2575 0
M  V30 5707 C 567.062 -2.03297 1.03221 0
M  V30 5708 C 568.046 -1.60867 -0.0324751 0
M  V30 5709 O 569.238 -1.76047 0.183423 0
M  V30 5710 C 566.367 -3.36938 0.657841 0
M  V30 5711 C 565.453 -3.85878 1.75952 0
M  V30 5712 N 565.844 -4.0756 2.99547 0
M  V30 5713 C 564.142 -4.14709 1.64111 0
M  V30 5714 C 564.843 -4.47961 3.71087 0
M  V30 5715 N 563.819 -4.5416 2.98731 0
M  V30 5716 H 567.621 -2.1806 1.97045 0
M  V30 5717 H 565.135 -1.13516 1.16138 0
M  V30 5718 H 567.132 -4.14155 0.477614 0
M  V30 5719 H 565.792 -3.2355 -0.273025 0
M  V30 5720 H 566.803 -3.94501 3.35544 0
M  V30 5721 H 563.48 -4.10158 0.779527 0
M  V30 5722 H 564.87 -4.73002 4.77199 0
M  V30 5723 N 567.59 -1.07411 -1.15328 0
M  V30 5724 C 568.818 -0.818782 -1.90009 0
M  V30 5725 C 569.233 0.628072 -1.78047 0
M  V30 5726 O 568.59 1.43085 -1.13282 0
M  V30 5727 C 568.641 -1.21874 -3.40337 0
M  V30 5728 O 568.362 -2.60883 -3.51954 0
M  V30 5729 C 569.863 -0.992796 -4.3204 0
M  V30 5730 H 567.083 -0.296007 -0.60218 0
M  V30 5731 H 569.627 -1.43073 -1.46117 0
M  V30 5732 H 567.782 -0.651103 -3.81889 0
M  V30 5733 H 568.196 -2.77216 -4.45255 0
M  V30 5734 H 569.67 -1.32215 -5.35932 0
M  V30 5735 H 570.147 0.0708331 -4.39143 0
M  V30 5736 H 570.753 -1.54537 -3.9623 0
M  V30 5737 N 569.068 1.32177 -0.85831 0
M  V30 5738 C 570.314 1.97417 -0.46417 0
M  V30 5739 C 570.647 1.67746 0.978514 0
M  V30 5740 O 569.922 0.967654 1.68721 0
M  V30 5741 C 570.205 3.53069 -0.708094 0
M  V30 5742 C 570.058 3.92357 -2.19946 0
M  V30 5743 C 571.377 4.39783 -0.166881 0
M  V30 5744 H 568.496 0.717097 -0.17012 0
M  V30 5745 H 571.138 1.56499 -1.07741 0
M  V30 5746 H 569.288 3.88054 -0.186128 0
M  V30 5747 H 570.96 3.67533 -2.78779 0
M  V30 5748 H 569.203 3.41384 -2.67656 0
M  V30 5749 H 569.874 5.00841 -2.32082 0
M  V30 5750 H 572.35 4.11556 -0.613285 0
M  V30 5751 H 571.226 5.47671 -0.367093 0
M  V30 5752 H 571.487 4.32196 0.930559 0
M  V30 5753 N 570.547 0.616602 1.45037 0
M  V30 5754 C 571.457 -0.0985401 2.34393 0
M  V30 5755 C 572.473 -0.850971 1.51771 0
M  V30 5756 O 573.649 -0.806521 1.84546 0
M  V30 5757 C 570.714 -1.07748 3.29532 0
M  V30 5758 C 569.775 -0.326022 4.2806 0
M  V30 5759 C 569.008 -1.25833 5.18654 0
M  V30 5760 O 569.231 -2.49652 5.12864 0
M  V30 5761 O 568.165 -0.750512 5.97203 0
M  V30 5762 H 571.991 0.636016 2.96966 0
M  V30 5763 H 569.576 0.376832 1.44569 0
M  V30 5764 H 571.458 -1.64107 3.88133 0
M  V30 5765 H 570.133 -1.79291 2.69512 0
M  V30 5766 H 569.04 0.280253 3.73049 0
M  V30 5767 H 570.373 0.349091 4.9096 0
M  V30 5768 N 572.025 -1.5352 0.356285 0
M  V30 5769 C 573.25 -2.06007 -0.239961 0
M  V30 5770 C 573.675 -1.22872 -1.42422 0
M  V30 5771 O 573.033 -0.245516 -1.7963 0
M  V30 5772 C 573.081 -3.5522 -0.620587 0
M  V30 5773 O 572.185 -3.74864 -1.71902 0
M  V30 5774 H 571.526 -0.662961 -0.0371377 0
M  V30 5775 H 574.056 -1.98033 0.514194 0
M  V30 5776 H 574.066 -3.98081 -0.894197 0
M  V30 5777 H 572.741 -4.15175 0.245407 0
M  V30 5778 H 571.318 -3.43904 -1.44169 0
M  V30 5779 O 573.542 -0.225101 -1.59924 0
M  V30 5780 H 574.233 0.354711 -1.90425 0
M  V30 END ATOM
M  V30 BEGIN BOND
M  V30 END BOND
M  V30 END CTAB
M  END
$$$$
