drugbank_target|P0A3M6 Penicillin-binding protein 2B (DB00319; DB00415; DB00456; DB00485; DB00493; DB00567; DB00607; DB00713; DB00739; DB01066; DB01140; DB01163; DB01212; DB01331; DB01603; DB03313; DB08795)
 OpenBabel12092120363D

  0  0  0     0  0            999 V3000
M  V30 BEGIN CTAB
M  V30 COUNTS 10334 10425 0 0 0
M  V30 BEGIN ATOM
M  V30 1 H -0.908 1.98254 -0.117106 0
M  V30 2 N 0 1.576 0 0
M  V30 3 C 0.933 2.03868 1.02534 0
M  V30 4 C 1.911 0.928543 1.3348 0
M  V30 5 O 3.095 1.19667 1.45644 0
M  V30 6 C 0.222 2.43627 2.35294 0
M  V30 7 C -0.732 3.65373 2.2001 0
M  V30 8 S 0.101 5.13292 1.52614 0
M  V30 9 C 1.257 5.56322 2.86805 0
M  V30 10 H 1.49 2.90518 0.631377 0
M  V30 11 H -0.977 1.52953 0.210867 0
M  V30 12 H 0.981 2.67203 3.11629 0
M  V30 13 H -0.358 1.57376 2.7183 0
M  V30 14 H -1.165 3.90944 3.18086 0
M  V30 15 H -1.563 3.418 1.51819 0
M  V30 16 H 0.729 5.58782 3.83104 0
M  V30 17 H 1.672 6.56266 2.65933 0
M  V30 18 H 2.08 4.83886 2.90714 0
M  V30 19 N 1.4781 -0.272755 1.55222 0
M  V30 20 C 2.8941 -0.619959 1.47067 0
M  V30 21 C 3.0941 -1.895 0.684978 0
M  V30 22 O 2.1501 -2.51675 0.203931 0
M  V30 23 C 3.4631 -0.746693 2.91282 0
M  V30 24 C 5.0111 -0.840731 3.01497 0
M  V30 25 C 5.4861 -0.99924 4.46967 0
M  V30 26 N 6.9771 -1.06476 4.50796 0
M  V30 27 C 7.7121 -1.20621 5.6057 0
M  V30 28 N 7.2081 -1.31483 6.80209 0
M  V30 29 N 9.0011 -1.23733 5.48312 0
M  V30 30 H 1.1521 0.564606 2.04758 0
M  V30 31 H 3.4151 0.191177 0.928523 0
M  V30 32 H 3.1211 0.119753 3.51496 0
M  V30 33 H 2.9951 -1.6269 3.40311 0
M  V30 34 H 5.3821 -1.69764 2.41379 0
M  V30 35 H 5.4631 0.0640874 2.5572 0
M  V30 36 H 5.1071 -0.146984 5.07687 0
M  V30 37 H 5.0371 -1.91871 4.90401 0
M  V30 38 H 7.5281 -0.993196 3.64615 0
M  V30 39 H 7.8411 -1.42111 7.59621 0
M  V30 40 H 6.1861 -1.28487 6.8302 0
M  V30 41 H 9.3771 -1.14877 4.53785 0
M  V30 42 H 9.5501 -1.34412 6.33906 0
M  V30 43 N 2.9562 -1.48159 -0.537278 0
M  V30 44 C 3.9032 -1.62138 -1.64256 0
M  V30 45 C 4.8732 -0.463668 -1.59497 0
M  V30 46 O 6.0582 -0.686241 -1.78032 0
M  V30 47 C 3.1982 -1.66028 -3.02537 0
M  V30 48 C 2.3112 -2.92855 -3.17585 0
M  V30 49 C 1.4462 -2.87952 -4.46382 0
M  V30 50 C 0.4852 -4.09516 -4.54932 0
M  V30 51 N -0.3778 -4.02733 -5.75109 0
M  V30 52 H 4.4622 -2.56529 -1.51647 0
M  V30 53 H 1.9992 -1.27224 -0.738414 0
M  V30 54 H 3.9572 -1.66265 -3.82638 0
M  V30 55 H 2.5872 -0.751331 -3.13934 0
M  V30 56 H 1.6392 -3.02395 -2.30784 0
M  V30 57 H 2.9512 -3.82822 -3.19764 0
M  V30 58 H 2.1052 -2.8655 -5.34765 0
M  V30 59 H 0.8442 -1.95702 -4.46712 0
M  V30 60 H -0.1508 -4.11201 -3.64957 0
M  V30 61 H 1.0742 -5.02917 -4.56346 0
M  V30 62 H -0.9798 -3.13299 -5.76351 0
M  V30 63 H -1.0628 -4.86397 -5.78752 0
M  V30 64 H 0.2052 -4.05379 -6.65799 0
M  V30 65 N 4.4343 0.785586 -1.36625 0
M  V30 66 C 5.6813 1.54362 -1.31067 0
M  V30 67 C 6.0093 1.94195 0.10893 0
M  V30 68 O 5.2643 1.63262 1.07908 0
M  V30 69 C 5.5633 2.83007 -2.1827 0
M  V30 70 C 5.2293 2.62294 -3.6676 0
M  V30 71 C 3.8913 2.56353 -4.0723 0
M  V30 72 C 6.2433 2.43371 -4.6089 0
M  V30 73 C 3.5713 2.29461 -5.39967 0
M  V30 74 C 5.9233 2.18005 -5.93849 0
M  V30 75 C 4.5873 2.105 -6.3344 0
M  V30 76 H 3.8573 0.564851 -0.479609 0
M  V30 77 H 6.5043 0.906028 -1.68711 0
M  V30 78 H 4.8093 3.51253 -1.73576 0
M  V30 79 H 6.5063 3.40817 -2.11292 0
M  V30 80 H 3.0963 2.67774 -3.34656 0
M  V30 81 H 7.2803 2.46959 -4.30494 0
M  V30 82 H 2.5363 2.22135 -5.69619 0
M  V30 83 H 6.7103 2.02359 -6.66351 0
M  V30 84 H 4.3373 1.89425 -7.36222 0
M  V30 85 N 5.9124 1.20967 1.01018 0
M  V30 86 C 6.8604 0.961223 2.1181 0
M  V30 87 C 7.8544 -0.0897034 1.69162 0
M  V30 88 O 9.0604 0.0612271 1.79896 0
M  V30 89 H 5.4354 0.29355 0.692338 0
M  V30 90 H 7.4064 1.90178 2.29946 0
M  V30 91 C 6.1554 0.536854 3.4353 0
M  V30 92 H 5.4784 1.33713 3.76777 0
M  V30 93 H 6.9184 0.402286 4.22087 0
M  V30 94 C 5.3774 -0.751574 3.2841 0
M  V30 95 O 5.9074 -1.80841 3.58691 0
M  V30 96 N 4.1134 -0.716079 2.81639 0
M  V30 97 H 3.6604 0.144236 2.57196 0
M  V30 98 H 3.6184 -1.57847 2.71904 0
M  V30 99 N 7.3905 -1.2043 1.01659 0
M  V30 100 C 8.6155 -1.94318 0.724942 0
M  V30 101 C 9.0405 -1.74266 -0.708034 0
M  V30 102 O 8.3985 -1.03694 -1.48719 0
M  V30 103 C 8.4465 -3.44486 1.06591 0
M  V30 104 O 7.5505 -4.12017 0.177599 0
M  V30 105 H 6.8915 -0.60708 0.26898 0
M  V30 106 H 9.4215 -1.52861 1.35995 0
M  V30 107 H 9.4315 -3.95106 1.01762 0
M  V30 108 H 8.1065 -3.58404 2.10997 0
M  V30 109 H 6.6835 -3.71821 0.283421 0
M  V30 110 N 8.8686 -0.792821 -1.36206 0
M  V30 111 C 9.8186 -0.166598 -2.27391 0
M  V30 112 C 10.8026 0.651479 -1.47121 0
M  V30 113 O 11.9946 0.510994 -1.69463 0
M  V30 114 C 9.1236 0.695033 -3.36191 0
M  V30 115 C 8.2096 -0.132019 -4.23894 0
M  V30 116 N 8.6006 -1.18822 -4.91645 0
M  V30 117 C 6.8986 0.0885952 -4.45912 0
M  V30 118 C 7.5996 -1.69198 -5.56549 0
M  V30 119 N 6.5756 -1.00065 -5.34311 0
M  V30 120 H 10.3776 -0.974947 -2.77258 0
M  V30 121 H 7.8916 -0.632616 -1.49572 0
M  V30 122 H 9.8886 1.1596 -4.00448 0
M  V30 123 H 8.5486 1.50189 -2.87877 0
M  V30 124 H 9.5596 -1.57069 -4.93507 0
M  V30 125 H 6.2366 0.865688 -4.08426 0
M  V30 126 H 7.6266 -2.57395 -6.20643 0
M  V30 127 N 10.3467 1.47872 -0.545128 0
M  V30 128 C 11.5717 2.07391 -0.0190611 0
M  V30 129 C 11.9967 1.39688 1.25971 0
M  V30 130 O 11.3547 0.467816 1.7516 0
M  V30 131 C 11.4027 3.60188 0.172335 0
M  V30 132 O 10.5067 3.9339 1.23766 0
M  V30 133 H 9.8477 0.662411 -0.0459059 0
M  V30 134 H 12.3777 1.90066 -0.757365 0
M  V30 135 H 12.3877 4.06129 0.390305 0
M  V30 136 H 11.0627 4.08865 -0.761725 0
M  V30 137 H 9.6397 3.5921 1.00114 0
M  V30 138 N 11.8248 0.280983 1.55075 0
M  V30 139 C 13.0738 -0.334784 1.98902 0
M  V30 140 C 13.3868 -1.56534 1.17288 0
M  V30 141 O 14.5928 -2.25443 1.51287 0
M  V30 142 C 13.0488 -0.646994 3.54037 0
M  V30 143 C 12.6568 0.564085 4.44435 0
M  V30 144 C 14.4008 -1.22506 4.06439 0
M  V30 145 C 12.3078 0.226137 5.90967 0
M  V30 146 H 11.2378 -0.128866 0.742906 0
M  V30 147 H 13.8888 0.386556 1.79382 0
M  V30 148 H 12.2708 -1.42739 3.6938 0
M  V30 149 H 13.4448 1.34082 4.40861 0
M  V30 150 H 11.7598 1.0594 4.02698 0
M  V30 151 H 14.3568 -1.49182 5.13468 0
M  V30 152 H 14.6998 -2.16085 3.55827 0
M  V30 153 H 15.2328 -0.50682 3.94558 0
M  V30 154 H 11.9718 1.12996 6.45687 0
M  V30 155 H 11.4918 -0.513717 5.97596 0
M  V30 156 H 13.1708 -0.179539 6.46751 0
M  V30 157 N 13.3029 -1.57598 0.00835791 0
M  V30 158 C 14.7139 -1.7892 -0.53333 0
M  V30 159 C 15.0649 -0.916609 -1.73473 0
M  V30 160 O 14.1899 -0.121336 -2.1606 0
M  V30 161 C 14.7849 -3.24488 -0.974313 0
M  V30 162 C 13.3439 -3.46878 -1.46125 0
M  V30 163 C 12.4909 -2.74157 -0.416302 0
M  V30 164 H 15.4419 -1.56958 0.234495 0
M  V30 165 H 15.4629 -3.3306 -1.83988 0
M  V30 166 H 14.9749 -3.87972 -0.099718 0
M  V30 167 H 13.0759 -2.8862 -2.35646 0
M  V30 168 H 13.1889 -4.55572 -1.48295 0
M  V30 169 H 11.5529 -2.39022 -0.87981 0
M  V30 170 H 12.3359 -3.40345 0.44947 0
M  V30 171 N 14.781 0.264519 -1.55364 0
M  V30 172 C 16.03 0.992812 -1.75574 0
M  V30 173 C 16.343 1.87142 -0.568979 0
M  V30 174 O 17.549 2.63513 -0.653682 0
M  V30 175 C 16.005 1.81519 -3.10771 0
M  V30 176 C 15.613 0.984839 -4.37041 0
M  V30 177 C 17.357 2.53727 -3.40327 0
M  V30 178 C 15.264 1.80209 -5.63275 0
M  V30 179 H 14.194 0.374412 -0.65447 0
M  V30 180 H 16.845 0.248138 -1.81815 0
M  V30 181 H 15.227 2.60115 -2.98591 0
M  V30 182 H 16.401 0.242455 -4.60162 0
M  V30 183 H 14.716 0.37691 -4.14691 0
M  V30 184 H 17.313 3.15292 -4.3185 0
M  V30 185 H 17.656 3.24447 -2.60845 0
M  V30 186 H 18.189 1.82156 -3.53644 0
M  V30 187 H 14.928 1.13896 -6.45529 0
M  V30 188 H 14.448 2.52022 -5.44284 0
M  V30 189 H 16.127 2.37364 -6.01887 0
M  V30 190 N 16.2591 1.48442 0.529413 0
M  V30 191 C 17.6751 1.34575 0.858004 0
M  V30 192 C 17.8751 0.3572 1.98309 0
M  V30 193 O 16.9311 -0.221379 2.51528 0
M  V30 194 C 18.2441 2.74617 1.22499 0
M  V30 195 C 19.7921 2.83109 1.33484 0
M  V30 196 C 20.2671 4.23854 1.73526 0
M  V30 197 N 21.7581 4.2653 1.80628 0
M  V30 198 C 22.4931 5.32372 2.12997 0
M  V30 199 N 21.9891 6.48491 2.43786 0
M  V30 200 N 23.7821 5.19766 2.14008 0
M  V30 201 H 15.9331 2.1133 -0.212925 0
M  V30 202 H 18.1961 0.947439 -0.0326199 0
M  V30 203 H 17.9021 3.4852 0.471905 0
M  V30 204 H 17.7761 3.08177 2.17501 0
M  V30 205 H 20.1631 2.09462 2.0787 0
M  V30 206 H 20.2441 2.53168 0.366027 0
M  V30 207 H 19.8881 4.98018 0.997013 0
M  V30 208 H 19.8181 4.5124 2.71459 0
M  V30 209 H 22.3091 3.42772 1.59108 0
M  V30 210 H 22.6221 7.24993 2.67592 0
M  V30 211 H 20.9671 6.51765 2.41304 0
M  V30 212 H 24.1581 4.28066 1.89412 0
M  V30 213 H 24.3311 6.02354 2.38902 0
M  V30 214 N 17.7372 -0.778329 1.37039 0
M  V30 215 C 18.6672 -1.90546 1.34962 0
M  V30 216 C 19.6482 -1.68681 0.219274 0
M  V30 217 O 20.8332 -1.89634 0.418624 0
M  V30 218 C 17.9632 -3.27734 1.14925 0
M  V30 219 C 16.9172 -3.64147 2.24902 0
M  V30 220 C 16.2432 -4.99806 1.89996 0
M  V30 221 C 17.5432 -3.71579 3.67051 0
M  V30 222 H 19.2372 -1.92541 2.29277 0
M  V30 223 H 16.7832 -0.924948 1.10366 0
M  V30 224 H 18.7362 -4.06215 1.12104 0
M  V30 225 H 17.4602 -3.26154 0.170631 0
M  V30 226 H 16.1192 -2.8797 2.26868 0
M  V30 227 H 15.7672 -4.94759 0.906796 0
M  V30 228 H 15.4672 -5.25139 2.63634 0
M  V30 229 H 16.9912 -5.80694 1.88749 0
M  V30 230 H 18.4052 -4.40227 3.67251 0
M  V30 231 H 16.8022 -4.08405 4.39688 0
M  V30 232 H 17.8722 -2.72404 4.01154 0
M  V30 233 N 19.2153 -1.21501 -1.00376 0
M  V30 234 C 20.1633 -0.972442 -2.11297 0
M  V30 235 C 21.1573 0.080731 -1.69208 0
M  V30 236 O 22.3633 -0.0707666 -1.79861 0
M  V30 237 H 18.7383 -0.297218 -0.690772 0
M  V30 238 H 20.7093 -1.91394 -2.28934 0
M  V30 239 C 19.4583 -0.555065 -3.43241 0
M  V30 240 H 18.7813 -1.35709 -3.76062 0
M  V30 241 H 20.2213 -0.424664 -4.21868 0
M  V30 242 C 18.6803 0.734147 -3.28804 0
M  V30 243 O 19.2103 1.78937 -3.59645 0
M  V30 244 N 17.4163 0.701133 -2.82015 0
M  V30 245 H 16.9633 -0.157874 -2.57116 0
M  V30 246 H 16.9213 1.56403 -2.72737 0
M  V30 247 N 20.6934 1.19889 -1.02296 0
M  V30 248 C 21.6234 2.25141 -0.619174 0
M  V30 249 C 22.6044 1.66051 0.368915 0
M  V30 250 O 23.7894 1.92546 0.252941 0
M  V30 251 C 20.9194 3.4728 0.0368783 0
M  V30 252 C 19.8734 4.19005 -0.872865 0
M  V30 253 C 19.1994 5.34637 -0.0822402 0
M  V30 254 C 20.4994 4.74452 -2.18387 0
M  V30 255 H 22.1934 2.59171 -1.49903 0
M  V30 256 H 19.7394 1.24579 -0.722222 0
M  V30 257 H 21.6924 4.20098 0.330958 0
M  V30 258 H 20.4164 3.12433 0.95149 0
M  V30 259 H 19.0754 3.48061 -1.15105 0
M  V30 260 H 18.7234 4.96034 0.83422 0
M  V30 261 H 18.4234 5.83557 -0.688149 0
M  V30 262 H 19.9474 6.10255 0.205238 0
M  V30 263 H 21.3614 5.39055 -1.95172 0
M  V30 264 H 19.7584 5.33834 -2.74119 0
M  V30 265 H 20.8284 3.92844 -2.84257 0
M  V30 266 N 22.1715 0.800033 1.35784 0
M  V30 267 C 23.1015 0.220184 2.3246 0
M  V30 268 C 24.0825 -0.65073 1.57161 0
M  V30 269 O 25.2675 -0.582359 1.85263 0
M  V30 270 C 22.3975 -0.637353 3.41402 0
M  V30 271 C 21.3515 0.134531 4.27789 0
M  V30 272 C 20.6775 -0.844285 5.27992 0
M  V30 273 C 21.9775 1.32979 5.05088 0
M  V30 274 H 23.6715 1.02787 2.81203 0
M  V30 275 H 21.2175 0.495717 1.35199 0
M  V30 276 H 23.1705 -1.05302 4.08031 0
M  V30 277 H 21.8945 -1.47785 2.91251 0
M  V30 278 H 20.5535 0.531296 3.6273 0
M  V30 279 H 20.2015 -1.68011 4.74111 0
M  V30 280 H 19.9015 -0.332184 5.8666 0
M  V30 281 H 21.4255 -1.2583 5.97494 0
M  V30 282 H 22.8395 0.98934 5.64699 0
M  V30 283 H 21.2365 1.77593 5.7322 0
M  V30 284 H 22.3065 2.11978 4.36111 0
M  V30 285 N 23.6496 -1.47581 0.552962 0
M  V30 286 C 24.8966 -2.02482 0.0273243 0
M  V30 287 C 25.2246 -1.42776 -1.32081 0
M  V30 288 O 24.4796 -0.571393 -1.87173 0
M  V30 289 C 24.7786 -3.57199 -0.119728 0
M  V30 290 C 24.4446 -4.35804 1.15697 0
M  V30 291 C 23.1066 -4.57 1.50681 0
M  V30 292 C 25.4586 -4.81167 2.00319 0
M  V30 293 C 22.7866 -5.20807 2.70142 0
M  V30 294 C 25.1386 -5.46293 3.18978 0
M  V30 295 C 23.8026 -5.65722 3.54281 0
M  V30 296 H 23.0726 -0.740933 0.00999866 0
M  V30 297 H 25.7196 -1.77302 0.72362 0
M  V30 298 H 24.0246 -3.81348 -0.89896 0
M  V30 299 H 25.7216 -3.97324 -0.541718 0
M  V30 300 H 22.3116 -4.19582 0.874561 0
M  V30 301 H 26.4956 -4.64574 1.74599 0
M  V30 302 H 21.7516 -5.34045 2.97668 0
M  V30 303 H 25.9256 -5.80407 3.84838 0
M  V30 304 H 23.5526 -6.14936 4.46942 0
M  V30 305 N 25.1277 -0.289203 -1.54924 0
M  V30 306 C 26.3527 0.329299 -2.04769 0
M  V30 307 C 26.7777 1.4763 -1.16564 0
M  V30 308 O 26.1357 1.80527 -0.167186 0
M  V30 309 C 26.1837 0.774438 -3.52186 0
M  V30 310 O 25.2877 1.88038 -3.67036 0
M  V30 311 H 24.6287 0.0659259 -0.660719 0
M  V30 312 H 27.1587 -0.42761 -2.00082 0
M  V30 313 H 27.1687 1.06642 -3.93816 0
M  V30 314 H 25.8437 -0.0646707 -4.1585 0
M  V30 315 H 24.4207 1.58985 -3.3731 0
M  V30 316 N 26.6058 1.57591 -0.0167156 0
M  V30 317 C 27.8548 1.90461 0.663877 0
M  V30 318 C 28.1678 0.893515 1.73999 0
M  V30 319 O 29.3738 1.11302 2.47637 0
M  V30 320 C 27.8298 3.38155 1.23204 0
M  V30 321 C 27.4378 4.47597 0.189866 0
M  V30 322 C 29.1818 3.80111 1.88986 0
M  V30 323 C 27.0888 5.86379 0.768964 0
M  V30 324 H 26.0188 0.710738 0.251729 0
M  V30 325 H 28.6698 1.83326 -0.0799926 0
M  V30 326 H 27.0518 3.40182 2.02712 0
M  V30 327 H 28.2258 4.57112 -0.581846 0
M  V30 328 H 26.5408 4.14766 -0.368475 0
M  V30 329 H 29.1378 4.81145 2.33247 0
M  V30 330 H 29.4808 3.14511 2.72743 0
M  V30 331 H 30.0138 3.80454 1.16187 0
M  V30 332 H 26.7528 6.55493 -0.0301957 0
M  V30 333 H 26.2728 5.80496 1.50945 0
M  V30 334 H 27.9518 6.34563 1.26251 0
M  V30 335 N 28.0839 -0.256276 1.55502 0
M  V30 336 C 29.3299 -0.987079 1.77157 0
M  V30 337 C 29.6629 -1.85327 0.580315 0
M  V30 338 O 28.9379 -1.89874 -0.421686 0
M  V30 339 C 29.2209 -1.85553 3.08613 0
M  V30 340 C 29.0739 -1.01816 4.38125 0
M  V30 341 C 30.3929 -2.8397 3.36228 0
M  V30 342 H 27.5119 -0.357428 0.644526 0
M  V30 343 H 30.1539 -0.258239 1.88237 0
M  V30 344 H 28.3039 -2.47695 2.99298 0
M  V30 345 H 29.9759 -0.416159 4.59419 0
M  V30 346 H 28.2189 -0.322178 4.32602 0
M  V30 347 H 28.8899 -1.65939 5.26468 0
M  V30 348 H 31.3659 -2.31964 3.45445 0
M  V30 349 H 30.2419 -3.41864 4.29442 0
M  V30 350 H 30.5029 -3.59955 2.56681 0
M  V30 351 N 29.562 -1.4872 -0.521534 0
M  V30 352 C 30.811 -1.56419 -1.27341 0
M  V30 353 C 31.124 -0.246805 -1.94037 0
M  V30 354 O 32.33 -0.202122 -2.70747 0
M  V30 355 C 30.786 -2.75896 -2.31105 0
M  V30 356 C 30.394 -4.14311 -1.70441 0
M  V30 357 C 32.138 -2.92913 -3.07249 0
M  V30 358 C 30.045 -5.25038 -2.72194 0
M  V30 359 H 28.975 -0.582344 -0.478949 0
M  V30 360 H 31.626 -1.75071 -0.549779 0
M  V30 361 H 30.008 -2.50697 -3.06541 0
M  V30 362 H 31.182 -4.49564 -1.01136 0
M  V30 363 H 29.497 -4.02482 -1.06759 0
M  V30 364 H 32.094 -3.72805 -3.83302 0
M  V30 365 H 32.437 -2.02689 -3.63625 0
M  V30 366 H 32.97 -3.18054 -2.38928 0
M  V30 367 H 29.709 -6.17255 -2.20627 0
M  V30 368 H 29.229 -4.94263 -3.39801 0
M  V30 369 H 30.908 -5.53508 -3.35019 0
M  V30 370 N 31.0401 0.771051 -1.3745 0
M  V30 371 C 31.9701 1.89827 -1.3597 0
M  V30 372 C 32.9511 1.68562 -0.228216 0
M  V30 373 O 34.1361 1.8941 -0.428675 0
M  V30 374 C 31.2661 3.2712 -1.16662 0
M  V30 375 C 30.2201 3.6295 -2.2683 0
M  V30 376 C 29.5461 4.98791 -1.92644 0
M  V30 377 C 30.8461 3.69627 -3.69017 0
M  V30 378 H 32.5401 1.91323 -2.30295 0
M  V30 379 H 30.0861 0.919082 -1.10855 0
M  V30 380 H 32.0391 4.05615 -1.14256 0
M  V30 381 H 30.7631 3.26059 -0.187926 0
M  V30 382 H 29.4221 2.86763 -2.28392 0
M  V30 383 H 29.0701 4.94271 -0.933021 0
M  V30 384 H 28.7701 5.23733 -2.66416 0
M  V30 385 H 30.2941 5.79685 -1.91826 0
M  V30 386 H 31.7081 4.38273 -3.69581 0
M  V30 387 H 30.1051 4.06067 -4.41848 0
M  V30 388 H 31.1751 2.70273 -4.02592 0
M  V30 389 N 32.5182 1.22032 0.997298 0
M  V30 390 C 33.4482 1.01065 2.10495 0
M  V30 391 C 34.4292 -0.0669542 1.69968 0
M  V30 392 O 35.6142 0.0943987 1.9397 0
M  V30 393 C 32.7442 0.582874 3.42374 0
M  V30 394 C 31.6982 1.60592 3.96729 0
M  V30 395 C 31.0242 1.03412 5.24605 0
M  V30 396 C 32.3242 2.99478 4.27914 0
M  V30 397 H 34.0182 1.93708 2.28292 0
M  V30 398 H 31.5642 0.932761 1.09707 0
M  V30 399 H 33.5172 0.423332 4.19268 0
M  V30 400 H 32.2412 -0.379213 3.24391 0
M  V30 401 H 30.9002 1.75316 3.21963 0
M  V30 402 H 30.5482 0.063518 5.0296 0
M  V30 403 H 30.2482 1.71754 5.61938 0
M  V30 404 H 31.7722 0.886066 6.04137 0
M  V30 405 H 33.1862 2.88153 4.95622 0
M  V30 406 H 31.5832 3.64903 4.76409 0
M  V30 407 H 32.6532 3.49742 3.3587 0
M  V30 408 N 33.9963 -1.19345 1.0293 0
M  V30 409 C 35.2433 -1.89038 0.726008 0
M  V30 410 C 35.5713 -1.79649 -0.745427 0
M  V30 411 O 34.8263 -1.18354 -1.55855 0
M  V30 412 C 35.1253 -3.39292 1.12319 0
M  V30 413 C 34.7913 -3.68885 2.59297 0
M  V30 414 C 33.4533 -3.76671 2.99453 0
M  V30 415 C 35.8053 -3.82178 3.54386 0
M  V30 416 C 33.1333 -3.9522 4.33611 0
M  V30 417 C 35.4853 -4.0224 4.88248 0
M  V30 418 C 34.1493 -4.08259 5.28092 0
M  V30 419 H 33.4193 -0.691739 0.265665 0
M  V30 420 H 36.0663 -1.41328 1.29223 0
M  V30 421 H 34.3713 -3.88903 0.475584 0
M  V30 422 H 36.0683 -3.91536 0.866037 0
M  V30 423 H 32.6583 -3.63433 2.27189 0
M  V30 424 H 36.8423 -3.75505 3.24514 0
M  V30 425 H 32.0983 -3.98119 4.64016 0
M  V30 426 H 36.2723 -4.11468 5.61843 0
M  V30 427 H 33.8993 -4.22384 6.32057 0
M  V30 428 N 35.4744 -0.807222 -1.35358 0
M  V30 429 C 36.4074 -0.163572 -2.27613 0
M  V30 430 C 37.3854 0.670817 -1.48118 0
M  V30 431 O 38.5694 0.63796 -1.77376 0
M  V30 432 C 35.6964 0.773015 -3.29761 0
M  V30 433 C 34.7424 0.0181653 -4.26496 0
M  V30 434 S 35.5754 -1.31831 -5.19019 0
M  V30 435 C 36.7314 -0.38619 -6.24707 0
M  V30 436 H 36.9644 -0.945757 -2.81856 0
M  V30 437 H 34.4974 -0.602315 -1.42167 0
M  V30 438 H 36.4554 1.30788 -3.89108 0
M  V30 439 H 35.1164 1.52859 -2.74396 0
M  V30 440 H 34.3094 0.729534 -4.98692 0
M  V30 441 H 33.9114 -0.446761 -3.71322 0
M  V30 442 H 36.2034 0.428295 -6.76145 0
M  V30 443 H 37.1464 -1.07736 -6.99856 0
M  V30 444 H 37.5544 0.018398 -5.64497 0
M  V30 445 N 36.9525 1.47285 -0.560781 0
M  V30 446 C 38.1805 2.06855 -0.0430262 0
M  V30 447 C 38.5955 1.41291 1.25229 0
M  V30 448 O 37.9525 0.510648 1.7521 0
M  V30 449 C 38.0035 3.61178 0.152518 0
M  V30 450 O 37.7245 4.24285 -1.0915 0
M  V30 451 C 39.2255 4.37624 0.707145 0
M  V30 452 H 36.4455 0.669319 -0.0474652 0
M  V30 453 H 38.9895 1.89237 -0.77521 0
M  V30 454 H 37.1445 3.78298 0.834843 0
M  V30 455 H 37.5585 5.16868 -0.891482 0
M  V30 456 H 39.0325 5.46271 0.793244 0
M  V30 457 H 39.5095 4.04152 1.71923 0
M  V30 458 H 40.1155 4.25257 0.0604027 0
M  V30 459 N 38.4306 0.297415 1.54768 0
M  V30 460 C 39.6796 -0.313669 1.99246 0
M  V30 461 C 39.9926 -1.55281 1.18942 0
M  V30 462 O 41.1986 -2.23825 1.5367 0
M  V30 463 C 39.6546 -0.609407 3.54703 0
M  V30 464 C 39.2626 0.611192 4.43811 0
M  V30 465 C 41.0066 -1.18188 4.07715 0
M  V30 466 C 38.9136 0.288805 5.90694 0
M  V30 467 H 37.8436 -0.120979 0.744231 0
M  V30 468 H 40.4946 0.40556 1.78962 0
M  V30 469 H 38.8766 -1.38813 3.70873 0
M  V30 470 H 40.0506 1.3875 4.39414 0
M  V30 471 H 38.3656 1.10205 4.01552 0
M  V30 472 H 40.9626 -1.43727 5.15021 0
M  V30 473 H 41.3056 -2.12299 3.58099 0
M  V30 474 H 41.8386 -0.464944 3.95074 0
M  V30 475 H 38.5776 1.19838 6.44453 0
M  V30 476 H 38.0976 -0.450305 5.98107 0
M  V30 477 H 39.7766 -0.110933 6.46905 0
M  V30 478 N 39.9087 -1.5758 0.0250728 0
M  V30 479 C 41.1577 -1.90811 -0.653767 0
M  V30 480 C 41.4707 -0.90273 -1.73523 0
M  V30 481 O 42.6767 -1.12614 -2.47043 0
M  V30 482 C 41.1327 -3.38804 -1.21409 0
M  V30 483 C 40.7407 -4.47692 -0.166126 0
M  V30 484 C 42.4847 -3.81108 -1.86967 0
M  V30 485 C 40.3917 -5.86779 -0.737856 0
M  V30 486 H 39.3217 -0.712063 -0.247956 0
M  V30 487 H 41.9727 -1.83281 0.0897137 0
M  V30 488 H 40.3547 -3.41252 -2.00905 0
M  V30 489 H 41.5287 -4.56797 0.606079 0
M  V30 490 H 39.8437 -4.14565 0.390466 0
M  V30 491 H 42.4407 -4.82375 -2.30692 0
M  V30 492 H 42.7837 -3.15953 -2.71071 0
M  V30 493 H 43.3167 -3.81065 -1.14167 0
M  V30 494 H 40.0557 -6.55468 0.0649577 0
M  V30 495 H 39.5757 -5.81288 -1.47864 0
M  V30 496 H 41.2547 -6.35223 -1.22884 0
M  V30 497 N 41.3868 0.248026 -1.55636 0
M  V30 498 C 42.6348 0.974295 -1.77065 0
M  V30 499 C 42.9558 1.85897 -0.588849 0
M  V30 500 O 42.2258 1.91868 0.395407 0
M  V30 501 H 40.8058 0.362733 -0.653019 0
M  V30 502 H 43.4678 0.266244 -1.93073 0
M  V30 503 H 42.5638 1.59667 -2.68166 0
M  V30 504 N 42.8649 1.48995 0.513639 0
M  V30 505 C 44.2809 1.35478 0.843682 0
M  V30 506 C 44.4809 0.378213 1.97919 0
M  V30 507 O 43.5369 -0.194689 2.51748 0
M  V30 508 C 44.8499 2.75901 1.1958 0
M  V30 509 C 46.3979 2.84509 1.30474 0
M  V30 510 C 46.8729 4.25671 1.69021 0
M  V30 511 N 48.3639 4.28422 1.76094 0
M  V30 512 C 49.0989 5.34601 2.07338 0
M  V30 513 N 48.5949 6.5104 2.36894 0
M  V30 514 N 50.3879 5.22007 2.08483 0
M  V30 515 H 42.5389 2.11092 -0.235328 0
M  V30 516 H 44.8019 0.947039 -0.0426669 0
M  V30 517 H 44.5079 3.49001 0.434913 0
M  V30 518 H 44.3819 3.10467 2.1422 0
M  V30 519 H 46.7689 2.11655 2.05637 0
M  V30 520 H 46.8499 2.53542 0.339155 0
M  V30 521 H 46.4939 4.99048 0.944135 0
M  V30 522 H 46.4239 4.54094 2.66658 0
M  V30 523 H 48.9149 3.44441 1.55464 0
M  V30 524 H 49.2279 7.2779 2.59887 0
M  V30 525 H 47.5729 6.54287 2.34378 0
M  V30 526 H 50.7639 4.30051 1.84861 0
M  V30 527 H 50.9369 6.04854 2.325 0
M  V30 528 N 44.343 -0.763751 1.37857 0
M  V30 529 C 45.273 -1.89103 1.36975 0
M  V30 530 C 46.254 -1.68439 0.237152 0
M  V30 531 O 47.439 -1.8918 0.438713 0
M  V30 532 C 44.569 -3.26496 1.18395 0
M  V30 533 C 43.523 -3.61741 2.28751 0
M  V30 534 C 42.849 -4.97762 1.95286 0
M  V30 535 C 44.149 -3.67665 3.70972 0
M  V30 536 H 45.843 -1.90099 2.31307 0
M  V30 537 H 43.389 -0.91319 1.11341 0
M  V30 538 H 45.342 -4.05003 1.16406 0
M  V30 539 H 44.066 -3.25955 0.205215 0
M  V30 540 H 42.725 -2.85547 2.29909 0
M  V30 541 H 42.373 -4.93769 0.959221 0
M  V30 542 H 42.073 -5.22313 2.69189 0
M  V30 543 H 43.597 -5.7866 1.94898 0
M  V30 544 H 45.011 -4.36307 3.719 0
M  V30 545 H 43.408 -4.03718 4.43995 0
M  V30 546 H 44.478 -2.68134 4.0402 0
M  V30 547 N 45.8211 -1.22559 -0.990812 0
M  V30 548 C 46.7511 -1.0218 -2.09956 0
M  V30 549 C 47.7321 0.0579394 -1.70001 0
M  V30 550 O 48.9171 -0.104684 -1.93918 0
M  V30 551 C 46.0471 -0.601023 -3.4206 0
M  V30 552 C 45.0011 -1.62694 -3.95872 0
M  V30 553 C 44.3271 -1.06193 -5.24049 0
M  V30 554 C 45.6271 -3.01743 -4.2632 0
M  V30 555 H 47.3211 -1.94916 -2.27262 0
M  V30 556 H 44.8671 -0.938566 -1.09211 0
M  V30 557 H 46.8201 -0.445561 -4.19038 0
M  V30 558 H 45.5441 0.362005 -3.24588 0
M  V30 559 H 44.2031 -1.77021 -3.21028 0
M  V30 560 H 43.8511 -0.0901903 -5.02919 0
M  V30 561 H 43.5511 -1.74732 -5.61019 0
M  V30 562 H 45.0751 -0.918092 -6.03658 0
M  V30 563 H 46.4891 -2.90777 -4.94087 0
M  V30 564 H 44.8861 -3.67425 -4.74467 0
M  V30 565 H 45.9561 -3.51518 -3.34011 0
M  V30 566 N 47.2992 1.18797 -1.03562 0
M  V30 567 C 48.5292 1.92319 -0.754773 0
M  V30 568 C 48.9372 1.7612 0.691248 0
M  V30 569 O 48.2802 1.08491 1.48241 0
M  V30 570 C 48.3422 3.44284 -1.03484 0
M  V30 571 C 48.0062 3.84258 -2.47376 0
M  V30 572 C 49.0032 3.88459 -3.45537 0
M  V30 573 C 46.6882 4.15701 -2.81954 0
M  V30 574 C 48.6822 4.23545 -4.76328 0
M  V30 575 C 46.3692 4.50458 -4.12954 0
M  V30 576 C 47.3672 4.54356 -5.09951 0
M  V30 577 O 47.0552 4.88305 -6.38603 0
M  V30 578 H 46.7872 0.617527 -0.275021 0
M  V30 579 H 49.3412 1.51683 -1.38497 0
M  V30 580 H 47.5712 3.85135 -0.347513 0
M  V30 581 H 49.2602 3.99049 -0.7426 0
M  V30 582 H 50.0262 3.6431 -3.20162 0
M  V30 583 H 45.9052 4.11847 -2.0713 0
M  V30 584 H 49.4492 4.26502 -5.52035 0
M  V30 585 H 45.3462 4.74067 -4.38099 0
M  V30 586 H 46.1142 5.06227 -6.43177 0
M  V30 587 N 48.7773 0.814389 1.34928 0
M  V30 588 C 49.7103 0.175641 2.27523 0
M  V30 589 C 50.6883 -0.662953 1.48471 0
M  V30 590 O 51.8723 -0.628545 1.77712 0
M  V30 591 C 48.9993 -0.755516 3.30166 0
M  V30 592 C 48.0453 0.00445305 4.265 0
M  V30 593 S 48.8783 1.34582 5.18313 0
M  V30 594 C 50.0343 0.419315 6.24494 0
M  V30 595 H 50.2673 0.960691 2.8135 0
M  V30 596 H 47.8003 0.609846 1.41846 0
M  V30 597 H 49.7583 -1.28723 3.89796 0
M  V30 598 H 48.4193 -1.51402 2.75202 0
M  V30 599 H 47.6123 -0.703077 4.99072 0
M  V30 600 H 47.2143 0.466447 3.7108 0
M  V30 601 H 49.5063 -0.392432 6.76362 0
M  V30 602 H 50.4493 1.11446 6.99275 0
M  V30 603 H 50.8573 0.0115389 5.64499 0
M  V30 604 N 50.2554 -1.46986 0.568584 0
M  V30 605 C 51.1874 -2.28233 -0.210337 0
M  V30 606 C 52.2004 -1.37682 -0.868767 0
M  V30 607 O 53.3894 -1.62406 -0.740705 0
M  V30 608 C 50.4894 -3.12293 -1.3163 0
M  V30 609 C 49.6624 -4.30878 -0.7525 0
M  V30 610 C 48.7214 -4.96445 -1.74439 0
M  V30 611 O 47.7474 -5.54482 -1.286 0
M  V30 612 N 48.9494 -4.92171 -3.07812 0
M  V30 613 H 51.7144 -2.95723 0.486648 0
M  V30 614 H 49.2754 -1.56742 0.405409 0
M  V30 615 H 51.2674 -3.53022 -1.97883 0
M  V30 616 H 49.8374 -2.46971 -1.91636 0
M  V30 617 H 49.0574 -3.94104 0.0871128 0
M  V30 618 H 50.3454 -5.07558 -0.35536 0
M  V30 619 H 49.7434 -4.46239 -3.47688 0
M  V30 620 H 48.3004 -5.36884 -3.69592 0
M  V30 621 N 51.7335 -0.305618 -1.54608 0
M  V30 622 C 52.9795 0.302746 -2.00528 0
M  V30 623 C 53.3125 1.53184 -1.19367 0
M  V30 624 O 52.5875 1.92598 -0.271321 0
M  V30 625 C 52.8705 0.654756 -3.54097 0
M  V30 626 C 52.7235 -0.583793 -4.45995 0
M  V30 627 C 54.0425 1.47947 -4.14487 0
M  V30 628 H 51.1615 0.108564 -0.72896 0
M  V30 629 H 53.8035 -0.418634 -1.85331 0
M  V30 630 H 51.9535 1.26935 -3.67178 0
M  V30 631 H 53.6255 -1.22224 -4.44814 0
M  V30 632 H 51.8685 -1.21615 -4.16404 0
M  V30 633 H 52.5395 -0.293287 -5.5122 0
M  V30 634 H 55.0155 0.96013 -4.04871 0
M  V30 635 H 53.8915 1.69454 -5.22088 0
M  V30 636 H 54.1525 2.47011 -3.66658 0
M  V30 637 N 53.2116 1.57565 -0.0334293 0
M  V30 638 C 54.1416 2.13511 0.945265 0
M  V30 639 C 55.1226 1.05231 1.33643 0
M  V30 640 O 56.3076 1.33084 1.41429 0
M  V30 641 C 53.4376 2.6657 2.22616 0
M  V30 642 C 52.3916 3.79676 1.97561 0
M  V30 643 C 51.7176 4.1918 3.31952 0
M  V30 644 C 53.0176 5.0557 1.31135 0
M  V30 645 H 54.7116 2.95538 0.479325 0
M  V30 646 H 52.2576 1.42166 0.229115 0
M  V30 647 H 54.2106 3.04344 2.91466 0
M  V30 648 H 52.9346 1.8171 2.71384 0
M  V30 649 H 51.5936 3.42347 1.31127 0
M  V30 650 H 51.2416 3.31296 3.78487 0
M  V30 651 H 50.9416 4.95402 3.15992 0
M  V30 652 H 52.4656 4.59541 4.02063 0
M  V30 653 H 53.8796 5.40903 1.89992 0
M  V30 654 H 52.2766 5.86818 1.25559 0
M  V30 655 H 53.3466 4.84062 0.284894 0
M  V30 656 N 54.6897 -0.239769 1.55765 0
M  V30 657 C 55.6377 -1.31668 1.91745 0
M  V30 658 C 56.6317 -1.49462 0.797338 0
M  V30 659 O 57.8377 -1.50852 0.982021 0
M  V30 660 H 54.2127 -0.441048 0.609082 0
M  V30 661 H 56.1837 -0.985923 2.81642 0
M  V30 662 C 54.9327 -2.66368 2.2348 0
M  V30 663 H 54.2557 -2.53478 3.09175 0
M  V30 664 H 55.6957 -3.40578 2.52553 0
M  V30 665 C 54.1547 -3.20002 1.05359 0
M  V30 666 O 54.6847 -4.00538 0.305261 0
M  V30 667 N 52.8907 -2.78126 0.842292 0
M  V30 668 H 52.4377 -2.12742 1.45253 0
M  V30 669 H 52.3957 -3.14354 0.053652 0
M  V30 670 N 56.1678 -1.49265 -0.50573 0
M  V30 671 C 57.1148 -1.65585 -1.6078 0
M  V30 672 C 58.0848 -0.497396 -1.58478 0
M  V30 673 O 59.2698 -0.72385 -1.76536 0
M  V30 674 C 56.4098 -1.72408 -2.98948 0
M  V30 675 C 55.5228 -2.99525 -3.11301 0
M  V30 676 C 54.6578 -2.97356 -4.40174 0
M  V30 677 C 53.6968 -4.19074 -4.46143 0
M  V30 678 N 52.8338 -4.14841 -5.66437 0
M  V30 679 H 57.6738 -2.59688 -1.46172 0
M  V30 680 H 55.2108 -1.28761 -0.711261 0
M  V30 681 H 57.1688 -1.74344 -3.79025 0
M  V30 682 H 55.7988 -0.817753 -3.1227 0
M  V30 683 H 54.8508 -3.07222 -2.24318 0
M  V30 684 H 56.1628 -3.89518 -3.11572 0
M  V30 685 H 55.3168 -2.97829 -5.28567 0
M  V30 686 H 54.0558 -2.05133 -4.42461 0
M  V30 687 H 53.0608 -4.1885 -3.56153 0
M  V30 688 H 54.2858 -5.12483 -4.45575 0
M  V30 689 H 52.2318 -3.25453 -5.69575 0
M  V30 690 H 52.1488 -4.98564 -5.68304 0
M  V30 691 H 53.4168 -4.1941 -6.57051 0
M  V30 692 N 57.6459 0.756429 -1.3826 0
M  V30 693 C 58.9229 1.50584 -1.24835 0
M  V30 694 C 59.3029 2.10556 0.151485 0
M  V30 695 O 58.6509 1.96825 1.1607 0
M  V30 696 C 58.8609 2.57448 -2.3563 0
M  V30 697 C 60.2089 3.24429 -2.73917 0
M  V30 698 O 61.2329 2.67751 -2.34921 0
M  V30 699 O 60.0919 4.26937 -3.41156 0
M  V30 700 H 57.1859 0.667664 -0.48801 0
M  V30 701 H 59.7319 0.792083 -1.5008 0
M  V30 702 H 58.5039 2.11362 -3.29305 0
M  V30 703 H 58.1269 3.36408 -2.11933 0
M  V30 704 N 59.124 1.23083 0.984299 0
M  V30 705 C 60.371 1.06057 1.72505 0
M  V30 706 C 60.699 -0.403105 1.90277 0
M  V30 707 O 59.954 -1.3149 1.44944 0
M  V30 708 C 60.253 1.72673 3.1292 0
M  V30 709 C 59.919 3.22586 3.15038 0
M  V30 710 C 58.581 3.63489 3.15324 0
M  V30 711 C 60.933 4.185 3.10657 0
M  V30 712 C 58.261 4.98772 3.08939 0
M  V30 713 C 60.613 5.53769 3.05814 0
M  V30 714 C 59.277 5.94041 3.04419 0
M  V30 715 H 58.547 0.388091 0.631242 0
M  V30 716 H 61.194 1.52963 1.15215 0
M  V30 717 H 59.499 1.18116 3.73572 0
M  V30 718 H 61.196 1.56982 3.68996 0
M  V30 719 H 57.786 2.90022 3.15571 0
M  V30 720 H 61.97 3.87911 3.09579 0
M  V30 721 H 57.226 5.29193 3.0621 0
M  V30 722 H 61.4 6.27808 3.0138 0
M  V30 723 H 59.027 6.98833 2.99227 0
M  V30 724 N 60.6021 -1.18246 1.0419 0
M  V30 725 C 61.8321 -1.91916 0.764961 0
M  V30 726 C 62.2401 -1.76485 -0.681898 0
M  V30 727 O 61.5831 -1.09275 -1.47664 0
M  V30 728 C 61.6451 -3.4373 1.05309 0
M  V30 729 C 61.3091 -3.8294 2.4941 0
M  V30 730 C 62.3061 -3.86621 3.47592 0
M  V30 731 C 59.9911 -4.142 2.84155 0
M  V30 732 C 61.9851 -4.21013 4.78568 0
M  V30 733 C 59.6721 -4.48262 4.15337 0
M  V30 734 C 60.6701 -4.51645 5.12353 0
M  V30 735 O 60.3581 -4.84911 6.41183 0
M  V30 736 H 60.0901 -0.61606 0.278292 0
M  V30 737 H 62.6441 -1.50947 1.39299 0
M  V30 738 H 60.8741 -3.84946 0.367933 0
M  V30 739 H 62.5631 -3.9865 0.763752 0
M  V30 740 H 63.3291 -3.62607 3.22089 0
M  V30 741 H 59.2081 -4.10743 2.09311 0
M  V30 742 H 62.7521 -4.23568 5.54289 0
M  V30 743 H 58.6491 -4.71737 4.40607 0
M  V30 744 H 59.4171 -5.02809 6.45852 0
M  V30 745 N 62.0802 -0.821533 -1.34494 0
M  V30 746 C 62.9902 -0.244355 -2.33324 0
M  V30 747 C 64.0062 0.620527 -1.62559 0
M  V30 748 O 65.1822 0.528754 -1.94335 0
M  V30 749 C 62.2472 0.585368 -3.41723 0
M  V30 750 C 61.3082 -0.301752 -4.28238 0
M  V30 751 C 60.5412 0.488466 -5.3146 0
M  V30 752 O 60.7642 1.72186 -5.4379 0
M  V30 753 O 59.6982 -0.12848 -6.01763 0
M  V30 754 H 63.5242 -1.06231 -2.84515 0
M  V30 755 H 61.1092 -0.583645 -1.37528 0
M  V30 756 H 62.9912 1.05747 -4.07916 0
M  V30 757 H 61.6662 1.38068 -2.92778 0
M  V30 758 H 60.5732 -0.821315 -3.64973 0
M  V30 759 H 61.9062 -1.06138 -4.8062 0
M  V30 760 N 63.5583 1.46682 -0.576371 0
M  V30 761 C 64.5053 2.30241 0.160499 0
M  V30 762 C 65.4753 1.40233 0.890162 0
M  V30 763 O 66.6603 1.69186 0.882084 0
M  V30 764 C 63.8003 3.24578 1.1723 0
M  V30 765 C 62.9133 4.29684 0.446736 0
M  V30 766 C 62.0483 5.11154 1.44551 0
M  V30 767 C 61.0873 6.08015 0.70599 0
M  V30 768 N 60.2243 6.82376 1.65251 0
M  V30 769 H 65.0643 2.92727 -0.558127 0
M  V30 770 H 62.6013 1.44272 -0.287056 0
M  V30 771 H 64.5593 3.77711 1.77172 0
M  V30 772 H 63.1893 2.63916 1.85872 0
M  V30 773 H 62.2413 3.79458 -0.267594 0
M  V30 774 H 63.5533 4.98626 -0.131686 0
M  V30 775 H 62.7073 5.68533 2.11791 0
M  V30 776 H 61.4463 4.42158 2.05786 0
M  V30 777 H 60.4513 5.49796 0.0197725 0
M  V30 778 H 61.6763 6.79028 0.09912 0
M  V30 779 H 59.6223 6.16094 2.25308 0
M  V30 780 H 59.5393 7.47556 1.12673 0
M  V30 781 H 60.8073 7.44316 2.31546 0
M  V30 782 N 65.0364 0.313813 1.54444 0
M  V30 783 C 65.9834 -0.55655 2.23989 0
M  V30 784 C 66.9534 -1.11943 1.22711 0
M  V30 785 O 68.1384 -1.16158 1.51367 0
M  V30 786 C 65.2784 -1.71635 2.99392 0
M  V30 787 C 64.3914 -1.18364 4.15468 0
M  V30 788 C 63.5264 -2.30834 4.78424 0
M  V30 789 C 62.5654 -1.74762 5.86622 0
M  V30 790 N 61.7024 -2.80855 6.43479 0
M  V30 791 H 66.5424 0.0430893 2.97969 0
M  V30 792 H 64.0794 0.0330359 1.47063 0
M  V30 793 H 66.0374 -2.39868 3.41349 0
M  V30 794 H 64.6674 -2.28742 2.27765 0
M  V30 795 H 63.7194 -0.393163 3.78363 0
M  V30 796 H 65.0314 -0.733262 4.93381 0
M  V30 797 H 64.1854 -3.0699 5.23299 0
M  V30 798 H 62.9244 -2.79204 3.99871 0
M  V30 799 H 61.9294 -0.970995 5.41158 0
M  V30 800 H 63.1544 -1.2728 6.67066 0
M  V30 801 H 61.1004 -3.28535 5.67804 0
M  V30 802 H 61.0174 -2.40351 7.16776 0
M  V30 803 H 62.2854 -3.5687 6.93011 0
M  V30 804 N 66.5145 -1.57545 0.0417849 0
M  V30 805 C 67.4445 -2.14009 -0.933929 0
M  V30 806 C 68.4255 -1.05938 -1.33083 0
M  V30 807 O 69.6105 -1.33833 -1.40721 0
M  V30 808 C 66.7405 -2.67747 -2.21199 0
M  V30 809 C 65.6945 -3.80718 -1.95544 0
M  V30 810 C 65.0205 -4.20935 -3.29724 0
M  V30 811 C 66.3205 -5.06258 -1.28452 0
M  V30 812 H 68.0145 -2.95788 -0.463645 0
M  V30 813 H 65.5605 -1.42285 -0.221573 0
M  V30 814 H 67.5135 -3.05886 -2.89848 0
M  V30 815 H 66.2375 -1.83147 -2.70416 0
M  V30 816 H 64.8965 -3.43037 -1.2931 0
M  V30 817 H 64.5445 -3.33298 -3.76724 0
M  V30 818 H 64.2445 -4.9707 -3.13361 0
M  V30 819 H 65.7685 -4.61666 -3.9962 0
M  V30 820 H 67.1825 -5.41903 -1.8712 0
M  V30 821 H 65.5795 -5.87475 -1.22445 0
M  V30 822 H 66.6495 -4.84207 -0.259219 0
M  V30 823 N 67.9926 0.231505 -1.5589 0
M  V30 824 C 68.9556 1.27028 -1.90779 0
M  V30 825 C 69.9556 1.40308 -0.785507 0
M  V30 826 O 71.1456 1.38744 -1.05336 0
M  V30 827 C 68.2776 2.64566 -2.14983 0
M  V30 828 H 69.4706 0.973017 -2.83677 0
M  V30 829 H 67.0236 0.471486 -1.49019 0
M  V30 830 H 67.7586 2.99406 -1.24604 0
M  V30 831 H 67.5436 2.56305 -2.96732 0
M  V30 832 H 69.0336 3.39543 -2.43105 0
M  V30 833 N 69.4707 1.49531 0.497807 0
M  V30 834 C 70.6957 1.63159 1.28039 0
M  V30 835 C 71.1207 0.30418 1.85624 0
M  V30 836 O 70.4787 -0.728618 1.66015 0
M  V30 837 C 70.5267 2.70537 2.38416 0
M  V30 838 O 69.6307 2.29931 3.42353 0
M  V30 839 H 68.9717 0.546001 0.377861 0
M  V30 840 H 71.5017 1.9574 0.59558 0
M  V30 841 H 71.5117 2.92802 2.84132 0
M  V30 842 H 70.1867 3.6689 1.95869 0
M  V30 843 H 68.7637 2.18009 3.02533 0
M  V30 844 N 70.9488 -0.749086 1.3866 0
M  V30 845 C 71.9118 -1.84457 1.36045 0
M  V30 846 C 72.9118 -1.58682 0.260122 0
M  V30 847 O 74.1018 -1.66343 0.517261 0
M  V30 848 C 71.2338 -3.22008 1.11911 0
M  V30 849 H 72.4268 -1.88182 2.33512 0
M  V30 850 H 69.9798 -0.951266 1.24019 0
M  V30 851 H 70.7148 -3.2395 0.150686 0
M  V30 852 H 70.4998 -3.42111 1.91579 0
M  V30 853 H 71.9898 -4.0208 1.12788 0
M  V30 854 N 72.4269 -1.23603 -0.977757 0
M  V30 855 C 73.6519 -1.09735 -1.75991 0
M  V30 856 C 74.0769 0.346858 -1.84874 0
M  V30 857 O 73.4349 1.25093 -1.3123 0
M  V30 858 C 73.4829 -1.73051 -3.16363 0
M  V30 859 O 72.5869 -0.994452 -4.0023 0
M  V30 860 H 71.9279 -0.384476 -0.541364 0
M  V30 861 H 74.4579 -1.6371 -1.2272 0
M  V30 862 H 74.4679 -1.78398 -3.66931 0
M  V30 863 H 73.1429 -2.78137 -3.09213 0
M  V30 864 H 71.7199 -1.01812 -3.58732 0
M  V30 865 N 73.905 1.17692 -1.04816 0
M  V30 866 C 74.837 2.21103 -0.603822 0
M  V30 867 C 75.85 1.59411 0.33046 0
M  V30 868 O 77.039 1.7807 0.12379 0
M  V30 869 C 74.139 3.38623 0.136898 0
M  V30 870 C 73.312 4.29888 -0.807137 0
M  V30 871 C 72.371 5.26088 -0.10836 0
M  V30 872 O 71.397 5.64353 -0.741232 0
M  V30 873 N 72.599 5.68882 1.15558 0
M  V30 874 H 75.364 2.59848 -1.49329 0
M  V30 875 H 72.925 1.32553 -0.929587 0
M  V30 876 H 74.917 4.00009 0.614401 0
M  V30 877 H 73.487 2.98508 0.927993 0
M  V30 878 H 72.707 3.65993 -1.46434 0
M  V30 879 H 73.995 4.87759 -1.44807 0
M  V30 880 H 73.393 5.39861 1.69015 0
M  V30 881 H 71.95 6.32429 1.57722 0
M  V30 882 N 75.3831 0.828654 1.34056 0
M  V30 883 C 76.6111 0.43262 2.02326 0
M  V30 884 C 77.0261 -0.963147 1.62385 0
M  V30 885 O 76.3831 -1.62425 0.832121 0
M  V30 886 C 76.4341 0.53182 3.57567 0
M  V30 887 O 76.1551 1.87258 3.96063 0
M  V30 888 C 77.6561 0.131422 4.43105 0
M  V30 889 H 74.8761 0.172923 0.648335 0
M  V30 890 H 77.4201 1.1184 1.71208 0
M  V30 891 H 75.5751 -0.105938 3.87255 0
M  V30 892 H 75.9891 1.85087 4.90758 0
M  V30 893 H 77.4631 0.251904 5.51425 0
M  V30 894 H 77.9401 -0.925645 4.29335 0
M  V30 895 H 78.5461 0.743207 4.18756 0
M  V30 896 N 76.8612 -1.46375 0.584142 0
M  V30 897 C 77.8082 -2.30323 -0.148286 0
M  V30 898 C 78.7782 -1.40703 -0.882713 0
M  V30 899 O 79.9632 -1.69651 -0.873099 0
M  V30 900 C 77.1032 -3.25196 -1.15507 0
M  V30 901 C 76.2162 -4.29915 -0.423943 0
M  V30 902 C 75.3512 -5.11914 -1.41838 0
M  V30 903 C 74.3902 -6.08381 -0.673736 0
M  V30 904 N 73.5272 -6.83242 -1.6163 0
M  V30 905 H 78.3672 -2.92427 0.573644 0
M  V30 906 H 75.9042 -1.44118 0.294703 0
M  V30 907 H 77.8622 -3.78646 -1.75166 0
M  V30 908 H 76.4922 -2.64898 -1.8447 0
M  V30 909 H 75.5442 -3.7931 0.287714 0
M  V30 910 H 76.8562 -4.98549 0.158128 0
M  V30 911 H 76.0102 -5.69648 -2.08773 0
M  V30 912 H 74.7492 -4.43243 -2.03438 0
M  V30 913 H 73.7542 -5.49799 0.00938483 0
M  V30 914 H 74.9792 -6.79071 -0.0631082 0
M  V30 915 H 72.9252 -6.1728 -2.22038 0
M  V30 916 H 72.8422 -7.48144 -1.08707 0
M  V30 917 H 74.1102 -7.45534 -2.27596 0
M  V30 918 N 78.3393 -0.321999 -1.54275 0
M  V30 919 C 79.5883 0.281931 -1.9972 0
M  V30 920 C 79.9013 1.53369 -1.21397 0
M  V30 921 O 81.1073 2.21352 -1.57211 0
M  V30 922 C 79.5633 0.5529 -3.55628 0
M  V30 923 C 79.1713 -0.681721 -4.42783 0
M  V30 924 C 80.9153 1.11687 -4.09544 0
M  V30 925 C 78.8223 -0.382742 -5.9016 0
M  V30 926 H 77.7523 0.109124 -0.746062 0
M  V30 927 H 80.4033 -0.43398 -1.78294 0
M  V30 928 H 78.7853 1.32896 -3.73035 0
M  V30 929 H 79.9593 -1.45723 -4.37151 0
M  V30 930 H 78.2743 -1.1658 -3.99748 0
M  V30 931 H 80.8713 1.35515 -5.17242 0
M  V30 932 H 81.2143 2.06575 -3.61431 0
M  V30 933 H 81.7473 0.402032 -3.95763 0
M  V30 934 H 78.4863 -1.30076 -6.42464 0
M  V30 935 H 78.0063 0.355094 -5.98748 0
M  V30 936 H 79.6853 0.00800157 -6.47 0
M  V30 937 N 79.8174 1.5752 -0.0501392 0
M  V30 938 C 81.0454 1.96963 0.633492 0
M  V30 939 C 81.4604 0.927631 1.6444 0
M  V30 940 O 80.8174 -0.0882665 1.82286 0
M  V30 941 C 80.8684 3.36487 1.32132 0
M  V30 942 O 80.5894 4.36693 0.350894 0
M  V30 943 C 82.0904 3.90682 2.09481 0
M  V30 944 H 79.3104 0.648244 0.173266 0
M  V30 945 H 81.8544 2.0417 -0.116134 0
M  V30 946 H 80.0094 3.30434 2.02218 0
M  V30 947 H 80.4234 5.17702 0.841735 0
M  V30 948 H 81.8974 4.90591 2.5303 0
M  V30 949 H 82.3744 3.26053 2.94255 0
M  V30 950 H 82.9804 4.00069 1.44307 0
M  V30 951 N 81.2955 -0.223234 1.56011 0
M  V30 952 C 82.5205 -0.968978 1.83373 0
M  V30 953 C 82.9455 -1.77227 0.630254 0
M  V30 954 O 82.3035 -1.76345 -0.420959 0
M  V30 955 C 82.3515 -1.86363 3.08709 0
M  V30 956 O 81.4555 -2.95873 2.87285 0
M  V30 957 H 80.7965 -0.274461 0.604622 0
M  V30 958 H 83.3265 -0.237056 2.03222 0
M  V30 959 H 83.3365 -2.27376 3.38768 0
M  V30 960 H 82.0115 -1.27319 3.95933 0
M  V30 961 H 80.5885 -2.58818 2.68454 0
M  V30 962 N 82.7736 -1.49793 -0.48987 0
M  V30 963 C 83.9986 -1.63836 -1.27172 0
M  V30 964 C 84.4236 -0.31402 -1.8546 0
M  V30 965 O 83.7816 0.719803 -1.66399 0
M  V30 966 C 83.8296 -2.71797 -2.36978 0
M  V30 967 O 82.9336 -2.31744 -3.41128 0
M  V30 968 H 82.2746 -0.547997 -0.37496 0
M  V30 969 H 84.8046 -1.96053 -0.585191 0
M  V30 970 H 84.8146 -2.94305 -2.82575 0
M  V30 971 H 83.4896 -3.67923 -1.93921 0
M  V30 972 H 82.0666 -2.1961 -3.01373 0
M  V30 973 N 84.2517 0.741722 -1.39055 0
M  V30 974 C 85.4767 1.53607 -1.39354 0
M  V30 975 C 85.9017 1.88096 0.0116905 0
M  V30 976 O 85.2597 1.5143 0.996924 0
M  V30 977 C 85.3077 2.80441 -2.26682 0
M  V30 978 O 84.4117 3.76088 -1.69208 0
M  V30 979 H 83.7527 0.464142 -0.474835 0
M  V30 980 H 86.2827 0.915665 -1.82967 0
M  V30 981 H 86.2927 3.29246 -2.40959 0
M  V30 982 H 84.9677 2.5467 -3.2881 0
M  V30 983 H 83.5447 3.34833 -1.64138 0
M  V30 984 N 85.7298 1.2412 0.971189 0
M  V30 985 C 86.6928 1.03156 2.04674 0
M  V30 986 C 87.6928 -0.00990322 1.60797 0
M  V30 987 O 88.8828 0.230729 1.72665 0
M  V30 988 C 86.0148 0.562765 3.36223 0
M  V30 989 H 87.2078 1.98614 2.24705 0
M  V30 990 H 84.7608 1.06293 1.14593 0
M  V30 991 H 85.4958 -0.395176 3.21883 0
M  V30 992 H 85.2808 1.31441 3.69413 0
M  V30 993 H 86.7708 0.437015 4.15307 0
M  V30 994 N 87.2079 -1.17134 1.05439 0
M  V30 995 C 88.6239 -1.39454 0.776201 0
M  V30 996 C 88.8239 -1.91454 -0.628307 0
M  V30 997 O 87.8799 -2.10777 -1.39031 0
M  V30 998 C 89.1929 -2.38305 1.83388 0
M  V30 999 C 90.7409 -2.52006 1.85639 0
M  V30 1000 C 91.2159 -3.54133 2.90437 0
M  V30 1001 N 92.7069 -3.61653 2.89415 0
M  V30 1002 C 93.4419 -4.4044 3.67152 0
M  V30 1003 N 92.9379 -5.22721 4.54681 0
M  V30 1004 N 94.7309 -4.35337 3.55581 0
M  V30 1005 H 86.8819 -0.817134 1.96053 0
M  V30 1006 H 89.1449 -0.421626 0.849079 0
M  V30 1007 H 88.8509 -2.07173 2.84204 0
M  V30 1008 H 88.7249 -3.37841 1.67761 0
M  V30 1009 H 91.1119 -2.82447 0.85486 0
M  V30 1010 H 91.1929 -1.52537 2.05344 0
M  V30 1011 H 90.8369 -3.24431 3.90777 0
M  V30 1012 H 90.7669 -4.53313 2.67983 0
M  V30 1013 H 93.2579 -3.02909 2.25952 0
M  V30 1014 H 93.5709 -5.80027 5.10674 0
M  V30 1015 H 91.9159 -5.22093 4.58741 0
M  V30 1016 H 95.1069 -3.70112 2.86592 0
M  V30 1017 H 95.2799 -4.96494 4.1641 0
M  V30 1018 N 88.686 -0.835752 -1.33615 0
M  V30 1019 C 89.934 -0.429109 -1.97492 0
M  V30 1020 C 90.255 1.01433 -1.66543 0
M  V30 1021 O 89.525 1.70611 -0.962744 0
M  V30 1022 H 88.105 -0.155686 -0.730596 0
M  V30 1023 H 90.767 -1.06802 -1.63031 0
M  V30 1024 H 89.863 -0.55861 -3.0706 0
M  V30 1025 N 90.1641 1.46063 -0.591896 0
M  V30 1026 C 91.0741 2.34192 0.13831 0
M  V30 1027 C 92.0901 1.50305 0.876608 0
M  V30 1028 O 93.2661 1.8315 0.837728 0
M  V30 1029 C 90.3311 3.27656 1.13326 0
M  V30 1030 C 89.3921 4.27445 0.39863 0
M  V30 1031 C 88.6251 5.16443 1.34618 0
M  V30 1032 O 88.8481 5.08553 2.58321 0
M  V30 1033 O 87.7821 5.95843 0.851768 0
M  V30 1034 H 91.6081 2.98002 -0.58552 0
M  V30 1035 H 89.1931 1.45188 -0.352239 0
M  V30 1036 H 91.0751 3.85291 1.70671 0
M  V30 1037 H 89.7501 2.6643 1.83839 0
M  V30 1038 H 88.6571 3.73471 -0.216895 0
M  V30 1039 H 89.9901 4.91482 -0.265709 0
M  V30 1040 N 91.6422 0.330177 1.54103 0
M  V30 1041 C 92.8912 -0.271336 1.99867 0
M  V30 1042 C 93.2042 -1.52723 1.22209 0
M  V30 1043 O 94.4102 -2.20515 1.58383 0
M  V30 1044 C 92.8662 -0.534032 3.55916 0
M  V30 1045 C 92.4742 0.705193 4.42415 0
M  V30 1046 C 94.2182 -1.09514 4.1013 0
M  V30 1047 C 92.1252 0.414035 5.89949 0
M  V30 1048 H 91.0552 -0.105166 0.74663 0
M  V30 1049 H 93.7062 0.443429 1.78062 0
M  V30 1050 H 92.0882 -1.30915 3.73734 0
M  V30 1051 H 93.2622 1.4804 4.36372 0
M  V30 1052 H 91.5772 1.18698 3.99124 0
M  V30 1053 H 94.1742 -1.3277 5.17954 0
M  V30 1054 H 94.5172 -2.04656 3.62521 0
M  V30 1055 H 95.0502 -0.381038 3.95971 0
M  V30 1056 H 91.7892 1.33481 6.41766 0
M  V30 1057 H 91.3092 -0.323336 5.98928 0
M  V30 1058 H 92.9882 0.0263105 6.46995 0
M  V30 1059 N 93.1203 -1.57491 0.0584922 0
M  V30 1060 C 94.3503 -1.9701 -0.622134 0
M  V30 1061 C 94.7583 -0.935034 -1.6448 0
M  V30 1062 O 94.1013 0.0882904 -1.83488 0
M  V30 1063 C 94.1633 -3.32794 -1.35972 0
M  V30 1064 C 93.8273 -4.54343 -0.492043 0
M  V30 1065 C 94.8243 -5.19323 0.244901 0
M  V30 1066 C 92.5093 -5.00534 -0.420821 0
M  V30 1067 C 94.5033 -6.28835 1.04143 0
M  V30 1068 C 92.1903 -6.09921 0.379389 0
M  V30 1069 C 93.1883 -6.73933 1.10919 0
M  V30 1070 O 92.8763 -7.81216 1.89623 0
M  V30 1071 H 92.6083 -0.653127 -0.174359 0
M  V30 1072 H 95.1623 -2.05029 0.123418 0
M  V30 1073 H 93.3923 -3.21351 -2.15105 0
M  V30 1074 H 95.0813 -3.5701 -1.93129 0
M  V30 1075 H 95.8473 -4.8459 0.19939 0
M  V30 1076 H 91.7263 -4.50496 -0.978474 0
M  V30 1077 H 95.2703 -6.7873 1.61157 0
M  V30 1078 H 91.1673 -6.44089 0.426512 0
M  V30 1079 H 91.9353 -7.98029 1.81913 0
M  V30 1080 N 94.5984 0.214957 -1.56127 0
M  V30 1081 C 95.8754 0.963093 -1.70247 0
M  V30 1082 C 96.2554 2.02166 -0.60764 0
M  V30 1083 O 95.6034 2.25244 0.384385 0
M  V30 1084 C 95.8134 1.56756 -3.11815 0
M  V30 1085 C 97.1614 2.0573 -3.7143 0
M  V30 1086 O 98.1854 1.66637 -3.14818 0
M  V30 1087 O 97.0444 2.77603 -4.70743 0
M  V30 1088 H 94.1384 0.450321 -0.693643 0
M  V30 1089 H 96.6844 0.206219 -1.68442 0
M  V30 1090 H 95.4564 0.803533 -3.82961 0
M  V30 1091 H 95.0794 2.3898 -3.17765 0
M  V30 1092 N 96.0765 1.50051 0.48192 0
M  V30 1093 C 97.0395 1.67584 1.5636 0
M  V30 1094 C 98.0395 0.546894 1.51214 0
M  V30 1095 O 99.2295 0.813725 1.54026 0
M  V30 1096 C 96.3615 1.691 2.96003 0
M  V30 1097 H 97.5545 2.64078 1.42136 0
M  V30 1098 H 95.1075 1.39369 0.707533 0
M  V30 1099 H 95.8425 0.742589 3.15684 0
M  V30 1100 H 95.6275 2.51105 3.01146 0
M  V30 1101 H 97.1175 1.84656 3.74556 0
M  V30 1102 N 97.5546 -0.734337 1.39446 0
M  V30 1103 C 98.7796 -1.52866 1.40167 0
M  V30 1104 C 99.2046 -1.881 -0.00171513 0
M  V30 1105 O 98.5626 -1.51957 -0.988879 0
M  V30 1106 C 98.6106 -2.79235 2.28167 0
M  V30 1107 O 97.7146 -3.75185 1.71201 0
M  V30 1108 H 97.0556 -0.461618 0.477289 0
M  V30 1109 H 99.5856 -0.905949 1.8345 0
M  V30 1110 H 99.5956 -3.27963 2.42702 0
M  V30 1111 H 98.2706 -2.52923 3.30156 0
M  V30 1112 H 96.8476 -3.33958 1.65912 0
M  V30 1113 N 99.0327 -1.24633 -0.964593 0
M  V30 1114 C 100.281 -1.08573 -1.70459 0
M  V30 1115 C 100.602 0.375655 -1.91347 0
M  V30 1116 O 99.8717 1.26779 -1.49345 0
M  V30 1117 H 98.4517 -0.398784 -0.631649 0
M  V30 1118 H 101.114 -1.56601 -1.16026 0
M  V30 1119 H 100.21 -1.58623 -2.68785 0
M  V30 1120 N 100.511 1.16574 -1.06058 0
M  V30 1121 C 101.458 2.20883 -0.669263 0
M  V30 1122 C 102.428 1.62729 0.332918 0
M  V30 1123 O 103.613 1.895 0.222346 0
M  V30 1124 C 100.753 3.45049 -0.0593572 0
M  V30 1125 C 99.8658 4.17458 -1.11143 0
M  V30 1126 C 99.0008 5.29135 -0.467916 0
M  V30 1127 C 98.0398 5.93343 -1.50369 0
M  V30 1128 N 97.1768 6.96516 -0.883706 0
M  V30 1129 H 102.017 2.53709 -1.5632 0
M  V30 1130 H 99.5538 1.24616 -0.781625 0
M  V30 1131 H 101.512 4.16033 0.311771 0
M  V30 1132 H 100.142 3.12781 0.797992 0
M  V30 1133 H 99.1938 3.45101 -1.60029 0
M  V30 1134 H 100.506 4.61307 -1.89731 0
M  V30 1135 H 99.6598 6.06684 -0.0436871 0
M  V30 1136 H 98.3988 4.86443 0.349864 0
M  V30 1137 H 97.4038 5.14517 -1.93784 0
M  V30 1138 H 98.6288 6.38114 -2.32352 0
M  V30 1139 H 96.5748 6.55943 -0.086595 0
M  V30 1140 H 96.4918 7.38723 -1.607 0
M  V30 1141 H 97.7598 7.77993 -0.484543 0
M  V30 1142 N 101.989 0.842826 1.3317 0
M  V30 1143 C 103.4 0.496651 1.79973 0
M  V30 1144 C 103.751 -0.984641 1.69703 0
M  V30 1145 O 102.876 -1.76743 1.24863 0
M  V30 1146 C 103.471 0.894727 3.26772 0
M  V30 1147 C 102.03 0.600629 3.71577 0
M  V30 1148 C 101.177 1.10091 2.5451 0
M  V30 1149 H 104.128 1.03116 1.20635 0
M  V30 1150 H 104.149 0.206347 3.7994 0
M  V30 1151 H 103.661 1.97287 3.34215 0
M  V30 1152 H 101.762 -0.467284 3.69658 0
M  V30 1153 H 101.875 1.15863 4.64879 0
M  V30 1154 H 100.239 0.52162 2.49301 0
M  V30 1155 H 101.022 2.18591 2.64713 0
M  V30 1156 N 103.467 -1.45747 0.599634 0
M  V30 1157 C 104.397 -2.33235 -0.111306 0
M  V30 1158 C 105.378 -1.46359 -0.866781 0
M  V30 1159 O 106.563 -1.75146 -0.838904 0
M  V30 1160 C 103.693 -3.28932 -1.11451 0
M  V30 1161 C 102.647 -4.25381 -0.472772 0
M  V30 1162 C 101.973 -5.1071 -1.58365 0
M  V30 1163 C 103.273 -5.18831 0.600948 0
M  V30 1164 H 104.967 -2.92927 0.61919 0
M  V30 1165 H 102.513 -1.40857 0.299215 0
M  V30 1166 H 104.466 -3.89002 -1.62036 0
M  V30 1167 H 103.19 -2.67381 -1.8755 0
M  V30 1168 H 101.849 -3.66598 0.0121472 0
M  V30 1169 H 101.497 -4.45533 -2.33473 0
M  V30 1170 H 101.197 -5.7604 -1.15982 0
M  V30 1171 H 102.721 -5.73647 -2.09194 0
M  V30 1172 H 104.135 -5.73019 0.179491 0
M  V30 1173 H 102.532 -5.92595 0.946076 0
M  V30 1174 H 103.602 -4.6174 1.48068 0
M  V30 1175 N 104.945 -0.338344 -1.53925 0
M  V30 1176 C 106.191 0.260143 -2.01125 0
M  V30 1177 C 106.524 1.50617 -1.22589 0
M  V30 1178 O 105.799 1.91979 -0.312113 0
M  V30 1179 C 106.082 0.579499 -3.55407 0
M  V30 1180 C 105.935 -0.678264 -4.44657 0
M  V30 1181 C 107.254 1.39122 -4.17532 0
M  V30 1182 H 104.373 0.0930772 -0.731099 0
M  V30 1183 H 107.015 -0.457852 -1.84401 0
M  V30 1184 H 105.165 1.19118 -3.69788 0
M  V30 1185 H 106.837 -1.31631 -4.42121 0
M  V30 1186 H 105.08 -1.3042 -4.13731 0
M  V30 1187 H 105.751 -0.410143 -5.50474 0
M  V30 1188 H 108.227 0.874035 -4.06817 0
M  V30 1189 H 107.103 1.58342 -5.25565 0
M  V30 1190 H 107.364 2.39178 -3.71815 0
M  V30 1191 N 106.423 1.57458 -0.0668435 0
M  V30 1192 C 107.333 2.15937 0.916975 0
M  V30 1193 C 108.349 1.12123 1.33058 0
M  V30 1194 O 109.525 1.44366 1.40429 0
M  V30 1195 C 106.59 2.70547 2.16807 0
M  V30 1196 C 105.651 3.89215 1.81135 0
M  V30 1197 C 104.884 4.41211 3.0028 0
M  V30 1198 O 105.107 3.92225 4.14144 0
M  V30 1199 O 104.041 5.32605 2.80384 0
M  V30 1200 H 107.867 3.00354 0.449561 0
M  V30 1201 H 105.452 1.48584 0.155949 0
M  V30 1202 H 107.334 3.0557 2.90181 0
M  V30 1203 H 106.009 1.89192 2.62656 0
M  V30 1204 H 104.916 3.59054 1.05028 0
M  V30 1205 H 106.249 4.71848 1.40073 0
M  V30 1206 N 107.901 -0.206675 1.56239 0
M  V30 1207 C 108.849 -1.27571 1.94495 0
M  V30 1208 C 109.843 -1.47737 0.828862 0
M  V30 1209 O 111.049 -1.48735 1.0138 0
M  V30 1210 H 107.424 -0.428029 0.6183 0
M  V30 1211 H 109.395 -0.925961 2.8367 0
M  V30 1212 C 108.144 -2.61568 2.29079 0
M  V30 1213 H 107.467 -2.46863 3.14482 0
M  V30 1214 H 108.907 -3.35144 2.5972 0
M  V30 1215 C 107.366 -3.17695 1.12123 0
M  V30 1216 O 107.896 -3.99801 0.390153 0
M  V30 1217 N 106.102 -2.76276 0.901097 0
M  V30 1218 H 105.649 -2.09613 1.49733 0
M  V30 1219 H 105.607 -3.1417 0.120319 0
M  V30 1220 N 109.379 -1.50304 -0.473955 0
M  V30 1221 C 110.607 -1.64902 -1.24959 0
M  V30 1222 C 111.022 -0.331198 -1.85872 0
M  V30 1223 O 110.379 0.68652 -1.69095 0
M  V30 1224 C 110.43 -2.73803 -2.36038 0
M  V30 1225 O 110.151 -4.00477 -1.77624 0
M  V30 1226 C 111.652 -2.99349 -3.26964 0
M  V30 1227 H 108.872 -0.554383 -0.378022 0
M  V30 1228 H 111.416 -1.9651 -0.566054 0
M  V30 1229 H 109.571 -2.44898 -3.00173 0
M  V30 1230 H 109.985 -4.60678 -2.5075 0
M  V30 1231 H 111.459 -3.79217 -4.01121 0
M  V30 1232 H 111.936 -2.10307 -3.85574 0
M  V30 1233 H 112.542 -3.29774 -2.68569 0
M  V30 1234 N 110.857 0.726932 -1.39834 0
M  V30 1235 C 111.787 1.85405 -1.41941 0
M  V30 1236 C 112.768 1.67751 -0.281728 0
M  V30 1237 O 113.953 1.8795 -0.488717 0
M  V30 1238 C 111.083 3.23243 -1.2701 0
M  V30 1239 C 110.037 3.55549 -2.38262 0
M  V30 1240 C 109.363 4.9241 -2.08415 0
M  V30 1241 C 110.663 3.577 -3.80589 0
M  V30 1242 H 112.357 1.83899 -2.36266 0
M  V30 1243 H 109.903 0.883349 -1.13723 0
M  V30 1244 H 111.856 4.01775 -1.27103 0
M  V30 1245 H 110.58 3.25296 -0.291564 0
M  V30 1246 H 109.239 2.79351 -2.37399 0
M  V30 1247 H 108.887 4.91052 -1.0898 0
M  V30 1248 H 108.587 5.14992 -2.82943 0
M  V30 1249 H 110.111 5.73289 -2.10171 0
M  V30 1250 H 111.525 4.26293 -3.83337 0
M  V30 1251 H 109.922 3.91804 -4.54543 0
M  V30 1252 H 110.992 2.57328 -4.10987 0
M  V30 1253 N 112.336 1.25143 0.95797 0
M  V30 1254 C 113.283 1.05235 2.05412 0
M  V30 1255 C 114.253 -0.0374561 1.66058 0
M  V30 1256 O 115.438 0.119073 1.90428 0
M  V30 1257 C 112.578 0.673589 3.38462 0
M  V30 1258 C 111.691 1.8379 3.90954 0
M  V30 1259 C 110.826 1.40381 5.12315 0
M  V30 1260 C 109.865 2.53746 5.57027 0
M  V30 1261 N 109.002 2.11136 6.69601 0
M  V30 1262 H 113.842 1.99048 2.21774 0
M  V30 1263 H 111.379 0.991277 1.08683 0
M  V30 1264 H 113.337 0.434964 4.14926 0
M  V30 1265 H 111.967 -0.227554 3.21997 0
M  V30 1266 H 111.019 2.18992 3.11041 0
M  V30 1267 H 112.331 2.68937 4.20089 0
M  V30 1268 H 111.485 1.12464 5.96185 0
M  V30 1269 H 110.224 0.523015 4.84887 0
M  V30 1270 H 109.229 2.82412 4.71724 0
M  V30 1271 H 110.454 3.42398 5.86464 0
M  V30 1272 H 108.4 1.25468 6.4389 0
M  V30 1273 H 108.317 2.89832 6.98236 0
M  V30 1274 H 109.585 1.86385 7.56889 0
M  V30 1275 N 113.814 -1.1601 1.06675 0
M  V30 1276 C 114.746 -2.20115 0.638921 0
M  V30 1277 C 115.759 -1.59916 -0.305057 0
M  V30 1278 O 116.948 -1.78245 -0.0954446 0
M  V30 1279 C 114.048 -3.38798 -0.0830083 0
M  V30 1280 C 113.221 -4.2855 0.875426 0
M  V30 1281 C 112.28 -5.25849 0.192042 0
M  V30 1282 O 111.306 -5.63102 0.830921 0
M  V30 1283 N 112.508 -5.70648 -1.06493 0
M  V30 1284 H 115.273 -2.57439 1.53444 0
M  V30 1285 H 112.834 -1.31057 0.950557 0
M  V30 1286 H 114.826 -4.00936 -0.550685 0
M  V30 1287 H 113.396 -2.99947 -0.880386 0
M  V30 1288 H 112.616 -3.63617 1.52238 0
M  V30 1289 H 113.904 -4.85393 1.52548 0
M  V30 1290 H 113.302 -5.42482 -1.60405 0
M  V30 1291 H 111.859 -6.34859 -1.47641 0
M  V30 1292 N 115.292 -0.849877 -1.32721 0
M  V30 1293 C 116.538 -0.451591 -1.97708 0
M  V30 1294 C 116.871 0.989175 -1.6712 0
M  V30 1295 O 116.146 1.69334 -0.956891 0
M  V30 1296 C 116.429 -0.685598 -3.53513 0
M  V30 1297 C 116.282 -2.17444 -3.93749 0
M  V30 1298 C 117.601 -0.138874 -4.39881 0
M  V30 1299 H 114.72 -0.16555 -0.718166 0
M  V30 1300 H 117.362 -1.06742 -1.57182 0
M  V30 1301 H 115.512 -0.161416 -3.88165 0
M  V30 1302 H 117.184 -2.76433 -3.693 0
M  V30 1303 H 115.427 -2.65476 -3.43081 0
M  V30 1304 H 116.098 -2.28888 -5.02309 0
M  V30 1305 H 118.574 -0.587068 -4.11938 0
M  V30 1306 H 117.45 -0.332213 -5.47894 0
M  V30 1307 H 117.711 0.95806 -4.31594 0
M  V30 1308 N 116.77 1.45427 -0.607355 0
M  V30 1309 C 118.016 2.0254 -0.102607 0
M  V30 1310 C 118.349 1.47478 1.26348 0
M  V30 1311 O 117.624 0.64939 1.83339 0
M  V30 1312 C 117.907 3.60044 -0.0634347 0
M  V30 1313 C 117.76 4.2544 -1.46017 0
M  V30 1314 C 119.079 4.35646 0.624514 0
M  V30 1315 H 116.198 0.73598 -0.0387607 0
M  V30 1316 H 118.84 1.73284 -0.779282 0
M  V30 1317 H 116.99 3.85101 0.512808 0
M  V30 1318 H 118.662 4.11569 -2.08347 0
M  V30 1319 H 116.905 3.83849 -2.02094 0
M  V30 1320 H 117.576 5.34342 -1.385 0
M  V30 1321 H 120.052 4.15882 0.134723 0
M  V30 1322 H 118.928 5.45376 0.621028 0
M  V30 1323 H 119.189 4.08501 1.69055 0
M  V30 1324 N 118.248 0.346503 1.53744 0
M  V30 1325 C 119.473 -0.253074 2.0585 0
M  V30 1326 C 119.898 -1.43202 1.21962 0
M  V30 1327 O 119.256 -1.79783 0.234073 0
M  V30 1328 C 119.304 -0.643193 3.54817 0
M  V30 1329 O 118.408 -1.74286 3.73762 0
M  V30 1330 H 117.749 -0.0413583 0.662711 0
M  V30 1331 H 120.279 0.501574 1.98357 0
M  V30 1332 H 120.289 -0.919526 3.97503 0
M  V30 1333 H 118.964 0.218966 4.15323 0
M  V30 1334 H 117.541 -1.46356 3.42979 0
M  V30 1335 N 119.726 -1.57421 0.075193 0
M  V30 1336 C 120.973 -1.93618 -0.593146 0
M  V30 1337 C 121.301 -0.955484 -1.69413 0
M  V30 1338 O 120.556 0.0283251 -1.9568 0
M  V30 1339 C 120.855 -3.36428 -1.20626 0
M  V30 1340 C 120.521 -4.50307 -0.231078 0
M  V30 1341 C 119.183 -4.81186 0.0371936 0
M  V30 1342 C 121.535 -5.19374 0.435888 0
M  V30 1343 C 118.863 -5.78466 0.979461 0
M  V30 1344 C 121.215 -6.17665 1.3665 0
M  V30 1345 C 119.879 -6.46958 1.6432 0
M  V30 1346 H 119.149 -0.708499 -0.217047 0
M  V30 1347 H 121.796 -1.90937 0.146793 0
M  V30 1348 H 120.101 -3.35592 -2.02201 0
M  V30 1349 H 121.798 -3.61727 -1.73073 0
M  V30 1350 H 118.388 -4.26227 -0.450357 0
M  V30 1351 H 122.572 -4.95711 0.241748 0
M  V30 1352 H 117.828 -5.99487 1.20106 0
M  V30 1353 H 122.002 -6.70284 1.88924 0
M  V30 1354 H 119.629 -7.2215 2.37494 0
M  V30 1355 N 121.204 0.198386 -1.56346 0
M  V30 1356 C 122.432 0.935572 -1.84539 0
M  V30 1357 C 122.847 1.76989 -0.657281 0
M  V30 1358 O 122.204 1.78626 0.374043 0
M  V30 1359 C 122.255 1.8344 -3.11499 0
M  V30 1360 O 121.976 1.03377 -4.25728 0
M  V30 1361 C 123.477 2.68355 -3.52846 0
M  V30 1362 H 120.697 0.273126 -0.612897 0
M  V30 1363 H 123.241 0.20663 -2.03453 0
M  V30 1364 H 121.396 2.51701 -2.94492 0
M  V30 1365 H 121.81 1.64599 -4.98003 0
M  V30 1366 H 123.284 3.27085 -4.44657 0
M  V30 1367 H 123.761 3.41901 -2.75681 0
M  V30 1368 H 124.367 2.05471 -3.72373 0
M  V30 1369 N 122.682 1.50554 0.465978 0
M  V30 1370 C 124.098 1.38093 0.800154 0
M  V30 1371 C 124.298 0.440988 1.96615 0
M  V30 1372 O 123.354 -0.114499 2.5224 0
M  V30 1373 C 124.667 2.79565 1.10742 0
M  V30 1374 C 126.215 2.88516 1.21357 0
M  V30 1375 C 126.69 4.30833 1.55393 0
M  V30 1376 N 128.181 4.33807 1.62375 0
M  V30 1377 C 128.916 5.40927 1.90225 0
M  V30 1378 N 128.412 6.58247 2.16062 0
M  V30 1379 N 130.205 5.28376 1.9177 0
M  V30 1380 H 122.356 2.10237 -0.302366 0
M  V30 1381 H 124.619 0.945203 -0.0727746 0
M  V30 1382 H 124.325 3.50208 0.323661 0
M  V30 1383 H 124.199 3.17125 2.04234 0
M  V30 1384 H 126.586 2.1809 1.98799 0
M  V30 1385 H 126.667 2.54492 0.258321 0
M  V30 1386 H 126.311 5.01799 0.784889 0
M  V30 1387 H 126.241 4.62347 2.52076 0
M  V30 1388 H 128.732 3.49212 1.44427 0
M  V30 1389 H 129.045 7.3569 2.36601 0
M  V30 1390 H 127.39 6.61413 2.13444 0
M  V30 1391 H 130.581 4.35715 1.71085 0
M  V30 1392 H 130.754 6.11944 2.13139 0
M  V30 1393 N 124.16 -0.719506 1.40217 0
M  V30 1394 C 125.385 -1.51371 1.4178 0
M  V30 1395 C 125.81 -1.88091 0.0182355 0
M  V30 1396 O 125.168 -1.52997 -0.972707 0
M  V30 1397 C 125.216 -2.768 2.31115 0
M  V30 1398 O 124.32 -3.73349 1.7517 0
M  V30 1399 H 123.661 -0.456529 0.482159 0
M  V30 1400 H 126.191 -0.88644 1.844 0
M  V30 1401 H 126.201 -3.25371 2.46167 0
M  V30 1402 H 124.876 -2.49407 3.3282 0
M  V30 1403 H 123.453 -3.32179 1.69444 0
M  V30 1404 N 125.638 -1.25649 -0.95132 0
M  V30 1405 C 126.586 -1.06118 -2.06982 0
M  V30 1406 C 127.58 0.00889169 -1.69398 0
M  V30 1407 O 128.786 -0.146988 -1.79399 0
M  V30 1408 H 125.161 -0.326248 -0.677544 0
M  V30 1409 H 127.132 -2.00932 -2.2061 0
M  V30 1410 C 125.881 -0.700145 -3.40578 0
M  V30 1411 H 125.204 -1.51537 -3.69968 0
M  V30 1412 H 126.644 -0.603211 -4.19687 0
M  V30 1413 C 125.103 0.59403 -3.31622 0
M  V30 1414 O 125.633 1.63522 -3.66911 0
M  V30 1415 N 123.839 0.58089 -2.84735 0
M  V30 1416 H 123.386 -0.266783 -2.56215 0
M  V30 1417 H 123.344 1.44695 -2.79125 0
M  V30 1418 N 127.117 1.15442 -1.07289 0
M  V30 1419 C 128.064 2.20161 -0.692653 0
M  V30 1420 C 129.034 1.63073 0.31564 0
M  V30 1421 O 130.219 1.89725 0.202235 0
M  V30 1422 C 127.359 3.44967 -0.0959509 0
M  V30 1423 C 126.472 4.16256 -1.15564 0
M  V30 1424 C 125.607 5.28609 -0.524011 0
M  V30 1425 C 124.646 5.91715 -1.56653 0
M  V30 1426 N 123.783 6.9554 -0.957531 0
M  V30 1427 H 128.623 2.52037 -1.59002 0
M  V30 1428 H 126.16 1.2378 -0.794798 0
M  V30 1429 H 128.118 4.16341 0.267628 0
M  V30 1430 H 126.748 3.1361 0.764772 0
M  V30 1431 H 125.8 3.43385 -1.6368 0
M  V30 1432 H 127.112 4.59268 -1.94613 0
M  V30 1433 H 126.266 6.06604 -0.108032 0
M  V30 1434 H 125.005 4.86787 0.29825 0
M  V30 1435 H 124.01 5.12433 -1.9923 0
M  V30 1436 H 125.235 6.35614 -2.39107 0
M  V30 1437 H 123.181 6.55814 -0.156162 0
M  V30 1438 H 123.098 7.36977 -1.68526 0
M  V30 1439 H 124.366 7.77435 -0.567032 0
M  V30 1440 N 128.595 0.856903 1.32268 0
M  V30 1441 C 129.528 0.247937 2.26849 0
M  V30 1442 C 130.506 -0.615382 1.50505 0
M  V30 1443 O 131.69 -0.571689 1.79622 0
M  V30 1444 C 128.817 -0.650093 3.32403 0
M  V30 1445 C 127.863 0.140138 4.2627 0
M  V30 1446 S 128.696 1.51004 5.13769 0
M  V30 1447 C 129.852 0.61778 6.22844 0
M  V30 1448 H 130.085 1.04971 2.78152 0
M  V30 1449 H 127.618 0.654665 1.39834 0
M  V30 1450 H 129.576 -1.16256 3.93694 0
M  V30 1451 H 128.237 -1.4257 2.7988 0
M  V30 1452 H 127.43 -0.543945 5.01056 0
M  V30 1453 H 127.032 0.584267 3.69408 0
M  V30 1454 H 129.324 -0.177053 6.77269 0
M  V30 1455 H 130.267 1.33636 6.95375 0
M  V30 1456 H 130.675 0.191124 5.64176 0
M  V30 1457 N 130.073 -1.45103 0.615059 0
M  V30 1458 C 131.301 -2.06553 0.11977 0
M  V30 1459 C 131.716 -1.45842 -1.19898 0
M  V30 1460 O 131.073 -0.575325 -1.73194 0
M  V30 1461 C 131.124 -3.61495 -0.018364 0
M  V30 1462 O 130.845 -4.19942 1.24822 0
M  V30 1463 C 132.346 -4.39947 -0.544237 0
M  V30 1464 H 129.566 -0.667096 0.0722739 0
M  V30 1465 H 132.11 -1.8623 0.84491 0
M  V30 1466 H 130.265 -3.81135 -0.693865 0
M  V30 1467 H 130.679 -5.13204 1.0827 0
M  V30 1468 H 132.153 -5.48838 -0.589953 0
M  V30 1469 H 132.63 -4.10255 -1.56805 0
M  V30 1470 H 133.236 -4.25188 0.0974703 0
M  V30 1471 N 131.551 -0.354651 -1.53558 0
M  V30 1472 C 132.514 0.484566 -2.24019 0
M  V30 1473 C 133.514 1.01861 -1.24422 0
M  V30 1474 O 134.704 0.906097 -1.4878 0
M  V30 1475 C 131.836 1.67615 -2.96847 0
M  V30 1476 H 133.029 -0.131843 -2.9961 0
M  V30 1477 H 130.582 -0.106165 -1.55939 0
M  V30 1478 H 131.317 2.33095 -2.25471 0
M  V30 1479 H 131.102 1.30029 -3.69912 0
M  V30 1480 H 132.592 2.27114 -3.50441 0
M  V30 1481 N 133.029 1.57378 -0.0835403 0
M  V30 1482 C 134.257 1.98263 0.59157 0
M  V30 1483 C 134.672 0.962302 1.62435 0
M  V30 1484 O 134.029 -0.049581 1.82433 0
M  V30 1485 C 134.08 3.39214 1.24965 0
M  V30 1486 O 133.801 4.37339 0.258186 0
M  V30 1487 C 135.302 3.95038 2.01147 0
M  V30 1488 H 132.522 0.651773 0.159477 0
M  V30 1489 H 135.066 2.03878 -0.159415 0
M  V30 1490 H 133.221 3.34649 1.95164 0
M  V30 1491 H 133.635 5.19371 0.731734 0
M  V30 1492 H 135.109 4.95848 2.42567 0
M  V30 1493 H 135.586 3.32222 2.87272 0
M  V30 1494 H 136.192 4.0304 1.35789 0
M  V30 1495 N 134.507 -0.190092 1.56449 0
M  V30 1496 C 135.784 -0.935886 1.71757 0
M  V30 1497 C 136.164 -2.01173 0.639726 0
M  V30 1498 O 135.512 -2.25827 -0.348502 0
M  V30 1499 C 135.722 -1.51775 3.1427 0
M  V30 1500 C 137.07 -1.99794 3.74656 0
M  V30 1501 O 138.094 -1.61607 3.1743 0
M  V30 1502 O 136.953 -2.70079 4.751 0
M  V30 1503 H 134.047 -0.439229 0.700719 0
M  V30 1504 H 136.593 -0.179395 1.68749 0
M  V30 1505 H 135.365 -0.742505 3.84191 0
M  V30 1506 H 134.988 -2.33894 3.21527 0
M  V30 1507 N 135.985 -1.50799 -0.457987 0
M  V30 1508 C 136.915 -1.73553 -1.5621 0
M  V30 1509 C 137.896 -0.584774 -1.59732 0
M  V30 1510 O 139.081 -0.825314 -1.7579 0
M  V30 1511 C 136.211 -1.84169 -2.94447 0
M  V30 1512 C 135.165 -2.99461 -3.0579 0
M  V30 1513 C 134.491 -2.95235 -4.45803 0
M  V30 1514 C 135.791 -4.39766 -2.81786 0
M  V30 1515 H 137.485 -2.66 -1.37421 0
M  V30 1516 H 135.031 -1.28002 -0.659662 0
M  V30 1517 H 136.984 -1.98672 -3.71628 0
M  V30 1518 H 135.708 -0.883545 -3.14422 0
M  V30 1519 H 134.367 -2.8463 -2.31044 0
M  V30 1520 H 134.015 -1.97239 -4.62715 0
M  V30 1521 H 133.715 -3.72642 -4.54326 0
M  V30 1522 H 135.239 -3.11803 -5.24987 0
M  V30 1523 H 136.653 -4.55054 -3.4871 0
M  V30 1524 H 135.05 -5.18722 -3.0174 0
M  V30 1525 H 136.12 -4.51229 -1.7754 0
M  V30 1526 N 137.463 0.71206 -1.40597 0
M  V30 1527 C 138.41 1.82613 -1.41142 0
M  V30 1528 C 139.38 1.63925 -0.267903 0
M  V30 1529 O 140.565 1.85009 -0.466495 0
M  V30 1530 C 137.705 3.20354 -1.28324 0
M  V30 1531 C 136.818 3.50589 -2.52411 0
M  V30 1532 C 135.953 4.77855 -2.32009 0
M  V30 1533 C 134.992 5.01005 -3.51654 0
M  V30 1534 N 134.129 6.19487 -3.30425 0
M  V30 1535 H 138.969 1.81482 -2.36365 0
M  V30 1536 H 136.506 0.886475 -1.17388 0
M  V30 1537 H 138.464 3.99899 -1.18899 0
M  V30 1538 H 137.094 3.20705 -0.367189 0
M  V30 1539 H 136.146 2.65573 -2.72351 0
M  V30 1540 H 137.458 3.63604 -3.41458 0
M  V30 1541 H 136.612 5.65424 -2.19956 0
M  V30 1542 H 135.351 4.67056 -1.40392 0
M  V30 1543 H 134.356 4.1189 -3.64179 0
M  V30 1544 H 135.581 5.13674 -4.44202 0
M  V30 1545 H 133.527 6.09932 -2.41494 0
M  V30 1546 H 133.444 6.33194 -4.13039 0
M  V30 1547 H 134.712 7.09834 -3.22113 0
M  V30 1548 N 138.941 1.26152 0.944643 0
M  V30 1549 C 139.851 1.09176 2.07648 0
M  V30 1550 C 140.867 0.0261935 1.7398 0
M  V30 1551 O 142.043 0.229208 2.00091 0
M  V30 1552 C 139.108 0.722915 3.39079 0
M  V30 1553 C 138.169 1.86752 3.86552 0
M  V30 1554 C 137.402 1.51617 5.11711 0
M  V30 1555 O 137.625 0.416331 5.68879 0
M  V30 1556 O 136.559 2.34975 5.54139 0
M  V30 1557 H 140.385 2.0412 2.24875 0
M  V30 1558 H 137.97 1.05182 1.061 0
M  V30 1559 H 139.852 0.529787 4.18056 0
M  V30 1560 H 138.527 -0.197159 3.23099 0
M  V30 1561 H 137.434 2.11558 3.08535 0
M  V30 1562 H 138.767 2.76719 4.07047 0
M  V30 1563 N 140.419 -1.14872 1.07899 0
M  V30 1564 C 141.647 -1.89661 0.82683 0
M  V30 1565 C 142.062 -1.78312 -0.620519 0
M  V30 1566 O 141.419 -1.13888 -1.42604 0
M  V30 1567 C 141.47 -3.39817 1.23316 0
M  V30 1568 O 141.191 -3.50845 2.62372 0
M  V30 1569 C 142.692 -4.31615 1.0111 0
M  V30 1570 H 139.912 -0.60092 0.298557 0
M  V30 1571 H 142.456 -1.4551 1.43691 0
M  V30 1572 H 140.611 -3.8161 0.667286 0
M  V30 1573 H 141.025 -4.44076 2.79101 0
M  V30 1574 H 142.499 -5.35367 1.34486 0
M  V30 1575 H 142.976 -4.39169 -0.0522168 0
M  V30 1576 H 143.582 -3.95572 1.56215 0
M  V30 1577 N 141.898 -0.863906 -1.31812 0
M  V30 1578 C 142.861 -0.320212 -2.26952 0
M  V30 1579 C 143.861 0.525369 -1.51975 0
M  V30 1580 O 145.051 0.335547 -1.70938 0
M  V30 1581 C 142.183 0.545919 -3.365 0
M  V30 1582 H 143.376 -1.16004 -2.76556 0
M  V30 1583 H 140.929 -0.638995 -1.42641 0
M  V30 1584 H 141.664 1.40718 -2.92179 0
M  V30 1585 H 141.449 -0.0594674 -3.92055 0
M  V30 1586 H 142.939 0.918796 -4.07367 0
M  V30 1587 N 143.376 1.44774 -0.622745 0
M  V30 1588 C 144.323 2.30635 0.0871679 0
M  V30 1589 C 145.293 1.42994 0.845097 0
M  V30 1590 O 146.478 1.71907 0.827812 0
M  V30 1591 C 143.618 3.28144 1.06844 0
M  V30 1592 C 142.731 4.30888 0.309809 0
M  V30 1593 C 141.866 5.15494 1.28215 0
M  V30 1594 C 140.905 6.09953 0.512198 0
M  V30 1595 N 140.042 6.87287 1.43458 0
M  V30 1596 H 144.882 2.90803 -0.650974 0
M  V30 1597 H 142.419 1.43286 -0.33281 0
M  V30 1598 H 144.377 3.83157 1.65066 0
M  V30 1599 H 143.007 2.69695 1.77382 0
M  V30 1600 H 142.059 3.78414 -0.388181 0
M  V30 1601 H 143.371 4.97955 -0.290254 0
M  V30 1602 H 142.525 5.74983 1.93596 0
M  V30 1603 H 141.264 4.48481 1.91614 0
M  V30 1604 H 140.269 5.49581 -0.155151 0
M  V30 1605 H 141.494 6.78999 -0.116958 0
M  V30 1606 H 139.44 6.2295 2.05594 0
M  V30 1607 H 139.357 7.50763 0.888335 0
M  V30 1608 H 140.625 7.51306 2.07749 0
M  V30 1609 N 144.854 0.36279 1.53368 0
M  V30 1610 C 145.801 -0.485008 2.25646 0
M  V30 1611 C 146.771 -1.07982 1.2621 0
M  V30 1612 O 147.956 -1.11284 1.54986 0
M  V30 1613 C 145.096 -1.62023 3.04701 0
M  V30 1614 C 144.209 -1.05086 4.19024 0
M  V30 1615 C 143.344 -2.15496 4.85525 0
M  V30 1616 C 142.383 -1.5601 5.91884 0
M  V30 1617 N 141.52 -2.60241 6.52088 0
M  V30 1618 H 146.36 0.137864 2.97681 0
M  V30 1619 H 143.897 0.0798061 1.46883 0
M  V30 1620 H 145.855 -2.28887 3.48807 0
M  V30 1621 H 144.485 -2.2138 2.34927 0
M  V30 1622 H 143.537 -0.27259 3.79422 0
M  V30 1623 H 144.849 -0.575926 4.95464 0
M  V30 1624 H 144.003 -2.90186 5.32801 0
M  V30 1625 H 142.742 -2.66341 4.08551 0
M  V30 1626 H 141.747 -0.798338 5.43973 0
M  V30 1627 H 142.972 -1.05994 6.70777 0
M  V30 1628 H 140.918 -3.10304 5.77968 0
M  V30 1629 H 140.835 -2.17426 7.24059 0
M  V30 1630 H 142.103 -3.34641 7.04014 0
M  V30 1631 N 146.332 -1.57332 0.0918853 0
M  V30 1632 C 147.262 -2.16872 -0.865371 0
M  V30 1633 C 148.243 -1.10118 -1.29646 0
M  V30 1634 O 149.428 -1.38242 -1.36392 0
M  V30 1635 C 146.558 -2.74649 -2.12569 0
M  V30 1636 C 145.512 -3.86747 -1.83333 0
M  V30 1637 C 144.838 -4.31212 -3.16166 0
M  V30 1638 C 146.138 -5.10089 -1.1228 0
M  V30 1639 H 147.832 -2.97114 -0.369307 0
M  V30 1640 H 145.378 -1.42918 -0.176194 0
M  V30 1641 H 147.331 -3.14952 -2.7997 0
M  V30 1642 H 146.055 -1.91657 -2.64452 0
M  V30 1643 H 144.714 -3.46978 -1.18331 0
M  V30 1644 H 144.362 -3.45115 -3.6593 0
M  V30 1645 H 144.062 -5.06788 -2.97388 0
M  V30 1646 H 145.586 -4.74146 -3.84731 0
M  V30 1647 H 147 -5.47582 -1.69785 0
M  V30 1648 H 145.397 -5.91073 -1.03693 0
M  V30 1649 H 146.467 -4.84786 -0.105041 0
M  V30 1650 N 147.81 0.181792 -1.56548 0
M  V30 1651 C 148.74 1.22765 -1.98623 0
M  V30 1652 C 149.721 1.46747 -0.860189 0
M  V30 1653 O 150.906 1.58259 -1.12551 0
M  V30 1654 C 148.036 2.56894 -2.33715 0
M  V30 1655 C 146.99 2.475 -3.49182 0
M  V30 1656 C 146.316 3.86023 -3.69986 0
M  V30 1657 C 147.616 1.98866 -4.82959 0
M  V30 1658 H 149.31 0.877942 -2.86239 0
M  V30 1659 H 146.856 0.42088 -1.37712 0
M  V30 1660 H 148.809 3.30253 -2.61746 0
M  V30 1661 H 147.533 2.93632 -1.42997 0
M  V30 1662 H 146.192 1.76596 -3.21262 0
M  V30 1663 H 145.84 4.20136 -2.76576 0
M  V30 1664 H 145.54 3.80609 -4.47672 0
M  V30 1665 H 147.064 4.60984 -4.00407 0
M  V30 1666 H 148.478 2.61992 -5.09934 0
M  V30 1667 H 146.875 2.04424 -5.64208 0
M  V30 1668 H 147.945 0.942465 -4.75653 0
M  V30 1669 N 149.288 1.51039 0.449983 0
M  V30 1670 C 150.516 1.66869 1.2232 0
M  V30 1671 C 150.931 0.360727 1.85322 0
M  V30 1672 O 150.288 -0.659531 1.70166 0
M  V30 1673 C 150.339 2.77524 2.31652 0
M  V30 1674 O 150.06 4.03252 1.7123 0
M  V30 1675 C 151.561 3.04512 3.2216 0
M  V30 1676 H 148.781 0.560326 0.369155 0
M  V30 1677 H 151.325 1.97385 0.534719 0
M  V30 1678 H 149.48 2.49642 2.96239 0
M  V30 1679 H 149.894 4.64609 2.43389 0
M  V30 1680 H 151.368 3.85551 3.95038 0
M  V30 1681 H 151.845 2.16415 3.8218 0
M  V30 1682 H 152.451 3.34005 2.63288 0
M  V30 1683 N 150.766 -0.704594 1.40972 0
M  V30 1684 C 151.996 -1.49138 1.42974 0
M  V30 1685 C 152.404 -1.89175 0.0308406 0
M  V30 1686 O 151.747 -1.56734 -0.958138 0
M  V30 1687 C 151.809 -2.79016 2.26694 0
M  V30 1688 C 151.473 -2.61236 3.74973 0
M  V30 1689 C 152.47 -2.27773 4.67349 0
M  V30 1690 C 150.155 -2.77158 4.18914 0
M  V30 1691 C 152.149 -2.10457 6.01653 0
M  V30 1692 C 149.836 -2.59459 5.53285 0
M  V30 1693 C 150.834 -2.26158 6.4447 0
M  V30 1694 O 150.522 -2.08605 7.76363 0
M  V30 1695 H 150.254 -0.466443 0.489292 0
M  V30 1696 H 152.808 -0.8758 1.85793 0
M  V30 1697 H 151.038 -3.42947 1.78673 0
M  V30 1698 H 152.727 -3.40782 2.20504 0
M  V30 1699 H 153.493 -2.15095 4.34694 0
M  V30 1700 H 149.372 -3.02064 3.48251 0
M  V30 1701 H 152.916 -1.84387 6.72791 0
M  V30 1702 H 148.813 -2.71725 5.85522 0
M  V30 1703 H 149.581 -2.23439 7.87412 0
M  V30 1704 N 152.244 -1.26651 -0.937939 0
M  V30 1705 C 153.49 -1.12553 -1.687 0
M  V30 1706 C 153.823 0.329782 -1.91379 0
M  V30 1707 O 153.098 1.24202 -1.4968 0
M  V30 1708 C 153.381 -1.89862 -3.05981 0
M  V30 1709 C 153.234 -3.43318 -2.90607 0
M  V30 1710 C 154.553 -1.69499 -4.0615 0
M  V30 1711 H 151.672 -0.410257 -0.612257 0
M  V30 1712 H 154.314 -1.55685 -1.08913 0
M  V30 1713 H 152.464 -1.53204 -3.57017 0
M  V30 1714 H 154.136 -3.89747 -2.46769 0
M  V30 1715 H 152.379 -3.70179 -2.26164 0
M  V30 1716 H 153.05 -3.92642 -3.8799 0
M  V30 1717 H 155.526 -2.01442 -3.64088 0
M  V30 1718 H 154.402 -2.26002 -5.00214 0
M  V30 1719 H 154.663 -0.640365 -4.37438 0
M  V30 1720 N 153.722 1.14298 -1.08507 0
M  V30 1721 C 154.947 1.8976 -0.837001 0
M  V30 1722 C 155.372 1.78097 0.605228 0
M  V30 1723 O 154.73 1.12188 1.4242 0
M  V30 1724 C 154.778 3.37685 -1.26495 0
M  V30 1725 O 153.882 4.10281 -0.417514 0
M  V30 1726 H 153.223 0.590365 -0.303917 0
M  V30 1727 H 155.753 1.44672 -1.44676 0
M  V30 1728 H 155.763 3.88501 -1.24625 0
M  V30 1729 H 154.438 3.45492 -2.31534 0
M  V30 1730 H 153.015 3.69536 -0.499722 0
M  V30 1731 N 155.201 0.870884 1.31352 0
M  V30 1732 C 156.45 0.478408 1.95944 0
M  V30 1733 C 156.763 -0.974493 1.69597 0
M  V30 1734 O 157.969 -1.47316 2.28058 0
M  V30 1735 C 156.425 0.804609 3.50791 0
M  V30 1736 C 156.033 2.27433 3.85977 0
M  V30 1737 C 157.777 0.480648 4.2177 0
M  V30 1738 C 155.684 2.5429 5.33939 0
M  V30 1739 H 154.614 0.175175 0.733369 0
M  V30 1740 H 157.265 1.06391 1.4951 0
M  V30 1741 H 155.647 0.148347 3.95722 0
M  V30 1742 H 156.821 2.97373 3.52002 0
M  V30 1743 H 155.136 2.56442 3.28065 0
M  V30 1744 H 157.733 0.658519 5.30629 0
M  V30 1745 H 158.076 -0.578979 4.12254 0
M  V30 1746 H 158.609 1.09349 3.82476 0
M  V30 1747 H 155.348 3.58939 5.48491 0
M  V30 1748 H 154.868 1.88945 5.69263 0
M  V30 1749 H 156.547 2.39066 6.01212 0
M  V30 1750 N 156.679 -1.44442 0.630414 0
M  V30 1751 C 157.904 -2.06927 0.139944 0
M  V30 1752 C 158.329 -1.46795 -1.17613 0
M  V30 1753 O 157.687 -0.569144 -1.72135 0
M  V30 1754 C 157.735 -3.6058 0.0379581 0
M  V30 1755 O 156.839 -3.99937 -1.0062 0
M  V30 1756 H 156.18 -0.658608 0.0844483 0
M  V30 1757 H 158.71 -1.85327 0.866891 0
M  V30 1758 H 158.72 -4.07714 -0.152856 0
M  V30 1759 H 157.395 -4.03728 0.998809 0
M  V30 1760 H 155.972 -3.64436 -0.79001 0
M  V30 1761 N 158.157 -0.370918 -1.53173 0
M  V30 1762 C 159.382 0.220293 -2.06227 0
M  V30 1763 C 159.807 1.41243 -1.24225 0
M  V30 1764 O 159.165 1.79387 -0.262645 0
M  V30 1765 C 159.213 0.586663 -3.55796 0
M  V30 1766 O 158.317 1.68317 -3.76488 0
M  V30 1767 H 157.658 0.0308099 -0.663285 0
M  V30 1768 H 160.188 -0.533068 -1.97534 0
M  V30 1769 H 160.198 0.85617 -3.98916 0
M  V30 1770 H 158.873 -0.285013 -4.14922 0
M  V30 1771 H 157.45 1.40881 -3.45264 0
M  V30 1772 N 159.635 1.57281 -0.100228 0
M  V30 1773 C 161.046 1.81725 0.428107 0
M  V30 1774 C 161.397 1.01619 1.67833 0
M  V30 1775 O 160.522 0.247098 2.14985 0
M  V30 1776 C 161.117 3.29617 0.78347 0
M  V30 1777 C 159.676 3.54808 1.25653 0
M  V30 1778 C 158.823 2.76118 0.255752 0
M  V30 1779 H 161.774 1.55324 -0.325608 0
M  V30 1780 H 161.795 3.4322 1.64256 0
M  V30 1781 H 161.307 3.87893 -0.12665 0
M  V30 1782 H 159.408 3.01868 2.18418 0
M  V30 1783 H 159.521 4.63443 1.21482 0
M  V30 1784 H 157.885 2.43745 0.738956 0
M  V30 1785 H 158.668 3.37145 -0.647136 0
M  V30 1786 N 161.113 -0.173488 1.56642 0
M  V30 1787 C 162.061 -1.23417 1.97157 0
M  V30 1788 C 163.055 -1.45946 0.860013 0
M  V30 1789 O 164.261 -1.46551 1.04512 0
M  V30 1790 H 160.636 -0.414818 0.62724 0
M  V30 1791 H 162.607 -0.865582 2.8557 0
M  V30 1792 C 161.356 -2.5665 2.34576 0
M  V30 1793 H 160.679 -2.40137 3.19647 0
M  V30 1794 H 162.119 -3.2956 2.6677 0
M  V30 1795 C 160.578 -3.15245 1.18836 0
M  V30 1796 O 161.108 -3.98883 0.474869 0
M  V30 1797 N 159.314 -2.74303 0.959497 0
M  V30 1798 H 158.861 -2.0639 1.54146 0
M  V30 1799 H 158.819 -3.13844 0.186932 0
M  V30 1800 N 162.591 -1.51276 -0.441967 0
M  V30 1801 C 163.521 -1.752 -1.54361 0
M  V30 1802 C 164.502 -0.601682 -1.59103 0
M  V30 1803 O 165.687 -0.843913 -1.74905 0
M  V30 1804 C 162.817 -1.87282 -2.92477 0
M  V30 1805 C 161.771 -3.02687 -3.02596 0
M  V30 1806 C 161.097 -2.99947 -4.42647 0
M  V30 1807 C 162.397 -4.4273 -2.77106 0
M  V30 1808 H 164.091 -2.67442 -1.34592 0
M  V30 1809 H 161.637 -1.28694 -0.646048 0
M  V30 1810 H 163.59 -2.02602 -3.695 0
M  V30 1811 H 162.314 -0.916844 -3.13467 0
M  V30 1812 H 160.973 -2.87065 -2.28012 0
M  V30 1813 H 160.621 -2.02136 -4.60597 0
M  V30 1814 H 160.321 -3.77439 -4.50348 0
M  V30 1815 H 161.845 -3.17354 -5.2165 0
M  V30 1816 H 163.259 -4.58727 -3.43864 0
M  V30 1817 H 161.656 -5.21893 -2.96222 0
M  V30 1818 H 162.726 -4.53087 -1.72744 0
M  V30 1819 N 164.069 0.697108 -1.41344 0
M  V30 1820 C 165.297 1.48593 -1.43972 0
M  V30 1821 C 165.712 1.88747 -0.0445612 0
M  V30 1822 O 165.069 1.56682 0.935785 0
M  V30 1823 C 165.12 2.74946 -2.34706 0
M  V30 1824 O 164.841 2.36484 -3.68791 0
M  V30 1825 C 166.342 3.687 -2.46121 0
M  V30 1826 H 163.562 0.457964 -0.490418 0
M  V30 1827 H 166.106 0.858429 -1.8561 0
M  V30 1828 H 164.261 3.33937 -1.9638 0
M  V30 1829 H 164.675 3.17918 -4.17167 0
M  V30 1830 H 166.149 4.54145 -3.13777 0
M  V30 1831 H 166.626 4.13081 -1.49199 0
M  V30 1832 H 167.232 3.15613 -2.85076 0
M  V30 1833 N 165.547 1.27147 0.931209 0
M  V30 1834 C 166.457 1.11372 2.06478 0
M  V30 1835 C 167.473 0.044645 1.73943 0
M  V30 1836 O 168.649 0.250417 1.99837 0
M  V30 1837 C 165.714 0.758838 3.38294 0
M  V30 1838 C 164.775 1.90841 3.84549 0
M  V30 1839 C 164.008 1.57036 5.10074 0
M  V30 1840 O 164.231 0.476645 5.68405 0
M  V30 1841 O 163.165 2.40839 5.51616 0
M  V30 1842 H 166.991 2.06493 2.22698 0
M  V30 1843 H 164.576 1.06301 1.04978 0
M  V30 1844 H 166.458 0.574098 4.17471 0
M  V30 1845 H 165.133 -0.162879 3.2329 0
M  V30 1846 H 164.04 2.14819 3.06274 0
M  V30 1847 H 165.373 2.81021 4.04089 0
M  V30 1848 N 167.025 -1.13721 1.09112 0
M  V30 1849 C 168.441 -1.36914 0.820174 0
M  V30 1850 C 168.641 -1.93356 -0.567079 0
M  V30 1851 O 167.697 -2.15093 -1.32255 0
M  V30 1852 C 169.01 -2.3235 1.90877 0
M  V30 1853 C 170.558 -2.45973 1.93562 0
M  V30 1854 C 171.033 -3.44714 3.01556 0
M  V30 1855 N 172.524 -3.52263 3.00775 0
M  V30 1856 C 173.259 -4.28536 3.80978 0
M  V30 1857 N 172.755 -5.07991 4.71081 0
M  V30 1858 N 174.548 -4.23804 3.69251 0
M  V30 1859 H 166.699 -0.754348 1.98553 0
M  V30 1860 H 168.962 -0.3944 0.862063 0
M  V30 1861 H 168.668 -1.98027 2.90651 0
M  V30 1862 H 168.542 -3.32332 1.78424 0
M  V30 1863 H 170.929 -2.79584 0.944286 0
M  V30 1864 H 171.01 -1.45926 2.10093 0
M  V30 1865 H 170.654 -3.11835 4.00901 0
M  V30 1866 H 170.584 -4.44558 2.82269 0
M  V30 1867 H 173.075 -2.95567 2.35475 0
M  V30 1868 H 173.388 -5.63487 5.28869 0
M  V30 1869 H 171.733 -5.07235 4.75119 0
M  V30 1870 H 174.924 -3.60806 2.98222 0
M  V30 1871 H 175.097 -4.82995 4.31995 0
M  V30 1872 N 168.503 -0.877838 -1.30888 0
M  V30 1873 C 169.435 -0.296607 -2.27273 0
M  V30 1874 C 170.448 0.544799 -1.53414 0
M  V30 1875 O 171.637 0.365511 -1.74718 0
M  V30 1876 C 168.737 0.597481 -3.33592 0
M  V30 1877 C 167.91 -0.213251 -4.3688 0
M  V30 1878 C 166.969 0.610208 -5.2265 0
M  V30 1879 O 165.995 0.035441 -5.69189 0
M  V30 1880 N 167.197 1.92071 -5.47804 0
M  V30 1881 H 169.962 -1.12492 -2.77787 0
M  V30 1882 H 167.523 -0.740105 -1.43993 0
M  V30 1883 H 169.515 1.15425 -3.87891 0
M  V30 1884 H 168.085 1.32647 -2.83061 0
M  V30 1885 H 167.305 -0.951466 -3.82545 0
M  V30 1886 H 168.593 -0.769262 -5.02951 0
M  V30 1887 H 167.991 2.4107 -5.11763 0
M  V30 1888 H 166.548 2.42508 -6.05007 0
M  V30 1889 N 169.982 1.44106 -0.638065 0
M  V30 1890 C 170.912 2.33448 0.0494287 0
M  V30 1891 C 171.893 1.48606 0.827672 0
M  V30 1892 O 173.078 1.77308 0.792173 0
M  V30 1893 C 170.208 3.31771 1.02691 0
M  V30 1894 C 169.162 4.26485 0.359823 0
M  V30 1895 C 168.488 5.14729 1.44769 0
M  V30 1896 C 169.788 5.17056 -0.738296 0
M  V30 1897 H 171.482 2.91183 -0.696636 0
M  V30 1898 H 169.028 1.40014 -0.336456 0
M  V30 1899 H 170.981 3.93161 1.51666 0
M  V30 1900 H 169.705 2.7226 1.80395 0
M  V30 1901 H 168.364 3.66437 -0.10934 0
M  V30 1902 H 168.012 4.51566 2.21578 0
M  V30 1903 H 167.712 5.78913 1.00668 0
M  V30 1904 H 169.236 5.78991 1.93911 0
M  V30 1905 H 170.65 5.72342 -0.331354 0
M  V30 1906 H 169.047 5.89879 -1.10286 0
M  V30 1907 H 170.117 4.57652 -1.60258 0
M  V30 1908 N 171.46 0.379036 1.52974 0
M  V30 1909 C 172.423 -0.448865 2.24762 0
M  V30 1910 C 173.423 -0.998689 1.26027 0
M  V30 1911 O 174.613 -0.882313 1.50203 0
M  V30 1912 C 171.745 -1.62872 2.99476 0
M  V30 1913 H 172.938 0.179491 2.99362 0
M  V30 1914 H 170.491 0.13096 1.5575 0
M  V30 1915 H 171.226 -2.29479 2.29151 0
M  V30 1916 H 171.011 -1.24128 3.71934 0
M  V30 1917 H 172.501 -2.2151 3.5401 0
M  V30 1918 N 172.938 -1.57226 0.108567 0
M  V30 1919 C 174.215 -1.86333 -0.594939 0
M  V30 1920 C 174.595 -1.00788 -1.85486 0
M  V30 1921 O 173.943 -0.0839293 -2.28346 0
M  V30 1922 C 174.153 -3.37265 -0.897405 0
M  V30 1923 C 175.501 -4.05629 -1.25501 0
M  V30 1924 O 176.525 -3.42224 -0.987998 0
M  V30 1925 O 175.384 -5.17531 -1.75567 0
M  V30 1926 H 172.478 -0.771018 -0.2991 0
M  V30 1927 H 175.024 -1.69102 0.142283 0
M  V30 1928 H 173.796 -3.913 -0.00413806 0
M  V30 1929 H 173.419 -3.59889 -1.69014 0
M  V30 1930 N 174.416 0.165178 -1.56732 0
M  V30 1931 C 175.646 0.894919 -1.86212 0
M  V30 1932 C 176.054 1.76066 -0.692627 0
M  V30 1933 O 175.397 1.80387 0.347303 0
M  V30 1934 C 175.459 1.8174 -3.10179 0
M  V30 1935 C 175.123 1.13064 -4.42793 0
M  V30 1936 C 176.12 0.493169 -5.17556 0
M  V30 1937 C 173.805 1.12556 -4.89527 0
M  V30 1938 C 175.799 -0.140209 -6.37246 0
M  V30 1939 C 173.486 0.488366 -6.09145 0
M  V30 1940 C 174.484 -0.143411 -6.82849 0
M  V30 1941 O 174.172 -0.77055 -8.00199 0
M  V30 1942 H 173.904 0.265114 -0.621844 0
M  V30 1943 H 176.458 0.168242 -2.0471 0
M  V30 1944 H 174.688 2.58455 -2.87642 0
M  V30 1945 H 176.377 2.4175 -3.26055 0
M  V30 1946 H 177.143 0.489023 -4.82528 0
M  V30 1947 H 173.022 1.60672 -4.32094 0
M  V30 1948 H 176.566 -0.633932 -6.94714 0
M  V30 1949 H 172.463 0.490116 -6.43637 0
M  V30 1950 H 173.231 -0.670408 -8.1575 0
M  V30 1951 N 175.894 1.51508 0.433938 0
M  V30 1952 C 177.124 1.67914 1.20369 0
M  V30 1953 C 177.532 0.377461 1.85397 0
M  V30 1954 O 176.875 -0.654255 1.71654 0
M  V30 1955 C 176.937 2.74045 2.32679 0
M  V30 1956 C 176.601 4.16543 1.87991 0
M  V30 1957 C 177.598 5.01211 1.38145 0
M  V30 1958 C 175.283 4.6266 1.95579 0
M  V30 1959 C 177.277 6.30056 0.964774 0
M  V30 1960 C 174.964 5.91501 1.53523 0
M  V30 1961 C 175.962 6.75027 1.04055 0
M  V30 1962 O 175.65 8.01459 0.625964 0
M  V30 1963 H 175.382 0.566578 0.368735 0
M  V30 1964 H 177.936 1.98709 0.51999 0
M  V30 1965 H 176.166 2.38572 3.04336 0
M  V30 1966 H 177.855 2.79295 2.94532 0
M  V30 1967 H 178.621 4.66783 1.31675 0
M  V30 1968 H 174.5 3.97767 2.33029 0
M  V30 1969 H 178.044 6.95202 0.57796 0
M  V30 1970 H 173.941 6.25442 1.59665 0
M  V30 1971 H 174.709 8.15043 0.751509 0
M  V30 1972 N 177.372 -0.689602 1.41712 0
M  V30 1973 C 178.302 -1.81577 1.46806 0
M  V30 1974 C 179.283 -1.66945 0.326105 0
M  V30 1975 O 180.468 -1.86588 0.538377 0
M  V30 1976 C 177.598 -3.19762 1.35535 0
M  V30 1977 C 176.552 -3.49107 2.47605 0
M  V30 1978 C 175.878 -4.86711 2.21397 0
M  V30 1979 C 177.178 -3.47483 3.89939 0
M  V30 1980 H 178.872 -1.7757 2.41058 0
M  V30 1981 H 176.418 -0.852887 1.16025 0
M  V30 1982 H 178.371 -3.98263 1.3771 0
M  V30 1983 H 177.095 -3.24409 0.377708 0
M  V30 1984 H 175.754 -2.72959 2.44722 0
M  V30 1985 H 175.402 -4.8799 1.21961 0
M  V30 1986 H 175.102 -5.0731 2.96497 0
M  V30 1987 H 176.626 -5.67515 2.25297 0
M  V30 1988 H 178.04 -4.1598 3.94505 0
M  V30 1989 H 176.437 -3.79615 4.64771 0
M  V30 1990 H 177.507 -2.46341 4.17665 0
M  V30 1991 N 178.85 -1.27639 -0.924453 0
M  V30 1992 C 179.813 -1.10681 -2.00705 0
M  V30 1993 C 180.813 -0.0497823 -1.60723 0
M  V30 1994 O 182.003 -0.294654 -1.7169 0
M  V30 1995 C 179.135 -0.687164 -3.33902 0
M  V30 1996 H 180.328 -2.06817 -2.17179 0
M  V30 1997 H 177.881 -1.10473 -1.10569 0
M  V30 1998 H 178.616 0.275439 -3.23128 0
M  V30 1999 H 178.401 -1.45061 -3.6428 0
M  V30 2000 H 179.891 -0.590853 -4.13399 0
M  V30 2001 N 180.328 1.1314 -1.09713 0
M  V30 2002 C 181.605 1.80762 -0.747302 0
M  V30 2003 C 181.985 1.96663 0.767265 0
M  V30 2004 O 181.333 1.53706 1.69076 0
M  V30 2005 C 181.543 3.15606 -1.48975 0
M  V30 2006 C 182.891 3.90914 -1.65746 0
M  V30 2007 O 183.915 3.25239 -1.45251 0
M  V30 2008 O 182.774 5.08718 -1.9967 0
M  V30 2009 H 179.868 0.782103 -0.268782 0
M  V30 2010 H 182.414 1.20041 -1.19951 0
M  V30 2011 H 181.186 2.99278 -2.52088 0
M  V30 2012 H 180.809 3.84029 -1.02991 0
M  V30 2013 N 181.806 0.884767 1.30421 0
M  V30 2014 C 183.217 0.553656 1.78302 0
M  V30 2015 C 183.568 -0.930153 1.7275 0
M  V30 2016 O 182.693 -1.72681 1.30423 0
M  V30 2017 C 183.288 0.998234 3.2376 0
M  V30 2018 C 181.847 0.71854 3.69478 0
M  V30 2019 C 180.994 1.18132 2.50879 0
M  V30 2020 H 183.945 1.06901 1.17294 0
M  V30 2021 H 183.966 0.327118 3.79091 0
M  V30 2022 H 183.478 2.0782 3.27769 0
M  V30 2023 H 181.579 -0.349444 3.70958 0
M  V30 2024 H 181.692 1.30595 4.60958 0
M  V30 2025 H 180.056 0.600669 2.47516 0
M  V30 2026 H 180.839 2.26902 2.57624 0
M  V30 2027 N 183.284 -1.43765 0.645699 0
M  V30 2028 C 184.194 -2.34544 -0.0512957 0
M  V30 2029 C 185.21 -1.53455 -0.82022 0
M  V30 2030 O 186.386 -1.86133 -0.769176 0
M  V30 2031 C 183.451 -3.31636 -1.01087 0
M  V30 2032 C 182.512 -4.2863 -0.239712 0
M  V30 2033 C 181.745 -5.21084 -1.15358 0
M  V30 2034 O 181.968 -5.1779 -2.39269 0
M  V30 2035 O 180.902 -5.98593 -0.630038 0
M  V30 2036 H 184.728 -2.95624 0.695718 0
M  V30 2037 H 182.313 -1.43781 0.405882 0
M  V30 2038 H 184.195 -3.9136 -1.56254 0
M  V30 2039 H 182.87 -2.73069 -1.73824 0
M  V30 2040 H 181.777 -3.72408 0.355356 0
M  V30 2041 H 183.11 -4.90157 0.447936 0
M  V30 2042 N 184.763 -0.387143 -1.52771 0
M  V30 2043 C 186.012 0.19697 -2.00736 0
M  V30 2044 C 186.325 1.48082 -1.27793 0
M  V30 2045 O 187.531 2.14485 -1.66458 0
M  V30 2046 C 185.987 0.401568 -3.57653 0
M  V30 2047 C 185.595 -0.868907 -4.39493 0
M  V30 2048 C 187.339 0.942164 -4.13912 0
M  V30 2049 C 185.246 -0.632705 -5.88006 0
M  V30 2050 H 184.176 0.0773827 -0.750019 0
M  V30 2051 H 186.827 -0.50921 -1.76293 0
M  V30 2052 H 185.209 1.16954 -3.78335 0
M  V30 2053 H 186.383 -1.64133 -4.30577 0
M  V30 2054 H 184.698 -1.33429 -3.94443 0
M  V30 2055 H 187.295 1.13455 -5.22525 0
M  V30 2056 H 187.638 1.9106 -3.69867 0
M  V30 2057 H 188.171 0.233814 -3.97112 0
M  V30 2058 H 184.91 -1.57208 -6.36369 0
M  V30 2059 H 184.43 0.100825 -5.99715 0
M  V30 2060 H 186.109 -0.26642 -6.46451 0
M  V30 2061 N 186.241 1.57166 -0.116904 0
M  V30 2062 C 187.471 1.99184 0.548586 0
M  V30 2063 C 187.879 0.995436 1.60897 0
M  V30 2064 O 187.222 -0.0201293 1.83689 0
M  V30 2065 C 187.284 3.37611 1.23526 0
M  V30 2066 C 186.948 4.55857 0.323077 0
M  V30 2067 C 187.945 5.18056 -0.437476 0
M  V30 2068 C 185.63 5.01751 0.234761 0
M  V30 2069 C 187.624 6.24536 -1.2741 0
M  V30 2070 C 185.311 6.08093 -0.605496 0
M  V30 2071 C 186.309 6.69352 -1.35856 0
M  V30 2072 O 185.997 7.7364 -2.18487 0
M  V30 2073 H 185.729 0.659148 0.149999 0
M  V30 2074 H 188.283 2.0443 -0.199428 0
M  V30 2075 H 186.513 3.29113 2.0303 0
M  V30 2076 H 188.202 3.63932 1.79745 0
M  V30 2077 H 188.968 4.83516 -0.379105 0
M  V30 2078 H 184.847 4.53817 0.810601 0
M  V30 2079 H 188.391 6.72281 -1.86237 0
M  V30 2080 H 184.288 6.42063 -0.665268 0
M  V30 2081 H 185.056 7.90727 -2.11406 0
M  V30 2082 N 187.719 -0.156864 1.56817 0
M  V30 2083 C 188.666 -1.19394 1.97519 0
M  V30 2084 C 189.636 -1.4322 0.841265 0
M  V30 2085 O 190.821 -1.55719 1.10255 0
M  V30 2086 C 187.961 -2.52483 2.35258 0
M  V30 2087 C 187.074 -2.35914 3.61896 0
M  V30 2088 C 186.209 -3.61969 3.88782 0
M  V30 2089 C 185.248 -3.40395 5.08722 0
M  V30 2090 N 184.385 -4.58556 5.31668 0
M  V30 2091 H 189.225 -0.839845 2.85921 0
M  V30 2092 H 186.762 -0.403264 1.41464 0
M  V30 2093 H 188.72 -3.30071 2.55165 0
M  V30 2094 H 187.35 -2.85859 1.49949 0
M  V30 2095 H 186.402 -1.49429 3.49821 0
M  V30 2096 H 187.714 -2.15926 4.49641 0
M  V30 2097 H 186.868 -4.47989 4.09135 0
M  V30 2098 H 185.607 -3.84951 2.9944 0
M  V30 2099 H 184.612 -2.52763 4.88253 0
M  V30 2100 H 185.837 -3.18822 5.99608 0
M  V30 2101 H 183.783 -4.81729 4.45279 0
M  V30 2102 H 183.7 -4.41535 6.13664 0
M  V30 2103 H 184.968 -5.45817 5.5651 0
M  V30 2104 N 189.197 -1.51736 -0.425897 0
M  V30 2105 C 190.144 -1.73875 -1.51776 0
M  V30 2106 C 191.114 -0.580702 -1.55618 0
M  V30 2107 O 192.299 -0.81641 -1.72451 0
M  V30 2108 C 189.439 -1.88012 -2.89388 0
M  V30 2109 C 188.552 -3.15606 -2.94986 0
M  V30 2110 C 187.687 -3.20271 -4.23793 0
M  V30 2111 C 186.726 -4.42134 -4.23302 0
M  V30 2112 N 185.863 -4.44284 -5.43651 0
M  V30 2113 H 190.703 -2.67071 -1.32201 0
M  V30 2114 H 188.24 -1.32351 -0.642008 0
M  V30 2115 H 190.198 -1.9419 -3.69251 0
M  V30 2116 H 188.828 -0.98213 -3.07496 0
M  V30 2117 H 187.88 -3.18681 -2.07717 0
M  V30 2118 H 189.192 -4.05486 -2.90486 0
M  V30 2119 H 188.346 -3.25428 -5.12036 0
M  V30 2120 H 187.085 -2.28299 -4.30965 0
M  V30 2121 H 186.09 -4.3714 -3.3345 0
M  V30 2122 H 187.315 -5.35382 -4.17783 0
M  V30 2123 H 185.261 -3.55188 -5.51523 0
M  V30 2124 H 185.178 -5.27988 -5.41078 0
M  V30 2125 H 186.446 -4.53649 -6.33895 0
M  V30 2126 N 190.675 0.682077 -1.42076 0
M  V30 2127 C 191.924 1.43786 -1.41451 0
M  V30 2128 C 192.237 1.95574 -0.0317074 0
M  V30 2129 O 193.443 2.71326 0.0971462 0
M  V30 2130 C 191.899 2.60071 -2.48779 0
M  V30 2131 C 191.507 2.15013 -3.93031 0
M  V30 2132 C 193.251 3.37626 -2.57311 0
M  V30 2133 C 191.158 3.28336 -4.91883 0
M  V30 2134 H 190.088 0.540143 -0.526082 0
M  V30 2135 H 192.739 0.739157 -1.67955 0
M  V30 2136 H 191.121 3.32275 -2.15429 0
M  V30 2137 H 192.295 1.5001 -4.35699 0
M  V30 2138 H 190.61 1.50416 -3.88284 0
M  V30 2139 H 193.207 4.22012 -3.28345 0
M  V30 2140 H 193.55 3.83727 -1.61429 0
M  V30 2141 H 194.083 2.72488 -2.89819 0
M  V30 2142 H 190.822 2.87234 -5.89217 0
M  V30 2143 H 190.342 3.92145 -4.53853 0
M  V30 2144 H 192.021 3.93913 -5.13265 0
M  V30 2145 N 192.153 1.28127 0.917671 0
M  V30 2146 C 193.399 1.15223 1.66888 0
M  V30 2147 C 193.732 -0.299293 1.9188 0
M  V30 2148 O 193.007 -1.21805 1.51637 0
M  V30 2149 C 193.29 1.94706 3.02922 0
M  V30 2150 C 193.143 3.47898 2.85109 0
M  V30 2151 C 194.462 1.75939 4.03402 0
M  V30 2152 H 191.581 0.419946 0.605652 0
M  V30 2153 H 194.223 1.57398 1.06423 0
M  V30 2154 H 192.373 1.58864 3.54534 0
M  V30 2155 H 194.045 3.93624 2.40537 0
M  V30 2156 H 192.288 3.7373 2.20246 0
M  V30 2157 H 192.959 3.98765 3.81694 0
M  V30 2158 H 195.435 2.07209 3.60837 0
M  V30 2159 H 194.311 2.33931 4.96556 0
M  V30 2160 H 194.572 0.709877 4.36364 0
M  V30 2161 N 193.631 -1.12557 1.10312 0
M  V30 2162 C 194.541 -2.21841 0.763142 0
M  V30 2163 C 195.557 -1.72354 -0.238801 0
M  V30 2164 O 196.733 -2.01249 -0.0778746 0
M  V30 2165 C 193.798 -3.46131 0.198632 0
M  V30 2166 C 192.859 -4.10464 1.25769 0
M  V30 2167 C 192.092 -5.28821 0.72002 0
M  V30 2168 O 192.315 -5.6859 -0.453993 0
M  V30 2169 O 191.249 -5.83437 1.47935 0
M  V30 2170 H 195.075 -2.53312 1.67532 0
M  V30 2171 H 192.66 -1.20867 0.878157 0
M  V30 2172 H 194.542 -4.2125 -0.112401 0
M  V30 2173 H 193.217 -3.16338 -0.686419 0
M  V30 2174 H 192.124 -3.3713 1.62156 0
M  V30 2175 H 193.457 -4.44408 2.11571 0
M  V30 2176 N 195.109 -0.891671 -1.2995 0
M  V30 2177 C 196.072 -0.36828 -2.26222 0
M  V30 2178 C 197.072 0.493014 -1.53056 0
M  V30 2179 O 198.262 0.299213 -1.71611 0
M  V30 2180 C 195.394 0.47442 -3.37583 0
M  V30 2181 H 196.587 -1.21844 -2.74033 0
M  V30 2182 H 194.14 -0.669107 -1.41254 0
M  V30 2183 H 194.875 1.34489 -2.95099 0
M  V30 2184 H 194.66 -0.142615 -3.91841 0
M  V30 2185 H 196.15 0.83218 -4.09224 0
M  V30 2186 N 196.587 1.43421 -0.653314 0
M  V30 2187 C 197.517 2.33487 0.0246656 0
M  V30 2188 C 198.498 1.49475 0.811863 0
M  V30 2189 O 199.683 1.78139 0.773322 0
M  V30 2190 C 196.813 3.32841 0.99166 0
M  V30 2191 C 195.767 4.26842 0.314568 0
M  V30 2192 C 195.093 5.16236 1.39302 0
M  V30 2193 C 196.393 5.16243 -0.793095 0
M  V30 2194 H 198.087 2.90427 -0.727481 0
M  V30 2195 H 195.633 1.39649 -0.351287 0
M  V30 2196 H 197.586 3.94747 1.47487 0
M  V30 2197 H 196.31 2.74158 1.77497 0
M  V30 2198 H 194.969 3.663 -0.148199 0
M  V30 2199 H 194.617 4.53891 2.16776 0
M  V30 2200 H 194.317 5.79948 0.945223 0
M  V30 2201 H 195.841 5.81015 1.87759 0
M  V30 2202 H 197.255 5.71958 -0.392039 0
M  V30 2203 H 195.652 5.88676 -1.16536 0
M  V30 2204 H 196.722 4.55927 -1.65103 0
M  V30 2205 N 198.065 0.39524 1.52563 0
M  V30 2206 C 199.476 -0.0774719 1.86539 0
M  V30 2207 C 199.827 -1.45641 1.31466 0
M  V30 2208 O 198.952 -2.06459 0.648367 0
M  V30 2209 C 199.547 -0.147356 3.38479 0
M  V30 2210 C 198.106 -0.564373 3.72145 0
M  V30 2211 C 197.253 0.269919 2.75983 0
M  V30 2212 H 200.204 0.612876 1.46388 0
M  V30 2213 H 200.225 -0.965343 3.68051 0
M  V30 2214 H 199.737 0.856387 3.78534 0
M  V30 2215 H 197.838 -1.57527 3.37663 0
M  V30 2216 H 197.951 -0.318402 4.78041 0
M  V30 2217 H 196.315 -0.265696 2.5331 0
M  V30 2218 H 197.098 1.27175 3.18875 0
M  V30 2219 N 199.544 -1.57102 0.125237 0
M  V30 2220 C 200.769 -2.0019 -0.542101 0
M  V30 2221 C 201.194 -1.00449 -1.59034 0
M  V30 2222 O 200.552 0.0229423 -1.81285 0
M  V30 2223 C 200.6 -3.42129 -1.13929 0
M  V30 2224 O 199.704 -3.45307 -2.2547 0
M  V30 2225 H 199.045 -0.650171 -0.134812 0
M  V30 2226 H 201.575 -2.03461 0.215553 0
M  V30 2227 H 201.585 -3.80471 -1.4733 0
M  V30 2228 H 200.26 -4.14237 -0.371531 0
M  V30 2229 H 198.837 -3.1879 -1.93462 0
M  V30 2230 N 201.022 0.148545 -1.56898 0
M  V30 2231 C 201.932 1.20293 -2.01412 0
M  V30 2232 C 202.948 1.47107 -0.929273 0
M  V30 2233 O 204.124 1.58807 -1.23863 0
M  V30 2234 C 201.189 2.51682 -2.38447 0
M  V30 2235 C 200.25 2.32529 -3.60872 0
M  V30 2236 C 199.483 3.57653 -3.96132 0
M  V30 2237 O 199.706 4.63771 -3.32073 0
M  V30 2238 O 198.64 3.50408 -4.89385 0
M  V30 2239 H 202.466 0.855025 -2.91416 0
M  V30 2240 H 200.051 0.357151 -1.45068 0
M  V30 2241 H 201.933 3.29147 -2.63135 0
M  V30 2242 H 200.608 2.86006 -1.51599 0
M  V30 2243 H 199.515 1.53019 -3.41373 0
M  V30 2244 H 200.848 2.03121 -4.48333 0
M  V30 2245 N 202.5 1.5196 0.417844 0
M  V30 2246 C 203.447 1.74678 1.50852 0
M  V30 2247 C 204.417 0.588947 1.55308 0
M  V30 2248 O 205.602 0.825544 1.72016 0
M  V30 2249 C 202.742 1.89544 2.88387 0
M  V30 2250 C 201.855 3.17166 2.93309 0
M  V30 2251 C 200.99 3.22513 4.22088 0
M  V30 2252 C 200.029 4.44372 4.20951 0
M  V30 2253 N 199.166 4.47161 5.41287 0
M  V30 2254 H 204.006 2.67768 1.30783 0
M  V30 2255 H 201.543 1.32689 0.63498 0
M  V30 2256 H 203.501 1.96146 3.68216 0
M  V30 2257 H 202.131 0.998424 3.06971 0
M  V30 2258 H 201.183 3.19778 2.06024 0
M  V30 2259 H 202.495 4.07021 2.88332 0
M  V30 2260 H 201.649 3.28139 5.10303 0
M  V30 2261 H 200.388 2.30581 4.29748 0
M  V30 2262 H 199.393 4.38902 3.31127 0
M  V30 2263 H 200.618 5.3759 4.14938 0
M  V30 2264 H 198.564 3.58108 5.49632 0
M  V30 2265 H 198.481 5.3085 5.3827 0
M  V30 2266 H 199.749 4.57005 6.3148 0
M  V30 2267 N 203.978 -0.674533 1.42435 0
M  V30 2268 C 205.394 -0.98769 1.25367 0
M  V30 2269 C 205.594 -2.00879 0.158044 0
M  V30 2270 O 204.65 -2.48075 -0.470633 0
M  V30 2271 C 205.963 -1.49224 2.6106 0
M  V30 2272 C 207.511 -1.61 2.68417 0
M  V30 2273 C 207.986 -2.14852 4.04478 0
M  V30 2274 N 209.477 -2.22185 4.06434 0
M  V30 2275 C 210.212 -2.64928 5.08528 0
M  V30 2276 N 209.708 -3.07121 6.21006 0
M  V30 2277 N 211.501 -2.64679 4.95885 0
M  V30 2278 H 203.652 0.00152503 2.124 0
M  V30 2279 H 205.915 -0.0618434 0.945981 0
M  V30 2280 H 205.621 -0.816453 3.42092 0
M  V30 2281 H 205.495 -2.47094 2.84999 0
M  V30 2282 H 207.882 -2.27686 1.87732 0
M  V30 2283 H 207.963 -0.616195 2.48267 0
M  V30 2284 H 207.607 -1.48775 4.85622 0
M  V30 2285 H 207.537 -3.15024 4.2198 0
M  V30 2286 H 210.028 -1.92435 3.25234 0
M  V30 2287 H 210.341 -3.38423 6.94759 0
M  V30 2288 H 208.686 -3.04978 6.24511 0
M  V30 2289 H 211.877 -2.31078 4.07088 0
M  V30 2290 H 212.05 -2.9767 5.75584 0
M  V30 2291 N 205.456 -1.28612 -0.910864 0
M  V30 2292 C 206.386 -1.15326 -2.03032 0
M  V30 2293 C 207.367 -0.0502924 -1.70026 0
M  V30 2294 O 208.552 -0.227797 -1.92859 0
M  V30 2295 C 205.682 -0.817343 -3.37545 0
M  V30 2296 C 204.636 -1.8754 -3.84724 0
M  V30 2297 C 203.962 -1.39305 -5.16235 0
M  V30 2298 C 205.262 -3.28244 -4.06267 0
M  V30 2299 H 206.956 -2.08975 -2.14406 0
M  V30 2300 H 204.502 -1.00612 -1.03021 0
M  V30 2301 H 206.455 -0.711151 -4.15356 0
M  V30 2302 H 205.179 0.154846 -3.26233 0
M  V30 2303 H 203.838 -1.97079 -3.09121 0
M  V30 2304 H 203.486 -0.409846 -5.01328 0
M  V30 2305 H 203.186 -2.10057 -5.48771 0
M  V30 2306 H 204.71 -1.30014 -5.96598 0
M  V30 2307 H 206.124 -3.21611 -4.74594 0
M  V30 2308 H 204.521 -3.96855 -4.5014 0
M  V30 2309 H 205.591 -3.72048 -3.10979 0
M  V30 2310 N 206.934 1.1197 -1.10907 0
M  V30 2311 C 208.211 1.79959 -0.766432 0
M  V30 2312 C 208.591 1.97466 0.746363 0
M  V30 2313 O 207.939 1.55491 1.67436 0
M  V30 2314 C 208.149 3.14009 -1.52314 0
M  V30 2315 C 209.497 3.89134 -1.69883 0
M  V30 2316 O 210.521 3.2368 -1.48692 0
M  V30 2317 O 209.38 5.06572 -2.05054 0
M  V30 2318 H 206.474 0.779208 -0.277062 0
M  V30 2319 H 209.02 1.18762 -1.21217 0
M  V30 2320 H 207.792 2.96587 -2.55249 0
M  V30 2321 H 207.415 3.82915 -1.07059 0
M  V30 2322 N 208.412 0.89855 1.29475 0
M  V30 2323 C 209.637 0.538561 2.00285 0
M  V30 2324 C 210.062 -0.869135 1.66816 0
M  V30 2325 O 209.42 -1.57831 0.892145 0
M  V30 2326 C 209.468 0.736475 3.52999 0
M  V30 2327 O 208.572 -0.211537 4.11857 0
M  V30 2328 H 207.913 0.210563 0.62973 0
M  V30 2329 H 210.443 1.20982 1.64998 0
M  V30 2330 H 210.453 0.640685 4.02938 0
M  V30 2331 H 209.128 1.76276 3.76696 0
M  V30 2332 H 207.705 -0.0682991 3.72837 0
M  V30 2333 N 209.89 -1.43072 0.660911 0
M  V30 2334 C 211.167 -1.95307 0.107017 0
M  V30 2335 C 211.547 -1.60192 -1.37484 0
M  V30 2336 O 210.895 -0.890949 -2.10415 0
M  V30 2337 C 211.105 -3.47124 0.361402 0
M  V30 2338 C 212.453 -4.23738 0.270455 0
M  V30 2339 O 213.477 -3.54981 0.294382 0
M  V30 2340 O 212.336 -5.46131 0.200737 0
M  V30 2341 H 209.43 -0.826984 -0.00517729 0
M  V30 2342 H 211.976 -1.52972 0.734681 0
M  V30 2343 H 210.748 -3.65837 1.38848 0
M  V30 2344 H 210.371 -3.96475 -0.298953 0
M  V30 2345 N 211.368 -0.403325 -1.52352 0
M  V30 2346 C 212.616 0.174003 -2.0135 0
M  V30 2347 C 212.937 1.46139 -1.29106 0
M  V30 2348 O 212.207 1.91448 -0.415253 0
M  V30 2349 H 210.787 0.0672911 -0.743963 0
M  V30 2350 H 213.449 -0.538235 -1.87321 0
M  V30 2351 H 212.545 0.374254 -3.09848 0
M  V30 2352 N 212.846 1.57033 -0.133567 0
M  V30 2353 C 213.794 2.17348 0.828412 0
M  V30 2354 C 214.788 1.12671 1.26498 0
M  V30 2355 O 215.994 1.30947 1.23502 0
M  V30 2356 H 212.369 0.695775 0.285309 0
M  V30 2357 H 214.34 2.96935 0.295372 0
M  V30 2358 C 213.089 2.79893 2.06289 0
M  V30 2359 H 212.412 3.60147 1.73592 0
M  V30 2360 H 213.852 3.25615 2.71572 0
M  V30 2361 C 212.311 1.77713 2.86216 0
M  V30 2362 O 212.841 1.23937 3.82103 0
M  V30 2363 N 211.047 1.47321 2.50489 0
M  V30 2364 H 210.594 1.91243 1.7258 0
M  V30 2365 H 210.552 0.79199 3.04261 0
M  V30 2366 N 214.325 -0.140222 1.56975 0
M  V30 2367 C 215.741 -0.493088 1.51792 0
M  V30 2368 C 215.941 -1.83013 0.843116 0
M  V30 2369 O 214.997 -2.49041 0.416493 0
M  V30 2370 C 216.31 -0.497144 2.96562 0
M  V30 2371 C 217.858 -0.582186 3.07538 0
M  V30 2372 C 218.333 -0.616838 4.53827 0
M  V30 2373 N 219.824 -0.678873 4.58198 0
M  V30 2374 C 220.559 -0.726782 5.68775 0
M  V30 2375 N 220.055 -0.733623 6.88905 0
M  V30 2376 N 221.848 -0.768179 5.56826 0
M  V30 2377 H 213.999 0.736108 1.99237 0
M  V30 2378 H 216.262 0.269182 0.90898 0
M  V30 2379 H 215.968 0.417217 3.49217 0
M  V30 2380 H 215.842 -1.33263 3.52875 0
M  V30 2381 H 218.229 -1.48697 2.54899 0
M  V30 2382 H 218.31 0.280581 2.54257 0
M  V30 2383 H 217.954 0.283812 5.07106 0
M  V30 2384 H 217.884 -1.49619 5.04898 0
M  V30 2385 H 220.375 -0.68061 3.7172 0
M  V30 2386 H 220.688 -0.772215 7.68932 0
M  V30 2387 H 219.033 -0.701389 6.91452 0
M  V30 2388 H 222.224 -0.760051 4.61888 0
M  V30 2389 H 222.397 -0.80205 6.43017 0
M  V30 2390 N 215.803 -1.52179 -0.40978 0
M  V30 2391 C 216.733 -1.78435 -1.5061 0
M  V30 2392 C 217.714 -0.635295 -1.57791 0
M  V30 2393 O 218.899 -0.880823 -1.73076 0
M  V30 2394 C 216.029 -1.93444 -2.88439 0
M  V30 2395 C 214.983 -3.09038 -2.96108 0
M  V30 2396 C 214.309 -3.09268 -4.36185 0
M  V30 2397 C 215.609 -4.48508 -2.67652 0
M  V30 2398 H 217.303 -2.70237 -1.28889 0
M  V30 2399 H 214.849 -1.30036 -0.618605 0
M  V30 2400 H 216.802 -2.10394 -3.65119 0
M  V30 2401 H 215.526 -0.983129 -3.11452 0
M  V30 2402 H 214.185 -2.91837 -2.21872 0
M  V30 2403 H 213.833 -2.11861 -4.56206 0
M  V30 2404 H 213.533 -3.86907 -4.42241 0
M  V30 2405 H 215.057 -3.28348 -5.14801 0
M  V30 2406 H 216.471 -4.65918 -3.34056 0
M  V30 2407 H 214.868 -5.28059 -2.85085 0
M  V30 2408 H 215.938 -4.56649 -1.63095 0
M  V30 2409 N 217.281 0.66697 -1.42791 0
M  V30 2410 C 218.506 1.46004 -1.47301 0
M  V30 2411 C 218.931 1.87894 -0.0880317 0
M  V30 2412 O 218.289 1.56502 0.915253 0
M  V30 2413 C 218.337 2.68031 -2.41229 0
M  V30 2414 O 217.441 3.6659 -1.88906 0
M  V30 2415 H 216.782 0.43832 -0.49877 0
M  V30 2416 H 219.312 0.817391 -1.87563 0
M  V30 2417 H 219.322 3.1601 -2.58073 0
M  V30 2418 H 217.997 2.36883 -3.41847 0
M  V30 2419 H 216.574 3.25661 -1.81656 0
M  V30 2420 N 218.759 1.29093 0.90403 0
M  V30 2421 C 219.669 1.15727 2.0407 0
M  V30 2422 C 220.685 0.0815308 1.73809 0
M  V30 2423 O 221.861 0.292749 1.99261 0
M  V30 2424 C 218.926 0.830424 3.36608 0
M  V30 2425 C 217.987 1.98955 3.80415 0
M  V30 2426 C 217.22 1.6782 5.06628 0
M  V30 2427 O 217.443 0.597105 5.67266 0
M  V30 2428 O 216.377 2.52486 5.46383 0
M  V30 2429 H 220.203 2.11171 2.18267 0
M  V30 2430 H 217.788 1.08504 1.027 0
M  V30 2431 H 219.67 0.662521 4.16159 0
M  V30 2432 H 218.345 -0.0942678 3.23563 0
M  V30 2433 H 217.252 2.21267 3.01648 0
M  V30 2434 H 218.585 2.89529 3.98037 0
M  V30 2435 N 220.237 -1.11381 1.11499 0
M  V30 2436 C 221.462 -1.87475 0.887019 0
M  V30 2437 C 221.887 -1.79639 -0.557796 0
M  V30 2438 O 221.245 -1.15924 -1.39396 0
M  V30 2439 C 221.293 -3.34213 1.35403 0
M  V30 2440 O 220.397 -4.0903 0.526146 0
M  V30 2441 H 219.738 -0.582099 0.319463 0
M  V30 2442 H 222.268 -1.40785 1.48461 0
M  V30 2443 H 222.278 -3.8506 1.34881 0
M  V30 2444 H 220.953 -3.39232 2.40612 0
M  V30 2445 H 219.53 -3.68082 0.597522 0
M  V30 2446 N 221.715 -0.905404 -1.28997 0
M  V30 2447 C 222.625 -0.392246 -2.31298 0
M  V30 2448 C 223.641 0.515889 -1.66176 0
M  V30 2449 O 224.817 0.404093 -1.97304 0
M  V30 2450 C 221.882 0.36686 -3.44754 0
M  V30 2451 C 220.943 -0.573485 -4.25452 0
M  V30 2452 C 220.176 0.149488 -5.33491 0
M  V30 2453 O 220.399 1.37255 -5.5364 0
M  V30 2454 O 219.333 -0.510919 -5.99728 0
M  V30 2455 H 223.159 -1.2411 -2.77183 0
M  V30 2456 H 220.744 -0.669926 -1.33538 0
M  V30 2457 H 222.626 0.795907 -4.13816 0
M  V30 2458 H 221.301 1.19169 -3.00966 0
M  V30 2459 H 220.208 -1.05176 -3.59011 0
M  V30 2460 H 221.541 -1.36489 -4.72897 0
M  V30 2461 N 223.193 1.4272 -0.668489 0
M  V30 2462 C 224.123 2.335 -0.000100175 0
M  V30 2463 C 225.104 1.50328 0.795964 0
M  V30 2464 O 226.289 1.78949 0.754385 0
M  V30 2465 C 223.419 3.33874 0.956302 0
M  V30 2466 C 222.373 4.27152 0.269278 0
M  V30 2467 C 221.699 5.17684 1.33818 0
M  V30 2468 C 222.999 5.15373 -0.847805 0
M  V30 2469 H 224.693 2.89639 -0.758244 0
M  V30 2470 H 222.239 1.39269 -0.366079 0
M  V30 2471 H 224.192 3.9629 1.43292 0
M  V30 2472 H 222.916 2.76025 1.74579 0
M  V30 2473 H 221.575 3.66123 -0.187042 0
M  V30 2474 H 221.223 4.56165 2.1195 0
M  V30 2475 H 220.923 5.80918 0.883659 0
M  V30 2476 H 222.447 5.82974 1.81586 0
M  V30 2477 H 223.861 5.7151 -0.452681 0
M  V30 2478 H 222.258 5.87407 -1.22773 0
M  V30 2479 H 223.328 4.5415 -1.69929 0
M  V30 2480 N 224.671 0.411399 1.52136 0
M  V30 2481 C 225.901 -0.16284 2.05957 0
M  V30 2482 C 226.309 -1.3922 1.28119 0
M  V30 2483 O 225.652 -1.80768 0.326881 0
M  V30 2484 C 225.714 -0.575946 3.54856 0
M  V30 2485 C 225.378 0.542998 4.53763 0
M  V30 2486 C 226.375 1.40726 5.00492 0
M  V30 2487 C 224.06 0.716337 4.97166 0
M  V30 2488 C 226.054 2.4298 5.8927 0
M  V30 2489 C 223.741 1.74218 5.8574 0
M  V30 2490 C 224.739 2.59731 6.31687 0
M  V30 2491 O 224.427 3.60558 7.18507 0
M  V30 2492 H 224.159 -0.0229125 0.675612 0
M  V30 2493 H 226.713 0.581634 1.96993 0
M  V30 2494 H 224.943 -1.37274 3.61515 0
M  V30 2495 H 226.632 -1.07836 3.91313 0
M  V30 2496 H 227.398 1.28476 4.67674 0
M  V30 2497 H 223.277 0.0603857 4.6096 0
M  V30 2498 H 226.821 3.0976 6.25055 0
M  V30 2499 H 222.718 1.86498 6.17971 0
M  V30 2500 H 223.486 3.56829 7.36624 0
M  V30 2501 N 226.149 -1.5696 0.141893 0
M  V30 2502 C 227.097 -2.17784 -0.816874 0
M  V30 2503 C 228.091 -1.1334 -1.25899 0
M  V30 2504 O 229.297 -1.316 -1.22806 0
M  V30 2505 H 225.672 -0.697278 -0.281615 0
M  V30 2506 H 227.643 -2.97087 -0.279621 0
M  V30 2507 C 226.392 -2.80983 -2.04802 0
M  V30 2508 H 225.715 -3.61062 -1.7168 0
M  V30 2509 H 227.155 -3.2705 -2.69841 0
M  V30 2510 C 225.614 -1.79228 -2.8527 0
M  V30 2511 O 226.144 -1.25962 -3.8144 0
M  V30 2512 N 224.35 -1.48647 -2.49704 0
M  V30 2513 H 223.897 -1.92155 -1.71564 0
M  V30 2514 H 223.855 -0.808115 -3.03837 0
M  V30 2515 N 227.627 0.131896 -1.57047 0
M  V30 2516 C 228.575 1.18146 -2.0036 0
M  V30 2517 C 229.569 1.43614 -0.898406 0
M  V30 2518 O 230.775 1.43729 -1.08361 0
M  V30 2519 H 227.15 0.398042 -0.638018 0
M  V30 2520 H 229.121 0.789564 -2.87765 0
M  V30 2521 C 227.87 2.50341 -2.41298 0
M  V30 2522 H 227.193 2.31578 -3.25902 0
M  V30 2523 H 228.633 3.22371 -2.75414 0
M  V30 2524 C 227.092 3.11984 -1.27153 0
M  V30 2525 O 227.622 3.97484 -0.580459 0
M  V30 2526 N 225.828 2.71662 -1.03189 0
M  V30 2527 H 225.375 2.02231 -1.59564 0
M  V30 2528 H 225.333 3.13238 -0.270077 0
M  V30 2529 N 229.106 1.52395 0.401703 0
M  V30 2530 C 230.069 1.75636 1.47257 0
M  V30 2531 C 231.069 0.62628 1.48103 0
M  V30 2532 O 232.259 0.894227 1.49497 0
M  V30 2533 C 229.391 1.84553 2.86624 0
M  V30 2534 H 230.584 2.71241 1.27938 0
M  V30 2535 H 228.137 1.42923 0.632662 0
M  V30 2536 H 228.872 0.908882 3.11303 0
M  V30 2537 H 228.657 2.66715 2.87412 0
M  V30 2538 H 230.147 2.04251 3.64241 0
M  V30 2539 N 230.584 -0.659388 1.43143 0
M  V30 2540 C 231.83 -1.42145 1.44647 0
M  V30 2541 C 232.163 -1.9408 0.0681907 0
M  V30 2542 O 231.438 -1.71899 -0.910007 0
M  V30 2543 C 231.721 -2.60735 2.48373 0
M  V30 2544 C 231.574 -2.14332 3.95451 0
M  V30 2545 C 232.893 -3.62951 2.48906 0
M  V30 2546 H 230.012 -0.51552 0.526696 0
M  V30 2547 H 232.654 -0.748069 1.74654 0
M  V30 2548 H 230.804 -3.18184 2.22916 0
M  V30 2549 H 232.476 -1.61932 4.31944 0
M  V30 2550 H 230.719 -1.4576 4.08578 0
M  V30 2551 H 231.39 -2.99583 4.63631 0
M  V30 2552 H 233.866 -3.1525 2.71582 0
M  V30 2553 H 232.742 -4.43487 3.23435 0
M  V30 2554 H 233.003 -4.15126 1.52061 0
M  V30 2555 N 232.062 -1.29571 -0.897171 0
M  V30 2556 C 233.339 -1.08365 -1.62839 0
M  V30 2557 C 233.719 0.371331 -2.07808 0
M  V30 2558 O 233.067 1.3606 -1.83576 0
M  V30 2559 C 233.277 -2.0735 -2.80726 0
M  V30 2560 C 234.625 -2.38406 -3.51351 0
M  V30 2561 O 235.649 -2.05564 -2.90898 0
M  V30 2562 O 234.508 -2.9453 -4.60341 0
M  V30 2563 H 231.602 -0.415345 -0.715134 0
M  V30 2564 H 234.148 -1.40952 -0.945018 0
M  V30 2565 H 232.92 -3.05339 -2.44711 0
M  V30 2566 H 232.543 -1.75507 -3.56767 0
M  V30 2567 N 233.54 1.10788 -1.12088 0
M  V30 2568 C 234.765 1.87002 -0.896949 0
M  V30 2569 C 235.19 1.79933 0.548261 0
M  V30 2570 O 234.548 1.16662 1.38779 0
M  V30 2571 C 234.596 3.3349 -1.37174 0
M  V30 2572 O 233.7 4.08745 -0.547831 0
M  V30 2573 H 233.041 0.580397 -0.322545 0
M  V30 2574 H 235.571 1.39996 -1.49206 0
M  V30 2575 H 235.581 3.84339 -1.36922 0
M  V30 2576 H 234.256 3.37951 -2.42408 0
M  V30 2577 H 232.833 3.6776 -0.617034 0
M  V30 2578 N 235.018 0.912232 1.28515 0
M  V30 2579 C 236.264 0.545405 1.95328 0
M  V30 2580 C 236.597 -0.908313 1.71649 0
M  V30 2581 O 235.872 -1.64575 1.03659 0
M  V30 2582 C 236.155 0.853483 3.4984 0
M  V30 2583 C 236.008 2.35982 3.82926 0
M  V30 2584 C 237.327 0.348589 4.38717 0
M  V30 2585 H 234.446 0.199626 0.709449 0
M  V30 2586 H 237.088 1.1412 1.5191 0
M  V30 2587 H 235.238 0.34643 3.86952 0
M  V30 2588 H 236.91 2.93738 3.55691 0
M  V30 2589 H 235.153 2.81543 3.30024 0
M  V30 2590 H 235.824 2.52593 4.90816 0
M  V30 2591 H 238.3 0.78294 4.08668 0
M  V30 2592 H 237.176 0.593242 5.45685 0
M  V30 2593 H 237.437 -0.751049 4.35674 0
M  V30 2594 N 236.496 -1.42363 0.676048 0
M  V30 2595 C 237.428 -2.29164 -0.0404605 0
M  V30 2596 C 238.441 -1.43747 -0.764245 0
M  V30 2597 O 239.63 -1.67453 -0.618195 0
M  V30 2598 C 236.73 -3.21196 -1.08103 0
M  V30 2599 C 235.903 -4.35273 -0.430812 0
M  V30 2600 C 234.962 -5.08017 -1.37133 0
M  V30 2601 O 233.988 -5.62494 -0.87116 0
M  V30 2602 N 235.19 -5.13647 -2.70456 0
M  V30 2603 H 237.955 -2.91298 0.704667 0
M  V30 2604 H 235.516 -1.53303 0.520559 0
M  V30 2605 H 237.508 -3.66728 -1.71152 0
M  V30 2606 H 236.078 -2.60505 -1.72788 0
M  V30 2607 H 235.298 -3.92372 0.379209 0
M  V30 2608 H 236.586 -5.08795 0.0221132 0
M  V30 2609 H 235.984 -4.708 -3.1363 0
M  V30 2610 H 234.541 -5.62821 -3.28749 0
M  V30 2611 N 237.974 -0.419461 -1.51915 0
M  V30 2612 C 239.202 0.152136 -2.0634 0
M  V30 2613 C 239.617 1.37988 -1.28859 0
M  V30 2614 O 238.974 1.79243 -0.343232 0
M  V30 2615 C 239.025 0.492266 -3.58133 0
M  V30 2616 O 238.746 -0.686736 -4.32684 0
M  V30 2617 C 240.247 1.11648 -4.2901 0
M  V30 2618 H 237.467 0.0158325 -0.670813 0
M  V30 2619 H 240.011 -0.593394 -1.95702 0
M  V30 2620 H 238.166 1.18769 -3.68745 0
M  V30 2621 H 238.58 -0.400341 -5.2297 0
M  V30 2622 H 240.054 1.3046 -5.36362 0
M  V30 2623 H 240.531 2.09251 -3.86148 0
M  V30 2624 H 241.137 0.460958 -4.22795 0
M  V30 2625 N 239.452 1.56882 -0.150215 0
M  V30 2626 C 240.677 2.01027 0.510184 0
M  V30 2627 C 241.102 1.02966 1.57415 0
M  V30 2628 O 240.46 0.00590158 1.81299 0
M  V30 2629 C 240.508 3.43899 1.08472 0
M  V30 2630 O 239.612 3.4885 2.19948 0
M  V30 2631 H 238.953 0.652233 0.124451 0
M  V30 2632 H 241.483 2.03093 -0.247894 0
M  V30 2633 H 241.493 3.82766 1.41259 0
M  V30 2634 H 240.168 4.14776 0.305582 0
M  V30 2635 H 238.745 3.21827 1.88366 0
M  V30 2636 N 240.93 -0.123565 1.57115 0
M  V30 2637 C 241.862 -1.17739 1.96648 0
M  V30 2638 C 242.875 -1.37906 0.865201 0
M  V30 2639 O 244.064 -1.37062 1.14351 0
M  V30 2640 C 241.164 -2.53821 2.24562 0
M  V30 2641 C 240.337 -2.54317 3.55867 0
M  V30 2642 C 239.396 -3.72112 3.72047 0
M  V30 2643 O 238.422 -3.55907 4.44206 0
M  V30 2644 N 239.624 -4.90498 3.10471 0
M  V30 2645 H 242.389 -0.841147 2.87654 0
M  V30 2646 H 239.95 -0.31289 1.58848 0
M  V30 2647 H 241.942 -3.31175 2.32606 0
M  V30 2648 H 240.512 -2.79645 1.39705 0
M  V30 2649 H 239.732 -1.62711 3.59053 0
M  V30 2650 H 241.02 -2.51701 4.42181 0
M  V30 2651 H 240.418 -5.06567 2.51806 0
M  V30 2652 H 238.975 -5.65544 3.24043 0
M  V30 2653 N 242.408 -1.52605 -0.393616 0
M  V30 2654 C 243.338 -1.80022 -1.48709 0
M  V30 2655 C 244.319 -0.651995 -1.57108 0
M  V30 2656 O 245.504 -0.89913 -1.72132 0
M  V30 2657 C 242.634 -1.96492 -2.86371 0
M  V30 2658 C 241.588 -3.12161 -2.92813 0
M  V30 2659 C 240.914 -3.13877 -4.3288 0
M  V30 2660 C 242.214 -4.51322 -2.6288 0
M  V30 2661 H 243.908 -2.71589 -1.26015 0
M  V30 2662 H 241.454 -1.30684 -0.604778 0
M  V30 2663 H 243.407 -2.14255 -3.62867 0
M  V30 2664 H 242.131 -1.01611 -3.10391 0
M  V30 2665 H 240.79 -2.94173 -2.18764 0
M  V30 2666 H 240.438 -2.16687 -4.53933 0
M  V30 2667 H 240.138 -3.91576 -4.38112 0
M  V30 2668 H 241.662 -3.33789 -5.1129 0
M  V30 2669 H 243.076 -4.69435 -3.29096 0
M  V30 2670 H 241.473 -5.31053 -2.79468 0
M  V30 2671 H 242.543 -4.58353 -1.58242 0
M  V30 2672 N 243.887 0.651787 -1.4349 0
M  V30 2673 C 244.835 1.78586 -1.49029 0
M  V30 2674 C 245.829 1.65448 -0.363767 0
M  V30 2675 O 247.035 1.71777 -0.537821 0
M  V30 2676 H 243.41 0.589236 -0.467231 0
M  V30 2677 H 245.381 1.71035 -2.44519 0
M  V30 2678 C 244.13 3.16851 -1.43181 0
M  V30 2679 H 243.453 3.27598 -2.29171 0
M  V30 2680 H 244.893 3.96156 -1.51118 0
M  V30 2681 C 243.352 3.36568 -0.149616 0
M  V30 2682 O 243.882 3.93885 0.788509 0
M  V30 2683 N 242.088 2.90539 -0.0593484 0
M  V30 2684 H 241.635 2.4408 -0.823575 0
M  V30 2685 H 241.593 3.04108 0.797853 0
M  V30 2686 N 245.365 1.30045 0.890287 0
M  V30 2687 C 246.595 1.21296 1.67245 0
M  V30 2688 C 247.003 -0.227471 1.87828 0
M  V30 2689 O 246.346 -1.16296 1.422 0
M  V30 2690 C 246.408 1.86519 3.07329 0
M  V30 2691 C 246.072 3.35837 3.09939 0
M  V30 2692 C 247.069 4.31915 2.89389 0
M  V30 2693 C 244.754 3.77196 3.31706 0
M  V30 2694 C 246.748 5.67325 2.90552 0
M  V30 2695 C 244.435 5.12725 3.32499 0
M  V30 2696 C 245.433 6.076 3.11947 0
M  V30 2697 O 245.121 7.40655 3.12547 0
M  V30 2698 H 244.853 0.4211 0.528821 0
M  V30 2699 H 247.407 1.72111 1.12103 0
M  V30 2700 H 245.637 1.30228 3.64112 0
M  V30 2701 H 247.326 1.71963 3.67673 0
M  V30 2702 H 248.092 4.01294 2.72375 0
M  V30 2703 H 243.971 3.03796 3.4674 0
M  V30 2704 H 247.515 6.41354 2.74429 0
M  V30 2705 H 243.412 5.42988 3.49047 0
M  V30 2706 H 244.18 7.49577 3.28749 0
M  V30 2707 N 246.843 -1.10192 1.12674 0
M  V30 2708 C 248.071 -1.85983 0.906527 0
M  V30 2709 C 248.486 -1.80783 -0.544333 0
M  V30 2710 O 247.843 -1.19834 -1.37645 0
M  V30 2711 C 247.894 -3.34281 1.37618 0
M  V30 2712 O 247.615 -3.39401 2.77017 0
M  V30 2713 C 249.116 -4.26938 1.19325 0
M  V30 2714 H 246.336 -0.587716 0.323775 0
M  V30 2715 H 248.88 -1.39284 1.49734 0
M  V30 2716 H 247.035 -3.78436 0.828539 0
M  V30 2717 H 247.449 -4.31838 2.97684 0
M  V30 2718 H 248.923 -5.29181 1.57071 0
M  V30 2719 H 249.4 -4.38995 0.134097 0
M  V30 2720 H 250.006 -3.8859 1.72852 0
M  V30 2721 N 248.321 -0.919034 -1.28029 0
M  V30 2722 C 249.231 -0.416756 -2.30869 0
M  V30 2723 C 250.247 0.498235 -1.66714 0
M  V30 2724 O 251.423 0.383144 -1.97722 0
M  V30 2725 C 248.488 0.330274 -3.45123 0
M  V30 2726 C 247.549 -0.618578 -4.2482 0
M  V30 2727 C 246.782 0.0928959 -5.33619 0
M  V30 2728 O 247.005 1.31375 -5.55065 0
M  V30 2729 O 245.939 -0.574499 -5.99152 0
M  V30 2730 H 249.765 -1.27043 -2.75851 0
M  V30 2731 H 247.35 -0.684052 -1.3282 0
M  V30 2732 H 249.232 0.751972 -4.14636 0
M  V30 2733 H 247.907 1.1597 -3.02213 0
M  V30 2734 H 246.814 -1.08978 -3.57875 0
M  V30 2735 H 248.147 -1.41497 -4.71423 0
M  V30 2736 N 249.799 1.42003 -0.683588 0
M  V30 2737 C 251.076 1.95112 -0.138075 0
M  V30 2738 C 251.456 1.62359 1.34918 0
M  V30 2739 O 250.804 0.924311 2.08971 0
M  V30 2740 C 251.014 3.46505 -0.416581 0
M  V30 2741 C 252.362 4.23254 -0.337834 0
M  V30 2742 O 253.386 3.54468 -0.35082 0
M  V30 2743 O 252.245 5.45743 -0.287596 0
M  V30 2744 H 249.339 0.826961 -0.00797996 0
M  V30 2745 H 251.885 1.51784 -0.758924 0
M  V30 2746 H 250.657 3.63582 -1.4465 0
M  V30 2747 H 250.28 3.969 0.235839 0
M  V30 2748 N 251.277 0.427512 1.51691 0
M  V30 2749 C 252.187 -0.39527 2.31246 0
M  V30 2750 C 253.203 -1.03674 1.39742 0
M  V30 2751 O 254.379 -1.03425 1.72816 0
M  V30 2752 C 251.444 -1.48706 3.13189 0
M  V30 2753 C 250.505 -0.866743 4.20459 0
M  V30 2754 C 249.738 -1.90651 4.98486 0
M  V30 2755 O 249.961 -3.12733 4.77026 0
M  V30 2756 O 248.895 -1.5025 5.82845 0
M  V30 2757 H 252.721 0.253918 3.02637 0
M  V30 2758 H 250.306 0.190274 1.48183 0
M  V30 2759 H 252.188 -2.12047 3.64162 0
M  V30 2760 H 250.863 -2.12051 2.44573 0
M  V30 2761 H 249.77 -0.195544 3.73589 0
M  V30 2762 H 251.103 -0.276934 4.9142 0
M  V30 2763 N 252.755 -1.56801 0.158532 0
M  V30 2764 C 253.702 -2.17337 -0.776729 0
M  V30 2765 C 254.672 -1.1096 -1.23601 0
M  V30 2766 O 255.857 -1.39054 -1.30647 0
M  V30 2767 C 252.997 -2.80822 -2.00582 0
M  V30 2768 C 252.11 -4.01624 -1.59129 0
M  V30 2769 C 251.245 -4.53072 -2.77306 0
M  V30 2770 C 250.284 -5.66314 -2.32282 0
M  V30 2771 N 249.421 -6.12329 -3.43508 0
M  V30 2772 H 254.261 -2.96918 -0.253701 0
M  V30 2773 H 251.798 -1.46661 -0.113504 0
M  V30 2774 H 253.756 -3.15779 -2.72652 0
M  V30 2775 H 252.386 -2.03866 -2.50277 0
M  V30 2776 H 251.438 -3.72571 -0.767806 0
M  V30 2777 H 252.75 -4.83633 -1.2207 0
M  V30 2778 H 251.904 -4.90145 -3.57551 0
M  V30 2779 H 250.643 -3.70095 -3.17617 0
M  V30 2780 H 249.648 -5.28806 -1.5048 0
M  V30 2781 H 250.873 -6.51085 -1.93043 0
M  V30 2782 H 248.819 -5.32284 -3.83418 0
M  V30 2783 H 248.736 -6.89293 -3.105 0
M  V30 2784 H 250.004 -6.5405 -4.24075 0
M  V30 2785 N 254.233 0.115231 -1.57178 0
M  V30 2786 C 255.18 1.14115 -2.00615 0
M  V30 2787 C 256.15 1.40939 -0.878941 0
M  V30 2788 O 257.335 1.52741 -1.14345 0
M  V30 2789 C 254.475 2.46156 -2.4187 0
M  V30 2790 C 253.588 2.26236 -3.68024 0
M  V30 2791 C 252.723 3.51534 -3.98243 0
M  V30 2792 C 251.762 3.26787 -5.17568 0
M  V30 2793 N 250.899 4.44298 -5.43639 0
M  V30 2794 H 255.739 0.763743 -2.88047 0
M  V30 2795 H 253.276 0.365615 -1.42484 0
M  V30 2796 H 255.234 3.23189 -2.63827 0
M  V30 2797 H 253.864 2.81783 -1.57475 0
M  V30 2798 H 252.916 1.40102 -3.5366 0
M  V30 2799 H 254.228 2.03929 -4.55208 0
M  V30 2800 H 253.382 4.36984 -4.20868 0
M  V30 2801 H 252.121 3.76876 -3.09541 0
M  V30 2802 H 251.126 2.39729 -4.94783 0
M  V30 2803 H 252.351 3.02812 -6.0785 0
M  V30 2804 H 250.297 4.69754 -4.57895 0
M  V30 2805 H 250.214 4.25109 -6.25154 0
M  V30 2806 H 251.482 5.3087 -5.70786 0
M  V30 2807 N 255.711 1.52812 0.385517 0
M  V30 2808 C 256.621 1.80766 1.49535 0
M  V30 2809 C 257.637 0.694651 1.59532 0
M  V30 2810 O 258.813 0.982611 1.75803 0
M  V30 2811 C 255.878 1.97381 2.85029 0
M  V30 2812 C 254.939 3.21295 2.84724 0
M  V30 2813 C 254.172 3.37108 4.13756 0
M  V30 2814 O 254.395 2.5765 5.08893 0
M  V30 2815 O 253.329 4.30378 4.20783 0
M  V30 2816 H 257.155 2.75015 1.28842 0
M  V30 2817 H 254.74 1.37946 0.573697 0
M  V30 2818 H 256.622 2.09996 3.65349 0
M  V30 2819 H 255.297 1.06322 3.05741 0
M  V30 2820 H 254.204 3.1412 2.03174 0
M  V30 2821 H 255.537 4.12212 2.68965 0
M  V30 2822 N 257.189 -0.644168 1.43834 0
M  V30 2823 C 258.438 -1.39985 1.45214 0
M  V30 2824 C 258.751 -1.95421 0.0835494 0
M  V30 2825 O 259.957 -2.71488 -0.0251748 0
M  V30 2826 C 258.413 -2.53384 2.55587 0
M  V30 2827 C 258.021 -2.04517 3.98594 0
M  V30 2828 C 259.765 -3.30685 2.66172 0
M  V30 2829 C 257.672 -3.1518 5.00416 0
M  V30 2830 H 256.602 -0.526005 0.540218 0
M  V30 2831 H 259.253 -0.694367 1.69855 0
M  V30 2832 H 257.635 -3.26446 2.24163 0
M  V30 2833 H 258.809 -1.38405 4.39523 0
M  V30 2834 H 257.124 -1.40068 3.92135 0
M  V30 2835 H 259.721 -4.13158 3.39418 0
M  V30 2836 H 260.064 -3.79312 1.71546 0
M  V30 2837 H 260.597 -2.64708 2.96942 0
M  V30 2838 H 257.336 -2.71511 5.96625 0
M  V30 2839 H 256.856 -3.79974 4.64091 0
M  V30 2840 H 258.535 -3.80166 5.23529 0
M  V30 2841 N 258.668 -1.30515 -0.883378 0
M  V30 2842 C 259.898 -1.22182 -1.66599 0
M  V30 2843 C 260.306 0.217507 -1.87946 0
M  V30 2844 O 259.649 1.1554 -1.42815 0
M  V30 2845 C 259.711 -1.88146 -3.06335 0
M  V30 2846 C 259.375 -3.37476 -3.08154 0
M  V30 2847 C 260.372 -4.33443 -2.87094 0
M  V30 2848 C 258.057 -3.7895 -3.29701 0
M  V30 2849 C 260.051 -5.68858 -2.8754 0
M  V30 2850 C 257.738 -5.14482 -3.29776 0
M  V30 2851 C 258.736 -6.09246 -3.0872 0
M  V30 2852 O 258.424 -7.42302 -3.08615 0
M  V30 2853 H 258.156 -0.423898 -0.52658 0
M  V30 2854 H 260.71 -1.72703 -1.11188 0
M  V30 2855 H 258.94 -1.32157 -3.63416 0
M  V30 2856 H 260.629 -1.7391 -3.66756 0
M  V30 2857 H 261.395 -4.02733 -2.70243 0
M  V30 2858 H 257.274 -3.05631 -3.45124 0
M  V30 2859 H 260.818 -6.428 -2.71024 0
M  V30 2860 H 256.715 -5.44832 -3.46163 0
M  V30 2861 H 257.483 -7.5131 -3.24769 0
M  V30 2862 N 260.146 1.09593 -1.13257 0
M  V30 2863 C 261.076 2.18214 -0.830946 0
M  V30 2864 C 262.057 1.68812 0.208966 0
M  V30 2865 O 263.242 1.9408 0.0682666 0
M  V30 2866 C 260.372 3.46051 -0.294296 0
M  V30 2867 C 259.326 4.08778 -1.26826 0
M  V30 2868 C 258.652 5.31419 -0.591449 0
M  V30 2869 C 259.952 4.51476 -2.62615 0
M  V30 2870 H 261.646 2.43703 -1.73923 0
M  V30 2871 H 259.192 1.17128 -0.837675 0
M  V30 2872 H 261.145 4.2134 -0.0709606 0
M  V30 2873 H 259.869 3.20079 0.649366 0
M  V30 2874 H 258.528 3.35505 -1.47756 0
M  V30 2875 H 258.176 5.01727 0.357633 0
M  V30 2876 H 257.876 5.74341 -1.24123 0
M  V30 2877 H 259.4 6.09433 -0.377355 0
M  V30 2878 H 260.814 5.17999 -2.45663 0
M  V30 2879 H 259.211 5.05277 -3.23752 0
M  V30 2880 H 260.281 3.63962 -3.20406 0
M  V30 2881 N 261.624 0.925811 1.2754 0
M  V30 2882 C 262.871 0.565255 1.94451 0
M  V30 2883 C 263.199 -0.89316 1.7278 0
M  V30 2884 O 262.454 -1.65213 1.04895 0
M  V30 2885 C 262.753 0.835296 3.47502 0
M  V30 2886 C 262.419 2.27515 3.89291 0
M  V30 2887 C 261.081 2.66879 4.00411 0
M  V30 2888 C 263.433 3.21158 4.10496 0
M  V30 2889 C 260.761 3.99014 4.30122 0
M  V30 2890 C 263.113 4.52871 4.4169 0
M  V30 2891 C 261.777 4.92072 4.51023 0
M  V30 2892 H 261.047 0.206841 0.711546 0
M  V30 2893 H 263.694 1.16942 1.51647 0
M  V30 2894 H 261.999 0.148442 3.91519 0
M  V30 2895 H 263.696 0.535322 3.97411 0
M  V30 2896 H 260.286 1.95976 3.81171 0
M  V30 2897 H 264.47 2.9195 4.01346 0
M  V30 2898 H 259.726 4.2907 4.35556 0
M  V30 2899 H 263.9 5.25436 4.57045 0
M  V30 2900 H 261.527 5.9449 4.738 0
M  V30 2901 N 263.102 -1.41638 0.69111 0
M  V30 2902 C 264.327 -2.06148 0.227583 0
M  V30 2903 C 264.752 -1.51652 -1.11281 0
M  V30 2904 O 264.11 -0.64164 -1.69566 0
M  V30 2905 C 264.158 -3.60095 0.190858 0
M  V30 2906 O 263.262 -4.03845 -0.835664 0
M  V30 2907 H 262.603 -0.654434 0.112306 0
M  V30 2908 H 265.133 -1.81484 0.944714 0
M  V30 2909 H 265.143 -4.07995 0.020207 0
M  V30 2910 H 263.818 -3.99129 1.16915 0
M  V30 2911 H 262.395 -3.67458 -0.63473 0
M  V30 2912 N 264.58 -0.43555 -1.51462 0
M  V30 2913 C 265.512 0.41257 -2.25456 0
M  V30 2914 C 266.525 0.987822 -1.29406 0
M  V30 2915 O 267.714 0.882266 -1.55172 0
M  V30 2916 C 264.814 1.58894 -2.99342 0
M  V30 2917 C 263.987 1.13288 -4.22474 0
M  V30 2918 C 263.046 2.17917 -4.78956 0
M  V30 2919 O 262.072 1.77425 -5.40841 0
M  V30 2920 N 263.274 3.50382 -4.62832 0
M  V30 2921 H 266.039 -0.221603 -2.9888 0
M  V30 2922 H 263.6 -0.264342 -1.59727 0
M  V30 2923 H 265.592 2.28508 -3.34015 0
M  V30 2924 H 264.162 2.12849 -2.28941 0
M  V30 2925 H 263.382 0.263881 -3.93316 0
M  V30 2926 H 264.67 0.805542 -5.02383 0
M  V30 2927 H 264.068 3.86013 -4.13534 0
M  V30 2928 H 262.625 4.15895 -5.01871 0
M  V30 2929 N 266.058 1.56714 -0.166846 0
M  V30 2930 C 266.988 2.20754 0.760913 0
M  V30 2931 C 267.969 1.16178 1.24244 0
M  V30 2932 O 269.154 1.44592 1.29641 0
M  V30 2933 C 266.284 2.84478 1.99223 0
M  V30 2934 C 265.238 3.95053 1.64672 0
M  V30 2935 C 264.564 4.45805 2.95232 0
M  V30 2936 C 265.864 5.14865 0.878155 0
M  V30 2937 H 267.558 2.98537 0.22713 0
M  V30 2938 H 265.104 1.43596 0.107805 0
M  V30 2939 H 267.057 3.27951 2.64624 0
M  V30 2940 H 265.781 2.04056 2.55007 0
M  V30 2941 H 264.44 3.52228 1.01641 0
M  V30 2942 H 264.088 3.62181 3.49047 0
M  V30 2943 H 263.788 5.204 2.7287 0
M  V30 2944 H 265.312 4.91962 3.6167 0
M  V30 2945 H 266.726 5.55059 1.43466 0
M  V30 2946 H 265.123 5.95348 0.753738 0
M  V30 2947 H 266.193 4.84735 -0.126377 0
M  V30 2948 N 267.536 -0.106894 1.57237 0
M  V30 2949 C 268.484 -1.14944 2.02215 0
M  V30 2950 C 269.478 -1.42167 0.92114 0
M  V30 2951 O 270.684 -1.41987 1.10634 0
M  V30 2952 H 267.059 -0.387841 0.64427 0
M  V30 2953 H 269.03 -0.743683 2.88984 0
M  V30 2954 C 267.779 -2.4647 2.4525 0
M  V30 2955 H 267.102 -2.26363 3.29545 0
M  V30 2956 H 268.542 -3.17948 2.80508 0
M  V30 2957 C 267.001 -3.09921 1.321 0
M  V30 2958 O 267.531 -3.9651 0.643622 0
M  V30 2959 N 265.737 -2.69986 1.07497 0
M  V30 2960 H 265.284 -1.99667 1.62761 0
M  V30 2961 H 265.242 -3.12769 0.319876 0
M  V30 2962 N 269.014 -1.53014 -0.377408 0
M  V30 2963 C 269.977 -1.77957 -1.44444 0
M  V30 2964 C 270.977 -0.649763 -1.47087 0
M  V30 2965 O 272.167 -0.917897 -1.48055 0
M  V30 2966 C 269.299 -1.89089 -2.83651 0
M  V30 2967 H 270.492 -2.73243 -1.23606 0
M  V30 2968 H 268.045 -1.43912 -0.609844 0
M  V30 2969 H 268.78 -0.958293 -3.09818 0
M  V30 2970 H 268.565 -2.71254 -2.83132 0
M  V30 2971 H 270.055 -2.1002 -3.60945 0
M  V30 2972 N 270.492 0.636531 -1.44174 0
M  V30 2973 C 271.738 1.39826 -1.4689 0
M  V30 2974 C 272.071 1.93947 -0.0990585 0
M  V30 2975 O 271.346 1.73325 0.882544 0
M  V30 2976 C 271.629 2.56751 -2.5249 0
M  V30 2977 C 271.482 2.08014 -3.98811 0
M  V30 2978 C 272.801 3.58946 -2.54649 0
M  V30 2979 H 269.92 0.507075 -0.53483 0
M  V30 2980 H 272.562 0.720188 -1.75822 0
M  V30 2981 H 270.712 3.14597 -2.2795 0
M  V30 2982 H 272.384 1.5504 -4.34466 0
M  V30 2983 H 270.627 1.39242 -4.10846 0
M  V30 2984 H 271.298 2.92169 -4.68339 0
M  V30 2985 H 273.774 3.1089 -2.76563 0
M  V30 2986 H 272.65 4.38286 -3.3045 0
M  V30 2987 H 272.911 4.12655 -1.58646 0
M  V30 2988 N 271.97 1.30982 0.876444 0
M  V30 2989 C 273.218 1.20058 1.62575 0
M  V30 2990 C 273.539 -0.242947 1.93481 0
M  V30 2991 O 272.809 -1.1619 1.57724 0
M  V30 2992 H 271.389 0.44135 0.602677 0
M  V30 2993 H 274.051 1.64222 1.04962 0
M  V30 2994 H 273.147 1.76762 2.57219 0
M  V30 2995 N 273.449 -1.08991 1.13837 0
M  V30 2996 C 274.397 -2.17841 0.815347 0
M  V30 2997 C 275.391 -1.68164 -0.204233 0
M  V30 2998 O 276.597 -1.79897 -0.0609304 0
M  V30 2999 H 272.972 -0.710654 0.245915 0
M  V30 3000 H 274.943 -2.42315 1.74143 0
M  V30 3001 C 273.692 -3.46381 0.302614 0
M  V30 3002 H 273.015 -3.84979 1.0785 0
M  V30 3003 H 274.455 -4.23844 0.115074 0
M  V30 3004 C 272.914 -3.22556 -0.972591 0
M  V30 3005 O 273.444 -3.45599 -2.04754 0
M  V30 3006 N 271.65 -2.76134 -0.905455 0
M  V30 3007 H 271.197 -2.57582 -0.0305421 0
M  V30 3008 H 271.155 -2.60571 -1.75926 0
M  V30 3009 N 274.927 -0.932562 -1.27047 0
M  V30 3010 C 276.174 -0.575559 -1.94148 0
M  V30 3011 C 276.502 0.883984 -1.73251 0
M  V30 3012 O 275.757 1.64655 -1.0577 0
M  V30 3013 C 276.056 -0.853713 -3.47054 0
M  V30 3014 C 275.722 -2.29577 -3.88079 0
M  V30 3015 C 274.384 -2.68999 -3.9899 0
M  V30 3016 C 276.736 -3.23331 -4.08787 0
M  V30 3017 C 274.064 -4.01289 -4.28 0
M  V30 3018 C 276.416 -4.55207 -4.39282 0
M  V30 3019 C 275.08 -4.94457 -4.48407 0
M  V30 3020 H 274.35 -0.210612 -0.710439 0
M  V30 3021 H 276.997 -1.17744 -1.51025 0
M  V30 3022 H 275.302 -0.169204 -3.91434 0
M  V30 3023 H 276.999 -0.55639 -3.97121 0
M  V30 3024 H 273.589 -1.97994 -3.80127 0
M  V30 3025 H 277.773 -2.94074 -3.99793 0
M  V30 3026 H 273.029 -4.31374 -4.33275 0
M  V30 3027 H 277.203 -5.27852 -4.54252 0
M  V30 3028 H 274.83 -5.96994 -4.7064 0
M  V30 3029 N 276.405 1.4127 -0.698611 0
M  V30 3030 C 277.368 2.29158 -0.044132 0
M  V30 3031 C 278.368 1.44529 0.704841 0
M  V30 3032 O 279.558 1.65643 0.539276 0
M  V30 3033 C 276.69 3.27459 0.947809 0
M  V30 3034 H 277.883 2.88529 -0.817994 0
M  V30 3035 H 275.436 1.49307 -0.46228 0
M  V30 3036 H 276.171 2.73073 1.74933 0
M  V30 3037 H 275.956 3.8991 0.41385 0
M  V30 3038 H 277.446 3.93311 1.40344 0
M  V30 3039 N 277.883 0.443576 1.51229 0
M  V30 3040 C 279.111 -0.11929 2.06556 0
M  V30 3041 C 279.526 -1.35921 1.31038 0
M  V30 3042 O 278.883 -1.78675 0.371704 0
M  V30 3043 C 278.934 -0.435228 3.5887 0
M  V30 3044 O 278.655 0.755486 4.31537 0
M  V30 3045 C 280.156 -1.04808 4.30732 0
M  V30 3046 H 277.376 -0.0051584 0.67098 0
M  V30 3047 H 279.92 0.624453 1.94733 0
M  V30 3048 H 278.075 -1.12887 3.70588 0
M  V30 3049 H 278.489 0.483491 5.22267 0
M  V30 3050 H 279.963 -1.2191 5.3837 0
M  V30 3051 H 280.44 -2.03081 3.89429 0
M  V30 3052 H 281.046 -0.393637 4.23474 0
M  V30 3053 N 279.361 -1.56624 0.175154 0
M  V30 3054 C 280.609 -1.96609 -0.467885 0
M  V30 3055 C 280.93 -1.06238 -1.63519 0
M  V30 3056 O 280.2 -0.129523 -1.95471 0
M  V30 3057 H 278.78 -0.726008 -0.175845 0
M  V30 3058 H 281.442 -1.93195 0.257234 0
M  V30 3059 H 280.538 -3.00989 -0.825342 0
M  V30 3060 N 280.839 0.0985539 -1.57292 0
M  V30 3061 C 282.067 0.816318 -1.90115 0
M  V30 3062 C 282.482 1.72451 -0.768509 0
M  V30 3063 O 281.839 1.80643 0.259687 0
M  V30 3064 C 281.89 1.63259 -3.22535 0
M  V30 3065 O 281.611 0.760934 -4.31441 0
M  V30 3066 C 283.112 2.45372 -3.69199 0
M  V30 3067 H 280.332 0.233595 -0.629027 0
M  V30 3068 H 282.876 0.0768229 -2.04356 0
M  V30 3069 H 281.031 2.32463 -3.09903 0
M  V30 3070 H 281.445 1.32595 -5.07463 0
M  V30 3071 H 282.919 2.98144 -4.64558 0
M  V30 3072 H 283.396 3.23677 -2.96867 0
M  V30 3073 H 284.002 1.81373 -3.84687 0
M  V30 3074 N 282.317 1.53212 0.369288 0
M  V30 3075 C 283.566 1.68436 1.10961 0
M  V30 3076 C 283.879 0.440738 1.9057 0
M  V30 3077 O 285.085 0.473446 2.6734 0
M  V30 3078 C 283.541 2.97744 2.0218 0
M  V30 3079 C 283.149 4.29355 1.279 0
M  V30 3080 C 284.893 3.22334 2.76226 0
M  V30 3081 C 282.8 5.49755 2.17999 0
M  V30 3082 H 281.73 0.627568 0.41794 0
M  V30 3083 H 284.381 1.79713 0.370884 0
M  V30 3084 H 282.763 2.8026 2.79768 0
M  V30 3085 H 283.937 4.57458 0.554007 0
M  V30 3086 H 282.252 4.11179 0.657311 0
M  V30 3087 H 284.849 4.09471 3.43857 0
M  V30 3088 H 285.192 2.38238 3.41392 0
M  V30 3089 H 285.725 3.40475 2.05723 0
M  V30 3090 H 282.464 6.36318 1.57417 0
M  V30 3091 H 281.984 5.25937 2.88359 0
M  V30 3092 H 283.663 5.84401 2.77641 0
M  V30 3093 N 283.795 -0.628877 1.44509 0
M  V30 3094 C 284.758 -1.72263 1.51188 0
M  V30 3095 C 285.758 -1.55907 0.39367 0
M  V30 3096 O 286.948 -1.61361 0.656377 0
M  V30 3097 C 284.08 -3.11365 1.38798 0
M  V30 3098 H 285.273 -1.67714 2.4862 0
M  V30 3099 H 282.826 -0.842737 1.31634 0
M  V30 3100 H 283.561 -3.21507 0.424693 0
M  V30 3101 H 283.346 -3.24644 2.19884 0
M  V30 3102 H 284.836 -3.91075 1.46458 0
M  V30 3103 N 285.273 -1.31445 -0.869486 0
M  V30 3104 C 286.501 -1.24122 -1.65534 0
M  V30 3105 C 286.916 0.193387 -1.87807 0
M  V30 3106 O 286.273 1.12557 -1.43656 0
M  V30 3107 C 286.324 -1.98229 -3.02304 0
M  V30 3108 O 286.045 -3.3609 -2.81026 0
M  V30 3109 C 287.546 -1.97751 -3.96749 0
M  V30 3110 H 284.766 -0.428868 -0.516055 0
M  V30 3111 H 287.31 -1.73328 -1.08525 0
M  V30 3112 H 285.465 -1.52782 -3.56001 0
M  V30 3113 H 285.879 -3.7383 -3.67902 0
M  V30 3114 H 287.353 -2.54114 -4.90031 0
M  V30 3115 H 287.83 -0.960137 -4.28577 0
M  V30 3116 H 288.436 -2.43079 -3.48988 0
M  V30 3117 N 286.751 1.08385 -1.14413 0
M  V30 3118 C 288.028 1.77429 -0.823297 0
M  V30 3119 C 288.408 1.9974 0.683163 0
M  V30 3120 O 287.756 1.60739 1.62405 0
M  V30 3121 C 287.966 3.09004 -1.62227 0
M  V30 3122 C 289.314 3.83532 -1.82177 0
M  V30 3123 O 290.338 3.18786 -1.58915 0
M  V30 3124 O 289.197 4.99792 -2.21067 0
M  V30 3125 H 286.291 0.769999 -0.301712 0
M  V30 3126 H 288.837 1.14846 -1.24934 0
M  V30 3127 H 287.609 2.88316 -2.64555 0
M  V30 3128 H 287.232 3.79316 -1.19187 0
M  V30 3129 N 288.23 0.939286 1.26551 0
M  V30 3130 C 289.641 0.628782 1.75793 0
M  V30 3131 C 289.992 -0.856046 1.7654 0
M  V30 3132 O 289.117 -1.66994 1.3763 0
M  V30 3133 C 289.712 1.13465 3.19235 0
M  V30 3134 C 288.271 0.874601 3.66098 0
M  V30 3135 C 287.418 1.28667 2.45642 0
M  V30 3136 H 290.369 1.1178 1.12654 0
M  V30 3137 H 290.39 0.487609 3.77363 0
M  V30 3138 H 289.902 2.21535 3.1866 0
M  V30 3139 H 288.003 -0.191793 3.72106 0
M  V30 3140 H 288.116 1.50028 4.55004 0
M  V30 3141 H 286.48 0.705109 2.44745 0
M  V30 3142 H 287.263 2.37625 2.47769 0
M  V30 3143 N 289.708 -1.40897 0.706093 0
M  V30 3144 C 290.638 -2.33418 0.0620085 0
M  V30 3145 C 291.619 -1.52385 -0.755827 0
M  V30 3146 O 292.804 -1.80886 -0.706674 0
M  V30 3147 C 289.934 -3.36293 -0.867445 0
M  V30 3148 C 288.888 -4.27716 -0.155932 0
M  V30 3149 C 288.214 -5.2105 -1.20046 0
M  V30 3150 C 289.514 -5.12944 0.984149 0
M  V30 3151 H 291.208 -2.87527 0.83477 0
M  V30 3152 H 288.754 -1.38249 0.402875 0
M  V30 3153 H 290.707 -3.99949 -1.32735 0
M  V30 3154 H 289.431 -2.80556 -1.67199 0
M  V30 3155 H 288.09 -3.65498 0.284047 0
M  V30 3156 H 287.738 -4.61624 -1.99781 0
M  V30 3157 H 287.438 -5.83056 -0.729328 0
M  V30 3158 H 288.962 -5.87584 -1.66066 0
M  V30 3159 H 290.376 -5.70109 0.604048 0
M  V30 3160 H 288.773 -5.83945 1.38304 0
M  V30 3161 H 289.843 -4.49485 1.81911 0
M  V30 3162 N 291.186 -0.45159 -1.50991 0
M  V30 3163 C 292.134 0.366864 -2.29689 0
M  V30 3164 C 293.128 1.00809 -1.36139 0
M  V30 3165 O 294.334 0.941427 -1.53418 0
M  V30 3166 H 290.709 0.137133 -0.739391 0
M  V30 3167 H 292.68 -0.317538 -2.96706 0
M  V30 3168 C 291.429 1.44751 -3.16137 0
M  V30 3169 H 290.752 0.963473 -3.88017 0
M  V30 3170 H 292.192 1.99315 -3.74232 0
M  V30 3171 C 290.651 2.43869 -2.32442 0
M  V30 3172 O 291.181 3.4872 -1.99392 0
M  V30 3173 N 289.387 2.15105 -1.95392 0
M  V30 3174 H 288.934 1.29866 -2.22469 0
M  V30 3175 H 288.892 2.81661 -1.39693 0
M  V30 3176 N 292.664 1.56529 -0.183458 0
M  V30 3177 C 293.941 1.88959 0.50536 0
M  V30 3178 C 294.321 1.09523 1.80466 0
M  V30 3179 O 293.669 0.19278 2.27685 0
M  V30 3180 C 293.879 3.41162 0.73547 0
M  V30 3181 C 295.227 4.11155 1.06005 0
M  V30 3182 O 296.251 3.46548 0.823594 0
M  V30 3183 O 295.11 5.25318 1.50675 0
M  V30 3184 H 292.204 0.78441 0.261973 0
M  V30 3185 H 294.75 1.68231 -0.222802 0
M  V30 3186 H 293.522 3.90874 -0.182561 0
M  V30 3187 H 293.145 3.67543 1.51651 0
M  V30 3188 N 294.142 -0.090211 1.57342 0
M  V30 3189 C 295.367 -0.810082 1.90925 0
M  V30 3190 C 295.792 -1.71248 0.778187 0
M  V30 3191 O 295.15 -1.79278 -0.269991 0
M  V30 3192 C 295.198 -1.59529 3.23393 0
M  V30 3193 O 294.302 -2.70461 3.11327 0
M  V30 3194 H 293.643 -0.222231 0.625707 0
M  V30 3195 H 296.173 -0.0639716 2.045 0
M  V30 3196 H 296.183 -1.97847 3.5682 0
M  V30 3197 H 294.858 -0.933055 4.05299 0
M  V30 3198 H 293.435 -2.35135 2.89423 0
M  V30 3199 N 295.62 -1.53406 -0.361157 0
M  V30 3200 C 296.552 -1.76446 -1.46286 0
M  V30 3201 C 297.565 -0.645322 -1.49464 0
M  V30 3202 O 298.754 -0.921681 -1.52864 0
M  V30 3203 C 295.854 -1.83332 -2.85031 0
M  V30 3204 C 295.027 -3.13033 -3.05498 0
M  V30 3205 C 294.086 -3.11104 -4.24383 0
M  V30 3206 O 293.112 -3.84888 -4.19344 0
M  V30 3207 N 294.314 -2.32234 -5.32022 0
M  V30 3208 H 297.079 -2.71508 -1.26899 0
M  V30 3209 H 294.64 -1.52238 -0.550915 0
M  V30 3210 H 296.632 -1.79514 -3.62708 0
M  V30 3211 H 295.202 -0.955342 -2.97644 0
M  V30 3212 H 294.422 -3.30119 -2.15442 0
M  V30 3213 H 295.71 -3.9874 -3.16044 0
M  V30 3214 H 295.108 -1.71807 -5.38979 0
M  V30 3215 H 293.665 -2.3423 -6.08259 0
M  V30 3216 N 297.098 0.621204 -1.44841 0
M  V30 3217 C 298.344 1.3826 -1.48365 0
M  V30 3218 C 298.677 1.93831 -0.119624 0
M  V30 3219 O 297.952 1.74251 0.864111 0
M  V30 3220 C 298.235 2.54058 -2.55199 0
M  V30 3221 C 298.088 2.03772 -4.00995 0
M  V30 3222 C 299.407 3.56225 -2.58442 0
M  V30 3223 H 296.526 0.501374 -0.540179 0
M  V30 3224 H 299.168 0.7015 -1.76576 0
M  V30 3225 H 297.318 3.12162 -2.31274 0
M  V30 3226 H 298.99 1.50423 -4.36086 0
M  V30 3227 H 297.233 1.34876 -4.12299 0
M  V30 3228 H 297.904 2.87185 -4.71411 0
M  V30 3229 H 300.38 3.07939 -2.79844 0
M  V30 3230 H 299.256 4.34756 -3.3508 0
M  V30 3231 H 299.517 4.10949 -1.63013 0
M  V30 3232 N 298.576 1.31904 0.862503 0
M  V30 3233 C 299.539 1.20131 1.95195 0
M  V30 3234 C 300.539 0.126409 1.60302 0
M  V30 3235 O 301.729 0.376234 1.70089 0
M  V30 3236 C 298.861 0.845691 3.30244 0
M  V30 3237 H 300.054 2.16943 2.07064 0
M  V30 3238 H 297.607 1.15622 1.05172 0
M  V30 3239 H 298.342 -0.120957 3.24074 0
M  V30 3240 H 298.127 1.62276 3.56944 0
M  V30 3241 H 299.617 0.787418 4.10109 0
M  V30 3242 N 300.054 -1.07777 1.14986 0
M  V30 3243 C 301.3 -1.80557 0.923422 0
M  V30 3244 C 301.633 -1.86298 -0.548337 0
M  V30 3245 O 300.908 -1.34354 -1.40639 0
M  V30 3246 C 301.191 -3.25839 1.53299 0
M  V30 3247 C 301.044 -3.28269 3.07505 0
M  V30 3248 C 302.363 -4.22991 1.21518 0
M  V30 3249 H 299.482 -0.655493 0.336894 0
M  V30 3250 H 302.124 -1.26144 1.42083 0
M  V30 3251 H 300.274 -3.72306 1.10999 0
M  V30 3252 H 301.946 -2.90079 3.58681 0
M  V30 3253 H 300.189 -2.67355 3.4162 0
M  V30 3254 H 300.86 -4.30691 3.45266 0
M  V30 3255 H 303.336 -3.84894 1.581 0
M  V30 3256 H 302.212 -5.22945 1.66793 0
M  V30 3257 H 302.473 -4.41904 0.131505 0
M  V30 3258 N 301.532 -0.945985 -1.26051 0
M  V30 3259 C 302.781 -0.591836 -1.92822 0
M  V30 3260 C 303.094 0.873956 -1.7499 0
M  V30 3261 O 304.3 1.33769 -2.36259 0
M  V30 3262 C 302.756 -1.00776 -3.45503 0
M  V30 3263 C 302.364 -2.4955 -3.7206 0
M  V30 3264 C 304.108 -0.725735 -4.1825 0
M  V30 3265 C 302.015 -2.84988 -5.18205 0
M  V30 3266 H 300.945 -0.217635 -0.721908 0
M  V30 3267 H 303.596 -1.14927 -1.43052 0
M  V30 3268 H 301.978 -0.378812 -3.94184 0
M  V30 3269 H 303.152 -3.1739 -3.34066 0
M  V30 3270 H 301.467 -2.75133 -3.12555 0
M  V30 3271 H 304.064 -0.966771 -5.25887 0
M  V30 3272 H 304.407 0.337639 -4.14929 0
M  V30 3273 H 304.94 -1.31463 -3.7545 0
M  V30 3274 H 301.679 -3.90307 -5.26631 0
M  V30 3275 H 301.199 -2.21813 -5.57278 0
M  V30 3276 H 302.878 -2.73712 -5.86252 0
M  V30 3277 N 303.011 1.40521 -0.713556 0
M  V30 3278 C 303.974 2.29098 -0.0684347 0
M  V30 3279 C 304.974 1.45268 0.689472 0
M  V30 3280 O 306.164 1.66205 0.521677 0
M  V30 3281 C 303.296 3.28446 0.913024 0
M  V30 3282 H 304.489 2.87645 -0.84855 0
M  V30 3283 H 302.042 1.48809 -0.47809 0
M  V30 3284 H 302.777 2.74913 1.72027 0
M  V30 3285 H 302.562 3.90327 0.372472 0
M  V30 3286 H 304.052 3.94777 1.36165 0
M  V30 3287 N 304.489 0.459591 1.5075 0
M  V30 3288 C 305.714 -0.0996819 2.0716 0
M  V30 3289 C 306.139 -1.33761 1.32249 0
M  V30 3290 O 305.497 -1.77551 0.366786 0
M  V30 3291 C 305.545 -0.378226 3.58611 0
M  V30 3292 O 304.649 -1.46081 3.85661 0
M  V30 3293 H 303.99 0.00791392 0.663953 0
M  V30 3294 H 306.52 0.647329 1.9409 0
M  V30 3295 H 306.53 -0.622135 4.03229 0
M  V30 3296 H 305.205 0.526439 4.12555 0
M  V30 3297 H 303.782 -1.20511 3.5289 0
M  V30 3298 N 305.967 -1.56429 0.191757 0
M  V30 3299 C 307.216 -1.9666 -0.448088 0
M  V30 3300 C 307.529 -1.08136 -1.62991 0
M  V30 3301 O 308.735 -1.38135 -2.33733 0
M  V30 3302 C 307.191 -3.49753 -0.848585 0
M  V30 3303 C 306.799 -4.46935 0.308764 0
M  V30 3304 C 308.543 -3.9876 -1.4557 0
M  V30 3305 C 306.45 -5.91293 -0.112506 0
M  V30 3306 H 305.38 -0.734312 -0.171179 0
M  V30 3307 H 308.031 -1.81301 0.283242 0
M  V30 3308 H 306.413 -3.60604 -1.63649 0
M  V30 3309 H 307.587 -4.47813 1.08627 0
M  V30 3310 H 305.902 -4.08102 0.827158 0
M  V30 3311 H 308.499 -5.04086 -1.78328 0
M  V30 3312 H 308.842 -3.42875 -2.36099 0
M  V30 3313 H 309.375 -3.9101 -0.731836 0
M  V30 3314 H 306.114 -6.51097 0.758514 0
M  V30 3315 H 305.634 -5.93676 -0.854941 0
M  V30 3316 H 307.313 -6.44663 -0.549448 0
M  V30 3317 N 307.445 0.0818655 -1.57387 0
M  V30 3318 C 308.67 0.799946 -1.91352 0
M  V30 3319 C 309.095 1.70833 -0.787258 0
M  V30 3320 O 308.453 1.79419 0.26048 0
M  V30 3321 C 308.501 1.57812 -3.24234 0
M  V30 3322 O 307.605 2.68806 -3.12757 0
M  V30 3323 H 306.946 0.21891 -0.626877 0
M  V30 3324 H 309.476 0.0531256 -2.04531 0
M  V30 3325 H 309.486 1.95952 -3.57864 0
M  V30 3326 H 308.161 0.911548 -4.05788 0
M  V30 3327 H 306.738 2.33597 -2.90666 0
M  V30 3328 N 308.923 1.53595 0.353017 0
M  V30 3329 C 309.87 1.80919 1.43308 0
M  V30 3330 C 310.84 0.654288 1.5267 0
M  V30 3331 O 312.025 0.897759 1.6836 0
M  V30 3332 C 309.165 2.01605 2.80089 0
M  V30 3333 C 308.278 3.29321 2.79593 0
M  V30 3334 C 307.413 3.40125 4.0803 0
M  V30 3335 C 306.452 4.61826 4.01725 0
M  V30 3336 N 305.589 4.69716 5.21834 0
M  V30 3337 H 310.429 2.73074 1.19308 0
M  V30 3338 H 307.966 1.35263 0.578131 0
M  V30 3339 H 309.924 2.11586 3.59565 0
M  V30 3340 H 308.554 1.12772 3.0246 0
M  V30 3341 H 307.606 3.28229 1.92276 0
M  V30 3342 H 308.918 4.18884 2.70809 0
M  V30 3343 H 308.072 3.49488 4.95927 0
M  V30 3344 H 306.811 2.48601 4.19582 0
M  V30 3345 H 305.816 4.52552 3.12213 0
M  V30 3346 H 307.041 5.54705 3.91764 0
M  V30 3347 H 304.987 3.81097 5.33948 0
M  V30 3348 H 304.904 5.53202 5.1527 0
M  V30 3349 H 306.172 4.83376 6.11529 0
M  V30 3350 N 310.401 -0.613514 1.45168 0
M  V30 3351 C 311.311 -1.75296 1.55912 0
M  V30 3352 C 312.327 -1.68244 0.443856 0
M  V30 3353 O 313.503 -1.88706 0.70371 0
M  V30 3354 C 310.568 -3.1174 1.5172 0
M  V30 3355 C 309.629 -3.30291 2.74238 0
M  V30 3356 C 308.862 -4.60226 2.70236 0
M  V30 3357 O 309.085 -5.42168 1.77229 0
M  V30 3358 O 308.019 -4.81361 3.61352 0
M  V30 3359 H 311.845 -1.69183 2.52212 0
M  V30 3360 H 309.43 -0.776886 1.27612 0
M  V30 3361 H 311.312 -3.93044 1.51968 0
M  V30 3362 H 309.987 -3.18357 0.585697 0
M  V30 3363 H 308.894 -2.48598 2.79553 0
M  V30 3364 H 310.227 -3.28547 3.66494 0
M  V30 3365 N 311.879 -1.3236 -0.855495 0
M  V30 3366 C 312.812 -1.15559 -1.96777 0
M  V30 3367 C 313.79 -0.0552681 -1.62506 0
M  V30 3368 O 314.974 -0.214419 -1.87277 0
M  V30 3369 C 312.101 -0.768851 -3.29858 0
M  V30 3370 C 311.147 -1.87429 -3.83109 0
M  V30 3371 S 311.98 -3.48243 -4.06801 0
M  V30 3372 C 313.136 -3.11539 -5.42858 0
M  V30 3373 H 313.369 -2.09717 -2.10727 0
M  V30 3374 H 310.902 -1.17011 -1.00737 0
M  V30 3375 H 312.86 -0.55248 -4.06765 0
M  V30 3376 H 311.521 0.153857 -3.13723 0
M  V30 3377 H 310.714 -1.55667 -4.79358 0
M  V30 3378 H 310.316 -2.04647 -3.13042 0
M  V30 3379 H 312.608 -2.61331 -6.2507 0
M  V30 3380 H 313.551 -4.06806 -5.79582 0
M  V30 3381 H 313.959 -2.48582 -5.06821 0
M  V30 3382 N 313.357 1.07166 -1.15556 0
M  V30 3383 C 314.768 1.6127 -0.940693 0
M  V30 3384 C 315.119 1.89251 0.517551 0
M  V30 3385 O 314.244 1.65937 1.38903 0
M  V30 3386 C 314.839 2.92993 -1.7012 0
M  V30 3387 C 313.398 3.43832 -1.53156 0
M  V30 3388 C 312.545 2.1786 -1.71558 0
M  V30 3389 H 315.496 0.90229 -1.30554 0
M  V30 3390 H 315.517 3.62007 -1.17181 0
M  V30 3391 H 315.029 2.72596 -2.76248 0
M  V30 3392 H 313.13 3.69307 -0.494294 0
M  V30 3393 H 313.243 4.19747 -2.30975 0
M  V30 3394 H 311.607 2.2765 -1.14225 0
M  V30 3395 H 312.39 1.99956 -2.79056 0
M  V30 3396 N 314.835 0.952656 1.25548 0
M  V30 3397 C 316.083 0.605176 1.92826 0
M  V30 3398 C 316.404 -0.860261 1.74999 0
M  V30 3399 O 315.674 -1.6125 1.11244 0
M  V30 3400 H 314.254 0.220832 0.713612 0
M  V30 3401 H 316.916 1.21047 1.52754 0
M  V30 3402 H 316.012 0.832798 3.00784 0
M  V30 3403 N 316.313 -1.40141 0.720998 0
M  V30 3404 C 317.562 -2.0002 0.259804 0
M  V30 3405 C 317.875 -1.57839 -1.15526 0
M  V30 3406 O 319.081 -2.10455 -1.71525 0
M  V30 3407 C 317.537 -3.57516 0.413566 0
M  V30 3408 C 317.145 -4.08667 1.83562 0
M  V30 3409 C 318.889 -4.24498 0.0134387 0
M  V30 3410 C 316.796 -5.58686 1.93968 0
M  V30 3411 H 315.726 -0.748195 0.0933806 0
M  V30 3412 H 318.377 -1.60313 0.892866 0
M  V30 3413 H 316.759 -3.9495 -0.288169 0
M  V30 3414 H 317.933 -3.82598 2.56817 0
M  V30 3415 H 316.248 -3.543 2.1877 0
M  V30 3416 H 318.845 -5.34654 0.0703954 0
M  V30 3417 H 319.188 -4.03375 -1.02927 0
M  V30 3418 H 319.721 -3.92188 0.665815 0
M  V30 3419 H 316.46 -5.8467 2.96379 0
M  V30 3420 H 315.98 -5.86602 1.25131 0
M  V30 3421 H 317.659 -6.23875 1.71431 0
M  V30 3422 N 317.792 -0.46758 -1.50504 0
M  V30 3423 C 319.017 0.0886943 -2.0721 0
M  V30 3424 C 319.442 1.33057 -1.32956 0
M  V30 3425 O 318.8 1.77354 -0.376197 0
M  V30 3426 C 318.848 0.359202 -3.58806 0
M  V30 3427 O 317.952 1.44034 -3.8643 0
M  V30 3428 H 317.293 -0.0114349 -0.663902 0
M  V30 3429 H 319.823 -0.657613 -1.93744 0
M  V30 3430 H 319.833 0.600742 -4.03553 0
M  V30 3431 H 318.508 -0.548311 -4.1227 0
M  V30 3432 H 317.085 1.18638 -3.53524 0
M  V30 3433 N 319.27 1.56325 -0.20005 0
M  V30 3434 C 320.519 1.96895 0.437652 0
M  V30 3435 C 320.832 1.08999 1.62415 0
M  V30 3436 O 322.038 1.39372 2.32997 0
M  V30 3437 C 320.494 3.50198 0.830025 0
M  V30 3438 C 320.102 4.46765 -0.332461 0
M  V30 3439 C 321.846 3.99526 1.43453 0
M  V30 3440 C 319.753 5.91344 0.0811468 0
M  V30 3441 H 318.683 0.735209 0.167282 0
M  V30 3442 H 321.334 1.81148 -0.292853 0
M  V30 3443 H 319.716 3.61467 1.61734 0
M  V30 3444 H 320.89 4.47231 -1.11 0
M  V30 3445 H 319.205 4.07657 -0.848789 0
M  V30 3446 H 321.802 5.05025 1.75652 0
M  V30 3447 H 322.145 3.44122 2.34277 0
M  V30 3448 H 322.678 3.91393 0.71109 0
M  V30 3449 H 319.417 6.50685 -0.793033 0
M  V30 3450 H 318.937 5.94121 0.823445 0
M  V30 3451 H 320.616 6.44945 0.515252 0
M  V30 3452 N 320.748 -0.0735177 1.57428 0
M  V30 3453 C 321.973 -0.789787 1.91774 0
M  V30 3454 C 322.398 -1.70413 0.796306 0
M  V30 3455 O 321.756 -1.79555 -0.250961 0
M  V30 3456 C 321.804 -1.5609 3.25067 0
M  V30 3457 O 320.908 -2.67144 3.14178 0
M  V30 3458 H 320.249 -0.215582 0.628029 0
M  V30 3459 H 322.779 -0.0422781 2.04556 0
M  V30 3460 H 322.789 -1.94052 3.58898 0
M  V30 3461 H 321.464 -0.890015 4.06265 0
M  V30 3462 H 320.041 -2.32052 2.91901 0
M  V30 3463 N 322.226 -1.5378 -0.344866 0
M  V30 3464 C 323.454 -1.74899 -1.10534 0
M  V30 3465 C 323.869 -0.487534 -1.82397 0
M  V30 3466 O 323.226 0.540741 -1.74305 0
M  V30 3467 C 323.277 -2.92822 -2.11984 0
M  V30 3468 O 322.998 -4.14089 -1.43044 0
M  V30 3469 C 324.499 -3.25982 -3.00417 0
M  V30 3470 H 321.719 -0.584426 -0.329678 0
M  V30 3471 H 324.263 -2.006 -0.397474 0
M  V30 3472 H 322.418 -2.69457 -2.78338 0
M  V30 3473 H 322.832 -4.80272 -2.10805 0
M  V30 3474 H 324.306 -4.11848 -3.67539 0
M  V30 3475 H 324.783 -2.42228 -3.66363 0
M  V30 3476 H 325.389 -3.51349 -2.39654 0
M  V30 3477 N 323.704 0.605807 -1.45491 0
M  V30 3478 C 324.929 1.39625 -1.53361 0
M  V30 3479 C 325.354 1.87351 -0.167645 0
M  V30 3480 O 324.712 1.60243 0.848051 0
M  V30 3481 C 324.76 2.57559 -2.5238 0
M  V30 3482 O 323.864 3.58248 -2.04285 0
M  V30 3483 H 323.205 0.416771 -0.516912 0
M  V30 3484 H 325.735 0.737103 -1.90861 0
M  V30 3485 H 325.745 3.0478 -2.71244 0
M  V30 3486 H 324.42 2.22171 -3.51586 0
M  V30 3487 H 322.997 3.17664 -1.95305 0
M  V30 3488 N 325.182 1.32811 0.848464 0
M  V30 3489 C 326.428 1.24917 1.60522 0
M  V30 3490 C 326.783 -0.185761 1.91501 0
M  V30 3491 O 326.076 -1.12524 1.55077 0
M  V30 3492 C 326.27 2.04831 2.92881 0
M  V30 3493 C 326.099 3.55949 2.74828 0
M  V30 3494 C 324.869 4.25277 2.72887 0
M  V30 3495 C 327.067 4.50476 2.48145 0
M  V30 3496 N 325.049 5.62408 2.46111 0
M  V30 3497 C 326.42 5.75427 2.30832 0
M  V30 3498 C 328.475 4.39665 2.33664 0
M  V30 3499 C 327.178 6.90789 2.00508 0
M  V30 3500 C 329.204 5.54833 2.04731 0
M  V30 3501 C 328.566 6.78787 1.88223 0
M  V30 3502 H 324.665 0.512279 0.590842 0
M  V30 3503 H 327.249 1.67246 0.996839 0
M  V30 3504 H 325.42 1.64837 3.51686 0
M  V30 3505 H 327.152 1.88782 3.57971 0
M  V30 3506 H 323.907 3.77456 2.86049 0
M  V30 3507 H 324.331 6.3467 2.35634 0
M  V30 3508 H 328.973 3.44477 2.45144 0
M  V30 3509 H 326.691 7.85984 1.87765 0
M  V30 3510 H 330.277 5.48398 1.94295 0
M  V30 3511 H 329.157 7.66396 1.66155 0
M  V30 3512 N 326.66 -1.06551 1.16123 0
M  V30 3513 C 327.937 -1.76097 0.85142 0
M  V30 3514 C 328.317 -2.00802 -0.6513 0
M  V30 3515 O 327.665 -1.63302 -1.59827 0
M  V30 3516 C 327.875 -3.06384 1.67122 0
M  V30 3517 C 329.223 -3.80585 1.88255 0
M  V30 3518 O 330.247 -3.16218 1.63966 0
M  V30 3519 O 329.106 -4.96212 2.2899 0
M  V30 3520 H 326.2 -0.765102 0.313923 0
M  V30 3521 H 328.746 -1.12844 1.26745 0
M  V30 3522 H 327.518 -2.84071 2.69108 0
M  V30 3523 H 327.141 -3.77371 1.25206 0
M  V30 3524 N 328.138 -0.959301 -1.25041 0
M  V30 3525 C 329.554 -0.664474 -1.4511 0
M  V30 3526 C 329.754 0.776481 -1.85938 0
M  V30 3527 O 328.81 1.55128 -1.99227 0
M  V30 3528 C 330.123 -1.64139 -2.5195 0
M  V30 3529 C 331.671 -1.65309 -2.65786 0
M  V30 3530 C 332.146 -2.61777 -3.75815 0
M  V30 3531 N 333.637 -2.60169 -3.83231 0
M  V30 3532 C 334.372 -3.31489 -4.6787 0
M  V30 3533 N 333.868 -4.12298 -5.56761 0
M  V30 3534 N 335.661 -3.20354 -4.61876 0
M  V30 3535 H 327.812 -1.89043 -0.968332 0
M  V30 3536 H 330.075 -0.813408 -0.4869 0
M  V30 3537 H 329.781 -2.67086 -2.28819 0
M  V30 3538 H 329.655 -1.40756 -3.49954 0
M  V30 3539 H 332.042 -0.630778 -2.8828 0
M  V30 3540 H 332.123 -1.92753 -1.68167 0
M  V30 3541 H 331.767 -3.64137 -3.54071 0
M  V30 3542 H 331.697 -2.31616 -4.72929 0
M  V30 3543 H 334.188 -2.01507 -3.19692 0
M  V30 3544 H 334.501 -4.63625 -6.18281 0
M  V30 3545 H 332.846 -4.16395 -5.56454 0
M  V30 3546 H 336.037 -2.56692 -3.91442 0
M  V30 3547 H 336.21 -3.76201 -5.27614 0
M  V30 3548 N 329.616 1.39756 -0.72842 0
M  V30 3549 C 330.563 2.30647 -0.0841519 0
M  V30 3550 C 331.533 1.48869 0.7367 0
M  V30 3551 O 332.718 1.77574 0.698015 0
M  V30 3552 C 329.858 3.35165 0.822091 0
M  V30 3553 C 328.971 4.31999 -0.0106663 0
M  V30 3554 C 328.106 5.23585 0.896241 0
M  V30 3555 C 327.145 6.12072 0.0583381 0
M  V30 3556 N 326.282 6.96035 0.920818 0
M  V30 3557 H 331.122 2.85173 -0.864891 0
M  V30 3558 H 328.659 1.40422 -0.438179 0
M  V30 3559 H 330.617 3.94345 1.36189 0
M  V30 3560 H 329.247 2.8211 1.56888 0
M  V30 3561 H 328.299 3.74492 -0.66781 0
M  V30 3562 H 329.611 4.9443 -0.658825 0
M  V30 3563 H 328.765 5.87759 1.50412 0
M  V30 3564 H 327.504 4.61459 1.57819 0
M  V30 3565 H 326.509 5.46916 -0.562389 0
M  V30 3566 H 327.734 6.76261 -0.6203 0
M  V30 3567 H 325.68 6.36485 1.58818 0
M  V30 3568 H 325.597 7.55284 0.32899 0
M  V30 3569 H 326.865 7.64646 1.51447 0
M  V30 3570 N 331.094 0.475555 1.50254 0
M  V30 3571 C 332.34 -0.0780073 2.0265 0
M  V30 3572 C 332.673 -1.38968 1.35652 0
M  V30 3573 O 331.948 -1.8839 0.483691 0
M  V30 3574 C 332.231 -0.257161 3.59181 0
M  V30 3575 C 332.084 1.07585 4.36744 0
M  V30 3576 C 333.403 -1.00965 4.28362 0
M  V30 3577 H 330.522 -0.0268758 0.73651 0
M  V30 3578 H 333.164 0.622015 1.7953 0
M  V30 3579 H 331.314 -0.853412 3.79011 0
M  V30 3580 H 332.986 1.70902 4.28474 0
M  V30 3581 H 331.229 1.6714 4.00308 0
M  V30 3582 H 331.9 0.904088 5.44546 0
M  V30 3583 H 334.376 -0.504214 4.13034 0
M  V30 3584 H 333.252 -1.10381 5.37687 0
M  V30 3585 H 333.513 -2.04731 3.91839 0
M  V30 3586 N 332.573 -1.56217 0.208337 0
M  V30 3587 C 333.503 -2.22694 -0.702116 0
M  V30 3588 C 334.484 -1.19432 -1.2112 0
M  V30 3589 O 335.669 -1.47978 -1.25762 0
M  V30 3590 C 332.799 -2.8966 -1.9161 0
M  V30 3591 C 331.753 -3.9928 -1.5414 0
M  V30 3592 C 331.079 -4.53476 -2.83308 0
M  V30 3593 C 332.379 -5.17012 -0.741339 0
M  V30 3594 H 334.073 -2.99034 -0.147898 0
M  V30 3595 H 331.619 -1.43831 -0.0696951 0
M  V30 3596 H 333.572 -3.34852 -2.55836 0
M  V30 3597 H 332.296 -2.10746 -2.49507 0
M  V30 3598 H 330.955 -3.54799 -0.922668 0
M  V30 3599 H 330.603 -3.71308 -3.39322 0
M  V30 3600 H 330.303 -5.27451 -2.58976 0
M  V30 3601 H 331.827 -5.01378 -3.485 0
M  V30 3602 H 333.241 -5.58667 -1.28699 0
M  V30 3603 H 331.638 -5.97137 -0.595627 0
M  V30 3604 H 332.708 -4.8423 0.254851 0
M  V30 3605 N 334.051 0.0651679 -1.57465 0
M  V30 3606 C 334.961 1.09448 -2.07505 0
M  V30 3607 C 335.977 1.41974 -1.00595 0
M  V30 3608 O 337.153 1.52018 -1.32107 0
M  V30 3609 C 334.218 2.38689 -2.51453 0
M  V30 3610 C 333.279 2.13073 -3.72691 0
M  V30 3611 C 332.512 3.36152 -4.14533 0
M  V30 3612 O 332.735 4.45517 -3.56189 0
M  V30 3613 O 331.669 3.23974 -5.07272 0
M  V30 3614 H 335.495 0.69935 -2.95538 0
M  V30 3615 H 333.08 0.279752 -1.46757 0
M  V30 3616 H 334.962 3.14736 -2.80212 0
M  V30 3617 H 333.637 2.77568 -1.66546 0
M  V30 3618 H 332.544 1.34709 -3.49005 0
M  V30 3619 H 333.877 1.79071 -4.5847 0
M  V30 3620 N 335.529 1.53961 0.336706 0
M  V30 3621 C 336.757 1.75483 1.09605 0
M  V30 3622 C 337.172 0.4972 1.82136 0
M  V30 3623 O 336.529 -0.53149 1.74589 0
M  V30 3624 C 336.58 2.93943 2.10428 0
M  V30 3625 O 336.301 4.14842 1.40846 0
M  V30 3626 C 337.802 3.27571 2.98684 0
M  V30 3627 H 335.022 0.586166 0.326574 0
M  V30 3628 H 337.566 2.00808 0.38683 0
M  V30 3629 H 335.721 2.70929 2.76905 0
M  V30 3630 H 336.135 4.81383 2.08255 0
M  V30 3631 H 337.609 4.13791 3.6535 0
M  V30 3632 H 338.086 2.44168 3.65074 0
M  V30 3633 H 338.692 3.52615 2.37787 0
M  V30 3634 N 337.007 -0.598083 1.45811 0
M  V30 3635 C 338.232 -1.3881 1.54099 0
M  V30 3636 C 338.657 -1.8726 0.177578 0
M  V30 3637 O 338.015 -1.6069 -0.839541 0
M  V30 3638 C 338.063 -2.56217 2.53743 0
M  V30 3639 O 337.167 -3.5716 2.06182 0
M  V30 3640 H 336.508 -0.414024 0.519115 0
M  V30 3641 H 339.038 -0.726971 1.91249 0
M  V30 3642 H 339.048 -3.03337 2.72856 0
M  V30 3643 H 337.723 -2.20303 3.5276 0
M  V30 3644 H 336.3 -3.16624 1.96987 0
M  V30 3645 N 338.485 -1.33259 -0.841409 0
M  V30 3646 C 339.415 -1.25926 -1.96634 0
M  V30 3647 C 340.396 -0.140349 -1.6952 0
M  V30 3648 O 341.581 -0.329707 -1.91381 0
M  V30 3649 C 338.711 -0.99512 -3.32738 0
M  V30 3650 C 337.665 -2.0767 -3.74242 0
M  V30 3651 C 336.991 -1.66474 -5.08125 0
M  V30 3652 C 338.291 -3.49318 -3.88297 0
M  V30 3653 H 339.985 -2.20046 -2.03027 0
M  V30 3654 H 337.531 -1.05931 -0.975425 0
M  V30 3655 H 339.484 -0.930323 -4.11002 0
M  V30 3656 H 338.208 -0.0183004 -3.26595 0
M  V30 3657 H 336.867 -2.13187 -2.98239 0
M  V30 3658 H 336.515 -0.675012 -4.9845 0
M  V30 3659 H 336.215 -2.3885 -5.36865 0
M  V30 3660 H 337.739 -1.61455 -5.88867 0
M  V30 3661 H 339.153 -3.46316 -4.56879 0
M  V30 3662 H 337.55 -4.20158 -4.28471 0
M  V30 3663 H 338.62 -3.8801 -2.9082 0
M  V30 3664 N 339.963 1.05934 -1.16686 0
M  V30 3665 C 341.188 1.83029 -0.975455 0
M  V30 3666 C 341.613 1.82096 0.471452 0
M  V30 3667 O 340.971 1.22443 1.33706 0
M  V30 3668 C 341.019 3.27372 -1.51195 0
M  V30 3669 O 340.123 4.06054 -0.720701 0
M  V30 3670 H 339.464 0.566194 -0.346872 0
M  V30 3671 H 341.994 1.33541 -1.55009 0
M  V30 3672 H 342.004 3.78186 -1.53099 0
M  V30 3673 H 340.679 3.27366 -2.56523 0
M  V30 3674 H 339.256 3.64812 -0.772458 0
M  V30 3675 N 341.441 0.965919 1.2453 0
M  V30 3676 C 342.666 0.643971 1.97149 0
M  V30 3677 C 343.091 -0.779487 1.71189 0
M  V30 3678 O 342.449 -1.5288 0.974553 0
M  V30 3679 C 342.497 0.922557 3.48599 0
M  V30 3680 O 341.601 0.00707672 4.12399 0
M  V30 3681 H 340.942 0.243647 0.617683 0
M  V30 3682 H 343.472 1.29558 1.58353 0
M  V30 3683 H 343.482 0.853373 3.98976 0
M  V30 3684 H 342.157 1.95996 3.66822 0
M  V30 3685 H 340.734 0.12943 3.72675 0
M  V30 3686 N 342.919 -1.39368 0.735821 0
M  V30 3687 C 344.168 -1.99733 0.281004 0
M  V30 3688 C 344.481 -1.59055 -1.13846 0
M  V30 3689 O 345.687 -2.12262 -1.69284 0
M  V30 3690 C 344.143 -3.57057 0.451462 0
M  V30 3691 C 343.751 -4.06697 1.87886 0
M  V30 3692 C 345.495 -4.2446 0.0584616 0
M  V30 3693 C 343.402 -5.56598 1.99883 0
M  V30 3694 H 342.332 -0.747163 0.101311 0
M  V30 3695 H 344.983 -1.59357 0.909819 0
M  V30 3696 H 343.365 -3.95234 -0.246263 0
M  V30 3697 H 344.539 -3.79853 2.60861 0
M  V30 3698 H 342.854 -3.5196 2.22515 0
M  V30 3699 H 345.451 -5.34549 0.127099 0
M  V30 3700 H 345.794 -4.04444 -0.986433 0
M  V30 3701 H 346.327 -3.9146 0.707374 0
M  V30 3702 H 343.066 -5.81494 3.02564 0
M  V30 3703 H 342.586 -5.85242 1.31346 0
M  V30 3704 H 344.265 -6.22022 1.78039 0
M  V30 3705 N 344.397 -0.483516 -1.5 0
M  V30 3706 C 345.643 0.0672592 -2.02688 0
M  V30 3707 C 345.976 1.38247 -1.36387 0
M  V30 3708 O 345.251 1.88131 -0.493675 0
M  V30 3709 C 345.534 0.238109 -3.59312 0
M  V30 3710 C 345.387 -1.099 -4.36168 0
M  V30 3711 C 346.706 0.986916 -4.28892 0
M  V30 3712 H 343.825 0.0229696 -0.736642 0
M  V30 3713 H 346.467 -0.631527 -1.79197 0
M  V30 3714 H 344.617 0.8333 -3.79458 0
M  V30 3715 H 346.289 -1.73172 -4.27562 0
M  V30 3716 H 344.532 -1.69261 -3.99416 0
M  V30 3717 H 345.203 -0.932954 -5.44059 0
M  V30 3718 H 347.679 0.482302 -4.13295 0
M  V30 3719 H 346.555 1.07527 -5.38265 0
M  V30 3720 H 346.816 2.0265 -3.92919 0
M  V30 3721 N 345.875 1.56104 -0.216619 0
M  V30 3722 C 347.123 1.97781 0.415593 0
M  V30 3723 C 347.444 1.10536 1.60645 0
M  V30 3724 O 346.714 0.181303 1.95059 0
M  V30 3725 H 345.294 0.730415 0.156534 0
M  V30 3726 H 347.956 1.92445 -0.308366 0
M  V30 3727 H 347.052 3.03072 0.74525 0
M  V30 3728 N 347.353 -0.0568162 1.57498 0
M  V30 3729 C 348.578 -0.769402 1.92601 0
M  V30 3730 C 349.003 -1.69559 0.814336 0
M  V30 3731 O 348.361 -1.79811 -0.231903 0
M  V30 3732 C 348.409 -1.52634 3.26704 0
M  V30 3733 O 347.513 -2.63797 3.16994 0
M  V30 3734 H 346.854 -0.208909 0.63028 0
M  V30 3735 H 349.384 -0.0205798 2.0459 0
M  V30 3736 H 349.394 -1.90234 3.60936 0
M  V30 3737 H 348.069 -0.846875 4.07186 0
M  V30 3738 H 346.646 -2.28943 2.94346 0
M  V30 3739 N 348.832 -1.54138 -0.328536 0
M  V30 3740 C 350.078 -1.7236 -1.06865 0
M  V30 3741 C 350.411 -0.493231 -1.87832 0
M  V30 3742 O 349.686 0.5098 -1.877 0
M  V30 3743 C 349.969 -2.99621 -1.99747 0
M  V30 3744 C 349.822 -4.32899 -1.22143 0
M  V30 3745 C 351.141 -3.22615 -2.99345 0
M  V30 3746 H 348.26 -0.627151 -0.387105 0
M  V30 3747 H 350.902 -1.86827 -0.345767 0
M  V30 3748 H 349.052 -2.87418 -2.61387 0
M  V30 3749 H 350.724 -4.56978 -0.630017 0
M  V30 3750 H 348.967 -4.30628 -0.523628 0
M  V30 3751 H 349.638 -5.18154 -1.90318 0
M  V30 3752 H 352.114 -3.34248 -2.47826 0
M  V30 3753 H 350.99 -4.13027 -3.61524 0
M  V30 3754 H 351.251 -2.3961 -3.71536 0
M  V30 3755 N 350.31 0.590341 -1.46126 0
M  V30 3756 C 351.535 1.37991 -1.54833 0
M  V30 3757 C 351.96 1.87163 -0.187506 0
M  V30 3758 O 351.318 1.61133 0.831008 0
M  V30 3759 C 351.366 2.54867 -2.55098 0
M  V30 3760 O 350.47 3.56061 -2.08073 0
M  V30 3761 H 349.811 0.411265 -0.521303 0
M  V30 3762 H 352.341 0.716819 -1.91632 0
M  V30 3763 H 352.351 3.01886 -2.74461 0
M  V30 3764 H 351.026 2.18429 -3.53923 0
M  V30 3765 H 349.603 3.15574 -1.98664 0
M  V30 3766 N 351.788 1.33704 0.83433 0
M  V30 3767 C 353.013 1.28615 1.62705 0
M  V30 3768 C 353.438 -0.139242 1.87584 0
M  V30 3769 O 352.796 -1.09734 1.4432 0
M  V30 3770 C 352.844 2.07139 2.95171 0
M  V30 3771 O 351.948 1.4331 3.86699 0
M  V30 3772 H 351.289 0.44226 0.49528 0
M  V30 3773 H 353.819 1.76335 1.03766 0
M  V30 3774 H 353.829 2.18073 3.44831 0
M  V30 3775 H 352.504 3.10779 2.76386 0
M  V30 3776 H 351.081 1.4105 3.45195 0
M  V30 3777 N 353.266 -1.05314 1.17247 0
M  V30 3778 C 354.176 -2.16538 0.90268 0
M  V30 3779 C 355.192 -1.73523 -0.128707 0
M  V30 3780 O 356.368 -2.01337 0.0502701 0
M  V30 3781 C 353.433 -3.44167 0.418356 0
M  V30 3782 C 352.494 -4.01635 1.51618 0
M  V30 3783 C 351.727 -5.23171 1.05487 0
M  V30 3784 O 351.95 -5.70327 -0.0914715 0
M  V30 3785 O 350.884 -5.72848 1.8474 0
M  V30 3786 H 354.71 -2.42145 1.83302 0
M  V30 3787 H 352.295 -1.15037 0.953246 0
M  V30 3788 H 354.177 -4.21112 0.155726 0
M  V30 3789 H 352.852 -3.20063 -0.48385 0
M  V30 3790 H 351.759 -3.26135 1.83268 0
M  V30 3791 H 353.092 -4.30053 2.39405 0
M  V30 3792 N 354.744 -0.972509 -1.24016 0
M  V30 3793 C 355.691 -0.505969 -2.25186 0
M  V30 3794 C 356.661 0.451009 -1.5986 0
M  V30 3795 O 357.846 0.360307 -1.87367 0
M  V30 3796 C 354.986 0.193089 -3.44559 0
M  V30 3797 C 354.099 -0.803222 -4.24467 0
M  V30 3798 C 353.234 -0.0797793 -5.3114 0
M  V30 3799 C 352.273 -1.06583 -6.02749 0
M  V30 3800 N 351.41 -0.372074 -7.01113 0
M  V30 3801 H 356.25 -1.37351 -2.64459 0
M  V30 3802 H 353.787 -0.688419 -1.29997 0
M  V30 3803 H 355.745 0.615125 -4.1264 0
M  V30 3804 H 354.375 1.02455 -3.06109 0
M  V30 3805 H 353.427 -1.34368 -3.55878 0
M  V30 3806 H 354.739 -1.55494 -4.73944 0
M  V30 3807 H 353.893 0.400015 -6.0538 0
M  V30 3808 H 352.632 0.704597 -4.82583 0
M  V30 3809 H 351.637 -1.55645 -5.27309 0
M  V30 3810 H 352.862 -1.85074 -6.53395 0
M  V30 3811 H 350.808 0.393238 -6.5482 0
M  V30 3812 H 350.725 -1.06258 -7.48495 0
M  V30 3813 H 351.993 0.0855932 -7.79453 0
M  V30 3814 N 356.222 1.38976 -0.743202 0
M  V30 3815 C 357.185 2.28901 -0.117014 0
M  V30 3816 C 358.185 1.46698 0.658503 0
M  V30 3817 O 359.375 1.67274 0.486305 0
M  V30 3818 C 356.507 3.30309 0.84315 0
M  V30 3819 H 357.7 2.8578 -0.909373 0
M  V30 3820 H 355.253 1.47761 -0.509547 0
M  V30 3821 H 355.988 2.785 1.66157 0
M  V30 3822 H 355.773 3.91029 0.289594 0
M  V30 3823 H 357.263 3.97577 1.2776 0
M  V30 3824 N 357.7 0.491464 1.49741 0
M  V30 3825 C 358.948 -0.0563141 2.02022 0
M  V30 3826 C 359.269 -1.38363 1.37407 0
M  V30 3827 O 358.539 -1.88702 0.526166 0
M  V30 3828 H 357.119 -0.0238014 0.746621 0
M  V30 3829 H 359.781 0.646533 1.83864 0
M  V30 3830 H 358.877 -0.192967 3.11503 0
M  V30 3831 N 359.178 -1.55987 0.224894 0
M  V30 3832 C 360.108 -2.23426 -0.678457 0
M  V30 3833 C 361.089 -1.20709 -1.19847 0
M  V30 3834 O 362.274 -1.49304 -1.24186 0
M  V30 3835 C 359.404 -2.91676 -1.88527 0
M  V30 3836 C 358.358 -4.00893 -1.49896 0
M  V30 3837 C 357.684 -4.56455 -2.78483 0
M  V30 3838 C 358.984 -5.17769 -0.686461 0
M  V30 3839 H 360.678 -2.99175 -0.116173 0
M  V30 3840 H 358.224 -1.43897 -0.054436 0
M  V30 3841 H 360.177 -3.37547 -2.5227 0
M  V30 3842 H 358.901 -2.1338 -2.47258 0
M  V30 3843 H 357.56 -3.55758 -0.884985 0
M  V30 3844 H 357.208 -3.74886 -3.35365 0
M  V30 3845 H 356.908 -5.30169 -2.53368 0
M  V30 3846 H 358.432 -5.05047 -3.43162 0
M  V30 3847 H 359.846 -5.60001 -1.22767 0
M  V30 3848 H 358.243 -5.97735 -0.532259 0
M  V30 3849 H 359.313 -4.83932 0.306196 0
M  V30 3850 N 360.656 0.0484629 -1.57525 0
M  V30 3851 C 362.067 0.597486 -1.76881 0
M  V30 3852 C 362.418 1.76664 -0.853475 0
M  V30 3853 O 361.543 2.16357 -0.0433656 0
M  V30 3854 C 362.138 1.09066 -3.20765 0
M  V30 3855 C 360.697 1.58535 -3.41385 0
M  V30 3856 C 359.844 0.514868 -2.72478 0
M  V30 3857 H 362.795 -0.177758 -1.57701 0
M  V30 3858 H 362.816 1.95875 -3.2621 0
M  V30 3859 H 362.328 0.239521 -3.8736 0
M  V30 3860 H 360.429 2.45898 -2.79937 0
M  V30 3861 H 360.542 1.64622 -4.49929 0
M  V30 3862 H 358.906 0.965407 -2.35695 0
M  V30 3863 H 359.689 -0.32648 -3.41744 0
M  V30 3864 N 362.134 1.5431 0.320358 0
M  V30 3865 C 363.097 1.83195 1.3774 0
M  V30 3866 C 364.097 0.703906 1.44575 0
M  V30 3867 O 365.287 0.972214 1.44546 0
M  V30 3868 C 362.419 1.99487 2.76438 0
M  V30 3869 H 363.612 2.77642 1.1338 0
M  V30 3870 H 361.165 1.46076 0.556012 0
M  V30 3871 H 361.9 1.07262 3.06048 0
M  V30 3872 H 361.685 2.81575 2.7287 0
M  V30 3873 H 363.175 2.23271 3.52902 0
M  V30 3874 N 363.613 -0.582584 1.46437 0
M  V30 3875 C 364.523 -1.71949 1.59595 0
M  V30 3876 C 365.539 -1.67264 0.479443 0
M  V30 3877 O 366.715 -1.87171 0.743579 0
M  V30 3878 C 363.78 -3.08452 1.58298 0
M  V30 3879 C 362.841 -3.244 2.81182 0
M  V30 3880 C 362.074 -4.54391 2.79937 0
M  V30 3881 O 362.297 -5.38287 1.8869 0
M  V30 3882 O 361.231 -4.73588 3.71481 0
M  V30 3883 H 365.057 -1.63795 2.55744 0
M  V30 3884 H 362.642 -0.749643 1.29231 0
M  V30 3885 H 364.524 -3.89732 1.60271 0
M  V30 3886 H 363.199 -3.17043 0.653094 0
M  V30 3887 H 362.106 -2.42613 2.84763 0
M  V30 3888 H 363.439 -3.20699 3.7338 0
M  V30 3889 N 365.091 -1.34144 -0.827227 0
M  V30 3890 C 366.001 -1.27428 -1.96975 0
M  V30 3891 C 367.017 -0.182728 -1.73038 0
M  V30 3892 O 368.193 -0.408426 -1.97215 0
M  V30 3893 C 365.258 -1.02526 -3.31194 0
M  V30 3894 C 364.319 -2.20796 -3.68168 0
M  V30 3895 C 363.552 -1.97073 -4.95982 0
M  V30 3896 O 363.775 -0.926822 -5.6282 0
M  V30 3897 O 362.709 -2.83912 -5.30733 0
M  V30 3898 H 366.535 -2.23537 -2.05584 0
M  V30 3899 H 364.12 -1.14307 -0.961989 0
M  V30 3900 H 366.002 -0.904026 -4.11589 0
M  V30 3901 H 364.677 -0.0945389 -3.23562 0
M  V30 3902 H 363.584 -2.38477 -2.88235 0
M  V30 3903 H 364.917 -3.12243 -3.8048 0
M  V30 3904 N 366.569 1.04691 -1.17803 0
M  V30 3905 C 367.532 2.10724 -0.901545 0
M  V30 3906 C 368.532 1.6042 0.110437 0
M  V30 3907 O 369.722 1.7377 -0.122303 0
M  V30 3908 C 366.854 3.39084 -0.351409 0
M  V30 3909 H 368.047 2.36686 -1.84174 0
M  V30 3910 H 365.6 1.21015 -0.98919 0
M  V30 3911 H 366.335 3.18782 0.59569 0
M  V30 3912 H 366.12 3.76909 -1.08083 0
M  V30 3913 H 367.61 4.17227 -0.176451 0
M  V30 3914 N 368.047 0.979072 1.23499 0
M  V30 3915 C 368.957 0.526431 2.28617 0
M  V30 3916 C 369.973 -0.418126 1.68901 0
M  V30 3917 O 371.149 -0.288372 1.99325 0
M  V30 3918 C 368.214 -0.165235 3.46306 0
M  V30 3919 C 367.275 0.82056 4.21385 0
M  V30 3920 C 366.508 0.161807 5.33455 0
M  V30 3921 O 366.731 -1.04742 5.60701 0
M  V30 3922 O 365.665 0.859708 5.95729 0
M  V30 3923 H 369.491 1.4006 2.69475 0
M  V30 3924 H 367.076 0.746643 1.29405 0
M  V30 3925 H 368.958 -0.553287 4.17752 0
M  V30 3926 H 367.633 -1.01419 3.07402 0
M  V30 3927 H 366.54 1.25929 3.52268 0
M  V30 3928 H 367.873 1.63828 4.64135 0
M  V30 3929 N 369.525 -1.3858 0.750561 0
M  V30 3930 C 370.488 -2.28836 0.129152 0
M  V30 3931 C 371.488 -1.47045 -0.650714 0
M  V30 3932 O 372.678 -1.6753 -0.477428 0
M  V30 3933 C 369.81 -3.30751 -0.825622 0
M  V30 3934 H 371.003 -2.85294 0.924516 0
M  V30 3935 H 368.556 -1.47489 0.517376 0
M  V30 3936 H 369.291 -2.79378 -1.64677 0
M  V30 3937 H 369.076 -3.91177 -0.268852 0
M  V30 3938 H 370.566 -3.98249 -1.2565 0
M  V30 3939 N 371.003 -0.499398 -1.49478 0
M  V30 3940 C 372.233 0.0424839 -2.06556 0
M  V30 3941 C 372.641 1.31514 -1.36018 0
M  V30 3942 O 371.984 1.78555 -0.431718 0
M  V30 3943 C 372.046 0.368074 -3.57611 0
M  V30 3944 C 371.71 -0.806631 -4.49825 0
M  V30 3945 C 372.707 -1.69667 -4.91436 0
M  V30 3946 C 370.392 -1.00498 -4.92144 0
M  V30 3947 C 372.386 -2.76923 -5.74101 0
M  V30 3948 C 370.073 -2.08072 -5.74586 0
M  V30 3949 C 371.071 -2.96119 -6.15469 0
M  V30 3950 O 370.759 -4.01836 -6.96264 0
M  V30 3951 H 370.491 -0.0165165 -0.675798 0
M  V30 3952 H 373.045 -0.695497 -1.93267 0
M  V30 3953 H 371.275 1.15963 -3.68903 0
M  V30 3954 H 372.964 0.848381 -3.96935 0
M  V30 3955 H 373.73 -1.55524 -4.59388 0
M  V30 3956 H 369.609 -0.329036 -4.59824 0
M  V30 3957 H 373.153 -3.45676 -6.05932 0
M  V30 3958 H 369.05 -2.22211 -6.06047 0
M  V30 3959 H 369.818 -3.9917 -7.14567 0
M  V30 3960 N 372.481 1.55866 -0.233164 0
M  V30 3961 C 373.411 2.23783 0.666599 0
M  V30 3962 C 374.392 1.21343 1.19205 0
M  V30 3963 O 375.577 1.4996 1.23392 0
M  V30 3964 C 372.707 2.92671 1.86978 0
M  V30 3965 C 371.661 4.01682 1.47768 0
M  V30 3966 C 370.987 4.57926 2.76058 0
M  V30 3967 C 372.287 5.18126 0.658993 0
M  V30 3968 H 373.981 2.99232 0.100306 0
M  V30 3969 H 371.527 1.43924 0.046804 0
M  V30 3970 H 373.48 3.3888 2.50476 0
M  V30 3971 H 372.204 2.14688 2.46123 0
M  V30 3972 H 370.863 3.56222 0.866106 0
M  V30 3973 H 370.511 3.76659 3.33372 0
M  V30 3974 H 370.211 5.31505 2.50552 0
M  V30 3975 H 371.735 5.06859 3.40479 0
M  V30 3976 H 373.149 5.60644 1.19795 0
M  V30 3977 H 371.546 5.98009 0.500552 0
M  V30 3978 H 372.616 4.83763 -0.331856 0
M  V30 3979 N 373.959 -0.0401083 1.57549 0
M  V30 3980 C 374.906 -1.04413 2.05831 0
M  V30 3981 C 375.876 -1.36585 0.945184 0
M  V30 3982 O 377.061 -1.47112 1.21502 0
M  V30 3983 C 374.201 -2.34336 2.53339 0
M  V30 3984 C 373.314 -2.08419 3.78398 0
M  V30 3985 C 372.449 -3.32133 4.14561 0
M  V30 3986 C 371.488 -3.01721 5.3257 0
M  V30 3987 N 370.625 -4.17855 5.64218 0
M  V30 3988 H 375.465 -0.625442 2.91363 0
M  V30 3989 H 373.002 -0.297218 1.44066 0
M  V30 3990 H 374.96 -3.10234 2.78946 0
M  V30 3991 H 373.59 -2.73948 1.7074 0
M  V30 3992 H 372.642 -1.23069 3.59942 0
M  V30 3993 H 373.954 -1.81978 4.64419 0
M  V30 3994 H 373.108 -4.16406 4.41238 0
M  V30 3995 H 371.847 -3.61678 3.2717 0
M  V30 3996 H 370.852 -2.15849 5.05657 0
M  V30 3997 H 372.077 -2.73466 6.21605 0
M  V30 3998 H 370.023 -4.47372 4.79786 0
M  V30 3999 H 369.94 -3.94798 6.44725 0
M  V30 4000 H 371.208 -5.03033 5.95465 0
M  V30 4001 N 375.437 -1.54477 -0.31217 0
M  V30 4002 C 376.384 -1.84655 -1.38461 0
M  V30 4003 C 377.354 -0.694536 -1.50882 0
M  V30 4004 O 378.539 -0.942081 -1.6592 0
M  V30 4005 C 375.679 -2.0896 -2.74645 0
M  V30 4006 C 374.792 -3.36618 -2.70763 0
M  V30 4007 C 373.927 -3.50824 -3.98868 0
M  V30 4008 C 372.966 -4.72315 -3.89339 0
M  V30 4009 N 372.103 -4.83387 -5.09197 0
M  V30 4010 H 376.943 -2.76142 -1.12026 0
M  V30 4011 H 374.48 -1.36748 -0.542065 0
M  V30 4012 H 376.438 -2.21045 -3.53829 0
M  V30 4013 H 375.068 -1.20752 -2.99364 0
M  V30 4014 H 374.12 -3.33211 -1.83506 0
M  V30 4015 H 375.432 -4.25917 -2.59608 0
M  V30 4016 H 374.586 -3.62513 -4.86486 0
M  V30 4017 H 373.325 -2.59638 -4.12843 0
M  V30 4018 H 372.33 -4.6067 -3.00105 0
M  V30 4019 H 373.555 -5.64897 -3.76919 0
M  V30 4020 H 371.501 -3.9512 -5.23657 0
M  V30 4021 H 371.418 -5.66669 -5.00422 0
M  V30 4022 H 372.686 -4.9942 -5.98498 0
M  V30 4023 N 376.915 0.57481 -1.46744 0
M  V30 4024 C 378.163 1.33009 -1.52161 0
M  V30 4025 C 378.484 1.94185 -0.178092 0
M  V30 4026 O 377.754 1.7899 0.796196 0
M  V30 4027 H 376.334 0.493873 -0.560445 0
M  V30 4028 H 378.996 0.672589 -1.82927 0
M  V30 4029 H 378.092 2.13273 -2.27862 0
M  V30 4030 N 378.394 1.34581 0.820102 0
M  V30 4031 C 379.624 1.29991 1.6058 0
M  V30 4032 C 380.032 -0.127588 1.88769 0
M  V30 4033 O 379.375 -1.08595 1.48165 0
M  V30 4034 C 379.437 2.02548 2.9701 0
M  V30 4035 C 379.101 3.51794 2.91701 0
M  V30 4036 C 380.098 4.46647 2.66087 0
M  V30 4037 C 377.783 3.94249 3.11245 0
M  V30 4038 C 379.777 5.81929 2.60071 0
M  V30 4039 C 377.464 5.2963 3.04853 0
M  V30 4040 C 378.462 6.23282 2.793 0
M  V30 4041 O 378.15 7.56181 2.72847 0
M  V30 4042 H 377.882 0.448539 0.505756 0
M  V30 4043 H 380.436 1.77811 1.02822 0
M  V30 4044 H 378.666 1.49345 3.56697 0
M  V30 4045 H 380.355 1.91211 3.58041 0
M  V30 4046 H 381.121 4.15168 2.5072 0
M  V30 4047 H 377 3.21749 3.30149 0
M  V30 4048 H 380.544 6.54999 2.40046 0
M  V30 4049 H 376.441 5.60727 3.19774 0
M  V30 4050 H 377.209 7.6595 2.88553 0
M  V30 4051 N 379.872 -1.04064 1.18357 0
M  V30 4052 C 381.097 -1.81454 1.00445 0
M  V30 4053 C 381.522 -1.82823 -0.442423 0
M  V30 4054 O 380.88 -1.24555 -1.31741 0
M  V30 4055 C 380.928 -3.24925 1.56384 0
M  V30 4056 O 380.032 -4.04856 0.785209 0
M  V30 4057 H 379.373 -0.560604 0.355835 0
M  V30 4058 H 381.903 -1.31059 1.57114 0
M  V30 4059 H 381.913 -3.75702 1.59097 0
M  V30 4060 H 380.588 -3.23244 2.61699 0
M  V30 4061 H 379.165 -3.63537 0.830399 0
M  V30 4062 N 381.35 -0.985608 -1.22978 0
M  V30 4063 C 382.28 -0.549649 -2.26939 0
M  V30 4064 C 383.261 0.419803 -1.64838 0
M  V30 4065 O 384.446 0.31203 -1.91677 0
M  V30 4066 C 381.576 0.143652 -3.47003 0
M  V30 4067 C 380.53 -0.743606 -4.21491 0
M  V30 4068 C 379.856 0.0822027 -5.34637 0
M  V30 4069 C 381.156 -2.03694 -4.80943 0
M  V30 4070 H 382.85 -1.41862 -2.63658 0
M  V30 4071 H 380.396 -0.683571 -1.26741 0
M  V30 4072 H 382.349 0.459985 -4.18882 0
M  V30 4073 H 381.073 1.04711 -3.09359 0
M  V30 4074 H 379.732 -1.04347 -3.51436 0
M  V30 4075 H 379.38 0.986359 -4.93234 0
M  V30 4076 H 379.08 -0.508377 -5.85397 0
M  V30 4077 H 380.604 0.392797 -6.09335 0
M  V30 4078 H 382.018 -1.78504 -5.44802 0
M  V30 4079 H 380.415 -2.57573 -5.42011 0
M  V30 4080 H 381.485 -2.72042 -4.01399 0
M  V30 4081 N 382.828 1.3818 -0.7579 0
M  V30 4082 C 383.776 2.32277 -0.122482 0
M  V30 4083 C 384.77 1.54238 0.700505 0
M  V30 4084 O 385.976 1.69737 0.599119 0
M  V30 4085 H 382.351 0.751712 -0.0208143 0
M  V30 4086 H 384.322 2.83469 -0.932099 0
M  V30 4087 C 383.071 3.39447 0.753076 0
M  V30 4088 H 382.394 3.99591 0.129184 0
M  V30 4089 H 383.834 4.07684 1.16489 0
M  V30 4090 C 382.293 2.78375 1.8976 0
M  V30 4091 O 382.823 2.68025 2.99208 0
M  V30 4092 N 381.029 2.36121 1.69397 0
M  V30 4093 H 380.576 2.4474 0.803762 0
M  V30 4094 H 380.534 1.95602 2.46145 0
M  V30 4095 N 384.306 0.507319 1.49211 0
M  V30 4096 C 385.583 -0.0982702 1.95353 0
M  V30 4097 C 385.963 -1.53516 1.449 0
M  V30 4098 O 385.311 -2.18594 0.66551 0
M  V30 4099 C 385.521 -0.00440283 3.49 0
M  V30 4100 C 386.869 -0.175147 4.24239 0
M  V30 4101 O 387.893 -0.0792891 3.56112 0
M  V30 4102 O 386.752 -0.37276 5.45227 0
M  V30 4103 H 383.846 -0.0918236 0.821887 0
M  V30 4104 H 386.392 0.570307 1.5983 0
M  V30 4105 H 385.164 0.997402 3.78375 0
M  V30 4106 H 384.787 -0.712845 3.91158 0
M  V30 4107 N 385.784 -1.5574 0.241426 0
M  V30 4108 C 387.2 -1.59196 -0.113548 0
M  V30 4109 C 387.4 -1.25852 -1.57364 0
M  V30 4110 O 386.456 -1.00322 -2.31715 0
M  V30 4111 C 387.769 -2.99814 0.230695 0
M  V30 4112 C 389.317 -3.12513 0.174547 0
M  V30 4113 C 389.792 -4.55342 0.492744 0
M  V30 4114 N 391.283 -4.61076 0.443043 0
M  V30 4115 C 392.018 -5.6956 0.662484 0
M  V30 4116 N 391.514 -6.86328 0.944761 0
M  V30 4117 N 393.307 -5.58957 0.593564 0
M  V30 4118 H 385.458 -1.75685 1.19368 0
M  V30 4119 H 387.721 -0.81756 0.479896 0
M  V30 4120 H 387.427 -3.28932 1.24485 0
M  V30 4121 H 387.301 -3.74568 -0.444833 0
M  V30 4122 H 389.688 -2.83179 -0.830277 0
M  V30 4123 H 389.769 -2.40045 0.883845 0
M  V30 4124 H 389.413 -4.85396 1.4951 0
M  V30 4125 H 389.343 -5.26062 -0.23797 0
M  V30 4126 H 391.834 -3.77179 0.233374 0
M  V30 4127 H 392.147 -7.64935 1.09977 0
M  V30 4128 H 390.492 -6.88025 0.982175 0
M  V30 4129 H 393.683 -4.66611 0.373123 0
M  V30 4130 H 393.856 -6.43433 0.767981 0
M  V30 4131 N 387.262 0.0317525 -1.57568 0
M  V30 4132 C 388.508 0.724175 -1.8943 0
M  V30 4133 C 388.841 1.75149 -0.838836 0
M  V30 4134 O 388.116 1.93948 0.146422 0
M  V30 4135 C 388.399 1.39615 -3.31933 0
M  V30 4136 C 388.252 0.382537 -4.4817 0
M  V30 4137 C 389.571 2.33084 -3.73309 0
M  V30 4138 H 386.69 0.261797 -0.688935 0
M  V30 4139 H 389.332 -0.013017 -1.89996 0
M  V30 4140 H 387.482 2.02451 -3.31581 0
M  V30 4141 H 389.154 -0.243689 -4.60656 0
M  V30 4142 H 387.397 -0.29844 -4.32772 0
M  V30 4143 H 388.068 0.891145 -5.44759 0
M  V30 4144 H 390.544 1.80295 -3.7501 0
M  V30 4145 H 389.42 2.77084 -4.73831 0
M  V30 4146 H 389.681 3.19643 -3.05419 0
M  V30 4147 N 388.74 1.54641 0.303973 0
M  V30 4148 C 389.988 1.73437 1.0375 0
M  V30 4149 C 390.309 0.521449 1.87899 0
M  V30 4150 O 389.579 -0.46432 1.90318 0
M  V30 4151 H 388.159 0.639518 0.386039 0
M  V30 4152 H 390.821 1.91988 0.335675 0
M  V30 4153 H 389.917 2.62235 1.69231 0
M  V30 4154 N 390.218 -0.567019 1.47046 0
M  V30 4155 C 391.446 -1.35027 1.56765 0
M  V30 4156 C 391.861 -1.8758 0.214316 0
M  V30 4157 O 391.218 -1.64471 -0.790919 0
M  V30 4158 C 391.269 -2.52698 2.58507 0
M  V30 4159 O 390.99 -2.0232 3.88585 0
M  V30 4160 C 392.491 -3.45043 2.78316 0
M  V30 4161 H 389.711 -0.41195 0.529658 0
M  V30 4162 H 392.255 -0.687832 1.92585 0
M  V30 4163 H 390.41 -3.149 2.25648 0
M  V30 4164 H 390.824 -2.79068 4.44096 0
M  V30 4165 H 392.298 -4.2405 3.53391 0
M  V30 4166 H 392.775 -3.97971 1.85784 0
M  V30 4167 H 393.381 -2.88665 3.12334 0
M  V30 4168 N 391.696 -1.35014 -0.812953 0
M  V30 4169 C 392.921 -1.31187 -1.60639 0
M  V30 4170 C 393.346 0.109382 -1.87782 0
M  V30 4171 O 392.704 1.07424 -1.46047 0
M  V30 4172 C 392.752 -2.11809 -2.91838 0
M  V30 4173 O 391.856 -1.49444 -3.8437 0
M  V30 4174 H 391.197 -0.450084 -0.488181 0
M  V30 4175 H 393.727 -1.77963 -1.00947 0
M  V30 4176 H 393.737 -2.23531 -3.41318 0
M  V30 4177 H 392.412 -3.15137 -2.71407 0
M  V30 4178 H 390.989 -1.46524 -3.42907 0
M  V30 4179 N 393.175 1.03435 -1.18907 0
M  V30 4180 C 394.405 1.8012 -1.01195 0
M  V30 4181 C 394.813 1.8395 0.442613 0
M  V30 4182 O 394.156 1.27836 1.31923 0
M  V30 4183 C 394.218 3.26792 -1.49823 0
M  V30 4184 C 393.882 3.46609 -2.97844 0
M  V30 4185 C 394.879 3.37278 -3.95651 0
M  V30 4186 C 392.564 3.73001 -3.36416 0
M  V30 4187 C 394.558 3.54054 -5.30023 0
M  V30 4188 C 392.245 3.89423 -4.70949 0
M  V30 4189 C 393.243 3.79951 -5.67562 0
M  V30 4190 O 392.931 3.95895 -6.99659 0
M  V30 4191 H 392.663 0.573865 -0.357289 0
M  V30 4192 H 395.217 1.31207 -1.58031 0
M  V30 4193 H 393.447 3.76703 -0.873578 0
M  V30 4194 H 395.136 3.85055 -1.28404 0
M  V30 4195 H 395.902 3.16846 -3.67197 0
M  V30 4196 H 391.781 3.79469 -2.61772 0
M  V30 4197 H 395.325 3.46577 -6.05417 0
M  V30 4198 H 391.222 4.09351 -4.99101 0
M  V30 4199 H 391.99 4.13019 -7.06653 0
M  V30 4200 N 394.653 0.992116 1.22453 0
M  V30 4201 C 395.583 0.561677 2.26644 0
M  V30 4202 C 396.564 -0.411055 1.65059 0
M  V30 4203 O 397.749 -0.301861 1.9184 0
M  V30 4204 C 394.879 -0.125247 3.47074 0
M  V30 4205 C 393.833 0.765948 4.21091 0
M  V30 4206 C 393.159 -0.0538484 5.34673 0
M  V30 4207 C 394.459 2.06242 4.79856 0
M  V30 4208 H 396.153 1.43259 2.62902 0
M  V30 4209 H 393.699 0.690283 1.26377 0
M  V30 4210 H 395.652 -0.437764 4.1912 0
M  V30 4211 H 394.376 -1.03069 3.0991 0
M  V30 4212 H 393.035 1.0621 3.50878 0
M  V30 4213 H 392.683 -0.960188 4.9375 0
M  V30 4214 H 392.383 0.539415 5.85119 0
M  V30 4215 H 393.907 -0.360477 6.09535 0
M  V30 4216 H 395.321 1.8139 5.43848 0
M  V30 4217 H 393.718 2.60444 5.40638 0
M  V30 4218 H 394.788 2.74167 3.99951 0
M  V30 4219 N 396.131 -1.37776 0.765217 0
M  V30 4220 C 397.041 -2.34135 0.147666 0
M  V30 4221 C 398.057 -1.59854 -0.687215 0
M  V30 4222 O 399.233 -1.91983 -0.608659 0
M  V30 4223 C 396.298 -3.3901 -0.72617 0
M  V30 4224 C 395.359 -4.2912 0.124417 0
M  V30 4225 C 394.592 -5.28986 -0.707807 0
M  V30 4226 O 394.815 -5.36205 -1.94525 0
M  V30 4227 O 393.749 -6.01779 -0.12046 0
M  V30 4228 H 397.575 -2.88664 0.943758 0
M  V30 4229 H 395.16 -1.39824 0.526277 0
M  V30 4230 H 397.042 -4.03195 -1.22524 0
M  V30 4231 H 395.717 -2.86819 -1.50056 0
M  V30 4232 H 394.624 -3.68057 0.669696 0
M  V30 4233 H 395.957 -4.84598 0.861736 0
M  V30 4234 N 397.609 -0.515225 -1.4894 0
M  V30 4235 C 398.556 0.255567 -2.29381 0
M  V30 4236 C 399.526 0.947387 -1.36432 0
M  V30 4237 O 400.711 0.951288 -1.65394 0
M  V30 4238 C 397.851 1.30551 -3.19453 0
M  V30 4239 C 396.964 0.624029 -4.27469 0
M  V30 4240 C 396.099 1.65563 -5.0474 0
M  V30 4241 C 395.138 0.956802 -6.04576 0
M  V30 4242 N 394.275 1.93326 -6.74959 0
M  V30 4243 H 399.115 -0.436607 -2.94784 0
M  V30 4244 H 396.652 -0.227154 -1.45336 0
M  V30 4245 H 398.61 1.92639 -3.70062 0
M  V30 4246 H 397.24 1.96626 -2.56004 0
M  V30 4247 H 396.292 -0.110459 -3.8024 0
M  V30 4248 H 397.604 0.0746092 -4.98744 0
M  V30 4249 H 396.758 2.35119 -5.59289 0
M  V30 4250 H 395.497 2.23893 -4.3327 0
M  V30 4251 H 394.502 0.247097 -5.49244 0
M  V30 4252 H 395.727 0.379814 -6.78037 0
M  V30 4253 H 393.673 2.50591 -6.06251 0
M  V30 4254 H 393.59 1.43489 -7.42258 0
M  V30 4255 H 394.858 2.62126 -7.34105 0
M  V30 4256 N 399.087 1.5561 -0.249682 0
M  V30 4257 C 400.019 2.18834 0.681496 0
M  V30 4258 C 401.032 1.16546 1.1367 0
M  V30 4259 O 402.221 1.43397 1.06299 0
M  V30 4260 C 399.321 2.77992 1.9384 0
M  V30 4261 C 398.494 4.05725 1.63419 0
M  V30 4262 C 397.553 4.49174 2.74096 0
M  V30 4263 O 396.579 5.15492 2.41364 0
M  V30 4264 N 397.781 4.17191 4.03649 0
M  V30 4265 H 400.546 2.9937 0.140514 0
M  V30 4266 H 398.107 1.6175 -0.0697541 0
M  V30 4267 H 400.099 3.04015 2.67127 0
M  V30 4268 H 398.669 2.01596 2.38909 0
M  V30 4269 H 397.889 3.87261 0.736358 0
M  V30 4270 H 399.177 4.88999 1.40562 0
M  V30 4271 H 398.575 3.63955 4.33074 0
M  V30 4272 H 397.132 4.48043 4.73393 0
M  V30 4273 N 400.565 -0.0233959 1.57583 0
M  V30 4274 C 401.795 -0.723631 1.93513 0
M  V30 4275 C 402.203 -1.69115 0.848333 0
M  V30 4276 O 401.546 -1.82781 -0.183484 0
M  V30 4277 C 401.608 -1.53075 3.25282 0
M  V30 4278 C 401.272 -0.727388 4.51174 0
M  V30 4279 C 402.269 -0.0251924 5.19894 0
M  V30 4280 C 399.954 -0.680256 4.97672 0
M  V30 4281 C 401.948 0.713374 6.33395 0
M  V30 4282 C 399.635 0.0620523 6.11068 0
M  V30 4283 C 400.633 0.757622 6.78785 0
M  V30 4284 O 400.321 1.48787 7.90011 0
M  V30 4285 H 400.053 -0.208051 0.643188 0
M  V30 4286 H 402.607 0.0167489 2.05393 0
M  V30 4287 H 400.837 -2.31508 3.09744 0
M  V30 4288 H 402.526 -2.11413 3.46496 0
M  V30 4289 H 403.292 -0.0526003 4.84971 0
M  V30 4290 H 399.171 -1.21116 4.44805 0
M  V30 4291 H 402.715 1.25683 6.86185 0
M  V30 4292 H 398.612 0.0913634 6.45435 0
M  V30 4293 H 399.38 1.40213 8.06401 0
M  V30 4294 N 402.043 -1.548 -0.295768 0
M  V30 4295 C 402.953 -1.89177 -1.38742 0
M  V30 4296 C 403.969 -0.786481 -1.55211 0
M  V30 4297 O 405.145 -1.08344 -1.69775 0
M  V30 4298 C 402.21 -2.13663 -2.73036 0
M  V30 4299 C 401.271 -3.37349 -2.65508 0
M  V30 4300 C 400.504 -3.60658 -3.93398 0
M  V30 4301 O 400.727 -2.86882 -4.93006 0
M  V30 4302 O 399.661 -4.54179 -3.94975 0
M  V30 4303 H 403.487 -2.82059 -1.12589 0
M  V30 4304 H 401.072 -1.41056 -0.492295 0
M  V30 4305 H 402.954 -2.3094 -3.52484 0
M  V30 4306 H 401.629 -1.23967 -2.99022 0
M  V30 4307 H 400.536 -3.25431 -1.84514 0
M  V30 4308 H 401.869 -4.27192 -2.44474 0
M  V30 4309 N 403.521 0.559213 -1.47345 0
M  V30 4310 C 404.431 1.69388 -1.62311 0
M  V30 4311 C 405.447 1.6648 -0.505993 0
M  V30 4312 O 406.623 1.85964 -0.773262 0
M  V30 4313 C 403.688 3.05894 -1.63185 0
M  V30 4314 C 402.749 3.19885 -2.86307 0
M  V30 4315 C 401.982 4.49879 -2.87131 0
M  V30 4316 O 402.205 5.35217 -1.97229 0
M  V30 4317 O 401.139 4.67618 -3.78968 0
M  V30 4318 H 404.965 1.59706 -2.58317 0
M  V30 4319 H 402.55 0.728989 -1.30407 0
M  V30 4320 H 404.432 3.87133 -1.66451 0
M  V30 4321 H 403.107 3.15964 -0.70345 0
M  V30 4322 H 402.014 2.38052 -2.88587 0
M  V30 4323 H 403.347 3.14718 -3.78435 0
M  V30 4324 N 404.999 1.35443 0.805782 0
M  V30 4325 C 406.227 1.31878 1.59423 0
M  V30 4326 C 406.642 -0.103562 1.88516 0
M  V30 4327 O 405.999 -1.05575 1.48863 0
M  V30 4328 C 406.05 2.12426 2.92502 0
M  V30 4329 O 405.771 3.49115 2.6467 0
M  V30 4330 C 407.272 2.16455 3.86862 0
M  V30 4331 H 404.492 0.453002 0.495005 0
M  V30 4332 H 407.036 1.78309 1.00131 0
M  V30 4333 H 405.191 1.69593 3.48306 0
M  V30 4334 H 405.605 3.90957 3.49647 0
M  V30 4335 H 407.079 2.77204 4.77349 0
M  V30 4336 H 407.556 1.16352 4.23508 0
M  V30 4337 H 408.162 2.59453 3.36993 0
M  V30 4338 N 406.477 -1.02803 1.19454 0
M  V30 4339 C 407.407 -2.12999 0.956758 0
M  V30 4340 C 408.388 -1.69743 -0.110188 0
M  V30 4341 O 409.573 -1.94148 0.0450038 0
M  V30 4342 C 406.703 -3.43746 0.495553 0
M  V30 4343 C 405.657 -4.00688 1.50443 0
M  V30 4344 C 404.983 -5.27067 0.900275 0
M  V30 4345 C 406.283 -4.35397 2.8849 0
M  V30 4346 H 407.977 -2.33148 1.87836 0
M  V30 4347 H 405.523 -1.12045 0.904539 0
M  V30 4348 H 407.476 -4.2021 0.316493 0
M  V30 4349 H 406.2 -3.23321 -0.461646 0
M  V30 4350 H 404.859 -3.2632 1.67065 0
M  V30 4351 H 404.507 -5.02959 -0.064503 0
M  V30 4352 H 404.207 -5.66127 1.57397 0
M  V30 4353 H 405.731 -6.06196 0.73203 0
M  V30 4354 H 407.145 -5.02795 2.75446 0
M  V30 4355 H 405.542 -4.85541 3.52661 0
M  V30 4356 H 406.612 -3.44662 3.41081 0
M  V30 4357 N 407.956 -0.998596 -1.21925 0
M  V30 4358 C 408.888 -0.511879 -2.23411 0
M  V30 4359 C 409.901 0.396094 -1.57908 0
M  V30 4360 O 411.09 0.197316 -1.77406 0
M  V30 4361 C 408.19 0.276802 -3.37768 0
M  V30 4362 C 407.363 -0.628687 -4.32858 0
M  V30 4363 C 406.422 0.109272 -5.26087 0
M  V30 4364 O 405.448 -0.507237 -5.66935 0
M  V30 4365 N 406.65 1.38983 -5.63617 0
M  V30 4366 H 409.415 -1.38457 -2.658 0
M  V30 4367 H 406.976 -0.873981 -1.36283 0
M  V30 4368 H 408.968 0.77928 -3.97126 0
M  V30 4369 H 407.538 1.05063 -2.94415 0
M  V30 4370 H 406.758 -1.31175 -3.71735 0
M  V30 4371 H 408.046 -1.24514 -4.93329 0
M  V30 4372 H 407.444 1.91194 -5.32411 0
M  V30 4373 H 406.001 1.83739 -6.25367 0
M  V30 4374 N 409.434 1.37368 -0.772513 0
M  V30 4375 C 410.682 1.99279 -0.336516 0
M  V30 4376 C 411.003 1.6163 1.09091 0
M  V30 4377 O 410.273 0.882109 1.74916 0
M  V30 4378 H 408.853 0.737063 -0.121435 0
M  V30 4379 H 411.515 1.67836 -0.990809 0
M  V30 4380 H 410.611 3.09332 -0.414763 0
M  V30 4381 N 410.912 0.523116 1.48665 0
M  V30 4382 C 411.859 -0.243398 2.29513 0
M  V30 4383 C 412.829 -0.940139 1.36933 0
M  V30 4384 O 414.014 -0.942503 1.65896 0
M  V30 4385 C 411.154 -1.28855 3.20141 0
M  V30 4386 C 410.267 -0.60135 4.27794 0
M  V30 4387 C 409.402 -1.62884 5.05611 0
M  V30 4388 C 408.441 -0.924726 6.05075 0
M  V30 4389 N 407.578 -1.89744 6.75975 0
M  V30 4390 H 412.418 0.452234 2.94549 0
M  V30 4391 H 409.955 0.234858 1.45213 0
M  V30 4392 H 411.913 -1.90674 3.71079 0
M  V30 4393 H 410.543 -1.95266 2.57043 0
M  V30 4394 H 409.595 0.130623 3.80176 0
M  V30 4395 H 410.907 -0.0481585 4.98777 0
M  V30 4396 H 410.061 -2.32149 5.60528 0
M  V30 4397 H 408.8 -2.21592 4.34452 0
M  V30 4398 H 407.805 -0.217966 5.49368 0
M  V30 4399 H 409.03 -0.343851 6.78229 0
M  V30 4400 H 406.976 -2.47373 6.07571 0
M  V30 4401 H 406.893 -1.3955 7.43009 0
M  V30 4402 H 408.161 -2.58229 7.35485 0
M  V30 4403 N 412.39 -1.55475 0.257931 0
M  V30 4404 C 413.806 -1.59307 -0.0966563 0
M  V30 4405 C 414.006 -1.27514 -1.5602 0
M  V30 4406 O 413.062 -1.02774 -2.30637 0
M  V30 4407 C 414.375 -2.99552 0.262481 0
M  V30 4408 C 415.923 -3.1231 0.207683 0
M  V30 4409 C 416.398 -4.54793 0.541012 0
M  V30 4410 N 417.889 -4.6058 0.491921 0
M  V30 4411 C 418.624 -5.68825 0.722857 0
M  V30 4412 N 418.12 -6.85287 1.0175 0
M  V30 4413 N 419.913 -5.58296 0.652815 0
M  V30 4414 H 412.064 -1.74409 1.21224 0
M  V30 4415 H 414.327 -0.812424 0.48854 0
M  V30 4416 H 414.033 -3.27593 1.27967 0
M  V30 4417 H 413.907 -3.75019 -0.40508 0
M  V30 4418 H 416.294 -2.84044 -0.800195 0
M  V30 4419 H 416.375 -2.39095 0.909255 0
M  V30 4420 H 416.019 -4.83783 1.5465 0
M  V30 4421 H 415.949 -5.26285 -0.18216 0
M  V30 4422 H 418.44 -3.7691 0.273366 0
M  V30 4423 H 418.753 -7.63725 1.18084 0
M  V30 4424 H 417.098 -6.86945 1.05509 0
M  V30 4425 H 420.289 -4.66189 0.422592 0
M  V30 4426 H 420.462 -6.42582 0.836182 0
M  V30 4427 N 413.868 0.0150385 -1.57593 0
M  V30 4428 C 415.093 0.718067 -1.94573 0
M  V30 4429 C 415.518 1.6734 -0.859005 0
M  V30 4430 O 414.876 1.80362 0.184147 0
M  V30 4431 C 414.924 1.43918 -3.30636 0
M  V30 4432 O 414.028 2.55299 -3.23876 0
M  V30 4433 H 413.369 0.192125 -0.635597 0
M  V30 4434 H 415.899 -0.0336708 -2.04572 0
M  V30 4435 H 415.909 1.80598 -3.65853 0
M  V30 4436 H 414.584 0.738619 -4.09289 0
M  V30 4437 H 413.161 2.21058 -3.00312 0
M  V30 4438 N 415.346 1.54954 0.287554 0
M  V30 4439 C 416.592 1.75132 1.02257 0
M  V30 4440 C 416.925 0.542858 1.86458 0
M  V30 4441 O 416.2 -0.459856 1.88986 0
M  V30 4442 C 416.483 3.04812 1.91733 0
M  V30 4443 C 416.336 4.35985 1.10622 0
M  V30 4444 C 417.655 3.30438 2.90687 0
M  V30 4445 H 414.774 0.637194 0.370341 0
M  V30 4446 H 417.416 1.87678 0.296111 0
M  V30 4447 H 415.566 2.94247 2.53675 0
M  V30 4448 H 417.238 4.58487 0.508636 0
M  V30 4449 H 415.481 4.31865 0.409271 0
M  V30 4450 H 416.152 5.23017 1.76513 0
M  V30 4451 H 418.628 3.40701 2.38877 0
M  V30 4452 H 417.504 4.22467 3.50447 0
M  V30 4453 H 417.765 2.49377 3.65053 0
M  V30 4454 N 416.824 -0.551391 1.4764 0
M  V30 4455 C 417.771 -1.65796 1.60563 0
M  V30 4456 C 418.741 -1.59932 0.448428 0
M  V30 4457 O 419.926 -1.78679 0.669222 0
M  V30 4458 C 417.066 -3.04108 1.63133 0
M  V30 4459 C 416.179 -3.20365 2.89811 0
M  V30 4460 C 415.314 -4.49109 2.8368 0
M  V30 4461 C 414.353 -4.58819 4.05156 0
M  V30 4462 N 413.49 -5.78926 3.97227 0
M  V30 4463 H 418.33 -1.54088 2.5507 0
M  V30 4464 H 415.867 -0.75052 1.26513 0
M  V30 4465 H 417.825 -3.84207 1.62606 0
M  V30 4466 H 416.455 -3.14637 0.721341 0
M  V30 4467 H 415.507 -2.33659 3.00179 0
M  V30 4468 H 416.819 -3.23402 3.79753 0
M  V30 4469 H 415.973 -5.37475 2.81434 0
M  V30 4470 H 414.712 -4.4856 1.91431 0
M  V30 4471 H 413.717 -3.68864 4.077 0
M  V30 4472 H 414.942 -4.61124 4.98539 0
M  V30 4473 H 412.888 -5.79314 3.07785 0
M  V30 4474 H 412.805 -5.83367 4.80853 0
M  V30 4475 H 414.073 -6.69637 3.99007 0
M  V30 4476 N 418.302 -1.35869 -0.798587 0
M  V30 4477 C 419.212 -1.31578 -1.94228 0
M  V30 4478 C 420.228 -0.21939 -1.72611 0
M  V30 4479 O 421.404 -0.450167 -1.96305 0
M  V30 4480 C 418.469 -1.09528 -3.28944 0
M  V30 4481 C 417.53 -2.28556 -3.63402 0
M  V30 4482 C 416.763 -2.07549 -4.9169 0
M  V30 4483 O 416.986 -1.046 -5.60727 0
M  V30 4484 O 415.92 -2.95106 -5.24591 0
M  V30 4485 H 419.746 -2.27847 -2.00796 0
M  V30 4486 H 417.331 -1.16322 -0.937526 0
M  V30 4487 H 419.213 -0.991127 -4.09579 0
M  V30 4488 H 417.888 -0.16315 -3.23289 0
M  V30 4489 H 416.795 -2.44538 -2.83112 0
M  V30 4490 H 418.128 -3.20244 -3.73771 0
M  V30 4491 N 419.78 1.02168 -1.19998 0
M  V30 4492 C 421.029 1.75091 -1.0013 0
M  V30 4493 C 421.342 1.89923 0.467835 0
M  V30 4494 O 422.548 2.59888 0.785515 0
M  V30 4495 C 421.004 3.14892 -1.74273 0
M  V30 4496 C 420.612 3.0809 -3.25245 0
M  V30 4497 C 422.356 3.9206 -1.62755 0
M  V30 4498 C 420.263 4.42867 -3.91948 0
M  V30 4499 H 419.193 0.656394 -0.37103 0
M  V30 4500 H 421.844 1.14284 -1.43567 0
M  V30 4501 H 420.226 3.7621 -1.2362 0
M  V30 4502 H 421.4 2.5611 -3.83072 0
M  V30 4503 H 419.715 2.44416 -3.3712 0
M  V30 4504 H 422.312 4.91764 -2.09934 0
M  V30 4505 H 422.655 4.12199 -0.582894 0
M  V30 4506 H 423.188 3.37359 -2.10793 0
M  V30 4507 H 419.927 4.27931 -4.96543 0
M  V30 4508 H 419.447 4.94874 -3.3891 0
M  V30 4509 H 421.126 5.11728 -3.95909 0
M  V30 4510 N 421.258 1.00505 1.21394 0
M  V30 4511 C 422.208 0.536503 2.21598 0
M  V30 4512 C 423.192 -0.401914 1.55799 0
M  V30 4513 O 424.384 -0.226757 1.75541 0
M  V30 4514 C 421.513 -0.135446 3.43033 0
M  V30 4515 C 420.599 0.823992 4.16018 0
M  V30 4516 N 420.99 1.97683 4.6557 0
M  V30 4517 C 419.288 0.642387 4.4135 0
M  V30 4518 C 419.989 2.58003 5.21354 0
M  V30 4519 N 418.965 1.86162 5.1073 0
M  V30 4520 H 422.767 1.41557 2.57563 0
M  V30 4521 H 420.281 0.868878 1.37202 0
M  V30 4522 H 422.278 -0.488584 4.14027 0
M  V30 4523 H 420.938 -1.01049 3.08576 0
M  V30 4524 H 421.949 2.3572 4.61147 0
M  V30 4525 H 418.626 -0.185578 4.17087 0
M  V30 4526 H 420.016 3.555 5.70149 0
M  V30 4527 N 422.737 -1.36956 0.779787 0
M  V30 4528 C 423.667 -2.32761 0.185651 0
M  V30 4529 C 424.648 -1.56177 -0.673989 0
M  V30 4530 O 425.833 -1.84378 -0.609797 0
M  V30 4531 C 422.963 -3.40418 -0.687964 0
M  V30 4532 C 421.917 -4.27941 0.0710102 0
M  V30 4533 C 421.243 -5.26681 -0.922573 0
M  V30 4534 C 422.543 -5.07006 1.25467 0
M  V30 4535 H 424.237 -2.82698 0.986008 0
M  V30 4536 H 421.783 -1.3592 0.475592 0
M  V30 4537 H 423.736 -4.06423 -1.11348 0
M  V30 4538 H 422.46 -2.89025 -1.52093 0
M  V30 4539 H 421.119 -3.63478 0.47739 0
M  V30 4540 H 420.767 -4.71565 -1.7503 0
M  V30 4541 H 420.467 -5.86103 -0.419237 0
M  V30 4542 H 421.991 -5.9556 -1.34686 0
M  V30 4543 H 423.405 -5.66105 0.905401 0
M  V30 4544 H 421.802 -5.75793 1.69063 0
M  V30 4545 H 422.872 -4.3921 2.05481 0
M  V30 4546 N 424.215 -0.530993 -1.48385 0
M  V30 4547 C 425.492 0.0671788 -1.95485 0
M  V30 4548 C 425.872 1.51191 -1.47324 0
M  V30 4549 O 425.22 2.17507 -0.700202 0
M  V30 4550 C 425.43 -0.0511206 -3.48963 0
M  V30 4551 C 426.778 0.107632 -4.24464 0
M  V30 4552 O 427.802 0.0226248 -3.56193 0
M  V30 4553 O 426.661 0.285972 -5.45751 0
M  V30 4554 H 423.755 0.0787365 -0.823243 0
M  V30 4555 H 426.301 -0.595662 -1.58902 0
M  V30 4556 H 425.073 -1.05747 -3.7674 0
M  V30 4557 H 424.696 0.650525 -3.92242 0
M  V30 4558 N 425.693 1.55336 -0.266172 0
M  V30 4559 C 426.64 2.22172 0.625165 0
M  V30 4560 C 427.61 1.19211 1.15663 0
M  V30 4561 O 428.795 1.47723 1.20758 0
M  V30 4562 C 425.935 2.93972 1.8076 0
M  V30 4563 C 425.048 4.11632 1.31084 0
M  V30 4564 C 424.183 4.71099 2.45436 0
M  V30 4565 C 423.222 5.8097 1.92718 0
M  V30 4566 N 422.359 6.34538 3.00509 0
M  V30 4567 H 427.199 2.9796 0.0485582 0
M  V30 4568 H 424.736 1.47095 0.0122024 0
M  V30 4569 H 426.694 3.33811 2.50251 0
M  V30 4570 H 425.324 2.20623 2.35638 0
M  V30 4571 H 424.376 3.76975 0.509326 0
M  V30 4572 H 425.688 4.90893 0.884633 0
M  V30 4573 H 424.842 5.13612 3.22936 0
M  V30 4574 H 423.581 3.91096 2.91368 0
M  V30 4575 H 422.586 5.37916 1.13695 0
M  V30 4576 H 423.811 6.62836 1.47733 0
M  V30 4577 H 421.757 5.57433 3.45839 0
M  V30 4578 H 421.674 7.09046 2.62279 0
M  V30 4579 H 422.942 6.81709 3.78011 0
M  V30 4580 N 427.171 -0.0066808 1.57599 0
M  V30 4581 C 428.401 -0.703066 1.94269 0
M  V30 4582 C 428.809 -1.68206 0.866222 0
M  V30 4583 O 428.152 -1.82966 -0.164087 0
M  V30 4584 C 428.214 -1.49616 3.26887 0
M  V30 4585 C 427.878 -0.679494 4.5192 0
M  V30 4586 C 428.875 0.0299508 5.19891 0
M  V30 4587 C 426.56 -0.627433 4.98366 0
M  V30 4588 C 428.554 0.780514 6.32603 0
M  V30 4589 C 426.241 0.126861 6.10968 0
M  V30 4590 C 427.239 0.829574 6.77943 0
M  V30 4591 O 426.927 1.57157 7.88389 0
M  V30 4592 H 426.659 -0.201217 0.645359 0
M  V30 4593 H 429.213 0.0385326 2.05364 0
M  V30 4594 H 427.443 -2.28209 3.12182 0
M  V30 4595 H 429.132 -2.07726 3.48719 0
M  V30 4596 H 429.898 -0.00115963 4.85 0
M  V30 4597 H 425.777 -1.16392 4.46065 0
M  V30 4598 H 429.321 1.32954 6.84813 0
M  V30 4599 H 425.218 0.159815 6.45302 0
M  V30 4600 H 425.986 1.48758 8.04868 0
M  V30 4601 N 428.649 -1.55105 -0.279332 0
M  V30 4602 C 429.897 -1.75066 -1.00977 0
M  V30 4603 C 430.218 -0.551276 -1.87045 0
M  V30 4604 O 429.488 0.433984 -1.91032 0
M  V30 4605 H 428.068 -0.645578 -0.375816 0
M  V30 4606 H 430.73 -1.92497 -0.305089 0
M  V30 4607 H 429.826 -2.64894 -1.65038 0
M  V30 4608 N 430.127 0.543554 -1.4793 0
M  V30 4609 C 431.075 1.67039 -1.61866 0
M  V30 4610 C 432.069 1.62294 -0.48549 0
M  V30 4611 O 433.275 1.67315 -0.66376 0
M  V30 4612 H 429.65 0.552954 -0.509652 0
M  V30 4613 H 431.621 1.52426 -2.56533 0
M  V30 4614 C 430.37 3.05357 -1.6629 0
M  V30 4615 H 429.693 3.09696 -2.5284 0
M  V30 4616 H 431.133 3.83855 -1.80088 0
M  V30 4617 C 429.592 3.34531 -0.398861 0
M  V30 4618 O 430.122 3.98649 0.494162 0
M  V30 4619 N 428.328 2.89299 -0.2747 0
M  V30 4620 H 427.875 2.37298 -1.00236 0
M  V30 4621 H 427.833 3.09188 0.570075 0
M  V30 4622 N 431.605 1.3629 0.791371 0
M  V30 4623 C 432.538 1.24816 1.9104 0
M  V30 4624 C 433.516 0.132739 1.62057 0
M  V30 4625 O 434.7 0.303527 1.8604 0
M  V30 4626 C 431.827 0.925355 3.25814 0
M  V30 4627 C 430.873 2.05495 3.7373 0
M  V30 4628 S 431.706 3.67255 3.89723 0
M  V30 4629 C 432.862 3.37084 5.27376 0
M  V30 4630 H 433.095 2.19533 2.00481 0
M  V30 4631 H 430.628 1.21684 0.950393 0
M  V30 4632 H 432.586 0.745924 4.03666 0
M  V30 4633 H 431.247 -0.00400098 3.141 0
M  V30 4634 H 430.44 1.7836 4.71385 0
M  V30 4635 H 430.042 2.1935 3.02922 0
M  V30 4636 H 432.334 2.90856 6.1189 0
M  V30 4637 H 433.277 4.33995 5.59512 0
M  V30 4638 H 433.685 2.7248 4.94383 0
M  V30 4639 N 433.083 -1.0153 1.20538 0
M  V30 4640 C 433.993 -2.13557 0.971113 0
M  V30 4641 C 435.009 -1.73845 -0.0734366 0
M  V30 4642 O 436.185 -2.01075 0.114299 0
M  V30 4643 C 433.25 -3.42661 0.527639 0
M  V30 4644 C 432.311 -3.96608 1.64319 0
M  V30 4645 C 431.544 -5.1955 1.22078 0
M  V30 4646 O 431.767 -5.70329 0.0900198 0
M  V30 4647 O 430.701 -5.66681 2.02871 0
M  V30 4648 H 434.527 -2.3619 1.90913 0
M  V30 4649 H 432.112 -1.11946 0.989362 0
M  V30 4650 H 433.994 -4.20404 0.289621 0
M  V30 4651 H 432.669 -3.21441 -0.381779 0
M  V30 4652 H 431.576 -3.20139 1.93551 0
M  V30 4653 H 432.909 -4.22219 2.52966 0
M  V30 4654 N 434.561 -1.01147 -1.20859 0
M  V30 4655 C 435.786 -0.716698 -1.94623 0
M  V30 4656 C 436.211 0.715415 -1.73964 0
M  V30 4657 O 435.569 1.49157 -1.03062 0
M  V30 4658 C 435.617 -1.0513 -3.44935 0
M  V30 4659 O 434.721 -0.160131 -4.12089 0
M  V30 4660 H 434.062 -0.266404 -0.608214 0
M  V30 4661 H 436.592 -1.35346 -1.53436 0
M  V30 4662 H 436.602 -1.00086 -3.95533 0
M  V30 4663 H 435.277 -2.09475 -3.59295 0
M  V30 4664 H 433.854 -0.267657 -3.71938 0
M  V30 4665 N 436.039 1.36541 -0.78704 0
M  V30 4666 C 437.285 1.99599 -0.358872 0
M  V30 4667 C 437.618 1.62323 1.06606 0
M  V30 4668 O 436.893 0.876858 1.73613 0
M  V30 4669 C 437.176 3.56327 -0.519944 0
M  V30 4670 C 437.029 4.03464 -1.98839 0
M  V30 4671 C 438.348 4.4005 0.0664737 0
M  V30 4672 H 435.467 0.725107 -0.131869 0
M  V30 4673 H 438.109 1.6199 -0.992936 0
M  V30 4674 H 436.259 3.88495 0.0198321 0
M  V30 4675 H 437.931 3.81793 -2.58905 0
M  V30 4676 H 436.174 3.55092 -2.49183 0
M  V30 4677 H 436.845 5.12439 -2.05207 0
M  V30 4678 H 439.321 4.14228 -0.394267 0
M  V30 4679 H 438.197 5.48847 -0.0762682 0
M  V30 4680 H 438.458 4.26655 1.15835 0
M  V30 4681 N 437.518 0.538854 1.48102 0
M  V30 4682 C 438.795 -0.0568108 1.95517 0
M  V30 4683 C 439.175 -1.50408 1.48124 0
M  V30 4684 O 438.523 -2.17133 0.711727 0
M  V30 4685 C 438.733 0.0696262 3.48931 0
M  V30 4686 C 440.081 -0.0851202 4.24515 0
M  V30 4687 O 441.105 -0.0037347 3.562 0
M  V30 4688 O 439.964 -0.257025 5.45895 0
M  V30 4689 H 437.058 -0.0743695 0.823649 0
M  V30 4690 H 439.604 0.604081 1.58584 0
M  V30 4691 H 438.376 1.07744 3.76174 0
M  V30 4692 H 437.999 -0.629714 3.92582 0
M  V30 4693 N 438.996 -1.55193 0.274407 0
M  V30 4694 C 440.224 -2.03987 -0.345943 0
M  V30 4695 C 440.639 -1.15279 -1.4952 0
M  V30 4696 O 439.996 -0.172759 -1.8168 0
M  V30 4697 C 440.047 -3.51898 -0.827631 0
M  V30 4698 O 439.768 -4.37231 0.275855 0
M  V30 4699 C 441.269 -4.16577 -1.51587 0
M  V30 4700 H 438.489 -0.666335 -0.0789892 0
M  V30 4701 H 441.033 -2.00423 0.406294 0
M  V30 4702 H 439.188 -3.55909 -1.52996 0
M  V30 4703 H 439.602 -5.24415 -0.0943638 0
M  V30 4704 H 441.076 -5.21678 -1.80433 0
M  V30 4705 H 441.553 -3.64707 -2.44716 0
M  V30 4706 H 442.159 -4.16568 -0.857409 0
M  V30 4707 N 440.474 -0.00167713 -1.576 0
M  V30 4708 C 441.723 0.682021 -1.89819 0
M  V30 4709 C 442.036 1.74844 -0.876871 0
M  V30 4710 O 443.242 2.48688 -1.08934 0
M  V30 4711 C 441.698 1.26425 -3.36964 0
M  V30 4712 C 441.306 0.232568 -4.47396 0
M  V30 4713 C 443.05 1.92604 -3.78291 0
M  V30 4714 C 440.957 0.824882 -5.85619 0
M  V30 4715 H 439.887 0.258499 -0.708304 0
M  V30 4716 H 442.538 -0.0624957 -1.83394 0
M  V30 4717 H 440.92 2.05949 -3.38232 0
M  V30 4718 H 442.094 -0.5382 -4.57646 0
M  V30 4719 H 440.409 -0.32888 -4.15099 0
M  V30 4720 H 443.006 2.37827 -4.78897 0
M  V30 4721 H 443.349 2.75732 -3.11894 0
M  V30 4722 H 443.882 1.19812 -3.79328 0
M  V30 4723 H 440.621 0.0323542 -6.55492 0
M  V30 4724 H 440.141 1.56477 -5.79029 0
M  V30 4725 H 441.82 1.32301 -6.33329 0
M  V30 4726 N 441.952 1.55251 0.271103 0
M  V30 4727 C 442.862 1.9136 1.35714 0
M  V30 4728 C 443.878 0.811075 1.5394 0
M  V30 4729 O 445.054 1.11031 1.6803 0
M  V30 4730 C 442.119 2.1798 2.69603 0
M  V30 4731 C 441.18 3.4153 2.60107 0
M  V30 4732 C 440.413 3.66871 3.8761 0
M  V30 4733 O 440.636 2.94689 4.8838 0
M  V30 4734 O 439.57 4.60405 3.87699 0
M  V30 4735 H 443.396 2.83815 1.08088 0
M  V30 4736 H 440.981 1.41821 0.469792 0
M  V30 4737 H 442.863 2.36518 3.48765 0
M  V30 4738 H 441.538 1.28708 2.97012 0
M  V30 4739 H 440.445 3.28325 1.79314 0
M  V30 4740 H 441.778 4.31027 2.37647 0
M  V30 4741 N 443.43 -0.535701 1.48216 0
M  V30 4742 C 444.34 -1.66785 1.64985 0
M  V30 4743 C 445.356 -1.65654 0.532414 0
M  V30 4744 O 446.532 -1.8471 0.80275 0
M  V30 4745 C 443.597 -3.0326 1.68031 0
M  V30 4746 C 442.658 -3.1529 2.9136 0
M  V30 4747 C 441.891 -4.45255 2.94252 0
M  V30 4748 O 442.114 -5.32011 2.05719 0
M  V30 4749 O 441.048 -4.6153 3.86359 0
M  V30 4750 H 444.874 -1.55576 2.60825 0
M  V30 4751 H 442.459 -0.70815 1.31551 0
M  V30 4752 H 444.341 -3.84436 1.72589 0
M  V30 4753 H 443.016 -3.14805 0.753628 0
M  V30 4754 H 441.923 -2.3343 2.92337 0
M  V30 4755 H 443.256 -3.08658 3.83394 0
M  V30 4756 N 444.908 -1.36708 -0.784132 0
M  V30 4757 C 446.156 -1.30972 -1.53918 0
M  V30 4758 C 446.477 0.109086 -1.94695 0
M  V30 4759 O 445.747 1.05048 -1.65353 0
M  V30 4760 H 444.327 -0.481819 -0.570841 0
M  V30 4761 H 446.989 -1.71063 -0.934002 0
M  V30 4762 H 446.085 -1.94061 -2.44431 0
M  V30 4763 N 446.386 1.0089 -1.21074 0
M  V30 4764 C 447.611 1.78727 -1.05221 0
M  V30 4765 C 448.036 1.83932 0.393795 0
M  V30 4766 O 447.394 1.28004 1.28393 0
M  V30 4767 C 447.442 3.20665 -1.64944 0
M  V30 4768 O 446.546 4.02632 -0.892273 0
M  V30 4769 H 445.887 0.550973 -0.370574 0
M  V30 4770 H 448.417 1.26847 -1.60534 0
M  V30 4771 H 448.427 3.71352 -1.69002 0
M  V30 4772 H 447.102 3.16191 -2.70177 0
M  V30 4773 H 445.679 3.61207 -0.926492 0
M  V30 4774 N 447.864 1.01787 1.20321 0
M  V30 4775 C 448.811 0.589197 2.23153 0
M  V30 4776 C 449.781 -0.391367 1.61423 0
M  V30 4777 O 450.966 -0.290518 1.88575 0
M  V30 4778 C 448.106 -0.0650747 3.45039 0
M  V30 4779 C 447.219 0.960207 4.21194 0
M  V30 4780 C 446.354 0.276854 5.30478 0
M  V30 4781 C 445.393 1.2888 5.98378 0
M  V30 4782 N 444.53 0.632031 6.99249 0
M  V30 4783 H 449.37 1.47071 2.59179 0
M  V30 4784 H 446.907 0.736192 1.27352 0
M  V30 4785 H 448.865 -0.461552 4.14639 0
M  V30 4786 H 447.495 -0.910233 3.09701 0
M  V30 4787 H 446.547 1.47484 3.50646 0
M  V30 4788 H 447.859 1.72977 4.67847 0
M  V30 4789 H 447.013 -0.175056 6.06447 0
M  V30 4790 H 445.752 -0.525004 4.84866 0
M  V30 4791 H 444.757 1.75109 5.21169 0
M  V30 4792 H 445.982 2.09196 6.46076 0
M  V30 4793 H 443.928 -0.149935 6.55829 0
M  V30 4794 H 443.845 1.33964 7.44036 0
M  V30 4795 H 445.113 0.203755 7.79234 0
M  V30 4796 N 449.342 -1.36122 0.79427 0
M  V30 4797 C 450.59 -1.98718 0.368177 0
M  V30 4798 C 450.911 -1.63345 -1.06506 0
M  V30 4799 O 450.181 -0.909825 -1.73491 0
M  V30 4800 H 448.761 -0.735038 0.133146 0
M  V30 4801 H 451.423 -1.66239 1.01739 0
M  V30 4802 H 450.519 -3.08633 0.463923 0
M  V30 4803 N 450.82 -0.546701 -1.47814 0
M  V30 4804 C 451.768 0.220048 -2.31557 0
M  V30 4805 C 452.762 0.919472 -1.42275 0
M  V30 4806 O 453.968 0.841953 -1.59095 0
M  V30 4807 H 450.343 0.0898334 -0.746615 0
M  V30 4808 H 452.314 -0.505589 -2.94086 0
M  V30 4809 C 451.063 1.24353 -3.24702 0
M  V30 4810 H 450.386 0.714758 -3.93359 0
M  V30 4811 H 451.826 1.75112 -3.8615 0
M  V30 4812 C 450.285 2.28593 -2.47481 0
M  V30 4813 O 450.815 3.35334 -2.21165 0
M  V30 4814 N 449.021 2.02244 -2.08676 0
M  V30 4815 H 448.568 1.15455 -2.30278 0
M  V30 4816 H 448.526 2.72207 -1.57323 0
M  V30 4817 N 452.299 1.55045 -0.282633 0
M  V30 4818 C 453.247 2.24254 0.617478 0
M  V30 4819 C 454.241 1.24215 1.15183 0
M  V30 4820 O 455.447 1.42123 1.10459 0
M  V30 4821 H 451.822 0.719801 0.217693 0
M  V30 4822 H 453.793 2.98398 0.0110076 0
M  V30 4823 C 452.542 2.98281 1.78672 0
M  V30 4824 H 451.865 3.75053 1.38475 0
M  V30 4825 H 453.305 3.50017 2.393 0
M  V30 4826 C 451.764 2.04184 2.67975 0
M  V30 4827 O 452.294 1.59792 3.6855 0
M  V30 4828 N 450.5 1.70526 2.35307 0
M  V30 4829 H 450.047 2.06821 1.53567 0
M  V30 4830 H 450.005 1.07839 2.95327 0
M  V30 4831 N 453.777 0.010035 1.57597 0
M  V30 4832 C 455.026 -0.671945 1.90178 0
M  V30 4833 C 455.339 -1.74376 0.886131 0
M  V30 4834 O 456.545 -2.48107 1.10252 0
M  V30 4835 C 455.001 -1.24636 3.3763 0
M  V30 4836 C 454.609 -0.208838 4.47513 0
M  V30 4837 C 456.353 -1.90595 3.79307 0
M  V30 4838 C 454.26 -0.793814 5.86048 0
M  V30 4839 H 453.19 -0.25474 0.709665 0
M  V30 4840 H 455.841 0.0722206 1.83358 0
M  V30 4841 H 454.223 -2.04152 3.3932 0
M  V30 4842 H 455.397 0.562463 4.57354 0
M  V30 4843 H 453.712 0.350889 4.14919 0
M  V30 4844 H 456.309 -2.35284 4.80151 0
M  V30 4845 H 456.652 -2.74074 3.13352 0
M  V30 4846 H 457.185 -1.17798 3.79958 0
M  V30 4847 H 453.924 0.00240855 6.555 0
M  V30 4848 H 453.444 -1.53404 5.79851 0
M  V30 4849 H 455.123 -1.2894 6.34022 0
M  V30 4850 N 455.255 -1.55392 -0.262866 0
M  V30 4851 C 456.202 -1.88966 -1.32516 0
M  V30 4852 C 457.172 -0.742187 -1.48596 0
M  V30 4853 O 458.357 -0.99439 -1.62839 0
M  V30 4854 C 455.497 -2.17592 -2.67858 0
M  V30 4855 C 454.61 -3.45061 -2.59917 0
M  V30 4856 C 453.745 -3.63336 -3.87505 0
M  V30 4857 C 452.784 -4.84462 -3.74116 0
M  V30 4858 N 451.921 -4.99342 -4.93561 0
M  V30 4859 H 456.761 -2.79566 -1.03184 0
M  V30 4860 H 454.298 -1.38404 -0.498285 0
M  V30 4861 H 456.256 -2.3219 -3.46617 0
M  V30 4862 H 454.886 -1.30215 -2.95371 0
M  V30 4863 H 453.938 -3.38881 -1.72812 0
M  V30 4864 H 455.25 -4.3396 -2.45926 0
M  V30 4865 H 454.404 -3.77807 -4.74707 0
M  V30 4866 H 453.143 -2.72641 -4.04374 0
M  V30 4867 H 452.148 -4.69985 -2.85297 0
M  V30 4868 H 453.373 -5.76603 -3.58757 0
M  V30 4869 H 451.319 -4.1158 -5.10821 0
M  V30 4870 H 451.236 -5.82303 -4.82141 0
M  V30 4871 H 452.504 -5.18208 -5.82306 0
M  V30 4872 N 456.733 0.527833 -1.48498 0
M  V30 4873 C 457.663 1.64136 -1.66077 0
M  V30 4874 C 458.644 1.62286 -0.509625 0
M  V30 4875 O 459.829 1.79449 -0.742413 0
M  V30 4876 C 456.959 3.02717 -1.70234 0
M  V30 4877 C 455.913 3.19426 -2.8487 0
M  V30 4878 C 455.239 4.5909 -2.74118 0
M  V30 4879 C 456.539 3.01993 -4.26142 0
M  V30 4880 H 458.233 1.4968 -2.593 0
M  V30 4881 H 455.779 0.718654 -1.24785 0
M  V30 4882 H 457.732 3.80491 -1.8112 0
M  V30 4883 H 456.456 3.18201 -0.735911 0
M  V30 4884 H 455.115 2.4407 -2.73542 0
M  V30 4885 H 454.763 4.71413 -1.7544 0
M  V30 4886 H 454.463 4.71214 -3.51042 0
M  V30 4887 H 455.987 5.3896 -2.86974 0
M  V30 4888 H 457.401 3.69558 -4.38292 0
M  V30 4889 H 455.798 3.2561 -5.04082 0
M  V30 4890 H 456.868 1.98396 -4.42456 0
M  V30 4891 N 458.211 1.37122 0.776871 0
M  V30 4892 C 459.439 1.3523 1.5659 0
M  V30 4893 C 459.854 -0.0635518 1.88693 0
M  V30 4894 O 459.211 -1.02394 1.51069 0
M  V30 4895 C 459.262 2.18583 2.8793 0
M  V30 4896 O 458.983 3.5465 2.57206 0
M  V30 4897 C 460.484 2.24612 3.82183 0
M  V30 4898 H 457.704 0.4634 0.485285 0
M  V30 4899 H 460.248 1.80392 0.963266 0
M  V30 4900 H 458.403 1.76943 3.4463 0
M  V30 4901 H 458.817 3.98286 3.41275 0
M  V30 4902 H 460.291 2.87267 4.71361 0
M  V30 4903 H 460.768 1.25309 4.20944 0
M  V30 4904 H 461.374 2.66543 3.31414 0
M  V30 4905 N 459.689 -1.00246 1.21608 0
M  V30 4906 C 460.938 -1.73476 1.02902 0
M  V30 4907 C 461.251 -1.90643 -0.437561 0
M  V30 4908 O 462.457 -2.61105 -0.74407 0
M  V30 4909 C 460.913 -3.12079 1.79261 0
M  V30 4910 C 460.521 -3.02877 3.30106 0
M  V30 4911 C 462.265 -3.89421 1.68972 0
M  V30 4912 C 460.172 -4.36575 3.98944 0
M  V30 4913 H 459.102 -0.650408 0.381425 0
M  V30 4914 H 461.753 -1.11985 1.45367 0
M  V30 4915 H 460.135 -3.74196 1.2959 0
M  V30 4916 H 461.309 -2.49983 3.87098 0
M  V30 4917 H 459.624 -2.39022 3.40965 0
M  V30 4918 H 462.221 -4.88362 2.17731 0
M  V30 4919 H 462.564 -4.1122 0.648397 0
M  V30 4920 H 463.097 -3.33963 2.16133 0
M  V30 4921 H 459.836 -4.19978 5.03288 0
M  V30 4922 H 459.356 -4.8942 3.4674 0
M  V30 4923 H 461.035 -5.05364 4.04 0
M  V30 4924 N 461.167 -1.02423 -1.1978 0
M  V30 4925 C 462.444 -0.632802 -1.85081 0
M  V30 4926 C 462.824 0.888745 -1.9148 0
M  V30 4927 O 462.172 1.78357 -1.42832 0
M  V30 4928 C 462.382 -1.28947 -3.24305 0
M  V30 4929 C 463.73 -1.40976 -4.00513 0
M  V30 4930 O 464.754 -1.24628 -3.33686 0
M  V30 4931 O 463.613 -1.67467 -5.20209 0
M  V30 4932 H 460.707 -0.219348 -0.79738 0
M  V30 4933 H 463.253 -1.12209 -1.27307 0
M  V30 4934 H 462.025 -2.3288 -3.14456 0
M  V30 4935 H 461.648 -0.787748 -3.89718 0
M  V30 4936 N 462.645 1.35699 -0.801477 0
M  V30 4937 C 463.575 2.32436 -0.222658 0
M  V30 4938 C 464.556 1.5723 0.649057 0
M  V30 4939 O 465.741 1.85324 0.580387 0
M  V30 4940 C 462.871 3.41469 0.633719 0
M  V30 4941 C 461.825 4.27774 -0.139083 0
M  V30 4942 C 461.151 5.28082 0.838666 0
M  V30 4943 C 462.451 5.04946 -1.33517 0
M  V30 4944 H 464.145 2.81094 -1.03086 0
M  V30 4945 H 461.691 1.35146 -0.497155 0
M  V30 4946 H 463.644 4.08143 1.04868 0
M  V30 4947 H 462.368 2.91408 1.47475 0
M  V30 4948 H 461.027 3.62673 -0.535156 0
M  V30 4949 H 460.675 4.7429 1.67506 0
M  V30 4950 H 460.375 5.86695 0.32594 0
M  V30 4951 H 461.899 5.97628 1.25194 0
M  V30 4952 H 463.313 5.64593 -0.995349 0
M  V30 4953 H 461.71 5.7303 -1.78202 0
M  V30 4954 H 462.78 4.35886 -2.12442 0
M  V30 4955 N 464.123 0.554532 1.47522 0
M  V30 4956 C 465.086 -0.184174 2.28459 0
M  V30 4957 C 466.086 -0.845195 1.36796 0
M  V30 4958 O 467.276 -0.701467 1.59452 0
M  V30 4959 C 464.408 -1.26903 3.16399 0
M  V30 4960 H 465.601 0.526751 2.95238 0
M  V30 4961 H 463.154 0.311375 1.53167 0
M  V30 4962 H 463.889 -2.01244 2.54306 0
M  V30 4963 H 463.674 -0.799883 3.83854 0
M  V30 4964 H 465.164 -1.78794 3.77389 0
M  V30 4965 N 465.601 -1.54893 0.290851 0
M  V30 4966 C 466.848 -1.99933 -0.321391 0
M  V30 4967 C 467.176 -1.17927 -1.54672 0
M  V30 4968 O 466.431 -0.240902 -1.94212 0
M  V30 4969 C 466.73 -3.49815 -0.732397 0
M  V30 4970 C 466.396 -4.4921 0.390056 0
M  V30 4971 C 465.058 -4.76107 0.698223 0
M  V30 4972 C 467.41 -5.08453 1.14562 0
M  V30 4973 C 464.738 -5.59514 1.76526 0
M  V30 4974 C 467.09 -5.9302 2.2025 0
M  V30 4975 C 465.754 -6.18232 2.51684 0
M  V30 4976 H 465.024 -0.731608 -0.117605 0
M  V30 4977 H 467.671 -1.87107 0.407839 0
M  V30 4978 H 465.976 -3.60199 -1.54155 0
M  V30 4979 H 467.673 -3.82083 -1.21712 0
M  V30 4980 H 464.263 -4.28372 0.13976 0
M  V30 4981 H 468.447 -4.87683 0.920801 0
M  V30 4982 H 463.703 -5.77289 2.01364 0
M  V30 4983 H 467.877 -6.37955 2.7926 0
M  V30 4984 H 465.504 -6.82653 3.34499 0
M  V30 4985 N 467.08 -0.0183926 -1.57589 0
M  V30 4986 C 468.012 0.995557 -2.06449 0
M  V30 4987 C 469.025 1.29556 -0.985849 0
M  V30 4988 O 470.214 1.2621 -1.26227 0
M  V30 4989 C 467.314 2.32572 -2.46502 0
M  V30 4990 C 466.487 2.21245 -3.77319 0
M  V30 4991 C 465.546 3.37104 -4.04039 0
M  V30 4992 O 464.572 3.14468 -4.74445 0
M  V30 4993 N 465.774 4.60553 -3.53372 0
M  V30 4994 H 468.539 0.578746 -2.94059 0
M  V30 4995 H 466.1 0.168603 -1.6102 0
M  V30 4996 H 468.092 3.08887 -2.61478 0
M  V30 4997 H 466.662 2.65931 -1.64315 0
M  V30 4998 H 465.882 1.29723 -3.72244 0
M  V30 4999 H 467.17 2.10868 -4.63047 0
M  V30 5000 H 466.568 4.81839 -2.96391 0
M  V30 5001 H 465.125 5.34072 -3.73644 0
M  V30 5002 N 468.558 1.5553 0.254621 0
M  V30 5003 C 469.835 1.6774 1.00611 0
M  V30 5004 C 470.215 0.555993 2.03647 0
M  V30 5005 O 469.563 -0.441583 2.24193 0
M  V30 5006 C 469.773 3.07725 1.6464 0
M  V30 5007 C 471.121 3.66074 2.15116 0
M  V30 5008 O 472.145 3.10476 1.74595 0
M  V30 5009 O 471.004 4.63526 2.89493 0
M  V30 5010 H 468.098 0.681958 0.467828 0
M  V30 5011 H 470.644 1.67863 0.24902 0
M  V30 5012 H 469.416 3.80792 0.900734 0
M  V30 5013 H 469.039 3.1158 2.46989 0
M  V30 5014 N 470.036 -0.519951 1.48776 0
M  V30 5015 C 471.261 -1.30447 1.6124 0
M  V30 5016 C 471.686 -1.86055 0.276591 0
M  V30 5017 O 471.044 -1.64915 -0.753183 0
M  V30 5018 C 471.092 -2.42406 2.66967 0
M  V30 5019 O 470.196 -3.45728 2.24824 0
M  V30 5020 H 469.537 -0.385924 0.540332 0
M  V30 5021 H 472.067 -0.624572 1.94834 0
M  V30 5022 H 472.077 -2.88447 2.88552 0
M  V30 5023 H 470.752 -2.01294 3.63941 0
M  V30 5024 H 469.329 -3.05737 2.13494 0
M  V30 5025 N 471.514 -1.37532 -0.769588 0
M  V30 5026 C 472.76 -1.33057 -1.53048 0
M  V30 5027 C 473.093 0.0841865 -1.94017 0
M  V30 5028 O 472.368 1.04198 -1.64235 0
M  V30 5029 C 472.651 -2.27166 -2.79406 0
M  V30 5030 C 472.504 -3.77429 -2.44677 0
M  V30 5031 C 473.823 -2.19683 -3.81349 0
M  V30 5032 H 470.942 -0.484655 -0.555228 0
M  V30 5033 H 473.584 -1.68251 -0.882702 0
M  V30 5034 H 471.734 -1.97283 -3.34682 0
M  V30 5035 H 473.406 -4.17918 -1.953 0
M  V30 5036 H 471.649 -3.95892 -1.77346 0
M  V30 5037 H 472.32 -4.38716 -3.35011 0
M  V30 5038 H 474.796 -2.46029 -3.35573 0
M  V30 5039 H 473.672 -2.87668 -4.67481 0
M  V30 5040 H 473.933 -1.19045 -4.25771 0
M  V30 5041 N 472.992 0.995999 -1.22138 0
M  V30 5042 C 474.269 1.70834 -0.952642 0
M  V30 5043 C 474.649 2.04257 0.533119 0
M  V30 5044 O 473.997 1.72343 1.50034 0
M  V30 5045 C 474.207 2.96119 -1.84701 0
M  V30 5046 C 475.555 3.68962 -2.10124 0
M  V30 5047 O 476.579 3.0612 -1.82124 0
M  V30 5048 O 475.438 4.82017 -2.57531 0
M  V30 5049 H 472.532 0.745498 -0.357997 0
M  V30 5050 H 475.078 1.05262 -1.33109 0
M  V30 5051 H 473.85 2.67898 -2.85213 0
M  V30 5052 H 473.473 3.6943 -1.46995 0
M  V30 5053 N 474.47 1.03057 1.19235 0
M  V30 5054 C 475.433 0.617418 2.20727 0
M  V30 5055 C 476.433 -0.319856 1.57587 0
M  V30 5056 O 477.623 -0.106633 1.73873 0
M  V30 5057 C 474.755 -0.096296 3.40764 0
M  V30 5058 H 475.948 1.51544 2.58794 0
M  V30 5059 H 473.501 0.821949 1.32942 0
M  V30 5060 H 474.236 -1.00859 3.08217 0
M  V30 5061 H 474.021 0.577217 3.87828 0
M  V30 5062 H 475.511 -0.372219 4.15938 0
M  V30 5063 N 475.948 -1.35272 0.808662 0
M  V30 5064 C 476.878 -2.32315 0.234981 0
M  V30 5065 C 477.859 -1.57572 -0.64071 0
M  V30 5066 O 479.044 -1.8563 -0.570551 0
M  V30 5067 C 476.174 -3.41801 -0.615601 0
M  V30 5068 C 475.128 -4.27694 0.161767 0
M  V30 5069 C 474.454 -5.28519 -0.810649 0
M  V30 5070 C 475.754 -5.04231 1.36193 0
M  V30 5071 H 477.448 -2.80543 1.04575 0
M  V30 5072 H 474.994 -1.3488 0.504315 0
M  V30 5073 H 476.947 -4.08693 -1.02702 0
M  V30 5074 H 475.671 -2.92186 -1.45928 0
M  V30 5075 H 474.33 -3.62384 0.554382 0
M  V30 5076 H 473.978 -4.75171 -1.64988 0
M  V30 5077 H 473.678 -5.8686 -0.294822 0
M  V30 5078 H 475.202 -5.98283 -1.22023 0
M  V30 5079 H 476.616 -5.64058 1.02528 0
M  V30 5080 H 475.013 -5.72077 1.81239 0
M  V30 5081 H 476.083 -4.34753 2.14751 0
M  V30 5082 N 477.426 -0.562348 -1.47226 0
M  V30 5083 C 478.356 0.170627 -2.32876 0
M  V30 5084 C 479.337 0.903748 -1.44106 0
M  V30 5085 O 480.522 0.883206 -1.72954 0
M  V30 5086 C 477.652 1.19786 -3.25989 0
M  V30 5087 C 476.606 0.580875 -4.2404 0
M  V30 5088 C 475.932 1.71311 -5.06514 0
M  V30 5089 C 477.232 -0.468714 -5.20193 0
M  V30 5090 H 478.926 -0.544441 -2.94408 0
M  V30 5091 H 476.472 -0.263271 -1.41573 0
M  V30 5092 H 478.425 1.71884 -3.84752 0
M  V30 5093 H 477.149 1.94294 -2.62521 0
M  V30 5094 H 475.808 0.0811538 -3.6651 0
M  V30 5095 H 475.456 2.44736 -4.39447 0
M  V30 5096 H 475.156 1.30604 -5.72902 0
M  V30 5097 H 476.68 2.23725 -5.68137 0
M  V30 5098 H 478.094 -0.0336028 -5.7329 0
M  V30 5099 H 476.491 -0.794957 -5.94811 0
M  V30 5100 H 477.561 -1.36269 -4.65359 0
M  V30 5101 N 478.904 1.54736 -0.299062 0
M  V30 5102 C 479.851 2.23448 0.577899 0
M  V30 5103 C 480.821 1.21637 1.13109 0
M  V30 5104 O 482.006 1.50252 1.17597 0
M  V30 5105 C 479.146 2.9774 1.74484 0
M  V30 5106 C 478.259 4.1432 1.22323 0
M  V30 5107 C 477.394 4.76199 2.35388 0
M  V30 5108 C 476.433 5.84927 1.80351 0
M  V30 5109 N 475.57 6.4077 2.86982 0
M  V30 5110 H 480.41 2.97996 -0.0146545 0
M  V30 5111 H 477.947 1.47088 -0.0190013 0
M  V30 5112 H 479.905 3.39045 2.43114 0
M  V30 5113 H 478.535 2.25572 2.30905 0
M  V30 5114 H 477.587 3.7797 0.429249 0
M  V30 5115 H 478.899 4.92659 0.780309 0
M  V30 5116 H 478.053 5.20346 3.11969 0
M  V30 5117 H 476.792 3.97188 2.83006 0
M  V30 5118 H 475.797 5.40207 1.02259 0
M  V30 5119 H 477.022 6.65821 1.3364 0
M  V30 5120 H 474.968 5.64643 3.33938 0
M  V30 5121 H 474.885 7.1445 2.4718 0
M  V30 5122 H 476.153 6.89574 3.63466 0
M  V30 5123 N 480.382 0.0267497 1.57577 0
M  V30 5124 C 481.607 -0.666227 1.96408 0
M  V30 5125 C 482.032 -1.65004 0.903071 0
M  V30 5126 O 481.39 -1.80787 -0.136263 0
M  V30 5127 C 481.438 -1.35101 3.34335 0
M  V30 5128 O 480.542 -2.46623 3.30531 0
M  V30 5129 H 479.883 -0.175206 0.640468 0
M  V30 5130 H 482.413 0.0878977 2.04411 0
M  V30 5131 H 482.423 -1.70834 3.70513 0
M  V30 5132 H 481.098 -0.629844 4.11103 0
M  V30 5133 H 479.675 -2.13019 3.06068 0
M  V30 5134 N 481.861 -1.55662 -0.24637 0
M  V30 5135 C 483.091 -1.81312 -0.990438 0
M  V30 5136 C 483.499 -0.600234 -1.79426 0
M  V30 5137 O 482.842 0.440537 -1.78339 0
M  V30 5138 C 482.904 -3.0032 -1.97607 0
M  V30 5139 C 482.568 -4.36322 -1.35912 0
M  V30 5140 C 483.565 -5.14295 -0.761348 0
M  V30 5141 C 481.25 -4.83019 -1.37833 0
M  V30 5142 C 483.244 -6.37114 -0.190998 0
M  V30 5143 C 480.931 -6.05786 -0.804128 0
M  V30 5144 C 481.929 -6.82672 -0.211489 0
M  V30 5145 O 481.617 -8.03121 0.353845 0
M  V30 5146 H 481.349 -0.607233 -0.297058 0
M  V30 5147 H 483.903 -2.0356 -0.274351 0
M  V30 5148 H 482.133 -2.73829 -2.73047 0
M  V30 5149 H 483.822 -3.13057 -2.58361 0
M  V30 5150 H 484.588 -4.79337 -0.739013 0
M  V30 5151 H 480.467 -4.23165 -1.829 0
M  V30 5152 H 484.011 -6.97069 0.272206 0
M  V30 5153 H 479.908 -6.40222 -0.823792 0
M  V30 5154 H 480.676 -8.18131 0.245761 0
M  V30 5155 N 483.339 0.512053 -1.4905 0
M  V30 5156 C 484.586 1.26686 -1.57978 0
M  V30 5157 C 484.914 1.92733 -0.261553 0
M  V30 5158 O 484.169 1.80772 0.749667 0
M  V30 5159 C 484.468 2.36446 -2.68008 0
M  V30 5160 C 484.134 1.87932 -4.09869 0
M  V30 5161 C 482.796 1.74419 -4.48477 0
M  V30 5162 C 485.148 1.5149 -4.98698 0
M  V30 5163 C 482.476 1.22827 -5.73699 0
M  V30 5164 C 484.828 1.01355 -6.24428 0
M  V30 5165 C 483.492 0.864735 -6.61875 0
M  V30 5166 H 482.762 0.463577 -0.578081 0
M  V30 5167 H 485.409 0.569421 -1.82838 0
M  V30 5168 H 483.714 3.11933 -2.37076 0
M  V30 5169 H 485.411 2.9453 -2.72127 0
M  V30 5170 H 482.001 1.99405 -3.79389 0
M  V30 5171 H 486.185 1.60782 -4.69535 0
M  V30 5172 H 481.441 1.10008 -6.01422 0
M  V30 5173 H 485.615 0.722351 -6.92644 0
M  V30 5174 H 483.242 0.462777 -7.5879 0
M  V30 5175 N 484.817 1.37938 0.762283 0
M  V30 5176 C 485.765 1.34569 1.89721 0
M  V30 5177 C 486.759 0.232929 1.67791 0
M  V30 5178 O 487.965 0.401485 1.75465 0
M  V30 5179 H 484.34 0.419594 0.624055 0
M  V30 5180 H 486.311 2.30357 1.8968 0
M  V30 5181 C 485.06 1.17898 3.27101 0
M  V30 5182 H 484.383 2.02781 3.44558 0
M  V30 5183 H 485.823 1.19593 4.06784 0
M  V30 5184 C 484.282 -0.114728 3.36705 0
M  V30 5185 O 484.812 -1.0949 3.8649 0
M  V30 5186 N 483.018 -0.16863 2.9011 0
M  V30 5187 H 482.565 0.62967 2.49786 0
M  V30 5188 H 482.523 -1.03383 2.96916 0
M  V30 5189 N 486.295 -0.989507 1.22664 0
M  V30 5190 C 487.52 -1.77031 1.08051 0
M  V30 5191 C 487.945 -1.84535 -0.364483 0
M  V30 5192 O 487.303 -1.3003 -1.2634 0
M  V30 5193 C 487.351 -3.18 1.70024 0
M  V30 5194 O 486.455 -4.01161 0.956216 0
M  V30 5195 H 485.796 -0.545008 0.379292 0
M  V30 5196 H 488.326 -1.24277 1.62531 0
M  V30 5197 H 488.336 -3.68616 1.74888 0
M  V30 5198 H 487.011 -3.11853 2.75174 0
M  V30 5199 H 485.588 -3.59687 0.98384 0
M  V30 5200 N 487.773 -1.03688 -1.18687 0
M  V30 5201 C 488.683 -0.634908 -2.25845 0
M  V30 5202 C 489.699 0.337065 -1.70704 0
M  V30 5203 O 490.875 0.192943 -2.00474 0
M  V30 5204 C 487.94 -0.000180054 -3.467 0
M  V30 5205 C 487.001 -1.02067 -4.1699 0
M  V30 5206 C 486.234 -0.41614 -5.32075 0
M  V30 5207 O 486.457 0.778712 -5.65059 0
M  V30 5208 O 485.391 -1.14296 -5.90948 0
M  V30 5209 H 489.217 -1.52757 -2.62486 0
M  V30 5210 H 486.802 -0.807533 -1.25695 0
M  V30 5211 H 488.684 0.353342 -4.19916 0
M  V30 5212 H 487.359 0.866367 -3.11891 0
M  V30 5213 H 486.266 -1.42592 -3.45859 0
M  V30 5214 H 487.599 -1.85786 -4.5579 0
M  V30 5215 N 489.251 1.34841 -0.815825 0
M  V30 5216 C 490.181 2.32187 -0.247298 0
M  V30 5217 C 491.162 1.5791 0.632344 0
M  V30 5218 O 492.347 1.8593 0.560698 0
M  V30 5219 C 489.477 3.42122 0.597466 0
M  V30 5220 C 488.431 4.27602 -0.184446 0
M  V30 5221 C 487.757 5.28942 0.782609 0
M  V30 5222 C 489.057 5.03502 -1.38865 0
M  V30 5223 H 490.751 2.79985 -1.06061 0
M  V30 5224 H 488.297 1.34611 -0.511461 0
M  V30 5225 H 490.25 4.09232 1.00533 0
M  V30 5226 H 488.974 2.92956 1.44376 0
M  V30 5227 H 487.633 3.62085 -0.573592 0
M  V30 5228 H 487.281 4.7604 1.62466 0
M  V30 5229 H 486.981 5.87008 0.263695 0
M  V30 5230 H 488.505 5.98922 1.18848 0
M  V30 5231 H 489.919 5.63506 -1.05518 0
M  V30 5232 H 488.316 5.71108 -1.8427 0
M  V30 5233 H 489.386 4.33608 -2.17054 0
M  V30 5234 N 490.729 0.570148 1.46925 0
M  V30 5235 C 491.639 -0.173061 2.33961 0
M  V30 5236 C 492.655 -0.898825 1.48987 0
M  V30 5237 O 493.831 -0.864825 1.81887 0
M  V30 5238 C 490.896 -1.18177 3.25937 0
M  V30 5239 C 489.957 -0.462041 4.26806 0
M  V30 5240 C 489.19 -1.4227 5.14388 0
M  V30 5241 O 489.413 -2.65842 5.04662 0
M  V30 5242 O 488.347 -0.940127 5.94513 0
M  V30 5243 H 492.173 0.541216 2.98839 0
M  V30 5244 H 489.758 0.330647 1.45695 0
M  V30 5245 H 491.64 -1.76372 3.82715 0
M  V30 5246 H 490.315 -1.87774 2.63671 0
M  V30 5247 H 489.222 0.161429 3.73752 0
M  V30 5248 H 490.555 0.192719 4.91823 0
M  V30 5249 N 492.207 -1.54576 0.307264 0
M  V30 5250 C 493.155 -2.25208 -0.581723 0
M  V30 5251 C 494.149 -1.26031 -1.13192 0
M  V30 5252 O 495.355 -1.43862 -1.08184 0
M  V30 5253 H 491.73 -0.723173 -0.206214 0
M  V30 5254 H 493.701 -2.98378 0.0364663 0
M  V30 5255 C 492.45 -3.01086 -1.73904 0
M  V30 5256 H 491.773 -3.77208 -1.32491 0
M  V30 5257 H 493.213 -3.5378 -2.33701 0
M  V30 5258 C 491.672 -2.08422 -2.64692 0
M  V30 5259 O 492.202 -1.65636 -3.65961 0
M  V30 5260 N 490.408 -1.74247 -2.32564 0
M  V30 5261 H 489.955 -2.09238 -1.50257 0
M  V30 5262 H 489.913 -1.12524 -2.93574 0
M  V30 5263 N 493.685 -0.035106 -1.57561 0
M  V30 5264 C 494.933 0.64096 -1.91667 0
M  V30 5265 C 495.254 1.72323 -0.912681 0
M  V30 5266 O 494.524 1.95849 0.0449089 0
M  V30 5267 H 493.104 0.239743 -0.707483 0
M  V30 5268 H 495.766 -0.084321 -1.94718 0
M  V30 5269 H 494.862 1.08987 -2.92452 0
M  V30 5270 N 495.163 1.55791 0.238111 0
M  V30 5271 C 496.411 1.77681 0.963001 0
M  V30 5272 C 496.732 0.600674 1.85518 0
M  V30 5273 O 496.002 -0.383182 1.92116 0
M  V30 5274 H 494.582 0.655315 0.358568 0
M  V30 5275 H 497.244 1.93239 0.253945 0
M  V30 5276 H 496.34 2.69177 1.57956 0
M  V30 5277 N 496.642 -0.504142 1.49319 0
M  V30 5278 C 497.605 -1.5883 1.65244 0
M  V30 5279 C 498.605 -1.52009 0.524386 0
M  V30 5280 O 499.795 -1.55218 0.79077 0
M  V30 5281 C 496.927 -2.98481 1.64687 0
M  V30 5282 H 498.12 -1.4604 2.61939 0
M  V30 5283 H 495.673 -0.728144 1.38303 0
M  V30 5284 H 496.408 -3.16751 0.695644 0
M  V30 5285 H 496.193 -3.0484 2.46607 0
M  V30 5286 H 497.683 -3.77256 1.79075 0
M  V30 5287 N 498.12 -1.38341 -0.754957 0
M  V30 5288 C 499.067 -1.3546 -1.86867 0
M  V30 5289 C 500.037 -0.217369 -1.64672 0
M  V30 5290 O 501.222 -0.409383 -1.86356 0
M  V30 5291 C 498.362 -1.18413 -3.24149 0
M  V30 5292 C 497.475 -2.41511 -3.58185 0
M  V30 5293 C 496.61 -2.17205 -4.84763 0
M  V30 5294 C 495.649 -3.36081 -5.11582 0
M  V30 5295 N 494.786 -3.11219 -6.29354 0
M  V30 5296 H 499.626 -2.30672 -1.88664 0
M  V30 5297 H 497.163 -1.14607 -0.922154 0
M  V30 5298 H 499.121 -1.06545 -4.03366 0
M  V30 5299 H 497.751 -0.268397 -3.21682 0
M  V30 5300 H 496.803 -2.64056 -2.73822 0
M  V30 5301 H 498.115 -3.30115 -3.73932 0
M  V30 5302 H 497.269 -2.02465 -5.7192 0
M  V30 5303 H 496.008 -1.25964 -4.71152 0
M  V30 5304 H 495.013 -3.51341 -4.22894 0
M  V30 5305 H 496.238 -4.28196 -5.27091 0
M  V30 5306 H 494.184 -2.22624 -6.17069 0
M  V30 5307 H 494.101 -3.93373 -6.45596 0
M  V30 5308 H 495.369 -3.00132 -7.19403 0
M  V30 5309 N 499.598 0.982988 -1.23187 0
M  V30 5310 C 500.828 1.75666 -1.08743 0
M  V30 5311 C 501.236 1.85662 0.364195 0
M  V30 5312 O 500.579 1.33317 1.26382 0
M  V30 5313 C 500.641 3.20144 -1.63549 0
M  V30 5314 C 500.305 3.33665 -3.12277 0
M  V30 5315 C 501.302 3.20194 -4.096 0
M  V30 5316 C 498.987 3.58397 -3.51933 0
M  V30 5317 C 500.981 3.31256 -5.44563 0
M  V30 5318 C 498.668 3.69098 -4.87042 0
M  V30 5319 C 499.666 3.55537 -5.83166 0
M  V30 5320 O 499.354 3.65864 -7.1582 0
M  V30 5321 H 499.086 0.558194 -0.381307 0
M  V30 5322 H 501.64 1.24387 -1.63454 0
M  V30 5323 H 499.87 3.72659 -1.03256 0
M  V30 5324 H 501.559 3.79262 -1.4462 0
M  V30 5325 H 502.325 3.00987 -3.80305 0
M  V30 5326 H 498.204 3.68025 -2.77631 0
M  V30 5327 H 501.748 3.20588 -6.19572 0
M  V30 5328 H 497.645 3.87814 -5.16014 0
M  V30 5329 H 498.413 3.82675 -7.23534 0
M  V30 5330 N 501.076 1.04316 1.18135 0
M  V30 5331 C 502.301 0.768047 1.92655 0
M  V30 5332 C 502.726 -0.66904 1.758 0
M  V30 5333 O 502.084 -1.46372 1.06981 0
M  V30 5334 C 502.132 1.14239 3.42026 0
M  V30 5335 O 501.236 0.269333 4.1152 0
M  V30 5336 H 500.577 0.282436 0.600937 0
M  V30 5337 H 503.107 1.39367 1.49793 0
M  V30 5338 H 503.117 1.10538 3.92741 0
M  V30 5339 H 501.792 2.18928 3.53615 0
M  V30 5340 H 500.369 0.366175 3.71098 0
M  V30 5341 N 502.554 -1.34406 0.822964 0
M  V30 5342 C 503.464 -2.33298 0.246838 0
M  V30 5343 C 504.48 -1.62625 -0.618797 0
M  V30 5344 O 505.656 -1.94391 -0.526685 0
M  V30 5345 C 502.721 -3.41785 -0.581731 0
M  V30 5346 C 501.782 -4.28206 0.306309 0
M  V30 5347 C 501.015 -5.31512 -0.48281 0
M  V30 5348 O 501.238 -5.43973 -1.71607 0
M  V30 5349 O 500.172 -6.01749 0.134884 0
M  V30 5350 H 503.998 -2.84401 1.06534 0
M  V30 5351 H 501.583 -1.37466 0.585108 0
M  V30 5352 H 503.465 -4.08028 -1.05313 0
M  V30 5353 H 502.14 -2.92925 -1.37756 0
M  V30 5354 H 501.047 -3.64885 0.825199 0
M  V30 5355 H 502.38 -4.80507 1.06649 0
M  V30 5356 N 504.032 -0.577932 -1.46621 0
M  V30 5357 C 505.28 -0.061566 -2.02006 0
M  V30 5358 C 505.601 1.30117 -1.4524 0
M  V30 5359 O 504.871 1.85313 -0.63529 0
M  V30 5360 H 503.451 -0.0197692 -0.746738 0
M  V30 5361 H 506.113 -0.752631 -1.79782 0
M  V30 5362 H 505.209 0.0110238 -3.12098 0
M  V30 5363 N 505.51 1.54411 -0.315457 0
M  V30 5364 C 506.756 2.00716 0.289972 0
M  V30 5365 C 507.089 1.2034 1.5242 0
M  V30 5366 O 506.364 0.283579 1.92422 0
M  V30 5367 C 506.647 3.54507 0.632196 0
M  V30 5368 C 506.5 4.45615 -0.61218 0
M  V30 5369 C 507.819 4.15421 1.45305 0
M  V30 5370 H 504.938 0.729637 0.10392 0
M  V30 5371 H 507.58 1.8506 -0.430427 0
M  V30 5372 H 505.73 3.67979 1.24595 0
M  V30 5373 H 507.402 4.44026 -1.25053 0
M  V30 5374 H 505.645 4.15621 -1.24264 0
M  V30 5375 H 506.316 5.51022 -0.328379 0
M  V30 5376 H 508.792 4.05474 0.934331 0
M  V30 5377 H 507.668 5.23157 1.66127 0
M  V30 5378 H 507.929 3.68223 2.44671 0
M  V30 5379 N 506.988 0.0434614 1.5754 0
M  V30 5380 C 508.218 -0.640905 1.96408 0
M  V30 5381 C 508.626 -1.65365 0.919297 0
M  V30 5382 O 507.969 -1.83395 -0.105795 0
M  V30 5383 C 508.031 -1.39141 3.31482 0
M  V30 5384 C 507.695 -0.535375 4.53853 0
M  V30 5385 C 508.692 0.195335 5.19533 0
M  V30 5386 C 506.377 -0.468564 5.0011 0
M  V30 5387 C 508.371 0.981377 6.298 0
M  V30 5388 C 506.058 0.321171 6.10255 0
M  V30 5389 C 507.056 1.04484 6.74961 0
M  V30 5390 O 506.744 1.8216 7.8299 0
M  V30 5391 H 506.476 -0.180584 0.651433 0
M  V30 5392 H 509.03 0.103848 2.05137 0
M  V30 5393 H 507.26 -2.18162 3.19284 0
M  V30 5394 H 508.949 -1.96526 3.55151 0
M  V30 5395 H 509.715 0.15314 4.84758 0
M  V30 5396 H 505.594 -1.02142 4.49542 0
M  V30 5397 H 509.138 1.54674 6.80237 0
M  V30 5398 H 505.035 0.365032 6.44467 0
M  V30 5399 H 505.803 1.74289 7.99728 0
M  V30 5400 N 508.466 -1.55915 -0.229846 0
M  V30 5401 C 509.429 -1.90914 -1.26824 0
M  V30 5402 C 510.429 -0.786999 -1.40225 0
M  V30 5403 O 511.619 -1.05484 -1.38632 0
M  V30 5404 C 508.751 -2.15264 -2.64337 0
M  V30 5405 H 509.944 -2.8378 -0.969998 0
M  V30 5406 H 507.497 -1.49069 -0.4699 0
M  V30 5407 H 508.232 -1.24923 -2.99274 0
M  V30 5408 H 508.017 -2.97005 -2.55989 0
M  V30 5409 H 509.507 -2.43467 -3.39284 0
M  V30 5410 N 509.944 0.496216 -1.49584 0
M  V30 5411 C 511.19 1.25189 -1.59548 0
M  V30 5412 C 511.523 1.9212 -0.283466 0
M  V30 5413 O 510.798 1.80947 0.713324 0
M  V30 5414 C 511.081 2.31516 -2.75812 0
M  V30 5415 C 510.934 1.69054 -4.16822 0
M  V30 5416 C 512.253 3.3304 -2.87702 0
M  V30 5417 H 509.372 0.45379 -0.580727 0
M  V30 5418 H 512.014 0.549327 -1.81886 0
M  V30 5419 H 510.164 2.91438 -2.56897 0
M  V30 5420 H 511.836 1.12923 -4.47265 0
M  V30 5421 H 510.079 0.994485 -4.22247 0
M  V30 5422 H 510.75 2.462 -4.94054 0
M  V30 5423 H 513.226 2.83114 -3.04936 0
M  V30 5424 H 512.102 4.04794 -3.7072 0
M  V30 5425 H 512.363 3.95655 -1.97255 0
M  V30 5426 N 511.423 1.38739 0.74761 0
M  V30 5427 C 512.386 1.36241 1.84312 0
M  V30 5428 C 513.386 0.261811 1.58654 0
M  V30 5429 O 514.576 0.519031 1.66288 0
M  V30 5430 C 511.708 1.12253 3.21888 0
M  V30 5431 H 512.901 2.33712 1.87933 0
M  V30 5432 H 510.454 1.2412 0.949946 0
M  V30 5433 H 511.189 0.154133 3.23934 0
M  V30 5434 H 510.974 1.91943 3.41907 0
M  V30 5435 H 512.464 1.13215 4.0196 0
M  V30 5436 N 512.901 -0.976442 1.23707 0
M  V30 5437 C 513.831 -2.08749 1.04624 0
M  V30 5438 C 514.812 -1.70057 -0.0380956 0
M  V30 5439 O 515.997 -1.93782 0.127308 0
M  V30 5440 C 513.127 -3.41335 0.640902 0
M  V30 5441 C 512.081 -3.93947 1.67302 0
M  V30 5442 C 511.407 -5.22774 1.12301 0
M  V30 5443 C 512.707 -4.22769 3.06697 0
M  V30 5444 H 514.401 -2.24972 1.97555 0
M  V30 5445 H 511.947 -1.08108 0.951247 0
M  V30 5446 H 513.9 -4.18489 0.494434 0
M  V30 5447 H 512.624 -3.24988 -0.324099 0
M  V30 5448 H 511.283 -3.18941 1.80755 0
M  V30 5449 H 510.931 -5.0278 0.148877 0
M  V30 5450 H 510.631 -5.58942 1.81267 0
M  V30 5451 H 512.155 -6.02546 0.988479 0
M  V30 5452 H 513.569 -4.90659 2.96524 0
M  V30 5453 H 511.966 -4.70147 3.72937 0
M  V30 5454 H 513.036 -3.29885 3.55392 0
M  V30 5455 N 514.379 -1.04941 -1.1758 0
M  V30 5456 C 515.327 -0.64204 -2.23563 0
M  V30 5457 C 516.321 0.335453 -1.66045 0
M  V30 5458 O 517.527 0.20179 -1.78865 0
M  V30 5459 H 513.902 -0.18944 -0.727748 0
M  V30 5460 H 515.873 -1.54609 -2.55223 0
M  V30 5461 C 514.622 -0.0301051 -3.47687 0
M  V30 5462 H 513.945 -0.773339 -3.92249 0
M  V30 5463 H 515.385 0.217592 -4.23441 0
M  V30 5464 C 513.844 1.2225 -3.13937 0
M  V30 5465 O 514.374 2.3122 -3.28482 0
M  V30 5466 N 512.58 1.11917 -2.68185 0
M  V30 5467 H 512.127 0.232403 -2.5655 0
M  V30 5468 H 512.085 1.95814 -2.45976 0
M  V30 5469 N 515.857 1.33968 -0.830081 0
M  V30 5470 C 517.268 1.80439 -0.479455 0
M  V30 5471 C 517.619 1.68756 1.00079 0
M  V30 5472 O 516.744 1.23171 1.77927 0
M  V30 5473 C 517.339 3.27611 -0.863505 0
M  V30 5474 C 515.898 3.72133 -0.565145 0
M  V30 5475 C 515.045 2.55549 -1.07657 0
M  V30 5476 H 517.996 1.21614 -1.0196 0
M  V30 5477 H 518.017 3.8012 -0.170083 0
M  V30 5478 H 517.529 3.36082 -1.94089 0
M  V30 5479 H 515.63 3.69196 0.502536 0
M  V30 5480 H 515.743 4.65963 -1.11422 0
M  V30 5481 H 514.107 2.49788 -0.497807 0
M  V30 5482 H 514.89 2.66786 -2.16055 0
M  V30 5483 N 517.335 0.585699 1.46312 0
M  V30 5484 C 518.282 -0.145835 2.30339 0
M  V30 5485 C 519.252 -0.881215 1.40797 0
M  V30 5486 O 520.437 -0.871293 1.69744 0
M  V30 5487 C 517.577 -1.15161 3.25318 0
M  V30 5488 C 516.69 -0.419367 4.2996 0
M  V30 5489 C 515.825 -1.41293 5.12064 0
M  V30 5490 C 514.864 -0.667261 6.08452 0
M  V30 5491 N 514.001 -1.60903 6.83414 0
M  V30 5492 H 518.841 0.576755 2.92365 0
M  V30 5493 H 516.378 0.296237 1.44086 0
M  V30 5494 H 518.336 -1.74763 3.78832 0
M  V30 5495 H 516.966 -1.84188 2.65094 0
M  V30 5496 H 516.018 0.291751 3.7928 0
M  V30 5497 H 517.33 0.163433 4.98532 0
M  V30 5498 H 516.484 -2.08167 5.6987 0
M  V30 5499 H 515.223 -2.02966 4.43459 0
M  V30 5500 H 514.228 0.0152356 5.49798 0
M  V30 5501 H 515.453 -0.0558817 6.79077 0
M  V30 5502 H 513.399 -2.21381 6.17516 0
M  V30 5503 H 513.316 -1.07911 7.48259 0
M  V30 5504 H 514.584 -2.26802 7.45775 0
M  V30 5505 N 518.813 -1.54241 0.323641 0
M  V30 5506 C 520.041 -2.04985 -0.280871 0
M  V30 5507 C 520.456 -1.19978 -1.45777 0
M  V30 5508 O 519.813 -0.230471 -1.81039 0
M  V30 5509 C 519.864 -3.54353 -0.715258 0
M  V30 5510 O 519.585 -4.36132 0.414817 0
M  V30 5511 C 521.086 -4.21189 -1.38257 0
M  V30 5512 H 518.306 -0.66851 -0.0577502 0
M  V30 5513 H 520.85 -1.99029 0.469852 0
M  V30 5514 H 519.005 -3.60596 -1.41596 0
M  V30 5515 H 519.419 -5.2445 0.0725227 0
M  V30 5516 H 520.893 -5.27154 -1.63745 0
M  V30 5517 H 521.37 -3.72307 -2.32989 0
M  V30 5518 H 521.976 -4.19085 -0.724447 0
M  V30 5519 N 520.291 -0.0518155 -1.57515 0
M  V30 5520 C 521.539 0.620595 -1.92336 0
M  V30 5521 C 521.86 1.71345 -0.930907 0
M  V30 5522 O 521.13 1.95885 0.0241341 0
M  V30 5523 H 519.71 0.232226 -0.709986 0
M  V30 5524 H 522.372 -0.104969 -1.94617 0
M  V30 5525 H 521.468 1.05879 -2.93592 0
M  V30 5526 N 521.769 1.56035 0.221574 0
M  V30 5527 C 522.732 1.91584 1.2581 0
M  V30 5528 C 523.732 0.794425 1.39805 0
M  V30 5529 O 524.922 1.06217 1.38071 0
M  V30 5530 C 522.054 2.16663 2.63192 0
M  V30 5531 H 523.247 2.8429 0.954935 0
M  V30 5532 H 520.8 1.49316 0.461988 0
M  V30 5533 H 521.535 1.26508 2.98607 0
M  V30 5534 H 521.32 2.98358 2.5441 0
M  V30 5535 H 522.81 2.45262 3.37988 0
M  V30 5536 N 523.247 -0.488276 1.49845 0
M  V30 5537 C 524.493 -1.24341 1.6021 0
M  V30 5538 C 524.826 -1.91967 0.293651 0
M  V30 5539 O 524.101 -1.81323 -0.703718 0
M  V30 5540 C 524.384 -2.3005 2.77036 0
M  V30 5541 C 524.237 -1.66842 4.17713 0
M  V30 5542 C 525.556 -3.31509 2.89464 0
M  V30 5543 H 522.675 -0.450704 0.583125 0
M  V30 5544 H 525.317 -0.539673 1.82174 0
M  V30 5545 H 523.467 -2.90071 2.58439 0
M  V30 5546 H 525.139 -1.1055 4.47858 0
M  V30 5547 H 523.382 -0.972079 4.22768 0
M  V30 5548 H 524.053 -2.43576 4.95353 0
M  V30 5549 H 526.529 -2.81493 3.06433 0
M  V30 5550 H 525.405 -4.02822 3.72861 0
M  V30 5551 H 525.666 -3.94603 1.99351 0
M  V30 5552 N 524.725 -1.39134 -0.740242 0
M  V30 5553 C 525.655 -1.40165 -1.86751 0
M  V30 5554 C 526.636 -0.265708 -1.68012 0
M  V30 5555 O 527.821 -0.47076 -1.88408 0
M  V30 5556 C 524.951 -1.2392 -3.2444 0
M  V30 5557 C 523.905 -2.34858 -3.57807 0
M  V30 5558 C 523.231 -2.03707 -4.94376 0
M  V30 5559 C 524.531 -3.77159 -3.61315 0
M  V30 5560 H 526.225 -2.345 -1.86145 0
M  V30 5561 H 523.771 -1.12875 -0.89416 0
M  V30 5562 H 525.724 -1.23263 -4.02969 0
M  V30 5563 H 524.448 -0.26051 -3.25559 0
M  V30 5564 H 523.107 -2.34723 -2.81604 0
M  V30 5565 H 522.755 -1.04289 -4.9207 0
M  V30 5566 H 522.455 -2.78016 -5.17669 0
M  V30 5567 H 523.979 -2.04691 -5.75268 0
M  V30 5568 H 525.393 -3.79252 -4.29931 0
M  V30 5569 H 523.79 -4.50784 -3.96124 0
M  V30 5570 H 524.86 -4.08513 -2.61238 0
M  V30 5571 N 526.204 0.969867 -1.24223 0
M  V30 5572 C 527.429 1.75289 -1.10853 0
M  V30 5573 C 527.854 1.85091 0.335079 0
M  V30 5574 O 527.212 1.32024 1.24255 0
M  V30 5575 C 527.26 3.15255 -1.75062 0
M  V30 5576 O 526.364 3.99589 -1.01992 0
M  V30 5577 H 525.705 0.538904 -0.387915 0
M  V30 5578 H 528.235 1.21675 -1.64488 0
M  V30 5579 H 528.245 3.65787 -1.80731 0
M  V30 5580 H 526.92 3.07436 -2.801 0
M  V30 5581 H 525.497 3.58077 -1.04094 0
M  V30 5582 N 527.682 1.05563 1.17022 0
M  V30 5583 C 528.615 0.604197 2.20056 0
M  V30 5584 C 529.593 -0.369169 1.58354 0
M  V30 5585 O 530.777 -0.279898 1.8641 0
M  V30 5586 C 527.904 -0.115265 3.38504 0
M  V30 5587 C 526.95 0.813698 4.18666 0
M  V30 5588 S 527.783 2.30492 4.83357 0
M  V30 5589 C 528.939 1.59674 6.0519 0
M  V30 5590 H 529.172 1.47713 2.58008 0
M  V30 5591 H 526.705 0.867932 1.27696 0
M  V30 5592 H 528.663 -0.524162 4.0714 0
M  V30 5593 H 527.324 -0.964284 2.98932 0
M  V30 5594 H 526.517 0.256736 5.03346 0
M  V30 5595 H 526.119 1.16213 3.55486 0
M  V30 5596 H 528.411 0.898164 6.7152 0
M  V30 5597 H 529.354 2.42115 6.65422 0
M  V30 5598 H 529.762 1.08252 5.54023 0
M  V30 5599 N 529.16 -1.33526 0.837174 0
M  V30 5600 C 530.385 -2.0258 0.444545 0
M  V30 5601 C 530.81 -1.6258 -0.946006 0
M  V30 5602 O 530.168 -0.817548 -1.6182 0
M  V30 5603 C 530.216 -3.5605 0.571006 0
M  V30 5604 O 529.32 -4.10422 -0.403431 0
M  V30 5605 H 528.661 -0.638866 0.180958 0
M  V30 5606 H 531.191 -1.70462 1.13154 0
M  V30 5607 H 531.201 -4.05488 0.452024 0
M  V30 5608 H 529.876 -3.84509 1.58512 0
M  V30 5609 H 528.453 -3.72113 -0.242147 0
M  V30 5610 N 530.638 -0.59345 -1.46 0
M  V30 5611 C 531.886 -0.082988 -2.0193 0
M  V30 5612 C 532.207 1.28569 -1.46612 0
M  V30 5613 O 531.477 1.84629 -0.654909 0
M  V30 5614 H 530.057 -0.0276882 -0.746487 0
M  V30 5615 H 532.719 -0.771657 -1.78973 0
M  V30 5616 H 531.815 -0.022079 -3.12092 0
M  V30 5617 N 532.116 1.54067 -0.331816 0
M  V30 5618 C 533.365 1.99895 0.269209 0
M  V30 5619 C 533.678 1.22371 1.52593 0
M  V30 5620 O 534.884 1.58618 2.20347 0
M  V30 5621 C 533.34 3.55972 0.530244 0
M  V30 5622 C 532.948 4.4234 -0.709901 0
M  V30 5623 C 534.692 4.10247 1.09077 0
M  V30 5624 C 532.599 5.89905 -0.420312 0
M  V30 5625 H 531.529 0.746741 0.104371 0
M  V30 5626 H 534.18 1.78014 -0.445324 0
M  V30 5627 H 532.562 3.73873 1.30518 0
M  V30 5628 H 533.736 4.36215 -1.48504 0
M  V30 5629 H 532.051 3.98997 -1.19123 0
M  V30 5630 H 534.648 5.18095 1.32219 0
M  V30 5631 H 534.991 3.62739 2.0427 0
M  V30 5632 H 535.524 3.96011 0.376824 0
M  V30 5633 H 532.263 6.41623 -1.34164 0
M  V30 5634 H 531.783 5.98962 0.316962 0
M  V30 5635 H 533.462 6.46991 -0.0331956 0
M  V30 5636 N 533.594 0.0601682 1.57485 0
M  V30 5637 C 534.541 -0.91112 2.12055 0
M  V30 5638 C 535.511 -1.30298 1.03013 0
M  V30 5639 O 536.696 -1.39087 1.30612 0
M  V30 5640 C 533.836 -2.1775 2.67729 0
M  V30 5641 C 532.949 -1.83933 3.90887 0
M  V30 5642 C 532.084 -3.05096 4.34845 0
M  V30 5643 C 531.123 -2.67241 5.5068 0
M  V30 5644 N 530.26 -3.81127 5.8965 0
M  V30 5645 H 535.1 -0.43888 2.9475 0
M  V30 5646 H 532.637 -0.204995 1.45665 0
M  V30 5647 H 534.595 -2.91866 2.98111 0
M  V30 5648 H 533.225 -2.62535 1.87816 0
M  V30 5649 H 532.277 -0.999287 3.6704 0
M  V30 5650 H 533.589 -1.52074 4.75052 0
M  V30 5651 H 532.743 -3.87502 4.66827 0
M  V30 5652 H 531.482 -3.40139 3.49509 0
M  V30 5653 H 530.487 -1.83254 5.18361 0
M  V30 5654 H 531.712 -2.3338 6.37738 0
M  V30 5655 H 529.658 -4.15954 5.07266 0
M  V30 5656 H 529.575 -3.52997 6.68528 0
M  V30 5657 H 530.843 -4.64145 6.2625 0
M  V30 5658 N 535.072 -1.5615 -0.213296 0
M  V30 5659 C 536.022 -1.89485 -1.26804 0
M  V30 5660 C 537.006 -0.758713 -1.41889 0
M  V30 5661 O 538.198 -1.02127 -1.44565 0
M  V30 5662 C 535.327 -2.22219 -2.61675 0
M  V30 5663 C 534.413 -3.42245 -2.50458 0
M  V30 5664 N 534.804 -4.60645 -2.089 0
M  V30 5665 C 533.102 -3.46023 -2.81397 0
M  V30 5666 C 533.803 -5.42805 -2.09135 0
M  V30 5667 N 532.779 -4.82732 -2.49941 0
M  V30 5668 H 536.581 -2.78537 -0.937771 0
M  V30 5669 H 534.095 -1.56826 -0.421824 0
M  V30 5670 H 536.092 -2.44278 -3.37837 0
M  V30 5671 H 534.752 -1.34484 -2.95541 0
M  V30 5672 H 535.763 -4.85651 -1.79899 0
M  V30 5673 H 532.44 -2.68654 -3.1958 0
M  V30 5674 H 533.83 -6.47601 -1.79059 0
M  V30 5675 N 536.55 0.480323 -1.50102 0
M  V30 5676 C 537.827 1.24159 -1.51142 0
M  V30 5677 C 538.207 2.09605 -0.250818 0
M  V30 5678 O 537.555 2.15274 0.766118 0
M  V30 5679 C 537.765 2.08057 -2.80202 0
M  V30 5680 C 539.113 2.66556 -3.30504 0
M  V30 5681 O 540.137 2.18308 -2.81461 0
M  V30 5682 O 538.996 3.54442 -4.15973 0
M  V30 5683 H 536.09 0.562928 -0.605839 0
M  V30 5684 H 538.636 0.492899 -1.62384 0
M  V30 5685 H 537.408 1.45032 -3.6343 0
M  V30 5686 H 537.031 2.90079 -2.71919 0
M  V30 5687 N 538.028 1.39524 0.732853 0
M  V30 5688 C 538.958 1.41153 1.86005 0
M  V30 5689 C 539.939 0.274614 1.67869 0
M  V30 5690 O 541.124 0.480745 1.88155 0
M  V30 5691 C 538.254 1.25638 3.23778 0
M  V30 5692 C 537.208 2.36752 3.56556 0
M  V30 5693 C 536.534 2.06326 4.93289 0
M  V30 5694 C 537.834 3.79069 3.5931 0
M  V30 5695 H 539.528 2.35484 1.84899 0
M  V30 5696 H 537.074 1.13348 0.888162 0
M  V30 5697 H 539.027 1.25398 4.0231 0
M  V30 5698 H 537.751 0.277772 3.25417 0
M  V30 5699 H 536.41 2.36213 2.80355 0
M  V30 5700 H 536.058 1.06897 4.9151 0
M  V30 5701 H 535.758 2.80757 5.16187 0
M  V30 5702 H 537.282 2.07739 5.74175 0
M  V30 5703 H 538.696 3.81526 4.27914 0
M  V30 5704 H 537.093 4.52878 3.93728 0
M  V30 5705 H 538.163 4.09893 2.59068 0
M  V30 5706 N 539.506 -0.963266 1.24736 0
M  V30 5707 C 540.453 -2.05857 1.04363 0
M  V30 5708 C 541.423 -1.6604 -0.0444951 0
M  V30 5709 O 542.608 -1.90477 0.110999 0
M  V30 5710 C 539.748 -3.38745 0.659235 0
M  V30 5711 C 538.861 -3.9173 1.82131 0
M  V30 5712 C 537.996 -5.12906 1.38208 0
M  V30 5713 C 537.035 -5.58098 2.51382 0
M  V30 5714 N 536.172 -6.7049 2.08295 0
M  V30 5715 H 541.012 -2.22616 1.98107 0
M  V30 5716 H 538.549 -1.09103 0.986661 0
M  V30 5717 H 540.507 -4.15107 0.417371 0
M  V30 5718 H 539.137 -3.21898 -0.241201 0
M  V30 5719 H 538.189 -3.11966 2.17672 0
M  V30 5720 H 539.501 -4.21225 2.67153 0
M  V30 5721 H 538.655 -5.96657 1.09935 0
M  V30 5722 H 537.394 -4.85105 0.502456 0
M  V30 5723 H 536.399 -4.72917 2.80409 0
M  V30 5724 H 537.624 -5.87911 3.39909 0
M  V30 5725 H 535.57 -6.44416 1.22737 0
M  V30 5726 H 535.487 -6.99458 2.86869 0
M  V30 5727 H 536.755 -7.57672 1.83175 0
M  V30 5728 N 540.985 -1.06182 -1.16461 0
M  V30 5729 C 542.213 -0.798583 -1.90867 0
M  V30 5730 C 542.628 0.646921 -1.77371 0
M  V30 5731 O 541.985 1.44279 -1.11758 0
M  V30 5732 C 542.036 -1.18258 -3.4161 0
M  V30 5733 O 541.757 -2.57135 -3.54701 0
M  V30 5734 C 543.258 -0.946917 -4.33069 0
M  V30 5735 H 540.478 -0.289603 -0.605286 0
M  V30 5736 H 543.022 -1.41515 -1.47627 0
M  V30 5737 H 541.177 -0.610562 -3.82558 0
M  V30 5738 H 541.591 -2.72477 -4.4817 0
M  V30 5739 H 543.065 -1.26523 -5.37304 0
M  V30 5740 H 543.542 0.117406 -4.39043 0
M  V30 5741 H 544.148 -1.50326 -3.97847 0
M  V30 5742 N 542.463 1.3308 -0.844243 0
M  V30 5743 C 543.711 1.97215 -0.441676 0
M  V30 5744 C 544.032 1.67185 1.0037 0
M  V30 5745 O 543.302 0.973588 1.69994 0
M  V30 5746 H 541.882 0.72959 -0.160335 0
M  V30 5747 H 544.544 1.62348 -1.07838 0
M  V30 5748 H 543.64 3.06698 -0.57815 0
M  V30 5749 N 543.941 0.601185 1.45683 0
M  V30 5750 C 544.851 -0.123395 2.34275 0
M  V30 5751 C 545.867 -0.86702 1.5086 0
M  V30 5752 O 547.043 -0.826049 1.8368 0
M  V30 5753 C 544.108 -1.11237 3.2837 0
M  V30 5754 C 543.169 -0.371405 4.2769 0
M  V30 5755 C 542.402 -1.31327 5.1729 0
M  V30 5756 O 542.625 -2.55078 5.10188 0
M  V30 5757 O 541.559 -0.813811 5.96373 0
M  V30 5758 H 545.385 0.604483 2.97623 0
M  V30 5759 H 542.97 0.361477 1.44961 0
M  V30 5760 H 544.852 -1.68214 3.8637 0
M  V30 5761 H 543.527 -1.82139 2.67595 0
M  V30 5762 H 542.434 0.24067 3.73325 0
M  V30 5763 H 543.767 0.296998 4.91303 0
M  V30 5764 N 545.419 -1.53889 0.339982 0
M  V30 5765 C 546.349 -2.27843 -0.510856 0
M  V30 5766 C 547.33 -1.29267 -1.10563 0
M  V30 5767 O 548.515 -1.58104 -1.12768 0
M  V30 5768 C 545.645 -3.04857 -1.66372 0
M  V30 5769 C 544.599 -4.10907 -1.19746 0
M  V30 5770 C 543.925 -4.75855 -2.43857 0
M  V30 5771 C 545.225 -5.21435 -0.300501 0
M  V30 5772 H 546.919 -2.99212 0.106067 0
M  V30 5773 H 544.465 -1.43904 0.0524533 0
M  V30 5774 H 546.418 -3.5533 -2.26537 0
M  V30 5775 H 545.142 -2.31133 -2.30749 0
M  V30 5776 H 543.801 -3.61342 -0.618654 0
M  V30 5777 H 543.449 -3.9873 -3.06633 0
M  V30 5778 H 543.149 -5.47502 -2.13343 0
M  V30 5779 H 544.673 -5.2911 -3.04754 0
M  V30 5780 H 546.087 -5.67565 -0.80889 0
M  V30 5781 H 544.484 -6.00036 -0.0874076 0
M  V30 5782 H 545.554 -4.80328 0.664321 0
M  V30 5783 N 546.897 -0.0685191 -1.57451 0
M  V30 5784 C 548.125 0.610462 -1.97689 0
M  V30 5785 C 548.54 1.63346 -0.946758 0
M  V30 5786 O 547.897 1.82377 0.0669868 0
M  V30 5787 C 547.948 1.28196 -3.38006 0
M  V30 5788 O 547.669 0.299906 -4.37072 0
M  V30 5789 C 549.17 2.04907 -3.931 0
M  V30 5790 H 546.39 0.165689 -0.650222 0
M  V30 5791 H 548.934 -0.139953 -2.04021 0
M  V30 5792 H 547.089 1.98348 -3.32771 0
M  V30 5793 H 547.503 0.78126 -5.18649 0
M  V30 5794 H 548.977 2.47287 -4.93511 0
M  V30 5795 H 549.454 2.9043 -3.29465 0
M  V30 5796 H 550.06 1.39629 -4.01726 0
M  V30 5797 N 548.375 1.56261 0.205012 0
M  V30 5798 C 549.786 1.70056 0.770574 0
M  V30 5799 C 550.137 0.673398 1.84282 0
M  V30 5800 O 549.262 -0.172196 2.15714 0
M  V30 5801 C 549.857 3.08316 1.40451 0
M  V30 5802 C 548.416 3.2391 1.91727 0
M  V30 5803 C 547.563 2.66001 0.783516 0
M  V30 5804 H 550.514 1.58688 -0.019911 0
M  V30 5805 H 550.535 3.05094 2.27371 0
M  V30 5806 H 550.047 3.83053 0.623882 0
M  V30 5807 H 548.148 2.54072 2.7254 0
M  V30 5808 H 548.261 4.3131 2.08588 0
M  V30 5809 H 546.625 2.24915 1.19521 0
M  V30 5810 H 547.408 3.43297 0.0152883 0
M  V30 5811 N 549.853 -0.472356 1.50355 0
M  V30 5812 C 551.13 -1.23356 1.51798 0
M  V30 5813 C 551.51 -2.09469 0.26193 0
M  V30 5814 O 550.858 -2.15677 -0.754691 0
M  V30 5815 C 551.068 -2.06568 2.81302 0
M  V30 5816 C 552.416 -2.648 3.31913 0
M  V30 5817 O 553.44 -2.16812 2.82614 0
M  V30 5818 O 552.299 -3.52231 4.17846 0
M  V30 5819 H 549.393 -0.559707 0.608816 0
M  V30 5820 H 551.939 -0.48428 1.62643 0
M  V30 5821 H 550.711 -1.43103 3.64194 0
M  V30 5822 H 550.334 -2.88633 2.73454 0
M  V30 5823 N 551.331 -1.39911 -0.725443 0
M  V30 5824 C 552.556 -1.41137 -1.5197 0
M  V30 5825 C 552.981 -0.010262 -1.88097 0
M  V30 5826 O 552.339 0.979184 -1.52583 0
M  V30 5827 C 552.387 -2.2994 -2.77777 0
M  V30 5828 O 551.491 -1.73586 -3.74088 0
M  V30 5829 H 550.832 -0.480219 -0.458569 0
M  V30 5830 H 553.362 -1.84023 -0.894249 0
M  V30 5831 H 553.372 -2.44785 -3.26411 0
M  V30 5832 H 552.047 -3.31759 -2.50816 0
M  V30 5833 H 550.624 -1.68035 -3.32894 0
M  V30 5834 N 552.809 0.956637 -1.25245 0
M  V30 5835 C 553.739 2.07058 -1.07931 0
M  V30 5836 C 554.72 1.70096 0.0110361 0
M  V30 5837 O 555.905 1.93555 -0.158121 0
M  V30 5838 C 553.035 3.40272 -0.695124 0
M  V30 5839 C 551.989 3.91235 -1.73549 0
M  V30 5840 C 551.315 5.20921 -1.20604 0
M  V30 5841 C 552.615 4.17837 -3.13385 0
M  V30 5842 H 554.309 2.218 -2.01109 0
M  V30 5843 H 551.855 1.06581 -0.968326 0
M  V30 5844 H 553.808 4.1765 -0.560949 0
M  V30 5845 H 552.532 3.25462 0.272355 0
M  V30 5846 H 551.191 3.16025 -1.85807 0
M  V30 5847 H 550.839 5.02479 -0.228846 0
M  V30 5848 H 550.539 5.55987 -1.90136 0
M  V30 5849 H 552.063 6.00897 -1.08421 0
M  V30 5850 H 553.477 4.8588 -3.04292 0
M  V30 5851 H 551.874 4.64154 -3.80369 0
M  V30 5852 H 552.944 3.2419 -3.60595 0
M  V30 5853 N 554.287 1.06798 1.15896 0
M  V30 5854 C 555.535 0.786211 1.8618 0
M  V30 5855 C 555.856 -0.689547 1.82401 0
M  V30 5856 O 555.126 -1.49913 1.26107 0
M  V30 5857 H 553.706 0.287843 0.689315 0
M  V30 5858 H 556.368 1.35055 1.40521 0
M  V30 5859 H 555.464 1.1157 2.91477 0
M  V30 5860 N 555.766 -1.3263 0.851289 0
M  V30 5861 C 556.994 -2.01563 0.466899 0
M  V30 5862 C 557.409 -1.63996 -0.935447 0
M  V30 5863 O 556.766 -0.85957 -1.6099 0
M  V30 5864 C 556.817 -3.56613 0.592433 0
M  V30 5865 O 556.538 -3.92828 1.93954 0
M  V30 5866 C 558.039 -4.42818 0.206612 0
M  V30 5867 H 555.259 -0.645307 0.183902 0
M  V30 5868 H 557.803 -1.69285 1.1473 0
M  V30 5869 H 555.958 -3.87379 -0.0401936 0
M  V30 5870 H 556.372 -4.87545 1.9339 0
M  V30 5871 H 557.846 -5.50918 0.345462 0
M  V30 5872 H 558.323 -4.30844 -0.85264 0
M  V30 5873 H 558.929 -4.17434 0.814176 0
M  V30 5874 N 557.244 -0.608902 -1.45362 0
M  V30 5875 C 558.49 -0.104762 -2.02529 0
M  V30 5876 C 558.823 1.26191 -1.47613 0
M  V30 5877 O 558.098 1.8327 -0.65134 0
M  V30 5878 C 558.381 -0.0672661 -3.60037 0
M  V30 5879 C 558.234 -1.4647 -4.25284 0
M  V30 5880 C 559.553 0.619877 -4.35713 0
M  V30 5881 H 556.672 -0.0395438 -0.735938 0
M  V30 5882 H 559.314 -0.781126 -1.73201 0
M  V30 5883 H 557.464 0.50871 -3.85155 0
M  V30 5884 H 559.136 -2.08785 -4.11347 0
M  V30 5885 H 557.379 -2.02502 -3.83634 0
M  V30 5886 H 558.05 -1.39069 -5.34195 0
M  V30 5887 H 560.526 0.130297 -4.15896 0
M  V30 5888 H 559.402 0.615224 -5.45441 0
M  V30 5889 H 559.663 1.68621 -4.0868 0
M  V30 5890 N 558.722 1.53707 -0.348139 0
M  V30 5891 C 559.95 2.05406 0.248224 0
M  V30 5892 C 560.365 1.22282 1.43849 0
M  V30 5893 O 559.722 0.259244 1.80649 0
M  V30 5894 C 559.773 3.55446 0.658793 0
M  V30 5895 O 559.494 4.35417 -0.484149 0
M  V30 5896 C 560.995 4.23335 1.31539 0
M  V30 5897 H 558.215 0.669344 0.0471075 0
M  V30 5898 H 560.759 1.98257 -0.501456 0
M  V30 5899 H 558.914 3.62803 1.35841 0
M  V30 5900 H 559.328 5.24268 -0.155949 0
M  V30 5901 H 560.802 5.29692 1.55338 0
M  V30 5902 H 561.279 3.75967 2.27036 0
M  V30 5903 H 561.885 4.20184 0.657683 0
M  V30 5904 N 560.2 0.0768682 1.57412 0
M  V30 5905 C 561.148 -0.906229 2.1422 0
M  V30 5906 C 562.142 -1.30477 1.08037 0
M  V30 5907 O 563.348 -1.28143 1.2641 0
M  V30 5908 H 559.723 -0.310207 0.685037 0
M  V30 5909 H 561.694 -0.402228 2.95677 0
M  V30 5910 C 560.443 -2.16245 2.72274 0
M  V30 5911 H 559.766 -1.86463 3.53655 0
M  V30 5912 H 561.206 -2.83134 3.15613 0
M  V30 5913 C 559.665 -2.92437 1.67279 0
M  V30 5914 O 560.195 -3.86322 1.10081 0
M  V30 5915 N 558.401 -2.55637 1.38195 0
M  V30 5916 H 557.948 -1.79363 1.84897 0
M  V30 5917 H 557.906 -3.06919 0.681787 0
M  V30 5918 N 561.678 -1.56367 -0.196722 0
M  V30 5919 C 562.924 -1.80796 -0.918725 0
M  V30 5920 C 563.257 -0.650645 -1.82976 0
M  V30 5921 O 562.532 0.348889 -1.91345 0
M  V30 5922 C 562.815 -3.15472 -1.73636 0
M  V30 5923 C 562.668 -4.41693 -0.85015 0
M  V30 5924 C 563.987 -3.46824 -2.70927 0
M  V30 5925 H 561.106 -0.657702 -0.332561 0
M  V30 5926 H 563.748 -1.89086 -0.186186 0
M  V30 5927 H 561.898 -3.08536 -2.36088 0
M  V30 5928 H 563.57 -4.60673 -0.240459 0
M  V30 5929 H 561.813 -4.33517 -0.156785 0
M  V30 5930 H 562.484 -5.32419 -1.45719 0
M  V30 5931 H 564.96 -3.54049 -2.18607 0
M  V30 5932 H 563.836 -4.4218 -3.25219 0
M  V30 5933 H 564.097 -2.70236 -3.49893 0
M  V30 5934 N 563.156 0.464375 -1.50603 0
M  V30 5935 C 564.403 1.21596 -1.61928 0
M  V30 5936 C 564.731 1.91804 -0.322737 0
M  V30 5937 O 563.986 1.83065 0.691776 0
M  V30 5938 C 564.285 2.278 -2.75394 0
M  V30 5939 C 563.951 1.74797 -4.1564 0
M  V30 5940 C 562.613 1.60063 -4.53799 0
M  V30 5941 C 564.965 1.35548 -5.03266 0
M  V30 5942 C 562.293 1.04514 -5.77316 0
M  V30 5943 C 564.645 0.814381 -6.27336 0
M  V30 5944 C 563.309 0.653726 -6.64291 0
M  V30 5945 H 562.579 0.444951 -0.592536 0
M  V30 5946 H 565.226 0.510964 -1.84557 0
M  V30 5947 H 563.531 3.04233 -2.46879 0
M  V30 5948 H 565.228 2.85723 -2.81359 0
M  V30 5949 H 561.818 1.87234 -3.8554 0
M  V30 5950 H 566.002 1.45763 -4.74412 0
M  V30 5951 H 561.258 0.908186 -6.04617 0
M  V30 5952 H 565.432 0.501626 -6.94591 0
M  V30 5953 H 563.059 0.22114 -7.59878 0
M  V30 5954 N 564.634 1.40294 0.718013 0
M  V30 5955 C 565.88 1.38645 1.48005 0
M  V30 5956 C 566.213 -0.0121202 1.94196 0
M  V30 5957 O 565.488 -0.980309 1.67989 0
M  V30 5958 C 565.771 2.37379 2.70782 0
M  V30 5959 C 565.624 3.8625 2.30501 0
M  V30 5960 C 566.943 2.33685 3.72933 0
M  V30 5961 H 564.062 0.504928 0.536858 0
M  V30 5962 H 566.704 1.71411 0.819649 0
M  V30 5963 H 564.854 2.09568 3.27129 0
M  V30 5964 H 566.526 4.24879 1.79655 0
M  V30 5965 H 564.769 4.02202 1.6253 0
M  V30 5966 H 565.44 4.50847 3.18498 0
M  V30 5967 H 567.916 2.58314 3.2621 0
M  V30 5968 H 566.792 3.0482 4.56482 0
M  V30 5969 H 567.053 1.34765 4.21059 0
M  V30 5970 N 566.112 -0.949982 1.2575 0
M  V30 5971 C 567.523 -1.50989 1.09815 0
M  V30 5972 C 567.874 -1.93497 -0.324556 0
M  V30 5973 O 566.999 -1.79068 -1.21506 0
M  V30 5974 C 567.594 -2.74394 1.98729 0
M  V30 5975 C 566.153 -3.26682 1.86965 0
M  V30 5976 C 565.3 -1.99498 1.92603 0
M  V30 5977 H 568.251 -0.766387 1.38968 0
M  V30 5978 H 568.272 -3.48383 1.53001 0
M  V30 5979 H 567.784 -2.43425 3.02268 0
M  V30 5980 H 565.885 -3.62461 0.863279 0
M  V30 5981 H 565.998 -3.94383 2.72027 0
M  V30 5982 H 564.362 -2.15005 1.36546 0
M  V30 5983 H 565.145 -1.70871 2.97755 0
M  V30 5984 N 567.59 -1.07411 -1.15328 0
M  V30 5985 C 568.838 -0.796073 -1.85761 0
M  V30 5986 C 569.159 0.679864 -1.82764 0
M  V30 5987 O 568.429 1.49242 -1.269 0
M  V30 5988 H 567.009 -0.291495 -0.687779 0
M  V30 5989 H 569.671 -1.35799 -1.39802 0
M  V30 5990 H 568.767 -1.13114 -2.90881 0
M  V30 5991 N 569.068 1.32177 -0.85831 0
M  V30 5992 C 570.293 2.01847 -0.476718 0
M  V30 5993 C 570.718 1.64065 0.920021 0
M  V30 5994 O 570.076 0.843189 1.60499 0
M  V30 5995 C 570.124 3.55097 -0.627578 0
M  V30 5996 O 569.228 4.11012 0.338086 0
M  V30 5997 H 568.569 0.635907 -0.191099 0
M  V30 5998 H 571.099 1.68641 -1.15851 0
M  V30 5999 H 571.109 4.04718 -0.516476 0
M  V30 6000 H 569.784 3.81938 -1.64609 0
M  V30 6001 H 568.361 3.72451 0.182917 0
M  V30 6002 N 570.547 0.616602 1.45037 0
M  V30 6003 C 571.793 0.115501 2.02471 0
M  V30 6004 C 572.126 -1.25406 1.4828 0
M  V30 6005 O 571.401 -1.82922 0.661051 0
M  V30 6006 C 571.684 0.0863588 3.59996 0
M  V30 6007 C 571.537 1.48723 4.24501 0
M  V30 6008 C 572.856 -0.596762 4.36035 0
M  V30 6009 H 569.975 0.0434461 0.735718 0
M  V30 6010 H 572.617 0.7903 1.72784 0
M  V30 6011 H 570.767 -0.488277 3.85419 0
M  V30 6012 H 572.439 2.10964 4.10234 0
M  V30 6013 H 570.682 2.04534 3.82555 0
M  V30 6014 H 571.353 1.419 5.3345 0
M  V30 6015 H 573.829 -0.10824 4.15959 0
M  V30 6016 H 572.705 -0.586289 5.4576 0
M  V30 6017 H 572.966 -1.66451 4.09569 0
M  V30 6018 N 572.025 -1.5352 0.356285 0
M  V30 6019 C 573.271 -2.01414 -0.236653 0
M  V30 6020 C 573.604 -1.24339 -1.49176 0
M  V30 6021 O 572.879 -0.334496 -1.91602 0
M  V30 6022 C 573.162 -3.56059 -0.537982 0
M  V30 6023 C 573.015 -4.43835 0.730112 0
M  V30 6024 C 574.334 -4.19127 -1.34239 0
M  V30 6025 H 571.453 -0.732135 -0.0845386 0
M  V30 6026 H 574.095 -1.83854 0.479341 0
M  V30 6027 H 572.245 -3.71153 -1.14795 0
M  V30 6028 H 573.917 -4.40555 1.36782 0
M  V30 6029 H 572.16 -4.1218 1.3524 0
M  V30 6030 H 572.831 -5.49958 0.474358 0
M  V30 6031 H 575.307 -4.07809 -0.826498 0
M  V30 6032 H 574.183 -5.27378 -1.52198 0
M  V30 6033 H 574.444 -3.74581 -2.34822 0
M  V30 6034 N 573.503 -0.0852151 -1.57369 0
M  V30 6035 C 574.45 0.877268 -2.13478 0
M  V30 6036 C 575.42 1.28642 -1.05073 0
M  V30 6037 O 576.605 1.36992 -1.32808 0
M  V30 6038 C 573.745 2.13464 -2.71159 0
M  V30 6039 C 572.858 1.77691 -3.93764 0
M  V30 6040 C 571.993 2.98139 -4.39643 0
M  V30 6041 C 571.032 2.58447 -5.54862 0
M  V30 6042 N 570.169 3.71698 -5.95639 0
M  V30 6043 H 575.009 0.391933 -2.95411 0
M  V30 6044 H 572.546 0.181796 -1.45972 0
M  V30 6045 H 574.504 2.87086 -3.02717 0
M  V30 6046 H 573.134 2.59514 -1.91969 0
M  V30 6047 H 572.186 0.940768 -3.68583 0
M  V30 6048 H 573.498 1.44497 -4.77412 0
M  V30 6049 H 572.652 3.80026 -4.72933 0
M  V30 6050 H 571.391 3.34536 -3.54876 0
M  V30 6051 H 570.396 1.74984 -5.21211 0
M  V30 6052 H 571.621 2.23205 -6.41371 0
M  V30 6053 H 569.567 4.07831 -5.13819 0
M  V30 6054 H 569.484 3.42317 -6.74059 0
M  V30 6055 H 570.752 4.54123 -6.33555 0
M  V30 6056 N 574.981 1.5647 0.188427 0
M  V30 6057 C 575.944 1.9421 1.21718 0
M  V30 6058 C 576.944 0.823901 1.38089 0
M  V30 6059 O 578.134 1.09122 1.35787 0
M  V30 6060 C 575.266 2.22197 2.58537 0
M  V30 6061 H 576.459 2.86252 0.894418 0
M  V30 6062 H 574.012 1.50263 0.430211 0
M  V30 6063 H 574.747 1.32814 2.95856 0
M  V30 6064 H 574.532 3.03688 2.48025 0
M  V30 6065 H 576.022 2.52376 3.3271 0
M  V30 6066 N 576.459 -0.456382 1.50847 0
M  V30 6067 C 577.422 -1.53493 1.70213 0
M  V30 6068 C 578.422 -1.50264 0.572481 0
M  V30 6069 O 579.612 -1.52623 0.839751 0
M  V30 6070 C 576.744 -2.93091 1.741 0
M  V30 6071 H 577.937 -1.37633 2.66453 0
M  V30 6072 H 575.49 -0.683776 1.4055 0
M  V30 6073 H 576.225 -3.14378 0.796063 0
M  V30 6074 H 576.01 -2.9684 2.5618 0
M  V30 6075 H 577.5 -3.71368 1.90987 0
M  V30 6076 N 577.937 -1.40673 -0.710563 0
M  V30 6077 C 579.165 -1.42547 -1.4996 0
M  V30 6078 C 579.58 -0.0265485 -1.88781 0
M  V30 6079 O 578.937 0.950694 -1.55782 0
M  V30 6080 C 578.988 -2.32071 -2.77173 0
M  V30 6081 O 578.709 -3.66518 -2.39992 0
M  V30 6082 C 580.21 -2.42591 -3.71032 0
M  V30 6083 H 577.43 -0.486025 -0.462623 0
M  V30 6084 H 579.974 -1.84783 -0.876102 0
M  V30 6085 H 578.129 -1.93184 -3.35795 0
M  V30 6086 H 578.543 -4.14115 -3.21884 0
M  V30 6087 H 580.017 -3.09429 -4.57119 0
M  V30 6088 H 580.494 -1.4525 -4.14486 0
M  V30 6089 H 581.1 -2.82051 -3.18319 0
M  V30 6090 N 579.415 0.9433 -1.26252 0
M  V30 6091 C 580.664 1.68369 -1.11062 0
M  V30 6092 C 580.977 1.92514 0.346104 0
M  V30 6093 O 582.183 2.64358 0.618646 0
M  V30 6094 C 580.639 3.03171 -1.93946 0
M  V30 6095 C 580.247 2.86782 -3.4418 0
M  V30 6096 C 581.991 3.80916 -1.87359 0
M  V30 6097 C 579.898 4.17044 -4.19319 0
M  V30 6098 H 578.828 0.631469 -0.412023 0
M  V30 6099 H 581.479 1.04922 -1.50544 0
M  V30 6100 H 579.861 3.67587 -1.47296 0
M  V30 6101 H 581.035 2.31229 -3.98585 0
M  V30 6102 H 579.35 2.22482 -3.51981 0
M  V30 6103 H 581.947 4.77417 -2.40784 0
M  V30 6104 H 582.29 4.07658 -0.843857 0
M  V30 6105 H 582.823 3.2327 -2.31821 0
M  V30 6106 H 579.562 3.95487 -5.22753 0
M  V30 6107 H 579.082 4.72319 -3.69696 0
M  V30 6108 H 580.761 4.85513 -4.27651 0
M  V30 6109 N 580.893 1.08022 1.14757 0
M  V30 6110 C 582.118 0.82895 1.90114 0
M  V30 6111 C 582.543 -0.612772 1.77839 0
M  V30 6112 O 581.901 -1.42895 1.11583 0
M  V30 6113 C 581.949 1.25062 3.38219 0
M  V30 6114 O 581.053 0.400119 4.10454 0
M  V30 6115 H 580.394 0.301412 0.591648 0
M  V30 6116 H 582.924 1.44062 1.45284 0
M  V30 6117 H 582.934 1.22977 3.89025 0
M  V30 6118 H 581.609 2.30067 3.46471 0
M  V30 6119 H 580.186 0.484052 3.69745 0
M  V30 6120 N 582.371 -1.3172 0.865308 0
M  V30 6121 C 583.596 -2.01591 0.487415 0
M  V30 6122 C 584.021 -1.6455 -0.911307 0
M  V30 6123 O 583.379 -0.851689 -1.6005 0
M  V30 6124 C 583.427 -3.54759 0.646401 0
M  V30 6125 O 582.531 -4.11185 -0.316284 0
M  V30 6126 H 581.872 -0.634884 0.194468 0
M  V30 6127 H 584.402 -1.68024 1.16744 0
M  V30 6128 H 584.412 -4.04438 0.537932 0
M  V30 6129 H 583.087 -3.8106 1.66632 0
M  V30 6130 H 581.664 -3.72543 -0.163162 0
M  V30 6131 N 583.85 -0.624285 -1.44708 0
M  V30 6132 C 585.098 -0.125802 -2.01708 0
M  V30 6133 C 585.418 1.2543 -1.49306 0
M  V30 6134 O 584.689 1.83198 -0.693924 0
M  V30 6135 H 583.269 -0.0435161 -0.745731 0
M  V30 6136 H 585.931 -0.809446 -1.77296 0
M  V30 6137 H 585.027 -0.0882734 -3.11975 0
M  V30 6138 N 585.328 1.53329 -0.364422 0
M  V30 6139 C 586.574 2.02222 0.21855 0
M  V30 6140 C 586.929 1.24702 1.46517 0
M  V30 6141 O 586.222 0.331969 1.88702 0
M  V30 6142 C 586.416 3.52911 0.564661 0
M  V30 6143 C 586.245 4.45023 -0.646862 0
M  V30 6144 C 585.015 4.91838 -1.15858 0
M  V30 6145 C 587.213 4.91581 -1.51172 0
M  V30 6146 N 585.195 5.67955 -2.33025 0
M  V30 6147 C 586.566 5.66028 -2.53006 0
M  V30 6148 C 588.621 4.73656 -1.53473 0
M  V30 6149 C 587.324 6.24457 -3.56996 0
M  V30 6150 C 589.35 5.3295 -2.56356 0
M  V30 6151 C 588.712 6.07282 -3.56914 0
M  V30 6152 H 584.811 0.780832 0.0427199 0
M  V30 6153 H 587.395 1.87937 -0.508704 0
M  V30 6154 H 585.566 3.6736 1.26099 0
M  V30 6155 H 587.298 3.88528 1.13262 0
M  V30 6156 H 584.053 4.68043 -0.723393 0
M  V30 6157 H 584.477 6.10675 -2.92241 0
M  V30 6158 H 589.119 4.15714 -0.770842 0
M  V30 6159 H 586.837 6.81496 -4.34268 0
M  V30 6160 H 590.423 5.20976 -2.58989 0
M  V30 6161 H 589.303 6.52345 -4.35218 0
M  V30 6162 N 586.806 0.0935595 1.57322 0
M  V30 6163 C 587.716 -0.880192 2.17462 0
M  V30 6164 C 588.732 -1.31135 1.14366 0
M  V30 6165 O 589.908 -1.37958 1.46729 0
M  V30 6166 C 586.973 -2.12184 2.74188 0
M  V30 6167 C 586.034 -1.74503 3.92234 0
M  V30 6168 C 585.267 -2.92748 4.46245 0
M  V30 6169 O 585.49 -4.07427 3.99198 0
M  V30 6170 O 584.424 -2.71303 5.37288 0
M  V30 6171 H 588.25 -0.398516 3.01074 0
M  V30 6172 H 585.835 -0.130707 1.48827 0
M  V30 6173 H 587.717 -2.84953 3.10451 0
M  V30 6174 H 586.392 -2.59407 1.93623 0
M  V30 6175 H 585.299 -0.989186 3.60785 0
M  V30 6176 H 586.632 -1.32044 4.74157 0
M  V30 6177 N 588.284 -1.56567 -0.180126 0
M  V30 6178 C 589.232 -1.96632 -1.24251 0
M  V30 6179 C 590.226 -0.853818 -1.46309 0
M  V30 6180 O 591.432 -1.0389 -1.46993 0
M  V30 6181 H 587.807 -0.625476 -0.417473 0
M  V30 6182 H 589.778 -2.85201 -0.877679 0
M  V30 6183 C 588.527 -2.33486 -2.57642 0
M  V30 6184 H 587.85 -3.18626 -2.4149 0
M  V30 6185 H 589.29 -2.65371 -3.30688 0
M  V30 6186 C 587.749 -1.17499 -3.15746 0
M  V30 6187 O 588.279 -0.457956 -3.99081 0
M  V30 6188 N 586.485 -0.94786 -2.74707 0
M  V30 6189 H 586.032 -1.53269 -2.07042 0
M  V30 6190 H 585.99 -0.173626 -3.1392 0
M  V30 6191 N 589.762 0.448376 -1.51087 0
M  V30 6192 C 591.01 1.19635 -1.62886 0
M  V30 6193 C 591.331 1.91977 -0.342024 0
M  V30 6194 O 590.601 1.85094 0.641636 0
M  V30 6195 H 589.181 0.444598 -0.600285 0
M  V30 6196 H 591.843 0.515138 -1.87969 0
M  V30 6197 H 590.939 1.93194 -2.45117 0
M  V30 6198 N 591.24 1.41047 0.703093 0
M  V30 6199 C 592.486 1.40207 1.46526 0
M  V30 6200 C 592.819 0.00847763 1.94198 0
M  V30 6201 O 592.094 -0.962437 1.69019 0
M  V30 6202 C 592.377 2.40238 2.6825 0
M  V30 6203 C 592.23 3.88674 2.26391 0
M  V30 6204 C 593.549 2.37627 3.70434 0
M  V30 6205 H 590.668 0.510594 0.531472 0
M  V30 6206 H 593.31 1.72271 0.801422 0
M  V30 6207 H 591.46 2.13026 3.24888 0
M  V30 6208 H 593.132 4.2676 1.75138 0
M  V30 6209 H 591.375 4.03903 1.58255 0
M  V30 6210 H 592.046 4.542 3.13698 0
M  V30 6211 H 594.522 2.61759 3.23452 0
M  V30 6212 H 593.398 3.09645 4.53223 0
M  V30 6213 H 593.659 1.39223 4.19606 0
M  V30 6214 N 592.718 -0.936591 1.26751 0
M  V30 6215 C 593.648 -2.05315 1.11212 0
M  V30 6216 C 594.629 -1.70092 0.0160262 0
M  V30 6217 O 595.814 -1.93279 0.188894 0
M  V30 6218 C 592.944 -3.39123 0.749171 0
M  V30 6219 C 591.898 -3.88425 1.79751 0
M  V30 6220 C 591.224 -5.18936 1.28876 0
M  V30 6221 C 592.524 -4.12798 3.19992 0
M  V30 6222 H 594.218 -2.18573 2.04613 0
M  V30 6223 H 591.764 -1.05027 0.985159 0
M  V30 6224 H 593.717 -4.16704 0.627323 0
M  V30 6225 H 592.441 -3.25855 -0.220543 0
M  V30 6226 H 591.1 -3.13028 1.90811 0
M  V30 6227 H 590.748 -5.02051 0.308757 0
M  V30 6228 H 590.448 -5.52892 1.98958 0
M  V30 6229 H 591.972 -5.99096 1.17967 0
M  V30 6230 H 593.386 -4.80977 3.11983 0
M  V30 6231 H 591.783 -4.58044 3.87705 0
M  V30 6232 H 592.853 -3.18412 3.65707 0
M  V30 6233 N 594.196 -1.08629 -1.14182 0
M  V30 6234 C 595.421 -0.83902 -1.89671 0
M  V30 6235 C 595.846 0.603332 -1.78161 0
M  V30 6236 O 595.204 1.42301 -1.12339 0
M  V30 6237 C 595.252 -1.26854 -3.37551 0
M  V30 6238 O 594.356 -0.42188 -4.10236 0
M  V30 6239 H 593.697 -0.304545 -0.590041 0
M  V30 6240 H 596.227 -1.4483 -1.44518 0
M  V30 6241 H 596.237 -1.25038 -3.88368 0
M  V30 6242 H 594.912 -2.31901 -3.45246 0
M  V30 6243 H 593.489 -0.503654 -3.69483 0
M  V30 6244 N 595.674 1.31259 -0.872281 0
M  V30 6245 C 596.922 1.96233 -0.483409 0
M  V30 6246 C 597.243 1.69276 0.968012 0
M  V30 6247 O 596.513 1.00943 1.67891 0
M  V30 6248 H 595.093 0.726025 -0.175774 0
M  V30 6249 H 597.755 1.60024 -1.11258 0
M  V30 6250 H 596.851 3.05403 -0.643075 0
M  V30 6251 N 597.152 0.631951 1.44375 0
M  V30 6252 C 598.1 -0.0846693 2.32446 0
M  V30 6253 C 599.094 -0.834957 1.47393 0
M  V30 6254 O 600.3 -0.747764 1.63733 0
M  V30 6255 H 596.675 -0.0461508 0.750583 0
M  V30 6256 H 598.646 0.67619 2.90638 0
M  V30 6257 C 597.395 -1.05211 3.314 0
M  V30 6258 H 596.718 -0.484203 3.96857 0
M  V30 6259 H 598.158 -1.523 3.95703 0
M  V30 6260 C 596.617 -2.13776 2.60387 0
M  V30 6261 O 597.147 -3.21869 2.4034 0
M  V30 6262 N 595.353 -1.89733 2.20113 0
M  V30 6263 H 594.9 -1.01833 2.36618 0
M  V30 6264 H 594.858 -2.62572 1.72926 0
M  V30 6265 N 598.631 -1.53133 0.372548 0
M  V30 6266 C 599.563 -2.23557 -0.505444 0
M  V30 6267 C 600.576 -1.25211 -1.04049 0
M  V30 6268 O 601.765 -1.51391 -0.945675 0
M  V30 6269 C 598.865 -2.92516 -1.71136 0
M  V30 6270 C 598.038 -4.17428 -1.30661 0
M  V30 6271 C 597.097 -4.69535 -2.37536 0
M  V30 6272 O 596.123 -5.33042 -1.99637 0
M  V30 6273 N 597.325 -4.47947 -3.6922 0
M  V30 6274 H 600.09 -2.9954 0.0978259 0
M  V30 6275 H 597.651 -1.60684 0.198068 0
M  V30 6276 H 599.643 -3.24281 -2.42124 0
M  V30 6277 H 598.213 -2.19944 -2.22134 0
M  V30 6278 H 597.433 -3.91888 -0.426292 0
M  V30 6279 H 598.721 -4.98622 -1.01259 0
M  V30 6280 H 598.119 -3.97219 -4.02783 0
M  V30 6281 H 596.676 -4.84245 -4.36292 0
M  V30 6282 N 600.109 -0.101901 -1.5727 0
M  V30 6283 C 601.337 0.568392 -1.98939 0
M  V30 6284 C 601.752 1.61301 -0.981194 0
M  V30 6285 O 601.109 1.82478 0.0282869 0
M  V30 6286 C 601.16 1.20997 -3.40649 0
M  V30 6287 O 600.881 0.207129 -4.3761 0
M  V30 6288 C 602.382 1.96523 -3.97358 0
M  V30 6289 H 599.602 0.15186 -0.65359 0
M  V30 6290 H 602.146 -0.183198 -2.03678 0
M  V30 6291 H 600.301 1.91245 -3.36904 0
M  V30 6292 H 600.715 0.671071 -5.20189 0
M  V30 6293 H 602.189 2.36764 -4.98645 0
M  V30 6294 H 602.666 2.83376 -3.35552 0
M  V30 6295 H 603.272 1.31076 -4.04598 0
M  V30 6296 N 601.587 1.56661 0.17182 0
M  V30 6297 C 602.517 1.99401 1.21498 0
M  V30 6298 C 603.498 0.869516 1.46197 0
M  V30 6299 O 604.683 1.13556 1.57539 0
M  V30 6300 C 601.813 2.35346 2.55401 0
M  V30 6301 C 600.767 3.5075 2.45272 0
M  V30 6302 C 600.093 3.72437 3.8366 0
M  V30 6303 C 601.393 4.84216 1.95787 0
M  V30 6304 H 603.087 2.86792 0.859699 0
M  V30 6305 H 600.633 1.37977 0.412103 0
M  V30 6306 H 602.586 2.63843 3.2858 0
M  V30 6307 H 601.31 1.44864 2.92715 0
M  V30 6308 H 599.969 3.2238 1.74547 0
M  V30 6309 H 599.617 2.79246 4.18367 0
M  V30 6310 H 599.317 4.50087 3.77751 0
M  V30 6311 H 600.841 4.03334 4.58426 0
M  V30 6312 H 602.255 5.11592 2.5874 0
M  V30 6313 H 600.652 5.65498 2.00827 0
M  V30 6314 H 601.722 4.76243 0.912159 0
M  V30 6315 N 603.065 -0.440357 1.51323 0
M  V30 6316 C 604.293 -1.21255 1.67645 0
M  V30 6317 C 604.708 -1.85088 0.37252 0
M  V30 6318 O 604.065 -1.70582 -0.648683 0
M  V30 6319 C 604.116 -2.29881 2.78993 0
M  V30 6320 O 603.837 -1.68659 4.04334 0
M  V30 6321 C 605.338 -3.20214 3.06558 0
M  V30 6322 H 602.558 -0.36558 0.562666 0
M  V30 6323 H 605.102 -0.52214 1.97722 0
M  V30 6324 H 603.257 -2.94643 2.51524 0
M  V30 6325 H 603.671 -2.40426 4.6615 0
M  V30 6326 H 605.145 -3.92575 3.88058 0
M  V30 6327 H 605.622 -3.80794 2.18844 0
M  V30 6328 H 606.228 -2.61156 3.35675 0
M  V30 6329 N 604.543 -1.41418 -0.695603 0
M  V30 6330 C 605.82 -1.31264 -1.45014 0
M  V30 6331 C 606.2 0.0597994 -2.11015 0
M  V30 6332 O 605.548 1.07403 -2.01685 0
M  V30 6333 C 605.758 -2.466 -2.4696 0
M  V30 6334 C 607.106 -2.87763 -3.12214 0
M  V30 6335 O 608.13 -2.46339 -2.57285 0
M  V30 6336 O 606.989 -3.59395 -4.11701 0
M  V30 6337 H 604.083 -0.516576 -0.645816 0
M  V30 6338 H 606.629 -1.53382 -0.726084 0
M  V30 6339 H 605.401 -3.38183 -1.96845 0
M  V30 6340 H 605.024 -2.26358 -3.26876 0
M  V30 6341 N 606.021 0.929856 -1.27246 0
M  V30 6342 C 606.953 2.03434 -1.0558 0
M  V30 6343 C 607.966 1.62795 -0.0125762 0
M  V30 6344 O 609.155 1.76685 -0.2539 0
M  V30 6345 C 606.255 3.33915 -0.57912 0
M  V30 6346 C 605.428 4.03259 -1.69415 0
M  V30 6347 C 604.487 5.12014 -1.21357 0
M  V30 6348 O 603.513 5.36097 -1.91282 0
M  V30 6349 N 604.715 5.8046 -0.0680622 0
M  V30 6350 H 607.48 2.22583 -2.00691 0
M  V30 6351 H 605.041 1.1001 -1.18783 0
M  V30 6352 H 607.033 4.03978 -0.241563 0
M  V30 6353 H 605.603 3.11355 0.278703 0
M  V30 6354 H 604.823 3.26958 -2.20209 0
M  V30 6355 H 606.111 4.46337 -2.44255 0
M  V30 6356 H 605.509 5.63345 0.515626 0
M  V30 6357 H 604.066 6.51461 0.210332 0
M  V30 6358 N 607.499 1.09233 1.13605 0
M  V30 6359 C 608.724 0.849067 1.89224 0
M  V30 6360 C 609.149 -0.593875 1.78479 0
M  V30 6361 O 608.507 -1.41703 1.13092 0
M  V30 6362 C 608.555 1.28642 3.36873 0
M  V30 6363 O 607.659 0.44363 4.10007 0
M  V30 6364 H 607 0.30767 0.588417 0
M  V30 6365 H 609.53 1.45595 1.43748 0
M  V30 6366 H 609.54 1.27096 3.87699 0
M  V30 6367 H 608.215 2.33729 3.44011 0
M  V30 6368 H 606.792 0.523241 3.69211 0
M  V30 6369 N 608.977 -1.30795 0.87923 0
M  V30 6370 C 610.226 -1.95636 0.490875 0
M  V30 6371 C 610.539 -1.70214 -0.963674 0
M  V30 6372 O 611.745 -2.28991 -1.45861 0
M  V30 6373 C 610.201 -3.50271 0.826929 0
M  V30 6374 C 609.809 -3.84521 2.29886 0
M  V30 6375 C 611.553 -4.21456 0.507494 0
M  V30 6376 C 609.46 -5.32309 2.57685 0
M  V30 6377 H 608.39 -0.732238 0.179841 0
M  V30 6378 H 611.041 -1.48829 1.07341 0
M  V30 6379 H 609.423 -3.9562 0.173542 0
M  V30 6380 H 610.597 -3.50102 2.99609 0
M  V30 6381 H 608.912 -3.26425 2.58526 0
M  V30 6382 H 611.509 -5.30199 0.692293 0
M  V30 6383 H 611.852 -4.12614 -0.552718 0
M  V30 6384 H 612.385 -3.81772 1.11782 0
M  V30 6385 H 609.124 -5.46195 3.62424 0
M  V30 6386 H 608.644 -5.68048 1.92566 0
M  V30 6387 H 610.323 -5.99678 2.42889 0
M  V30 6388 N 610.455 -0.639598 -1.44038 0
M  V30 6389 C 611.701 -0.147698 -2.02261 0
M  V30 6390 C 612.034 1.23031 -1.50256 0
M  V30 6391 O 611.309 1.81847 -0.690068 0
M  V30 6392 C 611.592 -0.14362 -3.59813 0
M  V30 6393 C 611.445 -1.55458 -4.22082 0
M  V30 6394 C 612.764 0.527317 -4.36929 0
M  V30 6395 H 609.883 -0.0551453 -0.734934 0
M  V30 6396 H 612.525 -0.817688 -1.71505 0
M  V30 6397 H 610.675 0.426898 -3.86147 0
M  V30 6398 H 612.347 -2.17464 -4.06826 0
M  V30 6399 H 610.59 -2.10594 -3.79253 0
M  V30 6400 H 611.261 -1.50369 -5.31124 0
M  V30 6401 H 613.737 0.0420504 -4.16079 0
M  V30 6402 H 612.613 0.499389 -5.46624 0
M  V30 6403 H 612.874 1.59914 -4.12165 0
M  V30 6404 N 611.933 1.52934 -0.380664 0
M  V30 6405 C 613.18 2.01467 0.204278 0
M  V30 6406 C 613.508 1.26744 1.47533 0
M  V30 6407 O 612.763 0.353723 1.92477 0
M  V30 6408 C 613.062 3.5349 0.527199 0
M  V30 6409 C 612.728 4.46171 -0.651295 0
M  V30 6410 C 611.39 4.71227 -0.974619 0
M  V30 6411 C 613.742 5.00909 -1.44012 0
M  V30 6412 C 611.07 5.4827 -2.08847 0
M  V30 6413 C 613.422 5.7917 -2.5445 0
M  V30 6414 C 612.086 6.02507 -2.87301 0
M  V30 6415 H 611.356 0.73722 0.0747504 0
M  V30 6416 H 614.003 1.84411 -0.516234 0
M  V30 6417 H 612.308 3.68574 1.32892 0
M  V30 6418 H 614.005 3.88529 0.992283 0
M  V30 6419 H 610.595 4.26829 -0.389276 0
M  V30 6420 H 614.779 4.81485 -1.20357 0
M  V30 6421 H 610.035 5.64567 -2.34679 0
M  V30 6422 H 614.209 6.20588 -3.1598 0
M  V30 6423 H 611.836 6.61989 -3.7373 0
M  V30 6424 N 613.412 0.11024 1.57214 0
M  V30 6425 C 614.344 -0.873497 2.11902 0
M  V30 6426 C 615.357 -1.23588 1.05971 0
M  V30 6427 O 616.546 -1.18636 1.33371 0
M  V30 6428 C 613.646 -2.17805 2.59643 0
M  V30 6429 C 612.819 -1.98869 3.89576 0
M  V30 6430 C 611.878 -3.12974 4.23006 0
M  V30 6431 O 610.904 -2.86272 4.91973 0
M  V30 6432 N 612.106 -4.39167 3.79622 0
M  V30 6433 H 614.871 -0.406317 2.96933 0
M  V30 6434 H 612.432 -0.074437 1.61729 0
M  V30 6435 H 614.424 -2.93117 2.79042 0
M  V30 6436 H 612.994 -2.55899 1.7954 0
M  V30 6437 H 612.214 -1.078 3.79174 0
M  V30 6438 H 613.502 -1.83512 4.74553 0
M  V30 6439 H 612.9 -4.63739 3.2398 0
M  V30 6440 H 611.457 -5.11379 4.04147 0
M  V30 6441 N 614.89 -1.56749 -0.16351 0
M  V30 6442 C 616.138 -1.82074 -0.87713 0
M  V30 6443 C 616.459 -0.688503 -1.82441 0
M  V30 6444 O 615.729 0.291085 -1.93725 0
M  V30 6445 H 614.309 -0.671677 -0.326893 0
M  V30 6446 H 616.971 -1.9423 -0.161459 0
M  V30 6447 H 616.067 -2.76407 -1.44934 0
M  V30 6448 N 616.368 0.432326 -1.51554 0
M  V30 6449 C 617.593 1.20824 -1.68571 0
M  V30 6450 C 618.018 1.84126 -0.384596 0
M  V30 6451 O 617.376 1.69025 0.655751 0
M  V30 6452 C 617.424 2.26429 -2.80646 0
M  V30 6453 O 616.528 3.32032 -2.44598 0
M  V30 6454 H 615.869 0.353765 -0.561913 0
M  V30 6455 H 618.399 0.509916 -1.98144 0
M  V30 6456 H 618.409 2.71133 -3.04878 0
M  V30 6457 H 617.084 1.79733 -3.75058 0
M  V30 6458 H 615.661 2.92769 -2.30956 0
M  V30 6459 N 617.846 1.41785 0.688094 0
M  V30 6460 C 618.809 1.43936 1.78368 0
M  V30 6461 C 619.809 0.328866 1.57401 0
M  V30 6462 O 620.999 0.589093 1.63937 0
M  V30 6463 C 618.131 1.25804 3.16838 0
M  V30 6464 H 619.324 2.41472 1.77852 0
M  V30 6465 H 616.877 1.28037 0.896448 0
M  V30 6466 H 617.612 0.291386 3.22988 0
M  V30 6467 H 617.397 2.06272 3.33458 0
M  V30 6468 H 618.887 1.30162 3.96797 0
M  V30 6469 N 619.324 -0.923095 1.27737 0
M  V30 6470 C 620.735 -1.48626 1.12993 0
M  V30 6471 C 621.086 -1.94142 -0.283439 0
M  V30 6472 O 620.211 -1.81605 -1.17681 0
M  V30 6473 C 620.806 -2.70117 2.04505 0
M  V30 6474 C 619.365 -3.22642 1.93853 0
M  V30 6475 C 618.512 -1.95368 1.96791 0
M  V30 6476 H 621.463 -0.736737 1.40563 0
M  V30 6477 H 621.484 -3.4506 1.60356 0
M  V30 6478 H 620.996 -2.36959 3.07363 0
M  V30 6479 H 619.097 -3.60549 0.939968 0
M  V30 6480 H 619.21 -3.88525 2.80331 0
M  V30 6481 H 617.574 -2.12061 1.41076 0
M  V30 6482 H 618.357 -1.64517 3.01312 0
M  V30 6483 N 620.802 -1.09834 -1.13024 0
M  V30 6484 C 622.051 -0.831806 -1.83749 0
M  V30 6485 C 622.364 0.644763 -1.84668 0
M  V30 6486 O 623.57 1.02697 -2.51327 0
M  V30 6487 C 622.026 -1.43817 -3.29916 0
M  V30 6488 C 621.634 -2.94759 -3.37374 0
M  V30 6489 C 623.378 -1.25077 -4.05655 0
M  V30 6490 C 621.285 -3.48461 -4.77838 0
M  V30 6491 H 620.215 -0.30751 -0.688443 0
M  V30 6492 H 622.866 -1.32156 -1.27307 0
M  V30 6493 H 621.248 -0.876106 -3.86187 0
M  V30 6494 H 622.422 -3.57228 -2.91076 0
M  V30 6495 H 620.737 -3.12581 -2.75103 0
M  V30 6496 H 623.334 -1.62649 -5.09362 0
M  V30 6497 H 623.677 -0.191782 -4.15858 0
M  V30 6498 H 624.21 -1.78057 -3.55725 0
M  V30 6499 H 620.949 -4.53998 -4.72828 0
M  V30 6500 H 620.469 -2.90757 -5.24615 0
M  V30 6501 H 622.148 -3.45914 -5.46766 0
M  V30 6502 N 622.28 1.30327 -0.886154 0
M  V30 6503 C 623.228 2.30052 -0.343317 0
M  V30 6504 C 624.222 1.60212 0.550305 0
M  V30 6505 O 625.428 1.74674 0.434609 0
M  V30 6506 H 621.803 0.746306 -0.0923681 0
M  V30 6507 H 623.774 2.73294 -1.19804 0
M  V30 6508 C 622.523 3.45079 0.426107 0
M  V30 6509 H 621.846 3.99003 -0.25227 0
M  V30 6510 H 623.286 4.16931 0.771009 0
M  V30 6511 C 621.745 2.95195 1.62363 0
M  V30 6512 O 622.275 2.95323 2.723 0
M  V30 6513 N 620.481 2.51192 1.4612 0
M  V30 6514 H 620.028 2.51286 0.566832 0
M  V30 6515 H 619.986 2.18173 2.2638 0
M  V30 6516 N 623.758 0.647228 1.43697 0
M  V30 6517 C 624.983 0.164083 2.0675 0
M  V30 6518 C 625.408 -1.15892 1.48158 0
M  V30 6519 O 624.766 -1.71459 0.589194 0
M  V30 6520 C 624.814 0.0800368 3.60511 0
M  V30 6521 O 623.918 -0.959453 4.01084 0
M  V30 6522 H 623.259 0.0921288 0.657578 0
M  V30 6523 H 625.789 0.88846 1.84303 0
M  V30 6524 H 625.799 -0.105263 4.07864 0
M  V30 6525 H 624.474 1.04586 4.02535 0
M  V30 6526 H 623.051 -0.747425 3.65333 0
M  V30 6527 N 625.236 -1.5273 0.388769 0
M  V30 6528 C 626.482 -2.02545 -0.186351 0
M  V30 6529 C 626.837 -1.27017 -1.44514 0
M  V30 6530 O 626.13 -0.361948 -1.8815 0
M  V30 6531 C 626.324 -3.53765 -0.508445 0
M  V30 6532 C 626.153 -4.43938 0.71758 0
M  V30 6533 C 624.923 -4.89933 1.23668 0
M  V30 6534 C 627.121 -4.89113 1.58974 0
M  V30 6535 N 625.103 -5.64176 2.42031 0
M  V30 6536 C 626.474 -5.61931 2.61979 0
M  V30 6537 C 628.529 -4.71155 1.60989 0
M  V30 6538 C 627.232 -6.18698 3.66886 0
M  V30 6539 C 629.258 -5.28804 2.64803 0
M  V30 6540 C 628.62 -6.01527 3.6653 0
M  V30 6541 H 624.719 -0.781413 -0.0302921 0
M  V30 6542 H 627.303 -1.87104 0.538539 0
M  V30 6543 H 625.474 -3.6932 -1.20239 0
M  V30 6544 H 627.206 -3.9028 -1.07067 0
M  V30 6545 H 623.961 -4.66833 0.797763 0
M  V30 6546 H 624.385 -6.05949 3.01919 0
M  V30 6547 H 629.027 -4.14435 0.836881 0
M  V30 6548 H 626.745 -6.74501 4.45055 0
M  V30 6549 H 630.331 -5.1679 2.67245 0
M  V30 6550 H 629.211 -6.45339 4.45542 0
M  V30 6551 N 626.714 -0.118576 -1.57153 0
M  V30 6552 C 627.944 0.546466 -1.99242 0
M  V30 6553 C 628.352 1.60791 -0.997148 0
M  V30 6554 O 627.695 1.83691 0.0181745 0
M  V30 6555 C 627.757 1.23167 -3.37743 0
M  V30 6556 C 627.421 0.318226 -4.55891 0
M  V30 6557 C 628.418 -0.442988 -5.18009 0
M  V30 6558 C 626.103 0.229421 -5.01776 0
M  V30 6559 C 628.097 -1.28074 -6.244 0
M  V30 6560 C 625.784 -0.611966 -6.08028 0
M  V30 6561 C 626.782 -1.36568 -6.69207 0
M  V30 6562 O 626.47 -2.1931 -7.73407 0
M  V30 6563 H 626.202 0.149297 -0.659307 0
M  V30 6564 H 628.756 -0.201603 -2.04408 0
M  V30 6565 H 626.986 2.0268 -3.29329 0
M  V30 6566 H 628.675 1.79358 -3.64123 0
M  V30 6567 H 629.441 -0.38425 -4.83475 0
M  V30 6568 H 625.32 0.805771 -4.53903 0
M  V30 6569 H 628.864 -1.86952 -6.72082 0
M  V30 6570 H 624.761 -0.6721 -6.41991 0
M  V30 6571 H 625.529 -2.12247 -7.90502 0
M  V30 6572 N 628.193 1.56834 0.155195 0
M  V30 6573 C 629.421 1.87049 0.884326 0
M  V30 6574 C 629.836 0.705839 1.7511 0
M  V30 6575 O 629.193 -0.324641 1.79589 0
M  V30 6576 C 629.244 3.1644 1.74781 0
M  V30 6577 O 628.965 4.28417 0.915978 0
M  V30 6578 C 630.466 3.60113 2.58522 0
M  V30 6579 H 627.686 0.620196 0.25612 0
M  V30 6580 H 630.23 2.03946 0.150445 0
M  V30 6581 H 628.385 3.01321 2.43484 0
M  V30 6582 H 628.799 5.02353 1.50803 0
M  V30 6583 H 630.273 4.53508 3.14698 0
M  V30 6584 H 630.75 2.85005 3.34169 0
M  V30 6585 H 631.356 3.77898 1.95124 0
M  V30 6586 N 629.671 -0.424282 1.51781 0
M  V30 6587 C 630.603 -1.53457 1.70246 0
M  V30 6588 C 631.616 -1.52004 0.582967 0
M  V30 6589 O 632.805 -1.56544 0.857683 0
M  V30 6590 C 629.905 -2.92368 1.71389 0
M  V30 6591 C 629.078 -3.1818 3.00133 0
M  V30 6592 C 628.137 -4.36884 2.9329 0
M  V30 6593 O 627.163 -4.34901 3.67219 0
M  V30 6594 N 628.365 -5.4117 2.10036 0
M  V30 6595 H 631.13 -1.38017 2.66029 0
M  V30 6596 H 628.691 -0.613394 1.4983 0
M  V30 6597 H 630.683 -3.6982 1.64362 0
M  V30 6598 H 629.253 -3.0134 0.831449 0
M  V30 6599 H 628.473 -2.28908 3.20928 0
M  V30 6600 H 629.761 -3.32261 3.85331 0
M  V30 6601 H 629.159 -5.45623 1.49373 0
M  V30 6602 H 627.716 -6.17425 2.08878 0
M  V30 6603 N 631.149 -1.42148 -0.680565 0
M  V30 6604 C 632.112 -1.4488 -1.77602 0
M  V30 6605 C 633.112 -0.337209 -1.57224 0
M  V30 6606 O 634.302 -0.597778 -1.63622 0
M  V30 6607 C 631.434 -1.27483 -3.16166 0
M  V30 6608 H 632.627 -2.42412 -1.76568 0
M  V30 6609 H 630.18 -1.28511 -0.889645 0
M  V30 6610 H 630.915 -0.30851 -3.22829 0
M  V30 6611 H 630.7 -2.08037 -3.3236 0
M  V30 6612 H 632.19 -1.32265 -3.96101 0
M  V30 6613 N 632.627 0.916307 -1.28225 0
M  V30 6614 C 633.857 1.69654 -1.17902 0
M  V30 6615 C 634.265 1.87331 0.265268 0
M  V30 6616 O 633.608 1.39828 1.19137 0
M  V30 6617 C 633.67 3.11024 -1.80289 0
M  V30 6618 C 633.334 3.16643 -3.29525 0
M  V30 6619 C 634.331 2.98032 -4.25997 0
M  V30 6620 C 632.016 3.39238 -3.70436 0
M  V30 6621 C 634.01 3.01924 -5.61356 0
M  V30 6622 C 631.697 3.42762 -5.05922 0
M  V30 6623 C 632.695 3.24125 -6.01192 0
M  V30 6624 O 632.383 3.27406 -7.34208 0
M  V30 6625 H 632.115 0.537197 -0.41036 0
M  V30 6626 H 634.669 1.15547 -1.69817 0
M  V30 6627 H 632.899 3.66662 -1.22865 0
M  V30 6628 H 634.588 3.71063 -1.6452 0
M  V30 6629 H 635.354 2.80405 -3.95725 0
M  V30 6630 H 631.233 3.52791 -2.96749 0
M  V30 6631 H 634.777 2.87295 -6.35694 0
M  V30 6632 H 630.674 3.59916 -5.35846 0
M  V30 6633 H 631.442 3.43784 -7.42802 0
M  V30 6634 N 634.105 1.10431 1.1244 0
M  V30 6635 C 635.353 0.845045 1.83585 0
M  V30 6636 C 635.674 -0.631168 1.84503 0
M  V30 6637 O 634.944 -1.45825 1.30813 0
M  V30 6638 H 633.524 0.309628 0.679809 0
M  V30 6639 H 636.186 1.39458 1.36153 0
M  V30 6640 H 635.282 1.20786 2.8778 0
M  V30 6641 N 635.583 -1.29855 0.893053 0
M  V30 6642 C 636.808 -2.00512 0.530066 0
M  V30 6643 C 637.233 -1.66446 -0.876199 0
M  V30 6644 O 636.591 -0.885446 -1.58207 0
M  V30 6645 C 636.639 -3.53308 0.721505 0
M  V30 6646 O 635.743 -4.11764 -0.228994 0
M  V30 6647 H 635.084 -0.630617 0.207891 0
M  V30 6648 H 637.614 -1.6551 1.20282 0
M  V30 6649 H 637.624 -4.03206 0.623599 0
M  V30 6650 H 636.299 -3.77439 1.74678 0
M  V30 6651 H 634.876 -3.72805 -0.0841034 0
M  V30 6652 N 637.061 -0.65484 -1.43351 0
M  V30 6653 C 638.308 -0.168892 -2.01794 0
M  V30 6654 C 638.636 1.2177 -1.51665 0
M  V30 6655 O 637.891 1.82717 -0.70092 0
M  V30 6656 C 638.19 -0.130424 -3.57162 0
M  V30 6657 C 637.856 -1.45898 -4.26643 0
M  V30 6658 C 636.518 -1.82279 -4.4534 0
M  V30 6659 C 638.87 -2.33485 -4.65976 0
M  V30 6660 C 636.198 -3.0591 -5.00635 0
M  V30 6661 C 638.55 -3.5641 -5.22642 0
M  V30 6662 C 637.214 -3.92985 -5.39555 0
M  V30 6663 H 636.484 -0.061802 -0.738418 0
M  V30 6664 H 639.131 -0.845869 -1.71806 0
M  V30 6665 H 637.436 0.630008 -3.86702 0
M  V30 6666 H 639.133 0.262465 -4.0014 0
M  V30 6667 H 635.723 -1.16591 -4.12437 0
M  V30 6668 H 639.907 -2.06668 -4.51223 0
M  V30 6669 H 635.163 -3.34295 -5.11915 0
M  V30 6670 H 639.337 -4.24495 -5.52066 0
M  V30 6671 H 636.964 -4.88862 -5.82167 0
M  V30 6672 N 638.539 1.52521 -0.396863 0
M  V30 6673 C 639.95 1.86547 0.0754868 0
M  V30 6674 C 640.301 1.31621 1.45501 0
M  V30 6675 O 639.426 0.650563 2.0639 0
M  V30 6676 C 640.021 3.38495 0.143754 0
M  V30 6677 C 638.58 3.72205 0.560413 0
M  V30 6678 C 637.727 2.75954 -0.272856 0
M  V30 6679 H 640.678 1.46323 -0.614434 0
M  V30 6680 H 640.699 3.68153 0.961425 0
M  V30 6681 H 640.211 3.78442 -0.860415 0
M  V30 6682 H 638.312 3.3783 1.57167 0
M  V30 6683 H 638.425 4.78074 0.313314 0
M  V30 6684 H 636.789 2.53339 0.263 0
M  V30 6685 H 637.572 3.1874 -1.27515 0
M  V30 6686 N 640.017 0.126909 1.57088 0
M  V30 6687 C 641.266 -0.529024 1.94639 0
M  V30 6688 C 641.579 -1.67323 1.01304 0
M  V30 6689 O 642.785 -2.39245 1.28352 0
M  V30 6690 C 641.241 -0.992483 3.45945 0
M  V30 6691 C 640.849 0.123691 4.47829 0
M  V30 6692 C 642.593 -1.61934 3.924 0
M  V30 6693 C 640.5 -0.356911 5.90322 0
M  V30 6694 H 639.43 -0.201397 0.726605 0
M  V30 6695 H 642.081 0.208032 1.82317 0
M  V30 6696 H 640.463 -1.7842 3.53528 0
M  V30 6697 H 641.637 0.900168 4.51922 0
M  V30 6698 H 639.952 0.657699 4.11173 0
M  V30 6699 H 642.549 -1.9902 4.96281 0
M  V30 6700 H 642.892 -2.50075 3.32819 0
M  V30 6701 H 643.425 -0.892894 3.8765 0
M  V30 6702 H 640.164 0.488636 6.53676 0
M  V30 6703 H 639.684 -1.0997 5.89633 0
M  V30 6704 H 641.363 -0.815547 6.41839 0
M  V30 6705 N 641.495 -1.56914 -0.146875 0
M  V30 6706 C 642.723 -1.87515 -0.874394 0
M  V30 6707 C 643.138 -0.715116 -1.74733 0
M  V30 6708 O 642.495 0.315113 -1.79759 0
M  V30 6709 C 642.546 -3.17362 -1.731 0
M  V30 6710 O 642.267 -4.28897 -0.893245 0
M  V30 6711 C 643.768 -3.61479 -2.56609 0
M  V30 6712 H 640.988 -0.621546 -0.252827 0
M  V30 6713 H 643.532 -2.04023 -0.139627 0
M  V30 6714 H 641.687 -3.02608 -2.41883 0
M  V30 6715 H 642.101 -5.03146 -1.48137 0
M  V30 6716 H 643.575 -4.5517 -3.12289 0
M  V30 6717 H 644.052 -2.86773 -3.32653 0
M  V30 6718 H 644.658 -3.78927 -1.93117 0
M  V30 6719 N 642.974 0.416227 -1.52004 0
M  V30 6720 C 643.937 1.48926 -1.74223 0
M  V30 6721 C 644.937 1.48693 -0.612119 0
M  V30 6722 O 646.127 1.50343 -0.879921 0
M  V30 6723 C 643.259 2.88372 -1.81809 0
M  V30 6724 H 644.452 1.3052 -2.70008 0
M  V30 6725 H 642.005 0.646271 -1.42313 0
M  V30 6726 H 642.74 3.12157 -0.879135 0
M  V30 6727 H 642.525 2.89944 -2.6396 0
M  V30 6728 H 644.015 3.66173 -2.00766 0
M  V30 6729 N 644.452 1.42507 0.673017 0
M  V30 6730 C 645.698 1.43284 1.43519 0
M  V30 6731 C 646.031 0.049668 1.94136 0
M  V30 6732 O 645.306 -0.926369 1.71022 0
M  V30 6733 C 645.589 2.45874 2.63093 0
M  V30 6734 C 645.442 3.93388 2.18096 0
M  V30 6735 C 646.761 2.45431 3.6531 0
M  V30 6736 H 643.88 0.521752 0.520522 0
M  V30 6737 H 646.522 1.73932 0.764701 0
M  V30 6738 H 644.672 2.19869 3.20296 0
M  V30 6739 H 646.344 4.30379 1.66046 0
M  V30 6740 H 644.587 4.07169 1.49652 0
M  V30 6741 H 645.258 4.60752 3.03993 0
M  V30 6742 H 647.734 2.68561 3.17827 0
M  V30 6743 H 646.61 3.19189 4.46553 0
M  V30 6744 H 646.871 1.48092 4.16559 0
M  V30 6745 N 645.93 -0.909495 1.28709 0
M  V30 6746 C 646.862 -2.01729 1.08804 0
M  V30 6747 C 647.875 -1.62755 0.0384739 0
M  V30 6748 O 649.064 -1.76259 0.281977 0
M  V30 6749 C 646.164 -3.32952 0.63217 0
M  V30 6750 C 645.337 -4.00512 1.75809 0
M  V30 6751 C 644.396 -5.10019 1.29488 0
M  V30 6752 O 643.422 -5.32986 1.99787 0
M  V30 6753 N 644.624 -5.80278 0.1604 0
M  V30 6754 H 647.389 -2.19362 2.04207 0
M  V30 6755 H 644.95 -1.08106 1.20518 0
M  V30 6756 H 646.942 -4.03543 0.305802 0
M  V30 6757 H 645.512 -3.11759 -0.229134 0
M  V30 6758 H 644.732 -3.23413 2.25383 0
M  V30 6759 H 646.02 -4.42395 2.51325 0
M  V30 6760 H 645.418 -5.64094 -0.425937 0
M  V30 6761 H 643.975 -6.51713 -0.106663 0
M  V30 6762 N 647.408 -1.11026 -1.11852 0
M  V30 6763 C 648.371 -0.768006 -2.1595 0
M  V30 6764 C 649.371 0.210538 -1.59416 0
M  V30 6765 O 650.561 -0.0133978 -1.74195 0
M  V30 6766 C 647.693 -0.138678 -3.40618 0
M  V30 6767 H 648.886 -1.69012 -2.4774 0
M  V30 6768 H 646.439 -0.911578 -1.26964 0
M  V30 6769 H 647.174 0.793872 -3.14433 0
M  V30 6770 H 646.959 -0.843012 -3.8293 0
M  V30 6771 H 648.449 0.0848039 -4.17514 0
M  V30 6772 N 648.886 1.2938 -0.899927 0
M  V30 6773 C 649.816 2.30144 -0.39446 0
M  V30 6774 C 650.797 1.61611 0.530639 0
M  V30 6775 O 651.982 1.89119 0.441319 0
M  V30 6776 C 649.112 3.45229 0.37868 0
M  V30 6777 C 648.066 4.25564 -0.456012 0
M  V30 6778 C 647.392 5.32848 0.444637 0
M  V30 6779 C 648.692 4.93651 -1.70605 0
M  V30 6780 H 650.386 2.72673 -1.23653 0
M  V30 6781 H 647.932 1.31086 -0.596034 0
M  V30 6782 H 649.885 4.14797 0.743037 0
M  V30 6783 H 648.609 3.01545 1.25453 0
M  V30 6784 H 647.268 3.57704 -0.802704 0
M  V30 6785 H 646.916 4.85408 1.31863 0
M  V30 6786 H 646.616 5.87497 -0.110154 0
M  V30 6787 H 648.14 6.05268 0.805182 0
M  V30 6788 H 649.554 5.55655 -1.41141 0
M  V30 6789 H 647.951 5.58233 -2.20217 0
M  V30 6790 H 649.021 4.18926 -2.4419 0
M  V30 6791 N 650.364 0.662433 1.43002 0
M  V30 6792 C 651.274 -0.0239199 2.34588 0
M  V30 6793 C 652.29 -0.802255 1.54402 0
M  V30 6794 O 653.466 -0.747401 1.87018 0
M  V30 6795 C 650.531 -0.972098 3.32793 0
M  V30 6796 C 649.592 -0.189673 4.28881 0
M  V30 6797 C 648.825 -1.09269 5.22395 0
M  V30 6798 O 649.048 -2.33209 5.20547 0
M  V30 6799 O 647.982 -0.560136 5.99288 0
M  V30 6800 H 651.808 0.730171 2.94792 0
M  V30 6801 H 649.393 0.422635 1.43297 0
M  V30 6802 H 651.275 -1.51676 3.93157 0
M  V30 6803 H 649.95 -1.70626 2.75079 0
M  V30 6804 H 648.857 0.398794 3.71968 0
M  V30 6805 H 650.19 0.50511 4.89601 0
M  V30 6806 N 651.842 -1.52309 0.404946 0
M  V30 6807 C 653.072 -2.05886 -0.171569 0
M  V30 6808 C 653.48 -1.27527 -1.39762 0
M  V30 6809 O 652.823 -0.319215 -1.80905 0
M  V30 6810 C 652.885 -3.54609 -0.590983 0
M  V30 6811 C 652.549 -4.53989 0.523757 0
M  V30 6812 C 653.546 -5.01084 1.38604 0
M  V30 6813 C 651.231 -4.97465 0.695255 0
M  V30 6814 C 653.225 -5.90295 2.4048 0
M  V30 6815 C 650.912 -5.86473 1.71733 0
M  V30 6816 C 651.91 -6.32782 2.57051 0
M  V30 6817 O 651.598 -7.20029 3.57509 0
M  V30 6818 H 651.33 -0.675508 -0.0257763 0
M  V30 6819 H 653.884 -1.97238 0.573278 0
M  V30 6820 H 652.114 -3.60929 -1.38805 0
M  V30 6821 H 653.803 -3.90853 -1.09494 0
M  V30 6822 H 654.569 -4.68214 1.26492 0
M  V30 6823 H 650.448 -4.60982 0.0408447 0
M  V30 6824 H 653.992 -6.26363 3.07108 0
M  V30 6825 H 649.889 -6.18756 1.83877 0
M  V30 6826 H 650.657 -7.3813 3.53703 0
M  V30 6827 N 653.32 -0.135238 -1.57019 0
M  V30 6828 C 654.545 0.529343 -2.00531 0
M  V30 6829 C 654.97 1.58391 -1.01459 0
M  V30 6830 O 654.328 1.81296 0.0113986 0
M  V30 6831 C 654.376 1.11748 -3.42848 0
M  V30 6832 O 653.48 2.23267 -3.46736 0
M  V30 6833 H 652.821 0.130669 -0.651016 0
M  V30 6834 H 655.351 -0.228503 -2.0332 0
M  V30 6835 H 655.361 1.44905 -3.81401 0
M  V30 6836 H 654.036 0.345147 -4.14465 0
M  V30 6837 H 652.613 1.91428 -3.20015 0
M  V30 6838 N 654.798 1.5699 0.138552 0
M  V30 6839 C 656.023 1.88344 0.86841 0
M  V30 6840 C 656.448 0.725159 1.7356 0
M  V30 6841 O 655.806 -0.324992 1.78363 0
M  V30 6842 C 655.854 3.18334 1.69398 0
M  V30 6843 O 654.958 3.02863 2.79907 0
M  V30 6844 H 654.299 0.618577 0.241367 0
M  V30 6845 H 656.829 2.04207 0.126826 0
M  V30 6846 H 656.839 3.50567 2.08726 0
M  V30 6847 H 655.514 4.02238 1.05725 0
M  V30 6848 H 654.091 2.82056 2.43924 0
M  V30 6849 N 656.276 -0.40816 1.52223 0
M  V30 6850 C 657.224 -1.51788 1.76248 0
M  V30 6851 C 658.218 -1.57264 0.629638 0
M  V30 6852 O 659.424 -1.60659 0.811704 0
M  V30 6853 H 655.799 -0.504823 0.557367 0
M  V30 6854 H 657.77 -1.2871 2.69214 0
M  V30 6855 C 656.519 -2.89145 1.93107 0
M  V30 6856 H 655.842 -2.85674 2.79697 0
M  V30 6857 H 657.282 -3.66082 2.13916 0
M  V30 6858 C 655.741 -3.29581 0.698431 0
M  V30 6859 O 656.271 -4.01479 -0.133238 0
M  V30 6860 N 654.477 -2.85651 0.53405 0
M  V30 6861 H 654.024 -2.2731 1.21194 0
M  V30 6862 H 653.982 -3.13065 -0.289387 0
M  V30 6863 N 657.755 -1.42862 -0.66545 0
M  V30 6864 C 658.983 -1.47246 -1.45349 0
M  V30 6865 C 659.398 -0.0865944 -1.88601 0
M  V30 6866 O 658.755 0.900652 -1.58728 0
M  V30 6867 C 658.806 -2.40772 -2.6965 0
M  V30 6868 O 658.527 -3.73968 -2.2821 0
M  V30 6869 C 660.028 -2.54272 -3.63126 0
M  V30 6870 H 657.248 -0.500497 -0.446927 0
M  V30 6871 H 659.792 -1.87477 -0.816871 0
M  V30 6872 H 657.947 -2.0377 -3.29479 0
M  V30 6873 H 658.361 -4.24146 -3.08546 0
M  V30 6874 H 659.835 -3.23815 -4.47043 0
M  V30 6875 H 660.312 -1.58364 -4.09656 0
M  V30 6876 H 660.918 -2.92036 -3.09185 0
M  V30 6877 N 659.233 0.902656 -1.29189 0
M  V30 6878 C 660.463 1.68394 -1.19695 0
M  V30 6879 C 660.871 1.87602 0.245384 0
M  V30 6880 O 660.214 1.41084 1.17648 0
M  V30 6881 C 660.276 3.09094 -1.83578 0
M  V30 6882 C 659.94 3.1313 -3.32864 0
M  V30 6883 C 660.937 2.93497 -4.29134 0
M  V30 6884 C 658.622 3.3529 -3.74013 0
M  V30 6885 C 660.616 2.95953 -5.64527 0
M  V30 6886 C 658.303 3.37377 -5.09529 0
M  V30 6887 C 659.301 3.1773 -6.04596 0
M  V30 6888 O 658.989 3.196 -7.37639 0
M  V30 6889 H 658.721 0.532815 -0.416034 0
M  V30 6890 H 661.275 1.1374 -1.71033 0
M  V30 6891 H 659.505 3.65338 -1.26747 0
M  V30 6892 H 661.194 3.69297 -1.68447 0
M  V30 6893 H 661.96 2.76192 -3.98677 0
M  V30 6894 H 657.839 3.49623 -3.00474 0
M  V30 6895 H 661.383 2.80536 -6.38706 0
M  V30 6896 H 657.28 3.54213 -5.39633 0
M  V30 6897 H 658.048 3.35887 -7.46406 0
M  V30 6898 N 660.711 1.11618 1.11262 0
M  V30 6899 C 661.644 0.719995 2.16544 0
M  V30 6900 C 662.622 -0.28471 1.60088 0
M  V30 6901 O 663.806 -0.180693 1.87632 0
M  V30 6902 C 660.933 0.0643302 3.38639 0
M  V30 6903 C 659.979 1.03448 4.13764 0
M  V30 6904 S 660.812 2.55789 4.70459 0
M  V30 6905 C 661.968 1.91529 5.95875 0
M  V30 6906 H 662.201 1.61181 2.49816 0
M  V30 6907 H 659.734 0.934401 1.22916 0
M  V30 6908 H 661.692 -0.307609 4.09346 0
M  V30 6909 H 660.353 -0.804471 3.03623 0
M  V30 6910 H 659.546 0.523188 5.01277 0
M  V30 6911 H 659.148 1.34893 3.48826 0
M  V30 6912 H 661.44 1.25286 6.65815 0
M  V30 6913 H 662.383 2.77047 6.51652 0
M  V30 6914 H 662.791 1.37468 5.47506 0
M  V30 6915 N 662.189 -1.289 0.906776 0
M  V30 6916 C 663.435 -1.95558 0.53712 0
M  V30 6917 C 663.768 -1.71262 -0.915582 0
M  V30 6918 O 663.043 -1.02961 -1.65013 0
M  V30 6919 C 663.326 -3.50198 0.838645 0
M  V30 6920 C 663.179 -3.83923 2.34357 0
M  V30 6921 C 664.498 -4.38861 0.329988 0
M  V30 6922 H 661.617 -0.710289 0.196617 0
M  V30 6923 H 664.259 -1.52392 1.13475 0
M  V30 6924 H 662.409 -3.87096 0.330024 0
M  V30 6925 H 664.081 -3.56933 2.92227 0
M  V30 6926 H 662.324 -3.31215 2.80141 0
M  V30 6927 H 662.995 -4.91883 2.5051 0
M  V30 6928 H 665.471 -4.08996 0.765609 0
M  V30 6929 H 664.347 -5.45931 0.570105 0
M  V30 6930 H 664.608 -4.35352 -0.769511 0
M  V30 6931 N 663.667 -0.670007 -1.42649 0
M  V30 6932 C 664.599 0.0501746 -2.29145 0
M  V30 6933 C 665.612 0.770331 -1.43422 0
M  V30 6934 O 666.801 0.625288 -1.6719 0
M  V30 6935 C 663.901 1.09463 -3.20735 0
M  V30 6936 C 663.074 0.44926 -4.35087 0
M  V30 6937 C 662.133 1.39285 -5.07431 0
M  V30 6938 O 661.159 0.894997 -5.6212 0
M  V30 6939 N 662.361 2.72631 -5.12496 0
M  V30 6940 H 665.126 -0.692312 -2.91594 0
M  V30 6941 H 662.687 -0.514056 -1.53522 0
M  V30 6942 H 664.679 1.72705 -3.65999 0
M  V30 6943 H 663.249 1.73891 -2.59771 0
M  V30 6944 H 662.469 -0.362573 -3.92529 0
M  V30 6945 H 663.757 -0.000544776 -5.088 0
M  V30 6946 H 663.155 3.15623 -4.69467 0
M  V30 6947 H 661.712 3.31132 -5.61422 0
M  V30 6948 N 665.145 1.52092 -0.413018 0
M  V30 6949 C 666.373 2.06274 0.160881 0
M  V30 6950 C 666.788 1.28273 1.38533 0
M  V30 6951 O 666.145 0.33563 1.79387 0
M  V30 6952 C 666.196 3.57921 0.507443 0
M  V30 6953 O 665.917 4.32971 -0.668388 0
M  V30 6954 C 667.418 4.28533 1.13465 0
M  V30 6955 H 664.638 0.67074 0.0186759 0
M  V30 6956 H 667.182 1.95951 -0.585092 0
M  V30 6957 H 665.337 3.68238 1.20331 0
M  V30 6958 H 665.751 5.23135 -0.378169 0
M  V30 6959 H 667.225 5.35804 1.32732 0
M  V30 6960 H 667.702 3.85258 2.10886 0
M  V30 6961 H 668.308 4.22595 0.478876 0
M  V30 6962 N 666.623 0.143563 1.56945 0
M  V30 6963 C 667.586 -0.783295 2.154 0
M  V30 6964 C 668.586 -1.17763 1.09492 0
M  V30 6965 O 669.776 -1.09912 1.35148 0
M  V30 6966 C 666.908 -2.06248 2.7143 0
M  V30 6967 H 668.101 -0.274863 2.98638 0
M  V30 6968 H 665.654 -0.105859 1.55941 0
M  V30 6969 H 666.389 -2.61466 1.91849 0
M  V30 6970 H 666.174 -1.78897 3.4891 0
M  V30 6971 H 667.664 -2.72453 3.16479 0
M  V30 6972 N 668.101 -1.57061 -0.130224 0
M  V30 6973 C 669.031 -2.02552 -1.16168 0
M  V30 6974 C 670.012 -0.907971 -1.4384 0
M  V30 6975 O 671.197 -1.17693 -1.54473 0
M  V30 6976 C 668.327 -2.42035 -2.49071 0
M  V30 6977 C 667.281 -3.5713 -2.35886 0
M  V30 6978 C 666.607 -3.82478 -3.7365 0
M  V30 6979 C 667.907 -4.89236 -1.8288 0
M  V30 6980 H 669.601 -2.8897 -0.783359 0
M  V30 6981 H 667.147 -1.39021 -0.375376 0
M  V30 6982 H 669.1 -2.72462 -3.21469 0
M  V30 6983 H 667.824 -1.52573 -2.88771 0
M  V30 6984 H 666.483 -3.26895 -1.65938 0
M  V30 6985 H 666.131 -2.9024 -4.10816 0
M  V30 6986 H 665.831 -4.59944 -3.65685 0
M  V30 6987 H 667.355 -4.15347 -4.47571 0
M  V30 6988 H 668.769 -5.18272 -2.45085 0
M  V30 6989 H 667.166 -5.70624 -1.85763 0
M  V30 6990 H 668.236 -4.78494 -0.785571 0
M  V30 6991 N 669.579 0.400081 -1.52437 0
M  V30 6992 C 670.827 1.14392 -1.6661 0
M  V30 6993 C 671.148 1.90792 -0.402927 0
M  V30 6994 O 670.418 1.87042 0.582425 0
M  V30 6995 H 668.998 0.425275 -0.614125 0
M  V30 6996 H 671.66 0.455076 -1.89513 0
M  V30 6997 H 670.756 1.85298 -2.51139 0
M  V30 6998 N 671.057 1.43213 0.657864 0
M  V30 6999 C 671.987 1.50815 1.78262 0
M  V30 7000 C 672.968 0.363211 1.66177 0
M  V30 7001 O 674.153 0.579806 1.85343 0
M  V30 7002 C 671.283 1.42625 3.16663 0
M  V30 7003 C 670.237 2.5532 3.43505 0
M  V30 7004 C 669.563 2.32184 4.81658 0
M  V30 7005 C 670.863 3.97583 3.38711 0
M  V30 7006 H 672.557 2.44954 1.72157 0
M  V30 7007 H 670.103 1.17896 0.82683 0
M  V30 7008 H 672.056 1.46548 3.95097 0
M  V30 7009 H 670.78 0.449877 3.23487 0
M  V30 7010 H 669.439 2.50742 2.6744 0
M  V30 7011 H 669.087 1.32801 4.85153 0
M  V30 7012 H 668.787 3.07724 5.00579 0
M  V30 7013 H 670.311 2.37883 5.62356 0
M  V30 7014 H 671.725 4.03673 4.07089 0
M  V30 7015 H 670.122 4.73112 3.69168 0
M  V30 7016 H 671.192 4.23049 2.36976 0
M  V30 7017 N 672.536 -0.895792 1.29666 0
M  V30 7018 C 673.469 -2.00238 1.09453 0
M  V30 7019 C 674.447 -1.62599 0.00527044 0
M  V30 7020 O 675.631 -1.87847 0.156729 0
M  V30 7021 C 672.758 -3.32066 0.667054 0
M  V30 7022 C 671.804 -3.88691 1.7556 0
M  V30 7023 S 672.637 -4.17317 3.35569 0
M  V30 7024 C 673.793 -5.52181 2.94698 0
M  V30 7025 H 674.026 -2.17076 2.03138 0
M  V30 7026 H 671.559 -1.04287 1.13858 0
M  V30 7027 H 673.517 -4.08272 0.427136 0
M  V30 7028 H 672.178 -3.13101 -0.250256 0
M  V30 7029 H 671.371 -4.83918 1.40853 0
M  V30 7030 H 670.973 -3.19187 1.94924 0
M  V30 7031 H 673.265 -6.3281 2.41986 0
M  V30 7032 H 674.208 -5.91817 3.88791 0
M  V30 7033 H 674.616 -5.14225 2.32879 0
M  V30 7034 N 674.014 -1.12206 -1.10668 0
M  V30 7035 C 675.262 -0.874144 -1.82217 0
M  V30 7036 C 675.583 0.601736 -1.85484 0
M  V30 7037 O 674.853 1.43725 -1.33116 0
M  V30 7038 H 673.433 -0.320404 -0.674797 0
M  V30 7039 H 676.095 -1.41606 -1.33917 0
M  V30 7040 H 675.191 -1.25349 -2.85822 0
M  V30 7041 N 675.492 1.28418 -0.913599 0
M  V30 7042 C 676.424 2.26368 -0.359169 0
M  V30 7043 C 677.437 1.54858 0.502285 0
M  V30 7044 O 678.626 1.75659 0.31719 0
M  V30 7045 C 675.726 3.35112 0.50526 0
M  V30 7046 C 674.899 4.36126 -0.333648 0
M  V30 7047 C 673.958 5.24134 0.465845 0
M  V30 7048 O 672.984 5.6907 -0.121538 0
M  V30 7049 N 674.186 5.52892 1.76891 0
M  V30 7050 H 676.951 2.74579 -1.2011 0
M  V30 7051 H 674.512 1.41898 -0.779532 0
M  V30 7052 H 676.504 3.90926 1.04684 0
M  V30 7053 H 675.074 2.86611 1.2479 0
M  V30 7054 H 674.294 3.79776 -1.0566 0
M  V30 7055 H 675.582 5.00638 -0.907669 0
M  V30 7056 H 674.98 5.18217 2.26865 0
M  V30 7057 H 673.537 6.11464 2.25732 0
M  V30 7058 N 676.97 0.677563 1.42291 0
M  V30 7059 C 678.198 0.209459 2.05837 0
M  V30 7060 C 678.613 -1.13444 1.50917 0
M  V30 7061 O 677.97 -1.70529 0.65008 0
M  V30 7062 C 678.021 0.138819 3.61233 0
M  V30 7063 O 677.742 1.42962 4.14118 0
M  V30 7064 C 679.243 -0.352449 4.41897 0
M  V30 7065 H 676.463 0.101209 0.663323 0
M  V30 7066 H 679.007 0.925077 1.8238 0
M  V30 7067 H 677.162 -0.527505 3.83792 0
M  V30 7068 H 677.576 1.3048 5.08011 0
M  V30 7069 H 679.05 -0.350778 5.50884 0
M  V30 7070 H 679.527 -1.3882 4.16684 0
M  V30 7071 H 680.133 0.282236 4.24362 0
M  V30 7072 N 678.448 -1.51871 0.421078 0
M  V30 7073 C 679.678 -2.06057 -0.149723 0
M  V30 7074 C 680.086 -1.29002 -1.38402 0
M  V30 7075 O 679.429 -0.338385 -1.80556 0
M  V30 7076 C 679.491 -3.55216 -0.553339 0
M  V30 7077 C 679.155 -4.53408 0.571879 0
M  V30 7078 C 680.152 -4.99586 1.4391 0
M  V30 7079 C 677.837 -4.967 0.747979 0
M  V30 7080 C 679.831 -5.87711 2.46727 0
M  V30 7081 C 677.518 -5.84619 1.77944 0
M  V30 7082 C 678.516 -6.30021 2.63748 0
M  V30 7083 O 678.204 -7.16197 3.65126 0
M  V30 7084 H 677.936 -0.675744 -0.0186102 0
M  V30 7085 H 680.49 -1.96618 0.594166 0
M  V30 7086 H 678.72 -3.62381 -1.34969 0
M  V30 7087 H 680.409 -3.91992 -1.05342 0
M  V30 7088 H 681.175 -4.66846 1.31451 0
M  V30 7089 H 677.054 -4.60913 0.0897357 0
M  V30 7090 H 680.598 -6.2307 3.13734 0
M  V30 7091 H 676.495 -6.16771 1.90429 0
M  V30 7092 H 677.263 -7.34337 3.61512 0
M  V30 7093 N 679.926 -0.151884 -1.56866 0
M  V30 7094 C 680.858 0.817008 -2.14144 0
M  V30 7095 C 681.871 1.20735 -1.0921 0
M  V30 7096 O 683.06 1.15058 -1.36469 0
M  V30 7097 C 680.16 2.10844 -2.65326 0
M  V30 7098 C 679.333 1.88471 -3.94712 0
M  V30 7099 C 678.392 3.01649 -4.31155 0
M  V30 7100 O 677.418 2.73127 -4.9939 0
M  V30 7101 N 678.62 4.28947 -3.91132 0
M  V30 7102 H 681.385 0.327448 -2.97906 0
M  V30 7103 H 678.946 0.0315313 -1.61869 0
M  V30 7104 H 680.938 2.85616 -2.86715 0
M  V30 7105 H 679.508 2.51049 -1.86262 0
M  V30 7106 H 678.728 0.977088 -3.81899 0
M  V30 7107 H 680.016 1.70866 -4.79252 0
M  V30 7108 H 679.414 4.54986 -3.36161 0
M  V30 7109 H 677.971 5.00484 -4.17563 0
M  V30 7110 N 681.404 1.57128 0.121893 0
M  V30 7111 C 682.815 1.73902 0.679348 0
M  V30 7112 C 683.166 0.770135 1.80453 0
M  V30 7113 O 682.291 -0.0576083 2.16323 0
M  V30 7114 C 682.886 3.15328 1.2391 0
M  V30 7115 C 681.445 3.33618 1.74288 0
M  V30 7116 C 680.592 2.6978 0.641414 0
M  V30 7117 H 683.543 1.58359 -0.104 0
M  V30 7118 H 683.564 3.16718 2.10879 0
M  V30 7119 H 683.076 3.85821 0.419957 0
M  V30 7120 H 681.177 2.68162 2.58689 0
M  V30 7121 H 681.29 4.4176 1.85432 0
M  V30 7122 H 679.654 2.30935 1.0743 0
M  V30 7123 H 680.437 3.42895 -0.166707 0
M  V30 7124 N 682.882 -0.391992 1.52647 0
M  V30 7125 C 683.83 -1.4991 1.77848 0
M  V30 7126 C 684.824 -1.56587 0.646282 0
M  V30 7127 O 686.03 -1.59789 0.828698 0
M  V30 7128 H 682.405 -0.498883 0.56269 0
M  V30 7129 H 684.376 -1.25847 2.70564 0
M  V30 7130 C 683.125 -2.87081 1.96163 0
M  V30 7131 H 682.448 -2.82692 2.82711 0
M  V30 7132 H 683.888 -3.63792 2.17787 0
M  V30 7133 C 682.347 -3.28822 0.733348 0
M  V30 7134 O 682.877 -4.01598 -0.0906481 0
M  V30 7135 N 681.083 -2.85068 0.564317 0
M  V30 7136 H 680.63 -2.26012 1.23598 0
M  V30 7137 H 680.588 -3.13355 -0.256166 0
M  V30 7138 N 684.36 -1.4356 -0.65026 0
M  V30 7139 C 685.293 -1.434 -1.77515 0
M  V30 7140 C 686.271 -0.295082 -1.599 0
M  V30 7141 O 687.455 -0.489128 -1.82043 0
M  V30 7142 C 684.582 -1.2484 -3.14853 0
M  V30 7143 C 683.628 -2.42046 -3.51163 0
M  V30 7144 S 684.461 -4.04595 -3.50803 0
M  V30 7145 C 685.617 -3.88424 -4.90793 0
M  V30 7146 H 685.85 -2.38586 -1.77381 0
M  V30 7147 H 683.383 -1.30627 -0.823169 0
M  V30 7148 H 685.341 -1.14819 -3.94115 0
M  V30 7149 H 684.002 -0.311977 -3.12547 0
M  V30 7150 H 683.195 -2.24873 -4.51052 0
M  V30 7151 H 682.797 -2.48708 -2.79321 0
M  V30 7152 H 685.089 -3.50932 -5.79528 0
M  V30 7153 H 686.032 -4.88076 -5.13018 0
M  V30 7154 H 686.44 -3.20829 -4.64467 0
M  V30 7155 N 685.838 0.888903 -1.30139 0
M  V30 7156 C 687.085 1.64037 -1.18736 0
M  V30 7157 C 687.413 1.92771 0.258801 0
M  V30 7158 O 686.668 1.54427 1.20212 0
M  V30 7159 C 686.967 2.99041 -1.95728 0
M  V30 7160 C 686.633 2.89874 -3.45375 0
M  V30 7161 C 685.295 2.87082 -3.86183 0
M  V30 7162 C 687.647 2.78289 -4.40687 0
M  V30 7163 C 684.975 2.70536 -5.20603 0
M  V30 7164 C 687.327 2.63282 -5.75209 0
M  V30 7165 C 685.991 2.58861 -6.15262 0
M  V30 7166 H 685.261 0.600253 -0.434485 0
M  V30 7167 H 687.908 1.0338 -1.61198 0
M  V30 7168 H 686.213 3.63626 -1.45888 0
M  V30 7169 H 687.91 3.56139 -1.843 0
M  V30 7170 H 684.5 2.92856 -3.12943 0
M  V30 7171 H 688.684 2.79516 -4.10103 0
M  V30 7172 H 683.94 2.65526 -5.50732 0
M  V30 7173 H 688.114 2.5329 -6.48704 0
M  V30 7174 H 685.741 2.45799 -7.19366 0
M  V30 7175 N 687.317 1.12792 1.10072 0
M  V30 7176 C 688.563 0.886857 1.82381 0
M  V30 7177 C 688.896 -0.58576 1.85155 0
M  V30 7178 O 688.171 -1.43317 1.31493 0
M  V30 7179 C 688.454 1.46703 3.28862 0
M  V30 7180 C 688.307 3.00829 3.34398 0
M  V30 7181 C 689.626 1.12971 4.25353 0
M  V30 7182 H 686.745 0.32362 0.662148 0
M  V30 7183 H 689.387 1.39513 1.28982 0
M  V30 7184 H 687.537 1.03476 3.74466 0
M  V30 7185 H 689.209 3.52764 2.97247 0
M  V30 7186 H 687.452 3.36164 2.74183 0
M  V30 7187 H 688.123 3.36519 4.3756 0
M  V30 7188 H 690.599 1.50313 3.88001 0
M  V30 7189 H 689.475 1.56223 5.26199 0
M  V30 7190 H 689.736 0.0424452 4.4208 0
M  V30 7191 N 688.795 -1.27931 0.920396 0
M  V30 7192 C 690.043 -1.94304 0.555906 0
M  V30 7193 C 690.364 -1.72753 -0.904519 0
M  V30 7194 O 689.634 -1.07104 -1.64029 0
M  V30 7195 H 688.214 -0.719001 0.202599 0
M  V30 7196 H 690.876 -1.55785 1.1712 0
M  V30 7197 H 689.972 -3.02806 0.755981 0
M  V30 7198 N 690.273 -0.685099 -1.4193 0
M  V30 7199 C 691.501 -0.220372 -2.05723 0
M  V30 7200 C 691.916 1.12642 -1.51516 0
M  V30 7201 O 691.273 1.70182 -0.659114 0
M  V30 7202 C 691.324 -0.157974 -3.61155 0
M  V30 7203 O 691.045 -1.45156 -4.13354 0
M  V30 7204 C 692.546 0.329009 -4.42077 0
M  V30 7205 H 689.766 -0.104725 -0.662777 0
M  V30 7206 H 692.31 -0.934736 -1.81887 0
M  V30 7207 H 690.465 0.507144 -3.84066 0
M  V30 7208 H 690.879 -1.33172 -5.07312 0
M  V30 7209 H 692.353 0.321559 -5.51063 0
M  V30 7210 H 692.83 1.36608 -4.17414 0
M  V30 7211 H 693.436 -0.304737 -4.24207 0
M  V30 7212 N 691.751 1.51645 -0.429126 0
M  V30 7213 C 692.976 2.06917 0.141399 0
M  V30 7214 C 693.401 1.29527 1.36398 0
M  V30 7215 O 692.759 0.33094 1.78254 0
M  V30 7216 C 692.807 3.57776 0.4504 0
M  V30 7217 O 691.911 3.82639 1.53821 0
M  V30 7218 H 691.252 0.663978 0.0054647 0
M  V30 7219 H 693.782 1.95355 -0.608093 0
M  V30 7220 H 693.792 4.01894 0.703249 0
M  V30 7221 H 692.467 4.13532 -0.443213 0
M  V30 7222 H 691.044 3.5039 1.27597 0
M  V30 7223 N 693.229 0.160201 1.56784 0
M  V30 7224 C 694.177 -0.791402 2.18723 0
M  V30 7225 C 695.171 -1.24567 1.14801 0
M  V30 7226 O 696.377 -1.21262 1.33025 0
M  V30 7227 H 692.752 -0.273458 0.700517 0
M  V30 7228 H 694.723 -0.244931 2.97393 0
M  V30 7229 C 693.472 -2.01509 2.83354 0
M  V30 7230 H 692.795 -1.67454 3.63041 0
M  V30 7231 H 694.235 -2.66006 3.30177 0
M  V30 7232 C 692.694 -2.83159 1.82545 0
M  V30 7233 O 693.224 -3.79944 1.30405 0
M  V30 7234 N 691.43 -2.47953 1.51552 0
M  V30 7235 H 690.977 -1.69309 1.94144 0
M  V30 7236 H 690.935 -3.02873 0.843519 0
M  V30 7237 N 694.707 -1.5719 -0.113559 0
M  V30 7238 C 695.637 -2.03772 -1.14013 0
M  V30 7239 C 696.618 -0.923176 -1.42869 0
M  V30 7240 O 697.803 -1.19325 -1.53216 0
M  V30 7241 C 694.933 -2.44663 -2.4649 0
M  V30 7242 C 693.887 -3.59612 -2.32085 0
M  V30 7243 C 693.213 -3.8642 -3.69573 0
M  V30 7244 C 694.513 -4.91149 -1.7768 0
M  V30 7245 H 696.207 -2.89785 -0.752665 0
M  V30 7246 H 693.753 -1.39412 -0.360609 0
M  V30 7247 H 695.706 -2.75857 -3.18561 0
M  V30 7248 H 694.43 -1.55628 -2.87137 0
M  V30 7249 H 693.089 -3.28636 -1.62461 0
M  V30 7250 H 692.737 -2.94581 -4.07715 0
M  V30 7251 H 692.437 -4.63797 -3.60786 0
M  V30 7252 H 693.961 -4.2007 -4.4314 0
M  V30 7253 H 695.375 -5.20843 -2.39574 0
M  V30 7254 H 693.772 -5.72562 -1.79701 0
M  V30 7255 H 694.842 -4.79301 -0.734776 0
M  V30 7256 N 696.185 0.383891 -1.52853 0
M  V30 7257 C 697.095 1.49343 -1.80925 0
M  V30 7258 C 698.111 1.59458 -0.696348 0
M  V30 7259 O 699.287 1.75698 -0.984481 0
M  V30 7260 C 696.352 2.84819 -1.97684 0
M  V30 7261 C 695.413 2.84382 -3.21598 0
M  V30 7262 C 694.646 4.13397 -3.37548 0
M  V30 7263 O 694.869 5.08619 -2.58192 0
M  V30 7264 O 693.803 4.20325 -4.30826 0
M  V30 7265 H 697.629 1.2855 -2.75152 0
M  V30 7266 H 695.214 0.572229 -1.38007 0
M  V30 7267 H 697.096 3.65125 -2.10385 0
M  V30 7268 H 695.771 3.05627 -1.06647 0
M  V30 7269 H 694.678 2.0284 -3.14336 0
M  V30 7270 H 696.011 2.68526 -4.12498 0
M  V30 7271 N 697.663 1.43903 0.642637 0
M  V30 7272 C 698.888 1.49758 1.43483 0
M  V30 7273 C 699.313 0.119911 1.87717 0
M  V30 7274 O 698.671 -0.888558 1.58033 0
M  V30 7275 C 698.719 2.45744 2.63898 0
M  V30 7276 O 697.823 1.95101 3.63331 0
M  V30 7277 H 697.164 0.506138 0.429791 0
M  V30 7278 H 699.694 1.88923 0.785438 0
M  V30 7279 H 699.704 2.63399 3.11584 0
M  V30 7280 H 698.379 3.45818 2.31046 0
M  V30 7281 H 696.956 1.87158 3.22531 0
M  V30 7282 N 699.141 -0.881989 1.30609 0
M  V30 7283 C 700.104 -1.96957 1.1722 0
M  V30 7284 C 701.104 -1.60472 0.102598 0
M  V30 7285 O 702.294 -1.70628 0.350943 0
M  V30 7286 C 699.426 -3.31463 0.796572 0
M  V30 7287 H 700.619 -2.10262 2.13846 0
M  V30 7288 H 698.172 -1.06877 1.14048 0
M  V30 7289 H 698.907 -3.23859 -0.169053 0
M  V30 7290 H 698.692 -3.59314 1.56959 0
M  V30 7291 H 700.182 -4.11233 0.72645 0
M  V30 7292 N 700.619 -1.13374 -1.09472 0
M  V30 7293 C 701.552 -0.754354 -2.15371 0
M  V30 7294 C 702.53 0.259205 -1.60521 0
M  V30 7295 O 703.714 0.150819 -1.87896 0
M  V30 7296 C 700.841 -0.118197 -3.38494 0
M  V30 7297 C 699.887 -1.10017 -4.12066 0
M  V30 7298 S 700.72 -2.63242 -4.6633 0
M  V30 7299 C 701.876 -2.00984 -5.92753 0
M  V30 7300 H 702.109 -1.65135 -2.4722 0
M  V30 7301 H 699.642 -0.953838 -1.21414 0
M  V30 7302 H 701.6 0.242447 -4.09783 0
M  V30 7303 H 700.261 0.756065 -3.04865 0
M  V30 7304 H 699.454 -0.60287 -5.00381 0
M  V30 7305 H 699.056 -1.40426 -3.46636 0
M  V30 7306 H 701.348 -1.35863 -6.63738 0
M  V30 7307 H 702.291 -2.8738 -6.47162 0
M  V30 7308 H 702.699 -1.46161 -5.4525 0
M  V30 7309 N 702.098 1.27442 -0.927168 0
M  V30 7310 C 703.008 2.30599 -0.431448 0
M  V30 7311 C 704.024 1.67028 0.48761 0
M  V30 7312 O 705.2 1.97962 0.370546 0
M  V30 7313 C 702.265 3.45327 0.308292 0
M  V30 7314 C 701.326 4.24418 -0.645615 0
M  V30 7315 C 700.559 5.33667 0.0589164 0
M  V30 7316 O 700.782 5.5589 1.27838 0
M  V30 7317 O 699.716 5.98774 -0.612638 0
M  V30 7318 H 703.542 2.75036 -1.28797 0
M  V30 7319 H 701.127 1.32382 -0.692495 0
M  V30 7320 H 703.009 4.15107 0.725555 0
M  V30 7321 H 701.684 3.02945 1.14043 0
M  V30 7322 H 700.591 3.57174 -1.11255 0
M  V30 7323 H 701.924 4.70512 -1.44496 0
M  V30 7324 N 703.576 0.692616 1.41565 0
M  V30 7325 C 704.523 0.0254264 2.30786 0
M  V30 7326 C 705.493 -0.774347 1.46946 0
M  V30 7327 O 706.678 -0.742981 1.7574 0
M  V30 7328 C 703.818 -0.907123 3.32964 0
M  V30 7329 C 702.931 -0.0992784 4.31886 0
M  V30 7330 C 702.066 -1.0292 5.21134 0
M  V30 7331 C 701.105 -0.214088 6.11725 0
M  V30 7332 N 700.242 -1.09766 6.93467 0
M  V30 7333 H 705.082 0.792036 2.87282 0
M  V30 7334 H 702.619 0.4023 1.41492 0
M  V30 7335 H 704.577 -1.46181 3.90752 0
M  V30 7336 H 703.207 -1.64016 2.78026 0
M  V30 7337 H 702.259 0.572287 3.76071 0
M  V30 7338 H 703.571 0.532782 4.95946 0
M  V30 7339 H 702.725 -1.65321 5.83741 0
M  V30 7340 H 701.464 -1.69512 4.57293 0
M  V30 7341 H 700.469 0.42302 5.4817 0
M  V30 7342 H 701.694 0.447995 6.77621 0
M  V30 7343 H 699.64 -1.74965 6.32237 0
M  V30 7344 H 699.557 -0.521099 7.54202 0
M  V30 7345 H 700.825 -1.70858 7.60544 0
M  V30 7346 N 705.054 -1.51416 0.437162 0
M  V30 7347 C 705.984 -2.30631 -0.364922 0
M  V30 7348 C 706.965 -1.36037 -1.02118 0
M  V30 7349 O 708.15 -1.64956 -1.02485 0
M  V30 7350 C 705.28 -3.1482 -1.46648 0
M  V30 7351 C 704.234 -4.17691 -0.933717 0
M  V30 7352 C 703.56 -4.904 -2.13101 0
M  V30 7353 C 704.86 -5.2229 0.0317201 0
M  V30 7354 H 706.554 -2.97932 0.29614 0
M  V30 7355 H 704.1 -1.4328 0.143865 0
M  V30 7356 H 706.053 -3.69017 -2.03481 0
M  V30 7357 H 704.777 -2.4534 -2.15583 0
M  V30 7358 H 703.436 -3.64545 -0.387602 0
M  V30 7359 H 703.084 -4.17423 -2.80654 0
M  V30 7360 H 702.784 -5.59962 -1.78092 0
M  V30 7361 H 704.308 -5.4742 -2.70487 0
M  V30 7362 H 705.722 -5.7156 -0.446302 0
M  V30 7363 H 704.119 -5.99378 0.29437 0
M  V30 7364 H 705.189 -4.75131 0.968447 0
M  V30 7365 N 706.532 -0.168513 -1.56696 0
M  V30 7366 C 707.948 0.187686 -1.58493 0
M  V30 7367 C 708.148 1.63063 -1.18375 0
M  V30 7368 O 707.204 2.36142 -0.894042 0
M  V30 7369 C 708.517 -0.0905858 -3.00564 0
M  V30 7370 C 710.065 -0.028575 -3.12987 0
M  V30 7371 C 710.54 -0.279799 -4.57145 0
M  V30 7372 N 712.031 -0.227476 -4.62641 0
M  V30 7373 C 712.766 -0.396073 -5.7203 0
M  V30 7374 N 712.262 -0.623572 -6.89988 0
M  V30 7375 N 714.055 -0.332173 -5.61118 0
M  V30 7376 H 706.206 -1.11042 -1.81062 0
M  V30 7377 H 708.469 -0.441235 -0.839056 0
M  V30 7378 H 708.175 -1.09006 -3.34381 0
M  V30 7379 H 708.049 0.619078 -3.72085 0
M  V30 7380 H 710.436 0.961471 -2.78998 0
M  V30 7381 H 710.517 -0.770905 -2.43907 0
M  V30 7382 H 710.161 -1.26704 -4.91842 0
M  V30 7383 H 710.091 0.48311 -5.24379 0
M  V30 7384 H 712.582 -0.0571723 -3.77857 0
M  V30 7385 H 712.895 -0.741745 -7.69232 0
M  V30 7386 H 711.24 -0.660153 -6.91858 0
M  V30 7387 H 714.431 -0.155051 -4.67843 0
M  V30 7388 H 714.604 -0.466994 -6.46315 0
M  V30 7389 N 708.01 1.57248 0.105221 0
M  V30 7390 C 709.235 1.90143 0.828264 0
M  V30 7391 C 709.66 0.761811 1.71983 0
M  V30 7392 O 709.018 -0.287086 1.79013 0
M  V30 7393 C 709.066 3.21856 1.62608 0
M  V30 7394 O 708.17 3.08732 2.7342 0
M  V30 7395 H 707.511 0.623558 0.228192 0
M  V30 7396 H 710.041 2.0443 0.0834826 0
M  V30 7397 H 710.051 3.54916 2.01243 0
M  V30 7398 H 708.726 4.0439 0.971687 0
M  V30 7399 H 707.303 2.87167 2.37886 0
M  V30 7400 N 709.488 -0.375779 1.53054 0
M  V30 7401 C 710.716 -1.14036 1.72637 0
M  V30 7402 C 711.131 -1.83342 0.450687 0
M  V30 7403 O 710.488 -1.7318 -0.575749 0
M  V30 7404 C 710.539 -2.17841 2.88492 0
M  V30 7405 O 710.26 -1.51358 4.11123 0
M  V30 7406 C 711.761 -3.06924 3.19863 0
M  V30 7407 H 708.981 -0.341386 0.577665 0
M  V30 7408 H 711.525 -0.437809 1.99759 0
M  V30 7409 H 709.68 -2.8371 2.63794 0
M  V30 7410 H 710.094 -2.20439 4.75928 0
M  V30 7411 H 711.568 -3.75763 4.04359 0
M  V30 7412 H 712.045 -3.71169 2.34798 0
M  V30 7413 H 712.651 -2.46684 3.46449 0
M  V30 7414 N 710.966 -1.44241 -0.634997 0
M  V30 7415 C 712.213 -1.46821 -1.39463 0
M  V30 7416 C 712.541 -0.0993362 -1.94246 0
M  V30 7417 O 711.796 0.898325 -1.73864 0
M  V30 7418 C 712.095 -2.47279 -2.58046 0
M  V30 7419 C 711.761 -3.92703 -2.21574 0
M  V30 7420 C 710.423 -4.32306 -2.1134 0
M  V30 7421 C 712.775 -4.84271 -1.92695 0
M  V30 7422 C 710.103 -5.61407 -1.70409 0
M  V30 7423 C 712.455 -6.13755 -1.53258 0
M  V30 7424 C 711.119 -6.52316 -1.41562 0
M  V30 7425 H 710.389 -0.537256 -0.51033 0
M  V30 7426 H 713.036 -1.77431 -0.720441 0
M  V30 7427 H 711.341 -2.10138 -3.3068 0
M  V30 7428 H 713.038 -2.46523 -3.16271 0
M  V30 7429 H 709.628 -3.61369 -2.30456 0
M  V30 7430 H 713.812 -4.54432 -1.99513 0
M  V30 7431 H 709.068 -5.90105 -1.59955 0
M  V30 7432 H 713.242 -6.84168 -1.29949 0
M  V30 7433 H 710.869 -7.52255 -1.09619 0
M  V30 7434 N 712.444 0.87505 -1.31075 0
M  V30 7435 C 713.692 1.62447 -1.20231 0
M  V30 7436 C 714.013 1.93506 0.240888 0
M  V30 7437 O 713.283 1.57847 1.16022 0
M  V30 7438 H 711.863 0.602207 -0.441991 0
M  V30 7439 H 714.525 1.04788 -1.64334 0
M  V30 7440 H 713.621 2.57031 -1.77036 0
M  V30 7441 N 713.922 1.13953 1.08869 0
M  V30 7442 C 714.832 0.835666 2.19212 0
M  V30 7443 C 715.848 -0.182005 1.73045 0
M  V30 7444 O 717.024 -0.0116661 2.01397 0
M  V30 7445 C 714.089 0.312325 3.4529 0
M  V30 7446 C 713.15 1.39196 4.06107 0
M  V30 7447 C 712.383 0.893496 5.26168 0
M  V30 7448 O 712.606 -0.266807 5.69776 0
M  V30 7449 O 711.54 1.67037 5.78258 0
M  V30 7450 H 715.366 1.75769 2.47667 0
M  V30 7451 H 712.951 0.917421 1.17914 0
M  V30 7452 H 714.833 0.0261582 4.21392 0
M  V30 7453 H 713.508 -0.582042 3.18424 0
M  V30 7454 H 712.415 1.73152 3.31616 0
M  V30 7455 H 713.748 2.26068 4.37212 0
M  V30 7456 N 715.4 -1.26948 0.933913 0
M  V30 7457 C 716.63 -1.97898 0.593279 0
M  V30 7458 C 717.038 -1.69806 -0.834412 0
M  V30 7459 O 716.381 -0.958704 -1.56699 0
M  V30 7460 C 716.443 -3.51657 0.746825 0
M  V30 7461 C 716.107 -4.03384 2.14779 0
M  V30 7462 C 717.104 -4.15682 3.12257 0
M  V30 7463 C 714.789 -4.37577 2.46641 0
M  V30 7464 C 716.783 -4.61455 4.39702 0
M  V30 7465 C 714.47 -4.8304 3.7432 0
M  V30 7466 C 715.468 -4.94939 4.70664 0
M  V30 7467 O 715.156 -5.39403 5.96071 0
M  V30 7468 H 714.888 -0.63814 0.223055 0
M  V30 7469 H 717.442 -1.62608 1.2549 0
M  V30 7470 H 715.672 -3.8669 0.0280889 0
M  V30 7471 H 717.361 -4.03821 0.410328 0
M  V30 7472 H 718.127 -3.89519 2.88964 0
M  V30 7473 H 714.006 -4.27554 1.72391 0
M  V30 7474 H 717.55 -4.70658 5.14905 0
M  V30 7475 H 713.447 -5.08646 3.97429 0
M  V30 7476 H 714.215 -5.57641 5.99148 0
M  V30 7477 N 716.879 -0.700114 -1.41195 0
M  V30 7478 C 718.127 -0.232546 -2.00758 0
M  V30 7479 C 718.448 1.1734 -1.55745 0
M  V30 7480 O 717.718 1.79262 -0.790058 0
M  V30 7481 H 716.298 -0.0829845 -0.742376 0
M  V30 7482 H 718.96 -0.902289 -1.72756 0
M  V30 7483 H 718.056 -0.253521 -3.11069 0
M  V30 7484 N 718.357 1.51182 -0.445186 0
M  V30 7485 C 719.287 2.30821 0.352686 0
M  V30 7486 C 720.268 1.36576 1.01395 0
M  V30 7487 O 721.453 1.65497 1.01609 0
M  V30 7488 C 718.583 3.15593 1.44976 0
M  V30 7489 C 717.537 4.1818 0.911553 0
M  V30 7490 C 716.863 4.91523 2.10497 0
M  V30 7491 C 718.163 5.22266 -0.059418 0
M  V30 7492 H 719.857 2.97771 -0.311936 0
M  V30 7493 H 717.403 1.43201 -0.151461 0
M  V30 7494 H 719.356 3.70091 2.01521 0
M  V30 7495 H 718.08 2.4648 2.14278 0
M  V30 7496 H 716.739 3.64746 0.368264 0
M  V30 7497 H 716.387 4.18906 2.78437 0
M  V30 7498 H 716.087 5.60898 1.7512 0
M  V30 7499 H 717.611 5.48847 2.6758 0
M  V30 7500 H 719.025 5.71789 0.415985 0
M  V30 7501 H 717.422 5.99213 -0.326152 0
M  V30 7502 H 718.492 4.7461 -0.993631 0
M  V30 7503 N 719.835 0.176821 1.56605 0
M  V30 7504 C 721.083 -0.465793 1.96659 0
M  V30 7505 C 721.404 -1.63406 1.06412 0
M  V30 7506 O 720.674 -1.95457 0.131603 0
M  V30 7507 H 719.254 -0.175072 0.726195 0
M  V30 7508 H 721.916 0.25929 1.93168 0
M  V30 7509 H 721.012 -0.822138 3.01077 0
M  V30 7510 N 721.313 -1.57302 -0.09688 0
M  V30 7511 C 722.541 -1.90202 -0.814295 0
M  V30 7512 C 722.956 -0.770344 -1.72369 0
M  V30 7513 O 722.313 0.257764 -1.8067 0
M  V30 7514 C 722.364 -3.22708 -1.62916 0
M  V30 7515 O 722.085 -4.31522 -0.756343 0
M  V30 7516 C 723.586 -3.69459 -2.44979 0
M  V30 7517 H 720.806 -0.629275 -0.232925 0
M  V30 7518 H 723.35 -2.04364 -0.0746482 0
M  V30 7519 H 721.505 -3.1015 -2.32133 0
M  V30 7520 H 721.919 -5.07604 -1.32054 0
M  V30 7521 H 723.393 -4.64875 -2.9765 0
M  V30 7522 H 723.87 -2.97211 -3.23361 0
M  V30 7523 H 724.476 -3.84879 -1.80964 0
M  V30 7524 N 722.791 0.367657 -1.53252 0
M  V30 7525 C 723.754 1.43308 -1.78873 0
M  V30 7526 C 724.754 1.46671 -0.659115 0
M  V30 7527 O 725.944 1.47468 -0.927306 0
M  V30 7528 C 723.076 2.82442 -1.90892 0
M  V30 7529 H 724.269 1.21864 -2.74024 0
M  V30 7530 H 721.822 0.600668 -1.44297 0
M  V30 7531 H 722.557 3.09202 -0.978 0
M  V30 7532 H 722.342 2.81399 -2.73051 0
M  V30 7533 H 723.832 3.59601 -2.12314 0
M  V30 7534 N 724.269 1.44576 0.627338 0
M  V30 7535 C 725.497 1.51048 1.41394 0
M  V30 7536 C 725.912 0.136568 1.88305 0
M  V30 7537 O 725.269 -0.858251 1.6106 0
M  V30 7538 C 725.32 2.47837 2.63172 0
M  V30 7539 O 725.041 3.79887 2.18215 0
M  V30 7540 C 726.542 2.63811 3.56257 0
M  V30 7541 H 723.762 0.512171 0.4335 0
M  V30 7542 H 726.306 1.89576 0.766878 0
M  V30 7543 H 724.461 2.12433 3.23961 0
M  V30 7544 H 724.875 4.32177 2.97192 0
M  V30 7545 H 726.349 3.35554 4.38301 0
M  V30 7546 H 726.826 1.69169 4.05313 0
M  V30 7547 H 727.432 3.0013 3.01333 0
M  V30 7548 N 725.747 -0.868086 1.31537 0
M  V30 7549 C 726.995 -1.61807 1.21091 0
M  V30 7550 C 727.316 -1.93631 -0.230623 0
M  V30 7551 O 726.586 -1.5846 -1.15183 0
M  V30 7552 H 725.166 -0.599854 0.445178 0
M  V30 7553 H 727.828 -1.03915 1.64887 0
M  V30 7554 H 726.924 -2.56088 1.78396 0
M  V30 7555 N 727.225 -1.14528 -1.08264 0
M  V30 7556 C 728.474 -0.908992 -1.80056 0
M  V30 7557 C 728.787 0.565859 -1.87236 0
M  V30 7558 O 729.993 0.919454 -2.55457 0
M  V30 7559 C 728.449 -1.57681 -3.23519 0
M  V30 7560 C 728.057 -3.08803 -3.24569 0
M  V30 7561 C 729.801 -1.4217 -3.99985 0
M  V30 7562 C 727.708 -3.68414 -4.62629 0
M  V30 7563 H 726.638 -0.336432 -0.674781 0
M  V30 7564 H 729.289 -1.37437 -1.21587 0
M  V30 7565 H 727.671 -1.03911 -3.82124 0
M  V30 7566 H 728.845 -3.69252 -2.75663 0
M  V30 7567 H 727.16 -3.23968 -2.61598 0
M  V30 7568 H 729.757 -1.84106 -5.02005 0
M  V30 7569 H 730.1 -0.367989 -4.1467 0
M  V30 7570 H 730.633 -1.92984 -3.47853 0
M  V30 7571 H 727.372 -4.73644 -4.53147 0
M  V30 7572 H 726.892 -3.12746 -5.11811 0
M  V30 7573 H 728.571 -3.68793 -5.31602 0
M  V30 7574 N 728.703 1.26451 -0.940633 0
M  V30 7575 C 729.98 1.88947 -0.505811 0
M  V30 7576 C 730.36 1.85011 1.01657 0
M  V30 7577 O 729.708 1.30406 1.87634 0
M  V30 7578 C 729.918 3.32304 -1.06654 0
M  V30 7579 C 731.266 4.09153 -1.13486 0
M  V30 7580 O 732.29 3.41371 -1.01708 0
M  V30 7581 O 731.149 5.30369 -1.31797 0
M  V30 7582 H 728.243 0.810422 -0.164759 0
M  V30 7583 H 730.789 1.34625 -1.03316 0
M  V30 7584 H 729.561 3.29527 -2.11015 0
M  V30 7585 H 729.184 3.94164 -0.521603 0
M  V30 7586 N 730.181 0.707592 1.40822 0
M  V30 7587 C 731.111 0.0644925 2.33411 0
M  V30 7588 C 732.092 -0.754205 1.52466 0
M  V30 7589 O 733.277 -0.704749 1.80961 0
M  V30 7590 C 730.407 -0.863865 3.36385 0
M  V30 7591 C 729.361 -0.15138 4.27732 0
M  V30 7592 C 728.687 -1.19491 5.21177 0
M  V30 7593 C 729.987 0.989607 5.12839 0
M  V30 7594 H 731.681 0.837829 2.87438 0
M  V30 7595 H 729.227 0.404346 1.38207 0
M  V30 7596 H 731.18 -1.32309 4.0009 0
M  V30 7597 H 729.904 -1.66901 2.80734 0
M  V30 7598 H 728.563 0.287937 3.65467 0
M  V30 7599 H 728.211 -1.9929 4.61836 0
M  V30 7600 H 727.911 -0.723123 5.83134 0
M  V30 7601 H 729.435 -1.6544 5.8776 0
M  V30 7602 H 730.849 0.610114 5.70044 0
M  V30 7603 H 729.246 1.38926 5.83798 0
M  V30 7604 H 730.316 1.82389 4.49291 0
M  V30 7605 N 731.66 -1.50943 0.453197 0
M  V30 7606 C 733.071 -1.86699 -0.00619892 0
M  V30 7607 C 733.422 -1.3693 -1.40515 0
M  V30 7608 O 732.547 -0.726715 -2.03833 0
M  V30 7609 C 733.142 -3.38795 -0.018025 0
M  V30 7610 C 731.701 -3.74028 -0.421885 0
M  V30 7611 C 730.848 -2.74752 0.375087 0
M  V30 7612 H 733.799 -1.43942 0.668317 0
M  V30 7613 H 733.82 -3.71468 -0.824125 0
M  V30 7614 H 733.332 -3.74988 1.00028 0
M  V30 7615 H 731.433 -3.43431 -1.44521 0
M  V30 7616 H 731.546 -4.78908 -0.135664 0
M  V30 7617 H 729.91 -2.5414 -0.168794 0
M  V30 7618 H 730.693 -3.13787 1.39256 0
M  V30 7619 N 733.138 -0.185124 -1.56509 0
M  V30 7620 C 734.415 0.503348 -1.89013 0
M  V30 7621 C 734.795 1.80349 -1.09715 0
M  V30 7622 O 734.143 2.27665 -0.195203 0
M  V30 7623 C 734.353 0.731839 -3.41241 0
M  V30 7624 C 735.701 1.05568 -4.11267 0
M  V30 7625 O 736.725 0.819906 -3.46635 0
M  V30 7626 O 735.584 1.50116 -5.25478 0
M  V30 7627 H 732.678 0.261139 -0.784688 0
M  V30 7628 H 735.224 -0.224592 -1.68207 0
M  V30 7629 H 733.996 -0.18672 -3.90854 0
M  V30 7630 H 733.619 1.5126 -3.67704 0
M  V30 7631 N 734.616 1.57351 0.0885366 0
M  V30 7632 C 735.526 2.05858 1.12516 0
M  V30 7633 C 736.542 0.984758 1.43452 0
M  V30 7634 O 737.718 1.29836 1.53963 0
M  V30 7635 C 734.783 2.47882 2.42395 0
M  V30 7636 C 733.844 3.69487 2.18582 0
M  V30 7637 C 733.077 4.09497 3.42268 0
M  V30 7638 O 733.3 3.49536 4.50755 0
M  V30 7639 O 732.234 5.02406 3.31469 0
M  V30 7640 H 736.06 2.94467 0.743146 0
M  V30 7641 H 733.645 1.46326 0.301507 0
M  V30 7642 H 735.527 2.75509 3.18862 0
M  V30 7643 H 734.202 1.62408 2.8001 0
M  V30 7644 H 733.109 3.46967 1.39875 0
M  V30 7645 H 734.442 4.55761 1.85857 0
M  V30 7646 N 736.094 -0.359525 1.53444 0
M  V30 7647 C 737.319 -1.12644 1.74144 0
M  V30 7648 C 737.744 -1.82082 0.472007 0
M  V30 7649 O 737.102 -1.71962 -0.57436 0
M  V30 7650 C 737.15 -2.12781 2.9113 0
M  V30 7651 O 736.254 -3.19984 2.60162 0
M  V30 7652 H 735.595 -0.326553 0.578152 0
M  V30 7653 H 738.125 -0.414798 2.00351 0
M  V30 7654 H 738.135 -2.56278 3.17467 0
M  V30 7655 H 736.81 -1.61634 3.83207 0
M  V30 7656 H 735.387 -2.81417 2.44661 0
M  V30 7657 N 737.572 -1.44907 -0.619662 0
M  V30 7658 C 738.8 -1.51795 -1.40591 0
M  V30 7659 C 739.215 -0.146553 -1.8823 0
M  V30 7660 O 738.572 0.849698 -1.61513 0
M  V30 7661 C 738.623 -2.49229 -2.61853 0
M  V30 7662 O 738.344 -3.81039 -2.16197 0
M  V30 7663 C 739.845 -2.65696 -3.54853 0
M  V30 7664 H 737.065 -0.514463 -0.430777 0
M  V30 7665 H 739.609 -1.8998 -0.756813 0
M  V30 7666 H 737.764 -2.14149 -3.2283 0
M  V30 7667 H 738.178 -4.33747 -2.94896 0
M  V30 7668 H 739.652 -3.37874 -4.36515 0
M  V30 7669 H 740.129 -1.71316 -4.0441 0
M  V30 7670 H 740.735 -3.01724 -2.99737 0
M  V30 7671 N 739.05 0.861098 -1.31996 0
M  V30 7672 C 740.298 1.61162 -1.21947 0
M  V30 7673 C 740.619 1.93751 0.220351 0
M  V30 7674 O 739.889 1.59069 1.14341 0
M  V30 7675 H 738.469 0.597485 -0.448353 0
M  V30 7676 H 741.131 1.03039 -1.65436 0
M  V30 7677 H 740.227 2.55138 -1.79752 0
M  V30 7678 N 740.528 1.15101 1.07655 0
M  V30 7679 C 741.775 0.923974 1.80191 0
M  V30 7680 C 742.103 -0.549065 1.86589 0
M  V30 7681 O 741.358 -1.42307 1.3434 0
M  V30 7682 C 741.657 1.47954 3.25337 0
M  V30 7683 C 741.323 2.97253 3.39044 0
M  V30 7684 C 739.985 3.38012 3.42493 0
M  V30 7685 C 742.337 3.93219 3.42094 0
M  V30 7686 C 739.665 4.73384 3.4659 0
M  V30 7687 C 742.017 5.28458 3.47728 0
M  V30 7688 C 740.681 5.68717 3.49453 0
M  V30 7689 H 739.951 0.338106 0.659367 0
M  V30 7690 H 742.598 1.43594 1.26701 0
M  V30 7691 H 740.903 0.888691 3.81588 0
M  V30 7692 H 742.6 1.27972 3.80032 0
M  V30 7693 H 739.19 2.64746 3.37057 0
M  V30 7694 H 743.374 3.62805 3.38654 0
M  V30 7695 H 738.63 5.03925 3.46222 0
M  V30 7696 H 742.804 6.02618 3.49034 0
M  V30 7697 H 740.431 6.73596 3.5238 0
M  V30 7698 N 742.006 -1.2595 0.947325 0
M  V30 7699 C 743.252 -1.9375 0.599064 0
M  V30 7700 C 743.585 -1.74088 -0.860632 0
M  V30 7701 O 742.86 -1.08158 -1.61654 0
M  V30 7702 C 743.143 -3.47353 0.949634 0
M  V30 7703 C 742.996 -3.76273 2.46452 0
M  V30 7704 C 744.315 -4.37589 0.469442 0
M  V30 7705 H 741.434 -0.703674 0.219115 0
M  V30 7706 H 744.076 -1.48705 1.18266 0
M  V30 7707 H 742.226 -3.8585 0.453008 0
M  V30 7708 H 743.898 -3.47455 3.03435 0
M  V30 7709 H 742.141 -3.22135 2.90537 0
M  V30 7710 H 742.812 -4.83664 2.66032 0
M  V30 7711 H 745.288 -4.06353 0.89534 0
M  V30 7712 H 744.164 -5.43841 0.7435 0
M  V30 7713 H 744.425 -4.37579 -0.630618 0
M  V30 7714 N 743.484 -0.715051 -1.40445 0
M  V30 7715 C 744.895 -0.326763 -1.83818 0
M  V30 7716 C 745.246 1.13851 -1.59789 0
M  V30 7717 O 744.371 1.87611 -1.07848 0
M  V30 7718 C 744.966 -0.586297 -3.33688 0
M  V30 7719 C 743.525 -0.251724 -3.75557 0
M  V30 7720 C 742.672 -0.858928 -2.63662 0
M  V30 7721 H 745.623 -0.914241 -1.2972 0
M  V30 7722 H 745.644 0.148636 -3.8021 0
M  V30 7723 H 745.156 -1.65281 -3.51146 0
M  V30 7724 H 743.257 0.809754 -3.63695 0
M  V30 7725 H 743.37 -0.720348 -4.73654 0
M  V30 7726 H 741.734 -0.287013 -2.53078 0
M  V30 7727 H 742.517 -1.9297 -2.83932 0
M  V30 7728 N 744.962 1.50701 -0.461195 0
M  V30 7729 C 745.909 2.2831 0.338094 0
M  V30 7730 C 746.879 1.32928 0.995957 0
M  V30 7731 O 748.064 1.61857 1.0103 0
M  V30 7732 C 745.204 3.14539 1.41983 0
M  V30 7733 C 744.317 4.24942 0.77773 0
M  V30 7734 C 743.452 4.98443 1.83652 0
M  V30 7735 C 742.491 6.00733 1.17413 0
M  V30 7736 N 741.628 6.6755 2.17533 0
M  V30 7737 H 746.468 2.96167 -0.330051 0
M  V30 7738 H 744.005 1.4606 -0.174611 0
M  V30 7739 H 745.963 3.62877 2.05855 0
M  V30 7740 H 744.593 2.48749 2.05727 0
M  V30 7741 H 743.645 3.80391 0.0266924 0
M  V30 7742 H 744.957 4.98151 0.254362 0
M  V30 7743 H 744.111 5.50449 2.55129 0
M  V30 7744 H 742.85 4.24917 2.39367 0
M  V30 7745 H 741.855 5.47997 0.444944 0
M  V30 7746 H 743.08 6.76227 0.624006 0
M  V30 7747 H 741.026 5.96823 2.72284 0
M  V30 7748 H 740.943 7.36603 1.70154 0
M  V30 7749 H 742.211 7.24178 2.88421 0
M  V30 7750 N 746.441 0.193421 1.56409 0
M  V30 7751 C 747.351 -0.740112 2.2262 0
M  V30 7752 C 748.367 -1.23597 1.22474 0
M  V30 7753 O 749.543 -1.28348 1.55206 0
M  V30 7754 C 746.608 -1.94317 2.87127 0
M  V30 7755 C 745.669 -1.49205 4.02538 0
M  V30 7756 C 744.902 -2.63776 4.63959 0
M  V30 7757 O 745.125 -3.81215 4.24301 0
M  V30 7758 O 744.059 -2.36585 5.53454 0
M  V30 7759 H 747.885 -0.206238 3.02999 0
M  V30 7760 H 745.47 -0.0357938 1.49357 0
M  V30 7761 H 747.352 -2.64633 3.27944 0
M  V30 7762 H 746.027 -2.46568 2.09728 0
M  V30 7763 H 744.934 -0.757738 3.66346 0
M  V30 7764 H 746.267 -1.01622 4.81595 0
M  V30 7765 N 747.919 -1.57396 -0.0801906 0
M  V30 7766 C 749.149 -1.90778 -0.792924 0
M  V30 7767 C 749.557 -0.786814 -1.72064 0
M  V30 7768 O 748.9 0.249259 -1.82001 0
M  V30 7769 C 748.962 -3.19552 -1.64702 0
M  V30 7770 C 748.626 -4.48259 -0.889567 0
M  V30 7771 C 749.623 -5.19465 -0.212602 0
M  V30 7772 C 747.308 -4.94896 -0.859229 0
M  V30 7773 C 749.302 -6.35555 0.484566 0
M  V30 7774 C 746.989 -6.10895 -0.158284 0
M  V30 7775 C 747.987 -6.81075 0.512421 0
M  V30 7776 O 747.675 -7.94862 1.20209 0
M  V30 7777 H 747.407 -0.63527 -0.231103 0
M  V30 7778 H 749.961 -2.0532 -0.0573081 0
M  V30 7779 H 748.191 -3.01196 -2.42524 0
M  V30 7780 H 749.88 -3.38649 -2.23767 0
M  V30 7781 H 750.646 -4.84467 -0.227403 0
M  V30 7782 H 746.525 -4.4015 -1.37073 0
M  V30 7783 H 750.069 -6.9027 1.00864 0
M  V30 7784 H 745.966 -6.45345 -0.141381 0
M  V30 7785 H 746.734 -8.10932 1.11051 0
M  V30 7786 N 749.397 0.351382 -1.53633 0
M  V30 7787 C 750.622 1.11718 -1.74739 0
M  V30 7788 C 751.047 1.81829 -0.481657 0
M  V30 7789 O 750.405 1.72264 0.565233 0
M  V30 7790 C 750.453 2.11234 -2.92254 0
M  V30 7791 O 749.557 3.186 -2.61855 0
M  V30 7792 H 748.898 0.323482 -0.579875 0
M  V30 7793 H 751.428 0.404167 -2.00568 0
M  V30 7794 H 751.438 2.54591 -3.18822 0
M  V30 7795 H 750.113 1.59599 -3.84058 0
M  V30 7796 H 748.69 2.80115 -2.4615 0
M  V30 7797 N 750.875 1.45233 0.611969 0
M  V30 7798 C 752.122 1.49021 1.37109 0
M  V30 7799 C 752.45 0.130227 1.94064 0
M  V30 7800 O 751.705 -0.870551 1.75271 0
M  V30 7801 C 752.004 2.51353 2.54079 0
M  V30 7802 C 751.67 3.96178 2.15299 0
M  V30 7803 C 750.332 4.35614 2.04436 0
M  V30 7804 C 752.684 4.87275 1.84966 0
M  V30 7805 C 750.012 5.64047 1.61456 0
M  V30 7806 C 752.364 6.16115 1.43474 0
M  V30 7807 C 751.028 6.54486 1.31167 0
M  V30 7808 H 750.298 0.545307 0.501719 0
M  V30 7809 H 752.945 1.78555 0.692122 0
M  V30 7810 H 751.25 2.15372 3.27295 0
M  V30 7811 H 752.947 2.51523 3.12309 0
M  V30 7812 H 749.537 3.6499 2.24678 0
M  V30 7813 H 753.721 4.57548 1.92258 0
M  V30 7814 H 748.977 5.92575 1.50547 0
M  V30 7815 H 753.151 6.86149 1.19048 0
M  V30 7816 H 750.778 7.53904 0.97637 0
M  V30 7817 N 752.353 -0.854086 1.3245 0
M  V30 7818 C 753.316 -1.94427 1.21371 0
M  V30 7819 C 754.316 -1.60219 0.136613 0
M  V30 7820 O 755.506 -1.69846 0.387057 0
M  V30 7821 C 752.638 -3.29698 0.866701 0
M  V30 7822 H 753.831 -2.05679 2.18257 0
M  V30 7823 H 751.384 -1.04434 1.1629 0
M  V30 7824 H 752.119 -3.24145 -0.100319 0
M  V30 7825 H 751.904 -3.55903 1.64545 0
M  V30 7826 H 753.394 -4.09599 0.813515 0
M  V30 7827 N 753.831 -1.1567 -1.07043 0
M  V30 7828 C 754.779 -0.852204 -2.16426 0
M  V30 7829 C 755.773 0.175661 -1.68487 0
M  V30 7830 O 756.979 0.0303874 -1.79974 0
M  V30 7831 H 753.354 -0.257942 -0.706378 0
M  V30 7832 H 755.325 -1.78231 -2.39324 0
M  V30 7833 C 754.074 -0.361362 -3.45817 0
M  V30 7834 H 753.397 -1.14369 -3.83092 0
M  V30 7835 H 754.837 -0.186997 -4.23587 0
M  V30 7836 C 753.296 0.917703 -3.2416 0
M  V30 7837 O 753.826 1.98858 -3.49025 0
M  V30 7838 N 752.032 0.858456 -2.77631 0
M  V30 7839 H 751.579 -0.0131821 -2.57597 0
M  V30 7840 H 751.537 1.71478 -2.6352 0
M  V30 7841 N 755.309 1.25446 -0.953992 0
M  V30 7842 C 756.539 1.96929 -0.624688 0
M  V30 7843 C 756.947 1.71112 0.807292 0
M  V30 7844 O 756.29 0.983512 1.55154 0
M  V30 7845 C 756.352 3.50425 -0.802676 0
M  V30 7846 C 756.016 3.99916 -2.21169 0
M  V30 7847 C 757.013 4.10662 -3.18831 0
M  V30 7848 C 754.698 4.33598 -2.53571 0
M  V30 7849 C 756.692 4.54401 -4.46988 0
M  V30 7850 C 754.379 4.77024 -3.81958 0
M  V30 7851 C 755.377 4.87388 -4.78478 0
M  V30 7852 O 755.065 5.29851 -6.04577 0
M  V30 7853 H 754.797 0.634511 -0.233179 0
M  V30 7854 H 757.351 1.60591 -1.28061 0
M  V30 7855 H 755.581 3.86596 -0.0896044 0
M  V30 7856 H 757.27 4.03117 -0.47452 0
M  V30 7857 H 758.036 3.84872 -2.95124 0
M  V30 7858 H 753.915 4.24757 -1.79171 0
M  V30 7859 H 757.459 4.62406 -5.22328 0
M  V30 7860 H 753.356 5.02258 -4.05471 0
M  V30 7861 H 754.124 5.48039 -6.07944 0
M  V30 7862 N 756.787 0.722489 1.40064 0
M  V30 7863 C 758.036 0.261932 1.99992 0
M  V30 7864 C 758.349 -1.15358 1.57961 0
M  V30 7865 O 759.555 -1.71301 2.10637 0
M  V30 7866 C 758.011 0.41737 3.57472 0
M  V30 7867 C 757.619 1.83997 4.08472 0
M  V30 7868 C 759.363 0.0179561 4.24496 0
M  V30 7869 C 757.27 1.94563 5.5848 0
M  V30 7870 H 756.2 0.0941768 0.748095 0
M  V30 7871 H 758.851 0.894572 1.60218 0
M  V30 7872 H 757.233 -0.283965 3.94981 0
M  V30 7873 H 758.407 2.57224 3.82325 0
M  V30 7874 H 756.722 2.19147 3.54067 0
M  V30 7875 H 759.319 0.076085 5.34646 0
M  V30 7876 H 759.662 -1.02498 4.03485 0
M  V30 7877 H 760.195 0.669988 3.92117 0
M  V30 7878 H 756.934 2.97001 5.84355 0
M  V30 7879 H 756.454 1.25756 5.86469 0
M  V30 7880 H 758.133 1.72095 6.23692 0
M  V30 7881 N 758.265 -1.50454 0.469181 0
M  V30 7882 C 759.493 -2.06729 -0.0842134 0
M  V30 7883 C 759.908 -1.33326 -1.33677 0
M  V30 7884 O 759.265 -0.401977 -1.78018 0
M  V30 7885 C 759.316 -3.59557 -0.374253 0
M  V30 7886 O 759.037 -4.30192 0.828622 0
M  V30 7887 C 760.538 -4.32449 -0.974824 0
M  V30 7888 H 757.758 -0.670971 0.006231 0
M  V30 7889 H 760.302 -1.93645 0.657415 0
M  V30 7890 H 758.457 -3.7245 -1.06581 0
M  V30 7891 H 758.871 -5.21371 0.572066 0
M  V30 7892 H 760.345 -5.40361 -1.12755 0
M  V30 7893 H 760.822 -3.92819 -1.96442 0
M  V30 7894 H 761.428 -4.24082 -0.321703 0
M  V30 7895 N 759.743 -0.201713 -1.56304 0
M  V30 7896 C 760.691 0.733133 -2.20744 0
M  V30 7897 C 761.685 1.2148 -1.18064 0
M  V30 7898 O 762.891 1.17692 -1.36193 0
M  V30 7899 H 759.266 0.254789 -0.707521 0
M  V30 7900 H 761.237 0.165996 -2.97938 0
M  V30 7901 C 759.986 1.93925 -2.88597 0
M  V30 7902 H 759.309 1.5777 -3.67353 0
M  V30 7903 H 760.749 2.57158 -3.37114 0
M  V30 7904 C 759.208 2.78219 -1.89989 0
M  V30 7905 O 759.738 3.76353 -1.40432 0
M  V30 7906 N 757.944 2.43847 -1.58072 0
M  V30 7907 H 757.491 1.64103 -1.98565 0
M  V30 7908 H 757.449 3.0053 -0.923524 0
M  V30 7909 N 761.222 1.57436 0.0718424 0
M  V30 7910 C 762.185 2.02703 1.06977 0
M  V30 7911 C 763.185 0.924062 1.31597 0
M  V30 7912 O 764.375 1.18894 1.27318 0
M  V30 7913 C 761.507 2.40763 2.41342 0
M  V30 7914 H 762.7 2.92098 0.679619 0
M  V30 7915 H 760.253 1.5304 0.317565 0
M  V30 7916 H 760.988 1.54394 2.8519 0
M  V30 7917 H 760.773 3.21249 2.24814 0
M  V30 7918 H 762.263 2.76361 3.13073 0
M  V30 7919 N 762.7 -0.34323 1.53817 0
M  V30 7920 C 763.947 -1.08344 1.71079 0
M  V30 7921 C 764.275 -1.88633 0.474133 0
M  V30 7922 O 763.53 -1.87984 -0.544116 0
M  V30 7923 C 763.829 -2.05195 2.92626 0
M  V30 7924 C 763.495 -1.41215 4.28216 0
M  V30 7925 C 762.157 -1.23495 4.65083 0
M  V30 7926 C 764.509 -0.951273 5.12445 0
M  V30 7927 C 761.837 -0.583065 5.83796 0
M  V30 7928 C 764.189 -0.313292 6.31824 0
M  V30 7929 C 762.853 -0.123779 6.67385 0
M  V30 7930 H 762.123 -0.396458 0.626021 0
M  V30 7931 H 764.77 -0.362689 1.88034 0
M  V30 7932 H 763.075 -2.83653 2.70275 0
M  V30 7933 H 764.772 -2.62462 3.03175 0
M  V30 7934 H 761.362 -1.56005 3.992 0
M  V30 7935 H 765.546 -1.07602 4.84495 0
M  V30 7936 H 760.802 -0.424854 6.09922 0
M  V30 7937 H 764.976 0.0519179 6.96381 0
M  V30 7938 H 762.603 0.383398 7.59233 0
M  V30 7939 N 764.178 -1.45556 -0.604258 0
M  V30 7940 C 765.426 -1.4945 -1.36048 0
M  V30 7941 C 765.747 -0.138933 -1.94504 0
M  V30 7942 O 765.017 0.832097 -1.7735 0
M  V30 7943 H 763.597 -0.550381 -0.505064 0
M  V30 7944 H 766.259 -1.81535 -0.709308 0
M  V30 7945 H 765.355 -2.23519 -2.17821 0
M  V30 7946 N 765.656 0.84705 -1.32902 0
M  V30 7947 C 766.588 1.96308 -1.18304 0
M  V30 7948 C 767.601 1.62386 -0.116082 0
M  V30 7949 O 768.79 1.74713 -0.365751 0
M  V30 7950 C 765.89 3.29556 -0.790305 0
M  V30 7951 C 765.063 3.91668 -1.94717 0
M  V30 7952 C 764.122 5.0326 -1.53674 0
M  V30 7953 O 763.148 5.22847 -2.24989 0
M  V30 7954 N 764.35 5.78852 -0.437075 0
M  V30 7955 H 767.115 2.09369 -2.14441 0
M  V30 7956 H 764.676 1.02233 -1.25539 0
M  V30 7957 H 766.668 4.01624 -0.49799 0
M  V30 7958 H 765.238 3.12497 0.0801286 0
M  V30 7959 H 764.458 3.12292 -2.40557 0
M  V30 7960 H 765.746 4.299 -2.72146 0
M  V30 7961 H 765.144 5.65484 0.156316 0
M  V30 7962 H 763.701 6.51479 -0.204399 0
M  V30 7963 N 767.134 1.16236 1.06428 0
M  V30 7964 C 768.381 0.943034 1.79201 0
M  V30 7965 C 768.709 -0.529243 1.87161 0
M  V30 7966 O 767.964 -1.40874 1.35842 0
M  V30 7967 C 768.263 1.51396 3.2375 0
M  V30 7968 C 767.929 3.00833 3.35873 0
M  V30 7969 C 766.591 3.41626 3.38888 0
M  V30 7970 C 768.943 3.96825 3.37904 0
M  V30 7971 C 766.271 4.77033 3.4155 0
M  V30 7972 C 768.623 5.32116 3.42104 0
M  V30 7973 C 767.287 5.72392 3.43401 0
M  V30 7974 H 766.557 0.34508 0.655744 0
M  V30 7975 H 769.204 1.44929 1.25171 0
M  V30 7976 H 767.509 0.929114 3.80624 0
M  V30 7977 H 769.206 1.31996 3.78653 0
M  V30 7978 H 765.796 2.68306 3.3423 0
M  V30 7979 H 769.98 3.66376 3.34787 0
M  V30 7980 H 765.236 5.07569 3.40858 0
M  V30 7981 H 769.41 6.06286 3.42623 0
M  V30 7982 H 767.037 6.77296 3.45216 0
M  V30 7983 N 768.612 -1.24939 0.960631 0
M  V30 7984 C 769.889 -1.88118 0.535807 0
M  V30 7985 C 770.269 -1.86605 -0.987009 0
M  V30 7986 O 769.617 -1.33375 -1.85536 0
M  V30 7987 C 769.827 -3.30565 1.11927 0
M  V30 7988 C 771.175 -4.07296 1.19981 0
M  V30 7989 O 772.199 -3.39709 1.07126 0
M  V30 7990 O 771.058 -5.28206 1.40218 0
M  V30 7991 H 768.152 -0.807698 0.177631 0
M  V30 7992 H 770.698 -1.32964 1.05445 0
M  V30 7993 H 769.47 -3.26128 2.16231 0
M  V30 7994 H 769.093 -3.93284 0.584245 0
M  V30 7995 N 770.09 -0.729906 -1.39679 0
M  V30 7996 C 771.038 -0.0756589 -2.32477 0
M  V30 7997 C 772.032 0.731438 -1.52795 0
M  V30 7998 O 773.238 0.633195 -1.68495 0
M  V30 7999 H 769.613 -0.00566492 -0.751979 0
M  V30 8000 H 771.584 -0.874797 -2.85289 0
M  V30 8001 C 770.333 0.821313 -3.37861 0
M  V30 8002 H 769.656 0.209666 -3.9925 0
M  V30 8003 H 771.096 1.24679 -4.05254 0
M  V30 8004 C 769.555 1.9533 -2.74495 0
M  V30 8005 O 770.085 3.04548 -2.61942 0
M  V30 8006 N 768.291 1.74119 -2.3266 0
M  V30 8007 H 767.838 0.852908 -2.4307 0
M  V30 8008 H 767.796 2.50036 -1.90603 0
M  V30 8009 N 771.568 1.50203 -0.477153 0
M  V30 8010 C 772.798 2.0647 0.0731427 0
M  V30 8011 C 773.206 1.3405 1.33518 0
M  V30 8012 O 772.549 0.405164 1.79176 0
M  V30 8013 C 772.611 3.57025 0.421121 0
M  V30 8014 C 772.275 4.50973 -0.739765 0
M  V30 8015 C 773.272 4.939 -1.62353 0
M  V30 8016 C 770.957 4.93581 -0.93181 0
M  V30 8017 C 772.951 5.78149 -2.6837 0
M  V30 8018 C 770.638 5.77612 -1.99519 0
M  V30 8019 C 771.636 6.19798 -2.86949 0
M  V30 8020 O 771.324 7.02152 -3.91456 0
M  V30 8021 H 771.056 0.675969 -0.00648243 0
M  V30 8022 H 773.61 1.94278 -0.66673 0
M  V30 8023 H 771.84 3.67141 1.21426 0
M  V30 8024 H 773.529 3.95632 0.907213 0
M  V30 8025 H 774.295 4.61646 -1.48687 0
M  V30 8026 H 770.174 4.60262 -0.260739 0
M  V30 8027 H 773.718 6.10997 -3.36643 0
M  V30 8028 H 769.615 6.09279 -2.13189 0
M  V30 8029 H 770.383 7.20414 -3.88518 0
M  V30 8030 N 773.046 0.209999 1.56195 0
M  V30 8031 C 774.274 -0.429996 2.02382 0
M  V30 8032 C 774.689 -1.54159 1.08998 0
M  V30 8033 O 774.046 -1.82239 0.0974856 0
M  V30 8034 C 774.097 -0.972433 3.48175 0
M  V30 8035 O 773.818 0.0948231 4.37997 0
M  V30 8036 C 775.319 -1.68683 4.09952 0
M  V30 8037 H 772.539 -0.106475 0.662498 0
M  V30 8038 H 775.083 0.323072 2.01932 0
M  V30 8039 H 773.238 -1.67582 3.49278 0
M  V30 8040 H 773.652 -0.31113 5.23576 0
M  V30 8041 H 775.126 -2.01851 5.13771 0
M  V30 8042 H 775.603 -2.59587 3.54276 0
M  V30 8043 H 776.209 -1.02893 4.12666 0
M  V30 8044 N 774.524 -1.57472 -0.0634922 0
M  V30 8045 C 775.935 -1.76303 -0.614337 0
M  V30 8046 C 776.286 -0.836578 -1.77471 0
M  V30 8047 O 775.411 -0.0227184 -2.16388 0
M  V30 8048 C 776.006 -3.19709 -1.12122 0
M  V30 8049 C 774.565 -3.39856 -1.61786 0
M  V30 8050 C 773.712 -2.71975 -0.540845 0
M  V30 8051 H 776.663 -1.57864 0.162702 0
M  V30 8052 H 776.684 -3.24326 -1.98979 0
M  V30 8053 H 776.196 -3.87114 -0.276472 0
M  V30 8054 H 774.297 -2.77578 -2.48558 0
M  V30 8055 H 774.41 -4.48338 -1.68908 0
M  V30 8056 H 772.774 -2.34763 -0.987854 0
M  V30 8057 H 773.557 -3.4204 0.293856 0
M  V30 8058 N 776.003 0.335068 -1.53997 0
M  V30 8059 C 776.936 1.43533 -1.77407 0
M  V30 8060 C 777.914 1.5017 -0.623529 0
M  V30 8061 O 779.098 1.67756 -0.85966 0
M  V30 8062 C 776.225 2.81712 -1.88033 0
M  V30 8063 C 775.271 2.92661 -3.10245 0
M  V30 8064 S 776.104 2.58254 -4.69111 0
M  V30 8065 C 777.26 3.98525 -4.82627 0
M  V30 8066 H 777.493 1.2346 -2.70453 0
M  V30 8067 H 775.026 0.531234 -1.44973 0
M  V30 8068 H 776.984 3.61314 -1.9484 0
M  V30 8069 H 775.645 2.99075 -0.959849 0
M  V30 8070 H 774.838 3.93931 -3.14379 0
M  V30 8071 H 774.44 2.21017 -3.01708 0
M  V30 8072 H 776.732 4.93146 -4.64557 0
M  V30 8073 H 777.675 3.9938 -5.84723 0
M  V30 8074 H 778.083 3.86945 -4.11016 0
M  V30 8075 N 777.481 1.45874 0.596531 0
M  V30 8076 C 778.413 1.51408 1.7207 0
M  V30 8077 C 779.426 0.403738 1.57714 0
M  V30 8078 O 780.615 0.671384 1.65393 0
M  V30 8079 C 777.715 1.3652 3.10186 0
M  V30 8080 C 776.888 2.61428 3.50677 0
M  V30 8081 C 775.947 2.40937 4.67799 0
M  V30 8082 O 774.973 3.14602 4.74357 0
M  V30 8083 N 776.175 1.4621 5.61785 0
M  V30 8084 H 778.94 2.48333 1.67782 0
M  V30 8085 H 776.501 1.41755 0.782129 0
M  V30 8086 H 778.493 1.20606 3.86311 0
M  V30 8087 H 777.063 0.478302 3.08919 0
M  V30 8088 H 776.283 2.92381 2.644 0
M  V30 8089 H 777.571 3.44432 3.74491 0
M  V30 8090 H 776.969 0.854382 5.59211 0
M  V30 8091 H 775.526 1.36264 6.37397 0
M  V30 8092 N 778.959 -0.83999 1.33349 0
M  V30 8093 C 779.889 -1.965 1.26135 0
M  V30 8094 C 780.87 -1.69505 0.142152 0
M  V30 8095 O 782.055 -1.91346 0.331743 0
M  V30 8096 C 779.185 -3.32632 0.99866 0
M  V30 8097 C 778.139 -3.74021 2.08068 0
M  V30 8098 C 777.465 -5.07947 1.67014 0
M  V30 8099 C 778.765 -3.87925 3.49731 0
M  V30 8100 H 780.459 -2.02793 2.20262 0
M  V30 8101 H 778.005 -0.974297 1.06035 0
M  V30 8102 H 779.958 -4.10903 0.934696 0
M  V30 8103 H 778.682 -3.26593 0.0217759 0
M  V30 8104 H 777.341 -2.98012 2.13505 0
M  V30 8105 H 776.989 -4.98378 0.680316 0
M  V30 8106 H 776.689 -5.36611 2.39422 0
M  V30 8107 H 778.213 -5.88695 1.62082 0
M  V30 8108 H 779.627 -4.5651 3.46802 0
M  V30 8109 H 778.024 -4.28023 4.20614 0
M  V30 8110 H 779.094 -2.90407 3.88319 0
M  V30 8111 N 780.437 -1.16799 -1.0581 0
M  V30 8112 C 781.4 -0.881396 -2.11575 0
M  V30 8113 C 782.4 0.12574 -1.60308 0
M  V30 8114 O 783.59 -0.105716 -1.73879 0
M  V30 8115 C 780.722 -0.319037 -3.39404 0
M  V30 8116 H 781.915 -1.81907 -2.38432 0
M  V30 8117 H 779.468 -0.977597 -1.21954 0
M  V30 8118 H 780.203 0.626082 -3.18199 0
M  V30 8119 H 779.988 -1.04481 -3.77923 0
M  V30 8120 H 781.478 -0.13663 -4.17376 0
M  V30 8121 N 781.915 1.24427 -0.967243 0
M  V30 8122 C 782.847 2.24641 -0.454856 0
M  V30 8123 C 783.86 1.56849 0.436152 0
M  V30 8124 O 785.049 1.76846 0.242401 0
M  V30 8125 C 782.149 3.36954 0.362672 0
M  V30 8126 C 781.322 4.34318 -0.518324 0
M  V30 8127 C 780.381 5.25638 0.243122 0
M  V30 8128 O 779.407 5.68043 -0.362791 0
M  V30 8129 N 780.609 5.59897 1.53282 0
M  V30 8130 H 783.374 2.69238 -1.31648 0
M  V30 8131 H 780.935 1.38464 -0.839015 0
M  V30 8132 H 782.927 3.95014 0.880094 0
M  V30 8133 H 781.497 2.91646 1.12522 0
M  V30 8134 H 780.717 3.74953 -1.21672 0
M  V30 8135 H 782.005 4.96338 -1.11919 0
M  V30 8136 H 781.403 5.27373 2.04682 0
M  V30 8137 H 779.96 6.20488 1.99594 0
M  V30 8138 N 783.393 0.737304 1.3929 0
M  V30 8139 C 784.623 0.296143 2.04467 0
M  V30 8140 C 785.031 -1.0748 1.55707 0
M  V30 8141 O 784.374 -1.69082 0.718123 0
M  V30 8142 C 784.436 0.222161 3.58813 0
M  V30 8143 C 784.1 1.53195 4.30558 0
M  V30 8144 C 785.097 2.47809 4.57041 0
M  V30 8145 C 782.782 1.79688 4.6906 0
M  V30 8146 C 784.776 3.67147 5.21039 0
M  V30 8147 C 782.463 2.99304 5.32785 0
M  V30 8148 C 783.461 3.92855 5.58708 0
M  V30 8149 O 783.149 5.1037 6.2111 0
M  V30 8150 H 782.881 0.126896 0.663983 0
M  V30 8151 H 785.435 1.00242 1.79278 0
M  V30 8152 H 783.665 -0.540239 3.82908 0
M  V30 8153 H 785.354 -0.187311 4.05468 0
M  V30 8154 H 786.12 2.28611 4.2774 0
M  V30 8155 H 781.999 1.07716 4.48239 0
M  V30 8156 H 785.543 4.40183 5.41188 0
M  V30 8157 H 781.44 3.18401 5.61508 0
M  V30 8158 H 782.208 5.10735 6.39603 0
M  V30 8159 N 784.871 -1.49948 0.485112 0
M  V30 8160 C 786.117 -2.02695 -0.0651022 0
M  V30 8161 C 786.45 -1.36534 -1.38102 0
M  V30 8162 O 785.725 -0.495677 -1.88078 0
M  V30 8163 C 786.008 -3.59337 -0.234285 0
M  V30 8164 C 785.861 -4.3605 1.10364 0
M  V30 8165 C 787.18 -4.28996 -0.982351 0
M  V30 8166 H 784.299 -0.736666 -0.0221856 0
M  V30 8167 H 786.941 -1.7913 0.633433 0
M  V30 8168 H 785.091 -3.79546 -0.829262 0
M  V30 8169 H 786.763 -4.27377 1.73627 0
M  V30 8170 H 785.006 -3.99236 1.69686 0
M  V30 8171 H 785.677 -5.43959 0.938743 0
M  V30 8172 H 788.153 -4.13346 -0.477904 0
M  V30 8173 H 787.029 -5.38379 -1.06955 0
M  V30 8174 H 787.29 -3.93135 -2.02231 0
M  V30 8175 N 786.349 -0.21828 -1.56081 0
M  V30 8176 C 787.312 0.679633 -2.18892 0
M  V30 8177 C 788.312 1.12405 -1.14986 0
M  V30 8178 O 789.502 1.03339 -1.40238 0
M  V30 8179 C 786.634 1.93063 -2.80962 0
M  V30 8180 H 787.827 0.132066 -2.99609 0
M  V30 8181 H 785.38 0.0313374 -1.56269 0
M  V30 8182 H 786.115 2.52015 -2.04106 0
M  V30 8183 H 785.9 1.62046 -3.57048 0
M  V30 8184 H 787.39 2.57043 -3.29118 0
M  V30 8185 N 787.827 1.57504 0.0551401 0
M  V30 8186 C 789.055 1.92294 0.76358 0
M  V30 8187 C 789.47 0.815774 1.70266 0
M  V30 8188 O 788.827 -0.209772 1.8129 0
M  V30 8189 C 788.878 3.26914 1.54302 0
M  V30 8190 O 788.599 4.33375 0.641666 0
M  V30 8191 C 790.1 3.75825 2.35097 0
M  V30 8192 H 787.32 0.635229 0.216159 0
M  V30 8193 H 789.864 2.0449 0.0204385 0
M  V30 8194 H 788.019 3.16196 2.23828 0
M  V30 8195 H 788.433 5.10927 1.1855 0
M  V30 8196 H 789.907 4.72603 2.8522 0
M  V30 8197 H 790.384 3.0568 3.15367 0
M  V30 8198 H 790.99 3.89542 1.70696 0
M  V30 8199 N 789.305 -0.326896 1.54172 0
M  V30 8200 C 790.554 -1.06274 1.71431 0
M  V30 8201 C 790.867 -1.89282 0.493123 0
M  V30 8202 O 792.073 -2.65933 0.54699 0
M  V30 8203 C 790.529 -1.93892 3.03206 0
M  V30 8204 C 790.137 -1.16011 4.32719 0
M  V30 8205 C 791.881 -2.67232 3.29829 0
M  V30 8206 C 789.788 -2.02755 5.55558 0
M  V30 8207 H 788.718 -0.400475 0.638855 0
M  V30 8208 H 791.369 -0.321184 1.80667 0
M  V30 8209 H 789.751 -2.71933 2.87869 0
M  V30 8210 H 790.925 -0.427643 4.58811 0
M  V30 8211 H 789.24 -0.54367 4.12836 0
M  V30 8212 H 791.837 -3.32434 4.18798 0
M  V30 8213 H 792.18 -3.34692 2.47562 0
M  V30 8214 H 792.713 -1.96255 3.46018 0
M  V30 8215 H 789.452 -1.3981 6.40417 0
M  V30 8216 H 788.972 -2.73745 5.33689 0
M  V30 8217 H 790.651 -2.61419 5.91835 0
M  V30 8218 N 790.784 -1.46188 -0.588786 0
M  V30 8219 C 791.747 -1.55882 -1.68029 0
M  V30 8220 C 792.747 -0.436515 -1.54762 0
M  V30 8221 O 793.937 -0.700626 -1.59489 0
M  V30 8222 C 791.069 -1.47332 -3.07418 0
M  V30 8223 H 792.262 -2.5315 -1.60795 0
M  V30 8224 H 789.815 -1.33908 -0.806116 0
M  V30 8225 H 790.55 -0.513193 -3.20214 0
M  V30 8226 H 790.335 -2.28753 -3.18456 0
M  V30 8227 H 791.825 -1.57187 -3.86887 0
M  V30 8228 N 792.262 0.832906 -1.33792 0
M  V30 8229 C 793.21 1.96455 -1.24532 0
M  V30 8230 C 794.204 1.68774 -0.145455 0
M  V30 8231 O 795.41 1.77314 -0.309797 0
M  V30 8232 H 791.785 0.645008 -0.386611 0
M  V30 8233 H 793.756 2.01389 -2.20193 0
M  V30 8234 C 792.505 3.32784 -1.00748 0
M  V30 8235 H 791.828 3.54626 -1.84609 0
M  V30 8236 H 793.268 4.12447 -0.98301 0
M  V30 8237 C 791.727 3.35654 0.289475 0
M  V30 8238 O 792.257 3.80281 1.29419 0
M  V30 8239 N 790.463 2.88843 0.3191 0
M  V30 8240 H 790.01 2.52719 -0.499069 0
M  V30 8241 H 789.968 2.91145 1.18667 0
M  V30 8242 N 793.74 1.17359 1.05189 0
M  V30 8243 C 794.688 0.886527 2.15043 0
M  V30 8244 C 795.682 -0.148834 1.68745 0
M  V30 8245 O 796.888 -0.00175123 1.8 0
M  V30 8246 H 793.263 0.269147 0.702185 0
M  V30 8247 H 795.234 1.82016 2.36459 0
M  V30 8248 C 793.983 0.416333 3.45198 0
M  V30 8249 H 793.306 1.20449 3.81225 0
M  V30 8250 H 794.746 0.254362 4.23236 0
M  V30 8251 C 793.205 -0.866016 3.25579 0
M  V30 8252 O 793.735 -1.9328 3.52144 0
M  V30 8253 N 791.941 -0.814179 2.78961 0
M  V30 8254 H 791.488 0.0541618 2.57543 0
M  V30 8255 H 791.446 -1.67264 2.66214 0
M  V30 8256 N 795.218 -1.23913 0.973828 0
M  V30 8257 C 796.466 -1.91771 0.637817 0
M  V30 8258 C 796.787 -1.76434 -0.830435 0
M  V30 8259 O 796.057 -1.13965 -1.59339 0
M  V30 8260 H 794.637 -0.709761 0.232912 0
M  V30 8261 H 797.299 -1.50677 1.23622 0
M  V30 8262 H 796.395 -2.99327 0.883731 0
M  V30 8263 N 796.696 -0.74468 -1.38897 0
M  V30 8264 C 797.942 -0.297324 -2.00609 0
M  V30 8265 C 798.275 1.11547 -1.58968 0
M  V30 8266 O 797.55 1.76227 -0.823057 0
M  V30 8267 C 797.833 -0.410125 -3.57757 0
M  V30 8268 C 797.686 -1.86338 -4.09387 0
M  V30 8269 C 799.005 0.20176 -4.39637 0
M  V30 8270 H 796.124 -0.109509 -0.728819 0
M  V30 8271 H 798.766 -0.942653 -1.64967 0
M  V30 8272 H 796.916 0.139287 -3.8825 0
M  V30 8273 H 798.588 -2.47042 -3.89574 0
M  V30 8274 H 796.831 -2.38146 -3.62586 0
M  V30 8275 H 797.502 -1.89352 -5.18507 0
M  V30 8276 H 799.978 -0.266703 -4.15244 0
M  V30 8277 H 798.854 0.0925415 -5.48822 0
M  V30 8278 H 799.115 1.289 -4.22891 0
M  V30 8279 N 798.174 1.49689 -0.493057 0
M  V30 8280 C 799.59 1.58907 -0.148526 0
M  V30 8281 C 799.79 1.4991 1.34645 0
M  V30 8282 O 798.846 1.36893 2.12171 0
M  V30 8283 C 800.159 2.91996 -0.718265 0
M  V30 8284 C 801.707 3.05443 -0.683658 0
M  V30 8285 C 802.182 4.41138 -1.23132 0
M  V30 8286 N 803.673 4.47608 -1.19167 0
M  V30 8287 C 804.408 5.51038 -1.5857 0
M  V30 8288 N 803.904 6.61612 -2.05528 0
M  V30 8289 N 805.697 5.41706 -1.50036 0
M  V30 8290 H 797.848 1.5378 -1.46511 0
M  V30 8291 H 800.111 0.727996 -0.607228 0
M  V30 8292 H 799.817 3.04123 -1.7664 0
M  V30 8293 H 799.691 3.76798 -0.17419 0
M  V30 8294 H 802.078 2.92949 0.355626 0
M  V30 8295 H 802.159 2.22344 -1.26479 0
M  V30 8296 H 801.803 4.54382 -2.26935 0
M  V30 8297 H 801.733 5.22864 -0.626201 0
M  V30 8298 H 804.224 3.68274 -0.847524 0
M  V30 8299 H 804.537 7.36622 -2.33685 0
M  V30 8300 H 802.882 6.62674 -2.09497 0
M  V30 8301 H 806.073 4.54212 -1.13176 0
M  V30 8302 H 806.246 6.22188 -1.81068 0
M  V30 8303 N 799.652 0.226554 1.55963 0
M  V30 8304 C 800.898 -0.404387 1.98727 0
M  V30 8305 C 801.231 -1.59059 1.11418 0
M  V30 8306 O 800.506 -1.93729 0.172971 0
M  V30 8307 C 800.789 -0.834081 3.50307 0
M  V30 8308 C 800.642 0.356104 4.48388 0
M  V30 8309 C 801.961 -1.68845 4.06423 0
M  V30 8310 H 799.08 -0.145515 0.722492 0
M  V30 8311 H 801.722 0.323791 1.87221 0
M  V30 8312 H 799.872 -1.45454 3.60244 0
M  V30 8313 H 801.544 0.99432 4.50456 0
M  V30 8314 H 799.787 1.0027 4.22053 0
M  V30 8315 H 800.458 0.0124333 5.51999 0
M  V30 8316 H 802.934 -1.16489 3.99461 0
M  V30 8317 H 801.81 -1.958 5.1279 0
M  V30 8318 H 802.071 -2.65347 3.53615 0
M  V30 8319 N 801.13 -1.57531 -0.0467866 0
M  V30 8320 C 802.093 -2.04379 -1.03738 0
M  V30 8321 C 803.093 -0.944881 -1.3011 0
M  V30 8322 O 804.283 -1.20904 -1.25411 0
M  V30 8323 C 801.415 -2.44572 -2.37482 0
M  V30 8324 H 802.608 -2.93142 -0.633063 0
M  V30 8325 H 800.161 -1.53526 -0.293177 0
M  V30 8326 H 800.896 -1.58911 -2.82697 0
M  V30 8327 H 800.681 -3.24785 -2.19675 0
M  V30 8328 H 802.171 -2.81307 -3.08636 0
M  V30 8329 N 802.608 0.318715 -1.54344 0
M  V30 8330 C 804.019 0.89285 -1.63967 0
M  V30 8331 C 804.37 1.88712 -0.536855 0
M  V30 8332 O 803.495 2.13877 0.329457 0
M  V30 8333 C 804.09 1.62618 -2.97222 0
M  V30 8334 C 802.649 2.14897 -3.09025 0
M  V30 8335 C 801.796 0.975909 -2.5956 0
M  V30 8336 H 804.747 0.0961687 -1.58408 0
M  V30 8337 H 804.768 2.4907 -2.87653 0
M  V30 8338 H 804.28 0.902286 -3.77466 0
M  V30 8339 H 802.381 2.90387 -2.33465 0
M  V30 8340 H 802.494 2.39565 -4.14904 0
M  V30 8341 H 800.858 1.35646 -2.15574 0
M  V30 8342 H 801.641 0.266253 -3.42266 0
M  V30 8343 N 804.086 1.46499 0.581025 0
M  V30 8344 C 805.502 1.31491 0.904563 0
M  V30 8345 C 805.702 0.287598 1.99437 0
M  V30 8346 O 804.758 -0.309247 2.50599 0
M  V30 8347 C 806.071 2.70163 1.32032 0
M  V30 8348 C 807.619 2.78266 1.43308 0
M  V30 8349 C 808.094 4.17524 1.8825 0
M  V30 8350 N 809.585 4.19949 1.9544 0
M  V30 8351 C 810.32 5.24594 2.31493 0
M  V30 8352 N 809.816 6.39564 2.66326 0
M  V30 8353 N 811.609 5.11961 2.32062 0
M  V30 8354 H 803.76 2.11946 -0.138856 0
M  V30 8355 H 806.023 0.948 0.000548528 0
M  V30 8356 H 805.729 3.46655 0.593554 0
M  V30 8357 H 805.603 3.00379 2.2815 0
M  V30 8358 H 807.99 2.02061 2.15071 0
M  V30 8359 H 808.071 2.51732 0.45438 0
M  V30 8360 H 807.715 4.94225 1.17065 0
M  V30 8361 H 807.645 4.41466 2.87081 0
M  V30 8362 H 810.136 3.36996 1.71004 0
M  V30 8363 H 810.449 7.15187 2.92793 0
M  V30 8364 H 808.794 6.42923 2.6396 0
M  V30 8365 H 811.985 4.21177 2.04272 0
M  V30 8366 H 812.158 5.93626 2.5983 0
M  V30 8367 N 805.565 -0.825799 1.34232 0
M  V30 8368 C 806.814 -1.57686 1.2577 0
M  V30 8369 C 807.127 -1.94848 -0.171372 0
M  V30 8370 O 808.333 -2.68854 -0.378123 0
M  V30 8371 C 806.789 -2.84478 2.20454 0
M  V30 8372 C 806.397 -2.54629 3.68603 0
M  V30 8373 C 808.141 -3.625 2.20893 0
M  V30 8374 C 806.048 -3.77597 4.55164 0
M  V30 8375 H 804.978 -0.591809 0.467203 0
M  V30 8376 H 807.629 -0.909421 1.59379 0
M  V30 8377 H 806.011 -3.52832 1.79793 0
M  V30 8378 H 807.185 -1.94404 4.17784 0
M  V30 8379 H 805.5 -1.89888 3.70582 0
M  V30 8380 H 808.097 -4.538 2.82789 0
M  V30 8381 H 808.44 -3.98404 1.20746 0
M  V30 8382 H 808.973 -3.01086 2.59985 0
M  V30 8383 H 805.712 -3.46815 5.56237 0
M  V30 8384 H 805.232 -4.37116 4.10719 0
M  V30 8385 H 806.911 -4.45039 4.69627 0
M  V30 8386 N 807.043 -1.17915 -1.04565 0
M  V30 8387 C 808.289 -0.972863 -1.77942 0
M  V30 8388 C 808.622 0.496753 -1.87739 0
M  V30 8389 O 807.897 1.3688 -1.38181 0
M  V30 8390 C 808.18 -1.62227 -3.21488 0
M  V30 8391 C 808.033 -3.16441 -3.19664 0
M  V30 8392 C 809.352 -1.33137 -4.19479 0
M  V30 8393 H 806.471 -0.354843 -0.645953 0
M  V30 8394 H 809.113 -1.45508 -1.22178 0
M  V30 8395 H 807.263 -1.21224 -3.69103 0
M  V30 8396 H 808.935 -3.66544 -2.80077 0
M  V30 8397 H 807.178 -3.48863 -2.57832 0
M  V30 8398 H 807.849 -3.57012 -4.21006 0
M  V30 8399 H 810.325 -1.68654 -3.80388 0
M  V30 8400 H 809.201 -1.81151 -5.18146 0
M  V30 8401 H 809.462 -0.253319 -4.41374 0
M  V30 8402 N 808.521 1.23394 -0.980386 0
M  V30 8403 C 809.431 2.28561 -0.528864 0
M  V30 8404 C 810.447 1.68946 0.416329 0
M  V30 8405 O 811.623 1.99355 0.286251 0
M  V30 8406 C 808.688 3.46323 0.16155 0
M  V30 8407 C 807.749 4.21297 -0.825044 0
M  V30 8408 C 806.982 5.33437 -0.167483 0
M  V30 8409 O 807.205 5.60812 1.04146 0
M  V30 8410 O 806.139 5.95637 -0.866047 0
M  V30 8411 H 809.965 2.69326 -1.40346 0
M  V30 8412 H 807.55 1.29325 -0.748019 0
M  V30 8413 H 809.432 4.17811 0.548841 0
M  V30 8414 H 808.107 3.0751 1.01092 0
M  V30 8415 H 807.014 3.52134 -1.26303 0
M  V30 8416 H 808.347 4.6396 -1.64322 0
M  V30 8417 N 809.999 0.752036 1.385 0
M  V30 8418 C 811.247 0.306895 1.99756 0
M  V30 8419 C 811.568 -1.11478 1.59992 0
M  V30 8420 O 810.838 -1.76206 0.856045 0
M  V30 8421 H 809.418 0.11048 0.738785 0
M  V30 8422 H 812.08 0.965785 1.69289 0
M  V30 8423 H 811.176 0.368797 3.09913 0
M  V30 8424 N 811.477 -1.49425 0.500989 0
M  V30 8425 C 812.726 -2.01649 -0.04538 0
M  V30 8426 C 813.039 -1.38572 -1.38047 0
M  V30 8427 O 814.245 -1.82124 -2.01353 0
M  V30 8428 C 812.701 -3.5966 -0.131337 0
M  V30 8429 C 812.309 -4.3171 1.19711 0
M  V30 8430 C 814.053 -4.19828 -0.628071 0
M  V30 8431 C 811.96 -5.81579 1.07332 0
M  V30 8432 H 810.89 -0.753715 -0.0207329 0
M  V30 8433 H 813.541 -1.71962 0.640407 0
M  V30 8434 H 811.923 -3.86063 -0.881574 0
M  V30 8435 H 813.097 -4.17008 1.96064 0
M  V30 8436 H 811.412 -3.83286 1.62729 0
M  V30 8437 H 814.009 -5.2958 -0.738198 0
M  V30 8438 H 814.352 -3.83194 -1.6269 0
M  V30 8439 H 814.885 -3.97746 0.0656314 0
M  V30 8440 H 811.624 -6.22738 2.04642 0
M  V30 8441 H 811.144 -5.98774 0.350679 0
M  V30 8442 H 812.823 -6.42614 0.752047 0
M  V30 8443 N 812.955 -0.234822 -1.55841 0
M  V30 8444 C 814.185 0.397168 -2.02746 0
M  V30 8445 C 814.593 1.52951 -1.11367 0
M  V30 8446 O 813.936 1.8332 -0.118133 0
M  V30 8447 C 813.998 0.977748 -3.45948 0
M  V30 8448 C 813.662 -0.0208193 -4.56995 0
M  V30 8449 C 814.659 -0.826015 -5.13296 0
M  V30 8450 C 812.344 -0.143416 -5.02095 0
M  V30 8451 C 814.338 -1.74038 -6.1318 0
M  V30 8452 C 812.025 -1.0613 -6.01814 0
M  V30 8453 C 813.023 -1.85832 -6.57233 0
M  V30 8454 O 812.711 -2.76075 -7.55008 0
M  V30 8455 H 812.443 0.0999802 -0.668566 0
M  V30 8456 H 814.997 -0.352673 -2.0235 0
M  V30 8457 H 813.227 1.77693 -3.43456 0
M  V30 8458 H 814.916 1.51854 -3.76424 0
M  V30 8459 H 815.682 -0.741822 -4.79293 0
M  V30 8460 H 811.561 0.466857 -4.5863 0
M  V30 8461 H 815.105 -2.36291 -6.56363 0
M  V30 8462 H 811.002 -1.14646 -6.35237 0
M  V30 8463 H 811.77 -2.703 -7.7258 0
M  V30 8464 N 814.433 1.57553 0.0384317 0
M  V30 8465 C 815.681 1.88468 0.729672 0
M  V30 8466 C 816.002 0.831302 1.76393 0
M  V30 8467 O 815.272 -0.13622 1.95426 0
M  V30 8468 H 813.852 0.695529 0.272485 0
M  V30 8469 H 816.514 1.94899 0.0066032 0
M  V30 8470 H 815.61 2.8705 1.22511 0
M  V30 8471 N 815.911 -0.310526 1.54511 0
M  V30 8472 C 816.859 -1.40272 1.85544 0
M  V30 8473 C 817.853 -1.52941 0.728377 0
M  V30 8474 O 819.059 -1.55172 0.912234 0
M  V30 8475 H 815.434 -0.468355 0.588343 0
M  V30 8476 H 817.405 -1.11329 2.76855 0
M  V30 8477 C 816.154 -2.76279 2.11105 0
M  V30 8478 H 815.477 -2.67308 2.97298 0
M  V30 8479 H 816.917 -3.51736 2.36765 0
M  V30 8480 C 815.376 -3.24472 0.906618 0
M  V30 8481 O 815.906 -4.01514 0.122358 0
M  V30 8482 N 814.112 -2.81676 0.714632 0
M  V30 8483 H 813.659 -2.19143 1.35404 0
M  V30 8484 H 813.617 -3.14272 -0.089703 0
M  V30 8485 N 817.389 -1.46805 -0.573248 0
M  V30 8486 C 818.337 -1.58468 -1.70267 0
M  V30 8487 C 819.331 -0.452694 -1.63239 0
M  V30 8488 O 820.537 -0.629915 -1.68618 0
M  V30 8489 H 816.912 -0.498408 -0.56311 0
M  V30 8490 H 818.883 -2.5341 -1.57563 0
M  V30 8491 C 817.632 -1.60104 -3.08645 0
M  V30 8492 H 816.955 -2.4655 -3.14727 0
M  V30 8493 H 818.395 -1.72318 -3.87405 0
M  V30 8494 C 816.854 -0.33138 -3.35266 0
M  V30 8495 O 817.384 0.57438 -3.97572 0
M  V30 8496 N 815.59 -0.216358 -2.89793 0
M  V30 8497 H 815.137 -0.954345 -2.3927 0
M  V30 8498 H 815.095 0.632253 -3.07977 0
M  V30 8499 N 818.867 0.818669 -1.34668 0
M  V30 8500 C 820.144 1.56118 -1.17841 0
M  V30 8501 C 820.524 2.09646 0.24731 0
M  V30 8502 O 819.872 1.91329 1.24922 0
M  V30 8503 C 820.082 2.67922 -2.23649 0
M  V30 8504 C 821.43 3.36579 -2.58843 0
M  V30 8505 O 822.454 2.78182 -2.22471 0
M  V30 8506 O 821.313 4.42045 -3.21339 0
M  V30 8507 H 818.407 0.689216 -0.457067 0
M  V30 8508 H 820.953 0.859674 -1.46314 0
M  V30 8509 H 819.725 2.26153 -3.19328 0
M  V30 8510 H 819.348 3.45719 -1.96377 0
M  V30 8511 N 820.346 1.18468 1.03938 0
M  V30 8512 C 821.293 0.912859 2.1198 0
M  V30 8513 C 822.263 -0.14824 1.65437 0
M  V30 8514 O 823.448 -0.008331 1.90798 0
M  V30 8515 C 820.588 0.446114 3.42204 0
M  V30 8516 C 819.701 1.57278 4.02353 0
M  V30 8517 C 818.836 1.05863 5.20544 0
M  V30 8518 C 817.875 2.1599 5.72726 0
M  V30 8519 N 817.012 1.65959 6.82204 0
M  V30 8520 H 821.852 1.83798 2.34569 0
M  V30 8521 H 819.389 0.916504 1.15059 0
M  V30 8522 H 821.347 0.15697 4.16905 0
M  V30 8523 H 819.977 -0.442025 3.19759 0
M  V30 8524 H 819.029 1.97737 3.24968 0
M  V30 8525 H 820.341 2.40289 4.37107 0
M  V30 8526 H 819.495 0.724087 6.02364 0
M  V30 8527 H 818.234 0.198116 4.87297 0
M  V30 8528 H 817.239 2.50287 4.89527 0
M  V30 8529 H 818.464 3.02479 6.08016 0
M  V30 8530 H 816.41 0.82199 6.5083 0
M  V30 8531 H 816.327 2.42567 7.16029 0
M  V30 8532 H 817.595 1.35436 7.67644 0
M  V30 8533 N 821.824 -1.22873 0.986916 0
M  V30 8534 C 823.072 -1.91084 0.658121 0
M  V30 8535 C 823.393 -1.77304 -0.811675 0
M  V30 8536 O 822.663 -1.15649 -1.58121 0
M  V30 8537 H 821.243 -0.707251 0.240427 0
M  V30 8538 H 823.905 -1.49357 1.25213 0
M  V30 8539 H 823.001 -2.98373 0.915428 0
M  V30 8540 N 823.302 -0.75937 -1.38099 0
M  V30 8541 C 824.55 -0.317485 -1.99591 0
M  V30 8542 C 824.871 1.10628 -1.60581 0
M  V30 8543 O 824.141 1.7575 -0.865378 0
M  V30 8544 H 822.721 -0.114397 -0.738189 0
M  V30 8545 H 825.383 -0.974749 -1.68774 0
M  V30 8546 H 824.479 -0.385227 -3.09713 0
M  V30 8547 N 824.78 1.49157 -0.508906 0
M  V30 8548 C 825.71 2.32109 0.254469 0
M  V30 8549 C 826.691 1.40754 0.955111 0
M  V30 8550 O 827.876 1.69658 0.944983 0
M  V30 8551 C 825.006 3.21458 1.3146 0
M  V30 8552 C 823.96 4.2167 0.733368 0
M  V30 8553 C 823.286 5.00009 1.8946 0
M  V30 8554 C 824.586 5.21544 -0.280875 0
M  V30 8555 H 826.28 2.9618 -0.43795 0
M  V30 8556 H 823.826 1.4243 -0.212062 0
M  V30 8557 H 825.779 3.78305 1.85643 0
M  V30 8558 H 824.503 2.55346 2.03632 0
M  V30 8559 H 823.162 3.65979 0.213231 0
M  V30 8560 H 822.81 4.30338 2.60419 0
M  V30 8561 H 822.51 5.67821 1.51173 0
M  V30 8562 H 824.034 5.59702 2.44061 0
M  V30 8563 H 825.448 5.73039 0.173095 0
M  V30 8564 H 823.845 5.97291 -0.580006 0
M  V30 8565 H 824.915 4.69969 -1.19404 0
M  V30 8566 N 826.258 0.243083 1.55714 0
M  V30 8567 C 827.506 -0.381964 1.98458 0
M  V30 8568 C 827.827 -1.58745 1.13247 0
M  V30 8569 O 827.097 -1.94723 0.214384 0
M  V30 8570 H 825.677 -0.144114 0.732967 0
M  V30 8571 H 828.339 0.340985 1.91894 0
M  V30 8572 H 827.435 -0.693702 3.04293 0
M  V30 8573 N 827.736 -1.57571 -0.0300757 0
M  V30 8574 C 829.013 -1.80381 -0.756447 0
M  V30 8575 C 829.393 -0.840906 -1.93628 0
M  V30 8576 O 828.741 0.117143 -2.282 0
M  V30 8577 C 828.951 -3.2807 -1.19043 0
M  V30 8578 C 830.299 -3.93025 -1.60676 0
M  V30 8579 O 831.323 -3.32213 -1.28503 0
M  V30 8580 O 830.182 -5.00092 -2.20386 0
M  V30 8581 H 827.276 -0.741737 -0.365725 0
M  V30 8582 H 829.822 -1.69699 -0.00693177 0
M  V30 8583 H 828.594 -3.89748 -0.348128 0
M  V30 8584 H 828.217 -3.43637 -1.99999 0
M  V30 8585 N 829.214 0.302327 -1.54673 0
M  V30 8586 C 830.144 1.37759 -1.88533 0
M  V30 8587 C 831.125 1.52961 -0.744113 0
M  V30 8588 O 832.31 1.6649 -0.999731 0
M  V30 8589 C 829.44 2.74201 -2.13146 0
M  V30 8590 C 828.394 2.73765 -3.28993 0
M  V30 8591 C 827.72 4.13483 -3.39022 0
M  V30 8592 C 829.02 2.35624 -4.66132 0
M  V30 8593 H 830.714 1.0967 -2.78591 0
M  V30 8594 H 828.26 0.52613 -1.34044 0
M  V30 8595 H 830.213 3.49508 -2.35419 0
M  V30 8596 H 828.937 3.03812 -1.19858 0
M  V30 8597 H 827.596 2.00914 -3.06642 0
M  V30 8598 H 827.244 4.40269 -2.43253 0
M  V30 8599 H 826.944 4.14093 -4.16894 0
M  V30 8600 H 828.468 4.90572 -3.63553 0
M  V30 8601 H 829.882 3.00647 -4.88143 0
M  V30 8602 H 828.279 2.47449 -5.46707 0
M  V30 8603 H 829.349 1.30753 -4.66939 0
M  V30 8604 N 830.692 1.47107 0.565454 0
M  V30 8605 C 831.941 1.5257 1.31929 0
M  V30 8606 C 832.254 0.189092 1.94684 0
M  V30 8607 O 833.46 0.121657 2.71227 0
M  V30 8608 C 831.916 2.68914 2.39193 0
M  V30 8609 C 831.524 4.09069 1.82665 0
M  V30 8610 C 833.268 2.83663 3.1581 0
M  V30 8611 C 831.175 5.16726 2.87661 0
M  V30 8612 H 830.105 0.567869 0.496025 0
M  V30 8613 H 832.756 1.73361 0.60151 0
M  V30 8614 H 831.138 2.41486 3.13848 0
M  V30 8615 H 832.312 4.46364 1.14438 0
M  V30 8616 H 830.627 3.99135 1.1866 0
M  V30 8617 H 833.224 3.61261 3.94201 0
M  V30 8618 H 833.567 1.91804 3.69482 0
M  V30 8619 H 834.1 3.10821 2.48265 0
M  V30 8620 H 830.839 6.10433 2.38854 0
M  V30 8621 H 830.359 4.83957 3.54324 0
M  V30 8622 H 832.038 5.43319 3.51303 0
M  V30 8623 N 832.17 -0.811516 1.35101 0
M  V30 8624 C 833.102 -1.93102 1.23468 0
M  V30 8625 C 834.115 -1.62021 0.159095 0
M  V30 8626 O 835.304 -1.73682 0.411945 0
M  V30 8627 C 832.404 -3.27345 0.877404 0
M  V30 8628 C 831.577 -3.86368 2.05033 0
M  V30 8629 C 830.636 -4.99009 1.66963 0
M  V30 8630 O 829.662 -5.16698 2.38772 0
M  V30 8631 N 830.864 -5.7749 0.590394 0
M  V30 8632 H 833.629 -2.0361 2.19916 0
M  V30 8633 H 831.19 -0.988687 1.28205 0
M  V30 8634 H 833.182 -4.00163 0.604298 0
M  V30 8635 H 831.752 -3.126 0.00275267 0
M  V30 8636 H 830.972 -3.05804 2.48752 0
M  V30 8637 H 832.26 -4.22533 2.83449 0
M  V30 8638 H 831.658 -5.657 -0.00633259 0
M  V30 8639 H 830.215 -6.50708 0.377055 0
M  V30 8640 N 833.648 -1.19017 -1.03309 0
M  V30 8641 C 834.58 -0.881847 -2.11556 0
M  V30 8642 C 835.593 0.123711 -1.62329 0
M  V30 8643 O 836.782 -0.105141 -1.7819 0
M  V30 8644 C 833.882 -0.297634 -3.37591 0
M  V30 8645 C 833.055 -1.35072 -4.16022 0
M  V30 8646 C 832.114 -0.780812 -5.20375 0
M  V30 8647 O 831.14 -1.45745 -5.50224 0
M  V30 8648 N 832.342 0.417964 -5.78993 0
M  V30 8649 H 835.107 -1.81359 -2.38598 0
M  V30 8650 H 832.668 -1.0916 -1.19565 0
M  V30 8651 H 834.66 0.097374 -4.04583 0
M  V30 8652 H 833.23 0.538299 -3.0793 0
M  V30 8653 H 832.45 -1.92074 -3.4424 0
M  V30 8654 H 833.738 -2.06044 -4.65213 0
M  V30 8655 H 833.136 0.985281 -5.57054 0
M  V30 8656 H 831.693 0.754802 -6.47415 0
M  V30 8657 N 835.127 1.22348 -0.993418 0
M  V30 8658 C 836.057 2.26584 -0.564088 0
M  V30 8659 C 837.038 1.65102 0.409298 0
M  V30 8660 O 838.223 1.91872 0.299819 0
M  V30 8661 C 835.353 3.47087 0.121554 0
M  V30 8662 C 834.307 4.21009 -0.770429 0
M  V30 8663 C 833.633 5.34678 0.0481586 0
M  V30 8664 C 834.933 4.79636 -2.06752 0
M  V30 8665 H 836.627 2.62749 -1.43538 0
M  V30 8666 H 834.173 1.26303 -0.691628 0
M  V30 8667 H 836.126 4.19166 0.433303 0
M  V30 8668 H 834.85 3.1002 1.0274 0
M  V30 8669 H 833.509 3.50764 -1.06583 0
M  V30 8670 H 833.157 4.93852 0.954933 0
M  V30 8671 H 832.857 5.85061 -0.545641 0
M  V30 8672 H 834.381 6.09573 0.353991 0
M  V30 8673 H 835.795 5.43654 -1.81969 0
M  V30 8674 H 834.192 5.4036 -2.61019 0
M  V30 8675 H 835.262 3.99659 -2.74592 0
M  V30 8676 N 836.605 0.766683 1.37694 0
M  V30 8677 C 837.537 0.107798 2.28946 0
M  V30 8678 C 838.55 -0.669701 1.48387 0
M  V30 8679 O 839.739 -0.508629 1.711 0
M  V30 8680 C 836.839 -0.871084 3.27514 0
M  V30 8681 C 836.012 -0.148471 4.37148 0
M  V30 8682 C 835.071 -1.03998 5.1582 0
M  V30 8683 O 834.097 -0.505639 5.6695 0
M  V30 8684 N 835.299 -2.36679 5.3006 0
M  V30 8685 H 838.064 0.89154 2.86132 0
M  V30 8686 H 835.625 0.618593 1.49616 0
M  V30 8687 H 837.617 -1.47081 3.77027 0
M  V30 8688 H 836.187 -1.55582 2.71133 0
M  V30 8689 H 835.407 0.632117 3.89099 0
M  V30 8690 H 836.695 0.351045 5.07588 0
M  V30 8691 H 836.093 -2.82532 4.90094 0
M  V30 8692 H 834.65 -2.9167 5.82899 0
M  V30 8693 N 838.083 -1.48885 0.516809 0
M  V30 8694 C 839.494 -1.86557 0.0729921 0
M  V30 8695 C 839.845 -1.42767 -1.34581 0
M  V30 8696 O 838.97 -0.812514 -2.00567 0
M  V30 8697 C 839.565 -3.38567 0.125686 0
M  V30 8698 C 838.124 -3.75481 -0.262867 0
M  V30 8699 C 837.271 -2.72913 0.491281 0
M  V30 8700 H 840.222 -1.40978 0.728767 0
M  V30 8701 H 840.243 -3.74629 -0.665831 0
M  V30 8702 H 839.755 -3.70408 1.15842 0
M  V30 8703 H 837.856 -3.49251 -1.29824 0
M  V30 8704 H 837.969 -4.79052 0.067579 0
M  V30 8705 H 836.333 -2.54627 -0.0608525 0
M  V30 8706 H 837.116 -3.07599 1.5244 0
M  V30 8707 N 839.561 -0.251338 -1.55583 0
M  V30 8708 C 840.789 0.376187 -2.03451 0
M  V30 8709 C 841.204 1.51215 -1.13047 0
M  V30 8710 O 840.561 1.81917 -0.145769 0
M  V30 8711 C 840.612 0.879779 -3.50631 0
M  V30 8712 O 840.333 -0.210917 -4.37592 0
M  V30 8713 C 841.834 1.57754 -4.14281 0
M  V30 8714 H 839.054 0.0888722 -0.665089 0
M  V30 8715 H 841.598 -0.376497 -2.01004 0
M  V30 8716 H 839.753 1.58263 -3.53598 0
M  V30 8717 H 840.167 0.172203 -5.24217 0
M  V30 8718 H 841.641 1.88158 -5.18942 0
M  V30 8719 H 842.118 2.50103 -3.61034 0
M  V30 8720 H 842.724 0.919154 -4.15249 0
M  V30 8721 N 841.039 1.57585 0.0217189 0
M  V30 8722 C 841.949 2.10444 1.03684 0
M  V30 8723 C 842.965 1.04472 1.39146 0
M  V30 8724 O 844.141 1.36249 1.48317 0
M  V30 8725 C 841.206 2.5794 2.31664 0
M  V30 8726 C 840.267 3.78425 2.02714 0
M  V30 8727 C 839.5 4.23646 3.24592 0
M  V30 8728 O 839.723 3.6834 4.35525 0
M  V30 8729 O 838.657 5.16013 3.09862 0
M  V30 8730 H 842.483 2.97354 0.617584 0
M  V30 8731 H 840.068 1.47473 0.239174 0
M  V30 8732 H 841.95 2.88785 3.06889 0
M  V30 8733 H 840.625 1.74138 2.7287 0
M  V30 8734 H 839.532 3.52587 1.25033 0
M  V30 8735 H 840.865 4.63234 1.66359 0
M  V30 8736 N 842.517 -0.29412 1.54831 0
M  V30 8737 C 843.45 -1.38779 1.81151 0
M  V30 8738 C 844.428 -1.48464 0.663124 0
M  V30 8739 O 845.612 -1.65418 0.903835 0
M  V30 8740 C 842.739 -2.76627 1.95436 0
M  V30 8741 C 841.785 -2.84333 3.17895 0
M  V30 8742 S 842.618 -2.45726 4.75793 0
M  V30 8743 C 843.774 -3.85589 4.93023 0
M  V30 8744 H 844.007 -1.16246 2.73631 0
M  V30 8745 H 841.54 -0.492611 1.46331 0
M  V30 8746 H 843.498 -3.56021 2.04351 0
M  V30 8747 H 842.159 -2.96425 1.03881 0
M  V30 8748 H 841.352 -3.85457 3.24713 0
M  V30 8749 H 840.954 -2.1294 3.07461 0
M  V30 8750 H 843.246 -4.80656 4.77468 0
M  V30 8751 H 844.189 -3.83737 5.95107 0
M  V30 8752 H 844.597 -3.75911 4.21131 0
M  V30 8753 N 843.995 -1.47404 -0.557645 0
M  V30 8754 C 844.943 -1.60265 -1.68576 0
M  V30 8755 C 845.937 -0.469982 -1.6275 0
M  V30 8756 O 847.143 -0.647764 -1.67941 0
M  V30 8757 H 843.518 -0.504353 -0.557792 0
M  V30 8758 H 845.489 -2.55066 -1.54867 0
M  V30 8759 C 844.238 -1.63369 -3.0693 0
M  V30 8760 H 843.561 -2.49874 -3.12095 0
M  V30 8761 H 845.001 -1.76417 -3.85556 0
M  V30 8762 C 843.46 -0.366921 -3.34896 0
M  V30 8763 O 843.99 0.53218 -3.98159 0
M  V30 8764 N 842.196 -0.247082 -2.89548 0
M  V30 8765 H 841.743 -0.979669 -2.38244 0
M  V30 8766 H 841.701 0.599552 -3.0863 0
M  V30 8767 N 845.473 0.80434 -1.35529 0
M  V30 8768 C 846.42 1.91629 -1.28635 0
M  V30 8769 C 847.39 1.65348 -0.157862 0
M  V30 8770 O 848.575 1.87711 -0.341934 0
M  V30 8771 C 845.715 3.28207 -1.0665 0
M  V30 8772 C 844.828 3.66659 -2.28441 0
M  V30 8773 C 843.963 4.92279 -1.99588 0
M  V30 8774 C 843.002 5.23365 -3.1742 0
M  V30 8775 N 842.139 6.40165 -2.88328 0
M  V30 8776 H 846.979 1.96858 -2.23721 0
M  V30 8777 H 844.516 0.962871 -1.11208 0
M  V30 8778 H 846.474 4.06945 -0.919343 0
M  V30 8779 H 845.104 3.22441 -0.152253 0
M  V30 8780 H 844.156 2.83164 -2.54013 0
M  V30 8781 H 845.468 3.8559 -3.1642 0
M  V30 8782 H 844.622 5.78847 -1.81715 0
M  V30 8783 H 843.361 4.75387 -1.08896 0
M  V30 8784 H 842.366 4.35285 -3.35867 0
M  V30 8785 H 843.591 5.42185 -4.08916 0
M  V30 8786 H 841.537 6.24694 -2.00233 0
M  V30 8787 H 841.454 6.59357 -3.69843 0
M  V30 8788 H 842.722 7.29755 -2.74002 0
M  V30 8789 N 846.951 1.19563 1.02676 0
M  V30 8790 C 848.197 1.00105 1.76371 0
M  V30 8791 C 848.53 -0.466823 1.88506 0
M  V30 8792 O 847.805 -1.34665 1.40341 0
M  V30 8793 C 848.088 1.67321 3.18866 0
M  V30 8794 C 847.941 3.21486 3.1459 0
M  V30 8795 C 849.26 1.39794 4.17308 0
M  V30 8796 H 846.379 0.365075 0.640226 0
M  V30 8797 H 849.021 1.47433 1.19848 0
M  V30 8798 H 847.171 1.27081 3.67128 0
M  V30 8799 H 848.843 3.70953 2.7421 0
M  V30 8800 H 847.086 3.5292 2.52249 0
M  V30 8801 H 847.757 3.63665 4.15273 0
M  V30 8802 H 850.233 1.74685 3.77657 0
M  V30 8803 H 849.109 1.89371 5.15199 0
M  V30 8804 H 849.37 0.323505 4.40915 0
M  V30 8805 N 848.429 -1.21819 0.999893 0
M  V30 8806 C 849.377 -2.26027 0.549047 0
M  V30 8807 C 850.371 -1.64516 -0.403826 0
M  V30 8808 O 851.577 -1.77878 -0.275578 0
M  V30 8809 H 847.952 -0.734958 0.159185 0
M  V30 8810 H 849.923 -2.61398 1.43923 0
M  V30 8811 C 848.672 -3.47514 -0.11369 0
M  V30 8812 H 847.995 -3.95112 0.610482 0
M  V30 8813 H 849.435 -4.22179 -0.3925 0
M  V30 8814 C 847.894 -3.08614 -1.35126 0
M  V30 8815 O 848.424 -3.1864 -2.44605 0
M  V30 8816 N 846.63 -2.63327 -1.22911 0
M  V30 8817 H 846.177 -2.55369 -0.338288 0
M  V30 8818 H 846.135 -2.37668 -2.05818 0
M  V30 8819 N 849.908 -0.773975 -1.37286 0
M  V30 8820 C 851.157 -0.335977 -1.98882 0
M  V30 8821 C 851.47 1.09416 -1.62134 0
M  V30 8822 O 852.676 1.63366 -2.1685 0
M  V30 8823 C 851.132 -0.549756 -3.55676 0
M  V30 8824 C 850.74 -1.9903 -4.01361 0
M  V30 8825 C 852.484 -0.175493 -4.24137 0
M  V30 8826 C 850.391 -2.15156 -5.50874 0
M  V30 8827 H 849.321 -0.121877 -0.744085 0
M  V30 8828 H 851.972 -0.953419 -1.56787 0
M  V30 8829 H 850.354 0.137175 -3.95762 0
M  V30 8830 H 851.528 -2.71237 -3.72515 0
M  V30 8831 H 849.843 -2.32137 -3.4569 0
M  V30 8832 H 852.44 -0.274463 -5.33995 0
M  V30 8833 H 852.783 0.874524 -4.07011 0
M  V30 8834 H 853.316 -0.815058 -3.89361 0
M  V30 8835 H 850.055 -3.18485 -5.72929 0
M  V30 8836 H 849.575 -1.47435 -5.81397 0
M  V30 8837 H 851.254 -1.95124 -6.16876 0
M  V30 8838 N 851.386 1.48609 -0.524698 0
M  V30 8839 C 852.611 2.07398 0.00952139 0
M  V30 8840 C 853.036 1.37939 1.27884 0
M  V30 8841 O 852.394 0.443633 1.75788 0
M  V30 8842 C 852.442 3.59916 0.221956 0
M  V30 8843 O 851.546 3.91647 1.29175 0
M  V30 8844 H 850.887 0.662981 -0.0367729 0
M  V30 8845 H 853.417 1.91092 -0.7311 0
M  V30 8846 H 853.427 4.05552 0.446236 0
M  V30 8847 H 852.102 4.09876 -0.705306 0
M  V30 8848 H 850.679 3.57796 1.05055 0
M  V30 8849 N 852.864 0.259585 1.55447 0
M  V30 8850 C 854.141 -0.412595 1.91199 0
M  V30 8851 C 854.521 -1.74909 1.18194 0
M  V30 8852 O 853.869 -2.26474 0.303603 0
M  V30 8853 C 854.079 -0.568195 3.44344 0
M  V30 8854 C 855.427 -0.858253 4.15836 0
M  V30 8855 O 856.451 -0.653588 3.50152 0
M  V30 8856 O 855.31 -1.24874 5.32042 0
M  V30 8857 H 852.404 -0.223403 0.796254 0
M  V30 8858 H 854.95 0.30459 1.66944 0
M  V30 8859 H 853.722 0.372989 3.89518 0
M  V30 8860 H 853.345 -1.33544 3.74502 0
M  V30 8861 N 854.342 -1.57594 -0.0133615 0
M  V30 8862 C 855.567 -1.94649 -0.715996 0
M  V30 8863 C 855.992 -0.860786 -1.67249 0
M  V30 8864 O 855.35 0.182228 -1.80382 0
M  V30 8865 C 855.398 -3.30789 -1.43566 0
M  V30 8866 O 854.502 -3.24148 -2.54955 0
M  V30 8867 H 853.843 -0.635801 -0.191449 0
M  V30 8868 H 856.373 -2.04569 0.0358478 0
M  V30 8869 H 856.383 -3.66045 -1.80208 0
M  V30 8870 H 855.058 -4.09367 -0.734263 0
M  V30 8871 H 853.635 -3.00548 -2.20739 0
M  V30 8872 N 855.82 0.285905 -1.54985 0
M  V30 8873 C 857.097 1.0397 -1.65679 0
M  V30 8874 C 857.477 2.04725 -0.514851 0
M  V30 8875 O 856.825 2.23257 0.486663 0
M  V30 8876 C 857.035 1.70807 -3.04345 0
M  V30 8877 C 858.383 2.22447 -3.61666 0
M  V30 8878 O 859.407 1.80815 -3.06895 0
M  V30 8879 O 858.266 2.98773 -4.57599 0
M  V30 8880 H 855.36 0.481473 -0.672394 0
M  V30 8881 H 857.906 0.282789 -1.67327 0
M  V30 8882 H 856.678 0.977271 -3.789 0
M  V30 8883 H 856.301 2.53217 -3.06541 0
M  V30 8884 N 857.298 1.47698 0.54982 0
M  V30 8885 C 858.231 1.55288 1.67215 0
M  V30 8886 C 859.209 0.404533 1.57487 0
M  V30 8887 O 860.393 0.613372 1.78241 0
M  V30 8888 C 857.52 1.46233 3.05505 0
M  V30 8889 C 856.566 2.65662 3.33655 0
M  V30 8890 S 857.399 4.278 3.22098 0
M  V30 8891 C 858.555 4.21311 4.62869 0
M  V30 8892 H 858.788 2.50238 1.60524 0
M  V30 8893 H 856.321 1.35987 0.731227 0
M  V30 8894 H 858.279 1.41696 3.85269 0
M  V30 8895 H 856.94 0.526543 3.09655 0
M  V30 8896 H 856.133 2.55411 4.3449 0
M  V30 8897 H 855.735 2.67359 2.61524 0
M  V30 8898 H 858.027 3.90021 5.53977 0
M  V30 8899 H 858.97 5.22257 4.78177 0
M  V30 8900 H 859.378 3.52063 4.41262 0
M  V30 8901 N 858.776 -0.797141 1.35954 0
M  V30 8902 C 860.001 -1.59097 1.33053 0
M  V30 8903 C 860.426 -1.87897 -0.0874592 0
M  V30 8904 O 859.784 -1.47291 -1.05712 0
M  V30 8905 C 859.832 -2.89346 2.152 0
M  V30 8906 O 858.936 -3.826 1.5392 0
M  V30 8907 H 858.277 -0.482895 0.45575 0
M  V30 8908 H 860.807 -0.988633 1.79129 0
M  V30 8909 H 860.817 -3.38686 2.27499 0
M  V30 8910 H 859.492 -2.6771 3.18283 0
M  V30 8911 H 858.069 -3.41174 1.50516 0
M  V30 8912 N 860.254 -1.20106 -1.0204 0
M  V30 8913 C 861.503 -1.00316 -1.74985 0
M  V30 8914 C 861.816 0.465814 -1.89972 0
M  V30 8915 O 863.022 0.782749 -2.59972 0
M  V30 8916 C 861.478 -1.74608 -3.14706 0
M  V30 8917 C 861.086 -3.25573 -3.07744 0
M  V30 8918 C 862.83 -1.63172 -3.91887 0
M  V30 8919 C 860.737 -3.92419 -4.42449 0
M  V30 8920 H 859.667 -0.371728 -0.655999 0
M  V30 8921 H 862.318 -1.43688 -1.14131 0
M  V30 8922 H 860.7 -1.24021 -3.76078 0
M  V30 8923 H 861.874 -3.83345 -2.55702 0
M  V30 8924 H 860.189 -3.3738 -2.44057 0
M  V30 8925 H 862.786 -2.10457 -4.9154 0
M  V30 8926 H 863.129 -0.58728 -4.12137 0
M  V30 8927 H 863.662 -2.11152 -3.37135 0
M  V30 8928 H 860.401 -4.96998 -4.27403 0
M  V30 8929 H 859.921 -3.39436 -4.94513 0
M  V30 8930 H 861.6 -3.96453 -5.11306 0
M  V30 8931 N 861.732 1.21287 -1.00634 0
M  V30 8932 C 862.662 2.25973 -0.588089 0
M  V30 8933 C 863.643 1.65527 0.391764 0
M  V30 8934 O 864.828 1.92179 0.279452 0
M  V30 8935 C 861.958 3.47197 0.0847336 0
M  V30 8936 C 860.912 4.20168 -0.815039 0
M  V30 8937 C 860.238 5.34699 -0.00855393 0
M  V30 8938 C 861.538 4.77416 -2.11828 0
M  V30 8939 H 863.232 2.61212 -1.46317 0
M  V30 8940 H 860.778 1.25563 -0.704985 0
M  V30 8941 H 862.731 4.19602 0.388821 0
M  V30 8942 H 861.455 3.11092 0.994456 0
M  V30 8943 H 860.114 3.49614 -1.10297 0
M  V30 8944 H 859.762 4.94837 0.902499 0
M  V30 8945 H 859.462 5.84449 -0.607664 0
M  V30 8946 H 860.986 6.09914 0.289317 0
M  V30 8947 H 862.4 5.41694 -1.87725 0
M  V30 8948 H 860.797 5.37561 -2.66736 0
M  V30 8949 H 861.867 3.96724 -2.78816 0
M  V30 8950 N 863.21 0.781244 1.36873 0
M  V30 8951 C 864.16 0.147313 2.27524 0
M  V30 8952 C 865.144 -0.663928 1.46563 0
M  V30 8953 O 866.336 -0.525343 1.69024 0
M  V30 8954 C 863.465 -0.723511 3.35589 0
M  V30 8955 C 862.551 0.0960763 4.23991 0
M  V30 8956 N 862.942 1.14649 4.92635 0
M  V30 8957 C 861.24 -0.126397 4.45821 0
M  V30 8958 C 861.941 1.64474 5.57964 0
M  V30 8959 N 860.917 0.955316 5.3514 0
M  V30 8960 H 864.719 0.951406 2.78075 0
M  V30 8961 H 862.233 0.619913 1.50103 0
M  V30 8962 H 864.23 -1.19351 3.99451 0
M  V30 8963 H 862.89 -1.52624 2.86594 0
M  V30 8964 H 863.901 1.5288 4.94821 0
M  V30 8965 H 860.578 -0.900284 4.07678 0
M  V30 8966 H 861.968 2.52124 6.22803 0
M  V30 8967 N 864.689 -1.48329 0.532571 0
M  V30 8968 C 865.621 -2.27652 -0.265931 0
M  V30 8969 C 866.634 -1.35522 -0.902083 0
M  V30 8970 O 867.823 -1.60552 -0.780088 0
M  V30 8971 C 864.923 -3.0899 -1.39207 0
M  V30 8972 C 864.096 -4.28915 -0.857349 0
M  V30 8973 C 863.155 -4.92044 -1.86493 0
M  V30 8974 O 862.181 -5.51181 -1.42084 0
M  V30 8975 N 863.383 -4.84518 -3.19723 0
M  V30 8976 H 866.148 -2.96821 0.414389 0
M  V30 8977 H 863.709 -1.57684 0.367066 0
M  V30 8978 H 865.701 -3.48091 -2.06433 0
M  V30 8979 H 864.271 -2.42224 -1.97601 0
M  V30 8980 H 863.491 -3.94199 -0.00901765 0
M  V30 8981 H 864.779 -5.0654 -0.479025 0
M  V30 8982 H 864.177 -4.37628 -3.58467 0
M  V30 8983 H 862.734 -5.27712 -3.82575 0
M  V30 8984 N 866.167 -0.267825 -1.55308 0
M  V30 8985 C 867.415 0.350343 -1.9904 0
M  V30 8986 C 867.736 1.56924 -1.15758 0
M  V30 8987 O 867.006 1.94358 -0.245336 0
M  V30 8988 H 865.586 0.132435 -0.735167 0
M  V30 8989 H 868.248 -0.371471 -1.91327 0
M  V30 8990 H 867.344 0.645203 -3.05358 0
M  V30 8991 N 867.645 1.57599 0.00500368 0
M  V30 8992 C 868.892 1.90349 0.690895 0
M  V30 8993 C 869.22 0.868045 1.74055 0
M  V30 8994 O 868.475 -0.127855 1.95282 0
M  V30 8995 C 868.774 3.29855 1.37588 0
M  V30 8996 C 868.44 4.48548 0.459906 0
M  V30 8997 C 867.102 4.80752 0.207693 0
M  V30 8998 C 869.454 5.20919 -0.171054 0
M  V30 8999 C 866.782 5.82701 -0.683855 0
M  V30 9000 C 869.134 6.23818 -1.05045 0
M  V30 9001 C 867.798 6.54481 -1.31189 0
M  V30 9002 H 867.068 0.696538 0.252816 0
M  V30 9003 H 869.715 1.91436 -0.0494495 0
M  V30 9004 H 868.02 3.24869 2.19015 0
M  V30 9005 H 869.717 3.52452 1.91255 0
M  V30 9006 H 866.307 4.23384 0.666648 0
M  V30 9007 H 870.491 4.96299 0.0107942 0
M  V30 9008 H 865.747 6.04822 -0.894467 0
M  V30 9009 H 869.921 6.79029 -1.54574 0
M  V30 9010 H 867.548 7.33299 -2.00442 0
M  V30 9011 N 869.123 -0.277682 1.55134 0
M  V30 9012 C 870.353 -1.02677 1.79279 0
M  V30 9013 C 870.761 -1.80599 0.563962 0
M  V30 9014 O 870.104 -1.77416 -0.476378 0
M  V30 9015 C 870.166 -2.03617 2.96277 0
M  V30 9016 C 869.83 -1.44676 4.33495 0
M  V30 9017 C 870.827 -0.864811 5.12657 0
M  V30 9018 C 868.512 -1.47537 4.80144 0
M  V30 9019 C 870.506 -0.319322 6.366 0
M  V30 9020 C 868.193 -0.926016 6.04043 0
M  V30 9021 C 869.191 -0.348988 6.82108 0
M  V30 9022 O 868.879 0.191964 8.03671 0
M  V30 9023 H 868.611 -0.309232 0.601125 0
M  V30 9024 H 871.165 -0.315308 2.02965 0
M  V30 9025 H 869.395 -2.78509 2.68272 0
M  V30 9026 H 871.084 -2.64616 3.07788 0
M  V30 9027 H 871.85 -0.835438 4.7775 0
M  V30 9028 H 867.729 -1.91389 4.19394 0
M  V30 9029 H 871.273 0.131709 6.97476 0
M  V30 9030 H 867.17 -0.952613 6.38432 0
M  V30 9031 H 867.938 0.0808779 8.1846 0
M  V30 9032 N 870.601 -1.47988 -0.541979 0
M  V30 9033 C 871.533 -1.5769 -1.66332 0
M  V30 9034 C 872.546 -0.461994 -1.56107 0
M  V30 9035 O 873.735 -0.732306 -1.62787 0
M  V30 9036 C 870.835 -1.47939 -3.04905 0
M  V30 9037 C 870.008 -2.74263 -3.40733 0
M  V30 9038 C 869.067 -2.58133 -4.58534 0
M  V30 9039 O 868.093 -3.31991 -4.62354 0
M  V30 9040 N 869.295 -1.6696 -5.55972 0
M  V30 9041 H 872.06 -2.54389 -1.5845 0
M  V30 9042 H 869.621 -1.4456 -0.728979 0
M  V30 9043 H 871.613 -1.34861 -3.81569 0
M  V30 9044 H 870.183 -0.592626 -3.06931 0
M  V30 9045 H 869.403 -3.01992 -2.53366 0
M  V30 9046 H 870.691 -3.58094 -3.6145 0
M  V30 9047 H 870.089 -1.06134 -5.55655 0
M  V30 9048 H 868.646 -1.59826 -6.31901 0
M  V30 9049 N 872.079 0.78992 -1.36375 0
M  V30 9050 C 873.325 1.55007 -1.3077 0
M  V30 9051 C 873.658 1.93871 0.112979 0
M  V30 9052 O 872.933 1.6267 1.06625 0
M  V30 9053 C 873.216 2.82748 -2.22993 0
M  V30 9054 C 873.069 2.50253 -3.73756 0
M  V30 9055 C 874.388 3.84569 -2.13998 0
M  V30 9056 H 871.507 0.562362 -0.476359 0
M  V30 9057 H 874.149 0.907582 -1.66922 0
M  V30 9058 H 872.299 3.37573 -1.92292 0
M  V30 9059 H 873.971 2.01482 -4.14973 0
M  V30 9060 H 872.214 1.83203 -3.93216 0
M  V30 9061 H 872.885 3.41487 -4.33694 0
M  V30 9062 H 875.361 3.39188 -2.4102 0
M  V30 9063 H 874.237 4.717 -2.80697 0
M  V30 9064 H 874.498 4.27491 -1.12711 0
M  V30 9065 N 873.557 1.20646 1.01402 0
M  V30 9066 C 874.52 0.959314 2.08158 0
M  V30 9067 C 875.52 -0.0661558 1.60664 0
M  V30 9068 O 876.71 0.170177 1.73367 0
M  V30 9069 C 873.842 0.444785 3.37986 0
M  V30 9070 H 875.035 1.90631 2.31517 0
M  V30 9071 H 872.588 1.02219 1.18241 0
M  V30 9072 H 873.323 -0.507553 3.20304 0
M  V30 9073 H 873.108 1.18435 3.73785 0
M  V30 9074 H 874.598 0.291443 4.16582 0
M  V30 9075 N 875.035 -1.20752 1.01276 0
M  V30 9076 C 875.985 -2.21252 0.550602 0
M  V30 9077 C 876.969 -1.56052 -0.391985 0
M  V30 9078 O 878.161 -1.75682 -0.215575 0
M  V30 9079 C 875.29 -3.43112 -0.113601 0
M  V30 9080 C 874.376 -4.15485 0.850465 0
M  V30 9081 N 874.767 -4.64301 2.00643 0
M  V30 9082 C 873.065 -4.40932 0.670476 0
M  V30 9083 C 873.766 -5.197 2.61317 0
M  V30 9084 N 872.742 -5.09534 1.8941 0
M  V30 9085 H 876.544 -2.56657 1.43194 0
M  V30 9086 H 874.058 -1.36646 0.877597 0
M  V30 9087 H 876.055 -4.1433 -0.462211 0
M  V30 9088 H 874.715 -3.09213 -0.990825 0
M  V30 9089 H 875.726 -4.59637 2.38651 0
M  V30 9090 H 872.403 -4.17197 -0.159016 0
M  V30 9091 H 873.793 -5.67873 3.59123 0
M  V30 9092 N 876.513 -0.788492 -1.36457 0
M  V30 9093 C 877.761 -0.359749 -1.98872 0
M  V30 9094 C 878.082 1.07197 -1.62892 0
M  V30 9095 O 877.352 1.73875 -0.902463 0
M  V30 9096 H 875.932 -0.130029 -0.735596 0
M  V30 9097 H 878.594 -1.01033 -1.66668 0
M  V30 9098 H 877.69 -0.450835 -3.08827 0
M  V30 9099 N 877.991 1.48044 -0.54043 0
M  V30 9100 C 879.219 2.06895 -0.0145153 0
M  V30 9101 C 879.634 1.39552 1.27164 0
M  V30 9102 O 878.991 0.486454 1.75897 0
M  V30 9103 C 879.042 3.60934 0.202278 0
M  V30 9104 O 878.763 4.25749 -1.03293 0
M  V30 9105 C 880.264 4.36607 0.767387 0
M  V30 9106 H 877.484 0.66991 -0.0382368 0
M  V30 9107 H 880.028 1.90288 -0.749057 0
M  V30 9108 H 878.183 3.77111 0.886897 0
M  V30 9109 H 878.597 5.18048 -0.820167 0
M  V30 9110 H 880.071 5.45126 0.86845 0
M  V30 9111 H 880.548 4.01745 1.77477 0
M  V30 9112 H 881.154 4.25133 0.119002 0
M  V30 9113 N 879.47 0.276058 1.55163 0
M  V30 9114 C 880.695 -0.346648 2.04483 0
M  V30 9115 C 881.12 -1.48613 1.15308 0
M  V30 9116 O 880.478 -1.80663 0.151875 0
M  V30 9117 C 880.526 -0.804268 3.51517 0
M  V30 9118 O 879.63 -1.91143 3.65429 0
M  V30 9119 H 878.971 -0.0715251 0.660136 0
M  V30 9120 H 881.501 0.410631 2.00437 0
M  V30 9121 H 881.511 -1.09977 3.92898 0
M  V30 9122 H 880.186 0.0294123 4.1589 0
M  V30 9123 H 878.763 -1.61839 3.3595 0
M  V30 9124 N 880.948 -1.576 0.00335426 0
M  V30 9125 C 882.196 -1.90336 -0.679446 0
M  V30 9126 C 882.517 -0.877777 -1.74127 0
M  V30 9127 O 881.787 0.0843585 -1.95718 0
M  V30 9128 H 880.367 -0.702509 -0.253948 0
M  V30 9129 H 883.029 -1.94848 0.0450731 0
M  V30 9130 H 882.125 -2.90197 -1.14857 0
M  V30 9131 N 882.426 0.269451 -1.5528 0
M  V30 9132 C 883.356 1.33729 -1.91413 0
M  V30 9133 C 884.337 1.51348 -0.776391 0
M  V30 9134 O 885.522 1.64332 -1.03482 0
M  V30 9135 C 882.652 2.69618 -2.18914 0
M  V30 9136 C 881.606 2.66725 -3.34726 0
M  V30 9137 C 880.932 4.06199 -3.47716 0
M  V30 9138 C 882.232 2.25684 -4.71025 0
M  V30 9139 H 883.926 1.03736 -2.80854 0
M  V30 9140 H 881.472 0.497579 -1.3513 0
M  V30 9141 H 883.425 3.44436 -2.42779 0
M  V30 9142 H 882.149 3.01201 -1.26275 0
M  V30 9143 H 880.808 1.94365 -3.10834 0
M  V30 9144 H 880.456 4.3501 -2.52537 0
M  V30 9145 H 880.156 4.05157 -4.25583 0
M  V30 9146 H 881.68 4.8275 -3.73877 0
M  V30 9147 H 883.094 2.90225 -4.94411 0
M  V30 9148 H 881.491 2.35797 -5.51833 0
M  V30 9149 H 882.561 1.20819 -4.69607 0
M  V30 9150 N 883.904 1.48273 0.534124 0
M  V30 9151 C 885.132 1.59734 1.31501 0
M  V30 9152 C 885.547 0.256047 1.87056 0
M  V30 9153 O 884.904 -0.754086 1.66192 0
M  V30 9154 C 884.955 2.64072 2.46877 0
M  V30 9155 O 884.676 3.92995 1.93613 0
M  V30 9156 C 886.177 2.85933 3.38758 0
M  V30 9157 H 883.397 0.538703 0.40005 0
M  V30 9158 H 885.941 1.9407 0.644762 0
M  V30 9159 H 884.096 2.32606 3.09795 0
M  V30 9160 H 884.51 4.50203 2.69106 0
M  V30 9161 H 885.984 3.62749 4.16073 0
M  V30 9162 H 886.461 1.94603 3.93734 0
M  V30 9163 H 887.067 3.18687 2.81636 0
M  V30 9164 N 885.382 -0.782676 1.36792 0
M  V30 9165 C 886.61 -1.57162 1.34565 0
M  V30 9166 C 887.025 -1.88664 -0.0715501 0
M  V30 9167 O 886.382 -1.50633 -1.03033 0
M  V30 9168 C 886.433 -2.88854 2.1736 0
M  V30 9169 O 886.154 -2.58707 3.53557 0
M  V30 9170 C 887.655 -3.83132 2.2299 0
M  V30 9171 H 884.875 -0.487245 0.461338 0
M  V30 9172 H 887.419 -0.970905 1.79982 0
M  V30 9173 H 885.574 -3.45377 1.7548 0
M  V30 9174 H 885.988 -3.42961 3.96835 0
M  V30 9175 H 887.462 -4.72575 2.85266 0
M  V30 9176 H 887.939 -4.21472 1.23524 0
M  V30 9177 H 888.545 -3.32541 2.65135 0
M  V30 9178 N 886.86 -1.21182 -1.00761 0
M  V30 9179 C 888.108 -1.02543 -1.74153 0
M  V30 9180 C 888.429 0.442372 -1.89916 0
M  V30 9181 O 887.699 1.31927 -1.44818 0
M  V30 9182 H 886.279 -0.37644 -0.645214 0
M  V30 9183 H 888.941 -1.52446 -1.21434 0
M  V30 9184 H 888.037 -1.49122 -2.7417 0
M  V30 9185 N 888.338 1.20213 -1.01915 0
M  V30 9186 C 889.754 1.41696 -0.734459 0
M  V30 9187 C 889.954 1.89504 0.684867 0
M  V30 9188 O 889.01 2.06556 1.45227 0
M  V30 9189 C 890.323 2.43644 -1.76233 0
M  V30 9190 C 891.871 2.57406 -1.78076 0
M  V30 9191 C 892.346 3.626 -2.79796 0
M  V30 9192 N 893.837 3.70086 -2.78551 0
M  V30 9193 C 894.572 4.51145 -3.53915 0
M  V30 9194 N 894.068 5.35988 -4.38963 0
M  V30 9195 N 895.861 4.45702 -3.425 0
M  V30 9196 H 888.012 0.874976 -1.93541 0
M  V30 9197 H 890.275 0.446647 -0.836188 0
M  V30 9198 H 889.981 2.15519 -2.77929 0
M  V30 9199 H 889.855 3.42672 -1.57657 0
M  V30 9200 H 892.242 2.8486 -0.770634 0
M  V30 9201 H 892.323 1.58565 -2.00725 0
M  V30 9202 H 891.967 3.35889 -3.80973 0
M  V30 9203 H 891.897 4.61069 -2.54407 0
M  V30 9204 H 894.388 3.09484 -2.1686 0
M  V30 9205 H 894.701 5.94932 -4.9323 0
M  V30 9206 H 893.046 5.35482 -4.4304 0
M  V30 9207 H 896.237 3.78456 -2.75478 0
M  V30 9208 H 896.41 5.08637 -4.01487 0
M  V30 9209 N 889.816 0.795718 1.36037 0
M  V30 9210 C 890.779 0.204318 2.28287 0
M  V30 9211 C 891.779 -0.602017 1.49105 0
M  V30 9212 O 892.969 -0.422089 1.69009 0
M  V30 9213 C 890.101 -0.716431 3.33287 0
M  V30 9214 H 891.294 1.01781 2.821 0
M  V30 9215 H 888.847 0.565588 1.45708 0
M  V30 9216 H 889.582 -1.55403 2.84641 0
M  V30 9217 H 889.367 -0.140096 3.9185 0
M  V30 9218 H 890.857 -1.12488 4.02164 0
M  V30 9219 N 891.294 -1.47756 0.548274 0
M  V30 9220 C 892.541 -2.02489 0.0208955 0
M  V30 9221 C 892.869 -1.42356 -1.32533 0
M  V30 9222 O 892.124 -0.565448 -1.87353 0
M  V30 9223 C 892.423 -3.5716 -0.131069 0
M  V30 9224 C 892.089 -4.36169 1.14313 0
M  V30 9225 C 890.751 -4.57476 1.4923 0
M  V30 9226 C 893.103 -4.81801 1.9879 0
M  V30 9227 C 890.431 -5.21662 2.68487 0
M  V30 9228 C 892.783 -5.47303 3.17242 0
M  V30 9229 C 891.447 -5.66844 3.52483 0
M  V30 9230 H 890.717 -0.740961 0.00764621 0
M  V30 9231 H 893.364 -1.77531 0.717987 0
M  V30 9232 H 891.669 -3.8106 -0.911063 0
M  V30 9233 H 893.366 -3.9715 -0.55433 0
M  V30 9234 H 889.956 -4.19858 0.861235 0
M  V30 9235 H 894.14 -4.65126 1.73123 0
M  V30 9236 H 889.396 -5.34987 2.95971 0
M  V30 9237 H 893.57 -5.81626 3.82994 0
M  V30 9238 H 891.197 -6.16352 4.44988 0
M  V30 9239 N 892.772 -0.284283 -1.55015 0
M  V30 9240 C 893.997 0.335799 -2.04664 0
M  V30 9241 C 894.422 1.47999 -1.16094 0
M  V30 9242 O 893.78 1.8058 -0.161454 0
M  V30 9243 C 893.828 0.785615 -3.51938 0
M  V30 9244 O 892.932 1.89202 -3.66437 0
M  V30 9245 H 892.273 0.0680233 -0.660506 0
M  V30 9246 H 894.803 -0.421255 -2.00216 0
M  V30 9247 H 894.813 1.07892 -3.93476 0
M  V30 9248 H 893.488 -0.0514675 -4.15868 0
M  V30 9249 H 892.065 1.60055 -3.36804 0
M  V30 9250 N 894.251 1.57596 -0.0117121 0
M  V30 9251 C 895.199 2.1029 0.994035 0
M  V30 9252 C 896.193 1.02549 1.34833 0
M  V30 9253 O 897.399 1.21003 1.3326 0
M  V30 9254 H 893.774 0.671624 0.338268 0
M  V30 9255 H 895.745 2.93761 0.524147 0
M  V30 9256 C 894.494 2.63099 2.27319 0
M  V30 9257 H 893.817 3.45642 2.00927 0
M  V30 9258 H 895.257 3.03635 2.95942 0
M  V30 9259 C 893.716 1.55044 2.99104 0
M  V30 9260 O 894.246 0.940127 3.90544 0
M  V30 9261 N 892.452 1.27506 2.61133 0
M  V30 9262 H 891.999 1.77322 1.86855 0
M  V30 9263 H 891.957 0.554292 3.09475 0
M  V30 9264 N 895.729 -0.261212 1.5542 0
M  V30 9265 C 896.977 -0.989272 1.76232 0
M  V30 9266 C 897.298 -1.86389 0.573067 0
M  V30 9267 O 896.568 -1.91526 -0.41166 0
M  V30 9268 H 895.148 -0.368256 0.64992 0
M  V30 9269 H 897.81 -0.282603 1.9284 0
M  V30 9270 H 896.906 -1.61935 2.66802 0
M  V30 9271 N 897.207 -1.48554 -0.526253 0
M  V30 9272 C 898.17 -1.62868 -1.61266 0
M  V30 9273 C 899.17 -0.501762 -1.52771 0
M  V30 9274 O 900.36 -0.76764 -1.56374 0
M  V30 9275 C 897.492 -1.60238 -3.00893 0
M  V30 9276 H 898.685 -2.59742 -1.49913 0
M  V30 9277 H 896.238 -1.37207 -0.748595 0
M  V30 9278 H 896.973 -0.648545 -3.17749 0
M  V30 9279 H 896.758 -2.42054 -3.08468 0
M  V30 9280 H 898.248 -1.73455 -3.79872 0
M  V30 9281 N 898.685 0.775411 -1.37205 0
M  V30 9282 C 899.615 1.90258 -1.35367 0
M  V30 9283 C 900.596 1.68634 -0.222864 0
M  V30 9284 O 901.781 1.89545 -0.422659 0
M  V30 9285 C 898.911 3.27488 -1.15623 0
M  V30 9286 C 897.865 3.63668 -2.25676 0
M  V30 9287 C 897.191 4.994 -1.91059 0
M  V30 9288 C 898.491 3.70797 -3.67841 0
M  V30 9289 H 900.185 1.92053 -2.29687 0
M  V30 9290 H 897.731 0.922597 -1.10563 0
M  V30 9291 H 899.684 4.05976 -1.12968 0
M  V30 9292 H 898.408 3.26117 -0.177573 0
M  V30 9293 H 897.067 2.87486 -2.2748 0
M  V30 9294 H 896.715 4.94565 -0.917324 0
M  V30 9295 H 896.415 5.24576 -2.64751 0
M  V30 9296 H 897.939 5.80291 -1.89985 0
M  V30 9297 H 899.353 4.39444 -3.68187 0
M  V30 9298 H 897.75 4.07468 -4.40556 0
M  V30 9299 H 898.82 2.71549 -4.01732 0
M  V30 9300 N 900.163 1.21714 1.00117 0
M  V30 9301 C 901.409 1.03823 1.74208 0
M  V30 9302 C 901.742 -0.426733 1.89454 0
M  V30 9303 O 901.017 -1.31658 1.43166 0
M  V30 9304 C 901.3 1.74047 3.15246 0
M  V30 9305 C 901.153 3.28087 3.077 0
M  V30 9306 C 902.472 1.48614 4.14249 0
M  V30 9307 H 899.591 0.378573 0.632338 0
M  V30 9308 H 902.233 1.49942 1.16694 0
M  V30 9309 H 900.383 1.3484 3.64349 0
M  V30 9310 H 902.055 3.76686 2.6628 0
M  V30 9311 H 900.298 3.58191 2.44707 0
M  V30 9312 H 900.969 3.72392 4.07466 0
M  V30 9313 H 903.445 1.82656 3.73866 0
M  V30 9314 H 902.321 2.00257 5.11066 0
M  V30 9315 H 902.582 0.416957 4.40129 0
M  V30 9316 N 901.641 -1.19671 1.02551 0
M  V30 9317 C 902.866 -1.93774 0.739363 0
M  V30 9318 C 903.291 -1.74787 -0.695064 0
M  V30 9319 O 902.649 -1.04796 -1.47944 0
M  V30 9320 C 902.697 -3.43684 1.09149 0
M  V30 9321 O 901.801 -4.11874 0.208213 0
M  V30 9322 H 901.142 -0.605064 0.273484 0
M  V30 9323 H 903.672 -1.51846 1.37128 0
M  V30 9324 H 903.682 -3.94339 1.04695 0
M  V30 9325 H 902.357 -3.56826 2.13654 0
M  V30 9326 H 900.934 -3.716 0.311045 0
M  V30 9327 N 903.119 -0.802921 -1.35613 0
M  V30 9328 C 904.368 -0.378087 -1.98125 0
M  V30 9329 C 904.681 1.05953 -1.64418 0
M  V30 9330 O 905.887 1.58729 -2.20266 0
M  V30 9331 C 904.343 -0.625077 -3.5443 0
M  V30 9332 C 903.951 -2.07499 -3.97049 0
M  V30 9333 C 905.695 -0.265419 -4.23669 0
M  V30 9334 C 903.602 -2.26793 -5.46186 0
M  V30 9335 H 902.532 -0.137633 -0.741332 0
M  V30 9336 H 905.183 -0.986461 -1.54729 0
M  V30 9337 H 903.565 0.0531975 -3.95964 0
M  V30 9338 H 904.739 -2.79077 -3.66678 0
M  V30 9339 H 903.054 -2.39417 -3.40688 0
M  V30 9340 H 905.651 -0.387669 -5.33293 0
M  V30 9341 H 905.994 0.787994 -4.08774 0
M  V30 9342 H 906.527 -0.897464 -3.87544 0
M  V30 9343 H 903.266 -3.30566 -5.66045 0
M  V30 9344 H 902.786 -1.59735 -5.78139 0
M  V30 9345 H 904.465 -2.08165 -6.12598 0
M  V30 9346 N 904.597 1.47463 -0.556102 0
M  V30 9347 C 905.822 2.07371 -0.0344729 0
M  V30 9348 C 906.247 1.40621 1.2493 0
M  V30 9349 O 905.605 0.48082 1.74808 0
M  V30 9350 C 905.653 3.60306 0.145563 0
M  V30 9351 O 904.757 3.94299 1.20839 0
M  V30 9352 H 904.098 0.662052 -0.0508274 0
M  V30 9353 H 906.628 1.89498 -0.771469 0
M  V30 9354 H 906.638 4.06408 0.360112 0
M  V30 9355 H 905.313 4.08288 -0.792089 0
M  V30 9356 H 903.89 3.59944 0.97442 0
M  V30 9357 N 906.075 0.2925 1.54862 0
M  V30 9358 C 907.323 -0.318633 1.99572 0
M  V30 9359 C 907.644 -1.55062 1.1824 0
M  V30 9360 O 906.914 -1.93943 0.276226 0
M  V30 9361 H 905.494 -0.120722 0.737181 0
M  V30 9362 H 908.156 0.401862 1.90712 0
M  V30 9363 H 907.252 -0.596542 3.06346 0
M  V30 9364 N 907.553 -1.57587 0.0200696 0
M  V30 9365 C 908.5 -2.09667 -0.964791 0
M  V30 9366 C 909.47 -0.99664 -1.32877 0
M  V30 9367 O 910.655 -1.2703 -1.42366 0
M  V30 9368 C 907.795 -2.62101 -2.24493 0
M  V30 9369 C 906.908 -3.8608 -1.93821 0
M  V30 9370 C 906.043 -4.26939 -3.16064 0
M  V30 9371 C 905.082 -5.43701 -2.81169 0
M  V30 9372 N 904.219 -5.79759 -3.9601 0
M  V30 9373 H 909.059 -2.93538 -0.513751 0
M  V30 9374 H 906.596 -1.45096 -0.242 0
M  V30 9375 H 908.554 -2.90587 -2.99358 0
M  V30 9376 H 907.184 -1.81074 -2.6723 0
M  V30 9377 H 906.236 -3.64378 -1.09237 0
M  V30 9378 H 907.548 -4.71028 -1.64115 0
M  V30 9379 H 906.702 -4.56814 -3.99257 0
M  V30 9380 H 905.441 -3.40739 -3.48924 0
M  V30 9381 H 904.446 -5.13529 -1.96387 0
M  V30 9382 H 905.671 -6.31593 -2.49535 0
M  V30 9383 H 903.617 -4.96516 -4.28729 0
M  V30 9384 H 903.534 -6.59327 -3.69896 0
M  V30 9385 H 904.802 -6.14235 -4.79933 0
M  V30 9386 N 909.032 0.252966 -1.55557 0
M  V30 9387 C 910.26 0.999565 -1.81153 0
M  V30 9388 C 910.675 1.79181 -0.594955 0
M  V30 9389 O 910.032 1.77208 0.436311 0
M  V30 9390 C 910.083 1.94227 -3.04891 0
M  V30 9391 O 909.804 1.18209 -4.21851 0
M  V30 9392 C 911.305 2.80536 -3.43241 0
M  V30 9393 H 908.525 0.294402 -0.602966 0
M  V30 9394 H 911.069 0.277686 -2.02606 0
M  V30 9395 H 909.224 2.6185 -2.85505 0
M  V30 9396 H 909.638 1.81922 -4.9194 0
M  V30 9397 H 911.112 3.42442 -4.32941 0
M  V30 9398 H 911.589 3.51337 -2.6355 0
M  V30 9399 H 912.195 2.18373 -3.64956 0
M  V30 9400 N 910.51 1.48831 0.518367 0
M  V30 9401 C 911.758 1.57128 1.27103 0
M  V30 9402 C 912.079 0.252098 1.93364 0
M  V30 9403 O 911.349 -0.727281 1.819 0
M  V30 9404 H 909.929 0.578891 0.472116 0
M  V30 9405 H 912.591 1.85361 0.602262 0
M  V30 9406 H 911.687 2.35838 2.04418 0
M  V30 9407 N 911.988 -0.768124 1.37614 0
M  V30 9408 C 913.216 -1.55726 1.36224 0
M  V30 9409 C 913.631 -1.8873 -0.0515357 0
M  V30 9410 O 912.988 -1.51718 -1.0143 0
M  V30 9411 C 913.039 -2.86533 2.20412 0
M  V30 9412 O 912.76 -2.54942 3.56281 0
M  V30 9413 C 914.261 -3.80745 2.27041 0
M  V30 9414 H 911.481 -0.482325 0.46648 0
M  V30 9415 H 914.025 -0.95176 1.81002 0
M  V30 9416 H 912.18 -3.43496 1.79134 0
M  V30 9417 H 912.594 -3.38732 4.00451 0
M  V30 9418 H 914.068 -4.69523 2.90263 0
M  V30 9419 H 914.545 -4.20138 1.27987 0
M  V30 9420 H 915.151 -3.2971 2.68647 0
M  V30 9421 N 913.466 -1.22244 -0.994698 0
M  V30 9422 C 914.429 -0.992308 -2.06606 0
M  V30 9423 C 915.429 0.0405872 -1.60749 0
M  V30 9424 O 916.619 -0.197737 -1.73074 0
M  V30 9425 C 913.751 -0.498499 -3.37236 0
M  V30 9426 H 914.944 -1.9429 -2.28455 0
M  V30 9427 H 912.497 -1.04087 -1.166 0
M  V30 9428 H 913.232 0.456531 -3.21071 0
M  V30 9429 H 913.017 -1.24367 -3.71854 0
M  V30 9430 H 914.507 -0.35768 -4.16065 0
M  V30 9431 N 914.944 1.19125 -1.03184 0
M  V30 9432 C 915.854 2.26112 -0.625329 0
M  V30 9433 C 916.87 1.7056 0.344298 0
M  V30 9434 O 918.046 2.0039 0.20144 0
M  V30 9435 C 915.111 3.46697 0.0145169 0
M  V30 9436 C 914.172 4.17419 -1.00299 0
M  V30 9437 C 913.405 5.32247 -0.393581 0
M  V30 9438 O 913.628 5.64724 0.802659 0
M  V30 9439 O 912.562 5.91428 -1.1179 0
M  V30 9440 H 916.388 2.63131 -1.51643 0
M  V30 9441 H 913.973 1.26036 -0.802197 0
M  V30 9442 H 915.855 4.19762 0.371139 0
M  V30 9443 H 914.53 3.11521 0.879581 0
M  V30 9444 H 913.437 3.4646 -1.41125 0
M  V30 9445 H 914.77 4.56573 -1.83852 0
M  V30 9446 N 916.422 0.810101 1.35185 0
M  V30 9447 C 917.647 0.40364 2.03434 0
M  V30 9448 C 918.072 -0.97857 1.60641 0
M  V30 9449 O 917.43 -1.63435 0.784779 0
M  V30 9450 C 917.478 0.499154 3.57129 0
M  V30 9451 O 916.582 -0.486039 4.09526 0
M  V30 9452 H 915.923 0.168049 0.642383 0
M  V30 9453 H 918.453 1.09696 1.72708 0
M  V30 9454 H 918.463 0.370236 4.06317 0
M  V30 9455 H 917.138 1.50733 3.87624 0
M  V30 9456 H 915.715 -0.31707 3.7155 0
M  V30 9457 N 917.9 -1.47166 0.563914 0
M  V30 9458 C 919.13 -2.06546 0.0473599 0
M  V30 9459 C 919.538 -1.41607 -1.25476 0
M  V30 9460 O 918.881 -0.50894 -1.76509 0
M  V30 9461 C 918.943 -3.58873 -0.212249 0
M  V30 9462 C 918.607 -4.45893 1.00144 0
M  V30 9463 C 919.604 -4.83594 1.90873 0
M  V30 9464 C 917.289 -4.87309 1.218 0
M  V30 9465 C 919.283 -5.61519 3.01621 0
M  V30 9466 C 916.97 -5.64997 2.32856 0
M  V30 9467 C 917.968 -6.02013 3.22597 0
M  V30 9468 O 917.656 -6.78135 4.31727 0
M  V30 9469 H 917.388 -0.674441 0.0458823 0
M  V30 9470 H 919.942 -1.9006 0.778865 0
M  V30 9471 H 918.172 -3.73596 -0.998145 0
M  V30 9472 H 919.861 -4.00248 -0.675005 0
M  V30 9473 H 920.627 -4.52192 1.7535 0
M  V30 9474 H 916.506 -4.57959 0.528641 0
M  V30 9475 H 920.05 -5.90331 3.71693 0
M  V30 9476 H 915.947 -5.95813 2.48349 0
M  V30 9477 H 916.715 -6.96537 4.29859 0
M  V30 9478 N 919.378 -0.300708 -1.54705 0
M  V30 9479 C 920.624 0.309111 -2.0043 0
M  V30 9480 C 920.957 1.53562 -1.1888 0
M  V30 9481 O 920.232 1.92683 -0.265205 0
M  V30 9482 C 920.515 0.665995 -3.53888 0
M  V30 9483 C 920.368 -0.56963 -4.46178 0
M  V30 9484 C 921.687 1.49262 -4.14016 0
M  V30 9485 H 918.806 0.110878 -0.728612 0
M  V30 9486 H 921.448 -0.412748 -1.85463 0
M  V30 9487 H 919.598 1.281 -3.66773 0
M  V30 9488 H 921.27 -1.20811 -4.45199 0
M  V30 9489 H 919.513 -1.20292 -4.16788 0
M  V30 9490 H 920.184 -0.275785 -5.51311 0
M  V30 9491 H 922.66 0.972979 -4.04564 0
M  V30 9492 H 921.536 1.71111 -5.21548 0
M  V30 9493 H 921.797 2.48174 -3.65872 0
M  V30 9494 N 920.856 1.57574 -0.0284266 0
M  V30 9495 C 921.819 2.09096 0.938691 0
M  V30 9496 C 922.819 1.00588 1.25454 0
M  V30 9497 O 924.009 1.2675 1.19499 0
M  V30 9498 C 921.141 2.55624 2.25542 0
M  V30 9499 H 922.334 2.95829 0.49248 0
M  V30 9500 H 919.887 1.5475 0.219594 0
M  V30 9501 H 920.622 1.72218 2.74793 0
M  V30 9502 H 920.407 3.34896 2.03929 0
M  V30 9503 H 921.897 2.95712 2.94863 0
M  V30 9504 N 922.334 -0.244713 1.55689 0
M  V30 9505 C 923.611 -0.995407 1.68378 0
M  V30 9506 C 923.991 -2.03288 0.568949 0
M  V30 9507 O 923.339 -2.24469 -0.427299 0
M  V30 9508 C 923.549 -1.62678 3.08767 0
M  V30 9509 C 924.897 -2.1278 3.67437 0
M  V30 9510 O 925.921 -1.72614 3.11581 0
M  V30 9511 O 924.78 -2.86536 4.65359 0
M  V30 9512 H 921.874 -0.463476 0.684923 0
M  V30 9513 H 924.42 -0.238326 1.68018 0
M  V30 9514 H 923.192 -0.876469 3.81358 0
M  V30 9515 H 922.815 -2.45 3.13146 0
M  V30 9516 N 923.813 -1.49104 -0.510467 0
M  V30 9517 C 925.061 -1.578 -1.26268 0
M  V30 9518 C 925.382 -0.262349 -1.93227 0
M  V30 9519 O 924.652 0.717624 -1.82283 0
M  V30 9520 H 923.232 -0.581387 -0.46904 0
M  V30 9521 H 925.894 -1.85678 -0.592423 0
M  V30 9522 H 924.99 -2.36919 -2.03165 0
M  V30 9523 N 925.291 0.760815 -1.38019 0
M  V30 9524 C 926.223 1.88387 -1.30549 0
M  V30 9525 C 927.236 1.61319 -0.219119 0
M  V30 9526 O 928.425 1.72033 -0.476122 0
M  V30 9527 C 925.525 3.23863 -0.998291 0
M  V30 9528 C 924.698 3.78492 -2.19232 0
M  V30 9529 C 923.757 4.92468 -1.85368 0
M  V30 9530 O 922.783 5.0748 -2.57785 0
M  V30 9531 N 923.985 5.74901 -0.804319 0
M  V30 9532 H 926.75 1.95308 -2.27322 0
M  V30 9533 H 924.311 0.940423 -1.31786 0
M  V30 9534 H 926.303 3.97644 -0.7524 0
M  V30 9535 H 924.873 3.12374 -0.11877 0
M  V30 9536 H 924.093 2.96361 -2.5993 0
M  V30 9537 H 925.381 4.11722 -2.98935 0
M  V30 9538 H 924.779 5.65333 -0.203628 0
M  V30 9539 H 923.336 6.48861 -0.618301 0
M  V30 9540 N 926.769 1.22769 0.988202 0
M  V30 9541 C 927.701 0.959757 2.08138 0
M  V30 9542 C 928.714 -0.0633787 1.62677 0
M  V30 9543 O 929.903 0.171203 1.77677 0
M  V30 9544 C 927.003 0.422724 3.36253 0
M  V30 9545 C 926.176 1.50419 4.10722 0
M  V30 9546 C 925.235 0.973407 5.17118 0
M  V30 9547 O 924.261 1.66066 5.44436 0
M  V30 9548 N 925.463 -0.202787 5.80146 0
M  V30 9549 H 928.228 1.9009 2.31702 0
M  V30 9550 H 925.789 1.13522 1.15431 0
M  V30 9551 H 927.781 0.0528514 4.04665 0
M  V30 9552 H 926.351 -0.423642 3.09716 0
M  V30 9553 H 925.571 2.04718 3.36874 0
M  V30 9554 H 926.859 2.23169 4.57245 0
M  V30 9555 H 926.257 -0.777856 5.60327 0
M  V30 9556 H 924.814 -0.513998 6.4977 0
M  V30 9557 N 928.247 -1.18576 1.03814 0
M  V30 9558 C 929.21 -2.2033 0.63146 0
M  V30 9559 C 930.21 -1.57787 -0.309816 0
M  V30 9560 O 931.4 -1.73938 -0.0955598 0
M  V30 9561 C 928.532 -3.40818 -0.0745963 0
M  V30 9562 H 929.725 -2.57824 1.53189 0
M  V30 9563 H 927.278 -1.32416 0.830398 0
M  V30 9564 H 928.013 -3.08853 -0.988947 0
M  V30 9565 H 927.798 -3.87453 0.6019 0
M  V30 9566 H 929.288 -4.16166 -0.345727 0
M  V30 9567 N 929.725 -0.817259 -1.34754 0
M  V30 9568 C 930.953 -0.415451 -2.02686 0
M  V30 9569 C 931.368 0.97688 -1.61563 0
M  V30 9570 O 930.725 1.63125 -0.818321 0
M  V30 9571 C 930.776 -0.501486 -3.58005 0
M  V30 9572 O 930.497 -1.83893 -3.97637 0
M  V30 9573 C 931.998 -0.0938504 -4.43201 0
M  V30 9574 H 929.218 -0.16742 -0.649778 0
M  V30 9575 H 931.762 -1.10384 -1.7215 0
M  V30 9576 H 929.917 0.138766 -3.87151 0
M  V30 9577 H 930.331 -1.8092 -4.92309 0
M  V30 9578 H 931.805 -0.205145 -5.51619 0
M  V30 9579 H 932.282 0.962011 -4.28535 0
M  V30 9580 H 932.888 -0.707677 -4.19371 0
M  V30 9581 N 931.203 1.46865 -0.571711 0
M  V30 9582 C 932.151 2.31897 0.180714 0
M  V30 9583 C 933.145 1.43815 0.895191 0
M  V30 9584 O 934.351 1.60501 0.814828 0
M  V30 9585 H 930.726 0.748032 0.077148 0
M  V30 9586 H 932.697 2.93185 -0.555432 0
M  V30 9587 C 931.446 3.26766 1.18824 0
M  V30 9588 H 930.769 3.94515 0.64789 0
M  V30 9589 H 932.209 3.89067 1.68532 0
M  V30 9590 C 930.668 2.51325 2.2436 0
M  V30 9591 O 931.198 2.26825 3.31532 0
M  V30 9592 N 929.404 2.12079 1.98673 0
M  V30 9593 H 928.951 2.32204 1.1153 0
M  V30 9594 H 928.909 1.61921 2.69498 0
M  V30 9595 N 932.681 0.308908 1.54543 0
M  V30 9596 C 933.909 -0.300418 2.04707 0
M  V30 9597 C 934.324 -1.46915 1.18581 0
M  V30 9598 O 933.681 -1.81251 0.213186 0
M  V30 9599 C 933.732 -0.749038 3.53655 0
M  V30 9600 O 933.453 0.373181 4.36508 0
M  V30 9601 C 934.954 -1.4227 4.1985 0
M  V30 9602 H 932.174 -0.0641267 0.667929 0
M  V30 9603 H 934.718 0.450839 1.99469 0
M  V30 9604 H 932.873 -1.4503 3.59228 0
M  V30 9605 H 933.287 0.0224752 5.24495 0
M  V30 9606 H 934.761 -1.68768 5.25568 0
M  V30 9607 H 935.238 -2.36531 3.70067 0
M  V30 9608 H 935.844 -0.764404 4.18374 0
M  V30 9609 N 934.159 -1.57557 0.0367827 0
M  V30 9610 C 935.107 -2.11844 -0.960454 0
M  V30 9611 C 936.101 -1.04681 -1.33185 0
M  V30 9612 O 937.307 -1.23108 -1.31318 0
M  V30 9613 H 933.682 -0.676921 -0.32754 0
M  V30 9614 H 935.653 -2.94557 -0.477346 0
M  V30 9615 C 934.402 -2.66683 -2.23105 0
M  V30 9616 H 933.725 -3.48795 -1.95403 0
M  V30 9617 H 935.165 -3.08305 -2.91074 0
M  V30 9618 C 933.624 -1.59782 -2.96599 0
M  V30 9619 O 934.154 -1.00214 -3.88999 0
M  V30 9620 N 932.36 -1.31644 -2.59072 0
M  V30 9621 H 931.907 -1.80272 -1.8401 0
M  V30 9622 H 931.865 -0.603457 -3.08554 0
M  V30 9623 N 935.637 0.236453 -1.55816 0
M  V30 9624 C 936.6 1.27633 -1.90375 0
M  V30 9625 C 937.6 1.40557 -0.781048 0
M  V30 9626 O 938.79 1.39078 -1.04895 0
M  V30 9627 C 935.922 2.65247 -2.14142 0
M  V30 9628 H 937.115 0.982019 -2.83366 0
M  V30 9629 H 934.668 0.476215 -1.48869 0
M  V30 9630 H 935.403 2.99801 -1.23653 0
M  V30 9631 H 935.188 2.57246 -2.95917 0
M  V30 9632 H 936.678 3.40313 -2.42026 0
M  V30 9633 N 937.115 1.49373 0.502552 0
M  V30 9634 C 938.361 1.59016 1.25864 0
M  V30 9635 C 938.694 0.27532 1.92238 0
M  V30 9636 O 937.969 -0.720988 1.80643 0
M  V30 9637 C 938.252 2.74828 2.32683 0
M  V30 9638 C 938.105 4.16102 1.7082 0
M  V30 9639 C 939.424 2.86288 3.34256 0
M  V30 9640 H 936.543 0.578798 0.456248 0
M  V30 9641 H 939.185 1.81651 0.557032 0
M  V30 9642 H 937.335 2.5566 2.92524 0
M  V30 9643 H 939.007 4.46782 1.14818 0
M  V30 9644 H 937.25 4.21822 1.01238 0
M  V30 9645 H 937.921 4.93006 2.48292 0
M  V30 9646 H 940.397 3.03733 2.84404 0
M  V30 9647 H 939.273 3.69001 4.06362 0
M  V30 9648 H 939.534 1.95576 3.96488 0
M  V30 9649 N 938.594 -0.753485 1.38421 0
M  V30 9650 C 939.557 -1.84888 1.35459 0
M  V30 9651 C 940.557 -1.58764 0.255083 0
M  V30 9652 O 941.747 -1.66507 0.511978 0
M  V30 9653 C 938.879 -3.22361 1.10888 0
M  V30 9654 H 940.072 -1.88922 2.32913 0
M  V30 9655 H 937.625 -0.955199 1.23716 0
M  V30 9656 H 938.36 -3.23996 0.1404 0
M  V30 9657 H 938.145 -3.42717 1.90492 0
M  V30 9658 H 939.635 -4.02437 1.1151 0
M  V30 9659 N 940.072 -1.23292 -0.981677 0
M  V30 9660 C 941.302 -1.0893 -1.7555 0
M  V30 9661 C 941.71 0.362219 -1.857 0
M  V30 9662 O 941.053 1.2624 -1.33451 0
M  V30 9663 C 941.115 -1.6389 -3.19969 0
M  V30 9664 C 940.779 -3.12632 -3.33332 0
M  V30 9665 C 941.776 -4.0994 -3.19758 0
M  V30 9666 C 939.461 -3.52314 -3.58022 0
M  V30 9667 C 941.455 -5.44915 -3.30676 0
M  V30 9668 C 939.142 -4.87434 -3.6858 0
M  V30 9669 C 940.14 -5.83544 -3.54916 0
M  V30 9670 O 939.828 -7.16209 -3.65102 0
M  V30 9671 H 939.56 -0.381901 -0.557788 0
M  V30 9672 H 942.114 -1.63586 -1.24213 0
M  V30 9673 H 940.344 -1.03653 -3.72549 0
M  V30 9674 H 942.033 -1.45023 -3.79108 0
M  V30 9675 H 942.799 -3.80625 -3.00582 0
M  V30 9676 H 938.678 -2.78022 -3.67729 0
M  V30 9677 H 942.222 -6.19913 -3.19928 0
M  V30 9678 H 938.119 -5.16426 -3.87265 0
M  V30 9679 H 938.887 -7.23941 -3.81905 0
M  V30 9680 N 941.55 1.18024 -1.04442 0
M  V30 9681 C 942.513 2.19992 -0.643136 0
M  V30 9682 C 943.513 1.57949 0.301444 0
M  V30 9683 O 944.703 1.73986 0.0863341 0
M  V30 9684 C 941.835 3.40853 0.0565208 0
M  V30 9685 H 943.028 2.57008 -1.54554 0
M  V30 9686 H 940.581 1.31974 -0.837408 0
M  V30 9687 H 941.316 3.09373 0.972553 0
M  V30 9688 H 941.101 3.87128 -0.622439 0
M  V30 9689 H 942.591 4.16344 0.323652 0
M  V30 9690 N 943.028 0.824394 1.34319 0
M  V30 9691 C 944.439 0.471802 1.8064 0
M  V30 9692 C 944.79 -1.00793 1.6833 0
M  V30 9693 O 943.915 -1.78447 1.22416 0
M  V30 9694 C 944.51 0.849609 3.27974 0
M  V30 9695 C 943.069 0.549365 3.72369 0
M  V30 9696 C 942.216 1.06573 2.56003 0
M  V30 9697 H 945.167 1.01443 1.22045 0
M  V30 9698 H 945.188 0.153968 3.80188 0
M  V30 9699 H 944.7 1.92663 3.36902 0
M  V30 9700 H 942.801 -0.518182 3.68979 0
M  V30 9701 H 942.914 1.09446 4.66432 0
M  V30 9702 H 941.278 0.487214 2.49997 0
M  V30 9703 H 942.061 2.14923 2.677 0
M  V30 9704 N 944.506 -1.46559 0.579492 0
M  V30 9705 C 945.731 -2.0729 0.0674595 0
M  V30 9706 C 946.156 -1.4259 -1.22677 0
M  V30 9707 O 945.514 -0.50857 -1.74021 0
M  V30 9708 C 945.562 -3.60492 -0.0882227 0
M  V30 9709 O 944.666 -3.96172 -1.14551 0
M  V30 9710 H 944.007 -0.661159 0.0613536 0
M  V30 9711 H 946.537 -1.88247 0.801519 0
M  V30 9712 H 946.547 -4.06929 -0.295411 0
M  V30 9713 H 945.222 -4.06976 0.856943 0
M  V30 9714 H 943.799 -3.61448 -0.917033 0
M  V30 9715 N 945.984 -0.3171 -1.54377 0
M  V30 9716 C 947.261 0.341348 -1.92598 0
M  V30 9717 C 947.641 1.70402 -1.24605 0
M  V30 9718 O 946.989 2.25191 -0.387448 0
M  V30 9719 C 947.199 0.440003 -3.46215 0
M  V30 9720 C 948.547 0.703327 -4.18734 0
M  V30 9721 O 949.571 0.523181 -3.52337 0
M  V30 9722 O 948.43 1.05042 -5.3631 0
M  V30 9723 H 945.524 0.193696 -0.803997 0
M  V30 9724 H 948.07 -0.366341 -1.65699 0
M  V30 9725 H 946.842 -0.517299 -3.87866 0
M  V30 9726 H 946.465 1.19553 -3.792 0
M  V30 9727 N 947.462 1.57535 -0.0451378 0
M  V30 9728 C 948.41 2.12351 0.949205 0
M  V30 9729 C 949.404 1.05386 1.32628 0
M  V30 9730 O 950.61 1.23802 1.30664 0
M  V30 9731 H 946.985 0.678648 0.323945 0
M  V30 9732 H 948.956 2.94806 0.461718 0
M  V30 9733 C 947.705 2.67862 2.21687 0
M  V30 9734 H 947.028 3.49826 1.93551 0
M  V30 9735 H 948.468 3.09844 2.89435 0
M  V30 9736 C 946.927 1.61353 2.95748 0
M  V30 9737 O 947.457 1.02276 3.88462 0
M  V30 9738 N 945.663 1.33017 2.5837 0
M  V30 9739 H 945.21 1.81246 1.83051 0
M  V30 9740 H 945.168 0.619812 3.0823 0
M  V30 9741 N 948.94 -0.228186 1.55939 0
M  V30 9742 C 950.351 -0.795734 1.68893 0
M  V30 9743 C 950.702 -1.85261 0.645967 0
M  V30 9744 O 949.827 -2.15434 -0.2042 0
M  V30 9745 C 950.422 -1.45013 3.06197 0
M  V30 9746 C 948.981 -1.96514 3.21028 0
M  V30 9747 C 948.128 -0.822918 2.64808 0
M  V30 9748 H 951.079 -0.0036485 1.587 0
M  V30 9749 H 951.1 -2.31875 3.01685 0
M  V30 9750 H 950.612 -0.680678 3.82084 0
M  V30 9751 H 948.713 -2.76282 2.49998 0
M  V30 9752 H 948.826 -2.14967 4.28166 0
M  V30 9753 H 947.19 -1.22846 2.23116 0
M  V30 9754 H 947.973 -0.0662493 3.43236 0
M  V30 9755 N 950.418 -1.49637 -0.494624 0
M  V30 9756 C 951.35 -1.62902 -1.61231 0
M  V30 9757 C 952.363 -0.511425 -1.54558 0
M  V30 9758 O 953.552 -0.783724 -1.60375 0
M  V30 9759 C 950.652 -1.57564 -3.00045 0
M  V30 9760 C 949.825 -2.84964 -3.31835 0
M  V30 9761 C 948.884 -2.72591 -4.5009 0
M  V30 9762 O 947.91 -3.46532 -4.51558 0
M  V30 9763 N 949.112 -1.84563 -5.50379 0
M  V30 9764 H 951.877 -2.59301 -1.50276 0
M  V30 9765 H 949.438 -1.46806 -0.68262 0
M  V30 9766 H 951.43 -1.46932 -3.77085 0
M  V30 9767 H 950 -0.689974 -3.0489 0
M  V30 9768 H 949.22 -3.099 -2.4363 0
M  V30 9769 H 950.508 -3.69412 -3.49875 0
M  V30 9770 H 949.906 -1.23758 -5.51997 0
M  V30 9771 H 948.463 -1.79849 -6.26496 0
M  V30 9772 N 951.896 0.746133 -1.38819 0
M  V30 9773 C 953.145 1.50085 -1.34749 0
M  V30 9774 C 953.458 1.95516 0.0574786 0
M  V30 9775 O 954.664 2.70601 0.22073 0
M  V30 9776 C 953.12 2.71141 -2.36665 0
M  V30 9777 C 952.728 2.32706 -3.82821 0
M  V30 9778 C 954.472 3.49005 -2.41652 0
M  V30 9779 C 952.379 3.50418 -4.76405 0
M  V30 9780 H 951.309 0.563563 -0.500912 0
M  V30 9781 H 953.96 0.814951 -1.6441 0
M  V30 9782 H 952.342 3.4175 -2.00058 0
M  V30 9783 H 953.516 1.69715 -4.28408 0
M  V30 9784 H 951.831 1.67959 -3.81023 0
M  V30 9785 H 954.428 4.36541 -3.08766 0
M  V30 9786 H 954.771 3.90687 -1.43769 0
M  V30 9787 H 955.304 2.85416 -2.77097 0
M  V30 9788 H 952.043 3.13795 -5.75511 0
M  V30 9789 H 951.563 4.12426 -4.35505 0
M  V30 9790 H 953.242 4.16901 -4.94775 0
M  V30 9791 N 953.375 1.23811 0.975125 0
M  V30 9792 C 954.338 1.02505 2.05001 0
M  V30 9793 C 955.338 -0.0150084 1.60793 0
M  V30 9794 O 956.528 0.225246 1.72738 0
M  V30 9795 C 953.66 0.552087 3.364 0
M  V30 9796 H 954.853 1.979 2.25335 0
M  V30 9797 H 952.406 1.05929 1.1493 0
M  V30 9798 H 953.141 -0.405394 3.21756 0
M  V30 9799 H 952.926 1.30267 3.69828 0
M  V30 9800 H 954.416 0.423828 4.15444 0
M  V30 9801 N 954.853 -1.17469 1.05066 0
M  V30 9802 C 956.099 -1.87976 0.761113 0
M  V30 9803 C 956.432 -1.80756 -0.709995 0
M  V30 9804 O 955.707 -1.21469 -1.51906 0
M  V30 9805 C 955.99 -3.38055 1.2406 0
M  V30 9806 C 955.843 -3.54032 2.77455 0
M  V30 9807 C 957.162 -4.32036 0.838612 0
M  V30 9808 H 954.281 -0.682573 0.277963 0
M  V30 9809 H 956.923 -1.38147 1.30443 0
M  V30 9810 H 955.073 -3.80622 0.778388 0
M  V30 9811 H 956.745 -3.20489 3.3179 0
M  V30 9812 H 954.988 -2.96352 3.16793 0
M  V30 9813 H 955.659 -4.59377 3.06066 0
M  V30 9814 H 958.135 -3.97303 1.23651 0
M  V30 9815 H 957.011 -5.35583 1.20173 0
M  V30 9816 H 957.272 -4.41349 -0.257498 0
M  V30 9817 N 956.331 -0.831506 -1.3388 0
M  V30 9818 C 957.294 -0.264773 -2.27666 0
M  V30 9819 C 958.294 0.562273 -1.50649 0
M  V30 9820 O 959.484 0.377131 -1.70069 0
M  V30 9821 C 956.616 0.627814 -3.35069 0
M  V30 9822 H 957.809 -1.09225 -2.79303 0
M  V30 9823 H 955.362 -0.604021 -1.44157 0
M  V30 9824 H 956.097 1.47802 -2.88661 0
M  V30 9825 H 955.882 0.0361552 -3.92083 0
M  V30 9826 H 957.372 1.01786 -4.05005 0
M  V30 9827 N 957.809 1.4625 -0.587256 0
M  V30 9828 C 959.055 2.02662 -0.0746851 0
M  V30 9829 C 959.388 1.45723 1.28368 0
M  V30 9830 O 958.663 0.624062 1.84216 0
M  V30 9831 C 958.946 3.60097 -0.0138109 0
M  V30 9832 C 958.799 4.27412 -1.4014 0
M  V30 9833 C 960.118 4.34744 0.684491 0
M  V30 9834 H 957.237 0.736444 -0.0286144 0
M  V30 9835 H 959.879 1.74341 -0.755328 0
M  V30 9836 H 958.029 3.84357 0.56583 0
M  V30 9837 H 959.701 4.14401 -2.02656 0
M  V30 9838 H 957.944 3.86598 -1.96785 0
M  V30 9839 H 958.615 5.362 -1.31124 0
M  V30 9840 H 961.091 4.15657 0.192023 0
M  V30 9841 H 959.967 5.44468 0.696127 0
M  V30 9842 H 960.228 4.06132 1.74669 0
M  V30 9843 N 959.287 0.325282 1.54207 0
M  V30 9844 C 960.533 -0.277185 2.00897 0
M  V30 9845 C 960.866 -1.51651 1.21308 0
M  V30 9846 O 960.141 -1.92237 0.295825 0
M  V30 9847 C 960.424 -0.60961 3.54902 0
M  V30 9848 C 960.277 0.640542 4.45216 0
M  V30 9849 C 961.596 -1.42656 4.16338 0
M  V30 9850 H 958.715 -0.0992722 0.730284 0
M  V30 9851 H 961.357 0.442201 1.84783 0
M  V30 9852 H 959.507 -1.22249 3.68765 0
M  V30 9853 H 961.179 1.27878 4.43221 0
M  V30 9854 H 959.422 1.26908 4.14821 0
M  V30 9855 H 960.093 0.363459 5.50802 0
M  V30 9856 H 962.569 -0.908494 4.06061 0
M  V30 9857 H 961.445 -1.62792 5.24204 0
M  V30 9858 H 961.706 -2.42321 3.69774 0
M  V30 9859 N 960.765 -1.57509 0.0534917 0
M  V30 9860 C 962.012 -1.92782 -0.619772 0
M  V30 9861 C 962.34 -0.932046 -1.70714 0
M  V30 9862 O 961.595 0.0552891 -1.95622 0
M  V30 9863 C 961.894 -3.34734 -1.25251 0
M  V30 9864 C 961.56 -4.49946 -0.293113 0
M  V30 9865 C 960.222 -4.81191 -0.0291223 0
M  V30 9866 C 962.574 -5.19925 0.364271 0
M  V30 9867 C 959.902 -5.79761 0.899649 0
M  V30 9868 C 962.254 -6.19489 1.28125 0
M  V30 9869 C 960.918 -6.49161 1.55389 0
M  V30 9870 H 960.188 -0.705441 -0.226791 0
M  V30 9871 H 962.835 -1.91121 0.120466 0
M  V30 9872 H 961.14 -3.32774 -2.06807 0
M  V30 9873 H 962.837 -3.59308 -1.78042 0
M  V30 9874 H 959.427 -4.25566 -0.509053 0
M  V30 9875 H 963.611 -4.95997 0.173411 0
M  V30 9876 H 958.867 -6.01085 1.11833 0
M  V30 9877 H 963.041 -6.72824 1.79669 0
M  V30 9878 H 960.668 -7.25354 2.2752 0
M  V30 9879 N 962.243 0.219913 -1.56058 0
M  V30 9880 C 963.654 0.786766 -1.69313 0
M  V30 9881 C 964.005 1.84916 -0.655782 0
M  V30 9882 O 963.13 2.1554 0.192772 0
M  V30 9883 C 963.725 1.43387 -3.06962 0
M  V30 9884 C 962.284 1.94809 -3.22066 0
M  V30 9885 C 961.431 0.808863 -2.65241 0
M  V30 9886 H 964.382 -0.00476777 -1.58699 0
M  V30 9887 H 964.403 2.30272 -3.02911 0
M  V30 9888 H 963.915 0.660405 -3.8244 0
M  V30 9889 H 962.016 2.74952 -2.5146 0
M  V30 9890 H 962.129 2.12694 -4.293 0
M  V30 9891 H 960.493 1.21661 -2.23765 0
M  V30 9892 H 961.276 0.0480458 -3.43266 0
M  V30 9893 N 963.721 1.49897 0.486681 0
M  V30 9894 C 964.671 1.6401 1.58381 0
M  V30 9895 C 965.655 0.495215 1.5309 0
M  V30 9896 O 966.847 0.748876 1.60377 0
M  V30 9897 C 963.976 1.72321 2.96918 0
M  V30 9898 C 963.062 2.92435 3.07152 0
M  V30 9899 N 963.453 4.16326 2.87238 0
M  V30 9900 C 961.751 2.90669 3.38271 0
M  V30 9901 C 962.452 4.97144 3.02031 0
M  V30 9902 N 961.428 4.3079 3.31544 0
M  V30 9903 H 965.23 2.57506 1.41661 0
M  V30 9904 H 962.744 1.46867 0.693106 0
M  V30 9905 H 964.741 1.80532 3.75784 0
M  V30 9906 H 963.401 0.799724 3.14697 0
M  V30 9907 H 964.412 4.46076 2.63128 0
M  V30 9908 H 961.089 2.07758 3.62137 0
M  V30 9909 H 962.479 6.05611 2.91006 0
M  V30 9910 N 965.199 -0.738761 1.39212 0
M  V30 9911 C 966.147 -1.8741 1.3777 0
M  V30 9912 C 967.141 -1.67371 0.261375 0
M  V30 9913 O 968.347 -1.74759 0.431209 0
M  V30 9914 H 964.722 -0.616843 0.430126 0
M  V30 9915 H 966.693 -1.85742 2.33543 0
M  V30 9916 C 965.442 -3.25053 1.23433 0
M  V30 9917 H 964.765 -3.41066 2.086 0
M  V30 9918 H 966.205 -4.04696 1.2648 0
M  V30 9919 C 964.664 -3.36851 -0.0575624 0
M  V30 9920 O 965.194 -3.88293 -1.02915 0
M  V30 9921 N 963.4 -2.90355 -0.119364 0
M  V30 9922 H 962.947 -2.48681 0.671976 0
M  V30 9923 H 962.905 -2.98628 -0.983286 0
M  V30 9924 N 966.677 -1.24326 -0.968545 0
M  V30 9925 C 967.905 -1.10947 -1.74638 0
M  V30 9926 C 968.32 0.338064 -1.85749 0
M  V30 9927 O 967.677 1.23331 -1.3452 0
M  V30 9928 C 967.728 -1.74254 -3.1673 0
M  V30 9929 O 967.449 -3.13347 -3.06178 0
M  V30 9930 C 968.95 -1.66473 -4.10855 0
M  V30 9931 H 966.17 -0.38767 -0.547679 0
M  V30 9932 H 968.714 -1.64415 -1.21605 0
M  V30 9933 H 966.869 -1.2479 -3.66751 0
M  V30 9934 H 967.283 -3.44255 -3.95713 0
M  V30 9935 H 968.757 -2.15452 -5.08217 0
M  V30 9936 H 969.234 -0.625785 -4.34719 0
M  V30 9937 H 969.84 -2.15359 -3.66743 0
M  V30 9938 N 968.156 1.1691 -1.05688 0
M  V30 9939 C 969.104 2.2315 -0.656262 0
M  V30 9940 C 970.098 1.66256 0.324873 0
M  V30 9941 O 971.304 1.7899 0.190397 0
M  V30 9942 H 967.679 0.726527 -0.19407 0
M  V30 9943 H 969.65 2.54233 -1.56231 0
M  V30 9944 C 968.399 3.47661 -0.0522431 0
M  V30 9945 H 967.722 3.91749 -0.798299 0
M  V30 9946 H 969.162 4.23571 0.190626 0
M  V30 9947 C 967.621 3.14709 1.20248 0
M  V30 9948 O 968.151 3.29947 2.29124 0
M  V30 9949 N 966.357 2.68892 1.10207 0
M  V30 9950 H 965.904 2.56692 0.216063 0
M  V30 9951 H 965.862 2.47218 1.94244 0
M  V30 9952 N 969.634 0.838594 1.33437 0
M  V30 9953 C 970.564 0.286672 2.31734 0
M  V30 9954 C 971.545 -0.605451 1.5896 0
M  V30 9955 O 972.73 -0.529059 1.86854 0
M  V30 9956 C 969.86 -0.539311 3.43087 0
M  V30 9957 C 968.814 0.256997 4.27228 0
M  V30 9958 C 968.14 -0.692718 5.30194 0
M  V30 9959 C 969.44 1.47391 5.01072 0
M  V30 9960 H 971.134 1.10798 2.78144 0
M  V30 9961 H 968.68 0.534235 1.33723 0
M  V30 9962 H 970.633 -0.935724 4.1088 0
M  V30 9963 H 969.357 -1.39383 2.95364 0
M  V30 9964 H 968.016 0.634967 3.61059 0
M  V30 9965 H 967.664 -1.54363 4.78729 0
M  V30 9966 H 967.364 -0.164023 5.87371 0
M  V30 9967 H 968.888 -1.08665 6.00853 0
M  V30 9968 H 970.302 1.15067 5.61634 0
M  V30 9969 H 968.699 1.93937 5.67898 0
M  V30 9970 H 969.769 2.24382 4.29861 0
M  V30 9971 N 971.112 -1.45937 0.595003 0
M  V30 9972 C 972.34 -2.06698 0.091293 0
M  V30 9973 C 972.755 -1.44176 -1.21897 0
M  V30 9974 O 972.112 -0.551402 -1.73971 0
M  V30 9975 C 972.163 -3.61436 -0.0681801 0
M  V30 9976 O 971.884 -4.21622 1.19023 0
M  V30 9977 C 973.385 -4.39155 -0.604814 0
M  V30 9978 H 970.605 -0.668029 0.0630737 0
M  V30 9979 H 973.149 -1.87376 0.819165 0
M  V30 9980 H 971.304 -3.80143 -0.746324 0
M  V30 9981 H 971.718 -5.14647 1.01187 0
M  V30 9982 H 973.192 -5.47973 -0.665532 0
M  V30 9983 H 973.669 -4.08055 -1.62444 0
M  V30 9984 H 974.275 -4.25282 0.0388658 0
M  V30 9985 N 972.59 -0.333456 -1.54032 0
M  V30 9986 C 973.538 0.543414 -2.26163 0
M  V30 9987 C 974.532 1.11037 -1.27934 0
M  V30 9988 O 975.738 1.05727 -1.45677 0
M  V30 9989 H 972.113 0.19391 -0.726569 0
M  V30 9990 H 974.084 -0.0871052 -2.98273 0
M  V30 9991 C 972.833 1.68769 -3.03994 0
M  V30 9992 H 972.156 1.26069 -3.79403 0
M  V30 9993 H 973.596 2.27662 -3.57695 0
M  V30 9994 C 972.055 2.61117 -2.12884 0
M  V30 9995 O 972.585 3.63097 -1.71823 0
M  V30 9996 N 970.791 2.29573 -1.7817 0
M  V30 9997 H 970.338 1.46684 -2.11759 0
M  V30 9998 H 970.296 2.91622 -1.1749 0
M  V30 9999 N 974.068 1.57479 -0.061844 0
M  V30 10000 C 975.316 1.92727 0.608336 0
M  V30 10001 C 975.637 0.941799 1.70749 0
M  V30 10002 O 974.907 -0.0116608 1.95897 0
M  V30 10003 H 973.487 0.71145 0.2277 0
M  V30 10004 H 976.149 1.94546 -0.117359 0
M  V30 10005 H 975.245 2.9426 1.04007 0
M  V30 10006 N 975.546 -0.211634 1.56173 0
M  V30 10007 C 976.792 -0.935935 1.79911 0
M  V30 10008 C 977.125 -1.83589 0.633155 0
M  V30 10009 O 976.4 -1.91004 -0.367132 0
M  V30 10010 C 976.683 -1.76638 3.13801 0
M  V30 10011 C 976.536 -0.892259 4.40861 0
M  V30 10012 C 977.855 -2.74224 3.44223 0
M  V30 10013 H 974.974 -0.338822 0.654499 0
M  V30 10014 H 977.616 -0.20422 1.88899 0
M  V30 10015 H 975.766 -2.39021 3.0627 0
M  V30 10016 H 977.438 -0.284407 4.60422 0
M  V30 10017 H 975.681 -0.198145 4.33347 0
M  V30 10018 H 976.352 -1.50793 5.31004 0
M  V30 10019 H 978.828 -2.21975 3.51946 0
M  V30 10020 H 977.704 -3.29424 4.39057 0
M  V30 10021 H 977.965 -3.52455 2.66885 0
M  V30 10022 N 977.024 -1.50153 -0.478725 0
M  V30 10023 C 978.272 -1.60443 -1.22892 0
M  V30 10024 C 978.593 -0.303276 -1.92627 0
M  V30 10025 O 977.863 0.678798 -1.83764 0
M  V30 10026 H 976.443 -0.591205 -0.456602 0
M  V30 10027 H 979.105 -1.86893 -0.552905 0
M  V30 10028 H 978.201 -2.41175 -1.98094 0
M  V30 10029 N 978.502 0.731368 -1.39602 0
M  V30 10030 C 979.913 1.30981 -1.33045 0
M  V30 10031 C 980.264 1.962 0.00349918 0
M  V30 10032 O 979.389 1.96539 0.905615 0
M  V30 10033 C 979.984 2.3817 -2.40958 0
M  V30 10034 C 978.543 2.91678 -2.3791 0
M  V30 10035 C 977.69 1.65286 -2.22656 0
M  V30 10036 H 980.641 0.528615 -1.49637 0
M  V30 10037 H 980.662 3.18645 -2.07955 0
M  V30 10038 H 980.174 1.90673 -3.38032 0
M  V30 10039 H 978.275 3.43446 -1.44485 0
M  V30 10040 H 978.388 3.44545 -3.32904 0
M  V30 10041 H 976.752 1.89759 -1.69893 0
M  V30 10042 H 977.535 1.19836 -3.21705 0
M  V30 10043 N 979.98 1.24838 0.961938 0
M  V30 10044 C 981.205 1.11967 1.7458 0
M  V30 10045 C 981.63 -0.323287 1.85301 0
M  V30 10046 O 980.988 -1.23412 1.32812 0
M  V30 10047 C 981.036 1.77066 3.14134 0
M  V30 10048 O 980.14 1.04534 3.98932 0
M  V30 10049 H 979.481 0.391338 0.536424 0
M  V30 10050 H 982.011 1.65259 1.20626 0
M  V30 10051 H 982.021 1.83056 3.64629 0
M  V30 10052 H 980.696 2.82052 3.05646 0
M  V30 10053 H 979.273 1.06372 3.57407 0
M  V30 10054 N 981.458 -1.16348 1.06306 0
M  V30 10055 C 982.707 -1.8622 0.774909 0
M  V30 10056 C 983.02 -1.82598 -0.701245 0
M  V30 10057 O 984.226 -2.48051 -1.10377 0
M  V30 10058 C 982.682 -3.34182 1.33604 0
M  V30 10059 C 982.29 -3.46279 2.84245 0
M  V30 10060 C 984.034 -4.09309 1.12544 0
M  V30 10061 C 981.941 -4.88327 3.33602 0
M  V30 10062 H 980.871 -0.697574 0.286194 0
M  V30 10063 H 983.522 -1.31311 1.28179 0
M  V30 10064 H 981.904 -3.88698 0.756937 0
M  V30 10065 H 983.078 -3.01923 3.48108 0
M  V30 10066 H 981.393 -2.84585 3.03974 0
M  V30 10067 H 983.99 -5.14123 1.46909 0
M  V30 10068 H 984.333 -4.16251 0.0638129 0
M  V30 10069 H 984.866 -3.61032 1.67034 0
M  V30 10070 H 981.605 -4.86565 4.39244 0
M  V30 10071 H 981.125 -5.33307 2.74487 0
M  V30 10072 H 982.804 -5.57144 3.28937 0
M  V30 10073 N 982.937 -0.845659 -1.3299 0
M  V30 10074 C 983.9 -0.288905 -2.27372 0
M  V30 10075 C 984.9 0.546263 -1.51237 0
M  V30 10076 O 986.09 0.359072 -1.70459 0
M  V30 10077 C 983.222 0.59224 -3.35716 0
M  V30 10078 H 984.415 -1.12181 -2.78128 0
M  V30 10079 H 981.968 -0.619276 -1.43508 0
M  V30 10080 H 982.703 1.44732 -2.90212 0
M  V30 10081 H 982.488 -0.00543255 -3.921 0
M  V30 10082 H 983.978 0.974848 -4.06062 0
M  V30 10083 N 984.415 1.45619 -0.602734 0
M  V30 10084 C 985.831 1.57368 -0.26599 0
M  V30 10085 C 986.031 1.59485 1.23154 0
M  V30 10086 O 985.087 1.52254 2.01432 0
M  V30 10087 C 986.4 2.85863 -0.932881 0
M  V30 10088 C 987.948 2.9953 -0.908344 0
M  V30 10089 C 988.423 4.30789 -1.55515 0
M  V30 10090 N 989.914 4.37536 -1.52042 0
M  V30 10091 C 990.649 5.37758 -1.99008 0
M  V30 10092 N 990.145 6.44544 -2.54038 0
M  V30 10093 N 991.938 5.29085 -1.89805 0
M  V30 10094 H 984.089 1.42489 -1.57514 0
M  V30 10095 H 986.352 0.680948 -0.659556 0
M  V30 10096 H 986.058 2.90183 -1.98713 0
M  V30 10097 H 985.932 3.74467 -0.453209 0
M  V30 10098 H 988.319 2.9478 0.137344 0
M  V30 10099 H 988.4 2.12349 -1.42623 0
M  V30 10100 H 988.044 4.36297 -2.60014 0
M  V30 10101 H 987.974 5.16778 -1.01232 0
M  V30 10102 H 990.465 3.60972 -1.11837 0
M  V30 10103 H 990.778 7.17258 -2.87682 0
M  V30 10104 H 989.123 6.45308 -2.58075 0
M  V30 10105 H 992.314 4.44566 -1.46556 0
M  V30 10106 H 992.487 6.07043 -2.26722 0
M  V30 10107 N 985.893 0.34162 1.53853 0
M  V30 10108 C 987.17 -0.310664 1.93117 0
M  V30 10109 C 987.55 -1.68398 1.273 0
M  V30 10110 O 986.898 -2.24546 0.423225 0
M  V30 10111 C 987.108 -0.384867 3.46871 0
M  V30 10112 C 988.456 -0.636621 4.198 0
M  V30 10113 O 989.48 -0.467061 3.53125 0
M  V30 10114 O 988.339 -0.964962 5.37913 0
M  V30 10115 H 985.433 -0.180881 0.806977 0
M  V30 10116 H 987.979 0.392656 1.65095 0
M  V30 10117 H 986.751 0.57894 3.86994 0
M  V30 10118 H 986.374 -1.13505 3.81054 0
M  V30 10119 N 987.371 -1.57444 0.0701946 0
M  V30 10120 C 988.62 -1.92605 -0.598849 0
M  V30 10121 C 988.933 -0.952058 -1.70866 0
M  V30 10122 O 990.139 -1.19643 -2.43716 0
M  V30 10123 C 988.595 -3.42142 -1.11655 0
M  V30 10124 C 988.203 -4.47984 -0.0378355 0
M  V30 10125 C 989.947 -3.86307 -1.75975 0
M  V30 10126 C 987.854 -5.88652 -0.569495 0
M  V30 10127 H 986.784 -0.718873 -0.22746 0
M  V30 10128 H 989.435 -1.82948 0.14217 0
M  V30 10129 H 987.817 -3.46866 -1.91049 0
M  V30 10130 H 988.991 -4.54874 0.736661 0
M  V30 10131 H 987.306 -4.13277 0.50904 0
M  V30 10132 H 989.903 -4.88784 -2.16782 0
M  V30 10133 H 990.246 -3.23587 -2.61911 0
M  V30 10134 H 990.779 -3.84179 -1.03206 0
M  V30 10135 H 987.518 -6.55013 0.252662 0
M  V30 10136 H 987.038 -5.85285 -1.31155 0
M  V30 10137 H 988.717 -6.38482 -1.04641 0
M  V30 10138 N 988.849 0.203349 -1.56283 0
M  V30 10139 C 990.098 0.92315 -1.79334 0
M  V30 10140 C 990.411 1.84765 -0.641977 0
M  V30 10141 O 991.617 2.60745 -0.756584 0
M  V30 10142 C 990.073 1.69184 -3.17655 0
M  V30 10143 C 989.681 0.812581 -4.40569 0
M  V30 10144 C 991.425 2.40177 -3.50022 0
M  V30 10145 C 989.332 1.57967 -5.69913 0
M  V30 10146 H 988.262 0.348442 -0.668659 0
M  V30 10147 H 990.913 0.1766 -1.82648 0
M  V30 10148 H 989.295 2.48197 -3.08568 0
M  V30 10149 H 990.469 0.0616956 -4.60759 0
M  V30 10150 H 988.784 0.21389 -4.1585 0
M  V30 10151 H 991.381 2.98103 -4.4389 0
M  V30 10152 H 991.724 3.13961 -2.73376 0
M  V30 10153 H 992.257 1.68138 -3.6052 0
M  V30 10154 H 988.996 0.884767 -6.49501 0
M  V30 10155 H 988.516 2.3047 -5.53754 0
M  V30 10156 H 990.195 2.13562 -6.10737 0
M  V30 10157 N 990.327 1.50405 0.470755 0
M  V30 10158 C 991.275 1.6982 1.58946 0
M  V30 10159 C 992.269 0.56407 1.59733 0
M  V30 10160 O 993.475 0.744576 1.63878 0
M  V30 10161 H 989.85 0.536016 0.527438 0
M  V30 10162 H 991.821 2.63662 1.39732 0
M  V30 10163 C 990.57 1.80986 2.96883 0
M  V30 10164 H 989.893 2.67645 2.96996 0
M  V30 10165 H 991.333 1.98596 3.74614 0
M  V30 10166 C 989.792 0.561551 3.32187 0
M  V30 10167 O 990.322 -0.299136 4.00585 0
M  V30 10168 N 988.528 0.415476 2.87615 0
M  V30 10169 H 988.075 1.11691 2.32127 0
M  V30 10170 H 988.033 -0.418592 3.11601 0
M  V30 10171 N 991.805 -0.723954 1.39988 0
M  V30 10172 C 992.735 -1.85103 1.42335 0
M  V30 10173 C 993.716 -1.6769 0.285297 0
M  V30 10174 O 994.901 -1.87846 0.492716 0
M  V30 10175 C 992.031 -3.22972 1.27697 0
M  V30 10176 C 990.985 -3.55041 2.39018 0
M  V30 10177 C 990.311 -4.91965 2.09462 0
M  V30 10178 C 991.611 -3.56889 3.8135 0
M  V30 10179 H 993.305 -1.83396 2.36656 0
M  V30 10180 H 990.851 -0.880926 1.13911 0
M  V30 10181 H 992.804 -4.01503 1.27958 0
M  V30 10182 H 991.528 -3.25233 0.298487 0
M  V30 10183 H 990.187 -2.78845 2.37993 0
M  V30 10184 H 989.835 -4.90819 1.10025 0
M  V30 10185 H 989.535 -5.14389 2.84038 0
M  V30 10186 H 991.059 -5.7284 2.11391 0
M  V30 10187 H 992.473 -4.25476 3.84243 0
M  V30 10188 H 990.87 -3.90836 4.55376 0
M  V30 10189 H 991.94 -2.56452 4.11534 0
M  V30 10190 N 993.283 -1.25346 -0.955304 0
M  V30 10191 C 994.513 -1.12629 -1.732 0
M  V30 10192 C 994.921 0.322748 -1.86427 0
M  V30 10193 O 994.264 1.23381 -1.36099 0
M  V30 10194 C 994.326 -1.7064 -3.16421 0
M  V30 10195 C 993.99 -3.19632 -3.26626 0
M  V30 10196 C 994.987 -4.1663 -3.10991 0
M  V30 10197 C 992.672 -3.59829 -3.50468 0
M  V30 10198 C 994.666 -5.51806 -3.19043 0
M  V30 10199 C 992.353 -4.95143 -3.58157 0
M  V30 10200 C 993.351 -5.90941 -3.42459 0
M  V30 10201 O 993.039 -7.23792 -3.49828 0
M  V30 10202 H 992.771 -0.393646 -0.549562 0
M  V30 10203 H 995.325 -1.66184 -1.20715 0
M  V30 10204 H 993.555 -1.11532 -3.70267 0
M  V30 10205 H 995.244 -1.53032 -3.75947 0
M  V30 10206 H 996.01 -3.86915 -2.92441 0
M  V30 10207 H 991.889 -2.8576 -3.61749 0
M  V30 10208 H 995.433 -6.26559 -3.06707 0
M  V30 10209 H 991.33 -5.24525 -3.76224 0
M  V30 10210 H 992.098 -7.31879 -3.66463 0
M  V30 10211 N 994.761 1.15782 -1.06922 0
M  V30 10212 C 995.693 2.19978 -0.643604 0
M  V30 10213 C 996.706 1.59981 0.301653 0
M  V30 10214 O 997.895 1.78265 0.0916508 0
M  V30 10215 C 994.995 3.38815 0.0757973 0
M  V30 10216 C 994.168 4.28363 -0.884545 0
M  V30 10217 C 993.227 5.25807 -0.203233 0
M  V30 10218 O 992.253 5.62924 -0.842904 0
M  V30 10219 N 993.455 5.70874 1.05279 0
M  V30 10220 H 996.22 2.57112 -1.53992 0
M  V30 10221 H 993.781 1.30855 -0.953344 0
M  V30 10222 H 995.773 4.01052 0.542151 0
M  V30 10223 H 994.343 3.00133 0.874 0
M  V30 10224 H 993.563 3.63292 -1.53012 0
M  V30 10225 H 994.851 4.85067 -1.53581 0
M  V30 10226 H 994.249 5.42822 1.5925 0
M  V30 10227 H 992.806 6.35171 1.46289 0
M  V30 10228 N 996.239 0.8527 1.3254 0
M  V30 10229 C 997.186 0.293905 2.28921 0
M  V30 10230 C 998.156 -0.598027 1.54961 0
M  V30 10231 O 999.341 -0.533355 1.83194 0
M  V30 10232 C 996.481 -0.513361 3.4126 0
M  V30 10233 C 995.594 0.404144 4.30105 0
M  V30 10234 C 994.729 -0.415564 5.29572 0
M  V30 10235 C 993.768 0.499461 6.10059 0
M  V30 10236 N 992.905 -0.282949 7.0153 0
M  V30 10237 H 997.745 1.12107 2.76109 0
M  V30 10238 H 995.282 0.564272 1.35847 0
M  V30 10239 H 997.24 -0.997008 4.05112 0
M  V30 10240 H 995.87 -1.30537 2.95229 0
M  V30 10241 H 994.922 1.00617 3.66852 0
M  V30 10242 H 996.234 1.10648 4.86373 0
M  V30 10243 H 995.388 -0.962458 5.99017 0
M  V30 10244 H 994.127 -1.15127 4.73917 0
M  V30 10245 H 993.132 1.05825 5.39519 0
M  V30 10246 H 994.357 1.23375 6.67799 0
M  V30 10247 H 992.303 -1.00179 6.48306 0
M  V30 10248 H 992.22 0.36039 7.55141 0
M  V30 10249 H 993.488 -0.811632 7.75263 0
M  V30 10250 N 997.718 -1.45297 0.610449 0
M  V30 10251 C 998.948 -2.0629 0.113047 0
M  V30 10252 C 999.356 -1.45527 -1.20907 0
M  V30 10253 O 998.699 -0.564837 -1.74801 0
M  V30 10254 C 998.761 -3.59366 -0.0979692 0
M  V30 10255 C 998.425 -4.42481 1.14279 0
M  V30 10256 C 999.422 -4.77277 2.06161 0
M  V30 10257 C 997.107 -4.83187 1.37241 0
M  V30 10258 C 999.101 -5.51639 3.19333 0
M  V30 10259 C 996.788 -5.57303 2.50713 0
M  V30 10260 C 997.786 -5.91445 3.41587 0
M  V30 10261 O 997.474 -6.64056 4.53083 0
M  V30 10262 H 997.206 -0.67264 0.0673159 0
M  V30 10263 H 999.76 -1.87486 0.838937 0
M  V30 10264 H 997.99 -3.76582 -0.878783 0
M  V30 10265 H 999.679 -4.02193 -0.547327 0
M  V30 10266 H 1000.44 -4.46384 1.89647 0
M  V30 10267 H 996.324 -4.56045 0.67407 0
M  V30 10268 H 999.868 -5.78207 3.90286 0
M  V30 10269 H 995.765 -5.8761 2.67179 0
M  V30 10270 H 996.533 -6.82509 4.51801 0
M  V30 10271 N 999.196 -0.349774 -1.5367 0
M  V30 10272 C 1000.15 0.52023 -2.21986 0
M  V30 10273 C 1001.13 1.06119 -1.20944 0
M  V30 10274 O 1002.32 0.993857 -1.46463 0
M  V30 10275 C 999.451 1.66751 -3.00082 0
M  V30 10276 C 998.537 1.14019 -4.08486 0
M  V30 10277 N 998.928 0.334588 -5.04692 0
M  V30 10278 C 997.226 1.4165 -4.22908 0
M  V30 10279 C 997.927 0.0476906 -5.8168 0
M  V30 10280 N 996.903 0.641032 -5.39807 0
M  V30 10281 H 1000.7 -0.102261 -2.93722 0
M  V30 10282 H 998.219 -0.15696 -1.6164 0
M  V30 10283 H 1000.22 2.30281 -3.47529 0
M  V30 10284 H 998.876 2.29322 -2.29873 0
M  V30 10285 H 999.887 -0.0248665 -5.17894 0
M  V30 10286 H 996.564 2.04615 -3.63922 0
M  V30 10287 H 997.954 -0.602565 -6.69193 0
M  V30 10288 N 1000.67 1.57404 -0.0785433 0
M  V30 10289 C 1002.08 1.81118 0.45311 0
M  V30 10290 C 1002.44 0.992963 1.69218 0
M  V30 10291 O 1001.56 0.217448 2.15305 0
M  V30 10292 C 1002.16 3.28506 0.82882 0
M  V30 10293 C 1000.71 3.53042 1.3053 0
M  V30 10294 C 999.862 2.75739 0.29378 0
M  V30 10295 H 1002.81 1.55758 -0.304171 0
M  V30 10296 H 1002.83 3.40924 1.68971 0
M  V30 10297 H 1002.35 3.88031 -0.0731826 0
M  V30 10298 H 1000.45 2.98829 2.22558 0
M  V30 10299 H 1000.56 4.61724 1.27857 0
M  V30 10300 H 998.924 2.42703 0.772477 0
M  V30 10301 H 999.707 3.38005 -0.600613 0
M  V30 10302 N 1002.15 -0.195058 1.56388 0
M  V30 10303 C 1003.08 -1.26978 1.8961 0
M  V30 10304 C 1004.06 -1.43946 0.756199 0
M  V30 10305 O 1005.25 -1.59335 1.0072 0
M  V30 10306 C 1002.37 -2.63638 2.12632 0
M  V30 10307 C 1001.42 -2.6354 3.35334 0
M  V30 10308 S 1002.25 -2.1497 4.90457 0
M  V30 10309 C 1003.41 -3.53454 5.16547 0
M  V30 10310 H 1003.64 -0.986091 2.8047 0
M  V30 10311 H 1001.17 -0.398552 1.49167 0
M  V30 10312 H 1003.13 -3.42304 2.26579 0
M  V30 10313 H 1001.79 -2.89218 1.22522 0
M  V30 10314 H 1000.99 -3.64027 3.48569 0
M  V30 10315 H 1000.59 -1.92956 3.20381 0
M  V30 10316 H 1002.88 -4.49318 5.0707 0
M  V30 10317 H 1003.82 -3.45113 6.18306 0
M  V30 10318 H 1004.23 -3.48368 4.44185 0
M  V30 10319 N 1003.63 -1.50653 -0.462772 0
M  V30 10320 C 1004.58 -1.70661 -1.58043 0
M  V30 10321 C 1005.57 -0.572533 -1.59432 0
M  V30 10322 O 1006.78 -0.753257 -1.63481 0
M  V30 10323 H 1003.15 -0.538805 -0.524588 0
M  V30 10324 H 1005.12 -2.64399 -1.38332 0
M  V30 10325 C 1003.87 -1.82558 -2.95919 0
M  V30 10326 H 1003.2 -2.69216 -2.95572 0
M  V30 10327 H 1004.64 -2.0058 -3.73556 0
M  V30 10328 C 1003.09 -0.57916 -3.31885 0
M  V30 10329 O 1003.62 0.277888 -4.00738 0
M  V30 10330 N 1001.83 -0.430723 -2.8739 0
M  V30 10331 H 1001.38 -1.1292 -2.31531 0
M  V30 10332 H 1001.34 0.402061 -3.11819 0
M  V30 10333 O 1005.15 0.608373 -1.49603 0
M  V30 10334 H 1005.84 1.26294 -1.46865 0
M  V30 END ATOM
M  V30 BEGIN BOND
M  V30 END BOND
M  V30 END CTAB
M  END
$$$$
