drugbank_target|P03474 Neuraminidase (DB03342; DB03475; DB07762; DB08570)
 OpenBabel12092120023D

  0  0  0     0  0            999 V3000
M  V30 BEGIN CTAB
M  V30 COUNTS 7138 7223 0 0 0
M  V30 BEGIN ATOM
M  V30 1 H -0.908 1.98254 -0.117106 0
M  V30 2 N 0 1.576 0 0
M  V30 3 C 0.933 2.03868 1.02534 0
M  V30 4 C 1.911 0.928543 1.3348 0
M  V30 5 O 3.095 1.19667 1.45644 0
M  V30 6 C 0.222 2.43627 2.35294 0
M  V30 7 C -0.732 3.65373 2.2001 0
M  V30 8 S 0.101 5.13292 1.52614 0
M  V30 9 C 1.257 5.56322 2.86805 0
M  V30 10 H 1.49 2.90518 0.631377 0
M  V30 11 H -0.977 1.52953 0.210867 0
M  V30 12 H 0.981 2.67203 3.11629 0
M  V30 13 H -0.358 1.57376 2.7183 0
M  V30 14 H -1.165 3.90944 3.18086 0
M  V30 15 H -1.563 3.418 1.51819 0
M  V30 16 H 0.729 5.58782 3.83104 0
M  V30 17 H 1.672 6.56266 2.65933 0
M  V30 18 H 2.08 4.83886 2.90714 0
M  V30 19 N 1.4781 -0.272755 1.55222 0
M  V30 20 C 2.4081 -1.34136 1.91127 0
M  V30 21 C 3.3891 -1.51513 0.773168 0
M  V30 22 O 4.5741 -1.64552 1.03132 0
M  V30 23 C 1.7041 -2.70083 2.1834 0
M  V30 24 C 0.6581 -2.67437 3.34158 0
M  V30 25 C -0.0159 -4.06938 3.46851 0
M  V30 26 C 1.2841 -2.26686 4.70543 0
M  V30 27 H 2.9781 -1.04333 2.80633 0
M  V30 28 H 0.5241 -0.500454 1.35024 0
M  V30 29 H 2.4771 -3.44952 2.42046 0
M  V30 30 H 1.2011 -3.01469 1.25634 0
M  V30 31 H -0.1399 -1.95026 3.1042 0
M  V30 32 H -0.4919 -4.35547 2.51611 0
M  V30 33 H -0.7919 -4.06062 4.2472 0
M  V30 34 H 0.7321 -4.83545 3.72849 0
M  V30 35 H 2.1461 -2.91277 4.93792 0
M  V30 36 H 0.5431 -2.36971 5.5133 0
M  V30 37 H 1.6131 -1.21818 4.69349 0
M  V30 38 N 2.9562 -1.48159 -0.537278 0
M  V30 39 C 4.3672 -1.49429 -1.11928 0
M  V30 40 C 4.7182 -0.26 -1.9447 0
M  V30 41 O 3.8432 0.633489 -2.0692 0
M  V30 42 C 4.4382 -2.70758 -2.03656 0
M  V30 43 C 2.9972 -2.74923 -2.57088 0
M  V30 44 C 2.1442 -2.42835 -1.3389 0
M  V30 45 H 5.0952 -1.55381 -0.322886 0
M  V30 46 H 5.1162 -2.48861 -2.87834 0
M  V30 47 H 4.6282 -3.60575 -1.43553 0
M  V30 48 H 2.7292 -1.89296 -3.20933 0
M  V30 49 H 2.8422 -3.76157 -2.9672 0
M  V30 50 H 1.2062 -1.93836 -1.65226 0
M  V30 51 H 1.9892 -3.34884 -0.755504 0
M  V30 52 N 4.4343 0.785586 -1.36625 0
M  V30 53 C 5.6593 1.57963 -1.34397 0
M  V30 54 C 6.0843 1.87964 0.071526 0
M  V30 55 O 5.4423 1.48182 1.0446 0
M  V30 56 C 5.4903 2.87511 -2.17646 0
M  V30 57 O 4.5943 3.81281 -1.57158 0
M  V30 58 H 3.9353 0.479014 -0.459828 0
M  V30 59 H 6.4653 0.973411 -1.79961 0
M  V30 60 H 6.4753 3.36745 -2.30362 0
M  V30 61 H 5.1503 2.65002 -3.20541 0
M  V30 62 H 3.7273 3.39885 -1.53403 0
M  V30 63 N 5.9124 1.20967 1.01018 0
M  V30 64 C 7.1404 1.04956 1.78303 0
M  V30 65 C 7.5554 -0.400915 1.84494 0
M  V30 66 O 6.9124 -1.27826 1.30257 0
M  V30 67 C 6.9634 1.63403 3.22462 0
M  V30 68 O 6.6844 3.02775 3.16637 0
M  V30 69 C 8.1854 1.52432 4.16268 0
M  V30 70 H 5.4054 0.368858 0.560522 0
M  V30 71 H 7.9494 1.60193 1.27116 0
M  V30 72 H 6.1044 1.1227 3.70775 0
M  V30 73 H 6.5184 3.30626 4.07169 0
M  V30 74 H 7.9924 1.98078 5.15237 0
M  V30 75 H 8.4694 0.477875 4.36592 0
M  V30 76 H 9.0754 2.02787 3.73841 0
M  V30 77 N 7.3905 -1.2043 1.01659 0
M  V30 78 C 8.6365 -1.90079 0.706963 0
M  V30 79 C 8.9695 -1.78648 -0.761474 0
M  V30 80 O 8.2445 -1.17069 -1.55323 0
M  V30 81 C 8.5275 -3.41469 1.14327 0
M  V30 82 C 8.3805 -3.61833 2.67201 0
M  V30 83 C 9.6995 -4.34261 0.714529 0
M  V30 84 H 6.8185 -0.690254 0.2583 0
M  V30 85 H 9.4605 -1.41826 1.26433 0
M  V30 86 H 7.6105 -3.82696 0.669056 0
M  V30 87 H 9.2825 -3.2986 3.22475 0
M  V30 88 H 7.5255 -3.05304 3.08175 0
M  V30 89 H 8.1965 -4.67955 2.92783 0
M  V30 90 H 10.6725 -4.00682 1.12221 0
M  V30 91 H 9.5485 -5.38806 1.04784 0
M  V30 92 H 9.8095 -4.40431 -0.383799 0
M  V30 93 N 8.8686 -0.792821 -1.36206 0
M  V30 94 C 9.8006 -0.151469 -2.28699 0
M  V30 95 C 10.8136 0.641262 -1.49638 0
M  V30 96 O 12.0026 0.475885 -1.72039 0
M  V30 97 C 9.1026 0.808424 -3.29117 0
M  V30 98 C 8.2756 0.0650202 -4.37352 0
M  V30 99 C 7.3346 0.941358 -5.17711 0
M  V30 100 O 6.3606 0.397352 -5.67811 0
M  V30 101 N 7.5626 2.2652 -5.3448 0
M  V30 102 H 10.3276 -0.945982 -2.84379 0
M  V30 103 H 7.8886 -0.647032 -1.48409 0
M  V30 104 H 9.8806 1.3986 -3.79765 0
M  V30 105 H 8.4506 1.5038 -2.74052 0
M  V30 106 H 7.6706 -0.706255 -3.87822 0
M  V30 107 H 8.9586 -0.447847 -5.06825 0
M  V30 108 H 8.3566 2.73128 -4.95396 0
M  V30 109 H 6.9136 2.80493 -5.88359 0
M  V30 110 N 10.3467 1.47872 -0.545128 0
M  V30 111 C 11.5747 2.06889 -0.021084 0
M  V30 112 C 11.9897 1.39955 1.2672 0
M  V30 113 O 11.3467 0.492036 1.75742 0
M  V30 114 C 11.3977 3.60996 0.190817 0
M  V30 115 O 11.1187 4.25419 -1.04644 0
M  V30 116 C 12.6197 4.36849 0.753521 0
M  V30 117 H 9.8397 0.669785 -0.0403635 0
M  V30 118 H 12.3837 1.90049 -0.755095 0
M  V30 119 H 10.5387 3.77391 0.87492 0
M  V30 120 H 10.9527 5.17785 -0.836611 0
M  V30 121 H 12.4267 5.45399 0.851139 0
M  V30 122 H 12.9037 4.02306 1.762 0
M  V30 123 H 13.5097 4.25169 0.105503 0
M  V30 124 N 11.8248 0.280983 1.55075 0
M  V30 125 C 12.7548 -0.597469 2.25727 0
M  V30 126 C 13.7358 -1.15417 1.24952 0
M  V30 127 O 14.9208 -1.18722 1.53684 0
M  V30 128 C 12.0508 -1.7789 2.98283 0
M  V30 129 C 11.0048 -1.35347 4.06036 0
M  V30 130 C 10.3308 -2.61846 4.66198 0
M  V30 131 C 11.6308 -0.499354 5.19907 0
M  V30 132 H 13.3248 -0.00824265 2.99399 0
M  V30 133 H 10.8708 -0.0025244 1.44 0
M  V30 134 H 12.8238 -2.39937 3.46422 0
M  V30 135 H 11.5478 -2.39405 2.22155 0
M  V30 136 H 10.2068 -0.756156 3.58717 0
M  V30 137 H 9.8548 -3.21632 3.86732 0
M  V30 138 H 9.5548 -2.3409 5.38958 0
M  V30 139 H 11.0788 -3.24732 5.1709 0
M  V30 140 H 12.4928 -1.02498 5.64063 0
M  V30 141 H 10.8898 -0.316424 5.99265 0
M  V30 142 H 11.9598 0.480459 4.82514 0
M  V30 143 N 13.3029 -1.57598 0.00835791 0
M  V30 144 C 14.5309 -1.95214 -0.68549 0
M  V30 145 C 14.9459 -0.883706 -1.66841 0
M  V30 146 O 14.3029 0.136565 -1.81988 0
M  V30 147 C 14.3539 -3.32865 -1.41007 0
M  V30 148 O 14.0749 -4.35609 -0.466552 0
M  V30 149 C 15.5759 -3.84991 -2.19765 0
M  V30 150 H 12.7959 -0.643422 -0.190392 0
M  V30 151 H 15.3399 -2.04406 0.0619607 0
M  V30 152 H 13.4949 -3.24956 -2.10908 0
M  V30 153 H 13.9089 -5.15288 -0.978699 0
M  V30 154 H 15.3829 -4.8371 -2.65948 0
M  V30 155 H 15.8599 -3.18137 -3.02796 0
M  V30 156 H 16.4659 -3.96103 -1.54864 0
M  V30 157 N 14.781 0.264519 -1.55364 0
M  V30 158 C 15.711 1.33121 -1.91836 0
M  V30 159 C 16.692 1.51101 -0.781192 0
M  V30 160 O 17.877 1.64003 -1.04003 0
M  V30 161 C 15.007 2.68921 -2.19769 0
M  V30 162 C 13.961 2.65661 -3.35571 0
M  V30 163 C 13.287 4.05093 -3.49004 0
M  V30 164 C 14.587 2.24187 -4.71739 0
M  V30 165 H 16.281 1.02844 -2.81182 0
M  V30 166 H 13.827 0.493286 -1.35287 0
M  V30 167 H 15.78 3.43663 -2.43872 0
M  V30 168 H 14.504 3.00799 -1.27231 0
M  V30 169 H 13.163 1.93377 -3.1145 0
M  V30 170 H 12.811 4.34206 -2.53917 0
M  V30 171 H 12.511 4.03804 -4.26868 0
M  V30 172 H 14.035 4.81561 -3.75408 0
M  V30 173 H 15.449 2.88654 -4.9533 0
M  V30 174 H 13.846 2.34044 -5.52579 0
M  V30 175 H 14.916 1.19327 -4.69988 0
M  V30 176 N 16.2591 1.48442 0.529413 0
M  V30 177 C 17.1891 1.65902 1.64313 0
M  V30 178 C 18.1701 0.507897 1.6234 0
M  V30 179 O 19.3551 0.740503 1.79528 0
M  V30 180 C 16.4851 1.69911 3.02898 0
M  V30 181 C 15.4391 2.8453 3.19729 0
M  V30 182 C 14.7651 2.73629 4.59381 0
M  V30 183 C 16.0651 4.25821 3.02447 0
M  V30 184 H 17.7591 2.5914 1.49955 0
M  V30 185 H 15.3051 1.24709 0.719982 0
M  V30 186 H 17.2581 1.80715 3.80684 0
M  V30 187 H 15.9821 0.732524 3.18279 0
M  V30 188 H 14.6411 2.73283 2.44361 0
M  V30 189 H 14.2891 1.74938 4.71599 0
M  V30 190 H 13.9891 3.50541 4.71588 0
M  V30 191 H 15.5131 2.86401 5.39265 0
M  V30 192 H 16.9271 4.37898 3.70024 0
M  V30 193 H 15.3241 5.03735 3.26146 0
M  V30 194 H 16.3941 4.42244 1.98867 0
M  V30 195 N 17.7372 -0.778329 1.37039 0
M  V30 196 C 18.6672 -1.90546 1.34962 0
M  V30 197 C 19.6482 -1.68681 0.219274 0
M  V30 198 O 20.8332 -1.89634 0.418624 0
M  V30 199 C 17.9632 -3.27734 1.14925 0
M  V30 200 C 16.9172 -3.64147 2.24902 0
M  V30 201 C 16.2432 -4.99806 1.89996 0
M  V30 202 C 17.5432 -3.71579 3.67051 0
M  V30 203 H 19.2372 -1.92541 2.29277 0
M  V30 204 H 16.7832 -0.924948 1.10366 0
M  V30 205 H 18.7362 -4.06215 1.12104 0
M  V30 206 H 17.4602 -3.26154 0.170631 0
M  V30 207 H 16.1192 -2.8797 2.26868 0
M  V30 208 H 15.7672 -4.94759 0.906796 0
M  V30 209 H 15.4672 -5.25139 2.63634 0
M  V30 210 H 16.9912 -5.80694 1.88749 0
M  V30 211 H 18.4052 -4.40227 3.67251 0
M  V30 212 H 16.8022 -4.08405 4.39688 0
M  V30 213 H 17.8722 -2.72404 4.01154 0
M  V30 214 N 19.2153 -1.21501 -1.00376 0
M  V30 215 C 20.4433 -1.059 -1.77744 0
M  V30 216 C 20.8583 0.391125 -1.84704 0
M  V30 217 O 20.2153 1.27133 -1.30933 0
M  V30 218 C 20.2663 -1.65111 -3.21591 0
M  V30 219 O 19.9873 -3.0445 -3.15027 0
M  V30 220 C 21.4883 -1.54637 -4.15454 0
M  V30 221 H 18.7083 -0.371825 -0.558558 0
M  V30 222 H 21.2523 -1.60865 -1.26264 0
M  V30 223 H 19.4073 -1.14235 -3.70175 0
M  V30 224 H 19.8213 -3.3278 -4.0541 0
M  V30 225 H 21.2953 -2.00808 -5.14179 0
M  V30 226 H 21.7723 -0.501022 -4.36333 0
M  V30 227 H 22.3783 -2.04767 -3.72761 0
M  V30 228 N 20.6934 1.19889 -1.02296 0
M  V30 229 C 21.9184 1.9393 -0.735237 0
M  V30 230 C 22.3434 1.74639 0.698782 0
M  V30 231 O 21.7014 1.04481 1.48167 0
M  V30 232 C 21.7494 3.43916 -1.08417 0
M  V30 233 O 20.8534 4.11917 -0.199446 0
M  V30 234 H 20.1944 0.605645 -0.272196 0
M  V30 235 H 22.7244 1.52137 -1.36804 0
M  V30 236 H 22.7344 3.9456 -1.03856 0
M  V30 237 H 21.4094 3.5728 -2.12894 0
M  V30 238 H 19.9864 3.71666 -0.303136 0
M  V30 239 N 22.1715 0.800033 1.35784 0
M  V30 240 C 23.4195 0.376597 1.9856 0
M  V30 241 C 23.7405 -1.05812 1.63795 0
M  V30 242 O 23.0105 -1.73103 0.917171 0
M  V30 243 H 21.5905 0.136261 0.734467 0
M  V30 244 H 24.2525 1.02442 1.65806 0
M  V30 245 H 23.3485 0.477002 3.08433 0
M  V30 246 N 23.6496 -1.47581 0.552962 0
M  V30 247 C 24.8976 -2.02082 0.0272703 0
M  V30 248 C 25.2186 -1.4301 -1.32563 0
M  V30 249 O 24.4886 -0.603745 -1.86365 0
M  V30 250 H 23.0686 -0.746966 0.00709182 0
M  V30 251 H 25.7306 -1.81033 0.722008 0
M  V30 252 H 24.8266 -3.12034 -0.0639951 0
M  V30 253 N 25.1277 -0.289203 -1.54924 0
M  V30 254 C 26.3737 0.323998 -2.00195 0
M  V30 255 C 26.7067 1.54441 -1.17735 0
M  V30 256 O 25.9817 1.92875 -0.250878 0
M  V30 257 C 26.2647 0.692276 -3.53383 0
M  V30 258 C 26.1177 -0.536457 -4.46589 0
M  V30 259 C 27.4367 1.52335 -4.12895 0
M  V30 260 H 24.5557 0.116289 -0.727768 0
M  V30 261 H 27.1977 -0.398954 -1.85764 0
M  V30 262 H 25.3477 1.30822 -3.65811 0
M  V30 263 H 27.0197 -1.17499 -4.46085 0
M  V30 264 H 25.2627 -1.17192 -4.1767 0
M  V30 265 H 25.9337 -0.234806 -5.515 0
M  V30 266 H 28.4097 1.00302 -4.0383 0
M  V30 267 H 27.2857 1.74982 -5.20262 0
M  V30 268 H 27.5467 2.50886 -3.64018 0
M  V30 269 N 26.6058 1.57591 -0.0167156 0
M  V30 270 C 27.5358 2.12496 0.967858 0
M  V30 271 C 28.5168 1.03807 1.34752 0
M  V30 272 O 29.7018 1.31577 1.42833 0
M  V30 273 C 26.8318 2.64194 2.25431 0
M  V30 274 C 25.7858 3.77559 2.01576 0
M  V30 275 C 25.1118 4.15636 3.36379 0
M  V30 276 C 26.4118 5.04151 1.36489 0
M  V30 277 H 28.1058 2.95013 0.510643 0
M  V30 278 H 25.6518 1.41915 0.244181 0
M  V30 279 H 27.6048 3.01236 2.94678 0
M  V30 280 H 26.3288 1.78821 2.73296 0
M  V30 281 H 24.9878 3.40937 1.34751 0
M  V30 282 H 24.6358 3.27263 3.81979 0
M  V30 283 H 24.3358 4.92022 3.21229 0
M  V30 284 H 25.8598 4.5525 4.06915 0
M  V30 285 H 27.2738 5.38857 1.95718 0
M  V30 286 H 25.6708 5.85453 1.31776 0
M  V30 287 H 26.7408 4.83733 0.336219 0
M  V30 288 N 28.0839 -0.256276 1.55502 0
M  V30 289 C 29.0139 -1.32102 1.92539 0
M  V30 290 C 29.9949 -1.50684 0.789194 0
M  V30 291 O 31.1799 -1.63449 1.04872 0
M  V30 292 C 28.3099 -2.67752 2.21192 0
M  V30 293 C 27.2639 -2.63878 3.36975 0
M  V30 294 C 26.5899 -4.03236 3.51147 0
M  V30 295 C 27.8899 -2.21682 4.72921 0
M  V30 296 H 29.5839 -1.01351 2.81724 0
M  V30 297 H 27.1299 -0.486105 1.35547 0
M  V30 298 H 29.0829 -3.42365 2.45691 0
M  V30 299 H 27.8069 -3.0012 1.28824 0
M  V30 300 H 26.4659 -1.91722 3.12471 0
M  V30 301 H 26.1139 -4.32854 2.56216 0
M  V30 302 H 25.8139 -4.01535 4.29003 0
M  V30 303 H 27.3379 -4.79563 3.77957 0
M  V30 304 H 28.7519 -2.86023 4.96854 0
M  V30 305 H 27.1489 -2.3111 5.53812 0
M  V30 306 H 28.2189 -1.16833 4.70615 0
M  V30 307 N 29.562 -1.4872 -0.521534 0
M  V30 308 C 30.787 -1.61101 -1.30618 0
M  V30 309 C 31.212 -0.274611 -1.86085 0
M  V30 310 O 30.57 0.754937 -1.64834 0
M  V30 311 C 30.618 -2.66709 -2.4269 0
M  V30 312 O 29.722 -2.24456 -3.45967 0
M  V30 313 H 29.063 -0.539921 -0.386499 0
M  V30 314 H 31.593 -1.94767 -0.626645 0
M  V30 315 H 31.603 -2.88245 -2.88754 0
M  V30 316 H 30.278 -3.63727 -2.01682 0
M  V30 317 H 28.855 -2.13168 -3.05964 0
M  V30 318 N 31.0401 0.771051 -1.3745 0
M  V30 319 C 31.9701 1.89827 -1.3597 0
M  V30 320 C 32.9511 1.68562 -0.228216 0
M  V30 321 O 34.1361 1.8941 -0.428675 0
M  V30 322 C 31.2661 3.2712 -1.16662 0
M  V30 323 C 30.2201 3.6295 -2.2683 0
M  V30 324 C 29.5461 4.98791 -1.92644 0
M  V30 325 C 30.8461 3.69627 -3.69017 0
M  V30 326 H 32.5401 1.91323 -2.30295 0
M  V30 327 H 30.0861 0.919082 -1.10855 0
M  V30 328 H 32.0391 4.05615 -1.14256 0
M  V30 329 H 30.7631 3.26059 -0.187926 0
M  V30 330 H 29.4221 2.86763 -2.28392 0
M  V30 331 H 29.0701 4.94271 -0.933021 0
M  V30 332 H 28.7701 5.23733 -2.66416 0
M  V30 333 H 30.2941 5.79685 -1.91826 0
M  V30 334 H 31.7081 4.38273 -3.69581 0
M  V30 335 H 30.1051 4.06067 -4.41848 0
M  V30 336 H 31.1751 2.70273 -4.02592 0
M  V30 337 N 32.5182 1.22032 0.997298 0
M  V30 338 C 33.7482 1.06686 1.76923 0
M  V30 339 C 34.1562 -0.385838 1.85224 0
M  V30 340 O 33.4992 -1.27929 1.31833 0
M  V30 341 C 33.5612 1.59802 3.22031 0
M  V30 342 C 33.2252 3.08362 3.37286 0
M  V30 343 C 34.2222 4.05835 3.24952 0
M  V30 344 C 31.9072 3.47727 3.6248 0
M  V30 345 C 33.9012 5.4066 3.37588 0
M  V30 346 C 31.5882 4.82701 3.74757 0
M  V30 347 C 32.5862 5.78977 3.62319 0
M  V30 348 O 32.2742 7.11502 3.74193 0
M  V30 349 H 32.0062 0.374767 0.562606 0
M  V30 350 H 34.5602 1.61991 1.26286 0
M  V30 351 H 32.7902 0.989003 3.73839 0
M  V30 352 H 34.4792 1.40184 3.80924 0
M  V30 353 H 35.2452 3.76766 3.05405 0
M  V30 354 H 31.1242 2.73317 3.7124 0
M  V30 355 H 34.6682 6.15788 3.27796 0
M  V30 356 H 30.5652 5.11453 3.9381 0
M  V30 357 H 31.3332 7.19019 3.91093 0
M  V30 358 N 33.9963 -1.19345 1.0293 0
M  V30 359 C 35.2423 -1.89318 0.727083 0
M  V30 360 C 35.5753 -1.79446 -0.742483 0
M  V30 361 O 34.8503 -1.1871 -1.54072 0
M  V30 362 C 35.1333 -3.40238 1.17942 0
M  V30 363 C 34.9863 -3.58979 2.71024 0
M  V30 364 C 36.3053 -4.33479 0.760548 0
M  V30 365 H 33.4243 -0.687475 0.265606 0
M  V30 366 H 36.0663 -1.40477 1.2793 0
M  V30 367 H 34.2163 -3.81964 0.709608 0
M  V30 368 H 35.8883 -3.26421 3.25955 0
M  V30 369 H 34.1313 -3.02018 3.11396 0
M  V30 370 H 34.8023 -4.64823 2.9773 0
M  V30 371 H 37.2783 -3.99469 1.16464 0
M  V30 372 H 36.1543 -5.37664 1.10493 0
M  V30 373 H 36.4153 -4.40813 -0.337063 0
M  V30 374 N 35.4744 -0.807222 -1.35358 0
M  V30 375 C 36.6994 -0.399309 -2.0352 0
M  V30 376 C 37.1244 0.981986 -1.60433 0
M  V30 377 O 36.4824 1.63601 -0.781299 0
M  V30 378 C 36.5304 -0.491552 -3.57234 0
M  V30 379 O 35.6344 0.494754 -4.09421 0
M  V30 380 H 34.9754 -0.166682 -0.642739 0
M  V30 381 H 37.5054 -1.09328 -1.72941 0
M  V30 382 H 37.5154 -0.361588 -4.06395 0
M  V30 383 H 36.1904 -1.49907 -3.87944 0
M  V30 384 H 34.7674 0.324977 -3.71481 0
M  V30 385 N 36.9525 1.47285 -0.560781 0
M  V30 386 C 37.9155 2.28535 0.174488 0
M  V30 387 C 38.9155 1.37153 0.839388 0
M  V30 388 O 40.1055 1.59748 0.694702 0
M  V30 389 C 37.2375 3.16934 1.25561 0
M  V30 390 H 38.4305 2.95012 -0.539262 0
M  V30 391 H 35.9835 1.53034 -0.317865 0
M  V30 392 H 36.7185 2.55157 2.00164 0
M  V30 393 H 36.5035 3.8419 0.783604 0
M  V30 394 H 37.9935 3.78143 1.77193 0
M  V30 395 N 38.4306 0.297415 1.54768 0
M  V30 396 C 39.6556 -0.318435 2.04941 0
M  V30 397 C 40.0806 -1.4701 1.17345 0
M  V30 398 O 39.4386 -1.80436 0.176758 0
M  V30 399 C 39.4866 -0.755749 3.52592 0
M  V30 400 O 38.5906 -1.86088 3.68028 0
M  V30 401 H 37.9316 -0.062421 0.661059 0
M  V30 402 H 40.4616 0.438215 1.99852 0
M  V30 403 H 40.4716 -1.04552 3.94376 0
M  V30 404 H 39.1466 0.0867233 4.1581 0
M  V30 405 H 37.7236 -1.57193 3.38149 0
M  V30 406 N 39.9087 -1.5758 0.0250728 0
M  V30 407 C 40.8387 -2.13007 -0.956575 0
M  V30 408 C 41.8197 -1.0452 -1.342 0
M  V30 409 O 43.0047 -1.32332 -1.42133 0
M  V30 410 C 40.1347 -2.65386 -2.24026 0
M  V30 411 C 39.0887 -3.78623 -1.99571 0
M  V30 412 C 38.4147 -4.17414 -3.3417 0
M  V30 413 C 39.7147 -5.04867 -1.33814 0
M  V30 414 H 41.4087 -2.9528 -0.494991 0
M  V30 415 H 38.9547 -1.42042 -0.236651 0
M  V30 416 H 40.9077 -3.02794 -2.93076 0
M  V30 417 H 39.6317 -1.80268 -2.72343 0
M  V30 418 H 38.2907 -3.41646 -1.32941 0
M  V30 419 H 37.9387 -3.29284 -3.80238 0
M  V30 420 H 37.6387 -4.93719 -3.18615 0
M  V30 421 H 39.1627 -4.57402 -4.04495 0
M  V30 422 H 40.5767 -5.39888 -1.92857 0
M  V30 423 H 38.9737 -5.86144 -1.28669 0
M  V30 424 H 40.0437 -4.83904 -0.310561 0
M  V30 425 N 41.3868 0.248026 -1.55636 0
M  V30 426 C 42.6118 0.998028 -1.81808 0
M  V30 427 C 43.0368 1.78207 -0.601979 0
M  V30 428 O 42.3948 1.75653 0.448961 0
M  V30 429 C 42.4428 1.9125 -3.05705 0
M  V30 430 O 41.5468 3.00406 -2.82542 0
M  V30 431 H 40.8878 0.284045 -0.600179 0
M  V30 432 H 43.4178 0.269357 -2.02819 0
M  V30 433 H 43.4278 2.32737 -3.35108 0
M  V30 434 H 42.1028 1.33602 -3.93857 0
M  V30 435 H 40.6798 2.63056 -2.64303 0
M  V30 436 N 42.8649 1.48995 0.513639 0
M  V30 437 C 44.0949 1.61297 1.291 0
M  V30 438 C 44.5029 0.278656 1.87137 0
M  V30 439 O 43.8459 -0.744325 1.67945 0
M  V30 440 C 43.9079 2.61326 2.46879 0
M  V30 441 C 43.5719 4.05993 2.09807 0
M  V30 442 C 44.5689 4.93183 1.64519 0
M  V30 443 C 42.2539 4.51642 2.19829 0
M  V30 444 C 44.2479 6.24056 1.2974 0
M  V30 445 C 41.9349 5.82532 1.84662 0
M  V30 446 C 42.9329 6.68562 1.3969 0
M  V30 447 O 42.6209 7.97014 1.04992 0
M  V30 448 H 42.3529 0.546236 0.39825 0
M  V30 449 H 44.9069 1.95673 0.62459 0
M  V30 450 H 43.1369 2.22104 3.16554 0
M  V30 451 H 44.8259 2.6329 3.08923 0
M  V30 452 H 45.5919 4.59147 1.56233 0
M  V30 453 H 41.4709 3.84855 2.53786 0
M  V30 454 H 45.0149 6.91161 0.945659 0
M  V30 455 H 40.9119 6.16099 1.92594 0
M  V30 456 H 41.6799 8.09913 1.18249 0
M  V30 457 N 44.343 -0.763751 1.37857 0
M  V30 458 C 45.273 -1.89103 1.36975 0
M  V30 459 C 46.254 -1.68439 0.237152 0
M  V30 460 O 47.439 -1.8918 0.438713 0
M  V30 461 C 44.569 -3.26496 1.18395 0
M  V30 462 C 43.523 -3.61741 2.28751 0
M  V30 463 C 42.849 -4.97762 1.95286 0
M  V30 464 C 44.149 -3.67665 3.70972 0
M  V30 465 H 45.843 -1.90099 2.31307 0
M  V30 466 H 43.389 -0.91319 1.11341 0
M  V30 467 H 45.342 -4.05003 1.16406 0
M  V30 468 H 44.066 -3.25955 0.205215 0
M  V30 469 H 42.725 -2.85547 2.29909 0
M  V30 470 H 42.373 -4.93769 0.959221 0
M  V30 471 H 42.073 -5.22313 2.69189 0
M  V30 472 H 43.597 -5.7866 1.94898 0
M  V30 473 H 45.011 -4.36307 3.719 0
M  V30 474 H 43.408 -4.03718 4.43995 0
M  V30 475 H 44.478 -2.68134 4.0402 0
M  V30 476 N 45.8211 -1.22559 -0.990812 0
M  V30 477 C 46.7511 -1.0218 -2.09956 0
M  V30 478 C 47.7321 0.0579394 -1.70001 0
M  V30 479 O 48.9171 -0.104684 -1.93918 0
M  V30 480 C 46.0471 -0.601023 -3.4206 0
M  V30 481 C 45.0011 -1.62694 -3.95872 0
M  V30 482 C 44.3271 -1.06193 -5.24049 0
M  V30 483 C 45.6271 -3.01743 -4.2632 0
M  V30 484 H 47.3211 -1.94916 -2.27262 0
M  V30 485 H 44.8671 -0.938566 -1.09211 0
M  V30 486 H 46.8201 -0.445561 -4.19038 0
M  V30 487 H 45.5441 0.362005 -3.24588 0
M  V30 488 H 44.2031 -1.77021 -3.21028 0
M  V30 489 H 43.8511 -0.0901903 -5.02919 0
M  V30 490 H 43.5511 -1.74732 -5.61019 0
M  V30 491 H 45.0751 -0.918092 -6.03658 0
M  V30 492 H 46.4891 -2.90777 -4.94087 0
M  V30 493 H 44.8861 -3.67425 -4.74467 0
M  V30 494 H 45.9561 -3.51518 -3.34011 0
M  V30 495 N 47.2992 1.18797 -1.03562 0
M  V30 496 C 48.5292 1.92319 -0.754773 0
M  V30 497 C 48.9372 1.7612 0.691248 0
M  V30 498 O 48.2802 1.08491 1.48241 0
M  V30 499 C 48.3422 3.44284 -1.03484 0
M  V30 500 C 48.0062 3.84258 -2.47376 0
M  V30 501 C 49.0032 3.88459 -3.45537 0
M  V30 502 C 46.6882 4.15701 -2.81954 0
M  V30 503 C 48.6822 4.23545 -4.76328 0
M  V30 504 C 46.3692 4.50458 -4.12954 0
M  V30 505 C 47.3672 4.54356 -5.09951 0
M  V30 506 O 47.0552 4.88305 -6.38603 0
M  V30 507 H 46.7872 0.617527 -0.275021 0
M  V30 508 H 49.3412 1.51683 -1.38497 0
M  V30 509 H 47.5712 3.85135 -0.347513 0
M  V30 510 H 49.2602 3.99049 -0.7426 0
M  V30 511 H 50.0262 3.6431 -3.20162 0
M  V30 512 H 45.9052 4.11847 -2.0713 0
M  V30 513 H 49.4492 4.26502 -5.52035 0
M  V30 514 H 45.3462 4.74067 -4.38099 0
M  V30 515 H 46.1142 5.06227 -6.43177 0
M  V30 516 N 48.7773 0.814389 1.34928 0
M  V30 517 C 50.0023 0.410097 2.03305 0
M  V30 518 C 50.4273 -0.973464 1.60951 0
M  V30 519 O 49.7853 -1.63185 0.789964 0
M  V30 520 C 49.8333 0.51049 3.56968 0
M  V30 521 O 48.9373 -0.473035 4.09678 0
M  V30 522 H 48.2783 0.170088 0.641846 0
M  V30 523 H 50.8083 1.10244 1.72358 0
M  V30 524 H 50.8183 0.383135 4.06197 0
M  V30 525 H 49.4933 1.51963 3.87144 0
M  V30 526 H 48.0703 -0.305272 3.71648 0
M  V30 527 N 50.2554 -1.46986 0.568584 0
M  V30 528 C 51.5324 -1.95592 -0.0174074 0
M  V30 529 C 51.9124 -1.51124 -1.47393 0
M  V30 530 O 51.2604 -0.755329 -2.15655 0
M  V30 531 C 51.4704 -3.48719 0.139913 0
M  V30 532 C 52.8184 -4.246 0.000426376 0
M  V30 533 O 53.8424 -3.56135 0.0680316 0
M  V30 534 O 52.7014 -5.46302 -0.146988 0
M  V30 535 H 49.7954 -0.82498 -0.0577599 0
M  V30 536 H 52.3414 -1.57335 0.635909 0
M  V30 537 H 51.1134 -3.73927 1.15301 0
M  V30 538 H 50.7364 -3.93771 -0.550491 0
M  V30 539 N 51.7335 -0.305618 -1.54608 0
M  V30 540 C 52.9795 0.302746 -2.00528 0
M  V30 541 C 53.3125 1.53184 -1.19367 0
M  V30 542 O 52.5875 1.92598 -0.271321 0
M  V30 543 C 52.8705 0.654756 -3.54097 0
M  V30 544 C 52.7235 -0.583793 -4.45995 0
M  V30 545 C 54.0425 1.47947 -4.14487 0
M  V30 546 H 51.1615 0.108564 -0.72896 0
M  V30 547 H 53.8035 -0.418634 -1.85331 0
M  V30 548 H 51.9535 1.26935 -3.67178 0
M  V30 549 H 53.6255 -1.22224 -4.44814 0
M  V30 550 H 51.8685 -1.21615 -4.16404 0
M  V30 551 H 52.5395 -0.293287 -5.5122 0
M  V30 552 H 55.0155 0.96013 -4.04871 0
M  V30 553 H 53.8915 1.69454 -5.22088 0
M  V30 554 H 54.1525 2.47011 -3.66658 0
M  V30 555 N 53.2116 1.57565 -0.0334293 0
M  V30 556 C 54.1416 2.13511 0.945265 0
M  V30 557 C 55.1226 1.05231 1.33643 0
M  V30 558 O 56.3076 1.33084 1.41429 0
M  V30 559 C 53.4376 2.6657 2.22616 0
M  V30 560 C 52.3916 3.79676 1.97561 0
M  V30 561 C 51.7176 4.1918 3.31952 0
M  V30 562 C 53.0176 5.0557 1.31135 0
M  V30 563 H 54.7116 2.95538 0.479325 0
M  V30 564 H 52.2576 1.42166 0.229115 0
M  V30 565 H 54.2106 3.04344 2.91466 0
M  V30 566 H 52.9346 1.8171 2.71384 0
M  V30 567 H 51.5936 3.42347 1.31127 0
M  V30 568 H 51.2416 3.31296 3.78487 0
M  V30 569 H 50.9416 4.95402 3.15992 0
M  V30 570 H 52.4656 4.59541 4.02063 0
M  V30 571 H 53.8796 5.40903 1.89992 0
M  V30 572 H 52.2766 5.86818 1.25559 0
M  V30 573 H 53.3466 4.84062 0.284894 0
M  V30 574 N 54.6897 -0.239769 1.55765 0
M  V30 575 C 55.6197 -1.30052 1.9393 0
M  V30 576 C 56.6007 -1.49839 0.805132 0
M  V30 577 O 57.7857 -1.62328 1.06599 0
M  V30 578 C 54.9157 -2.65391 2.2402 0
M  V30 579 C 53.8697 -2.60289 3.39755 0
M  V30 580 C 53.1957 -3.99489 3.55405 0
M  V30 581 C 54.4957 -2.16654 4.75246 0
M  V30 582 H 56.1897 -0.983573 2.82783 0
M  V30 583 H 53.7357 -0.471701 1.36055 0
M  V30 584 H 55.6887 -3.3974 2.49308 0
M  V30 585 H 54.4127 -2.98736 1.32 0
M  V30 586 H 53.0717 -1.88398 3.14487 0
M  V30 587 H 52.7197 -4.30112 2.60793 0
M  V30 588 H 52.4197 -3.96962 4.33238 0
M  V30 589 H 53.9437 -4.75528 3.83022 0
M  V30 590 H 55.3577 -2.80737 4.99859 0
M  V30 591 H 53.7547 -2.25223 5.56232 0
M  V30 592 H 54.8247 -1.11835 4.71827 0
M  V30 593 N 56.1678 -1.49265 -0.50573 0
M  V30 594 C 57.1148 -1.65585 -1.6078 0
M  V30 595 C 58.0848 -0.497396 -1.58478 0
M  V30 596 O 59.2698 -0.72385 -1.76536 0
M  V30 597 C 56.4098 -1.72408 -2.98948 0
M  V30 598 C 55.5228 -2.99525 -3.11301 0
M  V30 599 C 54.6578 -2.97356 -4.40174 0
M  V30 600 C 53.6968 -4.19074 -4.46143 0
M  V30 601 N 52.8338 -4.14841 -5.66437 0
M  V30 602 H 57.6738 -2.59688 -1.46172 0
M  V30 603 H 55.2108 -1.28761 -0.711261 0
M  V30 604 H 57.1688 -1.74344 -3.79025 0
M  V30 605 H 55.7988 -0.817753 -3.1227 0
M  V30 606 H 54.8508 -3.07222 -2.24318 0
M  V30 607 H 56.1628 -3.89518 -3.11572 0
M  V30 608 H 55.3168 -2.97829 -5.28567 0
M  V30 609 H 54.0558 -2.05133 -4.42461 0
M  V30 610 H 53.0608 -4.1885 -3.56153 0
M  V30 611 H 54.2858 -5.12483 -4.45575 0
M  V30 612 H 52.2318 -3.25453 -5.69575 0
M  V30 613 H 52.1488 -4.98564 -5.68304 0
M  V30 614 H 53.4168 -4.1941 -6.57051 0
M  V30 615 N 57.6459 0.756429 -1.3826 0
M  V30 616 C 58.8929 1.51547 -1.34312 0
M  V30 617 C 59.2209 1.94382 0.0677144 0
M  V30 618 O 58.4759 1.65514 1.04421 0
M  V30 619 C 58.7749 2.78313 -2.24224 0
M  V30 620 C 58.4409 2.54455 -3.72241 0
M  V30 621 C 57.1029 2.47657 -4.12576 0
M  V30 622 C 59.4549 2.3354 -4.65949 0
M  V30 623 C 56.7829 2.17956 -5.44713 0
M  V30 624 C 59.1349 2.05359 -5.9834 0
M  V30 625 C 57.7989 1.97016 -6.37762 0
M  V30 626 H 57.0689 0.55455 -0.491482 0
M  V30 627 H 59.7159 0.870039 -1.70595 0
M  V30 628 H 58.0209 3.47492 -1.80987 0
M  V30 629 H 59.7179 3.36259 -2.18474 0
M  V30 630 H 56.3079 2.60616 -3.40261 0
M  V30 631 H 60.4919 2.37772 -4.35635 0
M  V30 632 H 55.7479 2.10003 -5.74203 0
M  V30 633 H 59.9219 1.88179 -6.70494 0
M  V30 634 H 57.5489 1.73766 -7.40074 0
M  V30 635 N 59.124 1.23083 0.984299 0
M  V30 636 C 60.349 1.088 1.76571 0
M  V30 637 C 60.774 -0.356657 1.84688 0
M  V30 638 O 60.132 -1.25788 1.30565 0
M  V30 639 C 60.18 1.71371 3.17277 0
M  V30 640 O 59.284 0.973213 4.00752 0
M  V30 641 H 58.625 0.381599 0.543395 0
M  V30 642 H 61.155 1.63057 1.23587 0
M  V30 643 H 61.165 1.76449 3.67872 0
M  V30 644 H 59.84 2.76493 3.10684 0
M  V30 645 H 58.417 0.999078 3.59267 0
M  V30 646 N 60.6021 -1.18246 1.0419 0
M  V30 647 C 61.8271 -1.92736 0.765996 0
M  V30 648 C 62.2521 -1.75728 -0.67091 0
M  V30 649 O 61.6101 -1.06825 -1.46486 0
M  V30 650 C 61.6581 -3.42148 1.13875 0
M  V30 651 O 60.7621 -4.11548 0.264954 0
M  V30 652 H 60.1031 -0.601238 0.281797 0
M  V30 653 H 62.6331 -1.49942 1.39207 0
M  V30 654 H 62.6431 -3.92858 1.1012 0
M  V30 655 H 61.3181 -3.53848 2.18551 0
M  V30 656 H 59.8951 -3.71137 0.362226 0
M  V30 657 N 62.0802 -0.821533 -1.34494 0
M  V30 658 C 63.3082 -0.421884 -2.02553 0
M  V30 659 C 63.7232 0.971745 -1.61872 0
M  V30 660 O 63.0802 1.62864 -0.823496 0
M  V30 661 C 63.1312 -0.51285 -3.57844 0
M  V30 662 O 62.8522 -1.85155 -3.97051 0
M  V30 663 C 64.3532 -0.107921 -4.43169 0
M  V30 664 H 61.5732 -0.169482 -0.649243 0
M  V30 665 H 64.1172 -1.1093 -1.71798 0
M  V30 666 H 62.2722 0.126474 -3.87193 0
M  V30 667 H 62.6862 -1.82482 -4.91732 0
M  V30 668 H 64.1602 -0.222657 -5.51551 0
M  V30 669 H 64.6372 0.948401 -4.28838 0
M  V30 670 H 65.2432 -0.720989 -4.19144 0
M  V30 671 N 63.5583 1.46682 -0.576371 0
M  V30 672 C 64.5053 2.30241 0.160499 0
M  V30 673 C 65.4753 1.40233 0.890162 0
M  V30 674 O 66.6603 1.69186 0.882084 0
M  V30 675 C 63.8003 3.24578 1.1723 0
M  V30 676 C 62.9133 4.29684 0.446736 0
M  V30 677 C 62.0483 5.11154 1.44551 0
M  V30 678 C 61.0873 6.08015 0.70599 0
M  V30 679 N 60.2243 6.82376 1.65251 0
M  V30 680 H 65.0643 2.92727 -0.558127 0
M  V30 681 H 62.6013 1.44272 -0.287056 0
M  V30 682 H 64.5593 3.77711 1.77172 0
M  V30 683 H 63.1893 2.63916 1.85872 0
M  V30 684 H 62.2413 3.79458 -0.267594 0
M  V30 685 H 63.5533 4.98626 -0.131686 0
M  V30 686 H 62.7073 5.68533 2.11791 0
M  V30 687 H 61.4463 4.42158 2.05786 0
M  V30 688 H 60.4513 5.49796 0.0197725 0
M  V30 689 H 61.6763 6.79028 0.09912 0
M  V30 690 H 59.6223 6.16094 2.25308 0
M  V30 691 H 59.5393 7.47556 1.12673 0
M  V30 692 H 60.8073 7.44316 2.31546 0
M  V30 693 N 65.0364 0.313813 1.54444 0
M  V30 694 C 66.2644 -0.293918 2.04802 0
M  V30 695 C 66.6794 -1.46537 1.19047 0
M  V30 696 O 66.0364 -1.81182 0.218939 0
M  V30 697 C 66.0874 -0.737806 3.53891 0
M  V30 698 O 65.8084 0.387038 4.36387 0
M  V30 699 C 67.3094 -1.40936 4.203 0
M  V30 700 H 64.5294 -0.0620057 0.668129 0
M  V30 701 H 67.0734 0.457169 1.99324 0
M  V30 702 H 65.2284 -1.43889 3.59687 0
M  V30 703 H 65.6424 0.0391274 5.24485 0
M  V30 704 H 67.1164 -1.67099 5.26101 0
M  V30 705 H 67.5934 -2.35355 3.70816 0
M  V30 706 H 68.1994 -0.751117 4.18615 0
M  V30 707 N 66.5145 -1.57545 0.0417849 0
M  V30 708 C 67.7425 -1.96624 -0.643928 0
M  V30 709 C 68.1575 -0.918897 -1.64929 0
M  V30 710 O 67.5145 0.0979323 -1.82237 0
M  V30 711 C 67.5655 -3.35781 -1.33914 0
M  V30 712 O 67.2865 -4.365 -0.374048 0
M  V30 713 C 68.7875 -3.89566 -2.1155 0
M  V30 714 H 66.0075 -0.647316 -0.176702 0
M  V30 715 H 68.5515 -2.04229 0.105304 0
M  V30 716 H 66.7065 -3.29357 -2.03968 0
M  V30 717 H 67.1205 -5.17248 -0.869179 0
M  V30 718 H 68.5945 -4.89242 -2.55628 0
M  V30 719 H 69.0715 -3.24488 -2.9598 0
M  V30 720 H 69.6775 -3.99298 -1.46427 0
M  V30 721 N 67.9926 0.231505 -1.5589 0
M  V30 722 C 68.9556 1.27028 -1.90779 0
M  V30 723 C 69.9556 1.40308 -0.785507 0
M  V30 724 O 71.1456 1.38744 -1.05336 0
M  V30 725 C 68.2776 2.64566 -2.14983 0
M  V30 726 H 69.4706 0.973017 -2.83677 0
M  V30 727 H 67.0236 0.471486 -1.49019 0
M  V30 728 H 67.7586 2.99406 -1.24604 0
M  V30 729 H 67.5436 2.56305 -2.96732 0
M  V30 730 H 69.0336 3.39543 -2.43105 0
M  V30 731 N 69.4707 1.49531 0.497807 0
M  V30 732 C 70.8817 1.52344 1.07927 0
M  V30 733 C 71.2327 0.311469 1.93712 0
M  V30 734 O 70.3577 -0.578405 2.08527 0
M  V30 735 C 70.9527 2.76062 1.96405 0
M  V30 736 C 69.5117 2.81643 2.49709 0
M  V30 737 C 68.6587 2.46299 1.27404 0
M  V30 738 H 71.6097 1.56182 0.281576 0
M  V30 739 H 71.6307 2.56405 2.81135 0
M  V30 740 H 71.1427 3.64254 1.33943 0
M  V30 741 H 69.2437 1.97739 3.15801 0
M  V30 742 H 69.3567 3.83891 2.86643 0
M  V30 743 H 67.7207 1.98148 1.60029 0
M  V30 744 H 68.5037 3.36769 0.66645 0
M  V30 745 N 70.9488 -0.749086 1.3866 0
M  V30 746 C 72.1768 -1.53834 1.38358 0
M  V30 747 C 72.5918 -1.88783 -0.0255219 0
M  V30 748 O 71.9488 -1.53101 -0.993292 0
M  V30 749 C 71.9998 -2.83468 2.2434 0
M  V30 750 O 71.7208 -2.50008 3.5976 0
M  V30 751 C 73.2218 -3.7758 2.32267 0
M  V30 752 H 70.4418 -0.47585 0.473083 0
M  V30 753 H 72.9858 -0.926726 1.82297 0
M  V30 754 H 71.1408 -3.40995 1.83851 0
M  V30 755 H 71.5548 -3.33182 4.05081 0
M  V30 756 H 73.0288 -4.65478 2.96706 0
M  V30 757 H 73.5058 -4.18334 1.33765 0
M  V30 758 H 74.1118 -3.25976 2.73166 0
M  V30 759 N 72.4269 -1.23603 -0.977757 0
M  V30 760 C 73.3599 -0.962772 -2.06896 0
M  V30 761 C 74.3379 0.0998743 -1.62293 0
M  V30 762 O 75.5219 -0.0349421 -1.88468 0
M  V30 763 C 72.6489 -0.45095 -3.35685 0
M  V30 764 C 71.6949 -1.50061 -3.99229 0
M  V30 765 S 72.5279 -3.07884 -4.38142 0
M  V30 766 C 73.6839 -2.58378 -5.7008 0
M  V30 767 H 73.9169 -1.88677 -2.29757 0
M  V30 768 H 71.4499 -1.06876 -1.11431 0
M  V30 769 H 73.4079 -0.162261 -4.10179 0
M  V30 770 H 72.0689 0.452179 -3.10828 0
M  V30 771 H 71.2619 -1.09269 -4.92013 0
M  V30 772 H 70.8639 -1.73878 -3.31123 0
M  V30 773 H 73.1559 -2.00563 -6.47133 0
M  V30 774 H 74.0989 -3.49711 -6.15717 0
M  V30 775 H 74.5069 -1.99143 -5.28207 0
M  V30 776 N 73.905 1.17692 -1.04816 0
M  V30 777 C 75.13 1.92327 -0.776207 0
M  V30 778 C 75.555 1.76082 0.661581 0
M  V30 779 O 74.913 1.076 1.45917 0
M  V30 780 C 74.961 3.41539 -1.15687 0
M  V30 781 O 74.065 4.11402 -0.286775 0
M  V30 782 H 73.406 0.599735 -0.284981 0
M  V30 783 H 75.936 1.49201 -1.4 0
M  V30 784 H 75.946 3.92269 -1.12202 0
M  V30 785 H 74.621 3.52684 -2.20425 0
M  V30 786 H 73.198 3.70939 -0.381903 0
M  V30 787 N 75.3831 0.828654 1.34056 0
M  V30 788 C 76.3131 0.269443 2.3194 0
M  V30 789 C 77.2941 -0.617247 1.58506 0
M  V30 790 O 78.4791 -0.542931 1.86456 0
M  V30 791 C 75.6091 -0.564793 3.42677 0
M  V30 792 C 74.5631 0.225241 4.27407 0
M  V30 793 C 73.8891 -0.7321 5.29664 0
M  V30 794 C 75.1891 1.43663 5.02154 0
M  V30 795 H 76.8831 1.08728 2.7896 0
M  V30 796 H 74.4291 0.524283 1.34117 0
M  V30 797 H 76.3821 -0.966233 4.10173 0
M  V30 798 H 75.1061 -1.41574 2.9432 0
M  V30 799 H 73.7651 0.608117 3.61521 0
M  V30 800 H 73.4131 -1.57916 4.77568 0
M  V30 801 H 73.1131 -0.20767 5.87233 0
M  V30 802 H 74.6371 -1.13128 6.00029 0
M  V30 803 H 76.0511 1.1089 5.62473 0
M  V30 804 H 74.4481 1.89711 5.69324 0
M  V30 805 H 75.5181 2.21181 4.31517 0
M  V30 806 N 76.8612 -1.46375 0.584142 0
M  V30 807 C 77.7712 -2.34115 -0.150728 0
M  V30 808 C 78.7872 -1.49838 -0.884567 0
M  V30 809 O 79.9632 -1.82704 -0.847429 0
M  V30 810 C 77.0282 -3.2705 -1.15062 0
M  V30 811 C 76.0892 -4.27228 -0.421293 0
M  V30 812 C 75.3222 -5.15722 -1.37355 0
M  V30 813 O 75.5452 -5.07176 -2.61014 0
M  V30 814 O 74.4792 -5.95383 -0.883355 0
M  V30 815 H 78.3052 -2.98309 0.569708 0
M  V30 816 H 75.8902 -1.45373 0.344535 0
M  V30 817 H 77.7722 -3.84381 -1.72712 0
M  V30 818 H 76.4472 -2.65451 -1.8525 0
M  V30 819 H 75.3542 -3.7358 0.197085 0
M  V30 820 H 76.6872 -4.91616 0.239641 0
M  V30 821 N 78.3393 -0.321999 -1.54275 0
M  V30 822 C 79.5793 0.281657 -2.0245 0
M  V30 823 C 79.9433 1.49468 -1.20513 0
M  V30 824 O 81.1443 2.17109 -1.58484 0
M  V30 825 C 79.4153 0.609014 -3.52173 0
M  V30 826 S 80.9743 1.19255 -4.22284 0
M  V30 827 H 77.7923 0.0852825 -0.705867 0
M  V30 828 H 80.3943 -0.454758 -1.90137 0
M  V30 829 H 79.0983 -0.281982 -4.0943 0
M  V30 830 H 78.6293 1.37567 -3.68563 0
M  V30 831 H 80.6443 2.47944 -4.29812 0
M  V30 832 N 79.8174 1.5752 -0.0501392 0
M  V30 833 C 81.0454 1.96963 0.633492 0
M  V30 834 C 81.4604 0.927631 1.6444 0
M  V30 835 O 80.8174 -0.0882665 1.82286 0
M  V30 836 C 80.8684 3.36487 1.32132 0
M  V30 837 O 80.5894 4.36693 0.350894 0
M  V30 838 C 82.0904 3.90682 2.09481 0
M  V30 839 H 79.3104 0.648244 0.173266 0
M  V30 840 H 81.8544 2.0417 -0.116134 0
M  V30 841 H 80.0094 3.30434 2.02218 0
M  V30 842 H 80.4234 5.17702 0.841735 0
M  V30 843 H 81.8974 4.90591 2.5303 0
M  V30 844 H 82.3744 3.26053 2.94255 0
M  V30 845 H 82.9804 4.00069 1.44307 0
M  V30 846 N 81.2955 -0.223234 1.56011 0
M  V30 847 C 82.2435 -1.29627 1.93131 0
M  V30 848 C 83.2375 -1.48608 0.813146 0
M  V30 849 O 84.4435 -1.49802 0.997966 0
M  V30 850 H 80.8185 -0.434563 0.613726 0
M  V30 851 H 82.7895 -0.955995 2.82672 0
M  V30 852 C 81.5385 -2.63983 2.26292 0
M  V30 853 H 80.8615 -2.50185 3.11846 0
M  V30 854 H 82.3015 -3.3788 2.56151 0
M  V30 855 C 80.7605 -3.18866 1.08747 0
M  V30 856 O 81.2905 -4.00192 0.347727 0
M  V30 857 N 79.4965 -2.77217 0.871743 0
M  V30 858 H 79.0435 -2.1119 1.47501 0
M  V30 859 H 79.0015 -3.1428 0.0869905 0
M  V30 860 N 82.7736 -1.49793 -0.48987 0
M  V30 861 C 83.7366 -1.66752 -1.57246 0
M  V30 862 C 84.7366 -0.538867 -1.51502 0
M  V30 863 O 85.9266 -0.805545 -1.54456 0
M  V30 864 C 83.0586 -1.67528 -2.96896 0
M  V30 865 H 84.2516 -2.63321 -1.43534 0
M  V30 866 H 81.8046 -1.38992 -0.714914 0
M  V30 867 H 82.5396 -0.725837 -3.16073 0
M  V30 868 H 82.3246 -2.49504 -3.02473 0
M  V30 869 H 83.8146 -1.82667 -3.7553 0
M  V30 870 N 84.2517 0.741722 -1.39055 0
M  V30 871 C 85.4767 1.53607 -1.39354 0
M  V30 872 C 85.9017 1.88096 0.0116905 0
M  V30 873 O 85.2597 1.5143 0.996924 0
M  V30 874 C 85.3077 2.80441 -2.26682 0
M  V30 875 O 84.4117 3.76088 -1.69208 0
M  V30 876 H 83.7527 0.464142 -0.474835 0
M  V30 877 H 86.2827 0.915665 -1.82967 0
M  V30 878 H 86.2927 3.29246 -2.40959 0
M  V30 879 H 84.9677 2.5467 -3.2881 0
M  V30 880 H 83.5447 3.34833 -1.64138 0
M  V30 881 N 85.7298 1.2412 0.971189 0
M  V30 882 C 86.6778 1.02812 2.08644 0
M  V30 883 C 87.6718 -0.0358403 1.69362 0
M  V30 884 O 88.8778 0.118429 1.7961 0
M  V30 885 H 85.2528 0.315428 0.682649 0
M  V30 886 H 87.2238 1.97397 2.23779 0
M  V30 887 C 85.9728 0.645874 3.41649 0
M  V30 888 H 85.2958 1.45632 3.72332 0
M  V30 889 H 86.7358 0.536366 4.20594 0
M  V30 890 C 85.1948 -0.646713 3.30635 0
M  V30 891 O 85.7248 -1.69338 3.64263 0
M  V30 892 N 83.9308 -0.626115 2.83775 0
M  V30 893 H 83.4778 0.225988 2.56607 0
M  V30 894 H 83.4358 -1.49117 2.76788 0
M  V30 895 N 87.2079 -1.17134 1.05439 0
M  V30 896 C 88.1709 -2.19439 0.661764 0
M  V30 897 C 89.1709 -1.58199 -0.288042 0
M  V30 898 O 90.3609 -1.74053 -0.0715803 0
M  V30 899 C 87.4929 -3.40889 -0.0276209 0
M  V30 900 H 88.6859 -2.55688 1.56728 0
M  V30 901 H 86.2389 -1.31259 0.848567 0
M  V30 902 H 86.9739 -3.10187 -0.94629 0
M  V30 903 H 86.7589 -3.86586 0.655238 0
M  V30 904 H 88.2489 -4.16603 -0.288342 0
M  V30 905 N 88.686 -0.835752 -1.33615 0
M  V30 906 C 89.618 -0.224151 -2.28101 0
M  V30 907 C 90.631 0.593331 -1.51603 0
M  V30 908 O 91.82 0.420911 -1.73466 0
M  V30 909 C 88.92 0.703309 -3.31522 0
M  V30 910 C 88.093 -0.0741528 -4.37337 0
M  V30 911 C 87.152 0.776176 -5.20444 0
M  V30 912 O 86.178 0.216506 -5.68788 0
M  V30 913 N 87.38 2.09401 -5.41416 0
M  V30 914 H 90.145 -1.03598 -2.81225 0
M  V30 915 H 87.706 -0.69392 -1.46275 0
M  V30 916 H 89.698 1.27707 -3.84022 0
M  V30 917 H 88.268 1.41585 -2.78698 0
M  V30 918 H 87.488 -0.82928 -3.85378 0
M  V30 919 H 88.776 -0.608863 -5.05144 0
M  V30 920 H 88.174 2.57229 -5.03835 0
M  V30 921 H 86.731 2.61633 -5.96985 0
M  V30 922 N 90.1641 1.46063 -0.591896 0
M  V30 923 C 91.3921 2.06717 -0.0868936 0
M  V30 924 C 91.8071 1.43916 1.22203 0
M  V30 925 O 91.1641 0.547698 1.74088 0
M  V30 926 C 91.2151 3.6142 0.0758725 0
M  V30 927 O 90.9361 4.21874 -1.18126 0
M  V30 928 C 92.4371 4.39025 0.61416 0
M  V30 929 H 89.6571 0.668162 -0.0616518 0
M  V30 930 H 92.2011 1.8755 -0.815175 0
M  V30 931 H 90.3561 3.79983 0.754413 0
M  V30 932 H 90.7701 5.14861 -1.00092 0
M  V30 933 H 92.2441 5.4783 0.677193 0
M  V30 934 H 92.7211 4.07708 1.63312 0
M  V30 935 H 93.3271 4.2529 -0.0298142 0
M  V30 936 N 91.6422 0.330177 1.54103 0
M  V30 937 C 92.8882 -0.270806 2.00984 0
M  V30 938 C 93.2212 -1.51265 1.21789 0
M  V30 939 O 92.4962 -1.92142 0.301927 0
M  V30 940 C 92.7792 -0.598339 3.55094 0
M  V30 941 C 92.6322 0.654674 4.4501 0
M  V30 942 C 93.9512 -1.41334 4.16789 0
M  V30 943 H 91.0702 -0.0969531 0.730595 0
M  V30 944 H 93.7122 0.448066 1.84641 0
M  V30 945 H 91.8622 -1.21078 3.69151 0
M  V30 946 H 93.5342 1.29285 4.42813 0
M  V30 947 H 91.7772 1.28224 4.14416 0
M  V30 948 H 92.4482 0.380944 5.50684 0
M  V30 949 H 94.9242 -0.895597 4.06347 0
M  V30 950 H 93.8002 -1.61127 5.24718 0
M  V30 951 H 94.0612 -2.41146 3.70541 0
M  V30 952 N 93.1203 -1.57491 0.0584922 0
M  V30 953 C 94.0683 -2.13148 -0.931168 0
M  V30 954 C 95.0623 -1.06507 -1.31729 0
M  V30 955 O 96.2683 -1.24906 -1.29609 0
M  V30 956 H 92.6433 -0.68137 -0.31818 0
M  V30 957 H 94.6143 -2.95187 -0.436707 0
M  V30 958 C 93.3633 -2.69732 -2.19408 0
M  V30 959 H 92.6863 -3.51454 -1.90578 0
M  V30 960 H 94.1263 -3.12287 -2.86798 0
M  V30 961 C 92.5853 -1.63855 -2.94369 0
M  V30 962 O 93.1153 -1.05565 -3.87581 0
M  V30 963 N 91.3213 -1.35202 -2.57233 0
M  V30 964 H 90.8683 -1.82791 -1.81508 0
M  V30 965 H 90.8263 -0.645922 -3.07693 0
M  V30 966 N 94.5984 0.214957 -1.56127 0
M  V30 967 C 95.5484 1.27006 -1.8935 0
M  V30 968 C 96.5324 1.41969 -0.757202 0
M  V30 969 O 97.7244 1.44673 -1.01973 0
M  V30 970 C 94.8534 2.61911 -2.2194 0
M  V30 971 C 93.9394 2.50822 -3.41978 0
M  V30 972 N 94.3304 2.09391 -4.60423 0
M  V30 973 C 92.6284 2.81765 -3.45723 0
M  V30 974 C 93.3294 2.09712 -5.42582 0
M  V30 975 N 92.3054 2.50454 -4.82466 0
M  V30 976 H 96.1074 0.940734 -2.78437 0
M  V30 977 H 93.6214 0.423492 -1.56781 0
M  V30 978 H 95.6184 3.38096 -2.43919 0
M  V30 979 H 94.2784 2.95684 -1.34169 0
M  V30 980 H 95.2894 1.80416 -4.85459 0
M  V30 981 H 91.9664 3.19865 -2.68314 0
M  V30 982 H 93.3564 1.79748 -6.4741 0
M  V30 983 N 96.0765 1.50051 0.48192 0
M  V30 984 C 97.3015 1.64508 1.26301 0
M  V30 985 C 97.7265 0.323851 1.85291 0
M  V30 986 O 97.0845 -0.710969 1.66778 0
M  V30 987 C 97.1325 2.7305 2.35533 0
M  V30 988 O 96.2365 2.3355 3.39895 0
M  V30 989 H 95.5775 0.549978 0.372048 0
M  V30 990 H 98.1075 1.9636 0.574786 0
M  V30 991 H 98.1175 2.95799 2.8101 0
M  V30 992 H 96.7925 3.68946 1.91967 0
M  V30 993 H 95.3695 2.21205 3.00204 0
M  V30 994 N 97.5546 -0.734337 1.39446 0
M  V30 995 C 98.5176 -1.83004 1.37994 0
M  V30 996 C 99.5176 -1.58397 0.276938 0
M  V30 997 O 100.708 -1.65785 0.534875 0
M  V30 998 C 97.8396 -3.20802 1.1532 0
M  V30 999 H 99.0326 -1.85694 2.35494 0
M  V30 1000 H 96.5856 -0.938059 1.25021 0
M  V30 1001 H 97.3206 -3.23772 0.185036 0
M  V30 1002 H 97.1056 -3.4006 1.95197 0
M  V30 1003 H 98.5956 -4.00862 1.17046 0
M  V30 1004 N 99.0327 -1.24633 -0.964593 0
M  V30 1005 C 100.261 -1.11501 -1.74285 0
M  V30 1006 C 100.676 0.332165 -1.85855 0
M  V30 1007 O 100.033 1.22903 -1.34911 0
M  V30 1008 C 100.084 -1.75258 -3.16175 0
M  V30 1009 O 99.8047 -3.14318 -3.05182 0
M  V30 1010 C 101.306 -1.67776 -4.10324 0
M  V30 1011 H 98.5257 -0.389407 -0.546446 0
M  V30 1012 H 101.07 -1.64801 -1.21083 0
M  V30 1013 H 99.2247 -1.25954 -3.66353 0
M  V30 1014 H 99.6387 -3.4551 -3.94618 0
M  V30 1015 H 101.113 -2.17064 -5.0753 0
M  V30 1016 H 101.59 -0.639584 -4.34518 0
M  V30 1017 H 102.196 -2.16522 -3.66058 0
M  V30 1018 N 100.511 1.16574 -1.06058 0
M  V30 1019 C 101.458 2.20883 -0.669263 0
M  V30 1020 C 102.428 1.62729 0.332918 0
M  V30 1021 O 103.613 1.895 0.222346 0
M  V30 1022 C 100.753 3.45049 -0.0593572 0
M  V30 1023 C 99.8658 4.17458 -1.11143 0
M  V30 1024 C 99.0008 5.29135 -0.467916 0
M  V30 1025 C 98.0398 5.93343 -1.50369 0
M  V30 1026 N 97.1768 6.96516 -0.883706 0
M  V30 1027 H 102.017 2.53709 -1.5632 0
M  V30 1028 H 99.5538 1.24616 -0.781625 0
M  V30 1029 H 101.512 4.16033 0.311771 0
M  V30 1030 H 100.142 3.12781 0.797992 0
M  V30 1031 H 99.1938 3.45101 -1.60029 0
M  V30 1032 H 100.506 4.61307 -1.89731 0
M  V30 1033 H 99.6598 6.06684 -0.0436871 0
M  V30 1034 H 98.3988 4.86443 0.349864 0
M  V30 1035 H 97.4038 5.14517 -1.93784 0
M  V30 1036 H 98.6288 6.38114 -2.32352 0
M  V30 1037 H 96.5748 6.55943 -0.086595 0
M  V30 1038 H 96.4918 7.38723 -1.607 0
M  V30 1039 H 97.7598 7.77993 -0.484543 0
M  V30 1040 N 101.989 0.842826 1.3317 0
M  V30 1041 C 102.899 0.281444 2.32906 0
M  V30 1042 C 103.915 -0.594587 1.63526 0
M  V30 1043 O 105.091 -0.49777 1.95152 0
M  V30 1044 C 102.156 -0.530929 3.42611 0
M  V30 1045 C 101.217 0.369843 4.27704 0
M  V30 1046 C 100.45 -0.403853 5.3217 0
M  V30 1047 O 100.673 -1.63513 5.46461 0
M  V30 1048 O 99.6069 0.224199 6.01482 0
M  V30 1049 H 103.433 1.10744 2.82789 0
M  V30 1050 H 101.018 0.60545 1.36582 0
M  V30 1051 H 102.9 -0.992437 4.09547 0
M  V30 1052 H 101.575 -1.33392 2.94938 0
M  V30 1053 H 100.482 0.879275 3.6362 0
M  V30 1054 H 101.815 1.13771 4.78871 0
M  V30 1055 N 103.467 -1.45747 0.599634 0
M  V30 1056 C 104.4 -2.27547 -0.172552 0
M  V30 1057 C 105.378 -1.36657 -0.881116 0
M  V30 1058 O 106.562 -1.66081 -0.891595 0
M  V30 1059 C 103.689 -3.14829 -1.24903 0
M  V30 1060 C 102.735 -4.21603 -0.644465 0
M  V30 1061 S 103.568 -5.32754 0.541606 0
M  V30 1062 C 104.724 -6.23604 -0.535656 0
M  V30 1063 H 104.957 -2.92691 0.521468 0
M  V30 1064 H 102.49 -1.49473 0.386947 0
M  V30 1065 H 104.448 -3.65675 -1.86527 0
M  V30 1066 H 103.109 -2.48965 -1.91508 0
M  V30 1067 H 102.302 -4.82566 -1.45417 0
M  V30 1068 H 101.904 -3.73857 -0.103534 0
M  V30 1069 H 104.196 -6.62519 -1.41686 0
M  V30 1070 H 105.139 -7.0809 0.0376246 0
M  V30 1071 H 105.547 -5.58103 -0.84741 0
M  V30 1072 N 104.945 -0.338344 -1.53925 0
M  V30 1073 C 106.173 0.261298 -2.05243 0
M  V30 1074 C 106.588 1.44625 -1.21363 0
M  V30 1075 O 105.945 1.80811 -0.247736 0
M  V30 1076 C 105.996 0.681412 -3.5502 0
M  V30 1077 O 105.717 -0.456414 -4.35716 0
M  V30 1078 C 107.218 1.34232 -4.22489 0
M  V30 1079 H 104.438 0.0513685 -0.669031 0
M  V30 1080 H 106.982 -0.488822 -1.98572 0
M  V30 1081 H 105.137 1.38148 -3.61931 0
M  V30 1082 H 105.551 -0.122564 -5.24357 0
M  V30 1083 H 107.025 1.58708 -5.28693 0
M  V30 1084 H 107.502 2.29426 -3.74514 0
M  V30 1085 H 108.108 0.684424 -4.19757 0
M  V30 1086 N 106.423 1.57458 -0.0668435 0
M  V30 1087 C 107.67 1.93301 0.603406 0
M  V30 1088 C 107.998 0.946486 1.69917 0
M  V30 1089 O 107.253 -0.0387021 1.95662 0
M  V30 1090 C 107.552 3.35784 1.22409 0
M  V30 1091 C 107.218 4.50179 0.254955 0
M  V30 1092 C 105.88 4.81199 -0.0116746 0
M  V30 1093 C 108.232 5.19598 -0.408338 0
M  V30 1094 C 105.56 5.78978 -0.94877 0
M  V30 1095 C 107.912 6.18381 -1.33372 0
M  V30 1096 C 106.576 6.47821 -1.60887 0
M  V30 1097 H 105.846 0.707338 0.220802 0
M  V30 1098 H 108.493 1.91012 -0.136665 0
M  V30 1099 H 106.798 3.34515 2.03978 0
M  V30 1100 H 108.495 3.60804 1.74989 0
M  V30 1101 H 105.085 4.25983 0.472954 0
M  V30 1102 H 109.269 4.95832 -0.215456 0
M  V30 1103 H 104.525 6.00115 -1.16925 0
M  V30 1104 H 108.699 6.71277 -1.85367 0
M  V30 1105 H 106.326 7.23399 -2.33661 0
M  V30 1106 N 107.901 -0.206675 1.56239 0
M  V30 1107 C 109.312 -0.772383 1.69974 0
M  V30 1108 C 109.663 -1.84353 0.671436 0
M  V30 1109 O 108.788 -2.15695 -0.174491 0
M  V30 1110 C 109.383 -1.40779 3.08167 0
M  V30 1111 C 107.942 -1.92072 3.23706 0
M  V30 1112 C 107.089 -0.786347 2.65917 0
M  V30 1113 H 110.04 0.0182223 1.5869 0
M  V30 1114 H 110.061 -2.27696 3.04852 0
M  V30 1115 H 109.573 -0.627958 3.82986 0
M  V30 1116 H 107.674 -2.7281 2.53782 0
M  V30 1117 H 107.787 -2.09046 4.31087 0
M  V30 1118 H 106.151 -1.1976 2.24788 0
M  V30 1119 H 106.934 -0.0189416 3.43295 0
M  V30 1120 N 109.379 -1.50304 -0.473955 0
M  V30 1121 C 110.79 -1.54042 -1.0549 0
M  V30 1122 C 111.141 -0.342248 -1.93192 0
M  V30 1123 O 110.266 0.545157 -2.09421 0
M  V30 1124 C 110.861 -2.79152 -1.91989 0
M  V30 1125 C 109.42 -2.8558 -2.45196 0
M  V30 1126 C 108.567 -2.48295 -1.2347 0
M  V30 1127 H 111.518 -1.5661 -0.256693 0
M  V30 1128 H 111.539 -2.60845 -2.7702 0
M  V30 1129 H 111.051 -3.66339 -1.28131 0
M  V30 1130 H 109.152 -2.02738 -3.12615 0
M  V30 1131 H 109.265 -3.88403 -2.80499 0
M  V30 1132 H 107.629 -2.00669 -1.56856 0
M  V30 1133 H 108.412 -3.37787 -0.612789 0
M  V30 1134 N 110.857 0.726932 -1.39834 0
M  V30 1135 C 112.268 1.30558 -1.3346 0
M  V30 1136 C 112.619 1.962 -0.00273003 0
M  V30 1137 O 111.744 1.96826 0.899371 0
M  V30 1138 C 112.339 2.37404 -2.41713 0
M  V30 1139 C 110.898 2.90921 -2.38835 0
M  V30 1140 C 110.045 1.64578 -2.2318 0
M  V30 1141 H 112.996 0.523862 -1.49804 0
M  V30 1142 H 113.017 3.17984 -2.08966 0
M  V30 1143 H 112.529 1.89599 -3.38635 0
M  V30 1144 H 110.63 3.42985 -1.45575 0
M  V30 1145 H 110.743 3.43487 -3.33997 0
M  V30 1146 H 109.107 1.89219 -1.70494 0
M  V30 1147 H 109.89 1.18814 -3.22084 0
M  V30 1148 N 112.336 1.25143 0.95797 0
M  V30 1149 C 113.246 1.06968 2.08794 0
M  V30 1150 C 114.262 0.00773911 1.73998 0
M  V30 1151 O 115.438 0.207972 2.00323 0
M  V30 1152 C 112.503 0.68691 3.39827 0
M  V30 1153 C 111.564 1.82641 3.88511 0
M  V30 1154 C 110.797 1.46181 5.1329 0
M  V30 1155 O 111.02 0.355971 5.69288 0
M  V30 1156 O 109.954 2.29085 5.566 0
M  V30 1157 H 113.78 2.01723 2.27027 0
M  V30 1158 H 111.365 1.04051 1.07209 0
M  V30 1159 H 113.247 0.485417 4.18595 0
M  V30 1160 H 111.922 -0.231417 3.22872 0
M  V30 1161 H 110.829 2.08274 3.10762 0
M  V30 1162 H 112.162 2.72386 4.09959 0
M  V30 1163 N 113.814 -1.1601 1.06675 0
M  V30 1164 C 115.225 -1.68235 0.809565 0
M  V30 1165 C 115.576 -1.8454 -0.666303 0
M  V30 1166 O 114.701 -1.54374 -1.5165 0
M  V30 1167 C 115.296 -3.05585 1.46299 0
M  V30 1168 C 113.855 -3.54915 1.25349 0
M  V30 1169 C 113.002 -2.30804 1.53703 0
M  V30 1170 H 115.953 -1.00318 1.22971 0
M  V30 1171 H 115.974 -3.70174 0.880431 0
M  V30 1172 H 115.486 -2.93686 2.53713 0
M  V30 1173 H 113.587 -3.72067 0.199261 0
M  V30 1174 H 113.7 -4.36774 1.9689 0
M  V30 1175 H 112.064 -2.36007 0.957739 0
M  V30 1176 H 112.847 -2.21499 2.62284 0
M  V30 1177 N 115.292 -0.849877 -1.32721 0
M  V30 1178 C 116.202 -0.293791 -2.32753 0
M  V30 1179 C 117.218 0.585906 -1.63839 0
M  V30 1180 O 118.394 0.487413 -1.95413 0
M  V30 1181 C 115.459 0.512752 -3.42887 0
M  V30 1182 C 114.52 -0.39252 -4.27502 0
M  V30 1183 C 113.753 0.375625 -5.32377 0
M  V30 1184 O 113.976 1.60613 -5.4732 0
M  V30 1185 O 112.91 -0.256094 -6.01355 0
M  V30 1186 H 116.736 -1.12242 -2.82197 0
M  V30 1187 H 114.321 -0.612685 -1.36259 0
M  V30 1188 H 116.203 0.970704 -4.10067 0
M  V30 1189 H 114.878 1.31826 -2.95641 0
M  V30 1190 H 113.785 -0.898547 -3.63149 0
M  V30 1191 H 115.118 -1.16309 -4.7826 0
M  V30 1192 N 116.77 1.45427 -0.607355 0
M  V30 1193 C 118.016 2.03097 -0.111035 0
M  V30 1194 C 118.371 1.46735 1.24445 0
M  V30 1195 O 117.664 0.632478 1.8086 0
M  V30 1196 C 117.858 3.57398 -0.0129263 0
M  V30 1197 C 117.687 4.28726 -1.35735 0
M  V30 1198 C 116.457 4.66659 -1.93798 0
M  V30 1199 C 118.655 4.60699 -2.28607 0
M  V30 1200 N 116.637 5.22845 -3.21723 0
M  V30 1201 C 118.008 5.17716 -3.41131 0
M  V30 1202 C 120.063 4.42638 -2.27982 0
M  V30 1203 C 118.766 5.58576 -4.53194 0
M  V30 1204 C 120.792 4.84531 -3.39093 0
M  V30 1205 C 120.154 5.4164 -4.50339 0
M  V30 1206 H 116.253 0.777476 -0.083994 0
M  V30 1207 H 118.837 1.77249 -0.805655 0
M  V30 1208 H 117.008 3.82907 0.650914 0
M  V30 1209 H 118.74 4.01722 0.490033 0
M  V30 1210 H 115.495 4.50207 -1.47007 0
M  V30 1211 H 115.919 5.55438 -3.87063 0
M  V30 1212 H 120.561 3.97798 -1.43235 0
M  V30 1213 H 118.279 6.02382 -5.38667 0
M  V30 1214 H 121.865 4.72289 -3.39757 0
M  V30 1215 H 120.745 5.73461 -5.34895 0
M  V30 1216 N 118.248 0.346503 1.53744 0
M  V30 1217 C 119.476 -0.25041 2.05379 0
M  V30 1218 C 119.891 -1.43979 1.22129 0
M  V30 1219 O 119.248 -1.80677 0.257321 0
M  V30 1220 C 119.299 -0.662575 3.55376 0
M  V30 1221 O 119.02 0.479515 4.35468 0
M  V30 1222 C 120.521 -1.31989 4.23195 0
M  V30 1223 H 117.741 -0.0478198 0.669294 0
M  V30 1224 H 120.285 0.499346 1.9831 0
M  V30 1225 H 118.44 -1.36227 3.62658 0
M  V30 1226 H 118.854 0.15037 5.24284 0
M  V30 1227 H 120.328 -1.55902 5.29527 0
M  V30 1228 H 120.805 -2.27436 3.75725 0
M  V30 1229 H 121.411 -0.662154 4.20114 0
M  V30 1230 N 119.726 -1.57421 0.075193 0
M  V30 1231 C 120.956 -1.97659 -0.601203 0
M  V30 1232 C 121.364 -0.952427 -1.63479 0
M  V30 1233 O 120.707 0.0688241 -1.83571 0
M  V30 1234 C 120.769 -3.34218 -1.32434 0
M  V30 1235 C 120.433 -4.5484 -0.443826 0
M  V30 1236 C 121.43 -5.19034 0.299969 0
M  V30 1237 C 119.115 -5.00952 -0.367709 0
M  V30 1238 C 121.109 -6.27695 1.10807 0
M  V30 1239 C 118.796 -6.09484 0.444058 0
M  V30 1240 C 119.794 -6.72719 1.18061 0
M  V30 1241 O 119.482 -7.79161 1.97898 0
M  V30 1242 H 119.214 -0.65494 -0.167422 0
M  V30 1243 H 121.768 -2.04886 0.145157 0
M  V30 1244 H 119.998 -3.23615 -2.11685 0
M  V30 1245 H 121.687 -3.59038 -1.89331 0
M  V30 1246 H 122.453 -4.84351 0.250776 0
M  V30 1247 H 118.332 -4.51509 -0.930638 0
M  V30 1248 H 121.876 -6.76982 1.68347 0
M  V30 1249 H 117.773 -6.43601 0.494803 0
M  V30 1250 H 118.541 -7.96055 1.90367 0
M  V30 1251 N 121.204 0.198386 -1.56346 0
M  V30 1252 C 122.615 0.763358 -1.70381 0
M  V30 1253 C 122.966 1.83995 -0.681203 0
M  V30 1254 O 122.091 2.15785 0.16305 0
M  V30 1255 C 122.686 1.39143 -3.08909 0
M  V30 1256 C 121.245 1.90352 -3.2472 0
M  V30 1257 C 120.392 0.772233 -2.6633 0
M  V30 1258 H 123.343 -0.0266377 -1.58678 0
M  V30 1259 H 123.364 2.26076 -3.06055 0
M  V30 1260 H 122.876 0.607638 -3.83314 0
M  V30 1261 H 120.977 2.71461 -2.55225 0
M  V30 1262 H 121.09 2.06757 -4.3219 0
M  V30 1263 H 119.454 1.18566 -2.2542 0
M  V30 1264 H 120.237 0.00073556 -3.433 0
M  V30 1265 N 122.682 1.50554 0.465978 0
M  V30 1266 C 124.098 1.38093 0.800154 0
M  V30 1267 C 124.298 0.440988 1.96615 0
M  V30 1268 O 123.354 -0.114499 2.5224 0
M  V30 1269 C 124.667 2.79565 1.10742 0
M  V30 1270 C 126.215 2.88516 1.21357 0
M  V30 1271 C 126.69 4.30833 1.55393 0
M  V30 1272 N 128.181 4.33807 1.62375 0
M  V30 1273 C 128.916 5.40927 1.90225 0
M  V30 1274 N 128.412 6.58247 2.16062 0
M  V30 1275 N 130.205 5.28376 1.9177 0
M  V30 1276 H 122.356 2.10237 -0.302366 0
M  V30 1277 H 124.619 0.945203 -0.0727746 0
M  V30 1278 H 124.325 3.50208 0.323661 0
M  V30 1279 H 124.199 3.17125 2.04234 0
M  V30 1280 H 126.586 2.1809 1.98799 0
M  V30 1281 H 126.667 2.54492 0.258321 0
M  V30 1282 H 126.311 5.01799 0.784889 0
M  V30 1283 H 126.241 4.62347 2.52076 0
M  V30 1284 H 128.732 3.49212 1.44427 0
M  V30 1285 H 129.045 7.3569 2.36601 0
M  V30 1286 H 127.39 6.61413 2.13444 0
M  V30 1287 H 130.581 4.35715 1.71085 0
M  V30 1288 H 130.754 6.11944 2.13139 0
M  V30 1289 N 124.16 -0.719506 1.40217 0
M  V30 1290 C 125.09 -1.8465 1.42922 0
M  V30 1291 C 126.071 -1.67599 0.29062 0
M  V30 1292 O 127.256 -1.87688 0.498677 0
M  V30 1293 C 124.386 -3.22565 1.28722 0
M  V30 1294 C 123.34 -3.54281 2.40144 0
M  V30 1295 C 122.666 -4.91298 2.11023 0
M  V30 1296 C 123.966 -3.55676 3.82481 0
M  V30 1297 H 125.66 -1.82644 2.37237 0
M  V30 1298 H 123.206 -0.877305 1.1419 0
M  V30 1299 H 125.159 -4.01095 1.29232 0
M  V30 1300 H 123.883 -3.25137 0.308811 0
M  V30 1301 H 122.542 -2.78088 2.38877 0
M  V30 1302 H 122.19 -4.90468 1.11582 0
M  V30 1303 H 121.89 -5.13485 2.8567 0
M  V30 1304 H 123.414 -5.72166 2.13209 0
M  V30 1305 H 124.828 -4.24254 3.85592 0
M  V30 1306 H 123.225 -3.89388 4.56614 0
M  V30 1307 H 124.295 -2.55144 4.12346 0
M  V30 1308 N 125.638 -1.25649 -0.95132 0
M  V30 1309 C 126.863 -1.13443 -1.73624 0
M  V30 1310 C 127.288 0.307565 -1.85568 0
M  V30 1311 O 126.646 1.22282 -1.33854 0
M  V30 1312 C 126.694 -1.79723 -3.12621 0
M  V30 1313 O 125.798 -1.07912 -3.98031 0
M  V30 1314 H 125.139 -0.395872 -0.533086 0
M  V30 1315 H 127.669 -1.66276 -1.1922 0
M  V30 1316 H 127.679 -1.86141 -3.63064 0
M  V30 1317 H 126.354 -2.84633 -3.03244 0
M  V30 1318 H 124.931 -1.09398 -3.56492 0
M  V30 1319 N 127.117 1.15442 -1.07289 0
M  V30 1320 C 128.357 1.8788 -0.805012 0
M  V30 1321 C 128.721 1.80413 0.656907 0
M  V30 1322 O 129.922 2.47874 1.0398 0
M  V30 1323 C 128.193 3.3298 -1.29843 0
M  V30 1324 S 129.752 4.23158 -1.16114 0
M  V30 1325 H 126.57 0.64839 -0.291739 0
M  V30 1326 H 129.172 1.39285 -1.37186 0
M  V30 1327 H 127.876 3.35958 -2.35712 0
M  V30 1328 H 127.407 3.86629 -0.726767 0
M  V30 1329 H 129.422 4.96103 -0.0982778 0
M  V30 1330 N 128.595 0.856903 1.32268 0
M  V30 1331 C 129.527 0.260412 2.27716 0
M  V30 1332 C 130.54 -0.569137 1.52528 0
M  V30 1333 O 131.729 -0.39326 1.74114 0
M  V30 1334 C 128.829 -0.650477 3.32599 0
M  V30 1335 C 128.002 0.14372 4.37164 0
M  V30 1336 C 127.061 -0.69328 5.21613 0
M  V30 1337 O 126.087 -0.12599 5.69061 0
M  V30 1338 N 127.289 -2.00761 5.44679 0
M  V30 1339 H 130.054 1.08059 2.79541 0
M  V30 1340 H 127.615 0.717103 1.45152 0
M  V30 1341 H 129.607 -1.21581 3.86005 0
M  V30 1342 H 128.177 -1.37133 2.80915 0
M  V30 1343 H 127.397 0.890486 3.8401 0
M  V30 1344 H 128.685 0.68915 5.04111 0
M  V30 1345 H 128.083 -2.49181 5.07863 0
M  V30 1346 H 126.64 -2.52103 6.01072 0
M  V30 1347 N 130.073 -1.45103 0.615059 0
M  V30 1348 C 131.321 -2.01784 0.112955 0
M  V30 1349 C 131.642 -1.48504 -1.26378 0
M  V30 1350 O 130.912 -0.682245 -1.83636 0
M  V30 1351 H 129.492 -0.745993 0.0387668 0
M  V30 1352 H 132.154 -1.77808 0.798141 0
M  V30 1353 H 131.25 -3.12025 0.0684069 0
M  V30 1354 N 131.551 -0.354651 -1.53558 0
M  V30 1355 C 132.776 0.242153 -2.05981 0
M  V30 1356 C 133.201 1.42553 -1.2272 0
M  V30 1357 O 132.559 1.79656 -0.243604 0
M  V30 1358 C 132.607 0.624367 -3.55154 0
M  V30 1359 O 131.711 1.72301 -3.74681 0
M  V30 1360 H 131.052 0.0378432 -0.662921 0
M  V30 1361 H 133.582 -0.512087 -1.98088 0
M  V30 1362 H 133.592 0.898433 -3.97985 0
M  V30 1363 H 132.267 -0.240989 -4.15201 0
M  V30 1364 H 130.844 1.44535 -3.4375 0
M  V30 1365 N 133.029 1.57378 -0.0835403 0
M  V30 1366 C 134.257 1.98263 0.59157 0
M  V30 1367 C 134.672 0.962302 1.62435 0
M  V30 1368 O 134.029 -0.049581 1.82433 0
M  V30 1369 C 134.08 3.39214 1.24965 0
M  V30 1370 O 133.801 4.37339 0.258186 0
M  V30 1371 C 135.302 3.95038 2.01147 0
M  V30 1372 H 132.522 0.651773 0.159477 0
M  V30 1373 H 135.066 2.03878 -0.159415 0
M  V30 1374 H 133.221 3.34649 1.95164 0
M  V30 1375 H 133.635 5.19371 0.731734 0
M  V30 1376 H 135.109 4.95848 2.42567 0
M  V30 1377 H 135.586 3.32222 2.87272 0
M  V30 1378 H 136.192 4.0304 1.35789 0
M  V30 1379 N 134.507 -0.190092 1.56449 0
M  V30 1380 C 135.754 -0.909705 1.80916 0
M  V30 1381 C 136.082 -1.83047 0.657583 0
M  V30 1382 O 135.337 -1.92428 -0.356356 0
M  V30 1383 C 135.636 -1.75382 3.1141 0
M  V30 1384 C 135.302 -0.983606 4.40041 0
M  V30 1385 C 133.964 -0.770967 4.74984 0
M  V30 1386 C 136.316 -0.442024 5.19322 0
M  V30 1387 C 133.644 -0.0053448 5.867 0
M  V30 1388 C 135.996 0.310412 6.31838 0
M  V30 1389 C 134.66 0.534023 6.6536 0
M  V30 1390 H 133.93 -0.332885 0.662019 0
M  V30 1391 H 136.577 -0.175762 1.90692 0
M  V30 1392 H 134.882 -2.55659 2.96893 0
M  V30 1393 H 136.579 -2.31331 3.27547 0
M  V30 1394 H 133.169 -1.15936 4.12622 0
M  V30 1395 H 137.353 -0.593693 4.92736 0
M  V30 1396 H 132.609 0.177825 6.11141 0
M  V30 1397 H 136.783 0.737419 6.92485 0
M  V30 1398 H 134.41 1.12918 7.51767 0
M  V30 1399 N 135.985 -1.50799 -0.457987 0
M  V30 1400 C 136.917 -1.66786 -1.57211 0
M  V30 1401 C 137.93 -0.548962 -1.53265 0
M  V30 1402 O 139.119 -0.8226 -1.58416 0
M  V30 1403 C 136.219 -1.64834 -2.96113 0
M  V30 1404 C 135.392 -2.92971 -3.24787 0
M  V30 1405 C 134.451 -2.83485 -4.43309 0
M  V30 1406 O 133.477 -3.5744 -4.42973 0
M  V30 1407 N 134.679 -1.97929 -5.45714 0
M  V30 1408 H 137.444 -2.62889 -1.43909 0
M  V30 1409 H 135.005 -1.48427 -0.646617 0
M  V30 1410 H 136.997 -1.56084 -3.7339 0
M  V30 1411 H 135.567 -0.764118 -3.03117 0
M  V30 1412 H 134.787 -3.15749 -2.36 0
M  V30 1413 H 136.075 -3.77834 -3.40762 0
M  V30 1414 H 135.473 -1.37182 -5.48815 0
M  V30 1415 H 134.03 -1.95073 -6.21924 0
M  V30 1416 N 137.463 0.71206 -1.40597 0
M  V30 1417 C 138.41 1.82613 -1.41142 0
M  V30 1418 C 139.38 1.63925 -0.267903 0
M  V30 1419 O 140.565 1.85009 -0.466495 0
M  V30 1420 C 137.705 3.20354 -1.28324 0
M  V30 1421 C 136.818 3.50589 -2.52411 0
M  V30 1422 C 135.953 4.77855 -2.32009 0
M  V30 1423 C 134.992 5.01005 -3.51654 0
M  V30 1424 N 134.129 6.19487 -3.30425 0
M  V30 1425 H 138.969 1.81482 -2.36365 0
M  V30 1426 H 136.506 0.886475 -1.17388 0
M  V30 1427 H 138.464 3.99899 -1.18899 0
M  V30 1428 H 137.094 3.20705 -0.367189 0
M  V30 1429 H 136.146 2.65573 -2.72351 0
M  V30 1430 H 137.458 3.63604 -3.41458 0
M  V30 1431 H 136.612 5.65424 -2.19956 0
M  V30 1432 H 135.351 4.67056 -1.40392 0
M  V30 1433 H 134.356 4.1189 -3.64179 0
M  V30 1434 H 135.581 5.13674 -4.44202 0
M  V30 1435 H 133.527 6.09932 -2.41494 0
M  V30 1436 H 133.444 6.33194 -4.13039 0
M  V30 1437 H 134.712 7.09834 -3.22113 0
M  V30 1438 N 138.941 1.26152 0.944643 0
M  V30 1439 C 139.904 1.07474 2.0244 0
M  V30 1440 C 140.904 0.0242064 1.60782 0
M  V30 1441 O 142.094 0.267302 1.72137 0
M  V30 1442 C 139.226 0.633956 3.34953 0
M  V30 1443 H 140.419 2.03336 2.20442 0
M  V30 1444 H 137.972 1.087 1.12312 0
M  V30 1445 H 138.707 -0.326811 3.22649 0
M  V30 1446 H 138.492 1.39247 3.66542 0
M  V30 1447 H 139.982 0.52501 4.14287 0
M  V30 1448 N 140.419 -1.14872 1.07899 0
M  V30 1449 C 141.349 -2.2193 0.725887 0
M  V30 1450 C 142.33 -1.67622 -0.28927 0
M  V30 1451 O 143.515 -1.93533 -0.160787 0
M  V30 1452 C 140.645 -3.47061 0.128856 0
M  V30 1453 C 139.599 -4.14363 1.07178 0
M  V30 1454 C 138.925 -5.33636 0.337229 0
M  V30 1455 C 140.225 -4.63492 2.40775 0
M  V30 1456 H 141.919 -2.51724 1.62097 0
M  V30 1457 H 139.465 -1.20991 0.780838 0
M  V30 1458 H 141.418 -4.21199 -0.130147 0
M  V30 1459 H 140.142 -3.16617 -0.80134 0
M  V30 1460 H 138.801 -3.42173 1.3158 0
M  V30 1461 H 138.449 -4.99449 -0.596606 0
M  V30 1462 H 138.149 -5.79609 0.965788 0
M  V30 1463 H 139.673 -6.10539 0.0861567 0
M  V30 1464 H 141.087 -5.2913 2.20669 0
M  V30 1465 H 139.484 -5.20148 2.99276 0
M  V30 1466 H 140.554 -3.78834 3.02676 0
M  V30 1467 N 141.898 -0.863906 -1.31812 0
M  V30 1468 C 142.828 -0.330843 -2.31144 0
M  V30 1469 C 143.809 0.575005 -1.60087 0
M  V30 1470 O 144.994 0.493304 -1.8783 0
M  V30 1471 C 142.124 0.47374 -3.44054 0
M  V30 1472 C 141.078 -0.338481 -4.26659 0
M  V30 1473 C 140.404 0.591412 -5.31419 0
M  V30 1474 C 141.704 -1.56926 -4.98168 0
M  V30 1475 H 143.398 -1.16086 -2.75979 0
M  V30 1476 H 140.944 -0.559657 -1.32679 0
M  V30 1477 H 142.897 0.857143 -4.12591 0
M  V30 1478 H 141.621 1.33721 -2.9797 0
M  V30 1479 H 140.28 -0.703754 -3.59782 0
M  V30 1480 H 139.928 1.45199 -4.81587 0
M  V30 1481 H 139.628 0.0519022 -5.87577 0
M  V30 1482 H 141.152 0.97179 -6.02817 0
M  V30 1483 H 142.566 -1.25764 -5.59336 0
M  V30 1484 H 140.963 -2.04739 -5.64094 0
M  V30 1485 H 142.033 -2.32544 -4.25501 0
M  V30 1486 N 143.376 1.44774 -0.622745 0
M  V30 1487 C 144.625 2.01334 -0.121397 0
M  V30 1488 C 144.938 1.49505 1.26125 0
M  V30 1489 O 146.144 1.98139 1.85616 0
M  V30 1490 C 144.6 3.59516 -0.166298 0
M  V30 1491 C 144.208 4.20342 -1.54974 0
M  V30 1492 C 145.952 4.23582 0.279021 0
M  V30 1493 C 143.859 5.70721 -1.55021 0
M  V30 1494 H 142.789 0.752851 -0.0416172 0
M  V30 1495 H 145.44 1.66083 -0.780309 0
M  V30 1496 H 143.822 3.92027 0.559557 0
M  V30 1497 H 144.996 3.99381 -2.29851 0
M  V30 1498 H 143.311 3.68529 -1.93843 0
M  V30 1499 H 145.908 5.33868 0.298083 0
M  V30 1500 H 146.251 3.95327 1.30471 0
M  V30 1501 H 146.784 3.95843 -0.394063 0
M  V30 1502 H 143.523 6.03698 -2.55399 0
M  V30 1503 H 143.043 5.93829 -0.844245 0
M  V30 1504 H 144.722 6.34203 -1.28047 0
M  V30 1505 N 144.854 0.36279 1.53368 0
M  V30 1506 C 146.079 -0.231226 2.06107 0
M  V30 1507 C 146.504 -1.419 1.23474 0
M  V30 1508 O 145.862 -1.79524 0.253128 0
M  V30 1509 C 145.91 -0.605523 3.5548 0
M  V30 1510 O 145.014 -1.70312 3.7559 0
M  V30 1511 H 144.355 -0.034327 0.663112 0
M  V30 1512 H 146.885 0.522584 1.97814 0
M  V30 1513 H 146.895 -0.877314 3.98456 0
M  V30 1514 H 145.57 0.263004 4.15068 0
M  V30 1515 H 144.147 -1.4271 3.44512 0
M  V30 1516 N 146.332 -1.57332 0.0918853 0
M  V30 1517 C 147.743 -1.81496 -0.437739 0
M  V30 1518 C 148.094 -1.00727 -1.6837 0
M  V30 1519 O 147.219 -0.235694 -2.15113 0
M  V30 1520 C 147.814 -3.29197 -0.800939 0
M  V30 1521 C 146.373 -3.54136 -1.27532 0
M  V30 1522 C 145.52 -2.75979 -0.270392 0
M  V30 1523 H 148.471 -1.55494 0.317366 0
M  V30 1524 H 148.492 -3.42344 -1.66074 0
M  V30 1525 H 148.004 -3.87955 0.106078 0
M  V30 1526 H 146.105 -3.00705 -2.20016 0
M  V30 1527 H 146.218 -4.62792 -1.23938 0
M  V30 1528 H 144.582 -2.43349 -0.751872 0
M  V30 1529 H 145.365 -3.37484 0.629248 0
M  V30 1530 N 147.81 0.181792 -1.56548 0
M  V30 1531 C 148.76 1.22961 -1.92002 0
M  V30 1532 C 149.744 1.40331 -0.787146 0
M  V30 1533 O 150.936 1.42478 -1.05019 0
M  V30 1534 C 148.065 2.57144 -2.27446 0
M  V30 1535 C 147.151 2.43512 -3.47222 0
M  V30 1536 N 147.542 1.99577 -4.64761 0
M  V30 1537 C 145.84 2.74368 -3.51622 0
M  V30 1538 C 146.541 1.98156 -5.46909 0
M  V30 1539 N 145.517 2.40164 -4.8767 0
M  V30 1540 H 149.319 0.881462 -2.8037 0
M  V30 1541 H 146.833 0.390141 -1.57644 0
M  V30 1542 H 148.83 3.32847 -2.51035 0
M  V30 1543 H 147.49 2.92771 -1.40411 0
M  V30 1544 H 148.501 1.70078 -4.89177 0
M  V30 1545 H 145.178 3.14102 -2.75038 0
M  V30 1546 H 146.568 1.65975 -6.51077 0
M  V30 1547 N 149.288 1.51039 0.449983 0
M  V30 1548 C 150.704 1.38934 0.785462 0
M  V30 1549 C 150.904 0.461817 1.96136 0
M  V30 1550 O 149.96 -0.0877389 2.52348 0
M  V30 1551 C 151.273 2.80724 1.0777 0
M  V30 1552 C 152.821 2.89787 1.1829 0
M  V30 1553 C 153.296 4.32457 1.50815 0
M  V30 1554 N 154.787 4.35505 1.57764 0
M  V30 1555 C 155.522 5.42914 1.84477 0
M  V30 1556 N 155.018 6.60502 2.09068 0
M  V30 1557 N 156.811 5.3038 1.86155 0
M  V30 1558 H 148.962 2.09904 -0.324647 0
M  V30 1559 H 151.225 0.944378 -0.0827957 0
M  V30 1560 H 150.931 3.50531 0.286498 0
M  V30 1561 H 150.805 3.19273 2.00859 0
M  V30 1562 H 153.192 2.20186 1.96474 0
M  V30 1563 H 153.273 2.54752 0.231314 0
M  V30 1564 H 152.917 5.02603 0.731622 0
M  V30 1565 H 152.847 4.64995 2.47158 0
M  V30 1566 H 155.338 3.50724 1.40715 0
M  V30 1567 H 155.651 7.38158 2.28785 0
M  V30 1568 H 153.996 6.63639 2.06416 0
M  V30 1569 H 157.187 4.37505 1.66454 0
M  V30 1570 H 157.36 6.1417 2.06637 0
M  V30 1571 N 150.766 -0.704594 1.40972 0
M  V30 1572 C 152.013 -1.46458 1.39844 0
M  V30 1573 C 152.341 -1.94499 0.00447594 0
M  V30 1574 O 151.596 -1.69275 -0.982057 0
M  V30 1575 C 151.895 -2.698 2.34399 0
M  V30 1576 C 151.561 -2.40464 3.81429 0
M  V30 1577 C 150.223 -2.32174 4.21484 0
M  V30 1578 C 152.575 -2.16086 4.74296 0
M  V30 1579 C 149.903 -1.97589 5.52427 0
M  V30 1580 C 152.255 -1.83011 6.05549 0
M  V30 1581 C 150.919 -1.7321 6.44635 0
M  V30 1582 H 150.189 -0.535927 0.511725 0
M  V30 1583 H 152.836 -0.806124 1.73706 0
M  V30 1584 H 151.141 -3.40536 1.93759 0
M  V30 1585 H 152.838 -3.27919 2.30804 0
M  V30 1586 H 149.428 -2.47808 3.49699 0
M  V30 1587 H 153.612 -2.2144 4.4416 0
M  V30 1588 H 148.868 -1.88547 5.81601 0
M  V30 1589 H 153.042 -1.63164 6.77016 0
M  V30 1590 H 150.669 -1.46179 7.46013 0
M  V30 1591 N 152.244 -1.26651 -0.937939 0
M  V30 1592 C 153.492 -1.12165 -1.68118 0
M  V30 1593 C 153.813 0.334983 -1.92101 0
M  V30 1594 O 153.083 1.23583 -1.52 0
M  V30 1595 H 151.663 -0.412093 -0.623048 0
M  V30 1596 H 154.325 -1.59027 -1.12678 0
M  V30 1597 H 153.421 -1.64289 -2.6536 0
M  V30 1598 N 153.722 1.14298 -1.08507 0
M  V30 1599 C 154.632 2.23027 -0.727753 0
M  V30 1600 C 155.648 1.71952 0.26619 0
M  V30 1601 O 156.824 2.011 0.109882 0
M  V30 1602 C 153.889 3.46403 -0.143541 0
M  V30 1603 C 152.95 4.12413 -1.19223 0
M  V30 1604 C 152.183 5.29899 -0.635798 0
M  V30 1605 O 152.406 5.67796 0.544393 0
M  V30 1606 O 151.34 5.85717 -1.38634 0
M  V30 1607 H 155.166 2.55945 -1.63481 0
M  V30 1608 H 152.751 1.22248 -0.858817 0
M  V30 1609 H 154.633 4.21018 0.179404 0
M  V30 1610 H 153.308 3.15206 0.736659 0
M  V30 1611 H 152.215 3.39667 -1.56772 0
M  V30 1612 H 153.548 4.47718 -2.04474 0
M  V30 1613 N 155.201 0.870884 1.31352 0
M  V30 1614 C 156.45 0.478408 1.95944 0
M  V30 1615 C 156.763 -0.974493 1.69597 0
M  V30 1616 O 157.969 -1.47316 2.28058 0
M  V30 1617 C 156.425 0.804609 3.50791 0
M  V30 1618 C 156.033 2.27433 3.85977 0
M  V30 1619 C 157.777 0.480648 4.2177 0
M  V30 1620 C 155.684 2.5429 5.33939 0
M  V30 1621 H 154.614 0.175175 0.733369 0
M  V30 1622 H 157.265 1.06391 1.4951 0
M  V30 1623 H 155.647 0.148347 3.95722 0
M  V30 1624 H 156.821 2.97373 3.52002 0
M  V30 1625 H 155.136 2.56442 3.28065 0
M  V30 1626 H 157.733 0.658519 5.30629 0
M  V30 1627 H 158.076 -0.578979 4.12254 0
M  V30 1628 H 158.609 1.09349 3.82476 0
M  V30 1629 H 155.348 3.58939 5.48491 0
M  V30 1630 H 154.868 1.88945 5.69263 0
M  V30 1631 H 156.547 2.39066 6.01212 0
M  V30 1632 N 156.679 -1.44442 0.630414 0
M  V30 1633 C 157.626 -2.30678 -0.0749355 0
M  V30 1634 C 158.596 -1.4344 -0.837502 0
M  V30 1635 O 159.781 -1.72343 -0.818684 0
M  V30 1636 C 156.921 -3.28706 -1.05103 0
M  V30 1637 C 156.034 -4.31046 -0.286954 0
M  V30 1638 C 155.169 -5.16167 -1.2548 0
M  V30 1639 C 154.208 -6.10216 -0.479843 0
M  V30 1640 N 153.345 -6.88039 -1.39811 0
M  V30 1641 H 158.185 -2.90454 0.666386 0
M  V30 1642 H 155.722 -1.43107 0.340404 0
M  V30 1643 H 157.68 -3.84027 -1.63031 0
M  V30 1644 H 156.31 -2.70632 -1.75949 0
M  V30 1645 H 155.362 -3.78203 0.408243 0
M  V30 1646 H 156.674 -4.97794 0.316657 0
M  V30 1647 H 155.828 -5.76002 -1.90544 0
M  V30 1648 H 154.567 -4.49491 -1.89233 0
M  V30 1649 H 153.572 -5.49491 0.184295 0
M  V30 1650 H 154.797 -6.78928 0.152965 0
M  V30 1651 H 152.743 -6.24032 -2.02287 0
M  V30 1652 H 152.66 -7.51223 -0.848508 0
M  V30 1653 H 153.928 -7.52397 -2.03762 0
M  V30 1654 N 158.157 -0.370918 -1.53173 0
M  V30 1655 C 159.405 0.216673 -2.00935 0
M  V30 1656 C 159.726 1.48845 -1.25977 0
M  V30 1657 O 158.996 1.92286 -0.374551 0
M  V30 1658 H 157.576 0.0830565 -0.742368 0
M  V30 1659 H 160.238 -0.49838 -1.8842 0
M  V30 1660 H 159.334 0.439893 -3.08984 0
M  V30 1661 N 159.635 1.57281 -0.100228 0
M  V30 1662 C 160.583 2.15542 0.874328 0
M  V30 1663 C 161.577 1.09962 1.28859 0
M  V30 1664 O 162.783 1.28298 1.26252 0
M  V30 1665 H 159.158 0.689567 0.300003 0
M  V30 1666 H 161.129 2.96241 0.35829 0
M  V30 1667 C 159.878 2.75454 2.1218 0
M  V30 1668 H 159.201 3.56384 1.81193 0
M  V30 1669 H 160.641 3.19781 2.78417 0
M  V30 1670 C 159.1 1.71602 2.89921 0
M  V30 1671 O 159.63 1.15804 3.84646 0
M  V30 1672 N 157.836 1.41975 2.53558 0
M  V30 1673 H 157.383 1.87539 1.76598 0
M  V30 1674 H 157.341 0.727274 3.05873 0
M  V30 1675 N 161.113 -0.173488 1.56642 0
M  V30 1676 C 162.338 -0.910149 1.86363 0
M  V30 1677 C 162.763 -1.75132 0.686318 0
M  V30 1678 O 162.121 -1.77595 -0.364643 0
M  V30 1679 C 162.169 -1.76447 3.14482 0
M  V30 1680 O 161.273 -2.86584 2.96553 0
M  V30 1681 H 160.614 -0.255086 0.613047 0
M  V30 1682 H 163.144 -0.172283 2.03873 0
M  V30 1683 H 163.154 -2.16483 3.45831 0
M  V30 1684 H 161.829 -1.14658 3.99783 0
M  V30 1685 H 160.406 -2.50146 2.76553 0
M  V30 1686 N 162.591 -1.51276 -0.441967 0
M  V30 1687 C 163.554 -1.7167 -1.51862 0
M  V30 1688 C 164.554 -0.586793 -1.49711 0
M  V30 1689 O 165.744 -0.854276 -1.51815 0
M  V30 1690 C 162.876 -1.76889 -2.91416 0
M  V30 1691 H 164.069 -2.67754 -1.35084 0
M  V30 1692 H 161.622 -1.41196 -0.670333 0
M  V30 1693 H 162.357 -0.826026 -3.13604 0
M  V30 1694 H 162.142 -2.59001 -2.94382 0
M  V30 1695 H 163.632 -1.94522 -3.69528 0
M  V30 1696 N 164.069 0.697108 -1.41344 0
M  V30 1697 C 165.48 1.27697 -1.36199 0
M  V30 1698 C 165.831 1.9615 -0.0443463 0
M  V30 1699 O 164.956 1.98689 0.857419 0
M  V30 1700 C 165.551 2.32223 -2.46694 0
M  V30 1701 C 164.11 2.8579 -2.44952 0
M  V30 1702 C 163.257 1.59807 -2.26621 0
M  V30 1703 H 166.208 0.491968 -1.50882 0
M  V30 1704 H 166.229 3.1348 -2.15664 0
M  V30 1705 H 165.741 1.82373 -3.42581 0
M  V30 1706 H 163.842 3.3982 -1.52817 0
M  V30 1707 H 163.955 3.36325 -3.41207 0
M  V30 1708 H 162.319 1.8556 -1.7447 0
M  V30 1709 H 163.102 1.11956 -3.24532 0
M  V30 1710 N 165.547 1.27147 0.931209 0
M  V30 1711 C 166.477 1.12081 2.04842 0
M  V30 1712 C 167.458 0.0232364 1.70084 0
M  V30 1713 O 168.643 0.197085 1.93197 0
M  V30 1714 C 165.773 0.76354 3.38803 0
M  V30 1715 C 164.727 1.81396 3.87659 0
M  V30 1716 C 164.053 1.31075 5.18385 0
M  V30 1717 C 165.353 3.21739 4.11438 0
M  V30 1718 H 167.047 2.05537 2.17703 0
M  V30 1719 H 164.593 0.989603 1.04608 0
M  V30 1720 H 166.546 0.644982 4.16435 0
M  V30 1721 H 165.27 -0.206727 3.25945 0
M  V30 1722 H 163.929 1.92136 3.12217 0
M  V30 1723 H 163.577 0.330037 5.01916 0
M  V30 1724 H 163.277 2.013 5.52044 0
M  V30 1725 H 164.801 1.20506 5.98591 0
M  V30 1726 H 166.215 3.14019 4.79651 0
M  V30 1727 H 164.612 3.89644 4.56397 0
M  V30 1728 H 165.682 3.67054 3.16859 0
M  V30 1729 N 167.025 -1.13721 1.09112 0
M  V30 1730 C 168.274 -1.84275 0.82009 0
M  V30 1731 C 168.587 -1.84253 -0.656509 0
M  V30 1732 O 169.793 -2.50668 -1.04296 0
M  V30 1733 C 168.249 -3.30825 1.41714 0
M  V30 1734 C 167.857 -3.39244 2.92605 0
M  V30 1735 C 169.601 -4.06443 1.22492 0
M  V30 1736 C 167.508 -4.80047 3.45411 0
M  V30 1737 H 166.438 -0.690387 0.30312 0
M  V30 1738 H 169.089 -1.28146 1.31343 0
M  V30 1739 H 167.471 -3.86737 0.851498 0
M  V30 1740 H 168.645 -2.93344 3.55367 0
M  V30 1741 H 166.96 -2.77088 3.10823 0
M  V30 1742 H 169.557 -5.10387 1.59402 0
M  V30 1743 H 169.9 -4.15972 0.165299 0
M  V30 1744 H 170.433 -3.56852 1.75788 0
M  V30 1745 H 167.172 -4.75709 4.50978 0
M  V30 1746 H 166.692 -5.26455 2.87411 0
M  V30 1747 H 168.371 -5.48957 3.42425 0
M  V30 1748 N 168.503 -0.877838 -1.30888 0
M  V30 1749 C 169.752 -0.488793 -1.95688 0
M  V30 1750 C 170.065 0.965485 -1.70111 0
M  V30 1751 O 171.271 1.46104 -2.28836 0
M  V30 1752 C 169.727 -0.823201 -3.50359 0
M  V30 1753 C 169.335 -2.29477 -3.84765 0
M  V30 1754 C 171.079 -0.503009 -4.21509 0
M  V30 1755 C 168.986 -2.57118 -5.32583 0
M  V30 1756 H 167.916 -0.179062 -0.732429 0
M  V30 1757 H 170.567 -1.07183 -1.48943 0
M  V30 1758 H 168.949 -0.169331 -3.95638 0
M  V30 1759 H 170.123 -2.99236 -3.5042 0
M  V30 1760 H 168.438 -2.58178 -3.267 0
M  V30 1761 H 171.035 -0.68665 -5.30273 0
M  V30 1762 H 171.378 0.557109 -4.12555 0
M  V30 1763 H 171.911 -1.11376 -3.8189 0
M  V30 1764 H 168.65 -3.61843 -5.4658 0
M  V30 1765 H 168.17 -1.91961 -5.68253 0
M  V30 1766 H 169.849 -2.42251 -5.99936 0
M  V30 1767 N 169.982 1.44106 -0.638065 0
M  V30 1768 C 171.398 1.56672 -0.304286 0
M  V30 1769 C 171.598 1.6244 1.19228 0
M  V30 1770 O 170.654 1.57121 1.9766 0
M  V30 1771 C 171.967 2.83503 -1.00231 0
M  V30 1772 C 173.515 2.97226 -0.981116 0
M  V30 1773 C 173.99 4.26868 -1.65974 0
M  V30 1774 N 175.481 4.33698 -1.62666 0
M  V30 1775 C 176.216 5.32745 -2.12063 0
M  V30 1776 N 175.712 6.38157 -2.6968 0
M  V30 1777 N 177.505 5.24299 -2.02651 0
M  V30 1778 H 169.656 1.38605 -1.60942 0
M  V30 1779 H 171.919 0.664661 -0.675965 0
M  V30 1780 H 171.625 2.85251 -2.0573 0
M  V30 1781 H 171.499 3.73251 -0.54439 0
M  V30 1782 H 173.886 2.95027 0.0654188 0
M  V30 1783 H 173.967 2.08808 -1.47759 0
M  V30 1784 H 173.611 4.29826 -2.70576 0
M  V30 1785 H 173.541 5.14156 -1.13804 0
M  V30 1786 H 176.032 3.58138 -1.20606 0
M  V30 1787 H 176.345 7.10029 -3.05087 0
M  V30 1788 H 174.69 6.38823 -2.73734 0
M  V30 1789 H 177.881 4.4086 -1.57353 0
M  V30 1790 H 178.054 6.01334 -2.41457 0
M  V30 1791 N 171.46 0.379036 1.52974 0
M  V30 1792 C 172.37 -0.468639 2.29872 0
M  V30 1793 C 173.386 -1.08067 1.36373 0
M  V30 1794 O 174.562 -1.08871 1.69438 0
M  V30 1795 C 171.627 -1.58594 3.083 0
M  V30 1796 C 170.688 -1.00007 4.17489 0
M  V30 1797 C 169.921 -2.06413 4.92168 0
M  V30 1798 O 170.144 -3.27751 4.66835 0
M  V30 1799 O 169.078 -1.68717 5.7777 0
M  V30 1800 H 172.904 0.157508 3.03291 0
M  V30 1801 H 170.489 0.143035 1.48714 0
M  V30 1802 H 172.371 -2.23525 3.57232 0
M  V30 1803 H 171.046 -2.19724 2.37703 0
M  V30 1804 H 169.953 -0.314299 3.72777 0
M  V30 1805 H 171.286 -0.433135 4.90291 0
M  V30 1806 N 172.938 -1.57226 0.108567 0
M  V30 1807 C 174.349 -1.8195 -0.418464 0
M  V30 1808 C 174.7 -1.02508 -1.67292 0
M  V30 1809 O 173.825 -0.258496 -2.14851 0
M  V30 1810 C 174.42 -3.30028 -0.765979 0
M  V30 1811 C 172.979 -3.55469 -1.23769 0
M  V30 1812 C 172.126 -2.7625 -0.241106 0
M  V30 1813 H 175.077 -1.55149 0.33384 0
M  V30 1814 H 175.098 -3.44086 -1.62434 0
M  V30 1815 H 174.61 -3.87821 0.147219 0
M  V30 1816 H 172.711 -3.03022 -2.16814 0
M  V30 1817 H 172.824 -4.6408 -1.19022 0
M  V30 1818 H 171.188 -2.44133 -0.72602 0
M  V30 1819 H 171.971 -3.36797 0.665007 0
M  V30 1820 N 174.416 0.165178 -1.56732 0
M  V30 1821 C 175.663 0.880807 -1.8234 0
M  V30 1822 C 175.991 1.81977 -0.686621 0
M  V30 1823 O 175.246 1.92971 0.325697 0
M  V30 1824 C 175.545 1.70405 -3.1416 0
M  V30 1825 C 175.211 0.913475 -4.4155 0
M  V30 1826 C 173.873 0.695303 -4.7615 0
M  V30 1827 C 176.225 0.359349 -5.1996 0
M  V30 1828 C 173.553 -0.0879947 -5.86634 0
M  V30 1829 C 175.905 -0.410893 -6.31264 0
M  V30 1830 C 174.569 -0.639808 -6.64427 0
M  V30 1831 H 173.839 0.32231 -0.667231 0
M  V30 1832 H 176.486 0.145402 -1.90947 0
M  V30 1833 H 174.791 2.50903 -3.00923 0
M  V30 1834 H 176.488 2.26091 -3.31186 0
M  V30 1835 H 173.078 1.09357 -4.14414 0
M  V30 1836 H 177.262 0.515228 -4.93618 0
M  V30 1837 H 172.518 -0.27503 -6.10781 0
M  V30 1838 H 176.692 -0.847494 -6.91224 0
M  V30 1839 H 174.319 -1.24864 -7.49875 0
M  V30 1840 N 175.894 1.51508 0.433938 0
M  V30 1841 C 177.14 1.64588 1.18484 0
M  V30 1842 C 177.473 0.362666 1.90784 0
M  V30 1843 O 176.748 -0.637892 1.83742 0
M  V30 1844 C 177.031 2.85149 2.19913 0
M  V30 1845 C 176.884 4.23456 1.51674 0
M  V30 1846 C 178.203 3.01227 3.20858 0
M  V30 1847 H 175.322 0.598994 0.429389 0
M  V30 1848 H 177.964 1.84002 0.473647 0
M  V30 1849 H 176.114 2.68729 2.80566 0
M  V30 1850 H 177.786 4.51552 0.943322 0
M  V30 1851 H 176.029 4.25998 0.819035 0
M  V30 1852 H 176.7 5.03812 2.2556 0
M  V30 1853 H 179.176 3.16382 2.70263 0
M  V30 1854 H 178.052 3.87141 3.89118 0
M  V30 1855 H 178.313 2.13447 3.8716 0
M  V30 1856 N 177.372 -0.689602 1.41712 0
M  V30 1857 C 178.335 -1.78521 1.43746 0
M  V30 1858 C 179.335 -1.57436 0.327191 0
M  V30 1859 O 180.525 -1.64 0.587348 0
M  V30 1860 C 177.657 -3.16971 1.25467 0
M  V30 1861 H 178.85 -1.78108 2.41283 0
M  V30 1862 H 176.403 -0.89781 1.27942 0
M  V30 1863 H 177.138 -3.23019 0.287948 0
M  V30 1864 H 176.923 -3.33678 2.05917 0
M  V30 1865 H 178.413 -3.96935 1.2974 0
M  V30 1866 N 178.85 -1.27639 -0.924453 0
M  V30 1867 C 180.09 -1.15407 -1.68703 0
M  V30 1868 C 180.454 0.294581 -1.89727 0
M  V30 1869 O 181.655 0.539385 -2.63333 0
M  V30 1870 C 179.926 -1.9195 -3.0148 0
M  V30 1871 S 181.485 -1.95969 -3.92609 0
M  V30 1872 H 178.303 -0.411937 -0.579507 0
M  V30 1873 H 180.905 -1.61592 -1.10038 0
M  V30 1874 H 179.609 -2.96387 -2.83871 0
M  V30 1875 H 179.14 -1.46272 -3.65196 0
M  V30 1876 H 181.155 -1.05846 -4.84779 0
M  V30 1877 N 180.328 1.1314 -1.09713 0
M  V30 1878 C 181.576 1.84119 -0.833338 0
M  V30 1879 C 181.897 1.84097 0.642904 0
M  V30 1880 O 181.167 1.29881 1.46655 0
M  V30 1881 H 179.747 0.681766 -0.305293 0
M  V30 1882 H 182.409 1.37038 -1.38588 0
M  V30 1883 H 181.505 2.88543 -1.18951 0
M  V30 1884 N 181.806 0.884767 1.30421 0
M  V30 1885 C 183.217 0.553656 1.78302 0
M  V30 1886 C 183.568 -0.930153 1.7275 0
M  V30 1887 O 182.693 -1.72681 1.30423 0
M  V30 1888 C 183.288 0.998234 3.2376 0
M  V30 1889 C 181.847 0.71854 3.69478 0
M  V30 1890 C 180.994 1.18132 2.50879 0
M  V30 1891 H 183.945 1.06901 1.17294 0
M  V30 1892 H 183.966 0.327118 3.79091 0
M  V30 1893 H 183.478 2.0782 3.27769 0
M  V30 1894 H 181.579 -0.349444 3.70958 0
M  V30 1895 H 181.692 1.30595 4.60958 0
M  V30 1896 H 180.056 0.600669 2.47516 0
M  V30 1897 H 180.839 2.26902 2.57624 0
M  V30 1898 N 183.284 -1.43765 0.645699 0
M  V30 1899 C 184.231 -2.30745 -0.0504648 0
M  V30 1900 C 185.201 -1.4432 -0.822241 0
M  V30 1901 O 186.386 -1.73202 -0.800358 0
M  V30 1902 C 183.526 -3.29802 -1.0161 0
M  V30 1903 C 182.639 -4.31326 -0.241219 0
M  V30 1904 C 181.774 -5.17469 -1.19998 0
M  V30 1905 C 180.813 -6.10691 -0.415094 0
M  V30 1906 N 179.95 -6.89483 -1.32506 0
M  V30 1907 H 184.79 -2.8973 0.697155 0
M  V30 1908 H 182.327 -1.42738 0.355563 0
M  V30 1909 H 184.285 -3.85734 -1.58949 0
M  V30 1910 H 182.915 -2.72483 -1.73069 0
M  V30 1911 H 181.967 -3.77749 0.448334 0
M  V30 1912 H 183.279 -4.9743 0.369437 0
M  V30 1913 H 182.433 -5.7799 -1.84424 0
M  V30 1914 H 181.172 -4.51473 -1.84455 0
M  V30 1915 H 180.177 -5.49265 0.242565 0
M  V30 1916 H 181.402 -6.78727 0.224966 0
M  V30 1917 H 179.348 -6.26142 -1.95657 0
M  V30 1918 H 179.265 -7.52081 -0.768783 0
M  V30 1919 H 180.533 -7.54516 -1.9577 0
M  V30 1920 N 184.763 -0.387143 -1.52771 0
M  V30 1921 C 185.673 0.456442 -2.30117 0
M  V30 1922 C 186.689 1.07342 -1.36944 0
M  V30 1923 O 187.865 1.07971 -1.70013 0
M  V30 1924 C 184.93 1.56957 -3.09136 0
M  V30 1925 C 183.991 0.977916 -4.18014 0
M  V30 1926 C 183.224 2.038 -4.93256 0
M  V30 1927 O 183.447 3.25271 -4.68567 0
M  V30 1928 O 182.381 1.6565 -5.78657 0
M  V30 1929 H 186.207 -0.17359 -3.03203 0
M  V30 1930 H 183.792 -0.150919 -1.48636 0
M  V30 1931 H 185.674 2.21628 -3.58412 0
M  V30 1932 H 184.349 2.18461 -2.38865 0
M  V30 1933 H 183.256 0.294525 -3.72939 0
M  V30 1934 H 184.589 0.407128 -4.90513 0
M  V30 1935 N 186.241 1.57166 -0.116904 0
M  V30 1936 C 187.481 1.97008 0.544715 0
M  V30 1937 C 187.845 0.998713 1.63981 0
M  V30 1938 O 189.046 1.28644 2.36018 0
M  V30 1939 C 187.317 3.41145 1.06559 0
M  V30 1940 S 188.876 4.02998 1.73603 0
M  V30 1941 H 185.694 0.688587 0.177112 0
M  V30 1942 H 188.296 1.94459 -0.201487 0
M  V30 1943 H 187 4.09592 0.257374 0
M  V30 1944 H 186.531 3.4734 1.84712 0
M  V30 1945 H 188.546 3.93585 3.02168 0
M  V30 1946 N 187.719 -0.156864 1.56817 0
M  V30 1947 C 189.135 -0.50916 1.5126 0
M  V30 1948 C 189.335 -1.83897 0.823658 0
M  V30 1949 O 188.391 -2.49469 0.390055 0
M  V30 1950 C 189.704 -0.52857 2.96018 0
M  V30 1951 C 191.252 -0.614771 3.06903 0
M  V30 1952 C 191.727 -0.664938 4.53147 0
M  V30 1953 N 193.218 -0.727433 4.57452 0
M  V30 1954 C 193.953 -0.787067 5.67973 0
M  V30 1955 N 193.449 -0.806649 6.88088 0
M  V30 1956 N 195.242 -0.827195 5.5598 0
M  V30 1957 H 187.393 0.714935 2.00006 0
M  V30 1958 H 189.656 0.259526 0.911784 0
M  V30 1959 H 189.362 0.380154 3.49639 0
M  V30 1960 H 189.236 -1.36998 3.51442 0
M  V30 1961 H 191.623 -1.51392 2.53307 0
M  V30 1962 H 191.704 0.253597 2.5454 0
M  V30 1963 H 191.348 0.230011 5.07379 0
M  V30 1964 H 191.278 -1.54966 5.03282 0
M  V30 1965 H 193.769 -0.719998 3.70978 0
M  V30 1966 H 194.082 -0.853727 7.6807 0
M  V30 1967 H 192.427 -0.774687 6.90669 0
M  V30 1968 H 195.618 -0.808998 4.61056 0
M  V30 1969 H 195.791 -0.870206 6.4213 0
M  V30 1970 N 189.197 -1.51736 -0.425897 0
M  V30 1971 C 190.147 -1.70258 -1.51645 0
M  V30 1972 C 191.131 -0.556488 -1.5097 0
M  V30 1973 O 192.323 -0.812879 -1.5723 0
M  V30 1974 C 189.452 -1.84143 -2.89735 0
M  V30 1975 C 188.538 -3.04572 -2.95122 0
M  V30 1976 N 188.929 -4.2756 -2.70233 0
M  V30 1977 C 187.227 -3.04061 -3.26286 0
M  V30 1978 C 187.928 -5.08908 -2.81757 0
M  V30 1979 N 186.904 -4.43797 -3.13919 0
M  V30 1980 H 190.706 -2.63004 -1.31172 0
M  V30 1981 H 188.22 -1.4954 -0.633375 0
M  V30 1982 H 190.217 -1.95525 -3.68206 0
M  V30 1983 H 188.877 -0.925857 -3.1122 0
M  V30 1984 H 189.888 -4.56315 -2.44943 0
M  V30 1985 H 186.565 -2.22179 -3.53473 0
M  V30 1986 H 187.955 -6.16843 -2.66372 0
M  V30 1987 N 190.675 0.682077 -1.42076 0
M  V30 1988 C 191.922 1.44215 -1.42156 0
M  V30 1989 C 192.25 1.94468 -0.0354186 0
M  V30 1990 O 191.505 1.70816 0.955002 0
M  V30 1991 C 191.804 2.66036 -2.38662 0
M  V30 1992 C 191.47 2.34366 -3.85206 0
M  V30 1993 C 190.132 2.25439 -4.25124 0
M  V30 1994 C 192.484 2.08513 -4.77673 0
M  V30 1995 C 189.812 1.88775 -5.55501 0
M  V30 1996 C 192.164 1.73354 -6.08384 0
M  V30 1997 C 190.828 1.62933 -6.47309 0
M  V30 1998 H 190.098 0.527718 -0.520187 0
M  V30 1999 H 192.745 0.778387 -1.74967 0
M  V30 2000 H 191.05 3.3741 -1.99152 0
M  V30 2001 H 192.747 3.24205 -2.35991 0
M  V30 2002 H 189.337 2.42213 -3.53597 0
M  V30 2003 H 193.521 2.14346 -4.47626 0
M  V30 2004 H 188.777 1.7927 -5.84527 0
M  V30 2005 H 192.951 1.52373 -6.79526 0
M  V30 2006 H 190.578 1.34292 -7.48244 0
M  V30 2007 N 192.153 1.28127 0.917671 0
M  V30 2008 C 193.116 1.11744 2.00115 0
M  V30 2009 C 194.116 0.0583052 1.60694 0
M  V30 2010 O 195.306 0.303755 1.71531 0
M  V30 2011 C 192.438 0.704862 3.33533 0
M  V30 2012 H 193.631 2.07966 2.16079 0
M  V30 2013 H 191.184 1.11058 1.09981 0
M  V30 2014 H 191.919 -0.258299 3.2327 0
M  V30 2015 H 191.704 1.4699 3.63505 0
M  V30 2016 H 193.194 0.612768 4.1308 0
M  V30 2017 N 193.631 -1.12557 1.10312 0
M  V30 2018 C 194.561 -2.20341 0.772798 0
M  V30 2019 C 195.542 -1.68198 -0.25365 0
M  V30 2020 O 196.727 -1.93831 -0.119699 0
M  V30 2021 C 193.857 -3.46709 0.202443 0
M  V30 2022 C 192.811 -4.11996 1.15943 0
M  V30 2023 C 192.137 -5.328 0.450345 0
M  V30 2024 C 193.437 -4.5828 2.50552 0
M  V30 2025 H 195.131 -2.48229 1.674 0
M  V30 2026 H 192.677 -1.19308 0.806326 0
M  V30 2027 H 194.63 -4.2138 -0.0407752 0
M  V30 2028 H 193.354 -3.18245 -0.734001 0
M  V30 2029 H 192.013 -3.39305 1.38808 0
M  V30 2030 H 191.661 -5.00602 -0.490531 0
M  V30 2031 H 191.361 -5.7743 1.08851 0
M  V30 2032 H 192.885 -6.10219 0.215642 0
M  V30 2033 H 194.299 -5.2433 2.31843 0
M  V30 2034 H 192.696 -5.13683 3.10242 0
M  V30 2035 H 193.766 -3.72329 3.10643 0
M  V30 2036 N 195.109 -0.891671 -1.2995 0
M  V30 2037 C 196.337 -0.52866 -2.00032 0
M  V30 2038 C 196.752 0.884574 -1.66795 0
M  V30 2039 O 196.109 1.5827 -0.908669 0
M  V30 2040 C 196.16 -0.701814 -3.54622 0
M  V30 2041 O 195.881 -2.05942 -3.86678 0
M  V30 2042 C 197.382 -0.342683 -4.41973 0
M  V30 2043 H 194.602 -0.203659 -0.639347 0
M  V30 2044 H 197.146 -1.19881 -1.65677 0
M  V30 2045 H 195.301 -0.0789468 -3.8732 0
M  V30 2046 H 195.715 -2.08291 -4.81368 0
M  V30 2047 H 197.189 -0.514709 -5.49595 0
M  V30 2048 H 197.666 0.71975 -4.33262 0
M  V30 2049 H 198.272 -0.942154 -4.14733 0
M  V30 2050 N 196.587 1.43421 -0.653314 0
M  V30 2051 C 197.537 2.2792 0.060558 0
M  V30 2052 C 198.521 1.39906 0.794677 0
M  V30 2053 O 199.713 1.63536 0.677128 0
M  V30 2054 C 196.842 3.27603 1.0262 0
M  V30 2055 C 195.928 4.23104 0.290551 0
M  V30 2056 N 196.319 5.01031 -0.692967 0
M  V30 2057 C 194.617 4.42816 0.531984 0
M  V30 2058 C 195.318 5.70626 -1.12963 0
M  V30 2059 N 194.294 5.41617 -0.463867 0
M  V30 2060 H 198.096 2.85585 -0.694143 0
M  V30 2061 H 195.61 1.55126 -0.480602 0
M  V30 2062 H 197.607 3.86918 1.55242 0
M  V30 2063 H 196.267 2.71499 1.78096 0
M  V30 2064 H 197.278 5.0669 -1.07169 0
M  V30 2065 H 193.955 3.97782 1.26791 0
M  V30 2066 H 195.345 6.4318 -1.94343 0
M  V30 2067 N 198.065 0.39524 1.52563 0
M  V30 2068 C 199.295 -0.184675 2.05773 0
M  V30 2069 C 199.703 -1.40571 1.26635 0
M  V30 2070 O 199.046 -1.81105 0.30769 0
M  V30 2071 C 199.108 -0.613551 3.54226 0
M  V30 2072 C 198.772 0.49484 4.54313 0
M  V30 2073 C 199.769 1.3541 5.01956 0
M  V30 2074 C 197.454 0.663565 4.97898 0
M  V30 2075 C 199.448 2.36716 5.91814 0
M  V30 2076 C 197.135 1.67996 5.87555 0
M  V30 2077 C 198.133 2.53017 6.34406 0
M  V30 2078 O 197.821 3.52917 7.22291 0
M  V30 2079 H 197.553 -0.030077 0.675331 0
M  V30 2080 H 200.107 0.560708 1.97599 0
M  V30 2081 H 198.337 -1.411 3.60038 0
M  V30 2082 H 200.026 -1.11981 3.90148 0
M  V30 2083 H 200.792 1.23509 4.6901 0
M  V30 2084 H 196.671 0.0114913 4.60999 0
M  V30 2085 H 200.215 3.03113 6.28306 0
M  V30 2086 H 196.112 1.79933 6.19915 0
M  V30 2087 H 196.88 3.48996 7.40367 0
M  V30 2088 N 199.544 -1.57102 0.125237 0
M  V30 2089 C 200.507 -2.14471 -0.80838 0
M  V30 2090 C 201.507 -1.0811 -1.19033 0
M  V30 2091 O 202.697 -1.33856 -1.11482 0
M  V30 2092 C 199.829 -2.69005 -2.09402 0
M  V30 2093 H 201.022 -2.98297 -0.309696 0
M  V30 2094 H 198.575 -1.55807 -0.124051 0
M  V30 2095 H 199.31 -1.88785 -2.63687 0
M  V30 2096 H 199.095 -3.46799 -1.82957 0
M  V30 2097 H 200.585 -3.13278 -2.76128 0
M  V30 2098 N 201.022 0.148545 -1.56898 0
M  V30 2099 C 201.985 1.16736 -1.97244 0
M  V30 2100 C 202.985 1.35947 -0.858777 0
M  V30 2101 O 204.175 1.32966 -1.12542 0
M  V30 2102 C 201.307 2.52798 -2.28705 0
M  V30 2103 H 202.5 0.821279 -2.88435 0
M  V30 2104 H 200.053 0.391831 -1.51309 0
M  V30 2105 H 200.788 2.92381 -1.403 0
M  V30 2106 H 200.573 2.40216 -3.09901 0
M  V30 2107 H 202.063 3.26179 -2.60762 0
M  V30 2108 N 202.5 1.5196 0.417844 0
M  V30 2109 C 203.432 1.70895 1.52733 0
M  V30 2110 C 204.445 0.589405 1.51756 0
M  V30 2111 O 205.634 0.864312 1.56179 0
M  V30 2112 C 202.734 1.72627 2.91639 0
M  V30 2113 C 201.907 3.01479 3.16905 0
M  V30 2114 C 200.966 2.95139 4.35637 0
M  V30 2115 O 199.992 3.69059 4.3334 0
M  V30 2116 N 201.194 2.12328 5.40275 0
M  V30 2117 H 203.959 2.66612 1.36888 0
M  V30 2118 H 201.52 1.50089 0.607037 0
M  V30 2119 H 203.512 1.65928 3.6912 0
M  V30 2120 H 202.082 0.844216 3.00985 0
M  V30 2121 H 201.302 3.21895 2.27546 0
M  V30 2122 H 202.59 3.86736 3.30625 0
M  V30 2123 H 201.988 1.51685 5.44985 0
M  V30 2124 H 200.545 2.11494 6.16534 0
M  V30 2125 N 203.978 -0.674533 1.42435 0
M  V30 2126 C 205.389 -1.25514 1.38214 0
M  V30 2127 C 205.74 -1.96055 0.0755464 0
M  V30 2128 O 204.865 -2.00028 -0.8257 0
M  V30 2129 C 205.46 -2.28269 2.50357 0
M  V30 2130 C 204.019 -2.81856 2.49467 0
M  V30 2131 C 203.166 -1.56182 2.29134 0
M  V30 2132 H 206.117 -0.467902 1.51646 0
M  V30 2133 H 206.138 -3.10009 2.20624 0
M  V30 2134 H 205.65 -1.769 3.45439 0
M  V30 2135 H 203.751 -3.37346 1.58204 0
M  V30 2136 H 203.864 -3.30854 3.46515 0
M  V30 2137 H 202.228 -1.82761 1.774 0
M  V30 2138 H 203.011 -1.06778 3.26272 0
M  V30 2139 N 205.456 -1.28612 -0.910864 0
M  V30 2140 C 206.704 -1.15705 -1.65701 0
M  V30 2141 C 207.025 0.29416 -1.92769 0
M  V30 2142 O 206.295 1.20331 -1.54588 0
M  V30 2143 H 204.875 -0.425216 -0.614167 0
M  V30 2144 H 207.537 -1.61381 -1.0928 0
M  V30 2145 H 206.633 -1.6988 -2.61815 0
M  V30 2146 N 206.934 1.1197 -1.10907 0
M  V30 2147 C 208.182 1.83225 -0.852819 0
M  V30 2148 C 208.503 1.84769 0.623341 0
M  V30 2149 O 207.773 1.3143 1.45269 0
M  V30 2150 H 206.353 0.67849 -0.312507 0
M  V30 2151 H 209.015 1.3556 -1.40033 0
M  V30 2152 H 208.111 2.87265 -1.22005 0
M  V30 2153 N 208.412 0.89855 1.29475 0
M  V30 2154 C 209.642 0.538479 1.99459 0
M  V30 2155 C 210.05 -0.880922 1.67441 0
M  V30 2156 O 209.393 -1.59283 0.915127 0
M  V30 2157 C 209.455 0.649564 3.53583 0
M  V30 2158 C 209.119 2.03573 4.09154 0
M  V30 2159 C 210.116 3.00675 4.24135 0
M  V30 2160 C 207.801 2.3448 4.44212 0
M  V30 2161 C 209.795 4.26809 4.73405 0
M  V30 2162 C 207.482 3.60857 4.93179 0
M  V30 2163 C 208.48 4.56836 5.0773 0
M  V30 2164 O 208.168 5.80969 5.55635 0
M  V30 2165 H 207.9 0.205372 0.644048 0
M  V30 2166 H 210.454 1.20958 1.66007 0
M  V30 2167 H 208.684 -0.0785592 3.8662 0
M  V30 2168 H 210.373 0.29881 4.04799 0
M  V30 2169 H 211.139 2.78112 3.97339 0
M  V30 2170 H 207.018 1.60534 4.32145 0
M  V30 2171 H 210.562 5.0173 4.84678 0
M  V30 2172 H 206.459 3.83251 5.19412 0
M  V30 2173 H 207.227 5.83542 5.73952 0
M  V30 2174 N 209.89 -1.43072 0.660911 0
M  V30 2175 C 211.12 -2.05769 0.185153 0
M  V30 2176 C 211.528 -1.49668 -1.15742 0
M  V30 2177 O 210.871 -0.625649 -1.72717 0
M  V30 2178 C 210.933 -3.59489 0.0278237 0
M  V30 2179 C 210.597 -4.38212 1.2969 0
M  V30 2180 C 211.594 -4.69772 2.22734 0
M  V30 2181 C 209.279 -4.7809 1.54063 0
M  V30 2182 C 211.273 -5.40129 3.38437 0
M  V30 2183 C 208.96 -5.4819 2.70058 0
M  V30 2184 C 209.958 -5.79132 3.62071 0
M  V30 2185 O 209.646 -6.47798 4.76039 0
M  V30 2186 H 209.378 -0.669873 0.0908086 0
M  V30 2187 H 211.932 -1.84436 0.90402 0
M  V30 2188 H 210.162 -3.79426 -0.746489 0
M  V30 2189 H 211.851 -4.03862 -0.406275 0
M  V30 2190 H 212.617 -4.39476 2.05149 0
M  V30 2191 H 208.496 -4.53408 0.833215 0
M  V30 2192 H 212.04 -5.64198 4.10277 0
M  V30 2193 H 207.937 -5.77902 2.87574 0
M  V30 2194 H 208.705 -6.66283 4.75404 0
M  V30 2195 N 211.368 -0.403325 -1.52352 0
M  V30 2196 C 212.316 0.439752 -2.28405 0
M  V30 2197 C 213.31 1.05089 -1.32863 0
M  V30 2198 O 214.516 0.989759 -1.50345 0
M  V30 2199 H 210.891 0.160587 -0.734653 0
M  V30 2200 H 212.862 -0.222983 -2.97566 0
M  V30 2201 C 211.611 1.54736 -3.11371 0
M  V30 2202 H 210.934 1.08643 -3.84755 0
M  V30 2203 H 212.374 2.1112 -3.67701 0
M  V30 2204 C 210.833 2.51141 -2.24566 0
M  V30 2205 O 211.363 3.54887 -1.88196 0
M  V30 2206 N 209.569 2.21213 -1.8845 0
M  V30 2207 H 209.116 1.36878 -2.18225 0
M  V30 2208 H 209.074 2.85963 -1.30662 0
M  V30 2209 N 212.846 1.57033 -0.133567 0
M  V30 2210 C 214.094 1.953 0.519848 0
M  V30 2211 C 214.415 1.01866 1.66278 0
M  V30 2212 O 213.685 0.0776513 1.95746 0
M  V30 2213 H 212.265 0.721091 0.195032 0
M  V30 2214 H 214.927 1.93809 -0.205921 0
M  V30 2215 H 214.023 2.98695 0.904854 0
M  V30 2216 N 214.325 -0.140222 1.56975 0
M  V30 2217 C 215.553 -0.866437 1.87884 0
M  V30 2218 C 215.968 -1.74428 0.722517 0
M  V30 2219 O 215.325 -1.79891 -0.30749 0
M  V30 2220 C 215.376 -1.71753 3.18093 0
M  V30 2221 O 215.097 -0.875056 4.29272 0
M  V30 2222 C 216.598 -2.55074 3.62563 0
M  V30 2223 H 213.818 -0.25019 0.622612 0
M  V30 2224 H 216.362 -0.130977 2.0408 0
M  V30 2225 H 214.517 -2.40598 3.03631 0
M  V30 2226 H 214.931 -1.46002 5.03769 0
M  V30 2227 H 216.405 -3.10356 4.5649 0
M  V30 2228 H 216.882 -3.31434 2.88181 0
M  V30 2229 H 217.488 -1.91509 3.79743 0
M  V30 2230 N 215.803 -1.52179 -0.40978 0
M  V30 2231 C 217.219 -1.40968 -0.74835 0
M  V30 2232 C 217.419 -0.513657 -1.94843 0
M  V30 2233 O 216.475 0.0208026 -2.52491 0
M  V30 2234 C 217.788 -2.83483 -1.0029 0
M  V30 2235 C 219.336 -2.92821 -1.10565 0
M  V30 2236 C 219.811 -4.36303 -1.39296 0
M  V30 2237 N 221.302 -4.39535 -1.46162 0
M  V30 2238 C 222.037 -5.47614 -1.70018 0
M  V30 2239 N 221.533 -6.65812 -1.91483 0
M  V30 2240 N 223.326 -5.35129 -1.72027 0
M  V30 2241 H 215.477 -2.0897 0.380186 0
M  V30 2242 H 217.74 -0.94185 0.107805 0
M  V30 2243 H 217.446 -3.51168 -0.193461 0
M  V30 2244 H 217.32 -3.24487 -1.92323 0
M  V30 2245 H 219.707 -2.25318 -1.90568 0
M  V30 2246 H 219.788 -2.55276 -0.16369 0
M  V30 2247 H 219.432 -5.04366 -0.598109 0
M  V30 2248 H 219.362 -4.71385 -2.34743 0
M  V30 2249 H 221.853 -3.54332 -1.31367 0
M  V30 2250 H 222.166 -7.43964 -2.09134 0
M  V30 2251 H 220.511 -6.68879 -1.88749 0
M  V30 2252 H 223.702 -4.41764 -1.54796 0
M  V30 2253 H 223.875 -6.19433 -1.9028 0
M  V30 2254 N 217.281 0.66697 -1.42791 0
M  V30 2255 C 218.228 1.7803 -1.4688 0
M  V30 2256 C 219.198 1.6299 -0.319919 0
M  V30 2257 O 220.383 1.83432 -0.525118 0
M  V30 2258 C 217.523 3.1611 -1.38451 0
M  V30 2259 C 216.636 3.42381 -2.63437 0
M  V30 2260 C 215.771 4.70232 -2.47094 0
M  V30 2261 C 214.81 4.89564 -3.67415 0
M  V30 2262 N 213.947 6.08661 -3.49966 0
M  V30 2263 H 218.787 1.7387 -2.42019 0
M  V30 2264 H 216.324 0.84868 -1.20149 0
M  V30 2265 H 218.282 3.95914 -1.31561 0
M  V30 2266 H 216.912 3.19374 -0.469033 0
M  V30 2267 H 215.964 2.56774 -2.80662 0
M  V30 2268 H 217.276 3.52557 -3.52853 0
M  V30 2269 H 216.43 5.5814 -2.37834 0
M  V30 2270 H 215.169 4.62353 -1.5518 0
M  V30 2271 H 214.174 4.00096 -3.77099 0
M  V30 2272 H 215.399 4.99282 -4.6032 0
M  V30 2273 H 213.345 6.0194 -2.60776 0
M  V30 2274 H 213.262 6.19733 -4.32975 0
M  V30 2275 H 214.53 6.99226 -3.44532 0
M  V30 2276 N 218.759 1.29093 0.90403 0
M  V30 2277 C 220.036 1.075 1.63411 0
M  V30 2278 C 220.416 -0.382346 2.07609 0
M  V30 2279 O 219.764 -1.37031 1.82851 0
M  V30 2280 C 219.974 2.05858 2.81822 0
M  V30 2281 C 221.322 2.36539 3.52611 0
M  V30 2282 O 222.346 2.04019 2.91984 0
M  V30 2283 O 221.205 2.92085 4.61897 0
M  V30 2284 H 218.299 0.411547 0.717327 0
M  V30 2285 H 220.845 1.40449 0.952479 0
M  V30 2286 H 219.617 3.04037 2.46327 0
M  V30 2287 H 219.24 1.73613 3.57693 0
M  V30 2288 N 220.237 -1.11381 1.11499 0
M  V30 2289 C 221.653 -1.35143 0.849031 0
M  V30 2290 C 221.853 -1.94515 -0.525938 0
M  V30 2291 O 220.909 -2.1785 -1.27662 0
M  V30 2292 C 222.222 -2.28249 1.95762 0
M  V30 2293 C 223.77 -2.41812 1.98736 0
M  V30 2294 C 224.245 -3.3824 3.088 0
M  V30 2295 N 225.736 -3.45803 3.08179 0
M  V30 2296 C 226.471 -4.20358 3.89982 0
M  V30 2297 N 225.967 -4.97884 4.8175 0
M  V30 2298 N 227.76 -4.15877 3.78157 0
M  V30 2299 H 219.911 -0.712062 2.00109 0
M  V30 2300 H 222.174 -0.376025 0.870235 0
M  V30 2301 H 221.88 -1.91817 2.94787 0
M  V30 2302 H 221.754 -3.28473 1.85433 0
M  V30 2303 H 224.141 -2.77518 1.00338 0
M  V30 2304 H 224.222 -1.41437 2.13141 0
M  V30 2305 H 223.866 -3.03261 4.07425 0
M  V30 2306 H 223.796 -4.38471 2.91635 0
M  V30 2307 H 226.287 -2.90506 2.41691 0
M  V30 2308 H 226.6 -5.52142 5.40702 0
M  V30 2309 H 224.945 -4.97043 4.85771 0
M  V30 2310 H 228.136 -3.544 3.05808 0
M  V30 2311 H 228.309 -4.73723 4.42143 0
M  V30 2312 N 221.715 -0.905404 -1.28997 0
M  V30 2313 C 222.663 -0.377431 -2.29517 0
M  V30 2314 C 223.657 0.526461 -1.61012 0
M  V30 2315 O 224.863 0.40863 -1.753 0
M  V30 2316 H 221.238 -0.103437 -0.744852 0
M  V30 2317 H 223.209 -1.23848 -2.71485 0
M  V30 2318 C 221.958 0.374833 -3.45674 0
M  V30 2319 H 221.281 -0.311474 -3.98585 0
M  V30 2320 H 222.721 0.70903 -4.1803 0
M  V30 2321 C 221.18 1.57963 -2.97572 0
M  V30 2322 O 221.71 2.67886 -2.99333 0
M  V30 2323 N 219.916 1.42375 -2.53333 0
M  V30 2324 H 219.463 0.529466 -2.521 0
M  V30 2325 H 219.421 2.23117 -2.21509 0
M  V30 2326 N 223.193 1.4272 -0.668489 0
M  V30 2327 C 224.14 2.30796 0.0137489 0
M  V30 2328 C 225.11 1.4561 0.799177 0
M  V30 2329 O 226.295 1.74453 0.772702 0
M  V30 2330 C 223.435 3.31377 0.963507 0
M  V30 2331 C 222.548 4.31655 0.172569 0
M  V30 2332 C 221.683 5.19312 1.1175 0
M  V30 2333 C 220.722 6.11274 0.317886 0
M  V30 2334 N 219.859 6.91504 1.2152 0
M  V30 2335 H 224.699 2.88585 -0.743161 0
M  V30 2336 H 222.236 1.42154 -0.378226 0
M  V30 2337 H 224.194 3.88214 1.52792 0
M  V30 2338 H 222.824 2.75202 1.68712 0
M  V30 2339 H 221.876 3.76988 -0.508374 0
M  V30 2340 H 223.188 4.96779 -0.448527 0
M  V30 2341 H 222.342 5.80851 1.75206 0
M  V30 2342 H 221.081 4.5435 1.77249 0
M  V30 2343 H 220.086 5.48809 -0.329918 0
M  V30 2344 H 221.311 6.78283 -0.332917 0
M  V30 2345 H 219.257 6.29176 1.85671 0
M  V30 2346 H 219.174 7.53209 0.649036 0
M  V30 2347 H 220.442 7.57535 1.83742 0
M  V30 2348 N 224.671 0.411399 1.52136 0
M  V30 2349 C 225.601 -0.404015 2.29978 0
M  V30 2350 C 226.582 -1.04412 1.34284 0
M  V30 2351 O 227.767 -1.0527 1.63192 0
M  V30 2352 C 224.897 -1.5197 3.12286 0
M  V30 2353 C 223.851 -1.00448 4.16046 0
M  V30 2354 C 223.177 -2.21393 4.86712 0
M  V30 2355 C 224.477 -0.0569336 5.22269 0
M  V30 2356 H 226.171 0.245529 2.98392 0
M  V30 2357 H 223.717 0.119525 1.43503 0
M  V30 2358 H 225.67 -2.09715 3.6551 0
M  V30 2359 H 224.394 -2.19716 2.41646 0
M  V30 2360 H 223.053 -0.449421 3.63835 0
M  V30 2361 H 222.701 -2.87699 4.12599 0
M  V30 2362 H 222.401 -1.87571 5.56858 0
M  V30 2363 H 223.925 -2.7974 5.4275 0
M  V30 2364 H 225.339 -0.54325 5.7072 0
M  V30 2365 H 223.736 0.192594 5.99791 0
M  V30 2366 H 224.806 0.887663 4.76706 0
M  V30 2367 N 226.149 -1.5696 0.141893 0
M  V30 2368 C 227.565 -1.58151 -0.21456 0
M  V30 2369 C 227.765 -1.1559 -1.65049 0
M  V30 2370 O 226.821 -0.853832 -2.37626 0
M  V30 2371 C 228.134 -3.00674 0.0395576 0
M  V30 2372 C 229.682 -3.1299 -0.0245529 0
M  V30 2373 C 230.157 -4.57554 0.202167 0
M  V30 2374 N 231.648 -4.62961 0.148919 0
M  V30 2375 C 232.383 -5.7262 0.298924 0
M  V30 2376 N 231.879 -6.90947 0.50637 0
M  V30 2377 N 233.672 -5.61601 0.236886 0
M  V30 2378 H 225.823 -1.8292 1.07953 0
M  V30 2379 H 228.086 -0.846425 0.42693 0
M  V30 2380 H 227.792 -3.36183 1.03315 0
M  V30 2381 H 227.666 -3.70981 -0.682143 0
M  V30 2382 H 230.053 -2.77326 -1.00869 0
M  V30 2383 H 230.134 -2.4518 0.729396 0
M  V30 2384 H 229.778 -4.93922 1.18338 0
M  V30 2385 H 229.708 -5.23484 -0.572044 0
M  V30 2386 H 232.199 -3.77899 -0.00697015 0
M  V30 2387 H 232.512 -7.7038 0.611076 0
M  V30 2388 H 230.857 -6.92878 0.542628 0
M  V30 2389 H 234.048 -4.68039 0.0756209 0
M  V30 2390 H 234.221 -6.47015 0.357227 0
M  V30 2391 N 227.627 0.131896 -1.57047 0
M  V30 2392 C 228.577 1.1679 -1.95816 0
M  V30 2393 C 229.561 1.37756 -0.831393 0
M  V30 2394 O 230.753 1.39065 -1.09499 0
M  V30 2395 C 227.882 2.49778 -2.35512 0
M  V30 2396 C 226.968 2.32342 -3.54793 0
M  V30 2397 N 227.359 1.8469 -4.70875 0
M  V30 2398 C 225.657 2.63043 -3.60173 0
M  V30 2399 C 226.358 1.80656 -5.52936 0
M  V30 2400 N 225.334 2.24528 -4.95064 0
M  V30 2401 H 229.136 0.791818 -2.83033 0
M  V30 2402 H 226.65 0.339791 -1.58805 0
M  V30 2403 H 228.647 3.24692 -2.61498 0
M  V30 2404 H 227.307 2.88156 -1.49654 0
M  V30 2405 H 228.318 1.54429 -4.9434 0
M  V30 2406 H 224.995 3.05193 -2.84892 0
M  V30 2407 H 226.385 1.45178 -6.56028 0
M  V30 2408 N 229.106 1.52395 0.401703 0
M  V30 2409 C 230.036 1.79231 1.49661 0
M  V30 2410 C 231.017 0.643654 1.57452 0
M  V30 2411 O 232.202 0.889989 1.72606 0
M  V30 2412 C 229.332 1.94971 2.87409 0
M  V30 2413 C 228.286 3.10604 2.94465 0
M  V30 2414 C 227.612 3.11577 4.34538 0
M  V30 2415 C 228.912 4.49921 2.6527 0
M  V30 2416 H 230.606 2.70917 1.27454 0
M  V30 2417 H 228.152 1.30362 0.6117 0
M  V30 2418 H 230.105 2.12328 3.63999 0
M  V30 2419 H 228.829 0.999632 3.10926 0
M  V30 2420 H 227.488 2.93009 2.20321 0
M  V30 2421 H 227.136 2.14277 4.55076 0
M  V30 2422 H 226.836 3.89247 4.40183 0
M  V30 2423 H 228.36 3.31073 5.13053 0
M  V30 2424 H 229.774 4.67683 3.31581 0
M  V30 2425 H 228.171 5.29564 2.82281 0
M  V30 2426 H 229.241 4.57507 1.60671 0
M  V30 2427 N 230.584 -0.659388 1.43143 0
M  V30 2428 C 231.83 -1.42145 1.44647 0
M  V30 2429 C 232.163 -1.9408 0.0681907 0
M  V30 2430 O 231.438 -1.71899 -0.910007 0
M  V30 2431 C 231.721 -2.60735 2.48373 0
M  V30 2432 C 231.574 -2.14332 3.95451 0
M  V30 2433 C 232.893 -3.62951 2.48906 0
M  V30 2434 H 230.012 -0.51552 0.526696 0
M  V30 2435 H 232.654 -0.748069 1.74654 0
M  V30 2436 H 230.804 -3.18184 2.22916 0
M  V30 2437 H 232.476 -1.61932 4.31944 0
M  V30 2438 H 230.719 -1.4576 4.08578 0
M  V30 2439 H 231.39 -2.99583 4.63631 0
M  V30 2440 H 233.866 -3.1525 2.71582 0
M  V30 2441 H 232.742 -4.43487 3.23435 0
M  V30 2442 H 233.003 -4.15126 1.52061 0
M  V30 2443 N 232.062 -1.29571 -0.897171 0
M  V30 2444 C 233.287 -1.20705 -1.68656 0
M  V30 2445 C 233.712 0.228582 -1.86706 0
M  V30 2446 O 233.07 1.16494 -1.3892 0
M  V30 2447 C 233.118 -1.9282 -3.04717 0
M  V30 2448 O 232.222 -1.24697 -3.93096 0
M  V30 2449 H 231.563 -0.418126 -0.515816 0
M  V30 2450 H 234.093 -1.71183 -1.12061 0
M  V30 2451 H 234.103 -2.01372 -3.54843 0
M  V30 2452 H 232.778 -2.97239 -2.90899 0
M  V30 2453 H 231.355 -1.2442 -3.51531 0
M  V30 2454 N 233.54 1.10788 -1.12088 0
M  V30 2455 C 234.786 1.82942 -0.875226 0
M  V30 2456 C 235.119 1.84779 0.597538 0
M  V30 2457 O 234.394 1.30578 1.44152 0
M  V30 2458 C 234.677 3.29789 -1.44606 0
M  V30 2459 C 234.53 3.36307 -2.98693 0
M  V30 2460 C 235.849 4.26064 -1.10261 0
M  V30 2461 H 232.968 0.664195 -0.319397 0
M  V30 2462 H 235.61 1.29867 -1.38689 0
M  V30 2463 H 233.76 3.75118 -1.01089 0
M  V30 2464 H 235.432 2.99487 -3.50864 0
M  V30 2465 H 233.675 2.76318 -3.34411 0
M  V30 2466 H 234.346 4.39694 -3.33726 0
M  V30 2467 H 236.822 3.88951 -1.4784 0
M  V30 2468 H 235.698 5.27183 -1.52869 0
M  V30 2469 H 235.959 4.42098 -0.0142953 0
M  V30 2470 N 235.018 0.912232 1.28515 0
M  V30 2471 C 235.965 0.397954 2.27343 0
M  V30 2472 C 236.935 -0.526766 1.57526 0
M  V30 2473 O 238.12 -0.449292 1.85435 0
M  V30 2474 C 235.26 -0.357263 3.43246 0
M  V30 2475 C 234.373 0.599788 4.27816 0
M  V30 2476 C 233.508 -0.173725 5.30916 0
M  V30 2477 C 232.547 0.777039 6.07148 0
M  V30 2478 N 231.684 0.0371398 7.0209 0
M  V30 2479 H 236.524 1.24577 2.70711 0
M  V30 2480 H 234.061 0.625612 1.33133 0
M  V30 2481 H 236.019 -0.8113 4.09236 0
M  V30 2482 H 234.649 -1.16943 3.00872 0
M  V30 2483 H 233.701 1.17235 3.61884 0
M  V30 2484 H 235.013 1.32704 4.80823 0
M  V30 2485 H 234.167 -0.688394 6.02782 0
M  V30 2486 H 232.906 -0.934041 4.78672 0
M  V30 2487 H 231.911 1.3031 5.34134 0
M  V30 2488 H 233.136 1.53689 6.61481 0
M  V30 2489 H 231.082 -0.705213 6.52198 0
M  V30 2490 H 230.999 0.704249 7.52713 0
M  V30 2491 H 232.267 -0.457383 7.78157 0
M  V30 2492 N 236.496 -1.42363 0.676048 0
M  V30 2493 C 237.426 -2.33497 0.0124832 0
M  V30 2494 C 238.407 -1.50748 -0.787981 0
M  V30 2495 O 239.592 -1.79346 -0.744884 0
M  V30 2496 C 236.722 -3.34377 -0.938582 0
M  V30 2497 C 235.676 -4.27289 -0.246622 0
M  V30 2498 C 235.002 -5.18386 -1.31071 0
M  V30 2499 C 236.302 -5.14916 0.875125 0
M  V30 2500 H 237.996 -2.89233 0.773593 0
M  V30 2501 H 235.542 -1.39073 0.37346 0
M  V30 2502 H 237.495 -3.97044 -1.41188 0
M  V30 2503 H 236.219 -2.76947 -1.73113 0
M  V30 2504 H 234.878 -3.66018 0.206456 0
M  V30 2505 H 234.526 -4.57282 -2.09528 0
M  V30 2506 H 234.226 -5.81378 -0.852839 0
M  V30 2507 H 235.75 -5.83929 -1.78492 0
M  V30 2508 H 237.164 -5.71262 0.482983 0
M  V30 2509 H 235.561 -5.86747 1.25887 0
M  V30 2510 H 236.631 -4.53242 1.72335 0
M  V30 2511 N 237.974 -0.419461 -1.51915 0
M  V30 2512 C 239.222 0.152637 -2.01523 0
M  V30 2513 C 239.543 1.44762 -1.30649 0
M  V30 2514 O 238.813 1.90997 -0.435535 0
M  V30 2515 H 237.393 0.0593966 -0.744635 0
M  V30 2516 H 240.055 -0.558073 -1.86739 0
M  V30 2517 H 239.151 0.341369 -3.10227 0
M  V30 2518 N 239.452 1.56882 -0.150215 0
M  V30 2519 C 240.399 2.16922 0.788244 0
M  V30 2520 C 241.369 1.10303 1.24187 0
M  V30 2521 O 242.554 1.38359 1.31383 0
M  V30 2522 C 239.694 2.79754 2.02068 0
M  V30 2523 C 238.807 4.00775 1.61257 0
M  V30 2524 C 237.942 4.51595 2.79705 0
M  V30 2525 C 236.981 5.65074 2.35282 0
M  V30 2526 N 236.118 6.10499 3.4675 0
M  V30 2527 H 240.958 2.96779 0.269444 0
M  V30 2528 H 238.495 1.46599 0.12128 0
M  V30 2529 H 240.453 3.14329 2.74323 0
M  V30 2530 H 239.083 2.02536 2.51354 0
M  V30 2531 H 238.135 3.72158 0.787553 0
M  V30 2532 H 239.447 4.82978 1.24633 0
M  V30 2533 H 238.601 4.88242 3.60145 0
M  V30 2534 H 237.34 3.68406 3.19576 0
M  V30 2535 H 236.345 5.28 1.53283 0
M  V30 2536 H 237.57 6.50052 1.96493 0
M  V30 2537 H 235.516 5.30243 3.86236 0
M  V30 2538 H 235.433 6.87637 3.14152 0
M  V30 2539 H 236.701 6.51791 4.27537 0
M  V30 2540 N 240.93 -0.123565 1.57115 0
M  V30 2541 C 242.179 -0.830704 1.83799 0
M  V30 2542 C 242.492 -1.81259 0.735158 0
M  V30 2543 O 243.698 -2.56558 0.888278 0
M  V30 2544 C 242.154 -1.52802 3.25852 0
M  V30 2545 C 241.762 -0.587356 4.44133 0
M  V30 2546 C 243.506 -2.22056 3.61789 0
M  V30 2547 C 241.413 -1.28764 5.77212 0
M  V30 2548 H 240.343 -0.313967 0.685522 0
M  V30 2549 H 242.994 -0.0834359 1.8331 0
M  V30 2550 H 241.376 -2.32175 3.20797 0
M  V30 2551 H 242.55 0.172829 4.60476 0
M  V30 2552 H 240.865 -0.00201892 4.164 0
M  V30 2553 H 243.462 -2.75131 4.58483 0
M  V30 2554 H 243.805 -2.99644 2.88997 0
M  V30 2555 H 244.338 -1.49576 3.68608 0
M  V30 2556 H 241.077 -0.55314 6.53162 0
M  V30 2557 H 240.597 -2.01995 5.64764 0
M  V30 2558 H 242.276 -1.8221 6.20813 0
M  V30 2559 N 242.408 -1.52605 -0.393616 0
M  V30 2560 C 243.819 -1.59417 -0.971761 0
M  V30 2561 C 244.17 -0.444173 -1.91106 0
M  V30 2562 O 243.295 0.433382 -2.12016 0
M  V30 2563 C 243.89 -2.88936 -1.76921 0
M  V30 2564 C 242.449 -2.98175 -2.29714 0
M  V30 2565 C 241.596 -2.54491 -1.10135 0
M  V30 2566 H 244.547 -1.57751 -0.173317 0
M  V30 2567 H 244.568 -2.75163 -2.62804 0
M  V30 2568 H 244.08 -3.72616 -1.08532 0
M  V30 2569 H 242.181 -2.19024 -3.01429 0
M  V30 2570 H 242.294 -4.02726 -2.59517 0
M  V30 2571 H 240.658 -2.08702 -1.45999 0
M  V30 2572 H 241.441 -3.4056 -0.432874 0
M  V30 2573 N 243.887 0.651787 -1.4349 0
M  V30 2574 C 245.115 1.43937 -1.48626 0
M  V30 2575 C 245.53 1.8851 -0.104587 0
M  V30 2576 O 244.887 1.5958 0.885464 0
M  V30 2577 C 244.938 2.6734 -2.43334 0
M  V30 2578 O 244.659 2.24631 -3.76128 0
M  V30 2579 C 246.16 3.60683 -2.57726 0
M  V30 2580 H 243.38 0.44213 -0.504739 0
M  V30 2581 H 245.924 0.798944 -1.88248 0
M  V30 2582 H 244.079 3.2752 -2.06904 0
M  V30 2583 H 244.493 3.04485 -4.2707 0
M  V30 2584 H 245.967 4.43933 -3.28067 0
M  V30 2585 H 246.444 4.08126 -1.62265 0
M  V30 2586 H 247.05 3.06384 -2.94973 0
M  V30 2587 N 245.365 1.30045 0.890287 0
M  V30 2588 C 246.611 1.18737 1.64406 0
M  V30 2589 C 246.944 -0.258525 1.92472 0
M  V30 2590 O 246.219 -1.18562 1.54186 0
M  V30 2591 C 246.502 2.01087 2.98724 0
M  V30 2592 C 246.355 3.53867 2.77665 0
M  V30 2593 C 247.674 1.84457 3.9958 0
M  V30 2594 H 244.793 0.432698 0.596608 0
M  V30 2595 H 247.435 1.5962 1.0306 0
M  V30 2596 H 245.585 1.66349 3.51084 0
M  V30 2597 H 247.257 3.98637 2.32133 0
M  V30 2598 H 245.5 3.78318 2.12269 0
M  V30 2599 H 246.171 4.06772 3.7315 0
M  V30 2600 H 248.647 2.14817 3.56361 0
M  V30 2601 H 247.523 2.44411 4.91482 0
M  V30 2602 H 247.784 0.802276 4.3476 0
M  V30 2603 N 246.843 -1.10192 1.12674 0
M  V30 2604 C 247.753 -2.20172 0.810026 0
M  V30 2605 C 248.769 -1.72821 -0.202188 0
M  V30 2606 O 249.945 -2.01369 -0.0351691 0
M  V30 2607 C 247.01 -3.45631 0.272007 0
M  V30 2608 C 246.071 -4.07704 1.34447 0
M  V30 2609 C 245.304 -5.27175 0.832029 0
M  V30 2610 O 245.527 -5.69425 -0.333284 0
M  V30 2611 O 244.461 -5.80168 1.60277 0
M  V30 2612 H 248.287 -2.49701 1.72867 0
M  V30 2613 H 245.872 -1.18977 0.903597 0
M  V30 2614 H 247.754 -4.21394 -0.0230219 0
M  V30 2615 H 246.429 -3.17723 -0.619164 0
M  V30 2616 H 245.336 -3.33614 1.6927 0
M  V30 2617 H 246.669 -4.3982 2.2095 0
M  V30 2618 N 248.321 -0.919034 -1.28029 0
M  V30 2619 C 249.269 -0.401753 -2.29104 0
M  V30 2620 C 250.263 0.509354 -1.61561 0
M  V30 2621 O 251.469 0.390014 -1.75724 0
M  V30 2622 H 247.844 -0.111331 -0.743713 0
M  V30 2623 H 249.815 -1.2672 -2.70156 0
M  V30 2624 C 248.564 0.338148 -3.46052 0
M  V30 2625 H 247.887 -0.353732 -3.98232 0
M  V30 2626 H 249.327 0.664653 -4.18758 0
M  V30 2627 C 247.786 1.54798 -2.99231 0
M  V30 2628 O 248.316 2.64696 -3.02157 0
M  V30 2629 N 246.522 1.3968 -2.54829 0
M  V30 2630 H 246.069 0.502698 -2.52647 0
M  V30 2631 H 246.027 2.20755 -2.23863 0
M  V30 2632 N 249.799 1.42003 -0.683588 0
M  V30 2633 C 251.024 2.06265 -0.216647 0
M  V30 2634 C 251.449 1.51059 1.12083 0
M  V30 2635 O 250.807 0.632638 1.69904 0
M  V30 2636 C 250.855 3.60191 -0.171759 0
M  V30 2637 O 249.959 4.03396 0.857069 0
M  V30 2638 H 249.3 0.65502 -0.108834 0
M  V30 2639 H 251.83 1.81982 -0.935077 0
M  V30 2640 H 251.84 4.08 0.0014303 0
M  V30 2641 H 250.515 3.99743 -1.14796 0
M  V30 2642 H 249.092 3.67117 0.654208 0
M  V30 2643 N 251.277 0.427512 1.51691 0
M  V30 2644 C 252.526 -0.143679 2.01188 0
M  V30 2645 C 252.839 -1.44642 1.31674 0
M  V30 2646 O 254.045 -2.09997 1.72086 0
M  V30 2647 C 252.501 -0.306602 3.58592 0
M  V30 2648 C 252.109 0.985125 4.37035 0
M  V30 2649 C 253.853 -0.832091 4.16265 0
M  V30 2650 C 251.76 0.788382 5.86122 0
M  V30 2651 H 250.69 -0.0574701 0.751807 0
M  V30 2652 H 253.341 0.555772 1.74881 0
M  V30 2653 H 251.723 -1.06882 3.81303 0
M  V30 2654 H 252.897 1.75492 4.26074 0
M  V30 2655 H 251.212 1.4384 3.90767 0
M  V30 2656 H 253.809 -0.995617 5.25349 0
M  V30 2657 H 254.152 -1.81186 3.74803 0
M  V30 2658 H 254.685 -0.128444 3.97593 0
M  V30 2659 H 251.424 1.74025 6.31978 0
M  V30 2660 H 250.944 0.0582143 5.99772 0
M  V30 2661 H 252.623 0.437722 6.45518 0
M  V30 2662 N 252.755 -1.56801 0.158532 0
M  V30 2663 C 254.002 -1.9649 -0.489679 0
M  V30 2664 C 254.33 -1.04394 -1.6411 0
M  V30 2665 O 253.585 -0.0754401 -1.95555 0
M  V30 2666 C 253.884 -3.4235 -1.02623 0
M  V30 2667 C 253.55 -4.50899 0.00794526 0
M  V30 2668 C 252.212 -4.80312 0.292207 0
M  V30 2669 C 254.564 -5.16333 0.710584 0
M  V30 2670 C 251.892 -5.72461 1.28472 0
M  V30 2671 C 254.244 -6.09553 1.69199 0
M  V30 2672 C 252.908 -6.37339 1.98383 0
M  V30 2673 H 252.178 -0.719009 -0.179186 0
M  V30 2674 H 254.825 -1.8989 0.247798 0
M  V30 2675 H 253.13 -3.45838 -1.84128 0
M  V30 2676 H 254.827 -3.70393 -1.53656 0
M  V30 2677 H 251.417 -4.28015 -0.22379 0
M  V30 2678 H 255.601 -4.93732 0.504174 0
M  V30 2679 H 250.857 -5.92278 1.51714 0
M  V30 2680 H 255.031 -6.59327 2.24189 0
M  V30 2681 H 252.658 -7.08546 2.7544 0
M  V30 2682 N 254.233 0.115231 -1.57178 0
M  V30 2683 C 255.183 1.14707 -1.97044 0
M  V30 2684 C 256.167 1.36866 -0.845957 0
M  V30 2685 O 257.359 1.37895 -1.10968 0
M  V30 2686 C 254.488 2.47266 -2.38148 0
M  V30 2687 C 253.574 2.28566 -3.57237 0
M  V30 2688 N 253.965 1.79685 -4.72807 0
M  V30 2689 C 252.263 2.59208 -3.62943 0
M  V30 2690 C 252.964 1.74781 -5.54821 0
M  V30 2691 N 251.94 2.19264 -4.97417 0
M  V30 2692 H 255.742 0.761754 -2.83857 0
M  V30 2693 H 253.256 0.322928 -1.59157 0
M  V30 2694 H 255.253 3.219 -2.64927 0
M  V30 2695 H 253.913 2.86552 -1.52702 0
M  V30 2696 H 254.924 1.49177 -4.9595 0
M  V30 2697 H 251.601 3.02154 -2.88113 0
M  V30 2698 H 252.991 1.38212 -6.57531 0
M  V30 2699 N 255.711 1.52812 0.385517 0
M  V30 2700 C 256.644 1.72592 1.49289 0
M  V30 2701 C 257.622 0.573819 1.52138 0
M  V30 2702 O 258.806 0.80404 1.70492 0
M  V30 2703 C 255.933 1.78669 2.87741 0
M  V30 2704 C 254.979 3.00455 3.02703 0
M  V30 2705 S 255.812 4.60366 2.73538 0
M  V30 2706 C 256.968 4.69263 4.14177 0
M  V30 2707 H 257.201 2.66248 1.32285 0
M  V30 2708 H 254.734 1.43148 0.578611 0
M  V30 2709 H 256.692 1.82855 3.67524 0
M  V30 2710 H 255.353 0.861 3.02069 0
M  V30 2711 H 254.546 3.01258 4.04054 0
M  V30 2712 H 254.148 2.94278 2.30817 0
M  V30 2713 H 256.44 4.48092 5.08153 0
M  V30 2714 H 257.383 5.71276 4.18388 0
M  V30 2715 H 257.791 3.98072 4.00249 0
M  V30 2716 N 257.189 -0.644168 1.43834 0
M  V30 2717 C 258.152 -1.73857 1.49353 0
M  V30 2718 C 259.152 -1.56315 0.377112 0
M  V30 2719 O 260.342 -1.62048 0.639226 0
M  V30 2720 C 257.474 -3.12819 1.35488 0
M  V30 2721 H 258.667 -1.70342 2.46827 0
M  V30 2722 H 256.22 -0.856652 1.30733 0
M  V30 2723 H 256.955 -3.2194 0.390569 0
M  V30 2724 H 256.74 -3.26958 2.16428 0
M  V30 2725 H 258.23 -3.92606 1.42302 0
M  V30 2726 N 258.668 -1.30515 -0.883378 0
M  V30 2727 C 259.631 -1.1701 -1.97082 0
M  V30 2728 C 260.631 -0.10089 -1.60483 0
M  V30 2729 O 261.821 -0.349127 -1.70666 0
M  V30 2730 C 258.953 -0.793045 -3.31547 0
M  V30 2731 H 260.146 -2.13622 -2.10489 0
M  V30 2732 H 257.699 -1.13935 -1.06998 0
M  V30 2733 H 258.434 0.172499 -3.23841 0
M  V30 2734 H 258.219 -1.56576 -3.5948 0
M  V30 2735 H 259.709 -0.722073 -4.1131 0
M  V30 2736 N 260.146 1.09593 -1.13257 0
M  V30 2737 C 261.392 1.82181 -0.904521 0
M  V30 2738 C 261.747 1.83967 0.563358 0
M  V30 2739 O 261.04 1.29566 1.41149 0
M  V30 2740 C 261.234 3.27802 -1.42411 0
M  V30 2741 C 261.063 3.40201 -2.94097 0
M  V30 2742 C 259.833 3.52104 -3.62424 0
M  V30 2743 C 262.031 3.32875 -3.92044 0
M  V30 2744 N 260.013 3.53169 -5.0214 0
M  V30 2745 C 261.384 3.40789 -5.17941 0
M  V30 2746 C 263.439 3.16531 -3.84334 0
M  V30 2747 C 262.142 3.34042 -6.37031 0
M  V30 2748 C 264.168 3.11109 -5.02956 0
M  V30 2749 C 263.53 3.19614 -6.27715 0
M  V30 2750 H 259.629 0.681015 -0.384373 0
M  V30 2751 H 262.213 1.3099 -1.44048 0
M  V30 2752 H 260.384 3.77466 -0.915086 0
M  V30 2753 H 262.116 3.88393 -1.13722 0
M  V30 2754 H 258.871 3.5548 -3.12939 0
M  V30 2755 H 259.295 3.57291 -5.75041 0
M  V30 2756 H 263.937 3.08827 -2.88766 0
M  V30 2757 H 261.655 3.4051 -7.32857 0
M  V30 2758 H 265.241 2.99601 -4.98729 0
M  V30 2759 H 264.121 3.15432 -7.17964 0
M  V30 2760 N 261.624 0.925811 1.2754 0
M  V30 2761 C 262.849 0.580924 1.99098 0
M  V30 2762 C 263.274 -0.833555 1.68622 0
M  V30 2763 O 262.632 -1.55903 0.925422 0
M  V30 2764 C 262.68 0.811186 3.51358 0
M  V30 2765 O 261.784 -0.124129 4.12213 0
M  V30 2766 H 261.125 0.223873 0.625122 0
M  V30 2767 H 263.655 1.24455 1.62395 0
M  V30 2768 H 263.665 0.72601 4.01489 0
M  V30 2769 H 262.34 1.84227 3.72872 0
M  V30 2770 H 260.917 0.0108006 3.72898 0
M  V30 2771 N 263.102 -1.41638 0.69111 0
M  V30 2772 C 264.35 -2.00902 0.219758 0
M  V30 2773 C 264.671 -1.54994 -1.18329 0
M  V30 2774 O 263.941 -0.778628 -1.79762 0
M  V30 2775 H 262.521 -0.74289 0.0782558 0
M  V30 2776 H 265.183 -1.73327 0.891271 0
M  V30 2777 H 264.279 -3.11224 0.233708 0
M  V30 2778 N 264.58 -0.43555 -1.51462 0
M  V30 2779 C 265.805 0.132627 -2.06976 0
M  V30 2780 C 266.23 1.35848 -1.30104 0
M  V30 2781 O 265.588 1.78112 -0.338493 0
M  V30 2782 C 265.636 0.43523 -3.57964 0
M  V30 2783 O 264.74 1.52198 -3.83288 0
M  V30 2784 H 264.081 0.00265 -0.663995 0
M  V30 2785 H 266.611 -0.616369 -1.95095 0
M  V30 2786 H 266.621 0.686206 -4.02188 0
M  V30 2787 H 265.296 -0.460739 -4.1334 0
M  V30 2788 H 263.873 1.2611 -3.50928 0
M  V30 2789 N 266.058 1.56714 -0.166846 0
M  V30 2790 C 267.021 2.16539 0.751232 0
M  V30 2791 C 268.021 1.11228 1.16125 0
M  V30 2792 O 269.211 1.36765 1.07894 0
M  V30 2793 C 266.343 2.74462 2.02196 0
M  V30 2794 H 267.536 2.99013 0.230499 0
M  V30 2795 H 265.089 1.56081 0.0826982 0
M  V30 2796 H 265.824 1.95709 2.58589 0
M  V30 2797 H 265.609 3.51527 1.73698 0
M  V30 2798 H 267.099 3.20489 2.67725 0
M  V30 2799 N 267.536 -0.106894 1.57237 0
M  V30 2800 C 268.776 -0.818277 1.87306 0
M  V30 2801 C 269.14 -1.76474 0.756371 0
M  V30 2802 O 270.341 -2.5186 0.939155 0
M  V30 2803 C 268.612 -1.53806 3.22612 0
M  V30 2804 S 270.171 -2.28935 3.74345 0
M  V30 2805 H 266.989 -0.272862 0.656557 0
M  V30 2806 H 269.591 -0.075988 1.95352 0
M  V30 2807 H 268.295 -0.834951 4.01817 0
M  V30 2808 H 267.826 -2.32049 3.17674 0
M  V30 2809 H 269.841 -3.54871 3.46815 0
M  V30 2810 N 269.014 -1.53014 -0.377408 0
M  V30 2811 C 269.964 -1.74996 -1.46152 0
M  V30 2812 C 270.948 -0.604236 -1.49123 0
M  V30 2813 O 272.14 -0.862489 -1.54564 0
M  V30 2814 C 269.269 -1.93267 -2.8373 0
M  V30 2815 C 268.355 -3.13807 -2.85283 0
M  V30 2816 N 268.746 -4.35941 -2.56493 0
M  V30 2817 C 267.044 -3.14288 -3.16448 0
M  V30 2818 C 267.745 -5.17615 -2.65424 0
M  V30 2819 N 266.721 -4.53559 -2.99641 0
M  V30 2820 H 270.523 -2.67044 -1.22738 0
M  V30 2821 H 268.037 -1.51479 -0.585479 0
M  V30 2822 H 270.034 -2.0714 -3.61799 0
M  V30 2823 H 268.694 -1.0244 -3.08117 0
M  V30 2824 H 269.705 -4.63876 -2.30302 0
M  V30 2825 H 266.382 -2.33312 -3.46225 0
M  V30 2826 H 267.772 -6.25006 -2.46612 0
M  V30 2827 N 270.492 0.636531 -1.44174 0
M  V30 2828 C 271.769 1.39463 -1.37148 0
M  V30 2829 C 272.149 2.11082 -0.027507 0
M  V30 2830 O 271.497 2.05954 0.989716 0
M  V30 2831 C 271.707 2.36552 -2.56601 0
M  V30 2832 C 273.055 3.00048 -3.00427 0
M  V30 2833 O 274.079 2.46878 -2.56767 0
M  V30 2834 O 272.938 3.96488 -3.76111 0
M  V30 2835 H 270.032 0.623903 -0.542839 0
M  V30 2836 H 272.578 0.662039 -1.56253 0
M  V30 2837 H 271.35 1.82692 -3.46034 0
M  V30 2838 H 270.973 3.17236 -2.39681 0
M  V30 2839 N 271.97 1.30982 0.876444 0
M  V30 2840 C 273.218 1.20058 1.62575 0
M  V30 2841 C 273.539 -0.242947 1.93481 0
M  V30 2842 O 272.809 -1.1619 1.57724 0
M  V30 2843 H 271.389 0.44135 0.602677 0
M  V30 2844 H 274.051 1.64222 1.04962 0
M  V30 2845 H 273.147 1.76762 2.57219 0
M  V30 2846 N 273.449 -1.08991 1.13837 0
M  V30 2847 C 274.865 -1.33312 0.877506 0
M  V30 2848 C 275.065 -1.95587 -0.48456 0
M  V30 2849 O 274.121 -2.20509 -1.23013 0
M  V30 2850 C 275.434 -2.24045 2.0056 0
M  V30 2851 C 276.982 -2.37542 2.03821 0
M  V30 2852 C 277.457 -3.31614 3.15905 0
M  V30 2853 N 278.948 -3.39189 3.15445 0
M  V30 2854 C 279.683 -4.11992 3.98811 0
M  V30 2855 N 279.179 -4.87553 4.92203 0
M  V30 2856 N 280.972 -4.07762 3.86894 0
M  V30 2857 H 273.123 -0.669456 2.01574 0
M  V30 2858 H 275.386 -0.357482 0.878015 0
M  V30 2859 H 275.092 -1.85521 2.98789 0
M  V30 2860 H 274.966 -3.24466 1.92359 0
M  V30 2861 H 277.353 -2.75327 1.06202 0
M  V30 2862 H 277.434 -1.36884 2.16093 0
M  V30 2863 H 277.078 -2.94551 4.13766 0
M  V30 2864 H 277.008 -4.32186 3.0087 0
M  V30 2865 H 279.499 -2.85314 2.47799 0
M  V30 2866 H 279.812 -5.40549 5.52292 0
M  V30 2867 H 278.157 -4.86627 4.96205 0
M  V30 2868 H 281.348 -3.47833 3.13257 0
M  V30 2869 H 281.521 -4.64238 4.52092 0
M  V30 2870 N 274.927 -0.932562 -1.27047 0
M  V30 2871 C 275.837 -0.441219 -2.30414 0
M  V30 2872 C 276.853 0.480525 -1.67233 0
M  V30 2873 O 278.029 0.362151 -1.98117 0
M  V30 2874 C 275.094 0.293651 -3.45454 0
M  V30 2875 C 274.155 -0.663601 -4.2414 0
M  V30 2876 C 273.388 0.0362932 -5.33688 0
M  V30 2877 O 273.611 1.2548 -5.56427 0
M  V30 2878 O 272.545 -0.638015 -5.98509 0
M  V30 2879 H 276.371 -1.29962 -2.74488 0
M  V30 2880 H 273.956 -0.6981 -1.32087 0
M  V30 2881 H 275.838 0.707951 -4.15411 0
M  V30 2882 H 274.513 1.12758 -3.03426 0
M  V30 2883 H 273.42 -1.12768 -3.56699 0
M  V30 2884 H 274.753 -1.46489 -4.69896 0
M  V30 2885 N 276.405 1.4127 -0.698611 0
M  V30 2886 C 277.651 2.01979 -0.239972 0
M  V30 2887 C 278.006 1.54353 1.14861 0
M  V30 2888 O 277.299 0.746218 1.76471 0
M  V30 2889 C 277.493 3.56592 -0.240192 0
M  V30 2890 C 277.322 4.19226 -1.62726 0
M  V30 2891 C 276.092 4.53389 -2.23084 0
M  V30 2892 C 278.29 4.45228 -2.57443 0
M  V30 2893 N 276.272 5.01327 -3.54323 0
M  V30 2894 C 277.643 4.94973 -3.73365 0
M  V30 2895 C 279.698 4.27243 -2.55671 0
M  V30 2896 C 278.401 5.28624 -4.878 0
M  V30 2897 C 280.427 4.61985 -3.69221 0
M  V30 2898 C 279.789 5.11904 -4.83873 0
M  V30 2899 H 275.888 0.770561 -0.133269 0
M  V30 2900 H 278.472 1.71767 -0.916748 0
M  V30 2901 H 276.643 3.86271 0.406082 0
M  V30 2902 H 278.375 4.04025 0.23356 0
M  V30 2903 H 275.13 4.39946 -1.75341 0
M  V30 2904 H 275.554 5.29697 -4.21604 0
M  V30 2905 H 280.196 3.87884 -1.68243 0
M  V30 2906 H 277.914 5.66905 -5.75885 0
M  V30 2907 H 281.5 4.49725 -3.69105 0
M  V30 2908 H 280.38 5.38282 -5.70282 0
M  V30 2909 N 277.883 0.443576 1.51229 0
M  V30 2910 C 279.111 -0.11929 2.06556 0
M  V30 2911 C 279.526 -1.35921 1.31038 0
M  V30 2912 O 278.883 -1.78675 0.371704 0
M  V30 2913 C 278.934 -0.435228 3.5887 0
M  V30 2914 O 278.655 0.755486 4.31537 0
M  V30 2915 C 280.156 -1.04808 4.30732 0
M  V30 2916 H 277.376 -0.0051584 0.67098 0
M  V30 2917 H 279.92 0.624453 1.94733 0
M  V30 2918 H 278.075 -1.12887 3.70588 0
M  V30 2919 H 278.489 0.483491 5.22267 0
M  V30 2920 H 279.963 -1.2191 5.3837 0
M  V30 2921 H 280.44 -2.03081 3.89429 0
M  V30 2922 H 281.046 -0.393637 4.23474 0
M  V30 2923 N 279.361 -1.56624 0.175154 0
M  V30 2924 C 280.591 -2.01082 -0.474283 0
M  V30 2925 C 280.999 -1.05447 -1.57091 0
M  V30 2926 O 280.342 -0.0480595 -1.83637 0
M  V30 2927 C 280.404 -3.41963 -1.10911 0
M  V30 2928 C 280.068 -4.56742 -0.153666 0
M  V30 2929 C 281.065 -5.16076 0.629448 0
M  V30 2930 C 278.75 -5.02277 -0.0483776 0
M  V30 2931 C 280.744 -6.19377 1.50501 0
M  V30 2932 C 278.431 -6.05427 0.830768 0
M  V30 2933 C 279.429 -6.63849 1.60605 0
M  V30 2934 O 279.117 -7.64998 2.47049 0
M  V30 2935 H 278.849 -0.664261 -0.125432 0
M  V30 2936 H 281.403 -2.03549 0.275163 0
M  V30 2937 H 279.633 -3.36422 -1.90676 0
M  V30 2938 H 281.322 -3.70352 -1.66114 0
M  V30 2939 H 282.088 -4.81776 0.558297 0
M  V30 2940 H 277.967 -4.56513 -0.641611 0
M  V30 2941 H 281.511 -6.64906 2.1106 0
M  V30 2942 H 277.408 -6.39151 0.903107 0
M  V30 2943 H 278.176 -7.82336 2.40607 0
M  V30 2944 N 280.839 0.0985539 -1.57292 0
M  V30 2945 C 282.088 0.801358 -1.85098 0
M  V30 2946 C 282.401 1.80066 -0.763902 0
M  V30 2947 O 283.607 2.55112 -0.928981 0
M  V30 2948 C 282.063 1.47599 -3.28242 0
M  V30 2949 C 281.671 0.516624 -4.45011 0
M  V30 2950 C 283.415 2.16272 -3.65276 0
M  V30 2951 C 281.322 1.19564 -5.79188 0
M  V30 2952 H 280.252 0.303022 -0.69043 0
M  V30 2953 H 282.903 0.0542623 -1.8342 0
M  V30 2954 H 281.285 2.27042 -3.2445 0
M  V30 2955 H 282.459 -0.246065 -4.60143 0
M  V30 2956 H 280.774 -0.064227 -4.1635 0
M  V30 2957 H 283.371 2.67802 -4.62803 0
M  V30 2958 H 283.714 2.95009 -2.93727 0
M  V30 2959 H 284.247 1.43693 -3.70941 0
M  V30 2960 H 280.986 0.449157 -6.53959 0
M  V30 2961 H 280.506 1.92984 -5.67906 0
M  V30 2962 H 282.185 1.7231 -6.23633 0
M  V30 2963 N 282.317 1.53212 0.369288 0
M  V30 2964 C 283.565 1.68881 1.11012 0
M  V30 2965 C 283.886 0.441285 1.89941 0
M  V30 2966 O 283.156 -0.544623 1.88177 0
M  V30 2967 H 281.736 0.622569 0.412816 0
M  V30 2968 H 284.398 1.90391 0.416802 0
M  V30 2969 H 283.494 2.54822 1.80201 0
M  V30 2970 N 283.795 -0.628877 1.44509 0
M  V30 2971 C 285.041 -1.39045 1.47629 0
M  V30 2972 C 285.374 -1.93892 0.109343 0
M  V30 2973 O 284.649 -1.7379 -0.87334 0
M  V30 2974 C 284.932 -2.55408 2.53848 0
M  V30 2975 C 284.785 -2.05896 3.99909 0
M  V30 2976 C 286.104 -3.5759 2.56549 0
M  V30 2977 H 283.223 -0.504232 0.537512 0
M  V30 2978 H 285.865 -0.710854 1.76201 0
M  V30 2979 H 284.015 -3.13384 2.29615 0
M  V30 2980 H 285.687 -1.52734 4.35282 0
M  V30 2981 H 283.93 -1.37061 4.11578 0
M  V30 2982 H 284.601 -2.89681 4.69882 0
M  V30 2983 H 287.077 -3.09419 2.78207 0
M  V30 2984 H 285.953 -4.36527 3.32769 0
M  V30 2985 H 286.214 -4.11808 1.60832 0
M  V30 2986 N 285.273 -1.31445 -0.869486 0
M  V30 2987 C 286.55 -1.11795 -1.60503 0
M  V30 2988 C 286.93 0.327168 -2.08549 0
M  V30 2989 O 286.278 1.32135 -1.8642 0
M  V30 2990 C 286.488 -2.13258 -2.76265 0
M  V30 2991 C 287.836 -2.45805 -3.46215 0
M  V30 2992 O 288.86 -2.11688 -2.86473 0
M  V30 2993 O 287.719 -3.04228 -4.5399 0
M  V30 2994 H 284.813 -0.430421 -0.706163 0
M  V30 2995 H 287.359 -1.42925 -0.914907 0
M  V30 2996 H 286.131 -3.10461 -2.3818 0
M  V30 2997 H 285.754 -1.83035 -3.52964 0
M  V30 2998 N 286.751 1.08385 -1.14413 0
M  V30 2999 C 287.999 1.80419 -0.910679 0
M  V30 3000 C 288.32 1.86658 0.564243 0
M  V30 3001 O 287.59 1.35985 1.41014 0
M  V30 3002 H 286.17 0.668204 -0.333934 0
M  V30 3003 H 288.832 1.31037 -1.44275 0
M  V30 3004 H 287.928 2.83238 -1.31082 0
M  V30 3005 N 288.23 0.939286 1.26551 0
M  V30 3006 C 289.641 0.628782 1.75793 0
M  V30 3007 C 289.992 -0.856046 1.7654 0
M  V30 3008 O 289.117 -1.66994 1.3763 0
M  V30 3009 C 289.712 1.13465 3.19235 0
M  V30 3010 C 288.271 0.874601 3.66098 0
M  V30 3011 C 287.418 1.28667 2.45642 0
M  V30 3012 H 290.369 1.1178 1.12654 0
M  V30 3013 H 290.39 0.487609 3.77363 0
M  V30 3014 H 289.902 2.21535 3.1866 0
M  V30 3015 H 288.003 -0.191793 3.72106 0
M  V30 3016 H 288.116 1.50028 4.55004 0
M  V30 3017 H 286.48 0.705109 2.44745 0
M  V30 3018 H 287.263 2.37625 2.47769 0
M  V30 3019 N 289.708 -1.40897 0.706093 0
M  V30 3020 C 290.985 -1.94868 0.169099 0
M  V30 3021 C 291.365 -1.64485 -1.32318 0
M  V30 3022 O 290.713 -0.95744 -2.07474 0
M  V30 3023 C 290.923 -3.45798 0.471654 0
M  V30 3024 C 292.271 -4.22663 0.405127 0
M  V30 3025 O 293.295 -3.53865 0.407168 0
M  V30 3026 O 292.154 -5.45216 0.374383 0
M  V30 3027 H 289.248 -0.82673 0.0211352 0
M  V30 3028 H 291.794 -1.50558 0.782976 0
M  V30 3029 H 290.566 -3.61235 1.50416 0
M  V30 3030 H 290.189 -3.97225 -0.172666 0
M  V30 3031 N 291.186 -0.45159 -1.50991 0
M  V30 3032 C 292.134 0.366864 -2.29689 0
M  V30 3033 C 293.128 1.00809 -1.36139 0
M  V30 3034 O 294.334 0.941427 -1.53418 0
M  V30 3035 H 290.709 0.137133 -0.739391 0
M  V30 3036 H 292.68 -0.317538 -2.96706 0
M  V30 3037 C 291.429 1.44751 -3.16137 0
M  V30 3038 H 290.752 0.963473 -3.88017 0
M  V30 3039 H 292.192 1.99315 -3.74232 0
M  V30 3040 C 290.651 2.43869 -2.32442 0
M  V30 3041 O 291.181 3.4872 -1.99392 0
M  V30 3042 N 289.387 2.15105 -1.95392 0
M  V30 3043 H 288.934 1.29866 -2.22469 0
M  V30 3044 H 288.892 2.81661 -1.39693 0
M  V30 3045 N 292.664 1.56529 -0.183458 0
M  V30 3046 C 293.941 1.88959 0.50536 0
M  V30 3047 C 294.321 1.09523 1.80466 0
M  V30 3048 O 293.669 0.19278 2.27685 0
M  V30 3049 C 293.879 3.41162 0.73547 0
M  V30 3050 C 295.227 4.11155 1.06005 0
M  V30 3051 O 296.251 3.46548 0.823594 0
M  V30 3052 O 295.11 5.25318 1.50675 0
M  V30 3053 H 292.204 0.78441 0.261973 0
M  V30 3054 H 294.75 1.68231 -0.222802 0
M  V30 3055 H 293.522 3.90874 -0.182561 0
M  V30 3056 H 293.145 3.67543 1.51651 0
M  V30 3057 N 294.142 -0.090211 1.57342 0
M  V30 3058 C 295.105 -1.09335 2.01441 0
M  V30 3059 C 296.105 -1.32666 0.908641 0
M  V30 3060 O 297.295 -1.28697 1.174 0
M  V30 3061 C 294.427 -2.44136 2.3793 0
M  V30 3062 H 295.62 -0.713662 2.91285 0
M  V30 3063 H 293.173 -0.335404 1.52659 0
M  V30 3064 H 293.908 -2.86972 1.51055 0
M  V30 3065 H 293.693 -2.28548 3.18603 0
M  V30 3066 H 295.183 -3.16277 2.72688 0
M  V30 3067 N 295.62 -1.53406 -0.361157 0
M  V30 3068 C 296.55 -1.83136 -1.44857 0
M  V30 3069 C 297.531 -0.685174 -1.5569 0
M  V30 3070 O 298.716 -0.93544 -1.70186 0
M  V30 3071 C 295.846 -2.02522 -2.82138 0
M  V30 3072 C 294.8 -3.18302 -2.86126 0
M  V30 3073 C 294.126 -3.22989 -4.26125 0
M  V30 3074 C 295.426 -4.56796 -2.53248 0
M  V30 3075 H 297.12 -2.74201 -1.20226 0
M  V30 3076 H 294.666 -1.31938 -0.576922 0
M  V30 3077 H 296.619 -2.21904 -3.58241 0
M  V30 3078 H 295.343 -1.08172 -3.08166 0
M  V30 3079 H 294.002 -2.98747 -2.12475 0
M  V30 3080 H 293.65 -2.26267 -4.49235 0
M  V30 3081 H 293.35 -4.00781 -4.29708 0
M  V30 3082 H 294.874 -3.44559 -5.04094 0
M  V30 3083 H 296.288 -4.7631 -3.19064 0
M  V30 3084 H 294.685 -5.36862 -2.68141 0
M  V30 3085 H 295.755 -4.61606 -1.48484 0
M  V30 3086 N 297.098 0.621204 -1.44841 0
M  V30 3087 C 298.344 1.3826 -1.48365 0
M  V30 3088 C 298.677 1.93831 -0.119624 0
M  V30 3089 O 297.952 1.74251 0.864111 0
M  V30 3090 C 298.235 2.54058 -2.55199 0
M  V30 3091 C 298.088 2.03772 -4.00995 0
M  V30 3092 C 299.407 3.56225 -2.58442 0
M  V30 3093 H 296.526 0.501374 -0.540179 0
M  V30 3094 H 299.168 0.7015 -1.76576 0
M  V30 3095 H 297.318 3.12162 -2.31274 0
M  V30 3096 H 298.99 1.50423 -4.36086 0
M  V30 3097 H 297.233 1.34876 -4.12299 0
M  V30 3098 H 297.904 2.87185 -4.71411 0
M  V30 3099 H 300.38 3.07939 -2.79844 0
M  V30 3100 H 299.256 4.34756 -3.3508 0
M  V30 3101 H 299.517 4.10949 -1.63013 0
M  V30 3102 N 298.576 1.31904 0.862503 0
M  V30 3103 C 299.523 1.20182 1.9704 0
M  V30 3104 C 300.493 0.0858247 1.65878 0
M  V30 3105 O 301.678 0.26 1.8902 0
M  V30 3106 C 298.818 0.922797 3.32533 0
M  V30 3107 C 297.931 2.12284 3.76244 0
M  V30 3108 C 297.066 1.77996 5.00491 0
M  V30 3109 C 296.105 2.94366 5.36671 0
M  V30 3110 N 295.242 2.60223 6.52095 0
M  V30 3111 H 300.082 2.14951 2.06398 0
M  V30 3112 H 297.619 1.06917 1.01031 0
M  V30 3113 H 299.577 0.741548 4.10557 0
M  V30 3114 H 298.207 0.0119227 3.22798 0
M  V30 3115 H 297.259 2.41461 2.9394 0
M  V30 3116 H 298.571 2.99357 3.98982 0
M  V30 3117 H 297.725 1.56377 5.862 0
M  V30 3118 H 296.464 0.881252 4.79672 0
M  V30 3119 H 295.469 3.16625 4.49476 0
M  V30 3120 H 296.694 3.84957 5.59451 0
M  V30 3121 H 294.64 1.72884 6.32809 0
M  V30 3122 H 294.557 3.40827 6.74814 0
M  V30 3123 H 295.825 2.42016 7.40978 0
M  V30 3124 N 300.054 -1.07777 1.14986 0
M  V30 3125 C 301.303 -1.79669 0.916617 0
M  V30 3126 C 301.616 -1.87474 -0.557917 0
M  V30 3127 O 302.822 -2.55845 -0.908617 0
M  V30 3128 C 301.278 -3.22848 1.59051 0
M  V30 3129 C 300.886 -3.23257 3.10176 0
M  V30 3130 C 302.63 -3.99379 1.43864 0
M  V30 3131 C 300.537 -4.61063 3.70372 0
M  V30 3132 H 299.467 -0.673349 0.33929 0
M  V30 3133 H 302.118 -1.21003 1.37951 0
M  V30 3134 H 300.5 -3.8168 1.0553 0
M  V30 3135 H 301.674 -2.74095 3.70417 0
M  V30 3136 H 299.989 -2.60222 3.25074 0
M  V30 3137 H 302.586 -5.0122 1.86232 0
M  V30 3138 H 302.929 -4.14511 0.385564 0
M  V30 3139 H 303.462 -3.47032 1.94457 0
M  V30 3140 H 300.201 -4.51135 4.7556 0
M  V30 3141 H 299.721 -5.1048 3.14913 0
M  V30 3142 H 301.4 -5.30034 3.71043 0
M  V30 3143 N 301.532 -0.945985 -1.26051 0
M  V30 3144 C 302.479 -0.45809 -2.26208 0
M  V30 3145 C 303.449 0.484816 -1.58867 0
M  V30 3146 O 304.634 0.399969 -1.86561 0
M  V30 3147 C 301.774 0.266131 -3.44072 0
M  V30 3148 C 300.887 -0.713005 -4.26075 0
M  V30 3149 C 300.022 0.0329013 -5.3119 0
M  V30 3150 C 299.061 -0.93774 -6.04874 0
M  V30 3151 N 298.198 -0.223274 -7.01745 0
M  V30 3152 H 303.038 -1.3171 -2.67313 0
M  V30 3153 H 300.575 -0.66069 -1.31428 0
M  V30 3154 H 302.533 0.702514 -4.11243 0
M  V30 3155 H 301.163 1.08925 -3.03867 0
M  V30 3156 H 300.215 -1.26789 -3.58648 0
M  V30 3157 H 301.527 -1.45406 -4.77136 0
M  V30 3158 H 300.681 0.528335 -6.04395 0
M  V30 3159 H 299.42 0.806801 -4.8098 0
M  V30 3160 H 298.425 -1.44425 -5.30492 0
M  V30 3161 H 299.65 -1.71172 -6.57173 0
M  V30 3162 H 297.596 0.532046 -6.53839 0
M  V30 3163 H 297.513 -0.90357 -7.50581 0
M  V30 3164 H 298.781 0.250907 -7.79096 0
M  V30 3165 N 303.011 1.40521 -0.713556 0
M  V30 3166 C 304.241 2.0494 -0.261395 0
M  V30 3167 C 304.649 1.53861 1.10107 0
M  V30 3168 O 303.992 0.689321 1.70276 0
M  V30 3169 C 304.054 3.59138 -0.161227 0
M  V30 3170 C 303.718 4.33096 -1.45865 0
M  V30 3171 C 304.715 4.61182 -2.40016 0
M  V30 3172 C 302.4 4.72043 -1.71701 0
M  V30 3173 C 304.394 5.27196 -3.58251 0
M  V30 3174 C 302.081 5.37789 -2.90218 0
M  V30 3175 C 303.079 5.65295 -3.83315 0
M  V30 3176 O 302.767 6.29683 -4.99754 0
M  V30 3177 H 302.499 0.666041 -0.115608 0
M  V30 3178 H 305.053 1.80954 -0.971849 0
M  V30 3179 H 303.283 3.81936 0.605153 0
M  V30 3180 H 304.972 4.05091 0.256105 0
M  V30 3181 H 305.738 4.31559 -2.21318 0
M  V30 3182 H 301.617 4.50003 -1.00092 0
M  V30 3183 H 305.161 5.48582 -4.30934 0
M  V30 3184 H 301.058 5.66831 -3.08825 0
M  V30 3185 H 301.826 6.4818 -4.99805 0
M  V30 3186 N 304.489 0.459591 1.5075 0
M  V30 3187 C 305.737 -0.0991532 2.01857 0
M  V30 3188 C 306.058 -1.41247 1.34441 0
M  V30 3189 O 305.328 -1.89775 0.486022 0
M  V30 3190 H 303.908 -0.039633 0.745948 0
M  V30 3191 H 306.57 0.607387 1.85194 0
M  V30 3192 H 305.666 -0.258998 3.11023 0
M  V30 3193 N 305.967 -1.56429 0.191757 0
M  V30 3194 C 306.877 -2.22541 -0.742481 0
M  V30 3195 C 307.893 -1.22342 -1.23727 0
M  V30 3196 O 309.069 -1.55069 -1.28513 0
M  V30 3197 C 306.134 -2.8692 -1.94623 0
M  V30 3198 C 305.195 -4.02378 -1.49633 0
M  V30 3199 C 304.428 -4.63678 -2.6427 0
M  V30 3200 O 304.651 -4.23895 -3.81666 0
M  V30 3201 O 303.585 -5.53202 -2.37174 0
M  V30 3202 H 307.411 -3.02977 -0.209462 0
M  V30 3203 H 304.996 -1.49353 -0.0373832 0
M  V30 3204 H 306.878 -3.27663 -2.64982 0
M  V30 3205 H 305.553 -2.09466 -2.46791 0
M  V30 3206 H 304.46 -3.66265 -0.761636 0
M  V30 3207 H 305.793 -4.81487 -1.02134 0
M  V30 3208 N 307.445 0.0818655 -1.57387 0
M  V30 3209 C 308.408 1.08265 -2.02018 0
M  V30 3210 C 309.408 1.32183 -0.915664 0
M  V30 3211 O 310.598 1.28073 -1.18081 0
M  V30 3212 C 307.73 2.42871 -2.39221 0
M  V30 3213 H 308.923 0.698204 -2.91659 0
M  V30 3214 H 306.476 0.327303 -1.52835 0
M  V30 3215 H 307.211 2.86167 -1.52575 0
M  V30 3216 H 306.996 2.26855 -3.19811 0
M  V30 3217 H 308.486 3.14826 -2.74362 0
M  V30 3218 N 308.923 1.53595 0.353017 0
M  V30 3219 C 310.153 1.74058 1.11299 0
M  V30 3220 C 310.561 0.475205 1.83135 0
M  V30 3221 O 309.904 -0.562344 1.74881 0
M  V30 3222 C 309.966 2.85994 2.17825 0
M  V30 3223 C 309.63 4.25923 1.65647 0
M  V30 3224 C 310.627 5.07829 1.11383 0
M  V30 3225 C 308.312 4.72377 1.7078 0
M  V30 3226 C 310.306 6.34285 0.629439 0
M  V30 3227 C 307.993 5.98808 1.21953 0
M  V30 3228 C 308.991 6.79594 0.681265 0
M  V30 3229 O 308.679 8.03651 0.200248 0
M  V30 3230 H 308.411 0.585327 0.338183 0
M  V30 3231 H 310.965 2.01186 0.413927 0
M  V30 3232 H 309.195 2.54368 2.91262 0
M  V30 3233 H 310.884 2.94515 2.79313 0
M  V30 3234 H 311.65 4.73107 1.06746 0
M  V30 3235 H 307.529 4.0956 2.11617 0
M  V30 3236 H 311.073 6.97288 0.208636 0
M  V30 3237 H 306.97 6.33026 1.26287 0
M  V30 3238 H 307.738 8.1788 0.318416 0
M  V30 3239 N 310.401 -0.613514 1.45168 0
M  V30 3240 C 311.629 -1.39946 1.5239 0
M  V30 3241 C 312.044 -1.88167 0.154531 0
M  V30 3242 O 311.401 -1.61872 -0.842843 0
M  V30 3243 C 311.452 -2.60795 2.50337 0
M  V30 3244 O 311.173 -2.1458 3.81952 0
M  V30 3245 C 312.674 -3.53723 2.67198 0
M  V30 3246 H 309.894 -0.428593 0.516284 0
M  V30 3247 H 312.438 -0.748753 1.903 0
M  V30 3248 H 310.593 -3.21919 2.15515 0
M  V30 3249 H 311.007 -2.93055 4.34993 0
M  V30 3250 H 312.481 -4.35079 3.39721 0
M  V30 3251 H 312.958 -4.0368 1.73029 0
M  V30 3252 H 313.564 -2.98456 3.02992 0
M  V30 3253 N 311.879 -1.3236 -0.855495 0
M  V30 3254 C 313.156 -1.13491 -1.59309 0
M  V30 3255 C 313.536 0.30503 -2.08885 0
M  V30 3256 O 312.884 1.30151 -1.87811 0
M  V30 3257 C 313.094 -2.16176 -2.73987 0
M  V30 3258 C 314.442 -2.49463 -3.43589 0
M  V30 3259 O 315.466 -2.14715 -2.84211 0
M  V30 3260 O 314.325 -3.09027 -4.50738 0
M  V30 3261 H 311.419 -0.437887 -0.701559 0
M  V30 3262 H 313.965 -1.43887 -0.899696 0
M  V30 3263 H 312.737 -3.1297 -2.34873 0
M  V30 3264 H 312.36 -1.86769 -3.51003 0
M  V30 3265 N 313.357 1.07166 -1.15556 0
M  V30 3266 C 314.585 1.83514 -0.955519 0
M  V30 3267 C 315 1.82163 0.49621 0
M  V30 3268 O 314.357 1.23441 1.34419 0
M  V30 3269 C 314.408 3.30515 -1.46432 0
M  V30 3270 O 314.129 3.31937 -2.85918 0
M  V30 3271 C 315.63 4.23625 -1.30603 0
M  V30 3272 H 312.85 0.578926 -0.339244 0
M  V30 3273 H 315.394 1.35265 -1.53374 0
M  V30 3274 H 313.549 3.76106 -0.928584 0
M  V30 3275 H 313.963 4.23794 -3.09029 0
M  V30 3276 H 315.437 5.24831 -1.71047 0
M  V30 3277 H 315.914 4.38485 -0.250441 0
M  V30 3278 H 316.52 3.83871 -1.83094 0
M  V30 3279 N 314.835 0.952656 1.25548 0
M  V30 3280 C 316.065 0.622592 1.96996 0
M  V30 3281 C 316.473 -0.809112 1.71026 0
M  V30 3282 O 315.816 -1.55258 0.981861 0
M  V30 3283 C 315.878 0.798946 3.5051 0
M  V30 3284 C 315.542 2.20744 4.00151 0
M  V30 3285 C 316.539 3.18394 4.11001 0
M  V30 3286 C 314.224 2.5311 4.33867 0
M  V30 3287 C 316.218 4.46504 4.54877 0
M  V30 3288 C 313.905 3.8145 4.7743 0
M  V30 3289 C 314.903 4.77959 4.87897 0
M  V30 3290 O 314.591 6.04012 5.30494 0
M  V30 3291 H 314.323 0.232503 0.634758 0
M  V30 3292 H 316.877 1.2789 1.60728 0
M  V30 3293 H 315.107 0.0854903 3.86605 0
M  V30 3294 H 316.796 0.47023 4.03167 0
M  V30 3295 H 317.562 2.94715 3.85186 0
M  V30 3296 H 313.441 1.78719 4.24948 0
M  V30 3297 H 316.985 5.21835 4.62962 0
M  V30 3298 H 312.882 4.04936 5.0269 0
M  V30 3299 H 313.65 6.0736 5.48685 0
M  V30 3300 N 316.313 -1.40141 0.720998 0
M  V30 3301 C 317.263 -2.27949 0.0482544 0
M  V30 3302 C 318.247 -1.43538 -0.727021 0
M  V30 3303 O 319.439 -1.6658 -0.598332 0
M  V30 3304 C 316.568 -3.32126 -0.868729 0
M  V30 3305 C 315.654 -4.24008 -0.0883515 0
M  V30 3306 N 316.045 -4.97154 0.931226 0
M  V30 3307 C 314.343 -4.4485 -0.320105 0
M  V30 3308 C 315.044 -5.64587 1.4006 0
M  V30 3309 N 314.02 -5.38787 0.721752 0
M  V30 3310 H 317.822 -2.81948 0.829609 0
M  V30 3311 H 315.336 -1.52656 0.554067 0
M  V30 3312 H 317.333 -3.93884 -1.36605 0
M  V30 3313 H 315.993 -2.79687 -1.6494 0
M  V30 3314 H 317.004 -5.01 1.31222 0
M  V30 3315 H 313.681 -4.03378 -1.07668 0
M  V30 3316 H 315.071 -6.33175 2.24808 0
M  V30 3317 N 317.792 -0.46758 -1.50504 0
M  V30 3318 C 319.017 0.0886943 -2.0721 0
M  V30 3319 C 319.442 1.33057 -1.32956 0
M  V30 3320 O 318.8 1.77354 -0.376197 0
M  V30 3321 C 318.848 0.359202 -3.58806 0
M  V30 3322 O 317.952 1.44034 -3.8643 0
M  V30 3323 H 317.293 -0.0114349 -0.663902 0
M  V30 3324 H 319.823 -0.657613 -1.93744 0
M  V30 3325 H 319.833 0.600742 -4.03553 0
M  V30 3326 H 318.508 -0.548311 -4.1227 0
M  V30 3327 H 317.085 1.18638 -3.53524 0
M  V30 3328 N 319.27 1.56325 -0.20005 0
M  V30 3329 C 320.5 2.01811 0.442232 0
M  V30 3330 C 320.908 1.07932 1.55394 0
M  V30 3331 O 320.251 0.0772685 1.83537 0
M  V30 3332 C 320.313 3.43685 1.05457 0
M  V30 3333 C 319.977 4.56928 0.0809833 0
M  V30 3334 C 320.974 5.15009 -0.711471 0
M  V30 3335 C 318.659 5.0229 -0.0315364 0
M  V30 3336 C 320.653 6.16904 -1.60336 0
M  V30 3337 C 318.34 6.04028 -0.926981 0
M  V30 3338 C 319.338 6.6121 -1.71146 0
M  V30 3339 O 319.026 7.60971 -2.59189 0
M  V30 3340 H 318.758 0.666173 0.114848 0
M  V30 3341 H 321.312 2.03085 -0.307511 0
M  V30 3342 H 319.542 3.39413 1.85299 0
M  V30 3343 H 321.231 3.72948 1.60201 0
M  V30 3344 H 321.997 4.80827 -0.634873 0
M  V30 3345 H 317.876 4.57476 0.568902 0
M  V30 3346 H 321.42 6.61464 -2.21611 0
M  V30 3347 H 317.317 6.37634 -1.00468 0
M  V30 3348 H 318.085 7.7841 -2.53023 0
M  V30 3349 N 320.748 -0.0735177 1.57428 0
M  V30 3350 C 321.711 -1.07192 2.02589 0
M  V30 3351 C 322.711 -1.31695 0.922661 0
M  V30 3352 O 323.901 -1.27445 1.18758 0
M  V30 3353 C 321.033 -2.41599 2.40506 0
M  V30 3354 H 322.226 -0.682727 2.92025 0
M  V30 3355 H 319.779 -0.319193 1.53006 0
M  V30 3356 H 320.514 -2.85354 1.5409 0
M  V30 3357 H 320.299 -2.25156 3.21009 0
M  V30 3358 H 321.789 -3.13367 2.76027 0
M  V30 3359 N 322.226 -1.5378 -0.344866 0
M  V30 3360 C 323.176 -1.78057 -1.42407 0
M  V30 3361 C 324.16 -0.635732 -1.47808 0
M  V30 3362 O 325.352 -0.89508 -1.527 0
M  V30 3363 C 322.481 -1.99242 -2.79566 0
M  V30 3364 C 321.567 -3.19787 -2.78562 0
M  V30 3365 N 321.958 -4.41284 -2.47189 0
M  V30 3366 C 320.256 -3.2093 -3.0971 0
M  V30 3367 C 320.957 -5.23128 -2.54385 0
M  V30 3368 N 319.933 -4.59813 -2.89953 0
M  V30 3369 H 323.735 -2.69588 -1.17046 0
M  V30 3370 H 321.249 -1.52687 -0.553217 0
M  V30 3371 H 323.246 -2.14768 -3.57324 0
M  V30 3372 H 321.906 -1.08953 -3.05875 0
M  V30 3373 H 322.917 -4.68657 -2.20411 0
M  V30 3374 H 319.594 -2.40603 -3.41199 0
M  V30 3375 H 320.984 -6.30096 -2.333 0
M  V30 3376 N 323.704 0.605807 -1.45491 0
M  V30 3377 C 324.652 1.73754 -1.54636 0
M  V30 3378 C 325.646 1.64207 -0.416219 0
M  V30 3379 O 326.852 1.69979 -0.592199 0
M  V30 3380 H 323.227 0.574073 -0.485741 0
M  V30 3381 H 325.198 1.63169 -2.49837 0
M  V30 3382 C 323.947 3.12135 -1.53189 0
M  V30 3383 H 323.27 3.20141 -2.39478 0
M  V30 3384 H 324.71 3.91147 -1.63645 0
M  V30 3385 C 323.169 3.35921 -0.256616 0
M  V30 3386 O 323.699 3.96194 0.662798 0
M  V30 3387 N 321.905 2.90204 -0.151751 0
M  V30 3388 H 321.452 2.41336 -0.90081 0
M  V30 3389 H 321.41 3.06492 0.700699 0
M  V30 3390 N 325.182 1.32811 0.848464 0
M  V30 3391 C 326.431 1.23075 1.59798 0
M  V30 3392 C 326.744 -0.204419 1.94529 0
M  V30 3393 O 327.95 -0.423701 2.68173 0
M  V30 3394 C 326.406 2.15594 2.88179 0
M  V30 3395 C 326.014 3.64228 2.60849 0
M  V30 3396 C 327.758 2.14709 3.66197 0
M  V30 3397 C 325.665 4.48689 3.85269 0
M  V30 3398 H 324.595 0.457091 0.599653 0
M  V30 3399 H 327.246 1.57813 0.936342 0
M  V30 3400 H 325.628 1.73778 3.55833 0
M  V30 3401 H 326.802 4.14424 2.01467 0
M  V30 3402 H 325.117 3.67306 1.96151 0
M  V30 3403 H 327.714 2.75046 4.58534 0
M  V30 3404 H 328.057 1.13966 4.00397 0
M  V30 3405 H 328.59 2.54837 3.05455 0
M  V30 3406 H 325.329 5.5027 3.56207 0
M  V30 3407 H 324.849 4.03241 4.44024 0
M  V30 3408 H 326.528 4.62006 4.52946 0
M  V30 3409 N 326.66 -1.06551 1.16123 0
M  V30 3410 C 327.59 -2.15935 0.88851 0
M  V30 3411 C 328.571 -1.69306 -0.164135 0
M  V30 3412 O 329.756 -1.94193 -0.0167857 0
M  V30 3413 C 326.886 -3.45149 0.385942 0
M  V30 3414 C 325.84 -4.05271 1.3762 0
M  V30 3415 C 325.166 -5.29664 0.732137 0
M  V30 3416 C 326.466 -4.44355 2.74493 0
M  V30 3417 H 328.16 -2.39006 1.80323 0
M  V30 3418 H 325.706 -1.14866 0.868435 0
M  V30 3419 H 327.659 -4.21004 0.182647 0
M  V30 3420 H 326.383 -3.21689 -0.564274 0
M  V30 3421 H 325.042 -3.3147 1.56599 0
M  V30 3422 H 324.69 -5.02499 -0.224483 0
M  V30 3423 H 324.39 -5.70848 1.39307 0
M  V30 3424 H 325.914 -6.08218 0.538802 0
M  V30 3425 H 327.328 -5.11303 2.59311 0
M  V30 3426 H 325.725 -4.96515 3.37035 0
M  V30 3427 H 326.795 -3.55339 3.29943 0
M  V30 3428 N 328.138 -0.959301 -1.25041 0
M  V30 3429 C 329.554 -0.664474 -1.4511 0
M  V30 3430 C 329.754 0.776481 -1.85938 0
M  V30 3431 O 328.81 1.55128 -1.99227 0
M  V30 3432 C 330.123 -1.64139 -2.5195 0
M  V30 3433 C 331.671 -1.65309 -2.65786 0
M  V30 3434 C 332.146 -2.61777 -3.75815 0
M  V30 3435 N 333.637 -2.60169 -3.83231 0
M  V30 3436 C 334.372 -3.31489 -4.6787 0
M  V30 3437 N 333.868 -4.12298 -5.56761 0
M  V30 3438 N 335.661 -3.20354 -4.61876 0
M  V30 3439 H 327.812 -1.89043 -0.968332 0
M  V30 3440 H 330.075 -0.813408 -0.4869 0
M  V30 3441 H 329.781 -2.67086 -2.28819 0
M  V30 3442 H 329.655 -1.40756 -3.49954 0
M  V30 3443 H 332.042 -0.630778 -2.8828 0
M  V30 3444 H 332.123 -1.92753 -1.68167 0
M  V30 3445 H 331.767 -3.64137 -3.54071 0
M  V30 3446 H 331.697 -2.31616 -4.72929 0
M  V30 3447 H 334.188 -2.01507 -3.19692 0
M  V30 3448 H 334.501 -4.63625 -6.18281 0
M  V30 3449 H 332.846 -4.16395 -5.56454 0
M  V30 3450 H 336.037 -2.56692 -3.91442 0
M  V30 3451 H 336.21 -3.76201 -5.27614 0
M  V30 3452 N 329.616 1.39756 -0.72842 0
M  V30 3453 C 330.844 2.04948 -0.283528 0
M  V30 3454 C 331.259 1.54908 1.0793 0
M  V30 3455 O 330.616 0.711135 1.68075 0
M  V30 3456 C 330.667 3.60498 -0.268957 0
M  V30 3457 O 330.388 4.08695 -1.57798 0
M  V30 3458 C 331.889 4.4288 0.192912 0
M  V30 3459 H 329.109 0.659243 -0.125056 0
M  V30 3460 H 331.653 1.78927 -0.990226 0
M  V30 3461 H 329.808 3.85444 0.388801 0
M  V30 3462 H 330.222 5.02977 -1.48709 0
M  V30 3463 H 331.696 5.51791 0.151952 0
M  V30 3464 H 332.173 4.21418 1.23708 0
M  V30 3465 H 332.779 4.23069 -0.435039 0
M  V30 3466 N 331.094 0.475555 1.50254 0
M  V30 3467 C 332.026 -0.352649 2.26471 0
M  V30 3468 C 333.039 -0.953165 1.3198 0
M  V30 3469 O 334.228 -0.840815 1.57457 0
M  V30 3470 C 331.328 -1.50902 3.0345 0
M  V30 3471 C 330.501 -1.02047 4.25329 0
M  V30 3472 C 329.56 -2.05142 4.84565 0
M  V30 3473 O 328.586 -1.63023 5.45355 0
M  V30 3474 N 329.788 -3.37987 4.71959 0
M  V30 3475 H 332.553 0.300767 2.98187 0
M  V30 3476 H 330.114 0.306598 1.5897 0
M  V30 3477 H 332.106 -2.19572 3.39956 0
M  V30 3478 H 330.676 -2.06705 2.34504 0
M  V30 3479 H 329.896 -0.159507 3.93877 0
M  V30 3480 H 331.184 -0.672061 5.04342 0
M  V30 3481 H 330.582 -3.74913 4.23623 0
M  V30 3482 H 329.139 -4.02443 5.12721 0
M  V30 3483 N 332.573 -1.56217 0.208337 0
M  V30 3484 C 333.483 -2.23316 -0.718836 0
M  V30 3485 C 334.499 -1.23648 -1.22422 0
M  V30 3486 O 335.675 -1.56423 -1.26861 0
M  V30 3487 C 332.74 -2.88968 -1.91568 0
M  V30 3488 C 331.801 -4.03943 -1.45357 0
M  V30 3489 C 331.034 -4.66455 -2.59337 0
M  V30 3490 O 331.257 -4.27919 -3.77149 0
M  V30 3491 O 330.191 -5.55686 -2.31293 0
M  V30 3492 H 334.017 -3.03182 -0.177315 0
M  V30 3493 H 331.602 -1.49384 -0.0215402 0
M  V30 3494 H 333.484 -3.30455 -2.61491 0
M  V30 3495 H 332.159 -2.12071 -2.44556 0
M  V30 3496 H 331.066 -3.67052 -0.722746 0
M  V30 3497 H 332.399 -4.82543 -0.970219 0
M  V30 3498 N 334.051 0.0651679 -1.57465 0
M  V30 3499 C 335.276 0.779605 -1.9219 0
M  V30 3500 C 335.701 1.69988 -0.805333 0
M  V30 3501 O 335.059 1.79685 0.241435 0
M  V30 3502 C 335.107 1.54364 -3.2589 0
M  V30 3503 O 334.211 2.65474 -3.1559 0
M  V30 3504 H 333.552 0.212249 -0.629163 0
M  V30 3505 H 336.082 0.0314294 -2.04576 0
M  V30 3506 H 336.092 1.92146 -3.59922 0
M  V30 3507 H 334.767 0.868457 -4.06732 0
M  V30 3508 H 333.344 2.30501 -2.93128 0
M  V30 3509 N 335.529 1.53961 0.336706 0
M  V30 3510 C 336.492 1.81724 1.39675 0
M  V30 3511 C 337.492 0.688532 1.45313 0
M  V30 3512 O 338.682 0.956829 1.45569 0
M  V30 3513 C 335.814 1.96543 2.78538 0
M  V30 3514 H 337.007 2.76424 1.16318 0
M  V30 3515 H 334.56 1.45478 0.571474 0
M  V30 3516 H 335.295 1.0401 3.07168 0
M  V30 3517 H 335.08 2.78665 2.75841 0
M  V30 3518 H 336.57 2.19516 3.5525 0
M  V30 3519 N 337.007 -0.598083 1.45811 0
M  V30 3520 C 338.247 -1.36802 1.5187 0
M  V30 3521 C 338.611 -1.9133 0.160224 0
M  V30 3522 O 339.812 -2.6863 0.0955302 0
M  V30 3523 C 338.083 -2.47835 2.57513 0
M  V30 3524 S 339.642 -3.35458 2.82866 0
M  V30 3525 H 336.46 -0.466278 0.536755 0
M  V30 3526 H 339.062 -0.689152 1.82951 0
M  V30 3527 H 337.766 -2.06141 3.54872 0
M  V30 3528 H 337.297 -3.20512 2.28114 0
M  V30 3529 H 339.312 -4.46251 2.16967 0
M  V30 3530 N 338.485 -1.33259 -0.841409 0
M  V30 3531 C 339.433 -1.23279 -1.97244 0
M  V30 3532 C 340.427 -0.134706 -1.68864 0
M  V30 3533 O 341.633 -0.298501 -1.77508 0
M  V30 3534 H 338.008 -0.382497 -0.647457 0
M  V30 3535 H 339.979 -2.18906 -2.02787 0
M  V30 3536 C 338.728 -0.986268 -3.33419 0
M  V30 3537 H 338.051 -1.82347 -3.55794 0
M  V30 3538 H 339.491 -0.956728 -4.13065 0
M  V30 3539 C 337.95 0.310842 -3.35463 0
M  V30 3540 O 338.48 1.31838 -3.79449 0
M  V30 3541 N 336.686 0.337485 -2.88634 0
M  V30 3542 H 336.233 -0.482967 -2.53032 0
M  V30 3543 H 336.191 1.20518 -2.90384 0
M  V30 3544 N 339.963 1.05934 -1.16686 0
M  V30 3545 C 341.203 1.80382 -0.961345 0
M  V30 3546 C 341.567 1.85331 0.501643 0
M  V30 3547 O 342.768 2.55795 0.825986 0
M  V30 3548 C 341.039 3.20777 -1.57596 0
M  V30 3549 S 342.598 4.11795 -1.51559 0
M  V30 3550 H 339.416 0.621332 -0.345641 0
M  V30 3551 H 342.018 1.27157 -1.48497 0
M  V30 3552 H 340.722 3.14773 -2.63337 0
M  V30 3553 H 340.253 3.79078 -1.05182 0
M  V30 3554 H 342.268 4.93485 -0.518374 0
M  V30 3555 N 341.441 0.965919 1.2453 0
M  V30 3556 C 342.69 0.622437 1.91856 0
M  V30 3557 C 343.003 -0.846006 1.76358 0
M  V30 3558 O 344.209 -1.29993 2.38357 0
M  V30 3559 C 342.665 1.0626 3.43856 0
M  V30 3560 C 342.273 2.55437 3.68043 0
M  V30 3561 C 344.017 0.792183 4.17043 0
M  V30 3562 C 341.924 2.93196 5.13605 0
M  V30 3563 H 340.854 0.229092 0.718354 0
M  V30 3564 H 343.505 1.17189 1.41206 0
M  V30 3565 H 341.887 0.441476 3.93531 0
M  V30 3566 H 343.061 3.22665 3.28974 0
M  V30 3567 H 341.376 2.8007 3.08139 0
M  V30 3568 H 343.973 1.05031 5.24283 0
M  V30 3569 H 344.316 -0.271584 4.15413 0
M  V30 3570 H 344.849 1.37419 3.73311 0
M  V30 3571 H 341.588 3.98636 5.20355 0
M  V30 3572 H 341.108 2.30651 5.53679 0
M  V30 3573 H 342.787 2.83004 5.81823 0
M  V30 3574 N 342.919 -1.39368 0.735821 0
M  V30 3575 C 344.167 -2.00101 0.283562 0
M  V30 3576 C 344.488 -1.5868 -1.13338 0
M  V30 3577 O 343.758 -0.835423 -1.77193 0
M  V30 3578 H 342.338 -0.740024 0.101851 0
M  V30 3579 H 345 -1.70404 0.945962 0
M  V30 3580 H 344.096 -3.10323 0.332604 0
M  V30 3581 N 344.397 -0.483516 -1.5 0
M  V30 3582 C 345.645 0.067027 -2.01989 0
M  V30 3583 C 345.966 1.3909 -1.36671 0
M  V30 3584 O 345.236 1.88978 -0.516152 0
M  V30 3585 H 343.816 0.0277606 -0.746484 0
M  V30 3586 H 346.478 -0.636773 -1.84204 0
M  V30 3587 H 345.574 0.209484 -3.11396 0
M  V30 3588 N 345.875 1.56104 -0.216619 0
M  V30 3589 C 347.152 1.89988 0.465165 0
M  V30 3590 C 347.532 1.13326 1.78102 0
M  V30 3591 O 346.88 0.241033 2.27225 0
M  V30 3592 C 347.09 3.42646 0.662939 0
M  V30 3593 C 348.438 4.13311 0.972602 0
M  V30 3594 O 349.462 3.48217 0.749901 0
M  V30 3595 O 348.321 5.28396 1.39499 0
M  V30 3596 H 345.415 0.78979 0.245276 0
M  V30 3597 H 347.961 1.67721 -0.258436 0
M  V30 3598 H 346.733 3.90399 -0.26543 0
M  V30 3599 H 346.356 3.70677 1.43821 0
M  V30 3600 N 347.353 -0.0568162 1.57498 0
M  V30 3601 C 348.593 -0.758273 1.89815 0
M  V30 3602 C 348.957 -1.73978 0.812132 0
M  V30 3603 O 350.158 -2.48744 1.01881 0
M  V30 3604 C 348.429 -1.43465 3.27342 0
M  V30 3605 S 349.988 -2.1691 3.81439 0
M  V30 3606 H 346.806 -0.251836 0.664906 0
M  V30 3607 H 349.408 -0.0137997 1.95495 0
M  V30 3608 H 348.112 -0.706693 4.0427 0
M  V30 3609 H 347.643 -2.21825 3.24896 0
M  V30 3610 H 349.658 -3.43658 3.5793 0
M  V30 3611 N 348.832 -1.54138 -0.328536 0
M  V30 3612 C 350.062 -1.75807 -1.08516 0
M  V30 3613 C 350.47 -0.50428 -1.82356 0
M  V30 3614 O 349.813 0.534451 -1.75754 0
M  V30 3615 C 349.875 -2.89423 -2.13248 0
M  V30 3616 C 349.539 -4.28504 -1.5885 0
M  V30 3617 C 350.536 -5.09536 -1.03289 0
M  V30 3618 C 348.221 -4.75034 -1.63243 0
M  V30 3619 C 350.215 -6.35206 -0.52845 0
M  V30 3620 C 347.902 -6.00672 -1.12411 0
M  V30 3621 C 348.9 -6.80592 -0.573062 0
M  V30 3622 O 348.588 -8.03867 -0.0723692 0
M  V30 3623 H 348.32 -0.590633 -0.328829 0
M  V30 3624 H 350.874 -2.01819 -0.381868 0
M  V30 3625 H 349.104 -2.5897 -2.87178 0
M  V30 3626 H 350.793 -2.98921 -2.74592 0
M  V30 3627 H 351.559 -4.74745 -0.99206 0
M  V30 3628 H 347.438 -4.12875 -2.05074 0
M  V30 3629 H 350.982 -6.97532 -0.0976774 0
M  V30 3630 H 346.879 -6.34955 -1.162 0
M  V30 3631 H 347.647 -8.18283 -0.188258 0
M  V30 3632 N 350.31 0.590341 -1.46126 0
M  V30 3633 C 351.24 1.71032 -1.58966 0
M  V30 3634 C 352.221 1.64302 -0.440335 0
M  V30 3635 O 353.406 1.82436 -0.665634 0
M  V30 3636 C 350.536 3.09665 -1.57241 0
M  V30 3637 C 349.49 3.31221 -2.71066 0
M  V30 3638 C 348.816 4.70303 -2.54399 0
M  V30 3639 C 350.116 3.19796 -4.1295 0
M  V30 3640 H 351.81 1.60543 -2.52718 0
M  V30 3641 H 349.356 0.770933 -1.21625 0
M  V30 3642 H 351.309 3.87831 -1.64819 0
M  V30 3643 H 350.033 3.21036 -0.600289 0
M  V30 3644 H 348.692 2.55452 -2.62944 0
M  V30 3645 H 348.34 4.78429 -1.55288 0
M  V30 3646 H 348.04 4.85679 -3.30741 0
M  V30 3647 H 349.564 5.50647 -2.63857 0
M  V30 3648 H 350.978 3.87815 -4.22223 0
M  V30 3649 H 349.375 3.46696 -4.89818 0
M  V30 3650 H 350.445 2.16983 -4.33643 0
M  V30 3651 N 351.788 1.33704 0.83433 0
M  V30 3652 C 352.721 1.18675 1.94914 0
M  V30 3653 C 353.699 0.0811145 1.62398 0
M  V30 3654 O 354.883 0.244186 1.86912 0
M  V30 3655 C 352.01 0.821231 3.28593 0
M  V30 3656 C 351.056 1.93501 3.80079 0
M  V30 3657 S 351.889 3.54671 4.01209 0
M  V30 3658 C 353.045 3.20136 5.37833 0
M  V30 3659 H 353.278 2.13043 2.07364 0
M  V30 3660 H 350.811 1.18598 0.988624 0
M  V30 3661 H 352.769 0.617123 4.05835 0
M  V30 3662 H 351.43 -0.103927 3.13928 0
M  V30 3663 H 350.623 1.63273 4.76821 0
M  V30 3664 H 350.225 2.09601 3.09747 0
M  V30 3665 H 352.517 2.71242 6.20833 0
M  V30 3666 H 353.46 4.15975 5.73036 0
M  V30 3667 H 353.868 2.56613 5.02802 0
M  V30 3668 N 353.266 -1.05314 1.17247 0
M  V30 3669 C 354.515 -1.77685 0.954521 0
M  V30 3670 C 354.828 -1.88616 -0.518025 0
M  V30 3671 O 356.034 -2.57714 -0.854144 0
M  V30 3672 C 354.49 -3.19402 1.65863 0
M  V30 3673 C 354.098 -3.16605 3.16963 0
M  V30 3674 C 355.842 -3.96237 1.52303 0
M  V30 3675 C 353.749 -4.53103 3.80068 0
M  V30 3676 H 352.679 -0.666 0.353496 0
M  V30 3677 H 355.33 -1.1805 1.40486 0
M  V30 3678 H 353.712 -3.79355 1.13602 0
M  V30 3679 H 354.886 -2.66176 3.76148 0
M  V30 3680 H 353.201 -2.53268 3.30521 0
M  V30 3681 H 355.798 -4.97157 1.96822 0
M  V30 3682 H 356.141 -4.136 0.473401 0
M  V30 3683 H 356.674 -3.42829 2.01775 0
M  V30 3684 H 353.413 -4.40946 4.85023 0
M  V30 3685 H 352.933 -5.03686 3.2567 0
M  V30 3686 H 354.612 -5.22045 3.82202 0
M  V30 3687 N 354.744 -0.972509 -1.24016 0
M  V30 3688 C 355.972 -0.654803 -1.96265 0
M  V30 3689 C 356.387 0.776708 -1.72083 0
M  V30 3690 O 355.744 1.52171 -1.00748 0
M  V30 3691 C 355.795 -0.92592 -3.49441 0
M  V30 3692 O 355.516 -2.30116 -3.72798 0
M  V30 3693 C 357.017 -0.623068 -4.38899 0
M  V30 3694 H 354.237 -0.243907 -0.6251 0
M  V30 3695 H 356.781 -1.30175 -1.57717 0
M  V30 3696 H 354.936 -0.325108 -3.86033 0
M  V30 3697 H 355.35 -2.38483 -4.67147 0
M  V30 3698 H 356.824 -0.863189 -5.45209 0
M  V30 3699 H 357.301 0.442754 -4.36963 0
M  V30 3700 H 357.907 -1.204 -4.07902 0
M  V30 3701 N 356.222 1.38976 -0.743202 0
M  V30 3702 C 357.499 1.94351 -0.220705 0
M  V30 3703 C 357.879 1.67935 1.2791 0
M  V30 3704 O 357.227 1.01211 2.04862 0
M  V30 3705 C 357.437 3.44426 -0.563171 0
M  V30 3706 C 358.785 4.2144 -0.517046 0
M  V30 3707 O 359.809 3.52661 -0.500846 0
M  V30 3708 O 358.668 5.44032 -0.518806 0
M  V30 3709 H 355.762 0.825879 -0.043047 0
M  V30 3710 H 358.308 1.48429 -0.822618 0
M  V30 3711 H 357.08 3.5712 -1.59941 0
M  V30 3712 H 356.703 3.97543 0.0672883 0
M  V30 3713 N 357.7 0.491464 1.49741 0
M  V30 3714 C 358.948 -0.0563141 2.02022 0
M  V30 3715 C 359.269 -1.38363 1.37407 0
M  V30 3716 O 358.539 -1.88702 0.526166 0
M  V30 3717 H 357.119 -0.0238014 0.746621 0
M  V30 3718 H 359.781 0.646533 1.83864 0
M  V30 3719 H 358.877 -0.192967 3.11503 0
M  V30 3720 N 359.178 -1.55987 0.224894 0
M  V30 3721 C 360.403 -2.03232 -0.41369 0
M  V30 3722 C 360.828 -1.10359 -1.52323 0
M  V30 3723 O 360.186 -0.092395 -1.81064 0
M  V30 3724 C 360.234 -3.48682 -0.919405 0
M  V30 3725 O 359.338 -3.58947 -2.03054 0
M  V30 3726 H 358.679 -0.657428 -0.0931903 0
M  V30 3727 H 361.209 -2.01679 0.34451 0
M  V30 3728 H 361.219 -3.8907 -1.22835 0
M  V30 3729 H 359.894 -4.15761 -0.107339 0
M  V30 3730 H 358.471 -3.30448 -1.72796 0
M  V30 3731 N 360.656 0.0484629 -1.57525 0
M  V30 3732 C 361.619 1.03956 -2.04269 0
M  V30 3733 C 362.619 1.30211 -0.943496 0
M  V30 3734 O 363.809 1.25539 -1.20771 0
M  V30 3735 C 360.941 2.37742 -2.44319 0
M  V30 3736 H 362.134 0.636182 -2.93075 0
M  V30 3737 H 359.687 0.294811 -1.53494 0
M  V30 3738 H 360.422 2.82866 -1.5861 0
M  V30 3739 H 360.207 2.20021 -3.24551 0
M  V30 3740 H 361.697 3.08936 -2.80978 0
M  V30 3741 N 362.134 1.5431 0.320358 0
M  V30 3742 C 363.359 1.76954 1.08175 0
M  V30 3743 C 363.784 0.518193 1.80821 0
M  V30 3744 O 363.142 -0.530411 1.73368 0
M  V30 3745 C 363.19 2.96451 2.05303 0
M  V30 3746 O 362.294 2.68221 3.13259 0
M  V30 3747 H 361.635 0.586275 0.311733 0
M  V30 3748 H 364.165 2.01342 0.363676 0
M  V30 3749 H 364.175 3.23887 2.48116 0
M  V30 3750 H 362.85 3.87196 1.51829 0
M  V30 3751 H 361.427 2.51744 2.75099 0
M  V30 3752 N 363.613 -0.582584 1.46437 0
M  V30 3753 C 364.861 -1.33814 1.51453 0
M  V30 3754 C 365.182 -1.94277 0.167792 0
M  V30 3755 O 364.452 -1.78566 -0.805677 0
M  V30 3756 H 363.032 -0.496838 0.557818 0
M  V30 3757 H 365.694 -0.682281 1.82568 0
M  V30 3758 H 364.79 -2.14479 2.26728 0
M  V30 3759 N 365.091 -1.34144 -0.827227 0
M  V30 3760 C 366.34 -1.25602 -1.5782 0
M  V30 3761 C 366.653 0.173445 -1.94829 0
M  V30 3762 O 367.859 0.380984 -2.68814 0
M  V30 3763 C 366.315 -2.20151 -2.84713 0
M  V30 3764 C 365.923 -3.68331 -2.55021 0
M  V30 3765 C 367.667 -2.20508 -3.62735 0
M  V30 3766 C 365.574 -4.54762 -3.78082 0
M  V30 3767 H 364.504 -0.466573 -0.592306 0
M  V30 3768 H 367.155 -1.59283 -0.911116 0
M  V30 3769 H 365.537 -1.79417 -3.53023 0
M  V30 3770 H 366.711 -4.17577 -1.94849 0
M  V30 3771 H 365.026 -3.7038 -1.90283 0
M  V30 3772 H 367.623 -2.82306 -4.54101 0
M  V30 3773 H 367.966 -1.20322 -3.98533 0
M  V30 3774 H 368.499 -2.59664 -3.01362 0
M  V30 3775 H 365.238 -5.55867 -3.47407 0
M  V30 3776 H 364.758 -4.10254 -4.37552 0
M  V30 3777 H 366.437 -4.69153 -4.45538 0
M  V30 3778 N 366.569 1.04691 -1.17803 0
M  V30 3779 C 367.794 1.81984 -0.994813 0
M  V30 3780 C 368.219 1.82586 0.452112 0
M  V30 3781 O 367.577 1.23854 1.324 0
M  V30 3782 C 367.625 3.2575 -1.54659 0
M  V30 3783 O 366.729 4.05267 -0.763728 0
M  V30 3784 H 366.07 0.562483 -0.352857 0
M  V30 3785 H 368.6 1.3189 -1.56417 0
M  V30 3786 H 368.61 3.76541 -1.57102 0
M  V30 3787 H 367.285 3.24627 -2.59981 0
M  V30 3788 H 365.862 3.63972 -0.811108 0
M  V30 3789 N 368.047 0.979072 1.23499 0
M  V30 3790 C 368.994 0.517904 2.24914 0
M  V30 3791 C 369.964 -0.442525 1.60097 0
M  V30 3792 O 371.149 -0.350365 1.87556 0
M  V30 3793 C 368.289 -0.174813 3.44657 0
M  V30 3794 C 367.402 0.825721 4.24035 0
M  V30 3795 C 366.537 0.107946 5.3109 0
M  V30 3796 C 365.576 1.09778 6.02175 0
M  V30 3797 N 364.713 0.40925 7.00906 0
M  V30 3798 H 369.553 1.38751 2.63727 0
M  V30 3799 H 367.09 0.695303 1.2963 0
M  V30 3800 H 369.048 -0.593233 4.12961 0
M  V30 3801 H 367.678 -1.0083 3.06648 0
M  V30 3802 H 366.73 1.36253 3.55161 0
M  V30 3803 H 368.042 1.58005 4.73113 0
M  V30 3804 H 367.196 -0.367904 6.05583 0
M  V30 3805 H 365.935 -0.678994 4.8295 0
M  V30 3806 H 364.94 1.5844 5.26476 0
M  V30 3807 H 366.165 1.88536 6.52404 0
M  V30 3808 H 364.111 -0.358506 6.5502 0
M  V30 3809 H 364.028 1.10226 7.47921 0
M  V30 3810 H 365.296 -0.0442557 7.79487 0
M  V30 3811 N 369.525 -1.3858 0.750561 0
M  V30 3812 C 370.765 -2.02032 0.310258 0
M  V30 3813 C 371.129 -1.58288 -1.08668 0
M  V30 3814 O 372.33 -2.14049 -1.62593 0
M  V30 3815 C 370.601 -3.54856 0.425647 0
M  V30 3816 S 372.16 -4.38748 0.0674797 0
M  V30 3817 H 368.978 -0.700705 0.120554 0
M  V30 3818 H 371.58 -1.69134 0.980512 0
M  V30 3819 H 370.284 -3.84182 1.44335 0
M  V30 3820 H 369.815 -3.92527 -0.261894 0
M  V30 3821 H 371.83 -4.82835 -1.14388 0
M  V30 3822 N 371.003 -0.499398 -1.49478 0
M  V30 3823 C 372.419 -0.155261 -1.58843 0
M  V30 3824 C 372.619 1.34008 -1.50479 0
M  V30 3825 O 371.675 2.11589 -1.37791 0
M  V30 3826 C 372.988 -0.730636 -2.91689 0
M  V30 3827 C 374.536 -0.696599 -3.0515 0
M  V30 3828 C 375.011 -1.25001 -4.40612 0
M  V30 3829 N 376.502 -1.21064 -4.47099 0
M  V30 3830 C 377.237 -1.60905 -5.50361 0
M  V30 3831 N 376.733 -2.08331 -6.60735 0
M  V30 3832 N 378.526 -1.52331 -5.41065 0
M  V30 3833 H 370.677 -1.47162 -1.53158 0
M  V30 3834 H 372.94 -0.610309 -0.725415 0
M  V30 3835 H 372.646 -1.77928 -3.03372 0
M  V30 3836 H 372.52 -0.190161 -3.7672 0
M  V30 3837 H 374.907 0.343204 -2.93097 0
M  V30 3838 H 374.988 -1.2742 -2.21806 0
M  V30 3839 H 374.632 -2.28859 -4.53416 0
M  V30 3840 H 374.562 -0.64836 -5.22593 0
M  V30 3841 H 377.053 -0.863128 -3.67911 0
M  V30 3842 H 377.366 -2.36805 -7.35624 0
M  V30 3843 H 375.711 -2.12304 -6.6178 0
M  V30 3844 H 378.902 -1.151 -4.53729 0
M  V30 3845 H 379.075 -1.83704 -6.21415 0
M  V30 3846 N 372.481 1.55866 -0.233164 0
M  V30 3847 C 373.728 1.98603 0.395374 0
M  V30 3848 C 374.056 1.12105 1.58942 0
M  V30 3849 O 373.311 0.168656 1.94972 0
M  V30 3850 C 373.61 3.46856 0.861724 0
M  V30 3851 C 373.276 4.50348 -0.223066 0
M  V30 3852 C 371.938 4.78371 -0.521038 0
M  V30 3853 C 374.29 5.12355 -0.956124 0
M  V30 3854 C 371.618 5.6568 -1.55638 0
M  V30 3855 C 373.97 6.00786 -1.98089 0
M  V30 3856 C 372.634 6.27148 -2.28565 0
M  V30 3857 H 371.904 0.726739 0.144677 0
M  V30 3858 H 374.551 1.88491 -0.338114 0
M  V30 3859 H 372.856 3.5423 1.67418 0
M  V30 3860 H 374.553 3.77302 1.35809 0
M  V30 3861 H 371.143 4.28596 0.0193234 0
M  V30 3862 H 375.327 4.90765 -0.739166 0
M  V30 3863 H 370.583 5.84365 -1.798 0
M  V30 3864 H 374.757 6.4788 -2.55391 0
M  V30 3865 H 372.384 6.94597 -3.08932 0
M  V30 3866 N 373.959 -0.0401083 1.57549 0
M  V30 3867 C 374.889 -1.04384 2.08869 0
M  V30 3868 C 375.87 -1.38407 0.988817 0
M  V30 3869 O 377.055 -1.47483 1.26342 0
M  V30 3870 C 374.185 -2.34808 2.55895 0
M  V30 3871 C 373.139 -2.15057 3.70047 0
M  V30 3872 C 372.465 -3.51145 4.03239 0
M  V30 3873 C 373.765 -1.54576 4.98902 0
M  V30 3874 H 375.459 -0.616666 2.92981 0
M  V30 3875 H 373.005 -0.295184 1.40942 0
M  V30 3876 H 374.958 -3.05346 2.90417 0
M  V30 3877 H 373.682 -2.79565 1.68853 0
M  V30 3878 H 372.341 -1.46954 3.35857 0
M  V30 3879 H 371.989 -3.93529 3.13279 0
M  V30 3880 H 371.689 -3.38758 4.80122 0
M  V30 3881 H 373.213 -4.23062 4.40285 0
M  V30 3882 H 374.627 -2.15017 5.31451 0
M  V30 3883 H 373.024 -1.52796 5.80322 0
M  V30 3884 H 374.094 -0.51039 4.82206 0
M  V30 3885 N 375.437 -1.54477 -0.31217 0
M  V30 3886 C 376.384 -1.84655 -1.38461 0
M  V30 3887 C 377.354 -0.694536 -1.50882 0
M  V30 3888 O 378.539 -0.942081 -1.6592 0
M  V30 3889 C 375.679 -2.0896 -2.74645 0
M  V30 3890 C 374.792 -3.36618 -2.70763 0
M  V30 3891 C 373.927 -3.50824 -3.98868 0
M  V30 3892 C 372.966 -4.72315 -3.89339 0
M  V30 3893 N 372.103 -4.83387 -5.09197 0
M  V30 3894 H 376.943 -2.76142 -1.12026 0
M  V30 3895 H 374.48 -1.36748 -0.542065 0
M  V30 3896 H 376.438 -2.21045 -3.53829 0
M  V30 3897 H 375.068 -1.20752 -2.99364 0
M  V30 3898 H 374.12 -3.33211 -1.83506 0
M  V30 3899 H 375.432 -4.25917 -2.59608 0
M  V30 3900 H 374.586 -3.62513 -4.86486 0
M  V30 3901 H 373.325 -2.59638 -4.12843 0
M  V30 3902 H 372.33 -4.6067 -3.00105 0
M  V30 3903 H 373.555 -5.64897 -3.76919 0
M  V30 3904 H 371.501 -3.9512 -5.23657 0
M  V30 3905 H 371.418 -5.66669 -5.00422 0
M  V30 3906 H 372.686 -4.9942 -5.98498 0
M  V30 3907 N 376.915 0.57481 -1.46744 0
M  V30 3908 C 378.164 1.32898 -1.51727 0
M  V30 3909 C 378.477 1.948 -0.176692 0
M  V30 3910 O 379.683 2.71299 -0.104385 0
M  V30 3911 C 378.139 2.40901 -2.67385 0
M  V30 3912 C 377.747 1.85266 -4.07898 0
M  V30 3913 C 379.491 3.17609 -2.81646 0
M  V30 3914 C 377.398 2.90945 -5.14883 0
M  V30 3915 H 376.328 0.499631 -0.564699 0
M  V30 3916 H 378.979 0.612536 -1.72975 0
M  V30 3917 H 377.361 3.15379 -2.39483 0
M  V30 3918 H 378.535 1.17278 -4.45626 0
M  V30 3919 H 376.85 1.21199 -3.98371 0
M  V30 3920 H 379.447 3.96493 -3.58744 0
M  V30 3921 H 379.79 3.70696 -1.89448 0
M  V30 3922 H 380.323 2.50239 -3.09233 0
M  V30 3923 H 377.062 2.42736 -6.089 0
M  V30 3924 H 376.582 3.57398 -4.81691 0
M  V30 3925 H 378.261 3.54755 -5.41071 0
M  V30 3926 N 378.394 1.34581 0.820102 0
M  V30 3927 C 379.81 1.14325 1.11364 0
M  V30 3928 C 380.01 -0.0533648 2.01429 0
M  V30 3929 O 379.066 -0.728044 2.41776 0
M  V30 3930 C 380.379 2.43983 1.75764 0
M  V30 3931 C 381.927 2.50065 1.88246 0
M  V30 3932 C 382.402 3.79732 2.56061 0
M  V30 3933 N 383.893 3.80908 2.63558 0
M  V30 3934 C 384.628 4.77961 3.16766 0
M  V30 3935 N 384.124 5.85397 3.70517 0
M  V30 3936 N 385.917 4.65413 3.15194 0
M  V30 3937 H 378.068 2.11246 0.221096 0
M  V30 3938 H 380.331 0.934289 0.160649 0
M  V30 3939 H 380.037 3.31651 1.1705 0
M  V30 3940 H 379.911 2.57531 2.75604 0
M  V30 3941 H 382.298 1.62834 2.46108 0
M  V30 3942 H 382.379 2.40442 0.873006 0
M  V30 3943 H 382.023 4.67354 1.98853 0
M  V30 3944 H 381.953 3.86639 3.57516 0
M  V30 3945 H 384.444 3.03274 2.25463 0
M  V30 3946 H 384.757 6.55463 4.09376 0
M  V30 3947 H 383.102 5.89107 3.68752 0
M  V30 3948 H 386.293 3.80627 2.72471 0
M  V30 3949 H 386.466 5.41216 3.56356 0
M  V30 3950 N 379.872 -1.04064 1.18357 0
M  V30 3951 C 380.782 -2.15569 0.925596 0
M  V30 3952 C 381.798 -1.7365 -0.110295 0
M  V30 3953 O 382.974 -2.01273 0.0716218 0
M  V30 3954 C 380.039 -3.43704 0.454836 0
M  V30 3955 C 379.1 -4.00004 1.55869 0
M  V30 3956 C 378.333 -5.22023 1.1103 0
M  V30 3957 O 378.556 -5.70392 -0.0309756 0
M  V30 3958 O 377.49 -5.70856 1.90805 0
M  V30 3959 H 381.316 -2.40187 1.8586 0
M  V30 3960 H 378.901 -1.1402 0.965394 0
M  V30 3961 H 380.783 -4.20923 0.200382 0
M  V30 3962 H 379.458 -3.20559 -0.449876 0
M  V30 3963 H 378.365 -3.24172 1.86716 0
M  V30 3964 H 379.698 -4.2749 2.43953 0
M  V30 3965 N 381.35 -0.985608 -1.22978 0
M  V30 3966 C 382.598 -0.656087 -1.91154 0
M  V30 3967 C 382.919 0.813561 -1.77218 0
M  V30 3968 O 382.189 1.58244 -1.1548 0
M  V30 3969 H 380.769 -0.239674 -0.707506 0
M  V30 3970 H 383.431 -1.25054 -1.49491 0
M  V30 3971 H 382.527 -0.912253 -2.9847 0
M  V30 3972 N 382.828 1.3818 -0.7579 0
M  V30 3973 C 384.244 1.5353 -0.435972 0
M  V30 3974 C 384.444 1.71961 1.05032 0
M  V30 3975 O 383.5 1.73307 1.83633 0
M  V30 3976 C 384.813 2.73989 -1.23898 0
M  V30 3977 C 386.361 2.87841 -1.22949 0
M  V30 3978 C 386.836 4.11266 -2.01554 0
M  V30 3979 N 388.327 4.18352 -1.98837 0
M  V30 3980 C 389.062 5.12856 -2.5645 0
M  V30 3981 N 388.558 6.13005 -3.22794 0
M  V30 3982 N 390.351 5.05238 -2.46356 0
M  V30 3983 H 382.502 1.24467 -1.7211 0
M  V30 3984 H 384.765 0.604982 -0.729864 0
M  V30 3985 H 384.471 2.66789 -2.29165 0
M  V30 3986 H 384.345 3.67294 -0.858764 0
M  V30 3987 H 386.732 2.9452 -0.184854 0
M  V30 3988 H 386.813 1.95534 -1.64924 0
M  V30 3989 H 386.457 4.05349 -3.06031 0
M  V30 3990 H 386.387 5.02661 -1.5697 0
M  V30 3991 H 388.878 3.46628 -1.50524 0
M  V30 3992 H 389.191 6.81619 -3.64165 0
M  V30 3993 H 387.536 6.13325 -3.2689 0
M  V30 3994 H 390.727 4.25938 -1.9415 0
M  V30 3995 H 390.9 5.78707 -2.91552 0
M  V30 3996 N 384.306 0.507319 1.49211 0
M  V30 3997 C 385.555 -0.0368315 2.01666 0
M  V30 3998 C 385.868 -1.37459 1.39156 0
M  V30 3999 O 387.074 -2.00579 1.82976 0
M  V30 4000 C 385.53 -0.116089 3.59713 0
M  V30 4001 C 385.138 1.2154 4.31198 0
M  V30 4002 C 386.882 -0.610268 4.2009 0
M  V30 4003 C 384.789 1.09796 5.81119 0
M  V30 4004 H 383.719 -0.0175376 0.753796 0
M  V30 4005 H 386.37 0.647691 1.71689 0
M  V30 4006 H 384.752 -0.8652 3.86433 0
M  V30 4007 H 385.926 1.9783 4.16173 0
M  V30 4008 H 384.241 1.64352 3.82593 0
M  V30 4009 H 386.838 -0.715742 5.29888 0
M  V30 4010 H 387.181 -1.61064 3.8388 0
M  V30 4011 H 387.714 0.0824916 3.97714 0
M  V30 4012 H 384.453 2.0728 6.21864 0
M  V30 4013 H 383.973 0.376058 5.9862 0
M  V30 4014 H 385.652 0.779281 6.4229 0
M  V30 4015 N 385.784 -1.5574 0.241426 0
M  V30 4016 C 387.033 -1.97986 -0.385295 0
M  V30 4017 C 387.346 -1.13267 -1.59468 0
M  V30 4018 O 388.552 -1.45501 -2.2922 0
M  V30 4019 C 387.008 -3.52275 -0.736884 0
M  V30 4020 C 386.616 -4.45726 0.450796 0
M  V30 4021 C 388.36 -4.03189 -1.3281 0
M  V30 4022 C 386.267 -5.91352 0.0756662 0
M  V30 4023 H 385.197 -0.739386 -0.147731 0
M  V30 4024 H 387.848 -1.80308 0.340779 0
M  V30 4025 H 386.23 -3.65628 -1.52094 0
M  V30 4026 H 387.404 -4.44131 1.22819 0
M  V30 4027 H 385.719 -4.05264 0.956573 0
M  V30 4028 H 388.316 -5.09505 -1.62201 0
M  V30 4029 H 388.659 -3.50212 -2.25071 0
M  V30 4030 H 389.192 -3.93141 -0.607069 0
M  V30 4031 H 385.931 -6.48354 0.965272 0
M  V30 4032 H 385.451 -5.96095 -0.665635 0
M  V30 4033 H 387.13 -6.46084 -0.344075 0
M  V30 4034 N 387.262 0.0317525 -1.57568 0
M  V30 4035 C 388.209 1.0332 -2.06382 0
M  V30 4036 C 389.179 1.36082 -0.952414 0
M  V30 4037 O 390.364 1.46466 -1.2228 0
M  V30 4038 C 387.504 2.32989 -2.54578 0
M  V30 4039 C 386.617 2.0641 -3.79498 0
M  V30 4040 C 385.752 3.2993 -4.16317 0
M  V30 4041 C 384.791 2.98893 -5.34162 0
M  V30 4042 N 383.928 4.14857 -5.66426 0
M  V30 4043 H 388.768 0.609982 -2.9169 0
M  V30 4044 H 386.305 0.289573 -1.44222 0
M  V30 4045 H 388.263 3.0875 -2.80587 0
M  V30 4046 H 386.893 2.73039 -1.7219 0
M  V30 4047 H 385.945 1.21158 -3.6059 0
M  V30 4048 H 387.257 1.79513 -4.65378 0
M  V30 4049 H 386.411 4.1406 -4.4344 0
M  V30 4050 H 385.15 3.59938 -3.29083 0
M  V30 4051 H 384.155 2.13164 -5.06795 0
M  V30 4052 H 385.38 2.70165 -6.23047 0
M  V30 4053 H 383.326 4.44821 -4.82151 0
M  V30 4054 H 383.243 3.91374 -6.4681 0
M  V30 4055 H 384.511 4.99868 -5.98124 0
M  V30 4056 N 388.74 1.54641 0.303973 0
M  V30 4057 C 389.65 1.88439 1.39743 0
M  V30 4058 C 390.666 0.778239 1.55626 0
M  V30 4059 O 391.842 1.07442 1.70347 0
M  V30 4060 C 388.907 2.12212 2.74166 0
M  V30 4061 C 387.968 3.35936 2.67293 0
M  V30 4062 C 387.201 3.58566 3.95305 0
M  V30 4063 O 387.424 2.84263 4.9452 0
M  V30 4064 O 386.358 4.52078 3.97378 0
M  V30 4065 H 390.184 2.81458 1.14083 0
M  V30 4066 H 387.769 1.40793 0.499768 0
M  V30 4067 H 389.651 2.29067 3.53704 0
M  V30 4068 H 388.326 1.22379 2.99675 0
M  V30 4069 H 387.233 3.24448 1.86237 0
M  V30 4070 H 388.566 4.2589 2.46736 0
M  V30 4071 N 390.218 -0.567019 1.47046 0
M  V30 4072 C 391.467 -1.32091 1.5243 0
M  V30 4073 C 391.78 -1.94704 0.187021 0
M  V30 4074 O 392.986 -2.7124 0.118771 0
M  V30 4075 C 391.442 -2.39479 2.68659 0
M  V30 4076 C 391.05 -1.831 4.08874 0
M  V30 4077 C 392.794 -3.16111 2.83327 0
M  V30 4078 C 390.701 -2.8821 5.16419 0
M  V30 4079 H 389.631 -0.496629 0.56734 0
M  V30 4080 H 392.282 -0.603354 1.73297 0
M  V30 4081 H 390.664 -3.14105 2.41152 0
M  V30 4082 H 391.838 -1.14913 4.46242 0
M  V30 4083 H 390.153 -1.19085 3.99008 0
M  V30 4084 H 392.75 -3.94585 3.60842 0
M  V30 4085 H 393.093 -3.69686 1.91411 0
M  V30 4086 H 393.626 -2.48595 3.10556 0
M  V30 4087 H 390.365 -2.39504 6.10179 0
M  V30 4088 H 389.885 -3.54839 4.8358 0
M  V30 4089 H 391.564 -3.51881 5.42945 0
M  V30 4090 N 391.696 -1.35014 -0.812953 0
M  V30 4091 C 392.626 -1.30069 -1.93919 0
M  V30 4092 C 393.607 -0.176275 -1.69184 0
M  V30 4093 O 394.792 -0.370227 -1.90638 0
M  V30 4094 C 391.922 -1.06547 -3.30552 0
M  V30 4095 C 390.876 -2.15561 -3.69753 0
M  V30 4096 C 390.202 -1.77214 -5.04479 0
M  V30 4097 C 391.502 -3.57476 -3.808 0
M  V30 4098 H 393.196 -2.24303 -1.98314 0
M  V30 4099 H 390.742 -1.07977 -0.952736 0
M  V30 4100 H 392.695 -1.01729 -4.08937 0
M  V30 4101 H 391.419 -0.0875719 -3.26483 0
M  V30 4102 H 390.078 -2.19466 -2.9365 0
M  V30 4103 H 389.726 -0.780589 -4.96906 0
M  V30 4104 H 389.426 -2.50184 -5.31678 0
M  V30 4105 H 390.95 -1.7391 -5.8531 0
M  V30 4106 H 392.364 -3.55929 -4.4943 0
M  V30 4107 H 390.761 -4.29152 -4.19462 0
M  V30 4108 H 391.831 -3.94091 -2.82525 0
M  V30 4109 N 393.175 1.03435 -1.18907 0
M  V30 4110 C 394.586 1.58195 -0.991523 0
M  V30 4111 C 394.937 1.90801 0.457081 0
M  V30 4112 O 394.062 1.70272 1.33553 0
M  V30 4113 C 394.657 2.87432 -1.79355 0
M  V30 4114 C 393.216 3.38785 -1.64017 0
M  V30 4115 C 392.363 2.12292 -1.78402 0
M  V30 4116 H 395.314 0.860299 -1.33359 0
M  V30 4117 H 395.335 3.58096 -1.28638 0
M  V30 4118 H 394.847 2.63669 -2.84781 0
M  V30 4119 H 392.948 3.67547 -0.611536 0
M  V30 4120 H 393.061 4.12186 -2.44212 0
M  V30 4121 H 391.425 2.23901 -1.2141 0
M  V30 4122 H 392.208 1.90977 -2.85277 0
M  V30 4123 N 394.653 0.992116 1.22453 0
M  V30 4124 C 395.881 0.685944 1.95198 0
M  V30 4125 C 396.296 -0.749233 1.73297 0
M  V30 4126 O 395.653 -1.50549 1.03156 0
M  V30 4127 C 395.704 0.981395 3.47924 0
M  V30 4128 O 395.425 2.36018 3.6909 0
M  V30 4129 C 396.926 0.692815 4.37853 0
M  V30 4130 H 394.146 0.253821 0.621141 0
M  V30 4131 H 396.69 1.32668 1.55626 0
M  V30 4132 H 394.845 0.386481 3.85467 0
M  V30 4133 H 395.259 2.45884 4.63294 0
M  V30 4134 H 396.733 0.949818 5.43767 0
M  V30 4135 H 397.21 -0.373181 4.37612 0
M  V30 4136 H 397.816 1.26874 4.05935 0
M  V30 4137 N 396.131 -1.37776 0.765217 0
M  V30 4138 C 397.379 -1.99454 0.325943 0
M  V30 4139 C 397.7 -1.61049 -1.09947 0
M  V30 4140 O 396.97 -0.872821 -1.75381 0
M  V30 4141 H 395.55 -0.737697 0.117525 0
M  V30 4142 H 398.212 -1.68359 0.981895 0
M  V30 4143 H 397.308 -3.09547 0.398353 0
M  V30 4144 N 397.609 -0.515225 -1.4894 0
M  V30 4145 C 399.025 -0.172099 -1.58669 0
M  V30 4146 C 399.225 1.32405 -1.51892 0
M  V30 4147 O 398.281 2.10116 -1.40027 0
M  V30 4148 C 399.594 -0.761533 -2.90897 0
M  V30 4149 C 401.142 -0.728926 -3.04394 0
M  V30 4150 C 401.617 -1.29667 -4.39261 0
M  V30 4151 N 403.108 -1.25799 -4.4579 0
M  V30 4152 C 403.843 -1.66733 -5.48623 0
M  V30 4153 N 403.339 -2.15327 -6.58488 0
M  V30 4154 N 405.132 -1.58061 -5.39419 0
M  V30 4155 H 397.283 -1.48778 -1.51588 0
M  V30 4156 H 399.546 -0.617968 -0.718901 0
M  V30 4157 H 399.252 -1.81136 -3.01468 0
M  V30 4158 H 399.126 -0.230106 -3.76497 0
M  V30 4159 H 401.513 0.312098 -2.93445 0
M  V30 4160 H 401.594 -1.29766 -2.20442 0
M  V30 4161 H 401.238 -2.33655 -4.50963 0
M  V30 4162 H 401.168 -0.703752 -5.21876 0
M  V30 4163 H 403.659 -0.902102 -3.66975 0
M  V30 4164 H 403.972 -2.44594 -7.33071 0
M  V30 4165 H 402.317 -2.19311 -6.59491 0
M  V30 4166 H 405.508 -1.19906 -4.52482 0
M  V30 4167 H 405.681 -1.90284 -6.19432 0
M  V30 4168 N 399.087 1.5561 -0.249682 0
M  V30 4169 C 400.333 1.99306 0.374841 0
M  V30 4170 C 400.666 1.13767 1.57387 0
M  V30 4171 O 399.941 0.201711 1.93451 0
M  V30 4172 C 400.224 3.51507 0.781986 0
M  V30 4173 C 400.077 4.4781 -0.422629 0
M  V30 4174 C 401.396 4.08884 1.62793 0
M  V30 4175 H 398.515 0.724572 0.134773 0
M  V30 4176 H 401.157 1.86719 -0.351549 0
M  V30 4177 H 399.307 3.62363 1.4009 0
M  V30 4178 H 400.979 4.48931 -1.06108 0
M  V30 4179 H 399.222 4.20518 -1.06524 0
M  V30 4180 H 399.893 5.51919 -0.0943766 0
M  V30 4181 H 402.369 4.01147 1.10547 0
M  V30 4182 H 401.245 5.1564 1.88166 0
M  V30 4183 H 401.506 3.57515 2.60068 0
M  V30 4184 N 400.565 -0.0233959 1.57583 0
M  V30 4185 C 401.475 -1.03907 2.10334 0
M  V30 4186 C 402.491 -1.39257 1.04323 0
M  V30 4187 O 403.667 -1.48462 1.36091 0
M  V30 4188 C 400.732 -2.31938 2.57693 0
M  V30 4189 C 399.793 -2.03117 3.78209 0
M  V30 4190 C 399.026 -3.25043 4.233 0
M  V30 4191 O 399.249 -4.35916 3.67876 0
M  V30 4192 O 398.183 -3.10411 5.15683 0
M  V30 4193 H 402.009 -0.620748 2.97288 0
M  V30 4194 H 399.594 -0.240743 1.47448 0
M  V30 4195 H 401.476 -3.07196 2.88458 0
M  V30 4196 H 400.151 -2.73055 1.73847 0
M  V30 4197 H 399.058 -1.25408 3.52454 0
M  V30 4198 H 400.391 -1.66852 4.63056 0
M  V30 4199 N 402.043 -1.548 -0.295768 0
M  V30 4200 C 402.993 -1.82497 -1.3667 0
M  V30 4201 C 403.977 -0.682434 -1.45711 0
M  V30 4202 O 405.169 -0.943207 -1.49775 0
M  V30 4203 C 402.298 -2.08036 -2.73086 0
M  V30 4204 C 401.384 -3.28488 -2.68247 0
M  V30 4205 N 401.775 -4.48924 -2.33025 0
M  V30 4206 C 400.073 -3.3062 -2.99343 0
M  V30 4207 C 400.774 -5.30956 -2.37613 0
M  V30 4208 N 399.75 -4.68805 -2.75178 0
M  V30 4209 H 403.552 -2.73175 -1.0841 0
M  V30 4210 H 401.066 -1.5437 -0.504361 0
M  V30 4211 H 403.063 -2.26027 -3.5031 0
M  V30 4212 H 401.723 -1.18629 -3.02254 0
M  V30 4213 H 402.734 -4.75432 -2.05389 0
M  V30 4214 H 399.411 -2.51336 -3.33371 0
M  V30 4215 H 400.801 -6.37199 -2.13135 0
M  V30 4216 N 403.521 0.559213 -1.47345 0
M  V30 4217 C 404.749 1.34194 -1.57479 0
M  V30 4218 C 405.164 1.87463 -0.224261 0
M  V30 4219 O 404.521 1.64888 0.782185 0
M  V30 4220 C 404.572 2.51324 -2.59843 0
M  V30 4221 O 404.293 2.00256 -3.89653 0
M  V30 4222 C 405.794 3.43563 -2.80142 0
M  V30 4223 H 403.014 0.409136 -0.531835 0
M  V30 4224 H 405.558 0.677609 -1.92947 0
M  V30 4225 H 403.713 3.13699 -2.27314 0
M  V30 4226 H 404.127 2.76708 -4.4557 0
M  V30 4227 H 405.601 4.2217 -3.55635 0
M  V30 4228 H 406.078 3.9698 -1.87892 0
M  V30 4229 H 406.684 2.87005 -3.1386 0
M  V30 4230 N 404.999 1.35443 0.805782 0
M  V30 4231 C 405.909 1.30546 1.94923 0
M  V30 4232 C 406.925 0.210233 1.72725 0
M  V30 4233 O 408.101 0.43975 1.9654 0
M  V30 4234 C 405.166 1.07782 3.29521 0
M  V30 4235 C 404.227 2.26625 3.64609 0
M  V30 4236 C 403.46 2.04938 4.92784 0
M  V30 4237 O 403.683 1.01624 5.61274 0
M  V30 4238 O 402.617 2.9232 5.26149 0
M  V30 4239 H 406.443 2.26779 2.02002 0
M  V30 4240 H 404.028 1.15823 0.943682 0
M  V30 4241 H 405.91 0.969392 4.10098 0
M  V30 4242 H 404.585 0.146003 3.23371 0
M  V30 4243 H 403.492 2.43033 2.84404 0
M  V30 4244 H 404.825 3.18257 3.75464 0
M  V30 4245 N 406.477 -1.02803 1.19454 0
M  V30 4246 C 407.387 -2.14575 0.948408 0
M  V30 4247 C 408.403 -1.73757 -0.091871 0
M  V30 4248 O 409.579 -2.01185 0.0929654 0
M  V30 4249 C 406.644 -3.43202 0.491265 0
M  V30 4250 C 405.705 -3.98328 1.60103 0
M  V30 4251 C 404.938 -5.20816 1.16561 0
M  V30 4252 O 405.161 -5.70392 0.0295238 0
M  V30 4253 O 404.095 -5.68801 1.96849 0
M  V30 4254 H 407.921 -2.38202 1.88397 0
M  V30 4255 H 405.506 -1.12989 0.977433 0
M  V30 4256 H 407.388 -4.20687 0.245015 0
M  V30 4257 H 406.063 -3.21018 -0.415851 0
M  V30 4258 H 404.97 -3.22174 1.90144 0
M  V30 4259 H 406.303 -4.24879 2.48473 0
M  V30 4260 N 407.956 -0.998596 -1.21925 0
M  V30 4261 C 409.196 -0.685948 -1.92546 0
M  V30 4262 C 409.56 0.768441 -1.75952 0
M  V30 4263 O 410.761 1.19277 -2.40887 0
M  V30 4264 C 409.032 -1.08767 -3.40448 0
M  V30 4265 S 410.591 -0.894251 -4.29591 0
M  V30 4266 H 407.409 -0.250622 -0.665364 0
M  V30 4267 H 410.011 -1.28207 -1.47591 0
M  V30 4268 H 408.715 -2.14242 -3.50041 0
M  V30 4269 H 408.246 -0.48357 -3.90417 0
M  V30 4270 H 410.261 0.212149 -4.95746 0
M  V30 4271 N 409.434 1.37368 -0.772513 0
M  V30 4272 C 410.662 2.03942 -0.348588 0
M  V30 4273 C 411.077 1.58264 1.02947 0
M  V30 4274 O 410.434 0.764246 1.65727 0
M  V30 4275 C 410.485 3.5946 -0.38351 0
M  V30 4276 O 410.206 4.03468 -1.70721 0
M  V30 4277 C 411.707 4.4327 0.0519152 0
M  V30 4278 H 408.927 0.654931 -0.145966 0
M  V30 4279 H 411.471 1.75686 -1.04665 0
M  V30 4280 H 409.626 3.86486 0.265978 0
M  V30 4281 H 410.04 4.97991 -1.64636 0
M  V30 4282 H 411.514 5.51995 -0.0236733 0
M  V30 4283 H 411.991 4.2514 1.10238 0
M  V30 4284 H 412.597 4.21471 -0.569415 0
M  V30 4285 N 410.912 0.523116 1.48665 0
M  V30 4286 C 412.152 -0.0115588 2.04397 0
M  V30 4287 C 412.516 -1.32225 1.39214 0
M  V30 4288 O 413.717 -1.94253 1.85793 0
M  V30 4289 C 411.988 -0.138119 3.57133 0
M  V30 4290 S 413.547 -0.623849 4.34343 0
M  V30 4291 H 410.365 0.00877706 0.710946 0
M  V30 4292 H 412.967 0.702116 1.82457 0
M  V30 4293 H 411.671 0.820748 4.02109 0
M  V30 4294 H 411.202 -0.876377 3.83514 0
M  V30 4295 H 413.217 -1.8895 4.58816 0
M  V30 4296 N 412.39 -1.55475 0.257931 0
M  V30 4297 C 413.638 -1.98813 -0.363009 0
M  V30 4298 C 413.959 -1.14757 -1.57657 0
M  V30 4299 O 413.229 -0.232956 -1.9451 0
M  V30 4300 H 411.809 -0.734308 -0.137113 0
M  V30 4301 H 414.471 -1.9156 0.359281 0
M  V30 4302 H 413.567 -3.04941 -0.664634 0
M  V30 4303 N 413.868 0.0150385 -1.57593 0
M  V30 4304 C 415.115 0.703001 -1.89906 0
M  V30 4305 C 415.443 1.74604 -0.856944 0
M  V30 4306 O 414.698 1.95197 0.140287 0
M  V30 4307 C 414.997 1.39686 -3.28972 0
M  V30 4308 C 414.663 0.488457 -4.48246 0
M  V30 4309 C 413.325 0.2383 -4.8061 0
M  V30 4310 C 415.677 -0.137881 -5.21018 0
M  V30 4311 C 413.005 -0.646738 -5.83125 0
M  V30 4312 C 415.357 -1.0107 -6.24474 0
M  V30 4313 C 414.021 -1.27019 -6.55303 0
M  V30 4314 H 413.291 0.257246 -0.694914 0
M  V30 4315 H 415.938 -0.037259 -1.91464 0
M  V30 4316 H 414.243 2.21079 -3.23468 0
M  V30 4317 H 415.94 1.93495 -3.51227 0
M  V30 4318 H 412.53 0.693593 -4.22951 0
M  V30 4319 H 416.714 0.0423953 -4.96282 0
M  V30 4320 H 411.97 -0.855937 -6.05379 0
M  V30 4321 H 416.144 -1.50247 -6.79999 0
M  V30 4322 H 413.771 -1.95769 -7.3456 0
M  V30 4323 N 415.346 1.54954 0.287554 0
M  V30 4324 C 416.309 1.86076 1.33823 0
M  V30 4325 C 417.309 0.734414 1.43049 0
M  V30 4326 O 418.499 1.00266 1.42452 0
M  V30 4327 C 415.631 2.05305 2.72144 0
M  V30 4328 H 416.824 2.79984 1.07465 0
M  V30 4329 H 414.377 1.47223 0.524902 0
M  V30 4330 H 415.112 1.1373 3.03704 0
M  V30 4331 H 414.897 2.873 2.66836 0
M  V30 4332 H 416.387 2.30706 3.48087 0
M  V30 4333 N 416.824 -0.551391 1.4764 0
M  V30 4334 C 418.049 -1.33837 1.58437 0
M  V30 4335 C 418.474 -1.866 0.237063 0
M  V30 4336 O 417.832 -1.6328 -0.787994 0
M  V30 4337 C 417.88 -2.48014 2.61766 0
M  V30 4338 O 416.984 -3.50419 2.1744 0
M  V30 4339 H 416.325 -0.397299 0.532024 0
M  V30 4340 H 418.855 -0.665759 1.93465 0
M  V30 4341 H 418.865 -2.94503 2.82369 0
M  V30 4342 H 417.54 -2.08969 3.5959 0
M  V30 4343 H 416.117 -3.10196 2.06961 0
M  V30 4344 N 418.302 -1.35869 -0.798587 0
M  V30 4345 C 419.25 -1.29491 -1.93222 0
M  V30 4346 C 420.244 -0.18836 -1.6835 0
M  V30 4347 O 421.45 -0.354822 -1.76468 0
M  V30 4348 H 417.825 -0.402901 -0.63496 0
M  V30 4349 H 419.796 -2.25247 -1.9572 0
M  V30 4350 C 418.545 -1.09184 -3.30112 0
M  V30 4351 H 417.868 -1.93574 -3.49813 0
M  V30 4352 H 419.308 -1.08766 -4.09812 0
M  V30 4353 C 417.767 0.203959 -3.36282 0
M  V30 4354 O 418.297 1.19699 -3.83451 0
M  V30 4355 N 416.503 0.245488 -2.89561 0
M  V30 4356 H 416.05 -0.563223 -2.51367 0
M  V30 4357 H 416.008 1.11219 -2.94071 0
M  V30 4358 N 419.78 1.02168 -1.19998 0
M  V30 4359 C 420.727 2.10601 -0.944228 0
M  V30 4360 C 421.697 1.65639 0.123664 0
M  V30 4361 O 422.882 1.9079 -0.0199941 0
M  V30 4362 C 420.022 3.41504 -0.496865 0
M  V30 4363 C 419.135 3.99973 -1.63234 0
M  V30 4364 C 418.27 5.18915 -1.13579 0
M  V30 4365 C 417.309 5.69456 -2.24468 0
M  V30 4366 N 416.446 6.79665 -1.76068 0
M  V30 4367 H 421.286 2.31814 -1.8726 0
M  V30 4368 H 418.823 1.13686 -0.933483 0
M  V30 4369 H 420.781 4.16626 -0.218843 0
M  V30 4370 H 419.411 3.2038 0.394508 0
M  V30 4371 H 418.463 3.21997 -2.0254 0
M  V30 4372 H 419.775 4.33492 -2.46752 0
M  V30 4373 H 418.929 6.01222 -0.813429 0
M  V30 4374 H 417.668 4.8695 -0.270434 0
M  V30 4375 H 416.673 4.85757 -2.57526 0
M  V30 4376 H 417.898 6.03459 -3.11472 0
M  V30 4377 H 415.844 6.49538 -0.918516 0
M  V30 4378 H 415.761 7.12349 -2.5317 0
M  V30 4379 H 417.029 7.65549 -1.46817 0
M  V30 4380 N 421.258 1.00505 1.21394 0
M  V30 4381 C 422.486 0.706609 1.9446 0
M  V30 4382 C 422.901 -0.73081 1.74082 0
M  V30 4383 O 422.258 -1.49446 1.04747 0
M  V30 4384 C 422.309 1.01824 3.46863 0
M  V30 4385 O 422.03 2.39919 3.66566 0
M  V30 4386 C 423.531 0.739216 4.37093 0
M  V30 4387 H 420.751 0.260394 0.618414 0
M  V30 4388 H 423.295 1.34311 1.54211 0
M  V30 4389 H 421.45 0.427343 3.85036 0
M  V30 4390 H 421.864 2.50784 4.6066 0
M  V30 4391 H 423.338 1.00744 5.42729 0
M  V30 4392 H 423.815 -0.326746 4.37983 0
M  V30 4393 H 424.421 1.31173 4.04566 0
M  V30 4394 N 422.737 -1.36956 0.779787 0
M  V30 4395 C 423.986 -1.98738 0.344405 0
M  V30 4396 C 424.299 -1.62596 -1.08728 0
M  V30 4397 O 425.505 -2.1754 -1.62445 0
M  V30 4398 C 423.961 -3.5544 0.564829 0
M  V30 4399 C 423.569 -4.00514 2.0073 0
M  V30 4400 C 425.313 -4.24059 0.193471 0
M  V30 4401 C 423.22 -5.49957 2.17489 0
M  V30 4402 H 422.15 -0.743561 0.12503 0
M  V30 4403 H 424.801 -1.56381 0.960057 0
M  V30 4404 H 423.183 -3.95817 -0.120397 0
M  V30 4405 H 424.357 -3.71362 2.72814 0
M  V30 4406 H 422.672 -3.44703 2.336 0
M  V30 4407 H 425.269 -5.33874 0.297097 0
M  V30 4408 H 425.612 -4.07378 -0.857263 0
M  V30 4409 H 426.145 -3.89012 0.831556 0
M  V30 4410 H 422.884 -5.71574 3.2091 0
M  V30 4411 H 422.404 -5.80767 1.49899 0
M  V30 4412 H 424.083 -6.16043 1.97738 0
M  V30 4413 N 424.215 -0.530993 -1.48385 0
M  V30 4414 C 425.125 0.23503 -2.3342 0
M  V30 4415 C 426.141 0.93801 -1.46552 0
M  V30 4416 O 427.317 0.912745 -1.7953 0
M  V30 4417 C 424.382 1.26778 -3.22689 0
M  V30 4418 C 423.443 0.575038 -4.25431 0
M  V30 4419 C 422.676 1.55858 -5.10435 0
M  V30 4420 O 422.899 2.79129 -4.97437 0
M  V30 4421 O 421.833 1.09742 -5.91811 0
M  V30 4422 H 425.659 -0.461794 -3.00169 0
M  V30 4423 H 423.244 -0.291903 -1.46521 0
M  V30 4424 H 425.126 1.86457 -3.77904 0
M  V30 4425 H 423.801 1.94699 -2.586 0
M  V30 4426 H 422.708 -0.0622782 -3.74048 0
M  V30 4427 H 424.041 -0.062253 -4.92161 0
M  V30 4428 N 425.693 1.55336 -0.266172 0
M  V30 4429 C 426.933 2.01303 0.354459 0
M  V30 4430 C 427.297 1.15046 1.53715 0
M  V30 4431 O 428.498 1.50554 2.22681 0
M  V30 4432 C 426.769 3.49748 0.735579 0
M  V30 4433 S 428.328 4.1771 1.34401 0
M  V30 4434 H 425.146 0.702333 0.110674 0
M  V30 4435 H 427.748 1.91653 -0.385916 0
M  V30 4436 H 426.452 4.10181 -0.134196 0
M  V30 4437 H 425.983 3.63364 1.50764 0
M  V30 4438 H 427.998 4.20594 2.63278 0
M  V30 4439 N 427.171 -0.0066808 1.57599 0
M  V30 4440 C 428.134 -0.985035 2.06953 0
M  V30 4441 C 429.134 -1.27663 0.977687 0
M  V30 4442 O 430.324 -1.22293 1.24057 0
M  V30 4443 C 427.456 -2.3118 2.50536 0
M  V30 4444 H 428.649 -0.558255 2.94658 0
M  V30 4445 H 426.202 -0.254011 1.54222 0
M  V30 4446 H 426.937 -2.78561 1.66054 0
M  V30 4447 H 426.722 -2.11338 3.3027 0
M  V30 4448 H 428.212 -3.01377 2.8907 0
M  V30 4449 N 428.649 -1.55105 -0.279332 0
M  V30 4450 C 429.889 -1.7716 -1.01949 0
M  V30 4451 C 430.253 -0.557511 -1.83728 0
M  V30 4452 O 431.454 -0.656198 -2.60667 0
M  V30 4453 C 429.725 -3.0372 -1.88385 0
M  V30 4454 S 431.284 -3.46868 -2.68752 0
M  V30 4455 H 428.102 -0.62253 -0.343478 0
M  V30 4456 H 430.704 -1.93329 -0.290572 0
M  V30 4457 H 429.408 -3.90184 -1.2722 0
M  V30 4458 H 428.939 -2.902 -2.65608 0
M  V30 4459 H 430.954 -3.05643 -3.90892 0
M  V30 4460 N 430.127 0.543554 -1.4793 0
M  V30 4461 C 431.543 0.870806 -1.3375 0
M  V30 4462 C 431.743 1.9864 -0.338261 0
M  V30 4463 O 430.799 2.51305 0.245371 0
M  V30 4464 C 432.112 1.25114 -2.73435 0
M  V30 4465 C 433.66 1.3618 -2.81823 0
M  V30 4466 C 434.135 1.77563 -4.22179 0
M  V30 4467 N 435.626 1.8469 -4.24787 0
M  V30 4468 C 436.361 2.18067 -5.30315 0
M  V30 4469 N 435.857 2.49963 -6.46135 0
M  V30 4470 N 437.65 2.18958 -5.17701 0
M  V30 4471 H 429.801 -0.19275 -2.11524 0
M  V30 4472 H 432.064 -0.0235777 -0.947707 0
M  V30 4473 H 431.77 0.50514 -3.48053 0
M  V30 4474 H 431.644 2.20431 -3.06088 0
M  V30 4475 H 434.031 2.09859 -2.07468 0
M  V30 4476 H 434.112 0.390169 -2.52807 0
M  V30 4477 H 433.756 1.04449 -4.97044 0
M  V30 4478 H 433.686 2.75753 -4.48629 0
M  V30 4479 H 436.177 1.62372 -3.41239 0
M  V30 4480 H 436.49 2.74497 -7.22406 0
M  V30 4481 H 434.835 2.47513 -6.49432 0
M  V30 4482 H 438.026 1.93488 -4.2624 0
M  V30 4483 H 438.199 2.44639 -6.00047 0
M  V30 4484 N 431.605 1.3629 0.791371 0
M  V30 4485 C 432.882 1.20962 1.53712 0
M  V30 4486 C 433.262 -0.205021 2.10102 0
M  V30 4487 O 432.61 -1.21042 1.93807 0
M  V30 4488 C 432.82 2.29002 2.63361 0
M  V30 4489 C 434.168 2.65572 3.31295 0
M  V30 4490 O 435.192 2.2803 2.73643 0
M  V30 4491 O 434.051 3.3018 4.35481 0
M  V30 4492 H 431.145 0.47086 0.679867 0
M  V30 4493 H 433.691 1.48016 0.830021 0
M  V30 4494 H 432.463 3.2382 2.19674 0
M  V30 4495 H 432.086 2.03303 3.41692 0
M  V30 4496 N 433.083 -1.0153 1.20538 0
M  V30 4497 C 434.031 -2.12215 0.952235 0
M  V30 4498 C 435.025 -1.69123 -0.0968735 0
M  V30 4499 O 436.231 -1.7992 0.0536006 0
M  V30 4500 H 432.606 -0.693576 0.290613 0
M  V30 4501 H 434.577 -2.3075 1.89201 0
M  V30 4502 C 433.326 -3.43755 0.522287 0
M  V30 4503 H 432.649 -3.7734 1.32115 0
M  V30 4504 H 434.089 -4.22254 0.384389 0
M  V30 4505 C 432.548 -3.28088 -0.765489 0
M  V30 4506 O 433.078 -3.57921 -1.8236 0
M  V30 4507 N 431.284 -2.81333 -0.728011 0
M  V30 4508 H 430.831 -2.57255 0.133332 0
M  V30 4509 H 430.789 -2.71232 -1.58999 0
M  V30 4510 N 434.561 -1.01147 -1.20859 0
M  V30 4511 C 435.786 -0.716698 -1.94623 0
M  V30 4512 C 436.211 0.715415 -1.73964 0
M  V30 4513 O 435.569 1.49157 -1.03062 0
M  V30 4514 C 435.617 -1.0513 -3.44935 0
M  V30 4515 O 434.721 -0.160131 -4.12089 0
M  V30 4516 H 434.062 -0.266404 -0.608214 0
M  V30 4517 H 436.592 -1.35346 -1.53436 0
M  V30 4518 H 436.602 -1.00086 -3.95533 0
M  V30 4519 H 435.277 -2.09475 -3.59295 0
M  V30 4520 H 433.854 -0.267657 -3.71938 0
M  V30 4521 N 436.039 1.36541 -0.78704 0
M  V30 4522 C 437.269 2.03266 -0.369662 0
M  V30 4523 C 437.677 1.59481 1.01796 0
M  V30 4524 O 437.02 0.778612 1.66383 0
M  V30 4525 C 437.082 3.57779 -0.351371 0
M  V30 4526 C 436.746 4.24756 -1.68617 0
M  V30 4527 C 437.743 4.47811 -2.64124 0
M  V30 4528 C 435.428 4.62277 -1.96481 0
M  V30 4529 C 437.422 5.07464 -3.85693 0
M  V30 4530 C 435.109 5.21649 -3.18317 0
M  V30 4531 C 436.107 5.44182 -4.12741 0
M  V30 4532 O 435.795 6.02307 -5.32429 0
M  V30 4533 H 435.527 0.658977 -0.150751 0
M  V30 4534 H 438.081 1.75548 -1.0664 0
M  V30 4535 H 436.311 3.84606 0.401847 0
M  V30 4536 H 438 4.05879 0.0410147 0
M  V30 4537 H 438.766 4.19221 -2.43883 0
M  V30 4538 H 434.645 4.44065 -1.23805 0
M  V30 4539 H 438.189 5.24968 -4.59407 0
M  V30 4540 H 434.086 5.49664 -3.38437 0
M  V30 4541 H 434.854 6.20775 -5.33461 0
M  V30 4542 N 437.518 0.538854 1.48102 0
M  V30 4543 C 438.746 0.0123136 2.06896 0
M  V30 4544 C 439.161 -1.27312 1.39417 0
M  V30 4545 O 438.518 -1.75949 0.484582 0
M  V30 4546 C 438.569 -0.206118 3.60912 0
M  V30 4547 O 438.29 1.0284 4.25859 0
M  V30 4548 C 439.791 -0.772033 4.36526 0
M  V30 4549 H 437.011 0.0375239 0.66995 0
M  V30 4550 H 439.555 0.747032 1.90367 0
M  V30 4551 H 437.71 -0.89091 3.77017 0
M  V30 4552 H 438.124 0.814654 5.18135 0
M  V30 4553 H 439.598 -0.874251 5.45033 0
M  V30 4554 H 440.075 -1.77904 4.01555 0
M  V30 4555 H 440.681 -0.123526 4.25121 0
M  V30 4556 N 438.996 -1.55193 0.274407 0
M  V30 4557 C 439.959 -2.212 -0.600279 0
M  V30 4558 C 440.959 -1.18963 -1.08187 0
M  V30 4559 O 442.149 -1.43873 -0.982158 0
M  V30 4560 C 439.281 -2.87739 -1.82809 0
M  V30 4561 H 440.474 -2.9989 -0.0239682 0
M  V30 4562 H 438.027 -1.5628 0.0250192 0
M  V30 4563 H 438.762 -2.13058 -2.44493 0
M  V30 4564 H 438.547 -3.62658 -1.49069 0
M  V30 4565 H 440.037 -3.38171 -2.45011 0
M  V30 4566 N 440.474 -0.00167713 -1.576 0
M  V30 4567 C 441.421 0.989195 -2.08527 0
M  V30 4568 C 442.391 1.34031 -0.981065 0
M  V30 4569 O 443.576 1.43839 -1.2536 0
M  V30 4570 C 440.716 2.27537 -2.59463 0
M  V30 4571 C 439.829 1.98314 -3.83791 0
M  V30 4572 C 438.964 3.21025 -4.23222 0
M  V30 4573 C 438.003 2.87495 -5.40382 0
M  V30 4574 N 437.14 4.02749 -5.75098 0
M  V30 4575 H 441.98 0.547973 -2.92919 0
M  V30 4576 H 439.517 0.258917 -1.44803 0
M  V30 4577 H 441.475 3.02729 -2.87073 0
M  V30 4578 H 440.105 2.69325 -1.77943 0
M  V30 4579 H 439.157 1.13482 -3.63078 0
M  V30 4580 H 440.469 1.69601 -4.69081 0
M  V30 4581 H 439.623 4.04561 -4.52123 0
M  V30 4582 H 438.362 3.52877 -3.36644 0
M  V30 4583 H 437.367 2.02367 -5.11202 0
M  V30 4584 H 438.592 2.56889 -6.28637 0
M  V30 4585 H 436.538 4.34494 -4.91478 0
M  V30 4586 H 436.455 3.77566 -6.54966 0
M  V30 4587 H 437.723 4.87068 -6.08592 0
M  V30 4588 N 441.952 1.55251 0.271103 0
M  V30 4589 C 443.368 1.47133 0.618393 0
M  V30 4590 C 443.568 0.686994 1.89427 0
M  V30 4591 O 442.624 0.206609 2.51653 0
M  V30 4592 C 443.937 2.91361 0.743593 0
M  V30 4593 C 445.485 3.01587 0.837522 0
M  V30 4594 C 445.96 4.47073 0.994483 0
M  V30 4595 N 447.451 4.50909 1.05996 0
M  V30 4596 C 448.186 5.60698 1.20024 0
M  V30 4597 N 447.682 6.80348 1.30759 0
M  V30 4598 N 449.475 5.48444 1.23149 0
M  V30 4599 H 441.626 2.04698 -0.566784 0
M  V30 4600 H 443.889 0.928319 -0.192165 0
M  V30 4601 H 443.595 3.51483 -0.123493 0
M  V30 4602 H 443.469 3.40484 1.62328 0
M  V30 4603 H 445.856 2.4156 1.69507 0
M  V30 4604 H 445.937 2.55713 -0.0668086 0
M  V30 4605 H 445.581 5.07703 0.141582 0
M  V30 4606 H 445.511 4.90605 1.91349 0
M  V30 4607 H 448.002 3.6472 0.989316 0
M  V30 4608 H 448.315 7.59772 1.41303 0
M  V30 4609 H 446.66 6.83156 1.27761 0
M  V30 4610 H 449.851 4.53907 1.14394 0
M  V30 4611 H 450.024 6.34049 1.33738 0
M  V30 4612 N 443.43 -0.535701 1.48216 0
M  V30 4613 C 444.841 -1.11769 1.49548 0
M  V30 4614 C 445.192 -1.94442 0.26207 0
M  V30 4615 O 444.317 -2.06987 -0.631287 0
M  V30 4616 C 444.912 -2.03367 2.70975 0
M  V30 4617 C 443.471 -2.56795 2.75196 0
M  V30 4618 C 442.618 -1.33631 2.42977 0
M  V30 4619 H 445.569 -0.321232 1.55415 0
M  V30 4620 H 445.59 -2.87569 2.49167 0
M  V30 4621 H 445.102 -1.43169 3.60727 0
M  V30 4622 H 443.203 -3.20731 1.89638 0
M  V30 4623 H 443.316 -2.9632 3.76472 0
M  V30 4624 H 441.68 -1.6502 1.94012 0
M  V30 4625 H 442.463 -0.75194 3.34964 0
M  V30 4626 N 444.908 -1.36708 -0.784132 0
M  V30 4627 C 446.155 -1.31231 -1.54222 0
M  V30 4628 C 446.483 0.106864 -1.94206 0
M  V30 4629 O 445.738 1.07734 -1.63376 0
M  V30 4630 C 446.037 -2.18571 -2.82774 0
M  V30 4631 C 445.703 -3.67039 -2.61903 0
M  V30 4632 C 444.365 -4.07503 -2.55919 0
M  V30 4633 C 446.717 -4.61149 -2.4288 0
M  V30 4634 C 444.045 -5.40211 -2.28886 0
M  V30 4635 C 446.397 -5.94081 -2.17373 0
M  V30 4636 C 445.061 -6.33664 -2.09825 0
M  V30 4637 H 444.331 -0.48021 -0.56434 0
M  V30 4638 H 446.978 -1.68807 -0.904233 0
M  V30 4639 H 445.283 -1.73949 -3.51068 0
M  V30 4640 H 446.98 -2.11655 -3.40592 0
M  V30 4641 H 443.57 -3.34941 -2.67418 0
M  V30 4642 H 447.754 -4.30756 -2.46501 0
M  V30 4643 H 443.01 -5.69855 -2.21529 0
M  V30 4644 H 447.184 -6.66566 -2.01649 0
M  V30 4645 H 444.811 -7.36423 -1.88641 0
M  V30 4646 N 446.386 1.0089 -1.21074 0
M  V30 4647 C 447.632 1.74866 -1.02712 0
M  V30 4648 C 447.965 1.89178 0.438787 0
M  V30 4649 O 447.24 1.42325 1.32567 0
M  V30 4650 C 447.523 3.16347 -1.72036 0
M  V30 4651 C 447.376 3.09782 -3.26121 0
M  V30 4652 C 448.695 4.15187 -1.45973 0
M  V30 4653 H 445.814 0.634736 -0.374539 0
M  V30 4654 H 448.456 1.17646 -1.49196 0
M  V30 4655 H 446.606 3.65201 -1.32517 0
M  V30 4656 H 448.278 2.68673 -3.74983 0
M  V30 4657 H 446.521 2.46982 -3.56626 0
M  V30 4658 H 447.192 4.09829 -3.6979 0
M  V30 4659 H 449.668 3.75022 -1.80272 0
M  V30 4660 H 448.544 5.12331 -1.96999 0
M  V30 4661 H 448.805 4.40386 -0.388924 0
M  V30 4662 N 447.864 1.01787 1.20321 0
M  V30 4663 C 448.811 0.589197 2.23153 0
M  V30 4664 C 449.781 -0.391367 1.61423 0
M  V30 4665 O 450.966 -0.290518 1.88575 0
M  V30 4666 C 448.106 -0.0650747 3.45039 0
M  V30 4667 C 447.219 0.960207 4.21194 0
M  V30 4668 C 446.354 0.276854 5.30478 0
M  V30 4669 C 445.393 1.2888 5.98378 0
M  V30 4670 N 444.53 0.632031 6.99249 0
M  V30 4671 H 449.37 1.47071 2.59179 0
M  V30 4672 H 446.907 0.736192 1.27352 0
M  V30 4673 H 448.865 -0.461552 4.14639 0
M  V30 4674 H 447.495 -0.910233 3.09701 0
M  V30 4675 H 446.547 1.47484 3.50646 0
M  V30 4676 H 447.859 1.72977 4.67847 0
M  V30 4677 H 447.013 -0.175056 6.06447 0
M  V30 4678 H 445.752 -0.525004 4.84866 0
M  V30 4679 H 444.757 1.75109 5.21169 0
M  V30 4680 H 445.982 2.09196 6.46076 0
M  V30 4681 H 443.928 -0.149935 6.55829 0
M  V30 4682 H 443.845 1.33964 7.44036 0
M  V30 4683 H 445.113 0.203755 7.79234 0
M  V30 4684 N 449.342 -1.36122 0.79427 0
M  V30 4685 C 450.272 -2.32551 0.210328 0
M  V30 4686 C 451.253 -1.56884 -0.657386 0
M  V30 4687 O 452.438 -1.85014 -0.590207 0
M  V30 4688 C 449.568 -3.41128 -0.651819 0
M  V30 4689 C 448.522 -4.27842 0.116395 0
M  V30 4690 C 447.848 -5.2763 -0.86666 0
M  V30 4691 C 449.148 -5.05647 1.30837 0
M  V30 4692 H 450.842 -2.81636 1.01594 0
M  V30 4693 H 448.388 -1.35407 0.489981 0
M  V30 4694 H 450.341 -4.07581 -1.07031 0
M  V30 4695 H 449.065 -2.90622 -1.49019 0
M  V30 4696 H 447.724 -3.62952 0.515915 0
M  V30 4697 H 447.372 -4.73395 -1.70019 0
M  V30 4698 H 447.072 -5.86514 -0.35705 0
M  V30 4699 H 448.596 -5.96955 -1.28361 0
M  V30 4700 H 450.01 -5.65113 0.965393 0
M  V30 4701 H 448.407 -5.73967 1.75161 0
M  V30 4702 H 449.477 -4.37006 2.10128 0
M  V30 4703 N 450.82 -0.546701 -1.47814 0
M  V30 4704 C 451.768 0.220048 -2.31557 0
M  V30 4705 C 452.762 0.919472 -1.42275 0
M  V30 4706 O 453.968 0.841953 -1.59095 0
M  V30 4707 H 450.343 0.0898334 -0.746615 0
M  V30 4708 H 452.314 -0.505589 -2.94086 0
M  V30 4709 C 451.063 1.24353 -3.24702 0
M  V30 4710 H 450.386 0.714758 -3.93359 0
M  V30 4711 H 451.826 1.75112 -3.8615 0
M  V30 4712 C 450.285 2.28593 -2.47481 0
M  V30 4713 O 450.815 3.35334 -2.21165 0
M  V30 4714 N 449.021 2.02244 -2.08676 0
M  V30 4715 H 448.568 1.15455 -2.30278 0
M  V30 4716 H 448.526 2.72207 -1.57323 0
M  V30 4717 N 452.299 1.55045 -0.282633 0
M  V30 4718 C 453.545 2.00056 0.332481 0
M  V30 4719 C 453.878 1.1708 1.54939 0
M  V30 4720 O 453.153 0.2427 1.9298 0
M  V30 4721 C 453.436 3.53086 0.70725 0
M  V30 4722 C 453.289 4.46813 -0.517521 0
M  V30 4723 C 454.608 4.12245 1.54084 0
M  V30 4724 H 451.727 0.727268 0.119373 0
M  V30 4725 H 454.369 1.85932 -0.391076 0
M  V30 4726 H 452.519 3.65253 1.32372 0
M  V30 4727 H 454.191 4.46579 -1.15607 0
M  V30 4728 H 452.434 4.18163 -1.1542 0
M  V30 4729 H 453.105 5.51595 -0.211426 0
M  V30 4730 H 455.581 4.03401 1.02013 0
M  V30 4731 H 454.457 5.19515 1.77186 0
M  V30 4732 H 454.718 3.62951 2.52427 0
M  V30 4733 N 453.777 0.010035 1.57597 0
M  V30 4734 C 454.687 -0.994226 2.12491 0
M  V30 4735 C 455.703 -1.37013 1.07254 0
M  V30 4736 O 456.879 -1.45542 1.3921 0
M  V30 4737 C 453.944 -2.2642 2.62555 0
M  V30 4738 C 453.005 -1.95049 3.82432 0
M  V30 4739 C 452.238 -3.15991 4.30099 0
M  V30 4740 O 452.461 -4.28015 3.7704 0
M  V30 4741 O 451.395 -2.99403 5.22151 0
M  V30 4742 H 455.221 -0.557549 2.98538 0
M  V30 4743 H 452.806 -0.209413 1.47925 0
M  V30 4744 H 454.688 -3.01009 2.9491 0
M  V30 4745 H 453.363 -2.69306 1.796 0
M  V30 4746 H 452.27 -1.17904 3.55034 0
M  V30 4747 H 453.603 -1.56992 4.66491 0
M  V30 4748 N 455.255 -1.55392 -0.262866 0
M  V30 4749 C 456.483 -1.80513 -1.01108 0
M  V30 4750 C 456.898 -0.583533 -1.79556 0
M  V30 4751 O 456.255 0.447585 -1.76926 0
M  V30 4752 C 456.306 -3.03648 -1.96164 0
M  V30 4753 O 456.027 -4.2109 -1.20893 0
M  V30 4754 C 457.528 -3.41448 -2.82715 0
M  V30 4755 H 454.748 -0.601079 -0.298236 0
M  V30 4756 H 457.292 -2.02425 -0.290582 0
M  V30 4757 H 455.447 -2.83832 -2.63663 0
M  V30 4758 H 455.861 -4.90771 -1.85051 0
M  V30 4759 H 457.335 -4.30751 -3.45192 0
M  V30 4760 H 457.812 -2.61308 -3.53008 0
M  V30 4761 H 458.418 -3.63559 -2.20693 0
M  V30 4762 N 456.733 0.527833 -1.48498 0
M  V30 4763 C 458.01 1.28905 -1.47115 0
M  V30 4764 C 458.39 2.10297 -0.184007 0
M  V30 4765 O 457.738 2.12728 0.834218 0
M  V30 4766 C 457.948 2.16866 -2.73441 0
M  V30 4767 C 459.296 2.76936 -3.21857 0
M  V30 4768 O 460.32 2.27152 -2.74373 0
M  V30 4769 O 459.179 3.67496 -4.04486 0
M  V30 4770 H 456.273 0.581918 -0.587623 0
M  V30 4771 H 458.819 0.544311 -1.60734 0
M  V30 4772 H 457.591 1.56521 -3.58632 0
M  V30 4773 H 457.214 2.98583 -2.62553 0
M  V30 4774 N 458.211 1.37122 0.776871 0
M  V30 4775 C 459.439 1.3523 1.5659 0
M  V30 4776 C 459.854 -0.0635518 1.88693 0
M  V30 4777 O 459.211 -1.02394 1.51069 0
M  V30 4778 C 459.262 2.18583 2.8793 0
M  V30 4779 O 458.983 3.5465 2.57206 0
M  V30 4780 C 460.484 2.24612 3.82183 0
M  V30 4781 H 457.704 0.4634 0.485285 0
M  V30 4782 H 460.248 1.80392 0.963266 0
M  V30 4783 H 458.403 1.76943 3.4463 0
M  V30 4784 H 458.817 3.98286 3.41275 0
M  V30 4785 H 460.291 2.87267 4.71361 0
M  V30 4786 H 460.768 1.25309 4.20944 0
M  V30 4787 H 461.374 2.66543 3.31414 0
M  V30 4788 N 459.689 -1.00246 1.21608 0
M  V30 4789 C 460.652 -2.07233 0.979133 0
M  V30 4790 C 461.652 -1.6072 -0.0508219 0
M  V30 4791 O 462.842 -1.73196 0.186712 0
M  V30 4792 C 459.974 -3.37546 0.477016 0
M  V30 4793 H 461.167 -2.29687 1.92831 0
M  V30 4794 H 458.72 -1.17261 1.03342 0
M  V30 4795 H 459.455 -3.20773 -0.476966 0
M  V30 4796 H 459.24 -3.72638 1.21997 0
M  V30 4797 H 460.73 -4.16285 0.331181 0
M  V30 4798 N 461.167 -1.02423 -1.1978 0
M  V30 4799 C 462.077 -0.610919 -2.26506 0
M  V30 4800 C 463.093 0.355152 -1.70337 0
M  V30 4801 O 464.269 0.214195 -2.00258 0
M  V30 4802 C 461.334 0.0365921 -3.46681 0
M  V30 4803 C 460.395 -0.976389 -4.18049 0
M  V30 4804 C 459.628 -0.359683 -5.32487 0
M  V30 4805 O 459.851 0.838601 -5.64202 0
M  V30 4806 O 458.785 -1.08022 -5.92127 0
M  V30 4807 H 462.611 -1.49965 -2.64091 0
M  V30 4808 H 460.196 -0.794156 -1.26545 0
M  V30 4809 H 462.078 0.39786 -4.19518 0
M  V30 4810 H 460.753 0.899398 -3.10954 0
M  V30 4811 H 459.66 -1.38916 -3.47352 0
M  V30 4812 H 460.993 -1.80941 -4.57735 0
M  V30 4813 N 462.645 1.35699 -0.801477 0
M  V30 4814 C 463.894 1.98165 -0.375979 0
M  V30 4815 C 464.207 1.64306 1.06127 0
M  V30 4816 O 465.413 2.20097 1.58964 0
M  V30 4817 C 463.869 3.54497 -0.621305 0
M  V30 4818 C 463.477 3.9727 -2.07076 0
M  V30 4819 C 465.221 4.23697 -0.26091 0
M  V30 4820 C 463.128 5.46427 -2.26211 0
M  V30 4821 H 462.058 0.741478 -0.136844 0
M  V30 4822 H 464.709 1.54834 -0.984814 0
M  V30 4823 H 463.091 3.95958 0.0574112 0
M  V30 4824 H 464.265 3.66974 -2.78687 0
M  V30 4825 H 462.58 3.40943 -2.39054 0
M  V30 4826 H 465.177 5.33334 -0.381994 0
M  V30 4827 H 465.52 4.0869 0.792344 0
M  V30 4828 H 466.053 3.87639 -0.893339 0
M  V30 4829 H 462.792 5.66396 -3.29963 0
M  V30 4830 H 462.312 5.78309 -1.59119 0
M  V30 4831 H 463.991 6.12819 -2.07513 0
M  V30 4832 N 464.123 0.554532 1.47522 0
M  V30 4833 C 465.539 0.214107 1.58157 0
M  V30 4834 C 465.739 -1.28331 1.55349 0
M  V30 4835 O 464.795 -2.06329 1.45549 0
M  V30 4836 C 466.108 0.838391 2.88776 0
M  V30 4837 C 467.656 0.809374 3.02354 0
M  V30 4838 C 468.131 1.41268 4.35669 0
M  V30 4839 N 469.622 1.37574 4.42298 0
M  V30 4840 C 470.357 1.8122 5.4401 0
M  V30 4841 N 469.853 2.3271 6.52547 0
M  V30 4842 N 471.646 1.72307 5.35039 0
M  V30 4843 H 463.797 1.52744 1.4759 0
M  V30 4844 H 466.06 0.636812 0.702264 0
M  V30 4845 H 465.766 1.89065 2.96559 0
M  V30 4846 H 465.64 0.329847 3.75755 0
M  V30 4847 H 468.027 -0.234187 2.94169 0
M  V30 4848 H 468.108 1.35565 2.16924 0
M  V30 4849 H 467.752 2.45529 4.4461 0
M  V30 4850 H 467.682 0.841871 5.19827 0
M  V30 4851 H 470.173 0.999081 3.64454 0
M  V30 4852 H 470.486 2.63944 7.26329 0
M  V30 4853 H 468.831 2.36719 6.53444 0
M  V30 4854 H 472.022 1.3186 4.49144 0
M  V30 4855 H 472.195 2.06641 6.14169 0
M  V30 4856 N 465.601 -1.54893 0.290851 0
M  V30 4857 C 466.531 -2.26103 -0.583084 0
M  V30 4858 C 467.512 -1.25684 -1.14619 0
M  V30 4859 O 468.697 -1.54436 -1.17741 0
M  V30 4860 C 465.827 -2.99409 -1.75987 0
M  V30 4861 C 464.781 -4.0689 -1.32758 0
M  V30 4862 C 464.107 -4.67856 -2.58872 0
M  V30 4863 C 465.407 -5.20215 -0.46624 0
M  V30 4864 H 467.101 -2.99398 0.0108214 0
M  V30 4865 H 464.647 -1.43998 0.00664468 0
M  V30 4866 H 466.6 -3.47943 -2.37727 0
M  V30 4867 H 465.324 -2.23675 -2.37985 0
M  V30 4868 H 463.983 -3.59191 -0.733299 0
M  V30 4869 H 463.631 -3.88772 -3.19163 0
M  V30 4870 H 463.331 -5.40438 -2.30653 0
M  V30 4871 H 464.855 -5.19147 -3.21433 0
M  V30 4872 H 466.269 -5.64704 -0.989047 0
M  V30 4873 H 464.666 -5.99455 -0.27826 0
M  V30 4874 H 465.736 -4.82198 0.511173 0
M  V30 4875 N 467.08 -0.0183926 -1.57589 0
M  V30 4876 C 468.013 1.00148 -2.0505 0
M  V30 4877 C 468.991 1.32387 -0.944058 0
M  V30 4878 O 470.175 1.44237 -1.21358 0
M  V30 4879 C 467.302 2.32435 -2.46357 0
M  V30 4880 C 466.348 2.15731 -3.67916 0
M  V30 4881 S 467.181 1.46613 -5.15039 0
M  V30 4882 C 468.337 2.80293 -5.59631 0
M  V30 4883 H 468.57 0.597429 -2.91235 0
M  V30 4884 H 466.103 0.193002 -1.53189 0
M  V30 4885 H 468.061 3.0849 -2.70822 0
M  V30 4886 H 466.722 2.69975 -1.60537 0
M  V30 4887 H 465.915 3.13502 -3.9463 0
M  V30 4888 H 465.517 1.4782 -3.43548 0
M  V30 4889 H 467.809 3.76557 -5.63215 0
M  V30 4890 H 468.752 2.58256 -6.59325 0
M  V30 4891 H 469.16 2.85047 -4.87246 0
M  V30 4892 N 468.558 1.5553 0.254621 0
M  V30 4893 C 469.798 1.7876 0.991179 0
M  V30 4894 C 470.162 0.586669 1.82817 0
M  V30 4895 O 471.363 0.697585 2.5959 0
M  V30 4896 C 469.634 3.06679 1.83529 0
M  V30 4897 S 471.193 3.511 2.632 0
M  V30 4898 H 468.011 0.627916 0.333531 0
M  V30 4899 H 470.613 1.93766 0.259778 0
M  V30 4900 H 469.317 3.92158 1.20996 0
M  V30 4901 H 468.848 2.94388 2.60958 0
M  V30 4902 H 470.863 3.11823 3.8598 0
M  V30 4903 N 470.036 -0.519951 1.48776 0
M  V30 4904 C 471.264 -1.29971 1.60982 0
M  V30 4905 C 471.679 -1.86803 0.273885 0
M  V30 4906 O 471.036 -1.66904 -0.738193 0
M  V30 4907 C 471.087 -2.44346 2.66415 0
M  V30 4908 O 470.808 -1.89855 3.94825 0
M  V30 4909 C 472.309 -3.36014 2.89153 0
M  V30 4910 H 469.529 -0.394891 0.542496 0
M  V30 4911 H 472.073 -0.626214 1.94676 0
M  V30 4912 H 470.228 -3.07562 2.35552 0
M  V30 4913 H 470.642 -2.64798 4.5275 0
M  V30 4914 H 472.116 -4.12593 3.66703 0
M  V30 4915 H 472.593 -3.91859 1.98351 0
M  V30 4916 H 473.199 -2.78582 3.21359 0
M  V30 4917 N 471.514 -1.37532 -0.769588 0
M  V30 4918 C 472.461 -1.3347 -1.88293 0
M  V30 4919 C 473.431 -0.199891 -1.64893 0
M  V30 4920 O 474.616 -0.389594 -1.8678 0
M  V30 4921 C 471.756 -1.14968 -3.25387 0
M  V30 4922 C 470.869 -2.37698 -3.60727 0
M  V30 4923 C 470.004 -2.12051 -4.8704 0
M  V30 4924 C 469.043 -3.30636 -5.15117 0
M  V30 4925 N 468.18 -3.04527 -6.3262 0
M  V30 4926 H 473.02 -2.28658 -1.911 0
M  V30 4927 H 470.557 -1.13622 -0.934257 0
M  V30 4928 H 472.515 -1.02261 -4.04473 0
M  V30 4929 H 471.145 -0.234263 -3.21949 0
M  V30 4930 H 470.197 -2.61137 -2.76608 0
M  V30 4931 H 471.509 -3.26131 -3.77413 0
M  V30 4932 H 470.663 -1.96388 -5.74035 0
M  V30 4933 H 469.402 -1.20959 -4.72462 0
M  V30 4934 H 468.407 -3.46836 -4.26597 0
M  V30 4935 H 469.632 -4.22582 -5.31603 0
M  V30 4936 H 467.578 -2.16067 -6.19396 0
M  V30 4937 H 467.495 -3.86503 -6.49732 0
M  V30 4938 H 468.763 -2.92485 -7.22546 0
M  V30 4939 N 472.992 0.995999 -1.22138 0
M  V30 4940 C 474.22 1.77066 -1.07029 0
M  V30 4941 C 474.635 1.8495 0.379357 0
M  V30 4942 O 473.992 1.3174 1.26297 0
M  V30 4943 C 474.043 3.20533 -1.67155 0
M  V30 4944 O 473.764 3.13082 -3.06449 0
M  V30 4945 C 475.265 4.14461 -1.5728 0
M  V30 4946 H 472.485 0.556179 -0.375374 0
M  V30 4947 H 475.029 1.25238 -1.61666 0
M  V30 4948 H 473.184 3.6944 -1.16589 0
M  V30 4949 H 473.598 4.03283 -3.35355 0
M  V30 4950 H 475.072 5.1289 -2.04078 0
M  V30 4951 H 475.549 4.36005 -0.528795 0
M  V30 4952 H 476.155 3.71449 -2.07136 0
M  V30 4953 N 474.47 1.03057 1.19235 0
M  V30 4954 C 475.7 0.746613 1.92638 0
M  V30 4955 C 476.108 -0.698708 1.75826 0
M  V30 4956 O 475.451 -1.487 1.07861 0
M  V30 4957 C 475.513 1.02024 3.44719 0
M  V30 4958 C 475.177 2.45745 3.85303 0
M  V30 4959 C 476.174 3.43887 3.8992 0
M  V30 4960 C 473.859 2.8019 4.16892 0
M  V30 4961 C 475.853 4.74529 4.2556 0
M  V30 4962 C 473.54 4.1104 4.52205 0
M  V30 4963 C 474.538 5.0802 4.56513 0
M  V30 4964 O 474.226 6.36527 4.91008 0
M  V30 4965 H 473.958 0.272401 0.618687 0
M  V30 4966 H 476.512 1.37853 1.52269 0
M  V30 4967 H 474.742 0.331184 3.85279 0
M  V30 4968 H 476.431 0.725677 3.9936 0
M  V30 4969 H 477.197 3.18614 3.65664 0
M  V30 4970 H 473.076 2.05382 4.12722 0
M  V30 4971 H 476.62 5.50222 4.28838 0
M  V30 4972 H 472.517 4.36086 4.7592 0
M  V30 4973 H 473.285 6.41025 5.08949 0
M  V30 4974 N 475.948 -1.35272 0.808662 0
M  V30 4975 C 476.878 -2.32315 0.234981 0
M  V30 4976 C 477.859 -1.57572 -0.64071 0
M  V30 4977 O 479.044 -1.8563 -0.570551 0
M  V30 4978 C 476.174 -3.41801 -0.615601 0
M  V30 4979 C 475.128 -4.27694 0.161767 0
M  V30 4980 C 474.454 -5.28519 -0.810649 0
M  V30 4981 C 475.754 -5.04231 1.36193 0
M  V30 4982 H 477.448 -2.80543 1.04575 0
M  V30 4983 H 474.994 -1.3488 0.504315 0
M  V30 4984 H 476.947 -4.08693 -1.02702 0
M  V30 4985 H 475.671 -2.92186 -1.45928 0
M  V30 4986 H 474.33 -3.62384 0.554382 0
M  V30 4987 H 473.978 -4.75171 -1.64988 0
M  V30 4988 H 473.678 -5.8686 -0.294822 0
M  V30 4989 H 475.202 -5.98283 -1.22023 0
M  V30 4990 H 476.616 -5.64058 1.02528 0
M  V30 4991 H 475.013 -5.72077 1.81239 0
M  V30 4992 H 476.083 -4.34753 2.14751 0
M  V30 4993 N 477.426 -0.562348 -1.47226 0
M  V30 4994 C 478.703 0.0256985 -1.95583 0
M  V30 4995 C 479.083 1.48032 -1.50498 0
M  V30 4996 O 478.431 2.15973 -0.746181 0
M  V30 4997 C 478.641 -0.125129 -3.48776 0
M  V30 4998 C 479.989 0.0175728 -4.24596 0
M  V30 4999 O 481.013 -0.0529341 -3.56161 0
M  V30 5000 O 479.872 0.170145 -5.46235 0
M  V30 5001 H 476.966 0.0612565 -0.824728 0
M  V30 5002 H 479.512 -0.629233 -1.57603 0
M  V30 5003 H 478.284 -1.13715 -3.74412 0
M  V30 5004 H 477.907 0.567178 -3.93534 0
M  V30 5005 N 478.904 1.54736 -0.299062 0
M  V30 5006 C 480.132 2.04512 0.313447 0
M  V30 5007 C 480.547 1.17643 1.47667 0
M  V30 5008 O 479.904 0.20164 1.81383 0
M  V30 5009 C 479.955 3.53171 0.771542 0
M  V30 5010 O 479.676 4.36736 -0.345379 0
M  V30 5011 C 481.177 4.18936 1.4494 0
M  V30 5012 H 478.397 0.667507 0.0683784 0
M  V30 5013 H 480.941 1.99752 -0.438129 0
M  V30 5014 H 479.096 3.58298 1.47314 0
M  V30 5015 H 479.51 5.24499 0.0109219 0
M  V30 5016 H 480.984 5.24482 1.72111 0
M  V30 5017 H 481.461 3.68554 2.38883 0
M  V30 5018 H 482.067 4.17879 0.791028 0
M  V30 5019 N 480.382 0.0267497 1.57577 0
M  V30 5020 C 481.793 -0.512413 1.79531 0
M  V30 5021 C 482.144 -1.72391 0.936791 0
M  V30 5022 O 481.269 -2.15903 0.146543 0
M  V30 5023 C 481.864 -0.936378 3.25603 0
M  V30 5024 C 480.423 -1.42067 3.4856 0
M  V30 5025 C 479.57 -0.384278 2.74624 0
M  V30 5026 H 482.521 0.252797 1.56674 0
M  V30 5027 H 482.542 -1.80088 3.35184 0
M  V30 5028 H 482.054 -0.0544332 3.88062 0
M  V30 5029 H 480.155 -2.32262 2.9135 0
M  V30 5030 H 480.268 -1.42968 4.57271 0
M  V30 5031 H 478.632 -0.851855 2.40032 0
M  V30 5032 H 479.415 0.489159 3.39797 0
M  V30 5033 N 481.861 -1.55662 -0.24637 0
M  V30 5034 C 483.277 -1.48098 -0.594907 0
M  V30 5035 C 483.477 -0.717044 -1.8831 0
M  V30 5036 O 482.533 -0.246618 -2.51293 0
M  V30 5037 C 483.846 -2.92507 -0.697146 0
M  V30 5038 C 485.394 -3.02881 -0.789436 0
M  V30 5039 C 485.869 -4.48598 -0.923232 0
M  V30 5040 N 487.36 -4.52538 -0.988088 0
M  V30 5041 C 488.095 -5.62536 -1.11089 0
M  V30 5042 N 487.591 -6.82342 -1.19919 0
M  V30 5043 N 489.384 -5.50334 -1.14408 0
M  V30 5044 H 481.535 -2.0377 0.599278 0
M  V30 5045 H 483.798 -0.925145 0.20691 0
M  V30 5046 H 483.504 -3.51242 0.179396 0
M  V30 5047 H 483.378 -3.43024 -1.5689 0
M  V30 5048 H 485.765 -2.44226 -1.65643 0
M  V30 5049 H 485.846 -2.55574 0.107482 0
M  V30 5050 H 485.49 -5.07864 -0.0607927 0
M  V30 5051 H 485.42 -4.93587 -1.8352 0
M  V30 5052 H 487.911 -3.66248 -0.931167 0
M  V30 5053 H 488.224 -7.61924 -1.29197 0
M  V30 5054 H 486.569 -6.85102 -1.16876 0
M  V30 5055 H 489.76 -4.5567 -1.07158 0
M  V30 5056 H 489.933 -6.36096 -1.23634 0
M  V30 5057 N 483.339 0.512053 -1.4905 0
M  V30 5058 C 484.75 1.09376 -1.51307 0
M  V30 5059 C 485.101 1.94 -0.292971 0
M  V30 5060 O 484.226 2.07965 0.598277 0
M  V30 5061 C 484.821 1.99031 -2.74176 0
M  V30 5062 C 483.38 2.52385 -2.79247 0
M  V30 5063 C 482.527 1.29749 -2.45073 0
M  V30 5064 H 485.478 0.296467 -1.55906 0
M  V30 5065 H 485.499 2.83569 -2.53711 0
M  V30 5066 H 485.011 1.37412 -3.62959 0
M  V30 5067 H 483.112 3.17673 -1.94716 0
M  V30 5068 H 483.225 2.90293 -3.81139 0
M  V30 5069 H 481.589 1.61912 -1.96612 0
M  V30 5070 H 482.372 0.698555 -3.36118 0
M  V30 5071 N 484.817 1.37938 0.762283 0
M  V30 5072 C 486.094 1.24196 1.51112 0
M  V30 5073 C 486.474 -0.160409 2.1049 0
M  V30 5074 O 485.822 -1.16904 1.96331 0
M  V30 5075 C 486.032 2.34537 2.58445 0
M  V30 5076 C 487.38 2.7254 3.25588 0
M  V30 5077 O 488.404 2.33783 2.68745 0
M  V30 5078 O 487.263 3.39343 4.28379 0
M  V30 5079 H 484.357 0.485175 0.669727 0
M  V30 5080 H 486.903 1.49743 0.798438 0
M  V30 5081 H 485.675 3.28406 2.12756 0
M  V30 5082 H 485.298 2.10505 3.37303 0
M  V30 5083 N 486.295 -0.989507 1.22664 0
M  V30 5084 C 487.572 -1.70326 0.961688 0
M  V30 5085 C 487.952 -2.04537 -0.522279 0
M  V30 5086 O 487.3 -1.73136 -1.49118 0
M  V30 5087 C 487.51 -2.95135 1.86269 0
M  V30 5088 C 488.858 -3.67842 2.12078 0
M  V30 5089 O 489.882 -3.0515 1.83745 0
M  V30 5090 O 488.741 -4.80644 2.60083 0
M  V30 5091 H 485.835 -0.743589 0.361946 0
M  V30 5092 H 488.381 -1.04555 1.33665 0
M  V30 5093 H 487.153 -2.66382 2.8663 0
M  V30 5094 H 486.776 -3.68645 1.48952 0
M  V30 5095 N 487.773 -1.03688 -1.18687 0
M  V30 5096 C 489.021 -0.736572 -1.88199 0
M  V30 5097 C 489.342 0.737665 -1.80509 0
M  V30 5098 O 488.612 1.53204 -1.22088 0
M  V30 5099 H 487.192 -0.269466 -0.696704 0
M  V30 5100 H 489.854 -1.31282 -1.44052 0
M  V30 5101 H 488.95 -1.03802 -2.94332 0
M  V30 5102 N 489.251 1.34841 -0.815825 0
M  V30 5103 C 490.476 2.03261 -0.41226 0
M  V30 5104 C 490.901 1.61055 0.971751 0
M  V30 5105 O 490.259 0.7917 1.63101 0
M  V30 5106 C 490.307 3.56914 -0.514289 0
M  V30 5107 O 489.411 4.09728 0.468675 0
M  V30 5108 H 488.752 0.641664 -0.170771 0
M  V30 5109 H 491.282 1.72241 -1.10427 0
M  V30 5110 H 491.292 4.06156 -0.387457 0
M  V30 5111 H 489.967 3.86982 -1.52375 0
M  V30 5112 H 488.544 3.71681 0.301316 0
M  V30 5113 N 490.729 0.570148 1.46925 0
M  V30 5114 C 491.978 0.0487352 2.01641 0
M  V30 5115 C 492.291 -1.31433 1.44861 0
M  V30 5116 O 493.497 -1.92638 1.91318 0
M  V30 5117 C 491.953 0.0365817 3.59881 0
M  V30 5118 C 491.561 1.39719 4.25655 0
M  V30 5119 C 493.305 -0.431545 4.22301 0
M  V30 5120 C 491.212 1.34345 5.75939 0
M  V30 5121 H 490.142 0.0144492 0.753862 0
M  V30 5122 H 492.793 0.719928 1.68788 0
M  V30 5123 H 491.175 -0.700522 3.89755 0
M  V30 5124 H 492.349 2.15303 4.07408 0
M  V30 5125 H 490.664 1.80431 3.75278 0
M  V30 5126 H 493.261 -0.490354 5.32447 0
M  V30 5127 H 493.604 -1.44638 3.90366 0
M  V30 5128 H 494.137 0.251102 3.97007 0
M  V30 5129 H 490.876 2.33469 6.12513 0
M  V30 5130 H 490.396 0.629615 5.96486 0
M  V30 5131 H 492.075 1.051 6.38407 0
M  V30 5132 N 492.207 -1.54576 0.307264 0
M  V30 5133 C 493.17 -2.22423 -0.553224 0
M  V30 5134 C 494.17 -1.21231 -1.05639 0
M  V30 5135 O 495.36 -1.45923 -0.951419 0
M  V30 5136 C 492.492 -2.91552 -1.76664 0
M  V30 5137 H 493.685 -2.99874 0.0396484 0
M  V30 5138 H 491.238 -1.56192 0.0581629 0
M  V30 5139 H 491.973 -2.18196 -2.39918 0
M  V30 5140 H 491.758 -3.65738 -1.41343 0
M  V30 5141 H 493.248 -3.43292 -2.37783 0
M  V30 5142 N 493.685 -0.035106 -1.57561 0
M  V30 5143 C 494.933 0.64096 -1.91667 0
M  V30 5144 C 495.254 1.72323 -0.912681 0
M  V30 5145 O 494.524 1.95849 0.0449089 0
M  V30 5146 H 493.104 0.239743 -0.707483 0
M  V30 5147 H 495.766 -0.084321 -1.94718 0
M  V30 5148 H 494.862 1.08987 -2.92452 0
M  V30 5149 N 495.163 1.55791 0.238111 0
M  V30 5150 C 496.574 1.68383 0.806472 0
M  V30 5151 C 496.925 0.634157 1.85669 0
M  V30 5152 O 496.05 -0.217913 2.153 0
M  V30 5153 C 496.645 3.05268 1.46959 0
M  V30 5154 C 495.204 3.1977 1.98555 0
M  V30 5155 C 494.351 2.64279 0.839763 0
M  V30 5156 H 497.302 1.58694 0.0137535 0
M  V30 5157 H 497.323 3.00203 2.33792 0
M  V30 5158 H 496.835 3.81643 0.704993 0
M  V30 5159 H 494.936 2.48234 2.77868 0
M  V30 5160 H 495.049 4.26788 2.17689 0
M  V30 5161 H 493.413 2.22329 1.24265 0
M  V30 5162 H 494.196 3.43187 0.0881032 0
M  V30 5163 N 496.642 -0.504142 1.49319 0
M  V30 5164 C 497.882 -1.26867 1.60263 0
M  V30 5165 C 498.246 -1.89924 0.281578 0
M  V30 5166 O 499.447 -2.67479 0.266176 0
M  V30 5167 C 497.718 -2.30956 2.72753 0
M  V30 5168 S 499.277 -3.1679 3.03628 0
M  V30 5169 H 496.095 -0.431198 0.565322 0
M  V30 5170 H 498.697 -0.571407 1.86963 0
M  V30 5171 H 497.401 -1.83156 3.67263 0
M  V30 5172 H 496.932 -3.05356 2.48035 0
M  V30 5173 H 498.947 -4.31549 2.44908 0
M  V30 5174 N 498.12 -1.38341 -0.754957 0
M  V30 5175 C 499.03 -1.3769 -1.89944 0
M  V30 5176 C 500.046 -0.274194 -1.71826 0
M  V30 5177 O 501.222 -0.512391 -1.94773 0
M  V30 5178 C 498.287 -1.19938 -3.25293 0
M  V30 5179 C 497.348 -2.40001 -3.55946 0
M  V30 5180 C 496.581 -2.23087 -4.84838 0
M  V30 5181 O 496.804 -1.22386 -5.57116 0
M  V30 5182 O 495.738 -3.11646 -5.14937 0
M  V30 5183 H 499.564 -2.3412 -1.93446 0
M  V30 5184 H 497.149 -1.19246 -0.900044 0
M  V30 5185 H 499.031 -1.12093 -4.06218 0
M  V30 5186 H 497.706 -0.265919 -3.22606 0
M  V30 5187 H 496.613 -2.53421 -2.75188 0
M  V30 5188 H 497.946 -3.31973 -3.63394 0
M  V30 5189 N 499.598 0.982988 -1.23187 0
M  V30 5190 C 500.823 1.76455 -1.08988 0
M  V30 5191 C 501.248 1.84726 0.354691 0
M  V30 5192 O 500.606 1.30699 1.25649 0
M  V30 5193 C 500.654 3.17094 -1.71708 0
M  V30 5194 O 499.758 4.00648 -0.977477 0
M  V30 5195 H 499.099 0.542988 -0.382177 0
M  V30 5196 H 501.629 1.23413 -1.63188 0
M  V30 5197 H 501.639 3.67684 -1.76841 0
M  V30 5198 H 500.314 3.10389 -2.76823 0
M  V30 5199 H 498.891 3.59161 -1.0029 0
M  V30 5200 N 501.076 1.04316 1.18135 0
M  V30 5201 C 502.024 0.630175 2.23901 0
M  V30 5202 C 503.018 -0.344254 1.65865 0
M  V30 5203 O 504.224 -0.211273 1.78756 0
M  V30 5204 H 500.599 0.185578 0.728742 0
M  V30 5205 H 502.57 1.53253 2.56039 0
M  V30 5206 C 501.319 0.011666 3.47698 0
M  V30 5207 H 500.642 0.752526 3.92654 0
M  V30 5208 H 502.082 -0.240046 4.2332 0
M  V30 5209 C 500.541 -1.23913 3.13285 0
M  V30 5210 O 501.071 -2.32959 3.27251 0
M  V30 5211 N 499.277 -1.13338 2.67587 0
M  V30 5212 H 498.824 -0.246006 2.56423 0
M  V30 5213 H 498.782 -1.97116 2.44934 0
M  V30 5214 N 502.554 -1.34406 0.822964 0
M  V30 5215 C 503.802 -1.97892 0.410245 0
M  V30 5216 C 504.123 -1.65567 -1.03017 0
M  V30 5217 O 503.393 -0.94642 -1.71522 0
M  V30 5218 H 501.973 -0.732049 0.148707 0
M  V30 5219 H 504.635 -1.64043 1.05242 0
M  V30 5220 H 503.731 -3.07579 0.529284 0
M  V30 5221 N 504.032 -0.577932 -1.46621 0
M  V30 5222 C 505.309 0.00495287 -1.95599 0
M  V30 5223 C 505.689 1.46428 -1.5206 0
M  V30 5224 O 505.037 2.1517 -0.769046 0
M  V30 5225 C 505.247 -0.162114 -3.48623 0
M  V30 5226 C 506.595 -0.0274623 -4.24591 0
M  V30 5227 O 507.619 -0.0907067 -3.56084 0
M  V30 5228 O 506.478 0.1122 -5.46385 0
M  V30 5229 H 503.572 0.0525057 -0.825332 0
M  V30 5230 H 506.118 -0.645914 -1.56927 0
M  V30 5231 H 504.89 -1.17679 -3.73185 0
M  V30 5232 H 504.513 0.525407 -3.94113 0
M  V30 5233 N 505.51 1.54411 -0.315457 0
M  V30 5234 C 506.457 2.24048 0.554166 0
M  V30 5235 C 507.427 1.2283 1.11812 0
M  V30 5236 O 508.612 1.51491 1.15997 0
M  V30 5237 C 505.752 2.99574 1.71316 0
M  V30 5238 C 504.865 4.15594 1.17922 0
M  V30 5239 C 504 4.78669 2.30324 0
M  V30 5240 C 503.039 5.86807 1.74137 0
M  V30 5241 N 502.176 6.43777 2.8017 0
M  V30 5242 H 507.016 2.97964 -0.0462602 0
M  V30 5243 H 504.553 1.47059 -0.0346009 0
M  V30 5244 H 506.511 3.41604 2.39505 0
M  V30 5245 H 505.141 2.28008 2.285 0
M  V30 5246 H 504.193 3.78404 0.389136 0
M  V30 5247 H 505.505 4.93459 0.728012 0
M  V30 5248 H 504.659 5.23626 3.06433 0
M  V30 5249 H 503.398 4.00168 2.78778 0
M  V30 5250 H 502.403 5.41261 0.965236 0
M  V30 5251 H 503.628 6.67201 1.2657 0
M  V30 5252 H 501.574 5.68153 3.2793 0
M  V30 5253 H 501.491 7.17031 2.39588 0
M  V30 5254 H 502.759 6.9339 3.56132 0
M  V30 5255 N 506.988 0.0434614 1.5754 0
M  V30 5256 C 508.234 -0.627109 1.93491 0
M  V30 5257 C 508.589 -1.68904 0.921362 0
M  V30 5258 O 507.882 -1.91504 -0.0605799 0
M  V30 5259 C 508.076 -1.2738 3.3393 0
M  V30 5260 C 507.905 -0.27603 4.48852 0
M  V30 5261 C 506.675 0.129244 5.05135 0
M  V30 5262 C 508.873 0.475462 5.12098 0
M  V30 5263 N 506.855 1.12068 6.03584 0
M  V30 5264 C 508.226 1.32021 6.05781 0
M  V30 5265 C 510.281 0.534611 4.95022 0
M  V30 5266 C 508.984 2.2188 6.84223 0
M  V30 5267 C 511.01 1.42059 5.74085 0
M  V30 5268 C 510.372 2.25309 6.67394 0
M  V30 5269 H 506.471 -0.201354 0.755633 0
M  V30 5270 H 509.055 0.113991 1.94366 0
M  V30 5271 H 507.226 -1.98496 3.33847 0
M  V30 5272 H 508.958 -1.90255 3.57191 0
M  V30 5273 H 505.713 -0.248145 4.72949 0
M  V30 5274 H 506.137 1.61306 6.57502 0
M  V30 5275 H 510.779 -0.0947817 4.22694 0
M  V30 5276 H 508.497 2.85868 7.55847 0
M  V30 5277 H 512.083 1.47083 5.62901 0
M  V30 5278 H 510.963 2.92754 7.27506 0
M  V30 5279 N 508.466 -1.55915 -0.229846 0
M  V30 5280 C 509.396 -1.94754 -1.28815 0
M  V30 5281 C 510.377 -0.814657 -1.49323 0
M  V30 5282 O 511.562 -1.07631 -1.61645 0
M  V30 5283 C 508.692 -2.25705 -2.63959 0
M  V30 5284 C 507.646 -3.41406 -2.5812 0
M  V30 5285 C 506.972 -3.57941 -3.97218 0
M  V30 5286 C 508.272 -4.76616 -2.13623 0
M  V30 5287 H 509.966 -2.83404 -0.965547 0
M  V30 5288 H 507.512 -1.36353 -0.463028 0
M  V30 5289 H 509.465 -2.51467 -3.38146 0
M  V30 5290 H 508.189 -1.339 -2.9789 0
M  V30 5291 H 506.848 -3.1568 -1.86391 0
M  V30 5292 H 506.496 -2.63526 -4.28443 0
M  V30 5293 H 506.196 -4.35757 -3.94195 0
M  V30 5294 H 507.72 -3.86042 -4.73079 0
M  V30 5295 H 509.134 -5.01637 -2.77549 0
M  V30 5296 H 507.531 -5.57655 -2.21677 0
M  V30 5297 H 508.601 -4.7253 -1.08829 0
M  V30 5298 N 509.944 0.496216 -1.49584 0
M  V30 5299 C 511.192 1.24756 -1.58998 0
M  V30 5300 C 511.513 1.92968 -0.280775 0
M  V30 5301 O 510.783 1.82959 0.700198 0
M  V30 5302 H 509.363 0.463471 -0.585836 0
M  V30 5303 H 512.025 0.574678 -1.86235 0
M  V30 5304 H 511.121 2.00895 -2.38847 0
M  V30 5305 N 511.423 1.38739 0.74761 0
M  V30 5306 C 512.671 1.35007 1.50391 0
M  V30 5307 C 512.992 -0.0574274 1.94915 0
M  V30 5308 O 512.262 -1.00628 1.6808 0
M  V30 5309 H 510.842 0.496784 0.557866 0
M  V30 5310 H 513.504 1.73479 0.888319 0
M  V30 5311 H 512.6 2.00474 2.392 0
M  V30 5312 N 512.901 -0.976442 1.23707 0
M  V30 5313 C 514.15 -1.71254 1.06559 0
M  V30 5314 C 514.463 -1.91528 -0.397024 0
M  V30 5315 O 515.669 -2.62625 -0.688518 0
M  V30 5316 C 514.125 -3.08207 1.8584 0
M  V30 5317 C 513.733 -2.95806 3.36456 0
M  V30 5318 C 515.477 -3.85749 1.77194 0
M  V30 5319 C 513.384 -4.28015 4.08114 0
M  V30 5320 H 512.314 -0.642171 0.395136 0
M  V30 5321 H 514.965 -1.08877 1.4771 0
M  V30 5322 H 513.347 -3.71363 1.37498 0
M  V30 5323 H 514.521 -2.41716 3.92314 0
M  V30 5324 H 512.836 -2.31736 3.45959 0
M  V30 5325 H 515.433 -4.83633 2.28041 0
M  V30 5326 H 515.776 -4.09752 0.735477 0
M  V30 5327 H 516.309 -3.29303 2.23169 0
M  V30 5328 H 513.048 -4.09208 5.12083 0
M  V30 5329 H 512.568 -4.81955 3.57043 0
M  V30 5330 H 514.247 -4.96681 4.14629 0
M  V30 5331 N 514.379 -1.04941 -1.1758 0
M  V30 5332 C 515.326 -0.648155 -2.21512 0
M  V30 5333 C 516.296 0.348431 -1.62404 0
M  V30 5334 O 517.481 0.240419 -1.89279 0
M  V30 5335 C 514.621 -0.0264291 -3.4509 0
M  V30 5336 C 513.734 -1.07154 -4.185 0
M  V30 5337 C 512.869 -0.417403 -5.29558 0
M  V30 5338 C 511.908 -1.447 -5.94751 0
M  V30 5339 N 511.045 -0.817203 -6.97328 0
M  V30 5340 H 515.885 -1.53891 -2.55189 0
M  V30 5341 H 513.422 -0.769699 -1.25356 0
M  V30 5342 H 515.38 0.351456 -4.15717 0
M  V30 5343 H 514.01 0.827802 -3.12005 0
M  V30 5344 H 513.062 -1.56728 -3.46613 0
M  V30 5345 H 514.374 -1.8532 -4.63096 0
M  V30 5346 H 513.528 0.0142061 -6.06698 0
M  V30 5347 H 512.267 0.396265 -4.86087 0
M  V30 5348 H 511.272 -1.88865 -5.16343 0
M  V30 5349 H 512.497 -2.26252 -6.40302 0
M  V30 5350 H 510.443 -0.0239995 -6.55996 0
M  V30 5351 H 510.36 -1.53644 -7.40223 0
M  V30 5352 H 511.628 -0.410283 -7.7842 0
M  V30 5353 N 515.857 1.33968 -0.830081 0
M  V30 5354 C 517.105 1.97672 -0.420734 0
M  V30 5355 C 517.426 1.66111 1.02138 0
M  V30 5356 O 516.696 0.955503 1.71017 0
M  V30 5357 H 515.276 0.73125 -0.152587 0
M  V30 5358 H 517.938 1.63483 -1.0611 0
M  V30 5359 H 517.034 3.07294 -0.545588 0
M  V30 5360 N 517.335 0.585699 1.46312 0
M  V30 5361 C 518.583 0.072278 2.01971 0
M  V30 5362 C 518.904 -1.29345 1.45928 0
M  V30 5363 O 518.174 -1.84973 0.645109 0
M  V30 5364 H 516.754 0.023729 0.746623 0
M  V30 5365 H 519.416 0.762155 1.7938 0
M  V30 5366 H 518.512 0.00552767 3.121 0
M  V30 5367 N 518.813 -1.54241 0.323641 0
M  V30 5368 C 520.06 -2.0057 -0.27891 0
M  V30 5369 C 520.388 -1.21181 -1.52136 0
M  V30 5370 O 519.643 -0.282043 -1.93657 0
M  V30 5371 C 519.942 -3.5129 -0.658031 0
M  V30 5372 C 519.608 -4.48281 0.485252 0
M  V30 5373 C 518.27 -4.74519 0.799055 0
M  V30 5374 C 520.622 -5.05909 1.25322 0
M  V30 5375 C 517.95 -5.55643 1.88354 0
M  V30 5376 C 520.302 -5.88215 2.32779 0
M  V30 5377 C 518.966 -6.12755 2.64741 0
M  V30 5378 H 518.236 -0.733938 -0.10206 0
M  V30 5379 H 520.883 -1.862 0.447435 0
M  V30 5380 H 519.188 -3.63388 -1.4648 0
M  V30 5381 H 520.885 -3.84578 -1.1358 0
M  V30 5382 H 517.475 -4.27979 0.230593 0
M  V30 5383 H 521.659 -4.8562 1.02404 0
M  V30 5384 H 516.915 -5.72888 2.13564 0
M  V30 5385 H 521.089 -6.31888 2.92729 0
M  V30 5386 H 518.716 -6.75404 3.48904 0
M  V30 5387 N 520.291 -0.0518155 -1.57515 0
M  V30 5388 C 521.537 0.622745 -1.93002 0
M  V30 5389 C 521.87 1.70456 -0.930499 0
M  V30 5390 O 521.145 1.94452 0.0434086 0
M  V30 5391 C 521.428 1.21824 -3.38867 0
M  V30 5392 C 521.281 0.144434 -4.49568 0
M  V30 5393 C 522.6 2.12968 -3.8514 0
M  V30 5394 H 519.719 0.22491 -0.701844 0
M  V30 5395 H 522.361 -0.113711 -1.89659 0
M  V30 5396 H 520.511 1.8459 -3.41846 0
M  V30 5397 H 522.183 -0.48753 -4.58717 0
M  V30 5398 H 520.426 -0.527424 -4.30582 0
M  V30 5399 H 521.097 0.601127 -5.48717 0
M  V30 5400 H 523.573 1.60163 -3.8404 0
M  V30 5401 H 522.449 2.51578 -4.87852 0
M  V30 5402 H 522.71 3.03004 -3.21934 0
M  V30 5403 N 521.769 1.56035 0.221574 0
M  V30 5404 C 522.719 1.8881 1.27807 0
M  V30 5405 C 523.703 0.751177 1.42289 0
M  V30 5406 O 524.895 1.01359 1.45104 0
M  V30 5407 C 522.024 2.20828 2.6285 0
M  V30 5408 C 521.11 3.40912 2.52269 0
M  V30 5409 N 521.501 4.59531 2.1134 0
M  V30 5410 C 519.799 3.44526 2.83228 0
M  V30 5411 C 520.5 5.41689 2.1201 0
M  V30 5412 N 519.476 4.814 2.52497 0
M  V30 5413 H 523.278 2.78036 0.952529 0
M  V30 5414 H 520.792 1.566 0.430134 0
M  V30 5415 H 522.789 2.42483 3.39127 0
M  V30 5416 H 521.449 1.32914 2.9625 0
M  V30 5417 H 522.46 4.8469 1.82472 0
M  V30 5418 H 519.137 2.66956 3.21 0
M  V30 5419 H 520.527 6.46643 1.82491 0
M  V30 5420 N 523.247 -0.488276 1.49845 0
M  V30 5421 C 524.179 -1.60539 1.63584 0
M  V30 5422 C 525.192 -1.5434 0.517972 0
M  V30 5423 O 526.381 -1.60041 0.790516 0
M  V30 5424 C 523.481 -2.99374 1.58835 0
M  V30 5425 C 522.654 -3.30624 2.86368 0
M  V30 5426 C 521.713 -4.4893 2.74496 0
M  V30 5427 O 520.739 -4.50085 3.48443 0
M  V30 5428 N 521.941 -5.49591 1.86894 0
M  V30 5429 H 524.706 -1.49176 2.59936 0
M  V30 5430 H 522.267 -0.67639 1.47094 0
M  V30 5431 H 524.259 -3.76459 1.48529 0
M  V30 5432 H 522.829 -3.04595 0.702892 0
M  V30 5433 H 522.049 -2.42314 3.1093 0
M  V30 5434 H 523.337 -3.48305 3.70892 0
M  V30 5435 H 522.735 -5.51467 1.26097 0
M  V30 5436 H 521.292 -6.25728 1.82503 0
M  V30 5437 N 524.725 -1.39134 -0.740242 0
M  V30 5438 C 526.141 -1.20623 -1.0451 0
M  V30 5439 C 526.341 -0.0641651 -2.01398 0
M  V30 5440 O 525.397 0.585843 -2.4561 0
M  V30 5441 C 526.71 -2.53815 -1.6124 0
M  V30 5442 C 528.258 -2.60615 -1.73346 0
M  V30 5443 C 528.733 -3.94015 -2.33486 0
M  V30 5444 N 530.224 -3.95627 -2.40902 0
M  V30 5445 C 530.959 -4.95616 -2.88361 0
M  V30 5446 N 530.455 -6.06003 -3.35756 0
M  V30 5447 N 532.248 -4.82998 -2.87523 0
M  V30 5448 H 524.399 -2.12176 -0.0975576 0
M  V30 5449 H 526.662 -0.942066 -0.105904 0
M  V30 5450 H 526.368 -3.37911 -0.975144 0
M  V30 5451 H 526.242 -2.73162 -2.6012 0
M  V30 5452 H 528.629 -1.76906 -2.36195 0
M  V30 5453 H 528.71 -2.45123 -0.731336 0
M  V30 5454 H 528.354 -4.78153 -1.71267 0
M  V30 5455 H 528.284 -4.06825 -3.34366 0
M  V30 5456 H 530.775 -3.15903 -2.07398 0
M  V30 5457 H 531.088 -6.78215 -3.70464 0
M  V30 5458 H 529.433 -6.09604 -3.33778 0
M  V30 5459 H 532.624 -3.95866 -2.49816 0
M  V30 5460 H 532.797 -5.61072 -3.24196 0
M  V30 5461 N 526.204 0.969867 -1.24223 0
M  V30 5462 C 527.137 2.06279 -0.975926 0
M  V30 5463 C 528.115 1.62353 0.0895385 0
M  V30 5464 O 529.299 1.88442 -0.0469418 0
M  V30 5465 C 526.426 3.35391 -0.472315 0
M  V30 5466 C 525.472 3.98266 -1.526 0
M  V30 5467 S 526.305 4.36172 -3.10667 0
M  V30 5468 C 527.461 5.68423 -2.62003 0
M  V30 5469 H 527.694 2.28551 -1.90137 0
M  V30 5470 H 525.227 1.10748 -1.07584 0
M  V30 5471 H 527.185 4.10068 -0.188376 0
M  V30 5472 H 525.846 3.1111 0.432378 0
M  V30 5473 H 525.039 4.91307 -1.12399 0
M  V30 5474 H 524.641 3.30009 -1.75983 0
M  V30 5475 H 526.933 6.45842 -2.0468 0
M  V30 5476 H 527.876 6.13478 -3.53625 0
M  V30 5477 H 528.284 5.26928 -2.02502 0
M  V30 5478 N 527.682 1.05563 1.17022 0
M  V30 5479 C 528.645 0.664098 2.19368 0
M  V30 5480 C 529.645 -0.286358 1.5823 0
M  V30 5481 O 530.835 -0.069728 1.7406 0
M  V30 5482 C 527.967 -0.0239932 3.40892 0
M  V30 5483 H 529.16 1.57 2.55521 0
M  V30 5484 H 526.713 0.849964 1.31169 0
M  V30 5485 H 527.448 -0.942988 3.10287 0
M  V30 5486 H 527.233 0.659351 3.86516 0
M  V30 5487 H 528.723 -0.283909 4.16634 0
M  V30 5488 N 529.16 -1.33526 0.837174 0
M  V30 5489 C 530.385 -2.0258 0.444545 0
M  V30 5490 C 530.81 -1.6258 -0.946006 0
M  V30 5491 O 530.168 -0.817548 -1.6182 0
M  V30 5492 C 530.216 -3.5605 0.571006 0
M  V30 5493 O 529.32 -4.10422 -0.403431 0
M  V30 5494 H 528.661 -0.638866 0.180958 0
M  V30 5495 H 531.191 -1.70462 1.13154 0
M  V30 5496 H 531.201 -4.05488 0.452024 0
M  V30 5497 H 529.876 -3.84509 1.58512 0
M  V30 5498 H 528.453 -3.72113 -0.242147 0
M  V30 5499 N 530.638 -0.59345 -1.46 0
M  V30 5500 C 531.585 0.133618 -2.30413 0
M  V30 5501 C 532.555 0.873736 -1.41262 0
M  V30 5502 O 533.74 0.862279 -1.70204 0
M  V30 5503 C 530.88 1.13434 -3.25924 0
M  V30 5504 C 529.993 0.39656 -4.30176 0
M  V30 5505 C 529.128 1.38575 -5.12806 0
M  V30 5506 C 528.167 0.634984 -6.08797 0
M  V30 5507 N 527.304 1.57276 -6.84258 0
M  V30 5508 H 532.144 -0.592252 -2.92055 0
M  V30 5509 H 529.681 -0.303874 -1.43927 0
M  V30 5510 H 531.639 1.72752 -3.79753 0
M  V30 5511 H 530.269 1.82779 -2.66067 0
M  V30 5512 H 529.321 -0.311861 -3.79119 0
M  V30 5513 H 530.633 -0.189869 -4.98438 0
M  V30 5514 H 529.787 2.05141 -5.70966 0
M  V30 5515 H 528.526 2.00611 -4.44529 0
M  V30 5516 H 527.531 -0.0443925 -5.49782 0
M  V30 5517 H 528.756 0.0198678 -6.79097 0
M  V30 5518 H 526.702 2.18103 -6.18682 0
M  V30 5519 H 526.619 1.03941 -7.48821 0
M  V30 5520 H 527.887 2.22844 -7.46968 0
M  V30 5521 N 532.116 1.54067 -0.331816 0
M  V30 5522 C 533.365 1.99895 0.269209 0
M  V30 5523 C 533.678 1.22371 1.52593 0
M  V30 5524 O 534.884 1.58618 2.20347 0
M  V30 5525 C 533.34 3.55972 0.530244 0
M  V30 5526 C 532.948 4.4234 -0.709901 0
M  V30 5527 C 534.692 4.10247 1.09077 0
M  V30 5528 C 532.599 5.89905 -0.420312 0
M  V30 5529 H 531.529 0.746741 0.104371 0
M  V30 5530 H 534.18 1.78014 -0.445324 0
M  V30 5531 H 532.562 3.73873 1.30518 0
M  V30 5532 H 533.736 4.36215 -1.48504 0
M  V30 5533 H 532.051 3.98997 -1.19123 0
M  V30 5534 H 534.648 5.18095 1.32219 0
M  V30 5535 H 534.991 3.62739 2.0427 0
M  V30 5536 H 535.524 3.96011 0.376824 0
M  V30 5537 H 532.263 6.41623 -1.34164 0
M  V30 5538 H 531.783 5.98962 0.316962 0
M  V30 5539 H 533.462 6.46991 -0.0331956 0
M  V30 5540 N 533.594 0.0601682 1.57485 0
M  V30 5541 C 534.842 -0.610386 1.92662 0
M  V30 5542 C 535.163 -1.70849 0.939981 0
M  V30 5543 O 534.433 -1.95895 -0.0137455 0
M  V30 5544 H 533.013 -0.228457 0.711208 0
M  V30 5545 H 535.675 0.115288 1.94559 0
M  V30 5546 H 534.771 -1.0432 2.94149 0
M  V30 5547 N 535.072 -1.5615 -0.213296 0
M  V30 5548 C 536.488 -1.49327 -0.56336 0
M  V30 5549 C 536.688 -0.756826 -1.86747 0
M  V30 5550 O 535.744 -0.299866 -2.50713 0
M  V30 5551 C 537.057 -2.9392 -0.634944 0
M  V30 5552 C 538.605 -3.04487 -0.725013 0
M  V30 5553 C 539.08 -4.50456 -0.82787 0
M  V30 5554 N 540.571 -4.54533 -0.891876 0
M  V30 5555 C 541.306 -5.64766 -0.991315 0
M  V30 5556 N 540.802 -6.84733 -1.05419 0
M  V30 5557 N 542.595 -5.52637 -1.02709 0
M  V30 5558 H 534.746 -2.02453 0.642366 0
M  V30 5559 H 537.009 -0.920548 0.226487 0
M  V30 5560 H 536.715 -3.50783 0.253859 0
M  V30 5561 H 536.589 -3.46274 -1.49579 0
M  V30 5562 H 538.976 -2.47685 -1.60425 0
M  V30 5563 H 539.057 -2.55289 0.161669 0
M  V30 5564 H 538.701 -5.07878 0.0469464 0
M  V30 5565 H 538.631 -4.97369 -1.73009 0
M  V30 5566 H 541.122 -3.68141 -0.85327 0
M  V30 5567 H 541.435 -7.64493 -1.13007 0
M  V30 5568 H 539.78 -6.87427 -1.02318 0
M  V30 5569 H 542.971 -4.5784 -0.974687 0
M  V30 5570 H 543.144 -6.38576 -1.10113 0
M  V30 5571 N 536.55 0.480323 -1.50102 0
M  V30 5572 C 537.796 1.23208 -1.61837 0
M  V30 5573 C 538.151 1.89878 -0.310509 0
M  V30 5574 O 537.444 1.7871 0.690897 0
M  V30 5575 C 537.638 2.30708 -2.72963 0
M  V30 5576 C 537.467 1.74583 -4.14428 0
M  V30 5577 C 536.237 1.54964 -4.80951 0
M  V30 5578 C 538.435 1.24597 -4.98979 0
M  V30 5579 N 536.417 0.939855 -6.06663 0
M  V30 5580 C 537.788 0.758834 -6.15339 0
M  V30 5581 C 539.843 1.13365 -4.84822 0
M  V30 5582 C 538.546 0.17046 -7.19098 0
M  V30 5583 C 540.572 0.559221 -5.8875 0
M  V30 5584 C 539.934 0.082415 -7.04352 0
M  V30 5585 H 536.033 0.440065 -0.646426 0
M  V30 5586 H 538.617 0.535632 -1.87187 0
M  V30 5587 H 536.788 2.9779 -2.4935 0
M  V30 5588 H 538.52 2.97738 -2.74106 0
M  V30 5589 H 535.275 1.79926 -4.38091 0
M  V30 5590 H 535.699 0.653641 -6.73837 0
M  V30 5591 H 540.341 1.48823 -3.95742 0
M  V30 5592 H 538.059 -0.196347 -8.07861 0
M  V30 5593 H 541.645 0.474804 -5.79859 0
M  V30 5594 H 540.525 -0.355119 -7.83396 0
M  V30 5595 N 538.028 1.39524 0.732853 0
M  V30 5596 C 539.258 1.3994 1.51988 0
M  V30 5597 C 539.666 -0.00727973 1.89199 0
M  V30 5598 O 539.009 -0.989521 1.54771 0
M  V30 5599 C 539.071 2.21026 2.83527 0
M  V30 5600 C 538.735 3.69633 2.68738 0
M  V30 5601 C 539.732 4.62665 2.37143 0
M  V30 5602 C 537.417 4.13244 2.85542 0
M  V30 5603 C 539.411 5.97291 2.22536 0
M  V30 5604 C 537.098 5.47945 2.70554 0
M  V30 5605 C 538.096 6.39783 2.39097 0
M  V30 5606 O 537.784 7.72002 2.24204 0
M  V30 5607 H 537.516 0.479795 0.476206 0
M  V30 5608 H 540.07 1.8399 0.913054 0
M  V30 5609 H 538.3 1.71728 3.46477 0
M  V30 5610 H 539.989 2.13594 3.45156 0
M  V30 5611 H 540.755 4.30272 2.2381 0
M  V30 5612 H 536.634 3.42094 3.09019 0
M  V30 5613 H 540.178 6.68939 1.97905 0
M  V30 5614 H 536.075 5.79928 2.83466 0
M  V30 5615 H 536.843 7.8275 2.39258 0
M  V30 5616 N 539.506 -0.963266 1.24736 0
M  V30 5617 C 540.731 -1.74699 1.11781 0
M  V30 5618 C 541.156 -1.85267 -0.325258 0
M  V30 5619 O 540.514 -1.32681 -1.23553 0
M  V30 5620 C 540.562 -3.14322 1.76731 0
M  V30 5621 O 539.666 -3.99043 1.04109 0
M  V30 5622 H 539.007 -0.53684 0.390767 0
M  V30 5623 H 541.537 -1.20801 1.65131 0
M  V30 5624 H 541.547 -3.64824 1.82668 0
M  V30 5625 H 540.222 -3.05946 2.81726 0
M  V30 5626 H 538.799 -3.5752 1.05991 0
M  V30 5627 N 540.985 -1.06182 -1.16461 0
M  V30 5628 C 542.401 -0.785065 -1.38956 0
M  V30 5629 C 542.601 0.616103 -1.9185 0
M  V30 5630 O 541.657 1.37686 -2.11657 0
M  V30 5631 C 542.97 -1.84902 -2.37132 0
M  V30 5632 C 544.518 -1.8724 -2.50819 0
M  V30 5633 C 544.993 -2.92686 -3.52277 0
M  V30 5634 N 546.484 -2.91712 -3.59803 0
M  V30 5635 C 547.219 -3.69949 -4.38093 0
M  V30 5636 N 546.715 -4.58 -5.19815 0
M  V30 5637 N 548.508 -3.58346 -4.33064 0
M  V30 5638 H 540.659 -1.96569 -0.804634 0
M  V30 5639 H 542.922 -0.851747 -0.416211 0
M  V30 5640 H 542.628 -2.85518 -2.0536 0
M  V30 5641 H 542.502 -1.69908 -3.36766 0
M  V30 5642 H 544.889 -0.872827 -2.81897 0
M  V30 5643 H 544.97 -2.06311 -1.51226 0
M  V30 5644 H 544.614 -3.92835 -3.21937 0
M  V30 5645 H 544.544 -2.70864 -4.51598 0
M  V30 5646 H 547.035 -2.27876 -3.01464 0
M  V30 5647 H 547.348 -5.14357 -5.76764 0
M  V30 5648 H 545.693 -4.62056 -5.19162 0
M  V30 5649 H 548.884 -2.88943 -3.68279 0
M  V30 5650 H 549.057 -4.19563 -4.93833 0
M  V30 5651 N 542.463 1.3308 -0.844243 0
M  V30 5652 C 543.691 2.01808 -0.456203 0
M  V30 5653 C 544.106 1.63498 0.944131 0
M  V30 5654 O 543.463 0.85102 1.61443 0
M  V30 5655 C 543.514 3.56922 -0.573513 0
M  V30 5656 O 543.235 3.93851 -1.91868 0
M  V30 5657 C 544.736 4.42922 -0.183125 0
M  V30 5658 H 541.956 0.646273 -0.180477 0
M  V30 5659 H 544.5 1.69891 -1.1383 0
M  V30 5660 H 542.655 3.87352 0.0607367 0
M  V30 5661 H 543.069 4.88564 -1.90802 0
M  V30 5662 H 544.543 5.51093 -0.316241 0
M  V30 5663 H 545.02 4.30386 0.875477 0
M  V30 5664 H 545.626 4.1786 -0.792027 0
M  V30 5665 N 543.941 0.601185 1.45683 0
M  V30 5666 C 544.874 -0.17013 2.27565 0
M  V30 5667 C 545.852 -0.879661 1.36751 0
M  V30 5668 O 547.036 -0.889827 1.66176 0
M  V30 5669 C 544.163 -1.24568 3.14961 0
M  V30 5670 C 543.209 -0.639978 4.21671 0
M  V30 5671 S 544.042 0.547275 5.32696 0
M  V30 5672 C 545.198 -0.529019 6.2366 0
M  V30 5673 H 545.431 0.524583 2.92635 0
M  V30 5674 H 542.964 0.388537 1.49431 0
M  V30 5675 H 544.922 -1.86138 3.65873 0
M  V30 5676 H 543.583 -1.91243 2.49169 0
M  V30 5677 H 542.776 -1.44903 4.8272 0
M  V30 5678 H 542.378 -0.0995558 3.73867 0
M  V30 5679 H 544.67 -1.40981 6.62669 0
M  V30 5680 H 545.613 0.0451599 7.08086 0
M  V30 5681 H 546.021 -0.84147 5.58193 0
M  V30 5682 N 545.419 -1.53889 0.339982 0
M  V30 5683 C 546.644 -2.05741 -0.261798 0
M  V30 5684 C 547.069 -1.21354 -1.43718 0
M  V30 5685 O 546.427 -0.22645 -1.7988 0
M  V30 5686 C 546.475 -3.54542 -0.658228 0
M  V30 5687 O 545.579 -3.7302 -1.75869 0
M  V30 5688 H 544.92 -0.662529 -0.0441672 0
M  V30 5689 H 547.45 -1.98568 0.493161 0
M  V30 5690 H 547.46 -3.9711 -0.936368 0
M  V30 5691 H 546.135 -4.15412 0.201358 0
M  V30 5692 H 544.712 -3.42355 -1.47809 0
M  V30 5693 N 546.897 -0.0685191 -1.57451 0
M  V30 5694 C 547.844 0.899861 -2.12535 0
M  V30 5695 C 548.814 1.29749 -1.03703 0
M  V30 5696 O 549.999 1.38392 -1.31348 0
M  V30 5697 C 547.139 2.16328 -2.6888 0
M  V30 5698 C 546.252 1.81857 -3.91857 0
M  V30 5699 C 545.387 3.02786 -4.36457 0
M  V30 5700 C 544.426 2.64317 -5.5209 0
M  V30 5701 N 543.563 3.77994 -5.91663 0
M  V30 5702 H 548.403 0.423243 -2.94979 0
M  V30 5703 H 545.94 0.197268 -1.45771 0
M  V30 5704 H 547.898 2.90281 -2.99655 0
M  V30 5705 H 546.528 2.61536 -1.89206 0
M  V30 5706 H 545.58 0.979808 -3.67565 0
M  V30 5707 H 546.892 1.49553 -4.75852 0
M  V30 5708 H 546.046 3.85021 -4.68875 0
M  V30 5709 H 544.785 3.38281 -3.51308 0
M  V30 5710 H 543.79 1.80503 -5.19325 0
M  V30 5711 H 545.015 2.29995 -6.38967 0
M  V30 5712 H 542.961 4.13258 -5.09464 0
M  V30 5713 H 542.878 3.49447 -6.7039 0
M  V30 5714 H 544.146 4.60818 -6.28703 0
M  V30 5715 N 548.375 1.56261 0.205012 0
M  V30 5716 C 549.603 1.84141 0.943386 0
M  V30 5717 C 550.018 0.649772 1.77266 0
M  V30 5718 O 549.375 -0.381612 1.78466 0
M  V30 5719 C 549.426 3.10719 1.84759 0
M  V30 5720 O 549.147 4.25286 1.05181 0
M  V30 5721 C 550.648 3.51706 2.69848 0
M  V30 5722 H 547.868 0.611734 0.275721 0
M  V30 5723 H 550.412 2.03364 0.215253 0
M  V30 5724 H 548.567 2.93422 2.52947 0
M  V30 5725 H 548.981 4.97301 1.66709 0
M  V30 5726 H 550.455 4.43266 3.28967 0
M  V30 5727 H 550.932 2.7423 3.43067 0
M  V30 5728 H 551.538 3.71499 2.07047 0
M  V30 5729 N 549.853 -0.472356 1.50355 0
M  V30 5730 C 550.801 -1.59126 1.69651 0
M  V30 5731 C 551.795 -1.59793 0.56237 0
M  V30 5732 O 553.001 -1.63957 0.742832 0
M  V30 5733 H 549.376 -0.528008 0.535454 0
M  V30 5734 H 551.347 -1.40013 2.63513 0
M  V30 5735 C 550.096 -2.97075 1.8067 0
M  V30 5736 H 549.419 -2.9728 2.67329 0
M  V30 5737 H 550.859 -3.74825 1.98197 0
M  V30 5738 C 549.318 -3.32247 0.558016 0
M  V30 5739 O 549.848 -4.00553 -0.303399 0
M  V30 5740 N 548.054 -2.87659 0.412415 0
M  V30 5741 H 547.601 -2.32246 1.11443 0
M  V30 5742 H 547.559 -3.11556 -0.421908 0
M  V30 5743 N 551.331 -1.39911 -0.725443 0
M  V30 5744 C 552.747 -1.21725 -1.03224 0
M  V30 5745 C 552.947 -0.0855224 -2.01318 0
M  V30 5746 O 552.003 0.55976 -2.46217 0
M  V30 5747 C 553.316 -2.55511 -1.58539 0
M  V30 5748 C 554.864 -2.62439 -1.70572 0
M  V30 5749 C 555.339 -3.9647 -2.29294 0
M  V30 5750 N 556.83 -3.98159 -2.36692 0
M  V30 5751 C 557.565 -4.98647 -2.83088 0
M  V30 5752 N 557.061 -6.0953 -3.2931 0
M  V30 5753 N 558.854 -4.8602 -2.82384 0
M  V30 5754 H 551.005 -2.12267 -0.075048 0
M  V30 5755 H 553.268 -0.943136 -0.0959066 0
M  V30 5756 H 552.974 -3.38926 -0.939249 0
M  V30 5757 H 552.848 -2.75905 -2.57208 0
M  V30 5758 H 555.235 -1.79401 -2.34306 0
M  V30 5759 H 555.316 -2.45885 -0.705297 0
M  V30 5760 H 554.96 -4.79942 -1.66186 0
M  V30 5761 H 554.89 -4.10349 -3.30032 0
M  V30 5762 H 557.381 -3.18085 -2.04035 0
M  V30 5763 H 557.694 -6.82106 -3.6325 0
M  V30 5764 H 556.039 -6.1311 -3.27294 0
M  V30 5765 H 559.23 -3.98493 -2.45603 0
M  V30 5766 H 559.403 -5.64478 -3.18226 0
M  V30 5767 N 552.809 0.956637 -1.25245 0
M  V30 5768 C 553.742 2.05232 -0.99775 0
M  V30 5769 C 554.72 1.62439 0.0723137 0
M  V30 5770 O 555.904 1.88381 -0.066926 0
M  V30 5771 C 553.031 3.34871 -0.507861 0
M  V30 5772 C 552.077 3.96625 -1.56815 0
M  V30 5773 S 552.91 4.32853 -3.15276 0
M  V30 5774 C 554.066 5.65613 -2.68017 0
M  V30 5775 H 554.299 2.26521 -1.9255 0
M  V30 5776 H 551.832 1.09601 -1.08752 0
M  V30 5777 H 553.79 4.09845 -0.231858 0
M  V30 5778 H 552.451 3.11551 0.399356 0
M  V30 5779 H 551.644 4.90087 -1.17604 0
M  V30 5780 H 551.246 3.28124 -1.79473 0
M  V30 5781 H 553.538 6.43635 -2.11518 0
M  V30 5782 H 554.481 6.09693 -3.60112 0
M  V30 5783 H 554.889 5.24751 -2.0808 0
M  V30 5784 N 554.287 1.06798 1.15896 0
M  V30 5785 C 555.535 0.786211 1.8618 0
M  V30 5786 C 555.856 -0.689547 1.82401 0
M  V30 5787 O 555.126 -1.49913 1.26107 0
M  V30 5788 H 553.706 0.287843 0.689315 0
M  V30 5789 H 556.368 1.35055 1.40521 0
M  V30 5790 H 555.464 1.1157 2.91477 0
M  V30 5791 N 555.766 -1.3263 0.851289 0
M  V30 5792 C 556.699 -2.26952 0.238318 0
M  V30 5793 C 557.677 -1.50243 -0.621757 0
M  V30 5794 O 558.861 -1.79378 -0.579298 0
M  V30 5795 C 555.988 -3.32124 -0.664178 0
M  V30 5796 C 555.034 -4.26325 0.122067 0
M  V30 5797 S 555.867 -5.14404 1.48824 0
M  V30 5798 C 557.023 -6.231 0.591372 0
M  V30 5799 H 557.256 -2.78594 1.03791 0
M  V30 5800 H 554.789 -1.4011 0.648731 0
M  V30 5801 H 556.747 -3.93197 -1.17924 0
M  V30 5802 H 555.408 -2.79273 -1.43755 0
M  V30 5803 H 554.601 -5.00821 -0.565181 0
M  V30 5804 H 554.203 -3.69652 0.568602 0
M  V30 5805 H 556.495 -6.77187 -0.205762 0
M  V30 5806 H 557.438 -6.95936 1.30687 0
M  V30 5807 H 557.846 -5.64252 0.167206 0
M  V30 5808 N 557.244 -0.608902 -1.45362 0
M  V30 5809 C 558.154 0.110969 -2.34337 0
M  V30 5810 C 559.17 0.859007 -1.51318 0
M  V30 5811 O 560.346 0.816296 -1.84116 0
M  V30 5812 C 557.411 1.09494 -3.28956 0
M  V30 5813 C 556.472 0.348718 -4.27881 0
M  V30 5814 C 555.705 1.28582 -5.17979 0
M  V30 5815 O 555.928 2.52369 -5.11533 0
M  V30 5816 O 554.862 0.782172 -5.96796 0
M  V30 5817 H 558.688 -0.620258 -2.97299 0
M  V30 5818 H 556.273 -0.36916 -1.44767 0
M  V30 5819 H 558.155 1.66163 -3.87257 0
M  V30 5820 H 556.83 1.80717 -2.68557 0
M  V30 5821 H 555.737 -0.260465 -3.73192 0
M  V30 5822 H 557.07 -0.323049 -4.91139 0
M  V30 5823 N 558.722 1.53707 -0.348139 0
M  V30 5824 C 559.652 2.28111 0.498766 0
M  V30 5825 C 560.633 1.29851 1.09876 0
M  V30 5826 O 561.818 1.587 1.11928 0
M  V30 5827 C 558.948 3.05735 1.64753 0
M  V30 5828 C 557.902 4.11537 1.17565 0
M  V30 5829 C 557.228 4.77142 2.4133 0
M  V30 5830 C 558.528 5.21587 0.272844 0
M  V30 5831 H 560.222 2.99152 -0.121934 0
M  V30 5832 H 557.768 1.43875 -0.0600842 0
M  V30 5833 H 559.721 3.56526 2.24649 0
M  V30 5834 H 558.445 2.32354 2.2952 0
M  V30 5835 H 557.104 3.61665 0.599483 0
M  V30 5836 H 556.752 4.0035 3.04514 0
M  V30 5837 H 556.452 5.48626 2.10436 0
M  V30 5838 H 557.976 5.30719 3.01943 0
M  V30 5839 H 559.39 5.67986 0.778779 0
M  V30 5840 H 557.787 6.00074 0.0555849 0
M  V30 5841 H 558.857 4.79969 -0.689785 0
M  V30 5842 N 560.2 0.0768682 1.57412 0
M  V30 5843 C 561.43 -0.5991 1.97723 0
M  V30 5844 C 561.838 -1.63378 0.954166 0
M  V30 5845 O 561.181 -1.83578 -0.0668706 0
M  V30 5846 C 561.243 -1.32078 3.34358 0
M  V30 5847 C 560.907 -0.438985 4.54887 0
M  V30 5848 C 561.904 0.305492 5.19002 0
M  V30 5849 C 559.589 -0.362378 5.00991 0
M  V30 5850 C 561.583 1.11475 6.27576 0
M  V30 5851 C 559.27 0.450543 6.09437 0
M  V30 5852 C 560.268 1.18777 6.72593 0
M  V30 5853 O 559.956 1.98727 7.7895 0
M  V30 5854 H 559.688 -0.166725 0.655117 0
M  V30 5855 H 562.242 0.147337 2.04871 0
M  V30 5856 H 560.472 -2.1134 3.2384 0
M  V30 5857 H 562.161 -1.88949 3.5924 0
M  V30 5858 H 562.927 0.25593 4.84324 0
M  V30 5859 H 558.806 -0.925832 4.51608 0
M  V30 5860 H 562.35 1.69068 6.76803 0
M  V30 5861 H 558.247 0.501651 6.43548 0
M  V30 5862 H 559.015 1.91214 7.95851 0
M  V30 5863 N 561.678 -1.56367 -0.196722 0
M  V30 5864 C 562.924 -1.80796 -0.918725 0
M  V30 5865 C 563.257 -0.650645 -1.82976 0
M  V30 5866 O 562.532 0.348889 -1.91345 0
M  V30 5867 C 562.815 -3.15472 -1.73636 0
M  V30 5868 C 562.668 -4.41693 -0.85015 0
M  V30 5869 C 563.987 -3.46824 -2.70927 0
M  V30 5870 H 561.106 -0.657702 -0.332561 0
M  V30 5871 H 563.748 -1.89086 -0.186186 0
M  V30 5872 H 561.898 -3.08536 -2.36088 0
M  V30 5873 H 563.57 -4.60673 -0.240459 0
M  V30 5874 H 561.813 -4.33517 -0.156785 0
M  V30 5875 H 562.484 -5.32419 -1.45719 0
M  V30 5876 H 564.96 -3.54049 -2.18607 0
M  V30 5877 H 563.836 -4.4218 -3.25219 0
M  V30 5878 H 564.097 -2.70236 -3.49893 0
M  V30 5879 N 563.156 0.464375 -1.50603 0
M  V30 5880 C 564.103 1.56152 -1.69956 0
M  V30 5881 C 565.073 1.57046 -0.54091 0
M  V30 5882 O 566.258 1.74473 -0.772258 0
M  V30 5883 C 563.398 2.94079 -1.80586 0
M  V30 5884 C 562.511 3.02923 -3.07996 0
M  V30 5885 C 561.646 4.31806 -3.09382 0
M  V30 5886 C 560.685 4.34417 -4.31218 0
M  V30 5887 N 559.822 5.54782 -4.30304 0
M  V30 5888 H 564.662 1.38955 -2.6362 0
M  V30 5889 H 562.199 0.675482 -1.30674 0
M  V30 5890 H 564.157 3.74073 -1.8473 0
M  V30 5891 H 562.787 3.09896 -0.903556 0
M  V30 5892 H 561.839 2.1576 -3.13292 0
M  V30 5893 H 563.151 3.00712 -3.97962 0
M  V30 5894 H 562.305 5.20153 -3.12292 0
M  V30 5895 H 561.044 4.36636 -2.17257 0
M  V30 5896 H 560.049 3.44467 -4.28512 0
M  V30 5897 H 561.274 4.31273 -5.24576 0
M  V30 5898 H 559.22 5.60384 -3.41037 0
M  V30 5899 H 559.137 5.54339 -5.14047 0
M  V30 5900 H 560.405 6.45235 -4.3737 0
M  V30 5901 N 564.634 1.40294 0.718013 0
M  V30 5902 C 565.864 1.41544 1.50495 0
M  V30 5903 C 566.272 0.0127877 1.89196 0
M  V30 5904 O 565.615 -0.97305 1.55812 0
M  V30 5905 C 565.677 2.24021 2.81167 0
M  V30 5906 C 565.341 3.72463 2.64803 0
M  V30 5907 C 566.338 4.65154 2.32223 0
M  V30 5908 C 564.023 4.1625 2.81143 0
M  V30 5909 C 566.017 5.99618 2.16189 0
M  V30 5910 C 563.704 5.50784 2.64727 0
M  V30 5911 C 564.702 6.42283 2.32297 0
M  V30 5912 O 564.39 7.74337 2.16004 0
M  V30 5913 H 564.122 0.484819 0.471091 0
M  V30 5914 H 566.676 1.84948 0.893488 0
M  V30 5915 H 564.906 1.75393 3.44636 0
M  V30 5916 H 566.595 2.17243 3.42871 0
M  V30 5917 H 567.361 4.32622 2.19234 0
M  V30 5918 H 563.24 3.45352 3.05373 0
M  V30 5919 H 566.784 6.71 1.90799 0
M  V30 5920 H 562.681 5.82902 2.773 0
M  V30 5921 H 563.449 7.85244 2.30942 0
M  V30 5922 N 566.112 -0.949982 1.2575 0
M  V30 5923 C 567.389 -1.6718 1.01539 0
M  V30 5924 C 567.769 -2.06095 -0.456942 0
M  V30 5925 O 567.117 -1.77792 -1.43534 0
M  V30 5926 C 567.327 -2.8906 1.95564 0
M  V30 5927 C 568.675 -3.60909 2.23673 0
M  V30 5928 O 569.699 -2.9915 1.9336 0
M  V30 5929 O 568.558 -4.72127 2.75243 0
M  V30 5930 H 565.652 -0.731697 0.385419 0
M  V30 5931 H 568.198 -1.00249 1.36924 0
M  V30 5932 H 566.97 -2.57128 2.94959 0
M  V30 5933 H 566.593 -3.63719 1.60605 0
M  V30 5934 N 567.59 -1.07411 -1.15328 0
M  V30 5935 C 568.838 -0.796073 -1.85761 0
M  V30 5936 C 569.159 0.679864 -1.82764 0
M  V30 5937 O 568.429 1.49242 -1.269 0
M  V30 5938 H 567.009 -0.291495 -0.687779 0
M  V30 5939 H 569.671 -1.35799 -1.39802 0
M  V30 5940 H 568.767 -1.13114 -2.90881 0
M  V30 5941 N 569.068 1.32177 -0.85831 0
M  V30 5942 C 570.345 1.91781 -0.384624 0
M  V30 5943 C 570.725 1.78171 1.13217 0
M  V30 5944 O 570.073 1.18209 1.95548 0
M  V30 5945 C 570.283 3.38414 -0.853047 0
M  V30 5946 C 571.631 4.15542 -0.872359 0
M  V30 5947 O 572.655 3.47148 -0.797926 0
M  V30 5948 O 571.514 5.37678 -0.978009 0
M  V30 5949 H 568.608 0.819259 -0.112886 0
M  V30 5950 H 571.154 1.40923 -0.945453 0
M  V30 5951 H 569.926 3.4228 -1.89632 0
M  V30 5952 H 569.549 3.96683 -0.269874 0
M  V30 5953 N 570.547 0.616602 1.45037 0
M  V30 5954 C 571.958 0.199359 1.85633 0
M  V30 5955 C 572.309 -1.24588 1.51566 0
M  V30 5956 O 571.434 -1.94594 0.94668 0
M  V30 5957 C 572.029 0.355033 3.36935 0
M  V30 5958 C 570.588 -0.00758748 3.76399 0
M  V30 5959 C 569.735 0.675256 2.68953 0
M  V30 5960 H 572.686 0.822708 1.3571 0
M  V30 5961 H 572.707 -0.410201 3.78282 0
M  V30 5962 H 572.219 1.40699 3.61698 0
M  V30 5963 H 570.32 -1.05837 3.57252 0
M  V30 5964 H 570.433 0.392346 4.77491 0
M  V30 5965 H 568.797 0.111992 2.54454 0
M  V30 5966 H 569.58 1.72952 2.96551 0
M  V30 5967 N 572.025 -1.5352 0.356285 0
M  V30 5968 C 573.271 -2.02104 -0.229271 0
M  V30 5969 C 573.626 -1.23923 -1.47176 0
M  V30 5970 O 572.919 -0.321957 -1.88876 0
M  V30 5971 C 573.113 -3.52607 -0.583369 0
M  V30 5972 C 572.942 -4.4536 0.623253 0
M  V30 5973 C 571.712 -4.92446 1.13248 0
M  V30 5974 C 573.91 -4.92375 1.48563 0
M  V30 5975 N 571.892 -5.69183 2.3001 0
M  V30 5976 C 573.263 -5.67362 2.50001 0
M  V30 5977 C 575.318 -4.74464 1.50959 0
M  V30 5978 C 574.021 -6.26341 3.5368 0
M  V30 5979 C 576.047 -5.34302 2.53526 0
M  V30 5980 C 575.409 -6.09166 3.53688 0
M  V30 5981 H 571.508 -0.780595 -0.0468602 0
M  V30 5982 H 574.092 -1.88204 0.49873 0
M  V30 5983 H 572.263 -3.66686 -1.28046 0
M  V30 5984 H 573.995 -3.87922 -1.15321 0
M  V30 5985 H 570.75 -4.6842 0.698562 0
M  V30 5986 H 571.174 -6.12216 2.88998 0
M  V30 5987 H 575.816 -4.16117 0.748785 0
M  V30 5988 H 573.534 -6.8379 4.30648 0
M  V30 5989 H 577.12 -5.22342 2.56223 0
M  V30 5990 H 576 -6.54644 4.31753 0
M  V30 5991 N 573.503 -0.0852151 -1.57369 0
M  V30 5992 C 574.731 0.58946 -1.98325 0
M  V30 5993 C 575.146 1.62333 -0.96403 0
M  V30 5994 O 574.503 1.82438 0.0476395 0
M  V30 5995 C 574.554 1.24604 -3.39347 0
M  V30 5996 O 574.275 0.253532 -4.37366 0
M  V30 5997 C 575.776 2.00726 -3.95252 0
M  V30 5998 H 572.996 0.158783 -0.651942 0
M  V30 5999 H 575.54 -0.161584 -2.03861 0
M  V30 6000 H 573.695 1.94808 -3.34856 0
M  V30 6001 H 574.109 0.726207 -5.19448 0
M  V30 6002 H 575.583 2.42039 -4.96106 0
M  V30 6003 H 576.06 2.86919 -3.32527 0
M  V30 6004 H 576.666 1.3536 -4.03185 0
M  V30 6005 N 574.981 1.5647 0.188427 0
M  V30 6006 C 576.258 1.71857 0.934058 0
M  V30 6007 C 576.638 0.641867 2.01105 0
M  V30 6008 O 575.986 -0.346098 2.25864 0
M  V30 6009 C 576.196 3.14431 1.5144 0
M  V30 6010 C 577.544 3.74869 1.99396 0
M  V30 6011 O 578.568 3.17601 1.61269 0
M  V30 6012 O 577.427 4.75387 2.69573 0
M  V30 6013 H 574.521 0.701186 0.438483 0
M  V30 6014 H 577.067 1.68768 0.177599 0
M  V30 6015 H 575.839 3.8427 0.738416 0
M  V30 6016 H 575.462 3.21775 2.33552 0
M  V30 6017 N 576.459 -0.456382 1.50847 0
M  V30 6018 C 577.684 -1.2349 1.66628 0
M  V30 6019 C 578.109 -1.84715 0.355254 0
M  V30 6020 O 577.467 -1.67961 -0.682559 0
M  V30 6021 C 577.515 -2.30865 2.77009 0
M  V30 6022 O 576.619 -3.35882 2.39285 0
M  V30 6023 H 575.96 -0.36266 0.556214 0
M  V30 6024 H 578.49 -0.541374 1.97308 0
M  V30 6025 H 578.5 -2.75949 3.00526 0
M  V30 6026 H 577.175 -1.85677 3.72152 0
M  V30 6027 H 575.752 -2.96406 2.26269 0
M  V30 6028 N 577.937 -1.40673 -0.710563 0
M  V30 6029 C 579.214 -1.29718 -1.46398 0
M  V30 6030 C 579.594 0.082177 -2.1094 0
M  V30 6031 O 578.942 1.09536 -2.00534 0
M  V30 6032 C 579.152 -2.43967 -2.49562 0
M  V30 6033 C 580.5 -2.84436 -3.15248 0
M  V30 6034 O 581.524 -2.43597 -2.59883 0
M  V30 6035 O 580.383 -3.55008 -4.1549 0
M  V30 6036 H 577.477 -0.509697 -0.651258 0
M  V30 6037 H 580.023 -1.52603 -0.742312 0
M  V30 6038 H 578.795 -3.36076 -2.0042 0
M  V30 6039 H 578.418 -2.22879 -3.29258 0
M  V30 6040 N 579.415 0.9433 -1.26252 0
M  V30 6041 C 580.378 2.02326 -1.07689 0
M  V30 6042 C 581.378 1.60779 -0.0259174 0
M  V30 6043 O 582.568 1.72108 -0.269134 0
M  V30 6044 C 579.7 3.34886 -0.63752 0
M  V30 6045 H 580.893 2.20225 -2.0357 0
M  V30 6046 H 578.446 1.12197 -1.08819 0
M  V30 6047 H 579.181 3.22684 0.323377 0
M  V30 6048 H 578.966 3.66393 -1.39637 0
M  V30 6049 H 580.456 4.14231 -0.529418 0
M  V30 6050 N 580.893 1.08022 1.14757 0
M  V30 6051 C 581.823 0.728248 2.21853 0
M  V30 6052 C 582.804 -0.287486 1.67653 0
M  V30 6053 O 583.989 -0.158727 1.9355 0
M  V30 6054 C 581.119 0.132549 3.47047 0
M  V30 6055 C 580.073 1.07619 4.14249 0
M  V30 6056 C 579.399 0.342907 5.33599 0
M  V30 6057 C 580.699 2.41268 4.63235 0
M  V30 6058 H 582.393 1.62365 2.51551 0
M  V30 6059 H 579.939 0.782125 1.20908 0
M  V30 6060 H 581.892 -0.125665 4.21213 0
M  V30 6061 H 580.616 -0.797971 3.16702 0
M  V30 6062 H 579.275 1.31944 3.42033 0
M  V30 6063 H 578.923 -0.59129 4.99513 0
M  V30 6064 H 578.623 0.971955 5.79506 0
M  V30 6065 H 580.147 0.0926538 6.1053 0
M  V30 6066 H 581.561 2.21232 5.28894 0
M  V30 6067 H 579.958 2.9983 5.19829 0
M  V30 6068 H 581.028 3.03079 3.78512 0
M  V30 6069 N 582.371 -1.3172 0.865308 0
M  V30 6070 C 583.599 -2.01057 0.488251 0
M  V30 6071 C 584.014 -1.64979 -0.918 0
M  V30 6072 O 583.371 -0.876597 -1.60069 0
M  V30 6073 C 583.422 -3.55964 0.630224 0
M  V30 6074 O 583.143 -3.90749 1.98109 0
M  V30 6075 C 584.644 -4.42574 0.253567 0
M  V30 6076 H 581.864 -0.64332 0.190736 0
M  V30 6077 H 584.408 -1.68058 1.16519 0
M  V30 6078 H 582.563 -3.874 0.000895422 0
M  V30 6079 H 582.977 -4.85467 1.9855 0
M  V30 6080 H 584.451 -5.50521 0.403875 0
M  V30 6081 H 584.928 -4.31724 -0.806895 0
M  V30 6082 H 585.534 -4.16547 0.858404 0
M  V30 6083 N 583.85 -0.624285 -1.44708 0
M  V30 6084 C 584.779 0.0717025 -2.3339 0
M  V30 6085 C 585.76 0.841814 -1.47809 0
M  V30 6086 O 586.946 0.809056 -1.76544 0
M  V30 6087 C 584.076 1.05852 -3.30776 0
M  V30 6088 C 583.029 0.400503 -4.26122 0
M  V30 6089 C 582.356 1.49674 -5.13324 0
M  V30 6090 C 583.656 -0.688924 -5.17737 0
M  V30 6091 H 585.35 -0.668819 -2.91834 0
M  V30 6092 H 582.896 -0.32308 -1.40329 0
M  V30 6093 H 584.849 1.5541 -3.91696 0
M  V30 6094 H 583.572 1.82984 -2.70526 0
M  V30 6095 H 582.231 -0.0743687 -3.66525 0
M  V30 6096 H 581.88 2.25877 -4.49431 0
M  V30 6097 H 581.58 1.06188 -5.77926 0
M  V30 6098 H 583.104 1.99427 -5.77115 0
M  V30 6099 H 584.518 -0.276724 -5.72632 0
M  V30 6100 H 582.915 -1.04652 -5.90904 0
M  V30 6101 H 583.985 -1.55884 -4.5916 0
M  V30 6102 N 585.328 1.53329 -0.364422 0
M  V30 6103 C 586.553 2.06132 0.229033 0
M  V30 6104 C 586.978 1.23625 1.41769 0
M  V30 6105 O 586.336 0.255038 1.79497 0
M  V30 6106 C 586.384 3.55544 0.60174 0
M  V30 6107 O 585.488 3.75771 1.69912 0
M  V30 6108 H 584.829 0.663148 0.0336213 0
M  V30 6109 H 587.359 1.97758 -0.524689 0
M  V30 6110 H 587.369 3.98549 0.873073 0
M  V30 6111 H 586.044 4.15039 -0.267421 0
M  V30 6112 H 584.621 3.44663 1.42343 0
M  V30 6113 N 586.806 0.0935595 1.57322 0
M  V30 6114 C 588.054 -0.569383 1.93913 0
M  V30 6115 C 588.375 -1.68817 0.976009 0
M  V30 6116 O 587.645 -1.9588 0.0278099 0
M  V30 6117 H 586.225 -0.21332 0.715894 0
M  V30 6118 H 588.887 0.156531 1.9427 0
M  V30 6119 H 587.983 -0.980577 2.96296 0
M  V30 6120 N 588.284 -1.56567 -0.180126 0
M  V30 6121 C 589.53 -1.81761 -0.899497 0
M  V30 6122 C 589.863 -0.670015 -1.82276 0
M  V30 6123 O 589.138 0.328575 -1.91705 0
M  V30 6124 C 589.421 -3.17296 -1.7028 0
M  V30 6125 C 589.274 -4.4257 -0.803255 0
M  V30 6126 C 590.593 -3.49678 -2.67233 0
M  V30 6127 H 587.712 -0.661192 -0.325567 0
M  V30 6128 H 590.354 -1.89272 -0.16612 0
M  V30 6129 H 588.504 -3.11023 -2.32802 0
M  V30 6130 H 590.176 -4.60902 -0.191585 0
M  V30 6131 H 588.419 -4.33658 -0.110796 0
M  V30 6132 H 589.09 -5.33935 -1.40064 0
M  V30 6133 H 591.566 -3.56347 -2.14839 0
M  V30 6134 H 590.442 -4.45605 -3.20511 0
M  V30 6135 H 590.703 -2.73932 -3.47007 0
M  V30 6136 N 589.762 0.448376 -1.51087 0
M  V30 6137 C 590.695 1.56298 -1.66272 0
M  V30 6138 C 591.673 1.54381 -0.510419 0
M  V30 6139 O 592.857 1.73671 -0.732854 0
M  V30 6140 C 589.984 2.94883 -1.66618 0
M  V30 6141 C 589.03 3.14868 -2.87681 0
M  V30 6142 S 589.863 2.9234 -4.48662 0
M  V30 6143 C 591.019 4.33227 -4.51735 0
M  V30 6144 H 591.252 1.43182 -2.6055 0
M  V30 6145 H 588.785 0.637309 -1.40633 0
M  V30 6146 H 590.743 3.74771 -1.67502 0
M  V30 6147 H 589.404 3.05371 -0.735358 0
M  V30 6148 H 588.597 4.16166 -2.84292 0
M  V30 6149 H 588.199 2.42788 -2.84482 0
M  V30 6150 H 590.491 5.26247 -4.26697 0
M  V30 6151 H 591.434 4.41653 -5.53487 0
M  V30 6152 H 591.842 4.16367 -3.81181 0
M  V30 6153 N 591.24 1.41047 0.703093 0
M  V30 6154 C 592.486 1.40207 1.46526 0
M  V30 6155 C 592.819 0.00847763 1.94198 0
M  V30 6156 O 592.094 -0.962437 1.69019 0
M  V30 6157 C 592.377 2.40238 2.6825 0
M  V30 6158 C 592.23 3.88674 2.26391 0
M  V30 6159 C 593.549 2.37627 3.70434 0
M  V30 6160 H 590.668 0.510594 0.531472 0
M  V30 6161 H 593.31 1.72271 0.801422 0
M  V30 6162 H 591.46 2.13026 3.24888 0
M  V30 6163 H 593.132 4.2676 1.75138 0
M  V30 6164 H 591.375 4.03903 1.58255 0
M  V30 6165 H 592.046 4.542 3.13698 0
M  V30 6166 H 594.522 2.61759 3.23452 0
M  V30 6167 H 593.398 3.09645 4.53223 0
M  V30 6168 H 593.659 1.39223 4.19606 0
M  V30 6169 N 592.718 -0.936591 1.26751 0
M  V30 6170 C 593.943 -1.72288 1.15462 0
M  V30 6171 C 594.368 -1.85915 -0.285887 0
M  V30 6172 O 593.726 -1.35272 -1.20711 0
M  V30 6173 C 593.774 -3.10503 1.83359 0
M  V30 6174 O 592.878 -3.96745 1.1255 0
M  V30 6175 H 592.219 -0.52843 0.402067 0
M  V30 6176 H 594.749 -1.17271 1.67656 0
M  V30 6177 H 594.759 -3.60867 1.90365 0
M  V30 6178 H 593.434 -2.99901 2.88153 0
M  V30 6179 H 592.011 -3.55191 1.13551 0
M  V30 6180 N 594.196 -1.08629 -1.14182 0
M  V30 6181 C 595.445 -0.812271 -1.84621 0
M  V30 6182 C 595.758 0.664313 -1.83973 0
M  V30 6183 O 596.964 1.05357 -2.50224 0
M  V30 6184 C 595.42 -1.4031 -3.31423 0
M  V30 6185 C 595.028 -2.91164 -3.40481 0
M  V30 6186 C 596.772 -1.20767 -4.06959 0
M  V30 6187 C 594.679 -3.43373 -4.81507 0
M  V30 6188 H 593.609 -0.30019 -0.691666 0
M  V30 6189 H 596.26 -1.30798 -1.28701 0
M  V30 6190 H 594.642 -0.835096 -3.87094 0
M  V30 6191 H 595.816 -3.5412 -2.94848 0
M  V30 6192 H 594.131 -3.09646 -2.78403 0
M  V30 6193 H 596.728 -1.57237 -5.11058 0
M  V30 6194 H 597.071 -0.147664 -4.16038 0
M  V30 6195 H 597.604 -1.74274 -3.57594 0
M  V30 6196 H 594.343 -4.48958 -4.77616 0
M  V30 6197 H 593.863 -2.85176 -5.27669 0
M  V30 6198 H 595.542 -3.40095 -5.50404 0
M  V30 6199 N 595.674 1.31259 -0.872281 0
M  V30 6200 C 596.584 2.32221 -0.333255 0
M  V30 6201 C 597.6 1.6481 0.558013 0
M  V30 6202 O 598.776 1.96212 0.454175 0
M  V30 6203 C 595.841 3.43708 0.454479 0
M  V30 6204 C 594.902 4.26774 -0.465024 0
M  V30 6205 C 594.135 5.32937 0.28521 0
M  V30 6206 O 594.358 5.49968 1.513 0
M  V30 6207 O 593.292 6.00834 -0.358126 0
M  V30 6208 H 597.118 2.80252 -1.17016 0
M  V30 6209 H 594.703 1.352 -0.635724 0
M  V30 6210 H 596.585 4.11656 0.900963 0
M  V30 6211 H 595.26 2.97836 1.26789 0
M  V30 6212 H 594.167 3.61571 -0.960055 0
M  V30 6213 H 595.5 4.76217 -1.2441 0
M  V30 6214 N 597.152 0.631951 1.44375 0
M  V30 6215 C 598.062 -0.073674 2.34484 0
M  V30 6216 C 599.078 -0.834825 1.52665 0
M  V30 6217 O 600.254 -0.786902 1.85391 0
M  V30 6218 C 597.319 -1.04247 3.30656 0
M  V30 6219 C 596.38 -0.280602 4.28382 0
M  V30 6220 C 595.613 -1.20325 5.19959 0
M  V30 6221 O 595.836 -2.44199 5.15484 0
M  V30 6222 O 594.77 -0.687128 5.97965 0
M  V30 6223 H 598.596 0.667477 2.96274 0
M  V30 6224 H 596.181 0.392144 1.44162 0
M  V30 6225 H 598.063 -1.59981 3.89851 0
M  V30 6226 H 596.738 -1.76422 2.71398 0
M  V30 6227 H 595.645 0.319804 3.72731 0
M  V30 6228 H 596.978 0.401144 4.90563 0
M  V30 6229 N 598.631 -1.53133 0.372548 0
M  V30 6230 C 600.042 -1.86404 -0.105155 0
M  V30 6231 C 600.393 -1.29289 -1.47576 0
M  V30 6232 O 599.518 -0.617646 -2.07398 0
M  V30 6233 C 600.113 -3.38223 -0.197588 0
M  V30 6234 C 598.672 -3.71266 -0.619556 0
M  V30 6235 C 597.819 -2.76353 0.228919 0
M  V30 6236 H 600.77 -1.47282 0.591077 0
M  V30 6237 H 600.791 -3.66577 -1.01987 0
M  V30 6238 H 600.303 -3.79763 0.800099 0
M  V30 6239 H 598.404 -3.35287 -1.62522 0
M  V30 6240 H 598.517 -4.77515 -0.389332 0
M  V30 6241 H 596.881 -2.52888 -0.303271 0
M  V30 6242 H 597.664 -3.20728 1.22428 0
M  V30 6243 N 600.109 -0.101901 -1.5727 0
M  V30 6244 C 601.357 0.559091 -1.94213 0
M  V30 6245 C 601.678 1.68297 -0.984948 0
M  V30 6246 O 600.948 1.95863 -0.0381975 0
M  V30 6247 H 599.528 0.20952 -0.717015 0
M  V30 6248 H 602.19 -0.166831 -1.94185 0
M  V30 6249 H 601.286 0.96485 -2.96811 0
M  V30 6250 N 601.587 1.56661 0.17182 0
M  V30 6251 C 602.833 1.8313 0.88516 0
M  V30 6252 C 603.188 0.682376 1.79893 0
M  V30 6253 O 602.481 -0.321215 1.88888 0
M  V30 6254 C 602.675 3.13435 1.71736 0
M  V30 6255 C 602.504 4.40892 0.885659 0
M  V30 6256 C 601.274 5.02177 0.560939 0
M  V30 6257 C 603.472 5.13797 0.227454 0
M  V30 6258 N 601.454 6.13229 -0.286953 0
M  V30 6259 C 602.825 6.18127 -0.481625 0
M  V30 6260 C 604.88 4.97687 0.145567 0
M  V30 6261 C 603.583 7.08092 -1.26482 0
M  V30 6262 C 605.609 5.88096 -0.624298 0
M  V30 6263 C 604.971 6.91888 -1.32174 0
M  V30 6264 H 601.07 0.721107 0.302536 0
M  V30 6265 H 603.654 1.94104 0.152178 0
M  V30 6266 H 601.825 3.03653 2.42176 0
M  V30 6267 H 603.557 3.27903 2.37196 0
M  V30 6268 H 600.312 4.65145 0.890902 0
M  V30 6269 H 600.736 6.73359 -0.701193 0
M  V30 6270 H 605.378 4.17451 0.670426 0
M  V30 6271 H 603.096 7.87774 -1.80103 0
M  V30 6272 H 606.682 5.77702 -0.689321 0
M  V30 6273 H 605.562 7.60637 -1.90791 0
M  V30 6274 N 603.065 -0.440357 1.51323 0
M  V30 6275 C 604.295 -1.21079 1.67402 0
M  V30 6276 C 604.703 -1.85555 0.369599 0
M  V30 6277 O 604.046 -1.71375 -0.661525 0
M  V30 6278 C 604.108 -2.33839 2.73056 0
M  V30 6279 C 603.772 -1.89755 4.15743 0
M  V30 6280 C 604.769 -1.40268 5.0062 0
M  V30 6281 C 602.454 -1.97539 4.61826 0
M  V30 6282 C 604.448 -0.991474 6.29642 0
M  V30 6283 C 602.135 -1.56029 5.90845 0
M  V30 6284 C 603.133 -1.06915 6.7458 0
M  V30 6285 O 602.821 -0.659933 8.01187 0
M  V30 6286 H 602.553 -0.371133 0.56501 0
M  V30 6287 H 605.107 -0.528409 1.98487 0
M  V30 6288 H 603.337 -3.05345 2.37279 0
M  V30 6289 H 605.026 -2.95713 2.78044 0
M  V30 6290 H 605.792 -1.33652 4.66221 0
M  V30 6291 H 601.671 -2.34713 3.96776 0
M  V30 6292 H 605.215 -0.607425 6.9495 0
M  V30 6293 H 601.112 -1.62315 6.24759 0
M  V30 6294 H 601.88 -0.786052 8.14717 0
M  V30 6295 N 604.543 -1.41418 -0.695603 0
M  V30 6296 C 605.768 -1.44329 -1.48942 0
M  V30 6297 C 606.193 -0.0501579 -1.88033 0
M  V30 6298 O 605.551 0.946598 -1.54626 0
M  V30 6299 C 605.599 -2.3578 -2.72837 0
M  V30 6300 O 604.703 -1.81482 -3.70322 0
M  V30 6301 H 604.044 -0.489838 -0.44828 0
M  V30 6302 H 606.574 -1.85878 -0.855014 0
M  V30 6303 H 606.584 -2.51654 -3.21145 0
M  V30 6304 H 605.259 -3.37005 -2.43722 0
M  V30 6305 H 603.836 -1.75058 -3.29255 0
M  V30 6306 N 606.021 0.929856 -1.27246 0
M  V30 6307 C 607.268 1.67731 -1.13457 0
M  V30 6308 C 607.596 1.9185 0.319998 0
M  V30 6309 O 606.851 1.50524 1.25064 0
M  V30 6310 C 607.15 3.05116 -1.86115 0
M  V30 6311 C 606.816 3.00715 -3.35978 0
M  V30 6312 C 605.478 2.99222 -3.76855 0
M  V30 6313 C 607.83 2.92168 -4.3161 0
M  V30 6314 C 605.158 2.86962 -5.11732 0
M  V30 6315 C 607.51 2.81449 -5.66542 0
M  V30 6316 C 606.174 2.78305 -6.06715 0
M  V30 6317 H 605.444 0.613772 -0.415168 0
M  V30 6318 H 608.091 1.08456 -1.57827 0
M  V30 6319 H 606.396 3.68083 -1.34246 0
M  V30 6320 H 608.093 3.61822 -1.72876 0
M  V30 6321 H 604.683 3.02664 -3.03468 0
M  V30 6322 H 608.867 2.92421 -4.01003 0
M  V30 6323 H 604.123 2.82913 -5.42006 0
M  V30 6324 H 608.297 2.738 -6.40317 0
M  V30 6325 H 605.924 2.68561 -7.11181 0
M  V30 6326 N 607.499 1.09233 1.13605 0
M  V30 6327 C 608.747 0.825525 1.84471 0
M  V30 6328 C 609.068 -0.650702 1.83823 0
M  V30 6329 O 608.338 -1.47204 1.29259 0
M  V30 6330 H 606.918 0.3024 0.683054 0
M  V30 6331 H 609.58 1.38006 1.37624 0
M  V30 6332 H 608.676 1.17727 2.89045 0
M  V30 6333 N 608.977 -1.30795 0.87923 0
M  V30 6334 C 610.224 -1.96362 0.494786 0
M  V30 6335 C 610.552 -1.69448 -0.954868 0
M  V30 6336 O 609.807 -0.988711 -1.68888 0
M  V30 6337 C 610.106 -3.50287 0.709476 0
M  V30 6338 C 609.772 -3.9724 2.13333 0
M  V30 6339 C 608.434 -4.09772 2.52271 0
M  V30 6340 C 610.786 -4.21807 3.06151 0
M  V30 6341 C 608.114 -4.44227 3.83248 0
M  V30 6342 C 610.466 -4.5773 4.36654 0
M  V30 6343 C 609.13 -4.68469 4.75492 0
M  V30 6344 H 608.4 -0.71854 0.181055 0
M  V30 6345 H 611.047 -1.55764 1.11399 0
M  V30 6346 H 609.352 -3.91799 0.0072 0
M  V30 6347 H 611.049 -3.99082 0.391703 0
M  V30 6348 H 607.639 -3.87988 1.82107 0
M  V30 6349 H 611.823 -4.11611 2.77291 0
M  V30 6350 H 607.079 -4.50741 4.13089 0
M  V30 6351 H 611.253 -4.7569 5.08617 0
M  V30 6352 H 608.88 -4.94923 5.77022 0
M  V30 6353 N 610.455 -0.639598 -1.44038 0
M  V30 6354 C 611.365 0.0612377 -2.3452 0
M  V30 6355 C 612.381 0.826717 -1.53106 0
M  V30 6356 O 613.557 0.777059 -1.85806 0
M  V30 6357 C 610.622 1.02492 -3.31204 0
M  V30 6358 C 609.683 0.25788 -4.28525 0
M  V30 6359 C 608.916 1.17566 -5.2059 0
M  V30 6360 O 609.139 2.41461 -5.16771 0
M  V30 6361 O 608.073 0.655407 -5.98321 0
M  V30 6362 H 611.899 -0.68318 -2.95916 0
M  V30 6363 H 609.484 -0.399784 -1.43952 0
M  V30 6364 H 611.366 1.57911 -3.90694 0
M  V30 6365 H 610.041 1.7498 -2.7233 0
M  V30 6366 H 608.948 -0.339566 -3.72556 0
M  V30 6367 H 610.281 -0.427154 -4.90343 0
M  V30 6368 N 611.933 1.52934 -0.380664 0
M  V30 6369 C 613.182 2.00651 0.205477 0
M  V30 6370 C 613.495 1.27164 1.48623 0
M  V30 6371 O 614.701 1.65547 2.15189 0
M  V30 6372 C 613.157 3.57479 0.416726 0
M  V30 6373 C 612.765 4.39857 -0.850268 0
M  V30 6374 C 614.509 4.13509 0.959702 0
M  V30 6375 C 612.416 5.88269 -0.607773 0
M  V30 6376 H 611.346 0.749684 0.0805614 0
M  V30 6377 H 613.997 1.76508 -0.501732 0
M  V30 6378 H 612.379 3.77836 1.18557 0
M  V30 6379 H 613.553 4.31269 -1.62307 0
M  V30 6380 H 611.868 3.95005 -1.31756 0
M  V30 6381 H 614.465 5.22039 1.15669 0
M  V30 6382 H 614.808 3.69054 1.92626 0
M  V30 6383 H 615.341 3.9701 0.250645 0
M  V30 6384 H 612.08 6.3703 -1.54509 0
M  V30 6385 H 611.6 5.99667 0.126247 0
M  V30 6386 H 613.279 6.46558 -0.239014 0
M  V30 6387 N 613.412 0.11024 1.57214 0
M  V30 6388 C 614.359 -0.843195 2.14846 0
M  V30 6389 C 615.329 -1.26954 1.07107 0
M  V30 6390 O 616.514 -1.34861 1.34971 0
M  V30 6391 C 613.654 -2.09123 2.74521 0
M  V30 6392 C 612.767 -1.71404 3.96541 0
M  V30 6393 C 611.902 -2.91107 4.44331 0
M  V30 6394 C 610.941 -2.49586 5.58903 0
M  V30 6395 N 610.078 -3.62175 6.01477 0
M  V30 6396 H 614.918 -0.344886 2.95998 0
M  V30 6397 H 612.455 -0.15855 1.46243 0
M  V30 6398 H 614.413 -2.82234 3.07246 0
M  V30 6399 H 613.043 -2.56427 1.96074 0
M  V30 6400 H 612.095 -0.88201 3.70033 0
M  V30 6401 H 613.407 -1.36884 4.7965 0
M  V30 6402 H 612.561 -3.72454 4.78919 0
M  V30 6403 H 611.3 -3.28848 3.60153 0
M  V30 6404 H 610.305 -1.6667 5.23929 0
M  V30 6405 H 611.53 -2.12973 6.4484 0
M  V30 6406 H 609.476 -3.99605 5.20242 0
M  V30 6407 H 609.393 -3.3155 6.79419 0
M  V30 6408 H 610.661 -4.43987 6.407 0
M  V30 6409 N 614.89 -1.56749 -0.16351 0
M  V30 6410 C 616.167 -1.73321 -0.906599 0
M  V30 6411 C 616.547 -0.673779 -2.00059 0
M  V30 6412 O 615.895 0.310121 -2.26386 0
M  V30 6413 C 616.105 -3.168 -1.46419 0
M  V30 6414 C 617.453 -3.77993 -1.93407 0
M  V30 6415 O 618.477 -3.20127 -1.56196 0
M  V30 6416 O 617.336 -4.79615 -2.61976 0
M  V30 6417 H 614.43 -0.708073 -0.427272 0
M  V30 6418 H 616.976 -1.69029 -0.150727 0
M  V30 6419 H 615.748 -3.85396 -0.677189 0
M  V30 6420 H 615.371 -3.2545 -2.28403 0
M  V30 6421 N 616.368 0.432326 -1.51554 0
M  V30 6422 C 617.315 1.52512 -1.7323 0
M  V30 6423 C 618.285 1.55863 -0.5741 0
M  V30 6424 O 619.47 1.72796 -0.809093 0
M  V30 6425 C 616.61 2.90183 -1.86783 0
M  V30 6426 C 615.723 2.96322 -3.14352 0
M  V30 6427 C 614.858 4.25147 -3.18471 0
M  V30 6428 C 613.897 4.25172 -4.40335 0
M  V30 6429 N 613.034 5.45529 -4.41975 0
M  V30 6430 H 617.874 1.33332 -2.66508 0
M  V30 6431 H 615.411 0.647613 -1.32077 0
M  V30 6432 H 617.369 3.70071 -1.92623 0
M  V30 6433 H 615.999 3.0791 -0.969087 0
M  V30 6434 H 615.051 2.09066 -3.17798 0
M  V30 6435 H 616.363 2.92203 -4.04251 0
M  V30 6436 H 615.517 5.13411 -3.23255 0
M  V30 6437 H 614.256 4.31929 -2.2647 0
M  V30 6438 H 613.261 3.353 -4.35723 0
M  V30 6439 H 614.486 4.20049 -5.33606 0
M  V30 6440 H 612.432 5.53024 -3.52847 0
M  V30 6441 H 612.349 5.43311 -5.25689 0
M  V30 6442 H 613.617 6.35812 -4.50958 0
M  V30 6443 N 617.846 1.41785 0.688094 0
M  V30 6444 C 618.793 1.44221 1.80191 0
M  V30 6445 C 619.763 0.295688 1.63447 0
M  V30 6446 O 620.948 0.49783 1.84191 0
M  V30 6447 C 618.088 1.33743 3.1813 0
M  V30 6448 C 617.201 2.58325 3.46254 0
M  V30 6449 C 616.336 2.40086 4.73848 0
M  V30 6450 C 615.375 3.60107 4.94964 0
M  V30 6451 N 614.512 3.40892 6.13789 0
M  V30 6452 H 619.352 2.39411 1.77444 0
M  V30 6453 H 616.889 1.18876 0.866423 0
M  V30 6454 H 618.847 1.25669 3.97823 0
M  V30 6455 H 617.477 0.42157 3.20035 0
M  V30 6456 H 616.529 2.7682 2.60912 0
M  V30 6457 H 617.841 3.4758 3.57756 0
M  V30 6458 H 616.995 2.29522 5.61609 0
M  V30 6459 H 615.734 1.483 4.64606 0
M  V30 6460 H 614.739 3.71118 4.05649 0
M  V30 6461 H 615.964 4.52857 5.06061 0
M  V30 6462 H 613.91 2.51812 6.05745 0
M  V30 6463 H 613.827 4.23727 6.26092 0
M  V30 6464 H 615.095 3.34114 7.04264 0
M  V30 6465 N 619.324 -0.923095 1.27737 0
M  V30 6466 C 620.564 -1.6858 1.15586 0
M  V30 6467 C 620.928 -1.89758 -0.292562 0
M  V30 6468 O 622.129 -2.6339 -0.536583 0
M  V30 6469 C 620.4 -3.01275 1.92271 0
M  V30 6470 S 621.959 -3.924 1.96387 0
M  V30 6471 H 618.777 -0.579069 0.412554 0
M  V30 6472 H 621.379 -1.09866 1.61709 0
M  V30 6473 H 620.083 -2.83556 2.96689 0
M  V30 6474 H 619.614 -3.6504 1.46661 0
M  V30 6475 H 621.629 -4.84667 1.06361 0
M  V30 6476 N 620.802 -1.09834 -1.13024 0
M  V30 6477 C 622.079 -0.749225 -1.80682 0
M  V30 6478 C 622.459 0.765171 -1.96744 0
M  V30 6479 O 621.807 1.68912 -1.53886 0
M  V30 6480 C 622.017 -1.49311 -3.15448 0
M  V30 6481 C 623.365 -1.66162 -3.90737 0
M  V30 6482 O 624.389 -1.45597 -3.25085 0
M  V30 6483 O 623.248 -2.00211 -5.08505 0
M  V30 6484 H 620.342 -0.269614 -0.781817 0
M  V30 6485 H 622.888 -1.20078 -1.19914 0
M  V30 6486 H 621.66 -2.52407 -2.99009 0
M  V30 6487 H 621.283 -1.034 -3.8392 0
M  V30 6488 N 622.28 1.30327 -0.886154 0
M  V30 6489 C 623.526 1.96388 -0.505941 0
M  V30 6490 C 623.859 1.69784 0.942712 0
M  V30 6491 O 623.134 1.00322 1.6663 0
M  V30 6492 C 623.417 3.51488 -0.782826 0
M  V30 6493 C 623.27 3.87603 -2.28219 0
M  V30 6494 C 624.589 4.39331 -0.260128 0
M  V30 6495 H 621.708 0.713327 -0.185292 0
M  V30 6496 H 624.35 1.54178 -1.11036 0
M  V30 6497 H 622.5 3.87572 -0.268399 0
M  V30 6498 H 624.172 3.61537 -2.86512 0
M  V30 6499 H 622.415 3.3563 -2.74837 0
M  V30 6500 H 623.086 4.95806 -2.42653 0
M  V30 6501 H 625.562 4.10162 -0.700444 0
M  V30 6502 H 624.438 5.46769 -0.483179 0
M  V30 6503 H 624.699 4.34072 0.838674 0
M  V30 6504 N 623.758 0.647228 1.43697 0
M  V30 6505 C 625.169 0.238689 1.85168 0
M  V30 6506 C 625.52 -1.21345 1.54175 0
M  V30 6507 O 624.645 -1.92542 0.987743 0
M  V30 6508 C 625.24 0.426422 3.36106 0
M  V30 6509 C 623.799 0.0722541 3.76331 0
M  V30 6510 C 622.946 0.732153 2.6746 0
M  V30 6511 H 625.897 0.851309 1.33934 0
M  V30 6512 H 625.918 -0.32987 3.79067 0
M  V30 6513 H 625.43 1.48339 3.58632 0
M  V30 6514 H 623.531 -0.982355 3.59417 0
M  V30 6515 H 623.644 0.493541 4.76551 0
M  V30 6516 H 622.008 0.16594 2.54159 0
M  V30 6517 H 622.791 1.79204 2.92816 0
M  V30 6518 N 625.236 -1.5273 0.388769 0
M  V30 6519 C 626.476 -2.03483 -0.193372 0
M  V30 6520 C 626.84 -1.26897 -1.44087 0
M  V30 6521 O 628.041 -1.67773 -2.10014 0
M  V30 6522 C 626.312 -3.54488 -0.455325 0
M  V30 6523 S 627.871 -4.27069 -1.00783 0
M  V30 6524 H 624.689 -0.708907 -0.0545131 0
M  V30 6525 H 627.291 -1.8798 0.536993 0
M  V30 6526 H 625.995 -4.07817 0.459722 0
M  V30 6527 H 625.526 -3.74196 -1.21413 0
M  V30 6528 H 627.541 -4.40185 -2.29023 0
M  V30 6529 N 626.714 -0.118576 -1.57153 0
M  V30 6530 C 627.963 0.539339 -1.94355 0
M  V30 6531 C 628.276 1.67858 -1.00415 0
M  V30 6532 O 629.482 2.39922 -1.27081 0
M  V30 6533 C 627.938 1.01082 -3.45414 0
M  V30 6534 C 627.546 -0.0999402 -4.47889 0
M  V30 6535 C 629.29 1.64013 -3.91535 0
M  V30 6536 C 627.197 0.388212 -5.90124 0
M  V30 6537 H 626.127 0.205247 -0.725527 0
M  V30 6538 H 628.778 -0.19836 -1.82425 0
M  V30 6539 H 627.16 1.80292 -3.52577 0
M  V30 6540 H 628.334 -0.876189 -4.52393 0
M  V30 6541 H 626.649 -0.635885 -4.11516 0
M  V30 6542 H 629.246 2.01649 -4.95219 0
M  V30 6543 H 629.589 2.51836 -3.31488 0
M  V30 6544 H 630.122 0.913439 -3.87171 0
M  V30 6545 H 626.861 -0.453963 -6.53926 0
M  V30 6546 H 626.381 1.13095 -5.89041 0
M  V30 6547 H 628.06 0.849574 -6.41398 0
M  V30 6548 N 628.193 1.56834 0.155195 0
M  V30 6549 C 629.441 1.82536 0.867462 0
M  V30 6550 C 629.762 0.698168 1.82073 0
M  V30 6551 O 629.032 -0.280807 1.93877 0
M  V30 6552 H 627.612 0.673401 0.323327 0
M  V30 6553 H 630.274 1.94313 0.151156 0
M  V30 6554 H 629.37 2.77171 1.43466 0
M  V30 6555 N 629.671 -0.424282 1.51781 0
M  V30 6556 C 630.92 -1.16961 1.64326 0
M  V30 6557 C 631.233 -1.92035 0.371749 0
M  V30 6558 O 632.439 -2.68873 0.37676 0
M  V30 6559 C 630.895 -2.12782 2.90262 0
M  V30 6560 C 630.503 -1.43295 4.24465 0
M  V30 6561 C 632.247 -2.87667 3.12166 0
M  V30 6562 C 630.154 -2.37676 5.41538 0
M  V30 6563 H 629.084 -0.440293 0.612093 0
M  V30 6564 H 631.735 -0.435431 1.78259 0
M  V30 6565 H 630.117 -2.8969 2.69992 0
M  V30 6566 H 631.291 -0.718564 4.55163 0
M  V30 6567 H 629.606 -0.805118 4.08542 0
M  V30 6568 H 632.203 -3.58395 3.96808 0
M  V30 6569 H 632.546 -3.49758 2.25776 0
M  V30 6570 H 633.079 -2.17863 3.32837 0
M  V30 6571 H 629.818 -1.80255 6.30229 0
M  V30 6572 H 629.338 -3.07132 5.15199 0
M  V30 6573 H 631.017 -2.98529 5.74012 0
M  V30 6574 N 631.149 -1.42148 -0.680565 0
M  V30 6575 C 632.059 -1.47565 -1.82378 0
M  V30 6576 C 633.075 -0.36489 -1.70131 0
M  V30 6577 O 634.251 -0.614916 -1.91783 0
M  V30 6578 C 631.316 -1.37013 -3.18478 0
M  V30 6579 C 630.377 -2.58532 -3.42724 0
M  V30 6580 C 629.61 -2.48473 -4.72331 0
M  V30 6581 O 629.833 -1.51745 -5.49845 0
M  V30 6582 O 628.767 -3.38503 -4.97694 0
M  V30 6583 H 632.593 -2.44045 -1.80764 0
M  V30 6584 H 630.178 -1.23849 -0.835569 0
M  V30 6585 H 632.06 -1.33468 -3.99705 0
M  V30 6586 H 630.735 -0.436552 -3.20743 0
M  V30 6587 H 629.642 -2.67652 -2.61368 0
M  V30 6588 H 630.975 -3.50769 -3.45286 0
M  V30 6589 N 632.627 0.916307 -1.28225 0
M  V30 6590 C 633.56 2.01954 -1.06254 0
M  V30 6591 C 634.538 1.62587 0.0205983 0
M  V30 6592 O 635.722 1.88073 -0.126824 0
M  V30 6593 C 632.849 3.33086 -0.614141 0
M  V30 6594 C 631.895 3.91435 -1.69354 0
M  V30 6595 S 632.728 4.22603 -3.28887 0
M  V30 6596 C 633.884 5.568 -2.85876 0
M  V30 6597 H 634.117 2.20281 -1.99659 0
M  V30 6598 H 631.65 1.06085 -1.12184 0
M  V30 6599 H 633.608 4.089 -0.36213 0
M  V30 6600 H 632.269 3.12664 0.300036 0
M  V30 6601 H 631.462 4.86098 -1.33136 0
M  V30 6602 H 631.064 3.22248 -1.89821 0
M  V30 6603 H 633.356 6.3658 -2.31888 0
M  V30 6604 H 634.299 5.97927 -3.79326 0
M  V30 6605 H 634.707 5.17865 -2.24669 0
M  V30 6606 N 634.105 1.10431 1.1244 0
M  V30 6607 C 635.351 0.847972 1.84221 0
M  V30 6608 C 635.684 -0.624903 1.83871 0
M  V30 6609 O 634.959 -1.46074 1.28423 0
M  V30 6610 C 635.242 1.39695 3.319 0
M  V30 6611 C 635.095 2.93668 3.40704 0
M  V30 6612 C 636.414 1.03924 4.27654 0
M  V30 6613 H 633.533 0.309502 0.668863 0
M  V30 6614 H 636.175 1.36745 1.31912 0
M  V30 6615 H 634.325 0.955095 3.76577 0
M  V30 6616 H 635.997 3.46379 3.04662 0
M  V30 6617 H 634.24 3.30272 2.81252 0
M  V30 6618 H 634.911 3.27162 4.446 0
M  V30 6619 H 637.387 1.42049 3.91102 0
M  V30 6620 H 636.263 1.45027 5.29394 0
M  V30 6621 H 636.524 -0.051336 4.4207 0
M  V30 6622 N 635.583 -1.29855 0.893053 0
M  V30 6623 C 636.533 -2.25493 0.337211 0
M  V30 6624 C 637.517 -1.51606 -0.53894 0
M  V30 6625 O 638.709 -1.72828 -0.382043 0
M  V30 6626 C 635.838 -3.40467 -0.440117 0
M  V30 6627 C 634.924 -4.217 0.450578 0
M  V30 6628 N 635.315 -4.81312 1.55476 0
M  V30 6629 C 633.613 -4.45315 0.247154 0
M  V30 6630 C 634.314 -5.42241 2.10593 0
M  V30 6631 N 633.29 -5.25267 1.39982 0
M  V30 6632 H 637.092 -2.69137 1.18079 0
M  V30 6633 H 634.606 -1.44388 0.743359 0
M  V30 6634 H 636.603 -4.08038 -0.855021 0
M  V30 6635 H 635.263 -2.98361 -1.28104 0
M  V30 6636 H 636.274 -4.80291 1.93755 0
M  V30 6637 H 632.951 -4.13782 -0.555939 0
M  V30 6638 H 634.341 -5.99517 3.03362 0
M  V30 6639 N 637.061 -0.65484 -1.43351 0
M  V30 6640 C 638.338 -0.0987371 -1.95351 0
M  V30 6641 C 638.718 1.38161 -1.59608 0
M  V30 6642 O 638.066 2.10791 -0.882021 0
M  V30 6643 C 638.276 -0.346684 -3.47274 0
M  V30 6644 C 639.624 -0.25249 -4.23849 0
M  V30 6645 O 640.648 -0.279332 -3.55103 0
M  V30 6646 O 639.507 -0.177584 -5.46211 0
M  V30 6647 H 636.601 0.0086829 -0.826954 0
M  V30 6648 H 639.147 -0.728189 -1.53282 0
M  V30 6649 H 637.919 -1.37296 -3.66423 0
M  V30 6650 H 637.542 0.315757 -3.96344 0
M  V30 6651 N 638.539 1.52521 -0.396863 0
M  V30 6652 C 639.787 2.01274 0.182536 0
M  V30 6653 C 640.108 1.28485 1.46685 0
M  V30 6654 O 639.378 0.407134 1.91623 0
M  V30 6655 H 637.958 0.743671 0.0704442 0
M  V30 6656 H 640.62 1.87547 -0.530289 0
M  V30 6657 H 639.716 3.09687 0.387385 0
M  V30 6658 N 640.017 0.126909 1.57088 0
M  V30 6659 C 641.265 -0.528123 1.95078 0
M  V30 6660 C 641.586 -1.66708 1.0116 0
M  V30 6661 O 640.856 -1.95777 0.0693527 0
M  V30 6662 H 639.436 -0.198087 0.720257 0
M  V30 6663 H 642.098 0.197703 1.93895 0
M  V30 6664 H 641.194 -0.917507 2.98309 0
M  V30 6665 N 641.495 -1.56914 -0.146875 0
M  V30 6666 C 642.442 -1.98275 -1.18134 0
M  V30 6667 C 643.412 -0.850367 -1.42681 0
M  V30 6668 O 644.597 -1.11244 -1.55014 0
M  V30 6669 C 641.737 -2.36861 -2.5098 0
M  V30 6670 C 640.85 -3.63391 -2.33605 0
M  V30 6671 C 639.985 -3.91079 -3.59486 0
M  V30 6672 C 639.024 -5.10879 -3.37149 0
M  V30 6673 N 638.161 -5.34577 -4.55161 0
M  V30 6674 H 643.001 -2.8645 -0.821622 0
M  V30 6675 H 640.538 -1.41718 -0.394248 0
M  V30 6676 H 642.496 -2.57262 -3.28439 0
M  V30 6677 H 641.126 -1.51766 -2.84898 0
M  V30 6678 H 640.178 -3.50766 -1.47199 0
M  V30 6679 H 641.49 -4.51007 -2.13059 0
M  V30 6680 H 640.644 -4.11979 -4.45374 0
M  V30 6681 H 639.383 -3.01885 -3.83036 0
M  V30 6682 H 638.388 -4.89853 -2.49649 0
M  V30 6683 H 639.613 -6.01626 -3.14997 0
M  V30 6684 H 637.559 -4.48337 -4.78884 0
M  V30 6685 H 637.476 -6.16463 -4.37618 0
M  V30 6686 H 638.744 -5.59975 -5.42263 0
M  V30 6687 N 642.974 0.416227 -1.52004 0
M  V30 6688 C 644.251 1.17637 -1.56272 0
M  V30 6689 C 644.631 2.08352 -0.339493 0
M  V30 6690 O 643.979 2.1833 0.674124 0
M  V30 6691 C 644.189 1.95986 -2.88774 0
M  V30 6692 C 645.537 2.52299 -3.41512 0
M  V30 6693 O 646.561 2.06174 -2.90467 0
M  V30 6694 O 645.42 3.3648 -4.30631 0
M  V30 6695 H 642.514 0.536726 -0.629169 0
M  V30 6696 H 645.06 0.423583 -1.64329 0
M  V30 6697 H 643.832 1.29487 -3.69254 0
M  V30 6698 H 643.455 2.78285 -2.83978 0
M  V30 6699 N 644.452 1.42507 0.673017 0
M  V30 6700 C 645.68 1.46473 1.46128 0
M  V30 6701 C 646.095 0.0765912 1.88645 0
M  V30 6702 O 645.452 -0.909057 1.58248 0
M  V30 6703 C 645.503 2.39339 2.70923 0
M  V30 6704 O 645.224 3.72752 2.3019 0
M  V30 6705 C 646.725 2.52343 3.64469 0
M  V30 6706 H 643.945 0.49812 0.449575 0
M  V30 6707 H 646.489 1.87041 0.826802 0
M  V30 6708 H 644.644 2.02019 3.30556 0
M  V30 6709 H 645.058 4.22503 3.10791 0
M  V30 6710 H 646.532 3.2144 4.48754 0
M  V30 6711 H 647.009 1.56189 4.1049 0
M  V30 6712 H 647.615 2.90392 3.10729 0
M  V30 6713 N 645.93 -0.909495 1.28709 0
M  V30 6714 C 647.176 -1.66175 1.17293 0
M  V30 6715 C 647.531 -1.90426 -0.274891 0
M  V30 6716 O 646.824 -1.49659 -1.19635 0
M  V30 6717 C 647.018 -3.02117 1.90945 0
M  V30 6718 C 646.847 -2.91134 3.42741 0
M  V30 6719 C 645.617 -2.92429 4.12085 0
M  V30 6720 C 647.815 -2.68889 4.3841 0
M  V30 6721 N 645.797 -2.72078 5.50315 0
M  V30 6722 C 647.168 -2.57423 5.64033 0
M  V30 6723 C 649.223 -2.53919 4.28287 0
M  V30 6724 C 647.926 -2.32513 6.80683 0
M  V30 6725 C 649.952 -2.3039 5.44678 0
M  V30 6726 C 649.314 -2.19682 6.69268 0
M  V30 6727 H 645.413 -0.614095 0.48416 0
M  V30 6728 H 647.997 -1.07377 1.62414 0
M  V30 6729 H 646.168 -3.58993 1.48252 0
M  V30 6730 H 647.9 -3.66388 1.71878 0
M  V30 6731 H 644.655 -3.03345 3.63701 0
M  V30 6732 H 645.079 -2.64983 6.22987 0
M  V30 6733 H 649.721 -2.60946 3.32666 0
M  V30 6734 H 647.439 -2.24225 7.76369 0
M  V30 6735 H 651.025 -2.19665 5.38738 0
M  V30 6736 H 649.905 -2.01725 7.5781 0
M  V30 6737 N 647.408 -1.11026 -1.11852 0
M  V30 6738 C 648.358 -0.733836 -2.15868 0
M  V30 6739 C 649.342 0.26001 -1.58785 0
M  V30 6740 O 650.534 0.0677901 -1.7687 0
M  V30 6741 C 647.663 -0.173948 -3.42859 0
M  V30 6742 C 646.749 -1.1952 -4.0691 0
M  V30 6743 N 647.14 -2.38797 -4.45881 0
M  V30 6744 C 645.438 -1.03714 -4.33773 0
M  V30 6745 C 646.139 -3.03894 -4.96007 0
M  V30 6746 N 645.115 -2.31389 -4.91894 0
M  V30 6747 H 648.917 -1.64171 -2.43773 0
M  V30 6748 H 646.431 -0.988877 -1.28822 0
M  V30 6749 H 648.428 0.113836 -4.16745 0
M  V30 6750 H 647.088 0.728568 -3.16421 0
M  V30 6751 H 648.099 -2.76281 -4.38051 0
M  V30 6752 H 644.776 -0.190694 -4.17064 0
M  V30 6753 H 646.166 -4.05389 -5.35826 0
M  V30 6754 N 648.886 1.2938 -0.899927 0
M  V30 6755 C 650.111 2.00228 -0.540692 0
M  V30 6756 C 650.536 1.66909 0.867359 0
M  V30 6757 O 649.894 0.893824 1.57735 0
M  V30 6758 C 649.942 3.52921 -0.740232 0
M  V30 6759 O 649.046 4.11879 0.207154 0
M  V30 6760 H 648.387 0.629505 -0.211233 0
M  V30 6761 H 650.917 1.6487 -1.21158 0
M  V30 6762 H 650.927 4.0287 -0.644973 0
M  V30 6763 H 649.602 3.76508 -1.76677 0
M  V30 6764 H 648.179 3.72845 0.0643315 0
M  V30 6765 N 650.364 0.662433 1.43002 0
M  V30 6766 C 651.327 -0.0142016 2.29196 0
M  V30 6767 C 652.327 -0.741394 1.42688 0
M  V30 6768 O 653.517 -0.581257 1.64216 0
M  V30 6769 C 650.649 -1.03084 3.24941 0
M  V30 6770 H 651.842 0.7443 2.90517 0
M  V30 6771 H 649.395 0.424133 1.50435 0
M  V30 6772 H 650.13 -1.81826 2.68533 0
M  V30 6773 H 649.915 -0.512946 3.8873 0
M  V30 6774 H 651.405 -1.50308 3.89612 0
M  V30 6775 N 651.842 -1.52309 0.404946 0
M  V30 6776 C 652.805 -2.25491 -0.410651 0
M  V30 6777 C 653.805 -1.27704 -0.977154 0
M  V30 6778 O 654.995 -1.51679 -0.856691 0
M  V30 6779 C 652.127 -3.02197 -1.57765 0
M  V30 6780 H 653.32 -2.99015 0.230277 0
M  V30 6781 H 650.873 -1.55506 0.157377 0
M  V30 6782 H 651.608 -2.33013 -2.25556 0
M  V30 6783 H 651.393 -3.73987 -1.17797 0
M  V30 6784 H 652.883 -3.57719 -2.15469 0
M  V30 6785 N 653.32 -0.135238 -1.57019 0
M  V30 6786 C 654.548 0.526066 -2.001 0
M  V30 6787 C 654.963 1.59184 -1.01519 0
M  V30 6788 O 654.32 1.82497 -0.0104258 0
M  V30 6789 C 654.371 1.13744 -3.43139 0
M  V30 6790 O 654.092 0.114259 -4.37951 0
M  V30 6791 C 655.593 1.8805 -4.01438 0
M  V30 6792 H 652.813 0.137962 -0.656664 0
M  V30 6793 H 655.357 -0.226359 -2.03243 0
M  V30 6794 H 653.512 1.84056 -3.40885 0
M  V30 6795 H 653.926 0.56058 -5.21496 0
M  V30 6796 H 655.4 2.26133 -5.03555 0
M  V30 6797 H 655.877 2.76194 -3.41487 0
M  V30 6798 H 656.483 1.22464 -4.07287 0
M  V30 6799 N 654.798 1.5699 0.138552 0
M  V30 6800 C 655.761 1.97984 1.15478 0
M  V30 6801 C 656.761 0.867416 1.35398 0
M  V30 6802 O 657.951 1.13387 1.32246 0
M  V30 6803 C 655.083 2.3031 2.51337 0
M  V30 6804 H 656.276 2.88953 0.802896 0
M  V30 6805 H 653.829 1.51555 0.382189 0
M  V30 6806 H 654.564 1.42159 2.91481 0
M  V30 6807 H 654.349 3.11425 2.38237 0
M  V30 6808 H 655.839 2.62834 3.24512 0
M  V30 6809 N 656.276 -0.40816 1.52223 0
M  V30 6810 C 657.525 -1.15212 1.65557 0
M  V30 6811 C 657.838 -1.9163 0.392096 0
M  V30 6812 O 659.044 -2.68458 0.405256 0
M  V30 6813 C 657.5 -2.09691 2.92502 0
M  V30 6814 C 657.108 -1.38785 4.25961 0
M  V30 6815 C 658.852 -2.8434 3.152 0
M  V30 6816 C 656.759 -2.31919 5.44029 0
M  V30 6817 H 655.689 -0.433776 0.616729 0
M  V30 6818 H 658.34 -0.4165 1.78711 0
M  V30 6819 H 656.722 -2.8681 2.7305 0
M  V30 6820 H 657.896 -0.670248 4.55899 0
M  V30 6821 H 656.211 -0.761741 4.09373 0
M  V30 6822 H 658.808 -3.54166 4.00587 0
M  V30 6823 H 659.151 -3.47344 2.29473 0
M  V30 6824 H 659.684 -2.14321 3.35129 0
M  V30 6825 H 656.423 -1.7356 6.32105 0
M  V30 6826 H 655.943 -3.0165 5.18428 0
M  V30 6827 H 657.622 -2.92424 5.77146 0
M  V30 6828 N 657.755 -1.42862 -0.66545 0
M  V30 6829 C 658.985 -1.47032 -1.45138 0
M  V30 6830 C 659.393 -0.0829977 -1.89018 0
M  V30 6831 O 658.736 0.914551 -1.59316 0
M  V30 6832 C 658.798 -2.34302 -2.72659 0
M  V30 6833 C 658.462 -3.82034 -2.50796 0
M  V30 6834 C 659.459 -4.73453 -2.14799 0
M  V30 6835 C 657.144 -4.26397 -2.655 0
M  V30 6836 C 659.138 -6.07228 -1.93785 0
M  V30 6837 C 656.825 -5.6023 -2.44103 0
M  V30 6838 C 657.823 -6.50462 -2.08299 0
M  V30 6839 O 657.511 -7.8182 -1.87116 0
M  V30 6840 H 657.243 -0.501969 -0.452772 0
M  V30 6841 H 659.797 -1.88137 -0.82423 0
M  V30 6842 H 658.027 -1.88063 -3.37889 0
M  V30 6843 H 659.716 -2.29818 -3.34572 0
M  V30 6844 H 660.482 -4.4046 -2.03026 0
M  V30 6845 H 656.361 -3.56448 -2.92345 0
M  V30 6846 H 659.905 -6.7762 -1.65763 0
M  V30 6847 H 655.802 -5.92793 -2.55475 0
M  V30 6848 H 656.57 -7.93274 -2.01639 0
M  V30 6849 N 659.233 0.902656 -1.29189 0
M  V30 6850 C 660.473 1.6672 -1.18254 0
M  V30 6851 C 660.837 1.90199 0.262336 0
M  V30 6852 O 662.038 2.6421 0.494612 0
M  V30 6853 C 660.309 2.98178 -1.9704 0
M  V30 6854 S 661.868 3.89226 -2.02605 0
M  V30 6855 H 658.686 0.572432 -0.421714 0
M  V30 6856 H 661.288 1.07279 -1.63436 0
M  V30 6857 H 659.992 2.788 -3.01163 0
M  V30 6858 H 659.523 3.62661 -1.5245 0
M  V30 6859 H 661.538 4.82913 -1.14059 0
M  V30 6860 N 660.711 1.11618 1.11262 0
M  V30 6861 C 661.641 0.79846 2.19424 0
M  V30 6862 C 662.622 -0.234003 1.68483 0
M  V30 6863 O 663.807 -0.0970704 1.93957 0
M  V30 6864 C 660.937 0.242892 3.4645 0
M  V30 6865 C 659.891 1.20744 4.10615 0
M  V30 6866 C 659.217 0.512494 5.32238 0
M  V30 6867 C 660.517 2.55884 4.55325 0
M  V30 6868 H 662.211 1.70286 2.46258 0
M  V30 6869 H 659.757 0.820195 1.18359 0
M  V30 6870 H 661.71 0.00840447 4.21399 0
M  V30 6871 H 660.434 -0.696811 3.1908 0
M  V30 6872 H 659.093 1.42759 3.37662 0
M  V30 6873 H 658.741 -0.432075 5.01141 0
M  V30 6874 H 658.441 1.15583 5.7612 0
M  V30 6875 H 659.965 0.286842 6.09926 0
M  V30 6876 H 661.379 2.37946 5.21588 0
M  V30 6877 H 659.776 3.16216 5.10027 0
M  V30 6878 H 660.846 3.14968 3.68678 0
M  V30 6879 N 662.189 -1.289 0.906776 0
M  V30 6880 C 663.122 -2.25737 0.334362 0
M  V30 6881 C 664.1 -1.52745 -0.557474 0
M  V30 6882 O 665.284 -1.81673 -0.502697 0
M  V30 6883 C 662.411 -3.34642 -0.522716 0
M  V30 6884 C 661.457 -4.25424 0.302777 0
M  V30 6885 S 662.29 -5.07629 1.70508 0
M  V30 6886 C 663.446 -6.20031 0.855118 0
M  V30 6887 H 663.679 -2.73941 1.15514 0
M  V30 6888 H 661.212 -1.37233 0.707573 0
M  V30 6889 H 663.17 -3.97845 -1.01141 0
M  V30 6890 H 661.831 -2.85119 -1.31781 0
M  V30 6891 H 661.024 -5.02767 -0.352257 0
M  V30 6892 H 660.626 -3.66908 0.724873 0
M  V30 6893 H 662.918 -6.77451 0.0816418 0
M  V30 6894 H 663.861 -6.89767 1.60087 0
M  V30 6895 H 664.269 -5.63035 0.406375 0
M  V30 6896 N 663.667 -0.670007 -1.42649 0
M  V30 6897 C 664.915 -0.18991 -2.01206 0
M  V30 6898 C 665.236 1.20617 -1.53221 0
M  V30 6899 O 664.506 1.80898 -0.751856 0
M  V30 6900 H 663.086 -0.0672189 -0.743969 0
M  V30 6901 H 665.748 -0.865442 -1.74631 0
M  V30 6902 H 664.844 -0.187481 -3.11536 0
M  V30 6903 N 665.145 1.52092 -0.413018 0
M  V30 6904 C 666.37 2.06756 0.163338 0
M  V30 6905 C 666.795 1.28073 1.37764 0
M  V30 6906 O 666.153 0.312015 1.78595 0
M  V30 6907 C 666.201 3.57278 0.488322 0
M  V30 6908 O 665.305 3.80986 1.57871 0
M  V30 6909 H 664.646 0.663882 0.0125068 0
M  V30 6910 H 667.176 1.95988 -0.587339 0
M  V30 6911 H 667.186 4.01125 0.745836 0
M  V30 6912 H 665.861 4.13978 -0.399327 0
M  V30 6913 H 664.438 3.49017 1.31306 0
M  V30 6914 N 666.623 0.143563 1.56945 0
M  V30 6915 C 667.871 -0.507402 1.95627 0
M  V30 6916 C 668.192 -1.65626 1.02922 0
M  V30 6917 O 667.462 -1.95693 0.0901136 0
M  V30 6918 H 666.042 -0.190436 0.722318 0
M  V30 6919 H 668.704 0.218257 1.93674 0
M  V30 6920 H 667.8 -0.885816 2.99265 0
M  V30 6921 N 668.101 -1.57061 -0.130224 0
M  V30 6922 C 669.033 -1.96147 -1.18571 0
M  V30 6923 C 670.046 -0.859347 -1.38272 0
M  V30 6924 O 671.235 -1.13769 -1.37545 0
M  V30 6925 C 668.335 -2.23484 -2.54771 0
M  V30 6926 C 667.508 -3.54786 -2.55824 0
M  V30 6927 C 666.567 -3.70467 -3.73686 0
M  V30 6928 O 665.593 -4.42693 -3.57787 0
M  V30 6929 N 666.795 -3.08389 -4.91809 0
M  V30 6930 H 669.56 -2.87295 -0.853333 0
M  V30 6931 H 667.121 -1.58714 -0.319621 0
M  V30 6932 H 669.113 -2.312 -3.32158 0
M  V30 6933 H 667.683 -1.38518 -2.80235 0
M  V30 6934 H 666.903 -3.5836 -1.64232 0
M  V30 6935 H 668.191 -4.4111 -2.53573 0
M  V30 6936 H 667.589 -2.49656 -5.0763 0
M  V30 6937 H 666.146 -3.21642 -5.66912 0
M  V30 6938 N 669.579 0.400081 -1.52437 0
M  V30 6939 C 670.509 1.4947 -1.7939 0
M  V30 6940 C 671.49 1.57383 -0.645329 0
M  V30 6941 O 672.675 1.72511 -0.891826 0
M  V30 6942 C 669.805 2.87201 -1.95276 0
M  V30 6943 C 668.759 2.94134 -3.10917 0
M  V30 6944 C 668.085 4.34207 -3.1204 0
M  V30 6945 C 669.385 2.64791 -4.50203 0
M  V30 6946 H 671.079 1.27165 -2.71052 0
M  V30 6947 H 668.625 0.610312 -1.30427 0
M  V30 6948 H 670.578 3.63772 -2.12715 0
M  V30 6949 H 669.302 3.10819 -1.00294 0
M  V30 6950 H 667.961 2.20009 -2.93243 0
M  V30 6951 H 667.609 4.54848 -2.14761 0
M  V30 6952 H 667.309 4.39768 -3.89715 0
M  V30 6953 H 668.833 5.127 -3.31619 0
M  V30 6954 H 670.247 3.31083 -4.68035 0
M  V30 6955 H 668.644 2.81717 -5.29864 0
M  V30 6956 H 669.714 1.60184 -4.57678 0
M  V30 6957 N 671.057 1.43213 0.657864 0
M  V30 6958 C 671.987 1.50815 1.78262 0
M  V30 6959 C 672.968 0.363211 1.66177 0
M  V30 6960 O 674.153 0.579806 1.85343 0
M  V30 6961 C 671.283 1.42625 3.16663 0
M  V30 6962 C 670.237 2.5532 3.43505 0
M  V30 6963 C 669.563 2.32184 4.81658 0
M  V30 6964 C 670.863 3.97583 3.38711 0
M  V30 6965 H 672.557 2.44954 1.72157 0
M  V30 6966 H 670.103 1.17896 0.82683 0
M  V30 6967 H 672.056 1.46548 3.95097 0
M  V30 6968 H 670.78 0.449877 3.23487 0
M  V30 6969 H 669.439 2.50742 2.6744 0
M  V30 6970 H 669.087 1.32801 4.85153 0
M  V30 6971 H 668.787 3.07724 5.00579 0
M  V30 6972 H 670.311 2.37883 5.62356 0
M  V30 6973 H 671.725 4.03673 4.07089 0
M  V30 6974 H 670.122 4.73112 3.69168 0
M  V30 6975 H 671.192 4.23049 2.36976 0
M  V30 6976 N 672.536 -0.895792 1.29666 0
M  V30 6977 C 673.782 -1.64921 1.19049 0
M  V30 6978 C 674.137 -1.90707 -0.254678 0
M  V30 6979 O 673.43 -1.5092 -1.18041 0
M  V30 6980 C 673.624 -3.00075 1.94139 0
M  V30 6981 C 673.453 -2.87482 3.4581 0
M  V30 6982 C 672.223 -2.88041 4.15163 0
M  V30 6983 C 674.421 -2.64224 4.41237 0
M  V30 6984 N 672.403 -2.66226 5.5317 0
M  V30 6985 C 673.774 -2.51427 5.66732 0
M  V30 6986 C 675.829 -2.49362 4.30956 0
M  V30 6987 C 674.532 -2.25281 6.83111 0
M  V30 6988 C 676.558 -2.246 5.47091 0
M  V30 6989 C 675.92 -2.12571 6.7156 0
M  V30 6990 H 672.019 -0.608926 0.490646 0
M  V30 6991 H 674.603 -1.05648 1.63544 0
M  V30 6992 H 672.774 -3.574 1.52052 0
M  V30 6993 H 674.506 -3.64544 1.75754 0
M  V30 6994 H 671.261 -2.99471 3.66898 0
M  V30 6995 H 671.685 -2.58361 6.25762 0
M  V30 6996 H 676.327 -2.57403 3.35415 0
M  V30 6997 H 674.045 -2.15978 7.78704 0
M  V30 6998 H 677.631 -2.13939 5.41037 0
M  V30 6999 H 676.511 -1.93676 7.59907 0
M  V30 7000 N 674.014 -1.12206 -1.10668 0
M  V30 7001 C 675.291 -0.787382 -1.79052 0
M  V30 7002 C 675.671 0.723267 -1.98323 0
M  V30 7003 O 675.019 1.6561 -1.57434 0
M  V30 7004 C 675.229 -1.55968 -3.1221 0
M  V30 7005 C 676.577 -1.74413 -3.87125 0
M  V30 7006 O 677.601 -1.5246 -3.21923 0
M  V30 7007 O 676.46 -2.10952 -5.04144 0
M  V30 7008 H 673.554 -0.286137 -0.775922 0
M  V30 7009 H 676.1 -1.22595 -1.1734 0
M  V30 7010 H 674.872 -2.58692 -2.93588 0
M  V30 7011 H 674.495 -1.1152 -3.8164 0
M  V30 7012 N 675.492 1.28418 -0.913599 0
M  V30 7013 C 676.72 1.99106 -0.562536 0
M  V30 7014 C 677.135 1.68273 0.856137 0
M  V30 7015 O 676.492 0.935401 1.56705 0
M  V30 7016 C 676.543 3.5338 -0.761903 0
M  V30 7017 O 676.264 3.83127 -2.12475 0
M  V30 7018 C 677.765 4.41328 -0.417651 0
M  V30 7019 H 674.985 0.635798 -0.214481 0
M  V30 7020 H 677.529 1.63618 -1.22676 0
M  V30 7021 H 675.684 3.8713 -0.144676 0
M  V30 7022 H 676.098 4.77763 -2.16431 0
M  V30 7023 H 677.572 5.48642 -0.607919 0
M  V30 7024 H 678.049 4.34422 0.646108 0
M  V30 7025 H 678.655 4.13074 -1.01241 0
M  V30 7026 N 676.97 0.677563 1.42291 0
M  V30 7027 C 678.216 0.201272 2.01799 0
M  V30 7028 C 678.549 -1.19004 1.53465 0
M  V30 7029 O 677.824 -1.79953 0.738039 0
M  V30 7030 C 678.107 0.238968 3.59306 0
M  V30 7031 C 677.96 1.66594 4.17812 0
M  V30 7032 C 679.279 -0.411287 4.38174 0
M  V30 7033 H 676.398 0.0746114 0.733214 0
M  V30 7034 H 679.04 0.862872 1.69276 0
M  V30 7035 H 677.19 -0.324368 3.87144 0
M  V30 7036 H 678.862 2.28173 4.00917 0
M  V30 7037 H 677.105 2.20576 3.73536 0
M  V30 7038 H 677.776 1.64398 5.26951 0
M  V30 7039 H 680.252 0.0682804 4.16044 0
M  V30 7040 H 679.128 -0.354286 5.47755 0
M  V30 7041 H 679.389 -1.4893 4.1626 0
M  V30 7042 N 678.448 -1.51871 0.421078 0
M  V30 7043 C 679.676 -2.06356 -0.14994 0
M  V30 7044 C 680.091 -1.29006 -1.37851 0
M  V30 7045 O 679.448 -0.345139 -1.79207 0
M  V30 7046 C 679.499 -3.58185 -0.488454 0
M  V30 7047 O 679.22 -4.32611 0.691341 0
M  V30 7048 C 680.721 -4.29129 -1.11191 0
M  V30 7049 H 677.941 -0.67083 -0.0151186 0
M  V30 7050 H 680.485 -1.95638 0.595476 0
M  V30 7051 H 678.64 -3.68871 -1.18376 0
M  V30 7052 H 679.054 -5.22927 0.405906 0
M  V30 7053 H 680.528 -5.36501 -1.29889 0
M  V30 7054 H 681.005 -3.86371 -2.0884 0
M  V30 7055 H 681.611 -4.22843 -0.456458 0
M  V30 7056 N 679.926 -0.151884 -1.56866 0
M  V30 7057 C 681.174 0.497021 -1.95893 0
M  V30 7058 C 681.495 1.65078 -1.03799 0
M  V30 7059 O 680.765 1.95642 -0.10049 0
M  V30 7060 H 679.345 0.186603 -0.723318 0
M  V30 7061 H 682.007 -0.228525 -1.93556 0
M  V30 7062 H 681.103 0.869933 -2.99731 0
M  V30 7063 N 681.404 1.57128 0.121893 0
M  V30 7064 C 682.65 1.84974 0.831418 0
M  V30 7065 C 682.983 0.737204 1.79663 0
M  V30 7066 O 682.258 -0.257199 1.92792 0
M  V30 7067 C 682.541 3.23397 1.58386 0
M  V30 7068 C 682.394 4.45246 0.638445 0
M  V30 7069 C 683.713 3.59355 2.54071 0
M  V30 7070 H 680.832 0.67282 0.300803 0
M  V30 7071 H 683.474 1.89759 0.0957587 0
M  V30 7072 H 681.624 3.19449 2.21098 0
M  V30 7073 H 683.296 4.61295 0.0203925 0
M  V30 7074 H 681.539 4.33771 -0.05023 0
M  V30 7075 H 682.21 5.38765 1.20151 0
M  V30 7076 H 684.686 3.64075 2.01465 0
M  V30 7077 H 683.562 4.57193 3.03752 0
M  V30 7078 H 683.823 2.86622 3.36601 0
M  V30 7079 N 682.882 -0.391992 1.52647 0
M  V30 7080 C 684.159 -1.15136 1.58123 0
M  V30 7081 C 684.539 -2.07786 0.372597 0
M  V30 7082 O 683.887 -2.19374 -0.639304 0
M  V30 7083 C 684.097 -1.91367 2.91856 0
M  V30 7084 C 685.445 -2.46833 3.45483 0
M  V30 7085 O 686.469 -2.01527 2.9371 0
M  V30 7086 O 685.328 -3.29587 4.3593 0
M  V30 7087 H 682.422 -0.526649 0.637629 0
M  V30 7088 H 684.968 -0.397386 1.64982 0
M  V30 7089 H 683.74 -1.23597 3.71268 0
M  V30 7090 H 683.363 -2.73732 2.88369 0
M  V30 7091 N 684.36 -1.4356 -0.65026 0
M  V30 7092 C 685.293 -1.434 -1.77515 0
M  V30 7093 C 686.271 -0.295082 -1.599 0
M  V30 7094 O 687.455 -0.489128 -1.82043 0
M  V30 7095 C 684.582 -1.2484 -3.14853 0
M  V30 7096 C 683.628 -2.42046 -3.51163 0
M  V30 7097 S 684.461 -4.04595 -3.50803 0
M  V30 7098 C 685.617 -3.88424 -4.90793 0
M  V30 7099 H 685.85 -2.38586 -1.77381 0
M  V30 7100 H 683.383 -1.30627 -0.823169 0
M  V30 7101 H 685.341 -1.14819 -3.94115 0
M  V30 7102 H 684.002 -0.311977 -3.12547 0
M  V30 7103 H 683.195 -2.24873 -4.51052 0
M  V30 7104 H 682.797 -2.48708 -2.79321 0
M  V30 7105 H 685.089 -3.50932 -5.79528 0
M  V30 7106 H 686.032 -4.88076 -5.13018 0
M  V30 7107 H 686.44 -3.20829 -4.64467 0
M  V30 7108 N 685.838 0.888903 -1.30139 0
M  V30 7109 C 686.801 1.97576 -1.16174 0
M  V30 7110 C 687.801 1.60525 -0.094086 0
M  V30 7111 O 688.991 1.70812 -0.341889 0
M  V30 7112 C 686.123 3.3188 -0.778983 0
M  V30 7113 H 687.316 2.11393 -2.12728 0
M  V30 7114 H 684.869 1.0748 -1.1348 0
M  V30 7115 H 685.604 3.23765 0.186225 0
M  V30 7116 H 685.389 3.60141 -1.55051 0
M  V30 7117 H 686.879 4.11612 -0.704631 0
M  V30 7118 N 687.317 1.12792 1.10072 0
M  V30 7119 C 688.247 0.821688 2.18565 0
M  V30 7120 C 689.228 -0.21612 1.68721 0
M  V30 7121 O 690.413 -0.0764932 1.94049 0
M  V30 7122 C 687.543 0.279624 3.46172 0
M  V30 7123 C 686.497 1.25092 4.09312 0
M  V30 7124 C 685.823 0.568916 5.31665 0
M  V30 7125 C 687.123 2.60699 4.52585 0
M  V30 7126 H 688.817 1.72888 2.44438 0
M  V30 7127 H 686.363 0.832702 1.17482 0
M  V30 7128 H 688.316 0.053099 4.21367 0
M  V30 7129 H 687.04 -0.662929 3.19801 0
M  V30 7130 H 685.699 1.46332 3.36129 0
M  V30 7131 H 685.347 -0.378898 5.01571 0
M  V30 7132 H 685.047 1.21687 5.74862 0
M  V30 7133 H 686.571 0.351517 6.09587 0
M  V30 7134 H 687.985 2.43465 5.19035 0
M  V30 7135 H 686.382 3.21608 5.06644 0
M  V30 7136 H 687.452 3.1886 3.65317 0
M  V30 7137 O 688.834 -1.22539 1.05197 0
M  V30 7138 H 689.525 -1.79492 0.728171 0
M  V30 END ATOM
M  V30 BEGIN BOND
M  V30 END BOND
M  V30 END CTAB
M  END
$$$$
