drugbank_target|P14854 Cytochrome c oxidase subunit 6B1 (DB02659; DB04464)
 OpenBabel12092120443D

  0  0  0     0  0            999 V3000
M  V30 BEGIN CTAB
M  V30 COUNTS 1382 1402 0 0 0
M  V30 BEGIN ATOM
M  V30 1 H -0.908 1.98254 -0.117106 0
M  V30 2 N 0 1.576 0 0
M  V30 3 C 0.933 2.03868 1.02534 0
M  V30 4 C 1.911 0.928543 1.3348 0
M  V30 5 O 3.095 1.19667 1.45644 0
M  V30 6 C 0.222 2.43627 2.35294 0
M  V30 7 C -0.732 3.65373 2.2001 0
M  V30 8 S 0.101 5.13292 1.52614 0
M  V30 9 C 1.257 5.56322 2.86805 0
M  V30 10 H 1.49 2.90518 0.631377 0
M  V30 11 H -0.977 1.52953 0.210867 0
M  V30 12 H 0.981 2.67203 3.11629 0
M  V30 13 H -0.358 1.57376 2.7183 0
M  V30 14 H -1.165 3.90944 3.18086 0
M  V30 15 H -1.563 3.418 1.51819 0
M  V30 16 H 0.729 5.58782 3.83104 0
M  V30 17 H 1.672 6.56266 2.65933 0
M  V30 18 H 2.08 4.83886 2.90714 0
M  V30 19 N 1.4781 -0.272755 1.55222 0
M  V30 20 C 2.4411 -1.32041 1.87344 0
M  V30 21 C 3.4411 -1.42342 0.74803 0
M  V30 22 O 4.6311 -1.41488 1.0162 0
M  V30 23 C 1.7631 -2.70173 2.07893 0
M  V30 24 H 2.9561 -1.04789 2.80997 0
M  V30 25 H 0.5091 -0.51083 1.47717 0
M  V30 26 H 1.2441 -3.02605 1.16622 0
M  V30 27 H 1.0291 -2.64082 2.89833 0
M  V30 28 H 2.5191 -3.45869 2.34017 0
M  V30 29 N 2.9562 -1.48159 -0.537278 0
M  V30 30 C 3.8662 -1.64807 -1.6696 0
M  V30 31 C 4.8822 -0.530651 -1.65711 0
M  V30 32 O 6.0582 -0.800784 -1.84796 0
M  V30 33 C 3.1232 -1.67708 -3.03438 0
M  V30 34 C 2.1842 -2.91025 -3.156 0
M  V30 35 C 1.4172 -2.93778 -4.45567 0
M  V30 36 O 1.6402 -2.05153 -5.3223 0
M  V30 37 O 0.5742 -3.85868 -4.61941 0
M  V30 38 H 4.4002 -2.6066 -1.55853 0
M  V30 39 H 1.9852 -1.31475 -0.709549 0
M  V30 40 H 3.8672 -1.7218 -3.84619 0
M  V30 41 H 2.5422 -0.750278 -3.14885 0
M  V30 42 H 1.4492 -2.92089 -2.33741 0
M  V30 43 H 2.7822 -3.83065 -3.09066 0
M  V30 44 N 4.4343 0.785586 -1.36625 0
M  V30 45 C 5.7113 1.53198 -1.21613 0
M  V30 46 C 6.0913 2.10187 0.196113 0
M  V30 47 O 5.4393 1.94318 1.20219 0
M  V30 48 C 5.6493 2.62388 -2.30116 0
M  V30 49 C 6.9973 3.30167 -2.66974 0
M  V30 50 O 8.0213 2.72674 -2.29188 0
M  V30 51 O 6.8803 4.34077 -3.32023 0
M  V30 52 H 3.9743 0.677865 -0.473738 0
M  V30 53 H 6.5203 0.823739 -1.48367 0
M  V30 54 H 5.2923 2.18299 -3.24748 0
M  V30 55 H 4.9153 3.40827 -2.0475 0
M  V30 56 N 5.9124 1.20967 1.01018 0
M  V30 57 C 6.8454 0.907578 2.09376 0
M  V30 58 C 7.8234 -0.142868 1.61971 0
M  V30 59 O 9.0074 -0.0150391 1.88494 0
M  V30 60 C 6.1344 0.361791 3.36762 0
M  V30 61 C 5.1804 1.39423 4.03068 0
M  V30 62 S 6.0134 2.96159 4.4615 0
M  V30 63 C 7.1694 2.43173 5.7673 0
M  V30 64 H 7.4024 1.82519 2.34678 0
M  V30 65 H 4.9354 1.03884 1.14225 0
M  V30 66 H 6.8934 0.0534523 4.10465 0
M  V30 67 H 5.5544 -0.53443 3.0952 0
M  V30 68 H 4.7474 0.961853 4.94737 0
M  V30 69 H 4.3494 1.65038 3.35617 0
M  V30 70 H 6.6414 1.83335 6.52223 0
M  V30 71 H 7.5844 3.33264 6.24773 0
M  V30 72 H 7.9924 1.85069 5.33301 0
M  V30 73 N 7.3905 -1.2043 1.01659 0
M  V30 74 C 8.3005 -2.2689 0.596484 0
M  V30 75 C 9.3165 -1.70107 -0.36599 0
M  V30 76 O 10.4925 -2.00117 -0.226942 0
M  V30 77 C 7.5575 -3.4665 -0.0586659 0
M  V30 78 C 6.6185 -4.18662 0.949751 0
M  V30 79 C 5.8515 -5.32705 0.32577 0
M  V30 80 O 6.0745 -5.63656 -0.874509 0
M  V30 81 O 5.0085 -5.92803 1.04249 0
M  V30 82 H 8.8345 -2.65041 1.4828 0
M  V30 83 H 6.4195 -1.27048 0.786082 0
M  V30 84 H 8.3015 -4.19256 -0.424564 0
M  V30 85 H 6.9765 -3.10375 -0.91918 0
M  V30 86 H 5.8835 -3.48229 1.36702 0
M  V30 87 H 7.2165 -4.58878 1.78023 0
M  V30 88 N 8.8686 -0.792821 -1.36206 0
M  V30 89 C 10.0966 -0.378825 -2.03402 0
M  V30 90 C 10.5116 1.00586 -1.59774 0
M  V30 91 O 9.8686 1.64574 -0.788764 0
M  V30 92 C 9.9196 -0.43683 -3.58851 0
M  V30 93 O 9.6406 -1.76691 -4.00889 0
M  V30 94 C 11.1416 -0.0138943 -4.43298 0
M  V30 95 H 8.3616 -0.155673 -0.652692 0
M  V30 96 H 10.9056 -1.07261 -1.74113 0
M  V30 97 H 9.0606 0.208575 -3.86838 0
M  V30 98 H 9.4746 -1.72011 -4.95492 0
M  V30 99 H 10.9486 -0.105615 -5.51899 0
M  V30 100 H 11.4256 1.03915 -4.2673 0
M  V30 101 H 12.0316 -0.63192 -4.20579 0
M  V30 102 N 10.3467 1.47872 -0.545128 0
M  V30 103 C 11.2937 2.29849 0.2093 0
M  V30 104 C 12.2637 1.38313 0.919707 0
M  V30 105 O 13.4487 1.67277 0.917772 0
M  V30 106 C 10.5887 3.22019 1.24088 0
M  V30 107 C 9.7017 4.2864 0.537778 0
M  V30 108 C 8.8367 5.07973 1.5536 0
M  V30 109 C 7.8757 6.06381 0.8348 0
M  V30 110 N 7.0127 6.78717 1.79688 0
M  V30 111 H 11.8527 2.93845 -0.49591 0
M  V30 112 H 9.3897 1.44848 -0.256389 0
M  V30 113 H 11.3477 3.73868 1.85144 0
M  V30 114 H 9.9777 2.59914 1.91428 0
M  V30 115 H 9.0297 3.7994 -0.187046 0
M  V30 116 H 10.3417 4.98793 -0.0258907 0
M  V30 117 H 9.4957 5.63912 2.23803 0
M  V30 118 H 8.2347 4.37693 2.15118 0
M  V30 119 H 7.2397 5.49631 0.136388 0
M  V30 120 H 8.4647 6.78665 0.24313 0
M  V30 121 H 6.4107 6.11177 2.38326 0
M  V30 122 H 6.3277 7.44998 1.28505 0
M  V30 123 H 7.5957 7.39237 2.47282 0
M  V30 124 N 11.8248 0.280983 1.55075 0
M  V30 125 C 13.0738 -0.334784 1.98902 0
M  V30 126 C 13.3868 -1.56534 1.17288 0
M  V30 127 O 14.5928 -2.25443 1.51287 0
M  V30 128 C 13.0488 -0.646994 3.54037 0
M  V30 129 C 12.6568 0.564085 4.44435 0
M  V30 130 C 14.4008 -1.22506 4.06439 0
M  V30 131 C 12.3078 0.226137 5.90967 0
M  V30 132 H 11.2378 -0.128866 0.742906 0
M  V30 133 H 13.8888 0.386556 1.79382 0
M  V30 134 H 12.2708 -1.42739 3.6938 0
M  V30 135 H 13.4448 1.34082 4.40861 0
M  V30 136 H 11.7598 1.0594 4.02698 0
M  V30 137 H 14.3568 -1.49182 5.13468 0
M  V30 138 H 14.6998 -2.16085 3.55827 0
M  V30 139 H 15.2328 -0.50682 3.94558 0
M  V30 140 H 11.9718 1.12996 6.45687 0
M  V30 141 H 11.4918 -0.513717 5.97596 0
M  V30 142 H 13.1708 -0.179539 6.46751 0
M  V30 143 N 13.3029 -1.57598 0.00835791 0
M  V30 144 C 14.2499 -2.08945 -0.980346 0
M  V30 145 C 15.2199 -0.986738 -1.33614 0
M  V30 146 O 16.4049 -1.25968 -1.43306 0
M  V30 147 C 13.5449 -2.60425 -2.26435 0
M  V30 148 C 12.6579 -3.84628 -1.96685 0
M  V30 149 C 11.7929 -4.24579 -3.19228 0
M  V30 150 C 10.8319 -5.41596 -2.85202 0
M  V30 151 N 9.9689 -5.768 -4.00307 0
M  V30 152 H 14.8089 -2.93148 -0.535551 0
M  V30 153 H 12.3459 -1.44912 -0.252776 0
M  V30 154 H 14.3039 -2.88354 -3.01509 0
M  V30 155 H 12.9339 -1.79083 -2.68568 0
M  V30 156 H 11.9859 -3.63556 -1.11942 0
M  V30 157 H 13.2979 -4.69796 -1.67611 0
M  V30 158 H 12.4519 -4.53834 -4.02641 0
M  V30 159 H 11.1909 -3.38137 -3.51447 0
M  V30 160 H 10.1959 -5.12056 -2.00198 0
M  V30 161 H 11.4209 -6.29721 -2.54222 0
M  V30 162 H 9.3669 -4.93316 -4.32407 0
M  V30 163 H 9.2839 -6.5656 -3.74786 0
M  V30 164 H 10.5519 -6.10652 -4.84484 0
M  V30 165 N 14.781 0.264519 -1.55364 0
M  V30 166 C 15.729 1.34702 -1.89626 0
M  V30 167 C 16.723 1.50712 -0.773459 0
M  V30 168 O 17.929 1.52395 -0.957897 0
M  V30 169 H 14.304 0.450682 -0.601988 0
M  V30 170 H 16.275 1.0306 -2.80038 0
M  V30 171 C 15.024 2.6989 -2.19214 0
M  V30 172 H 14.347 2.58365 -3.05103 0
M  V30 173 H 15.787 3.44553 -2.47102 0
M  V30 174 C 14.246 3.21637 -1.00254 0
M  V30 175 O 14.776 4.00973 -0.241501 0
M  V30 176 N 12.982 2.7943 -0.797938 0
M  V30 177 H 12.529 2.15026 -1.4185 0
M  V30 178 H 12.487 3.144 -0.00363422 0
M  V30 179 N 16.2591 1.48442 0.529413 0
M  V30 180 C 17.4891 1.59919 1.30804 0
M  V30 181 C 17.8971 0.258792 1.87422 0
M  V30 182 O 17.2401 -0.762096 1.67146 0
M  V30 183 C 17.3021 2.58693 2.49636 0
M  V30 184 C 16.9661 4.03745 2.14101 0
M  V30 185 C 17.9631 4.9141 1.6974 0
M  V30 186 C 15.6481 4.49285 2.24607 0
M  V30 187 C 17.6421 6.22645 1.36351 0
M  V30 188 C 15.3291 5.8054 1.9083 0
M  V30 189 C 16.3271 6.67043 1.46773 0
M  V30 190 O 16.0151 7.95856 1.1344 0
M  V30 191 H 15.7471 0.541981 0.404021 0
M  V30 192 H 18.3011 1.95 0.645309 0
M  V30 193 H 16.5311 2.18734 3.18892 0
M  V30 194 H 18.2201 2.59999 3.11698 0
M  V30 195 H 18.9861 4.57465 1.61094 0
M  V30 196 H 14.8651 3.82142 2.57854 0
M  V30 197 H 18.4091 6.90119 1.01891 0
M  V30 198 H 14.3061 6.14022 1.99117 0
M  V30 199 H 15.0741 8.08613 1.26832 0
M  V30 200 N 17.7372 -0.778329 1.37039 0
M  V30 201 C 18.6842 -1.89139 1.32269 0
M  V30 202 C 19.6542 -1.65017 0.189387 0
M  V30 203 O 20.8392 -1.87024 0.377693 0
M  V30 204 C 17.9792 -3.26112 1.12894 0
M  V30 205 C 17.0922 -3.62233 2.35396 0
M  V30 206 C 16.2272 -4.8838 2.08946 0
M  V30 207 C 15.2662 -5.17212 3.2735 0
M  V30 208 N 14.4032 -6.34546 3.00492 0
M  V30 209 H 19.2432 -1.92552 2.27437 0
M  V30 210 H 16.7802 -0.941473 1.13025 0
M  V30 211 H 18.7382 -4.05116 0.996835 0
M  V30 212 H 17.3682 -3.22091 0.213758 0
M  V30 213 H 16.4202 -2.78265 2.5937 0
M  V30 214 H 17.7322 -3.79481 3.23721 0
M  V30 215 H 16.8862 -5.75274 1.92729 0
M  V30 216 H 15.6252 -4.73222 1.17949 0
M  V30 217 H 14.6302 -4.28796 3.44113 0
M  V30 218 H 15.8552 -5.34283 4.19188 0
M  V30 219 H 13.8012 -6.20759 2.12118 0
M  V30 220 H 13.7182 -6.52179 3.82358 0
M  V30 221 H 14.9862 -7.24394 2.87879 0
M  V30 222 N 19.2153 -1.21501 -1.00376 0
M  V30 223 C 20.4433 -1.059 -1.77744 0
M  V30 224 C 20.8583 0.391125 -1.84704 0
M  V30 225 O 20.2153 1.27133 -1.30933 0
M  V30 226 C 20.2663 -1.65111 -3.21591 0
M  V30 227 O 19.9873 -3.0445 -3.15027 0
M  V30 228 C 21.4883 -1.54637 -4.15454 0
M  V30 229 H 18.7083 -0.371825 -0.558558 0
M  V30 230 H 21.2523 -1.60865 -1.26264 0
M  V30 231 H 19.4073 -1.14235 -3.70175 0
M  V30 232 H 19.8213 -3.3278 -4.0541 0
M  V30 233 H 21.2953 -2.00808 -5.14179 0
M  V30 234 H 21.7723 -0.501022 -4.36333 0
M  V30 235 H 22.3783 -2.04767 -3.72761 0
M  V30 236 N 20.6934 1.19889 -1.02296 0
M  V30 237 C 21.6564 2.21116 -0.603351 0
M  V30 238 C 22.6564 1.5738 0.329884 0
M  V30 239 O 23.8464 1.73802 0.117702 0
M  V30 240 C 20.9784 3.40696 0.117992 0
M  V30 241 H 22.1714 2.59754 -1.49893 0
M  V30 242 H 19.7244 1.33463 -0.813468 0
M  V30 243 H 20.4594 3.07569 1.0282 0
M  V30 244 H 20.2444 3.88188 -0.552511 0
M  V30 245 H 21.7344 4.15692 0.398696 0
M  V30 246 N 22.1715 0.800033 1.35784 0
M  V30 247 C 23.5825 0.439142 1.81462 0
M  V30 248 C 23.9335 -1.03813 1.66485 0
M  V30 249 O 23.0585 -1.80626 1.19177 0
M  V30 250 C 23.6535 0.790314 3.29453 0
M  V30 251 C 22.2125 0.482111 3.733 0
M  V30 252 C 21.3595 1.01938 2.57883 0
M  V30 253 H 24.3105 0.992254 1.23855 0
M  V30 254 H 24.3315 0.0853677 3.80404 0
M  V30 255 H 23.8435 1.86554 3.40322 0
M  V30 256 H 21.9445 -0.584652 3.67984 0
M  V30 257 H 22.0575 1.01015 4.6833 0
M  V30 258 H 20.4215 0.442043 2.50835 0
M  V30 259 H 21.2045 2.10059 2.71533 0
M  V30 260 N 23.6496 -1.47581 0.552962 0
M  V30 261 C 24.8966 -2.02482 0.0273243 0
M  V30 262 C 25.2246 -1.42776 -1.32081 0
M  V30 263 O 24.4796 -0.571393 -1.87173 0
M  V30 264 C 24.7786 -3.57199 -0.119728 0
M  V30 265 C 24.4446 -4.35804 1.15697 0
M  V30 266 C 23.1066 -4.57 1.50681 0
M  V30 267 C 25.4586 -4.81167 2.00319 0
M  V30 268 C 22.7866 -5.20807 2.70142 0
M  V30 269 C 25.1386 -5.46293 3.18978 0
M  V30 270 C 23.8026 -5.65722 3.54281 0
M  V30 271 H 23.0726 -0.740933 0.00999866 0
M  V30 272 H 25.7196 -1.77302 0.72362 0
M  V30 273 H 24.0246 -3.81348 -0.89896 0
M  V30 274 H 25.7216 -3.97324 -0.541718 0
M  V30 275 H 22.3116 -4.19582 0.874561 0
M  V30 276 H 26.4956 -4.64574 1.74599 0
M  V30 277 H 21.7516 -5.34045 2.97668 0
M  V30 278 H 25.9256 -5.80407 3.84838 0
M  V30 279 H 23.5526 -6.14936 4.46942 0
M  V30 280 N 25.1277 -0.289203 -1.54924 0
M  V30 281 C 26.4047 0.376032 -1.91951 0
M  V30 282 C 26.7847 1.72622 -1.21511 0
M  V30 283 O 26.1327 2.25853 -0.346767 0
M  V30 284 C 26.3427 0.502378 -3.45365 0
M  V30 285 C 27.6907 0.778741 -4.17398 0
M  V30 286 O 28.7147 0.586647 -3.51336 0
M  V30 287 O 27.5737 1.14698 -5.34328 0
M  V30 288 H 24.6677 0.208167 -0.800372 0
M  V30 289 H 27.2137 -0.336394 -1.66332 0
M  V30 290 H 25.9857 -0.447255 -3.88736 0
M  V30 291 H 25.6087 1.26373 -3.76982 0
M  V30 292 N 26.6058 1.57591 -0.0167156 0
M  V30 293 C 27.8308 1.9598 0.67872 0
M  V30 294 C 28.2558 0.892546 1.65575 0
M  V30 295 O 27.6138 -0.147772 1.80697 0
M  V30 296 C 27.6618 3.33468 1.37227 0
M  V30 297 O 26.7658 3.28954 2.48722 0
M  V30 298 H 26.1068 0.639339 0.17928 0
M  V30 299 H 28.6368 2.04463 -0.0748802 0
M  V30 300 H 28.6468 3.69417 1.7319 0
M  V30 301 H 27.3218 4.10694 0.656007 0
M  V30 302 H 25.8988 3.04705 2.14963 0
M  V30 303 N 28.0839 -0.256276 1.55502 0
M  V30 304 C 29.4999 -0.604325 1.47716 0
M  V30 305 C 29.6999 -1.88763 0.705039 0
M  V30 306 O 28.7559 -2.51445 0.230613 0
M  V30 307 C 30.0689 -0.715756 2.92057 0
M  V30 308 C 31.6169 -0.808706 3.02372 0
M  V30 309 C 32.0919 -0.951777 4.48001 0
M  V30 310 N 33.5829 -1.01688 4.519 0
M  V30 311 C 34.3179 -1.14668 5.61817 0
M  V30 312 N 33.8139 -1.24261 6.81565 0
M  V30 313 N 35.6069 -1.1791 5.49594 0
M  V30 314 H 27.7579 0.586291 2.04148 0
M  V30 315 H 30.0209 0.201015 0.926443 0
M  V30 316 H 29.7269 0.157027 3.51349 0
M  V30 317 H 29.6009 -1.59071 3.42018 0
M  V30 318 H 31.9879 -1.67195 2.43166 0
M  V30 319 H 32.0689 0.0912063 2.55637 0
M  V30 320 H 31.7129 -0.0931291 5.07815 0
M  V30 321 H 31.6429 -1.86659 4.92408 0
M  V30 322 H 34.1339 -0.954468 3.65648 0
M  V30 323 H 34.4469 -1.34046 7.61086 0
M  V30 324 H 32.7919 -1.21236 6.84344 0
M  V30 325 H 35.9829 -1.10057 4.54978 0
M  V30 326 H 36.1559 -1.27681 6.35296 0
M  V30 327 N 29.562 -1.4872 -0.521534 0
M  V30 328 C 30.809 -1.57168 -1.27689 0
M  V30 329 C 31.137 -0.249275 -1.92896 0
M  V30 330 O 30.392 0.761162 -1.80291 0
M  V30 331 C 30.691 -2.66497 -2.38148 0
M  V30 332 C 30.357 -4.08664 -1.90538 0
M  V30 333 C 29.019 -4.47357 -1.77271 0
M  V30 334 C 31.371 -4.97724 -1.54663 0
M  V30 335 C 28.699 -5.72905 -1.26478 0
M  V30 336 C 31.051 -6.2377 -1.05329 0
M  V30 337 C 29.715 -6.61311 -0.906861 0
M  V30 338 H 28.985 -0.575117 -0.467249 0
M  V30 339 H 31.632 -1.82472 -0.581051 0
M  V30 340 H 29.937 -2.35085 -3.13437 0
M  V30 341 H 31.634 -2.70246 -2.96257 0
M  V30 342 H 28.224 -3.78111 -2.01816 0
M  V30 343 H 32.408 -4.68501 -1.63768 0
M  V30 344 H 27.664 -6.00709 -1.13835 0
M  V30 345 H 31.838 -6.9217 -0.76644 0
M  V30 346 H 29.465 -7.5848 -0.511083 0
M  V30 347 N 31.0401 0.771051 -1.3745 0
M  V30 348 C 32.4511 1.34737 -1.29239 0
M  V30 349 C 32.8021 1.96109 0.0596908 0
M  V30 350 O 31.9271 1.93865 0.961534 0
M  V30 351 C 32.5221 2.44973 -2.34037 0
M  V30 352 C 31.0811 2.98372 -2.29458 0
M  V30 353 C 30.2281 1.71595 -2.17831 0
M  V30 354 H 33.1791 0.571256 -1.48062 0
M  V30 355 H 33.2001 3.24471 -1.98744 0
M  V30 356 H 32.7121 2.00276 -3.32432 0
M  V30 357 H 30.8131 3.47443 -1.34589 0
M  V30 358 H 30.9261 3.53939 -3.229 0
M  V30 359 H 29.2901 1.94547 -1.64388 0
M  V30 360 H 30.0731 1.29001 -3.18141 0
M  V30 361 N 32.5182 1.22032 0.997298 0
M  V30 362 C 33.4662 0.983634 2.10778 0
M  V30 363 C 34.4602 -0.0717564 1.69248 0
M  V30 364 O 35.6662 0.080304 1.79821 0
M  V30 365 H 32.0412 0.300877 0.689186 0
M  V30 366 H 34.0122 1.92606 2.27916 0
M  V30 367 C 32.7612 0.57326 3.42942 0
M  V30 368 H 32.0842 1.37702 3.75338 0
M  V30 369 H 33.5242 0.447031 4.21637 0
M  V30 370 C 31.9832 -0.7167 3.29188 0
M  V30 371 O 32.5132 -1.77027 3.60589 0
M  V30 372 N 30.7192 -0.686167 2.82383 0
M  V30 373 H 30.2662 0.171507 2.57028 0
M  V30 374 H 30.2242 -1.54955 2.73562 0
M  V30 375 N 33.9963 -1.19345 1.0293 0
M  V30 376 C 34.9283 -2.22036 0.56857 0
M  V30 377 C 35.9413 -1.58865 -0.355779 0
M  V30 378 O 37.1303 -1.77851 -0.152103 0
M  V30 379 C 34.2303 -3.38363 -0.190752 0
M  V30 380 C 33.4033 -4.31118 0.738643 0
M  V30 381 C 32.4623 -5.26194 0.0246497 0
M  V30 382 O 31.4883 -5.65461 0.651354 0
M  V30 383 N 32.6903 -5.66971 -1.24594 0
M  V30 384 H 35.4553 -2.6219 1.45177 0
M  V30 385 H 33.0163 -1.34015 0.908381 0
M  V30 386 H 35.0083 -3.98981 -0.677961 0
M  V30 387 H 33.5783 -2.96994 -0.975366 0
M  V30 388 H 32.7983 -3.68276 1.40593 0
M  V30 389 H 34.0863 -4.90001 1.37029 0
M  V30 390 H 33.4843 -5.37104 -1.77583 0
M  V30 391 H 32.0413 -6.2984 -1.67764 0
M  V30 392 N 35.4744 -0.807222 -1.35358 0
M  V30 393 C 36.4224 -0.20614 -2.31685 0
M  V30 394 C 37.4164 0.644445 -1.56663 0
M  V30 395 O 38.6224 0.537538 -1.71786 0
M  V30 396 H 34.9974 -0.0479006 -0.750473 0
M  V30 397 H 36.9684 -1.03369 -2.79924 0
M  V30 398 C 35.7174 0.630212 -3.41941 0
M  V30 399 H 35.0404 -0.0149558 -3.99797 0
M  V30 400 H 36.4804 1.01716 -4.11619 0
M  V30 401 C 34.9394 1.79601 -2.85035 0
M  V30 402 O 35.4694 2.89351 -2.78637 0
M  V30 403 N 33.6754 1.60774 -2.42074 0
M  V30 404 H 33.2224 0.715009 -2.47478 0
M  V30 405 H 33.1804 2.38933 -2.04349 0
M  V30 406 N 36.9525 1.47285 -0.560781 0
M  V30 407 C 37.8845 2.28118 0.222438 0
M  V30 408 C 38.8975 1.37219 0.876056 0
M  V30 409 O 40.0865 1.62011 0.749307 0
M  V30 410 C 37.1865 3.1159 1.33285 0
M  V30 411 C 36.3595 4.30473 0.77534 0
M  V30 412 C 35.4185 4.95513 1.77069 0
M  V30 413 O 34.4445 5.53792 1.31539 0
M  V30 414 N 35.6465 4.90531 3.10418 0
M  V30 415 H 38.4115 2.95976 -0.470958 0
M  V30 416 H 35.9725 1.56955 -0.39709 0
M  V30 417 H 37.9645 3.51967 1.99752 0
M  V30 418 H 36.5345 2.45951 1.92943 0
M  V30 419 H 35.7545 3.94144 -0.0662113 0
M  V30 420 H 37.0425 5.07362 0.382272 0
M  V30 421 H 36.4405 4.44389 3.5005 0
M  V30 422 H 34.9975 5.34917 3.72434 0
M  V30 423 N 38.4306 0.297415 1.54768 0
M  V30 424 C 39.6586 -0.315623 2.04478 0
M  V30 425 C 40.0736 -1.47792 1.17486 0
M  V30 426 O 39.4306 -1.81404 0.19971 0
M  V30 427 C 39.4816 -0.7753 3.53088 0
M  V30 428 O 39.2026 0.340732 4.36773 0
M  V30 429 C 40.7036 -1.45386 4.18781 0
M  V30 430 H 37.9236 -0.0690887 0.667434 0
M  V30 431 H 40.4676 0.436003 1.99798 0
M  V30 432 H 38.6226 -1.47696 3.58141 0
M  V30 433 H 39.0366 -0.0165035 5.24497 0
M  V30 434 H 40.5106 -1.72669 5.24299 0
M  V30 435 H 40.9876 -2.39275 3.68299 0
M  V30 436 H 41.5936 -0.795475 4.17795 0
M  V30 437 N 39.9087 -1.5758 0.0250728 0
M  V30 438 C 41.3247 -1.56124 -0.331282 0
M  V30 439 C 41.5247 -1.03029 -1.73169 0
M  V30 440 O 40.5807 -0.675215 -2.43305 0
M  V30 441 C 41.8937 -3.00139 -0.183584 0
M  V30 442 C 43.4417 -3.11946 -0.256654 0
M  V30 443 C 43.9167 -4.57793 -0.137792 0
M  V30 444 N 45.4077 -4.6279 -0.194904 0
M  V30 445 C 46.1427 -5.7326 -0.126655 0
M  V30 446 N 45.6387 -6.928 -0.00755288 0
M  V30 447 N 47.4317 -5.61811 -0.180348 0
M  V30 448 H 39.5827 -1.90424 0.94087 0
M  V30 449 H 41.8457 -0.875761 0.362968 0
M  V30 450 H 41.5517 -3.4292 0.780927 0
M  V30 451 H 41.4257 -3.64899 -0.955448 0
M  V30 452 H 43.8127 -2.69079 -1.21162 0
M  V30 453 H 43.8937 -2.49915 0.545517 0
M  V30 454 H 43.5377 -5.01339 0.813739 0
M  V30 455 H 43.4677 -5.17798 -0.958775 0
M  V30 456 H 45.9587 -3.76807 -0.287267 0
M  V30 457 H 46.2717 -7.72791 0.0379428 0
M  V30 458 H 44.6167 -6.94995 0.0271731 0
M  V30 459 H 47.8077 -4.6731 -0.271767 0
M  V30 460 H 47.9807 -6.47882 -0.123697 0
M  V30 461 N 41.3868 0.248026 -1.55636 0
M  V30 462 C 42.3348 1.32683 -1.91045 0
M  V30 463 C 43.3288 1.49883 -0.789401 0
M  V30 464 O 44.5348 1.51371 -0.974007 0
M  V30 465 H 40.9098 0.444272 -0.606734 0
M  V30 466 H 42.8808 1.00085 -2.81115 0
M  V30 467 C 41.6298 2.6755 -2.22064 0
M  V30 468 H 40.9528 2.55114 -3.07826 0
M  V30 469 H 42.3928 3.41912 -2.50743 0
M  V30 470 C 40.8518 3.20556 -1.0366 0
M  V30 471 O 41.3818 4.00695 -0.284016 0
M  V30 472 N 39.5878 2.78568 -0.82753 0
M  V30 473 H 39.1348 2.1351 -1.44123 0
M  V30 474 H 39.0928 3.14378 -0.0369803 0
M  V30 475 N 42.8649 1.48995 0.513639 0
M  V30 476 C 44.1049 1.59452 1.27885 0
M  V30 477 C 44.4689 0.269479 1.90099 0
M  V30 478 O 45.6699 0.249139 2.67643 0
M  V30 479 C 43.9409 2.71277 2.32688 0
M  V30 480 S 45.4999 3.01604 3.18717 0
M  V30 481 H 42.3179 0.562565 0.434789 0
M  V30 482 H 44.9199 1.86595 0.583301 0
M  V30 483 H 43.6239 3.66089 1.8549 0
M  V30 484 H 43.1549 2.46086 3.06929 0
M  V30 485 H 45.1699 2.42155 4.331 0
M  V30 486 N 44.343 -0.763751 1.37857 0
M  V30 487 C 45.589 -1.52396 1.3471 0
M  V30 488 C 45.944 -1.92288 -0.0656435 0
M  V30 489 O 45.237 -1.6181 -1.02606 0
M  V30 490 C 45.431 -2.79499 2.22745 0
M  V30 491 C 45.26 -2.52031 3.72438 0
M  V30 492 C 44.03 -2.45759 4.4151 0
M  V30 493 C 46.228 -2.19489 4.65112 0
M  V30 494 N 44.21 -2.1046 5.76697 0
M  V30 495 C 45.581 -1.94396 5.88736 0
M  V30 496 C 47.636 -2.05712 4.53417 0
M  V30 497 C 46.339 -1.56917 7.01975 0
M  V30 498 C 48.365 -1.69634 5.66549 0
M  V30 499 C 47.727 -1.45407 6.89229 0
M  V30 500 H 43.826 -0.55765 0.548225 0
M  V30 501 H 46.41 -0.890302 1.73152 0
M  V30 502 H 44.581 -3.4069 1.86507 0
M  V30 503 H 46.313 -3.45465 2.10798 0
M  V30 504 H 43.068 -2.61885 3.94605 0
M  V30 505 H 43.492 -1.95484 6.48163 0
M  V30 506 H 48.134 -2.23123 3.59133 0
M  V30 507 H 45.852 -1.38246 7.96187 0
M  V30 508 H 49.438 -1.59621 5.59475 0
M  V30 509 H 48.318 -1.17904 7.75286 0
M  V30 510 N 45.8211 -1.22559 -0.990812 0
M  V30 511 C 46.7531 -0.955325 -2.08342 0
M  V30 512 C 47.7661 0.0668408 -1.62663 0
M  V30 513 O 48.9551 -0.167421 -1.77713 0
M  V30 514 C 46.0551 -0.415566 -3.36342 0
M  V30 515 C 45.2281 -1.49544 -4.11042 0
M  V30 516 C 44.2871 -0.962399 -5.17324 0
M  V30 517 O 43.3131 -1.64907 -5.44788 0
M  V30 518 N 44.5151 0.215134 -5.80101 0
M  V30 519 H 47.2801 -1.89596 -2.32106 0
M  V30 520 H 44.8411 -1.13276 -1.15673 0
M  V30 521 H 46.8331 -0.0442386 -4.04676 0
M  V30 522 H 45.4031 0.430232 -3.09625 0
M  V30 523 H 44.6231 -2.04 -3.37309 0
M  V30 524 H 45.9111 -2.22195 -4.57719 0
M  V30 525 H 45.3091 0.789779 -5.6016 0
M  V30 526 H 43.8661 0.527826 -6.49659 0
M  V30 527 N 47.2992 1.18797 -1.03562 0
M  V30 528 C 48.2472 2.24297 -0.615905 0
M  V30 529 C 49.2412 1.65643 0.354808 0
M  V30 530 O 50.4472 1.78618 0.22265 0
M  V30 531 H 46.8222 0.729909 -0.180934 0
M  V30 532 H 48.7932 2.5701 -1.5162 0
M  V30 533 C 47.5422 3.47698 0.0104735 0
M  V30 534 H 46.8652 3.93125 -0.727509 0
M  V30 535 H 48.3052 4.23159 0.266995 0
M  V30 536 C 46.7642 3.12489 1.25905 0
M  V30 537 O 47.2942 3.25761 2.35038 0
M  V30 538 N 45.5002 2.6686 1.15039 0
M  V30 539 H 45.0472 2.56261 0.262328 0
M  V30 540 H 45.0052 2.43674 1.98672 0
M  V30 541 N 48.7773 0.814389 1.34928 0
M  V30 542 C 50.0073 0.41054 2.0248 0
M  V30 543 C 50.4153 -0.985625 1.61499 0
M  V30 544 O 49.7583 -1.64781 0.811976 0
M  V30 545 C 49.8203 0.423384 3.56998 0
M  V30 546 C 49.4843 1.77141 4.21272 0
M  V30 547 C 50.4813 2.73093 4.42398 0
M  V30 548 C 48.1663 2.05755 4.58225 0
M  V30 549 C 50.1603 3.95838 4.9959 0
M  V30 550 C 47.8473 3.28762 5.1513 0
M  V30 551 C 48.8453 4.23621 5.35755 0
M  V30 552 O 48.5333 5.44456 5.91458 0
M  V30 553 H 48.2653 0.163997 0.655806 0
M  V30 554 H 50.8193 1.10155 1.73364 0
M  V30 555 H 49.0493 -0.324276 3.85338 0
M  V30 556 H 50.7383 0.0407683 4.0588 0
M  V30 557 H 51.5043 2.5228 4.14222 0
M  V30 558 H 47.3833 1.32727 4.4148 0
M  V30 559 H 50.9273 4.69891 5.15605 0
M  V30 560 H 46.8243 3.49443 5.42734 0
M  V30 561 H 47.5923 5.4586 6.09901 0
M  V30 562 N 50.2554 -1.46986 0.568584 0
M  V30 563 C 51.1854 -2.32946 -0.160753 0
M  V30 564 C 52.1664 -1.44487 -0.897631 0
M  V30 565 O 53.3514 -1.73327 -0.875867 0
M  V30 566 C 50.4814 -3.26494 -1.18403 0
M  V30 567 C 49.4354 -4.24282 -0.562895 0
M  V30 568 C 48.7614 -5.07236 -1.69163 0
M  V30 569 C 50.0614 -5.19989 0.490761 0
M  V30 570 H 51.7554 -2.94175 0.556916 0
M  V30 571 H 49.3014 -1.4146 0.26927 0
M  V30 572 H 51.2544 -3.85477 -1.70251 0
M  V30 573 H 49.9784 -2.63343 -1.93179 0
M  V30 574 H 48.6374 -3.66541 -0.0656164 0
M  V30 575 H 48.2854 -4.4048 -2.42871 0
M  V30 576 H 47.9854 -5.7345 -1.28174 0
M  V30 577 H 49.5094 -5.6908 -2.21314 0
M  V30 578 H 50.9234 -5.73271 0.0579047 0
M  V30 579 H 49.3204 -5.94469 0.820165 0
M  V30 580 H 50.3904 -4.64777 1.3824 0
M  V30 581 N 51.7335 -0.305618 -1.54608 0
M  V30 582 C 53.0105 0.355652 -1.92339 0
M  V30 583 C 53.3905 1.71324 -1.23335 0
M  V30 584 O 52.7385 2.25473 -0.370702 0
M  V30 585 C 52.9485 0.46572 -3.45879 0
M  V30 586 C 54.2965 0.734426 -4.182 0
M  V30 587 O 55.3205 0.54935 -3.51938 0
M  V30 588 O 54.1795 1.09024 -5.35515 0
M  V30 589 H 51.2735 0.199666 -0.802535 0
M  V30 590 H 53.8195 -0.354017 -1.65966 0
M  V30 591 H 52.5915 -0.488461 -3.88239 0
M  V30 592 H 52.2145 1.22367 -3.78301 0
M  V30 593 N 53.2116 1.57565 -0.0334293 0
M  V30 594 C 54.4586 1.91978 0.644272 0
M  V30 595 C 54.7866 0.910231 1.71887 0
M  V30 596 O 54.0416 -0.0801961 1.95536 0
M  V30 597 C 54.3406 3.33112 1.29504 0
M  V30 598 C 54.0066 4.49537 0.350388 0
M  V30 599 C 52.6686 4.81115 0.0903974 0
M  V30 600 C 55.0206 5.20347 -0.298032 0
M  V30 601 C 52.3486 5.8086 -0.825746 0
M  V30 602 C 54.7006 6.2107 -1.20226 0
M  V30 603 C 53.3646 6.51088 -1.4711 0
M  V30 604 H 52.6346 0.702496 0.235756 0
M  V30 605 H 55.2816 1.91259 -0.0961176 0
M  V30 606 H 53.5866 3.30113 2.11028 0
M  V30 607 H 55.2836 3.57011 1.82603 0
M  V30 608 H 51.8736 4.24883 0.563205 0
M  V30 609 H 56.0576 4.96178 -0.110234 0
M  V30 610 H 51.3136 6.02461 -1.04169 0
M  V30 611 H 55.4876 6.75057 -1.71086 0
M  V30 612 H 53.1146 7.28193 -2.18264 0
M  V30 613 N 54.6897 -0.239769 1.55765 0
M  V30 614 C 55.6397 -1.30002 1.87306 0
M  V30 615 C 56.6237 -1.43156 0.73452 0
M  V30 616 O 57.8157 -1.46277 0.99659 0
M  V30 617 C 54.9447 -2.65409 2.17745 0
M  V30 618 C 54.0307 -2.56231 3.37945 0
M  V30 619 N 54.4217 -2.16689 4.57033 0
M  V30 620 C 52.7197 -2.87229 3.41197 0
M  V30 621 C 53.4207 -2.18318 5.39177 0
M  V30 622 N 52.3967 -2.58098 4.78421 0
M  V30 623 H 56.1987 -0.984912 2.76906 0
M  V30 624 H 53.7127 -0.448381 1.56087 0
M  V30 625 H 55.7097 -3.41934 2.38509 0
M  V30 626 H 54.3697 -2.97781 1.29448 0
M  V30 627 H 55.3807 -1.88116 4.82528 0
M  V30 628 H 52.0577 -3.24094 2.63191 0
M  V30 629 H 53.4477 -1.90025 6.44469 0
M  V30 630 N 56.1678 -1.49265 -0.50573 0
M  V30 631 C 57.5838 -1.35923 -0.836486 0
M  V30 632 C 57.7838 -0.388704 -1.97715 0
M  V30 633 O 56.8398 0.181336 -2.51848 0
M  V30 634 C 58.1528 -2.76531 -1.18115 0
M  V30 635 C 59.7008 -2.85197 -1.28964 0
M  V30 636 C 60.1758 -4.26561 -1.66761 0
M  V30 637 N 61.6668 -4.2935 -1.73819 0
M  V30 638 C 62.4018 -5.35693 -2.045 0
M  V30 639 N 61.8978 -6.52287 -2.33438 0
M  V30 640 N 63.6908 -5.23105 -2.05711 0
M  V30 641 H 55.8418 -2.10965 0.246519 0
M  V30 642 H 58.1048 -0.9468 0.0476887 0
M  V30 643 H 57.8108 -3.49226 -0.416398 0
M  V30 644 H 57.6848 -3.11599 -2.1257 0
M  V30 645 H 60.0718 -2.12742 -2.04511 0
M  V30 646 H 60.1528 -2.53718 -0.325704 0
M  V30 647 H 59.7968 -4.99541 -0.917656 0
M  V30 648 H 59.7268 -4.55502 -2.64246 0
M  V30 649 H 62.2178 -3.4526 -1.53635 0
M  V30 650 H 62.5308 -7.29158 -2.56024 0
M  V30 651 H 60.8758 -6.55521 -2.30905 0
M  V30 652 H 64.0668 -4.31026 -1.82577 0
M  V30 653 H 64.2398 -6.06078 -2.29289 0
M  V30 654 N 57.6459 0.756429 -1.3826 0
M  V30 655 C 58.8859 1.52833 -1.35725 0
M  V30 656 C 59.2499 1.91926 0.0534106 0
M  V30 657 O 60.4509 2.68028 0.203613 0
M  V30 658 C 58.7219 2.74919 -2.28373 0
M  V30 659 S 60.2809 3.64817 -2.43832 0
M  V30 660 H 57.0989 0.523043 -0.481608 0
M  V30 661 H 59.7009 0.888212 -1.74158 0
M  V30 662 H 58.4049 2.44304 -3.29763 0
M  V30 663 H 57.9359 3.43878 -1.91079 0
M  V30 664 H 59.9509 4.676 -1.66027 0
M  V30 665 N 59.124 1.23083 0.984299 0
M  V30 666 C 60.056 0.96636 2.07832 0
M  V30 667 C 61.069 -0.0582135 1.62696 0
M  V30 668 O 62.258 0.176843 1.77622 0
M  V30 669 C 59.358 0.433397 3.36117 0
M  V30 670 C 58.531 1.51722 4.10243 0
M  V30 671 C 57.59 0.989821 5.16807 0
M  V30 672 O 56.616 1.67794 5.43906 0
M  V30 673 N 57.818 -0.184367 5.80207 0
M  V30 674 H 60.583 1.90824 2.31098 0
M  V30 675 H 58.144 1.13888 1.1507 0
M  V30 676 H 60.136 0.065699 4.04647 0
M  V30 677 H 58.706 -0.413806 3.09849 0
M  V30 678 H 57.926 2.05786 3.36223 0
M  V30 679 H 59.214 2.24619 4.56534 0
M  V30 680 H 58.612 -0.760062 5.60571 0
M  V30 681 H 57.169 -0.493366 6.4993 0
M  V30 682 N 60.6021 -1.18246 1.0419 0
M  V30 683 C 61.5491 -2.2192 0.634037 0
M  V30 684 C 62.5191 -1.62179 -0.358765 0
M  V30 685 O 63.7041 -1.89122 -0.252466 0
M  V30 686 C 60.8441 -3.451 0.00445535 0
M  V30 687 C 59.9571 -4.19174 1.04487 0
M  V30 688 C 59.0921 -5.29813 0.383676 0
M  V30 689 C 58.1311 -5.9566 1.4091 0
M  V30 690 N 57.2681 -6.97834 0.772784 0
M  V30 691 H 62.1081 -2.56164 1.52263 0
M  V30 692 H 59.6451 -1.25843 0.761701 0
M  V30 693 H 61.6031 -4.15485 -0.377919 0
M  V30 694 H 60.2331 -3.11472 -0.847652 0
M  V30 695 H 59.2851 -3.47604 1.54518 0
M  V30 696 H 60.5971 -4.64267 1.82368 0
M  V30 697 H 59.7511 -6.06677 -0.0528366 0
M  V30 698 H 58.4901 -4.85825 -0.427208 0
M  V30 699 H 57.4951 -5.17535 1.85574 0
M  V30 700 H 58.7201 -6.4173 2.22171 0
M  V30 701 H 56.6661 -6.55998 -0.0177708 0
M  V30 702 H 56.5831 -7.41186 1.48928 0
M  V30 703 H 57.8511 -7.78665 0.36071 0
M  V30 704 N 62.0802 -0.821533 -1.34494 0
M  V30 705 C 63.0432 -0.247847 -2.27856 0
M  V30 706 C 64.0432 0.573453 -1.50227 0
M  V30 707 O 65.2332 0.389759 -1.69784 0
M  V30 708 C 62.3652 0.652698 -3.34593 0
M  V30 709 H 63.5582 -1.07146 -2.80107 0
M  V30 710 H 61.1112 -0.593291 -1.44602 0
M  V30 711 H 61.8462 1.49943 -2.87555 0
M  V30 712 H 61.6312 0.065292 -3.92046 0
M  V30 713 H 63.1212 1.04793 -4.04238 0
M  V30 714 N 63.5583 1.46682 -0.576371 0
M  V30 715 C 64.4913 2.27243 0.208731 0
M  V30 716 C 65.4693 1.35238 0.902746 0
M  V30 717 O 66.6533 1.64641 0.917904 0
M  V30 718 C 63.7803 3.12802 1.29896 0
M  V30 719 C 62.8263 4.20524 0.711457 0
M  V30 720 S 63.6593 5.33548 -0.456781 0
M  V30 721 C 64.8153 6.22673 0.634798 0
M  V30 722 H 65.0483 2.93484 -0.474838 0
M  V30 723 H 62.5813 1.50069 -0.363118 0
M  V30 724 H 64.5393 3.62661 1.92321 0
M  V30 725 H 63.2003 2.45887 1.95444 0
M  V30 726 H 62.3933 4.80191 1.53076 0
M  V30 727 H 61.9953 3.73645 0.162999 0
M  V30 728 H 64.2873 6.60181 1.52209 0
M  V30 729 H 65.2303 7.0806 0.0750311 0
M  V30 730 H 65.6383 5.56684 0.936092 0
M  V30 731 N 65.0364 0.313813 1.54444 0
M  V30 732 C 66.2644 -0.293918 2.04802 0
M  V30 733 C 66.6794 -1.46537 1.19047 0
M  V30 734 O 66.0364 -1.81182 0.218939 0
M  V30 735 C 66.0874 -0.737806 3.53891 0
M  V30 736 O 65.8084 0.387038 4.36387 0
M  V30 737 C 67.3094 -1.40936 4.203 0
M  V30 738 H 64.5294 -0.0620057 0.668129 0
M  V30 739 H 67.0734 0.457169 1.99324 0
M  V30 740 H 65.2284 -1.43889 3.59687 0
M  V30 741 H 65.6424 0.0391274 5.24485 0
M  V30 742 H 67.1164 -1.67099 5.26101 0
M  V30 743 H 67.5934 -2.35355 3.70816 0
M  V30 744 H 68.1994 -0.751117 4.18615 0
M  V30 745 N 66.5145 -1.57545 0.0417849 0
M  V30 746 C 67.4775 -2.09885 -0.92093 0
M  V30 747 C 68.4775 -1.01648 -1.24596 0
M  V30 748 O 69.6675 -1.27759 -1.1842 0
M  V30 749 C 66.7995 -2.57527 -2.23367 0
M  V30 750 H 67.9925 -2.96236 -0.467382 0
M  V30 751 H 65.5455 -1.5493 -0.206467 0
M  V30 752 H 66.2805 -1.74542 -2.73323 0
M  V30 753 H 66.0655 -3.36613 -2.01083 0
M  V30 754 H 67.5555 -2.98201 -2.92346 0
M  V30 755 N 67.9926 0.231505 -1.5589 0
M  V30 756 C 68.9396 1.28682 -1.91598 0
M  V30 757 C 69.9096 1.47071 -0.771974 0
M  V30 758 O 71.0946 1.60802 -1.027 0
M  V30 759 C 68.2346 2.6342 -2.22944 0
M  V30 760 C 67.3476 2.52912 -3.50228 0
M  V30 761 C 66.4826 3.80106 -3.7107 0
M  V30 762 C 65.5216 3.64279 -4.91902 0
M  V30 763 N 64.6586 4.834 -5.09184 0
M  V30 764 H 69.4986 0.975305 -2.81588 0
M  V30 765 H 67.0356 0.470299 -1.39379 0
M  V30 766 H 68.9936 3.41869 -2.39126 0
M  V30 767 H 67.6236 2.92687 -1.36139 0
M  V30 768 H 66.6756 1.6595 -3.42294 0
M  V30 769 H 67.9876 2.37133 -4.38827 0
M  V30 770 H 67.1416 4.66999 -3.87295 0
M  V30 771 H 65.8806 3.98799 -2.80733 0
M  V30 772 H 64.8856 2.7577 -4.75637 0
M  V30 773 H 66.1106 3.47067 -5.83714 0
M  V30 774 H 64.0566 5.02425 -4.21788 0
M  V30 775 H 63.9736 4.70311 -5.91898 0
M  V30 776 H 65.2416 5.71747 -5.29835 0
M  V30 777 N 69.4707 1.49531 0.497807 0
M  V30 778 C 70.7187 1.58865 1.24926 0
M  V30 779 C 71.0397 0.278721 1.92998 0
M  V30 780 O 70.3097 -0.702144 1.82885 0
M  V30 781 H 68.8897 0.585343 0.464094 0
M  V30 782 H 71.5517 1.86174 0.57666 0
M  V30 783 H 70.6477 2.38633 2.01149 0
M  V30 784 N 70.9488 -0.749086 1.3866 0
M  V30 785 C 72.1968 -1.50535 1.34847 0
M  V30 786 C 72.5178 -1.94909 -0.0595016 0
M  V30 787 O 71.7878 -1.67973 -1.00806 0
M  V30 788 H 70.3678 -0.558395 0.49619 0
M  V30 789 H 73.0298 -0.890165 1.73384 0
M  V30 790 H 72.1258 -2.39413 2.00219 0
M  V30 791 N 72.4269 -1.23603 -0.977757 0
M  V30 792 C 73.7039 -0.977897 -1.69401 0
M  V30 793 C 74.0839 0.502738 -2.05026 0
M  V30 794 O 73.4319 1.47459 -1.74551 0
M  V30 795 C 73.6419 -1.89077 -2.93345 0
M  V30 796 C 74.9899 -2.15579 -3.65802 0
M  V30 797 O 76.0139 -1.86648 -3.03383 0
M  V30 798 O 74.8729 -2.64658 -4.78141 0
M  V30 799 H 71.9669 -0.369025 -0.740101 0
M  V30 800 H 74.5129 -1.34657 -1.03274 0
M  V30 801 H 73.2849 -2.89158 -2.63634 0
M  V30 802 H 72.9079 -1.52463 -3.67207 0
M  V30 803 N 73.905 1.17692 -1.04816 0
M  V30 804 C 75.154 1.87192 -0.751132 0
M  V30 805 C 75.467 1.8169 0.724441 0
M  V30 806 O 76.673 2.46625 1.13527 0
M  V30 807 C 75.129 3.35857 -1.29338 0
M  V30 808 C 74.737 3.4987 -2.79812 0
M  V30 809 C 76.481 4.10709 -1.07322 0
M  V30 810 C 74.388 4.92536 -3.27356 0
M  V30 811 H 73.318 0.701162 -0.277288 0
M  V30 812 H 75.969 1.32932 -1.26496 0
M  V30 813 H 74.351 3.89631 -0.707376 0
M  V30 814 H 75.525 3.06332 -3.44235 0
M  V30 815 H 73.84 2.88433 -3.00325 0
M  V30 816 H 76.437 5.15952 -1.4035 0
M  V30 817 H 76.78 4.16299 -0.0108001 0
M  V30 818 H 77.313 3.6313 -1.62423 0
M  V30 819 H 74.052 4.92119 -4.33012 0
M  V30 820 H 73.572 5.3676 -2.67673 0
M  V30 821 H 75.251 5.61288 -3.21815 0
M  V30 822 N 75.3831 0.828654 1.34056 0
M  V30 823 C 76.6081 0.431637 2.02859 0
M  V30 824 C 77.0331 -0.956339 1.61975 0
M  V30 825 O 76.3911 -1.62338 0.807228 0
M  V30 826 C 76.4391 0.548323 3.56407 0
M  V30 827 O 75.5431 -0.429556 4.10157 0
M  V30 828 H 74.8841 0.176886 0.640006 0
M  V30 829 H 77.4141 1.12066 1.71179 0
M  V30 830 H 77.4241 0.426196 4.05768 0
M  V30 831 H 76.0991 1.5606 3.8551 0
M  V30 832 H 74.6761 -0.265836 3.71951 0
M  V30 833 N 76.8612 -1.46375 0.584142 0
M  V30 834 C 78.1072 -2.02678 0.0703716 0
M  V30 835 C 78.4402 -1.4545 -1.28678 0
M  V30 836 O 77.7152 -0.62014 -1.84349 0
M  V30 837 C 77.9982 -3.60099 0.00614674 0
M  V30 838 C 77.8512 -4.27709 1.3923 0
M  V30 839 C 79.1702 -4.34598 -0.693742 0
M  V30 840 H 76.2892 -0.736504 0.027047 0
M  V30 841 H 78.9312 -1.74501 0.751615 0
M  V30 842 H 77.0812 -3.84236 -0.574009 0
M  V30 843 H 78.7532 -4.14832 2.01773 0
M  V30 844 H 76.9962 -3.87016 1.95962 0
M  V30 845 H 77.6672 -5.36478 1.29982 0
M  V30 846 H 80.1432 -4.15615 -0.200869 0
M  V30 847 H 79.0192 -5.44318 -0.707714 0
M  V30 848 H 79.2802 -4.05759 -1.75533 0
M  V30 849 N 78.3393 -0.321999 -1.54275 0
M  V30 850 C 79.5793 0.281657 -2.0245 0
M  V30 851 C 79.9433 1.49468 -1.20513 0
M  V30 852 O 81.1443 2.17109 -1.58484 0
M  V30 853 C 79.4153 0.609014 -3.52173 0
M  V30 854 S 80.9743 1.19255 -4.22284 0
M  V30 855 H 77.7923 0.0852825 -0.705867 0
M  V30 856 H 80.3943 -0.454758 -1.90137 0
M  V30 857 H 79.0983 -0.281982 -4.0943 0
M  V30 858 H 78.6293 1.37567 -3.68563 0
M  V30 859 H 80.6443 2.47944 -4.29812 0
M  V30 860 N 79.8174 1.5752 -0.0501392 0
M  V30 861 C 80.7274 2.14952 0.939827 0
M  V30 862 C 81.7434 1.10706 1.34239 0
M  V30 863 O 82.9194 1.42869 1.41952 0
M  V30 864 C 79.9844 2.68232 2.19665 0
M  V30 865 C 79.0454 3.87272 1.85253 0
M  V30 866 C 78.2784 4.38002 3.04943 0
M  V30 867 O 78.5014 3.87811 4.18281 0
M  V30 868 O 77.4354 5.29602 2.86017 0
M  V30 869 H 81.2614 2.9986 0.481392 0
M  V30 870 H 78.8464 1.4841 0.171699 0
M  V30 871 H 80.7284 3.02475 2.93406 0
M  V30 872 H 79.4034 1.86395 2.64648 0
M  V30 873 H 78.3104 3.5792 1.0883 0
M  V30 874 H 79.6434 4.70336 1.4507 0
M  V30 875 N 81.2955 -0.223234 1.56011 0
M  V30 876 C 82.5415 -0.944891 1.8012 0
M  V30 877 C 82.8965 -1.82039 0.622862 0
M  V30 878 O 82.1895 -1.8773 -0.383143 0
M  V30 879 C 82.3835 -1.81948 3.0762 0
M  V30 880 C 82.2125 -1.03014 4.37742 0
M  V30 881 C 80.9825 -0.72574 5.00061 0
M  V30 882 C 83.1805 -0.396256 5.12771 0
M  V30 883 N 81.1625 0.0851816 6.13841 0
M  V30 884 C 82.5335 0.278137 6.19376 0
M  V30 885 C 84.5885 -0.309117 4.9694 0
M  V30 886 C 83.2915 1.03133 7.11868 0
M  V30 887 C 85.3175 0.430607 5.8983 0
M  V30 888 C 84.6795 1.09355 6.9586 0
M  V30 889 H 80.7785 -0.326081 0.710771 0
M  V30 890 H 83.3625 -0.215914 1.93499 0
M  V30 891 H 81.5335 -2.52029 2.95527 0
M  V30 892 H 83.2655 -2.47848 3.19927 0
M  V30 893 H 80.0205 -1.04335 4.61964 0
M  V30 894 H 80.4445 0.479428 6.753 0
M  V30 895 H 85.0865 -0.807313 4.15021 0
M  V30 896 H 82.8045 1.54105 7.9327 0
M  V30 897 H 86.3905 0.499012 5.79656 0
M  V30 898 H 85.2705 1.65679 7.66499 0
M  V30 899 N 82.7736 -1.49793 -0.48987 0
M  V30 900 C 84.0036 -1.6333 -1.26518 0
M  V30 901 C 84.4116 -0.308392 -1.8667 0
M  V30 902 O 83.7546 0.717512 -1.69108 0
M  V30 903 C 83.8166 -2.6522 -2.4269 0
M  V30 904 C 83.4806 -4.09279 -2.03321 0
M  V30 905 C 84.4776 -4.95738 -1.56652 0
M  V30 906 C 82.1626 -4.55082 -2.12616 0
M  V30 907 C 84.1566 -6.26041 -1.19795 0
M  V30 908 C 81.8436 -5.85396 -1.75371 0
M  V30 909 C 82.8416 -6.707 -1.29036 0
M  V30 910 O 82.5296 -7.98584 -0.92299 0
M  V30 911 H 82.2616 -0.552502 -0.389509 0
M  V30 912 H 84.8156 -1.96642 -0.593381 0
M  V30 913 H 83.0456 -2.27112 -3.12981 0
M  V30 914 H 84.7346 -2.68171 -3.04695 0
M  V30 915 H 85.5006 -4.61575 -1.48908 0
M  V30 916 H 81.3796 -3.88844 -2.47631 0
M  V30 917 H 84.9236 -6.92578 -0.835582 0
M  V30 918 H 80.8206 -6.19085 -1.82768 0
M  V30 919 H 81.5886 -8.11692 -1.05349 0
M  V30 920 N 84.2517 0.741722 -1.39055 0
M  V30 921 C 85.1837 1.8657 -1.33133 0
M  V30 922 C 86.1967 1.61001 -0.241329 0
M  V30 923 O 87.3857 1.7136 -0.499784 0
M  V30 924 C 84.4857 3.22457 -1.04283 0
M  V30 925 C 83.6587 3.75435 -2.24427 0
M  V30 926 C 82.7177 4.89867 -1.92138 0
M  V30 927 O 81.7437 5.03879 -2.64754 0
M  V30 928 N 82.9457 5.73738 -0.88347 0
M  V30 929 H 85.7107 1.92156 -2.29991 0
M  V30 930 H 83.2717 0.922172 -1.3307 0
M  V30 931 H 85.2637 3.9657 -0.807128 0
M  V30 932 H 83.8337 3.12181 -0.161807 0
M  V30 933 H 83.0537 2.92751 -2.6399 0
M  V30 934 H 84.3417 4.07563 -3.04581 0
M  V30 935 H 83.7397 5.64999 -0.281517 0
M  V30 936 H 82.2967 6.47947 -0.707662 0
M  V30 937 N 85.7298 1.2412 0.971189 0
M  V30 938 C 87.1458 1.00584 1.23916 0
M  V30 939 C 87.3458 -0.287481 1.99439 0
M  V30 940 O 86.4018 -1.00454 2.31658 0
M  V30 941 C 87.7148 2.21864 2.0297 0
M  V30 942 C 89.2628 2.26452 2.16076 0
M  V30 943 C 89.7378 3.47343 2.98524 0
M  V30 944 N 91.2288 3.47639 3.06107 0
M  V30 945 C 91.9638 4.37837 3.70251 0
M  V30 946 N 91.4598 5.38286 4.36142 0
M  V30 947 N 93.2528 4.25558 3.67228 0
M  V30 948 H 85.4038 2.07236 0.465499 0
M  V30 949 H 87.6668 0.909236 0.268315 0
M  V30 950 H 87.3728 3.15771 1.54861 0
M  V30 951 H 87.2468 2.23698 3.03709 0
M  V30 952 H 89.6338 1.33078 2.6339 0
M  V30 953 H 89.7148 2.28645 1.14696 0
M  V30 954 H 89.3588 4.41029 2.51905 0
M  V30 955 H 89.2888 3.42393 4.00093 0
M  V30 956 H 91.7798 2.74966 2.59233 0
M  V30 957 H 92.0928 6.03352 4.82894 0
M  V30 958 H 90.4378 5.42176 4.34822 0
M  V30 959 H 93.6288 3.46322 3.14927 0
M  V30 960 H 93.8018 4.96054 4.16935 0
M  V30 961 N 87.2079 -1.17134 1.05439 0
M  V30 962 C 88.4539 -1.87733 0.767077 0
M  V30 963 C 88.7869 -1.8098 -0.704253 0
M  V30 964 O 88.0619 -1.21951 -1.5152 0
M  V30 965 C 88.3449 -3.37659 1.25133 0
M  V30 966 C 88.1979 -3.53149 2.78578 0
M  V30 967 C 89.5169 -4.31768 0.852324 0
M  V30 968 H 86.6359 -0.681687 0.280129 0
M  V30 969 H 89.2779 -1.37732 1.30881 0
M  V30 970 H 87.4279 -3.80373 0.790469 0
M  V30 971 H 89.0999 -3.19434 3.32806 0
M  V30 972 H 87.3429 -2.95345 3.17732 0
M  V30 973 H 88.0139 -4.58403 3.07523 0
M  V30 974 H 90.4899 -3.96909 1.24911 0
M  V30 975 H 89.3659 -5.35199 1.21873 0
M  V30 976 H 89.6269 -4.41429 -0.243485 0
M  V30 977 N 88.686 -0.835752 -1.33615 0
M  V30 978 C 89.916 -0.442701 -2.01801 0
M  V30 979 C 90.324 0.959807 -1.63047 0
M  V30 980 O 89.667 1.63468 -0.838088 0
M  V30 981 C 89.729 -0.480125 -3.56279 0
M  V30 982 C 89.393 -1.8382 -4.18401 0
M  V30 983 C 90.39 -2.80097 -4.37998 0
M  V30 984 C 88.075 -2.13019 -4.54894 0
M  V30 985 C 90.069 -4.03736 -4.9323 0
M  V30 986 C 87.756 -3.36916 -5.09834 0
M  V30 987 C 88.754 -4.32091 -5.28948 0
M  V30 988 O 88.442 -5.53797 -5.82721 0
M  V30 989 H 88.174 -0.17441 -0.653114 0
M  V30 990 H 90.728 -1.129 -1.71589 0
M  V30 991 H 88.958 0.262931 -3.85805 0
M  V30 992 H 90.647 -0.105335 -4.05763 0
M  V30 993 H 91.413 -2.58838 -4.10156 0
M  V30 994 H 87.292 -1.39733 -4.39313 0
M  V30 995 H 90.836 -4.78034 -5.08064 0
M  V30 996 H 86.733 -3.58033 -5.37106 0
M  V30 997 H 87.501 -5.55494 -6.0114 0
M  V30 998 N 90.1641 1.46063 -0.591896 0
M  V30 999 C 91.0961 2.28539 0.174001 0
M  V30 1000 C 92.1091 1.39047 0.846753 0
M  V30 1001 O 93.2981 1.63564 0.714774 0
M  V30 1002 C 90.3981 3.14347 1.26645 0
M  V30 1003 C 89.5711 4.32021 0.683856 0
M  V30 1004 C 88.6301 4.99157 1.66518 0
M  V30 1005 O 87.6561 5.56458 1.19763 0
M  V30 1006 N 88.8581 4.97005 2.99943 0
M  V30 1007 H 91.6231 2.94911 -0.533633 0
M  V30 1008 H 89.1841 1.56077 -0.430294 0
M  V30 1009 H 91.1761 3.56125 1.92242 0
M  V30 1010 H 89.7461 2.49988 1.87682 0
M  V30 1011 H 88.9661 3.93915 -0.1498 0
M  V30 1012 H 90.2541 5.08059 0.274567 0
M  V30 1013 H 89.6521 4.51714 3.40545 0
M  V30 1014 H 88.2091 5.42696 3.61004 0
M  V30 1015 N 91.6422 0.330177 1.54103 0
M  V30 1016 C 92.8672 -0.274893 2.0557 0
M  V30 1017 C 93.2922 -1.44487 1.20437 0
M  V30 1018 O 92.6502 -1.80021 0.214991 0
M  V30 1019 C 92.6982 -0.68079 3.54115 0
M  V30 1020 O 91.8022 -1.7824 3.71893 0
M  V30 1021 H 91.1432 -0.0483849 0.662235 0
M  V30 1022 H 93.6732 0.480508 1.98878 0
M  V30 1023 H 93.6832 -0.961635 3.96505 0
M  V30 1024 H 92.3582 0.174903 4.15532 0
M  V30 1025 H 90.9352 -1.49985 3.41407 0
M  V30 1026 N 93.1203 -1.57491 0.0584922 0
M  V30 1027 C 94.0503 -2.14988 -0.911178 0
M  V30 1028 C 95.0313 -1.07343 -1.31952 0
M  V30 1029 O 96.2163 -1.35318 -1.39294 0
M  V30 1030 C 93.3463 -2.70078 -2.18347 0
M  V30 1031 C 92.3003 -3.82771 -1.91495 0
M  V30 1032 C 91.6263 -4.24408 -3.25241 0
M  V30 1033 C 92.9263 -5.07592 -1.23075 0
M  V30 1034 H 94.6203 -2.96263 -0.432246 0
M  V30 1035 H 92.1663 -1.42512 -0.206469 0
M  V30 1036 H 94.1193 -3.08943 -2.86587 0
M  V30 1037 H 92.8433 -1.86005 -2.68458 0
M  V30 1038 H 91.5023 -3.44389 -1.25664 0
M  V30 1039 H 91.1503 -3.37275 -3.73168 0
M  V30 1040 H 90.8503 -5.00366 -3.08071 0
M  V30 1041 H 92.3743 -4.65879 -3.94701 0
M  V30 1042 H 93.7883 -5.43857 -1.81362 0
M  V30 1043 H 92.1853 -5.88741 -1.16207 0
M  V30 1044 H 93.2553 -4.84454 -0.207847 0
M  V30 1045 N 94.5984 0.214957 -1.56127 0
M  V30 1046 C 95.8384 0.945364 -1.81224 0
M  V30 1047 C 96.2024 1.81265 -0.633005 0
M  V30 1048 O 97.4034 2.57731 -0.763423 0
M  V30 1049 C 95.6744 1.75665 -3.1125 0
M  V30 1050 S 97.2334 2.54179 -3.57685 0
M  V30 1051 H 94.0514 0.317443 -0.6362 0
M  V30 1052 H 96.6534 0.210381 -1.94365 0
M  V30 1053 H 95.3574 1.10977 -3.9511 0
M  V30 1054 H 94.8884 2.53381 -3.00934 0
M  V30 1055 H 96.9034 3.7792 -3.21545 0
M  V30 1056 N 96.0765 1.50051 0.48192 0
M  V30 1057 C 97.4875 1.5348 1.06305 0
M  V30 1058 C 97.8385 0.331997 1.93371 0
M  V30 1059 O 96.9635 -0.556256 2.09129 0
M  V30 1060 C 97.5585 2.7813 1.93466 0
M  V30 1061 C 96.1175 2.84275 2.46707 0
M  V30 1062 C 95.2645 2.47637 1.24785 0
M  V30 1063 H 98.2155 1.56472 0.264995 0
M  V30 1064 H 98.2365 2.59372 2.78399 0
M  V30 1065 H 97.7485 3.65654 1.30072 0
M  V30 1066 H 95.8495 2.01077 3.13686 0
M  V30 1067 H 95.9625 3.8691 2.82555 0
M  V30 1068 H 94.3265 1.99835 1.57918 0
M  V30 1069 H 95.1095 3.37457 0.630694 0
M  V30 1070 N 97.5546 -0.734337 1.39446 0
M  V30 1071 C 98.7826 -1.52358 1.39981 0
M  V30 1072 C 99.1976 -1.88799 -0.0054975 0
M  V30 1073 O 98.5546 -1.54146 -0.976998 0
M  V30 1074 C 98.6056 -2.81072 2.27333 0
M  V30 1075 O 98.3266 -2.46178 3.62392 0
M  V30 1076 C 99.8276 -3.75096 2.36259 0
M  V30 1077 H 97.0476 -0.470806 0.478103 0
M  V30 1078 H 99.5916 -0.907339 1.83269 0
M  V30 1079 H 97.7466 -3.39026 1.87457 0
M  V30 1080 H 98.1606 -3.28866 4.08592 0
M  V30 1081 H 99.6346 -4.62305 3.01626 0
M  V30 1082 H 100.112 -4.16892 1.38194 0
M  V30 1083 H 100.718 -3.23061 2.76608 0
M  V30 1084 N 99.0327 -1.24633 -0.964593 0
M  V30 1085 C 100.258 -1.11596 -1.74818 0
M  V30 1086 C 100.683 0.32723 -1.85232 0
M  V30 1087 O 100.041 1.23695 -1.32549 0
M  V30 1088 C 100.089 -1.76397 -3.1451 0
M  V30 1089 O 99.1927 -1.03685 -3.99153 0
M  V30 1090 H 98.5337 -0.390196 -0.537255 0
M  V30 1091 H 101.064 -1.65002 -1.20977 0
M  V30 1092 H 101.074 -1.8228 -3.65018 0
M  V30 1093 H 99.7487 -2.81401 -3.06246 0
M  V30 1094 H 98.3257 -1.05611 -3.57632 0
M  V30 1095 N 100.511 1.16574 -1.06058 0
M  V30 1096 C 101.757 1.87565 -0.78683 0
M  V30 1097 C 102.112 1.80012 0.679214 0
M  V30 1098 O 101.405 1.20327 1.49104 0
M  V30 1099 C 101.599 3.36195 -1.21275 0
M  V30 1100 C 101.428 3.58216 -2.71866 0
M  V30 1101 C 100.198 3.7444 -3.39298 0
M  V30 1102 C 102.396 3.57134 -3.70081 0
M  V30 1103 N 100.378 3.84389 -4.78663 0
M  V30 1104 C 101.749 3.73038 -4.9522 0
M  V30 1105 C 103.804 3.40332 -3.63426 0
M  V30 1106 C 102.507 3.73879 -6.14497 0
M  V30 1107 C 104.533 3.42466 -4.82153 0
M  V30 1108 C 103.895 3.58887 -6.06118 0
M  V30 1109 H 99.9938 0.704081 -0.340284 0
M  V30 1110 H 102.578 1.39885 -1.35426 0
M  V30 1111 H 100.749 3.82522 -0.673179 0
M  V30 1112 H 102.481 3.94839 -0.887917 0
M  V30 1113 H 99.2358 3.74662 -2.89699 0
M  V30 1114 H 99.6598 3.93138 -5.51155 0
M  V30 1115 H 104.302 3.26566 -2.68541 0
M  V30 1116 H 102.02 3.86427 -7.09718 0
M  V30 1117 H 105.606 3.30712 -4.78666 0
M  V30 1118 H 104.486 3.60454 -6.9645 0
M  V30 1119 N 101.989 0.842826 1.3317 0
M  V30 1120 C 103.235 0.441099 1.97945 0
M  V30 1121 C 103.568 -0.998024 1.66593 0
M  V30 1122 O 102.843 -1.69839 0.947898 0
M  V30 1123 C 103.126 0.666841 3.53872 0
M  V30 1124 C 102.979 2.15352 3.94897 0
M  V30 1125 C 104.298 0.115544 4.39948 0
M  V30 1126 H 101.417 0.161739 0.719034 0
M  V30 1127 H 104.059 1.05907 1.57746 0
M  V30 1128 H 102.209 0.140828 3.88245 0
M  V30 1129 H 103.881 2.7447 3.70761 0
M  V30 1130 H 102.124 2.63653 3.44484 0
M  V30 1131 H 102.795 2.26221 5.03516 0
M  V30 1132 H 105.271 0.565213 4.12243 0
M  V30 1133 H 104.147 0.303152 5.48062 0
M  V30 1134 H 104.408 -0.980935 4.3108 0
M  V30 1135 N 103.467 -1.45747 0.599634 0
M  V30 1136 C 104.695 -2.06668 0.0978551 0
M  V30 1137 C 105.11 -1.44562 -1.21439 0
M  V30 1138 O 104.467 -0.556923 -1.73795 0
M  V30 1139 C 104.518 -3.61456 -0.0567044 0
M  V30 1140 O 104.239 -4.21242 1.20361 0
M  V30 1141 C 105.74 -4.39345 -0.590869 0
M  V30 1142 H 102.96 -0.667825 0.0651943 0
M  V30 1143 H 105.504 -1.87115 0.82511 0
M  V30 1144 H 103.659 -3.80378 -0.734251 0
M  V30 1145 H 104.073 -5.14323 1.02821 0
M  V30 1146 H 105.547 -5.48182 -0.648131 0
M  V30 1147 H 106.024 -4.08568 -1.61147 0
M  V30 1148 H 106.63 -4.25268 0.0523679 0
M  V30 1149 N 104.945 -0.338344 -1.53925 0
M  V30 1150 C 106.222 0.314774 -1.93051 0
M  V30 1151 C 106.602 1.68669 -1.26941 0
M  V30 1152 O 105.95 2.24636 -0.418445 0
M  V30 1153 C 106.16 0.392249 -3.46789 0
M  V30 1154 C 107.508 0.645554 -4.19664 0
M  V30 1155 O 108.532 0.474575 -3.53024 0
M  V30 1156 O 107.391 0.976408 -5.37707 0
M  V30 1157 H 104.485 0.182598 -0.80659 0
M  V30 1158 H 107.031 -0.389141 -1.65178 0
M  V30 1159 H 105.803 -0.570702 -3.87116 0
M  V30 1160 H 105.426 1.14316 -3.80812 0
M  V30 1161 N 106.423 1.57458 -0.0668435 0
M  V30 1162 C 107.669 1.94401 0.598316 0
M  V30 1163 C 108.024 0.946335 1.67518 0
M  V30 1164 O 107.317 -0.0321442 1.91573 0
M  V30 1165 C 107.511 3.35784 1.22409 0
M  V30 1166 C 107.34 4.49212 0.209367 0
M  V30 1167 C 106.11 5.04887 -0.204218 0
M  V30 1168 C 108.308 5.11335 -0.551431 0
M  V30 1169 N 106.29 6.01854 -1.21016 0
M  V30 1170 C 107.661 6.03754 -1.41 0
M  V30 1171 C 109.716 4.94173 -0.608038 0
M  V30 1172 C 108.419 6.80854 -2.32013 0
M  V30 1173 C 110.445 5.71912 -1.50566 0
M  V30 1174 C 109.807 6.63976 -2.35191 0
M  V30 1175 H 105.906 0.758538 0.190114 0
M  V30 1176 H 108.49 1.94175 -0.142832 0
M  V30 1177 H 106.661 3.36757 1.93518 0
M  V30 1178 H 108.393 3.59976 1.84931 0
M  V30 1179 H 105.148 4.73266 0.177908 0
M  V30 1180 H 105.572 6.55035 -1.71049 0
M  V30 1181 H 110.214 4.22788 0.032022 0
M  V30 1182 H 107.932 7.5152 -2.97057 0
M  V30 1183 H 111.518 5.60656 -1.55423 0
M  V30 1184 H 110.398 7.2308 -3.03522 0
M  V30 1185 N 107.901 -0.206675 1.56239 0
M  V30 1186 C 109.178 -0.954051 1.70755 0
M  V30 1187 C 109.558 -2.01841 0.618353 0
M  V30 1188 O 108.906 -2.25444 -0.372434 0
M  V30 1189 C 109.116 -1.551 3.12642 0
M  V30 1190 C 110.464 -2.03757 3.72516 0
M  V30 1191 O 111.488 -1.64965 3.15698 0
M  V30 1192 O 110.347 -2.75103 4.72208 0
M  V30 1193 H 107.441 -0.446636 0.696021 0
M  V30 1194 H 109.987 -0.197283 1.68549 0
M  V30 1195 H 108.759 -0.783212 3.83382 0
M  V30 1196 H 108.382 -2.37291 3.19028 0
M  V30 1197 N 109.379 -1.50304 -0.473955 0
M  V30 1198 C 110.289 -1.7174 -1.5982 0
M  V30 1199 C 111.305 -0.600457 -1.63311 0
M  V30 1200 O 112.481 -0.878441 -1.81233 0
M  V30 1201 C 109.546 -1.80427 -2.96052 0
M  V30 1202 C 108.607 -3.04148 -3.02972 0
M  V30 1203 C 107.84 -3.12411 -4.32706 0
M  V30 1204 O 108.063 -2.27542 -5.23049 0
M  V30 1205 O 106.997 -4.05113 -4.45159 0
M  V30 1206 H 110.823 -2.67035 -1.44657 0
M  V30 1207 H 108.408 -1.34366 -0.653148 0
M  V30 1208 H 110.29 -1.88338 -3.7697 0
M  V30 1209 H 108.965 -0.883156 -3.11419 0
M  V30 1210 H 107.872 -3.0174 -2.21142 0
M  V30 1211 H 109.205 -3.95829 -2.92541 0
M  V30 1212 N 110.857 0.726932 -1.39834 0
M  V30 1213 C 111.789 1.85147 -1.35104 0
M  V30 1214 C 112.802 1.60736 -0.258392 0
M  V30 1215 O 113.991 1.70821 -0.517931 0
M  V30 1216 C 111.091 3.21332 -1.07697 0
M  V30 1217 C 110.264 3.73033 -2.28396 0
M  V30 1218 C 109.323 4.87802 -1.97322 0
M  V30 1219 O 108.349 5.01043 -2.70083 0
M  V30 1220 N 109.551 5.72768 -0.944273 0
M  V30 1221 H 112.316 1.89706 -2.32017 0
M  V30 1222 H 109.877 0.908006 -1.3404 0
M  V30 1223 H 111.869 3.95691 -0.849144 0
M  V30 1224 H 110.439 3.11992 -0.194909 0
M  V30 1225 H 109.659 2.89934 -2.6708 0
M  V30 1226 H 110.947 4.0431 -3.08887 0
M  V30 1227 H 110.345 5.64669 -0.341427 0
M  V30 1228 H 108.902 6.4716 -0.776346 0
M  V30 1229 N 112.336 1.25143 0.95797 0
M  V30 1230 C 113.752 1.01892 1.22842 0
M  V30 1231 C 113.952 -0.266311 1.99732 0
M  V30 1232 O 113.008 -0.979913 2.3271 0
M  V30 1233 C 114.321 2.24004 2.00606 0
M  V30 1234 C 115.869 2.28731 2.13662 0
M  V30 1235 C 116.344 3.5049 2.94823 0
M  V30 1236 N 117.835 3.50866 3.02403 0
M  V30 1237 C 118.57 4.4174 3.65586 0
M  V30 1238 N 118.066 5.42882 4.30408 0
M  V30 1239 N 119.859 4.29429 3.62694 0
M  V30 1240 H 112.01 2.07718 0.443493 0
M  V30 1241 H 114.273 0.912031 0.258657 0
M  V30 1242 H 113.979 3.17395 1.51503 0
M  V30 1243 H 113.853 2.26907 3.01319 0
M  V30 1244 H 116.24 1.35865 2.61963 0
M  V30 1245 H 116.321 2.29848 1.12265 0
M  V30 1246 H 115.965 4.43676 2.47213 0
M  V30 1247 H 115.895 3.46617 3.96439 0
M  V30 1248 H 118.386 2.777 2.56302 0
M  V30 1249 H 118.699 6.0844 4.76467 0
M  V30 1250 H 117.044 5.46758 4.29047 0
M  V30 1251 H 120.235 3.49643 3.11236 0
M  V30 1252 H 120.408 5.00448 4.1165 0
M  V30 1253 N 113.814 -1.1601 1.06675 0
M  V30 1254 C 114.777 -2.18724 0.685001 0
M  V30 1255 C 115.777 -1.58496 -0.271246 0
M  V30 1256 O 116.967 -1.74119 -0.0531156 0
M  V30 1257 C 114.099 -3.40899 0.00853648 0
M  V30 1258 H 115.292 -2.54011 1.59431 0
M  V30 1259 H 112.845 -1.30352 0.862441 0
M  V30 1260 H 113.58 -3.11173 -0.913337 0
M  V30 1261 H 113.365 -3.8587 0.696204 0
M  V30 1262 H 114.855 -4.16886 -0.24414 0
M  V30 1263 N 115.292 -0.849877 -1.32721 0
M  V30 1264 C 116.202 -0.293791 -2.32753 0
M  V30 1265 C 117.218 0.585906 -1.63839 0
M  V30 1266 O 118.394 0.487413 -1.95413 0
M  V30 1267 C 115.459 0.512752 -3.42887 0
M  V30 1268 C 114.52 -0.39252 -4.27502 0
M  V30 1269 C 113.753 0.375625 -5.32377 0
M  V30 1270 O 113.976 1.60613 -5.4732 0
M  V30 1271 O 112.91 -0.256094 -6.01355 0
M  V30 1272 H 116.736 -1.12242 -2.82197 0
M  V30 1273 H 114.321 -0.612685 -1.36259 0
M  V30 1274 H 116.203 0.970704 -4.10067 0
M  V30 1275 H 114.878 1.31826 -2.95641 0
M  V30 1276 H 113.785 -0.898547 -3.63149 0
M  V30 1277 H 115.118 -1.16309 -4.7826 0
M  V30 1278 N 116.77 1.45427 -0.607355 0
M  V30 1279 C 118.018 2.01841 -0.102253 0
M  V30 1280 C 118.339 1.47832 1.27164 0
M  V30 1281 O 117.609 0.672497 1.83995 0
M  V30 1282 H 116.189 0.746188 -0.0348101 0
M  V30 1283 H 118.851 1.78229 -0.7887 0
M  V30 1284 H 117.947 3.12057 -0.0518585 0
M  V30 1285 N 118.248 0.346503 1.53744 0
M  V30 1286 C 119.476 -0.25041 2.05379 0
M  V30 1287 C 119.891 -1.43979 1.22129 0
M  V30 1288 O 119.248 -1.80677 0.257321 0
M  V30 1289 C 119.299 -0.662575 3.55376 0
M  V30 1290 O 119.02 0.479515 4.35468 0
M  V30 1291 C 120.521 -1.31989 4.23195 0
M  V30 1292 H 117.741 -0.0478198 0.669294 0
M  V30 1293 H 120.285 0.499346 1.9831 0
M  V30 1294 H 118.44 -1.36227 3.62658 0
M  V30 1295 H 118.854 0.15037 5.24284 0
M  V30 1296 H 120.328 -1.55902 5.29527 0
M  V30 1297 H 120.805 -2.27436 3.75725 0
M  V30 1298 H 121.411 -0.662154 4.20114 0
M  V30 1299 N 119.726 -1.57421 0.075193 0
M  V30 1300 C 120.973 -1.93618 -0.593146 0
M  V30 1301 C 121.301 -0.955484 -1.69413 0
M  V30 1302 O 120.556 0.0283251 -1.9568 0
M  V30 1303 C 120.855 -3.36428 -1.20626 0
M  V30 1304 C 120.521 -4.50307 -0.231078 0
M  V30 1305 C 119.183 -4.81186 0.0371936 0
M  V30 1306 C 121.535 -5.19374 0.435888 0
M  V30 1307 C 118.863 -5.78466 0.979461 0
M  V30 1308 C 121.215 -6.17665 1.3665 0
M  V30 1309 C 119.879 -6.46958 1.6432 0
M  V30 1310 H 119.149 -0.708499 -0.217047 0
M  V30 1311 H 121.796 -1.90937 0.146793 0
M  V30 1312 H 120.101 -3.35592 -2.02201 0
M  V30 1313 H 121.798 -3.61727 -1.73073 0
M  V30 1314 H 118.388 -4.26227 -0.450357 0
M  V30 1315 H 122.572 -4.95711 0.241748 0
M  V30 1316 H 117.828 -5.99487 1.20106 0
M  V30 1317 H 122.002 -6.70284 1.88924 0
M  V30 1318 H 119.629 -7.2215 2.37494 0
M  V30 1319 N 121.204 0.198386 -1.56346 0
M  V30 1320 C 122.615 0.763358 -1.70381 0
M  V30 1321 C 122.966 1.83995 -0.681203 0
M  V30 1322 O 122.091 2.15785 0.16305 0
M  V30 1323 C 122.686 1.39143 -3.08909 0
M  V30 1324 C 121.245 1.90352 -3.2472 0
M  V30 1325 C 120.392 0.772233 -2.6633 0
M  V30 1326 H 123.343 -0.0266377 -1.58678 0
M  V30 1327 H 123.364 2.26076 -3.06055 0
M  V30 1328 H 122.876 0.607638 -3.83314 0
M  V30 1329 H 120.977 2.71461 -2.55225 0
M  V30 1330 H 121.09 2.06757 -4.3219 0
M  V30 1331 H 119.454 1.18566 -2.2542 0
M  V30 1332 H 120.237 0.00073556 -3.433 0
M  V30 1333 N 122.682 1.50554 0.465978 0
M  V30 1334 C 123.93 1.61479 1.21528 0
M  V30 1335 C 124.251 0.319596 1.92363 0
M  V30 1336 O 123.521 -0.663194 1.84333 0
M  V30 1337 H 122.101 0.595055 0.451573 0
M  V30 1338 H 124.763 1.87355 0.53704 0
M  V30 1339 H 123.859 2.42846 1.96042 0
M  V30 1340 N 124.16 -0.719506 1.40217 0
M  V30 1341 C 125.107 -1.83359 1.40172 0
M  V30 1342 C 126.077 -1.64065 0.259206 0
M  V30 1343 O 127.262 -1.85254 0.456677 0
M  V30 1344 C 124.402 -3.2103 1.26624 0
M  V30 1345 C 123.515 -3.51923 2.50548 0
M  V30 1346 C 122.65 -4.79079 2.29471 0
M  V30 1347 C 121.689 -5.02863 3.48992 0
M  V30 1348 N 120.826 -6.2123 3.27135 0
M  V30 1349 H 125.666 -1.82733 2.35399 0
M  V30 1350 H 123.203 -0.892688 1.16917 0
M  V30 1351 H 125.161 -4.00524 1.16776 0
M  V30 1352 H 123.791 -3.20895 0.350176 0
M  V30 1353 H 122.843 -2.67014 2.70939 0
M  V30 1354 H 124.155 -3.6541 3.39525 0
M  V30 1355 H 123.309 -5.66582 2.16955 0
M  V30 1356 H 122.048 -4.67794 1.37913 0
M  V30 1357 H 121.053 -4.13816 3.6199 0
M  V30 1358 H 122.278 -5.16023 4.41472 0
M  V30 1359 H 120.224 -6.11204 2.38256 0
M  V30 1360 H 120.141 -6.35375 4.09675 0
M  V30 1361 H 121.409 -7.11532 3.18344 0
M  V30 1362 N 125.638 -1.25649 -0.95132 0
M  V30 1363 C 126.887 -1.09988 -1.69073 0
M  V30 1364 C 127.2 0.358355 -1.92289 0
M  V30 1365 O 128.406 0.635466 -2.63958 0
M  V30 1366 C 126.862 -1.92012 -3.044 0
M  V30 1367 C 126.47 -3.42347 -2.88968 0
M  V30 1368 C 128.214 -1.8493 -3.82101 0
M  V30 1369 C 126.121 -4.16655 -4.19705 0
M  V30 1370 H 125.051 -0.407993 -0.63408 0
M  V30 1371 H 127.702 -1.49873 -1.05879 0
M  V30 1372 H 126.084 -1.44952 -3.68517 0
M  V30 1373 H 127.258 -3.97104 -2.33762 0
M  V30 1374 H 125.573 -3.50557 -2.24719 0
M  V30 1375 H 128.17 -2.37739 -4.78941 0
M  V30 1376 H 128.513 -0.817883 -4.08187 0
M  V30 1377 H 129.046 -2.29758 -3.2474 0
M  V30 1378 H 125.785 -5.20224 -3.98807 0
M  V30 1379 H 125.305 -3.66681 -4.74663 0
M  V30 1380 H 126.984 -4.24551 -4.88227 0
M  V30 1381 O 127.155 1.08449 -1.1967 0
M  V30 1382 H 127.846 1.68999 -0.946525 0
M  V30 END ATOM
M  V30 BEGIN BOND
M  V30 END BOND
M  V30 END CTAB
M  END
$$$$
