drugbank_target|P62241 40S ribosomal protein S8 (DB11638)
 OpenBabel12092121093D

  0  0  0     0  0            999 V3000
M  V30 BEGIN CTAB
M  V30 COUNTS 3501 3530 0 0 0
M  V30 BEGIN ATOM
M  V30 1 H -0.908 1.98254 -0.117106 0
M  V30 2 N 0 1.576 0 0
M  V30 3 C 0.933 2.03868 1.02534 0
M  V30 4 C 1.911 0.928543 1.3348 0
M  V30 5 O 3.095 1.19667 1.45644 0
M  V30 6 C 0.222 2.43627 2.35294 0
M  V30 7 C -0.732 3.65373 2.2001 0
M  V30 8 S 0.101 5.13292 1.52614 0
M  V30 9 C 1.257 5.56322 2.86805 0
M  V30 10 H 1.49 2.90518 0.631377 0
M  V30 11 H -0.977 1.52953 0.210867 0
M  V30 12 H 0.981 2.67203 3.11629 0
M  V30 13 H -0.358 1.57376 2.7183 0
M  V30 14 H -1.165 3.90944 3.18086 0
M  V30 15 H -1.563 3.418 1.51819 0
M  V30 16 H 0.729 5.58782 3.83104 0
M  V30 17 H 1.672 6.56266 2.65933 0
M  V30 18 H 2.08 4.83886 2.90714 0
M  V30 19 N 1.4781 -0.272755 1.55222 0
M  V30 20 C 2.7261 -1.00234 1.75492 0
M  V30 21 C 3.0471 -1.8681 0.5592 0
M  V30 22 O 2.3171 -1.91215 -0.425882 0
M  V30 23 H 0.8971 -0.373076 0.647166 0
M  V30 24 H 3.5591 -0.296926 1.92625 0
M  V30 25 H 2.6551 -1.63913 2.65592 0
M  V30 26 N 2.9562 -1.48159 -0.537278 0
M  V30 27 C 4.2052 -1.5506 -1.28993 0
M  V30 28 C 4.5182 -0.226211 -1.94288 0
M  V30 29 O 5.7242 -0.173395 -2.70946 0
M  V30 30 C 4.1802 -2.73429 -2.34018 0
M  V30 31 C 3.7882 -4.1248 -1.74825 0
M  V30 32 C 5.5322 -2.89638 -3.10339 0
M  V30 33 C 3.4392 -5.22121 -2.77747 0
M  V30 34 H 2.3692 -0.577231 -0.485098 0
M  V30 35 H 5.0202 -1.74478 -0.568317 0
M  V30 36 H 3.4022 -2.47431 -3.09182 0
M  V30 37 H 4.5762 -4.48466 -1.05899 0
M  V30 38 H 2.8912 -4.01327 -1.11022 0
M  V30 39 H 5.4882 -3.68718 -3.87235 0
M  V30 40 H 5.8312 -1.9882 -3.65754 0
M  V30 41 H 6.3642 -3.15502 -2.42288 0
M  V30 42 H 3.1032 -6.1488 -2.27161 0
M  V30 43 H 2.6232 -4.90631 -3.45024 0
M  V30 44 H 4.3022 -5.49924 -3.4087 0
M  V30 45 N 4.4343 0.785586 -1.36625 0
M  V30 46 C 5.6593 1.57963 -1.34397 0
M  V30 47 C 6.0843 1.87964 0.071526 0
M  V30 48 O 5.4423 1.48182 1.0446 0
M  V30 49 C 5.4903 2.87511 -2.17646 0
M  V30 50 O 4.5943 3.81281 -1.57158 0
M  V30 51 H 3.9353 0.479014 -0.459828 0
M  V30 52 H 6.4653 0.973411 -1.79961 0
M  V30 53 H 6.4753 3.36745 -2.30362 0
M  V30 54 H 5.1503 2.65002 -3.20541 0
M  V30 55 H 3.7273 3.39885 -1.53403 0
M  V30 56 N 5.9124 1.20967 1.01018 0
M  V30 57 C 7.3284 0.965905 1.27053 0
M  V30 58 C 7.5284 -0.350785 1.98423 0
M  V30 59 O 6.5844 -1.07773 2.28344 0
M  V30 60 C 7.8974 2.15294 2.09926 0
M  V30 61 C 9.4454 2.19463 2.23171 0
M  V30 62 C 9.9204 3.3767 3.09424 0
M  V30 63 N 11.4114 3.37724 3.17012 0
M  V30 64 C 12.1464 4.25837 3.83993 0
M  V30 65 N 11.6424 5.24138 4.53047 0
M  V30 66 N 13.4354 4.1366 3.80581 0
M  V30 67 H 5.5864 2.0565 0.531194 0
M  V30 68 H 7.8494 0.90024 0.297106 0
M  V30 69 H 7.5554 3.10684 1.64828 0
M  V30 70 H 7.4294 2.13923 3.10672 0
M  V30 71 H 9.8164 1.24632 2.6749 0
M  V30 72 H 9.8974 2.2488 1.21912 0
M  V30 73 H 9.5414 4.32791 2.65808 0
M  V30 74 H 9.4714 3.29491 4.10784 0
M  V30 75 H 11.9624 2.6658 2.6785 0
M  V30 76 H 12.2754 5.87684 5.01844 0
M  V30 77 H 10.6204 5.28068 4.5185 0
M  V30 78 H 13.8114 3.36127 3.25785 0
M  V30 79 H 13.9844 4.82538 4.32505 0
M  V30 80 N 7.3905 -1.2043 1.01659 0
M  V30 81 C 8.6675 -1.8548 0.621004 0
M  V30 82 C 9.0475 -1.9091 -0.900919 0
M  V30 83 O 8.3955 -1.41694 -1.79263 0
M  V30 84 C 8.6055 -3.25119 1.2688 0
M  V30 85 C 9.9535 -4.01403 1.38423 0
M  V30 86 O 10.9775 -3.34473 1.22501 0
M  V30 87 O 9.8365 -5.21265 1.64151 0
M  V30 88 H 6.9305 -0.798761 0.214266 0
M  V30 89 H 9.4765 -1.28019 1.11396 0
M  V30 90 H 8.2485 -3.15932 2.30873 0
M  V30 91 H 7.8715 -3.90212 0.762917 0
M  V30 92 N 8.8686 -0.792821 -1.36206 0
M  V30 93 C 9.8166 -0.181555 -2.3189 0
M  V30 94 C 10.8106 0.661025 -1.55971 0
M  V30 95 O 12.0166 0.555728 -1.71206 0
M  V30 96 H 8.3916 -0.0399382 -0.750939 0
M  V30 97 H 10.3626 -1.00394 -2.81005 0
M  V30 98 C 9.1116 0.666444 -3.41253 0
M  V30 99 H 8.4346 0.0274489 -3.99791 0
M  V30 100 H 9.8746 1.06076 -4.10517 0
M  V30 101 C 8.3336 1.82614 -2.83114 0
M  V30 102 O 8.8636 2.9229 -2.75553 0
M  V30 103 N 7.0696 1.63333 -2.40356 0
M  V30 104 H 6.6166 0.741217 -2.46706 0
M  V30 105 H 6.5746 2.41087 -2.01803 0
M  V30 106 N 10.3467 1.47872 -0.545128 0
M  V30 107 C 11.5927 2.03385 -0.0247951 0
M  V30 108 C 11.9477 1.41325 1.30556 0
M  V30 109 O 11.2407 0.5552 1.8338 0
M  V30 110 C 11.4347 3.57131 0.13867 0
M  V30 111 C 11.2637 4.34097 -1.17429 0
M  V30 112 C 10.0337 4.74458 -1.73831 0
M  V30 113 C 12.2317 4.6998 -2.08861 0
M  V30 114 N 10.2137 5.3602 -2.99258 0
M  V30 115 C 11.5847 5.31719 -3.18866 0
M  V30 116 C 13.6397 4.5191 -2.09003 0
M  V30 117 C 12.3427 5.77295 -4.29096 0
M  V30 118 C 14.3687 4.98477 -3.18237 0
M  V30 119 C 13.7307 5.60253 -4.26961 0
M  V30 120 H 9.8297 0.780339 -0.050943 0
M  V30 121 H 12.4137 1.80507 -0.729753 0
M  V30 122 H 10.5847 3.79802 0.812733 0
M  V30 123 H 12.3167 3.99282 0.659976 0
M  V30 124 H 9.0717 4.56037 -1.2778 0
M  V30 125 H 9.4957 5.71355 -3.63157 0
M  V30 126 H 14.1377 4.03516 -1.26234 0
M  V30 127 H 11.8557 6.24687 -5.12633 0
M  V30 128 H 15.4417 4.86274 -3.1942 0
M  V30 129 H 14.3217 5.95631 -5.10091 0
M  V30 130 N 11.8248 0.280983 1.55075 0
M  V30 131 C 12.7748 -0.618585 2.19448 0
M  V30 132 C 13.7588 -1.11401 1.16098 0
M  V30 133 O 14.9508 -1.0581 1.41891 0
M  V30 134 C 12.0798 -1.79951 2.92357 0
M  V30 135 C 11.1658 -1.321 4.03002 0
M  V30 136 N 11.5568 -0.559044 5.02701 0
M  V30 137 C 9.8548 -1.60346 4.16179 0
M  V30 138 C 10.5558 -0.306722 5.80891 0
M  V30 139 N 9.5318 -0.880825 5.36416 0
M  V30 140 H 13.3338 -0.0286638 2.93886 0
M  V30 141 H 10.8478 0.0848104 1.62178 0
M  V30 142 H 12.8448 -2.45531 3.36927 0
M  V30 143 H 11.5048 -2.39333 2.19431 0
M  V30 144 H 12.5158 -0.205827 5.17491 0
M  V30 145 H 9.1928 -2.20621 3.54447 0
M  V30 146 H 10.5828 0.30391 6.71212 0
M  V30 147 N 13.3029 -1.57598 0.00835791 0
M  V30 148 C 14.2499 -2.08945 -0.980346 0
M  V30 149 C 15.2199 -0.986738 -1.33614 0
M  V30 150 O 16.4049 -1.25968 -1.43306 0
M  V30 151 C 13.5449 -2.60425 -2.26435 0
M  V30 152 C 12.6579 -3.84628 -1.96685 0
M  V30 153 C 11.7929 -4.24579 -3.19228 0
M  V30 154 C 10.8319 -5.41596 -2.85202 0
M  V30 155 N 9.9689 -5.768 -4.00307 0
M  V30 156 H 14.8089 -2.93148 -0.535551 0
M  V30 157 H 12.3459 -1.44912 -0.252776 0
M  V30 158 H 14.3039 -2.88354 -3.01509 0
M  V30 159 H 12.9339 -1.79083 -2.68568 0
M  V30 160 H 11.9859 -3.63556 -1.11942 0
M  V30 161 H 13.2979 -4.69796 -1.67611 0
M  V30 162 H 12.4519 -4.53834 -4.02641 0
M  V30 163 H 11.1909 -3.38137 -3.51447 0
M  V30 164 H 10.1959 -5.12056 -2.00198 0
M  V30 165 H 11.4209 -6.29721 -2.54222 0
M  V30 166 H 9.3669 -4.93316 -4.32407 0
M  V30 167 H 9.2839 -6.5656 -3.74786 0
M  V30 168 H 10.5519 -6.10652 -4.84484 0
M  V30 169 N 14.781 0.264519 -1.55364 0
M  V30 170 C 16.197 0.61215 -1.47394 0
M  V30 171 C 16.397 1.89134 -0.695018 0
M  V30 172 O 15.453 2.51563 -0.217275 0
M  V30 173 C 16.766 0.731235 -2.91674 0
M  V30 174 C 18.314 0.82473 -3.01939 0
M  V30 175 C 18.789 0.975522 -4.4749 0
M  V30 176 N 20.28 1.04083 -4.51354 0
M  V30 177 C 21.015 1.17646 -5.61201 0
M  V30 178 N 20.511 1.27874 -6.80896 0
M  V30 179 N 22.304 1.20823 -5.48961 0
M  V30 180 H 14.455 -0.575456 -2.04456 0
M  V30 181 H 16.718 -0.196099 -0.927496 0
M  V30 182 H 16.424 -0.138392 -3.51428 0
M  V30 183 H 16.298 1.60883 -3.41169 0
M  V30 184 H 18.685 1.68482 -2.42276 0
M  V30 185 H 18.766 -0.0776479 -2.55682 0
M  V30 186 H 18.41 0.120058 -5.07758 0
M  V30 187 H 18.34 1.89268 -4.91412 0
M  V30 188 H 20.831 0.973846 -3.65136 0
M  V30 189 H 21.144 1.38081 -7.60364 0
M  V30 190 H 19.489 1.24863 -6.83692 0
M  V30 191 H 22.68 1.12469 -4.54388 0
M  V30 192 H 22.853 1.31049 -6.3461 0
M  V30 193 N 16.2591 1.48442 0.529413 0
M  V30 194 C 17.6751 1.34575 0.858004 0
M  V30 195 C 17.8751 0.3572 1.98309 0
M  V30 196 O 16.9311 -0.221379 2.51528 0
M  V30 197 C 18.2441 2.74617 1.22499 0
M  V30 198 C 19.7921 2.83109 1.33484 0
M  V30 199 C 20.2671 4.23854 1.73526 0
M  V30 200 N 21.7581 4.2653 1.80628 0
M  V30 201 C 22.4931 5.32372 2.12997 0
M  V30 202 N 21.9891 6.48491 2.43786 0
M  V30 203 N 23.7821 5.19766 2.14008 0
M  V30 204 H 15.9331 2.1133 -0.212925 0
M  V30 205 H 18.1961 0.947439 -0.0326199 0
M  V30 206 H 17.9021 3.4852 0.471905 0
M  V30 207 H 17.7761 3.08177 2.17501 0
M  V30 208 H 20.1631 2.09462 2.0787 0
M  V30 209 H 20.2441 2.53168 0.366027 0
M  V30 210 H 19.8881 4.98018 0.997013 0
M  V30 211 H 19.8181 4.5124 2.71459 0
M  V30 212 H 22.3091 3.42772 1.59108 0
M  V30 213 H 22.6221 7.24993 2.67592 0
M  V30 214 H 20.9671 6.51765 2.41304 0
M  V30 215 H 24.1581 4.28066 1.89412 0
M  V30 216 H 24.3311 6.02354 2.38902 0
M  V30 217 N 17.7372 -0.778329 1.37039 0
M  V30 218 C 18.6842 -1.89139 1.32269 0
M  V30 219 C 19.6542 -1.65017 0.189387 0
M  V30 220 O 20.8392 -1.87024 0.377693 0
M  V30 221 C 17.9792 -3.26112 1.12894 0
M  V30 222 C 17.0922 -3.62233 2.35396 0
M  V30 223 C 16.2272 -4.8838 2.08946 0
M  V30 224 C 15.2662 -5.17212 3.2735 0
M  V30 225 N 14.4032 -6.34546 3.00492 0
M  V30 226 H 19.2432 -1.92552 2.27437 0
M  V30 227 H 16.7802 -0.941473 1.13025 0
M  V30 228 H 18.7382 -4.05116 0.996835 0
M  V30 229 H 17.3682 -3.22091 0.213758 0
M  V30 230 H 16.4202 -2.78265 2.5937 0
M  V30 231 H 17.7322 -3.79481 3.23721 0
M  V30 232 H 16.8862 -5.75274 1.92729 0
M  V30 233 H 15.6252 -4.73222 1.17949 0
M  V30 234 H 14.6302 -4.28796 3.44113 0
M  V30 235 H 15.8552 -5.34283 4.19188 0
M  V30 236 H 13.8012 -6.20759 2.12118 0
M  V30 237 H 13.7182 -6.52179 3.82358 0
M  V30 238 H 14.9862 -7.24394 2.87879 0
M  V30 239 N 19.2153 -1.21501 -1.00376 0
M  V30 240 C 20.4433 -1.059 -1.77744 0
M  V30 241 C 20.8583 0.391125 -1.84704 0
M  V30 242 O 20.2153 1.27133 -1.30933 0
M  V30 243 C 20.2663 -1.65111 -3.21591 0
M  V30 244 O 19.9873 -3.0445 -3.15027 0
M  V30 245 C 21.4883 -1.54637 -4.15454 0
M  V30 246 H 18.7083 -0.371825 -0.558558 0
M  V30 247 H 21.2523 -1.60865 -1.26264 0
M  V30 248 H 19.4073 -1.14235 -3.70175 0
M  V30 249 H 19.8213 -3.3278 -4.0541 0
M  V30 250 H 21.2953 -2.00808 -5.14179 0
M  V30 251 H 21.7723 -0.501022 -4.36333 0
M  V30 252 H 22.3783 -2.04767 -3.72761 0
M  V30 253 N 20.6934 1.19889 -1.02296 0
M  V30 254 C 21.9414 1.89046 -0.714558 0
M  V30 255 C 22.2624 1.79636 0.758681 0
M  V30 256 O 21.5324 1.20292 1.54618 0
M  V30 257 H 20.1124 0.699802 -0.261317 0
M  V30 258 H 22.7744 1.45574 -1.29592 0
M  V30 259 H 21.8704 2.95524 -1.0036 0
M  V30 260 N 22.1715 0.800033 1.35784 0
M  V30 261 C 23.4195 0.376597 1.9856 0
M  V30 262 C 23.7405 -1.05812 1.63795 0
M  V30 263 O 23.0105 -1.73103 0.917171 0
M  V30 264 H 21.5905 0.136261 0.734467 0
M  V30 265 H 24.2525 1.02442 1.65806 0
M  V30 266 H 23.3485 0.477002 3.08433 0
M  V30 267 N 23.6496 -1.47581 0.552962 0
M  V30 268 C 24.5966 -2.29957 -0.197108 0
M  V30 269 C 25.5666 -1.38799 -0.912359 0
M  V30 270 O 26.7516 -1.67761 -0.908888 0
M  V30 271 C 23.8916 -3.22672 -1.22379 0
M  V30 272 C 23.0046 -4.28919 -0.515038 0
M  V30 273 C 22.1396 -5.0879 -1.52664 0
M  V30 274 C 21.1786 -6.06815 -0.802631 0
M  V30 275 N 20.3156 -6.7966 -1.76086 0
M  V30 276 H 25.1556 -2.93578 0.511486 0
M  V30 277 H 22.6926 -1.4471 0.264067 0
M  V30 278 H 24.6506 -3.74845 -1.83159 0
M  V30 279 H 23.2806 -2.60925 -1.90047 0
M  V30 280 H 22.3326 -3.79835 0.207192 0
M  V30 281 H 23.6446 -4.98773 0.0523425 0
M  V30 282 H 22.7986 -5.65091 -2.20809 0
M  V30 283 H 21.5376 -4.38828 -2.12794 0
M  V30 284 H 20.5426 -5.49695 -0.107238 0
M  V30 285 H 21.7676 -6.78784 -0.207135 0
M  V30 286 H 19.7136 -6.12432 -2.35081 0
M  V30 287 H 19.6306 -7.45669 -1.24552 0
M  V30 288 H 20.8986 -7.40538 -2.43359 0
M  V30 289 N 25.1277 -0.289203 -1.54924 0
M  V30 290 C 26.5437 0.0645403 -1.59469 0
M  V30 291 C 26.7437 1.53419 -1.30632 0
M  V30 292 O 25.7997 2.2852 -1.074 0
M  V30 293 C 27.1127 -0.32278 -2.98963 0
M  V30 294 C 28.6607 -0.270564 -3.11828 0
M  V30 295 C 29.1357 -0.632532 -4.53611 0
M  V30 296 N 30.6267 -0.584617 -4.59496 0
M  V30 297 C 31.3617 -0.837314 -5.67254 0
M  V30 298 N 30.8577 -1.15536 -6.83098 0
M  V30 299 N 32.6507 -0.765166 -5.56868 0
M  V30 300 H 24.8017 -1.24714 -1.71931 0
M  V30 301 H 27.0647 -0.504809 -0.802416 0
M  V30 302 H 26.7707 -1.34541 -3.24948 0
M  V30 303 H 26.6447 0.32944 -3.75759 0
M  V30 304 H 29.0317 0.742805 -2.85598 0
M  V30 305 H 29.1127 -0.957242 -2.37214 0
M  V30 306 H 28.7567 -1.64365 -4.80569 0
M  V30 307 H 28.6867 0.07609 -5.26545 0
M  V30 308 H 31.1777 -0.349248 -3.76283 0
M  V30 309 H 31.4907 -1.33447 -7.61191 0
M  V30 310 H 29.8357 -1.19328 -6.84679 0
M  V30 311 H 33.0267 -0.516432 -4.65243 0
M  V30 312 H 33.1997 -0.965477 -6.40767 0
M  V30 313 N 26.6058 1.57591 -0.0167156 0
M  V30 314 C 27.5528 2.09462 0.969251 0
M  V30 315 C 28.5228 0.99381 1.33089 0
M  V30 316 O 29.7078 1.26726 1.42636 0
M  V30 317 C 26.8478 2.61622 2.25051 0
M  V30 318 C 25.9608 3.85666 1.94642 0
M  V30 319 C 25.0958 4.26266 3.16972 0
M  V30 320 C 24.1348 5.43101 2.82326 0
M  V30 321 N 23.2718 5.78915 3.97243 0
M  V30 322 H 28.1118 2.93428 0.519997 0
M  V30 323 H 25.6488 1.45044 0.245087 0
M  V30 324 H 27.6068 2.89949 2.99976 0
M  V30 325 H 26.2368 1.80505 2.67615 0
M  V30 326 H 25.2888 3.64145 1.10013 0
M  V30 327 H 26.6008 4.70678 1.65117 0
M  V30 328 H 25.7548 4.55963 4.00228 0
M  V30 329 H 24.4938 3.39996 3.49648 0
M  V30 330 H 23.4988 5.1311 1.97479 0
M  V30 331 H 24.7238 6.3106 2.50879 0
M  V30 332 H 22.6698 4.95602 4.29785 0
M  V30 333 H 22.5868 6.58539 3.71299 0
M  V30 334 H 23.8548 6.13212 4.81239 0
M  V30 335 N 28.0839 -0.256276 1.55502 0
M  V30 336 C 29.4949 -0.826068 1.67431 0
M  V30 337 C 29.8459 -1.86396 0.612446 0
M  V30 338 O 28.9709 -2.15031 -0.243025 0
M  V30 339 C 29.5659 -1.50512 3.03532 0
M  V30 340 C 28.1249 -2.02273 3.17431 0
M  V30 341 C 27.2719 -0.870548 2.63281 0
M  V30 342 H 30.2229 -0.0322728 1.58667 0
M  V30 343 H 30.2439 -2.37279 2.97454 0
M  V30 344 H 29.7559 -0.749484 3.80794 0
M  V30 345 H 27.8569 -2.80746 2.44974 0
M  V30 346 H 27.9699 -2.22655 4.24219 0
M  V30 347 H 26.3339 -1.26851 2.20864 0
M  V30 348 H 27.1169 -0.128149 3.43061 0
M  V30 349 N 29.562 -1.4872 -0.521534 0
M  V30 350 C 30.792 -1.6061 -1.29954 0
M  V30 351 C 31.2 -0.268728 -1.87282 0
M  V30 352 O 30.543 0.753221 -1.67548 0
M  V30 353 C 30.605 -2.60013 -2.48261 0
M  V30 354 C 30.269 -4.04874 -2.11957 0
M  V30 355 C 31.266 -4.92304 -1.67132 0
M  V30 356 C 28.951 -4.5047 -2.22221 0
M  V30 357 C 30.945 -6.2336 -1.33047 0
M  V30 358 C 28.632 -5.81544 -1.87748 0
M  V30 359 C 29.63 -6.67812 -1.43234 0
M  V30 360 O 29.318 -7.96446 -1.09217 0
M  V30 361 H 29.05 -0.544116 -0.401141 0
M  V30 362 H 31.604 -1.95339 -0.634958 0
M  V30 363 H 29.834 -2.20422 -3.17728 0
M  V30 364 H 31.523 -2.61648 -3.10315 0
M  V30 365 H 32.289 -4.58312 -1.58665 0
M  V30 366 H 28.168 -3.83504 -2.55823 0
M  V30 367 H 31.712 -6.90649 -0.982299 0
M  V30 368 H 27.609 -6.15069 -1.95858 0
M  V30 369 H 28.377 -8.09275 -1.22542 0
M  V30 370 N 31.0401 0.771051 -1.3745 0
M  V30 371 C 31.9901 1.87456 -1.29785 0
M  V30 372 C 32.9741 1.59827 -0.185541 0
M  V30 373 O 34.1661 1.71945 -0.419997 0
M  V30 374 C 31.2951 3.24935 -1.1078 0
M  V30 375 C 30.3811 3.58514 -2.26558 0
M  V30 376 N 30.7721 3.6327 -3.5195 0
M  V30 377 C 29.0701 3.88683 -2.18727 0
M  V30 378 C 29.7711 3.93616 -4.283 0
M  V30 379 N 28.7471 4.09551 -3.57448 0
M  V30 380 H 32.5491 1.89386 -2.24745 0
M  V30 381 H 30.0631 0.967531 -1.30432 0
M  V30 382 H 32.0601 4.03881 -1.03374 0
M  V30 383 H 30.7201 3.24268 -0.16738 0
M  V30 384 H 31.7311 3.45458 -3.85848 0
M  V30 385 H 28.4081 3.95834 -1.32746 0
M  V30 386 H 29.7981 4.04066 -5.36824 0
M  V30 387 N 32.5182 1.22032 0.997298 0
M  V30 388 C 33.4652 0.986467 2.08656 0
M  V30 389 C 34.4352 -0.0902671 1.65855 0
M  V30 390 O 35.6202 0.0584294 1.90711 0
M  V30 391 C 32.7602 0.565569 3.40434 0
M  V30 392 C 31.8732 1.71259 3.96604 0
M  V30 393 C 31.0082 1.24011 5.16522 0
M  V30 394 C 30.0472 2.35896 5.64818 0
M  V30 395 N 29.1842 1.89726 6.7598 0
M  V30 396 H 34.0242 1.91892 2.27994 0
M  V30 397 H 31.5612 0.956199 1.11782 0
M  V30 398 H 33.5192 0.302738 4.161 0
M  V30 399 H 32.1492 -0.329879 3.2111 0
M  V30 400 H 31.2012 2.08986 3.17851 0
M  V30 401 H 32.5132 2.55436 4.28432 0
M  V30 402 H 31.6672 0.934395 5.99461 0
M  V30 403 H 30.4062 0.368487 4.86306 0
M  V30 404 H 29.4112 2.67261 4.8047 0
M  V30 405 H 30.6362 3.23567 5.97061 0
M  V30 406 H 28.5822 1.0492 6.47555 0
M  V30 407 H 28.4992 2.67471 7.07103 0
M  V30 408 H 29.7672 1.62211 7.62435 0
M  V30 409 N 33.9963 -1.19345 1.0293 0
M  V30 410 C 34.9433 -2.2258 0.610464 0
M  V30 411 C 35.9133 -1.6179 -0.375946 0
M  V30 412 O 37.0983 -1.88844 -0.272511 0
M  V30 413 C 34.2383 -3.45085 -0.0321473 0
M  V30 414 C 33.3513 -4.20258 1.00035 0
M  V30 415 C 32.4863 -5.3019 0.32746 0
M  V30 416 C 31.5253 -5.97121 1.34584 0
M  V30 417 N 30.6623 -6.98615 0.698726 0
M  V30 418 H 35.5023 -2.57764 1.49538 0
M  V30 419 H 33.0393 -1.26644 0.748311 0
M  V30 420 H 34.9973 -4.15061 -0.421966 0
M  V30 421 H 33.6273 -3.10555 -0.88064 0
M  V30 422 H 32.6793 -3.49223 1.50823 0
M  V30 423 H 33.9913 -4.66175 1.77433 0
M  V30 424 H 33.1453 -6.06587 -0.11718 0
M  V30 425 H 31.8843 -4.85345 -0.478713 0
M  V30 426 H 30.8893 -5.19474 1.80074 0
M  V30 427 H 32.1143 -6.4405 2.15352 0
M  V30 428 H 30.0603 -6.55942 -0.0873471 0
M  V30 429 H 29.9773 -7.42724 1.41058 0
M  V30 430 H 31.2453 -7.79004 0.278102 0
M  V30 431 N 35.4744 -0.807222 -1.35358 0
M  V30 432 C 36.8904 -0.491038 -1.51858 0
M  V30 433 C 37.0904 0.987648 -1.75635 0
M  V30 434 O 36.1464 1.77265 -1.79815 0
M  V30 435 C 37.4594 -1.33695 -2.69344 0
M  V30 436 C 39.0074 -1.33246 -2.83222 0
M  V30 437 C 39.4824 -2.1625 -4.03733 0
M  V30 438 N 40.9734 -2.1379 -4.10911 0
M  V30 439 C 41.7084 -2.74772 -5.03277 0
M  V30 440 N 41.2044 -3.44684 -6.0097 0
M  V30 441 N 42.9974 -2.6441 -4.96028 0
M  V30 442 H 35.1484 -1.76485 -1.18181 0
M  V30 443 H 37.4114 -0.751199 -0.578276 0
M  V30 444 H 37.1174 -2.38634 -2.58354 0
M  V30 445 H 36.9914 -0.990618 -3.6396 0
M  V30 446 H 39.3784 -0.290911 -2.93663 0
M  V30 447 H 39.4594 -1.71866 -1.89461 0
M  V30 448 H 39.1034 -3.20445 -3.94052 0
M  V30 449 H 39.0334 -1.74989 -4.96675 0
M  V30 450 H 41.5244 -1.62923 -3.40976 0
M  V30 451 H 41.8374 -3.88501 -6.68047 0
M  V30 452 H 40.1824 -3.48788 -6.01142 0
M  V30 453 H 43.3734 -2.0938 -4.18662 0
M  V30 454 H 43.5464 -3.12225 -5.6782 0
M  V30 455 N 36.9525 1.47285 -0.560781 0
M  V30 456 C 37.8995 2.30058 0.18491 0
M  V30 457 C 38.8695 1.39281 0.904986 0
M  V30 458 O 40.0545 1.68241 0.899979 0
M  V30 459 C 37.1945 3.23317 1.20666 0
M  V30 460 C 36.3075 4.29186 0.492285 0
M  V30 461 C 35.4425 5.09592 1.49964 0
M  V30 462 C 34.4815 6.07232 0.770439 0
M  V30 463 N 33.6185 6.80584 1.72479 0
M  V30 464 H 38.4585 2.93302 -0.527048 0
M  V30 465 H 35.9955 1.44568 -0.271738 0
M  V30 466 H 37.9535 3.75811 1.81168 0
M  V30 467 H 36.5835 2.61929 1.88661 0
M  V30 468 H 35.6355 3.7972 -0.227333 0
M  V30 469 H 36.9475 4.98738 -0.0787929 0
M  V30 470 H 36.1015 5.66254 2.17809 0
M  V30 471 H 34.8405 4.3995 2.10464 0
M  V30 472 H 33.8455 5.49745 0.0780846 0
M  V30 473 H 35.0705 6.78884 0.171134 0
M  V30 474 H 33.0165 6.1367 2.3183 0
M  V30 475 H 32.9335 7.46319 1.20596 0
M  V30 476 H 34.2015 7.41818 2.39428 0
M  V30 477 N 38.4306 0.297415 1.54768 0
M  V30 478 C 39.6606 -0.315165 2.04182 0
M  V30 479 C 40.0686 -1.4834 1.17439 0
M  V30 480 O 39.4116 -1.82695 0.191891 0
M  V30 481 C 39.4736 -0.837583 3.49607 0
M  V30 482 C 39.1376 0.204912 4.5654 0
M  V30 483 C 40.1346 1.03214 5.09552 0
M  V30 484 C 37.8196 0.345578 5.0111 0
M  V30 485 C 39.8136 1.986 6.05671 0
M  V30 486 C 37.5006 1.30289 5.97049 0
M  V30 487 C 38.4986 2.12159 6.49213 0
M  V30 488 O 38.1866 3.06268 7.43273 0
M  V30 489 H 37.9186 -0.0729646 0.672051 0
M  V30 490 H 40.4726 0.433907 2.00765 0
M  V30 491 H 38.7026 -1.63712 3.50336 0
M  V30 492 H 40.3916 -1.36566 3.82236 0
M  V30 493 H 41.1576 0.934312 4.75916 0
M  V30 494 H 37.0366 -0.28171 4.60138 0
M  V30 495 H 40.5806 2.62542 6.46311 0
M  V30 496 H 36.4776 1.40145 6.30103 0
M  V30 497 H 37.2456 3.01205 7.61064 0
M  V30 498 N 39.9087 -1.5758 0.0250728 0
M  V30 499 C 40.8187 -2.1343 -0.973905 0
M  V30 500 C 41.8347 -1.08556 -1.35984 0
M  V30 501 O 43.0107 -1.40592 -1.44207 0
M  V30 502 C 40.0757 -2.64703 -2.23904 0
M  V30 503 C 39.1367 -3.84276 -1.91391 0
M  V30 504 C 38.3697 -4.33095 -3.11873 0
M  V30 505 O 38.5927 -3.81107 -4.24398 0
M  V30 506 O 37.5267 -5.24984 -2.94406 0
M  V30 507 H 41.3527 -2.99057 -0.529036 0
M  V30 508 H 38.9377 -1.48118 -0.195288 0
M  V30 509 H 40.8197 -2.97769 -2.98181 0
M  V30 510 H 39.4947 -1.82161 -2.6758 0
M  V30 511 H 38.4017 -3.56143 -1.14511 0
M  V30 512 H 39.7347 -4.67968 -1.52534 0
M  V30 513 N 41.3868 0.248026 -1.55636 0
M  V30 514 C 42.3168 1.31079 -1.93237 0
M  V30 515 C 43.2978 1.50264 -0.797174 0
M  V30 516 O 44.4828 1.62891 -1.05737 0
M  V30 517 C 41.6128 2.66575 -2.22609 0
M  V30 518 C 40.5668 2.62087 -3.3837 0
M  V30 519 C 39.8928 4.01369 -3.53281 0
M  V30 520 C 41.1928 2.19171 -4.7409 0
M  V30 521 H 42.8868 0.998556 -2.82257 0
M  V30 522 H 40.4328 0.47891 -1.35803 0
M  V30 523 H 42.3858 3.41057 -2.47503 0
M  V30 524 H 41.1098 2.99432 -1.30414 0
M  V30 525 H 39.7688 1.90063 -3.13483 0
M  V30 526 H 39.4168 4.31489 -2.58508 0
M  V30 527 H 39.1168 3.99254 -4.31127 0
M  V30 528 H 40.6408 4.77552 -3.80495 0
M  V30 529 H 42.0548 2.83384 -4.98363 0
M  V30 530 H 40.4518 2.2817 -5.5503 0
M  V30 531 H 41.5218 1.14336 -4.71227 0
M  V30 532 N 42.8649 1.48995 0.513639 0
M  V30 533 C 44.1129 1.57531 1.26604 0
M  V30 534 C 44.4339 0.258236 1.93283 0
M  V30 535 O 43.7039 -0.721502 1.8213 0
M  V30 536 H 42.2839 0.580387 0.470276 0
M  V30 537 H 44.9459 1.85552 0.596373 0
M  V30 538 H 44.0419 2.36486 2.03669 0
M  V30 539 N 44.343 -0.763751 1.37857 0
M  V30 540 C 45.759 -1.06542 1.18832 0
M  V30 541 C 45.959 -2.01478 0.0299722 0
M  V30 542 O 45.015 -2.4458 -0.627447 0
M  V30 543 C 46.328 -1.65525 2.51042 0
M  V30 544 C 47.876 -1.77745 2.57635 0
M  V30 545 C 48.351 -2.4014 3.89996 0
M  V30 546 N 49.842 -2.47582 3.91481 0
M  V30 547 C 50.577 -2.96732 4.9065 0
M  V30 548 N 50.073 -3.45993 6.00217 0
M  V30 549 N 51.866 -2.95679 4.78048 0
M  V30 550 H 44.017 -0.133556 2.1198 0
M  V30 551 H 46.28 -0.121879 0.940133 0
M  V30 552 H 45.986 -1.03236 3.36207 0
M  V30 553 H 45.86 -2.64719 2.68707 0
M  V30 554 H 48.247 -2.39164 1.72872 0
M  V30 555 H 48.328 -0.772836 2.43846 0
M  V30 556 H 47.972 -1.79358 4.75177 0
M  V30 557 H 47.902 -3.41223 4.01092 0
M  V30 558 H 50.393 -2.1273 3.12337 0
M  V30 559 H 50.706 -3.81922 6.7183 0
M  V30 560 H 49.051 -3.44077 6.03851 0
M  V30 561 H 52.242 -2.56499 3.91568 0
M  V30 562 H 52.415 -3.33672 5.55488 0
M  V30 563 N 45.8211 -1.22559 -0.990812 0
M  V30 564 C 47.2321 -1.04791 -1.54518 0
M  V30 565 C 47.5831 0.387998 -1.92325 0
M  V30 566 O 46.7081 1.27328 -1.74976 0
M  V30 567 C 47.3031 -1.896 -2.80779 0
M  V30 568 C 45.8621 -1.76124 -3.32652 0
M  V30 569 C 45.0091 -1.8594 -2.05722 0
M  V30 570 H 47.9601 -1.36374 -0.811662 0
M  V30 571 H 47.9811 -1.41464 -3.53225 0
M  V30 572 H 47.4931 -2.94101 -2.53231 0
M  V30 573 H 45.5941 -0.743643 -3.65104 0
M  V30 574 H 45.7071 -2.58913 -4.03114 0
M  V30 575 H 44.0711 -1.29403 -2.19379 0
M  V30 576 H 44.8541 -2.91976 -1.80568 0
M  V30 577 N 47.2992 1.18797 -1.03562 0
M  V30 578 C 48.2622 2.20464 -0.626769 0
M  V30 579 C 49.2622 1.57721 0.313173 0
M  V30 580 O 50.4522 1.73917 0.0992615 0
M  V30 581 C 47.5842 3.40802 0.0818498 0
M  V30 582 H 48.7772 2.58149 -1.5264 0
M  V30 583 H 46.3302 1.32593 -0.827578 0
M  V30 584 H 47.0652 3.08642 0.995518 0
M  V30 585 H 46.8502 3.8758 -0.593652 0
M  V30 586 H 48.3402 4.16092 0.354584 0
M  V30 587 N 48.7773 0.814389 1.34928 0
M  V30 588 C 49.7403 0.235759 2.27984 0
M  V30 589 C 50.7403 -0.581412 1.49921 0
M  V30 590 O 51.9303 -0.398758 1.69575 0
M  V30 591 C 49.0623 -0.670433 3.34242 0
M  V30 592 H 50.2553 1.05659 2.80671 0
M  V30 593 H 47.8083 0.585614 1.44915 0
M  V30 594 H 48.5433 -1.51466 2.86755 0
M  V30 595 H 48.3283 -0.0860822 3.92005 0
M  V30 596 H 49.8183 -1.06935 4.03676 0
M  V30 597 N 50.2554 -1.46986 0.568584 0
M  V30 598 C 51.2034 -2.31858 -0.185649 0
M  V30 599 C 52.1974 -1.43624 -0.898249 0
M  V30 600 O 53.4034 -1.60327 -0.818242 0
M  V30 601 H 49.7784 -0.747866 -0.0787399 0
M  V30 602 H 51.7494 -2.93303 0.549191 0
M  V30 603 C 50.4984 -3.26513 -1.19519 0
M  V30 604 H 49.8214 -3.94377 -0.656285 0
M  V30 605 H 51.2614 -3.88707 -1.6936 0
M  V30 606 C 49.7204 -2.50847 -2.24894 0
M  V30 607 O 50.2504 -2.26119 -3.32014 0
M  V30 608 N 48.4564 -2.11656 -1.99124 0
M  V30 609 H 48.0034 -2.31966 -1.12024 0
M  V30 610 H 47.9614 -1.61347 -2.69842 0
M  V30 611 N 51.7335 -0.305618 -1.54608 0
M  V30 612 C 52.9615 0.304775 -2.04643 0
M  V30 613 C 53.3765 1.47167 -1.18268 0
M  V30 614 O 52.7335 1.81296 -0.209328 0
M  V30 615 C 52.7845 0.756564 -3.53495 0
M  V30 616 O 52.5055 -0.36389 -4.36586 0
M  V30 617 C 54.0065 1.43163 -4.19546 0
M  V30 618 H 51.2265 0.0655481 -0.667791 0
M  V30 619 H 53.7705 -0.446592 -1.99564 0
M  V30 620 H 51.9255 1.45794 -3.58919 0
M  V30 621 H 52.3395 -0.0113121 -5.24499 0
M  V30 622 H 53.8135 1.69886 -5.25207 0
M  V30 623 H 54.2905 2.37318 -3.69563 0
M  V30 624 H 54.8965 0.773307 -4.18211 0
M  V30 625 N 53.2116 1.57565 -0.0334293 0
M  V30 626 C 54.1586 2.10478 0.946981 0
M  V30 627 C 55.1286 1.00787 1.32027 0
M  V30 628 O 56.3136 1.28232 1.41284 0
M  V30 629 C 53.4536 2.63994 2.22263 0
M  V30 630 C 52.5666 3.87709 1.90541 0
M  V30 631 C 51.7016 4.29604 3.12433 0
M  V30 632 C 50.7406 5.46065 2.76549 0
M  V30 633 N 49.8776 5.83096 3.9108 0
M  V30 634 H 54.7176 2.93963 0.488846 0
M  V30 635 H 52.2546 1.45296 0.22969 0
M  V30 636 H 54.2126 2.93114 2.96884 0
M  V30 637 H 52.8426 1.83333 2.65685 0
M  V30 638 H 51.8946 3.65291 1.06144 0
M  V30 639 H 53.2066 4.72403 1.60116 0
M  V30 640 H 52.3606 4.60182 3.9537 0
M  V30 641 H 51.0996 3.43685 3.46023 0
M  V30 642 H 50.1046 5.15176 1.92026 0
M  V30 643 H 51.3296 6.33685 2.44171 0
M  V30 644 H 49.2756 5.00132 4.24504 0
M  V30 645 H 49.1926 6.6244 3.64293 0
M  V30 646 H 50.4606 6.18282 4.74708 0
M  V30 647 N 54.6897 -0.239769 1.55765 0
M  V30 648 C 55.9387 -0.964754 1.77131 0
M  V30 649 C 56.2517 -1.86213 0.59868 0
M  V30 650 O 57.4577 -2.6244 0.695522 0
M  V30 651 C 55.9137 -1.76552 3.1362 0
M  V30 652 C 55.5217 -0.915185 4.38553 0
M  V30 653 C 57.2657 -2.48281 3.44321 0
M  V30 654 C 55.1727 -1.71225 5.66071 0
M  V30 655 H 54.1027 -0.363953 0.660344 0
M  V30 656 H 56.7537 -0.219181 1.82186 0
M  V30 657 H 55.1357 -2.55331 3.02691 0
M  V30 658 H 56.3097 -0.169217 4.60489 0
M  V30 659 H 54.6247 -0.310889 4.15238 0
M  V30 660 H 57.2217 -3.08382 4.36812 0
M  V30 661 H 57.5647 -3.20256 2.65973 0
M  V30 662 H 58.0977 -1.76507 3.56497 0
M  V30 663 H 54.8367 -1.03612 6.4726 0
M  V30 664 H 54.3567 -2.43331 5.48224 0
M  V30 665 H 56.0357 -2.27758 6.05587 0
M  V30 666 N 56.1678 -1.49265 -0.50573 0
M  V30 667 C 57.4158 -1.582 -1.25766 0
M  V30 668 C 57.7368 -0.268482 -1.93143 0
M  V30 669 O 57.0068 0.711833 -1.8251 0
M  V30 670 H 55.5868 -0.582873 -0.467191 0
M  V30 671 H 58.2488 -1.85865 -0.586525 0
M  V30 672 H 57.3448 -2.37563 -2.02412 0
M  V30 673 N 57.6459 0.756429 -1.3826 0
M  V30 674 C 59.0569 1.33359 -1.30661 0
M  V30 675 C 59.4079 1.96161 0.0388875 0
M  V30 676 O 58.5329 1.94874 0.940918 0
M  V30 677 C 59.1279 2.42477 -2.36622 0
M  V30 678 C 57.6869 2.95922 -2.3261 0
M  V30 679 C 56.8339 1.69275 -2.19639 0
M  V30 680 H 59.7849 0.55552 -1.4866 0
M  V30 681 H 59.8059 3.22345 -2.02174 0
M  V30 682 H 59.3179 1.96739 -3.34538 0
M  V30 683 H 57.4189 3.45996 -1.38267 0
M  V30 684 H 57.5319 3.50494 -3.26636 0
M  V30 685 H 55.8959 1.92793 -1.66442 0
M  V30 686 H 56.6789 1.25619 -3.19491 0
M  V30 687 N 59.124 1.23083 0.984299 0
M  V30 688 C 60.54 0.992637 1.24975 0
M  V30 689 C 60.74 -0.308618 1.99123 0
M  V30 690 O 59.796 -1.02905 2.30579 0
M  V30 691 C 61.109 2.19698 2.05312 0
M  V30 692 C 62.657 2.24147 2.18465 0
M  V30 693 C 63.132 3.44157 3.02192 0
M  V30 694 N 64.623 3.44372 3.09777 0
M  V30 695 C 65.358 4.33886 3.74874 0
M  V30 696 N 64.854 5.3363 4.41827 0
M  V30 697 N 66.647 4.21639 3.71721 0
M  V30 698 H 58.798 2.06731 0.487453 0
M  V30 699 H 61.061 0.906339 0.277944 0
M  V30 700 H 60.767 3.1411 1.58201 0
M  V30 701 H 60.641 2.20465 3.06064 0
M  V30 702 H 63.028 1.30277 2.64786 0
M  V30 703 H 63.109 2.27415 1.17115 0
M  V30 704 H 62.753 4.38332 2.56568 0
M  V30 705 H 62.683 3.3813 4.03702 0
M  V30 706 H 65.174 2.72201 2.62135 0
M  V30 707 H 65.487 5.98196 4.89266 0
M  V30 708 H 63.832 5.37534 4.40548 0
M  V30 709 H 67.023 3.42962 3.18582 0
M  V30 710 H 67.196 4.91604 4.22173 0
M  V30 711 N 60.6021 -1.18246 1.0419 0
M  V30 712 C 62.0181 -1.40269 0.761366 0
M  V30 713 C 62.2181 -1.90777 -0.648578 0
M  V30 714 O 61.2741 -2.0929 -1.41258 0
M  V30 715 C 62.5871 -2.40237 1.8085 0
M  V30 716 C 64.1351 -2.53961 1.82955 0
M  V30 717 C 64.6101 -3.57194 2.86664 0
M  V30 718 N 66.1011 -3.64702 2.85563 0
M  V30 719 C 66.8361 -4.44309 3.6246 0
M  V30 720 N 66.3321 -5.27514 4.49111 0
M  V30 721 N 68.1251 -4.39084 3.50944 0
M  V30 722 H 60.2761 -0.837882 1.95175 0
M  V30 723 H 62.5391 -0.430608 0.84456 0
M  V30 724 H 62.2451 -2.10176 2.81991 0
M  V30 725 H 62.1191 -3.39601 1.64168 0
M  V30 726 H 64.5061 -2.83338 0.824855 0
M  V30 727 H 64.5871 -1.54706 2.03715 0
M  V30 728 H 64.2311 -3.28558 3.87314 0
M  V30 729 H 64.1611 -4.5613 2.6316 0
M  V30 730 H 66.6521 -3.05289 2.22727 0
M  V30 731 H 66.9651 -5.85411 5.04493 0
M  V30 732 H 65.3101 -5.2693 4.53178 0
M  V30 733 H 68.5011 -3.7313 2.82651 0
M  V30 734 H 68.6741 -5.00883 4.11121 0
M  V30 735 N 62.0802 -0.821533 -1.34494 0
M  V30 736 C 63.3292 -0.405355 -1.97585 0
M  V30 737 C 63.6422 1.03677 -1.65863 0
M  V30 738 O 64.8482 1.55679 -2.22433 0
M  V30 739 C 63.3042 -0.673861 -3.53535 0
M  V30 740 C 62.9122 -2.12951 -3.94152 0
M  V30 741 C 64.6562 -0.32378 -4.23263 0
M  V30 742 C 62.5632 -2.34298 -5.43009 0
M  V30 743 H 61.4932 -0.147836 -0.739365 0
M  V30 744 H 64.1442 -1.00769 -1.53355 0
M  V30 745 H 62.5262 -0.00137554 -3.96 0
M  V30 746 H 63.7002 -2.84104 -3.62797 0
M  V30 747 H 62.0152 -2.44089 -3.37356 0
M  V30 748 H 64.6122 -0.461126 -5.32708 0
M  V30 749 H 64.9552 0.731586 -4.09821 0
M  V30 750 H 65.4882 -0.950786 -3.8627 0
M  V30 751 H 62.2272 -3.38335 -5.61435 0
M  V30 752 H 61.7472 -1.67687 -5.75883 0
M  V30 753 H 63.4262 -2.16588 -6.09671 0
M  V30 754 N 63.5583 1.46682 -0.576371 0
M  V30 755 C 64.5083 2.27278 0.181288 0
M  V30 756 C 65.4923 1.35497 0.867721 0
M  V30 757 O 66.6843 1.59717 0.762863 0
M  V30 758 C 63.8133 3.21703 1.19841 0
M  V30 759 C 62.8993 4.20969 0.51442 0
M  V30 760 N 63.2903 5.03999 -0.426407 0
M  V30 761 C 61.5883 4.39373 0.765963 0
M  V30 762 C 62.2893 5.75812 -0.825565 0
M  V30 763 N 61.2653 5.43315 -0.176116 0
M  V30 764 H 65.0673 2.88863 -0.541785 0
M  V30 765 H 62.5813 1.57455 -0.397697 0
M  V30 766 H 64.5783 3.78145 1.75533 0
M  V30 767 H 63.2383 2.61677 1.92238 0
M  V30 768 H 64.2493 5.11659 -0.8016 0
M  V30 769 H 60.9263 3.90502 1.47698 0
M  V30 770 H 62.3163 6.52577 -1.59976 0
M  V30 771 N 65.0364 0.313813 1.54444 0
M  V30 772 C 66.2644 -0.293918 2.04802 0
M  V30 773 C 66.6794 -1.46537 1.19047 0
M  V30 774 O 66.0364 -1.81182 0.218939 0
M  V30 775 C 66.0874 -0.737806 3.53891 0
M  V30 776 O 65.8084 0.387038 4.36387 0
M  V30 777 C 67.3094 -1.40936 4.203 0
M  V30 778 H 64.5294 -0.0620057 0.668129 0
M  V30 779 H 67.0734 0.457169 1.99324 0
M  V30 780 H 65.2284 -1.43889 3.59687 0
M  V30 781 H 65.6424 0.0391274 5.24485 0
M  V30 782 H 67.1164 -1.67099 5.26101 0
M  V30 783 H 67.5934 -2.35355 3.70816 0
M  V30 784 H 68.1994 -0.751117 4.18615 0
M  V30 785 N 66.5145 -1.57545 0.0417849 0
M  V30 786 C 67.7605 -1.92601 -0.635021 0
M  V30 787 C 68.0935 -0.919627 -1.71045 0
M  V30 788 O 67.3685 0.0557892 -1.9442 0
M  V30 789 C 67.6515 -3.38085 -1.23979 0
M  V30 790 C 67.5045 -4.49467 -0.173057 0
M  V30 791 C 68.8235 -3.83776 -2.15416 0
M  V30 792 H 65.9425 -0.700397 -0.229374 0
M  V30 793 H 68.5845 -1.89728 0.101633 0
M  V30 794 H 66.7345 -3.40664 -1.86762 0
M  V30 795 H 68.4065 -4.59018 0.458312 0
M  V30 796 H 66.6495 -4.30909 0.499996 0
M  V30 797 H 67.3205 -5.48323 -0.636054 0
M  V30 798 H 69.7965 -3.83013 -1.62605 0
M  V30 799 H 68.6725 -4.8624 -2.54679 0
M  V30 800 H 68.9335 -3.19998 -3.05047 0
M  V30 801 N 67.9926 0.231505 -1.5589 0
M  V30 802 C 69.4086 0.580748 -1.48659 0
M  V30 803 C 69.6086 1.87617 -0.73498 0
M  V30 804 O 68.6646 2.51046 -0.270586 0
M  V30 805 C 69.9776 0.669202 -2.93159 0
M  V30 806 C 71.5256 0.760499 -3.03621 0
M  V30 807 C 72.0006 0.880383 -4.49459 0
M  V30 808 N 73.4916 0.944861 -4.53461 0
M  V30 809 C 74.2266 1.05716 -5.63571 0
M  V30 810 N 73.7226 1.13403 -6.83456 0
M  V30 811 N 75.5156 1.09152 -5.514 0
M  V30 812 H 67.6666 -0.618695 -2.03189 0
M  V30 813 H 69.9296 -0.215728 -0.923128 0
M  V30 814 H 69.6356 -0.212904 -3.51055 0
M  V30 815 H 69.5096 1.5361 -3.44505 0
M  V30 816 H 71.8966 1.63305 -2.45796 0
M  V30 817 H 71.9776 -0.131864 -2.5546 0
M  V30 818 H 71.6216 0.0123284 -5.07899 0
M  V30 819 H 71.5516 1.78802 -4.95316 0
M  V30 820 H 74.0426 0.896176 -3.6712 0
M  V30 821 H 74.3556 1.21921 -7.63122 0
M  V30 822 H 72.7006 1.10333 -6.86186 0
M  V30 823 H 75.8916 1.02805 -4.56671 0
M  V30 824 H 76.0646 1.17558 -6.37247 0
M  V30 825 N 69.4707 1.49531 0.497807 0
M  V30 826 C 70.7167 1.59415 1.25358 0
M  V30 827 C 71.0497 0.281422 1.9215 0
M  V30 828 O 70.3247 -0.715249 1.80871 0
M  V30 829 C 70.6077 2.75566 2.3181 0
M  V30 830 C 70.4607 4.16642 1.69498 0
M  V30 831 C 71.7797 2.87347 3.33346 0
M  V30 832 H 68.8987 0.580244 0.454408 0
M  V30 833 H 71.5407 1.81827 0.551262 0
M  V30 834 H 69.6907 2.56587 2.91711 0
M  V30 835 H 71.3627 4.47145 1.13399 0
M  V30 836 H 69.6057 4.22141 0.998978 0
M  V30 837 H 70.2767 4.93792 2.46725 0
M  V30 838 H 72.7527 3.04634 2.83438 0
M  V30 839 H 71.6287 3.70289 4.05188 0
M  V30 840 H 71.8897 1.96834 3.95865 0
M  V30 841 N 70.9488 -0.749086 1.3866 0
M  V30 842 C 72.3648 -1.05276 1.19955 0
M  V30 843 C 72.5648 -2.01435 0.05134 0
M  V30 844 O 71.6208 -2.45232 -0.60147 0
M  V30 845 C 72.9338 -1.62853 2.52783 0
M  V30 846 C 74.4818 -1.75002 2.59506 0
M  V30 847 C 74.9568 -2.35991 3.92521 0
M  V30 848 N 76.4478 -2.43416 3.94085 0
M  V30 849 C 77.1828 -2.91511 4.9377 0
M  V30 850 N 76.6788 -3.39608 6.03853 0
M  V30 851 N 78.4718 -2.90592 4.81157 0
M  V30 852 H 70.6228 -0.111066 2.12109 0
M  V30 853 H 72.8858 -0.111901 0.941373 0
M  V30 854 H 72.5918 -0.99664 3.37283 0
M  V30 855 H 72.4658 -2.61854 2.715 0
M  V30 856 H 74.8528 -2.37317 1.75398 0
M  V30 857 H 74.9338 -0.74693 2.44652 0
M  V30 858 H 74.5778 -1.74308 4.77053 0
M  V30 859 H 74.5078 -3.3695 4.04688 0
M  V30 860 H 76.9988 -2.09405 3.14576 0
M  V30 861 H 77.3118 -3.74775 6.75843 0
M  V30 862 H 75.6568 -3.37653 6.07466 0
M  V30 863 H 78.8478 -2.52332 3.94267 0
M  V30 864 H 79.0208 -3.27762 5.58996 0
M  V30 865 N 72.4269 -1.23603 -0.977757 0
M  V30 866 C 73.6749 -1.06759 -1.71601 0
M  V30 867 C 73.9959 0.395929 -1.90938 0
M  V30 868 O 73.2659 1.28356 -1.47992 0
M  V30 869 H 71.8459 -0.392062 -0.635843 0
M  V30 870 H 74.5079 -1.55362 -1.1768 0
M  V30 871 H 73.6039 -1.55763 -2.70452 0
M  V30 872 N 73.905 1.17692 -1.04816 0
M  V30 873 C 75.153 1.87488 -0.754497 0
M  V30 874 C 75.474 1.81205 0.720407 0
M  V30 875 O 74.744 1.23544 1.52032 0
M  V30 876 H 73.324 0.694101 -0.276102 0
M  V30 877 H 75.986 1.42793 -1.32651 0
M  V30 878 H 75.082 2.93328 -1.06606 0
M  V30 879 N 75.3831 0.828654 1.34056 0
M  V30 880 C 76.3311 0.242973 2.31327 0
M  V30 881 C 77.3251 -0.61944 1.57668 0
M  V30 882 O 78.5311 -0.51014 1.7262 0
M  V30 883 H 74.9061 0.059834 0.749616 0
M  V30 884 H 76.8771 1.07809 2.78244 0
M  V30 885 C 75.6261 -0.575733 3.429 0
M  V30 886 H 74.9491 0.0785582 3.99723 0
M  V30 887 H 76.3891 -0.951547 4.13185 0
M  V30 888 C 74.8481 -1.75044 2.87856 0
M  V30 889 O 75.3781 -2.84882 2.83205 0
M  V30 890 N 73.5841 -1.56903 2.44602 0
M  V30 891 H 73.1311 -0.675547 2.48584 0
M  V30 892 H 73.0891 -2.35652 2.08124 0
M  V30 893 N 76.8612 -1.46375 0.584142 0
M  V30 894 C 77.8082 -2.30323 -0.148286 0
M  V30 895 C 78.7782 -1.40703 -0.882713 0
M  V30 896 O 79.9632 -1.69651 -0.873099 0
M  V30 897 C 77.1032 -3.25196 -1.15507 0
M  V30 898 C 76.2162 -4.29915 -0.423943 0
M  V30 899 C 75.3512 -5.11914 -1.41838 0
M  V30 900 C 74.3902 -6.08381 -0.673736 0
M  V30 901 N 73.5272 -6.83242 -1.6163 0
M  V30 902 H 78.3672 -2.92427 0.573644 0
M  V30 903 H 75.9042 -1.44118 0.294703 0
M  V30 904 H 77.8622 -3.78646 -1.75166 0
M  V30 905 H 76.4922 -2.64898 -1.8447 0
M  V30 906 H 75.5442 -3.7931 0.287714 0
M  V30 907 H 76.8562 -4.98549 0.158128 0
M  V30 908 H 76.0102 -5.69648 -2.08773 0
M  V30 909 H 74.7492 -4.43243 -2.03438 0
M  V30 910 H 73.7542 -5.49799 0.00938483 0
M  V30 911 H 74.9792 -6.79071 -0.0631082 0
M  V30 912 H 72.9252 -6.1728 -2.22038 0
M  V30 913 H 72.8422 -7.48144 -1.08707 0
M  V30 914 H 74.1102 -7.45534 -2.27596 0
M  V30 915 N 78.3393 -0.321999 -1.54275 0
M  V30 916 C 79.2863 0.544664 -2.24281 0
M  V30 917 C 80.2563 1.1129 -1.23303 0
M  V30 918 O 81.4413 1.15354 -1.51981 0
M  V30 919 C 78.5813 1.70045 -3.00298 0
M  V30 920 C 77.6943 1.16159 -4.1609 0
M  V30 921 C 76.8293 2.28293 -4.79641 0
M  V30 922 C 75.8683 1.71648 -5.8754 0
M  V30 923 N 75.0053 2.77438 -6.44959 0
M  V30 924 H 79.8453 -0.0588907 -2.97942 0
M  V30 925 H 77.3823 -0.0408345 -1.47043 0
M  V30 926 H 79.3403 2.38054 -3.42616 0
M  V30 927 H 77.9703 2.27531 -2.28975 0
M  V30 928 H 77.0223 0.373092 -3.78566 0
M  V30 929 H 78.3343 0.707087 -4.93763 0
M  V30 930 H 77.4883 3.0421 -5.2492 0
M  V30 931 H 76.2273 2.77079 -4.01346 0
M  V30 932 H 75.2323 0.942282 -5.41665 0
M  V30 933 H 76.4573 1.23741 -6.67731 0
M  V30 934 H 74.4033 3.25519 -5.69538 0
M  V30 935 H 74.3203 2.36547 -7.1804 0
M  V30 936 H 75.5883 3.53189 -6.94894 0
M  V30 937 N 79.8174 1.5752 -0.0501392 0
M  V30 938 C 81.0474 1.96678 0.632573 0
M  V30 939 C 81.4554 0.926298 1.64974 0
M  V30 940 O 80.7984 -0.09802 1.83438 0
M  V30 941 C 80.8604 3.32068 1.37735 0
M  V30 942 C 80.5244 4.54076 0.516131 0
M  V30 943 C 81.5214 5.19445 -0.217357 0
M  V30 944 C 79.2064 5.00304 0.44736 0
M  V30 945 C 81.2004 6.29378 -1.00807 0
M  V30 946 C 78.8874 6.10114 -0.347038 0
M  V30 947 C 79.8854 6.74512 -1.07344 0
M  V30 948 O 79.5734 7.82211 -1.85477 0
M  V30 949 H 79.3054 0.652193 0.177821 0
M  V30 950 H 81.8594 2.05091 -0.112543 0
M  V30 951 H 80.0894 3.20206 2.16807 0
M  V30 952 H 81.7784 3.55981 1.95019 0
M  V30 953 H 82.5444 4.84689 -0.173688 0
M  V30 954 H 78.4234 4.49971 1.00235 0
M  V30 955 H 81.9674 6.79575 -1.57556 0
M  V30 956 H 77.8644 6.44307 -0.392349 0
M  V30 957 H 78.6324 7.98982 -1.77678 0
M  V30 958 N 81.2955 -0.223234 1.56011 0
M  V30 959 C 82.7115 -0.572856 1.48965 0
M  V30 960 C 82.9115 -1.87225 0.74492 0
M  V30 961 O 81.9675 -2.50899 0.283896 0
M  V30 962 C 83.2805 -0.653646 2.9351 0
M  V30 963 C 84.8285 -0.744386 3.0402 0
M  V30 964 C 85.3035 -0.856535 4.49919 0
M  V30 965 N 86.7945 -0.9208 4.53955 0
M  V30 966 C 87.5295 -1.02726 5.64123 0
M  V30 967 N 87.0255 -1.09777 6.84047 0
M  V30 968 N 88.8185 -1.06226 5.51971 0
M  V30 969 H 80.9695 0.629462 2.02858 0
M  V30 970 H 83.2325 0.220621 0.921971 0
M  V30 971 H 82.9385 0.231518 3.50937 0
M  V30 972 H 82.8125 -1.51781 3.45315 0
M  V30 973 H 85.1995 -1.61999 2.46658 0
M  V30 974 H 85.2805 0.14541 2.55386 0
M  V30 975 H 84.9245 0.0146069 5.07898 0
M  V30 976 H 84.8545 -1.76172 4.96257 0
M  V30 977 H 87.3455 -0.876694 3.6759 0
M  V30 978 H 87.6585 -1.17872 7.63758 0
M  V30 979 H 86.0035 -1.06693 6.86762 0
M  V30 980 H 89.1945 -1.00382 4.5721 0
M  V30 981 H 89.3675 -1.14177 6.37862 0
M  V30 982 N 82.7736 -1.49793 -0.48987 0
M  V30 983 C 83.7366 -1.66752 -1.57246 0
M  V30 984 C 84.7366 -0.538867 -1.51502 0
M  V30 985 O 85.9266 -0.805545 -1.54456 0
M  V30 986 C 83.0586 -1.67528 -2.96896 0
M  V30 987 H 84.2516 -2.63321 -1.43534 0
M  V30 988 H 81.8046 -1.38992 -0.714914 0
M  V30 989 H 82.5396 -0.725837 -3.16073 0
M  V30 990 H 82.3246 -2.49504 -3.02473 0
M  V30 991 H 83.8146 -1.82667 -3.7553 0
M  V30 992 N 84.2517 0.741722 -1.39055 0
M  V30 993 C 85.1817 1.869 -1.39966 0
M  V30 994 C 86.1627 1.6804 -0.26392 0
M  V30 995 O 87.3477 1.88458 -0.468755 0
M  V30 996 C 84.4777 3.24572 -1.23574 0
M  V30 997 C 83.4317 3.58056 -2.34477 0
M  V30 998 C 82.7577 4.94593 -2.0318 0
M  V30 999 C 84.0577 3.61716 -3.76774 0
M  V30 1000 H 85.7517 1.86395 -2.34302 0
M  V30 1001 H 83.2977 0.895361 -1.1278 0
M  V30 1002 H 85.2507 4.031 -1.22834 0
M  V30 1003 H 83.9747 3.25587 -0.257045 0
M  V30 1004 H 82.6337 2.81854 -2.34423 0
M  V30 1005 H 82.2817 4.92181 -1.03765 0
M  V30 1006 H 81.9817 5.17964 -2.77465 0
M  V30 1007 H 83.5057 5.75486 -2.04079 0
M  V30 1008 H 84.9197 4.30335 -3.78794 0
M  V30 1009 H 83.3167 3.96603 -4.50362 0
M  V30 1010 H 84.3867 2.61672 -4.08235 0
M  V30 1011 N 85.7298 1.2412 0.971189 0
M  V30 1012 C 87.1458 1.00584 1.23916 0
M  V30 1013 C 87.3458 -0.287481 1.99439 0
M  V30 1014 O 86.4018 -1.00454 2.31658 0
M  V30 1015 C 87.7148 2.21864 2.0297 0
M  V30 1016 C 89.2628 2.26452 2.16076 0
M  V30 1017 C 89.7378 3.47343 2.98524 0
M  V30 1018 N 91.2288 3.47639 3.06107 0
M  V30 1019 C 91.9638 4.37837 3.70251 0
M  V30 1020 N 91.4598 5.38286 4.36142 0
M  V30 1021 N 93.2528 4.25558 3.67228 0
M  V30 1022 H 85.4038 2.07236 0.465499 0
M  V30 1023 H 87.6668 0.909236 0.268315 0
M  V30 1024 H 87.3728 3.15771 1.54861 0
M  V30 1025 H 87.2468 2.23698 3.03709 0
M  V30 1026 H 89.6338 1.33078 2.6339 0
M  V30 1027 H 89.7148 2.28645 1.14696 0
M  V30 1028 H 89.3588 4.41029 2.51905 0
M  V30 1029 H 89.2888 3.42393 4.00093 0
M  V30 1030 H 91.7798 2.74966 2.59233 0
M  V30 1031 H 92.0928 6.03352 4.82894 0
M  V30 1032 H 90.4378 5.42176 4.34822 0
M  V30 1033 H 93.6288 3.46322 3.14927 0
M  V30 1034 H 93.8018 4.96054 4.16935 0
M  V30 1035 N 87.2079 -1.17134 1.05439 0
M  V30 1036 C 88.1379 -2.2342 0.678649 0
M  V30 1037 C 89.1189 -1.66971 -0.32476 0
M  V30 1038 O 90.3039 -1.93149 -0.201802 0
M  V30 1039 C 87.4339 -3.47256 0.0552099 0
M  V30 1040 C 86.3879 -4.16543 0.98365 0
M  V30 1041 C 85.7139 -5.34231 0.223961 0
M  V30 1042 C 87.0139 -4.68495 2.3089 0
M  V30 1043 H 88.7079 -2.55105 1.56722 0
M  V30 1044 H 86.2539 -1.2262 0.754998 0
M  V30 1045 H 88.2069 -4.20828 -0.21946 0
M  V30 1046 H 86.9309 -3.14846 -0.868319 0
M  V30 1047 H 85.5899 -3.44887 1.24293 0
M  V30 1048 H 85.2379 -4.98071 -0.702412 0
M  V30 1049 H 84.9379 -5.81527 0.842627 0
M  V30 1050 H 86.4619 -6.10585 -0.0433671 0
M  V30 1051 H 87.8759 -5.33691 2.09396 0
M  V30 1052 H 86.2729 -5.26379 2.88176 0
M  V30 1053 H 87.3429 -3.85169 2.94572 0
M  V30 1054 N 88.686 -0.835752 -1.33615 0
M  V30 1055 C 89.963 -0.352017 -1.92406 0
M  V30 1056 C 90.343 1.16225 -1.76224 0
M  V30 1057 O 89.691 1.97526 -1.14873 0
M  V30 1058 C 89.901 -0.795485 -3.39813 0
M  V30 1059 C 91.249 -0.801703 -4.16963 0
M  V30 1060 O 92.273 -0.738889 -3.48452 0
M  V30 1061 O 91.132 -0.886607 -5.3926 0
M  V30 1062 H 88.226 -0.0989641 -0.821057 0
M  V30 1063 H 90.772 -0.921397 -1.42507 0
M  V30 1064 H 89.544 -1.83795 -3.45449 0
M  V30 1065 H 89.167 -0.202505 -3.97084 0
M  V30 1066 N 90.1641 1.46063 -0.591896 0
M  V30 1067 C 91.4101 2.02638 -0.0811191 0
M  V30 1068 C 91.7431 1.4613 1.27905 0
M  V30 1069 O 91.0181 0.629908 1.84017 0
M  V30 1070 C 91.3011 3.60091 -0.0252436 0
M  V30 1071 C 91.1541 4.26965 -1.41496 0
M  V30 1072 C 92.4731 4.3496 0.670685 0
M  V30 1073 H 89.5921 0.73635 -0.0309524 0
M  V30 1074 H 92.2341 1.741 -0.760859 0
M  V30 1075 H 90.3841 3.84535 0.553624 0
M  V30 1076 H 92.0561 4.13756 -2.0397 0
M  V30 1077 H 90.2991 3.85971 -1.98011 0
M  V30 1078 H 90.9701 5.35781 -1.32825 0
M  V30 1079 H 93.4461 4.15716 0.178825 0
M  V30 1080 H 92.3221 5.44686 0.678837 0
M  V30 1081 H 92.5831 4.06685 1.73379 0
M  V30 1082 N 91.6422 0.330177 1.54103 0
M  V30 1083 C 92.8902 -0.269871 2.0029 0
M  V30 1084 C 93.2112 -1.52133 1.21986 0
M  V30 1085 O 92.4812 -1.93212 0.323438 0
M  V30 1086 H 91.0612 -0.10271 0.739905 0
M  V30 1087 H 93.7232 0.448249 1.89675 0
M  V30 1088 H 92.8192 -0.52166 3.07709 0
M  V30 1089 N 93.1203 -1.57491 0.0584922 0
M  V30 1090 C 94.0683 -2.13148 -0.931168 0
M  V30 1091 C 95.0623 -1.06507 -1.31729 0
M  V30 1092 O 96.2683 -1.24906 -1.29609 0
M  V30 1093 H 92.6433 -0.68137 -0.31818 0
M  V30 1094 H 94.6143 -2.95187 -0.436707 0
M  V30 1095 C 93.3633 -2.69732 -2.19408 0
M  V30 1096 H 92.6863 -3.51454 -1.90578 0
M  V30 1097 H 94.1263 -3.12287 -2.86798 0
M  V30 1098 C 92.5853 -1.63855 -2.94369 0
M  V30 1099 O 93.1153 -1.05565 -3.87581 0
M  V30 1100 N 91.3213 -1.35202 -2.57233 0
M  V30 1101 H 90.8683 -1.82791 -1.81508 0
M  V30 1102 H 90.8263 -0.645922 -3.07693 0
M  V30 1103 N 94.5984 0.214957 -1.56127 0
M  V30 1104 C 95.8454 0.938372 -1.79446 0
M  V30 1105 C 96.1734 1.8407 -0.628378 0
M  V30 1106 O 95.4284 1.91837 0.386925 0
M  V30 1107 C 95.7274 1.80314 -3.0858 0
M  V30 1108 C 95.3934 1.05349 -4.3842 0
M  V30 1109 C 94.0554 0.846435 -4.73697 0
M  V30 1110 C 96.4074 0.524588 -5.18553 0
M  V30 1111 C 93.7354 0.098683 -5.86617 0
M  V30 1112 C 96.0874 -0.209853 -6.32252 0
M  V30 1113 C 94.7514 -0.428102 -6.66126 0
M  V30 1114 H 94.0214 0.343375 -0.656639 0
M  V30 1115 H 96.6684 0.206077 -1.90388 0
M  V30 1116 H 94.9734 2.6035 -2.92789 0
M  V30 1117 H 96.6704 2.36513 -3.23825 0
M  V30 1118 H 93.2604 1.22486 -4.10725 0
M  V30 1119 H 97.4444 0.672008 -4.91729 0
M  V30 1120 H 92.7004 -0.0805753 -6.11347 0
M  V30 1121 H 96.8744 -0.627157 -6.9357 0
M  V30 1122 H 94.5014 -1.00944 -7.53468 0
M  V30 1123 N 96.0765 1.50051 0.48192 0
M  V30 1124 C 97.3015 1.64508 1.26301 0
M  V30 1125 C 97.7265 0.323851 1.85291 0
M  V30 1126 O 97.0845 -0.710969 1.66778 0
M  V30 1127 C 97.1325 2.7305 2.35533 0
M  V30 1128 O 96.2365 2.3355 3.39895 0
M  V30 1129 H 95.5775 0.549978 0.372048 0
M  V30 1130 H 98.1075 1.9636 0.574786 0
M  V30 1131 H 98.1175 2.95799 2.8101 0
M  V30 1132 H 96.7925 3.68946 1.91967 0
M  V30 1133 H 95.3695 2.21205 3.00204 0
M  V30 1134 N 97.5546 -0.734337 1.39446 0
M  V30 1135 C 98.8006 -1.49505 1.37913 0
M  V30 1136 C 99.1556 -1.92384 -0.0248416 0
M  V30 1137 O 98.4486 -1.6395 -0.991506 0
M  V30 1138 C 98.6426 -2.74711 2.28623 0
M  V30 1139 C 98.4716 -2.44075 3.777 0
M  V30 1140 C 97.2416 -2.36338 4.46623 0
M  V30 1141 C 99.4396 -2.09574 4.69663 0
M  V30 1142 N 97.4216 -1.9818 5.81032 0
M  V30 1143 C 98.7926 -1.81865 5.92727 0
M  V30 1144 C 100.848 -1.96048 4.57678 0
M  V30 1145 C 99.5506 -1.41992 7.05146 0
M  V30 1146 C 101.577 -1.57579 5.7002 0
M  V30 1147 C 100.939 -1.30754 6.92158 0
M  V30 1148 H 97.0376 -0.545896 0.55993 0
M  V30 1149 H 99.6216 -0.853373 1.75002 0
M  V30 1150 H 97.7926 -3.36657 1.93692 0
M  V30 1151 H 99.5246 -3.40916 2.18078 0
M  V30 1152 H 96.2796 -2.53456 4.00071 0
M  V30 1153 H 96.7036 -1.81691 6.52163 0
M  V30 1154 H 101.346 -2.15455 3.63784 0
M  V30 1155 H 99.0636 -1.21327 7.9894 0
M  V30 1156 H 102.65 -1.47718 5.62735 0
M  V30 1157 H 101.53 -1.01432 7.77612 0
M  V30 1158 N 99.0327 -1.24633 -0.964593 0
M  V30 1159 C 100.281 -1.08573 -1.70459 0
M  V30 1160 C 100.602 0.375655 -1.91347 0
M  V30 1161 O 99.8717 1.26779 -1.49345 0
M  V30 1162 H 98.4517 -0.398784 -0.631649 0
M  V30 1163 H 101.114 -1.56601 -1.16026 0
M  V30 1164 H 100.21 -1.58623 -2.68785 0
M  V30 1165 N 100.511 1.16574 -1.06058 0
M  V30 1166 C 101.736 1.91493 -0.796562 0
M  V30 1167 C 102.161 1.76773 0.642868 0
M  V30 1168 O 101.519 1.09142 1.44768 0
M  V30 1169 C 101.567 3.40293 -1.19303 0
M  V30 1170 O 100.671 4.11074 -0.330394 0
M  V30 1171 H 100.012 0.596678 -0.291326 0
M  V30 1172 H 102.542 1.47708 -1.41575 0
M  V30 1173 H 102.552 3.91057 -1.16356 0
M  V30 1174 H 101.227 3.50326 -2.24153 0
M  V30 1175 H 99.8038 3.70513 -0.421225 0
M  V30 1176 N 101.989 0.842826 1.3317 0
M  V30 1177 C 102.899 0.281444 2.32906 0
M  V30 1178 C 103.915 -0.594587 1.63526 0
M  V30 1179 O 105.091 -0.49777 1.95152 0
M  V30 1180 C 102.156 -0.530929 3.42611 0
M  V30 1181 C 101.217 0.369843 4.27704 0
M  V30 1182 C 100.45 -0.403853 5.3217 0
M  V30 1183 O 100.673 -1.63513 5.46461 0
M  V30 1184 O 99.6069 0.224199 6.01482 0
M  V30 1185 H 103.433 1.10744 2.82789 0
M  V30 1186 H 101.018 0.60545 1.36582 0
M  V30 1187 H 102.9 -0.992437 4.09547 0
M  V30 1188 H 101.575 -1.33392 2.94938 0
M  V30 1189 H 100.482 0.879275 3.6362 0
M  V30 1190 H 101.815 1.13771 4.78871 0
M  V30 1191 N 103.467 -1.45747 0.599634 0
M  V30 1192 C 104.707 -2.04181 0.0946309 0
M  V30 1193 C 105.071 -1.45895 -1.24815 0
M  V30 1194 O 106.272 -1.95633 -1.8434 0
M  V30 1195 C 104.543 -3.57368 0.047581 0
M  V30 1196 S 106.102 -4.36997 -0.397387 0
M  V30 1197 H 102.92 -0.70953 0.0456954 0
M  V30 1198 H 105.522 -1.78564 0.795946 0
M  V30 1199 H 104.226 -3.97303 1.02852 0
M  V30 1200 H 103.757 -3.87549 -0.675977 0
M  V30 1201 H 105.772 -4.68012 -1.64862 0
M  V30 1202 N 104.945 -0.338344 -1.53925 0
M  V30 1203 C 106.185 0.260168 -2.02737 0
M  V30 1204 C 106.549 1.48181 -1.22092 0
M  V30 1205 O 107.75 2.15416 -1.60777 0
M  V30 1206 C 106.021 0.571627 -3.52799 0
M  V30 1207 S 107.58 1.14769 -4.23525 0
M  V30 1208 H 104.398 0.077791 -0.706732 0
M  V30 1209 H 107 -0.474899 -1.89644 0
M  V30 1210 H 105.704 -0.325392 -4.09108 0
M  V30 1211 H 105.235 1.3365 -3.70002 0
M  V30 1212 H 107.25 2.43372 -4.32417 0
M  V30 1213 N 106.423 1.57458 -0.0668435 0
M  V30 1214 C 107.651 1.97624 0.612565 0
M  V30 1215 C 108.066 0.94502 1.63447 0
M  V30 1216 O 107.423 -0.0689276 1.8237 0
M  V30 1217 C 107.474 3.37869 1.28555 0
M  V30 1218 O 107.195 4.3704 0.304557 0
M  V30 1219 C 108.696 3.92882 2.05325 0
M  V30 1220 H 105.916 0.650045 0.166381 0
M  V30 1221 H 108.46 2.04035 -0.137782 0
M  V30 1222 H 106.615 3.3256 1.98702 0
M  V30 1223 H 107.029 5.18565 0.786779 0
M  V30 1224 H 108.503 4.93247 2.47812 0
M  V30 1225 H 108.98 3.29156 2.9078 0
M  V30 1226 H 109.586 4.01577 1.40056 0
M  V30 1227 N 107.901 -0.206675 1.56239 0
M  V30 1228 C 109.317 -0.557025 1.49564 0
M  V30 1229 C 109.517 -1.86424 0.764735 0
M  V30 1230 O 108.573 -2.50584 0.310491 0
M  V30 1231 C 109.886 -0.622478 2.94186 0
M  V30 1232 C 111.434 -0.712099 3.04792 0
M  V30 1233 C 111.909 -0.808767 4.50803 0
M  V30 1234 N 113.4 -0.8726 4.54907 0
M  V30 1235 C 114.135 -0.967365 5.65181 0
M  V30 1236 N 113.631 -1.02515 6.85173 0
M  V30 1237 N 115.424 -1.00366 5.53067 0
M  V30 1238 H 107.575 0.650943 2.02179 0
M  V30 1239 H 109.838 0.230387 0.919579 0
M  V30 1240 H 109.544 0.268727 3.50672 0
M  V30 1241 H 109.418 -1.4811 3.46905 0
M  V30 1242 H 111.805 -1.59374 2.48363 0
M  V30 1243 H 111.886 0.172489 2.55218 0
M  V30 1244 H 111.53 0.0684754 5.07854 0
M  V30 1245 H 111.46 -1.70899 4.98098 0
M  V30 1246 H 113.951 -0.837657 3.68499 0
M  V30 1247 H 114.264 -1.09765 7.64965 0
M  V30 1248 H 112.609 -0.994026 6.87855 0
M  V30 1249 H 115.8 -0.95527 4.58249 0
M  V30 1250 H 115.973 -1.07405 6.39037 0
M  V30 1251 N 109.379 -1.50304 -0.473955 0
M  V30 1252 C 110.326 -1.68959 -1.57231 0
M  V30 1253 C 111.296 -0.530899 -1.57387 0
M  V30 1254 O 112.481 -0.761133 -1.74961 0
M  V30 1255 C 109.621 -1.7871 -2.95223 0
M  V30 1256 C 108.734 -3.06061 -3.04878 0
M  V30 1257 C 107.869 -3.06626 -4.33767 0
M  V30 1258 C 106.908 -4.28443 -4.37154 0
M  V30 1259 N 106.045 -4.26763 -5.5751 0
M  V30 1260 H 110.885 -2.6273 -1.40631 0
M  V30 1261 H 108.422 -1.30241 -0.683789 0
M  V30 1262 H 110.38 -1.82344 -3.75242 0
M  V30 1263 H 109.01 -0.883806 -3.10465 0
M  V30 1264 H 108.062 -3.11911 -2.17751 0
M  V30 1265 H 109.374 -3.96039 -3.0324 0
M  V30 1266 H 108.528 -3.08973 -5.22131 0
M  V30 1267 H 107.267 -2.14473 -4.3801 0
M  V30 1268 H 106.272 -4.2631 -3.47188 0
M  V30 1269 H 107.497 -5.2182 -4.34605 0
M  V30 1270 H 105.443 -3.37462 -5.62544 0
M  V30 1271 H 105.36 -5.10507 -5.57601 0
M  V30 1272 H 106.628 -4.33253 -6.48006 0
M  V30 1273 N 110.857 0.726932 -1.39834 0
M  V30 1274 C 112.085 1.51613 -1.40787 0
M  V30 1275 C 112.5 1.88799 -0.00451505 0
M  V30 1276 O 111.857 1.54662 0.968809 0
M  V30 1277 C 111.908 2.79863 -2.28821 0
M  V30 1278 O 111.629 2.44253 -3.63692 0
M  V30 1279 C 113.13 3.73837 -2.38245 0
M  V30 1280 H 110.35 0.468264 -0.480593 0
M  V30 1281 H 112.894 0.897607 -1.83748 0
M  V30 1282 H 111.049 3.38027 -1.89252 0
M  V30 1283 H 111.463 3.26695 -4.1033 0
M  V30 1284 H 112.937 4.60699 -3.04073 0
M  V30 1285 H 113.414 4.16153 -1.40403 0
M  V30 1286 H 114.02 3.21589 -2.78317 0
M  V30 1287 N 112.336 1.25143 0.95797 0
M  V30 1288 C 113.752 1.01892 1.22842 0
M  V30 1289 C 113.952 -0.266311 1.99732 0
M  V30 1290 O 113.008 -0.979913 2.3271 0
M  V30 1291 C 114.321 2.24004 2.00606 0
M  V30 1292 C 115.869 2.28731 2.13662 0
M  V30 1293 C 116.344 3.5049 2.94823 0
M  V30 1294 N 117.835 3.50866 3.02403 0
M  V30 1295 C 118.57 4.4174 3.65586 0
M  V30 1296 N 118.066 5.42882 4.30408 0
M  V30 1297 N 119.859 4.29429 3.62694 0
M  V30 1298 H 112.01 2.07718 0.443493 0
M  V30 1299 H 114.273 0.912031 0.258657 0
M  V30 1300 H 113.979 3.17395 1.51503 0
M  V30 1301 H 113.853 2.26907 3.01319 0
M  V30 1302 H 116.24 1.35865 2.61963 0
M  V30 1303 H 116.321 2.29848 1.12265 0
M  V30 1304 H 115.965 4.43676 2.47213 0
M  V30 1305 H 115.895 3.46617 3.96439 0
M  V30 1306 H 118.386 2.777 2.56302 0
M  V30 1307 H 118.699 6.0844 4.76467 0
M  V30 1308 H 117.044 5.46758 4.29047 0
M  V30 1309 H 120.235 3.49643 3.11236 0
M  V30 1310 H 120.408 5.00448 4.1165 0
M  V30 1311 N 113.814 -1.1601 1.06675 0
M  V30 1312 C 115.063 -1.85973 0.780818 0
M  V30 1313 C 115.376 -1.82819 -0.695444 0
M  V30 1314 O 116.582 -2.484 -1.09589 0
M  V30 1315 C 115.038 -3.33757 1.34665 0
M  V30 1316 C 114.646 -3.45374 2.85343 0
M  V30 1317 C 116.39 -4.0895 1.13843 0
M  V30 1318 C 114.297 -4.87266 3.35151 0
M  V30 1319 H 113.227 -0.696661 0.288407 0
M  V30 1320 H 115.878 -1.30903 1.28595 0
M  V30 1321 H 114.26 -3.88456 0.769274 0
M  V30 1322 H 115.434 -3.00816 3.49065 0
M  V30 1323 H 113.749 -2.83619 3.04876 0
M  V30 1324 H 116.346 -5.13654 1.4854 0
M  V30 1325 H 116.689 -4.16229 0.0770282 0
M  V30 1326 H 117.222 -3.605 1.68179 0
M  V30 1327 H 113.961 -4.85168 4.40786 0
M  V30 1328 H 113.481 -5.32433 2.76179 0
M  V30 1329 H 115.16 -5.56097 3.30704 0
M  V30 1330 N 115.292 -0.849877 -1.32721 0
M  V30 1331 C 116.541 -0.447175 -1.96681 0
M  V30 1332 C 116.854 1.00135 -1.68025 0
M  V30 1333 O 118.06 1.50926 -2.25685 0
M  V30 1334 C 116.516 -0.7487 -3.52026 0
M  V30 1335 C 116.124 -2.21264 -3.89546 0
M  V30 1336 C 117.868 -0.413487 -4.22481 0
M  V30 1337 C 115.775 -2.45763 -5.37917 0
M  V30 1338 H 114.705 -0.163486 -0.736063 0
M  V30 1339 H 117.356 -1.03999 -1.51183 0
M  V30 1340 H 115.738 -0.0853727 -3.95908 0
M  V30 1341 H 116.912 -2.91736 -3.56689 0
M  V30 1342 H 115.227 -2.5119 -3.32103 0
M  V30 1343 H 117.824 -0.574017 -5.3161 0
M  V30 1344 H 118.167 0.644492 -4.11281 0
M  V30 1345 H 118.7 -1.03251 -3.84167 0
M  V30 1346 H 115.439 -3.50168 -5.54132 0
M  V30 1347 H 114.959 -1.79864 -5.72197 0
M  V30 1348 H 116.638 -2.29471 -6.0494 0
M  V30 1349 N 116.77 1.45427 -0.607355 0
M  V30 1350 C 118.047 1.9557 -0.0344566 0
M  V30 1351 C 118.427 1.54979 1.43334 0
M  V30 1352 O 117.775 0.812241 2.13576 0
M  V30 1353 C 117.985 3.48226 -0.232321 0
M  V30 1354 C 119.333 4.2445 -0.113001 0
M  V30 1355 O 120.357 3.55829 -0.162431 0
M  V30 1356 O 119.216 5.465 0.00209442 0
M  V30 1357 H 116.31 0.826222 0.0358667 0
M  V30 1358 H 118.856 1.55594 -0.6774 0
M  V30 1359 H 117.628 3.70739 -1.25174 0
M  V30 1360 H 117.251 3.95092 0.445896 0
M  V30 1361 N 118.248 0.346503 1.53744 0
M  V30 1362 C 119.494 -0.249473 2.0126 0
M  V30 1363 C 119.827 -1.49965 1.23386 0
M  V30 1364 O 119.102 -1.91811 0.32229 0
M  V30 1365 C 119.385 -0.560643 3.55709 0
M  V30 1366 C 119.238 0.701836 4.44291 0
M  V30 1367 C 120.557 -1.36905 4.18264 0
M  V30 1368 H 117.676 -0.0891987 0.731582 0
M  V30 1369 H 120.318 0.467624 1.84156 0
M  V30 1370 H 118.468 -1.17156 3.70414 0
M  V30 1371 H 120.14 1.33974 4.41417 0
M  V30 1372 H 118.383 1.32612 4.13033 0
M  V30 1373 H 119.054 0.43933 5.50249 0
M  V30 1374 H 121.53 -0.852448 4.07275 0
M  V30 1375 H 120.406 -1.55553 5.26398 0
M  V30 1376 H 120.667 -2.37203 3.73078 0
M  V30 1377 N 119.726 -1.57421 0.075193 0
M  V30 1378 C 120.972 -1.93905 -0.594025 0
M  V30 1379 C 121.305 -0.955701 -1.69056 0
M  V30 1380 O 120.58 0.0145373 -1.94495 0
M  V30 1381 C 120.863 -3.40638 -1.1678 0
M  V30 1382 C 120.716 -4.49733 -0.0776792 0
M  V30 1383 C 122.035 -3.88259 -2.07228 0
M  V30 1384 H 119.154 -0.705105 -0.214466 0
M  V30 1385 H 121.796 -1.8947 0.141854 0
M  V30 1386 H 119.946 -3.44549 -1.79494 0
M  V30 1387 H 121.618 -4.57942 0.555573 0
M  V30 1388 H 119.861 -4.29751 0.591286 0
M  V30 1389 H 120.532 -5.49549 -0.519603 0
M  V30 1390 H 123.008 -3.86376 -1.54445 0
M  V30 1391 H 121.884 -4.91533 -2.44308 0
M  V30 1392 H 122.145 -3.26396 -2.98191 0
M  V30 1393 N 121.204 0.198386 -1.56346 0
M  V30 1394 C 122.434 0.934215 -1.84271 0
M  V30 1395 C 122.842 1.77496 -0.655125 0
M  V30 1396 O 122.185 1.7961 0.385488 0
M  V30 1397 C 122.247 1.88278 -3.06254 0
M  V30 1398 C 121.911 1.22431 -4.40295 0
M  V30 1399 C 122.908 0.602839 -5.16393 0
M  V30 1400 C 120.593 1.22915 -4.87029 0
M  V30 1401 C 122.587 -0.0050083 -6.374 0
M  V30 1402 C 120.274 0.617465 -6.07973 0
M  V30 1403 C 121.272 0.00146341 -6.83 0
M  V30 1404 O 120.96 -0.600642 -8.01653 0
M  V30 1405 H 120.692 0.278245 -0.616081 0
M  V30 1406 H 123.246 0.211626 -2.04307 0
M  V30 1407 H 121.476 2.64498 -2.82095 0
M  V30 1408 H 123.165 2.48612 -3.20853 0
M  V30 1409 H 123.931 0.591265 -4.81382 0
M  V30 1410 H 119.81 1.69801 -4.28589 0
M  V30 1411 H 123.354 -0.48643 -6.95902 0
M  V30 1412 H 119.251 0.62653 -6.42452 0
M  V30 1413 H 120.019 -0.497225 -8.16988 0
M  V30 1414 N 122.682 1.50554 0.465978 0
M  V30 1415 C 123.63 1.70324 1.58406 0
M  V30 1416 C 124.624 0.569139 1.59553 0
M  V30 1417 O 125.83 0.749776 1.63641 0
M  V30 1418 H 122.205 0.537688 0.525734 0
M  V30 1419 H 124.176 2.64104 1.38894 0
M  V30 1420 C 122.925 1.81928 2.96307 0
M  V30 1421 H 122.248 2.68586 2.96144 0
M  V30 1422 H 123.688 1.99784 3.73982 0
M  V30 1423 C 122.147 0.572095 3.32007 0
M  V30 1424 O 122.677 -0.286416 4.00678 0
M  V30 1425 N 120.883 0.424606 2.87481 0
M  V30 1426 H 120.43 1.12427 2.31771 0
M  V30 1427 H 120.388 -0.408697 3.11732 0
M  V30 1428 N 124.16 -0.719506 1.40217 0
M  V30 1429 C 125.123 -1.8153 1.39927 0
M  V30 1430 C 126.123 -1.58095 0.293723 0
M  V30 1431 O 127.313 -1.65209 0.552429 0
M  V30 1432 C 124.445 -3.19561 1.18716 0
M  V30 1433 H 125.638 -1.83186 2.37451 0
M  V30 1434 H 123.191 -0.924746 1.26008 0
M  V30 1435 H 123.926 -3.23557 0.219366 0
M  V30 1436 H 123.711 -3.3797 1.98793 0
M  V30 1437 H 125.201 -3.99598 1.21291 0
M  V30 1438 N 125.638 -1.25649 -0.95132 0
M  V30 1439 C 126.863 -1.13443 -1.73624 0
M  V30 1440 C 127.288 0.307565 -1.85568 0
M  V30 1441 O 126.646 1.22282 -1.33854 0
M  V30 1442 C 126.694 -1.79723 -3.12621 0
M  V30 1443 O 125.798 -1.07912 -3.98031 0
M  V30 1444 H 125.139 -0.395872 -0.533086 0
M  V30 1445 H 127.669 -1.66276 -1.1922 0
M  V30 1446 H 127.679 -1.86141 -3.63064 0
M  V30 1447 H 126.354 -2.84633 -3.03244 0
M  V30 1448 H 124.931 -1.09398 -3.56492 0
M  V30 1449 N 127.117 1.15442 -1.07289 0
M  V30 1450 C 128.065 2.22225 -0.686952 0
M  V30 1451 C 129.059 1.66688 0.30193 0
M  V30 1452 O 130.265 1.79236 0.165712 0
M  V30 1453 H 126.64 0.723783 -0.204064 0
M  V30 1454 H 128.611 2.52056 -1.5972 0
M  V30 1455 C 127.36 3.47556 -0.100149 0
M  V30 1456 H 126.683 3.90612 -0.852211 0
M  V30 1457 H 128.123 4.23794 0.132235 0
M  V30 1458 C 126.582 3.16337 1.159 0
M  V30 1459 O 127.112 3.33074 2.24555 0
M  V30 1460 N 125.318 2.70385 1.06491 0
M  V30 1461 H 124.865 2.56966 0.180668 0
M  V30 1462 H 124.823 2.49871 1.90819 0
M  V30 1463 N 128.595 0.856903 1.32268 0
M  V30 1464 C 129.543 0.291987 2.3076 0
M  V30 1465 C 130.537 -0.585857 1.58947 0
M  V30 1466 O 131.743 -0.47341 1.73663 0
M  V30 1467 H 128.118 0.075721 0.748178 0
M  V30 1468 H 130.089 1.13687 2.75895 0
M  V30 1469 C 128.838 -0.502869 3.44044 0
M  V30 1470 H 128.161 0.163328 3.99466 0
M  V30 1471 H 129.601 -0.863691 4.1511 0
M  V30 1472 C 128.06 -1.68898 2.91505 0
M  V30 1473 O 128.59 -2.78811 2.89184 0
M  V30 1474 N 126.796 -1.51679 2.47875 0
M  V30 1475 H 126.343 -0.622666 2.49961 0
M  V30 1476 H 126.301 -2.31184 2.13076 0
M  V30 1477 N 130.073 -1.45103 0.615059 0
M  V30 1478 C 130.983 -2.34382 -0.101034 0
M  V30 1479 C 131.999 -1.51681 -0.852585 0
M  V30 1480 O 133.175 -1.8446 -0.808484 0
M  V30 1481 C 130.24 -3.29417 -1.08099 0
M  V30 1482 C 129.301 -4.28025 -0.330577 0
M  V30 1483 C 128.534 -5.1852 -1.26385 0
M  V30 1484 O 128.757 -5.12598 -2.50198 0
M  V30 1485 O 127.691 -5.97122 -0.756866 0
M  V30 1486 H 131.517 -2.97033 0.632855 0
M  V30 1487 H 129.102 -1.4461 0.375293 0
M  V30 1488 H 130.984 -3.87958 -1.6452 0
M  V30 1489 H 129.659 -2.69321 -1.79577 0
M  V30 1490 H 128.566 -3.73078 0.276283 0
M  V30 1491 H 129.899 -4.90997 0.343866 0
M  V30 1492 N 131.551 -0.354651 -1.53558 0
M  V30 1493 C 132.481 0.489091 -2.2832 0
M  V30 1494 C 133.462 1.09324 -1.30316 0
M  V30 1495 O 134.647 1.11255 -1.59173 0
M  V30 1496 C 131.777 1.63456 -3.0643 0
M  V30 1497 C 130.731 1.1582 -4.12031 0
M  V30 1498 C 130.057 2.39305 -4.7816 0
M  V30 1499 C 131.357 0.250731 -5.21698 0
M  V30 1500 H 133.051 -0.134614 -2.99097 0
M  V30 1501 H 130.597 -0.0661826 -1.43848 0
M  V30 1502 H 132.55 2.23136 -3.57475 0
M  V30 1503 H 131.274 2.28533 -2.33325 0
M  V30 1504 H 129.933 0.584146 -3.61916 0
M  V30 1505 H 129.581 3.02814 -4.01637 0
M  V30 1506 H 129.281 2.08109 -5.49513 0
M  V30 1507 H 130.805 2.99691 -5.31994 0
M  V30 1508 H 132.219 0.754695 -5.68311 0
M  V30 1509 H 130.616 0.0301468 -6.00092 0
M  V30 1510 H 131.686 -0.710125 -4.79672 0
M  V30 1511 N 133.029 1.57378 -0.0835403 0
M  V30 1512 C 134.275 1.94217 0.583733 0
M  V30 1513 C 134.608 0.964653 1.68547 0
M  V30 1514 O 133.883 -0.00422258 1.945 0
M  V30 1515 C 134.166 3.41253 1.14972 0
M  V30 1516 C 134.019 4.49768 0.0538277 0
M  V30 1517 C 135.338 3.89352 2.05166 0
M  V30 1518 H 132.457 0.706233 0.210724 0
M  V30 1519 H 135.099 1.89392 -0.1519 0
M  V30 1520 H 133.249 3.45496 1.77665 0
M  V30 1521 H 134.921 4.57641 -0.579851 0
M  V30 1522 H 133.164 4.29432 -0.614068 0
M  V30 1523 H 133.835 5.49817 0.490452 0
M  V30 1524 H 136.311 3.87189 1.52393 0
M  V30 1525 H 135.187 4.92822 2.41698 0
M  V30 1526 H 135.448 3.27973 2.96456 0
M  V30 1527 N 134.507 -0.190092 1.56449 0
M  V30 1528 C 135.923 -0.54113 1.50146 0
M  V30 1529 C 136.123 -1.85603 0.784465 0
M  V30 1530 O 135.179 -2.5024 0.337051 0
M  V30 1531 C 136.492 -0.591241 2.9483 0
M  V30 1532 C 138.04 -0.679732 3.0553 0
M  V30 1533 C 138.515 -0.760908 4.51635 0
M  V30 1534 N 140.006 -0.824302 4.55806 0
M  V30 1535 C 140.741 -0.907365 5.66175 0
M  V30 1536 N 140.237 -0.952422 6.86222 0
M  V30 1537 N 142.03 -0.94494 5.541 0
M  V30 1538 H 134.181 0.67235 2.01478 0
M  V30 1539 H 136.444 0.240127 0.917084 0
M  V30 1540 H 136.15 0.305905 3.50367 0
M  V30 1541 H 136.024 -1.44422 3.48457 0
M  V30 1542 H 138.411 -1.56731 2.50039 0
M  V30 1543 H 138.492 0.199549 2.5502 0
M  V30 1544 H 138.136 0.122336 5.07753 0
M  V30 1545 H 138.066 -1.65606 4.99882 0
M  V30 1546 H 140.557 -0.798526 3.69367 0
M  V30 1547 H 140.87 -1.01645 7.66086 0
M  V30 1548 H 139.215 -0.921014 6.8887 0
M  V30 1549 H 142.406 -0.906612 4.59236 0
M  V30 1550 H 142.579 -1.00622 6.4014 0
M  V30 1551 N 135.985 -1.50799 -0.457987 0
M  V30 1552 C 137.213 -1.66218 -1.23203 0
M  V30 1553 C 137.628 -0.350894 -1.85511 0
M  V30 1554 O 136.985 0.668546 -1.69814 0
M  V30 1555 C 137.036 -2.76291 -2.33121 0
M  V30 1556 O 136.757 -4.02338 -1.73366 0
M  V30 1557 C 138.258 -3.028 -3.2377 0
M  V30 1558 H 135.478 -0.558361 -0.372121 0
M  V30 1559 H 138.022 -1.97099 -0.545179 0
M  V30 1560 H 136.177 -2.48068 -2.97558 0
M  V30 1561 H 136.591 -4.63312 -2.4585 0
M  V30 1562 H 138.065 -3.8345 -3.97077 0
M  V30 1563 H 138.542 -2.14385 -3.83322 0
M  V30 1564 H 139.148 -3.32604 -2.65056 0
M  V30 1565 N 137.463 0.71206 -1.40597 0
M  V30 1566 C 138.41 1.82613 -1.41142 0
M  V30 1567 C 139.38 1.63925 -0.267903 0
M  V30 1568 O 140.565 1.85009 -0.466495 0
M  V30 1569 C 137.705 3.20354 -1.28324 0
M  V30 1570 C 136.818 3.50589 -2.52411 0
M  V30 1571 C 135.953 4.77855 -2.32009 0
M  V30 1572 C 134.992 5.01005 -3.51654 0
M  V30 1573 N 134.129 6.19487 -3.30425 0
M  V30 1574 H 138.969 1.81482 -2.36365 0
M  V30 1575 H 136.506 0.886475 -1.17388 0
M  V30 1576 H 138.464 3.99899 -1.18899 0
M  V30 1577 H 137.094 3.20705 -0.367189 0
M  V30 1578 H 136.146 2.65573 -2.72351 0
M  V30 1579 H 137.458 3.63604 -3.41458 0
M  V30 1580 H 136.612 5.65424 -2.19956 0
M  V30 1581 H 135.351 4.67056 -1.40392 0
M  V30 1582 H 134.356 4.1189 -3.64179 0
M  V30 1583 H 135.581 5.13674 -4.44202 0
M  V30 1584 H 133.527 6.09932 -2.41494 0
M  V30 1585 H 133.444 6.33194 -4.13039 0
M  V30 1586 H 134.712 7.09834 -3.22113 0
M  V30 1587 N 138.941 1.26152 0.944643 0
M  V30 1588 C 140.169 1.14259 1.72489 0
M  V30 1589 C 140.584 -0.302555 1.8636 0
M  V30 1590 O 139.941 -1.20741 1.36849 0
M  V30 1591 C 139.992 1.80266 3.13347 0
M  V30 1592 O 139.713 3.19133 3.00143 0
M  V30 1593 C 141.214 1.74283 4.07603 0
M  V30 1594 H 138.434 0.398051 0.540181 0
M  V30 1595 H 140.978 1.66706 1.18446 0
M  V30 1596 H 139.133 1.31766 3.64303 0
M  V30 1597 H 139.547 3.51744 3.89071 0
M  V30 1598 H 141.021 2.25111 5.04013 0
M  V30 1599 H 141.498 0.708631 4.33446 0
M  V30 1600 H 142.104 2.22319 3.62567 0
M  V30 1601 N 140.419 -1.14872 1.07899 0
M  V30 1602 C 141.349 -2.2193 0.725887 0
M  V30 1603 C 142.33 -1.67622 -0.28927 0
M  V30 1604 O 143.515 -1.93533 -0.160787 0
M  V30 1605 C 140.645 -3.47061 0.128856 0
M  V30 1606 C 139.599 -4.14363 1.07178 0
M  V30 1607 C 138.925 -5.33636 0.337229 0
M  V30 1608 C 140.225 -4.63492 2.40775 0
M  V30 1609 H 141.919 -2.51724 1.62097 0
M  V30 1610 H 139.465 -1.20991 0.780838 0
M  V30 1611 H 141.418 -4.21199 -0.130147 0
M  V30 1612 H 140.142 -3.16617 -0.80134 0
M  V30 1613 H 138.801 -3.42173 1.3158 0
M  V30 1614 H 138.449 -4.99449 -0.596606 0
M  V30 1615 H 138.149 -5.79609 0.965788 0
M  V30 1616 H 139.673 -6.10539 0.0861567 0
M  V30 1617 H 141.087 -5.2913 2.20669 0
M  V30 1618 H 139.484 -5.20148 2.99276 0
M  V30 1619 H 140.554 -3.78834 3.02676 0
M  V30 1620 N 141.898 -0.863906 -1.31812 0
M  V30 1621 C 143.144 -0.472535 -1.97218 0
M  V30 1622 C 143.477 0.971394 -1.68159 0
M  V30 1623 O 142.752 1.68309 -0.974798 0
M  V30 1624 C 143.035 -0.723054 -3.52766 0
M  V30 1625 C 142.888 -2.21608 -3.91421 0
M  V30 1626 C 144.207 -0.185522 -4.39709 0
M  V30 1627 H 141.326 -0.173158 -0.71637 0
M  V30 1628 H 143.968 -1.08403 -1.56041 0
M  V30 1629 H 142.118 -0.202577 -3.87971 0
M  V30 1630 H 143.79 -2.80334 -3.66347 0
M  V30 1631 H 142.033 -2.691 -3.40246 0
M  V30 1632 H 142.704 -2.34203 -4.99853 0
M  V30 1633 H 145.18 -0.630726 -4.11292 0
M  V30 1634 H 144.056 -0.390306 -5.47511 0
M  V30 1635 H 144.317 0.912229 -4.32586 0
M  V30 1636 N 143.376 1.44774 -0.622745 0
M  V30 1637 C 144.323 2.30635 0.0871679 0
M  V30 1638 C 145.293 1.42994 0.845097 0
M  V30 1639 O 146.478 1.71907 0.827812 0
M  V30 1640 C 143.618 3.28144 1.06844 0
M  V30 1641 C 142.731 4.30888 0.309809 0
M  V30 1642 C 141.866 5.15494 1.28215 0
M  V30 1643 C 140.905 6.09953 0.512198 0
M  V30 1644 N 140.042 6.87287 1.43458 0
M  V30 1645 H 144.882 2.90803 -0.650974 0
M  V30 1646 H 142.419 1.43286 -0.33281 0
M  V30 1647 H 144.377 3.83157 1.65066 0
M  V30 1648 H 143.007 2.69695 1.77382 0
M  V30 1649 H 142.059 3.78414 -0.388181 0
M  V30 1650 H 143.371 4.97955 -0.290254 0
M  V30 1651 H 142.525 5.74983 1.93596 0
M  V30 1652 H 141.264 4.48481 1.91614 0
M  V30 1653 H 140.269 5.49581 -0.155151 0
M  V30 1654 H 141.494 6.78999 -0.116958 0
M  V30 1655 H 139.44 6.2295 2.05594 0
M  V30 1656 H 139.357 7.50763 0.888335 0
M  V30 1657 H 140.625 7.51306 2.07749 0
M  V30 1658 N 144.854 0.36279 1.53368 0
M  V30 1659 C 145.802 -0.500155 2.27159 0
M  V30 1660 C 146.796 -1.08575 1.3003 0
M  V30 1661 O 148.002 -1.02927 1.47668 0
M  V30 1662 H 144.377 -0.180009 0.730138 0
M  V30 1663 H 146.348 0.14401 2.98052 0
M  V30 1664 C 145.097 -1.62937 3.07159 0
M  V30 1665 H 144.42 -1.18806 3.8174 0
M  V30 1666 H 145.86 -2.20795 3.61975 0
M  V30 1667 C 144.319 -2.57007 2.17829 0
M  V30 1668 O 144.849 -3.59752 1.78721 0
M  V30 1669 N 143.055 -2.26131 1.82518 0
M  V30 1670 H 142.602 -1.42616 2.14519 0
M  V30 1671 H 142.56 -2.89327 1.23034 0
M  V30 1672 N 146.332 -1.57332 0.0918853 0
M  V30 1673 C 147.572 -1.96117 -0.575988 0
M  V30 1674 C 147.936 -0.972499 -1.65549 0
M  V30 1675 O 149.137 -1.24872 -2.38034 0
M  V30 1676 C 147.408 -3.39407 -1.11973 0
M  V30 1677 S 148.967 -4.00185 -1.79992 0
M  V30 1678 H 145.785 -0.685682 -0.188045 0
M  V30 1679 H 148.387 -1.94755 0.170525 0
M  V30 1680 H 147.091 -4.09131 -0.322504 0
M  V30 1681 H 146.622 -3.44358 -1.90214 0
M  V30 1682 H 148.637 -3.88728 -3.08391 0
M  V30 1683 N 147.81 0.181792 -1.56548 0
M  V30 1684 C 149.059 0.898348 -1.8059 0
M  V30 1685 C 149.372 1.83862 -0.667379 0
M  V30 1686 O 150.578 2.59678 -0.792446 0
M  V30 1687 C 149.034 1.64791 -3.19956 0
M  V30 1688 C 148.642 0.751789 -4.41647 0
M  V30 1689 C 150.386 2.35331 -3.53298 0
M  V30 1690 C 148.293 1.50098 -5.72035 0
M  V30 1691 H 147.223 0.339194 -0.673397 0
M  V30 1692 H 149.874 0.151413 -1.82874 0
M  V30 1693 H 148.256 2.43921 -3.11959 0
M  V30 1694 H 149.43 -0.0018076 -4.608 0
M  V30 1695 H 147.745 0.156562 -4.16106 0
M  V30 1696 H 150.342 2.91958 -4.47956 0
M  V30 1697 H 150.685 3.10164 -2.77676 0
M  V30 1698 H 151.218 1.63154 -3.62803 0
M  V30 1699 H 147.957 0.795175 -6.50659 0
M  V30 1700 H 147.477 2.22817 -5.56878 0
M  V30 1701 H 149.156 2.05125 -6.13622 0
M  V30 1702 N 149.288 1.51039 0.449983 0
M  V30 1703 C 150.534 1.63322 1.20223 0
M  V30 1704 C 150.867 0.34241 1.91158 0
M  V30 1705 O 150.142 -0.657344 1.83055 0
M  V30 1706 C 150.425 2.82801 2.22925 0
M  V30 1707 C 150.278 4.21823 1.56157 0
M  V30 1708 C 151.597 2.97807 3.24035 0
M  V30 1709 H 148.716 0.594407 0.435718 0
M  V30 1710 H 151.358 1.83489 0.493136 0
M  V30 1711 H 149.508 2.65738 2.834 0
M  V30 1712 H 151.18 4.50526 0.991162 0
M  V30 1713 H 149.423 4.25105 0.864172 0
M  V30 1714 H 150.094 5.01391 2.30891 0
M  V30 1715 H 152.57 3.13497 2.73603 0
M  V30 1716 H 151.446 3.82992 3.93202 0
M  V30 1717 H 151.707 2.09328 3.89402 0
M  V30 1718 N 150.766 -0.704594 1.40972 0
M  V30 1719 C 151.696 -1.83124 1.44872 0
M  V30 1720 C 152.677 -1.67281 0.30838 0
M  V30 1721 O 153.862 -1.87149 0.518556 0
M  V30 1722 C 150.992 -3.21181 1.32136 0
M  V30 1723 C 149.946 -3.51714 2.43888 0
M  V30 1724 C 149.272 -4.89032 2.16222 0
M  V30 1725 C 150.572 -3.516 3.86232 0
M  V30 1726 H 152.266 -1.80117 2.39161 0
M  V30 1727 H 149.812 -0.865145 1.15114 0
M  V30 1728 H 151.765 -3.99702 1.33479 0
M  V30 1729 H 150.489 -3.24791 0.343279 0
M  V30 1730 H 149.148 -2.75539 2.41813 0
M  V30 1731 H 148.796 -4.89256 1.16778 0
M  V30 1732 H 148.496 -5.10426 2.911 0
M  V30 1733 H 150.02 -5.69873 2.19265 0
M  V30 1734 H 151.434 -4.2014 3.9007 0
M  V30 1735 H 149.831 -3.84523 4.60719 0
M  V30 1736 H 150.901 -2.50757 4.15029 0
M  V30 1737 N 152.244 -1.26651 -0.937939 0
M  V30 1738 C 153.493 -1.11775 -1.67897 0
M  V30 1739 C 153.806 0.33794 -1.92659 0
M  V30 1740 O 155.012 0.607434 -2.64618 0
M  V30 1741 C 153.468 -1.9523 -3.02346 0
M  V30 1742 C 153.076 -3.45393 -2.8532 0
M  V30 1743 C 154.82 -1.88972 -3.80118 0
M  V30 1744 C 152.727 -4.21083 -4.15263 0
M  V30 1745 H 151.657 -0.414696 -0.629717 0
M  V30 1746 H 154.308 -1.50988 -1.04283 0
M  V30 1747 H 152.69 -1.48853 -3.66959 0
M  V30 1748 H 153.864 -3.99561 -2.29537 0
M  V30 1749 H 152.179 -3.52921 -2.20988 0
M  V30 1750 H 154.776 -2.42805 -4.76392 0
M  V30 1751 H 155.119 -0.86113 -4.07296 0
M  V30 1752 H 155.652 -2.33189 -3.22285 0
M  V30 1753 H 152.391 -5.24425 -3.93267 0
M  V30 1754 H 151.911 -3.71695 -4.70747 0
M  V30 1755 H 153.59 -4.29706 -4.83696 0
M  V30 1756 N 153.722 1.14298 -1.08507 0
M  V30 1757 C 154.999 1.81544 -0.728088 0
M  V30 1758 C 155.379 1.95838 0.78808 0
M  V30 1759 O 154.727 1.51904 1.70697 0
M  V30 1760 C 154.937 3.17169 -1.45619 0
M  V30 1761 C 156.285 3.9265 -1.61591 0
M  V30 1762 O 157.309 3.26762 -1.41793 0
M  V30 1763 O 156.168 5.10807 -1.94263 0
M  V30 1764 H 153.262 0.78491 -0.260471 0
M  V30 1765 H 155.808 1.21307 -1.18671 0
M  V30 1766 H 154.58 3.01934 -2.489 0
M  V30 1767 H 154.203 3.851 -0.989124 0
M  V30 1768 N 155.201 0.870884 1.31352 0
M  V30 1769 C 156.426 0.495957 2.01383 0
M  V30 1770 C 156.851 -0.904324 1.64935 0
M  V30 1771 O 156.209 -1.59687 0.858466 0
M  V30 1772 C 156.257 0.661433 3.54482 0
M  V30 1773 O 155.361 -0.298851 4.11316 0
M  V30 1774 H 154.702 0.197158 0.634054 0
M  V30 1775 H 157.232 1.17455 1.67527 0
M  V30 1776 H 157.242 0.555072 4.04207 0
M  V30 1777 H 155.917 1.68246 3.8035 0
M  V30 1778 H 154.494 -0.147368 3.72609 0
M  V30 1779 N 156.679 -1.44442 0.630414 0
M  V30 1780 C 157.907 -2.06414 0.141671 0
M  V30 1781 C 158.322 -1.47105 -1.18345 0
M  V30 1782 O 157.679 -0.593662 -1.72574 0
M  V30 1783 C 157.73 -3.61494 0.0199784 0
M  V30 1784 O 157.451 -4.18594 1.29269 0
M  V30 1785 C 158.952 -4.40499 -0.497544 0
M  V30 1786 H 156.172 -0.666292 0.0793452 0
M  V30 1787 H 158.716 -1.85323 0.864614 0
M  V30 1788 H 156.871 -3.8185 -0.653402 0
M  V30 1789 H 157.285 -5.12026 1.13707 0
M  V30 1790 H 158.759 -5.49433 -0.531708 0
M  V30 1791 H 159.236 -4.11895 -1.52445 0
M  V30 1792 H 159.842 -4.25061 0.142562 0
M  V30 1793 N 158.157 -0.370918 -1.53173 0
M  V30 1794 C 159.568 0.107139 -1.86392 0
M  V30 1795 C 159.919 1.47714 -1.29132 0
M  V30 1796 O 159.044 2.07464 -0.615439 0
M  V30 1797 C 159.639 0.201187 -3.38202 0
M  V30 1798 C 158.198 0.623507 -3.712 0
M  V30 1799 C 157.345 -0.225978 -2.76378 0
M  V30 1800 H 160.296 -0.58951 -1.47345 0
M  V30 1801 H 160.317 1.02377 -3.66468 0
M  V30 1802 H 159.829 -0.796058 -3.79848 0
M  V30 1803 H 157.93 1.62879 -3.35114 0
M  V30 1804 H 158.043 0.394414 -4.77474 0
M  V30 1805 H 156.407 0.305962 -2.52856 0
M  V30 1806 H 157.19 -1.22086 -3.20858 0
M  V30 1807 N 159.635 1.57281 -0.100228 0
M  V30 1808 C 160.865 1.98591 0.569681 0
M  V30 1809 C 161.273 0.978315 1.61943 0
M  V30 1810 O 160.616 -0.0396108 1.83657 0
M  V30 1811 C 160.678 3.36282 1.271 0
M  V30 1812 C 160.342 4.55488 0.371409 0
M  V30 1813 C 161.339 5.18491 -0.382504 0
M  V30 1814 C 159.024 5.01474 0.287965 0
M  V30 1815 C 161.018 6.25852 -1.20779 0
M  V30 1816 C 158.705 6.08701 -0.540965 0
M  V30 1817 C 159.703 6.70755 -1.28749 0
M  V30 1818 O 159.391 7.75914 -2.10269 0
M  V30 1819 H 159.123 0.65752 0.156982 0
M  V30 1820 H 161.677 2.0463 -0.177734 0
M  V30 1821 H 159.907 3.26941 2.0651 0
M  V30 1822 H 161.596 3.62005 1.83595 0
M  V30 1823 H 162.362 4.83891 -0.3278 0
M  V30 1824 H 158.241 4.52932 0.858689 0
M  V30 1825 H 161.785 6.74218 -1.79096 0
M  V30 1826 H 157.682 6.42732 -0.597131 0
M  V30 1827 H 158.45 7.92925 -2.03007 0
M  V30 1828 N 161.113 -0.173488 1.56642 0
M  V30 1829 C 162.529 -0.525174 1.50712 0
M  V30 1830 C 162.729 -1.8476 0.804107 0
M  V30 1831 O 161.785 -2.49869 0.363574 0
M  V30 1832 C 163.098 -0.559937 2.95441 0
M  V30 1833 C 164.646 -0.647288 3.06234 0
M  V30 1834 C 165.121 -0.712963 4.52417 0
M  V30 1835 N 166.612 -0.775911 4.56655 0
M  V30 1836 C 167.347 -0.847264 5.67106 0
M  V30 1837 N 166.843 -0.879585 6.87194 0
M  V30 1838 N 168.636 -0.886117 5.55071 0
M  V30 1839 H 160.787 0.693681 2.00753 0
M  V30 1840 H 163.05 0.249841 0.914485 0
M  V30 1841 H 162.756 0.343049 3.50023 0
M  V30 1842 H 162.63 -1.40718 3.49969 0
M  V30 1843 H 165.017 -1.5407 2.51687 0
M  V30 1844 H 165.098 0.226586 2.54794 0
M  V30 1845 H 164.742 0.176183 5.07594 0
M  V30 1846 H 164.672 -1.60295 5.0161 0
M  V30 1847 H 167.163 -0.759304 3.70193 0
M  V30 1848 H 167.476 -0.935144 7.67121 0
M  V30 1849 H 165.821 -0.847898 6.89808 0
M  V30 1850 H 169.012 -0.857853 4.60172 0
M  V30 1851 H 169.185 -0.938263 6.41171 0
M  V30 1852 N 162.591 -1.51276 -0.441967 0
M  V30 1853 C 163.523 -1.68444 -1.55433 0
M  V30 1854 C 164.536 -0.565187 -1.52674 0
M  V30 1855 O 165.725 -0.839356 -1.57534 0
M  V30 1856 C 162.825 -1.67966 -2.94348 0
M  V30 1857 C 161.998 -2.964 -3.21661 0
M  V30 1858 C 161.057 -2.88171 -4.40277 0
M  V30 1859 O 160.083 -3.62119 -4.39157 0
M  V30 1860 N 161.285 -2.03706 -5.43584 0
M  V30 1861 H 164.05 -2.644 -1.41112 0
M  V30 1862 H 161.611 -1.49104 -0.630838 0
M  V30 1863 H 163.603 -1.60035 -3.71713 0
M  V30 1864 H 162.173 -0.796225 -3.0229 0
M  V30 1865 H 161.393 -3.18234 -2.32638 0
M  V30 1866 H 162.681 -3.81427 -3.36736 0
M  V30 1867 H 162.079 -1.42995 -5.47329 0
M  V30 1868 H 160.636 -2.01658 -6.1982 0
M  V30 1869 N 164.069 0.697108 -1.41344 0
M  V30 1870 C 165.315 1.45796 -1.41828 0
M  V30 1871 C 165.67 1.92382 -0.0261743 0
M  V30 1872 O 164.963 1.66522 0.947688 0
M  V30 1873 C 165.157 2.68553 -2.35826 0
M  V30 1874 C 164.986 2.33975 -3.84039 0
M  V30 1875 C 163.756 2.24414 -4.52732 0
M  V30 1876 C 165.954 1.97048 -4.75054 0
M  V30 1877 N 163.936 1.82705 -5.86082 0
M  V30 1878 C 165.307 1.66086 -5.9734 0
M  V30 1879 C 167.362 1.83845 -4.62715 0
M  V30 1880 C 166.065 1.23246 -7.08663 0
M  V30 1881 C 168.091 1.4241 -5.73998 0
M  V30 1882 C 167.453 1.12357 -6.95381 0
M  V30 1883 H 163.552 0.530859 -0.574206 0
M  V30 1884 H 166.136 0.806674 -1.77203 0
M  V30 1885 H 164.307 3.31404 -2.02549 0
M  V30 1886 H 166.039 3.35015 -2.2704 0
M  V30 1887 H 162.794 2.4276 -4.0665 0
M  V30 1888 H 163.218 1.64337 -6.56751 0
M  V30 1889 H 167.86 2.05734 -3.69369 0
M  V30 1890 H 165.578 1.00102 -8.01876 0
M  V30 1891 H 169.164 1.32746 -5.66454 0
M  V30 1892 H 168.044 0.807795 -7.80028 0
M  V30 1893 N 165.547 1.27147 0.931209 0
M  V30 1894 C 166.777 1.15914 1.71019 0
M  V30 1895 C 167.185 -0.287112 1.87009 0
M  V30 1896 O 166.528 -1.20761 1.38429 0
M  V30 1897 C 166.59 1.76647 3.13107 0
M  V30 1898 C 166.254 3.25807 3.20467 0
M  V30 1899 C 167.251 4.22489 3.02983 0
M  V30 1900 C 164.936 3.66452 3.43538 0
M  V30 1901 C 166.93 5.57794 3.08454 0
M  V30 1902 C 164.617 5.01888 3.48643 0
M  V30 1903 C 165.615 5.97369 3.31119 0
M  V30 1904 O 165.303 7.30337 3.35952 0
M  V30 1905 H 165.035 0.404062 0.54195 0
M  V30 1906 H 167.589 1.68457 1.17521 0
M  V30 1907 H 165.819 1.18578 3.68071 0
M  V30 1908 H 167.508 1.60179 3.72958 0
M  V30 1909 H 168.274 3.92425 2.85004 0
M  V30 1910 H 164.153 2.92611 3.5623 0
M  V30 1911 H 167.697 6.32298 2.94694 0
M  V30 1912 H 163.594 5.31609 3.66145 0
M  V30 1913 H 164.362 7.38739 3.5243 0
M  V30 1914 N 167.025 -1.13721 1.09112 0
M  V30 1915 C 167.935 -2.22638 0.73957 0
M  V30 1916 C 168.951 -1.72091 -0.257068 0
M  V30 1917 O 170.127 -2.01155 -0.0992154 0
M  V30 1918 C 167.192 -3.46322 0.16191 0
M  V30 1919 C 166.253 -4.11775 1.21408 0
M  V30 1920 C 165.486 -5.29555 0.663891 0
M  V30 1921 O 165.709 -5.68077 -0.514274 0
M  V30 1922 O 164.643 -5.84973 1.41738 0
M  V30 1923 H 168.469 -2.55074 1.64836 0
M  V30 1924 H 166.054 -1.21791 0.865289 0
M  V30 1925 H 167.936 -4.21107 -0.157073 0
M  V30 1926 H 166.611 -3.15593 -0.719932 0
M  V30 1927 H 165.518 -3.3883 1.58571 0
M  V30 1928 H 166.851 -4.46627 2.06845 0
M  V30 1929 N 168.503 -0.877838 -1.30888 0
M  V30 1930 C 169.728 -0.506629 -2.01117 0
M  V30 1931 C 170.153 0.895564 -1.65412 0
M  V30 1932 O 169.511 1.5923 -0.866922 0
M  V30 1933 C 169.559 -0.680223 -3.54126 0
M  V30 1934 O 168.663 0.277033 -4.11468 0
M  V30 1935 H 168.004 -0.200518 -0.633 0
M  V30 1936 H 170.534 -1.18342 -1.66902 0
M  V30 1937 H 170.544 -0.5765 -4.03907 0
M  V30 1938 H 169.219 -1.70261 -3.79452 0
M  V30 1939 H 167.796 0.127606 -3.72682 0
M  V30 1940 N 169.982 1.44106 -0.638065 0
M  V30 1941 C 170.932 2.27843 0.0847285 0
M  V30 1942 C 171.916 1.39055 0.809471 0
M  V30 1943 O 173.108 1.62808 0.694435 0
M  V30 1944 C 170.237 3.26497 1.06089 0
M  V30 1945 C 169.323 4.22772 0.33541 0
M  V30 1946 N 169.714 5.01737 -0.639787 0
M  V30 1947 C 168.012 4.42227 0.578921 0
M  V30 1948 C 168.713 5.71792 -1.06904 0
M  V30 1949 N 167.689 5.42079 -0.406395 0
M  V30 1950 H 171.491 2.86305 -0.663814 0
M  V30 1951 H 169.005 1.55627 -0.464122 0
M  V30 1952 H 171.002 3.8525 1.59337 0
M  V30 1953 H 169.662 2.69595 1.80966 0
M  V30 1954 H 170.673 5.07799 -1.01789 0
M  V30 1955 H 167.35 3.96415 1.31003 0
M  V30 1956 H 168.74 6.45205 -1.8751 0
M  V30 1957 N 171.46 0.379036 1.52974 0
M  V30 1958 C 172.69 -0.20649 2.05566 0
M  V30 1959 C 173.098 -1.41906 1.25137 0
M  V30 1960 O 172.441 -1.81421 0.288464 0
M  V30 1961 C 172.503 -0.651086 3.53555 0
M  V30 1962 C 172.167 0.446626 4.54812 0
M  V30 1963 C 173.164 1.30079 5.03364 0
M  V30 1964 C 170.849 0.610719 4.98573 0
M  V30 1965 C 172.843 2.30426 5.94292 0
M  V30 1966 C 170.53 1.61754 5.89304 0
M  V30 1967 C 171.528 2.46274 6.37054 0
M  V30 1968 O 171.216 3.45237 7.25994 0
M  V30 1969 H 170.948 -0.0372381 0.674974 0
M  V30 1970 H 173.502 0.539718 1.98182 0
M  V30 1971 H 171.732 -1.44911 3.58522 0
M  V30 1972 H 173.421 -1.16112 3.88938 0
M  V30 1973 H 174.187 1.18527 4.70294 0
M  V30 1974 H 170.066 -0.0374044 4.60985 0
M  V30 1975 H 173.61 2.96432 6.31485 0
M  V30 1976 H 169.507 1.73348 6.21788 0
M  V30 1977 H 170.275 3.41124 7.44027 0
M  V30 1978 N 172.938 -1.57226 0.108567 0
M  V30 1979 C 173.901 -2.13602 -0.831082 0
M  V30 1980 C 174.901 -1.06841 -1.20173 0
M  V30 1981 O 176.091 -1.32666 -1.12895 0
M  V30 1982 C 173.223 -2.66769 -2.12243 0
M  V30 1983 H 174.416 -2.97951 -0.341317 0
M  V30 1984 H 171.969 -1.55667 -0.14057 0
M  V30 1985 H 172.704 -1.85977 -2.65675 0
M  V30 1986 H 172.489 -3.44839 -1.86625 0
M  V30 1987 H 173.979 -3.10332 -2.79435 0
M  V30 1988 N 174.416 0.165178 -1.56732 0
M  V30 1989 C 175.346 1.20651 -1.99914 0
M  V30 1990 C 176.327 1.45827 -0.875705 0
M  V30 1991 O 177.512 1.57057 -1.14223 0
M  V30 1992 C 174.642 2.54401 -2.36427 0
M  V30 1993 C 173.596 2.43782 -3.51787 0
M  V30 1994 C 172.922 3.82078 -3.7406 0
M  V30 1995 C 174.222 1.93732 -4.85041 0
M  V30 1996 H 175.916 0.847534 -2.87154 0
M  V30 1997 H 173.462 0.40625 -1.38151 0
M  V30 1998 H 175.415 3.27458 -2.65234 0
M  V30 1999 H 174.139 2.92098 -1.46103 0
M  V30 2000 H 172.798 1.73178 -3.23117 0
M  V30 2001 H 172.446 4.17179 -2.81017 0
M  V30 2002 H 172.146 3.7584 -4.51684 0
M  V30 2003 H 173.67 4.56712 -4.05274 0
M  V30 2004 H 175.084 2.56569 -5.12684 0
M  V30 2005 H 173.481 1.98428 -5.66345 0
M  V30 2006 H 174.551 0.891962 -4.76626 0
M  V30 2007 N 175.894 1.51508 0.433938 0
M  V30 2008 C 177.305 1.56784 1.01369 0
M  V30 2009 C 177.656 0.393349 1.92217 0
M  V30 2010 O 176.781 -0.489441 2.10792 0
M  V30 2011 C 177.376 2.84144 1.8452 0
M  V30 2012 C 175.935 2.9198 2.37539 0
M  V30 2013 C 175.082 2.51482 1.16843 0
M  V30 2014 H 178.033 1.57236 0.215081 0
M  V30 2015 H 178.054 2.68098 2.70007 0
M  V30 2016 H 177.566 3.69607 1.18373 0
M  V30 2017 H 175.667 2.10955 3.0713 0
M  V30 2018 H 175.78 3.95704 2.70103 0
M  V30 2019 H 174.144 2.04758 1.51481 0
M  V30 2020 H 174.927 3.39293 0.523015 0
M  V30 2021 N 177.372 -0.689602 1.41712 0
M  V30 2022 C 178.302 -1.81577 1.46806 0
M  V30 2023 C 179.283 -1.66945 0.326105 0
M  V30 2024 O 180.468 -1.86588 0.538377 0
M  V30 2025 C 177.598 -3.19762 1.35535 0
M  V30 2026 C 176.552 -3.49107 2.47605 0
M  V30 2027 C 175.878 -4.86711 2.21397 0
M  V30 2028 C 177.178 -3.47483 3.89939 0
M  V30 2029 H 178.872 -1.7757 2.41058 0
M  V30 2030 H 176.418 -0.852887 1.16025 0
M  V30 2031 H 178.371 -3.98263 1.3771 0
M  V30 2032 H 177.095 -3.24409 0.377708 0
M  V30 2033 H 175.754 -2.72959 2.44722 0
M  V30 2034 H 175.402 -4.8799 1.21961 0
M  V30 2035 H 175.102 -5.0731 2.96497 0
M  V30 2036 H 176.626 -5.67515 2.25297 0
M  V30 2037 H 178.04 -4.1598 3.94505 0
M  V30 2038 H 176.437 -3.79615 4.64771 0
M  V30 2039 H 177.507 -2.46341 4.17665 0
M  V30 2040 N 178.85 -1.27639 -0.924453 0
M  V30 2041 C 180.098 -1.13941 -1.66918 0
M  V30 2042 C 180.419 0.314589 -1.92446 0
M  V30 2043 O 179.689 1.21964 -1.53303 0
M  V30 2044 H 178.269 -0.418678 -0.618642 0
M  V30 2045 H 180.931 -1.60213 -1.10985 0
M  V30 2046 H 180.027 -1.67094 -2.63602 0
M  V30 2047 N 180.328 1.1314 -1.09713 0
M  V30 2048 C 181.744 1.36477 -0.827423 0
M  V30 2049 C 181.944 1.93654 0.556817 0
M  V30 2050 O 181 2.15791 1.31112 0
M  V30 2051 C 182.313 2.31334 -1.92106 0
M  V30 2052 C 183.861 2.44943 -1.94864 0
M  V30 2053 C 184.336 3.4311 -3.0338 0
M  V30 2054 N 185.827 3.50662 -3.02639 0
M  V30 2055 C 186.562 4.2651 -3.83246 0
M  V30 2056 N 186.058 5.05485 -4.73768 0
M  V30 2057 N 187.851 4.2184 -3.71493 0
M  V30 2058 H 180.002 0.743807 -1.9895 0
M  V30 2059 H 182.265 0.389823 -0.864143 0
M  V30 2060 H 181.971 1.96483 -2.91698 0
M  V30 2061 H 181.845 3.31381 -1.80184 0
M  V30 2062 H 184.232 2.79079 -0.959099 0
M  V30 2063 H 184.313 1.4481 -2.10864 0
M  V30 2064 H 183.957 3.09704 -4.02549 0
M  V30 2065 H 183.887 4.43055 -2.84622 0
M  V30 2066 H 186.378 2.94315 -2.37039 0
M  V30 2067 H 186.691 5.60675 -5.3185 0
M  V30 2068 H 185.036 5.04708 -4.77802 0
M  V30 2069 H 188.227 3.5922 -3.00131 0
M  V30 2070 H 188.4 4.80697 -4.3455 0
M  V30 2071 N 181.806 0.884767 1.30421 0
M  V30 2072 C 182.753 0.349642 2.28136 0
M  V30 2073 C 183.723 -0.560061 1.56373 0
M  V30 2074 O 184.908 -0.488524 1.8444 0
M  V30 2075 C 182.048 -0.42999 3.42411 0
M  V30 2076 C 181.161 0.508907 4.28992 0
M  V30 2077 C 180.296 -0.286301 5.30428 0
M  V30 2078 C 179.335 0.648079 6.08659 0
M  V30 2079 N 178.472 -0.111792 7.02011 0
M  V30 2080 H 183.312 1.18807 2.73293 0
M  V30 2081 H 180.849 0.597231 1.3443 0
M  V30 2082 H 182.807 -0.897923 4.07423 0
M  V30 2083 H 181.437 -1.23299 2.98324 0
M  V30 2084 H 180.489 1.09533 3.64289 0
M  V30 2085 H 181.801 1.22475 4.8353 0
M  V30 2086 H 180.955 -0.816098 6.01186 0
M  V30 2087 H 179.694 -1.03536 4.76583 0
M  V30 2088 H 178.699 1.18951 5.36778 0
M  V30 2089 H 179.924 1.39623 6.64592 0
M  V30 2090 H 177.87 -0.843395 6.50556 0
M  V30 2091 H 177.787 0.544429 7.54037 0
M  V30 2092 H 179.055 -0.622339 7.77012 0
M  V30 2093 N 183.284 -1.43765 0.645699 0
M  V30 2094 C 184.231 -2.30745 -0.0504648 0
M  V30 2095 C 185.201 -1.4432 -0.822241 0
M  V30 2096 O 186.386 -1.73202 -0.800358 0
M  V30 2097 C 183.526 -3.29802 -1.0161 0
M  V30 2098 C 182.639 -4.31326 -0.241219 0
M  V30 2099 C 181.774 -5.17469 -1.19998 0
M  V30 2100 C 180.813 -6.10691 -0.415094 0
M  V30 2101 N 179.95 -6.89483 -1.32506 0
M  V30 2102 H 184.79 -2.8973 0.697155 0
M  V30 2103 H 182.327 -1.42738 0.355563 0
M  V30 2104 H 184.285 -3.85734 -1.58949 0
M  V30 2105 H 182.915 -2.72483 -1.73069 0
M  V30 2106 H 181.967 -3.77749 0.448334 0
M  V30 2107 H 183.279 -4.9743 0.369437 0
M  V30 2108 H 182.433 -5.7799 -1.84424 0
M  V30 2109 H 181.172 -4.51473 -1.84455 0
M  V30 2110 H 180.177 -5.49265 0.242565 0
M  V30 2111 H 181.402 -6.78727 0.224966 0
M  V30 2112 H 179.348 -6.26142 -1.95657 0
M  V30 2113 H 179.265 -7.52081 -0.768783 0
M  V30 2114 H 180.533 -7.54516 -1.9577 0
M  V30 2115 N 184.763 -0.387143 -1.52771 0
M  V30 2116 C 186.011 0.195349 -2.01154 0
M  V30 2117 C 186.332 1.475 -1.27549 0
M  V30 2118 O 185.602 1.91878 -0.394924 0
M  V30 2119 H 184.182 0.075178 -0.743207 0
M  V30 2120 H 186.844 -0.518337 -1.87881 0
M  V30 2121 H 185.94 0.407096 -3.09434 0
M  V30 2122 N 186.241 1.57166 -0.116904 0
M  V30 2123 C 187.204 2.14039 0.819742 0
M  V30 2124 C 188.204 1.07477 1.19605 0
M  V30 2125 O 189.394 1.33263 1.1219 0
M  V30 2126 C 186.526 2.67891 2.10826 0
M  V30 2127 H 187.719 2.98128 0.325511 0
M  V30 2128 H 185.272 1.55739 0.132312 0
M  V30 2129 H 186.007 1.87384 2.64685 0
M  V30 2130 H 185.792 3.45823 1.84793 0
M  V30 2131 H 187.282 3.11809 2.77785 0
M  V30 2132 N 187.719 -0.156864 1.56817 0
M  V30 2133 C 188.666 -1.19394 1.97519 0
M  V30 2134 C 189.636 -1.4322 0.841265 0
M  V30 2135 O 190.821 -1.55719 1.10255 0
M  V30 2136 C 187.961 -2.52483 2.35258 0
M  V30 2137 C 187.074 -2.35914 3.61896 0
M  V30 2138 C 186.209 -3.61969 3.88782 0
M  V30 2139 C 185.248 -3.40395 5.08722 0
M  V30 2140 N 184.385 -4.58556 5.31668 0
M  V30 2141 H 189.225 -0.839845 2.85921 0
M  V30 2142 H 186.762 -0.403264 1.41464 0
M  V30 2143 H 188.72 -3.30071 2.55165 0
M  V30 2144 H 187.35 -2.85859 1.49949 0
M  V30 2145 H 186.402 -1.49429 3.49821 0
M  V30 2146 H 187.714 -2.15926 4.49641 0
M  V30 2147 H 186.868 -4.47989 4.09135 0
M  V30 2148 H 185.607 -3.84951 2.9944 0
M  V30 2149 H 184.612 -2.52763 4.88253 0
M  V30 2150 H 185.837 -3.18822 5.99608 0
M  V30 2151 H 183.783 -4.81729 4.45279 0
M  V30 2152 H 183.7 -4.41535 6.13664 0
M  V30 2153 H 184.968 -5.45817 5.5651 0
M  V30 2154 N 189.197 -1.51736 -0.425897 0
M  V30 2155 C 190.127 -1.76827 -1.52494 0
M  V30 2156 C 191.108 -0.618524 -1.58456 0
M  V30 2157 O 192.293 -0.862416 -1.74 0
M  V30 2158 C 189.423 -1.90374 -2.90474 0
M  V30 2159 C 188.377 -3.0588 -2.99369 0
M  V30 2160 C 187.703 -3.04625 -4.3944 0
M  V30 2161 C 189.003 -4.45644 -2.72394 0
M  V30 2162 H 190.697 -2.68855 -1.31748 0
M  V30 2163 H 188.243 -1.29372 -0.632362 0
M  V30 2164 H 190.196 -2.0651 -3.6733 0
M  V30 2165 H 188.92 -0.95004 -3.12477 0
M  V30 2166 H 187.579 -2.89467 -2.24954 0
M  V30 2167 H 187.227 -2.0701 -4.58428 0
M  V30 2168 H 186.927 -3.82195 -4.46319 0
M  V30 2169 H 188.451 -3.22869 -5.18255 0
M  V30 2170 H 189.865 -4.62348 -3.38979 0
M  V30 2171 H 188.262 -5.25006 -2.9067 0
M  V30 2172 H 189.332 -4.54893 -1.67929 0
M  V30 2173 N 190.675 0.682077 -1.42076 0
M  V30 2174 C 191.903 1.47057 -1.4554 0
M  V30 2175 C 192.318 1.8869 -0.0645779 0
M  V30 2176 O 191.675 1.57666 0.919115 0
M  V30 2177 C 191.726 2.72442 -2.37609 0
M  V30 2178 O 191.447 2.32559 -3.71279 0
M  V30 2179 C 192.948 3.66069 -2.50017 0
M  V30 2180 H 190.168 0.452737 -0.495248 0
M  V30 2181 H 192.712 0.838695 -1.8651 0
M  V30 2182 H 190.867 3.31835 -1.9991 0
M  V30 2183 H 191.281 3.13475 -4.20516 0
M  V30 2184 H 192.755 4.50792 -3.18576 0
M  V30 2185 H 193.232 4.11476 -1.53572 0
M  V30 2186 H 193.838 3.12572 -2.88407 0
M  V30 2187 N 192.153 1.28127 0.917671 0
M  V30 2188 C 193.564 1.13622 1.48145 0
M  V30 2189 C 193.915 -0.275207 1.9426 0
M  V30 2190 O 193.04 -1.1691 1.82102 0
M  V30 2191 C 193.635 2.05648 2.69248 0
M  V30 2192 C 192.194 1.95219 3.21818 0
M  V30 2193 C 191.341 1.97618 1.94532 0
M  V30 2194 H 194.292 1.40874 0.730772 0
M  V30 2195 H 194.313 1.61818 3.44377 0
M  V30 2196 H 193.825 3.08365 2.35653 0
M  V30 2197 H 191.926 0.955244 3.60147 0
M  V30 2198 H 192.039 2.81976 3.87333 0
M  V30 2199 H 190.403 1.41973 2.11461 0
M  V30 2200 H 191.186 3.02007 1.63238 0
M  V30 2201 N 193.631 -1.12557 1.10312 0
M  V30 2202 C 194.541 -2.21841 0.763142 0
M  V30 2203 C 195.557 -1.72354 -0.238801 0
M  V30 2204 O 196.733 -2.01249 -0.0778746 0
M  V30 2205 C 193.798 -3.46131 0.198632 0
M  V30 2206 C 192.859 -4.10464 1.25769 0
M  V30 2207 C 192.092 -5.28821 0.72002 0
M  V30 2208 O 192.315 -5.6859 -0.453993 0
M  V30 2209 O 191.249 -5.83437 1.47935 0
M  V30 2210 H 195.075 -2.53312 1.67532 0
M  V30 2211 H 192.66 -1.20867 0.878157 0
M  V30 2212 H 194.542 -4.2125 -0.112401 0
M  V30 2213 H 193.217 -3.16338 -0.686419 0
M  V30 2214 H 192.124 -3.3713 1.62156 0
M  V30 2215 H 193.457 -4.44408 2.11571 0
M  V30 2216 N 195.109 -0.891671 -1.2995 0
M  V30 2217 C 196.019 -0.367691 -2.31701 0
M  V30 2218 C 197.035 0.533486 -1.6562 0
M  V30 2219 O 198.211 0.424997 -1.96865 0
M  V30 2220 C 195.276 0.403406 -3.44345 0
M  V30 2221 C 194.337 -0.528328 -4.26037 0
M  V30 2222 C 193.57 0.206063 -5.33302 0
M  V30 2223 O 193.793 1.43119 -5.52153 0
M  V30 2224 O 192.727 -0.447281 -6.00236 0
M  V30 2225 H 196.553 -1.21163 -2.78484 0
M  V30 2226 H 194.138 -0.655725 -1.34241 0
M  V30 2227 H 196.02 0.839753 -4.12948 0
M  V30 2228 H 194.695 1.22354 -2.99685 0
M  V30 2229 H 193.602 -1.01362 -3.60106 0
M  V30 2230 H 194.935 -1.31465 -4.74318 0
M  V30 2231 N 196.587 1.43421 -0.653314 0
M  V30 2232 C 197.497 2.34568 0.0388565 0
M  V30 2233 C 198.513 1.53888 0.81207 0
M  V30 2234 O 199.689 1.86539 0.759294 0
M  V30 2235 C 196.754 3.32167 0.993269 0
M  V30 2236 C 195.815 4.28751 0.216977 0
M  V30 2237 C 195.048 5.21688 1.12593 0
M  V30 2238 O 195.271 5.19052 2.36519 0
M  V30 2239 O 194.205 5.98919 0.598284 0
M  V30 2240 H 198.031 2.95251 -0.711386 0
M  V30 2241 H 195.616 1.43564 -0.413502 0
M  V30 2242 H 197.498 3.92183 1.54176 0
M  V30 2243 H 196.173 2.73987 1.72374 0
M  V30 2244 H 195.08 3.72215 -0.375101 0
M  V30 2245 H 196.413 4.89913 -0.473924 0
M  V30 2246 N 198.065 0.39524 1.52563 0
M  V30 2247 C 198.975 -0.444232 2.30356 0
M  V30 2248 C 199.991 -1.06615 1.37511 0
M  V30 2249 O 201.167 -1.07067 1.70583 0
M  V30 2250 C 198.232 -1.55315 3.09964 0
M  V30 2251 C 197.293 -0.955734 4.18526 0
M  V30 2252 C 196.526 -2.01181 4.9433 0
M  V30 2253 O 196.749 -3.22781 4.70285 0
M  V30 2254 O 195.683 -1.62579 5.79527 0
M  V30 2255 H 199.509 0.189667 3.03107 0
M  V30 2256 H 197.094 0.1588 1.48554 0
M  V30 2257 H 198.976 -2.19724 3.59582 0
M  V30 2258 H 197.651 -2.17191 2.4002 0
M  V30 2259 H 196.558 -0.274743 3.7309 0
M  V30 2260 H 197.891 -0.381109 4.90722 0
M  V30 2261 N 199.544 -1.57102 0.125237 0
M  V30 2262 C 200.793 -1.94582 -0.531095 0
M  V30 2263 C 201.106 -1.01126 -1.6743 0
M  V30 2264 O 202.312 -1.28097 -2.39381 0
M  V30 2265 C 200.768 -3.45839 -0.996164 0
M  V30 2266 C 200.376 -4.47842 0.118926 0
M  V30 2267 C 202.12 -3.92227 -1.62352 0
M  V30 2268 C 200.027 -5.90284 -0.363192 0
M  V30 2269 H 198.957 -0.726391 -0.20217 0
M  V30 2270 H 201.608 -1.82339 0.206092 0
M  V30 2271 H 199.99 -3.53338 -1.78796 0
M  V30 2272 H 201.164 -4.52018 0.895358 0
M  V30 2273 H 199.479 -4.11243 0.653324 0
M  V30 2274 H 202.076 -4.96069 -1.99548 0
M  V30 2275 H 202.419 -3.32552 -2.50429 0
M  V30 2276 H 202.952 -3.87554 -0.897019 0
M  V30 2277 H 199.691 -6.53728 0.481679 0
M  V30 2278 H 199.211 -5.89515 -1.10597 0
M  V30 2279 H 200.89 -6.41752 -0.822377 0
M  V30 2280 N 201.022 0.148545 -1.56898 0
M  V30 2281 C 201.952 1.18524 -2.01182 0
M  V30 2282 C 202.933 1.4489 -0.891123 0
M  V30 2283 O 204.118 1.55836 -1.15882 0
M  V30 2284 C 201.248 2.51879 -2.39112 0
M  V30 2285 C 200.202 2.40038 -3.54353 0
M  V30 2286 C 199.528 3.78089 -3.78091 0
M  V30 2287 C 200.828 1.88577 -4.87069 0
M  V30 2288 H 202.522 0.817029 -2.88036 0
M  V30 2289 H 200.068 0.391575 -1.38574 0
M  V30 2290 H 202.021 3.24627 -2.68692 0
M  V30 2291 H 200.745 2.90532 -1.49193 0
M  V30 2292 H 199.404 1.69742 -3.24936 0
M  V30 2293 H 199.052 4.14175 -2.85426 0
M  V30 2294 H 198.752 3.71028 -4.55645 0
M  V30 2295 H 200.276 4.52387 -4.10095 0
M  V30 2296 H 201.69 2.51117 -5.15377 0
M  V30 2297 H 200.087 1.9241 -5.68417 0
M  V30 2298 H 201.157 0.84136 -4.77545 0
M  V30 2299 N 202.5 1.5196 0.417844 0
M  V30 2300 C 203.448 1.75278 1.52907 0
M  V30 2301 C 204.442 0.619611 1.57662 0
M  V30 2302 O 205.648 0.801457 1.61173 0
M  V30 2303 H 202.023 0.554141 0.508362 0
M  V30 2304 H 203.994 2.68389 1.30422 0
M  V30 2305 C 202.743 1.91262 2.90369 0
M  V30 2306 H 202.066 2.77872 2.8745 0
M  V30 2307 H 203.506 2.11581 3.67436 0
M  V30 2308 C 201.965 0.677431 3.30019 0
M  V30 2309 O 202.495 -0.158799 4.01386 0
M  V30 2310 N 200.701 0.515851 2.85985 0
M  V30 2311 H 200.248 1.19744 2.28077 0
M  V30 2312 H 200.206 -0.309315 3.12875 0
M  V30 2313 N 203.978 -0.674533 1.42435 0
M  V30 2314 C 204.925 -1.78807 1.45934 0
M  V30 2315 C 205.895 -1.63157 0.311271 0
M  V30 2316 O 207.08 -1.83707 0.515383 0
M  V30 2317 C 204.22 -3.16839 1.36773 0
M  V30 2318 C 203.333 -3.43774 2.61617 0
M  V30 2319 C 202.468 -4.71536 2.44597 0
M  V30 2320 C 201.507 -4.91505 3.64814 0
M  V30 2321 N 200.644 -6.10508 3.46734 0
M  V30 2322 H 205.484 -1.75151 2.41093 0
M  V30 2323 H 203.021 -0.85504 1.19697 0
M  V30 2324 H 204.979 -3.96606 1.29459 0
M  V30 2325 H 203.609 -3.19619 0.452089 0
M  V30 2326 H 202.661 -2.58259 2.79297 0
M  V30 2327 H 203.973 -3.54423 3.50978 0
M  V30 2328 H 203.127 -5.59393 2.3487 0
M  V30 2329 H 201.866 -4.6317 1.52726 0
M  V30 2330 H 200.871 -4.0209 3.74972 0
M  V30 2331 H 202.096 -5.01716 4.57665 0
M  V30 2332 H 200.042 -6.03315 2.5758 0
M  V30 2333 H 199.959 -6.2202 4.29682 0
M  V30 2334 H 201.227 -7.01044 3.40819 0
M  V30 2335 N 205.456 -1.28612 -0.910864 0
M  V30 2336 C 206.403 -1.12786 -2.01365 0
M  V30 2337 C 207.373 -0.024201 -1.66082 0
M  V30 2338 O 208.558 -0.189667 -1.89855 0
M  V30 2339 C 205.698 -0.798743 -3.35729 0
M  V30 2340 C 204.811 -1.98173 -3.83864 0
M  V30 2341 C 203.946 -1.59298 -5.06752 0
M  V30 2342 C 202.985 -2.74245 -5.47226 0
M  V30 2343 N 202.122 -2.35842 -6.61304 0
M  V30 2344 H 206.962 -2.07142 -2.14234 0
M  V30 2345 H 204.499 -1.03093 -1.0493 0
M  V30 2346 H 206.457 -0.588662 -4.13026 0
M  V30 2347 H 205.087 0.10789 -3.2262 0
M  V30 2348 H 204.139 -2.30386 -3.02699 0
M  V30 2349 H 205.451 -2.84343 -4.09818 0
M  V30 2350 H 204.605 -1.34513 -5.916 0
M  V30 2351 H 203.344 -0.702618 -4.82612 0
M  V30 2352 H 202.349 -2.99725 -4.60918 0
M  V30 2353 H 203.574 -3.63928 -5.73353 0
M  V30 2354 H 201.52 -1.49279 -6.38789 0
M  V30 2355 H 201.437 -3.15546 -6.86998 0
M  V30 2356 H 202.705 -2.14348 -7.4945 0
M  V30 2357 N 206.934 1.1197 -1.10907 0
M  V30 2358 C 208.35 1.35591 -0.841852 0
M  V30 2359 C 208.55 1.94233 0.536246 0
M  V30 2360 O 207.606 2.1717 1.28816 0
M  V30 2361 C 208.919 2.29284 -1.94549 0
M  V30 2362 C 210.467 2.42862 -1.97451 0
M  V30 2363 C 210.942 3.39873 -3.07002 0
M  V30 2364 N 212.433 3.47433 -3.06341 0
M  V30 2365 C 213.168 4.22421 -3.87748 0
M  V30 2366 N 212.664 5.00432 -4.79103 0
M  V30 2367 N 214.457 4.17876 -3.75946 0
M  V30 2368 H 206.608 0.722664 -1.99728 0
M  V30 2369 H 208.871 0.380635 -0.868229 0
M  V30 2370 H 208.577 1.93378 -2.93765 0
M  V30 2371 H 208.451 3.29452 -1.83688 0
M  V30 2372 H 210.838 2.78046 -0.988645 0
M  V30 2373 H 210.919 1.42566 -2.12388 0
M  V30 2374 H 210.563 3.05417 -4.05811 0
M  V30 2375 H 210.493 4.40011 -2.89306 0
M  V30 2376 H 212.984 2.91784 -2.40147 0
M  V30 2377 H 213.297 5.55002 -5.37766 0
M  V30 2378 H 211.642 4.99612 -4.83128 0
M  V30 2379 H 214.833 3.56016 -3.03924 0
M  V30 2380 H 215.006 4.76061 -4.39624 0
M  V30 2381 N 208.412 0.89855 1.29475 0
M  V30 2382 C 209.637 0.538561 2.00285 0
M  V30 2383 C 210.062 -0.869135 1.66816 0
M  V30 2384 O 209.42 -1.57831 0.892145 0
M  V30 2385 C 209.468 0.736475 3.52999 0
M  V30 2386 O 208.572 -0.211537 4.11857 0
M  V30 2387 H 207.913 0.210563 0.62973 0
M  V30 2388 H 210.443 1.20982 1.64998 0
M  V30 2389 H 210.453 0.640685 4.02938 0
M  V30 2390 H 209.128 1.76276 3.76696 0
M  V30 2391 H 207.705 -0.0682991 3.72837 0
M  V30 2392 N 209.89 -1.43072 0.660911 0
M  V30 2393 C 210.837 -2.30785 -0.0259884 0
M  V30 2394 C 211.807 -1.45184 -0.806888 0
M  V30 2395 O 212.992 -1.74041 -0.781943 0
M  V30 2396 C 210.132 -3.30861 -0.981067 0
M  V30 2397 C 209.245 -4.31558 -0.195458 0
M  V30 2398 C 208.38 -5.18712 -1.14503 0
M  V30 2399 C 207.419 -6.11097 -0.350299 0
M  V30 2400 N 206.556 -6.90849 -1.25186 0
M  V30 2401 H 211.396 -2.88975 0.727846 0
M  V30 2402 H 208.933 -1.42353 0.370682 0
M  V30 2403 H 210.891 -3.87399 -1.54849 0
M  V30 2404 H 209.521 -2.74304 -1.70169 0
M  V30 2405 H 208.573 -3.77252 0.488374 0
M  V30 2406 H 209.885 -4.9701 0.422176 0
M  V30 2407 H 209.039 -5.79914 -1.78284 0
M  V30 2408 H 207.778 -4.53404 -1.79656 0
M  V30 2409 H 206.783 -5.48976 0.300808 0
M  V30 2410 H 208.008 -6.7845 0.296941 0
M  V30 2411 H 205.954 -6.28182 -1.89005 0
M  V30 2412 H 205.871 -7.52854 -0.688971 0
M  V30 2413 H 207.139 -7.5655 -1.87757 0
M  V30 2414 N 211.368 -0.403325 -1.52352 0
M  V30 2415 C 212.315 0.425011 -2.26853 0
M  V30 2416 C 213.285 1.04598 -1.29029 0
M  V30 2417 O 214.47 1.07135 -1.57882 0
M  V30 2418 C 211.61 1.53888 -3.08889 0
M  V30 2419 C 210.723 0.939396 -4.21663 0
M  V30 2420 C 209.858 2.02547 -4.91068 0
M  V30 2421 C 208.897 1.40263 -5.95813 0
M  V30 2422 N 208.034 2.4286 -6.58759 0
M  V30 2423 H 212.874 -0.21674 -2.97211 0
M  V30 2424 H 210.411 -0.118722 -1.4662 0
M  V30 2425 H 212.369 2.19558 -3.54753 0
M  V30 2426 H 210.999 2.15074 -2.40714 0
M  V30 2427 H 210.051 0.171898 -3.80011 0
M  V30 2428 H 211.363 0.44436 -4.96817 0
M  V30 2429 H 210.517 2.75958 -5.40308 0
M  V30 2430 H 209.256 2.55415 -4.15469 0
M  V30 2431 H 208.261 0.653833 -5.45898 0
M  V30 2432 H 209.486 0.881719 -6.73352 0
M  V30 2433 H 207.432 2.94871 -5.85992 0
M  V30 2434 H 207.349 1.98152 -7.2957 0
M  V30 2435 H 208.617 3.15858 -7.12639 0
M  V30 2436 N 212.846 1.57033 -0.133567 0
M  V30 2437 C 214.095 1.94861 0.520768 0
M  V30 2438 C 214.408 1.02012 1.66892 0
M  V30 2439 O 215.614 1.29365 2.38699 0
M  V30 2440 C 214.07 3.46362 0.977809 0
M  V30 2441 C 213.678 4.47773 -0.142674 0
M  V30 2442 C 215.422 3.93083 1.60269 0
M  V30 2443 C 213.329 5.90468 0.331883 0
M  V30 2444 H 212.259 0.727453 0.198315 0
M  V30 2445 H 214.91 1.82227 -0.215759 0
M  V30 2446 H 213.292 3.54282 1.7692 0
M  V30 2447 H 214.466 4.51536 -0.919317 0
M  V30 2448 H 212.781 4.10891 -0.675124 0
M  V30 2449 H 215.378 4.97121 1.96914 0
M  V30 2450 H 215.721 3.33876 2.48662 0
M  V30 2451 H 216.254 3.88025 0.876453 0
M  V30 2452 H 212.993 6.53463 -0.516341 0
M  V30 2453 H 212.513 5.90094 1.07469 0
M  V30 2454 H 214.192 6.42179 0.788332 0
M  V30 2455 N 214.325 -0.140222 1.56975 0
M  V30 2456 C 215.257 -1.19818 1.95388 0
M  V30 2457 C 216.27 -1.38816 0.850525 0
M  V30 2458 O 217.459 -1.38267 1.12891 0
M  V30 2459 C 214.559 -2.56189 2.21857 0
M  V30 2460 C 213.732 -2.58077 3.5315 0
M  V30 2461 C 212.791 -3.76037 3.6808 0
M  V30 2462 O 211.817 -3.60598 4.40406 0
M  V30 2463 N 213.019 -4.93763 3.05251 0
M  V30 2464 H 215.784 -0.871609 2.86746 0
M  V30 2465 H 213.345 -0.32972 1.58507 0
M  V30 2466 H 215.337 -3.33623 2.2908 0
M  V30 2467 H 213.907 -2.81111 1.36731 0
M  V30 2468 H 213.127 -1.6651 3.57307 0
M  V30 2469 H 214.415 -2.56377 4.39486 0
M  V30 2470 H 213.813 -5.09209 2.46419 0
M  V30 2471 H 212.37 -5.68949 3.18026 0
M  V30 2472 N 215.803 -1.52179 -0.40978 0
M  V30 2473 C 216.75 -1.75475 -1.49924 0
M  V30 2474 C 217.72 -0.597175 -1.54994 0
M  V30 2475 O 218.905 -0.834655 -1.71575 0
M  V30 2476 C 216.045 -1.9107 -2.87378 0
M  V30 2477 C 215.158 -3.18717 -2.91622 0
M  V30 2478 C 214.293 -3.24747 -4.20372 0
M  V30 2479 C 213.332 -4.46598 -4.18588 0
M  V30 2480 N 212.469 -4.50025 -5.38908 0
M  V30 2481 H 217.309 -2.68458 -1.29361 0
M  V30 2482 H 214.846 -1.33024 -0.627934 0
M  V30 2483 H 216.804 -1.98096 -3.6717 0
M  V30 2484 H 215.434 -1.01469 -3.06437 0
M  V30 2485 H 214.486 -3.20866 -2.04326 0
M  V30 2486 H 215.798 -4.08544 -2.86169 0
M  V30 2487 H 214.952 -3.30841 -5.08556 0
M  V30 2488 H 213.691 -2.32857 -4.28519 0
M  V30 2489 H 212.696 -4.40652 -3.28794 0
M  V30 2490 H 213.921 -5.39783 -4.12081 0
M  V30 2491 H 211.867 -3.61017 -5.47725 0
M  V30 2492 H 211.784 -5.33697 -5.35447 0
M  V30 2493 H 213.052 -4.60347 -6.29048 0
M  V30 2494 N 217.281 0.66697 -1.42791 0
M  V30 2495 C 218.228 1.7803 -1.4688 0
M  V30 2496 C 219.198 1.6299 -0.319919 0
M  V30 2497 O 220.383 1.83432 -0.525118 0
M  V30 2498 C 217.523 3.1611 -1.38451 0
M  V30 2499 C 216.636 3.42381 -2.63437 0
M  V30 2500 C 215.771 4.70232 -2.47094 0
M  V30 2501 C 214.81 4.89564 -3.67415 0
M  V30 2502 N 213.947 6.08661 -3.49966 0
M  V30 2503 H 218.787 1.7387 -2.42019 0
M  V30 2504 H 216.324 0.84868 -1.20149 0
M  V30 2505 H 218.282 3.95914 -1.31561 0
M  V30 2506 H 216.912 3.19374 -0.469033 0
M  V30 2507 H 215.964 2.56774 -2.80662 0
M  V30 2508 H 217.276 3.52557 -3.52853 0
M  V30 2509 H 216.43 5.5814 -2.37834 0
M  V30 2510 H 215.169 4.62353 -1.5518 0
M  V30 2511 H 214.174 4.00096 -3.77099 0
M  V30 2512 H 215.399 4.99282 -4.6032 0
M  V30 2513 H 213.345 6.0194 -2.60776 0
M  V30 2514 H 213.262 6.19733 -4.32975 0
M  V30 2515 H 214.53 6.99226 -3.44532 0
M  V30 2516 N 218.759 1.29093 0.90403 0
M  V30 2517 C 219.989 1.19516 1.68522 0
M  V30 2518 C 220.397 -0.24738 1.87576 0
M  V30 2519 O 219.74 -1.17798 1.40959 0
M  V30 2520 C 219.802 1.83249 3.0929 0
M  V30 2521 C 219.466 3.32531 3.13484 0
M  V30 2522 C 220.463 4.28821 2.93953 0
M  V30 2523 C 218.148 3.73656 3.35688 0
M  V30 2524 C 220.142 5.64212 2.96553 0
M  V30 2525 C 217.829 5.0917 3.37919 0
M  V30 2526 C 218.827 6.04258 3.18373 0
M  V30 2527 O 218.515 7.37298 3.20385 0
M  V30 2528 H 218.247 0.415467 0.533257 0
M  V30 2529 H 220.801 1.70912 1.13922 0
M  V30 2530 H 219.031 1.26358 3.65473 0
M  V30 2531 H 220.72 1.68054 3.69476 0
M  V30 2532 H 221.486 3.98382 2.76616 0
M  V30 2533 H 217.365 3.00101 3.49943 0
M  V30 2534 H 220.909 6.38407 2.81216 0
M  V30 2535 H 216.806 5.39256 3.54787 0
M  V30 2536 H 217.574 7.46048 3.36681 0
M  V30 2537 N 220.237 -1.11381 1.11499 0
M  V30 2538 C 221.514 -1.7955 0.775965 0
M  V30 2539 C 221.894 -1.97859 -0.73588 0
M  V30 2540 O 221.242 -1.56376 -1.66609 0
M  V30 2541 C 221.452 -3.13196 1.53977 0
M  V30 2542 C 222.8 -3.88227 1.71944 0
M  V30 2543 O 223.824 -3.22887 1.50407 0
M  V30 2544 O 222.683 -5.05477 2.07738 0
M  V30 2545 H 219.777 -0.777728 0.28119 0
M  V30 2546 H 222.323 -1.18118 1.21845 0
M  V30 2547 H 221.095 -2.95229 2.56818 0
M  V30 2548 H 220.718 -3.82342 1.09088 0
M  V30 2549 N 221.715 -0.905404 -1.28997 0
M  V30 2550 C 222.625 -0.392246 -2.31298 0
M  V30 2551 C 223.641 0.515889 -1.66176 0
M  V30 2552 O 224.817 0.404093 -1.97304 0
M  V30 2553 C 221.882 0.36686 -3.44754 0
M  V30 2554 C 220.943 -0.573485 -4.25452 0
M  V30 2555 C 220.176 0.149488 -5.33491 0
M  V30 2556 O 220.399 1.37255 -5.5364 0
M  V30 2557 O 219.333 -0.510919 -5.99728 0
M  V30 2558 H 223.159 -1.2411 -2.77183 0
M  V30 2559 H 220.744 -0.669926 -1.33538 0
M  V30 2560 H 222.626 0.795907 -4.13816 0
M  V30 2561 H 221.301 1.19169 -3.00966 0
M  V30 2562 H 220.208 -1.05176 -3.59011 0
M  V30 2563 H 221.541 -1.36489 -4.72897 0
M  V30 2564 N 223.193 1.4272 -0.668489 0
M  V30 2565 C 224.609 1.55992 -0.33745 0
M  V30 2566 C 224.809 1.64933 1.15756 0
M  V30 2567 O 223.865 1.61278 1.94282 0
M  V30 2568 C 225.178 2.81314 -1.06222 0
M  V30 2569 C 226.726 2.95078 -1.04394 0
M  V30 2570 C 227.201 4.23252 -1.74991 0
M  V30 2571 N 228.692 4.3015 -1.71829 0
M  V30 2572 C 229.427 5.28127 -2.23315 0
M  V30 2573 N 228.923 6.32293 -2.83156 0
M  V30 2574 N 230.716 5.19882 -2.13726 0
M  V30 2575 H 222.867 1.3516 -1.63846 0
M  V30 2576 H 225.13 0.650174 -0.689912 0
M  V30 2577 H 224.836 2.80823 -2.11734 0
M  V30 2578 H 224.71 3.72012 -0.62344 0
M  V30 2579 H 227.097 2.951 0.0028244 0
M  V30 2580 H 227.178 2.05627 -1.52155 0
M  V30 2581 H 226.822 4.2399 -2.79633 0
M  V30 2582 H 226.752 5.11626 -1.24685 0
M  V30 2583 H 229.243 3.55499 -1.28175 0
M  V30 2584 H 229.556 7.03398 -3.20079 0
M  V30 2585 H 227.901 6.32873 -2.87223 0
M  V30 2586 H 231.092 4.37423 -1.66669 0
M  V30 2587 H 231.265 5.96077 -2.54158 0
M  V30 2588 N 224.671 0.411399 1.52136 0
M  V30 2589 C 225.618 -0.412975 2.27075 0
M  V30 2590 C 226.588 -1.03912 1.29582 0
M  V30 2591 O 227.773 -1.06296 1.58448 0
M  V30 2592 C 224.913 -1.52247 3.09701 0
M  V30 2593 C 224.026 -0.917021 4.22155 0
M  V30 2594 C 223.161 -1.9994 4.92135 0
M  V30 2595 C 222.2 -1.37101 5.96548 0
M  V30 2596 N 221.337 -2.39364 6.60038 0
M  V30 2597 H 226.177 0.232499 2.97092 0
M  V30 2598 H 223.714 0.126496 1.46555 0
M  V30 2599 H 225.672 -2.17674 3.55913 0
M  V30 2600 H 224.302 -2.13794 2.41851 0
M  V30 2601 H 223.354 -0.151742 3.80097 0
M  V30 2602 H 224.666 -0.418006 4.97045 0
M  V30 2603 H 223.82 -2.73088 5.41763 0
M  V30 2604 H 222.559 -2.53208 4.16818 0
M  V30 2605 H 221.564 -0.624873 5.46237 0
M  V30 2606 H 222.789 -0.845998 6.7381 0
M  V30 2607 H 220.735 -2.91759 5.87548 0
M  V30 2608 H 220.652 -1.9428 7.3061 0
M  V30 2609 H 221.92 -3.12074 7.14304 0
M  V30 2610 N 226.149 -1.5696 0.141893 0
M  V30 2611 C 227.096 -2.16501 -0.799737 0
M  V30 2612 C 228.066 -1.09643 -1.24771 0
M  V30 2613 O 229.251 -1.3766 -1.32115 0
M  V30 2614 C 226.391 -2.78679 -2.03549 0
M  V30 2615 C 225.504 -3.99914 -1.6338 0
M  V30 2616 C 224.639 -4.50106 -2.82096 0
M  V30 2617 C 223.678 -5.63819 -2.38275 0
M  V30 2618 N 222.815 -6.08651 -3.49983 0
M  V30 2619 H 227.655 -2.96632 -0.285179 0
M  V30 2620 H 225.192 -1.46533 -0.129053 0
M  V30 2621 H 227.15 -3.1287 -2.75986 0
M  V30 2622 H 225.78 -2.012 -2.52425 0
M  V30 2623 H 224.832 -3.71735 -0.807279 0
M  V30 2624 H 226.144 -4.82311 -1.27192 0
M  V30 2625 H 225.298 -4.86325 -3.62729 0
M  V30 2626 H 224.037 -3.66706 -3.21525 0
M  V30 2627 H 223.042 -5.2718 -1.56081 0
M  V30 2628 H 224.267 -6.49 -1.99938 0
M  V30 2629 H 222.213 -5.28188 -3.89042 0
M  V30 2630 H 222.13 -6.85961 -3.17794 0
M  V30 2631 H 223.398 -6.49515 -4.30988 0
M  V30 2632 N 227.627 0.131896 -1.57047 0
M  V30 2633 C 228.575 1.18146 -2.0036 0
M  V30 2634 C 229.569 1.43614 -0.898406 0
M  V30 2635 O 230.775 1.43729 -1.08361 0
M  V30 2636 H 227.15 0.398042 -0.638018 0
M  V30 2637 H 229.121 0.789564 -2.87765 0
M  V30 2638 C 227.87 2.50341 -2.41298 0
M  V30 2639 H 227.193 2.31578 -3.25902 0
M  V30 2640 H 228.633 3.22371 -2.75414 0
M  V30 2641 C 227.092 3.11984 -1.27153 0
M  V30 2642 O 227.622 3.97484 -0.580459 0
M  V30 2643 N 225.828 2.71662 -1.03189 0
M  V30 2644 H 225.375 2.02231 -1.59564 0
M  V30 2645 H 225.333 3.13238 -0.270077 0
M  V30 2646 N 229.106 1.52395 0.401703 0
M  V30 2647 C 230.069 1.75636 1.47257 0
M  V30 2648 C 231.069 0.62628 1.48103 0
M  V30 2649 O 232.259 0.894227 1.49497 0
M  V30 2650 C 229.391 1.84553 2.86624 0
M  V30 2651 H 230.584 2.71241 1.27938 0
M  V30 2652 H 228.137 1.42923 0.632662 0
M  V30 2653 H 228.872 0.908882 3.11303 0
M  V30 2654 H 228.657 2.66715 2.87412 0
M  V30 2655 H 230.147 2.04251 3.64241 0
M  V30 2656 N 230.584 -0.659388 1.43143 0
M  V30 2657 C 231.531 -1.77249 1.47822 0
M  V30 2658 C 232.501 -1.62818 0.328558 0
M  V30 2659 O 233.686 -1.83151 0.534838 0
M  V30 2660 C 230.826 -3.15371 1.40126 0
M  V30 2661 C 229.939 -3.4098 2.65249 0
M  V30 2662 C 229.074 -4.68915 2.49584 0
M  V30 2663 C 228.113 -4.87608 3.70006 0
M  V30 2664 N 227.25 -6.06796 3.53189 0
M  V30 2665 H 232.09 -1.72584 2.42938 0
M  V30 2666 H 229.627 -0.842297 1.20598 0
M  V30 2667 H 231.585 -3.9521 1.33659 0
M  V30 2668 H 230.215 -3.19121 0.485964 0
M  V30 2669 H 229.267 -2.55282 2.8202 0
M  V30 2670 H 230.579 -3.50681 3.54717 0
M  V30 2671 H 229.733 -5.56871 2.4079 0
M  V30 2672 H 228.472 -4.61524 1.5763 0
M  V30 2673 H 227.477 -3.9809 3.79215 0
M  V30 2674 H 228.702 -4.96834 4.62961 0
M  V30 2675 H 226.648 -6.00549 2.63965 0
M  V30 2676 H 226.565 -6.17428 4.36255 0
M  V30 2677 H 227.833 -6.9739 3.48236 0
M  V30 2678 N 232.062 -1.29571 -0.897171 0
M  V30 2679 C 233.311 -1.1706 -1.64256 0
M  V30 2680 C 233.624 0.276476 -1.93636 0
M  V30 2681 O 234.83 0.52294 -2.66416 0
M  V30 2682 C 233.286 -2.0475 -2.95982 0
M  V30 2683 C 232.894 -3.54295 -2.74187 0
M  V30 2684 C 234.638 -2.0097 -3.73914 0
M  V30 2685 C 232.545 -4.34081 -4.01656 0
M  V30 2686 H 231.475 -0.43452 -0.616205 0
M  V30 2687 H 234.126 -1.54229 -0.994268 0
M  V30 2688 H 232.508 -1.60452 -3.62038 0
M  V30 2689 H 233.682 -4.06662 -2.1671 0
M  V30 2690 H 231.997 -3.59773 -2.09648 0
M  V30 2691 H 234.594 -2.57838 -4.68427 0
M  V30 2692 H 234.937 -0.990273 -4.0435 0
M  V30 2693 H 235.47 -2.43325 -3.14703 0
M  V30 2694 H 232.209 -5.36671 -3.76384 0
M  V30 2695 H 231.729 -3.86483 -4.58684 0
M  V30 2696 H 233.408 -4.44877 -4.69781 0
M  V30 2697 N 233.54 1.10788 -1.12088 0
M  V30 2698 C 234.765 1.87002 -0.896949 0
M  V30 2699 C 235.19 1.79933 0.548261 0
M  V30 2700 O 234.548 1.16662 1.38779 0
M  V30 2701 C 234.596 3.3349 -1.37174 0
M  V30 2702 O 233.7 4.08745 -0.547831 0
M  V30 2703 H 233.041 0.580397 -0.322545 0
M  V30 2704 H 235.571 1.39996 -1.49206 0
M  V30 2705 H 235.581 3.84339 -1.36922 0
M  V30 2706 H 234.256 3.37951 -2.42408 0
M  V30 2707 H 232.833 3.6776 -0.617034 0
M  V30 2708 N 235.018 0.912232 1.28515 0
M  V30 2709 C 236.243 0.559774 1.99703 0
M  V30 2710 C 236.668 -0.851393 1.67729 0
M  V30 2711 O 236.026 -1.56875 0.908834 0
M  V30 2712 C 236.074 0.773874 3.52198 0
M  V30 2713 O 235.178 -0.167842 4.12058 0
M  V30 2714 H 234.519 0.21723 0.627461 0
M  V30 2715 H 237.049 1.22725 1.63706 0
M  V30 2716 H 237.059 0.683386 4.02236 0
M  V30 2717 H 235.734 1.80261 3.74805 0
M  V30 2718 H 234.311 -0.0287509 3.72889 0
M  V30 2719 N 236.496 -1.42363 0.676048 0
M  V30 2720 C 237.426 -2.33497 0.0124832 0
M  V30 2721 C 238.407 -1.50748 -0.787981 0
M  V30 2722 O 239.592 -1.79346 -0.744884 0
M  V30 2723 C 236.722 -3.34377 -0.938582 0
M  V30 2724 C 235.676 -4.27289 -0.246622 0
M  V30 2725 C 235.002 -5.18386 -1.31071 0
M  V30 2726 C 236.302 -5.14916 0.875125 0
M  V30 2727 H 237.996 -2.89233 0.773593 0
M  V30 2728 H 235.542 -1.39073 0.37346 0
M  V30 2729 H 237.495 -3.97044 -1.41188 0
M  V30 2730 H 236.219 -2.76947 -1.73113 0
M  V30 2731 H 234.878 -3.66018 0.206456 0
M  V30 2732 H 234.526 -4.57282 -2.09528 0
M  V30 2733 H 234.226 -5.81378 -0.852839 0
M  V30 2734 H 235.75 -5.83929 -1.78492 0
M  V30 2735 H 237.164 -5.71262 0.482983 0
M  V30 2736 H 235.561 -5.86747 1.25887 0
M  V30 2737 H 236.631 -4.53242 1.72335 0
M  V30 2738 N 237.974 -0.419461 -1.51915 0
M  V30 2739 C 238.904 0.391813 -2.30189 0
M  V30 2740 C 239.885 1.03699 -1.34836 0
M  V30 2741 O 241.07 1.04403 -1.63748 0
M  V30 2742 C 238.2 1.50312 -3.13087 0
M  V30 2743 C 237.154 0.9824 -4.16573 0
M  V30 2744 C 236.48 2.18809 -4.8788 0
M  V30 2745 C 237.78 0.0292356 -5.22292 0
M  V30 2746 H 239.474 -0.26135 -2.98257 0
M  V30 2747 H 237.02 -0.127134 -1.43438 0
M  V30 2748 H 238.973 2.07773 -3.66617 0
M  V30 2749 H 237.697 2.18431 -2.42807 0
M  V30 2750 H 236.356 0.430119 -3.64068 0
M  V30 2751 H 236.004 2.85507 -4.14119 0
M  V30 2752 H 235.704 1.84615 -5.57845 0
M  V30 2753 H 237.228 2.76858 -5.44226 0
M  V30 2754 H 238.642 0.512976 -5.71 0
M  V30 2755 H 237.039 -0.2244 -5.9968 0
M  V30 2756 H 238.109 -0.912931 -4.76228 0
M  V30 2757 N 239.452 1.56882 -0.150215 0
M  V30 2758 C 240.362 2.20494 0.801222 0
M  V30 2759 C 241.378 1.19019 1.26927 0
M  V30 2760 O 242.554 1.51607 1.32579 0
M  V30 2761 C 239.619 2.81659 2.02161 0
M  V30 2762 C 238.68 3.9827 1.60249 0
M  V30 2763 C 237.913 4.56508 2.7647 0
M  V30 2764 O 238.136 4.13627 3.92771 0
M  V30 2765 O 237.07 5.46719 2.51757 0
M  V30 2766 H 240.896 3.02315 0.289717 0
M  V30 2767 H 238.481 1.49202 0.0769684 0
M  V30 2768 H 240.363 3.20522 2.73576 0
M  V30 2769 H 239.038 2.02849 2.52258 0
M  V30 2770 H 237.945 3.64117 0.858477 0
M  V30 2771 H 239.278 4.78609 1.14864 0
M  V30 2772 N 240.93 -0.123565 1.57115 0
M  V30 2773 C 241.84 -1.17074 2.033 0
M  V30 2774 C 242.856 -1.4561 0.952559 0
M  V30 2775 O 244.032 -1.56817 1.26374 0
M  V30 2776 C 241.097 -2.47857 2.42421 0
M  V30 2777 C 240.158 -2.26758 3.64526 0
M  V30 2778 C 239.391 -3.51305 4.01771 0
M  V30 2779 O 239.614 -4.5843 3.39409 0
M  V30 2780 O 238.548 -3.42578 4.94898 0
M  V30 2781 H 242.374 -0.808555 2.92739 0
M  V30 2782 H 239.959 -0.334027 1.45618 0
M  V30 2783 H 241.841 -3.2492 2.68338 0
M  V30 2784 H 240.516 -2.83558 1.5613 0
M  V30 2785 H 239.423 -1.47569 3.43765 0
M  V30 2786 H 240.756 -1.95963 4.51508 0
M  V30 2787 N 242.408 -1.52605 -0.393616 0
M  V30 2788 C 243.34 -1.73303 -1.49995 0
M  V30 2789 C 244.353 -0.613473 -1.50799 0
M  V30 2790 O 245.542 -0.889049 -1.54784 0
M  V30 2791 C 242.642 -1.77245 -2.88855 0
M  V30 2792 C 241.815 -3.06483 -3.12069 0
M  V30 2793 C 240.874 -3.02033 -4.30886 0
M  V30 2794 O 239.9 -3.75907 -4.27414 0
M  V30 2795 N 241.102 -2.20897 -5.36828 0
M  V30 2796 H 243.867 -2.68756 -1.32629 0
M  V30 2797 H 241.428 -1.51036 -0.583083 0
M  V30 2798 H 243.42 -1.7178 -3.66434 0
M  V30 2799 H 241.99 -0.891993 -2.99603 0
M  V30 2800 H 241.21 -3.25474 -2.22396 0
M  V30 2801 H 242.498 -3.91947 -3.2443 0
M  V30 2802 H 241.896 -1.60336 -5.42502 0
M  V30 2803 H 240.453 -2.21275 -6.13091 0
M  V30 2804 N 243.887 0.651787 -1.4349 0
M  V30 2805 C 245.134 1.41167 -1.45183 0
M  V30 2806 C 245.462 1.94349 -0.0766601 0
M  V30 2807 O 244.717 1.72804 0.918555 0
M  V30 2808 C 245.016 2.60914 -2.44251 0
M  V30 2809 C 244.682 2.26142 -3.9009 0
M  V30 2810 C 243.344 2.16371 -4.2981 0
M  V30 2811 C 245.696 1.98334 -4.81989 0
M  V30 2812 C 243.024 1.7695 -5.5938 0
M  V30 2813 C 245.376 1.6041 -6.11924 0
M  V30 2814 C 244.04 1.49166 -6.5062 0
M  V30 2815 H 243.31 0.516566 -0.531263 0
M  V30 2816 H 245.957 0.741099 -1.76579 0
M  V30 2817 H 244.262 3.3311 -2.06265 0
M  V30 2818 H 245.959 3.19127 -2.42815 0
M  V30 2819 H 242.549 2.34658 -3.58655 0
M  V30 2820 H 246.733 2.04803 -4.52072 0
M  V30 2821 H 241.989 1.66831 -5.88198 0
M  V30 2822 H 246.163 1.37925 -6.82605 0
M  V30 2823 H 243.79 1.1839 -7.50925 0
M  V30 2824 N 245.365 1.30045 0.890287 0
M  V30 2825 C 246.297 1.11786 2.00091 0
M  V30 2826 C 247.31 0.0626307 1.62679 0
M  V30 2827 O 248.499 0.308112 1.75821 0
M  V30 2828 C 245.599 0.681527 3.31977 0
M  V30 2829 C 244.772 1.81735 3.97858 0
M  V30 2830 C 243.831 1.37045 5.08041 0
M  V30 2831 O 242.857 2.07677 5.29961 0
M  V30 2832 N 244.059 0.246525 5.79976 0
M  V30 2833 H 246.824 2.07441 2.16306 0
M  V30 2834 H 244.385 1.2211 1.06305 0
M  V30 2835 H 246.377 0.365675 4.03045 0
M  V30 2836 H 244.947 -0.182828 3.12065 0
M  V30 2837 H 244.167 2.30159 3.20032 0
M  V30 2838 H 245.455 2.57865 4.38615 0
M  V30 2839 H 244.853 -0.34215 5.64664 0
M  V30 2840 H 243.41 -0.00990438 6.51799 0
M  V30 2841 N 246.843 -1.10192 1.12674 0
M  V30 2842 C 247.775 -2.16418 0.754701 0
M  V30 2843 C 248.788 -1.61309 -0.21986 0
M  V30 2844 O 249.977 -1.785 -0.000826841 0
M  V30 2845 C 247.077 -3.38762 0.096698 0
M  V30 2846 C 246.25 -4.23307 1.10136 0
M  V30 2847 C 245.309 -5.24092 0.470513 0
M  V30 2848 O 244.335 -5.57906 1.12824 0
M  V30 2849 N 245.537 -5.75491 -0.760948 0
M  V30 2850 H 248.302 -2.48943 1.66875 0
M  V30 2851 H 245.863 -1.25834 1.01869 0
M  V30 2852 H 247.855 -4.03291 -0.337384 0
M  V30 2853 H 246.425 -3.04192 -0.720153 0
M  V30 2854 H 245.645 -3.55036 1.71299 0
M  V30 2855 H 246.933 -4.76624 1.78064 0
M  V30 2856 H 246.331 -5.50222 -1.31424 0
M  V30 2857 H 244.888 -6.41792 -1.13781 0
M  V30 2858 N 248.321 -0.919034 -1.28029 0
M  V30 2859 C 249.569 -0.553838 -1.94363 0
M  V30 2860 C 249.89 0.906357 -1.72656 0
M  V30 2861 O 249.16 1.64143 -1.0693 0
M  V30 2862 H 247.74 -0.201834 -0.719216 0
M  V30 2863 H 250.402 -1.16954 -1.55909 0
M  V30 2864 H 249.498 -0.752758 -3.02886 0
M  V30 2865 N 249.799 1.42003 -0.683588 0
M  V30 2866 C 250.746 2.30798 -0.0107309 0
M  V30 2867 C 251.716 1.4645 0.783688 0
M  V30 2868 O 252.901 1.75263 0.754156 0
M  V30 2869 C 250.041 3.3238 0.928306 0
M  V30 2870 C 249.154 4.31814 0.126776 0
M  V30 2871 C 248.289 5.20468 1.06236 0
M  V30 2872 C 247.328 6.11577 0.253035 0
M  V30 2873 N 246.465 6.92754 1.14179 0
M  V30 2874 H 251.305 2.8778 -0.773727 0
M  V30 2875 H 248.842 1.41745 -0.393283 0
M  V30 2876 H 250.8 3.89813 1.48666 0
M  V30 2877 H 249.43 2.76976 1.65783 0
M  V30 2878 H 248.482 3.76427 -0.54833 0
M  V30 2879 H 249.794 4.96276 -0.501192 0
M  V30 2880 H 248.948 5.82677 1.69035 0
M  V30 2881 H 247.687 4.56204 1.7242 0
M  V30 2882 H 246.692 5.48428 -0.388108 0
M  V30 2883 H 247.917 6.77892 -0.404839 0
M  V30 2884 H 245.863 6.3111 1.78987 0
M  V30 2885 H 245.78 7.53855 0.569111 0
M  V30 2886 H 247.048 7.59441 1.75697 0
M  V30 2887 N 251.277 0.427512 1.51691 0
M  V30 2888 C 252.207 -0.3796 2.30394 0
M  V30 2889 C 253.188 -1.02982 1.35384 0
M  V30 2890 O 254.373 -1.03534 1.643 0
M  V30 2891 C 251.503 -1.48649 3.1388 0
M  V30 2892 C 250.457 -0.960294 4.17088 0
M  V30 2893 C 249.783 -2.16219 4.89033 0
M  V30 2894 C 251.083 -0.00153679 5.223 0
M  V30 2895 H 252.777 0.277164 2.98114 0
M  V30 2896 H 250.323 0.134739 1.43368 0
M  V30 2897 H 252.276 -2.05826 3.67714 0
M  V30 2898 H 251 -2.1714 2.43962 0
M  V30 2899 H 249.659 -0.410806 3.64291 0
M  V30 2900 H 249.307 -2.83307 4.15628 0
M  V30 2901 H 249.007 -1.81654 5.58816 0
M  V30 2902 H 250.531 -2.73968 5.45687 0
M  V30 2903 H 251.945 -0.482687 5.71264 0
M  V30 2904 H 250.342 0.256199 5.99553 0
M  V30 2905 H 251.412 0.938174 4.75738 0
M  V30 2906 N 252.755 -1.56801 0.158532 0
M  V30 2907 C 253.685 -2.20347 -0.772609 0
M  V30 2908 C 254.666 -1.15518 -1.24859 0
M  V30 2909 O 255.851 -1.43902 -1.30406 0
M  V30 2910 C 252.981 -2.83417 -2.00729 0
M  V30 2911 C 251.935 -3.94174 -1.66765 0
M  V30 2912 C 251.261 -4.44233 -2.97592 0
M  V30 2913 C 252.561 -5.14392 -0.905447 0
M  V30 2914 H 254.255 -2.98413 -0.242959 0
M  V30 2915 H 251.801 -1.43537 -0.115419 0
M  V30 2916 H 253.754 -3.26543 -2.6636 0
M  V30 2917 H 252.478 -2.02701 -2.56086 0
M  V30 2918 H 251.137 -3.51684 -1.03508 0
M  V30 2919 H 250.785 -3.60325 -3.50963 0
M  V30 2920 H 250.485 -5.18945 -2.75626 0
M  V30 2921 H 252.009 -4.90037 -3.64274 0
M  V30 2922 H 253.423 -5.5429 -1.46408 0
M  V30 2923 H 251.82 -5.9494 -0.7853 0
M  V30 2924 H 252.89 -4.84795 0.100668 0
M  V30 2925 N 254.233 0.115231 -1.57178 0
M  V30 2926 C 255.196 1.12526 -1.99676 0
M  V30 2927 C 256.196 1.34095 -0.88742 0
M  V30 2928 O 257.386 1.30548 -1.15337 0
M  V30 2929 C 254.518 2.4789 -2.34015 0
M  V30 2930 H 255.711 0.759912 -2.90113 0
M  V30 2931 H 253.264 0.359648 -1.52106 0
M  V30 2932 H 253.999 2.89339 -1.4647 0
M  V30 2933 H 253.784 2.33588 -3.14927 0
M  V30 2934 H 255.274 3.20575 -2.67622 0
M  V30 2935 N 255.711 1.52812 0.385517 0
M  V30 2936 C 256.951 1.69716 1.13911 0
M  V30 2937 C 257.315 0.42962 1.87132 0
M  V30 2938 O 258.516 0.475071 2.64569 0
M  V30 2939 C 256.787 2.90021 2.0886 0
M  V30 2940 S 258.346 3.27531 2.92009 0
M  V30 2941 H 255.164 0.59739 0.385547 0
M  V30 2942 H 257.766 1.90868 0.423061 0
M  V30 2943 H 256.47 3.80493 1.53797 0
M  V30 2944 H 256.001 2.71213 2.84969 0
M  V30 2945 H 258.016 2.77989 4.11019 0
M  V30 2946 N 257.189 -0.644168 1.43834 0
M  V30 2947 C 258.438 -1.39985 1.45214 0
M  V30 2948 C 258.751 -1.95421 0.0835494 0
M  V30 2949 O 259.957 -2.71488 -0.0251748 0
M  V30 2950 C 258.413 -2.53384 2.55587 0
M  V30 2951 C 258.021 -2.04517 3.98594 0
M  V30 2952 C 259.765 -3.30685 2.66172 0
M  V30 2953 C 257.672 -3.1518 5.00416 0
M  V30 2954 H 256.602 -0.526005 0.540218 0
M  V30 2955 H 259.253 -0.694367 1.69855 0
M  V30 2956 H 257.635 -3.26446 2.24163 0
M  V30 2957 H 258.809 -1.38405 4.39523 0
M  V30 2958 H 257.124 -1.40068 3.92135 0
M  V30 2959 H 259.721 -4.13158 3.39418 0
M  V30 2960 H 260.064 -3.79312 1.71546 0
M  V30 2961 H 260.597 -2.64708 2.96942 0
M  V30 2962 H 257.336 -2.71511 5.96625 0
M  V30 2963 H 256.856 -3.79974 4.64091 0
M  V30 2964 H 258.535 -3.80166 5.23529 0
M  V30 2965 N 258.668 -1.30515 -0.883378 0
M  V30 2966 C 259.631 -1.1701 -1.97082 0
M  V30 2967 C 260.631 -0.10089 -1.60483 0
M  V30 2968 O 261.821 -0.349127 -1.70666 0
M  V30 2969 C 258.953 -0.793045 -3.31547 0
M  V30 2970 H 260.146 -2.13622 -2.10489 0
M  V30 2971 H 257.699 -1.13935 -1.06998 0
M  V30 2972 H 258.434 0.172499 -3.23841 0
M  V30 2973 H 258.219 -1.56576 -3.5948 0
M  V30 2974 H 259.709 -0.722073 -4.1131 0
M  V30 2975 N 260.146 1.09593 -1.13257 0
M  V30 2976 C 261.371 1.8604 -0.916732 0
M  V30 2977 C 261.796 1.80504 0.529146 0
M  V30 2978 O 261.154 1.18127 1.37534 0
M  V30 2979 C 261.202 3.32017 -1.40703 0
M  V30 2980 O 260.306 4.08141 -0.591153 0
M  V30 2981 H 259.647 0.576943 -0.328683 0
M  V30 2982 H 262.177 1.38405 -1.50682 0
M  V30 2983 H 262.187 3.82865 -1.4099 0
M  V30 2984 H 260.862 3.35361 -2.45979 0
M  V30 2985 H 259.439 3.67084 -0.656005 0
M  V30 2986 N 261.624 0.925811 1.2754 0
M  V30 2987 C 263.04 0.625767 1.46821 0
M  V30 2988 C 263.24 -0.825506 1.83814 0
M  V30 2989 O 262.296 -1.60356 1.95044 0
M  V30 2990 C 263.609 1.57402 2.56213 0
M  V30 2991 C 265.157 1.58204 2.70075 0
M  V30 2992 C 265.632 2.51721 3.82623 0
M  V30 2993 N 267.123 2.49917 3.89994 0
M  V30 2994 C 267.858 3.18968 4.76494 0
M  V30 2995 N 267.354 3.97391 5.67496 0
M  V30 2996 N 269.147 3.07996 4.70208 0
M  V30 2997 H 261.298 1.86409 1.01811 0
M  V30 2998 H 263.561 0.800213 0.508295 0
M  V30 2999 H 263.267 2.60925 2.35819 0
M  V30 3000 H 263.141 1.31428 3.53563 0
M  V30 3001 H 265.528 0.554124 2.89851 0
M  V30 3002 H 265.609 1.88226 1.73218 0
M  V30 3003 H 265.253 3.54622 3.63601 0
M  V30 3004 H 265.183 2.18996 4.78903 0
M  V30 3005 H 267.674 1.9296 3.24923 0
M  V30 3006 H 267.987 4.4707 6.30356 0
M  V30 3007 H 266.332 4.01495 5.67298 0
M  V30 3008 H 269.523 2.46223 3.9811 0
M  V30 3009 H 269.696 3.6208 5.37403 0
M  V30 3010 N 263.102 -1.41638 0.69111 0
M  V30 3011 C 264.513 -1.84346 0.295517 0
M  V30 3012 C 264.864 -1.57833 -1.16547 0
M  V30 3013 O 263.989 -1.04648 -1.89414 0
M  V30 3014 C 264.584 -3.34636 0.529575 0
M  V30 3015 C 263.143 -3.7593 0.187944 0
M  V30 3016 C 262.29 -2.65082 0.814052 0
M  V30 3017 H 265.241 -1.31253 0.892092 0
M  V30 3018 H 265.262 -3.79903 -0.213148 0
M  V30 3019 H 264.774 -3.53901 1.59297 0
M  V30 3020 H 262.875 -3.62268 -0.871367 0
M  V30 3021 H 262.988 -4.74808 0.63985 0
M  V30 3022 H 261.352 -2.53528 0.244017 0
M  V30 3023 H 262.135 -2.87167 1.88123 0
M  V30 3024 N 264.58 -0.43555 -1.51462 0
M  V30 3025 C 265.828 0.131254 -2.01673 0
M  V30 3026 C 266.149 1.43368 -1.32177 0
M  V30 3027 O 265.419 1.90524 -0.455769 0
M  V30 3028 H 263.999 0.0514954 -0.745223 0
M  V30 3029 H 266.661 -0.577847 -1.86137 0
M  V30 3030 H 265.757 0.308446 -3.10572 0
M  V30 3031 N 266.058 1.56714 -0.166846 0
M  V30 3032 C 266.99 2.14914 0.796537 0
M  V30 3033 C 268.003 1.10357 1.19688 0
M  V30 3034 O 269.192 1.37561 1.13751 0
M  V30 3035 C 266.292 2.67326 2.08303 0
M  V30 3036 C 265.465 3.96493 1.84696 0
M  V30 3037 C 264.524 4.34014 2.97521 0
M  V30 3038 O 263.55 5.01973 2.6835 0
M  V30 3039 N 264.752 3.95208 4.25196 0
M  V30 3040 H 267.517 2.98205 0.299006 0
M  V30 3041 H 265.078 1.61892 0.0160839 0
M  V30 3042 H 267.07 2.89428 2.82867 0
M  V30 3043 H 265.64 1.88649 2.4926 0
M  V30 3044 H 264.86 3.82814 0.940602 0
M  V30 3045 H 266.148 4.8086 1.66285 0
M  V30 3046 H 265.546 3.40487 4.51758 0
M  V30 3047 H 264.103 4.2232 4.96477 0
M  V30 3048 N 267.536 -0.106894 1.57237 0
M  V30 3049 C 268.776 -0.818277 1.87306 0
M  V30 3050 C 269.14 -1.76474 0.756371 0
M  V30 3051 O 270.341 -2.5186 0.939155 0
M  V30 3052 C 268.612 -1.53806 3.22612 0
M  V30 3053 S 270.171 -2.28935 3.74345 0
M  V30 3054 H 266.989 -0.272862 0.656557 0
M  V30 3055 H 269.591 -0.075988 1.95352 0
M  V30 3056 H 268.295 -0.834951 4.01817 0
M  V30 3057 H 267.826 -2.32049 3.17674 0
M  V30 3058 H 269.841 -3.54871 3.46815 0
M  V30 3059 N 269.014 -1.53014 -0.377408 0
M  V30 3060 C 270.262 -1.6829 -1.11906 0
M  V30 3061 C 270.583 -0.431206 -1.90173 0
M  V30 3062 O 269.853 0.554595 -1.87886 0
M  V30 3063 H 268.433 -0.620371 -0.416112 0
M  V30 3064 H 271.095 -1.90167 -0.426893 0
M  V30 3065 H 270.191 -2.53862 -1.8155 0
M  V30 3066 N 270.492 0.636531 -1.44174 0
M  V30 3067 C 271.908 0.954104 -1.27941 0
M  V30 3068 C 272.108 2.0039 -0.211248 0
M  V30 3069 O 271.164 2.49236 0.404695 0
M  V30 3070 C 272.477 1.4225 -2.64925 0
M  V30 3071 C 274.025 1.53827 -2.72592 0
M  V30 3072 C 274.5 2.04053 -4.10032 0
M  V30 3073 N 275.991 2.11331 -4.12182 0
M  V30 3074 C 276.726 2.51352 -5.15374 0
M  V30 3075 N 276.222 2.90549 -6.2893 0
M  V30 3076 N 278.015 2.51438 -5.02728 0
M  V30 3077 H 270.166 -0.0578386 -2.12321 0
M  V30 3078 H 272.429 0.0367406 -0.947288 0
M  V30 3079 H 272.135 0.725466 -3.44136 0
M  V30 3080 H 272.009 2.39451 -2.9145 0
M  V30 3081 H 274.396 2.22628 -1.93702 0
M  V30 3082 H 274.477 0.550154 -2.49814 0
M  V30 3083 H 274.121 1.35848 -4.89395 0
M  V30 3084 H 274.051 3.03726 -4.30184 0
M  V30 3085 H 276.542 1.83745 -3.30222 0
M  V30 3086 H 276.855 3.19884 -7.03487 0
M  V30 3087 H 275.2 2.88313 -6.32377 0
M  V30 3088 H 278.391 2.20203 -4.13072 0
M  V30 3089 H 278.564 2.82304 -5.83274 0
M  V30 3090 N 271.97 1.30982 0.876444 0
M  V30 3091 C 272.933 1.18054 1.96459 0
M  V30 3092 C 273.933 0.109399 1.60427 0
M  V30 3093 O 275.123 0.358173 1.70478 0
M  V30 3094 C 272.255 0.810616 3.31122 0
M  V30 3095 H 273.448 2.14735 2.09354 0
M  V30 3096 H 271.001 1.145 1.06392 0
M  V30 3097 H 271.736 -0.155322 3.23928 0
M  V30 3098 H 271.521 1.58481 3.58645 0
M  V30 3099 H 273.011 0.743876 4.10921 0
M  V30 3100 N 273.449 -1.08991 1.13837 0
M  V30 3101 C 274.726 -1.77863 0.813876 0
M  V30 3102 C 275.106 -1.99375 -0.693746 0
M  V30 3103 O 274.454 -1.59875 -1.63255 0
M  V30 3104 C 274.664 -3.0986 1.60586 0
M  V30 3105 C 276.012 -3.84493 1.8014 0
M  V30 3106 O 277.036 -3.19624 1.57222 0
M  V30 3107 O 275.895 -5.00957 2.18413 0
M  V30 3108 H 272.989 -0.771589 0.297624 0
M  V30 3109 H 275.535 -1.15507 1.24323 0
M  V30 3110 H 274.307 -2.89715 2.63022 0
M  V30 3111 H 273.93 -3.79942 1.17173 0
M  V30 3112 N 274.927 -0.932562 -1.27047 0
M  V30 3113 C 276.175 -0.574422 -1.93765 0
M  V30 3114 C 276.496 0.887993 -1.73608 0
M  V30 3115 O 275.766 1.62999 -1.08665 0
M  V30 3116 H 274.346 -0.209451 -0.717035 0
M  V30 3117 H 277.008 -1.18601 -1.5466 0
M  V30 3118 H 276.104 -0.784841 -3.02071 0
M  V30 3119 N 276.405 1.4127 -0.698611 0
M  V30 3120 C 277.635 2.05205 -0.239644 0
M  V30 3121 C 278.043 1.52684 1.11733 0
M  V30 3122 O 277.386 0.671222 1.70998 0
M  V30 3123 C 277.448 3.59289 -0.123126 0
M  V30 3124 C 277.112 4.34619 -1.41263 0
M  V30 3125 C 278.109 4.63701 -2.35111 0
M  V30 3126 C 275.794 4.73837 -1.66684 0
M  V30 3127 C 277.788 5.30966 -3.52639 0
M  V30 3128 C 275.475 5.40837 -2.84498 0
M  V30 3129 C 276.473 5.69329 -3.77298 0
M  V30 3130 O 276.161 6.34949 -4.93047 0
M  V30 3131 H 275.893 0.66723 -0.108537 0
M  V30 3132 H 278.447 1.81974 -0.952602 0
M  V30 3133 H 276.677 3.81272 0.645628 0
M  V30 3134 H 278.366 4.04797 0.299056 0
M  V30 3135 H 279.132 4.33882 -2.16729 0
M  V30 3136 H 275.011 4.51039 -0.953135 0
M  V30 3137 H 278.555 5.53121 -4.25091 0
M  V30 3138 H 274.452 5.70075 -3.02795 0
M  V30 3139 H 275.22 6.53445 -4.92902 0
M  V30 3140 N 277.883 0.443576 1.51229 0
M  V30 3141 C 279.129 -0.120975 2.02439 0
M  V30 3142 C 279.462 -1.41815 1.32674 0
M  V30 3143 O 278.737 -1.89373 0.443622 0
M  V30 3144 C 279.02 -0.333291 3.58554 0
M  V30 3145 C 278.873 0.982968 4.38928 0
M  V30 3146 C 280.192 -1.10028 4.26124 0
M  V30 3147 H 277.311 -0.0424923 0.735774 0
M  V30 3148 H 279.953 0.583794 1.80809 0
M  V30 3149 H 278.103 -0.933614 3.77115 0
M  V30 3150 H 279.775 1.61775 4.32003 0
M  V30 3151 H 278.018 1.58611 4.03763 0
M  V30 3152 H 278.689 0.788379 5.46341 0
M  V30 3153 H 281.165 -0.591711 4.11871 0
M  V30 3154 H 280.041 -1.21761 5.35225 0
M  V30 3155 H 280.302 -2.12996 3.87408 0
M  V30 3156 N 279.361 -1.56624 0.175154 0
M  V30 3157 C 280.291 -2.21155 -0.749195 0
M  V30 3158 C 281.272 -1.16836 -1.23626 0
M  V30 3159 O 282.457 -1.45277 -1.28873 0
M  V30 3160 C 279.587 -2.8553 -1.97711 0
M  V30 3161 C 278.541 -3.95921 -1.62575 0
M  V30 3162 C 277.867 -4.47365 -2.92864 0
M  V30 3163 C 279.167 -5.15323 -0.850838 0
M  V30 3164 H 280.861 -2.98653 -0.211295 0
M  V30 3165 H 278.407 -1.43651 -0.100188 0
M  V30 3166 H 280.36 -3.2935 -2.62881 0
M  V30 3167 H 279.084 -2.05406 -2.53921 0
M  V30 3168 H 277.743 -3.52762 -0.997719 0
M  V30 3169 H 277.391 -3.64027 -3.47122 0
M  V30 3170 H 277.091 -5.21839 -2.70106 0
M  V30 3171 H 278.615 -4.93873 -3.59056 0
M  V30 3172 H 280.029 -5.55812 -1.40521 0
M  V30 3173 H 278.426 -5.95739 -0.722154 0
M  V30 3174 H 279.496 -4.84661 0.152082 0
M  V30 3175 N 280.839 0.0985539 -1.57292 0
M  V30 3176 C 281.749 1.13824 -2.05137 0
M  V30 3177 C 282.765 1.44076 -0.975604 0
M  V30 3178 O 283.941 1.54786 -1.28853 0
M  V30 3179 C 281.006 2.43969 -2.46333 0
M  V30 3180 C 280.067 2.2093 -3.68087 0
M  V30 3181 C 279.3 3.44869 -4.0731 0
M  V30 3182 O 279.523 4.52972 -3.46659 0
M  V30 3183 O 278.457 3.34661 -5.00285 0
M  V30 3184 H 282.283 0.761881 -2.93988 0
M  V30 3185 H 279.868 0.310818 -1.46131 0
M  V30 3186 H 281.75 3.20609 -2.73473 0
M  V30 3187 H 280.425 2.81038 -1.60621 0
M  V30 3188 H 279.332 1.42081 -3.46069 0
M  V30 3189 H 280.665 1.88755 -4.54568 0
M  V30 3190 N 282.317 1.53212 0.369288 0
M  V30 3191 C 283.565 1.68881 1.11012 0
M  V30 3192 C 283.886 0.441285 1.89941 0
M  V30 3193 O 283.156 -0.544623 1.88177 0
M  V30 3194 H 281.736 0.622569 0.412816 0
M  V30 3195 H 284.398 1.90391 0.416802 0
M  V30 3196 H 283.494 2.54822 1.80201 0
M  V30 3197 N 283.795 -0.628877 1.44509 0
M  V30 3198 C 284.742 -1.74074 1.51549 0
M  V30 3199 C 285.712 -1.62084 0.363021 0
M  V30 3200 O 286.897 -1.81975 0.573567 0
M  V30 3201 C 284.037 -3.12328 1.46784 0
M  V30 3202 C 283.15 -3.35277 2.72422 0
M  V30 3203 C 282.285 -4.63515 2.59475 0
M  V30 3204 C 281.324 -4.7965 3.80266 0
M  V30 3205 N 280.461 -5.99168 3.65981 0
M  V30 3206 H 285.301 -1.67392 2.46544 0
M  V30 3207 H 282.838 -0.816527 1.22357 0
M  V30 3208 H 284.796 -3.92286 1.42012 0
M  V30 3209 H 283.426 -3.18018 0.553544 0
M  V30 3210 H 282.478 -2.49242 2.87372 0
M  V30 3211 H 283.79 -3.43078 3.62076 0
M  V30 3212 H 282.944 -5.51638 2.52548 0
M  V30 3213 H 281.683 -4.58076 1.67384 0
M  V30 3214 H 280.688 -3.89957 3.87574 0
M  V30 3215 H 281.913 -4.86902 4.73395 0
M  V30 3216 H 279.859 -5.94814 2.76644 0
M  V30 3217 H 279.776 -6.08035 4.49254 0
M  V30 3218 H 281.044 -6.89846 3.6295 0
M  V30 3219 N 285.273 -1.31445 -0.869486 0
M  V30 3220 C 286.183 -1.21097 -2.0093 0
M  V30 3221 C 287.199 -0.127584 -1.73532 0
M  V30 3222 O 288.375 -0.345477 -1.98415 0
M  V30 3223 C 285.44 -0.919378 -3.34288 0
M  V30 3224 C 284.501 -2.08971 -3.75006 0
M  V30 3225 C 283.734 -1.81194 -5.02001 0
M  V30 3226 O 283.957 -0.747296 -5.65484 0
M  V30 3227 O 282.891 -2.66883 -5.39497 0
M  V30 3228 H 286.717 -2.16883 -2.12592 0
M  V30 3229 H 284.302 -1.11189 -0.997868 0
M  V30 3230 H 286.184 -0.772625 -4.14257 0
M  V30 3231 H 284.859 0.00844772 -3.23699 0
M  V30 3232 H 283.766 -2.29187 -2.95676 0
M  V30 3233 H 285.099 -2.9998 -3.90221 0
M  V30 3234 N 286.751 1.08385 -1.14413 0
M  V30 3235 C 287.681 2.17321 -0.854044 0
M  V30 3236 C 288.662 1.69024 0.191049 0
M  V30 3237 O 289.847 1.94141 0.0476779 0
M  V30 3238 C 286.977 3.45719 -0.330983 0
M  V30 3239 C 285.931 4.07409 -1.31155 0
M  V30 3240 C 285.257 5.30762 -0.64778 0
M  V30 3241 C 286.557 4.48665 -2.67388 0
M  V30 3242 H 288.251 2.41845 -1.76498 0
M  V30 3243 H 285.797 1.16233 -0.850051 0
M  V30 3244 H 287.75 4.21241 -0.115645 0
M  V30 3245 H 286.474 3.2075 0.615381 0
M  V30 3246 H 285.133 3.33919 -1.51306 0
M  V30 3247 H 284.781 5.02078 0.304398 0
M  V30 3248 H 284.481 5.72992 -1.30207 0
M  V30 3249 H 286.005 6.08998 -0.441972 0
M  V30 3250 H 287.419 5.15364 -2.51143 0
M  V30 3251 H 285.816 5.01814 -3.29093 0
M  V30 3252 H 286.886 3.60543 -3.24248 0
M  V30 3253 N 288.23 0.939286 1.26551 0
M  V30 3254 C 289.14 0.453432 2.30176 0
M  V30 3255 C 290.156 -0.471649 1.67486 0
M  V30 3256 O 291.332 -0.35164 1.98306 0
M  V30 3257 C 288.397 -0.275326 3.45605 0
M  V30 3258 C 287.458 0.686084 4.23782 0
M  V30 3259 C 286.691 -0.00798994 5.33699 0
M  V30 3260 O 286.914 -1.22528 5.57085 0
M  V30 3261 O 285.848 0.669746 5.98162 0
M  V30 3262 H 289.674 1.31416 2.73795 0
M  V30 3263 H 287.259 0.705095 1.31715 0
M  V30 3264 H 289.141 -0.685911 4.1578 0
M  V30 3265 H 287.816 -1.11147 3.0402 0
M  V30 3266 H 286.723 1.14658 3.56096 0
M  V30 3267 H 288.056 1.48979 4.69112 0
M  V30 3268 N 289.708 -1.40897 0.706093 0
M  V30 3269 C 290.955 -2.01054 0.241531 0
M  V30 3270 C 291.283 -1.55956 -1.16223 0
M  V30 3271 O 290.538 -0.766336 -1.80072 0
M  V30 3272 C 290.837 -3.5646 0.259099 0
M  V30 3273 C 290.503 -4.21106 1.61184 0
M  V30 3274 C 289.165 -4.38479 1.98216 0
M  V30 3275 C 291.517 -4.57256 2.50132 0
M  V30 3276 C 288.845 -4.89282 3.2376 0
M  V30 3277 C 291.197 -5.09454 3.7502 0
M  V30 3278 C 289.861 -5.25037 4.12181 0
M  V30 3279 H 289.131 -0.73571 0.0883825 0
M  V30 3280 H 291.778 -1.68645 0.907257 0
M  V30 3281 H 290.083 -3.88721 -0.490189 0
M  V30 3282 H 291.78 -4.00826 -0.11804 0
M  V30 3283 H 288.37 -4.07966 1.31384 0
M  V30 3284 H 292.554 -4.43479 2.228 0
M  V30 3285 H 287.81 -4.99531 3.52532 0
M  V30 3286 H 291.984 -5.36404 4.44121 0
M  V30 3287 H 289.611 -5.64164 5.09532 0
M  V30 3288 N 291.186 -0.45159 -1.50991 0
M  V30 3289 C 292.416 0.108177 -2.06317 0
M  V30 3290 C 292.824 1.35774 -1.31765 0
M  V30 3291 O 292.167 1.79838 -0.374694 0
M  V30 3292 C 292.229 0.481659 -3.56259 0
M  V30 3293 C 291.893 -0.663114 -4.52163 0
M  V30 3294 C 292.89 -1.53947 -4.96585 0
M  V30 3295 C 290.575 -0.8479 -4.95092 0
M  V30 3296 C 292.569 -2.58518 -5.82621 0
M  V30 3297 C 290.256 -1.89686 -5.80915 0
M  V30 3298 C 291.254 -2.76388 -6.24579 0
M  V30 3299 O 290.942 -3.79482 -7.08695 0
M  V30 3300 H 290.674 0.00499183 -0.675982 0
M  V30 3301 H 293.228 -0.633659 -1.95381 0
M  V30 3302 H 291.458 1.27641 -3.65027 0
M  V30 3303 H 293.147 0.974233 -3.94035 0
M  V30 3304 H 293.913 -1.4083 -4.64103 0
M  V30 3305 H 289.792 -0.18258 -4.60638 0
M  V30 3306 H 293.336 -3.26224 -6.16623 0
M  V30 3307 H 289.233 -2.02817 -6.12809 0
M  V30 3308 H 290.001 -3.76234 -7.26905 0
M  V30 3309 N 292.664 1.56529 -0.183458 0
M  V30 3310 C 293.594 2.21549 0.737456 0
M  V30 3311 C 294.575 1.17489 1.23005 0
M  V30 3312 O 295.76 1.45959 1.281 0
M  V30 3313 C 292.89 2.86575 1.96194 0
M  V30 3314 C 291.844 3.96778 1.60473 0
M  V30 3315 C 291.17 4.48911 2.90487 0
M  V30 3316 C 292.47 5.15767 0.823497 0
M  V30 3317 H 294.164 2.98761 0.195453 0
M  V30 3318 H 291.71 1.43702 0.0925686 0
M  V30 3319 H 293.663 3.30739 2.61131 0
M  V30 3320 H 292.387 2.06749 2.52828 0
M  V30 3321 H 291.046 3.53286 0.978997 0
M  V30 3322 H 290.694 3.65862 3.45186 0
M  V30 3323 H 290.394 5.23265 2.67335 0
M  V30 3324 H 291.918 4.95771 3.56432 0
M  V30 3325 H 293.332 5.56549 1.37571 0
M  V30 3326 H 291.729 5.96114 0.690551 0
M  V30 3327 H 292.799 4.84574 -0.177782 0
M  V30 3328 N 294.142 -0.090211 1.57342 0
M  V30 3329 C 295.558 -0.444547 1.53284 0
M  V30 3330 C 295.758 -1.80238 0.900914 0
M  V30 3331 O 294.814 -2.4759 0.495513 0
M  V30 3332 C 296.127 -0.402543 2.97993 0
M  V30 3333 C 297.675 -0.48405 3.09234 0
M  V30 3334 C 298.15 -0.472144 4.5556 0
M  V30 3335 N 299.641 -0.532757 4.60126 0
M  V30 3336 C 300.376 -0.545462 5.708 0
M  V30 3337 N 299.872 -0.514082 6.9089 0
M  V30 3338 N 301.665 -0.59064 5.58988 0
M  V30 3339 H 293.816 0.799121 1.96794 0
M  V30 3340 H 296.079 0.297965 0.899956 0
M  V30 3341 H 295.785 0.528106 3.47712 0
M  V30 3342 H 295.659 -1.21969 3.56936 0
M  V30 3343 H 298.046 -1.40512 2.595 0
M  V30 3344 H 298.127 0.361328 2.53235 0
M  V30 3345 H 297.771 0.445 5.05947 0
M  V30 3346 H 297.701 -1.3348 5.09402 0
M  V30 3347 H 300.192 -0.562006 3.73698 0
M  V30 3348 H 300.505 -0.527195 7.71 0
M  V30 3349 H 298.85 -0.481054 6.93333 0
M  V30 3350 H 302.041 -0.61272 4.64073 0
M  V30 3351 H 302.214 -0.597073 6.45243 0
M  V30 3352 N 295.62 -1.53406 -0.361157 0
M  V30 3353 C 296.567 -1.80156 -1.44265 0
M  V30 3354 C 297.537 -0.646183 -1.53015 0
M  V30 3355 O 298.722 -0.888818 -1.68833 0
M  V30 3356 C 295.862 -2.00116 -2.81154 0
M  V30 3357 C 294.975 -3.27833 -2.81335 0
M  V30 3358 C 294.11 -3.37957 -4.09828 0
M  V30 3359 C 293.149 -4.59689 -4.04168 0
M  V30 3360 N 292.286 -4.66942 -5.24318 0
M  V30 3361 H 297.126 -2.72438 -1.20754 0
M  V30 3362 H 294.663 -1.34954 -0.585296 0
M  V30 3363 H 296.621 -2.09677 -3.60682 0
M  V30 3364 H 295.251 -1.11167 -3.03054 0
M  V30 3365 H 294.303 -3.27204 -1.94014 0
M  V30 3366 H 295.615 -4.17442 -2.73027 0
M  V30 3367 H 294.769 -3.46853 -4.97773 0
M  V30 3368 H 293.508 -2.46372 -4.20894 0
M  V30 3369 H 292.513 -4.50889 -3.14609 0
M  V30 3370 H 293.738 -5.5262 -3.947 0
M  V30 3371 H 291.684 -3.7826 -5.35962 0
M  V30 3372 H 291.601 -5.50462 -5.18197 0
M  V30 3373 H 292.869 -4.80127 -6.14084 0
M  V30 3374 N 297.098 0.621204 -1.44841 0
M  V30 3375 C 298.347 1.37658 -1.47422 0
M  V30 3376 C 298.66 1.95264 -0.114629 0
M  V30 3377 O 299.866 2.71494 -0.0180199 0
M  V30 3378 C 298.322 2.49285 -2.59586 0
M  V30 3379 C 297.93 1.98149 -4.01797 0
M  V30 3380 C 299.674 3.26409 -2.71399 0
M  V30 3381 C 297.581 3.07178 -5.05367 0
M  V30 3382 H 296.511 0.517344 -0.548517 0
M  V30 3383 H 299.162 0.667257 -1.70938 0
M  V30 3384 H 297.544 3.22839 -2.29328 0
M  V30 3385 H 298.718 1.31395 -4.41669 0
M  V30 3386 H 297.033 1.33812 -3.94314 0
M  V30 3387 H 299.63 4.07706 -3.45948 0
M  V30 3388 H 299.973 3.76535 -1.77559 0
M  V30 3389 H 300.506 2.5995 -3.01116 0
M  V30 3390 H 297.245 2.61985 -6.00869 0
M  V30 3391 H 296.765 3.72542 -4.70077 0
M  V30 3392 H 298.444 3.71789 -5.29511 0
M  V30 3393 N 298.576 1.31904 0.862503 0
M  V30 3394 C 299.523 1.20182 1.9704 0
M  V30 3395 C 300.493 0.0858247 1.65878 0
M  V30 3396 O 301.678 0.26 1.8902 0
M  V30 3397 C 298.818 0.922797 3.32533 0
M  V30 3398 C 297.931 2.12284 3.76244 0
M  V30 3399 C 297.066 1.77996 5.00491 0
M  V30 3400 C 296.105 2.94366 5.36671 0
M  V30 3401 N 295.242 2.60223 6.52095 0
M  V30 3402 H 300.082 2.14951 2.06398 0
M  V30 3403 H 297.619 1.06917 1.01031 0
M  V30 3404 H 299.577 0.741548 4.10557 0
M  V30 3405 H 298.207 0.0119227 3.22798 0
M  V30 3406 H 297.259 2.41461 2.9394 0
M  V30 3407 H 298.571 2.99357 3.98982 0
M  V30 3408 H 297.725 1.56377 5.862 0
M  V30 3409 H 296.464 0.881252 4.79672 0
M  V30 3410 H 295.469 3.16625 4.49476 0
M  V30 3411 H 296.694 3.84957 5.59451 0
M  V30 3412 H 294.64 1.72884 6.32809 0
M  V30 3413 H 294.557 3.40827 6.74814 0
M  V30 3414 H 295.825 2.42016 7.40978 0
M  V30 3415 N 300.054 -1.07777 1.14986 0
M  V30 3416 C 301.017 -2.13041 0.845358 0
M  V30 3417 C 302.017 -1.60071 -0.152931 0
M  V30 3418 O 303.207 -1.74033 0.0761879 0
M  V30 3419 C 300.339 -3.39896 0.261383 0
M  V30 3420 H 301.532 -2.41485 1.77834 0
M  V30 3421 H 299.085 -1.23595 0.956757 0
M  V30 3422 H 299.82 -3.17091 -0.68 0
M  V30 3423 H 299.605 -3.79642 0.980514 0
M  V30 3424 H 301.095 -4.17548 0.0657687 0
M  V30 3425 N 301.532 -0.945985 -1.26051 0
M  V30 3426 C 302.948 -0.649045 -1.45807 0
M  V30 3427 C 303.148 0.796158 -1.85104 0
M  V30 3428 O 302.204 1.57233 -1.97571 0
M  V30 3429 C 303.517 -1.61458 -2.53677 0
M  V30 3430 C 305.065 -1.62481 -2.67524 0
M  V30 3431 C 305.54 -2.57776 -3.7857 0
M  V30 3432 N 307.031 -2.5609 -3.85969 0
M  V30 3433 C 307.766 -3.26508 -4.7136 0
M  V30 3434 N 307.262 -4.0637 -5.61102 0
M  V30 3435 N 309.055 -3.15437 -4.65248 0
M  V30 3436 H 301.206 -1.88005 -0.988328 0
M  V30 3437 H 303.469 -0.808198 -0.4955 0
M  V30 3438 H 303.175 -2.64644 -2.31638 0
M  V30 3439 H 303.049 -1.37036 -3.51427 0
M  V30 3440 H 305.436 -0.600167 -2.88933 0
M  V30 3441 H 305.517 -1.90958 -1.70202 0
M  V30 3442 H 305.161 -3.60361 -3.57913 0
M  V30 3443 H 305.091 -2.26587 -4.75359 0
M  V30 3444 H 307.582 -1.98105 -3.21812 0
M  V30 3445 H 307.895 -4.57042 -6.23164 0
M  V30 3446 H 306.24 -4.10469 -5.60839 0
M  V30 3447 H 309.431 -2.52525 -3.94143 0
M  V30 3448 H 309.604 -3.70584 -5.31575 0
M  V30 3449 N 303.011 1.40521 -0.713556 0
M  V30 3450 C 303.958 2.30723 -0.059684 0
M  V30 3451 C 304.928 1.48079 0.752448 0
M  V30 3452 O 306.113 1.76823 0.71681 0
M  V30 3453 C 303.253 3.34274 0.857594 0
M  V30 3454 C 302.366 4.31986 0.0351536 0
M  V30 3455 C 301.501 5.22605 0.951724 0
M  V30 3456 C 300.54 6.11976 0.123253 0
M  V30 3457 N 299.677 6.9502 0.99459 0
M  V30 3458 H 304.517 2.86074 -0.834596 0
M  V30 3459 H 302.054 1.40879 -0.42326 0
M  V30 3460 H 304.012 3.92879 1.40364 0
M  V30 3461 H 302.642 2.8043 1.59871 0
M  V30 3462 H 301.694 3.7518 -0.628052 0
M  V30 3463 H 303.006 4.95101 -0.606347 0
M  V30 3464 H 302.16 5.86131 1.56638 0
M  V30 3465 H 300.899 4.59759 1.62705 0
M  V30 3466 H 299.904 5.47482 -0.50435 0
M  V30 3467 H 301.129 6.76881 -0.548539 0
M  V30 3468 H 299.075 6.34764 1.6556 0
M  V30 3469 H 298.992 7.54892 0.40908 0
M  V30 3470 H 300.26 7.62997 1.59549 0
M  V30 3471 N 304.489 0.459591 1.5075 0
M  V30 3472 C 305.737 -0.0991532 2.01857 0
M  V30 3473 C 306.058 -1.41247 1.34441 0
M  V30 3474 O 305.328 -1.89775 0.486022 0
M  V30 3475 H 303.908 -0.039633 0.745948 0
M  V30 3476 H 306.57 0.607387 1.85194 0
M  V30 3477 H 305.666 -0.258998 3.11023 0
M  V30 3478 N 305.967 -1.56429 0.191757 0
M  V30 3479 C 306.914 -2.18936 -0.730454 0
M  V30 3480 C 307.884 -1.13557 -1.21219 0
M  V30 3481 O 309.069 -1.41794 -1.27668 0
M  V30 3482 C 306.209 -2.85013 -1.9458 0
M  V30 3483 C 305.322 -4.04909 -1.50574 0
M  V30 3484 C 304.457 -4.58853 -2.67634 0
M  V30 3485 C 303.496 -5.71114 -2.20217 0
M  V30 3486 N 302.633 -6.19478 -3.30442 0
M  V30 3487 H 307.473 -2.97389 -0.190664 0
M  V30 3488 H 305.01 -1.46869 -0.0823694 0
M  V30 3489 H 306.968 -3.21492 -2.65893 0
M  V30 3490 H 305.598 -2.09129 -2.45896 0
M  V30 3491 H 304.65 -3.74115 -0.688605 0
M  V30 3492 H 305.962 -4.86113 -1.11784 0
M  V30 3493 H 305.116 -4.97619 -3.47074 0
M  V30 3494 H 303.855 -3.76749 -3.09696 0
M  V30 3495 H 302.86 -5.31879 -1.3923 0
M  V30 3496 H 304.085 -6.55033 -1.79189 0
M  V30 3497 H 302.031 -5.40297 -3.72041 0
M  V30 3498 H 301.948 -6.95725 -2.9581 0
M  V30 3499 H 303.216 -6.62898 -4.10106 0
M  V30 3500 O 307.484 -0.0545306 -1.61408 0
M  V30 3501 H 308.175 0.554314 -1.85599 0
M  V30 END ATOM
M  V30 BEGIN BOND
M  V30 END BOND
M  V30 END CTAB
M  END
$$$$
