drugbank_drug|DB00081 Mouse-Human chimeric Anti-CD20 Heavy Chain 1
 OpenBabel12092119113D

  0  0  0     0  0            999 V3000
M  V30 BEGIN CTAB
M  V30 COUNTS 6847 6945 0 0 0
M  V30 BEGIN ATOM
M  V30 1 H -0.908 1.98254 -0.117106 0
M  V30 2 N 0 1.576 0 0
M  V30 3 C 0.932 2.05273 1.01958 0
M  V30 4 C 1.945 0.970662 1.30698 0
M  V30 5 O 3.134 1.24746 1.27674 0
M  V30 6 C 0.234 2.43771 2.35433 0
M  V30 7 C -0.593 3.74711 2.25633 0
M  V30 8 C -1.534 4.00077 3.41796 0
M  V30 9 O -2.508 4.70743 3.19984 0
M  V30 10 N -1.306 3.47973 4.64645 0
M  V30 11 H 1.459 2.93363 0.613025 0
M  V30 12 H -0.98 1.60812 0.187383 0
M  V30 13 H 1.012 2.57855 3.11918 0
M  V30 14 H -0.418 1.612 2.67831 0
M  V30 15 H -1.198 3.70705 1.34059 0
M  V30 16 H 0.09 4.60554 2.16258 0
M  V30 17 H -0.512 2.90748 4.85265 0
M  V30 18 H -1.955 3.67386 5.38396 0
M  V30 19 N 1.4781 -0.272755 1.55222 0
M  V30 20 C 2.4411 -1.32041 1.87344 0
M  V30 21 C 3.4411 -1.42342 0.74803 0
M  V30 22 O 4.6311 -1.41488 1.0162 0
M  V30 23 C 1.7631 -2.70173 2.07893 0
M  V30 24 H 2.9561 -1.04789 2.80997 0
M  V30 25 H 0.5091 -0.51083 1.47717 0
M  V30 26 H 1.2441 -3.02605 1.16622 0
M  V30 27 H 1.0291 -2.64082 2.89833 0
M  V30 28 H 2.5191 -3.45869 2.34017 0
M  V30 29 N 2.9562 -1.48159 -0.537278 0
M  V30 30 C 4.1862 -1.59223 -1.3165 0
M  V30 31 C 4.5942 -0.248849 -1.87556 0
M  V30 32 O 3.9372 0.770949 -1.6674 0
M  V30 33 C 3.9992 -2.57365 -2.51005 0
M  V30 34 C 3.6632 -4.02603 -2.16239 0
M  V30 35 C 4.6602 -4.90503 -1.72344 0
M  V30 36 C 2.3452 -4.48088 -2.26986 0
M  V30 37 C 4.3392 -6.21913 -1.39651 0
M  V30 38 C 2.0262 -5.7952 -1.93906 0
M  V30 39 C 3.0242 -6.66255 -1.50309 0
M  V30 40 O 2.7122 -7.95243 -1.17659 0
M  V30 41 H 2.4442 -0.539831 -0.406889 0
M  V30 42 H 4.9982 -1.94655 -0.655641 0
M  V30 43 H 3.2282 -2.1704 -3.20048 0
M  V30 44 H 4.9172 -2.58342 -3.13072 0
M  V30 45 H 5.6832 -4.56604 -1.63517 0
M  V30 46 H 1.5622 -3.80769 -2.59877 0
M  V30 47 H 5.1062 -6.89569 -1.0555 0
M  V30 48 H 1.0032 -6.12957 -2.02371 0
M  V30 49 H 1.7712 -8.0793 -1.31119 0
M  V30 50 N 4.4343 0.785586 -1.36625 0
M  V30 51 C 5.3643 1.91259 -1.33949 0
M  V30 52 C 6.3453 1.68795 -0.210325 0
M  V30 53 O 7.5303 1.89854 -0.408561 0
M  V30 54 C 4.6603 3.28339 -1.13186 0
M  V30 55 C 3.6143 3.65335 -2.22967 0
M  V30 56 C 2.9403 5.00806 -1.87342 0
M  V30 57 C 4.2403 3.7352 -3.65075 0
M  V30 58 H 5.9343 1.93755 -2.28253 0
M  V30 59 H 3.4803 0.930788 -1.09874 0
M  V30 60 H 5.4333 4.06804 -1.09948 0
M  V30 61 H 4.1573 3.2624 -0.153332 0
M  V30 62 H 2.8163 2.89169 -2.25337 0
M  V30 63 H 2.4643 4.95233 -0.880545 0
M  V30 64 H 2.1643 5.26529 -2.60846 0
M  V30 65 H 3.6883 5.81687 -1.85667 0
M  V30 66 H 5.1023 4.42168 -3.64911 0
M  V30 67 H 3.4993 4.10731 -4.37516 0
M  V30 68 H 4.5693 2.74527 -3.99703 0
M  V30 69 N 5.9124 1.20967 1.01018 0
M  V30 70 C 6.8444 0.922059 2.09835 0
M  V30 71 C 7.8574 -0.0927106 1.62536 0
M  V30 72 O 9.0464 0.139127 1.77957 0
M  V30 73 C 6.1464 0.362004 3.36961 0
M  V30 74 C 5.3194 1.42986 4.13369 0
M  V30 75 C 4.3784 0.879976 5.1879 0
M  V30 76 O 3.4044 1.56219 5.47343 0
M  V30 77 N 4.6064 -0.307396 5.79686 0
M  V30 78 H 7.3714 1.8588 2.35093 0
M  V30 79 H 4.9324 1.11422 1.1746 0
M  V30 80 H 6.9244 -0.0201474 4.04695 0
M  V30 81 H 5.4944 -0.479437 3.08902 0
M  V30 82 H 4.7144 1.98608 3.40512 0
M  V30 83 H 6.0024 2.14885 4.61196 0
M  V30 84 H 5.4004 -0.878796 5.58832 0
M  V30 85 H 3.9574 -0.631115 6.48737 0
M  V30 86 N 7.3905 -1.2043 1.01659 0
M  V30 87 C 8.3225 -2.22626 0.544988 0
M  V30 88 C 9.3355 -1.58479 -0.372609 0
M  V30 89 O 10.5245 -1.77679 -0.170958 0
M  V30 90 C 7.6245 -3.38141 -0.22663 0
M  V30 91 C 6.7975 -4.31877 0.692876 0
M  V30 92 C 5.8565 -5.26191 -0.0311616 0
M  V30 93 O 4.8825 -5.6612 0.591343 0
M  V30 94 N 6.0845 -5.65618 -1.30601 0
M  V30 95 H 8.8495 -2.63716 1.42388 0
M  V30 96 H 6.4105 -1.34971 0.894116 0
M  V30 97 H 8.4025 -3.98239 -0.72024 0
M  V30 98 H 6.9725 -2.95943 -1.00681 0
M  V30 99 H 6.1925 -3.69746 1.36679 0
M  V30 100 H 7.4805 -4.91426 1.31824 0
M  V30 101 H 6.8785 -5.3519 -1.83269 0
M  V30 102 H 5.4355 -6.28025 -1.74435 0
M  V30 103 N 8.8686 -0.792821 -1.36206 0
M  V30 104 C 10.0936 -0.377701 -2.03932 0
M  V30 105 C 10.5186 0.998947 -1.59382 0
M  V30 106 O 9.8766 1.64421 -0.763903 0
M  V30 107 C 9.9246 -0.453635 -3.57735 0
M  V30 108 O 9.0286 0.538151 -4.08874 0
M  V30 109 H 8.3696 -0.159855 -0.644471 0
M  V30 110 H 10.8996 -1.07488 -1.7409 0
M  V30 111 H 10.9096 -0.318464 -4.06755 0
M  V30 112 H 9.5846 -1.45784 -3.89512 0
M  V30 113 H 8.1616 0.364359 -3.71116 0
M  V30 114 N 10.3467 1.47872 -0.545128 0
M  V30 115 C 11.5947 2.02093 -0.016553 0
M  V30 116 C 11.9157 1.42305 1.3332 0
M  V30 117 O 11.1857 0.593853 1.86682 0
M  V30 118 H 9.7657 0.746993 -0.00313038 0
M  V30 119 H 12.4277 1.81414 -0.712397 0
M  V30 120 H 11.5237 3.11996 0.0805422 0
M  V30 121 N 11.8248 0.280983 1.55075 0
M  V30 122 C 12.7878 -0.590896 2.21452 0
M  V30 123 C 13.7878 -1.07682 1.19421 0
M  V30 124 O 14.9778 -0.97605 1.44288 0
M  V30 125 C 12.1098 -1.81587 2.88511 0
M  V30 126 H 13.3028 -0.0112554 2.99898 0
M  V30 127 H 10.8558 0.0316438 1.56268 0
M  V30 128 H 11.5908 -2.43587 2.14093 0
M  V30 129 H 11.3758 -1.4753 3.63287 0
M  V30 130 H 12.8658 -2.43575 3.39206 0
M  V30 131 N 13.3029 -1.57598 0.00835791 0
M  V30 132 C 14.2129 -2.12385 -0.996487 0
M  V30 133 C 15.2289 -1.07108 -1.37127 0
M  V30 134 O 16.4049 -1.39055 -1.4569 0
M  V30 135 C 13.4699 -2.62314 -2.26699 0
M  V30 136 C 12.5309 -3.82225 -1.95456 0
M  V30 137 C 11.7639 -4.29763 -3.16449 0
M  V30 138 O 11.9869 -3.76584 -4.28416 0
M  V30 139 O 10.9209 -5.21832 -2.99958 0
M  V30 140 H 14.7469 -2.98479 -0.560725 0
M  V30 141 H 12.3319 -1.47903 -0.210987 0
M  V30 142 H 14.2139 -2.94589 -3.01322 0
M  V30 143 H 12.8889 -1.79313 -2.69497 0
M  V30 144 H 11.7959 -3.54909 -1.18282 0
M  V30 145 H 13.1289 -4.66324 -1.57489 0
M  V30 146 N 14.781 0.264519 -1.55364 0
M  V30 147 C 15.711 1.33121 -1.91836 0
M  V30 148 C 16.692 1.51101 -0.781192 0
M  V30 149 O 17.877 1.64003 -1.04003 0
M  V30 150 C 15.007 2.68921 -2.19769 0
M  V30 151 C 13.961 2.65661 -3.35571 0
M  V30 152 C 13.287 4.05093 -3.49004 0
M  V30 153 C 14.587 2.24187 -4.71739 0
M  V30 154 H 16.281 1.02844 -2.81182 0
M  V30 155 H 13.827 0.493286 -1.35287 0
M  V30 156 H 15.78 3.43663 -2.43872 0
M  V30 157 H 14.504 3.00799 -1.27231 0
M  V30 158 H 13.163 1.93377 -3.1145 0
M  V30 159 H 12.811 4.34206 -2.53917 0
M  V30 160 H 12.511 4.03804 -4.26868 0
M  V30 161 H 14.035 4.81561 -3.75408 0
M  V30 162 H 15.449 2.88654 -4.9533 0
M  V30 163 H 13.846 2.34044 -5.52579 0
M  V30 164 H 14.916 1.19327 -4.69988 0
M  V30 165 N 16.2591 1.48442 0.529413 0
M  V30 166 C 17.5051 1.5672 1.28711 0
M  V30 167 C 17.8381 0.2406 1.92704 0
M  V30 168 O 17.1131 -0.753454 1.79313 0
M  V30 169 C 17.3961 2.70587 2.37603 0
M  V30 170 C 17.2491 4.12953 1.78297 0
M  V30 171 C 18.5681 2.80212 3.39366 0
M  V30 172 H 15.6871 0.570474 0.466613 0
M  V30 173 H 18.3291 1.80617 0.589706 0
M  V30 174 H 16.4791 2.50342 2.97088 0
M  V30 175 H 18.1511 4.44639 1.22858 0
M  V30 176 H 16.3941 4.19927 1.0883 0
M  V30 177 H 17.0651 4.88448 2.57144 0
M  V30 178 H 19.5411 2.98553 2.89836 0
M  V30 179 H 18.4171 3.61611 4.12951 0
M  V30 180 H 18.6781 1.88393 3.99951 0
M  V30 181 N 17.7372 -0.778329 1.37039 0
M  V30 182 C 19.1532 -1.07796 1.17695 0
M  V30 183 C 19.3532 -2.01498 0.00860115 0
M  V30 184 O 18.4092 -2.43901 -0.653352 0
M  V30 185 C 19.7222 -1.68178 2.49272 0
M  V30 186 C 21.2702 -1.80467 2.55735 0
M  V30 187 C 21.7452 -2.44263 3.87427 0
M  V30 188 N 23.2362 -2.51721 3.88833 0
M  V30 189 C 23.9712 -3.01919 4.87476 0
M  V30 190 N 23.4672 -3.5234 5.96513 0
M  V30 191 N 25.2602 -3.00733 4.74885 0
M  V30 192 H 17.4112 -0.156032 2.11826 0
M  V30 193 H 19.6742 -0.131844 0.938787 0
M  V30 194 H 19.3802 -1.06796 3.35093 0
M  V30 195 H 19.2542 -2.67554 2.65885 0
M  V30 196 H 21.6412 -2.40984 1.70325 0
M  V30 197 H 21.7222 -0.798656 2.43013 0
M  V30 198 H 21.3662 -1.84388 4.73248 0
M  V30 199 H 21.2962 -3.45458 3.9745 0
M  V30 200 H 23.7872 -2.1603 3.10063 0
M  V30 201 H 24.1002 -3.89027 6.67741 0
M  V30 202 H 22.4452 -3.50462 6.00168 0
M  V30 203 H 25.6362 -2.60638 3.88826 0
M  V30 204 H 25.8092 -3.39545 5.51918 0
M  V30 205 N 19.2153 -1.21501 -1.00376 0
M  V30 206 C 20.6263 -1.03146 -1.55621 0
M  V30 207 C 20.9773 0.408375 -1.91903 0
M  V30 208 O 20.1023 1.29177 -1.73616 0
M  V30 209 C 20.6973 -1.86612 -2.82775 0
M  V30 210 C 19.2563 -1.72586 -3.34501 0
M  V30 211 C 18.4033 -1.83747 -2.07683 0
M  V30 212 H 21.3543 -1.35505 -0.826081 0
M  V30 213 H 21.3753 -1.3771 -3.54706 0
M  V30 214 H 20.8873 -2.91399 -2.56336 0
M  V30 215 H 18.9883 -0.704877 -3.65872 0
M  V30 216 H 19.1013 -2.54623 -4.05837 0
M  V30 217 H 17.4653 -1.27069 -2.20739 0
M  V30 218 H 18.2483 -2.90044 -1.83655 0
M  V30 219 N 20.6934 1.19889 -1.02296 0
M  V30 220 C 21.9414 1.89046 -0.714558 0
M  V30 221 C 22.2624 1.79636 0.758681 0
M  V30 222 O 21.5324 1.20292 1.54618 0
M  V30 223 H 20.1124 0.699802 -0.261317 0
M  V30 224 H 22.7744 1.45574 -1.29592 0
M  V30 225 H 21.8704 2.95524 -1.0036 0
M  V30 226 N 22.1715 0.800033 1.35784 0
M  V30 227 C 23.1345 0.211565 2.28221 0
M  V30 228 C 24.1345 -0.59728 1.49296 0
M  V30 229 O 25.3245 -0.416721 1.69142 0
M  V30 230 C 22.4565 -0.705846 3.33513 0
M  V30 231 H 23.6495 1.02677 2.81776 0
M  V30 232 H 21.2025 0.570211 1.45528 0
M  V30 233 H 21.9375 -1.54498 2.85133 0
M  V30 234 H 21.7225 -0.127655 3.91892 0
M  V30 235 H 23.2125 -1.11211 4.02519 0
M  V30 236 N 23.6496 -1.47581 0.552962 0
M  V30 237 C 24.8746 -2.07378 0.0300593 0
M  V30 238 C 25.2996 -1.40355 -1.25229 0
M  V30 239 O 24.6576 -0.477099 -1.7491 0
M  V30 240 C 24.7056 -3.60274 -0.153231 0
M  V30 241 O 23.8096 -3.94041 -1.21678 0
M  V30 242 H 23.1506 -0.662158 0.0494182 0
M  V30 243 H 25.6806 -1.89662 0.767434 0
M  V30 244 H 25.6906 -4.0633 -0.368761 0
M  V30 245 H 24.3656 -4.08455 0.783397 0
M  V30 246 H 22.9426 -3.59735 -0.982079 0
M  V30 247 N 25.1277 -0.289203 -1.54924 0
M  V30 248 C 26.3737 0.323998 -2.00195 0
M  V30 249 C 26.7067 1.54441 -1.17735 0
M  V30 250 O 25.9817 1.92875 -0.250878 0
M  V30 251 C 26.2647 0.692276 -3.53383 0
M  V30 252 C 26.1177 -0.536457 -4.46589 0
M  V30 253 C 27.4367 1.52335 -4.12895 0
M  V30 254 H 24.5557 0.116289 -0.727768 0
M  V30 255 H 27.1977 -0.398954 -1.85764 0
M  V30 256 H 25.3477 1.30822 -3.65811 0
M  V30 257 H 27.0197 -1.17499 -4.46085 0
M  V30 258 H 25.2627 -1.17192 -4.1767 0
M  V30 259 H 25.9337 -0.234806 -5.515 0
M  V30 260 H 28.4097 1.00302 -4.0383 0
M  V30 261 H 27.2857 1.74982 -5.20262 0
M  V30 262 H 27.5467 2.50886 -3.64018 0
M  V30 263 N 26.6058 1.57591 -0.0167156 0
M  V30 264 C 27.5528 2.09462 0.969251 0
M  V30 265 C 28.5228 0.99381 1.33089 0
M  V30 266 O 29.7078 1.26726 1.42636 0
M  V30 267 C 26.8478 2.61622 2.25051 0
M  V30 268 C 25.9608 3.85666 1.94642 0
M  V30 269 C 25.0958 4.26266 3.16972 0
M  V30 270 C 24.1348 5.43101 2.82326 0
M  V30 271 N 23.2718 5.78915 3.97243 0
M  V30 272 H 28.1118 2.93428 0.519997 0
M  V30 273 H 25.6488 1.45044 0.245087 0
M  V30 274 H 27.6068 2.89949 2.99976 0
M  V30 275 H 26.2368 1.80505 2.67615 0
M  V30 276 H 25.2888 3.64145 1.10013 0
M  V30 277 H 26.6008 4.70678 1.65117 0
M  V30 278 H 25.7548 4.55963 4.00228 0
M  V30 279 H 24.4938 3.39996 3.49648 0
M  V30 280 H 23.4988 5.1311 1.97479 0
M  V30 281 H 24.7238 6.3106 2.50879 0
M  V30 282 H 22.6698 4.95602 4.29785 0
M  V30 283 H 22.5868 6.58539 3.71299 0
M  V30 284 H 23.8548 6.13212 4.81239 0
M  V30 285 N 28.0839 -0.256276 1.55502 0
M  V30 286 C 29.0169 -1.34321 1.84481 0
M  V30 287 C 29.9949 -1.46802 0.699131 0
M  V30 288 O 31.1789 -1.63165 0.943904 0
M  V30 289 C 28.3059 -2.71779 2.02123 0
M  V30 290 C 27.3519 -2.76496 3.24734 0
M  V30 291 S 28.1849 -2.3405 4.81644 0
M  V30 292 C 29.3409 -3.73452 5.02279 0
M  V30 293 H 29.5739 -1.09539 2.76385 0
M  V30 294 H 27.1069 -0.45678 1.47489 0
M  V30 295 H 29.0649 -3.50932 2.12972 0
M  V30 296 H 27.7259 -2.93803 1.11078 0
M  V30 297 H 26.9189 -3.77424 3.34016 0
M  V30 298 H 26.5209 -2.05379 3.12563 0
M  V30 299 H 28.8129 -4.6887 4.89047 0
M  V30 300 H 29.7559 -3.6911 6.04287 0
M  V30 301 H 30.1639 -3.6553 4.30172 0
M  V30 302 N 29.562 -1.4872 -0.521534 0
M  V30 303 C 30.787 -1.61101 -1.30618 0
M  V30 304 C 31.212 -0.274611 -1.86085 0
M  V30 305 O 30.57 0.754937 -1.64834 0
M  V30 306 C 30.618 -2.66709 -2.4269 0
M  V30 307 O 29.722 -2.24456 -3.45967 0
M  V30 308 H 29.063 -0.539921 -0.386499 0
M  V30 309 H 31.593 -1.94767 -0.626645 0
M  V30 310 H 31.603 -2.88245 -2.88754 0
M  V30 311 H 30.278 -3.63727 -2.01682 0
M  V30 312 H 28.855 -2.13168 -3.05964 0
M  V30 313 N 31.0401 0.771051 -1.3745 0
M  V30 314 C 32.2801 1.54264 -1.34096 0
M  V30 315 C 32.6441 1.91858 0.0737639 0
M  V30 316 O 33.8451 2.67797 0.23203 0
M  V30 317 C 32.1161 2.77326 -2.25445 0
M  V30 318 S 33.6751 3.67383 -2.39948 0
M  V30 319 H 30.4931 0.528122 -0.476034 0
M  V30 320 H 33.0951 0.906633 -1.73206 0
M  V30 321 H 31.7991 2.47788 -3.27153 0
M  V30 322 H 31.3301 3.45886 -1.87421 0
M  V30 323 H 33.3451 4.69334 -1.61059 0
M  V30 324 N 32.5182 1.22032 0.997298 0
M  V30 325 C 33.4652 0.986467 2.08656 0
M  V30 326 C 34.4352 -0.0902671 1.65855 0
M  V30 327 O 35.6202 0.0584294 1.90711 0
M  V30 328 C 32.7602 0.565569 3.40434 0
M  V30 329 C 31.8732 1.71259 3.96604 0
M  V30 330 C 31.0082 1.24011 5.16522 0
M  V30 331 C 30.0472 2.35896 5.64818 0
M  V30 332 N 29.1842 1.89726 6.7598 0
M  V30 333 H 34.0242 1.91892 2.27994 0
M  V30 334 H 31.5612 0.956199 1.11782 0
M  V30 335 H 33.5192 0.302738 4.161 0
M  V30 336 H 32.1492 -0.329879 3.2111 0
M  V30 337 H 31.2012 2.08986 3.17851 0
M  V30 338 H 32.5132 2.55436 4.28432 0
M  V30 339 H 31.6672 0.934395 5.99461 0
M  V30 340 H 30.4062 0.368487 4.86306 0
M  V30 341 H 29.4112 2.67261 4.8047 0
M  V30 342 H 30.6362 3.23567 5.97061 0
M  V30 343 H 28.5822 1.0492 6.47555 0
M  V30 344 H 28.4992 2.67471 7.07103 0
M  V30 345 H 29.7672 1.62211 7.62435 0
M  V30 346 N 33.9963 -1.19345 1.0293 0
M  V30 347 C 34.9593 -2.20793 0.615069 0
M  V30 348 C 35.9593 -1.57553 -0.321533 0
M  V30 349 O 37.1493 -1.73862 -0.108483 0
M  V30 350 C 34.2813 -3.40754 -0.0999222 0
M  V30 351 H 35.4743 -2.58955 1.51269 0
M  V30 352 H 33.0273 -1.3303 0.820534 0
M  V30 353 H 33.7623 -3.0811 -1.01187 0
M  V30 354 H 33.5473 -3.87889 0.57309 0
M  V30 355 H 35.0373 -4.15898 -0.376645 0
M  V30 356 N 35.4744 -0.807222 -1.35358 0
M  V30 357 C 36.6994 -0.399309 -2.0352 0
M  V30 358 C 37.1244 0.981986 -1.60433 0
M  V30 359 O 36.4824 1.63601 -0.781299 0
M  V30 360 C 36.5304 -0.491552 -3.57234 0
M  V30 361 O 35.6344 0.494754 -4.09421 0
M  V30 362 H 34.9754 -0.166682 -0.642739 0
M  V30 363 H 37.5054 -1.09328 -1.72941 0
M  V30 364 H 37.5154 -0.361588 -4.06395 0
M  V30 365 H 36.1904 -1.49907 -3.87944 0
M  V30 366 H 34.7674 0.324977 -3.71481 0
M  V30 367 N 36.9525 1.47285 -0.560781 0
M  V30 368 C 38.2005 2.02064 -0.0379868 0
M  V30 369 C 38.5215 1.43711 1.31803 0
M  V30 370 O 37.7915 0.61362 1.86042 0
M  V30 371 H 36.3715 0.746918 -0.0110531 0
M  V30 372 H 39.0335 1.80648 -0.731598 0
M  V30 373 H 38.1295 3.12064 0.0474463 0
M  V30 374 N 38.4306 0.297415 1.54768 0
M  V30 375 C 39.6606 -0.315165 2.04182 0
M  V30 376 C 40.0686 -1.4834 1.17439 0
M  V30 377 O 39.4116 -1.82695 0.191891 0
M  V30 378 C 39.4736 -0.837583 3.49607 0
M  V30 379 C 39.1376 0.204912 4.5654 0
M  V30 380 C 40.1346 1.03214 5.09552 0
M  V30 381 C 37.8196 0.345578 5.0111 0
M  V30 382 C 39.8136 1.986 6.05671 0
M  V30 383 C 37.5006 1.30289 5.97049 0
M  V30 384 C 38.4986 2.12159 6.49213 0
M  V30 385 O 38.1866 3.06268 7.43273 0
M  V30 386 H 37.9186 -0.0729646 0.672051 0
M  V30 387 H 40.4726 0.433907 2.00765 0
M  V30 388 H 38.7026 -1.63712 3.50336 0
M  V30 389 H 40.3916 -1.36566 3.82236 0
M  V30 390 H 41.1576 0.934312 4.75916 0
M  V30 391 H 37.0366 -0.28171 4.60138 0
M  V30 392 H 40.5806 2.62542 6.46311 0
M  V30 393 H 36.4776 1.40145 6.30103 0
M  V30 394 H 37.2456 3.01205 7.61064 0
M  V30 395 N 39.9087 -1.5758 0.0250728 0
M  V30 396 C 41.1367 -1.9593 -0.664747 0
M  V30 397 C 41.5517 -0.901352 -1.65895 0
M  V30 398 O 40.9087 0.117255 -1.82123 0
M  V30 399 C 40.9597 -3.34342 -1.37468 0
M  V30 400 O 40.6807 -4.36079 -0.420324 0
M  V30 401 C 42.1817 -3.873 -2.1567 0
M  V30 402 H 39.4017 -0.645405 -0.183557 0
M  V30 403 H 41.9457 -2.04329 0.0836372 0
M  V30 404 H 40.1007 -3.27175 -2.0745 0
M  V30 405 H 40.5147 -5.16297 -0.923991 0
M  V30 406 H 41.9887 -4.86504 -2.60803 0
M  V30 407 H 42.4657 -3.21331 -2.99405 0
M  V30 408 H 43.0717 -3.97723 -1.50654 0
M  V30 409 N 41.3868 0.248026 -1.55636 0
M  V30 410 C 42.6338 0.976224 -1.77415 0
M  V30 411 C 42.9618 1.85361 -0.589193 0
M  V30 412 O 42.2168 1.90973 0.427529 0
M  V30 413 C 42.5158 1.86819 -3.04686 0
M  V30 414 C 42.1818 1.14625 -4.36087 0
M  V30 415 C 40.8438 0.946723 -4.71795 0
M  V30 416 C 43.1958 0.634463 -5.17324 0
M  V30 417 C 40.5238 0.223091 -5.86276 0
M  V30 418 C 42.8758 -0.0756959 -6.32555 0
M  V30 419 C 41.5398 -0.286711 -6.66884 0
M  V30 420 H 40.8098 0.357226 -0.649208 0
M  V30 421 H 43.4568 0.246415 -1.89908 0
M  V30 422 H 41.7618 2.66502 -2.872 0
M  V30 423 H 43.4588 2.43329 -3.18735 0
M  V30 424 H 40.0488 1.3117 -4.08035 0
M  V30 425 H 44.2328 0.77616 -4.90193 0
M  V30 426 H 39.4888 0.0491185 -6.1138 0
M  V30 427 H 43.6628 -0.479899 -6.94745 0
M  V30 428 H 41.2898 -0.849389 -7.5544 0
M  V30 429 N 42.8649 1.48995 0.513639 0
M  V30 430 C 44.0929 1.61531 1.29288 0
M  V30 431 C 44.5079 0.281801 1.86685 0
M  V30 432 O 43.8649 -0.731111 1.67215 0
M  V30 433 C 43.9159 2.67449 2.43215 0
M  V30 434 O 43.6369 3.95626 1.88179 0
M  V30 435 C 45.1379 2.90575 3.34785 0
M  V30 436 H 42.3579 0.544165 0.392588 0
M  V30 437 H 44.9019 1.9494 0.617956 0
M  V30 438 H 43.0569 2.36853 3.0656 0
M  V30 439 H 43.4709 4.53868 2.62876 0
M  V30 440 H 44.9449 3.68449 4.11035 0
M  V30 441 H 45.4219 2.00011 3.91015 0
M  V30 442 H 46.0279 3.22538 2.77218 0
M  V30 443 N 44.343 -0.763751 1.37857 0
M  V30 444 C 45.568 -1.55805 1.36893 0
M  V30 445 C 45.993 -1.88054 -0.0416135 0
M  V30 446 O 45.351 -1.49825 -1.02089 0
M  V30 447 C 45.399 -2.84012 2.22192 0
M  V30 448 O 44.503 -3.78732 1.63204 0
M  V30 449 H 43.844 -0.471638 0.46739 0
M  V30 450 H 46.374 -0.944657 1.81487 0
M  V30 451 H 46.384 -3.33037 2.35691 0
M  V30 452 H 45.059 -2.59869 3.24716 0
M  V30 453 H 43.636 -3.37402 1.58791 0
M  V30 454 N 45.8211 -1.22559 -0.990812 0
M  V30 455 C 47.0511 -1.07623 -1.76355 0
M  V30 456 C 47.4591 0.37601 -1.85426 0
M  V30 457 O 46.8021 1.27228 -1.32509 0
M  V30 458 C 46.8641 -1.61507 -3.21179 0
M  V30 459 C 46.5281 -3.10146 -3.35646 0
M  V30 460 C 47.5251 -4.07553 -3.22796 0
M  V30 461 C 45.2101 -3.49644 -3.60631 0
M  V30 462 C 47.2041 -5.42442 -3.34716 0
M  V30 463 C 44.8911 -4.84682 -3.72192 0
M  V30 464 C 45.8891 -5.8089 -3.59243 0
M  V30 465 O 45.5771 -7.13476 -3.70415 0
M  V30 466 H 45.3091 -0.377745 -0.560611 0
M  V30 467 H 47.8631 -1.62658 -1.25425 0
M  V30 468 H 46.0931 -1.00881 -3.73309 0
M  V30 469 H 47.7821 -1.42202 -3.80175 0
M  V30 470 H 48.5481 -3.78381 -3.03403 0
M  V30 471 H 44.4271 -2.75282 -3.69785 0
M  V30 472 H 47.9711 -6.17518 -3.24526 0
M  V30 473 H 43.8681 -5.13534 -3.91092 0
M  V30 474 H 44.6361 -7.21083 -3.87275 0
M  V30 475 N 47.2992 1.18797 -1.03562 0
M  V30 476 C 48.2472 2.24297 -0.615905 0
M  V30 477 C 49.2412 1.65643 0.354808 0
M  V30 478 O 50.4472 1.78618 0.22265 0
M  V30 479 H 46.8222 0.729909 -0.180934 0
M  V30 480 H 48.7932 2.5701 -1.5162 0
M  V30 481 C 47.5422 3.47698 0.0104735 0
M  V30 482 H 46.8652 3.93125 -0.727509 0
M  V30 483 H 48.3052 4.23159 0.266995 0
M  V30 484 C 46.7642 3.12489 1.25905 0
M  V30 485 O 47.2942 3.25761 2.35038 0
M  V30 486 N 45.5002 2.6686 1.15039 0
M  V30 487 H 45.0472 2.56261 0.262328 0
M  V30 488 H 45.0052 2.43674 1.98672 0
M  V30 489 N 48.7773 0.814389 1.34928 0
M  V30 490 C 49.7103 0.175641 2.27523 0
M  V30 491 C 50.6883 -0.662953 1.48471 0
M  V30 492 O 51.8723 -0.628545 1.77712 0
M  V30 493 C 48.9993 -0.755516 3.30166 0
M  V30 494 C 48.0453 0.00445305 4.265 0
M  V30 495 S 48.8783 1.34582 5.18313 0
M  V30 496 C 50.0343 0.419315 6.24494 0
M  V30 497 H 50.2673 0.960691 2.8135 0
M  V30 498 H 47.8003 0.609846 1.41846 0
M  V30 499 H 49.7583 -1.28723 3.89796 0
M  V30 500 H 48.4193 -1.51402 2.75202 0
M  V30 501 H 47.6123 -0.703077 4.99072 0
M  V30 502 H 47.2143 0.466447 3.7108 0
M  V30 503 H 49.5063 -0.392432 6.76362 0
M  V30 504 H 50.4493 1.11446 6.99275 0
M  V30 505 H 50.8573 0.0115389 5.64499 0
M  V30 506 N 50.2554 -1.46986 0.568584 0
M  V30 507 C 51.2054 -2.27179 -0.193339 0
M  V30 508 C 52.1894 -1.35035 -0.874895 0
M  V30 509 O 53.3814 -1.5931 -0.771322 0
M  V30 510 C 50.5104 -3.21063 -1.21546 0
M  V30 511 C 49.5964 -4.2069 -0.536738 0
M  V30 512 N 49.9874 -5.04218 0.399673 0
M  V30 513 C 48.2854 -4.38961 -0.789254 0
M  V30 514 C 48.9864 -5.76242 0.795017 0
M  V30 515 N 47.9624 -5.434 0.1473 0
M  V30 516 H 51.7644 -2.89146 0.526458 0
M  V30 517 H 49.2784 -1.57664 0.389342 0
M  V30 518 H 51.2754 -3.77209 -1.77536 0
M  V30 519 H 49.9354 -2.60654 -1.93623 0
M  V30 520 H 50.9464 -5.12077 0.774454 0
M  V30 521 H 47.6234 -3.89713 -1.49767 0
M  V30 522 H 49.0134 -6.53417 1.56513 0
M  V30 523 N 51.7335 -0.305618 -1.54608 0
M  V30 524 C 52.9795 0.295595 -2.01241 0
M  V30 525 C 53.3345 1.51171 -1.19018 0
M  V30 526 O 52.6275 1.89832 -0.259684 0
M  V30 527 C 52.8215 0.698983 -3.50498 0
M  V30 528 C 52.6505 -0.476491 -4.47168 0
M  V30 529 C 51.4205 -0.969963 -4.95903 0
M  V30 530 C 53.6185 -1.32294 -4.96994 0
M  V30 531 N 51.6005 -2.11172 -5.76437 0
M  V30 532 C 52.9715 -2.31212 -5.75275 0
M  V30 533 C 55.0265 -1.35278 -4.7917 0
M  V30 534 C 53.7295 -3.32896 -6.37631 0
M  V30 535 C 55.7555 -2.35823 -5.42348 0
M  V30 536 C 55.1175 -3.33469 -6.20466 0
M  V30 537 H 51.2165 0.0724992 -0.778632 0
M  V30 538 H 53.8005 -0.436583 -1.89742 0
M  V30 539 H 51.9715 1.40032 -3.62278 0
M  V30 540 H 53.7035 1.28013 -3.8392 0
M  V30 541 H 50.4585 -0.544178 -4.70463 0
M  V30 542 H 50.8825 -2.68714 -6.21387 0
M  V30 543 H 55.5245 -0.61157 -4.18354 0
M  V30 544 H 53.2425 -4.07933 -6.97579 0
M  V30 545 H 56.8285 -2.38911 -5.30484 0
M  V30 546 H 55.7085 -4.09996 -6.68485 0
M  V30 547 N 53.2116 1.57565 -0.0334293 0
M  V30 548 C 54.4576 1.92262 0.645226 0
M  V30 549 C 54.7906 0.910543 1.71531 0
M  V30 550 O 54.0656 -0.066099 1.94388 0
M  V30 551 C 54.3486 3.37422 1.2577 0
M  V30 552 C 54.2016 4.49369 0.196891 0
M  V30 553 C 55.5206 3.82628 2.17449 0
M  V30 554 H 52.6396 0.699171 0.233085 0
M  V30 555 H 55.2816 1.89779 -0.0915694 0
M  V30 556 H 53.4316 3.39669 1.88566 0
M  V30 557 H 55.1036 4.59254 -0.433962 0
M  V30 558 H 53.3466 4.31168 -0.477137 0
M  V30 559 H 54.0176 5.47978 0.665124 0
M  V30 560 H 56.4936 3.82145 1.64634 0
M  V30 561 H 55.3696 4.84883 2.57254 0
M  V30 562 H 55.6306 3.18376 3.0674 0
M  V30 563 N 54.6897 -0.239769 1.55765 0
M  V30 564 C 55.6367 -1.29696 1.90913 0
M  V30 565 C 56.6067 -1.47478 0.764164 0
M  V30 566 O 57.7917 -1.61345 1.01845 0
M  V30 567 C 54.9317 -2.64598 2.21544 0
M  V30 568 C 54.0447 -2.54765 3.48882 0
M  V30 569 C 53.1797 -3.82069 3.69049 0
M  V30 570 C 52.2187 -3.66883 4.89963 0
M  V30 571 N 51.3557 -4.86094 5.06614 0
M  V30 572 H 56.1957 -0.990224 2.81067 0
M  V30 573 H 53.7327 -0.477684 1.39128 0
M  V30 574 H 55.6907 -3.43132 2.3731 0
M  V30 575 H 54.3207 -2.93405 1.34585 0
M  V30 576 H 53.3727 -1.67763 3.41409 0
M  V30 577 H 54.6847 -2.39457 4.37563 0
M  V30 578 H 53.8387 -4.69046 3.84812 0
M  V30 579 H 52.5777 -4.00282 2.78614 0
M  V30 580 H 51.5827 -2.78289 4.74168 0
M  V30 581 H 52.8077 -3.50157 5.81865 0
M  V30 582 H 50.7537 -5.04655 4.19117 0
M  V30 583 H 50.6707 -4.73443 5.89396 0
M  V30 584 H 51.9387 -5.74549 5.26795 0
M  V30 585 N 56.1678 -1.49265 -0.50573 0
M  V30 586 C 57.0998 -1.617 -1.62437 0
M  V30 587 C 58.1128 -0.499924 -1.54934 0
M  V30 588 O 59.3018 -0.771785 -1.60953 0
M  V30 589 C 56.4018 -1.5533 -3.01207 0
M  V30 590 C 55.5748 -2.8249 -3.33943 0
M  V30 591 C 54.6338 -2.69238 -4.52103 0
M  V30 592 O 53.6598 -3.43167 -4.5412 0
M  V30 593 N 54.8618 -1.80468 -5.51735 0
M  V30 594 H 57.6268 -2.58177 -1.52199 0
M  V30 595 H 55.1878 -1.46294 -0.693511 0
M  V30 596 H 57.1798 -1.44125 -3.78167 0
M  V30 597 H 55.7498 -0.667297 -3.05395 0
M  V30 598 H 54.9698 -3.08081 -2.45926 0
M  V30 599 H 56.2578 -3.66802 -3.5261 0
M  V30 600 H 55.6558 -1.19653 -5.52901 0
M  V30 601 H 54.2128 -1.75188 -6.27816 0
M  V30 602 N 57.6459 0.756429 -1.3826 0
M  V30 603 C 58.8739 1.54565 -1.3754 0
M  V30 604 C 59.2889 1.88767 0.0355331 0
M  V30 605 O 58.6459 1.52572 1.0014 0
M  V30 606 C 58.6969 2.84654 -2.22833 0
M  V30 607 O 58.4179 2.51912 -3.5843 0
M  V30 608 C 59.9189 3.78807 -2.30261 0
M  V30 609 H 57.1389 0.478353 -0.470553 0
M  V30 610 H 59.6829 0.936381 -1.81803 0
M  V30 611 H 57.8379 3.41965 -1.8204 0
M  V30 612 H 58.2519 3.35325 -4.03308 0
M  V30 613 H 59.7259 4.67045 -2.94233 0
M  V30 614 H 60.2029 4.19038 -1.31545 0
M  V30 615 H 60.8089 3.2742 -2.71433 0
M  V30 616 N 59.124 1.23083 0.984299 0
M  V30 617 C 60.535 1.05609 1.5396 0
M  V30 618 C 60.886 -0.377793 1.92528 0
M  V30 619 O 60.011 -1.26398 1.75649 0
M  V30 620 C 60.606 1.91087 2.7977 0
M  V30 621 C 59.165 1.77885 3.31713 0
M  V30 622 C 58.312 1.87028 2.04733 0
M  V30 623 H 61.263 1.36802 0.804419 0
M  V30 624 H 61.284 1.43336 3.5247 0
M  V30 625 H 60.796 2.9544 2.51668 0
M  V30 626 H 58.897 0.762995 3.64704 0
M  V30 627 H 59.01 2.61047 4.01735 0
M  V30 628 H 57.374 1.30565 2.18689 0
M  V30 629 H 58.157 2.92929 1.79017 0
M  V30 630 N 60.6021 -1.18246 1.0419 0
M  V30 631 C 62.0181 -1.40269 0.761366 0
M  V30 632 C 62.2181 -1.90777 -0.648578 0
M  V30 633 O 61.2741 -2.0929 -1.41258 0
M  V30 634 C 62.5871 -2.40237 1.8085 0
M  V30 635 C 64.1351 -2.53961 1.82955 0
M  V30 636 C 64.6101 -3.57194 2.86664 0
M  V30 637 N 66.1011 -3.64702 2.85563 0
M  V30 638 C 66.8361 -4.44309 3.6246 0
M  V30 639 N 66.3321 -5.27514 4.49111 0
M  V30 640 N 68.1251 -4.39084 3.50944 0
M  V30 641 H 60.2761 -0.837882 1.95175 0
M  V30 642 H 62.5391 -0.430608 0.84456 0
M  V30 643 H 62.2451 -2.10176 2.81991 0
M  V30 644 H 62.1191 -3.39601 1.64168 0
M  V30 645 H 64.5061 -2.83338 0.824855 0
M  V30 646 H 64.5871 -1.54706 2.03715 0
M  V30 647 H 64.2311 -3.28558 3.87314 0
M  V30 648 H 64.1611 -4.5613 2.6316 0
M  V30 649 H 66.6521 -3.05289 2.22727 0
M  V30 650 H 66.9651 -5.85411 5.04493 0
M  V30 651 H 65.3101 -5.2693 4.53178 0
M  V30 652 H 68.5011 -3.7313 2.82651 0
M  V30 653 H 68.6741 -5.00883 4.11121 0
M  V30 654 N 62.0802 -0.821533 -1.34494 0
M  V30 655 C 63.0122 -0.199946 -2.28326 0
M  V30 656 C 64.0252 0.609377 -1.50965 0
M  V30 657 O 65.2142 0.439285 -1.7301 0
M  V30 658 C 62.3142 0.738431 -3.30757 0
M  V30 659 C 61.4872 -0.0277632 -4.37391 0
M  V30 660 C 60.5462 0.831332 -5.19591 0
M  V30 661 O 59.5722 0.276822 -5.68526 0
M  V30 662 N 60.7742 2.15132 -5.39165 0
M  V30 663 H 63.5392 -1.00609 -2.82308 0
M  V30 664 H 61.1002 -0.678366 -1.47003 0
M  V30 665 H 63.0922 1.31773 -3.82646 0
M  V30 666 H 61.6622 1.44533 -2.7718 0
M  V30 667 H 60.8822 -0.788359 -3.86236 0
M  V30 668 H 62.1702 -0.555251 -5.05761 0
M  V30 669 H 61.5682 2.62559 -5.01078 0
M  V30 670 H 60.1252 2.6795 -5.94177 0
M  V30 671 N 63.5583 1.46682 -0.576371 0
M  V30 672 C 64.8063 2.02013 -0.0594163 0
M  V30 673 C 65.1273 1.45101 1.30271 0
M  V30 674 O 64.3973 0.633317 1.8538 0
M  V30 675 H 62.9773 0.746759 -0.0189745 0
M  V30 676 H 65.6393 1.79862 -0.750717 0
M  V30 677 H 64.7353 3.12097 0.014345 0
M  V30 678 N 65.0364 0.313813 1.54444 0
M  V30 679 C 65.9664 -0.549454 2.26943 0
M  V30 680 C 66.9474 -1.12741 1.27372 0
M  V30 681 O 68.1324 -1.15436 1.56167 0
M  V30 682 C 65.2624 -1.71523 3.01989 0
M  V30 683 C 64.2164 -1.26703 4.08816 0
M  V30 684 C 63.5424 -2.51898 4.71647 0
M  V30 685 C 64.8424 -0.388962 5.2085 0
M  V30 686 H 66.5364 0.0552661 2.99349 0
M  V30 687 H 64.0824 0.0280207 1.43973 0
M  V30 688 H 66.0354 -2.32535 3.51433 0
M  V30 689 H 64.7594 -2.34639 2.27183 0
M  V30 690 H 63.4184 -0.679896 3.6024 0
M  V30 691 H 63.0664 -3.13356 3.93468 0
M  V30 692 H 62.7664 -2.22605 5.43802 0
M  V30 693 H 64.2904 -3.1369 5.23861 0
M  V30 694 H 65.7044 -0.905107 5.6611 0
M  V30 695 H 64.1014 -0.18924 5.99802 0
M  V30 696 H 65.1714 0.582699 4.81386 0
M  V30 697 N 66.5145 -1.57545 0.0417849 0
M  V30 698 C 67.4245 -2.14451 -0.951213 0
M  V30 699 C 68.4405 -1.09992 -1.34825 0
M  V30 700 O 69.6165 -1.42114 -1.42708 0
M  V30 701 C 66.6815 -2.67063 -2.21084 0
M  V30 702 C 65.7425 -3.86284 -1.87304 0
M  V30 703 C 64.9755 -4.36378 -3.07261 0
M  V30 704 O 65.1985 -3.85587 -4.20332 0
M  V30 705 O 64.1325 -5.28077 -2.88822 0
M  V30 706 H 67.9585 -2.99601 -0.497287 0
M  V30 707 H 65.5435 -1.48317 -0.179567 0
M  V30 708 H 67.4255 -3.00914 -2.95006 0
M  V30 709 H 66.1005 -1.84989 -2.65633 0
M  V30 710 H 65.0075 -3.57338 -1.10727 0
M  V30 711 H 66.3405 -4.6956 -1.47562 0
M  V30 712 N 67.9926 0.231505 -1.5589 0
M  V30 713 C 69.2386 0.954429 -1.79617 0
M  V30 714 C 69.5936 1.82367 -0.613199 0
M  V30 715 O 68.8866 1.87524 0.393094 0
M  V30 716 C 69.0806 1.83577 -3.0665 0
M  V30 717 C 68.9096 1.05334 -4.3719 0
M  V30 718 C 67.6796 0.75225 -4.99669 0
M  V30 719 C 69.8776 0.423444 -5.12554 0
M  V30 720 N 67.8596 -0.052627 -6.13877 0
M  V30 721 C 69.2306 -0.245287 -6.19515 0
M  V30 722 C 71.2856 0.335466 -4.96769 0
M  V30 723 C 69.9886 -0.993566 -7.12405 0
M  V30 724 C 72.0146 -0.399321 -5.9005 0
M  V30 725 C 71.3766 -1.05663 -6.9643 0
M  V30 726 H 67.4756 0.329846 -0.709031 0
M  V30 727 H 70.0596 0.226172 -1.93382 0
M  V30 728 H 68.2306 2.53592 -2.94186 0
M  V30 729 H 69.9626 2.49541 -3.18608 0
M  V30 730 H 66.7176 1.06783 -4.61405 0
M  V30 731 H 67.1416 -0.443609 -6.75545 0
M  V30 732 H 71.7836 0.829311 -4.14587 0
M  V30 733 H 69.5016 -1.49896 -7.94076 0
M  V30 734 H 73.0876 -0.468265 -5.79913 0
M  V30 735 H 71.9676 -1.61612 -7.67366 0
M  V30 736 N 69.4707 1.49531 0.497807 0
M  V30 737 C 70.7197 1.58426 1.24837 0
M  V30 738 C 71.0327 0.277643 1.93619 0
M  V30 739 O 72.2387 0.24517 2.70391 0
M  V30 740 C 70.6947 2.79538 2.26686 0
M  V30 741 C 70.3027 4.16971 1.63828 0
M  V30 742 C 72.0467 2.97764 3.0255 0
M  V30 743 C 69.9537 5.29301 2.63807 0
M  V30 744 H 68.8837 0.58989 0.469623 0
M  V30 745 H 71.5347 1.75923 0.521857 0
M  V30 746 H 69.9167 2.55542 3.02514 0
M  V30 747 H 71.0907 4.51116 0.939711 0
M  V30 748 H 69.4057 4.04129 1.00342 0
M  V30 749 H 72.0027 3.78856 3.77323 0
M  V30 750 H 72.3457 2.08448 3.60354 0
M  V30 751 H 72.8787 3.21815 2.33838 0
M  V30 752 H 69.6177 6.20687 2.10779 0
M  V30 753 H 69.1377 4.99606 3.31894 0
M  V30 754 H 70.8167 5.58768 3.2617 0
M  V30 755 N 70.9488 -0.749086 1.3866 0
M  V30 756 C 72.1968 -1.50535 1.34847 0
M  V30 757 C 72.5178 -1.94909 -0.0595016 0
M  V30 758 O 71.7878 -1.67973 -1.00806 0
M  V30 759 H 70.3678 -0.558395 0.49619 0
M  V30 760 H 73.0298 -0.890165 1.73384 0
M  V30 761 H 72.1258 -2.39413 2.00219 0
M  V30 762 N 72.4269 -1.23603 -0.977757 0
M  V30 763 C 73.3899 -1.02069 -2.05218 0
M  V30 764 C 74.3899 0.0184305 -1.60789 0
M  V30 765 O 75.5799 -0.221569 -1.72785 0
M  V30 766 C 72.7119 -0.544926 -3.36517 0
M  V30 767 H 73.9049 -1.9742 -2.25755 0
M  V30 768 H 71.4579 -1.05684 -1.15155 0
M  V30 769 H 72.1929 0.412241 -3.21669 0
M  V30 770 H 71.9779 -1.2948 -3.70105 0
M  V30 771 H 73.4679 -0.414985 -4.15533 0
M  V30 772 N 73.905 1.17692 -1.04816 0
M  V30 773 C 75.154 1.87192 -0.751132 0
M  V30 774 C 75.467 1.8169 0.724441 0
M  V30 775 O 76.673 2.46625 1.13527 0
M  V30 776 C 75.129 3.35857 -1.29338 0
M  V30 777 C 74.737 3.4987 -2.79812 0
M  V30 778 C 76.481 4.10709 -1.07322 0
M  V30 779 C 74.388 4.92536 -3.27356 0
M  V30 780 H 73.318 0.701162 -0.277288 0
M  V30 781 H 75.969 1.32932 -1.26496 0
M  V30 782 H 74.351 3.89631 -0.707376 0
M  V30 783 H 75.525 3.06332 -3.44235 0
M  V30 784 H 73.84 2.88433 -3.00325 0
M  V30 785 H 76.437 5.15952 -1.4035 0
M  V30 786 H 76.78 4.16299 -0.0108001 0
M  V30 787 H 77.313 3.6313 -1.62423 0
M  V30 788 H 74.052 4.92119 -4.33012 0
M  V30 789 H 73.572 5.3676 -2.67673 0
M  V30 790 H 75.251 5.61288 -3.21815 0
M  V30 791 N 75.3831 0.828654 1.34056 0
M  V30 792 C 76.6131 0.431993 2.02033 0
M  V30 793 C 77.0211 -0.96844 1.62536 0
M  V30 794 O 76.3641 -1.6391 0.829408 0
M  V30 795 C 76.4261 0.461224 3.56529 0
M  V30 796 C 76.0901 1.81599 4.1937 0
M  V30 797 C 77.0871 2.7777 4.39477 0
M  V30 798 C 74.7721 2.10604 4.56017 0
M  V30 799 C 76.7661 4.01115 4.95364 0
M  V30 800 C 74.4531 3.34207 5.11614 0
M  V30 801 C 75.4511 4.2928 5.31232 0
M  V30 802 O 75.1391 5.50699 5.8565 0
M  V30 803 H 74.8711 0.170943 0.654029 0
M  V30 804 H 77.4251 1.11988 1.72185 0
M  V30 805 H 75.6551 -0.283388 3.8566 0
M  V30 806 H 77.3441 0.0838149 4.05813 0
M  V30 807 H 78.1101 2.56659 4.11523 0
M  V30 808 H 73.9891 1.37402 4.40047 0
M  V30 809 H 77.5331 4.75333 5.10592 0
M  V30 810 H 73.4301 3.55179 5.38997 0
M  V30 811 H 74.1981 5.52298 6.04077 0
M  V30 812 N 76.8612 -1.46375 0.584142 0
M  V30 813 C 78.2722 -1.86031 0.157959 0
M  V30 814 C 78.6232 -1.48753 -1.27933 0
M  V30 815 O 77.7482 -0.903098 -1.96655 0
M  V30 816 C 78.3432 -3.37642 0.279892 0
M  V30 817 C 76.9022 -3.76289 -0.09143 0
M  V30 818 C 76.0492 -2.7039 0.615178 0
M  V30 819 H 79.0002 -1.37509 0.792274 0
M  V30 820 H 79.0212 -3.77275 -0.494364 0
M  V30 821 H 78.5332 -3.64742 1.32607 0
M  V30 822 H 76.6342 -3.54806 -1.13769 0
M  V30 823 H 76.7472 -4.78246 0.285886 0
M  V30 824 H 75.1112 -2.5464 0.0552833 0
M  V30 825 H 75.8942 -3.0033 1.66303 0
M  V30 826 N 78.3393 -0.321999 -1.54275 0
M  V30 827 C 79.5873 0.280489 -2.00144 0
M  V30 828 C 79.9083 1.52777 -1.21178 0
M  V30 829 O 79.1783 1.9338 -0.313187 0
M  V30 830 H 77.7583 0.106632 -0.73935 0
M  V30 831 H 80.4203 -0.438184 -1.8991 0
M  V30 832 H 79.5163 0.537972 -3.07428 0
M  V30 833 N 79.8174 1.5752 -0.0501392 0
M  V30 834 C 80.7654 2.12651 0.942459 0
M  V30 835 C 81.7594 1.05807 1.32292 0
M  V30 836 O 82.9654 1.24217 1.3027 0
M  V30 837 H 79.3404 0.679673 0.321789 0
M  V30 838 H 81.3114 2.94951 0.452356 0
M  V30 839 C 80.0604 2.68565 2.20836 0
M  V30 840 H 79.3834 3.50439 1.92439 0
M  V30 841 H 80.8234 3.10761 2.8845 0
M  V30 842 C 79.2824 1.62291 2.95234 0
M  V30 843 O 79.8124 1.03508 3.88135 0
M  V30 844 N 78.0184 1.33836 2.57946 0
M  V30 845 H 77.5654 1.81826 1.82475 0
M  V30 846 H 77.5234 0.629595 3.08032 0
M  V30 847 N 81.2955 -0.223234 1.56011 0
M  V30 848 C 82.5435 -0.946003 1.78592 0
M  V30 849 C 82.8645 -1.84936 0.618349 0
M  V30 850 O 82.1345 -1.92473 -0.364833 0
M  V30 851 H 80.7145 -0.352298 0.658707 0
M  V30 852 H 83.3765 -0.235494 1.93472 0
M  V30 853 H 82.4725 -1.55381 2.70672 0
M  V30 854 N 82.7736 -1.49793 -0.48987 0
M  V30 855 C 84.0506 -1.50348 -1.25119 0
M  V30 856 C 84.4306 -0.237466 -2.0976 0
M  V30 857 O 83.7786 0.77981 -2.14782 0
M  V30 858 C 83.9886 -2.78872 -2.09837 0
M  V30 859 C 85.3366 -3.288 -2.68655 0
M  V30 860 O 86.3606 -2.80065 -2.20096 0
M  V30 861 O 85.2196 -4.13707 -3.57083 0
M  V30 862 H 82.3136 -0.602242 -0.566775 0
M  V30 863 H 84.8596 -1.62067 -0.503229 0
M  V30 864 H 83.6316 -3.62499 -1.47343 0
M  V30 865 H 83.2546 -2.70066 -2.91805 0
M  V30 866 N 84.2517 0.741722 -1.39055 0
M  V30 867 C 85.4797 1.53098 -1.39171 0
M  V30 868 C 85.8947 1.88794 0.0155099 0
M  V30 869 O 85.2517 1.53626 0.985159 0
M  V30 870 C 85.3027 2.82274 -2.2584 0
M  V30 871 O 85.0237 2.48097 -3.61081 0
M  V30 872 C 86.5247 3.76343 -2.34266 0
M  V30 873 H 83.7447 0.473335 -0.4756 0
M  V30 874 H 86.2887 0.917045 -1.82785 0
M  V30 875 H 84.4437 3.40015 -1.85656 0
M  V30 876 H 84.8577 3.31029 -4.06842 0
M  V30 877 H 86.3317 4.63898 -2.9917 0
M  V30 878 H 86.8087 4.17619 -1.35982 0
M  V30 879 H 87.4147 3.24523 -2.74891 0
M  V30 880 N 85.7298 1.2412 0.971189 0
M  V30 881 C 86.9548 1.10667 1.75407 0
M  V30 882 C 87.3798 -0.337048 1.85056 0
M  V30 883 O 86.7378 -1.24396 1.31892 0
M  V30 884 C 86.7858 1.74726 3.15441 0
M  V30 885 O 85.8898 1.01566 3.99697 0
M  V30 886 H 85.2308 0.387341 0.539317 0
M  V30 887 H 87.7608 1.64358 1.2185 0
M  V30 888 H 87.7708 1.80341 3.6598 0
M  V30 889 H 86.4458 2.79773 3.07734 0
M  V30 890 H 85.0228 1.03713 3.58187 0
M  V30 891 N 87.2079 -1.17134 1.05439 0
M  V30 892 C 88.4379 -1.91094 0.785274 0
M  V30 893 C 88.8459 -1.77198 -0.663142 0
M  V30 894 O 88.1889 -1.10835 -1.46497 0
M  V30 895 C 88.2509 -3.42594 1.08949 0
M  V30 896 C 87.9149 -3.80274 2.53458 0
M  V30 897 C 88.9119 -3.82912 3.51673 0
M  V30 898 C 86.5969 -4.11162 2.88532 0
M  V30 899 C 88.5909 -4.15913 4.83006 0
M  V30 900 C 86.2779 -4.43831 4.20068 0
M  V30 901 C 87.2759 -4.46185 5.17115 0
M  V30 902 O 86.9639 -4.78083 6.46291 0
M  V30 903 H 86.6959 -0.613073 0.284811 0
M  V30 904 H 89.2499 -1.49461 1.40893 0
M  V30 905 H 87.4799 -3.84534 0.408741 0
M  V30 906 H 89.1689 -3.97817 0.805991 0
M  V30 907 H 89.9349 -3.5917 3.25917 0
M  V30 908 H 85.8139 -4.085 2.13656 0
M  V30 909 H 89.3579 -4.17665 5.5875 0
M  V30 910 H 85.2549 -4.67037 4.45586 0
M  V30 911 H 86.0229 -4.9593 6.51149 0
M  V30 912 N 88.686 -0.835752 -1.33615 0
M  V30 913 C 89.634 -0.255238 -2.31195 0
M  V30 914 C 90.628 0.61107 -1.57995 0
M  V30 915 O 91.834 0.500979 -1.72888 0
M  V30 916 H 88.209 -0.0638085 -0.749288 0
M  V30 917 H 90.18 -1.09283 -2.77669 0
M  V30 918 C 88.929 0.55754 -3.43201 0
M  V30 919 H 88.252 -0.0997553 -3.99676 0
M  V30 920 H 89.692 0.929622 -4.13683 0
M  V30 921 C 88.151 1.73515 -2.88781 0
M  V30 922 O 88.681 2.83376 -2.84712 0
M  V30 923 N 86.887 1.55603 -2.4543 0
M  V30 924 H 86.434 0.662354 -2.48939 0
M  V30 925 H 86.392 2.34545 -2.09371 0
M  V30 926 N 90.1641 1.46063 -0.591896 0
M  V30 927 C 91.0961 2.28539 0.174001 0
M  V30 928 C 92.1091 1.39047 0.846753 0
M  V30 929 O 93.2981 1.63564 0.714774 0
M  V30 930 C 90.3981 3.14347 1.26645 0
M  V30 931 C 89.5711 4.32021 0.683856 0
M  V30 932 C 88.6301 4.99157 1.66518 0
M  V30 933 O 87.6561 5.56458 1.19763 0
M  V30 934 N 88.8581 4.97005 2.99943 0
M  V30 935 H 91.6231 2.94911 -0.533633 0
M  V30 936 H 89.1841 1.56077 -0.430294 0
M  V30 937 H 91.1761 3.56125 1.92242 0
M  V30 938 H 89.7461 2.49988 1.87682 0
M  V30 939 H 88.9661 3.93915 -0.1498 0
M  V30 940 H 90.2541 5.08059 0.274567 0
M  V30 941 H 89.6521 4.51714 3.40545 0
M  V30 942 H 88.2091 5.42696 3.61004 0
M  V30 943 N 91.6422 0.330177 1.54103 0
M  V30 944 C 92.5892 -0.532762 2.24567 0
M  V30 945 C 93.5592 -1.10635 1.23892 0
M  V30 946 O 94.7442 -1.14546 1.5259 0
M  V30 947 C 91.8842 -1.6845 3.01195 0
M  V30 948 C 90.9972 -1.13951 4.167 0
M  V30 949 C 90.1322 -2.25746 4.80845 0
M  V30 950 C 89.1712 -1.6853 5.88442 0
M  V30 951 N 88.3082 -2.74014 6.46421 0
M  V30 952 H 93.1482 0.0746905 2.97906 0
M  V30 953 H 90.6852 0.048632 1.4702 0
M  V30 954 H 92.6432 -2.36234 3.43874 0
M  V30 955 H 91.2732 -2.26314 2.30178 0
M  V30 956 H 90.3252 -0.35301 3.78758 0
M  V30 957 H 91.6372 -0.680892 4.94131 0
M  V30 958 H 90.7912 -3.01422 5.26526 0
M  V30 959 H 89.5302 -2.74947 4.0281 0
M  V30 960 H 88.5352 -0.913543 5.42157 0
M  V30 961 H 89.7602 -1.20198 6.68378 0
M  V30 962 H 87.7062 -3.22494 5.71256 0
M  V30 963 H 87.6232 -2.32735 7.19285 0
M  V30 964 H 88.8912 -3.49499 6.96757 0
M  V30 965 N 93.1203 -1.57491 0.0584922 0
M  V30 966 C 94.3673 -1.92978 -0.613648 0
M  V30 967 C 94.6953 -0.937461 -1.70417 0
M  V30 968 O 93.9503 0.049078 -1.95638 0
M  V30 969 C 94.2493 -3.3513 -1.24188 0
M  V30 970 C 93.9153 -4.50037 -0.278826 0
M  V30 971 C 92.5773 -4.81198 -0.0138447 0
M  V30 972 C 94.9293 -5.19807 0.380777 0
M  V30 973 C 92.2573 -5.79473 0.918052 0
M  V30 974 C 94.6093 -6.19079 1.30091 0
M  V30 975 C 93.2733 -6.48665 1.57449 0
M  V30 976 H 92.5433 -0.706157 -0.22455 0
M  V30 977 H 95.1903 -1.91082 0.126533 0
M  V30 978 H 93.4953 -3.33429 -2.05749 0
M  V30 979 H 95.1923 -3.59871 -1.769 0
M  V30 980 H 91.7823 -4.25726 -0.495539 0
M  V30 981 H 95.9663 -4.95939 0.189158 0
M  V30 982 H 91.2223 -6.00727 1.1374 0
M  V30 983 H 95.3963 -6.7225 1.81804 0
M  V30 984 H 93.0233 -7.24628 2.29822 0
M  V30 985 N 94.5984 0.214957 -1.56127 0
M  V30 986 C 95.5454 1.26642 -1.92952 0
M  V30 987 C 96.5154 1.46244 -0.78753 0
M  V30 988 O 97.7004 1.59704 -1.04399 0
M  V30 989 C 94.8404 2.6104 -2.25726 0
M  V30 990 C 93.9534 2.49183 -3.52891 0
M  V30 991 C 93.0884 3.76149 -3.7508 0
M  V30 992 C 92.1274 3.59041 -4.95738 0
M  V30 993 N 91.2644 4.77972 -5.14283 0
M  V30 994 H 96.1044 0.945384 -2.82607 0
M  V30 995 H 93.6414 0.455489 -1.3987 0
M  V30 996 H 95.5994 3.39313 -2.42739 0
M  V30 997 H 94.2294 2.91227 -1.39236 0
M  V30 998 H 93.2814 1.6231 -3.44034 0
M  V30 999 H 94.5934 2.32466 -4.41318 0
M  V30 1000 H 93.7474 4.62865 -3.92226 0
M  V30 1001 H 92.4864 3.95799 -2.84947 0
M  V30 1002 H 91.4914 2.7071 -4.78535 0
M  V30 1003 H 92.7164 3.40856 -5.87362 0
M  V30 1004 H 90.6624 4.97923 -4.27093 0
M  V30 1005 H 90.5794 4.64006 -5.96853 0
M  V30 1006 H 91.8474 5.66096 -5.35869 0
M  V30 1007 N 96.0765 1.50051 0.48192 0
M  V30 1008 C 97.3245 1.60181 1.23234 0
M  V30 1009 C 97.6455 0.299176 1.92691 0
M  V30 1010 O 96.9155 -0.682708 1.83619 0
M  V30 1011 H 95.4955 0.590232 0.457859 0
M  V30 1012 H 98.1575 1.86775 0.556881 0
M  V30 1013 H 97.2535 2.40753 1.98607 0
M  V30 1014 N 97.5546 -0.734337 1.39446 0
M  V30 1015 C 98.5016 -1.84835 1.38219 0
M  V30 1016 C 99.4716 -1.64331 0.24179 0
M  V30 1017 O 100.657 -1.85728 0.437002 0
M  V30 1018 C 97.7966 -3.22355 1.23212 0
M  V30 1019 C 96.9096 -3.5456 2.46801 0
M  V30 1020 C 96.0446 -4.81485 2.24377 0
M  V30 1021 C 95.0836 -5.06536 3.43639 0
M  V30 1022 N 94.2206 -6.24665 3.20528 0
M  V30 1023 H 99.0606 -1.85219 2.33448 0
M  V30 1024 H 96.5976 -0.905039 1.15963 0
M  V30 1025 H 98.5556 -4.0174 1.12522 0
M  V30 1026 H 97.1856 -3.21248 0.316121 0
M  V30 1027 H 96.2376 -2.69872 2.68092 0
M  V30 1028 H 97.5496 -3.6899 3.3563 0
M  V30 1029 H 96.7036 -5.68852 2.10933 0
M  V30 1030 H 95.4426 -4.6923 1.32944 0
M  V30 1031 H 94.4476 -4.17632 3.5758 0
M  V30 1032 H 95.6726 -5.20676 4.35974 0
M  V30 1033 H 93.6186 -6.13696 2.3176 0
M  V30 1034 H 93.5356 -6.39685 4.02913 0
M  V30 1035 H 94.8036 -7.14868 3.10779 0
M  V30 1036 N 99.0327 -1.24633 -0.964593 0
M  V30 1037 C 99.9957 -1.0424 -2.04124 0
M  V30 1038 C 100.996 0.00137563 -1.608 0
M  V30 1039 O 102.186 -0.239883 -1.7254 0
M  V30 1040 C 99.3177 -0.580588 -3.3592 0
M  V30 1041 H 100.511 -1.99803 -2.23649 0
M  V30 1042 H 98.0637 -1.06899 -1.14027 0
M  V30 1043 H 98.7987 0.3781 -3.22088 0
M  V30 1044 H 98.5837 -1.33398 -3.6871 0
M  V30 1045 H 100.074 -0.459034 -4.15069 0
M  V30 1046 N 100.511 1.16574 -1.06058 0
M  V30 1047 C 101.739 1.90952 -0.796552 0
M  V30 1048 C 102.154 1.77302 0.648808 0
M  V30 1049 O 101.511 1.11605 1.44397 0
M  V30 1050 C 101.562 3.41736 -1.17894 0
M  V30 1051 O 101.283 3.54975 -2.56758 0
M  V30 1052 C 102.784 4.33169 -0.942308 0
M  V30 1053 H 100.004 0.605594 -0.288959 0
M  V30 1054 H 102.548 1.47777 -1.41358 0
M  V30 1055 H 100.703 3.82623 -0.606491 0
M  V30 1056 H 101.117 4.4846 -2.72 0
M  V30 1057 H 102.591 5.37439 -1.25952 0
M  V30 1058 H 103.068 4.3903 0.122078 0
M  V30 1059 H 103.674 3.98007 -1.49902 0
M  V30 1060 N 101.989 0.842826 1.3317 0
M  V30 1061 C 102.919 0.294028 2.31641 0
M  V30 1062 C 103.9 -0.600401 1.59151 0
M  V30 1063 O 105.085 -0.523124 1.87022 0
M  V30 1064 C 102.215 -0.528416 3.43257 0
M  V30 1065 C 101.169 0.27056 4.27144 0
M  V30 1066 C 100.495 -0.675881 5.30411 0
M  V30 1067 C 101.795 1.48981 5.00602 0
M  V30 1068 H 103.489 1.11681 2.77791 0
M  V30 1069 H 101.035 0.538478 1.33553 0
M  V30 1070 H 102.988 -0.922674 4.11175 0
M  V30 1071 H 101.712 -1.38445 2.95805 0
M  V30 1072 H 100.371 0.646427 3.60856 0
M  V30 1073 H 100.019 -1.52842 4.79216 0
M  V30 1074 H 99.7189 -0.145374 5.8742 0
M  V30 1075 H 101.243 -1.06757 6.01195 0
M  V30 1076 H 102.657 1.16849 5.61266 0
M  V30 1077 H 101.054 1.95739 5.6728 0
M  V30 1078 H 102.124 2.25746 4.29147 0
M  V30 1079 N 103.467 -1.45747 0.599634 0
M  V30 1080 C 104.695 -2.06668 0.0978551 0
M  V30 1081 C 105.11 -1.44562 -1.21439 0
M  V30 1082 O 104.467 -0.556923 -1.73795 0
M  V30 1083 C 104.518 -3.61456 -0.0567044 0
M  V30 1084 O 104.239 -4.21242 1.20361 0
M  V30 1085 C 105.74 -4.39345 -0.590869 0
M  V30 1086 H 102.96 -0.667825 0.0651943 0
M  V30 1087 H 105.504 -1.87115 0.82511 0
M  V30 1088 H 103.659 -3.80378 -0.734251 0
M  V30 1089 H 104.073 -5.14323 1.02821 0
M  V30 1090 H 105.547 -5.48182 -0.648131 0
M  V30 1091 H 106.024 -4.08568 -1.61147 0
M  V30 1092 H 106.63 -4.25268 0.0523679 0
M  V30 1093 N 104.945 -0.338344 -1.53925 0
M  V30 1094 C 106.191 0.260143 -2.01125 0
M  V30 1095 C 106.524 1.50617 -1.22589 0
M  V30 1096 O 105.799 1.91979 -0.312113 0
M  V30 1097 C 106.082 0.579499 -3.55407 0
M  V30 1098 C 105.935 -0.678264 -4.44657 0
M  V30 1099 C 107.254 1.39122 -4.17532 0
M  V30 1100 H 104.373 0.0930772 -0.731099 0
M  V30 1101 H 107.015 -0.457852 -1.84401 0
M  V30 1102 H 105.165 1.19118 -3.69788 0
M  V30 1103 H 106.837 -1.31631 -4.42121 0
M  V30 1104 H 105.08 -1.3042 -4.13731 0
M  V30 1105 H 105.751 -0.410143 -5.50474 0
M  V30 1106 H 108.227 0.874035 -4.06817 0
M  V30 1107 H 107.103 1.58342 -5.25565 0
M  V30 1108 H 107.364 2.39178 -3.71815 0
M  V30 1109 N 106.423 1.57458 -0.0668435 0
M  V30 1110 C 107.7 1.8469 0.644132 0
M  V30 1111 C 108.08 0.958343 1.88093 0
M  V30 1112 O 107.428 0.0233579 2.28488 0
M  V30 1113 C 107.638 3.34767 0.986509 0
M  V30 1114 C 108.986 4.02159 1.36212 0
M  V30 1115 O 110.01 3.39484 1.07839 0
M  V30 1116 O 108.869 5.12694 1.89227 0
M  V30 1117 H 105.963 0.762816 0.319437 0
M  V30 1118 H 108.509 1.6942 -0.0973986 0
M  V30 1119 H 107.281 3.91151 0.107883 0
M  V30 1120 H 106.904 3.55281 1.78497 0
M  V30 1121 N 107.901 -0.206675 1.56239 0
M  V30 1122 C 108.848 -1.25617 1.93621 0
M  V30 1123 C 109.818 -1.45824 0.795274 0
M  V30 1124 O 111.003 -1.59148 1.05245 0
M  V30 1125 C 108.143 -2.59839 2.27107 0
M  V30 1126 C 107.256 -2.47308 3.54207 0
M  V30 1127 C 106.391 -3.74155 3.7707 0
M  V30 1128 C 105.43 -3.56407 4.97635 0
M  V30 1129 N 104.567 -4.75238 5.1681 0
M  V30 1130 H 109.407 -0.930383 2.83104 0
M  V30 1131 H 106.944 -0.448065 1.4011 0
M  V30 1132 H 108.902 -3.38021 2.44535 0
M  V30 1133 H 107.532 -2.90485 1.40778 0
M  V30 1134 H 106.584 -1.60483 3.4489 0
M  V30 1135 H 107.896 -2.30122 4.42544 0
M  V30 1136 H 107.05 -4.60778 3.94675 0
M  V30 1137 H 105.789 -3.94282 2.87042 0
M  V30 1138 H 104.794 -2.68168 4.79964 0
M  V30 1139 H 106.019 -3.37736 5.89161 0
M  V30 1140 H 103.965 -4.95651 4.29728 0
M  V30 1141 H 103.882 -4.60835 5.99306 0
M  V30 1142 H 105.15 -5.63246 5.38864 0
M  V30 1143 N 109.379 -1.50304 -0.473955 0
M  V30 1144 C 110.604 -1.65175 -1.25427 0
M  V30 1145 C 111.029 -0.333673 -1.85117 0
M  V30 1146 O 110.387 0.702114 -1.67153 0
M  V30 1147 C 110.435 -2.74295 -2.34082 0
M  V30 1148 O 109.539 -2.35349 -3.38651 0
M  V30 1149 H 108.88 -0.551944 -0.369126 0
M  V30 1150 H 111.41 -1.96662 -0.564364 0
M  V30 1151 H 111.42 -2.97285 -2.79438 0
M  V30 1152 H 110.095 -3.69959 -1.90008 0
M  V30 1153 H 108.672 -2.22794 -2.99027 0
M  V30 1154 N 110.857 0.726932 -1.39834 0
M  V30 1155 C 112.082 1.52121 -1.40976 0
M  V30 1156 C 112.507 1.88098 -0.00826029 0
M  V30 1157 O 111.865 1.52479 0.980807 0
M  V30 1158 C 111.913 2.78021 -2.29644 0
M  V30 1159 O 111.017 3.74272 -1.73188 0
M  V30 1160 H 110.358 0.45908 -0.479731 0
M  V30 1161 H 112.888 0.896207 -1.83927 0
M  V30 1162 H 112.898 3.26671 -2.44438 0
M  V30 1163 H 111.573 2.51169 -3.31492 0
M  V30 1164 H 110.15 3.33073 -1.6768 0
M  V30 1165 N 112.336 1.25143 0.95797 0
M  V30 1166 C 113.561 1.12521 1.74223 0
M  V30 1167 C 113.986 -0.317402 1.85403 0
M  V30 1168 O 113.344 -1.2299 1.33204 0
M  V30 1169 C 113.392 1.78062 3.1357 0
M  V30 1170 O 112.496 1.058 3.98598 0
M  V30 1171 H 111.837 0.39304 0.535178 0
M  V30 1172 H 114.367 1.65641 1.201 0
M  V30 1173 H 114.377 1.84213 3.64046 0
M  V30 1174 H 113.052 2.83021 3.04749 0
M  V30 1175 H 111.629 1.07506 3.57067 0
M  V30 1176 N 113.814 -1.1601 1.06675 0
M  V30 1177 C 115.042 -1.90527 0.806667 0
M  V30 1178 C 115.457 -1.77643 -0.639396 0
M  V30 1179 O 114.814 -1.12369 -1.43803 0
M  V30 1180 C 114.865 -3.41106 1.19705 0
M  V30 1181 O 114.586 -3.53608 2.58636 0
M  V30 1182 C 116.087 -4.32663 0.965266 0
M  V30 1183 H 113.307 -0.604053 0.292166 0
M  V30 1184 H 115.851 -1.47026 1.4214 0
M  V30 1185 H 114.006 -3.82296 0.626774 0
M  V30 1186 H 114.42 -4.47011 2.74375 0
M  V30 1187 H 115.894 -5.36763 1.288 0
M  V30 1188 H 116.371 -4.39089 -0.0987936 0
M  V30 1189 H 116.977 -3.97206 1.52011 0
M  V30 1190 N 115.292 -0.849877 -1.32721 0
M  V30 1191 C 116.255 -0.296122 -2.27279 0
M  V30 1192 C 117.255 0.541458 -1.5141 0
M  V30 1193 O 118.445 0.353658 -1.70572 0
M  V30 1194 C 115.577 0.581579 -3.35902 0
M  V30 1195 H 116.77 -1.13064 -2.77771 0
M  V30 1196 H 114.323 -0.62383 -1.43311 0
M  V30 1197 H 115.058 1.43809 -2.9067 0
M  V30 1198 H 114.843 -0.0178814 -3.92096 0
M  V30 1199 H 116.333 0.961951 -4.0637 0
M  V30 1200 N 116.77 1.45427 -0.607355 0
M  V30 1201 C 118 2.06314 -0.108656 0
M  V30 1202 C 118.408 1.45269 1.21217 0
M  V30 1203 O 117.751 0.561115 1.74921 0
M  V30 1204 C 117.813 3.59345 0.105618 0
M  V30 1205 C 117.477 4.42723 -1.13337 0
M  V30 1206 C 118.474 4.77715 -2.05145 0
M  V30 1207 C 116.159 4.83478 -1.36213 0
M  V30 1208 C 118.153 5.52317 -3.18158 0
M  V30 1209 C 115.84 5.57835 -2.49527 0
M  V30 1210 C 116.838 5.92171 -3.40327 0
M  V30 1211 O 116.526 6.65019 -4.51669 0
M  V30 1212 H 116.258 0.672782 -0.0658842 0
M  V30 1213 H 118.812 1.87664 -0.834945 0
M  V30 1214 H 117.042 3.76394 0.886796 0
M  V30 1215 H 118.731 4.02076 0.555886 0
M  V30 1216 H 119.497 4.46787 -1.88697 0
M  V30 1217 H 115.376 4.56188 -0.664362 0
M  V30 1218 H 118.92 5.79036 -3.89054 0
M  V30 1219 H 114.817 5.88177 -2.65928 0
M  V30 1220 H 115.585 6.83469 -4.50348 0
M  V30 1221 N 118.248 0.346503 1.53744 0
M  V30 1222 C 119.181 -0.552023 2.21423 0
M  V30 1223 C 120.159 -1.09798 1.19929 0
M  V30 1224 O 121.343 -1.1577 1.4876 0
M  V30 1225 C 118.47 -1.75972 2.89398 0
M  V30 1226 C 117.516 -1.34295 4.04805 0
M  V30 1227 S 118.349 -0.360263 5.34287 0
M  V30 1228 C 119.505 -1.57473 6.05767 0
M  V30 1229 H 119.738 0.0228119 2.97291 0
M  V30 1230 H 117.271 0.130579 1.53847 0
M  V30 1231 H 119.229 -2.45256 3.2918 0
M  V30 1232 H 117.89 -2.30578 2.1329 0
M  V30 1233 H 117.083 -2.24349 4.51313 0
M  V30 1234 H 116.685 -0.729555 3.66815 0
M  V30 1235 H 118.977 -2.50875 6.29339 0
M  V30 1236 H 119.92 -1.15138 6.98676 0
M  V30 1237 H 120.328 -1.77212 5.35963 0
M  V30 1238 N 119.726 -1.57421 0.075193 0
M  V30 1239 C 120.658 -2.09904 -0.920483 0
M  V30 1240 C 121.671 -1.03191 -1.25918 0
M  V30 1241 O 122.86 -1.30695 -1.21577 0
M  V30 1242 C 119.96 -2.54726 -2.23534 0
M  V30 1243 C 119.133 -3.8505 -2.07498 0
M  V30 1244 C 118.192 -4.15929 -3.22319 0
M  V30 1245 O 117.218 -4.85474 -2.9716 0
M  V30 1246 N 118.42 -3.69745 -4.47514 0
M  V30 1247 H 121.185 -2.95954 -0.472359 0
M  V30 1248 H 118.746 -1.61523 -0.110444 0
M  V30 1249 H 120.738 -2.72443 -2.9926 0
M  V30 1250 H 119.308 -1.73795 -2.59835 0
M  V30 1251 H 118.528 -3.76679 -1.16219 0
M  V30 1252 H 119.816 -4.70348 -1.94038 0
M  V30 1253 H 119.214 -3.13569 -4.7084 0
M  V30 1254 H 117.771 -3.92655 -5.20255 0
M  V30 1255 N 121.204 0.198386 -1.56346 0
M  V30 1256 C 122.134 1.24865 -1.9731 0
M  V30 1257 C 123.115 1.47651 -0.844576 0
M  V30 1258 O 124.3 1.59444 -1.10866 0
M  V30 1259 C 121.43 2.59358 -2.30977 0
M  V30 1260 C 120.384 2.5119 -3.46537 0
M  V30 1261 C 119.71 3.89926 -3.65871 0
M  V30 1262 C 121.01 2.03977 -4.80823 0
M  V30 1263 H 122.704 0.908252 -2.85291 0
M  V30 1264 H 120.25 0.435462 -1.37258 0
M  V30 1265 H 122.203 3.33011 -2.58228 0
M  V30 1266 H 120.927 2.95132 -1.39874 0
M  V30 1267 H 119.586 1.79993 -3.19371 0
M  V30 1268 H 119.234 4.23046 -2.72105 0
M  V30 1269 H 118.934 3.85336 -4.4361 0
M  V30 1270 H 120.458 4.65205 -3.95495 0
M  V30 1271 H 121.872 2.67386 -5.07127 0
M  V30 1272 H 120.269 2.10397 -5.62008 0
M  V30 1273 H 121.339 0.992861 -4.74626 0
M  V30 1274 N 122.682 1.50554 0.465978 0
M  V30 1275 C 123.907 1.65838 1.24549 0
M  V30 1276 C 124.332 0.343486 1.84937 0
M  V30 1277 O 123.69 -0.69324 1.67523 0
M  V30 1278 C 123.738 2.75533 2.32624 0
M  V30 1279 O 122.842 2.37142 3.37398 0
M  V30 1280 H 122.183 0.553893 0.366194 0
M  V30 1281 H 124.713 1.96959 0.553927 0
M  V30 1282 H 124.723 2.98763 2.77857 0
M  V30 1283 H 123.398 3.70962 1.88043 0
M  V30 1284 H 121.975 2.24377 2.97841 0
M  V30 1285 N 124.16 -0.719506 1.40217 0
M  V30 1286 C 125.385 -1.51371 1.4178 0
M  V30 1287 C 125.81 -1.88091 0.0182355 0
M  V30 1288 O 125.168 -1.52997 -0.972707 0
M  V30 1289 C 125.216 -2.768 2.31115 0
M  V30 1290 O 124.32 -3.73349 1.7517 0
M  V30 1291 H 123.661 -0.456529 0.482159 0
M  V30 1292 H 126.191 -0.88644 1.844 0
M  V30 1293 H 126.201 -3.25371 2.46167 0
M  V30 1294 H 124.876 -2.49407 3.3282 0
M  V30 1295 H 123.453 -3.32179 1.69444 0
M  V30 1296 N 125.638 -1.25649 -0.95132 0
M  V30 1297 C 126.568 -1.08808 -2.06599 0
M  V30 1298 C 127.549 0.00382547 -1.701 0
M  V30 1299 O 128.734 -0.166325 -1.93486 0
M  V30 1300 C 125.864 -0.709542 -3.39975 0
M  V30 1301 C 124.818 -1.75206 -3.90496 0
M  V30 1302 C 124.144 -1.22811 -5.20405 0
M  V30 1303 C 125.444 -3.15153 -4.16504 0
M  V30 1304 H 127.138 -2.02048 -2.20946 0
M  V30 1305 H 124.684 -0.972835 -1.06169 0
M  V30 1306 H 126.637 -0.578649 -4.17408 0
M  V30 1307 H 125.361 0.258556 -3.25575 0
M  V30 1308 H 124.02 -1.87145 -3.15234 0
M  V30 1309 H 123.668 -0.250145 -5.02378 0
M  V30 1310 H 123.368 -1.92492 -5.55176 0
M  V30 1311 H 124.892 -1.10968 -6.00432 0
M  V30 1312 H 126.306 -3.06349 -4.84586 0
M  V30 1313 H 124.703 -3.82333 -4.62538 0
M  V30 1314 H 125.773 -3.61966 -3.22658 0
M  V30 1315 N 127.117 1.15442 -1.07289 0
M  V30 1316 C 128.345 1.90096 -0.81676 0
M  V30 1317 C 128.76 1.7798 0.629966 0
M  V30 1318 O 128.117 1.1313 1.43206 0
M  V30 1319 C 128.168 3.40466 -1.21512 0
M  V30 1320 O 127.889 3.52232 -2.60508 0
M  V30 1321 C 129.39 4.32145 -0.988198 0
M  V30 1322 H 126.61 0.602495 -0.295366 0
M  V30 1323 H 129.154 1.4627 -1.42918 0
M  V30 1324 H 127.309 3.81958 -0.647039 0
M  V30 1325 H 127.723 4.45549 -2.76742 0
M  V30 1326 H 129.197 5.36072 -1.31645 0
M  V30 1327 H 129.674 4.39135 0.0755063 0
M  V30 1328 H 130.28 3.96395 -1.54115 0
M  V30 1329 N 128.595 0.856903 1.32268 0
M  V30 1330 C 129.82 0.474569 2.01897 0
M  V30 1331 C 130.245 -0.921766 1.63967 0
M  V30 1332 O 129.603 -1.60589 0.84148 0
M  V30 1333 C 129.651 0.623799 3.55164 0
M  V30 1334 O 128.755 -0.342459 4.10976 0
M  V30 1335 H 128.096 0.190422 0.63611 0
M  V30 1336 H 130.626 1.15672 1.68764 0
M  V30 1337 H 130.636 0.512169 4.04773 0
M  V30 1338 H 129.311 1.64202 3.82113 0
M  V30 1339 H 127.888 -0.18688 3.72431 0
M  V30 1340 N 130.073 -1.45103 0.615059 0
M  V30 1341 C 130.983 -2.34382 -0.101034 0
M  V30 1342 C 131.999 -1.51681 -0.852585 0
M  V30 1343 O 133.175 -1.8446 -0.808484 0
M  V30 1344 C 130.24 -3.29417 -1.08099 0
M  V30 1345 C 129.301 -4.28025 -0.330577 0
M  V30 1346 C 128.534 -5.1852 -1.26385 0
M  V30 1347 O 128.757 -5.12598 -2.50198 0
M  V30 1348 O 127.691 -5.97122 -0.756866 0
M  V30 1349 H 131.517 -2.97033 0.632855 0
M  V30 1350 H 129.102 -1.4461 0.375293 0
M  V30 1351 H 130.984 -3.87958 -1.6452 0
M  V30 1352 H 129.659 -2.69321 -1.79577 0
M  V30 1353 H 128.566 -3.73078 0.276283 0
M  V30 1354 H 129.899 -4.90997 0.343866 0
M  V30 1355 N 131.551 -0.354651 -1.53558 0
M  V30 1356 C 132.828 0.294281 -1.93374 0
M  V30 1357 C 133.208 1.67313 -1.28723 0
M  V30 1358 O 132.556 2.24179 -0.442247 0
M  V30 1359 C 132.766 0.355445 -3.47185 0
M  V30 1360 C 134.114 0.601007 -4.20325 0
M  V30 1361 O 135.138 0.437106 -3.53508 0
M  V30 1362 O 133.997 0.919322 -5.38712 0
M  V30 1363 H 131.091 0.174033 -0.808481 0
M  V30 1364 H 133.637 -0.406638 -1.64756 0
M  V30 1365 H 132.409 -0.611729 -3.86489 0
M  V30 1366 H 132.032 1.1027 -3.82003 0
M  V30 1367 N 133.029 1.57378 -0.0835403 0
M  V30 1368 C 134.254 1.98682 0.594987 0
M  V30 1369 C 134.679 0.961969 1.61641 0
M  V30 1370 O 134.037 -0.0709989 1.81161 0
M  V30 1371 C 134.085 3.38988 1.2296 0
M  V30 1372 O 133.189 3.39208 2.34546 0
M  V30 1373 H 132.53 0.646368 0.152002 0
M  V30 1374 H 135.06 2.03961 -0.161533 0
M  V30 1375 H 135.07 3.76431 1.57366 0
M  V30 1376 H 133.745 4.13107 0.481228 0
M  V30 1377 H 132.322 3.13548 2.01846 0
M  V30 1378 N 134.507 -0.190092 1.56449 0
M  V30 1379 C 135.47 -1.21925 1.9408 0
M  V30 1380 C 136.47 -1.38176 0.822431 0
M  V30 1381 O 137.66 -1.35903 1.08977 0
M  V30 1382 C 134.792 -2.58773 2.21922 0
M  V30 1383 H 135.985 -0.897464 2.86157 0
M  V30 1384 H 133.538 -0.43181 1.50217 0
M  V30 1385 H 134.273 -2.95998 1.32499 0
M  V30 1386 H 134.058 -2.48348 3.03424 0
M  V30 1387 H 135.548 -3.32978 2.52022 0
M  V30 1388 N 135.985 -1.50799 -0.457987 0
M  V30 1389 C 137.231 -1.62683 -1.21088 0
M  V30 1390 C 137.564 -0.332268 -1.91336 0
M  V30 1391 O 136.839 0.667043 -1.82704 0
M  V30 1392 C 137.122 -2.81615 -2.24422 0
M  V30 1393 C 136.975 -4.20989 -1.58392 0
M  V30 1394 C 138.294 -2.96085 -3.2561 0
M  V30 1395 H 135.413 -0.592087 -0.438864 0
M  V30 1396 H 138.055 -1.83225 -0.50286 0
M  V30 1397 H 136.205 -2.64231 -2.84806 0
M  V30 1398 H 137.877 -4.49994 -1.01504 0
M  V30 1399 H 136.12 -4.24641 -0.886704 0
M  V30 1400 H 136.791 -5.0016 -2.33547 0
M  V30 1401 H 139.267 -3.12042 -2.75262 0
M  V30 1402 H 138.143 -3.80902 -3.95228 0
M  V30 1403 H 138.404 -2.0726 -3.90507 0
M  V30 1404 N 137.463 0.71206 -1.40597 0
M  V30 1405 C 138.693 1.49894 -1.42181 0
M  V30 1406 C 139.101 1.89189 -0.0208078 0
M  V30 1407 O 138.444 1.56223 0.966436 0
M  V30 1408 C 138.506 2.80215 -2.25211 0
M  V30 1409 C 138.17 2.63221 -3.73582 0
M  V30 1410 C 139.167 2.30249 -4.66135 0
M  V30 1411 C 136.852 2.79376 -4.17438 0
M  V30 1412 C 138.846 2.13645 -6.00529 0
M  V30 1413 C 136.533 2.6239 -5.51901 0
M  V30 1414 C 137.531 2.29573 -6.43262 0
M  V30 1415 O 137.219 2.12719 -7.75246 0
M  V30 1416 H 136.951 0.469031 -0.486812 0
M  V30 1417 H 139.505 0.88564 -1.85326 0
M  V30 1418 H 137.735 3.4389 -1.76852 0
M  V30 1419 H 139.424 3.41947 -2.18694 0
M  V30 1420 H 140.19 2.17398 -4.33547 0
M  V30 1421 H 136.069 3.03906 -3.46644 0
M  V30 1422 H 139.613 1.87953 -6.71803 0
M  V30 1423 H 135.51 2.74826 -5.84073 0
M  V30 1424 H 136.278 2.27611 -7.86216 0
M  V30 1425 N 138.941 1.26152 0.944643 0
M  V30 1426 C 140.188 1.11492 1.69044 0
M  V30 1427 C 140.516 -0.342366 1.91463 0
M  V30 1428 O 139.771 -1.26812 1.49054 0
M  V30 1429 C 140.07 1.82541 3.07268 0
M  V30 1430 C 139.736 3.32445 3.04616 0
M  V30 1431 C 138.398 3.73337 3.036 0
M  V30 1432 C 140.75 4.28171 2.97185 0
M  V30 1433 C 138.078 5.08348 2.92915 0
M  V30 1434 C 140.43 5.63218 2.88041 0
M  V30 1435 C 139.094 6.03426 2.85366 0
M  V30 1436 H 138.364 0.407977 0.618576 0
M  V30 1437 H 141.011 1.56551 1.10291 0
M  V30 1438 H 139.316 1.29941 3.69625 0
M  V30 1439 H 141.013 1.68642 3.63815 0
M  V30 1440 H 137.603 2.99915 3.06185 0
M  V30 1441 H 141.787 3.97563 2.97081 0
M  V30 1442 H 137.043 5.38667 2.89219 0
M  V30 1443 H 141.217 6.37078 2.81254 0
M  V30 1444 H 138.844 7.07999 2.76842 0
M  V30 1445 N 140.419 -1.14872 1.07899 0
M  V30 1446 C 141.659 -1.8745 0.814965 0
M  V30 1447 C 142.023 -1.80758 -0.64733 0
M  V30 1448 O 143.224 -2.48422 -1.02664 0
M  V30 1449 C 141.495 -3.32286 1.31607 0
M  V30 1450 S 143.054 -4.22537 1.18357 0
M  V30 1451 H 139.872 -0.646833 0.295174 0
M  V30 1452 H 142.474 -1.38555 1.37923 0
M  V30 1453 H 141.178 -3.34703 2.37491 0
M  V30 1454 H 140.709 -3.86238 0.747261 0
M  V30 1455 H 142.724 -4.96044 0.124586 0
M  V30 1456 N 141.898 -0.863906 -1.31812 0
M  V30 1457 C 142.861 -0.320212 -2.26952 0
M  V30 1458 C 143.861 0.525369 -1.51975 0
M  V30 1459 O 145.051 0.335547 -1.70938 0
M  V30 1460 C 142.183 0.545919 -3.365 0
M  V30 1461 H 143.376 -1.16004 -2.76556 0
M  V30 1462 H 140.929 -0.638995 -1.42641 0
M  V30 1463 H 141.664 1.40718 -2.92179 0
M  V30 1464 H 141.449 -0.0594674 -3.92055 0
M  V30 1465 H 142.939 0.918796 -4.07367 0
M  V30 1466 N 143.376 1.44774 -0.622745 0
M  V30 1467 C 144.792 1.56986 -0.287652 0
M  V30 1468 C 144.992 1.61167 1.20944 0
M  V30 1469 O 144.048 1.55015 1.99315 0
M  V30 1470 C 145.361 2.84551 -0.972188 0
M  V30 1471 C 146.909 2.9825 -0.949536 0
M  V30 1472 C 147.384 4.28605 -1.61437 0
M  V30 1473 N 148.875 4.35399 -1.58057 0
M  V30 1474 C 149.61 5.34964 -2.064 0
M  V30 1475 N 149.106 6.40981 -2.62897 0
M  V30 1476 N 150.899 5.26419 -1.97078 0
M  V30 1477 H 143.05 1.40304 -1.59463 0
M  V30 1478 H 145.313 0.671794 -0.668878 0
M  V30 1479 H 145.019 2.87417 -2.02693 0
M  V30 1480 H 144.893 3.73807 -0.504771 0
M  V30 1481 H 147.28 2.94941 0.0967067 0
M  V30 1482 H 147.361 2.10364 -1.45536 0
M  V30 1483 H 147.005 4.32672 -2.66002 0
M  V30 1484 H 146.935 5.15334 -1.08344 0
M  V30 1485 H 149.426 3.59397 -1.16801 0
M  V30 1486 H 149.739 7.13225 -2.97539 0
M  V30 1487 H 148.084 6.4169 -2.66943 0
M  V30 1488 H 151.275 4.42504 -1.52669 0
M  V30 1489 H 151.448 6.03861 -2.35066 0
M  V30 1490 N 144.854 0.36279 1.53368 0
M  V30 1491 C 146.1 -0.228113 2.01513 0
M  V30 1492 C 146.433 -1.48648 1.2497 0
M  V30 1493 O 145.708 -1.91459 0.342616 0
M  V30 1494 C 145.991 -0.522884 3.56284 0
M  V30 1495 C 145.844 0.74892 4.43521 0
M  V30 1496 C 147.163 -1.32461 4.19693 0
M  V30 1497 H 144.282 -0.0814343 0.732487 0
M  V30 1498 H 146.924 0.48713 1.83649 0
M  V30 1499 H 145.074 -1.1322 3.71636 0
M  V30 1500 H 146.746 1.38648 4.39971 0
M  V30 1501 H 144.989 1.36986 4.11603 0
M  V30 1502 H 145.66 0.497667 5.49752 0
M  V30 1503 H 148.136 -0.809203 4.08156 0
M  V30 1504 H 147.012 -1.49961 5.28018 0
M  V30 1505 H 147.273 -2.33232 3.75573 0
M  V30 1506 N 146.332 -1.57332 0.0918853 0
M  V30 1507 C 147.578 -1.94524 -0.573425 0
M  V30 1508 C 147.911 -0.973578 -1.68033 0
M  V30 1509 O 147.186 -0.00609226 -1.94499 0
M  V30 1510 C 147.469 -3.41858 -1.13161 0
M  V30 1511 C 147.322 -4.4979 -0.0299747 0
M  V30 1512 C 148.641 -3.90435 -2.03098 0
M  V30 1513 H 145.76 -0.70734 -0.206975 0
M  V30 1514 H 148.402 -1.89309 0.161942 0
M  V30 1515 H 146.552 -3.46433 -1.7583 0
M  V30 1516 H 148.224 -4.57327 0.604112 0
M  V30 1517 H 146.467 -4.291 0.636833 0
M  V30 1518 H 147.138 -5.50069 -0.461287 0
M  V30 1519 H 149.614 -3.87992 -1.50338 0
M  V30 1520 H 148.49 -4.94097 -2.39081 0
M  V30 1521 H 148.751 -3.29541 -2.94712 0
M  V30 1522 N 147.81 0.181792 -1.56548 0
M  V30 1523 C 149.04 0.914618 -1.85252 0
M  V30 1524 C 149.448 1.76791 -0.673914 0
M  V30 1525 O 148.791 1.80009 0.366416 0
M  V30 1526 C 148.853 1.85019 -3.08234 0
M  V30 1527 C 148.517 1.17754 -4.41569 0
M  V30 1528 C 149.514 0.548035 -5.17003 0
M  V30 1529 C 147.199 1.17742 -4.88305 0
M  V30 1530 C 149.193 -0.0726128 -6.37359 0
M  V30 1531 C 146.88 0.552946 -6.08593 0
M  V30 1532 C 147.878 -0.070978 -6.82963 0
M  V30 1533 O 147.566 -0.685635 -8.00971 0
M  V30 1534 H 147.298 0.271695 -0.618998 0
M  V30 1535 H 149.852 0.189944 -2.0452 0
M  V30 1536 H 148.082 2.61491 -2.84885 0
M  V30 1537 H 149.771 2.45195 -3.23472 0
M  V30 1538 H 150.537 0.540174 -4.81982 0
M  V30 1539 H 146.416 1.65246 -4.30366 0
M  V30 1540 H 149.96 -0.560213 -6.95347 0
M  V30 1541 H 145.857 0.558354 -6.43081 0
M  V30 1542 H 146.625 -0.58385 -8.16415 0
M  V30 1543 N 149.288 1.51039 0.449983 0
M  V30 1544 C 150.518 1.66627 1.22143 0
M  V30 1545 C 150.926 0.357776 1.85786 0
M  V30 1546 O 150.269 -0.672424 1.70951 0
M  V30 1547 C 150.331 2.71562 2.35573 0
M  V30 1548 C 149.995 4.14526 1.92399 0
M  V30 1549 C 150.992 4.99717 1.43453 0
M  V30 1550 C 148.677 4.60559 2.00475 0
M  V30 1551 C 150.671 6.28998 1.03155 0
M  V30 1552 C 148.358 5.8984 1.59788 0
M  V30 1553 C 149.356 6.73886 1.11208 0
M  V30 1554 O 149.044 8.0075 0.710935 0
M  V30 1555 H 148.776 0.562635 0.374724 0
M  V30 1556 H 151.33 1.98146 0.541036 0
M  V30 1557 H 149.56 2.3533 3.06849 0
M  V30 1558 H 151.249 2.76156 2.97478 0
M  V30 1559 H 152.015 4.65361 1.36618 0
M  V30 1560 H 147.894 3.95273 2.37235 0
M  V30 1561 H 151.438 6.9455 0.651663 0
M  V30 1562 H 147.335 6.23713 1.66289 0
M  V30 1563 H 148.103 8.142 0.837913 0
M  V30 1564 N 150.766 -0.704594 1.40972 0
M  V30 1565 C 151.991 -1.49858 1.43378 0
M  V30 1566 C 152.416 -1.88061 0.038184 0
M  V30 1567 O 151.774 -1.5402 -0.956425 0
M  V30 1568 C 151.822 -2.74333 2.34038 0
M  V30 1569 O 150.926 -3.7147 1.7912 0
M  V30 1570 H 150.267 -0.45139 0.486974 0
M  V30 1571 H 152.797 -0.866832 1.8533 0
M  V30 1572 H 152.807 -3.22741 2.49604 0
M  V30 1573 H 151.482 -2.45863 3.35446 0
M  V30 1574 H 150.059 -3.30363 1.72958 0
M  V30 1575 N 152.244 -1.26651 -0.937939 0
M  V30 1576 C 153.192 -1.08308 -2.05845 0
M  V30 1577 C 154.186 -0.0090757 -1.69398 0
M  V30 1578 O 155.392 -0.166007 -1.79233 0
M  V30 1579 H 151.767 -0.333416 -0.674046 0
M  V30 1580 H 153.738 -2.03261 -2.18467 0
M  V30 1581 C 152.487 -0.736229 -3.39816 0
M  V30 1582 H 151.81 -1.55453 -3.6834 0
M  V30 1583 H 153.25 -0.64769 -4.19024 0
M  V30 1584 C 151.709 0.558824 -3.32233 0
M  V30 1585 O 152.239 1.59621 -3.68624 0
M  V30 1586 N 150.445 0.550657 -2.85335 0
M  V30 1587 H 149.992 -0.293943 -2.55917 0
M  V30 1588 H 149.95 1.41726 -2.80644 0
M  V30 1589 N 153.722 1.14298 -1.08507 0
M  V30 1590 C 154.947 1.8976 -0.837001 0
M  V30 1591 C 155.372 1.78097 0.605228 0
M  V30 1592 O 154.73 1.12188 1.4242 0
M  V30 1593 C 154.778 3.37685 -1.26495 0
M  V30 1594 O 153.882 4.10281 -0.417514 0
M  V30 1595 H 153.223 0.590365 -0.303917 0
M  V30 1596 H 155.753 1.44672 -1.44676 0
M  V30 1597 H 155.763 3.88501 -1.24625 0
M  V30 1598 H 154.438 3.45492 -2.31534 0
M  V30 1599 H 153.015 3.69536 -0.499722 0
M  V30 1600 N 155.201 0.870884 1.31352 0
M  V30 1601 C 156.431 0.496049 2.00557 0
M  V30 1602 C 156.839 -0.916241 1.65534 0
M  V30 1603 O 156.182 -1.61188 0.881134 0
M  V30 1604 C 156.244 0.574418 3.54881 0
M  V30 1605 C 155.908 1.94849 4.1338 0
M  V30 1606 C 156.905 2.91611 4.30417 0
M  V30 1607 C 154.59 2.25005 4.49086 0
M  V30 1608 C 156.584 4.16672 4.82352 0
M  V30 1609 C 154.271 3.50315 5.00722 0
M  V30 1610 C 155.269 4.45964 5.17306 0
M  V30 1611 O 154.957 5.69052 5.67833 0
M  V30 1612 H 154.689 0.191664 0.64826 0
M  V30 1613 H 157.243 1.17409 1.68536 0
M  V30 1614 H 155.473 -0.160549 3.86367 0
M  V30 1615 H 157.162 0.212879 4.05341 0
M  V30 1616 H 157.928 2.69622 4.03149 0
M  V30 1617 H 153.807 1.51332 4.35453 0
M  V30 1618 H 157.351 4.91336 4.95211 0
M  V30 1619 H 153.248 3.72147 5.27424 0
M  V30 1620 H 154.016 5.71236 5.86201 0
M  V30 1621 N 156.679 -1.44442 0.630414 0
M  V30 1622 C 157.925 -2.02894 0.143332 0
M  V30 1623 C 158.28 -1.48697 -1.22094 0
M  V30 1624 O 157.573 -0.661171 -1.79831 0
M  V30 1625 C 157.767 -3.57332 0.0697835 0
M  V30 1626 C 157.596 -4.26512 1.42539 0
M  V30 1627 C 156.366 -4.63516 2.01198 0
M  V30 1628 C 158.564 -4.57004 2.35907 0
M  V30 1629 N 156.546 -5.17661 3.30001 0
M  V30 1630 C 157.917 -5.12223 3.49324 0
M  V30 1631 C 159.972 -4.38955 2.34995 0
M  V30 1632 C 158.675 -5.51295 4.62024 0
M  V30 1633 C 160.701 -4.79075 3.46758 0
M  V30 1634 C 160.063 -5.34407 4.58899 0
M  V30 1635 H 156.162 -0.776041 0.0963523 0
M  V30 1636 H 158.746 -1.75945 0.833752 0
M  V30 1637 H 156.917 -3.83894 -0.589915 0
M  V30 1638 H 158.649 -4.02451 -0.42606 0
M  V30 1639 H 155.404 -4.47811 1.54151 0
M  V30 1640 H 155.828 -5.4921 3.95851 0
M  V30 1641 H 160.47 -3.95469 1.49545 0
M  V30 1642 H 158.188 -5.93736 5.48182 0
M  V30 1643 H 161.774 -4.66824 3.47227 0
M  V30 1644 H 160.654 -5.64878 5.4395 0
M  V30 1645 N 158.157 -0.370918 -1.53173 0
M  V30 1646 C 159.387 0.217389 -2.05453 0
M  V30 1647 C 159.795 1.42568 -1.24382 0
M  V30 1648 O 159.138 1.81571 -0.278839 0
M  V30 1649 C 159.2 0.669827 -3.53205 0
M  V30 1650 C 158.864 -0.4225 -4.55043 0
M  V30 1651 C 159.861 -1.27407 -5.04047 0
M  V30 1652 C 157.546 -0.58427 -4.9889 0
M  V30 1653 C 159.54 -2.27271 -5.95505 0
M  V30 1654 C 157.227 -1.58627 -5.90153 0
M  V30 1655 C 158.225 -2.42892 -6.38351 0
M  V30 1656 O 157.913 -3.41382 -7.27814 0
M  V30 1657 H 157.645 0.0408171 -0.674767 0
M  V30 1658 H 160.199 -0.5292 -1.98466 0
M  V30 1659 H 158.429 1.4681 -3.57748 0
M  V30 1660 H 160.118 1.18173 -3.88317 0
M  V30 1661 H 160.884 -1.16031 -4.70916 0
M  V30 1662 H 156.763 0.061851 -4.60959 0
M  V30 1663 H 160.307 -2.93079 -6.33049 0
M  V30 1664 H 156.204 -1.70048 -6.22699 0
M  V30 1665 H 156.972 -3.37173 -7.45826 0
M  V30 1666 N 159.635 1.57281 -0.100228 0
M  V30 1667 C 160.882 1.94537 0.562268 0
M  V30 1668 C 161.21 0.982315 1.67871 0
M  V30 1669 O 160.465 0.00280936 1.957 0
M  V30 1670 C 160.764 3.38305 1.15259 0
M  V30 1671 C 160.43 4.50618 0.159409 0
M  V30 1672 C 159.092 4.81066 -0.113741 0
M  V30 1673 C 161.444 5.18615 -0.518461 0
M  V30 1674 C 158.772 5.76835 -1.07137 0
M  V30 1675 C 161.124 6.15412 -1.46459 0
M  V30 1676 C 159.788 6.44262 -1.74592 0
M  V30 1677 H 159.058 0.711863 0.205748 0
M  V30 1678 H 161.705 1.90679 -0.17715 0
M  V30 1679 H 160.01 3.38766 1.96836 0
M  V30 1680 H 161.707 3.64435 1.67297 0
M  V30 1681 H 158.297 4.2689 0.382491 0
M  V30 1682 H 162.481 4.95264 -0.320581 0
M  V30 1683 H 157.737 5.975 -1.29628 0
M  V30 1684 H 161.911 6.67194 -1.99564 0
M  V30 1685 H 159.538 7.1828 -2.48953 0
M  V30 1686 N 161.113 -0.173488 1.56642 0
M  V30 1687 C 162.39 -0.917617 1.7274 0
M  V30 1688 C 162.77 -2.00484 0.661027 0
M  V30 1689 O 162.118 -2.26184 -0.32453 0
M  V30 1690 C 162.328 -1.48433 3.15862 0
M  V30 1691 C 163.676 -1.95809 3.76754 0
M  V30 1692 O 164.7 -1.58231 3.19126 0
M  V30 1693 O 163.559 -2.65024 4.77938 0
M  V30 1694 H 160.653 -0.431772 0.705338 0
M  V30 1695 H 163.199 -0.161487 1.6893 0
M  V30 1696 H 161.971 -0.701715 3.84957 0
M  V30 1697 H 161.594 -2.30471 3.23989 0
M  V30 1698 N 162.591 -1.51276 -0.441967 0
M  V30 1699 C 163.837 -1.63958 -1.19355 0
M  V30 1700 C 164.17 -0.352543 -1.90973 0
M  V30 1701 O 163.445 0.647627 -1.83401 0
M  V30 1702 C 163.728 -2.83979 -2.21422 0
M  V30 1703 C 163.581 -4.22646 -1.53918 0
M  V30 1704 C 164.9 -2.99521 -3.22451 0
M  V30 1705 H 162.019 -0.596709 -0.432559 0
M  V30 1706 H 164.661 -1.83748 -0.483398 0
M  V30 1707 H 162.811 -2.67237 -2.81987 0
M  V30 1708 H 164.483 -4.51045 -0.967256 0
M  V30 1709 H 162.726 -4.25558 -0.841615 0
M  V30 1710 H 163.397 -5.02609 -2.28229 0
M  V30 1711 H 165.873 -3.14944 -2.71937 0
M  V30 1712 H 164.749 -3.85072 -3.91166 0
M  V30 1713 H 165.01 -2.11391 -3.88287 0
M  V30 1714 N 164.069 0.697108 -1.41344 0
M  V30 1715 C 165.315 1.45796 -1.41828 0
M  V30 1716 C 165.67 1.92382 -0.0261743 0
M  V30 1717 O 164.963 1.66522 0.947688 0
M  V30 1718 C 165.157 2.68553 -2.35826 0
M  V30 1719 C 164.986 2.33975 -3.84039 0
M  V30 1720 C 163.756 2.24414 -4.52732 0
M  V30 1721 C 165.954 1.97048 -4.75054 0
M  V30 1722 N 163.936 1.82705 -5.86082 0
M  V30 1723 C 165.307 1.66086 -5.9734 0
M  V30 1724 C 167.362 1.83845 -4.62715 0
M  V30 1725 C 166.065 1.23246 -7.08663 0
M  V30 1726 C 168.091 1.4241 -5.73998 0
M  V30 1727 C 167.453 1.12357 -6.95381 0
M  V30 1728 H 163.552 0.530859 -0.574206 0
M  V30 1729 H 166.136 0.806674 -1.77203 0
M  V30 1730 H 164.307 3.31404 -2.02549 0
M  V30 1731 H 166.039 3.35015 -2.2704 0
M  V30 1732 H 162.794 2.4276 -4.0665 0
M  V30 1733 H 163.218 1.64337 -6.56751 0
M  V30 1734 H 167.86 2.05734 -3.69369 0
M  V30 1735 H 165.578 1.00102 -8.01876 0
M  V30 1736 H 169.164 1.32746 -5.66454 0
M  V30 1737 H 168.044 0.807795 -7.80028 0
M  V30 1738 N 165.547 1.27147 0.931209 0
M  V30 1739 C 166.795 1.13055 1.6752 0
M  V30 1740 C 167.116 -0.324791 1.92276 0
M  V30 1741 O 166.386 -1.22775 1.52654 0
M  V30 1742 H 164.966 0.415391 0.620854 0
M  V30 1743 H 167.628 1.59623 1.11833 0
M  V30 1744 H 166.724 1.65694 2.64485 0
M  V30 1745 N 167.025 -1.13721 1.09112 0
M  V30 1746 C 168.253 -1.88773 0.846899 0
M  V30 1747 C 168.668 -1.7896 -0.601572 0
M  V30 1748 O 168.025 -1.15394 -1.41388 0
M  V30 1749 C 168.076 -3.3849 1.26913 0
M  V30 1750 O 167.797 -3.48043 2.66079 0
M  V30 1751 C 169.298 -4.30518 1.05682 0
M  V30 1752 H 166.518 -0.59772 0.304914 0
M  V30 1753 H 169.062 -1.43977 1.45227 0
M  V30 1754 H 167.217 -3.80881 0.707723 0
M  V30 1755 H 167.631 -4.4109 2.83795 0
M  V30 1756 H 169.105 -5.3391 1.40156 0
M  V30 1757 H 169.582 -4.392 -0.00563416 0
M  V30 1758 H 170.188 -3.93893 1.60402 0
M  V30 1759 N 168.503 -0.877838 -1.30888 0
M  V30 1760 C 169.751 -0.491723 -1.96027 0
M  V30 1761 C 170.072 0.960827 -1.69685 0
M  V30 1762 O 169.342 1.67462 -1.01654 0
M  V30 1763 H 167.922 -0.17885 -0.725273 0
M  V30 1764 H 170.584 -1.11935 -1.59551 0
M  V30 1765 H 169.68 -0.656016 -3.05128 0
M  V30 1766 N 169.982 1.44106 -0.638065 0
M  V30 1767 C 171.21 2.06336 -0.152615 0
M  V30 1768 C 171.625 1.47731 1.17563 0
M  V30 1769 O 170.982 0.602806 1.72257 0
M  V30 1770 C 171.033 3.61479 -0.0391491 0
M  V30 1771 O 170.754 4.17903 -1.31487 0
M  V30 1772 C 172.255 4.40757 0.474176 0
M  V30 1773 H 169.475 0.665862 -0.0828776 0
M  V30 1774 H 172.019 1.84862 -0.87443 0
M  V30 1775 H 170.174 3.82191 0.633142 0
M  V30 1776 H 170.588 5.11416 -1.16421 0
M  V30 1777 H 172.062 5.49707 0.502562 0
M  V30 1778 H 172.539 4.12697 1.50258 0
M  V30 1779 H 173.145 4.24979 -0.165102 0
M  V30 1780 N 171.46 0.379036 1.52974 0
M  V30 1781 C 172.688 -0.20679 2.05864 0
M  V30 1782 C 173.103 -1.41356 1.25155 0
M  V30 1783 O 172.46 -1.8009 0.295588 0
M  V30 1784 C 172.511 -0.587045 3.56702 0
M  V30 1785 O 172.232 0.571776 4.34353 0
M  V30 1786 C 173.733 -1.22983 4.25899 0
M  V30 1787 H 170.953 -0.0336123 0.670158 0
M  V30 1788 H 173.497 0.541298 1.97206 0
M  V30 1789 H 171.652 -1.28504 3.65466 0
M  V30 1790 H 172.066 0.261544 5.23847 0
M  V30 1791 H 173.54 -1.44635 5.32715 0
M  V30 1792 H 174.017 -2.19416 3.80465 0
M  V30 1793 H 174.623 -0.572892 4.21424 0
M  V30 1794 N 172.938 -1.57226 0.108567 0
M  V30 1795 C 174.184 -1.95121 -0.552761 0
M  V30 1796 C 174.517 -0.991345 -1.66991 0
M  V30 1797 O 173.792 -0.0267211 -1.94482 0
M  V30 1798 C 174.075 -3.43039 -1.09528 0
M  V30 1799 C 173.928 -4.49797 0.0177332 0
M  V30 1800 C 175.247 -3.92567 -1.98945 0
M  V30 1801 H 172.366 -0.709496 -0.199461 0
M  V30 1802 H 175.008 -1.89126 0.182011 0
M  V30 1803 H 173.158 -3.48279 -1.72146 0
M  V30 1804 H 174.83 -4.56661 0.652584 0
M  V30 1805 H 173.073 -4.284 0.682309 0
M  V30 1806 H 173.744 -5.50528 -0.402919 0
M  V30 1807 H 176.22 -3.89565 -1.46214 0
M  V30 1808 H 175.096 -4.96605 -2.33827 0
M  V30 1809 H 175.357 -3.32648 -2.91201 0
M  V30 1810 N 174.416 0.165178 -1.56732 0
M  V30 1811 C 175.644 0.896218 -1.86482 0
M  V30 1812 C 176.059 1.75555 -0.694675 0
M  V30 1813 O 175.416 1.79379 0.33607 0
M  V30 1814 C 175.467 1.76792 -3.1532 0
M  V30 1815 O 175.188 0.943239 -4.27825 0
M  V30 1816 C 176.689 2.6081 -3.58459 0
M  V30 1817 H 173.909 0.260064 -0.618553 0
M  V30 1818 H 176.453 0.163428 -2.03846 0
M  V30 1819 H 174.608 2.45398 -2.99764 0
M  V30 1820 H 175.022 1.53998 -5.01383 0
M  V30 1821 H 176.496 3.17579 -4.51495 0
M  V30 1822 H 176.973 3.35977 -2.82872 0
M  V30 1823 H 177.579 1.97526 -3.76648 0
M  V30 1824 N 175.894 1.51508 0.433938 0
M  V30 1825 C 177.14 1.64588 1.18484 0
M  V30 1826 C 177.473 0.362666 1.90784 0
M  V30 1827 O 176.748 -0.637892 1.83742 0
M  V30 1828 C 177.031 2.85149 2.19913 0
M  V30 1829 C 176.884 4.23456 1.51674 0
M  V30 1830 C 178.203 3.01227 3.20858 0
M  V30 1831 H 175.322 0.598994 0.429389 0
M  V30 1832 H 177.964 1.84002 0.473647 0
M  V30 1833 H 176.114 2.68729 2.80566 0
M  V30 1834 H 177.786 4.51552 0.943322 0
M  V30 1835 H 176.029 4.25998 0.819035 0
M  V30 1836 H 176.7 5.03812 2.2556 0
M  V30 1837 H 179.176 3.16382 2.70263 0
M  V30 1838 H 178.052 3.87141 3.89118 0
M  V30 1839 H 178.313 2.13447 3.8716 0
M  V30 1840 N 177.372 -0.689602 1.41712 0
M  V30 1841 C 178.597 -1.48329 1.44959 0
M  V30 1842 C 179.022 -1.8801 0.0581283 0
M  V30 1843 O 178.38 -1.55026 -0.940035 0
M  V30 1844 C 178.428 -2.71835 2.36935 0
M  V30 1845 O 177.532 -3.69549 1.8305 0
M  V30 1846 H 176.873 -0.446199 0.491734 0
M  V30 1847 H 179.403 -0.847127 1.86239 0
M  V30 1848 H 179.413 -3.20076 2.53013 0
M  V30 1849 H 178.088 -2.42291 3.38035 0
M  V30 1850 H 176.665 -3.2851 1.76452 0
M  V30 1851 N 178.85 -1.27639 -0.924453 0
M  V30 1852 C 180.098 -1.13941 -1.66918 0
M  V30 1853 C 180.419 0.314589 -1.92446 0
M  V30 1854 O 179.689 1.21964 -1.53303 0
M  V30 1855 H 178.269 -0.418678 -0.618642 0
M  V30 1856 H 180.931 -1.60213 -1.10985 0
M  V30 1857 H 180.027 -1.67094 -2.63602 0
M  V30 1858 N 180.328 1.1314 -1.09713 0
M  V30 1859 C 181.739 1.66029 -0.853885 0
M  V30 1860 C 182.09 1.86241 0.617142 0
M  V30 1861 O 181.215 1.5834 1.47503 0
M  V30 1862 C 181.81 3.01599 -1.5435 0
M  V30 1863 C 180.369 3.51467 -1.34714 0
M  V30 1864 C 179.516 2.26648 -1.59769 0
M  V30 1865 H 182.467 0.970226 -1.25588 0
M  V30 1866 H 182.488 3.67709 -0.978267 0
M  V30 1867 H 182 2.86856 -2.6141 0
M  V30 1868 H 180.101 3.71408 -0.297838 0
M  V30 1869 H 180.214 4.314 -2.08401 0
M  V30 1870 H 178.578 2.33385 -1.01998 0
M  V30 1871 H 179.361 2.14467 -2.68065 0
M  V30 1872 N 181.806 0.884767 1.30421 0
M  V30 1873 C 183.031 0.517288 2.00845 0
M  V30 1874 C 183.456 -0.886779 1.65885 0
M  V30 1875 O 182.814 -1.58768 0.875354 0
M  V30 1876 C 182.862 0.698994 3.5376 0
M  V30 1877 O 181.966 -0.255208 4.1161 0
M  V30 1878 H 181.307 0.203872 0.631927 0
M  V30 1879 H 183.837 1.19225 1.66272 0
M  V30 1880 H 183.847 0.597912 4.03595 0
M  V30 1881 H 182.522 1.72271 3.78544 0
M  V30 1882 H 181.099 -0.10784 3.72744 0
M  V30 1883 N 183.284 -1.43765 0.645699 0
M  V30 1884 C 184.53 -2.02197 0.156271 0
M  V30 1885 C 184.863 -1.50776 -1.22393 0
M  V30 1886 O 184.138 -0.697771 -1.81553 0
M  V30 1887 C 184.421 -3.59749 0.158872 0
M  V30 1888 C 184.274 -4.21419 1.57245 0
M  V30 1889 C 185.593 -4.37149 -0.50879 0
M  V30 1890 H 182.712 -0.734694 0.0582602 0
M  V30 1891 H 185.354 -1.71157 0.824951 0
M  V30 1892 H 183.504 -3.86325 -0.410525 0
M  V30 1893 H 185.176 -4.059 2.19186 0
M  V30 1894 H 183.419 -3.78356 2.122 0
M  V30 1895 H 184.09 -5.30482 1.52619 0
M  V30 1896 H 186.566 -4.16093 -0.024412 0
M  V30 1897 H 185.442 -5.4683 -0.476213 0
M  V30 1898 H 185.703 -4.12839 -1.58165 0
M  V30 1899 N 184.763 -0.387143 -1.52771 0
M  V30 1900 C 186.01 0.195735 -2.01552 0
M  V30 1901 C 186.338 1.46995 -1.27369 0
M  V30 1902 O 185.593 1.92325 -0.361879 0
M  V30 1903 C 185.892 0.512209 -3.53711 0
M  V30 1904 C 185.558 -0.670202 -4.45891 0
M  V30 1905 C 184.22 -0.994586 -4.70809 0
M  V30 1906 C 186.572 -1.46134 -5.00294 0
M  V30 1907 C 183.9 -2.11169 -5.4738 0
M  V30 1908 C 186.252 -2.56903 -5.78086 0
M  V30 1909 C 184.916 -2.89852 -6.01284 0
M  V30 1910 H 184.186 0.0716246 -0.73753 0
M  V30 1911 H 186.833 -0.524046 -1.8419 0
M  V30 1912 H 185.138 1.31329 -3.69134 0
M  V30 1913 H 186.835 0.975804 -3.88946 0
M  V30 1914 H 183.425 -0.407366 -4.2666 0
M  V30 1915 H 187.609 -1.22397 -4.80971 0
M  V30 1916 H 182.865 -2.3707 -5.63567 0
M  V30 1917 H 187.039 -3.18608 -6.19243 0
M  V30 1918 H 184.666 -3.76533 -6.60399 0
M  V30 1919 N 186.241 1.57166 -0.116904 0
M  V30 1920 C 187.652 1.82169 0.408809 0
M  V30 1921 C 188.003 1.03393 1.66746 0
M  V30 1922 O 187.128 0.269886 2.1471 0
M  V30 1923 C 187.723 3.30429 0.748466 0
M  V30 1924 C 186.282 3.5612 1.21882 0
M  V30 1925 C 185.429 2.76374 0.226452 0
M  V30 1926 H 188.38 1.5497 -0.342063 0
M  V30 1927 H 188.401 3.44943 1.60607 0
M  V30 1928 H 187.913 3.87737 -0.167784 0
M  V30 1929 H 186.014 3.04168 2.15204 0
M  V30 1930 H 186.127 4.64705 1.16559 0
M  V30 1931 H 184.491 2.44515 0.713063 0
M  V30 1932 H 185.274 3.3644 -0.682859 0
M  V30 1933 N 187.719 -0.156864 1.56817 0
M  V30 1934 C 188.649 -1.19589 2.00551 0
M  V30 1935 C 189.63 -1.4536 0.883426 0
M  V30 1936 O 190.815 -1.56449 1.15054 0
M  V30 1937 C 187.945 -2.53143 2.37773 0
M  V30 1938 C 186.899 -2.41913 3.53075 0
M  V30 1939 C 186.225 -3.80088 3.76081 0
M  V30 1940 C 187.525 -1.91157 4.86062 0
M  V30 1941 H 189.219 -0.832293 2.87599 0
M  V30 1942 H 186.765 -0.398918 1.38364 0
M  V30 1943 H 188.718 -3.26047 2.66967 0
M  V30 1944 H 187.442 -2.91319 1.4765 0
M  V30 1945 H 186.101 -1.71462 3.24031 0
M  V30 1946 H 185.749 -4.15683 2.83225 0
M  V30 1947 H 185.449 -3.73439 4.53671 0
M  V30 1948 H 186.973 -4.54556 4.0769 0
M  V30 1949 H 188.387 -2.53846 5.14038 0
M  V30 1950 H 186.784 -1.95422 5.67389 0
M  V30 1951 H 187.854 -0.866673 4.77092 0
M  V30 1952 N 189.197 -1.51736 -0.425897 0
M  V30 1953 C 190.16 -1.73271 -1.50032 0
M  V30 1954 C 191.16 -0.602639 -1.4908 0
M  V30 1955 O 192.35 -0.87033 -1.509 0
M  V30 1956 C 189.482 -1.79969 -2.89523 0
M  V30 1957 H 190.675 -2.69172 -1.32237 0
M  V30 1958 H 188.228 -1.41899 -0.65532 0
M  V30 1959 H 188.963 -0.859241 -3.1271 0
M  V30 1960 H 188.748 -2.62109 -2.91619 0
M  V30 1961 H 190.238 -1.9843 -3.67444 0
M  V30 1962 N 190.675 0.682077 -1.42076 0
M  V30 1963 C 192.086 1.26246 -1.37546 0
M  V30 1964 C 192.437 1.96092 -0.0651481 0
M  V30 1965 O 191.562 1.99587 0.836297 0
M  V30 1966 C 192.157 2.29594 -2.49143 0
M  V30 1967 C 190.716 2.83175 -2.47969 0
M  V30 1968 C 189.863 1.57395 -2.28303 0
M  V30 1969 H 192.814 0.475937 -1.51395 0
M  V30 1970 H 192.835 3.11175 -2.18976 0
M  V30 1971 H 192.347 1.78729 -3.44496 0
M  V30 1972 H 190.448 3.3818 -1.56413 0
M  V30 1973 H 190.561 3.32687 -3.44755 0
M  V30 1974 H 188.925 1.83699 -1.76428 0
M  V30 1975 H 189.708 1.08507 -3.25701 0
M  V30 1976 N 192.153 1.28127 0.917671 0
M  V30 1977 C 193.378 1.18007 1.70555 0
M  V30 1978 C 193.803 -0.258257 1.86319 0
M  V30 1979 O 193.161 -1.1869 1.37049 0
M  V30 1980 C 193.209 1.87948 3.07746 0
M  V30 1981 O 192.313 1.18427 3.9503 0
M  V30 1982 H 191.654 0.409867 0.522403 0
M  V30 1983 H 194.184 1.69379 1.1477 0
M  V30 1984 H 194.194 1.95701 3.58001 0
M  V30 1985 H 192.869 2.92573 2.95591 0
M  V30 1986 H 191.446 1.18811 3.53466 0
M  V30 1987 N 193.631 -1.12557 1.10312 0
M  V30 1988 C 194.856 -1.88405 0.867085 0
M  V30 1989 C 195.281 -1.79038 -0.576817 0
M  V30 1990 O 194.639 -1.14439 -1.40618 0
M  V30 1991 C 194.687 -3.3563 1.31851 0
M  V30 1992 O 193.791 -4.09565 0.482734 0
M  V30 1993 H 193.132 -0.585455 0.313271 0
M  V30 1994 H 195.662 -1.42352 1.4696 0
M  V30 1995 H 195.672 -3.86469 1.3079 0
M  V30 1996 H 194.347 -3.41765 2.37001 0
M  V30 1997 H 192.924 -3.68695 0.558448 0
M  V30 1998 N 195.109 -0.891671 -1.2995 0
M  V30 1999 C 196.056 -0.361736 -2.27948 0
M  V30 2000 C 197.026 0.551761 -1.56668 0
M  V30 2001 O 198.211 0.478736 -1.84696 0
M  V30 2002 C 195.351 0.411825 -3.42634 0
M  V30 2003 C 194.464 -0.531651 -4.28716 0
M  V30 2004 C 193.599 0.258167 -5.30572 0
M  V30 2005 C 192.638 -0.680349 -6.08307 0
M  V30 2006 N 191.775 0.0745613 -7.0206 0
M  V30 2007 H 196.615 -1.20254 -2.72659 0
M  V30 2008 H 194.152 -0.604352 -1.34112 0
M  V30 2009 H 196.11 0.876304 -4.07893 0
M  V30 2010 H 194.74 1.21715 -2.98974 0
M  V30 2011 H 193.792 -1.11463 -3.63703 0
M  V30 2012 H 195.104 -1.25038 -4.82874 0
M  V30 2013 H 194.258 0.784204 -6.0161 0
M  V30 2014 H 192.997 1.01008 -4.77126 0
M  V30 2015 H 192.002 -1.21796 -5.3614 0
M  V30 2016 H 193.227 -1.43145 -6.63842 0
M  V30 2017 H 191.173 0.808883 -6.50994 0
M  V30 2018 H 191.09 -0.584409 -7.53738 0
M  V30 2019 H 192.358 0.581123 -7.77331 0
M  V30 2020 N 196.587 1.43421 -0.653314 0
M  V30 2021 C 197.812 2.06678 -0.172846 0
M  V30 2022 C 198.237 1.48648 1.15262 0
M  V30 2023 O 197.595 0.596457 1.71208 0
M  V30 2024 C 197.643 3.60474 -0.0953184 0
M  V30 2025 O 196.747 4.01487 0.942442 0
M  V30 2026 H 196.088 0.657181 -0.0949155 0
M  V30 2027 H 198.618 1.83925 -0.896265 0
M  V30 2028 H 198.628 4.07905 0.0879728 0
M  V30 2029 H 197.303 4.02088 -1.06291 0
M  V30 2030 H 195.88 3.65646 0.731932 0
M  V30 2031 N 198.065 0.39524 1.52563 0
M  V30 2032 C 199.293 -0.184943 2.06072 0
M  V30 2033 C 199.708 -1.40021 1.26647 0
M  V30 2034 O 199.065 -1.79767 0.314672 0
M  V30 2035 C 199.116 -0.549179 3.57304 0
M  V30 2036 O 198.837 0.617813 4.33722 0
M  V30 2037 C 200.338 -1.18459 4.2718 0
M  V30 2038 H 197.558 -0.0265025 0.670476 0
M  V30 2039 H 200.102 0.562184 1.96621 0
M  V30 2040 H 198.257 -1.2462 3.66809 0
M  V30 2041 H 198.671 0.317091 5.23541 0
M  V30 2042 H 200.145 -1.38976 5.34219 0
M  V30 2043 H 200.622 -2.15368 3.82771 0
M  V30 2044 H 201.228 -0.528163 4.22008 0
M  V30 2045 N 199.544 -1.57102 0.125237 0
M  V30 2046 C 200.769 -2.0019 -0.542101 0
M  V30 2047 C 201.194 -1.00449 -1.59034 0
M  V30 2048 O 200.552 0.0229423 -1.81285 0
M  V30 2049 C 200.6 -3.42129 -1.13929 0
M  V30 2050 O 199.704 -3.45307 -2.2547 0
M  V30 2051 H 199.045 -0.650171 -0.134812 0
M  V30 2052 H 201.575 -2.03461 0.215553 0
M  V30 2053 H 201.585 -3.80471 -1.4733 0
M  V30 2054 H 200.26 -4.14237 -0.371531 0
M  V30 2055 H 198.837 -3.1879 -1.93462 0
M  V30 2056 N 201.022 0.148545 -1.56898 0
M  V30 2057 C 202.27 0.859717 -1.82902 0
M  V30 2058 C 202.591 1.81775 -0.70588 0
M  V30 2059 O 201.861 1.93994 0.272586 0
M  V30 2060 H 200.441 0.320469 -0.674766 0
M  V30 2061 H 203.103 0.142918 -1.94375 0
M  V30 2062 H 202.199 1.4229 -2.77777 0
M  V30 2063 N 202.5 1.5196 0.417844 0
M  V30 2064 C 203.748 1.65263 1.16329 0
M  V30 2065 C 204.069 0.380634 1.91249 0
M  V30 2066 O 203.339 -0.604214 1.86349 0
M  V30 2067 H 201.919 0.60912 0.432414 0
M  V30 2068 H 204.581 1.88969 0.477162 0
M  V30 2069 H 203.677 2.4896 1.88217 0
M  V30 2070 N 203.978 -0.674533 1.42435 0
M  V30 2071 C 205.206 -1.46283 1.46317 0
M  V30 2072 C 205.621 -1.88653 0.0745836 0
M  V30 2073 O 204.978 -1.58151 -0.91074 0
M  V30 2074 C 205.029 -2.71178 2.3905 0
M  V30 2075 O 204.75 -2.30586 3.72507 0
M  V30 2076 C 206.251 -3.64738 2.51955 0
M  V30 2077 H 203.471 -0.450104 0.497642 0
M  V30 2078 H 206.015 -0.828792 1.86953 0
M  V30 2079 H 204.17 -3.3077 2.01667 0
M  V30 2080 H 204.584 -3.11241 4.22172 0
M  V30 2081 H 206.058 -4.49096 3.20962 0
M  V30 2082 H 206.535 -4.10656 1.55752 0
M  V30 2083 H 207.141 -3.11038 2.90061 0
M  V30 2084 N 205.456 -1.28612 -0.910864 0
M  V30 2085 C 206.419 -1.12803 -1.9952 0
M  V30 2086 C 207.419 -0.0668264 -1.60661 0
M  V30 2087 O 208.609 -0.312847 -1.71368 0
M  V30 2088 C 205.741 -0.72254 -3.33155 0
M  V30 2089 H 206.934 -2.09109 -2.14973 0
M  V30 2090 H 204.487 -1.11639 -1.09391 0
M  V30 2091 H 205.222 0.241152 -3.23402 0
M  V30 2092 H 205.007 -1.48916 -3.62721 0
M  V30 2093 H 206.497 -0.634666 -4.12749 0
M  V30 2094 N 206.934 1.1197 -1.10907 0
M  V30 2095 C 207.897 2.16031 -0.765707 0
M  V30 2096 C 208.897 1.59393 0.212235 0
M  V30 2097 O 210.087 1.74196 -0.0115441 0
M  V30 2098 C 207.219 3.40632 -0.135053 0
M  V30 2099 H 208.412 2.47919 -1.68748 0
M  V30 2100 H 205.965 1.27061 -0.910226 0
M  V30 2101 H 206.7 3.14348 0.797218 0
M  V30 2102 H 206.485 3.8302 -0.838937 0
M  V30 2103 H 207.975 4.17505 0.0892469 0
M  V30 2104 N 208.412 0.89855 1.29475 0
M  V30 2105 C 209.342 0.39201 2.30186 0
M  V30 2106 C 210.323 -0.532359 1.61555 0
M  V30 2107 O 211.508 -0.443331 1.89072 0
M  V30 2108 C 208.638 -0.382353 3.45189 0
M  V30 2109 C 207.592 0.451483 4.25612 0
M  V30 2110 C 206.918 -0.450307 5.328 0
M  V30 2111 C 208.218 1.70079 4.93832 0
M  V30 2112 H 209.912 1.23362 2.72804 0
M  V30 2113 H 207.458 0.594638 1.31149 0
M  V30 2114 H 209.411 -0.747451 4.14718 0
M  V30 2115 H 208.135 -1.25774 3.01411 0
M  V30 2116 H 206.794 0.798897 3.57789 0
M  V30 2117 H 206.442 -1.32379 4.85268 0
M  V30 2118 H 206.142 0.103902 5.87508 0
M  V30 2119 H 207.666 -0.811623 6.05182 0
M  V30 2120 H 209.08 1.40549 5.55805 0
M  V30 2121 H 207.477 2.19623 5.58467 0
M  V30 2122 H 208.547 2.43744 4.19186 0
M  V30 2123 N 209.89 -1.43072 0.660911 0
M  V30 2124 C 211.138 -2.01323 0.177094 0
M  V30 2125 C 211.459 -1.5245 -1.2159 0
M  V30 2126 O 210.729 -0.740322 -1.81373 0
M  V30 2127 H 209.309 -0.744382 0.0624804 0
M  V30 2128 H 211.971 -1.75179 0.854305 0
M  V30 2129 H 211.067 -3.11649 0.167641 0
M  V30 2130 N 211.368 -0.403325 -1.52352 0
M  V30 2131 C 212.608 0.173946 -2.03659 0
M  V30 2132 C 212.972 1.42869 -1.28267 0
M  V30 2133 O 214.173 2.08403 -1.69769 0
M  V30 2134 C 212.444 0.421478 -3.54906 0
M  V30 2135 S 214.003 0.967027 -4.28012 0
M  V30 2136 H 210.821 0.0477461 -0.709395 0
M  V30 2137 H 213.423 -0.554906 -1.87459 0
M  V30 2138 H 212.127 -0.498616 -4.0736 0
M  V30 2139 H 211.658 1.17837 -3.75337 0
M  V30 2140 H 213.673 2.24812 -4.4235 0
M  V30 2141 N 212.846 1.57033 -0.133567 0
M  V30 2142 C 213.776 2.1909 0.807567 0
M  V30 2143 C 214.757 1.13517 1.26681 0
M  V30 2144 O 215.942 1.41809 1.32679 0
M  V30 2145 C 213.072 2.80188 2.05212 0
M  V30 2146 C 212.026 3.91471 1.73015 0
M  V30 2147 C 211.352 4.39443 3.04622 0
M  V30 2148 C 212.652 5.12886 0.987168 0
M  V30 2149 H 214.346 2.97988 0.290403 0
M  V30 2150 H 211.892 1.43335 0.138239 0
M  V30 2151 H 213.845 3.22264 2.71521 0
M  V30 2152 H 212.569 1.98601 2.59278 0
M  V30 2153 H 211.228 3.49993 1.0909 0
M  V30 2154 H 210.876 3.54695 3.56651 0
M  V30 2155 H 210.576 5.14495 2.83847 0
M  V30 2156 H 212.1 4.8418 3.72024 0
M  V30 2157 H 213.514 5.51891 1.55208 0
M  V30 2158 H 211.911 5.93615 0.87985 0
M  V30 2159 H 212.981 4.84894 -0.0235286 0
M  V30 2160 N 214.325 -0.140222 1.56975 0
M  V30 2161 C 215.571 -0.852949 1.83991 0
M  V30 2162 C 215.904 -1.80512 0.716187 0
M  V30 2163 O 215.179 -1.92479 -0.279681 0
M  V30 2164 C 215.462 -1.6215 3.21527 0
M  V30 2165 C 215.315 -0.690363 4.4447 0
M  V30 2166 C 216.634 -2.58247 3.56366 0
M  V30 2167 H 213.753 -0.308634 0.669264 0
M  V30 2168 H 216.395 -0.117898 1.89634 0
M  V30 2169 H 214.545 -2.24812 3.16847 0
M  V30 2170 H 216.217 -0.0742264 4.6124 0
M  V30 2171 H 214.46 -0.000396433 4.338 0
M  V30 2172 H 215.131 -1.2643 5.37326 0
M  V30 2173 H 217.607 -2.05701 3.61699 0
M  V30 2174 H 216.483 -3.09067 4.53617 0
M  V30 2175 H 216.744 -3.39923 2.82674 0
M  V30 2176 N 215.803 -1.52179 -0.40978 0
M  V30 2177 C 216.75 -1.75475 -1.49924 0
M  V30 2178 C 217.72 -0.597175 -1.54994 0
M  V30 2179 O 218.905 -0.834655 -1.71575 0
M  V30 2180 C 216.045 -1.9107 -2.87378 0
M  V30 2181 C 215.158 -3.18717 -2.91622 0
M  V30 2182 C 214.293 -3.24747 -4.20372 0
M  V30 2183 C 213.332 -4.46598 -4.18588 0
M  V30 2184 N 212.469 -4.50025 -5.38908 0
M  V30 2185 H 217.309 -2.68458 -1.29361 0
M  V30 2186 H 214.846 -1.33024 -0.627934 0
M  V30 2187 H 216.804 -1.98096 -3.6717 0
M  V30 2188 H 215.434 -1.01469 -3.06437 0
M  V30 2189 H 214.486 -3.20866 -2.04326 0
M  V30 2190 H 215.798 -4.08544 -2.86169 0
M  V30 2191 H 214.952 -3.30841 -5.08556 0
M  V30 2192 H 213.691 -2.32857 -4.28519 0
M  V30 2193 H 212.696 -4.40652 -3.28794 0
M  V30 2194 H 213.921 -5.39783 -4.12081 0
M  V30 2195 H 211.867 -3.61017 -5.47725 0
M  V30 2196 H 211.784 -5.33697 -5.35447 0
M  V30 2197 H 213.052 -4.60347 -6.29048 0
M  V30 2198 N 217.281 0.66697 -1.42791 0
M  V30 2199 C 218.558 1.4234 -1.34159 0
M  V30 2200 C 218.938 2.11093 0.0172729 0
M  V30 2201 O 218.286 2.03808 1.03318 0
M  V30 2202 C 218.496 2.41942 -2.51526 0
M  V30 2203 C 219.844 3.06353 -2.93995 0
M  V30 2204 O 220.868 2.52269 -2.51473 0
M  V30 2205 O 219.727 4.04376 -3.67617 0
M  V30 2206 H 216.821 0.635277 -0.529483 0
M  V30 2207 H 219.367 0.695034 -1.54814 0
M  V30 2208 H 218.139 1.89991 -3.42081 0
M  V30 2209 H 217.762 3.22249 -2.32898 0
M  V30 2210 N 218.759 1.29093 0.90403 0
M  V30 2211 C 219.989 1.19516 1.68522 0
M  V30 2212 C 220.397 -0.24738 1.87576 0
M  V30 2213 O 219.74 -1.17798 1.40959 0
M  V30 2214 C 219.802 1.83249 3.0929 0
M  V30 2215 C 219.466 3.32531 3.13484 0
M  V30 2216 C 220.463 4.28821 2.93953 0
M  V30 2217 C 218.148 3.73656 3.35688 0
M  V30 2218 C 220.142 5.64212 2.96553 0
M  V30 2219 C 217.829 5.0917 3.37919 0
M  V30 2220 C 218.827 6.04258 3.18373 0
M  V30 2221 O 218.515 7.37298 3.20385 0
M  V30 2222 H 218.247 0.415467 0.533257 0
M  V30 2223 H 220.801 1.70912 1.13922 0
M  V30 2224 H 219.031 1.26358 3.65473 0
M  V30 2225 H 220.72 1.68054 3.69476 0
M  V30 2226 H 221.486 3.98382 2.76616 0
M  V30 2227 H 217.365 3.00101 3.49943 0
M  V30 2228 H 220.909 6.38407 2.81216 0
M  V30 2229 H 216.806 5.39256 3.54787 0
M  V30 2230 H 217.574 7.46048 3.36681 0
M  V30 2231 N 220.237 -1.11381 1.11499 0
M  V30 2232 C 221.484 -1.83132 0.864231 0
M  V30 2233 C 221.812 -1.84683 -0.610114 0
M  V30 2234 O 221.067 -1.29589 -1.46646 0
M  V30 2235 C 221.366 -3.30026 1.37177 0
M  V30 2236 C 221.032 -3.48634 2.85946 0
M  V30 2237 C 219.694 -3.53421 3.26569 0
M  V30 2238 C 222.046 -3.54837 3.81759 0
M  V30 2239 C 219.374 -3.61967 4.61733 0
M  V30 2240 C 221.726 -3.64915 5.1674 0
M  V30 2241 C 220.39 -3.67962 5.5692 0
M  V30 2242 H 219.66 -0.670127 0.316245 0
M  V30 2243 H 222.307 -1.31354 1.3935 0
M  V30 2244 H 220.612 -3.84304 0.762753 0
M  V30 2245 H 222.309 -3.84034 1.15408 0
M  V30 2246 H 218.899 -3.45579 2.53521 0
M  V30 2247 H 223.083 -3.50399 3.51474 0
M  V30 2248 H 218.339 -3.62603 4.92269 0
M  V30 2249 H 222.513 -3.68658 5.90816 0
M  V30 2250 H 220.14 -3.74336 6.61647 0
M  V30 2251 N 221.715 -0.905404 -1.28997 0
M  V30 2252 C 223.126 -0.581953 -1.77398 0
M  V30 2253 C 223.477 0.902552 -1.74208 0
M  V30 2254 O 222.602 1.70584 -1.33154 0
M  V30 2255 C 223.197 -1.04961 -3.22131 0
M  V30 2256 C 221.756 -0.777229 -3.68288 0
M  V30 2257 C 220.903 -1.22109 -2.48967 0
M  V30 2258 H 223.854 -1.08754 -1.15578 0
M  V30 2259 H 223.875 -0.387387 -3.78523 0
M  V30 2260 H 223.387 -2.13008 -3.24421 0
M  V30 2261 H 221.488 0.290383 -3.71467 0
M  V30 2262 H 221.601 -1.37911 -4.58822 0
M  V30 2263 H 219.965 -0.639971 -2.46529 0
M  V30 2264 H 220.748 -2.30972 -2.53982 0
M  V30 2265 N 223.193 1.4272 -0.668489 0
M  V30 2266 C 224.103 2.34596 0.0139753 0
M  V30 2267 C 225.119 1.5474 0.795703 0
M  V30 2268 O 226.295 1.87334 0.739466 0
M  V30 2269 C 223.36 3.33202 0.957982 0
M  V30 2270 C 222.421 4.28957 0.17149 0
M  V30 2271 C 221.654 5.22853 1.07053 0
M  V30 2272 O 221.877 5.21531 2.31001 0
M  V30 2273 O 220.811 5.9952 0.534727 0
M  V30 2274 H 224.637 2.9448 -0.742661 0
M  V30 2275 H 222.222 1.43117 -0.428705 0
M  V30 2276 H 224.104 3.93796 1.50008 0
M  V30 2277 H 222.779 2.758 1.69458 0
M  V30 2278 H 221.686 3.71796 -0.414558 0
M  V30 2279 H 223.019 4.89383 -0.52586 0
M  V30 2280 N 224.671 0.411399 1.52136 0
M  V30 2281 C 226.082 -0.0576826 1.86611 0
M  V30 2282 C 226.433 -1.44238 1.33003 0
M  V30 2283 O 225.558 -2.05759 0.670228 0
M  V30 2284 C 226.153 -0.111448 3.38617 0
M  V30 2285 C 224.712 -0.52487 3.72723 0
M  V30 2286 C 223.859 0.299176 2.75681 0
M  V30 2287 H 226.81 0.628368 1.4573 0
M  V30 2288 H 226.831 -0.926252 3.69054 0
M  V30 2289 H 226.343 0.896488 3.77604 0
M  V30 2290 H 224.444 -1.53936 3.39315 0
M  V30 2291 H 224.557 -0.267681 4.78352 0
M  V30 2292 H 222.921 -0.238814 2.53578 0
M  V30 2293 H 223.704 1.3055 3.17508 0
M  V30 2294 N 226.149 -1.5696 0.141893 0
M  V30 2295 C 227.395 -1.9625 -0.511248 0
M  V30 2296 C 227.728 -1.02654 -1.64851 0
M  V30 2297 O 227.003 -0.0679676 -1.94381 0
M  V30 2298 C 227.286 -3.45285 -1.02227 0
M  V30 2299 C 227.139 -4.49658 0.113138 0
M  V30 2300 C 228.458 -3.96698 -1.90574 0
M  V30 2301 H 225.577 -0.713567 -0.184367 0
M  V30 2302 H 228.219 -1.88698 0.222087 0
M  V30 2303 H 226.369 -3.51852 -1.64719 0
M  V30 2304 H 228.041 -4.55174 0.749302 0
M  V30 2305 H 226.284 -4.26857 0.773026 0
M  V30 2306 H 226.955 -5.51258 -0.286053 0
M  V30 2307 H 229.431 -3.92578 -1.37918 0
M  V30 2308 H 228.307 -5.01453 -2.2324 0
M  V30 2309 H 228.568 -3.3875 -2.84079 0
M  V30 2310 N 227.627 0.131896 -1.57047 0
M  V30 2311 C 228.855 0.856461 -1.88341 0
M  V30 2312 C 229.27 1.74042 -0.731757 0
M  V30 2313 O 228.627 1.80051 0.297945 0
M  V30 2314 C 228.678 1.70064 -3.18999 0
M  V30 2315 O 228.399 0.852278 -4.2973 0
M  V30 2316 C 229.9 2.53148 -3.63911 0
M  V30 2317 H 227.12 0.246885 -0.62393 0
M  V30 2318 H 229.664 0.120152 -2.04147 0
M  V30 2319 H 227.819 2.38984 -3.04902 0
M  V30 2320 H 228.233 1.43329 -5.04537 0
M  V30 2321 H 229.707 3.07931 -4.58129 0
M  V30 2322 H 230.184 3.29901 -2.89935 0
M  V30 2323 H 230.79 1.89492 -3.80753 0
M  V30 2324 N 229.106 1.52395 0.401703 0
M  V30 2325 C 230.352 1.67065 1.14966 0
M  V30 2326 C 230.685 0.403052 1.89971 0
M  V30 2327 O 229.96 -0.598774 1.85054 0
M  V30 2328 C 230.243 2.8975 2.13815 0
M  V30 2329 C 230.096 4.26578 1.42658 0
M  V30 2330 C 231.415 3.07965 3.14397 0
M  V30 2331 H 228.534 0.607968 0.416587 0
M  V30 2332 H 231.176 1.84965 0.434511 0
M  V30 2333 H 229.326 2.74619 2.74803 0
M  V30 2334 H 230.998 4.53451 0.847329 0
M  V30 2335 H 229.241 4.27639 0.72849 0
M  V30 2336 H 229.912 5.08483 2.14823 0
M  V30 2337 H 232.388 3.22043 2.63491 0
M  V30 2338 H 231.264 3.95308 3.80819 0
M  V30 2339 H 231.525 2.21611 3.82545 0
M  V30 2340 N 230.584 -0.659388 1.43143 0
M  V30 2341 C 231.809 -1.45221 1.48073 0
M  V30 2342 C 232.234 -1.87845 0.097995 0
M  V30 2343 O 231.592 -1.56985 -0.90694 0
M  V30 2344 C 231.64 -2.66748 2.42647 0
M  V30 2345 O 230.744 -3.65583 1.90848 0
M  V30 2346 H 230.085 -0.435669 0.501088 0
M  V30 2347 H 232.615 -0.807432 1.87994 0
M  V30 2348 H 232.625 -3.14637 2.59745 0
M  V30 2349 H 231.3 -2.35067 3.43098 0
M  V30 2350 H 229.877 -3.24693 1.83381 0
M  V30 2351 N 232.062 -1.29571 -0.897171 0
M  V30 2352 C 233.308 -1.18873 -1.65048 0
M  V30 2353 C 233.663 0.256707 -1.9068 0
M  V30 2354 O 232.956 1.18202 -1.50794 0
M  V30 2355 C 233.15 -1.9382 -3.00281 0
M  V30 2356 C 232.979 -3.45503 -2.8785 0
M  V30 2357 C 231.749 -4.14856 -2.88483 0
M  V30 2358 C 233.947 -4.40956 -2.64693 0
M  V30 2359 N 231.929 -5.52886 -2.66815 0
M  V30 2360 C 233.3 -5.66464 -2.5203 0
M  V30 2361 C 235.355 -4.3069 -2.49821 0
M  V30 2362 C 234.058 -6.82871 -2.26008 0
M  V30 2363 C 236.084 -5.46852 -2.25182 0
M  V30 2364 C 235.446 -6.71333 -2.13286 0
M  V30 2365 H 231.545 -0.489998 -0.609447 0
M  V30 2366 H 234.129 -1.63431 -1.05822 0
M  V30 2367 H 232.3 -1.51671 -3.57562 0
M  V30 2368 H 234.032 -1.75366 -3.64731 0
M  V30 2369 H 230.787 -3.66579 -2.99861 0
M  V30 2370 H 231.211 -6.25487 -2.59027 0
M  V30 2371 H 235.853 -3.35141 -2.5776 0
M  V30 2372 H 233.571 -7.78473 -2.16806 0
M  V30 2373 H 237.157 -5.40809 -2.14515 0
M  V30 2374 H 236.037 -7.59701 -1.94485 0
M  V30 2375 N 233.54 1.10788 -1.12088 0
M  V30 2376 C 234.488 2.19111 -0.780587 0
M  V30 2377 C 235.482 1.67818 0.230961 0
M  V30 2378 O 236.688 1.79777 0.0895427 0
M  V30 2379 H 233.063 0.714477 -0.234578 0
M  V30 2380 H 235.034 2.45055 -1.70266 0
M  V30 2381 C 233.783 3.46818 -0.24747 0
M  V30 2382 H 233.106 3.86646 -1.01712 0
M  V30 2383 H 234.546 4.23973 -0.0476291 0
M  V30 2384 C 233.005 3.20968 1.02378 0
M  V30 2385 O 233.535 3.42298 2.10226 0
M  V30 2386 N 231.741 2.74658 0.949271 0
M  V30 2387 H 231.288 2.57501 0.0715173 0
M  V30 2388 H 231.246 2.57739 1.80049 0
M  V30 2389 N 235.018 0.912232 1.28515 0
M  V30 2390 C 236.243 0.559774 1.99703 0
M  V30 2391 C 236.668 -0.851393 1.67729 0
M  V30 2392 O 236.026 -1.56875 0.908834 0
M  V30 2393 C 236.074 0.773874 3.52198 0
M  V30 2394 O 235.178 -0.167842 4.12058 0
M  V30 2395 H 234.519 0.21723 0.627461 0
M  V30 2396 H 237.049 1.22725 1.63706 0
M  V30 2397 H 237.059 0.683386 4.02236 0
M  V30 2398 H 235.734 1.80261 3.74805 0
M  V30 2399 H 234.311 -0.0287509 3.72889 0
M  V30 2400 N 236.496 -1.42363 0.676048 0
M  V30 2401 C 237.744 -2.01123 0.198437 0
M  V30 2402 C 238.065 -1.53731 -1.19966 0
M  V30 2403 O 237.335 -0.759518 -1.80577 0
M  V30 2404 H 235.915 -0.743678 0.0703721 0
M  V30 2405 H 238.577 -1.74263 0.872837 0
M  V30 2406 H 237.673 -3.11454 0.200686 0
M  V30 2407 N 237.974 -0.419461 -1.51915 0
M  V30 2408 C 238.937 0.389116 -2.25873 0
M  V30 2409 C 239.937 0.964924 -1.28631 0
M  V30 2410 O 241.127 0.842179 -1.52489 0
M  V30 2411 C 238.259 1.54874 -3.03689 0
M  V30 2412 H 239.452 -0.258799 -2.98781 0
M  V30 2413 H 237.005 -0.172209 -1.55348 0
M  V30 2414 H 237.74 2.23323 -2.35154 0
M  V30 2415 H 237.525 1.14223 -3.75094 0
M  V30 2416 H 239.015 2.12046 -3.59759 0
M  V30 2417 N 239.452 1.56882 -0.150215 0
M  V30 2418 C 240.382 2.19935 0.784284 0
M  V30 2419 C 241.363 1.14854 1.25469 0
M  V30 2420 O 242.548 1.43209 1.31168 0
M  V30 2421 C 239.678 2.82349 2.02229 0
M  V30 2422 C 238.632 3.93285 1.68853 0
M  V30 2423 C 237.958 4.42649 2.99944 0
M  V30 2424 C 239.258 5.13904 0.932714 0
M  V30 2425 H 240.952 2.9828 0.258781 0
M  V30 2426 H 238.498 1.43473 0.123029 0
M  V30 2427 H 240.451 3.25126 2.68088 0
M  V30 2428 H 239.175 2.0134 2.57157 0
M  V30 2429 H 237.834 3.5113 1.05371 0
M  V30 2430 H 237.482 3.58458 3.52869 0
M  V30 2431 H 237.182 5.17476 2.78374 0
M  V30 2432 H 238.706 4.88099 3.66868 0
M  V30 2433 H 240.12 5.53506 1.49345 0
M  V30 2434 H 238.517 5.94515 0.81684 0
M  V30 2435 H 239.587 4.84842 -0.0749568 0
M  V30 2436 N 240.93 -0.123565 1.57115 0
M  V30 2437 C 242.158 -0.846461 1.88793 0
M  V30 2438 C 242.573 -1.73652 0.740976 0
M  V30 2439 O 241.93 -1.80207 -0.288393 0
M  V30 2440 C 241.981 -1.6837 3.19897 0
M  V30 2441 O 241.702 -0.829477 4.30176 0
M  V30 2442 C 243.203 -2.51214 3.65248 0
M  V30 2443 H 240.423 -0.243573 0.625231 0
M  V30 2444 H 242.967 -0.109324 2.04208 0
M  V30 2445 H 241.122 -2.37364 3.06165 0
M  V30 2446 H 241.536 -1.40651 5.0529 0
M  V30 2447 H 243.01 -3.05497 4.59756 0
M  V30 2448 H 243.487 -3.28359 2.9168 0
M  V30 2449 H 244.093 -1.8747 3.81752 0
M  V30 2450 N 242.408 -1.52605 -0.393616 0
M  V30 2451 C 243.633 -1.71592 -1.16495 0
M  V30 2452 C 244.058 -0.43133 -1.83088 0
M  V30 2453 O 243.416 0.612523 -1.7064 0
M  V30 2454 C 243.464 -2.86318 -2.19213 0
M  V30 2455 O 242.568 -2.52969 -3.257 0
M  V30 2456 H 241.909 -0.570734 -0.33935 0
M  V30 2457 H 244.439 -1.99377 -0.459324 0
M  V30 2458 H 244.449 -3.1168 -2.63286 0
M  V30 2459 H 243.124 -3.79511 -1.7013 0
M  V30 2460 H 241.701 -2.38332 -2.86797 0
M  V30 2461 N 243.887 0.651787 -1.4349 0
M  V30 2462 C 245.135 1.40888 -1.44897 0
M  V30 2463 C 245.456 1.94856 -0.0749086 0
M  V30 2464 O 244.726 1.74518 0.889956 0
M  V30 2465 H 243.306 0.522887 -0.533478 0
M  V30 2466 H 245.968 0.768609 -1.79104 0
M  V30 2467 H 245.064 2.25052 -2.16236 0
M  V30 2468 N 245.365 1.30045 0.890287 0
M  V30 2469 C 246.611 1.18737 1.64406 0
M  V30 2470 C 246.944 -0.258525 1.92472 0
M  V30 2471 O 246.219 -1.18562 1.54186 0
M  V30 2472 C 246.502 2.01087 2.98724 0
M  V30 2473 C 246.355 3.53867 2.77665 0
M  V30 2474 C 247.674 1.84457 3.9958 0
M  V30 2475 H 244.793 0.432698 0.596608 0
M  V30 2476 H 247.435 1.5962 1.0306 0
M  V30 2477 H 245.585 1.66349 3.51084 0
M  V30 2478 H 247.257 3.98637 2.32133 0
M  V30 2479 H 245.5 3.78318 2.12269 0
M  V30 2480 H 246.171 4.06772 3.7315 0
M  V30 2481 H 248.647 2.14817 3.56361 0
M  V30 2482 H 247.523 2.44411 4.91482 0
M  V30 2483 H 247.784 0.802276 4.3476 0
M  V30 2484 N 246.843 -1.10192 1.12674 0
M  V30 2485 C 247.793 -2.14754 0.765801 0
M  V30 2486 C 248.777 -1.59154 -0.236409 0
M  V30 2487 O 249.969 -1.76951 -0.0415261 0
M  V30 2488 C 247.098 -3.42563 0.224827 0
M  V30 2489 C 246.184 -4.05091 1.25548 0
M  V30 2490 N 246.575 -4.42287 2.4539 0
M  V30 2491 C 244.873 -4.32186 1.10142 0
M  V30 2492 C 245.574 -4.91441 3.11224 0
M  V30 2493 N 244.55 -4.88405 2.38666 0
M  V30 2494 H 248.352 -2.41309 1.67772 0
M  V30 2495 H 245.866 -1.27339 1.00789 0
M  V30 2496 H 247.863 -4.16868 -0.0519578 0
M  V30 2497 H 246.523 -3.17467 -0.681515 0
M  V30 2498 H 247.534 -4.33902 2.82754 0
M  V30 2499 H 244.211 -4.16735 0.252587 0
M  V30 2500 H 245.601 -5.29749 4.13298 0
M  V30 2501 N 248.321 -0.919034 -1.28029 0
M  V30 2502 C 249.549 -0.570971 -1.98866 0
M  V30 2503 C 249.964 0.848996 -1.68634 0
M  V30 2504 O 249.321 1.56307 -0.942036 0
M  V30 2505 C 249.372 -0.776876 -3.53054 0
M  V30 2506 O 249.093 -2.14097 -3.82222 0
M  V30 2507 C 250.594 -0.436356 -4.41147 0
M  V30 2508 H 247.814 -0.217175 -0.634883 0
M  V30 2509 H 250.358 -1.23368 -1.63097 0
M  V30 2510 H 248.513 -0.161085 -3.87065 0
M  V30 2511 H 248.927 -2.18455 -4.76841 0
M  V30 2512 H 250.401 -0.63117 -5.4838 0
M  V30 2513 H 250.878 0.627686 -4.34692 0
M  V30 2514 H 251.484 -1.02991 -4.12641 0
M  V30 2515 N 249.799 1.42003 -0.683588 0
M  V30 2516 C 251.046 2.01413 -0.209514 0
M  V30 2517 C 251.374 1.54088 1.1869 0
M  V30 2518 O 250.629 0.737591 1.81268 0
M  V30 2519 C 250.928 3.56827 -0.202357 0
M  V30 2520 C 250.594 4.23617 -1.54464 0
M  V30 2521 C 249.256 4.41577 -1.91215 0
M  V30 2522 C 251.608 4.61178 -2.42826 0
M  V30 2523 C 248.936 4.9437 -3.15935 0
M  V30 2524 C 251.288 5.15355 -3.66867 0
M  V30 2525 C 249.952 5.31528 -4.03776 0
M  V30 2526 H 249.222 0.737023 -0.0766668 0
M  V30 2527 H 251.869 1.70067 -0.880312 0
M  V30 2528 H 250.174 3.87892 0.551969 0
M  V30 2529 H 251.871 4.00588 0.181793 0
M  V30 2530 H 248.461 4.10004 -1.24877 0
M  V30 2531 H 252.645 4.46968 -2.15717 0
M  V30 2532 H 247.901 5.05076 -3.44541 0
M  V30 2533 H 252.075 5.43402 -4.35531 0
M  V30 2534 H 249.702 5.72199 -5.00492 0
M  V30 2535 N 251.277 0.427512 1.51691 0
M  V30 2536 C 252.688 -0.0378867 1.86662 0
M  V30 2537 C 253.039 -1.42819 1.34525 0
M  V30 2538 O 252.164 -2.05037 0.692014 0
M  V30 2539 C 252.759 -0.0755266 3.38716 0
M  V30 2540 C 251.318 -0.485309 3.73258 0
M  V30 2541 C 250.465 0.328399 2.75349 0
M  V30 2542 H 253.416 0.64379 1.45055 0
M  V30 2543 H 253.437 -0.887056 3.70016 0
M  V30 2544 H 252.949 0.936487 3.76632 0
M  V30 2545 H 251.05 -1.50329 3.40928 0
M  V30 2546 H 251.163 -0.21693 4.78609 0
M  V30 2547 H 249.527 -0.211905 2.53817 0
M  V30 2548 H 250.31 1.3391 3.16106 0
M  V30 2549 N 252.755 -1.56801 0.158532 0
M  V30 2550 C 253.718 -2.16138 -0.762705 0
M  V30 2551 C 254.718 -1.1061 -1.16713 0
M  V30 2552 O 255.908 -1.36191 -1.08617 0
M  V30 2553 C 253.04 -2.73386 -2.03649 0
M  V30 2554 H 254.233 -2.98886 -0.246354 0
M  V30 2555 H 251.786 -1.56035 -0.0909744 0
M  V30 2556 H 252.521 -1.94335 -2.59623 0
M  V30 2557 H 252.306 -3.50601 -1.75559 0
M  V30 2558 H 253.796 -3.19065 -2.6942 0
M  V30 2559 N 254.233 0.115231 -1.57178 0
M  V30 2560 C 255.479 0.82357 -1.85325 0
M  V30 2561 C 255.812 1.79349 -0.744814 0
M  V30 2562 O 255.087 1.92899 0.249024 0
M  V30 2563 C 255.37 1.57014 -3.24066 0
M  V30 2564 C 255.223 0.619565 -4.45513 0
M  V30 2565 C 256.542 2.52545 -3.60429 0
M  V30 2566 H 253.661 0.297948 -0.674089 0
M  V30 2567 H 256.303 0.0877138 -1.89797 0
M  V30 2568 H 254.453 2.19742 -3.20383 0
M  V30 2569 H 256.125 0.000837639 -4.613 0
M  V30 2570 H 254.368 -0.0686174 -4.33746 0
M  V30 2571 H 255.039 1.17866 -5.3927 0
M  V30 2572 H 257.515 1.9992 -3.64926 0
M  V30 2573 H 256.391 3.01811 -4.58477 0
M  V30 2574 H 256.652 3.35383 -2.88047 0
M  V30 2575 N 255.711 1.52812 0.385517 0
M  V30 2576 C 256.641 1.80808 1.47752 0
M  V30 2577 C 257.622 0.660318 1.5676 0
M  V30 2578 O 258.807 0.908246 1.71652 0
M  V30 2579 C 255.937 1.98008 2.85324 0
M  V30 2580 C 254.891 3.13709 2.91154 0
M  V30 2581 C 254.217 3.16169 4.31209 0
M  V30 2582 C 255.517 4.52709 2.60483 0
M  V30 2583 H 257.211 2.72253 1.24573 0
M  V30 2584 H 254.757 1.31003 0.597839 0
M  V30 2585 H 256.71 2.16176 3.61726 0
M  V30 2586 H 255.434 1.03255 3.09848 0
M  V30 2587 H 254.093 2.95329 2.17201 0
M  V30 2588 H 253.741 2.19092 4.52778 0
M  V30 2589 H 253.441 3.93894 4.36029 0
M  V30 2590 H 254.965 3.36496 5.09512 0
M  V30 2591 H 256.379 4.71173 3.26602 0
M  V30 2592 H 254.776 5.32528 2.76648 0
M  V30 2593 H 255.846 4.59186 1.55809 0
M  V30 2594 N 257.189 -0.644168 1.43834 0
M  V30 2595 C 258.121 -1.76955 1.45669 0
M  V30 2596 C 259.134 -1.58956 0.351666 0
M  V30 2597 O 260.323 -1.6751 0.616644 0
M  V30 2598 C 257.423 -3.14507 1.26248 0
M  V30 2599 C 256.596 -3.59083 2.49757 0
M  V30 2600 C 255.655 -4.75467 2.25427 0
M  V30 2601 O 254.681 -4.84444 2.98836 0
M  V30 2602 N 255.883 -5.66289 1.27661 0
M  V30 2603 H 258.648 -1.75856 2.42682 0
M  V30 2604 H 256.209 -0.828312 1.39106 0
M  V30 2605 H 258.201 -3.90067 1.0784 0
M  V30 2606 H 256.771 -3.10325 0.376478 0
M  V30 2607 H 255.991 -2.7387 2.8353 0
M  V30 2608 H 257.279 -3.85613 3.31934 0
M  V30 2609 H 256.677 -5.61718 0.670064 0
M  V30 2610 H 255.234 -6.41533 1.15234 0
M  V30 2611 N 258.668 -1.30515 -0.883378 0
M  V30 2612 C 259.893 -1.22487 -1.67367 0
M  V30 2613 C 260.318 0.208767 -1.86938 0
M  V30 2614 O 259.676 1.15015 -1.40148 0
M  V30 2615 C 259.724 -1.96041 -3.02655 0
M  V30 2616 O 258.828 -1.28859 -3.91751 0
M  V30 2617 H 258.169 -0.423573 -0.511353 0
M  V30 2618 H 260.699 -1.72362 -1.10239 0
M  V30 2619 H 260.709 -2.05124 -3.52687 0
M  V30 2620 H 259.384 -3.00307 -2.8773 0
M  V30 2621 H 257.961 -1.28141 -3.50192 0
M  V30 2622 N 260.146 1.09593 -1.13257 0
M  V30 2623 C 261.371 1.8604 -0.916732 0
M  V30 2624 C 261.796 1.80504 0.529146 0
M  V30 2625 O 261.154 1.18127 1.37534 0
M  V30 2626 C 261.202 3.32017 -1.40703 0
M  V30 2627 O 260.306 4.08141 -0.591153 0
M  V30 2628 H 259.647 0.576943 -0.328683 0
M  V30 2629 H 262.177 1.38405 -1.50682 0
M  V30 2630 H 262.187 3.82865 -1.4099 0
M  V30 2631 H 260.862 3.35361 -2.45979 0
M  V30 2632 H 259.439 3.67084 -0.656005 0
M  V30 2633 N 261.624 0.925811 1.2754 0
M  V30 2634 C 262.872 0.564138 1.94067 0
M  V30 2635 C 263.193 -0.897188 1.73134 0
M  V30 2636 O 262.463 -1.63573 1.07799 0
M  V30 2637 H 261.043 0.205645 0.718136 0
M  V30 2638 H 263.705 1.1778 1.55287 0
M  V30 2639 H 262.801 0.76881 3.02483 0
M  V30 2640 N 263.102 -1.41638 0.69111 0
M  V30 2641 C 264.032 -2.3347 0.037248 0
M  V30 2642 C 265.013 -1.51575 -0.771947 0
M  V30 2643 O 266.198 -1.80126 -0.72582 0
M  V30 2644 C 263.328 -3.35354 -0.903064 0
M  V30 2645 C 262.282 -4.27526 -0.201288 0
M  V30 2646 C 261.608 -5.19747 -1.25565 0
M  V30 2647 C 262.908 -5.13959 0.929689 0
M  V30 2648 H 264.602 -2.88397 0.804227 0
M  V30 2649 H 262.148 -1.38669 0.388189 0
M  V30 2650 H 264.101 -3.98519 -1.36969 0
M  V30 2651 H 262.825 -2.78767 -1.70166 0
M  V30 2652 H 261.484 -3.65779 0.245265 0
M  V30 2653 H 261.132 -4.59479 -2.04666 0
M  V30 2654 H 260.832 -5.8225 -0.791128 0
M  V30 2655 H 262.356 -5.85789 -1.72288 0
M  V30 2656 H 263.77 -5.70718 0.543546 0
M  V30 2657 H 262.167 -5.85379 1.32103 0
M  V30 2658 H 263.237 -4.51389 1.77133 0
M  V30 2659 N 264.58 -0.43555 -1.51462 0
M  V30 2660 C 265.81 0.130053 -2.0619 0
M  V30 2661 C 266.218 1.37164 -1.30317 0
M  V30 2662 O 265.561 1.80225 -0.355598 0
M  V30 2663 C 265.623 0.519418 -3.55728 0
M  V30 2664 C 265.287 -0.615119 -4.52841 0
M  V30 2665 C 266.284 -1.48671 -4.9819 0
M  V30 2666 C 263.969 -0.795341 -4.95963 0
M  V30 2667 C 265.963 -2.52324 -5.8533 0
M  V30 2668 C 263.65 -1.83514 -5.82894 0
M  V30 2669 C 264.648 -2.69748 -6.27475 0
M  V30 2670 O 264.336 -3.71944 -7.1268 0
M  V30 2671 H 264.068 0.0121612 -0.675891 0
M  V30 2672 H 266.622 -0.6129 -1.96043 0
M  V30 2673 H 264.852 1.31505 -3.63653 0
M  V30 2674 H 266.541 1.01597 -3.92979 0
M  V30 2675 H 267.307 -1.359 -4.65571 0
M  V30 2676 H 263.186 -0.133713 -4.60806 0
M  V30 2677 H 266.73 -3.19665 -6.20048 0
M  V30 2678 H 262.627 -1.96306 -6.14926 0
M  V30 2679 H 263.395 -3.68503 -7.30854 0
M  V30 2680 N 266.058 1.56714 -0.166846 0
M  V30 2681 C 267.283 2.01557 0.488833 0
M  V30 2682 C 267.708 1.0463 1.56314 0
M  V30 2683 O 267.066 0.0251304 1.81283 0
M  V30 2684 C 267.114 3.4503 1.04818 0
M  V30 2685 O 266.218 3.51163 2.16236 0
M  V30 2686 H 265.559 0.653516 0.117526 0
M  V30 2687 H 268.089 2.02818 -0.269421 0
M  V30 2688 H 268.099 3.84243 1.37191 0
M  V30 2689 H 266.774 4.15077 0.261572 0
M  V30 2690 H 265.351 3.23807 1.84942 0
M  V30 2691 N 267.536 -0.106894 1.57237 0
M  V30 2692 C 268.466 -1.13148 2.04254 0
M  V30 2693 C 269.447 -1.42476 0.929224 0
M  V30 2694 O 270.632 -1.52709 1.19973 0
M  V30 2695 C 267.762 -2.4545 2.45706 0
M  V30 2696 C 266.716 -2.30558 3.60592 0
M  V30 2697 C 266.042 -3.67931 3.87983 0
M  V30 2698 C 267.342 -1.75597 4.91897 0
M  V30 2699 H 269.036 -0.740374 2.90101 0
M  V30 2700 H 266.582 -0.354696 1.39563 0
M  V30 2701 H 268.535 -3.17389 2.77205 0
M  V30 2702 H 267.259 -2.86475 1.56843 0
M  V30 2703 H 265.918 -1.61067 3.29322 0
M  V30 2704 H 265.566 -4.06462 2.96306 0
M  V30 2705 H 265.266 -3.58817 4.65322 0
M  V30 2706 H 266.79 -4.41356 4.21945 0
M  V30 2707 H 268.204 -2.37364 5.21854 0
M  V30 2708 H 266.601 -1.77272 5.73319 0
M  V30 2709 H 267.671 -0.714451 4.79608 0
M  V30 2710 N 269.014 -1.53014 -0.377408 0
M  V30 2711 C 270.239 -1.72818 -1.14668 0
M  V30 2712 C 270.664 -0.450725 -1.8262 0
M  V30 2713 O 270.022 0.59439 -1.7128 0
M  V30 2714 C 270.07 -2.88627 -2.16164 0
M  V30 2715 O 269.174 -2.56409 -3.22998 0
M  V30 2716 H 268.515 -0.574301 -0.333278 0
M  V30 2717 H 271.045 -1.99853 -0.438152 0
M  V30 2718 H 271.055 -3.14455 -2.59966 0
M  V30 2719 H 269.73 -3.81294 -1.66095 0
M  V30 2720 H 268.307 -2.4136 -2.84253 0
M  V30 2721 N 270.492 0.636531 -1.44174 0
M  V30 2722 C 271.717 1.42847 -1.50364 0
M  V30 2723 C 272.142 1.87665 -0.127867 0
M  V30 2724 O 271.5 1.58408 0.88185 0
M  V30 2725 C 271.548 2.62854 -2.4686 0
M  V30 2726 O 270.652 3.62501 -1.9664 0
M  V30 2727 H 269.993 0.427642 -0.507955 0
M  V30 2728 H 272.523 0.777422 -1.89255 0
M  V30 2729 H 272.533 3.10465 -2.64718 0
M  V30 2730 H 271.208 2.29578 -3.46795 0
M  V30 2731 H 269.785 3.21735 -1.88523 0
M  V30 2732 N 271.97 1.30982 0.876444 0
M  V30 2733 C 273.216 1.20474 1.63138 0
M  V30 2734 C 273.549 -0.238096 1.92735 0
M  V30 2735 O 272.824 -1.1692 1.55435 0
M  V30 2736 C 273.107 2.04244 2.96574 0
M  V30 2737 C 272.96 3.56793 2.73896 0
M  V30 2738 C 274.279 1.88684 3.97601 0
M  V30 2739 H 271.398 0.439001 0.591985 0
M  V30 2740 H 274.04 1.60704 1.01361 0
M  V30 2741 H 272.19 1.70063 3.493 0
M  V30 2742 H 273.862 4.01077 2.27892 0
M  V30 2743 H 272.105 3.80548 2.08245 0
M  V30 2744 H 272.776 4.10706 3.68815 0
M  V30 2745 H 275.252 2.18584 3.54062 0
M  V30 2746 H 274.128 2.4961 4.88862 0
M  V30 2747 H 274.389 0.848343 4.33884 0
M  V30 2748 N 273.449 -1.08991 1.13837 0
M  V30 2749 C 274.695 -1.81526 0.90422 0
M  V30 2750 C 275.028 -1.85706 -0.568066 0
M  V30 2751 O 274.303 -1.32855 -1.42056 0
M  V30 2752 C 274.586 -3.27447 1.49835 0
M  V30 2753 C 274.439 -3.31512 3.04006 0
M  V30 2754 C 275.758 -4.24256 1.17025 0
M  V30 2755 H 272.877 -0.659029 0.329923 0
M  V30 2756 H 275.519 -1.27644 1.40737 0
M  V30 2757 H 273.669 -3.73462 1.07044 0
M  V30 2758 H 275.341 -2.93867 3.55584 0
M  V30 2759 H 273.584 -2.70963 3.38765 0
M  V30 2760 H 274.255 -4.34329 3.40679 0
M  V30 2761 H 276.731 -3.86549 1.54009 0
M  V30 2762 H 275.607 -5.24684 1.61237 0
M  V30 2763 H 275.868 -4.42019 0.0846274 0
M  V30 2764 N 274.927 -0.932562 -1.27047 0
M  V30 2765 C 276.155 -0.592031 -1.98249 0
M  V30 2766 C 276.57 0.831062 -1.69525 0
M  V30 2767 O 275.927 1.55299 -0.958561 0
M  V30 2768 C 275.978 -0.814279 -3.5221 0
M  V30 2769 O 275.699 -2.18139 -3.7993 0
M  V30 2770 C 277.2 -0.483121 -4.4066 0
M  V30 2771 H 274.42 -0.223896 -0.632544 0
M  V30 2772 H 276.964 -1.25091 -1.61779 0
M  V30 2773 H 275.119 -0.20213 -3.86872 0
M  V30 2774 H 275.533 -2.235 -4.74498 0
M  V30 2775 H 277.007 -0.689298 -5.47679 0
M  V30 2776 H 277.484 0.581546 -4.35333 0
M  V30 2777 H 278.09 -1.07362 -4.11526 0
M  V30 2778 N 276.405 1.4127 -0.698611 0
M  V30 2779 C 277.651 2.01478 -0.231207 0
M  V30 2780 C 277.984 1.55215 1.16713 0
M  V30 2781 O 277.259 0.764672 1.78838 0
M  V30 2782 C 277.542 3.58912 -0.292281 0
M  V30 2783 C 277.395 4.15293 -1.72778 0
M  V30 2784 C 278.714 4.38736 0.346194 0
M  V30 2785 H 275.833 0.732025 -0.0854878 0
M  V30 2786 H 278.475 1.67977 -0.887906 0
M  V30 2787 H 276.625 3.87582 0.26686 0
M  V30 2788 H 278.297 3.97486 -2.341 0
M  V30 2789 H 276.54 3.7022 -2.26096 0
M  V30 2790 H 277.211 5.24452 -1.72202 0
M  V30 2791 H 279.687 4.15897 -0.130035 0
M  V30 2792 H 278.563 5.48221 0.272932 0
M  V30 2793 H 278.824 4.18425 1.42734 0
M  V30 2794 N 277.883 0.443576 1.51229 0
M  V30 2795 C 279.294 -0.0180867 1.86691 0
M  V30 2796 C 279.645 -1.41384 1.36033 0
M  V30 2797 O 278.77 -2.04291 0.713722 0
M  V30 2798 C 279.365 -0.039597 3.38777 0
M  V30 2799 C 277.924 -0.445692 3.73752 0
M  V30 2800 C 277.071 0.357584 2.74985 0
M  V30 2801 H 280.022 0.659138 1.44364 0
M  V30 2802 H 280.043 -0.847761 3.70936 0
M  V30 2803 H 279.555 0.976382 3.75617 0
M  V30 2804 H 277.656 -1.46704 3.42503 0
M  V30 2805 H 277.769 -0.166155 4.78812 0
M  V30 2806 H 276.133 -0.184973 2.54027 0
M  V30 2807 H 276.916 1.37256 3.14668 0
M  V30 2808 N 279.361 -1.56624 0.175154 0
M  V30 2809 C 280.586 -2.01813 -0.478137 0
M  V30 2810 C 281.011 -1.05457 -1.55757 0
M  V30 2811 O 280.369 -0.0347439 -1.81267 0
M  V30 2812 C 280.417 -3.45581 -1.02987 0
M  V30 2813 O 279.521 -3.52305 -2.14371 0
M  V30 2814 H 278.862 -0.65413 -0.114059 0
M  V30 2815 H 281.392 -2.02673 0.280173 0
M  V30 2816 H 281.402 -3.84965 -1.35151 0
M  V30 2817 H 280.077 -4.1521 -0.239556 0
M  V30 2818 H 278.654 -3.24783 -1.83222 0
M  V30 2819 N 280.839 0.0985539 -1.57292 0
M  V30 2820 C 282.064 0.820196 -1.90493 0
M  V30 2821 C 282.489 1.71658 -0.769094 0
M  V30 2822 O 281.847 1.79133 0.279495 0
M  V30 2823 C 281.895 1.61242 -3.22542 0
M  V30 2824 O 280.999 2.72108 -3.09888 0
M  V30 2825 H 280.34 0.225547 -0.62452 0
M  V30 2826 H 282.87 0.0748159 -2.04463 0
M  V30 2827 H 282.88 1.99737 -3.55766 0
M  V30 2828 H 281.555 0.954535 -4.04798 0
M  V30 2829 H 280.132 2.36667 -2.88172 0
M  V30 2830 N 282.317 1.53212 0.369288 0
M  V30 2831 C 283.542 1.73423 1.1375 0
M  V30 2832 C 283.967 0.460404 1.82378 0
M  V30 2833 O 283.325 -0.585298 1.71592 0
M  V30 2834 C 283.373 2.89769 2.1463 0
M  V30 2835 O 282.477 2.58119 3.21634 0
M  V30 2836 H 281.818 0.576061 0.330227 0
M  V30 2837 H 284.348 2.00083 0.427547 0
M  V30 2838 H 284.358 3.15829 2.58294 0
M  V30 2839 H 283.033 3.8217 1.64071 0
M  V30 2840 H 281.61 2.42864 2.82969 0
M  V30 2841 N 283.795 -0.628877 1.44509 0
M  V30 2842 C 284.725 -1.75187 1.54376 0
M  V30 2843 C 285.706 -1.65411 0.396618 0
M  V30 2844 O 286.891 -1.84137 0.617031 0
M  V30 2845 C 284.021 -3.13725 1.48976 0
M  V30 2846 C 282.975 -3.38291 2.62189 0
M  V30 2847 C 282.301 -4.76883 2.41841 0
M  V30 2848 C 283.601 -3.30632 4.04326 0
M  V30 2849 H 285.295 -1.67187 2.48373 0
M  V30 2850 H 282.841 -0.802909 1.19538 0
M  V30 2851 H 284.794 -3.92064 1.54478 0
M  V30 2852 H 283.518 -3.22515 0.514961 0
M  V30 2853 H 282.177 -2.62334 2.56079 0
M  V30 2854 H 281.825 -4.82378 1.42548 0
M  V30 2855 H 281.525 -4.94278 3.17747 0
M  V30 2856 H 283.049 -5.57449 2.49165 0
M  V30 2857 H 284.463 -3.98873 4.11793 0
M  V30 2858 H 282.86 -3.59561 4.80454 0
M  V30 2859 H 283.93 -2.28404 4.27738 0
M  V30 2860 N 285.273 -1.31445 -0.869486 0
M  V30 2861 C 286.521 -1.20918 -1.61936 0
M  V30 2862 C 286.842 0.232683 -1.93607 0
M  V30 2863 O 286.112 1.15352 -1.58338 0
M  V30 2864 H 284.692 -0.44454 -0.600328 0
M  V30 2865 H 287.354 -1.64776 -1.0409 0
M  V30 2866 H 286.45 -1.78124 -2.56278 0
M  V30 2867 N 286.751 1.08385 -1.14413 0
M  V30 2868 C 287.979 1.84517 -0.936001 0
M  V30 2869 C 288.394 1.81626 0.515503 0
M  V30 2870 O 287.751 1.22008 1.35721 0
M  V30 2871 C 287.802 3.32049 -1.42918 0
M  V30 2872 O 287.523 3.34951 -2.82381 0
M  V30 2873 C 289.024 4.24986 -1.26103 0
M  V30 2874 H 286.244 0.582491 -0.333084 0
M  V30 2875 H 288.788 1.36885 -1.5193 0
M  V30 2876 H 286.943 3.7707 -0.888641 0
M  V30 2877 H 287.357 4.27048 -3.04517 0
M  V30 2878 H 288.831 5.26615 -1.6547 0
M  V30 2879 H 289.308 4.38726 -0.20392 0
M  V30 2880 H 289.914 3.85791 -1.79012 0
M  V30 2881 N 288.23 0.939286 1.26551 0
M  V30 2882 C 289.162 0.404704 2.25599 0
M  V30 2883 C 290.175 -0.470983 1.55838 0
M  V30 2884 O 291.364 -0.281734 1.76263 0
M  V30 2885 C 288.464 -0.43764 3.36062 0
M  V30 2886 C 287.637 0.421449 4.35365 0
M  V30 2887 C 286.696 -0.36015 5.24966 0
M  V30 2888 O 285.722 0.236167 5.6871 0
M  V30 2889 N 286.924 -1.65715 5.56344 0
M  V30 2890 H 289.689 1.25618 2.72103 0
M  V30 2891 H 287.25 0.807963 1.40298 0
M  V30 2892 H 289.242 -0.967866 3.92956 0
M  V30 2893 H 287.812 -1.18991 2.89067 0
M  V30 2894 H 287.032 1.1329 3.7757 0
M  V30 2895 H 288.32 1.00835 4.98708 0
M  V30 2896 H 287.718 -2.16378 5.22682 0
M  V30 2897 H 286.275 -2.13366 6.15888 0
M  V30 2898 N 289.708 -1.40897 0.706093 0
M  V30 2899 C 290.936 -2.05373 0.250887 0
M  V30 2900 C 291.351 -1.53172 -1.10381 0
M  V30 2901 O 290.708 -0.684305 -1.69185 0
M  V30 2902 C 290.759 -3.6088 0.211571 0
M  V30 2903 O 290.48 -4.11153 1.51276 0
M  V30 2904 C 291.981 -4.42517 -0.263346 0
M  V30 2905 H 289.201 -0.66115 0.114552 0
M  V30 2906 H 291.745 -1.80479 0.961635 0
M  V30 2907 H 289.9 -3.84777 -0.450073 0
M  V30 2908 H 290.314 -5.05279 1.40689 0
M  V30 2909 H 291.788 -5.51479 -0.239718 0
M  V30 2910 H 292.265 -4.19396 -1.30397 0
M  V30 2911 H 292.871 -4.23708 0.367677 0
M  V30 2912 N 291.186 -0.45159 -1.50991 0
M  V30 2913 C 292.416 0.108177 -2.06317 0
M  V30 2914 C 292.824 1.35774 -1.31765 0
M  V30 2915 O 292.167 1.79838 -0.374694 0
M  V30 2916 C 292.229 0.481659 -3.56259 0
M  V30 2917 C 291.893 -0.663114 -4.52163 0
M  V30 2918 C 292.89 -1.53947 -4.96585 0
M  V30 2919 C 290.575 -0.8479 -4.95092 0
M  V30 2920 C 292.569 -2.58518 -5.82621 0
M  V30 2921 C 290.256 -1.89686 -5.80915 0
M  V30 2922 C 291.254 -2.76388 -6.24579 0
M  V30 2923 O 290.942 -3.79482 -7.08695 0
M  V30 2924 H 290.674 0.00499183 -0.675982 0
M  V30 2925 H 293.228 -0.633659 -1.95381 0
M  V30 2926 H 291.458 1.27641 -3.65027 0
M  V30 2927 H 293.147 0.974233 -3.94035 0
M  V30 2928 H 293.913 -1.4083 -4.64103 0
M  V30 2929 H 289.792 -0.18258 -4.60638 0
M  V30 2930 H 293.336 -3.26224 -6.16623 0
M  V30 2931 H 289.233 -2.02817 -6.12809 0
M  V30 2932 H 290.001 -3.76234 -7.26905 0
M  V30 2933 N 292.664 1.56529 -0.183458 0
M  V30 2934 C 293.913 1.96419 0.458511 0
M  V30 2935 C 294.226 1.0727 1.63562 0
M  V30 2936 O 295.432 1.36893 2.34462 0
M  V30 2937 C 293.888 3.49298 0.867122 0
M  V30 2938 C 293.496 4.47092 -0.285057 0
M  V30 2939 C 295.24 3.97983 1.47683 0
M  V30 2940 C 293.147 5.91225 0.143862 0
M  V30 2941 H 292.077 0.733394 0.175071 0
M  V30 2942 H 294.728 1.81448 -0.273624 0
M  V30 2943 H 293.11 3.59731 1.65559 0
M  V30 2944 H 294.284 4.48383 -1.0625 0
M  V30 2945 H 292.599 4.08535 -0.805503 0
M  V30 2946 H 295.196 5.03134 1.80999 0
M  V30 2947 H 295.539 3.41618 2.37914 0
M  V30 2948 H 296.072 3.90617 0.752562 0
M  V30 2949 H 292.811 6.5149 -0.723974 0
M  V30 2950 H 292.331 5.93214 0.886413 0
M  V30 2951 H 294.01 6.44362 0.583628 0
M  V30 2952 N 294.142 -0.090211 1.57342 0
M  V30 2953 C 295.382 -0.798365 1.88163 0
M  V30 2954 C 295.746 -1.75662 0.775046 0
M  V30 2955 O 296.947 -2.50849 0.965816 0
M  V30 2956 C 295.218 -1.50376 3.24225 0
M  V30 2957 S 296.777 -2.24952 3.76752 0
M  V30 2958 H 293.595 -0.265883 0.659414 0
M  V30 2959 H 296.197 -0.055264 1.95422 0
M  V30 2960 H 294.901 -0.792286 4.0268 0
M  V30 2961 H 294.432 -2.28666 3.20118 0
M  V30 2962 H 296.447 -3.51173 3.5056 0
M  V30 2963 N 295.62 -1.53406 -0.361157 0
M  V30 2964 C 296.568 -1.80832 -1.46296 0
M  V30 2965 C 297.562 -0.677699 -1.55253 0
M  V30 2966 O 298.768 -0.860723 -1.58087 0
M  V30 2967 H 295.143 -0.572627 -0.487445 0
M  V30 2968 H 297.114 -2.73045 -1.20371 0
M  V30 2969 C 295.863 -2.01907 -2.8307 0
M  V30 2970 H 295.186 -2.88349 -2.76938 0
M  V30 2971 H 296.626 -2.25072 -3.59331 0
M  V30 2972 C 295.085 -0.799449 -3.27277 0
M  V30 2973 O 295.615 0.00971761 -4.01699 0
M  V30 2974 N 293.821 -0.621637 -2.83873 0
M  V30 2975 H 293.368 -1.28126 -2.23476 0
M  V30 2976 H 293.326 0.19298 -3.13807 0
M  V30 2977 N 297.098 0.621204 -1.44841 0
M  V30 2978 C 298.344 1.3826 -1.48365 0
M  V30 2979 C 298.677 1.93831 -0.119624 0
M  V30 2980 O 297.952 1.74251 0.864111 0
M  V30 2981 C 298.235 2.54058 -2.55199 0
M  V30 2982 C 298.088 2.03772 -4.00995 0
M  V30 2983 C 299.407 3.56225 -2.58442 0
M  V30 2984 H 296.526 0.501374 -0.540179 0
M  V30 2985 H 299.168 0.7015 -1.76576 0
M  V30 2986 H 297.318 3.12162 -2.31274 0
M  V30 2987 H 298.99 1.50423 -4.36086 0
M  V30 2988 H 297.233 1.34876 -4.12299 0
M  V30 2989 H 297.904 2.87185 -4.71411 0
M  V30 2990 H 300.38 3.07939 -2.79844 0
M  V30 2991 H 299.256 4.34756 -3.3508 0
M  V30 2992 H 299.517 4.10949 -1.63013 0
M  V30 2993 N 298.576 1.31904 0.862503 0
M  V30 2994 C 299.524 1.20125 1.9918 0
M  V30 2995 C 300.518 0.107824 1.69056 0
M  V30 2996 O 301.724 0.270223 1.7796 0
M  V30 2997 H 298.099 0.372148 0.65346 0
M  V30 2998 H 300.07 2.15652 2.06244 0
M  V30 2999 C 298.819 0.933099 3.34946 0
M  V30 3000 H 298.142 1.76664 3.5865 0
M  V30 3001 H 299.582 0.890892 4.14535 0
M  V30 3002 C 298.041 -0.364172 3.34926 0
M  V30 3003 O 298.571 -1.37858 3.77304 0
M  V30 3004 N 296.777 -0.383362 2.8806 0
M  V30 3005 H 296.324 0.442651 2.53768 0
M  V30 3006 H 296.282 -1.25123 2.8843 0
M  V30 3007 N 300.054 -1.07777 1.14986 0
M  V30 3008 C 301.004 -2.13082 0.811181 0
M  V30 3009 C 301.988 -1.59619 -0.202597 0
M  V30 3010 O 303.18 -1.77 -0.00398275 0
M  V30 3011 C 300.309 -3.42009 0.297439 0
M  V30 3012 C 299.395 -4.02337 1.34112 0
M  V30 3013 N 299.786 -4.36982 2.54716 0
M  V30 3014 C 298.084 -4.29752 1.19285 0
M  V30 3015 C 298.785 -4.84729 3.21578 0
M  V30 3016 N 297.761 -4.83233 2.48972 0
M  V30 3017 H 301.563 -2.37696 1.72853 0
M  V30 3018 H 299.077 -1.25173 1.03468 0
M  V30 3019 H 301.074 -4.16884 0.0364777 0
M  V30 3020 H 299.734 -3.18841 -0.614022 0
M  V30 3021 H 300.745 -4.27807 2.91894 0
M  V30 3022 H 297.422 -4.16106 0.340926 0
M  V30 3023 H 298.812 -5.20863 4.24442 0
M  V30 3024 N 301.532 -0.945985 -1.26051 0
M  V30 3025 C 302.479 -0.45809 -2.26208 0
M  V30 3026 C 303.449 0.484816 -1.58867 0
M  V30 3027 O 304.634 0.399969 -1.86561 0
M  V30 3028 C 301.774 0.266131 -3.44072 0
M  V30 3029 C 300.887 -0.713005 -4.26075 0
M  V30 3030 C 300.022 0.0329013 -5.3119 0
M  V30 3031 C 299.061 -0.93774 -6.04874 0
M  V30 3032 N 298.198 -0.223274 -7.01745 0
M  V30 3033 H 303.038 -1.3171 -2.67313 0
M  V30 3034 H 300.575 -0.66069 -1.31428 0
M  V30 3035 H 302.533 0.702514 -4.11243 0
M  V30 3036 H 301.163 1.08925 -3.03867 0
M  V30 3037 H 300.215 -1.26789 -3.58648 0
M  V30 3038 H 301.527 -1.45406 -4.77136 0
M  V30 3039 H 300.681 0.528335 -6.04395 0
M  V30 3040 H 299.42 0.806801 -4.8098 0
M  V30 3041 H 298.425 -1.44425 -5.30492 0
M  V30 3042 H 299.65 -1.71172 -6.57173 0
M  V30 3043 H 297.596 0.532046 -6.53839 0
M  V30 3044 H 297.513 -0.90357 -7.50581 0
M  V30 3045 H 298.781 0.250907 -7.79096 0
M  V30 3046 N 303.011 1.40521 -0.713556 0
M  V30 3047 C 304.422 1.83853 -0.324807 0
M  V30 3048 C 304.773 1.59667 1.14021 0
M  V30 3049 O 303.898 1.07649 1.87725 0
M  V30 3050 C 304.493 3.33751 -0.582746 0
M  V30 3051 C 303.052 3.75584 -0.247727 0
M  V30 3052 C 302.199 2.63753 -0.856121 0
M  V30 3053 H 305.15 1.29817 -0.91286 0
M  V30 3054 H 305.171 3.80194 0.152682 0
M  V30 3055 H 304.683 3.51322 -1.64908 0
M  V30 3056 H 302.784 3.63608 0.813624 0
M  V30 3057 H 302.897 4.7373 -0.715307 0
M  V30 3058 H 301.261 2.53108 -0.28432 0
M  V30 3059 H 302.044 2.84137 -1.92668 0
M  V30 3060 N 304.489 0.459591 1.5075 0
M  V30 3061 C 305.714 -0.0996819 2.0716 0
M  V30 3062 C 306.139 -1.33761 1.32249 0
M  V30 3063 O 305.497 -1.77551 0.366786 0
M  V30 3064 C 305.545 -0.378226 3.58611 0
M  V30 3065 O 304.649 -1.46081 3.85661 0
M  V30 3066 H 303.99 0.00791392 0.663953 0
M  V30 3067 H 306.52 0.647329 1.9409 0
M  V30 3068 H 306.53 -0.622135 4.03229 0
M  V30 3069 H 305.205 0.526439 4.12555 0
M  V30 3070 H 303.782 -1.20511 3.5289 0
M  V30 3071 N 305.967 -1.56429 0.191757 0
M  V30 3072 C 306.915 -2.20273 -0.747174 0
M  V30 3073 C 307.909 -1.17288 -1.22229 0
M  V30 3074 O 309.115 -1.35441 -1.18557 0
M  V30 3075 H 305.49 -0.705885 -0.259289 0
M  V30 3076 H 307.461 -2.97826 -0.184963 0
M  V30 3077 C 306.21 -2.87356 -1.95759 0
M  V30 3078 H 305.533 -3.66341 -1.60106 0
M  V30 3079 H 306.973 -3.3547 -2.59299 0
M  V30 3080 C 305.432 -1.88213 -2.79423 0
M  V30 3081 O 305.962 -1.38033 -3.7724 0
M  V30 3082 N 304.168 -1.56516 -2.44849 0
M  V30 3083 H 303.715 -1.97516 -1.65364 0
M  V30 3084 H 303.673 -0.904369 -3.01112 0
M  V30 3085 N 307.445 0.0818655 -1.57387 0
M  V30 3086 C 308.673 0.796108 -1.9097 0
M  V30 3087 C 309.088 1.71626 -0.786757 0
M  V30 3088 O 308.445 1.80908 0.240513 0
M  V30 3089 C 308.496 1.59829 -3.24248 0
M  V30 3090 O 308.217 0.715131 -4.32224 0
M  V30 3091 C 309.718 2.41442 -3.7178 0
M  V30 3092 H 306.938 0.22691 -0.631469 0
M  V30 3093 H 309.482 0.0551439 -2.04426 0
M  V30 3094 H 307.637 2.29163 -3.12351 0
M  V30 3095 H 308.051 1.27205 -5.08841 0
M  V30 3096 H 309.525 2.932 -4.67694 0
M  V30 3097 H 310.002 3.2051 -3.00283 0
M  V30 3098 H 310.608 1.77283 -3.86589 0
M  V30 3099 N 308.923 1.53595 0.353017 0
M  V30 3100 C 309.87 1.80919 1.43308 0
M  V30 3101 C 310.84 0.654288 1.5267 0
M  V30 3102 O 312.025 0.897759 1.6836 0
M  V30 3103 C 309.165 2.01605 2.80089 0
M  V30 3104 C 308.278 3.29321 2.79593 0
M  V30 3105 C 307.413 3.40125 4.0803 0
M  V30 3106 C 306.452 4.61826 4.01725 0
M  V30 3107 N 305.589 4.69716 5.21834 0
M  V30 3108 H 310.429 2.73074 1.19308 0
M  V30 3109 H 307.966 1.35263 0.578131 0
M  V30 3110 H 309.924 2.11586 3.59565 0
M  V30 3111 H 308.554 1.12772 3.0246 0
M  V30 3112 H 307.606 3.28229 1.92276 0
M  V30 3113 H 308.918 4.18884 2.70809 0
M  V30 3114 H 308.072 3.49488 4.95927 0
M  V30 3115 H 306.811 2.48601 4.19582 0
M  V30 3116 H 305.816 4.52552 3.12213 0
M  V30 3117 H 307.041 5.54705 3.91764 0
M  V30 3118 H 304.987 3.81097 5.33948 0
M  V30 3119 H 304.904 5.53202 5.1527 0
M  V30 3120 H 306.172 4.83376 6.11529 0
M  V30 3121 N 310.401 -0.613514 1.45168 0
M  V30 3122 C 311.647 -1.37471 1.49096 0
M  V30 3123 C 311.98 -1.93765 0.129901 0
M  V30 3124 O 311.255 -1.74707 -0.854858 0
M  V30 3125 C 311.538 -2.52701 2.56542 0
M  V30 3126 C 311.391 -2.01643 4.0207 0
M  V30 3127 C 312.71 -3.54849 2.60327 0
M  V30 3128 H 309.829 -0.498502 0.54283 0
M  V30 3129 H 312.471 -0.692125 1.76945 0
M  V30 3130 H 310.621 -3.10931 2.32926 0
M  V30 3131 H 312.293 -1.48108 4.36877 0
M  V30 3132 H 310.536 -1.32688 4.13009 0
M  V30 3133 H 311.207 -2.84681 4.72928 0
M  V30 3134 H 313.683 -3.0645 2.81474 0
M  V30 3135 H 312.559 -4.32973 3.37381 0
M  V30 3136 H 312.82 -4.10079 1.6519 0
M  V30 3137 N 311.879 -1.3236 -0.855495 0
M  V30 3138 C 313.156 -1.13491 -1.59309 0
M  V30 3139 C 313.536 0.30503 -2.08885 0
M  V30 3140 O 312.884 1.30151 -1.87811 0
M  V30 3141 C 313.094 -2.16176 -2.73987 0
M  V30 3142 C 314.442 -2.49463 -3.43589 0
M  V30 3143 O 315.466 -2.14715 -2.84211 0
M  V30 3144 O 314.325 -3.09027 -4.50738 0
M  V30 3145 H 311.419 -0.437887 -0.701559 0
M  V30 3146 H 313.965 -1.43887 -0.899696 0
M  V30 3147 H 312.737 -3.1297 -2.34873 0
M  V30 3148 H 312.36 -1.86769 -3.51003 0
M  V30 3149 N 313.357 1.07166 -1.15556 0
M  V30 3150 C 314.304 2.14417 -0.854055 0
M  V30 3151 C 315.274 1.64965 0.193806 0
M  V30 3152 O 316.459 1.90703 0.0609443 0
M  V30 3153 C 313.599 3.43304 -0.351574 0
M  V30 3154 C 312.712 4.06537 -1.46123 0
M  V30 3155 C 311.847 5.23266 -0.914677 0
M  V30 3156 C 310.886 5.78464 -2.00114 0
M  V30 3157 N 310.023 6.86521 -1.47083 0
M  V30 3158 H 314.863 2.39548 -1.77259 0
M  V30 3159 H 312.4 1.17543 -0.884425 0
M  V30 3160 H 314.358 4.17179 -0.0419409 0
M  V30 3161 H 312.988 3.18419 0.530037 0
M  V30 3162 H 312.04 3.30297 -1.88701 0
M  V30 3163 H 313.352 4.43567 -2.28144 0
M  V30 3164 H 312.506 6.04131 -0.557698 0
M  V30 3165 H 311.245 4.87658 -0.0636583 0
M  V30 3166 H 310.25 4.96243 -2.36692 0
M  V30 3167 H 311.475 6.16126 -2.85597 0
M  V30 3168 H 309.421 6.52849 -0.642198 0
M  V30 3169 H 309.338 7.22446 -2.22729 0
M  V30 3170 H 310.606 7.71087 -1.14215 0
M  V30 3171 N 314.835 0.952656 1.25548 0
M  V30 3172 C 315.782 0.47008 2.25962 0
M  V30 3173 C 316.752 -0.476384 1.59122 0
M  V30 3174 O 317.937 -0.39007 1.8677 0
M  V30 3175 C 315.077 -0.247881 3.44209 0
M  V30 3176 C 314.19 0.735591 4.25691 0
M  V30 3177 C 313.325 -0.0047306 5.312 0
M  V30 3178 C 312.364 0.969805 6.04368 0
M  V30 3179 N 311.501 0.260486 7.01617 0
M  V30 3180 H 316.341 1.33126 2.66611 0
M  V30 3181 H 313.878 0.66765 1.31076 0
M  V30 3182 H 315.836 -0.680695 4.1161 0
M  V30 3183 H 314.466 -1.07312 3.0444 0
M  V30 3184 H 313.518 1.28689 3.57971 0
M  V30 3185 H 314.83 1.47934 4.76358 0
M  V30 3186 H 313.984 -0.496275 6.04667 0
M  V30 3187 H 312.723 -0.781282 4.81401 0
M  V30 3188 H 311.728 1.47237 5.29718 0
M  V30 3189 H 312.953 1.74655 6.56256 0
M  V30 3190 H 310.899 -0.497364 6.54112 0
M  V30 3191 H 310.816 0.943362 7.50091 0
M  V30 3192 H 312.084 -0.209587 7.79218 0
M  V30 3193 N 316.313 -1.40141 0.720998 0
M  V30 3194 C 317.276 -2.29058 0.0805834 0
M  V30 3195 C 318.276 -1.45632 -0.681758 0
M  V30 3196 O 319.466 -1.6648 -0.512856 0
M  V30 3197 C 316.598 -3.28925 -0.895593 0
M  V30 3198 H 317.791 -2.87191 0.863793 0
M  V30 3199 H 315.344 -1.48553 0.485975 0
M  V30 3200 H 316.079 -2.75822 -1.70566 0
M  V30 3201 H 315.864 -3.90519 -0.351766 0
M  V30 3202 H 317.354 -3.95494 -1.34069 0
M  V30 3203 N 317.792 -0.46758 -1.50504 0
M  V30 3204 C 318.702 0.33382 -2.32213 0
M  V30 3205 C 319.718 0.999323 -1.42441 0
M  V30 3206 O 320.894 0.988068 -1.75497 0
M  V30 3207 C 317.959 1.4035 -3.17022 0
M  V30 3208 C 317.02 0.754961 -4.2261 0
M  V30 3209 C 316.253 1.77367 -5.03365 0
M  V30 3210 O 316.476 2.99976 -4.8515 0
M  V30 3211 O 315.41 1.34744 -5.86624 0
M  V30 3212 H 319.236 -0.334067 -3.01857 0
M  V30 3213 H 316.821 -0.229496 -1.47627 0
M  V30 3214 H 318.703 2.02318 -3.69656 0
M  V30 3215 H 317.378 2.05492 -2.5011 0
M  V30 3216 H 316.285 0.0964244 -3.73976 0
M  V30 3217 H 317.618 0.146545 -4.91982 0
M  V30 3218 N 319.27 1.56325 -0.20005 0
M  V30 3219 C 320.681 1.8408 0.31167 0
M  V30 3220 C 321.032 1.12087 1.61031 0
M  V30 3221 O 320.157 0.38332 2.12978 0
M  V30 3222 C 320.752 3.33932 0.57226 0
M  V30 3223 C 319.311 3.6208 1.02834 0
M  V30 3224 C 318.458 2.77186 0.079634 0
M  V30 3225 H 321.409 1.52939 -0.423729 0
M  V30 3226 H 321.43 3.52971 1.42096 0
M  V30 3227 H 320.942 3.86303 -0.37308 0
M  V30 3228 H 319.043 3.15147 1.98778 0
M  V30 3229 H 319.156 4.7023 0.917624 0
M  V30 3230 H 317.52 2.47951 0.582448 0
M  V30 3231 H 318.303 3.32347 -0.860238 0
M  V30 3232 N 320.748 -0.0735177 1.57428 0
M  V30 3233 C 321.695 -1.08756 2.0357 0
M  V30 3234 C 322.665 -1.38559 0.916 0
M  V30 3235 O 323.85 -1.49656 1.18354 0
M  V30 3236 C 320.99 -2.39657 2.48311 0
M  V30 3237 C 320.103 -2.16399 3.73892 0
M  V30 3238 C 319.238 -3.40852 4.07423 0
M  V30 3239 C 318.277 -3.1295 5.2605 0
M  V30 3240 N 317.414 -4.29729 5.55228 0
M  V30 3241 H 322.254 -0.687104 2.8997 0
M  V30 3242 H 319.791 -0.327709 1.43403 0
M  V30 3243 H 321.749 -3.16081 2.72303 0
M  V30 3244 H 320.379 -2.77508 1.64891 0
M  V30 3245 H 319.431 -1.30676 3.57251 0
M  V30 3246 H 320.743 -1.91788 4.60455 0
M  V30 3247 H 319.897 -4.25671 4.32306 0
M  V30 3248 H 318.636 -3.68537 3.19425 0
M  V30 3249 H 317.641 -2.26526 5.00965 0
M  V30 3250 H 318.866 -2.86589 6.15665 0
M  V30 3251 H 316.812 -4.57448 4.70188 0
M  V30 3252 H 316.729 -4.08385 6.36206 0
M  V30 3253 H 317.997 -5.1555 5.84661 0
M  V30 3254 N 322.226 -1.5378 -0.344866 0
M  V30 3255 C 323.451 -1.75211 -1.10977 0
M  V30 3256 C 323.876 -0.48936 -1.81623 0
M  V30 3257 O 323.234 0.557925 -1.72502 0
M  V30 3258 C 323.282 -2.93147 -2.09993 0
M  V30 3259 O 322.386 -2.63203 -3.17487 0
M  V30 3260 H 321.727 -0.581241 -0.321021 0
M  V30 3261 H 324.257 -2.00738 -0.395661 0
M  V30 3262 H 324.267 -3.19898 -2.53237 0
M  V30 3263 H 322.942 -3.84731 -1.5797 0
M  V30 3264 H 321.519 -2.47336 -2.79069 0
M  V30 3265 N 323.704 0.605807 -1.45491 0
M  V30 3266 C 324.944 1.37606 -1.51142 0
M  V30 3267 C 325.308 1.91413 -0.150075 0
M  V30 3268 O 326.509 2.68677 -0.0812828 0
M  V30 3269 C 324.78 2.49197 -2.56195 0
M  V30 3270 S 326.339 3.36953 -2.81083 0
M  V30 3271 H 323.157 0.469118 -0.534275 0
M  V30 3272 H 325.759 0.698845 -1.82583 0
M  V30 3273 H 324.463 2.0802 -3.53773 0
M  V30 3274 H 323.994 3.21717 -2.26411 0
M  V30 3275 H 326.009 4.47395 -2.14598 0
M  V30 3276 N 325.182 1.32811 0.848464 0
M  V30 3277 C 326.459 1.14334 1.58704 0
M  V30 3278 C 326.839 -0.293948 2.09043 0
M  V30 3279 O 326.187 -1.29153 1.88499 0
M  V30 3280 C 326.397 2.17626 2.72837 0
M  V30 3281 C 327.745 2.51282 3.42261 0
M  V30 3282 O 328.769 2.16219 2.83068 0
M  V30 3283 O 327.628 3.11413 4.49093 0
M  V30 3284 H 324.722 0.441601 0.699226 0
M  V30 3285 H 327.268 1.44362 0.892053 0
M  V30 3286 H 326.04 3.14211 2.3321 0
M  V30 3287 H 325.663 1.88628 3.50008 0
M  V30 3288 N 326.66 -1.06551 1.16123 0
M  V30 3289 C 327.607 -2.13961 0.865414 0
M  V30 3290 C 328.577 -1.65066 -0.185055 0
M  V30 3291 O 329.762 -1.90732 -0.05083 0
M  V30 3292 C 326.902 -3.43113 0.369776 0
M  V30 3293 C 326.015 -4.05756 1.48276 0
M  V30 3294 C 325.15 -5.22773 0.942414 0
M  V30 3295 C 324.189 -5.77395 2.03179 0
M  V30 3296 N 323.326 -6.85731 1.50721 0
M  V30 3297 H 328.166 -2.38605 1.78527 0
M  V30 3298 H 325.703 -1.17072 0.890646 0
M  V30 3299 H 327.661 -4.17151 0.0640643 0
M  V30 3300 H 326.291 -3.18695 -0.513143 0
M  V30 3301 H 325.343 -3.29292 1.9045 0
M  V30 3302 H 326.655 -4.42351 2.30493 0
M  V30 3303 H 325.809 -6.03827 0.589729 0
M  V30 3304 H 324.548 -4.87618 0.0895191 0
M  V30 3305 H 323.553 -4.94981 2.3932 0
M  V30 3306 H 324.778 -6.14603 2.8886 0
M  V30 3307 H 322.724 -6.52499 0.676811 0
M  V30 3308 H 322.641 -7.21254 2.26557 0
M  V30 3309 H 323.909 -7.7047 1.18303 0
M  V30 3310 N 328.138 -0.959301 -1.25041 0
M  V30 3311 C 329.366 -0.633949 -1.96948 0
M  V30 3312 C 329.781 0.794916 -1.7125 0
M  V30 3313 O 329.138 1.53231 -0.991287 0
M  V30 3314 C 329.189 -0.888805 -3.50403 0
M  V30 3315 O 328.91 -2.26149 -3.75218 0
M  V30 3316 C 330.411 -0.576482 -4.39536 0
M  V30 3317 H 327.631 -0.237263 -0.627652 0
M  V30 3318 H 330.175 -1.28495 -1.59089 0
M  V30 3319 H 328.33 -0.284145 -3.86357 0
M  V30 3320 H 328.744 -2.33514 -4.6965 0
M  V30 3321 H 330.218 -0.805314 -5.46094 0
M  V30 3322 H 330.695 0.489075 -4.36468 0
M  V30 3323 H 331.301 -1.16067 -4.09156 0
M  V30 3324 N 329.616 1.39756 -0.72842 0
M  V30 3325 C 330.566 2.2792 -0.0603424 0
M  V30 3326 C 331.55 1.43922 0.719399 0
M  V30 3327 O 332.742 1.66895 0.589489 0
M  V30 3328 C 329.871 3.32582 0.851104 0
M  V30 3329 C 328.957 4.24049 0.0658641 0
M  V30 3330 N 329.348 4.96653 -0.957578 0
M  V30 3331 C 327.646 4.45013 0.296509 0
M  V30 3332 C 328.347 5.63836 -1.43052 0
M  V30 3333 N 327.323 5.38397 -0.750315 0
M  V30 3334 H 331.125 2.81504 -0.84455 0
M  V30 3335 H 328.639 1.5236 -0.562155 0
M  V30 3336 H 330.636 3.94603 1.34514 0
M  V30 3337 H 329.296 2.80558 1.63454 0
M  V30 3338 H 330.307 5.00297 -1.33877 0
M  V30 3339 H 326.984 4.03943 1.05527 0
M  V30 3340 H 328.374 6.31974 -2.28163 0
M  V30 3341 N 331.094 0.475555 1.50254 0
M  V30 3342 C 332.322 -0.0754493 2.06762 0
M  V30 3343 C 332.737 -1.33111 1.33891 0
M  V30 3344 O 332.094 -1.77846 0.40952 0
M  V30 3345 C 332.145 -0.359008 3.59713 0
M  V30 3346 O 331.866 0.846851 4.29837 0
M  V30 3347 C 333.367 -0.956484 4.32858 0
M  V30 3348 H 330.587 0.00907525 0.670939 0
M  V30 3349 H 333.131 0.665618 1.93364 0
M  V30 3350 H 331.286 -1.05001 3.72899 0
M  V30 3351 H 331.7 0.594162 5.21124 0
M  V30 3352 H 333.174 -1.10463 5.40834 0
M  V30 3353 H 333.651 -1.94775 3.93649 0
M  V30 3354 H 334.257 -0.303723 4.24214 0
M  V30 3355 N 332.573 -1.56217 0.208337 0
M  V30 3356 C 333.813 -1.99849 -0.428927 0
M  V30 3357 C 334.177 -1.09262 -1.57879 0
M  V30 3358 O 335.378 -1.42185 -2.28116 0
M  V30 3359 C 333.649 -3.46777 -0.864879 0
M  V30 3360 S 335.208 -4.12434 -1.49811 0
M  V30 3361 H 332.026 -0.697742 -0.136665 0
M  V30 3362 H 334.628 -1.92953 0.314519 0
M  V30 3363 H 333.332 -4.10396 -0.0181326 0
M  V30 3364 H 332.863 -3.57518 -1.64147 0
M  V30 3365 H 334.878 -4.10532 -2.78707 0
M  V30 3366 N 334.051 0.0651679 -1.57465 0
M  V30 3367 C 335.462 0.616213 -1.76238 0
M  V30 3368 C 335.813 1.7756 -0.834689 0
M  V30 3369 O 334.938 2.1639 -0.0204156 0
M  V30 3370 C 335.533 1.12462 -3.1959 0
M  V30 3371 C 334.092 1.62147 -3.39684 0
M  V30 3372 C 333.239 0.543739 -2.71917 0
M  V30 3373 H 336.19 -0.161022 -1.57881 0
M  V30 3374 H 336.211 1.99324 -3.24114 0
M  V30 3375 H 335.723 0.280592 -3.87084 0
M  V30 3376 H 333.824 2.48854 -2.77313 0
M  V30 3377 H 333.937 1.69385 -4.48158 0
M  V30 3378 H 332.301 0.990352 -2.34657 0
M  V30 3379 H 333.084 -0.290216 -3.42071 0
M  V30 3380 N 335.529 1.53961 0.336706 0
M  V30 3381 C 336.94 1.62914 0.911925 0
M  V30 3382 C 337.291 0.514795 1.89326 0
M  V30 3383 O 336.416 -0.354395 2.13478 0
M  V30 3384 C 337.011 2.95304 1.66076 0
M  V30 3385 C 335.57 3.06496 2.18489 0
M  V30 3386 C 334.717 2.58403 1.00613 0
M  V30 3387 H 337.668 1.58285 0.114649 0
M  V30 3388 H 337.689 2.84727 2.5241 0
M  V30 3389 H 337.201 3.76387 0.946276 0
M  V30 3390 H 335.302 2.3006 2.93092 0
M  V30 3391 H 335.415 4.1208 2.44391 0
M  V30 3392 H 333.779 2.13977 1.38152 0
M  V30 3393 H 334.562 3.41932 0.306179 0
M  V30 3394 N 337.007 -0.598083 1.45811 0
M  V30 3395 C 338.247 -1.36802 1.5187 0
M  V30 3396 C 338.611 -1.9133 0.160224 0
M  V30 3397 O 339.812 -2.6863 0.0955302 0
M  V30 3398 C 338.083 -2.47835 2.57513 0
M  V30 3399 S 339.642 -3.35458 2.82866 0
M  V30 3400 H 336.46 -0.466278 0.536755 0
M  V30 3401 H 339.062 -0.689152 1.82951 0
M  V30 3402 H 337.766 -2.06141 3.54872 0
M  V30 3403 H 337.297 -3.20512 2.28114 0
M  V30 3404 H 339.312 -4.46251 2.16967 0
M  V30 3405 N 338.485 -1.33259 -0.841409 0
M  V30 3406 C 339.896 -1.22066 -1.41269 0
M  V30 3407 C 340.247 0.161479 -1.95534 0
M  V30 3408 O 339.372 1.06094 -1.88608 0
M  V30 3409 C 339.967 -2.20996 -2.568 0
M  V30 3410 C 338.526 -2.13649 -3.09888 0
M  V30 3411 C 337.673 -2.08623 -1.82679 0
M  V30 3412 H 340.624 -1.44895 -0.647395 0
M  V30 3413 H 340.645 -1.81621 -3.34356 0
M  V30 3414 H 340.157 -3.2158 -2.17274 0
M  V30 3415 H 338.258 -1.16359 -3.53965 0
M  V30 3416 H 338.371 -3.04079 -3.70234 0
M  V30 3417 H 336.735 -1.54061 -2.02824 0
M  V30 3418 H 337.518 -3.1101 -1.45353 0
M  V30 3419 N 339.963 1.05934 -1.16686 0
M  V30 3420 C 340.926 2.11669 -0.879144 0
M  V30 3421 C 341.926 1.60294 0.127445 0
M  V30 3422 O 343.116 1.7389 -0.103865 0
M  V30 3423 C 340.248 3.39438 -0.315425 0
M  V30 3424 H 341.441 2.38626 -1.81653 0
M  V30 3425 H 338.994 1.22058 -0.976299 0
M  V30 3426 H 339.729 3.18132 0.629468 0
M  V30 3427 H 339.514 3.78034 -1.04079 0
M  V30 3428 H 341.004 4.17391 -0.132189 0
M  V30 3429 N 341.441 0.965919 1.2453 0
M  V30 3430 C 342.852 0.665929 1.7442 0
M  V30 3431 C 343.203 -0.818407 1.78316 0
M  V30 3432 O 342.328 -1.64037 1.41141 0
M  V30 3433 C 342.923 1.20211 3.16757 0
M  V30 3434 C 341.482 0.952059 3.6416 0
M  V30 3435 C 340.629 1.33848 2.42858 0
M  V30 3436 H 343.58 1.14144 1.10258 0
M  V30 3437 H 343.601 0.567544 3.76244 0
M  V30 3438 H 343.113 2.28244 3.13889 0
M  V30 3439 H 341.214 -0.112821 3.72429 0
M  V30 3440 H 341.327 1.59645 4.51719 0
M  V30 3441 H 339.691 0.756864 2.43195 0
M  V30 3442 H 340.474 2.42827 2.42673 0
M  V30 3443 N 342.919 -1.39368 0.735821 0
M  V30 3444 C 343.829 -2.34395 0.0979693 0
M  V30 3445 C 344.845 -1.58361 -0.720968 0
M  V30 3446 O 346.021 -1.90648 -0.649245 0
M  V30 3447 C 343.086 -3.37393 -0.797916 0
M  V30 3448 C 342.147 -4.29287 0.0333662 0
M  V30 3449 C 341.38 -5.27365 -0.819854 0
M  V30 3450 O 341.603 -5.31959 -2.05855 0
M  V30 3451 O 340.537 -6.01389 -0.248079 0
M  V30 3452 H 344.363 -2.90601 0.882315 0
M  V30 3453 H 341.948 -1.40909 0.4965 0
M  V30 3454 H 343.83 -4.00505 -1.31048 0
M  V30 3455 H 342.505 -2.83571 -1.56106 0
M  V30 3456 H 341.412 -3.69395 0.591475 0
M  V30 3457 H 342.745 -4.86317 0.758752 0
M  V30 3458 N 344.397 -0.483516 -1.5 0
M  V30 3459 C 345.327 0.293829 -2.31644 0
M  V30 3460 C 346.308 0.978864 -1.39112 0
M  V30 3461 O 347.493 0.973644 -1.68029 0
M  V30 3462 C 344.623 1.36897 -3.19181 0
M  V30 3463 C 343.577 0.804833 -4.20365 0
M  V30 3464 C 342.903 1.9792 -4.96721 0
M  V30 3465 C 344.203 -0.192313 -5.21946 0
M  V30 3466 H 345.897 -0.387616 -2.9688 0
M  V30 3467 H 343.443 -0.187856 -1.42769 0
M  V30 3468 H 345.396 1.92037 -3.751 0
M  V30 3469 H 344.12 2.07936 -2.51853 0
M  V30 3470 H 342.779 0.275319 -3.65565 0
M  V30 3471 H 342.427 2.67686 -4.25856 0
M  V30 3472 H 342.127 1.60789 -5.65173 0
M  V30 3473 H 343.651 2.53526 -5.55479 0
M  V30 3474 H 345.065 0.270333 -5.72662 0
M  V30 3475 H 343.462 -0.478543 -5.98189 0
M  V30 3476 H 344.532 -1.11409 -4.71928 0
M  V30 3477 N 345.875 1.56104 -0.216619 0
M  V30 3478 C 346.805 2.23063 0.690296 0
M  V30 3479 C 347.786 1.20072 1.20485 0
M  V30 3480 O 348.971 1.48643 1.24976 0
M  V30 3481 C 346.101 2.90672 1.90072 0
M  V30 3482 C 345.055 4.00092 1.5202 0
M  V30 3483 C 344.381 4.54972 2.80899 0
M  V30 3484 C 345.681 5.17398 0.71391 0
M  V30 3485 H 347.375 2.99109 0.132038 0
M  V30 3486 H 344.921 1.43866 0.0620664 0
M  V30 3487 H 346.874 3.36204 2.54057 0
M  V30 3488 H 345.598 2.12066 2.48386 0
M  V30 3489 H 344.257 3.55283 0.903839 0
M  V30 3490 H 343.905 3.73102 3.37348 0
M  V30 3491 H 343.605 5.28817 2.56176 0
M  V30 3492 H 345.129 5.0322 3.45836 0
M  V30 3493 H 346.543 5.59342 1.25735 0
M  V30 3494 H 344.94 5.97444 0.563951 0
M  V30 3495 H 346.01 4.84088 -0.280527 0
M  V30 3496 N 347.353 -0.0568162 1.57498 0
M  V30 3497 C 348.601 -0.751617 1.87604 0
M  V30 3498 C 348.922 -1.77351 0.81066 0
M  V30 3499 O 348.192 -1.95254 -0.159018 0
M  V30 3500 H 346.772 -0.280583 0.692302 0
M  V30 3501 H 349.434 -0.0293483 1.94878 0
M  V30 3502 H 348.53 -1.25852 2.856 0
M  V30 3503 N 348.832 -1.54138 -0.328536 0
M  V30 3504 C 350.08 -1.71765 -1.06496 0
M  V30 3505 C 350.401 -0.49149 -1.88704 0
M  V30 3506 O 349.671 0.494539 -1.89555 0
M  V30 3507 H 348.251 -0.633295 -0.396164 0
M  V30 3508 H 350.913 -1.91429 -0.366176 0
M  V30 3509 H 350.009 -2.5951 -1.73381 0
M  V30 3510 N 350.31 0.590341 -1.46126 0
M  V30 3511 C 351.721 1.17243 -1.45296 0
M  V30 3512 C 352.072 1.95281 -0.189723 0
M  V30 3513 O 351.197 2.04502 0.707674 0
M  V30 3514 C 351.792 2.13284 -2.6324 0
M  V30 3515 C 350.351 2.66832 -2.65476 0
M  V30 3516 C 349.498 1.42557 -2.3785 0
M  V30 3517 H 352.449 0.378692 -1.54116 0
M  V30 3518 H 352.47 2.96619 -2.38323 0
M  V30 3519 H 351.982 1.56459 -3.55165 0
M  V30 3520 H 350.083 3.27548 -1.77603 0
M  V30 3521 H 350.196 3.10088 -3.65215 0
M  V30 3522 H 348.56 1.72107 -1.87753 0
M  V30 3523 H 349.343 0.875741 -3.31942 0
M  V30 3524 N 351.788 1.33704 0.83433 0
M  V30 3525 C 353.013 1.28615 1.62705 0
M  V30 3526 C 353.438 -0.139242 1.87584 0
M  V30 3527 O 352.796 -1.09734 1.4432 0
M  V30 3528 C 352.844 2.07139 2.95171 0
M  V30 3529 O 351.948 1.4331 3.86699 0
M  V30 3530 H 351.289 0.44226 0.49528 0
M  V30 3531 H 353.819 1.76335 1.03766 0
M  V30 3532 H 353.829 2.18073 3.44831 0
M  V30 3533 H 352.504 3.10779 2.76386 0
M  V30 3534 H 351.081 1.4105 3.45195 0
M  V30 3535 N 353.266 -1.05314 1.17247 0
M  V30 3536 C 354.512 -1.78557 0.961513 0
M  V30 3537 C 354.845 -1.87419 -0.508697 0
M  V30 3538 O 354.12 -1.37307 -1.37757 0
M  V30 3539 C 354.403 -3.22514 1.60176 0
M  V30 3540 C 354.256 -3.21673 3.14399 0
M  V30 3541 C 355.575 -4.20318 1.30463 0
M  V30 3542 H 352.694 -0.6482 0.350723 0
M  V30 3543 H 355.336 -1.23102 1.44727 0
M  V30 3544 H 353.486 -3.69867 1.18871 0
M  V30 3545 H 355.158 -2.82405 3.64753 0
M  V30 3546 H 353.401 -2.60048 3.47214 0
M  V30 3547 H 354.072 -4.23271 3.54324 0
M  V30 3548 H 356.548 -3.81454 1.66229 0
M  V30 3549 H 355.424 -5.19289 1.77848 0
M  V30 3550 H 355.685 -4.41526 0.22521 0
M  V30 3551 N 354.744 -0.972509 -1.24016 0
M  V30 3552 C 355.991 -0.637034 -1.92219 0
M  V30 3553 C 356.319 0.828418 -1.75976 0
M  V30 3554 O 355.574 1.61206 -1.10955 0
M  V30 3555 C 355.873 -0.963694 -3.44162 0
M  V30 3556 C 355.539 -2.41807 -3.80579 0
M  V30 3557 C 354.201 -2.81556 -3.9023 0
M  V30 3558 C 356.553 -3.36172 -3.98293 0
M  V30 3559 C 353.881 -4.14702 -4.15017 0
M  V30 3560 C 356.233 -4.68952 -4.24578 0
M  V30 3561 C 354.897 -5.08472 -4.32449 0
M  V30 3562 H 354.167 -0.233107 -0.703379 0
M  V30 3563 H 356.814 -1.2249 -1.47202 0
M  V30 3564 H 355.119 -0.29365 -3.90698 0
M  V30 3565 H 356.816 -0.682449 -3.9515 0
M  V30 3566 H 353.406 -2.09988 -3.73635 0
M  V30 3567 H 357.59 -3.06644 -3.90234 0
M  V30 3568 H 352.846 -4.4494 -4.19331 0
M  V30 3569 H 357.02 -5.42037 -4.37229 0
M  V30 3570 H 354.647 -6.11665 -4.51409 0
M  V30 3571 N 356.222 1.38976 -0.743202 0
M  V30 3572 C 357.152 2.33171 -0.123873 0
M  V30 3573 C 358.133 1.54336 0.71516 0
M  V30 3574 O 359.318 1.82696 0.658467 0
M  V30 3575 C 356.448 3.38474 0.777978 0
M  V30 3576 C 355.402 4.27979 0.0424758 0
M  V30 3577 C 354.728 5.2405 1.06189 0
M  V30 3578 C 356.028 5.10155 -1.1198 0
M  V30 3579 H 357.722 2.85213 -0.910709 0
M  V30 3580 H 355.268 1.37133 -0.439388 0
M  V30 3581 H 357.221 4.03328 1.22084 0
M  V30 3582 H 355.945 2.84891 1.59702 0
M  V30 3583 H 354.604 3.64616 -0.380853 0
M  V30 3584 H 354.252 4.66758 1.87472 0
M  V30 3585 H 353.952 5.84785 0.574485 0
M  V30 3586 H 355.476 5.9178 1.50428 0
M  V30 3587 H 356.89 5.68307 -0.75499 0
M  V30 3588 H 355.287 5.80073 -1.53738 0
M  V30 3589 H 356.357 4.44504 -1.93764 0
M  V30 3590 N 357.7 0.491464 1.49741 0
M  V30 3591 C 358.947 -0.0564256 2.02421 0
M  V30 3592 C 359.275 -1.37872 1.37192 0
M  V30 3593 O 358.53 -1.89375 0.493508 0
M  V30 3594 C 358.829 -0.267329 3.56399 0
M  V30 3595 C 358.495 0.975775 4.40215 0
M  V30 3596 C 357.157 1.31655 4.62839 0
M  V30 3597 C 359.509 1.80251 4.89039 0
M  V30 3598 C 356.837 2.48375 5.31532 0
M  V30 3599 C 359.189 2.96116 5.59015 0
M  V30 3600 C 357.853 3.30585 5.79888 0
M  V30 3601 H 357.123 -0.0206476 0.740712 0
M  V30 3602 H 359.77 0.649686 1.80143 0
M  V30 3603 H 358.075 -1.05588 3.77304 0
M  V30 3604 H 359.772 -0.705549 3.94744 0
M  V30 3605 H 356.362 0.700315 4.2284 0
M  V30 3606 H 360.546 1.55239 4.71396 0
M  V30 3607 H 355.802 2.7533 5.45897 0
M  V30 3608 H 359.976 3.60509 5.95824 0
M  V30 3609 H 357.603 4.21132 6.32892 0
M  V30 3610 N 359.178 -1.55987 0.224894 0
M  V30 3611 C 360.589 -1.84553 -0.282345 0
M  V30 3612 C 360.94 -1.14634 -1.59227 0
M  V30 3613 O 360.065 -0.417155 -2.12341 0
M  V30 3614 C 360.66 -3.348 -0.519062 0
M  V30 3615 C 359.219 -3.63671 -0.970604 0
M  V30 3616 C 358.366 -2.77277 -0.0355261 0
M  V30 3617 H 361.317 -1.52245 0.448006 0
M  V30 3618 H 361.338 -3.55187 -1.36463 0
M  V30 3619 H 360.85 -3.8566 0.43449 0
M  V30 3620 H 358.951 -3.1827 -1.9374 0
M  V30 3621 H 359.064 -4.71631 -0.842698 0
M  V30 3622 H 357.428 -2.48846 -0.542927 0
M  V30 3623 H 358.211 -3.30937 0.913003 0
M  V30 3624 N 360.656 0.0484629 -1.57525 0
M  V30 3625 C 362.067 0.597486 -1.76881 0
M  V30 3626 C 362.418 1.76664 -0.853475 0
M  V30 3627 O 361.543 2.16357 -0.0433656 0
M  V30 3628 C 362.138 1.09066 -3.20765 0
M  V30 3629 C 360.697 1.58535 -3.41385 0
M  V30 3630 C 359.844 0.514868 -2.72478 0
M  V30 3631 H 362.795 -0.177758 -1.57701 0
M  V30 3632 H 362.816 1.95875 -3.2621 0
M  V30 3633 H 362.328 0.239521 -3.8736 0
M  V30 3634 H 360.429 2.45898 -2.79937 0
M  V30 3635 H 360.542 1.64622 -4.49929 0
M  V30 3636 H 358.906 0.965407 -2.35695 0
M  V30 3637 H 359.689 -0.32648 -3.41744 0
M  V30 3638 N 362.134 1.5431 0.320358 0
M  V30 3639 C 363.081 1.83918 1.39438 0
M  V30 3640 C 364.051 0.686525 1.51248 0
M  V30 3641 O 365.236 0.933269 1.66417 0
M  V30 3642 C 362.376 2.075 2.75749 0
M  V30 3643 C 361.489 3.35177 2.72544 0
M  V30 3644 C 360.624 3.48704 4.00723 0
M  V30 3645 C 359.663 4.70244 3.91838 0
M  V30 3646 N 358.8 4.80679 5.11754 0
M  V30 3647 H 363.64 2.75544 1.13489 0
M  V30 3648 H 361.177 1.36459 0.549309 0
M  V30 3649 H 363.135 2.19166 3.54996 0
M  V30 3650 H 361.765 1.19163 3 0
M  V30 3651 H 360.817 3.32233 1.85271 0
M  V30 3652 H 362.129 4.24534 2.61863 0
M  V30 3653 H 361.283 3.59928 4.88402 0
M  V30 3654 H 360.022 2.57445 4.14214 0
M  V30 3655 H 359.027 4.59072 3.02544 0
M  V30 3656 H 360.252 5.6289 3.7991 0
M  V30 3657 H 358.198 3.92337 5.25745 0
M  V30 3658 H 358.115 5.64007 5.0342 0
M  V30 3659 H 359.383 4.96239 6.01138 0
M  V30 3660 N 363.613 -0.582584 1.46437 0
M  V30 3661 C 365.024 -1.1647 1.45916 0
M  V30 3662 C 365.375 -1.95177 0.200077 0
M  V30 3663 O 364.5 -2.04874 -0.696819 0
M  V30 3664 C 365.095 -2.11885 2.64367 0
M  V30 3665 C 363.654 -2.65421 2.66887 0
M  V30 3666 C 362.801 -1.41294 2.38603 0
M  V30 3667 H 365.752 -0.370514 1.54314 0
M  V30 3668 H 365.773 -2.9535 2.39892 0
M  V30 3669 H 365.285 -1.54573 3.5599 0
M  V30 3670 H 363.386 -3.26602 1.79338 0
M  V30 3671 H 363.499 -3.08147 3.66854 0
M  V30 3672 H 361.863 -1.71109 1.88663 0
M  V30 3673 H 362.646 -0.858125 3.32402 0
M  V30 3674 N 365.091 -1.34144 -0.827227 0
M  V30 3675 C 366.038 -1.25364 -1.93785 0
M  V30 3676 C 367.008 -0.129774 -1.65592 0
M  V30 3677 O 368.193 -0.310024 -1.88264 0
M  V30 3678 C 365.333 -1.01064 -3.2997 0
M  V30 3679 C 364.446 -2.22185 -3.70484 0
M  V30 3680 C 363.581 -1.91203 -4.95595 0
M  V30 3681 C 362.62 -3.08491 -5.28677 0
M  V30 3682 N 361.757 -2.77421 -6.44967 0
M  V30 3683 H 366.597 -2.20347 -2.00627 0
M  V30 3684 H 364.134 -1.09558 -0.981608 0
M  V30 3685 H 366.092 -0.850139 -4.08446 0
M  V30 3686 H 364.722 -0.0975026 -3.22653 0
M  V30 3687 H 363.774 -2.4917 -2.87434 0
M  V30 3688 H 365.086 -3.0983 -3.90905 0
M  V30 3689 H 364.24 -1.71864 -5.81848 0
M  V30 3690 H 362.979 -1.00812 -4.77167 0
M  V30 3691 H 361.984 -3.28431 -4.40923 0
M  V30 3692 H 363.209 -3.99655 -5.49047 0
M  V30 3693 H 361.155 -1.89601 -6.28003 0
M  V30 3694 H 361.072 -3.58598 -6.6554 0
M  V30 3695 H 362.34 -2.61577 -7.34301 0
M  V30 3696 N 366.569 1.04691 -1.17803 0
M  V30 3697 C 367.846 1.7472 -0.879328 0
M  V30 3698 C 368.226 2.01812 0.619271 0
M  V30 3699 O 367.574 1.65824 1.57209 0
M  V30 3700 C 367.784 3.03686 -1.71976 0
M  V30 3701 C 369.132 3.77542 -1.94286 0
M  V30 3702 O 370.156 3.13569 -1.68976 0
M  V30 3703 O 369.015 4.92506 -2.36855 0
M  V30 3704 H 366.109 0.760011 -0.326056 0
M  V30 3705 H 368.655 1.10813 -1.28525 0
M  V30 3706 H 367.427 2.79754 -2.73594 0
M  V30 3707 H 367.05 3.75332 -1.31194 0
M  V30 3708 N 368.047 0.979072 1.23499 0
M  V30 3709 C 369.275 0.665202 1.95915 0
M  V30 3710 C 369.69 -0.767571 1.72493 0
M  V30 3711 O 369.047 -1.51635 1.01554 0
M  V30 3712 C 369.098 0.944438 3.48945 0
M  V30 3713 O 368.819 2.3209 3.71572 0
M  V30 3714 C 370.32 0.646336 4.38563 0
M  V30 3715 H 367.54 0.247218 0.623798 0
M  V30 3716 H 370.084 1.31009 1.57025 0
M  V30 3717 H 368.239 0.345575 3.85856 0
M  V30 3718 H 368.653 2.40957 4.65876 0
M  V30 3719 H 370.127 0.892091 5.44744 0
M  V30 3720 H 370.604 -0.419575 4.37191 0
M  V30 3721 H 371.21 1.22562 4.07258 0
M  V30 3722 N 369.525 -1.3858 0.750561 0
M  V30 3723 C 370.455 -2.33102 0.136237 0
M  V30 3724 C 371.436 -1.54713 -0.706965 0
M  V30 3725 O 372.621 -1.83043 -0.648769 0
M  V30 3726 C 369.751 -3.38882 -0.760017 0
M  V30 3727 C 368.705 -4.27995 -0.0197785 0
M  V30 3728 C 368.031 -5.24605 -1.03408 0
M  V30 3729 C 369.331 -5.09554 1.14684 0
M  V30 3730 H 371.025 -2.84726 0.925822 0
M  V30 3731 H 368.571 -1.36898 0.446654 0
M  V30 3732 H 370.524 -4.0397 -1.19943 0
M  V30 3733 H 369.248 -2.85734 -1.58189 0
M  V30 3734 H 367.907 -3.64409 0.400184 0
M  V30 3735 H 367.555 -4.67746 -1.84994 0
M  V30 3736 H 367.255 -5.85081 -0.543464 0
M  V30 3737 H 368.779 -5.9257 -1.47288 0
M  V30 3738 H 370.193 -5.67899 0.785118 0
M  V30 3739 H 368.59 -5.7925 1.56812 0
M  V30 3740 H 369.66 -4.4347 1.96118 0
M  V30 3741 N 371.003 -0.499398 -1.49478 0
M  V30 3742 C 371.936 0.326491 -2.25852 0
M  V30 3743 C 372.914 0.971776 -1.30366 0
M  V30 3744 O 374.098 1.00219 -1.59651 0
M  V30 3745 C 371.225 1.45969 -3.05632 0
M  V30 3746 C 370.271 0.928938 -4.16261 0
M  V30 3747 S 371.104 -0.179012 -5.35201 0
M  V30 3748 C 372.26 0.957389 -6.18534 0
M  V30 3749 H 372.493 -0.321746 -2.95554 0
M  V30 3750 H 370.026 -0.284674 -1.51753 0
M  V30 3751 H 371.984 2.109 -3.52181 0
M  V30 3752 H 370.645 2.07953 -2.35402 0
M  V30 3753 H 369.838 1.77813 -4.71592 0
M  V30 3754 H 369.44 0.356869 -3.72293 0
M  V30 3755 H 371.732 1.86296 -6.51383 0
M  V30 3756 H 372.675 0.442733 -7.06715 0
M  V30 3757 H 373.083 1.224 -5.5107 0
M  V30 3758 N 372.481 1.55866 -0.233164 0
M  V30 3759 C 373.73 1.97779 0.39579 0
M  V30 3760 C 374.043 1.12419 1.60066 0
M  V30 3761 O 375.249 1.44283 2.29988 0
M  V30 3762 C 373.705 3.5188 0.755556 0
M  V30 3763 C 373.313 4.45959 -0.427152 0
M  V30 3764 C 375.057 4.02479 1.34946 0
M  V30 3765 C 372.964 5.91383 -0.0443043 0
M  V30 3766 H 371.894 0.738592 0.15165 0
M  V30 3767 H 374.545 1.80486 -0.331212 0
M  V30 3768 H 372.927 3.64816 1.5403 0
M  V30 3769 H 374.101 4.44776 -1.20462 0
M  V30 3770 H 372.416 4.05765 -0.935068 0
M  V30 3771 H 375.013 5.08637 1.649 0
M  V30 3772 H 375.356 3.49014 2.26925 0
M  V30 3773 H 375.889 3.92813 0.62791 0
M  V30 3774 H 372.628 6.48857 -0.930874 0
M  V30 3775 H 372.148 5.95734 0.697238 0
M  V30 3776 H 373.827 6.45893 0.378334 0
M  V30 3777 N 373.959 -0.0401083 1.57549 0
M  V30 3778 C 375.184 -0.748931 1.93406 0
M  V30 3779 C 375.609 -1.68686 0.832274 0
M  V30 3780 O 374.967 -1.80047 -0.212818 0
M  V30 3781 C 375.015 -1.4916 3.28304 0
M  V30 3782 O 374.119 -2.6042 3.19774 0
M  V30 3783 H 373.46 -0.202212 0.63246 0
M  V30 3784 H 375.99 0.00112086 2.046 0
M  V30 3785 H 376 -1.86395 3.62934 0
M  V30 3786 H 374.675 -0.80364 4.08062 0
M  V30 3787 H 373.252 -2.25808 2.96758 0
M  V30 3788 N 375.437 -1.54477 -0.31217 0
M  V30 3789 C 376.853 -1.45442 -0.657185 0
M  V30 3790 C 377.053 -0.63653 -1.91182 0
M  V30 3791 O 376.109 -0.139815 -2.52113 0
M  V30 3792 C 377.422 -2.89287 -0.82058 0
M  V30 3793 C 378.97 -2.9926 -0.917188 0
M  V30 3794 C 379.445 -4.44279 -1.11267 0
M  V30 3795 N 380.936 -4.4794 -1.17914 0
M  V30 3796 C 381.671 -5.57318 -1.34848 0
M  V30 3797 N 381.167 -6.76642 -1.48752 0
M  V30 3798 N 382.96 -5.44986 -1.37647 0
M  V30 3799 H 375.111 -2.06129 0.512313 0
M  V30 3800 H 377.374 -0.933088 0.167485 0
M  V30 3801 H 377.08 -3.51687 0.0302604 0
M  V30 3802 H 376.954 -3.36061 -1.71298 0
M  V30 3803 H 379.341 -2.36981 -1.75852 0
M  V30 3804 H 379.422 -2.558 -0.00101257 0
M  V30 3805 H 379.066 -5.07149 -0.27614 0
M  V30 3806 H 378.996 -4.85359 -2.04289 0
M  V30 3807 H 381.487 -3.61969 -1.08567 0
M  V30 3808 H 381.8 -7.55758 -1.61397 0
M  V30 3809 H 380.145 -6.79529 -1.45828 0
M  V30 3810 H 383.336 -4.50715 -1.26388 0
M  V30 3811 H 383.509 -6.3028 -1.50501 0
M  V30 3812 N 376.915 0.57481 -1.46744 0
M  V30 3813 C 378.143 1.35856 -1.56047 0
M  V30 3814 C 378.558 1.87691 -0.204365 0
M  V30 3815 O 377.915 1.64049 0.79963 0
M  V30 3816 C 377.966 2.54066 -2.57163 0
M  V30 3817 O 377.687 2.04377 -3.87507 0
M  V30 3818 C 379.188 3.46514 -2.76483 0
M  V30 3819 H 376.408 0.414754 -0.527466 0
M  V30 3820 H 378.952 0.698035 -1.92218 0
M  V30 3821 H 377.107 3.16092 -2.23974 0
M  V30 3822 H 377.521 2.81419 -4.4261 0
M  V30 3823 H 378.995 4.25919 -3.51137 0
M  V30 3824 H 379.472 3.98951 -1.83671 0
M  V30 3825 H 380.078 2.90318 -3.10799 0
M  V30 3826 N 378.394 1.34581 0.820102 0
M  V30 3827 C 379.805 1.24298 1.39309 0
M  V30 3828 C 380.156 -0.130351 1.95767 0
M  V30 3829 O 379.281 -1.0308 1.90272 0
M  V30 3830 C 379.876 2.25054 2.53251 0
M  V30 3831 C 378.435 2.18552 3.0645 0
M  V30 3832 C 377.582 2.11503 1.79337 0
M  V30 3833 H 380.533 1.45906 0.624262 0
M  V30 3834 H 380.554 1.86917 3.31425 0
M  V30 3835 H 380.066 3.24996 2.1213 0
M  V30 3836 H 378.167 1.21976 3.52069 0
M  V30 3837 H 378.28 3.0993 3.65349 0
M  V30 3838 H 376.644 1.57268 2.00347 0
M  V30 3839 H 377.427 3.13284 1.40386 0
M  V30 3840 N 379.872 -1.04064 1.18357 0
M  V30 3841 C 380.782 -2.15569 0.925596 0
M  V30 3842 C 381.798 -1.7365 -0.110295 0
M  V30 3843 O 382.974 -2.01273 0.0716218 0
M  V30 3844 C 380.039 -3.43704 0.454836 0
M  V30 3845 C 379.1 -4.00004 1.55869 0
M  V30 3846 C 378.333 -5.22023 1.1103 0
M  V30 3847 O 378.556 -5.70392 -0.0309756 0
M  V30 3848 O 377.49 -5.70856 1.90805 0
M  V30 3849 H 381.316 -2.40187 1.8586 0
M  V30 3850 H 378.901 -1.1402 0.965394 0
M  V30 3851 H 380.783 -4.20923 0.200382 0
M  V30 3852 H 379.458 -3.20559 -0.449876 0
M  V30 3853 H 378.365 -3.24172 1.86716 0
M  V30 3854 H 379.698 -4.2749 2.43953 0
M  V30 3855 N 381.35 -0.985608 -1.22978 0
M  V30 3856 C 382.596 -0.65836 -1.91816 0
M  V30 3857 C 382.929 0.806692 -1.76653 0
M  V30 3858 O 382.204 1.58252 -1.13078 0
M  V30 3859 C 382.487 -1.056 -3.44268 0
M  V30 3860 C 382.34 -2.57906 -3.68516 0
M  V30 3861 C 383.659 -0.603781 -4.35939 0
M  V30 3862 H 380.778 -0.24065 -0.696604 0
M  V30 3863 H 383.42 -1.22783 -1.44998 0
M  V30 3864 H 381.57 -0.571445 -3.84274 0
M  V30 3865 H 383.242 -3.13976 -3.3796 0
M  V30 3866 H 381.485 -3.00305 -3.13048 0
M  V30 3867 H 382.156 -2.80779 -4.75255 0
M  V30 3868 H 384.632 -1.01987 -4.03408 0
M  V30 3869 H 383.508 -0.910383 -5.41298 0
M  V30 3870 H 383.769 0.495761 -4.39312 0
M  V30 3871 N 382.828 1.3818 -0.7579 0
M  V30 3872 C 384.056 2.04301 -0.326937 0
M  V30 3873 C 384.471 1.57163 1.0462 0
M  V30 3874 O 383.828 0.746626 1.66529 0
M  V30 3875 C 383.879 3.59846 -0.345363 0
M  V30 3876 O 383.6 4.05256 -1.66432 0
M  V30 3877 C 385.101 4.4319 0.098927 0
M  V30 3878 H 382.321 0.656443 -0.139012 0
M  V30 3879 H 384.865 1.76786 -1.02796 0
M  V30 3880 H 383.02 3.86182 0.306955 0
M  V30 3881 H 383.434 4.99709 -1.59345 0
M  V30 3882 H 384.908 5.51989 0.0348745 0
M  V30 3883 H 385.385 4.23947 1.14741 0
M  V30 3884 H 385.991 4.22051 -0.52468 0
M  V30 3885 N 384.306 0.507319 1.49211 0
M  V30 3886 C 385.546 -0.0332372 2.04373 0
M  V30 3887 C 385.91 -1.33694 1.37804 0
M  V30 3888 O 387.111 -1.96213 1.83722 0
M  V30 3889 C 385.382 -0.17599 3.56966 0
M  V30 3890 S 386.941 -0.669882 4.33657 0
M  V30 3891 H 383.759 0.00123603 0.710999 0
M  V30 3892 H 386.361 0.682725 1.83191 0
M  V30 3893 H 385.065 0.778053 4.02957 0
M  V30 3894 H 384.596 -0.917005 3.82563 0
M  V30 3895 H 386.611 -1.93806 4.56786 0
M  V30 3896 N 385.784 -1.5574 0.241426 0
M  V30 3897 C 387.03 -1.99104 -0.385406 0
M  V30 3898 C 387.363 -1.1293 -1.57988 0
M  V30 3899 O 386.638 -0.191449 -1.93555 0
M  V30 3900 C 386.921 -3.51087 -0.800616 0
M  V30 3901 C 386.774 -4.48028 0.398874 0
M  V30 3902 C 388.093 -4.08015 -1.64959 0
M  V30 3903 H 385.212 -0.723848 -0.138614 0
M  V30 3904 H 387.854 -1.86903 0.341642 0
M  V30 3905 H 386.004 -3.61615 -1.4201 0
M  V30 3906 H 387.676 -4.49487 1.03726 0
M  V30 3907 H 385.919 -4.21077 1.04293 0
M  V30 3908 H 386.59 -5.51962 0.0651056 0
M  V30 3909 H 389.066 -4.00555 -1.12672 0
M  V30 3910 H 387.942 -5.14635 -1.90898 0
M  V30 3911 H 388.203 -3.56131 -2.61961 0
M  V30 3912 N 387.262 0.0317525 -1.57568 0
M  V30 3913 C 388.508 0.724175 -1.8943 0
M  V30 3914 C 388.841 1.75149 -0.838836 0
M  V30 3915 O 388.116 1.93948 0.146422 0
M  V30 3916 C 388.399 1.39615 -3.31933 0
M  V30 3917 C 388.252 0.382537 -4.4817 0
M  V30 3918 C 389.571 2.33084 -3.73309 0
M  V30 3919 H 386.69 0.261797 -0.688935 0
M  V30 3920 H 389.332 -0.013017 -1.89996 0
M  V30 3921 H 387.482 2.02451 -3.31581 0
M  V30 3922 H 389.154 -0.243689 -4.60656 0
M  V30 3923 H 387.397 -0.29844 -4.32772 0
M  V30 3924 H 388.068 0.891145 -5.44759 0
M  V30 3925 H 390.544 1.80295 -3.7501 0
M  V30 3926 H 389.42 2.77084 -4.73831 0
M  V30 3927 H 389.681 3.19643 -3.05419 0
M  V30 3928 N 388.74 1.54641 0.303973 0
M  V30 3929 C 389.986 1.74038 1.04109 0
M  V30 3930 C 390.319 0.523051 1.87024 0
M  V30 3931 O 389.594 -0.479874 1.88487 0
M  V30 3932 C 389.877 3.02761 1.94955 0
M  V30 3933 C 389.73 4.34787 1.1524 0
M  V30 3934 C 391.049 3.27336 2.94175 0
M  V30 3935 H 388.168 0.63323 0.377079 0
M  V30 3936 H 390.81 1.87354 0.316001 0
M  V30 3937 H 388.96 2.9154 2.56782 0
M  V30 3938 H 390.632 4.57922 0.557236 0
M  V30 3939 H 388.875 4.31407 0.455053 0
M  V30 3940 H 389.546 5.21116 1.8205 0
M  V30 3941 H 392.022 3.38148 2.42477 0
M  V30 3942 H 390.898 4.18726 3.54908 0
M  V30 3943 H 391.159 2.45491 3.67677 0
M  V30 3944 N 390.218 -0.567019 1.47046 0
M  V30 3945 C 391.495 -1.3276 1.43646 0
M  V30 3946 C 391.875 -2.1071 0.128186 0
M  V30 3947 O 391.223 -2.10441 -0.890326 0
M  V30 3948 C 391.433 -2.2404 2.67595 0
M  V30 3949 C 392.781 -2.85372 3.14401 0
M  V30 3950 O 393.805 -2.34346 2.68254 0
M  V30 3951 O 392.664 -3.78091 3.946 0
M  V30 3952 H 389.758 -0.597293 0.571988 0
M  V30 3953 H 392.304 -0.586735 1.59234 0
M  V30 3954 H 391.076 -1.65975 3.54356 0
M  V30 3955 H 390.699 -3.05439 2.54544 0
M  V30 3956 N 391.696 -1.35014 -0.812953 0
M  V30 3957 C 392.942 -1.2812 -1.57204 0
M  V30 3958 C 393.275 0.145869 -1.93651 0
M  V30 3959 O 392.55 1.0937 -1.60836 0
M  V30 3960 C 392.833 -2.18162 -2.86492 0
M  V30 3961 C 392.686 -3.69454 -2.56561 0
M  V30 3962 C 394.005 -2.07439 -3.88145 0
M  V30 3963 H 391.124 -0.466746 -0.570366 0
M  V30 3964 H 393.766 -1.65357 -0.935783 0
M  V30 3965 H 391.916 -1.86535 -3.40789 0
M  V30 3966 H 393.588 -4.11493 -2.08497 0
M  V30 3967 H 391.831 -3.9005 -1.89851 0
M  V30 3968 H 392.502 -4.27835 -3.48799 0
M  V30 3969 H 394.978 -2.35228 -3.4323 0
M  V30 3970 H 393.854 -2.7265 -4.76396 0
M  V30 3971 H 394.115 -1.05439 -4.29343 0
M  V30 3972 N 393.175 1.03435 -1.18907 0
M  V30 3973 C 394.4 1.80919 -1.01406 0
M  V30 3974 C 394.825 1.83055 0.432721 0
M  V30 3975 O 394.183 1.25252 1.31079 0
M  V30 3976 C 394.231 3.24091 -1.58105 0
M  V30 3977 O 393.335 4.04434 -0.806669 0
M  V30 3978 H 392.676 0.558709 -0.358803 0
M  V30 3979 H 395.206 1.30223 -1.57807 0
M  V30 3980 H 395.216 3.74853 -1.61087 0
M  V30 3981 H 393.891 3.21851 -2.6341 0
M  V30 3982 H 392.468 3.63091 -0.849666 0
M  V30 3983 N 394.653 0.992116 1.22453 0
M  V30 3984 C 395.603 0.512969 2.22155 0
M  V30 3985 C 396.587 -0.418416 1.55364 0
M  V30 3986 O 397.779 -0.245363 1.75291 0
M  V30 3987 C 394.908 -0.171822 3.4287 0
M  V30 3988 C 393.994 0.779822 4.16869 0
M  V30 3989 N 394.385 1.92734 4.6764 0
M  V30 3990 C 392.683 0.59554 4.42006 0
M  V30 3991 C 393.384 2.52458 5.24061 0
M  V30 3992 N 392.36 1.80735 5.12675 0
M  V30 3993 H 396.162 1.38817 2.5905 0
M  V30 3994 H 393.676 0.854277 1.38115 0
M  V30 3995 H 395.673 -0.532469 4.13486 0
M  V30 3996 H 394.333 -1.04317 3.07487 0
M  V30 3997 H 395.344 2.30816 4.63621 0
M  V30 3998 H 392.021 -0.229805 4.16867 0
M  V30 3999 H 393.411 3.49433 5.73887 0
M  V30 4000 N 396.131 -1.37776 0.765217 0
M  V30 4001 C 397.041 -2.34135 0.147666 0
M  V30 4002 C 398.057 -1.59854 -0.687215 0
M  V30 4003 O 399.233 -1.91983 -0.608659 0
M  V30 4004 C 396.298 -3.3901 -0.72617 0
M  V30 4005 C 395.359 -4.2912 0.124417 0
M  V30 4006 C 394.592 -5.28986 -0.707807 0
M  V30 4007 O 394.815 -5.36205 -1.94525 0
M  V30 4008 O 393.749 -6.01779 -0.12046 0
M  V30 4009 H 397.575 -2.88664 0.943758 0
M  V30 4010 H 395.16 -1.39824 0.526277 0
M  V30 4011 H 397.042 -4.03195 -1.22524 0
M  V30 4012 H 395.717 -2.86819 -1.50056 0
M  V30 4013 H 394.624 -3.68057 0.669696 0
M  V30 4014 H 395.957 -4.84598 0.861736 0
M  V30 4015 N 397.609 -0.515225 -1.4894 0
M  V30 4016 C 398.886 0.0879088 -1.95402 0
M  V30 4017 C 399.266 1.52745 -1.45712 0
M  V30 4018 O 398.614 2.18238 -0.677093 0
M  V30 4019 C 398.824 -0.0141055 -3.48997 0
M  V30 4020 C 400.172 0.152646 -4.24326 0
M  V30 4021 O 401.196 0.0604025 -3.56149 0
M  V30 4022 O 400.055 0.34384 -5.45417 0
M  V30 4023 H 397.149 0.0874636 -0.822362 0
M  V30 4024 H 399.695 -0.578775 -1.59525 0
M  V30 4025 H 398.467 -1.01745 -3.77841 0
M  V30 4026 H 398.09 0.692091 -3.9153 0
M  V30 4027 N 399.087 1.5561 -0.249682 0
M  V30 4028 C 400.498 1.84979 0.252949 0
M  V30 4029 C 400.849 1.17153 1.57384 0
M  V30 4030 O 399.974 0.450884 2.11651 0
M  V30 4031 C 400.569 3.35584 0.465732 0
M  V30 4032 C 399.128 3.65169 0.912624 0
M  V30 4033 C 398.275 2.77299 -0.00859085 0
M  V30 4034 H 401.226 1.51513 -0.47217 0
M  V30 4035 H 401.247 3.57313 1.30795 0
M  V30 4036 H 400.759 3.8492 -0.49579 0
M  V30 4037 H 398.86 3.21312 1.88652 0
M  V30 4038 H 398.973 4.72912 0.767559 0
M  V30 4039 H 397.337 2.49678 0.50327 0
M  V30 4040 H 398.12 3.29442 -0.965537 0
M  V30 4041 N 400.565 -0.0233959 1.57583 0
M  V30 4042 C 401.475 -1.03907 2.10334 0
M  V30 4043 C 402.491 -1.39257 1.04323 0
M  V30 4044 O 403.667 -1.48462 1.36091 0
M  V30 4045 C 400.732 -2.31938 2.57693 0
M  V30 4046 C 399.793 -2.03117 3.78209 0
M  V30 4047 C 399.026 -3.25043 4.233 0
M  V30 4048 O 399.249 -4.35916 3.67876 0
M  V30 4049 O 398.183 -3.10411 5.15683 0
M  V30 4050 H 402.009 -0.620748 2.97288 0
M  V30 4051 H 399.594 -0.240743 1.47448 0
M  V30 4052 H 401.476 -3.07196 2.88458 0
M  V30 4053 H 400.151 -2.73055 1.73847 0
M  V30 4054 H 399.058 -1.25408 3.52454 0
M  V30 4055 H 400.391 -1.66852 4.63056 0
M  V30 4056 N 402.043 -1.548 -0.295768 0
M  V30 4057 C 403.289 -1.74588 -1.03184 0
M  V30 4058 C 403.622 -0.532962 -1.86744 0
M  V30 4059 O 402.897 0.469872 -1.88739 0
M  V30 4060 C 403.18 -3.03791 -1.93347 0
M  V30 4061 C 403.033 -4.35392 -1.12933 0
M  V30 4062 C 404.352 -3.28892 -2.92435 0
M  V30 4063 H 401.471 -0.635221 -0.373715 0
M  V30 4064 H 404.113 -1.87519 -0.30606 0
M  V30 4065 H 402.263 -2.92898 -2.55232 0
M  V30 4066 H 403.935 -4.58211 -0.532943 0
M  V30 4067 H 402.178 -4.31642 -0.432168 0
M  V30 4068 H 402.849 -5.22074 -1.79284 0
M  V30 4069 H 405.325 -3.39429 -2.4068 0
M  V30 4070 H 404.201 -4.20603 -3.52682 0
M  V30 4071 H 404.462 -2.47437 -3.6637 0
M  V30 4072 N 403.521 0.559213 -1.47345 0
M  V30 4073 C 404.468 1.66645 -1.59682 0
M  V30 4074 C 405.438 1.60168 -0.43994 0
M  V30 4075 O 406.623 1.79031 -0.659736 0
M  V30 4076 C 403.763 3.04969 -1.61518 0
M  V30 4077 C 402.876 3.21897 -2.88108 0
M  V30 4078 C 402.011 4.50608 -2.81294 0
M  V30 4079 C 401.05 4.60961 -4.02717 0
M  V30 4080 N 400.187 5.81024 -3.94151 0
M  V30 4081 H 405.027 1.55439 -2.54249 0
M  V30 4082 H 402.564 0.757219 -1.26113 0
M  V30 4083 H 404.522 3.85064 -1.60566 0
M  V30 4084 H 403.152 3.15015 -0.704645 0
M  V30 4085 H 402.204 2.35248 -2.98936 0
M  V30 4086 H 403.516 3.25412 -3.78032 0
M  V30 4087 H 402.67 5.3896 -2.7858 0
M  V30 4088 H 401.409 4.49568 -1.89049 0
M  V30 4089 H 400.414 3.71021 -4.05738 0
M  V30 4090 H 401.639 4.63761 -4.96087 0
M  V30 4091 H 399.585 5.80938 -3.04708 0
M  V30 4092 H 399.502 5.85909 -4.77752 0
M  V30 4093 H 400.77 6.71744 -3.9545 0
M  V30 4094 N 404.999 1.35443 0.805782 0
M  V30 4095 C 406.246 1.28761 1.56291 0
M  V30 4096 C 406.574 -0.137747 1.94012 0
M  V30 4097 O 405.829 -1.1032 1.61642 0
M  V30 4098 C 406.128 2.14045 2.86216 0
M  V30 4099 C 405.794 3.62826 2.67709 0
M  V30 4100 C 404.456 4.0338 2.6237 0
M  V30 4101 C 406.808 4.57227 2.50186 0
M  V30 4102 C 404.136 5.36501 2.37451 0
M  V30 4103 C 406.488 5.90547 2.26797 0
M  V30 4104 C 405.152 6.30245 2.1988 0
M  V30 4105 H 404.422 0.471171 0.571908 0
M  V30 4106 H 407.069 1.67347 0.930974 0
M  V30 4107 H 405.374 1.68342 3.53791 0
M  V30 4108 H 407.071 2.0621 3.43917 0
M  V30 4109 H 403.661 3.30644 2.72713 0
M  V30 4110 H 407.845 4.2678 2.53323 0
M  V30 4111 H 403.101 5.66259 2.30567 0
M  V30 4112 H 407.275 6.63274 2.12228 0
M  V30 4113 H 404.902 7.33328 2.00333 0
M  V30 4114 N 406.477 -1.02803 1.19454 0
M  V30 4115 C 407.425 -2.13213 0.929673 0
M  V30 4116 C 408.419 -1.69011 -0.114806 0
M  V30 4117 O 409.625 -1.79967 0.0345147 0
M  V30 4118 H 406 -0.69662 0.28324 0
M  V30 4119 H 407.971 -2.32744 1.86743 0
M  V30 4120 C 406.72 -3.4429 0.485797 0
M  V30 4121 H 406.043 -3.7872 1.28105 0
M  V30 4122 H 407.483 -4.22638 0.339582 0
M  V30 4123 C 405.942 -3.27258 -0.800244 0
M  V30 4124 O 406.472 -3.55967 -1.86146 0
M  V30 4125 N 404.678 -2.80545 -0.75781 0
M  V30 4126 H 404.225 -2.57382 0.106039 0
M  V30 4127 H 404.183 -2.6953 -1.61867 0
M  V30 4128 N 407.956 -0.998596 -1.21925 0
M  V30 4129 C 409.202 -0.688337 -1.91399 0
M  V30 4130 C 409.557 0.771805 -1.76241 0
M  V30 4131 O 408.85 1.55153 -1.1242 0
M  V30 4132 C 409.044 -1.03648 -3.42041 0
M  V30 4133 C 408.873 -2.52892 -3.71855 0
M  V30 4134 C 407.643 -3.19389 -3.91559 0
M  V30 4135 C 409.841 -3.5103 -3.75875 0
M  V30 4136 N 407.823 -4.5805 -4.08734 0
M  V30 4137 C 409.194 -4.75174 -3.98259 0
M  V30 4138 C 411.249 -3.45257 -3.58751 0
M  V30 4139 C 409.952 -5.94247 -4.05294 0
M  V30 4140 C 411.978 -4.63712 -3.67049 0
M  V30 4141 C 411.34 -5.86658 -3.89887 0
M  V30 4142 H 407.439 -0.303251 -0.720807 0
M  V30 4143 H 410.023 -1.27977 -1.46731 0
M  V30 4144 H 408.194 -0.473569 -3.85502 0
M  V30 4145 H 409.926 -0.681619 -3.98919 0
M  V30 4146 H 406.681 -2.69846 -3.89205 0
M  V30 4147 H 407.105 -5.29989 -4.21237 0
M  V30 4148 H 411.747 -2.51215 -3.40075 0
M  V30 4149 H 409.465 -6.88687 -4.22772 0
M  V30 4150 H 413.051 -4.6084 -3.5513 0
M  V30 4151 H 411.931 -6.76786 -3.96144 0
M  V30 4152 N 409.434 1.37368 -0.772513 0
M  V30 4153 C 410.664 2.03647 -0.348082 0
M  V30 4154 C 411.072 1.58392 1.03482 0
M  V30 4155 O 410.415 0.760921 1.672 0
M  V30 4156 C 410.477 3.58131 -0.313404 0
M  V30 4157 C 410.141 4.2652 -1.64102 0
M  V30 4158 C 411.138 4.50587 -2.5936 0
M  V30 4159 C 408.823 4.64335 -1.91567 0
M  V30 4160 C 410.817 5.11526 -3.80289 0
M  V30 4161 C 408.504 5.24996 -3.12766 0
M  V30 4162 C 409.502 5.48529 -4.06946 0
M  V30 4163 O 409.19 6.07921 -5.26011 0
M  V30 4164 H 408.922 0.660538 -0.143753 0
M  V30 4165 H 411.476 1.76669 -1.04772 0
M  V30 4166 H 409.706 3.84159 0.442617 0
M  V30 4167 H 411.395 4.05813 0.0840613 0
M  V30 4168 H 412.161 4.21784 -2.39423 0
M  V30 4169 H 408.04 4.45353 -1.19088 0
M  V30 4170 H 411.584 5.29811 -4.53813 0
M  V30 4171 H 407.481 5.53223 -3.32588 0
M  V30 4172 H 408.249 6.26398 -5.26847 0
M  V30 4173 N 410.912 0.523116 1.48665 0
M  V30 4174 C 412.158 -0.0134963 2.02796 0
M  V30 4175 C 412.491 -1.34582 1.40004 0
M  V30 4176 O 411.766 -1.86756 0.543381 0
M  V30 4177 C 412.049 -0.14276 3.59817 0
M  V30 4178 C 411.902 1.21425 4.331 0
M  V30 4179 C 413.221 -0.872856 4.31357 0
M  V30 4180 H 410.34 -0.00343074 0.736992 0
M  V30 4181 H 412.982 0.678816 1.7746 0
M  V30 4182 H 411.132 -0.732401 3.81534 0
M  V30 4183 H 412.804 1.84447 4.2282 0
M  V30 4184 H 411.047 1.79791 3.94788 0
M  V30 4185 H 411.718 1.07687 5.41394 0
M  V30 4186 H 414.194 -0.372555 4.14429 0
M  V30 4187 H 413.07 -0.932185 5.40927 0
M  V30 4188 H 413.331 -1.92161 3.98154 0
M  V30 4189 N 412.39 -1.55475 0.257931 0
M  V30 4190 C 413.667 -1.91155 -0.414629 0
M  V30 4191 C 414.047 -1.18008 -1.75035 0
M  V30 4192 O 413.395 -0.301193 -2.26506 0
M  V30 4193 C 413.605 -3.44283 -0.571859 0
M  V30 4194 C 414.953 -4.15744 -0.862678 0
M  V30 4195 O 415.977 -3.50083 -0.657314 0
M  V30 4196 O 414.836 -5.31909 -1.2544 0
M  V30 4197 H 411.93 -0.796016 -0.22425 0
M  V30 4198 H 414.476 -1.66976 0.302814 0
M  V30 4199 H 413.248 -3.89558 0.368844 0
M  V30 4200 H 412.871 -3.7436 -1.33943 0
M  V30 4201 N 413.868 0.0150385 -1.57593 0
M  V30 4202 C 415.116 0.701613 -1.8953 0
M  V30 4203 C 415.437 1.75139 -0.857396 0
M  V30 4204 O 414.707 1.95607 0.107194 0
M  V30 4205 H 413.287 0.26213 -0.699498 0
M  V30 4206 H 415.949 -0.0223304 -1.94887 0
M  V30 4207 H 415.045 1.18236 -2.88837 0
M  V30 4208 N 415.346 1.54954 0.287554 0
M  V30 4209 C 416.592 1.75132 1.02257 0
M  V30 4210 C 416.925 0.542858 1.86458 0
M  V30 4211 O 416.2 -0.459856 1.88986 0
M  V30 4212 C 416.483 3.04812 1.91733 0
M  V30 4213 C 416.336 4.35985 1.10622 0
M  V30 4214 C 417.655 3.30438 2.90687 0
M  V30 4215 H 414.774 0.637194 0.370341 0
M  V30 4216 H 417.416 1.87678 0.296111 0
M  V30 4217 H 415.566 2.94247 2.53675 0
M  V30 4218 H 417.238 4.58487 0.508636 0
M  V30 4219 H 415.481 4.31865 0.409271 0
M  V30 4220 H 416.152 5.23017 1.76513 0
M  V30 4221 H 418.628 3.40701 2.38877 0
M  V30 4222 H 417.504 4.22467 3.50447 0
M  V30 4223 H 417.765 2.49377 3.65053 0
M  V30 4224 N 416.824 -0.551391 1.4764 0
M  V30 4225 C 417.734 -1.68525 1.63207 0
M  V30 4226 C 418.75 -1.6621 0.514815 0
M  V30 4227 O 419.926 -1.85551 0.783113 0
M  V30 4228 C 416.991 -3.05025 1.64805 0
M  V30 4229 C 416.052 -3.18362 2.88 0
M  V30 4230 C 415.285 -4.4835 2.89513 0
M  V30 4231 O 415.508 -5.34163 2.00065 0
M  V30 4232 O 414.442 -4.65602 3.81443 0
M  V30 4233 H 418.268 -1.58333 2.59161 0
M  V30 4234 H 415.853 -0.722063 1.30792 0
M  V30 4235 H 417.735 -3.86245 1.68502 0
M  V30 4236 H 416.41 -3.15587 0.720197 0
M  V30 4237 H 415.317 -2.36518 2.89845 0
M  V30 4238 H 416.65 -3.12707 3.80099 0
M  V30 4239 N 418.302 -1.35869 -0.798587 0
M  V30 4240 C 419.548 -1.2978 -1.55836 0
M  V30 4241 C 419.881 0.125322 -1.93795 0
M  V30 4242 O 419.156 1.07658 -1.61987 0
M  V30 4243 C 419.439 -2.21188 -2.84162 0
M  V30 4244 C 419.292 -3.72155 -2.52628 0
M  V30 4245 C 420.611 -2.11545 -3.85923 0
M  V30 4246 H 417.73 -0.472769 -0.565383 0
M  V30 4247 H 420.372 -1.66341 -0.918192 0
M  V30 4248 H 418.522 -1.90139 -3.38791 0
M  V30 4249 H 420.194 -4.13682 -2.04121 0
M  V30 4250 H 418.437 -3.92042 -1.85704 0
M  V30 4251 H 419.108 -4.31511 -3.44242 0
M  V30 4252 H 421.584 -2.38855 -3.40716 0
M  V30 4253 H 420.46 -2.77688 -4.73477 0
M  V30 4254 H 420.721 -1.09987 -4.282 0
M  V30 4255 N 419.78 1.02168 -1.19998 0
M  V30 4256 C 420.73 2.08969 -0.911921 0
M  V30 4257 C 421.714 1.60404 0.12621 0
M  V30 4258 O 422.906 1.76817 -0.0804706 0
M  V30 4259 C 420.035 3.402 -0.460277 0
M  V30 4260 C 419.121 3.9548 -1.53155 0
M  V30 4261 N 419.512 4.24332 -2.75275 0
M  V30 4262 C 417.81 4.23572 -1.39653 0
M  V30 4263 C 418.511 4.68834 -3.44339 0
M  V30 4264 N 417.487 4.70804 -2.71744 0
M  V30 4265 H 421.289 2.29178 -1.83997 0
M  V30 4266 H 418.803 1.20094 -1.09322 0
M  V30 4267 H 420.8 4.16235 -0.235337 0
M  V30 4268 H 419.46 3.21408 0.4612 0
M  V30 4269 H 420.471 4.13393 -3.11973 0
M  V30 4270 H 417.148 4.14005 -0.539067 0
M  V30 4271 H 418.538 5.00019 -4.4881 0
M  V30 4272 N 421.258 1.00505 1.21394 0
M  V30 4273 C 422.206 0.558623 2.25792 0
M  V30 4274 C 423.2 -0.396848 1.64686 0
M  V30 4275 O 424.406 -0.268035 1.77993 0
M  V30 4276 H 420.781 0.1623 0.734277 0
M  V30 4277 H 422.752 1.4503 2.60785 0
M  V30 4278 C 421.501 -0.0989574 3.47559 0
M  V30 4279 H 420.824 0.627225 3.94849 0
M  V30 4280 H 422.264 -0.3746 4.22342 0
M  V30 4281 C 420.723 -1.33817 3.09184 0
M  V30 4282 O 421.253 -2.43252 3.19674 0
M  V30 4283 N 419.459 -1.21793 2.63846 0
M  V30 4284 H 419.006 -0.32746 2.5551 0
M  V30 4285 H 418.964 -2.04809 2.38539 0
M  V30 4286 N 422.737 -1.36956 0.779787 0
M  V30 4287 C 423.7 -2.2851 0.177662 0
M  V30 4288 C 424.7 -1.48393 -0.619377 0
M  V30 4289 O 425.89 -1.68505 -0.441785 0
M  V30 4290 C 423.022 -3.32428 -0.755279 0
M  V30 4291 H 424.215 -2.83269 0.984823 0
M  V30 4292 H 421.768 -1.46358 0.548544 0
M  V30 4293 H 422.503 -2.82808 -1.58714 0
M  V30 4294 H 422.288 -3.91659 -0.185817 0
M  V30 4295 H 423.778 -4.00824 -1.17174 0
M  V30 4296 N 424.215 -0.530993 -1.48385 0
M  V30 4297 C 425.162 0.231223 -2.29639 0
M  V30 4298 C 426.132 0.932864 -1.37429 0
M  V30 4299 O 427.317 0.933692 -1.66394 0
M  V30 4300 C 424.457 1.27155 -3.2082 0
M  V30 4301 C 423.57 0.578655 -4.28107 0
M  V30 4302 C 422.705 1.602 -5.06467 0
M  V30 4303 C 421.744 0.892625 -6.05556 0
M  V30 4304 N 420.881 1.86157 -6.76971 0
M  V30 4305 H 425.721 -0.467848 -2.94305 0
M  V30 4306 H 423.258 -0.242556 -1.45086 0
M  V30 4307 H 425.216 1.88703 -3.72085 0
M  V30 4308 H 423.846 1.939 -2.58075 0
M  V30 4309 H 422.898 -0.150782 -3.80101 0
M  V30 4310 H 424.21 0.0217065 -4.98795 0
M  V30 4311 H 423.364 2.29173 -5.61751 0
M  V30 4312 H 422.103 2.19285 -4.35621 0
M  V30 4313 H 421.108 0.188829 -5.49476 0
M  V30 4314 H 422.333 0.307878 -6.78402 0
M  V30 4315 H 420.279 2.44147 -6.08875 0
M  V30 4316 H 420.196 1.35608 -7.43738 0
M  V30 4317 H 421.464 2.54325 -7.36844 0
M  V30 4318 N 425.693 1.55336 -0.266172 0
M  V30 4319 C 426.921 2.03801 0.356756 0
M  V30 4320 C 427.336 1.14485 1.50129 0
M  V30 4321 O 426.693 0.163121 1.8177 0
M  V30 4322 C 426.744 3.51455 0.846281 0
M  V30 4323 O 426.465 4.37371 -0.252663 0
M  V30 4324 C 427.966 4.15767 1.53794 0
M  V30 4325 H 425.186 0.665906 0.0825218 0
M  V30 4326 H 427.73 2.00636 -0.39566 0
M  V30 4327 H 425.885 3.55092 1.54881 0
M  V30 4328 H 426.299 5.24358 0.122173 0
M  V30 4329 H 427.773 5.20714 1.83198 0
M  V30 4330 H 428.25 3.63404 2.46646 0
M  V30 4331 H 428.856 4.16107 0.879488 0
M  V30 4332 N 427.171 -0.0066808 1.57599 0
M  V30 4333 C 428.118 -1.00024 2.08 0
M  V30 4334 C 429.088 -1.34549 0.973943 0
M  V30 4335 O 430.273 -1.44502 1.24595 0
M  V30 4336 C 427.413 -2.2891 2.58252 0
M  V30 4337 C 426.526 -2.00346 3.82734 0
M  V30 4338 C 425.661 -3.23265 4.21513 0
M  V30 4339 C 424.7 -2.90357 5.3885 0
M  V30 4340 N 423.837 -4.05793 5.72954 0
M  V30 4341 H 428.677 -0.563499 2.92624 0
M  V30 4342 H 426.214 -0.266592 1.44664 0
M  V30 4343 H 428.172 -3.04247 2.85464 0
M  V30 4344 H 426.802 -2.70265 1.76512 0
M  V30 4345 H 425.854 -1.15406 3.62471 0
M  V30 4346 H 427.166 -1.72086 4.68175 0
M  V30 4347 H 426.32 -4.06953 4.49971 0
M  V30 4348 H 425.059 -3.54657 3.34768 0
M  V30 4349 H 424.064 -2.05075 5.10122 0
M  V30 4350 H 425.289 -2.60219 6.27266 0
M  V30 4351 H 423.235 -4.37094 4.89167 0
M  V30 4352 H 423.152 -3.81034 6.52954 0
M  V30 4353 H 424.42 -4.90289 6.06001 0
M  V30 4354 N 428.649 -1.55105 -0.279332 0
M  V30 4355 C 430.06 -1.66186 -0.850832 0
M  V30 4356 C 430.411 -0.584707 -1.87285 0
M  V30 4357 O 429.536 0.274919 -2.14647 0
M  V30 4358 C 430.131 -3.01264 -1.55001 0
M  V30 4359 C 428.69 -3.14394 -2.06963 0
M  V30 4360 C 427.837 -2.61959 -0.909536 0
M  V30 4361 H 430.788 -1.58602 -0.0558235 0
M  V30 4362 H 430.809 -2.93899 -2.41669 0
M  V30 4363 H 430.321 -3.7964 -0.805931 0
M  V30 4364 H 428.422 -2.4078 -2.84352 0
M  V30 4365 H 428.535 -4.20867 -2.28928 0
M  V30 4366 H 426.899 -2.18957 -1.30116 0
M  V30 4367 H 427.682 -3.42833 -0.179062 0
M  V30 4368 N 430.127 0.543554 -1.4793 0
M  V30 4369 C 431.543 0.870806 -1.3375 0
M  V30 4370 C 431.743 1.9864 -0.338261 0
M  V30 4371 O 430.799 2.51305 0.245371 0
M  V30 4372 C 432.112 1.25114 -2.73435 0
M  V30 4373 C 433.66 1.3618 -2.81823 0
M  V30 4374 C 434.135 1.77563 -4.22179 0
M  V30 4375 N 435.626 1.8469 -4.24787 0
M  V30 4376 C 436.361 2.18067 -5.30315 0
M  V30 4377 N 435.857 2.49963 -6.46135 0
M  V30 4378 N 437.65 2.18958 -5.17701 0
M  V30 4379 H 429.801 -0.19275 -2.11524 0
M  V30 4380 H 432.064 -0.0235777 -0.947707 0
M  V30 4381 H 431.77 0.50514 -3.48053 0
M  V30 4382 H 431.644 2.20431 -3.06088 0
M  V30 4383 H 434.031 2.09859 -2.07468 0
M  V30 4384 H 434.112 0.390169 -2.52807 0
M  V30 4385 H 433.756 1.04449 -4.97044 0
M  V30 4386 H 433.686 2.75753 -4.48629 0
M  V30 4387 H 436.177 1.62372 -3.41239 0
M  V30 4388 H 436.49 2.74497 -7.22406 0
M  V30 4389 H 434.835 2.47513 -6.49432 0
M  V30 4390 H 438.026 1.93488 -4.2624 0
M  V30 4391 H 438.199 2.44639 -6.00047 0
M  V30 4392 N 431.605 1.3629 0.791371 0
M  V30 4393 C 432.515 1.32606 1.93527 0
M  V30 4394 C 433.531 0.228541 1.72493 0
M  V30 4395 O 434.707 0.460571 1.96063 0
M  V30 4396 C 431.772 1.11271 3.28359 0
M  V30 4397 C 430.833 2.3048 3.62185 0
M  V30 4398 C 430.066 2.10154 4.90583 0
M  V30 4399 O 430.289 1.07572 5.60165 0
M  V30 4400 O 429.223 2.97884 5.23019 0
M  V30 4401 H 433.049 2.28909 1.99585 0
M  V30 4402 H 430.634 1.16818 0.931344 0
M  V30 4403 H 432.516 1.01283 4.09047 0
M  V30 4404 H 431.191 0.180292 3.23198 0
M  V30 4405 H 430.098 2.46036 2.81811 0
M  V30 4406 H 431.431 3.22221 3.72068 0
M  V30 4407 N 433.083 -1.0153 1.20538 0
M  V30 4408 C 433.993 -2.13557 0.971113 0
M  V30 4409 C 435.009 -1.73845 -0.0734366 0
M  V30 4410 O 436.185 -2.01075 0.114299 0
M  V30 4411 C 433.25 -3.42661 0.527639 0
M  V30 4412 C 432.311 -3.96608 1.64319 0
M  V30 4413 C 431.544 -5.1955 1.22078 0
M  V30 4414 O 431.767 -5.70329 0.0900198 0
M  V30 4415 O 430.701 -5.66681 2.02871 0
M  V30 4416 H 434.527 -2.3619 1.90913 0
M  V30 4417 H 432.112 -1.11946 0.989362 0
M  V30 4418 H 433.994 -4.20404 0.289621 0
M  V30 4419 H 432.669 -3.21441 -0.381779 0
M  V30 4420 H 431.576 -3.20139 1.93551 0
M  V30 4421 H 432.909 -4.22219 2.52966 0
M  V30 4422 N 434.561 -1.01147 -1.20859 0
M  V30 4423 C 435.493 -0.535546 -2.22855 0
M  V30 4424 C 436.506 0.379323 -1.58319 0
M  V30 4425 O 437.695 0.178489 -1.77605 0
M  V30 4426 C 434.795 0.240962 -3.38042 0
M  V30 4427 C 433.968 -0.674562 -4.32167 0
M  V30 4428 C 433.027 0.053467 -5.26173 0
M  V30 4429 O 432.053 -0.567339 -5.66366 0
M  V30 4430 N 433.255 1.32997 -5.65059 0
M  V30 4431 H 436.02 -1.41268 -2.64317 0
M  V30 4432 H 433.581 -0.888386 -1.35349 0
M  V30 4433 H 435.573 0.737115 -3.97931 0
M  V30 4434 H 434.143 1.01935 -2.95513 0
M  V30 4435 H 433.363 -1.35111 -3.70322 0
M  V30 4436 H 434.651 -1.2974 -4.91981 0
M  V30 4437 H 434.049 1.85536 -5.34409 0
M  V30 4438 H 432.606 1.77095 -6.2728 0
M  V30 4439 N 436.039 1.36541 -0.78704 0
M  V30 4440 C 437.269 2.03266 -0.369662 0
M  V30 4441 C 437.677 1.59481 1.01796 0
M  V30 4442 O 437.02 0.778612 1.66383 0
M  V30 4443 C 437.082 3.57779 -0.351371 0
M  V30 4444 C 436.746 4.24756 -1.68617 0
M  V30 4445 C 437.743 4.47811 -2.64124 0
M  V30 4446 C 435.428 4.62277 -1.96481 0
M  V30 4447 C 437.422 5.07464 -3.85693 0
M  V30 4448 C 435.109 5.21649 -3.18317 0
M  V30 4449 C 436.107 5.44182 -4.12741 0
M  V30 4450 O 435.795 6.02307 -5.32429 0
M  V30 4451 H 435.527 0.658977 -0.150751 0
M  V30 4452 H 438.081 1.75548 -1.0664 0
M  V30 4453 H 436.311 3.84606 0.401847 0
M  V30 4454 H 438 4.05879 0.0410147 0
M  V30 4455 H 438.766 4.19221 -2.43883 0
M  V30 4456 H 434.645 4.44065 -1.23805 0
M  V30 4457 H 438.189 5.24968 -4.59407 0
M  V30 4458 H 434.086 5.49664 -3.38437 0
M  V30 4459 H 434.854 6.20775 -5.33461 0
M  V30 4460 N 437.518 0.538854 1.48102 0
M  V30 4461 C 438.466 -0.232325 2.31437 0
M  V30 4462 C 439.46 -0.927004 1.41785 0
M  V30 4463 O 440.666 -0.850378 1.58646 0
M  V30 4464 H 437.041 -0.0937916 0.746128 0
M  V30 4465 H 439.012 0.489986 2.9435 0
M  V30 4466 C 437.761 -1.26074 3.24038 0
M  V30 4467 H 437.084 -0.735609 3.92974 0
M  V30 4468 H 438.524 -1.77157 3.85216 0
M  V30 4469 C 436.983 -2.29902 2.46265 0
M  V30 4470 O 437.513 -3.36502 2.19384 0
M  V30 4471 N 435.719 -2.03348 2.07601 0
M  V30 4472 H 435.266 -1.16675 2.29662 0
M  V30 4473 H 435.224 -2.73038 1.55877 0
M  V30 4474 N 438.996 -1.55193 0.274407 0
M  V30 4475 C 440.221 -2.04446 -0.348824 0
M  V30 4476 C 440.646 -1.15149 -1.48735 0
M  V30 4477 O 440.004 -0.149952 -1.80679 0
M  V30 4478 C 440.052 -3.51431 -0.808009 0
M  V30 4479 O 439.156 -3.65225 -1.91531 0
M  V30 4480 H 438.497 -0.66006 -0.0722276 0
M  V30 4481 H 441.027 -2.00481 0.408498 0
M  V30 4482 H 441.037 -3.92781 -1.10395 0
M  V30 4483 H 439.712 -4.15892 0.0249865 0
M  V30 4484 H 438.289 -3.35778 -1.62196 0
M  V30 4485 N 440.474 -0.00167713 -1.576 0
M  V30 4486 C 441.702 0.693759 -1.94922 0
M  V30 4487 C 442.117 1.67215 -0.876626 0
M  V30 4488 O 441.474 1.81929 0.144279 0
M  V30 4489 C 441.525 1.42416 -3.32265 0
M  V30 4490 O 441.246 0.485014 -4.35407 0
M  V30 4491 C 442.747 2.21395 -3.84056 0
M  V30 4492 H 439.967 0.193118 -0.642609 0
M  V30 4493 H 442.511 -0.0532952 -2.04431 0
M  V30 4494 H 440.666 2.12284 -3.24059 0
M  V30 4495 H 441.08 1.00053 -5.14868 0
M  V30 4496 H 442.554 2.67996 -4.82578 0
M  V30 4497 H 443.031 3.04142 -3.16851 0
M  V30 4498 H 443.637 1.56542 -3.95443 0
M  V30 4499 N 441.952 1.55251 0.271103 0
M  V30 4500 C 443.182 1.79713 1.01916 0
M  V30 4501 C 443.59 0.571613 1.80359 0
M  V30 4502 O 442.933 -0.468853 1.77616 0
M  V30 4503 C 442.995 2.97138 2.02359 0
M  V30 4504 C 442.659 4.34104 1.42837 0
M  V30 4505 C 443.656 5.13019 0.843071 0
M  V30 4506 C 441.341 4.80765 1.455 0
M  V30 4507 C 443.335 6.36729 0.292333 0
M  V30 4508 C 441.022 6.0443 0.900402 0
M  V30 4509 C 442.02 6.8225 0.32007 0
M  V30 4510 O 441.708 8.03582 -0.226031 0
M  V30 4511 H 441.44 0.602431 0.306681 0
M  V30 4512 H 443.994 2.03097 0.306701 0
M  V30 4513 H 442.224 2.6945 2.77369 0
M  V30 4514 H 443.913 3.08907 2.63309 0
M  V30 4515 H 444.679 4.781 0.815178 0
M  V30 4516 H 440.558 4.20202 1.89609 0
M  V30 4517 H 444.102 6.97414 -0.161274 0
M  V30 4518 H 439.999 6.3883 0.925541 0
M  V30 4519 H 440.767 8.18418 -0.115572 0
M  V30 4520 N 443.43 -0.535701 1.48216 0
M  V30 4521 C 444.846 -0.863701 1.3421 0
M  V30 4522 C 445.046 -1.98458 0.34879 0
M  V30 4523 O 444.102 -2.51432 -0.23204 0
M  V30 4524 C 445.415 -1.23662 2.74095 0
M  V30 4525 C 446.963 -1.34683 2.82541 0
M  V30 4526 C 447.438 -1.75322 4.23115 0
M  V30 4527 N 448.929 -1.82434 4.2576 0
M  V30 4528 C 449.664 -2.15252 5.31464 0
M  V30 4529 N 449.16 -2.46533 6.47452 0
M  V30 4530 N 450.953 -2.16209 5.18855 0
M  V30 4531 H 443.104 0.203965 2.11418 0
M  V30 4532 H 445.367 0.0286033 0.947568 0
M  V30 4533 H 445.073 -0.486674 3.48316 0
M  V30 4534 H 444.947 -2.18805 3.07253 0
M  V30 4535 H 447.334 -2.08756 2.08579 0
M  V30 4536 H 447.415 -0.376756 2.5301 0
M  V30 4537 H 447.059 -1.01812 4.97591 0
M  V30 4538 H 446.989 -2.7337 4.50085 0
M  V30 4539 H 449.48 -1.6056 3.42095 0
M  V30 4540 H 449.793 -2.70662 7.23852 0
M  V30 4541 H 448.138 -2.44065 6.50736 0
M  V30 4542 H 451.329 -1.91224 4.2726 0
M  V30 4543 H 451.502 -2.41453 6.01335 0
M  V30 4544 N 444.908 -1.36708 -0.784132 0
M  V30 4545 C 446.154 -1.31426 -1.54451 0
M  V30 4546 C 446.487 0.10476 -1.93917 0
M  V30 4547 O 445.762 1.05934 -1.6312 0
M  V30 4548 C 446.045 -2.24189 -2.818 0
M  V30 4549 C 445.898 -3.74813 -2.48667 0
M  V30 4550 C 447.217 -2.15626 -3.83658 0
M  V30 4551 H 444.336 -0.478739 -0.560337 0
M  V30 4552 H 446.978 -1.67305 -0.900498 0
M  V30 4553 H 445.128 -1.93722 -3.36755 0
M  V30 4554 H 446.8 -4.15823 -1.99722 0
M  V30 4555 H 445.043 -3.93989 -1.81535 0
M  V30 4556 H 445.714 -4.35138 -3.39646 0
M  V30 4557 H 448.19 -2.42456 -3.38163 0
M  V30 4558 H 447.066 -2.82694 -4.70506 0
M  V30 4559 H 447.327 -1.14522 -4.27009 0
M  V30 4560 N 446.386 1.0089 -1.21074 0
M  V30 4561 C 447.632 1.74866 -1.02712 0
M  V30 4562 C 447.965 1.89178 0.438787 0
M  V30 4563 O 447.24 1.42325 1.32567 0
M  V30 4564 C 447.523 3.16347 -1.72036 0
M  V30 4565 C 447.376 3.09782 -3.26121 0
M  V30 4566 C 448.695 4.15187 -1.45973 0
M  V30 4567 H 445.814 0.634736 -0.374539 0
M  V30 4568 H 448.456 1.17646 -1.49196 0
M  V30 4569 H 446.606 3.65201 -1.32517 0
M  V30 4570 H 448.278 2.68673 -3.74983 0
M  V30 4571 H 446.521 2.46982 -3.56626 0
M  V30 4572 H 447.192 4.09829 -3.6979 0
M  V30 4573 H 449.668 3.75022 -1.80272 0
M  V30 4574 H 448.544 5.12331 -1.96999 0
M  V30 4575 H 448.805 4.40386 -0.388924 0
M  V30 4576 N 447.864 1.01787 1.20321 0
M  V30 4577 C 449.089 0.727009 1.9424 0
M  V30 4578 C 449.514 -0.706179 1.74341 0
M  V30 4579 O 448.872 -1.48609 1.03852 0
M  V30 4580 C 448.92 1.06958 3.44372 0
M  V30 4581 O 448.024 0.181983 4.11998 0
M  V30 4582 H 447.365 0.269626 0.606793 0
M  V30 4583 H 449.895 1.36158 1.52716 0
M  V30 4584 H 449.905 1.02182 3.94997 0
M  V30 4585 H 448.58 2.11378 3.58179 0
M  V30 4586 H 447.157 0.287378 3.71791 0
M  V30 4587 N 449.342 -1.36122 0.79427 0
M  V30 4588 C 450.588 -1.99406 0.369452 0
M  V30 4589 C 450.921 -1.62886 -1.05743 0
M  V30 4590 O 450.196 -0.886053 -1.73145 0
M  V30 4591 C 450.479 -3.56046 0.538833 0
M  V30 4592 C 450.332 -4.02404 2.00976 0
M  V30 4593 C 451.651 -4.40079 -0.0431359 0
M  V30 4594 H 448.77 -0.724397 0.135712 0
M  V30 4595 H 451.412 -1.61461 1.00151 0
M  V30 4596 H 449.562 -3.885 0.000771004 0
M  V30 4597 H 451.234 -3.80415 2.60926 0
M  V30 4598 H 449.477 -3.53765 2.51063 0
M  V30 4599 H 450.148 -5.11344 2.07922 0
M  V30 4600 H 452.624 -4.14013 0.416228 0
M  V30 4601 H 451.5 -5.48799 0.105374 0
M  V30 4602 H 451.761 -4.27264 -1.13571 0
M  V30 4603 N 450.82 -0.546701 -1.47814 0
M  V30 4604 C 451.75 0.195317 -2.32682 0
M  V30 4605 C 452.731 0.918981 -1.43139 0
M  V30 4606 O 453.916 0.901501 -1.72008 0
M  V30 4607 C 451.046 1.23237 -3.247 0
M  V30 4608 C 450 0.625818 -4.234 0
M  V30 4609 C 449.326 1.76674 -5.04669 0
M  V30 4610 C 450.626 -0.413515 -5.2066 0
M  V30 4611 H 452.32 -0.513184 -2.94969 0
M  V30 4612 H 449.866 -0.248241 -1.41844 0
M  V30 4613 H 451.819 1.75955 -3.82907 0
M  V30 4614 H 450.543 1.97067 -2.60446 0
M  V30 4615 H 449.202 0.120023 -3.66403 0
M  V30 4616 H 448.85 2.49383 -4.36826 0
M  V30 4617 H 448.55 1.36673 -5.71484 0
M  V30 4618 H 450.074 2.29738 -5.65732 0
M  V30 4619 H 451.488 0.0272042 -5.73294 0
M  V30 4620 H 449.885 -0.731825 -5.95621 0
M  V30 4621 H 450.955 -1.31325 -4.66778 0
M  V30 4622 N 452.299 1.55045 -0.282633 0
M  V30 4623 C 453.527 2.04168 0.33512 0
M  V30 4624 C 453.942 1.16071 1.48906 0
M  V30 4625 O 453.299 0.182391 1.81586 0
M  V30 4626 C 453.35 3.52332 0.808957 0
M  V30 4627 O 453.071 4.37078 -0.299038 0
M  V30 4628 C 454.572 4.17375 1.49375 0
M  V30 4629 H 451.792 0.666744 0.0754543 0
M  V30 4630 H 454.336 2.00205 -0.416918 0
M  V30 4631 H 452.491 3.56715 1.51106 0
M  V30 4632 H 452.905 5.24458 0.0665514 0
M  V30 4633 H 454.379 5.22627 1.77664 0
M  V30 4634 H 454.856 3.65999 2.42778 0
M  V30 4635 H 455.462 4.17016 0.835305 0
M  V30 4636 N 453.777 0.010035 1.57597 0
M  V30 4637 C 455.023 -0.673697 1.91283 0
M  V30 4638 C 455.356 -1.72863 0.884979 0
M  V30 4639 O 454.631 -1.94268 -0.0949487 0
M  V30 4640 C 454.914 -1.30766 3.35518 0
M  V30 4641 C 454.767 -0.263578 4.49027 0
M  V30 4642 C 456.086 -2.23105 3.79358 0
M  V30 4643 H 453.205 -0.243439 0.695634 0
M  V30 4644 H 455.847 0.0633864 1.89894 0
M  V30 4645 H 453.997 -1.93588 3.36832 0
M  V30 4646 H 455.669 0.365738 4.59848 0
M  V30 4647 H 453.912 0.413077 4.31829 0
M  V30 4648 H 454.583 -0.746398 5.4693 0
M  V30 4649 H 457.059 -1.70289 3.79659 0
M  V30 4650 H 455.935 -2.64424 4.81011 0
M  V30 4651 H 456.196 -3.11433 3.13787 0
M  V30 4652 N 455.255 -1.55392 -0.262866 0
M  V30 4653 C 456.185 -1.91978 -1.32917 0
M  V30 4654 C 457.166 -0.7828 -1.51017 0
M  V30 4655 O 458.351 -1.04178 -1.63892 0
M  V30 4656 C 455.481 -2.20055 -2.68687 0
M  V30 4657 C 454.435 -3.35854 -2.65304 0
M  V30 4658 C 453.761 -3.49435 -4.04721 0
M  V30 4659 C 455.061 -4.71977 -2.23685 0
M  V30 4660 H 456.755 -2.81292 -1.02544 0
M  V30 4661 H 454.301 -1.3534 -0.491846 0
M  V30 4662 H 456.254 -2.44237 -3.43404 0
M  V30 4663 H 454.978 -1.27551 -3.00663 0
M  V30 4664 H 453.637 -3.11655 -1.93045 0
M  V30 4665 H 453.285 -2.54379 -4.33936 0
M  V30 4666 H 452.985 -4.27297 -4.0335 0
M  V30 4667 H 454.509 -3.7592 -4.81161 0
M  V30 4668 H 455.923 -4.95637 -2.88127 0
M  V30 4669 H 454.32 -5.52828 -2.33456 0
M  V30 4670 H 455.39 -4.70115 -1.18827 0
M  V30 4671 N 456.733 0.527833 -1.48498 0
M  V30 4672 C 457.683 1.62844 -1.5958 0
M  V30 4673 C 458.667 1.54397 -0.452809 0
M  V30 4674 O 459.859 1.62381 -0.704364 0
M  V30 4675 C 456.988 3.01557 -1.64067 0
M  V30 4676 C 456.074 3.151 -2.83853 0
M  V30 4677 N 456.465 2.9861 -4.08247 0
M  V30 4678 C 454.763 3.46158 -2.8123 0
M  V30 4679 C 455.464 3.15626 -4.88626 0
M  V30 4680 N 454.44 3.43298 -4.21483 0
M  V30 4681 H 458.242 1.48708 -2.53502 0
M  V30 4682 H 455.756 0.733343 -1.44899 0
M  V30 4683 H 457.753 3.8062 -1.70101 0
M  V30 4684 H 456.413 3.16783 -0.712636 0
M  V30 4685 H 457.424 2.75329 -4.3865 0
M  V30 4686 H 454.101 3.67728 -1.97692 0
M  V30 4687 H 455.491 3.07596 -5.97356 0
M  V30 4688 N 458.211 1.37122 0.776871 0
M  V30 4689 C 459.143 1.28342 1.89897 0
M  V30 4690 C 460.156 0.200277 1.61563 0
M  V30 4691 O 461.345 0.456012 1.72577 0
M  V30 4692 C 458.445 0.960427 3.25006 0
M  V30 4693 C 457.618 2.148 3.81025 0
M  V30 4694 C 456.677 1.79608 4.94598 0
M  V30 4695 O 455.703 2.51845 5.10454 0
M  V30 4696 N 456.905 0.737171 5.758 0
M  V30 4697 H 459.67 2.25027 1.97947 0
M  V30 4698 H 457.231 1.3068 0.955739 0
M  V30 4699 H 459.223 0.705942 3.98495 0
M  V30 4700 H 457.793 0.0823066 3.12492 0
M  V30 4701 H 457.013 2.56454 2.99374 0
M  V30 4702 H 458.301 2.9411 4.15183 0
M  V30 4703 H 457.699 0.137637 5.65533 0
M  V30 4704 H 456.256 0.542534 6.49538 0
M  V30 4705 N 459.689 -1.00246 1.21608 0
M  V30 4706 C 460.966 -1.71336 0.943568 0
M  V30 4707 C 461.346 -2.03972 -0.543943 0
M  V30 4708 O 460.694 -1.71545 -1.50946 0
M  V30 4709 C 460.904 -2.97094 1.83128 0
M  V30 4710 C 462.252 -3.70071 2.08165 0
M  V30 4711 O 463.276 -3.07081 1.80498 0
M  V30 4712 O 462.135 -4.83376 2.54971 0
M  V30 4713 H 459.229 -0.747386 0.354039 0
M  V30 4714 H 461.775 -1.05967 1.32549 0
M  V30 4715 H 460.547 -2.69407 2.83788 0
M  V30 4716 H 460.17 -3.70204 1.45034 0
M  V30 4717 N 461.167 -1.02423 -1.1978 0
M  V30 4718 C 462.413 -0.72878 -1.89896 0
M  V30 4719 C 462.768 0.734248 -1.77839 0
M  V30 4720 O 462.061 1.52733 -1.15685 0
M  V30 4721 C 462.255 -1.1088 -3.39765 0
M  V30 4722 C 462.084 -2.60722 -3.66407 0
M  V30 4723 C 460.854 -3.27623 -3.84696 0
M  V30 4724 C 463.052 -3.58924 -3.68345 0
M  V30 4725 N 461.034 -4.66617 -3.98926 0
M  V30 4726 C 462.405 -4.83514 -3.8809 0
M  V30 4727 C 464.46 -3.52788 -3.51347 0
M  V30 4728 C 463.163 -6.0271 -3.92598 0
M  V30 4729 C 465.189 -4.71394 -3.5713 0
M  V30 4730 C 464.551 -5.94796 -3.77356 0
M  V30 4731 H 460.65 -0.318473 -0.714212 0
M  V30 4732 H 463.234 -1.3106 -1.43984 0
M  V30 4733 H 461.405 -0.555233 -3.84411 0
M  V30 4734 H 463.137 -0.766082 -3.97383 0
M  V30 4735 H 459.892 -2.7804 -3.83393 0
M  V30 4736 H 460.316 -5.38805 -4.099 0
M  V30 4737 H 464.958 -2.58372 -3.3467 0
M  V30 4738 H 462.676 -6.97499 -4.08069 0
M  V30 4739 H 466.262 -4.6827 -3.45275 0
M  V30 4740 H 465.142 -6.85037 -3.81699 0
M  V30 4741 N 462.645 1.35699 -0.801477 0
M  V30 4742 C 463.575 2.32436 -0.222658 0
M  V30 4743 C 464.556 1.5723 0.649057 0
M  V30 4744 O 465.741 1.85324 0.580387 0
M  V30 4745 C 462.871 3.41469 0.633719 0
M  V30 4746 C 461.825 4.27774 -0.139083 0
M  V30 4747 C 461.151 5.28082 0.838666 0
M  V30 4748 C 462.451 5.04946 -1.33517 0
M  V30 4749 H 464.145 2.81094 -1.03086 0
M  V30 4750 H 461.691 1.35146 -0.497155 0
M  V30 4751 H 463.644 4.08143 1.04868 0
M  V30 4752 H 462.368 2.91408 1.47475 0
M  V30 4753 H 461.027 3.62673 -0.535156 0
M  V30 4754 H 460.675 4.7429 1.67506 0
M  V30 4755 H 460.375 5.86695 0.32594 0
M  V30 4756 H 461.899 5.97628 1.25194 0
M  V30 4757 H 463.313 5.64593 -0.995349 0
M  V30 4758 H 461.71 5.7303 -1.78202 0
M  V30 4759 H 462.78 4.35886 -2.12442 0
M  V30 4760 N 464.123 0.554532 1.47522 0
M  V30 4761 C 465.071 -0.207765 2.3167 0
M  V30 4762 C 466.065 -0.911914 1.4276 0
M  V30 4763 O 467.271 -0.833504 1.59539 0
M  V30 4764 H 463.646 -0.0858726 0.747081 0
M  V30 4765 H 465.617 0.521178 2.93813 0
M  V30 4766 C 464.366 -1.2263 3.25357 0
M  V30 4767 H 463.689 -0.693887 3.93732 0
M  V30 4768 H 465.129 -1.73062 3.87073 0
M  V30 4769 C 463.588 -2.27278 2.4869 0
M  V30 4770 O 464.118 -3.34156 2.22941 0
M  V30 4771 N 462.324 -2.01134 2.09746 0
M  V30 4772 H 461.871 -1.14232 2.30887 0
M  V30 4773 H 461.829 -2.71369 1.58765 0
M  V30 4774 N 465.601 -1.54893 0.290851 0
M  V30 4775 C 466.849 -1.99538 -0.320756 0
M  V30 4776 C 467.17 -1.18075 -1.55188 0
M  V30 4777 O 466.44 -0.274162 -1.93972 0
M  V30 4778 H 465.02 -0.737052 -0.121507 0
M  V30 4779 H 467.682 -1.90755 0.399832 0
M  V30 4780 H 466.778 -3.06282 -0.599802 0
M  V30 4781 N 467.08 -0.0183926 -1.57589 0
M  V30 4782 C 468.027 0.967022 -2.09565 0
M  V30 4783 C 468.997 1.32983 -0.995225 0
M  V30 4784 O 470.182 1.42501 -1.26878 0
M  V30 4785 C 467.322 2.24772 -2.61861 0
M  V30 4786 C 466.435 1.94232 -3.85873 0
M  V30 4787 C 465.57 3.16518 -4.26603 0
M  V30 4788 C 464.609 2.81748 -5.43401 0
M  V30 4789 N 463.746 3.96626 -5.79338 0
M  V30 4790 H 468.586 0.516874 -2.93483 0
M  V30 4791 H 466.123 0.243544 -1.4507 0
M  V30 4792 H 468.081 2.99667 -2.90268 0
M  V30 4793 H 466.711 2.67423 -1.8079 0
M  V30 4794 H 465.763 1.09625 -3.64262 0
M  V30 4795 H 467.075 1.64616 -4.70853 0
M  V30 4796 H 466.229 3.99743 -4.56389 0
M  V30 4797 H 464.968 3.49286 -3.40368 0
M  V30 4798 H 463.973 1.96933 -5.1332 0
M  V30 4799 H 465.198 2.50207 -6.31327 0
M  V30 4800 H 463.144 4.29257 -4.96059 0
M  V30 4801 H 463.061 3.70598 -6.58933 0
M  V30 4802 H 464.329 4.80586 -6.13724 0
M  V30 4803 N 468.558 1.5553 0.254621 0
M  V30 4804 C 469.468 1.92789 1.33677 0
M  V30 4805 C 470.484 0.827356 1.53071 0
M  V30 4806 O 471.66 1.12807 1.66843 0
M  V30 4807 C 468.725 2.20827 2.67275 0
M  V30 4808 C 467.786 3.4427 2.5647 0
M  V30 4809 C 467.019 3.70961 3.83697 0
M  V30 4810 O 467.242 2.99852 4.85227 0
M  V30 4811 O 466.176 4.64491 3.82794 0
M  V30 4812 H 470.002 2.84945 1.05071 0
M  V30 4813 H 467.587 1.42312 0.454723 0
M  V30 4814 H 469.469 2.40204 3.46237 0
M  V30 4815 H 468.144 1.31851 2.9563 0
M  V30 4816 H 467.051 3.30209 1.75821 0
M  V30 4817 H 468.384 4.33524 2.33062 0
M  V30 4818 N 470.036 -0.519951 1.48776 0
M  V30 4819 C 471.266 -1.29783 1.60748 0
M  V30 4820 C 471.674 -1.87253 0.27072 0
M  V30 4821 O 471.017 -1.67628 -0.751438 0
M  V30 4822 C 471.079 -2.47984 2.60277 0
M  V30 4823 C 470.743 -2.11526 4.051 0
M  V30 4824 C 471.74 -1.66608 4.92481 0
M  V30 4825 C 469.425 -2.21742 4.50706 0
M  V30 4826 C 471.419 -1.32384 6.23501 0
M  V30 4827 C 469.106 -1.87129 5.81744 0
M  V30 4828 C 470.104 -1.42523 6.67964 0
M  V30 4829 O 469.792 -1.0837 7.96562 0
M  V30 4830 H 469.524 -0.400562 0.544542 0
M  V30 4831 H 472.078 -0.632879 1.95407 0
M  V30 4832 H 470.308 -3.17493 2.2076 0
M  V30 4833 H 471.997 -3.10036 2.61978 0
M  V30 4834 H 472.763 -1.58178 4.58481 0
M  V30 4835 H 468.642 -2.55415 3.83776 0
M  V30 4836 H 472.186 -0.974949 6.90754 0
M  V30 4837 H 468.083 -1.95204 6.15277 0
M  V30 4838 H 468.851 -1.21681 8.09405 0
M  V30 4839 N 471.514 -1.37532 -0.769588 0
M  V30 4840 C 472.461 -1.3347 -1.88293 0
M  V30 4841 C 473.431 -0.199891 -1.64893 0
M  V30 4842 O 474.616 -0.389594 -1.8678 0
M  V30 4843 C 471.756 -1.14968 -3.25387 0
M  V30 4844 C 470.869 -2.37698 -3.60727 0
M  V30 4845 C 470.004 -2.12051 -4.8704 0
M  V30 4846 C 469.043 -3.30636 -5.15117 0
M  V30 4847 N 468.18 -3.04527 -6.3262 0
M  V30 4848 H 473.02 -2.28658 -1.911 0
M  V30 4849 H 470.557 -1.13622 -0.934257 0
M  V30 4850 H 472.515 -1.02261 -4.04473 0
M  V30 4851 H 471.145 -0.234263 -3.21949 0
M  V30 4852 H 470.197 -2.61137 -2.76608 0
M  V30 4853 H 471.509 -3.26131 -3.77413 0
M  V30 4854 H 470.663 -1.96388 -5.74035 0
M  V30 4855 H 469.402 -1.20959 -4.72462 0
M  V30 4856 H 468.407 -3.46836 -4.26597 0
M  V30 4857 H 469.632 -4.22582 -5.31603 0
M  V30 4858 H 467.578 -2.16067 -6.19396 0
M  V30 4859 H 467.495 -3.86503 -6.49732 0
M  V30 4860 H 468.763 -2.92485 -7.22546 0
M  V30 4861 N 472.992 0.995999 -1.22138 0
M  V30 4862 C 474.232 1.75032 -1.05561 0
M  V30 4863 C 474.596 1.87729 0.402698 0
M  V30 4864 O 475.797 2.59813 0.689234 0
M  V30 4865 C 474.068 3.11973 -1.74379 0
M  V30 4866 S 475.627 4.03182 -1.73175 0
M  V30 4867 H 472.445 0.602137 -0.37809 0
M  V30 4868 H 475.047 1.19107 -1.55028 0
M  V30 4869 H 473.751 3.00371 -2.79652 0
M  V30 4870 H 473.282 3.7297 -1.25128 0
M  V30 4871 H 475.297 4.90043 -0.77923 0
M  V30 4872 N 474.47 1.03057 1.19235 0
M  V30 4873 C 475.417 0.612832 2.22515 0
M  V30 4874 C 476.387 -0.374224 1.61829 0
M  V30 4875 O 477.572 -0.270501 1.88873 0
M  V30 4876 C 474.712 -0.028475 3.45088 0
M  V30 4877 C 473.825 1.00483 4.20151 0
M  V30 4878 C 472.96 0.333102 5.30155 0
M  V30 4879 C 471.999 1.3522 5.96977 0
M  V30 4880 N 471.136 0.70616 6.9854 0
M  V30 4881 H 475.976 1.49812 2.57605 0
M  V30 4882 H 473.513 0.749658 1.26564 0
M  V30 4883 H 475.471 -0.417548 4.15105 0
M  V30 4884 H 474.101 -0.877334 3.10649 0
M  V30 4885 H 473.153 1.51194 3.49062 0
M  V30 4886 H 474.465 1.77929 4.65986 0
M  V30 4887 H 473.619 -0.110725 6.06599 0
M  V30 4888 H 472.358 -0.473547 4.85396 0
M  V30 4889 H 471.363 1.80627 5.19282 0
M  V30 4890 H 472.588 2.16037 6.4382 0
M  V30 4891 H 470.534 -0.0803667 6.55951 0
M  V30 4892 H 470.451 1.41848 7.42573 0
M  V30 4893 H 471.719 0.286391 7.78974 0
M  V30 4894 N 475.948 -1.35272 0.808662 0
M  V30 4895 C 477.194 -1.99003 0.390581 0
M  V30 4896 C 477.527 -1.63999 -1.0401 0
M  V30 4897 O 476.802 -0.904368 -1.72196 0
M  V30 4898 C 477.085 -3.55454 0.576566 0
M  V30 4899 C 476.938 -4.00249 2.05233 0
M  V30 4900 C 478.257 -4.401 0.00354277 0
M  V30 4901 H 475.376 -0.722917 0.143388 0
M  V30 4902 H 478.018 -1.6039 1.01858 0
M  V30 4903 H 476.168 -3.88477 0.0419766 0
M  V30 4904 H 477.84 -3.77626 2.64946 0
M  V30 4905 H 476.083 -3.51082 2.54801 0
M  V30 4906 H 476.754 -5.0911 2.13333 0
M  V30 4907 H 479.23 -4.13548 0.460117 0
M  V30 4908 H 478.106 -5.48656 0.163575 0
M  V30 4909 H 478.367 -4.28444 -1.09032 0
M  V30 4910 N 477.426 -0.562348 -1.47226 0
M  V30 4911 C 478.651 -0.0432632 -2.07355 0
M  V30 4912 C 479.076 1.24332 -1.41149 0
M  V30 4913 O 478.434 1.74603 -0.488226 0
M  V30 4914 C 478.482 0.130288 -3.60365 0
M  V30 4915 O 477.586 1.19166 -3.94808 0
M  V30 4916 H 476.927 -0.0536334 -0.66183 0
M  V30 4917 H 479.457 -0.779495 -1.89169 0
M  V30 4918 H 479.467 0.342881 -4.06557 0
M  V30 4919 H 478.142 -0.809389 -4.07948 0
M  V30 4920 H 476.719 0.959153 -3.60354 0
M  V30 4921 N 478.904 1.54736 -0.299062 0
M  V30 4922 C 479.852 2.24897 0.593658 0
M  V30 4923 C 480.846 1.25429 1.13859 0
M  V30 4924 O 482.052 1.43286 1.08945 0
M  V30 4925 H 478.427 0.72207 0.210046 0
M  V30 4926 H 480.398 2.98393 -0.0206421 0
M  V30 4927 C 479.147 3.00159 1.75499 0
M  V30 4928 H 478.47 3.76501 1.34489 0
M  V30 4929 H 479.91 3.52535 2.35574 0
M  V30 4930 C 478.369 2.07015 2.65794 0
M  V30 4931 O 478.899 1.63692 3.66835 0
M  V30 4932 N 477.105 1.73012 2.33485 0
M  V30 4933 H 476.652 2.08439 1.51364 0
M  V30 4934 H 476.61 1.10965 2.94167 0
M  V30 4935 N 480.382 0.0267497 1.57577 0
M  V30 4936 C 481.329 -0.955894 2.10075 0
M  V30 4937 C 482.299 -1.32453 1.00226 0
M  V30 4938 O 483.484 -1.41826 1.27632 0
M  V30 4939 C 480.624 -2.2338 2.6305 0
M  V30 4940 C 479.737 -1.92183 3.86898 0
M  V30 4941 C 478.872 -3.14251 4.28275 0
M  V30 4942 C 477.911 -2.78862 5.44888 0
M  V30 4943 N 477.048 -3.93548 5.81433 0
M  V30 4944 H 481.888 -0.501303 2.93753 0
M  V30 4945 H 479.425 -0.235847 1.45197 0
M  V30 4946 H 481.383 -2.98124 2.91853 0
M  V30 4947 H 480.013 -2.6646 1.82205 0
M  V30 4948 H 479.065 -1.07692 3.64838 0
M  V30 4949 H 480.377 -1.62117 4.7172 0
M  V30 4950 H 479.531 -3.97317 4.58502 0
M  V30 4951 H 478.27 -3.47476 3.42215 0
M  V30 4952 H 477.275 -1.94208 5.14357 0
M  V30 4953 H 478.5 -2.46855 6.32645 0
M  V30 4954 H 476.446 -4.2662 4.98328 0
M  V30 4955 H 476.363 -3.67098 6.6089 0
M  V30 4956 H 477.631 -4.77325 6.16264 0
M  V30 4957 N 481.861 -1.55662 -0.24637 0
M  V30 4958 C 482.824 -1.89558 -1.28842 0
M  V30 4959 C 483.824 -0.772082 -1.41052 0
M  V30 4960 O 485.014 -1.04007 -1.39743 0
M  V30 4961 C 482.146 -2.12449 -2.66605 0
M  V30 4962 H 483.339 -2.82735 -1.00004 0
M  V30 4963 H 480.892 -1.48562 -0.485684 0
M  V30 4964 H 481.627 -1.21742 -3.00582 0
M  V30 4965 H 481.412 -2.94273 -2.59125 0
M  V30 4966 H 482.902 -2.39854 -3.41847 0
M  V30 4967 N 483.339 0.512053 -1.4905 0
M  V30 4968 C 484.269 1.62365 -1.67809 0
M  V30 4969 C 485.25 1.61737 -0.526809 0
M  V30 4970 O 486.435 1.78651 -0.761404 0
M  V30 4971 C 483.565 3.00895 -1.73435 0
M  V30 4972 C 482.519 3.16387 -2.88242 0
M  V30 4973 C 481.845 4.56157 -2.78971 0
M  V30 4974 C 483.145 2.97457 -4.29321 0
M  V30 4975 H 484.839 1.46921 -2.60873 0
M  V30 4976 H 482.385 0.705379 -1.2554 0
M  V30 4977 H 484.338 3.78549 -1.85145 0
M  V30 4978 H 483.062 3.17403 -0.769619 0
M  V30 4979 H 481.721 2.41155 -2.76116 0
M  V30 4980 H 481.369 4.69525 -1.8043 0
M  V30 4981 H 481.069 4.67465 -3.5602 0
M  V30 4982 H 482.593 5.35886 -2.92675 0
M  V30 4983 H 484.007 3.64888 -4.42187 0
M  V30 4984 H 482.404 3.20245 -5.07507 0
M  V30 4985 H 483.474 1.93692 -4.44535 0
M  V30 4986 N 484.817 1.37938 0.762283 0
M  V30 4987 C 486.228 1.30094 1.33912 0
M  V30 4988 C 486.579 -0.0472026 1.96143 0
M  V30 4989 O 485.704 -0.94917 1.94473 0
M  V30 4990 C 486.299 2.35592 2.43478 0
M  V30 4991 C 484.858 2.31353 2.96905 0
M  V30 4992 C 484.005 2.18919 1.70205 0
M  V30 4993 H 486.956 1.48423 0.561816 0
M  V30 4994 H 486.977 2.00806 3.23199 0
M  V30 4995 H 486.489 3.33701 1.98155 0
M  V30 4996 H 484.59 1.36799 3.46579 0
M  V30 4997 H 484.703 3.25147 3.51875 0
M  V30 4998 H 483.067 1.65624 1.93496 0
M  V30 4999 H 483.85 3.18956 1.26973 0
M  V30 5000 N 486.295 -0.989507 1.22664 0
M  V30 5001 C 487.258 -2.06183 1.00106 0
M  V30 5002 C 488.258 -1.60765 -0.0337726 0
M  V30 5003 O 489.448 -1.72989 0.205072 0
M  V30 5004 C 486.58 -3.37021 0.51279 0
M  V30 5005 H 487.773 -2.27629 1.95256 0
M  V30 5006 H 485.326 -1.16158 1.0458 0
M  V30 5007 H 486.061 -3.21261 -0.442917 0
M  V30 5008 H 485.846 -3.71323 1.25942 0
M  V30 5009 H 487.336 -4.1591 0.375315 0
M  V30 5010 N 487.773 -1.03688 -1.18687 0
M  V30 5011 C 489.184 -0.766488 -1.70241 0
M  V30 5012 C 489.535 0.713052 -1.82784 0
M  V30 5013 O 488.66 1.55529 -1.50465 0
M  V30 5014 C 489.255 -1.38475 -3.09209 0
M  V30 5015 C 487.814 -1.16276 -3.5799 0
M  V30 5016 C 486.961 -1.4778 -2.34641 0
M  V30 5017 H 489.912 -1.20378 -1.03415 0
M  V30 5018 H 489.933 -0.785939 -3.72295 0
M  V30 5019 H 489.445 -2.46157 -3.00048 0
M  V30 5020 H 487.546 -0.104508 -3.72453 0
M  V30 5021 H 487.659 -1.8571 -4.41643 0
M  V30 5022 H 486.023 -0.897366 -2.38368 0
M  V30 5023 H 486.806 -2.56562 -2.28102 0
M  V30 5024 N 489.251 1.34841 -0.815825 0
M  V30 5025 C 490.5 1.97755 -0.396976 0
M  V30 5026 C 490.813 1.65422 1.04379 0
M  V30 5027 O 492.019 2.21771 1.5662 0
M  V30 5028 C 490.475 3.53818 -0.658869 0
M  V30 5029 C 490.083 3.95051 -2.11278 0
M  V30 5030 C 491.827 4.23397 -0.305834 0
M  V30 5031 C 489.734 5.43997 -2.31994 0
M  V30 5032 H 488.664 0.739985 -0.1447 0
M  V30 5033 H 491.315 1.53781 -1.00118 0
M  V30 5034 H 489.697 3.95997 0.0154112 0
M  V30 5035 H 490.871 3.63998 -2.82564 0
M  V30 5036 H 489.186 3.38388 -2.42657 0
M  V30 5037 H 491.783 5.32899 -0.43854 0
M  V30 5038 H 492.126 4.09508 0.748952 0
M  V30 5039 H 492.659 3.8667 -0.934403 0
M  V30 5040 H 489.398 5.62865 -3.35952 0
M  V30 5041 H 488.918 5.76589 -1.65244 0
M  V30 5042 H 490.597 6.10584 -2.14001 0
M  V30 5043 N 490.729 0.570148 1.46925 0
M  V30 5044 C 491.639 -0.173061 2.33961 0
M  V30 5045 C 492.655 -0.898825 1.48987 0
M  V30 5046 O 493.831 -0.864825 1.81887 0
M  V30 5047 C 490.896 -1.18177 3.25937 0
M  V30 5048 C 489.957 -0.462041 4.26806 0
M  V30 5049 C 489.19 -1.4227 5.14388 0
M  V30 5050 O 489.413 -2.65842 5.04662 0
M  V30 5051 O 488.347 -0.940127 5.94513 0
M  V30 5052 H 492.173 0.541216 2.98839 0
M  V30 5053 H 489.758 0.330647 1.45695 0
M  V30 5054 H 491.64 -1.76372 3.82715 0
M  V30 5055 H 490.315 -1.87774 2.63671 0
M  V30 5056 H 489.222 0.161429 3.73752 0
M  V30 5057 H 490.555 0.192719 4.91823 0
M  V30 5058 N 492.207 -1.54576 0.307264 0
M  V30 5059 C 493.154 -2.23751 -0.56604 0
M  V30 5060 C 494.124 -1.22235 -1.12462 0
M  V30 5061 O 495.309 -1.50873 -1.16799 0
M  V30 5062 C 492.449 -2.98661 -1.72903 0
M  V30 5063 C 491.562 -4.14963 -1.20124 0
M  V30 5064 C 490.697 -4.77441 -2.3286 0
M  V30 5065 C 489.736 -5.85875 -1.77247 0
M  V30 5066 N 488.873 -6.42282 -2.8358 0
M  V30 5067 H 493.713 -2.97984 0.0304578 0
M  V30 5068 H 491.25 -1.47076 0.0268015 0
M  V30 5069 H 493.208 -3.40329 -2.41313 0
M  V30 5070 H 491.838 -2.26793 -2.29706 0
M  V30 5071 H 490.89 -3.78193 -0.409198 0
M  V30 5072 H 492.202 -4.93066 -0.754171 0
M  V30 5073 H 491.356 -5.21993 -3.09205 0
M  V30 5074 H 490.095 -3.98684 -2.80896 0
M  V30 5075 H 489.1 -5.40741 -0.993926 0
M  V30 5076 H 490.325 -6.6652 -1.30107 0
M  V30 5077 H 488.271 -5.66406 -3.30939 0
M  V30 5078 H 488.188 -7.1575 -2.43388 0
M  V30 5079 H 489.456 -6.91492 -3.59804 0
M  V30 5080 N 493.685 -0.035106 -1.57561 0
M  V30 5081 C 494.913 0.652258 -1.9635 0
M  V30 5082 C 495.328 1.65317 -0.911897 0
M  V30 5083 O 494.685 1.82194 0.105657 0
M  V30 5084 C 494.736 1.35337 -3.35211 0
M  V30 5085 O 494.457 0.392548 -4.36338 0
M  V30 5086 C 495.958 2.13199 -3.88666 0
M  V30 5087 H 493.178 0.179444 -0.646561 0
M  V30 5088 H 495.722 -0.0966459 -2.04271 0
M  V30 5089 H 493.877 2.05362 -3.28489 0
M  V30 5090 H 494.291 0.891097 -5.16875 0
M  V30 5091 H 495.765 2.577 -4.88154 0
M  V30 5092 H 496.242 2.97353 -3.23231 0
M  V30 5093 H 496.848 1.48118 -3.98674 0
M  V30 5094 N 495.163 1.55791 0.238111 0
M  V30 5095 C 496.412 1.77234 0.962868 0
M  V30 5096 C 496.725 0.600661 1.86149 0
M  V30 5097 O 497.931 0.698315 2.62366 0
M  V30 5098 C 496.387 3.13808 1.76218 0
M  V30 5099 C 495.995 4.3865 0.910518 0
M  V30 5100 C 497.739 3.44585 2.47914 0
M  V30 5101 C 495.646 5.66252 1.70623 0
M  V30 5102 H 494.576 0.660731 0.36325 0
M  V30 5103 H 497.227 1.8221 0.217242 0
M  V30 5104 H 495.609 3.02963 2.55009 0
M  V30 5105 H 496.783 4.60507 0.164316 0
M  V30 5106 H 495.098 4.15271 0.30647 0
M  V30 5107 H 497.695 4.3714 3.07917 0
M  V30 5108 H 498.038 2.66314 3.19973 0
M  V30 5109 H 498.571 3.56685 1.76127 0
M  V30 5110 H 495.31 6.47369 1.02923 0
M  V30 5111 H 494.83 5.48483 2.42748 0
M  V30 5112 H 496.509 6.05829 2.27114 0
M  V30 5113 N 496.642 -0.504142 1.49319 0
M  V30 5114 C 497.867 -1.28729 1.62615 0
M  V30 5115 C 498.292 -1.85752 0.296309 0
M  V30 5116 O 497.65 -1.65704 -0.735649 0
M  V30 5117 C 497.698 -2.39561 2.69524 0
M  V30 5118 O 496.802 -3.43324 2.28478 0
M  V30 5119 H 496.143 -0.380172 0.544395 0
M  V30 5120 H 498.673 -0.603872 1.95485 0
M  V30 5121 H 498.683 -2.8537 2.91595 0
M  V30 5122 H 497.358 -1.97423 3.66056 0
M  V30 5123 H 495.935 -3.03455 2.16725 0
M  V30 5124 N 498.12 -1.38341 -0.754957 0
M  V30 5125 C 499.067 -1.3546 -1.86867 0
M  V30 5126 C 500.037 -0.217369 -1.64672 0
M  V30 5127 O 501.222 -0.409383 -1.86356 0
M  V30 5128 C 498.362 -1.18413 -3.24149 0
M  V30 5129 C 497.475 -2.41511 -3.58185 0
M  V30 5130 C 496.61 -2.17205 -4.84763 0
M  V30 5131 C 495.649 -3.36081 -5.11582 0
M  V30 5132 N 494.786 -3.11219 -6.29354 0
M  V30 5133 H 499.626 -2.30672 -1.88664 0
M  V30 5134 H 497.163 -1.14607 -0.922154 0
M  V30 5135 H 499.121 -1.06545 -4.03366 0
M  V30 5136 H 497.751 -0.268397 -3.21682 0
M  V30 5137 H 496.803 -2.64056 -2.73822 0
M  V30 5138 H 498.115 -3.30115 -3.73932 0
M  V30 5139 H 497.269 -2.02465 -5.7192 0
M  V30 5140 H 496.008 -1.25964 -4.71152 0
M  V30 5141 H 495.013 -3.51341 -4.22894 0
M  V30 5142 H 496.238 -4.28196 -5.27091 0
M  V30 5143 H 494.184 -2.22624 -6.17069 0
M  V30 5144 H 494.101 -3.93373 -6.45596 0
M  V30 5145 H 495.369 -3.00132 -7.19403 0
M  V30 5146 N 499.598 0.982988 -1.23187 0
M  V30 5147 C 500.561 2.05649 -1.01198 0
M  V30 5148 C 501.561 1.6078 0.0252464 0
M  V30 5149 O 502.751 1.72878 -0.214243 0
M  V30 5150 C 499.883 3.36744 -0.530656 0
M  V30 5151 H 501.076 2.2659 -1.96461 0
M  V30 5152 H 498.629 1.15602 -1.05195 0
M  V30 5153 H 499.364 3.21492 0.425873 0
M  V30 5154 H 499.149 3.7065 -1.2791 0
M  V30 5155 H 500.639 4.15705 -0.397366 0
M  V30 5156 N 501.076 1.04316 1.18135 0
M  V30 5157 C 502.023 0.636398 2.21853 0
M  V30 5158 C 502.993 -0.357039 1.62217 0
M  V30 5159 O 504.178 -0.250453 1.89149 0
M  V30 5160 C 501.318 0.00812779 3.45099 0
M  V30 5161 C 500.431 1.04933 4.19062 0
M  V30 5162 C 499.566 0.389313 5.29771 0
M  V30 5163 C 498.605 1.41544 5.9551 0
M  V30 5164 N 497.742 0.78021 6.97751 0
M  V30 5165 H 502.582 1.52536 2.56002 0
M  V30 5166 H 500.119 0.76304 1.25762 0
M  V30 5167 H 502.077 -0.373497 4.15525 0
M  V30 5168 H 500.707 -0.844336 3.11562 0
M  V30 5169 H 499.759 1.54888 3.47439 0
M  V30 5170 H 501.071 1.82862 4.64072 0
M  V30 5171 H 500.225 -0.0463805 6.06682 0
M  V30 5172 H 498.964 -0.422038 4.8587 0
M  V30 5173 H 497.969 1.86124 5.17337 0
M  V30 5174 H 499.194 2.22854 6.41493 0
M  V30 5175 H 497.14 -0.0107899 6.55999 0
M  V30 5176 H 497.057 1.49716 7.41027 0
M  V30 5177 H 498.325 0.368996 7.78626 0
M  V30 5178 N 502.554 -1.34406 0.822964 0
M  V30 5179 C 503.802 -1.97892 0.410245 0
M  V30 5180 C 504.123 -1.65567 -1.03017 0
M  V30 5181 O 503.393 -0.94642 -1.71522 0
M  V30 5182 H 501.973 -0.732049 0.148707 0
M  V30 5183 H 504.635 -1.64043 1.05242 0
M  V30 5184 H 503.731 -3.07579 0.529284 0
M  V30 5185 N 504.032 -0.577932 -1.46621 0
M  V30 5186 C 504.964 0.195801 -2.28362 0
M  V30 5187 C 505.977 0.859983 -1.38232 0
M  V30 5188 O 507.166 0.730349 -1.62875 0
M  V30 5189 C 504.266 1.29639 -3.13124 0
M  V30 5190 C 503.439 0.725049 -4.31349 0
M  V30 5191 C 502.498 1.71274 -4.97546 0
M  V30 5192 O 501.524 1.25067 -5.5529 0
M  V30 5193 N 502.726 3.04672 -4.94121 0
M  V30 5194 H 505.491 -0.505468 -2.95407 0
M  V30 5195 H 503.052 -0.415381 -1.56481 0
M  V30 5196 H 505.044 1.95631 -3.54275 0
M  V30 5197 H 503.614 1.90059 -2.48186 0
M  V30 5198 H 502.834 -0.112205 -3.9404 0
M  V30 5199 H 504.122 0.323034 -5.07774 0
M  V30 5200 H 503.52 3.4484 -4.48444 0
M  V30 5201 H 502.077 3.66166 -5.39227 0
M  V30 5202 N 505.51 1.54411 -0.315457 0
M  V30 5203 C 506.921 1.85885 0.174265 0
M  V30 5204 C 507.272 1.23723 1.52273 0
M  V30 5205 O 506.397 0.540246 2.09548 0
M  V30 5206 C 506.992 3.37257 0.322981 0
M  V30 5207 C 505.551 3.68711 0.756922 0
M  V30 5208 C 504.698 2.77013 -0.126195 0
M  V30 5209 H 507.649 1.49374 -0.536007 0
M  V30 5210 H 507.67 3.62539 1.15522 0
M  V30 5211 H 507.182 3.82471 -0.658602 0
M  V30 5212 H 505.283 3.29024 1.74854 0
M  V30 5213 H 505.396 4.75741 0.566291 0
M  V30 5214 H 503.76 2.51588 0.39692 0
M  V30 5215 H 504.543 3.25051 -1.1044 0
M  V30 5216 N 506.988 0.0434614 1.5754 0
M  V30 5217 C 508.404 -0.313039 1.565 0
M  V30 5218 C 508.604 -1.71954 1.05043 0
M  V30 5219 O 507.66 -2.425 0.703564 0
M  V30 5220 C 508.973 -0.148544 3.00333 0
M  V30 5221 C 510.521 -0.220231 3.12224 0
M  V30 5222 C 510.996 -0.0843565 4.57922 0
M  V30 5223 N 512.487 -0.140881 4.62986 0
M  V30 5224 C 513.222 -0.0597443 5.73369 0
M  V30 5225 N 512.718 0.0733004 6.92761 0
M  V30 5226 N 514.511 -0.11477 5.61983 0
M  V30 5227 H 506.662 0.96303 1.89313 0
M  V30 5228 H 508.925 0.373164 0.871466 0
M  V30 5229 H 508.631 0.820894 3.41986 0
M  V30 5230 H 508.505 -0.912798 3.65989 0
M  V30 5231 H 510.892 -1.18014 2.70475 0
M  V30 5232 H 510.973 0.574646 2.49262 0
M  V30 5233 H 510.617 0.872192 5.00355 0
M  V30 5234 H 510.547 -0.898281 5.18882 0
M  V30 5235 H 513.038 -0.243273 3.77116 0
M  V30 5236 H 513.351 0.128128 7.72694 0
M  V30 5237 H 511.696 0.10828 6.94916 0
M  V30 5238 H 514.887 -0.217212 4.67596 0
M  V30 5239 H 515.06 -0.0480779 6.47982 0
M  V30 5240 N 508.466 -1.55915 -0.229846 0
M  V30 5241 C 509.376 -1.94891 -1.30593 0
M  V30 5242 C 510.392 -0.851604 -1.51736 0
M  V30 5243 O 511.568 -1.15447 -1.65027 0
M  V30 5244 C 508.633 -2.25052 -2.63728 0
M  V30 5245 C 507.694 -3.48306 -2.5096 0
M  V30 5246 C 506.927 -3.77019 -3.77747 0
M  V30 5247 O 507.15 -3.07534 -4.80395 0
M  V30 5248 O 506.084 -4.70523 -3.75356 0
M  V30 5249 H 509.91 -2.86581 -1.00525 0
M  V30 5250 H 507.495 -1.43017 -0.432025 0
M  V30 5251 H 509.377 -2.45682 -3.42372 0
M  V30 5252 H 508.052 -1.36538 -2.93495 0
M  V30 5253 H 506.959 -3.32964 -1.70546 0
M  V30 5254 H 508.292 -4.37177 -2.26136 0
M  V30 5255 N 509.944 0.496216 -1.49584 0
M  V30 5256 C 511.355 1.07765 -1.52459 0
M  V30 5257 C 511.706 1.93679 -0.31353 0
M  V30 5258 O 510.831 2.08588 0.576186 0
M  V30 5259 C 511.426 1.96111 -2.76271 0
M  V30 5260 C 509.985 2.49409 -2.81908 0
M  V30 5261 C 509.132 1.27142 -2.46435 0
M  V30 5262 H 512.083 0.279914 -1.56212 0
M  V30 5263 H 512.104 2.80862 -2.56704 0
M  V30 5264 H 511.616 1.33555 -3.64396 0
M  V30 5265 H 509.717 3.1559 -1.98074 0
M  V30 5266 H 509.83 2.86234 -3.84196 0
M  V30 5267 H 508.194 1.59818 -1.98319 0
M  V30 5268 H 508.977 0.662866 -3.3684 0
M  V30 5269 N 511.423 1.38739 0.74761 0
M  V30 5270 C 512.355 1.32341 1.87132 0
M  V30 5271 C 513.368 0.234502 1.61102 0
M  V30 5272 O 514.557 0.492516 1.71571 0
M  V30 5273 C 511.657 1.02915 3.22896 0
M  V30 5274 C 510.83 2.22834 3.76383 0
M  V30 5275 C 509.889 1.90059 4.90677 0
M  V30 5276 O 508.915 2.62615 5.04997 0
M  V30 5277 N 510.117 0.859141 5.74107 0
M  V30 5278 H 512.882 2.29175 1.93129 0
M  V30 5279 H 510.443 1.32678 0.927805 0
M  V30 5280 H 512.435 0.79031 3.96908 0
M  V30 5281 H 511.005 0.148572 3.12247 0
M  V30 5282 H 510.225 2.62747 2.93867 0
M  V30 5283 H 511.513 3.02851 4.08851 0
M  V30 5284 H 510.911 0.257564 5.65113 0
M  V30 5285 H 509.468 0.680189 6.48241 0
M  V30 5286 N 512.901 -0.976442 1.23707 0
M  V30 5287 C 514.147 -1.72081 1.07312 0
M  V30 5288 C 514.48 -1.90275 -0.388476 0
M  V30 5289 O 513.755 -1.4579 -1.28746 0
M  V30 5290 C 514.038 -3.11675 1.80363 0
M  V30 5291 C 513.891 -3.01027 3.3422 0
M  V30 5292 C 515.21 -4.1117 1.5693 0
M  V30 5293 H 512.329 -0.624583 0.391236 0
M  V30 5294 H 514.971 -1.13649 1.52263 0
M  V30 5295 H 513.121 -3.61559 1.42153 0
M  V30 5296 H 514.793 -2.58637 3.81975 0
M  V30 5297 H 513.036 -2.3744 3.63049 0
M  V30 5298 H 513.707 -3.9988 3.80525 0
M  V30 5299 H 516.183 -3.7011 1.90151 0
M  V30 5300 H 515.059 -5.06928 2.10513 0
M  V30 5301 H 515.32 -4.392 0.505548 0
M  V30 5302 N 514.379 -1.04941 -1.1758 0
M  V30 5303 C 515.609 -0.777166 -1.91425 0
M  V30 5304 C 516.017 0.670647 -1.76915 0
M  V30 5305 O 515.36 1.46965 -1.10213 0
M  V30 5306 C 515.422 -1.07495 -3.43052 0
M  V30 5307 C 515.086 -2.51844 -3.81345 0
M  V30 5308 C 516.083 -3.50047 -3.844 0
M  V30 5309 C 513.768 -2.86787 -4.12382 0
M  V30 5310 C 515.762 -4.81239 -4.17957 0
M  V30 5311 C 513.449 -4.18182 -4.45608 0
M  V30 5312 C 514.447 -5.15219 -4.48373 0
M  V30 5313 O 514.135 -6.44258 -4.80819 0
M  V30 5314 H 513.867 -0.282209 -0.614275 0
M  V30 5315 H 516.421 -1.40258 -1.50056 0
M  V30 5316 H 514.651 -0.392437 -3.84704 0
M  V30 5317 H 516.34 -0.78912 -3.98155 0
M  V30 5318 H 517.106 -3.24391 -3.60548 0
M  V30 5319 H 512.985 -2.11922 -4.09402 0
M  V30 5320 H 516.529 -5.56974 -4.2003 0
M  V30 5321 H 512.426 -4.43602 -4.68922 0
M  V30 5322 H 513.194 -6.49041 -4.98686 0
M  V30 5323 N 515.857 1.33968 -0.830081 0
M  V30 5324 C 517.085 2.0228 -0.434773 0
M  V30 5325 C 517.5 1.62487 0.961419 0
M  V30 5326 O 516.857 0.833849 1.62337 0
M  V30 5327 C 516.908 3.5751 -0.535625 0
M  V30 5328 O 516.629 3.95864 -1.87679 0
M  V30 5329 C 518.13 4.43091 -0.136137 0
M  V30 5330 H 515.35 0.648151 -0.173613 0
M  V30 5331 H 517.894 1.71089 -1.12022 0
M  V30 5332 H 516.049 3.87266 0.101817 0
M  V30 5333 H 516.463 4.9056 -1.85609 0
M  V30 5334 H 517.937 5.51398 -0.257772 0
M  V30 5335 H 518.414 4.29433 0.921076 0
M  V30 5336 H 519.02 4.18677 -0.747662 0
M  V30 5337 N 517.335 0.585699 1.46312 0
M  V30 5338 C 518.265 -0.133556 2.33118 0
M  V30 5339 C 519.246 -0.880707 1.45525 0
M  V30 5340 O 520.431 -0.855579 1.74337 0
M  V30 5341 C 517.561 -1.14585 3.27853 0
M  V30 5342 C 516.515 -0.513341 4.2491 0
M  V30 5343 C 515.841 -1.63231 5.09175 0
M  V30 5344 C 517.141 0.551413 5.19381 0
M  V30 5345 H 518.835 0.59121 2.93505 0
M  V30 5346 H 516.381 0.285761 1.41136 0
M  V30 5347 H 518.334 -1.65741 3.87438 0
M  V30 5348 H 517.058 -1.90093 2.65579 0
M  V30 5349 H 515.717 -0.0228349 3.66593 0
M  V30 5350 H 515.365 -2.37713 4.43285 0
M  V30 5351 H 515.065 -1.21473 5.74907 0
M  V30 5352 H 516.589 -2.14658 5.71624 0
M  V30 5353 H 518.003 0.124804 5.73164 0
M  V30 5354 H 516.4 0.889486 5.93471 0
M  V30 5355 H 517.47 1.43655 4.63132 0
M  V30 5356 N 518.813 -1.54241 0.323641 0
M  V30 5357 C 520.224 -1.85975 -0.164405 0
M  V30 5358 C 520.575 -1.24529 -1.51615 0
M  V30 5359 O 519.7 -0.551351 -2.09258 0
M  V30 5360 C 520.295 -3.37424 -0.305091 0
M  V30 5361 C 518.854 -3.69107 -0.737358 0
M  V30 5362 C 518.001 -2.76942 0.140884 0
M  V30 5363 H 520.952 -1.49088 0.543922 0
M  V30 5364 H 520.973 -3.63147 -1.13598 0
M  V30 5365 H 520.485 -3.82116 0.678876 0
M  V30 5366 H 518.586 -3.29947 -1.73107 0
M  V30 5367 H 518.699 -4.76035 -0.541053 0
M  V30 5368 H 517.063 -2.51795 -0.383572 0
M  V30 5369 H 517.846 -3.24461 1.12162 0
M  V30 5370 N 520.291 -0.0518155 -1.57515 0
M  V30 5371 C 521.702 0.483787 -1.80323 0
M  V30 5372 C 522.053 1.70879 -0.964099 0
M  V30 5373 O 521.178 2.15643 -0.180872 0
M  V30 5374 C 521.773 0.884459 -3.27052 0
M  V30 5375 C 520.332 1.36504 -3.50776 0
M  V30 5376 C 519.479 0.340539 -2.75201 0
M  V30 5377 H 522.43 -0.277691 -1.56252 0
M  V30 5378 H 522.451 1.74733 -3.38007 0
M  V30 5379 H 521.963 -0.00731093 -3.88099 0
M  V30 5380 H 520.064 2.27598 -2.95009 0
M  V30 5381 H 520.177 1.35675 -4.59488 0
M  V30 5382 H 518.541 0.81356 -2.41357 0
M  V30 5383 H 519.324 -0.543156 -3.38976 0
M  V30 5384 N 521.769 1.56035 0.221574 0
M  V30 5385 C 522.994 1.83476 0.967026 0
M  V30 5386 C 523.419 0.632139 1.7716 0
M  V30 5387 O 522.777 -0.419082 1.7639 0
M  V30 5388 C 522.825 3.08907 1.86034 0
M  V30 5389 O 521.929 2.876 2.95567 0
M  V30 5390 H 521.27 0.604913 0.273817 0
M  V30 5391 H 523.8 2.03247 0.234893 0
M  V30 5392 H 523.81 3.3901 2.27016 0
M  V30 5393 H 522.485 3.96068 1.26898 0
M  V30 5394 H 521.062 2.6873 2.58532 0
M  V30 5395 N 523.247 -0.488276 1.49845 0
M  V30 5396 C 524.663 -0.820566 1.3689 0
M  V30 5397 C 524.863 -1.97248 0.411752 0
M  V30 5398 O 523.919 -2.52042 -0.151931 0
M  V30 5399 C 525.232 -1.1488 2.77891 0
M  V30 5400 C 526.78 -1.25626 2.86683 0
M  V30 5401 C 527.255 -1.61772 4.28479 0
M  V30 5402 N 528.746 -1.68797 4.31349 0
M  V30 5403 C 529.481 -1.98235 5.38043 0
M  V30 5404 N 528.977 -2.2581 6.54967 0
M  V30 5405 N 530.77 -1.99593 5.2547 0
M  V30 5406 H 522.921 0.271123 2.10662 0
M  V30 5407 H 525.184 0.058735 0.946179 0
M  V30 5408 H 524.89 -0.375614 3.49688 0
M  V30 5409 H 524.764 -2.08919 3.14058 0
M  V30 5410 H 527.151 -2.02014 2.15114 0
M  V30 5411 H 527.232 -0.296072 2.54081 0
M  V30 5412 H 526.876 -0.859295 5.00578 0
M  V30 5413 H 526.806 -2.58912 4.58554 0
M  V30 5414 H 529.297 -1.49595 3.4703 0
M  V30 5415 H 529.61 -2.47497 7.32096 0
M  V30 5416 H 527.955 -2.23239 6.58171 0
M  V30 5417 H 531.146 -1.77535 4.33127 0
M  V30 5418 H 531.319 -2.222 6.08713 0
M  V30 5419 N 524.725 -1.39134 -0.740242 0
M  V30 5420 C 526.002 -1.26584 -1.49117 0
M  V30 5421 C 526.382 0.126902 -2.10718 0
M  V30 5422 O 525.73 1.13765 -1.98166 0
M  V30 5423 C 525.94 -2.38619 -2.54681 0
M  V30 5424 C 527.288 -2.77685 -3.21211 0
M  V30 5425 O 528.312 -2.38029 -2.64991 0
M  V30 5426 O 527.171 -3.46115 -4.22926 0
M  V30 5427 H 524.265 -0.495769 -0.661923 0
M  V30 5428 H 526.811 -1.50995 -0.774514 0
M  V30 5429 H 525.583 -3.3175 -2.07504 0
M  V30 5430 H 525.206 -2.15845 -3.33911 0
M  V30 5431 N 526.204 0.969867 -1.24223 0
M  V30 5432 C 527.114 2.09806 -1.0497 0
M  V30 5433 C 528.13 1.73998 0.00886455 0
M  V30 5434 O 529.306 2.00513 -0.188848 0
M  V30 5435 C 526.371 3.40467 -0.654452 0
M  V30 5436 C 525.432 3.90236 -1.78926 0
M  V30 5437 C 524.665 5.14662 -1.41277 0
M  V30 5438 O 524.888 5.69602 -0.301632 0
M  V30 5439 O 523.822 5.58761 -2.23763 0
M  V30 5440 H 527.648 2.28942 -1.99548 0
M  V30 5441 H 525.233 1.08197 -1.03023 0
M  V30 5442 H 527.115 4.19039 -0.445452 0
M  V30 5443 H 525.79 3.22636 0.262216 0
M  V30 5444 H 524.697 3.12735 -2.05299 0
M  V30 5445 H 526.03 4.1254 -2.68462 0
M  V30 5446 N 527.682 1.05563 1.17022 0
M  V30 5447 C 528.612 0.681026 2.23348 0
M  V30 5448 C 529.593 -0.322983 1.67005 0
M  V30 5449 O 530.778 -0.199746 1.9317 0
M  V30 5450 C 527.908 0.0589053 3.4725 0
M  V30 5451 C 526.862 0.988082 4.16438 0
M  V30 5452 C 526.188 0.229646 5.34207 0
M  V30 5453 C 527.488 2.31388 4.68249 0
M  V30 5454 H 529.182 1.56993 2.54938 0
M  V30 5455 H 526.728 0.756302 1.2254 0
M  V30 5456 H 528.681 -0.214982 4.20851 0
M  V30 5457 H 527.405 -0.864968 3.14938 0
M  V30 5458 H 526.064 1.24659 3.44754 0
M  V30 5459 H 525.712 -0.697111 4.98146 0
M  V30 5460 H 525.412 0.848815 5.81437 0
M  V30 5461 H 526.936 -0.0368694 6.10589 0
M  V30 5462 H 528.35 2.09964 5.33468 0
M  V30 5463 H 526.747 2.88736 5.26072 0
M  V30 5464 H 527.817 2.94982 3.84855 0
M  V30 5465 N 529.16 -1.33526 0.837174 0
M  V30 5466 C 530.388 -2.02047 0.445494 0
M  V30 5467 C 530.803 -1.62995 -0.952788 0
M  V30 5468 O 530.16 -0.842447 -1.61892 0
M  V30 5469 C 530.211 -3.57221 0.554577 0
M  V30 5470 O 529.932 -3.94863 1.89776 0
M  V30 5471 C 531.433 -4.43012 0.159634 0
M  V30 5472 H 528.653 -0.647221 0.177048 0
M  V30 5473 H 531.197 -1.70492 1.12928 0
M  V30 5474 H 529.352 -3.87315 -0.0812781 0
M  V30 5475 H 529.766 -4.89569 1.88208 0
M  V30 5476 H 531.24 -5.51253 0.28701 0
M  V30 5477 H 531.717 -4.29916 -0.898289 0
M  V30 5478 H 532.323 -4.18274 0.769855 0
M  V30 5479 N 530.638 -0.59345 -1.46 0
M  V30 5480 C 531.585 0.133618 -2.30413 0
M  V30 5481 C 532.555 0.873736 -1.41262 0
M  V30 5482 O 533.74 0.862279 -1.70204 0
M  V30 5483 C 530.88 1.13434 -3.25924 0
M  V30 5484 C 529.993 0.39656 -4.30176 0
M  V30 5485 C 529.128 1.38575 -5.12806 0
M  V30 5486 C 528.167 0.634984 -6.08797 0
M  V30 5487 N 527.304 1.57276 -6.84258 0
M  V30 5488 H 532.144 -0.592252 -2.92055 0
M  V30 5489 H 529.681 -0.303874 -1.43927 0
M  V30 5490 H 531.639 1.72752 -3.79753 0
M  V30 5491 H 530.269 1.82779 -2.66067 0
M  V30 5492 H 529.321 -0.311861 -3.79119 0
M  V30 5493 H 530.633 -0.189869 -4.98438 0
M  V30 5494 H 529.787 2.05141 -5.70966 0
M  V30 5495 H 528.526 2.00611 -4.44529 0
M  V30 5496 H 527.531 -0.0443925 -5.49782 0
M  V30 5497 H 528.756 0.0198678 -6.79097 0
M  V30 5498 H 526.702 2.18103 -6.18682 0
M  V30 5499 H 526.619 1.03941 -7.48821 0
M  V30 5500 H 527.887 2.22844 -7.46968 0
M  V30 5501 N 532.116 1.54067 -0.331816 0
M  V30 5502 C 533.064 2.26105 0.54582 0
M  V30 5503 C 534.058 1.27816 1.11173 0
M  V30 5504 O 535.264 1.45565 1.05882 0
M  V30 5505 H 531.639 0.726363 0.194683 0
M  V30 5506 H 533.61 2.98282 -0.083931 0
M  V30 5507 C 532.359 3.03814 1.69092 0
M  V30 5508 H 531.682 3.79269 1.26473 0
M  V30 5509 H 533.122 3.57453 2.28043 0
M  V30 5510 C 531.581 2.12606 2.61343 0
M  V30 5511 O 532.111 1.71437 3.6328 0
M  V30 5512 N 530.317 1.77925 2.29763 0
M  V30 5513 H 529.864 2.11602 1.46909 0
M  V30 5514 H 529.822 1.1718 2.91747 0
M  V30 5515 N 533.594 0.0601682 1.57485 0
M  V30 5516 C 534.526 -0.94047 2.09016 0
M  V30 5517 C 535.539 -1.26897 1.01985 0
M  V30 5518 O 536.728 -1.22819 1.29529 0
M  V30 5519 C 533.828 -2.25955 2.52582 0
M  V30 5520 C 533.001 -2.11163 3.83052 0
M  V30 5521 C 532.06 -3.26273 4.12835 0
M  V30 5522 O 531.086 -3.01779 4.82616 0
M  V30 5523 N 532.288 -4.51022 3.65458 0
M  V30 5524 H 535.053 -0.500578 2.9549 0
M  V30 5525 H 532.614 -0.125852 1.6141 0
M  V30 5526 H 534.606 -3.01846 2.69575 0
M  V30 5527 H 533.176 -2.61481 1.71308 0
M  V30 5528 H 532.396 -1.19808 3.75552 0
M  V30 5529 H 533.684 -1.98517 4.68475 0
M  V30 5530 H 533.082 -4.73811 3.09062 0
M  V30 5531 H 531.639 -5.23978 3.87673 0
M  V30 5532 N 535.072 -1.5615 -0.213296 0
M  V30 5533 C 536.318 -1.79812 -0.937849 0
M  V30 5534 C 536.651 -0.631201 -1.83656 0
M  V30 5535 O 535.926 0.369165 -1.90964 0
M  V30 5536 C 536.209 -3.13613 -1.76972 0
M  V30 5537 C 536.062 -4.40766 -0.89695 0
M  V30 5538 C 537.381 -3.43931 -2.7459 0
M  V30 5539 H 534.5 -0.654138 -0.339518 0
M  V30 5540 H 537.142 -1.88877 -0.20623 0
M  V30 5541 H 535.292 -3.06015 -2.39347 0
M  V30 5542 H 536.964 -4.60392 -0.289306 0
M  V30 5543 H 535.207 -4.33326 -0.202756 0
M  V30 5544 H 535.878 -5.30843 -1.51358 0
M  V30 5545 H 538.354 -3.5171 -2.22349 0
M  V30 5546 H 537.23 -4.38706 -3.29891 0
M  V30 5547 H 537.491 -2.6651 -3.52739 0
M  V30 5548 N 536.55 0.480323 -1.50102 0
M  V30 5549 C 537.775 1.26126 -1.64642 0
M  V30 5550 C 538.2 1.85257 -0.325823 0
M  V30 5551 O 537.558 1.66854 0.709194 0
M  V30 5552 C 537.606 2.35243 -2.73301 0
M  V30 5553 O 536.71 3.39646 -2.33911 0
M  V30 5554 H 536.051 0.371463 -0.550374 0
M  V30 5555 H 538.581 0.572696 -1.96421 0
M  V30 5556 H 538.591 2.80695 -2.96098 0
M  V30 5557 H 537.266 1.91574 -3.6915 0
M  V30 5558 H 535.843 2.99969 -2.21525 0
M  V30 5559 N 538.028 1.39524 0.732853 0
M  V30 5560 C 538.958 1.41153 1.86005 0
M  V30 5561 C 539.939 0.274614 1.67869 0
M  V30 5562 O 541.124 0.480745 1.88155 0
M  V30 5563 C 538.254 1.25638 3.23778 0
M  V30 5564 C 537.208 2.36752 3.56556 0
M  V30 5565 C 536.534 2.06326 4.93289 0
M  V30 5566 C 537.834 3.79069 3.5931 0
M  V30 5567 H 539.528 2.35484 1.84899 0
M  V30 5568 H 537.074 1.13348 0.888162 0
M  V30 5569 H 539.027 1.25398 4.0231 0
M  V30 5570 H 537.751 0.277772 3.25417 0
M  V30 5571 H 536.41 2.36213 2.80355 0
M  V30 5572 H 536.058 1.06897 4.9151 0
M  V30 5573 H 535.758 2.80757 5.16187 0
M  V30 5574 H 537.282 2.07739 5.74175 0
M  V30 5575 H 538.696 3.81526 4.27914 0
M  V30 5576 H 537.093 4.52878 3.93728 0
M  V30 5577 H 538.163 4.09893 2.59068 0
M  V30 5578 N 539.506 -0.963266 1.24736 0
M  V30 5579 C 540.734 -1.74166 1.11686 0
M  V30 5580 C 541.149 -1.8589 -0.330187 0
M  V30 5581 O 540.506 -1.35042 -1.2276 0
M  V30 5582 C 540.557 -3.15989 1.75595 0
M  V30 5583 O 540.278 -3.04847 3.14642 0
M  V30 5584 C 541.779 -4.10145 1.68213 0
M  V30 5585 H 538.999 -0.546031 0.389989 0
M  V30 5586 H 541.543 -1.20907 1.64929 0
M  V30 5587 H 539.698 -3.66219 1.26343 0
M  V30 5588 H 540.112 -3.9425 3.4593 0
M  V30 5589 H 541.586 -5.07299 2.17604 0
M  V30 5590 H 542.063 -4.3445 0.644208 0
M  V30 5591 H 542.669 -3.65827 2.16912 0
M  V30 5592 N 540.985 -1.06182 -1.16461 0
M  V30 5593 C 542.225 -0.787048 -1.8864 0
M  V30 5594 C 542.589 0.674093 -1.79778 0
M  V30 5595 O 543.79 1.06341 -2.46871 0
M  V30 5596 C 542.061 -1.2666 -3.34203 0
M  V30 5597 S 543.62 -1.12071 -4.24247 0
M  V30 5598 H 540.438 -0.285539 -0.651144 0
M  V30 5599 H 543.04 -1.35851 -1.40587 0
M  V30 5600 H 541.744 -2.32496 -3.38192 0
M  V30 5601 H 541.275 -0.689841 -3.87304 0
M  V30 5602 H 543.29 -0.0509341 -4.96174 0
M  V30 5603 N 542.463 1.3308 -0.844243 0
M  V30 5604 C 543.393 2.3161 -0.296493 0
M  V30 5605 C 544.374 1.59215 0.598707 0
M  V30 5606 O 545.559 1.87077 0.521134 0
M  V30 5607 C 542.689 3.43313 0.524762 0
M  V30 5608 C 541.643 4.27115 -0.275106 0
M  V30 5609 C 540.969 5.30483 0.670236 0
M  V30 5610 C 542.269 5.00443 -1.49514 0
M  V30 5611 H 543.963 2.77672 -1.11976 0
M  V30 5612 H 541.509 1.33496 -0.539899 0
M  V30 5613 H 543.462 4.11273 0.918298 0
M  V30 5614 H 542.186 2.95952 1.3813 0
M  V30 5615 H 540.845 3.60787 -0.650267 0
M  V30 5616 H 540.493 4.79379 1.52332 0
M  V30 5617 H 540.193 5.87435 0.139123 0
M  V30 5618 H 541.717 6.01308 1.06117 0
M  V30 5619 H 543.131 5.61141 -1.17447 0
M  V30 5620 H 541.528 5.67071 -1.96343 0
M  V30 5621 H 542.598 4.28906 -2.26202 0
M  V30 5622 N 543.941 0.601185 1.45683 0
M  V30 5623 C 545.187 0.0940202 2.02582 0
M  V30 5624 C 545.52 -1.26972 1.46941 0
M  V30 5625 O 544.795 -1.83613 0.641612 0
M  V30 5626 C 545.078 0.0481715 3.60068 0
M  V30 5627 C 544.931 1.44212 4.26055 0
M  V30 5628 C 546.25 -0.642975 4.35378 0
M  V30 5629 H 543.369 0.0356404 0.736138 0
M  V30 5630 H 546.011 0.771929 1.73612 0
M  V30 5631 H 544.161 -0.529128 3.8488 0
M  V30 5632 H 545.833 2.06601 4.12449 0
M  V30 5633 H 544.076 2.00465 3.84703 0
M  V30 5634 H 544.747 1.36234 5.34925 0
M  V30 5635 H 547.223 -0.152351 4.15821 0
M  V30 5636 H 546.099 -0.644141 5.45107 0
M  V30 5637 H 546.36 -1.70785 4.0778 0
M  V30 5638 N 545.419 -1.53889 0.339982 0
M  V30 5639 C 546.366 -2.24902 -0.518452 0
M  V30 5640 C 547.336 -1.24593 -1.09844 0
M  V30 5641 O 548.521 -1.53317 -1.13572 0
M  V30 5642 C 545.661 -3.02262 -1.66529 0
M  V30 5643 C 544.774 -4.17418 -1.11295 0
M  V30 5644 C 543.909 -4.82273 -2.2268 0
M  V30 5645 C 542.948 -5.89503 -1.6478 0
M  V30 5646 N 542.085 -6.48153 -2.69893 0
M  V30 5647 H 546.925 -2.97853 0.0936579 0
M  V30 5648 H 544.462 -1.46986 0.0579924 0
M  V30 5649 H 546.42 -3.45371 -2.3404 0
M  V30 5650 H 545.05 -2.31614 -2.24844 0
M  V30 5651 H 544.102 -3.78976 -0.328886 0
M  V30 5652 H 545.414 -4.94554 -0.649414 0
M  V30 5653 H 544.568 -5.28435 -2.98063 0
M  V30 5654 H 543.307 -4.04552 -2.72376 0
M  V30 5655 H 542.312 -5.42728 -0.879004 0
M  V30 5656 H 543.537 -6.6913 -1.1594 0
M  V30 5657 H 541.483 -5.73298 -3.1885 0
M  V30 5658 H 541.4 -7.20752 -2.28151 0
M  V30 5659 H 542.668 -6.98968 -3.45056 0
M  V30 5660 N 546.897 -0.0685191 -1.57451 0
M  V30 5661 C 548.145 0.60016 -1.92983 0
M  V30 5662 C 548.466 1.70348 -0.949028 0
M  V30 5663 O 547.736 1.959 0.00335647 0
M  V30 5664 H 546.316 0.224682 -0.712409 0
M  V30 5665 H 548.978 -0.125605 -1.94495 0
M  V30 5666 H 548.074 1.02759 -2.94698 0
M  V30 5667 N 548.375 1.56261 0.205012 0
M  V30 5668 C 549.622 1.8004 0.926927 0
M  V30 5669 C 549.95 0.640086 1.83666 0
M  V30 5670 O 549.205 -0.374702 1.92079 0
M  V30 5671 C 549.504 3.09722 1.78345 0
M  V30 5672 C 549.17 4.39082 1.02555 0
M  V30 5673 C 547.832 4.74226 0.816256 0
M  V30 5674 C 550.184 5.18877 0.491559 0
M  V30 5675 C 547.512 5.86668 0.0613287 0
M  V30 5676 C 549.864 6.32105 -0.250107 0
M  V30 5677 C 548.528 6.6584 -0.470508 0
M  V30 5678 H 547.798 0.658812 0.339187 0
M  V30 5679 H 550.445 1.90515 0.19395 0
M  V30 5680 H 548.75 2.9444 2.5848 0
M  V30 5681 H 550.447 3.25324 2.34446 0
M  V30 5682 H 547.037 4.11497 1.19868 0
M  V30 5683 H 551.221 4.92147 0.640684 0
M  V30 5684 H 546.477 6.11283 -0.119501 0
M  V30 5685 H 550.651 6.93157 -0.671307 0
M  V30 5686 H 548.278 7.5281 -1.05739 0
M  V30 5687 N 549.853 -0.472356 1.50355 0
M  V30 5688 C 551.083 -1.24603 1.64796 0
M  V30 5689 C 551.491 -1.86297 0.330156 0
M  V30 5690 O 550.834 -1.69934 -0.697728 0
M  V30 5691 C 550.896 -2.39578 2.68035 0
M  V30 5692 C 550.56 -1.98531 4.11624 0
M  V30 5693 C 551.557 -1.50856 4.97532 0
M  V30 5694 C 549.242 -2.0729 4.57532 0
M  V30 5695 C 551.236 -1.12481 6.27397 0
M  V30 5696 C 548.923 -1.68527 5.87403 0
M  V30 5697 C 549.921 -1.212 6.7216 0
M  V30 5698 O 549.609 -0.829728 7.99607 0
M  V30 5699 H 549.341 -0.383035 0.55701 0
M  V30 5700 H 551.895 -0.570392 1.97321 0
M  V30 5701 H 550.125 -3.10309 2.30749 0
M  V30 5702 H 551.814 -3.01544 2.71709 0
M  V30 5703 H 552.58 -1.43511 4.63281 0
M  V30 5704 H 548.459 -2.43076 3.91708 0
M  V30 5705 H 552.003 -0.754698 6.93506 0
M  V30 5706 H 547.9 -1.7553 6.21176 0
M  V30 5707 H 548.668 -0.958689 8.12866 0
M  V30 5708 N 551.331 -1.39911 -0.725443 0
M  V30 5709 C 552.742 -1.33599 -1.30415 0
M  V30 5710 C 553.093 -0.00481792 -1.96199 0
M  V30 5711 O 552.218 0.897275 -1.96921 0
M  V30 5712 C 552.813 -2.41965 -2.37146 0
M  V30 5713 C 551.372 -2.39144 -2.90667 0
M  V30 5714 C 550.519 -2.23355 -1.64341 0
M  V30 5715 H 553.47 -1.4986 -0.522267 0
M  V30 5716 H 553.491 -2.09304 -3.17761 0
M  V30 5717 H 553.003 -3.38837 -1.89238 0
M  V30 5718 H 551.104 -1.4594 -3.4283 0
M  V30 5719 H 551.217 -3.34362 -3.43131 0
M  V30 5720 H 549.581 -1.70696 -1.89037 0
M  V30 5721 H 550.364 -3.2221 -1.18471 0
M  V30 5722 N 552.809 0.956637 -1.25245 0
M  V30 5723 C 554.034 1.74104 -1.12706 0
M  V30 5724 C 554.459 1.85436 0.315429 0
M  V30 5725 O 553.817 1.33334 1.22848 0
M  V30 5726 C 553.865 3.1338 -1.78396 0
M  V30 5727 O 552.969 3.98485 -1.06224 0
M  V30 5728 H 552.31 0.53476 -0.393609 0
M  V30 5729 H 554.84 1.19924 -1.65769 0
M  V30 5730 H 554.85 3.6385 -1.846 0
M  V30 5731 H 553.525 3.04448 -2.83345 0
M  V30 5732 H 552.102 3.56952 -1.07886 0
M  V30 5733 N 554.287 1.06798 1.15896 0
M  V30 5734 C 555.564 0.701057 1.82605 0
M  V30 5735 C 555.944 -0.817066 1.94646 0
M  V30 5736 O 555.292 -1.72933 1.49353 0
M  V30 5737 C 555.502 1.40895 3.19296 0
M  V30 5738 C 556.85 1.55744 3.95005 0
M  V30 5739 O 557.874 1.36927 3.28831 0
M  V30 5740 O 556.733 1.86658 5.13635 0
M  V30 5741 H 553.827 0.248791 0.78869 0
M  V30 5742 H 556.373 1.16857 1.23055 0
M  V30 5743 H 555.145 2.4439 3.05596 0
M  V30 5744 H 554.768 0.931847 3.86526 0
M  V30 5745 N 555.766 -1.3263 0.851289 0
M  V30 5746 C 557.015 -1.96633 0.449267 0
M  V30 5747 C 557.328 -1.68131 -0.999562 0
M  V30 5748 O 558.534 -2.25845 -1.50685 0
M  V30 5749 C 556.99 -3.51946 0.752446 0
M  V30 5750 C 556.598 -3.89311 2.21678 0
M  V30 5751 C 558.342 -4.22437 0.417983 0
M  V30 5752 C 556.249 -5.37655 2.46336 0
M  V30 5753 H 555.179 -0.735888 0.164269 0
M  V30 5754 H 557.83 -1.51073 1.0416 0
M  V30 5755 H 556.212 -3.95899 0.0895858 0
M  V30 5756 H 557.386 -3.56378 2.92115 0
M  V30 5757 H 555.701 -3.31836 2.51543 0
M  V30 5758 H 558.298 -5.31549 0.579674 0
M  V30 5759 H 558.641 -4.11349 -0.640115 0
M  V30 5760 H 559.174 -3.84057 1.03659 0
M  V30 5761 H 555.913 -5.5376 3.50757 0
M  V30 5762 H 555.433 -5.72005 1.80473 0
M  V30 5763 H 557.112 -6.04695 2.30115 0
M  V30 5764 N 557.244 -0.608902 -1.45362 0
M  V30 5765 C 558.207 0.0992563 -2.28985 0
M  V30 5766 C 559.207 0.793841 -1.39838 0
M  V30 5767 O 560.397 0.641804 -1.61946 0
M  V30 5768 C 557.529 1.15073 -3.20891 0
M  V30 5769 H 558.722 -0.635964 -2.93079 0
M  V30 5770 H 556.275 -0.368007 -1.51906 0
M  V30 5771 H 557.01 1.91667 -2.616 0
M  V30 5772 H 556.795 0.656867 -3.86559 0
M  V30 5773 H 558.285 1.64665 -3.83765 0
M  V30 5774 N 558.722 1.53707 -0.348139 0
M  V30 5775 C 559.968 2.01286 0.247332 0
M  V30 5776 C 560.301 1.23546 1.49834 0
M  V30 5777 O 559.576 0.324331 1.91777 0
M  V30 5778 C 559.859 3.55768 0.556858 0
M  V30 5779 C 559.712 4.44216 -0.706564 0
M  V30 5780 C 561.031 4.1841 1.3646 0
M  V30 5781 H 558.15 0.731677 0.0884201 0
M  V30 5782 H 560.792 1.84106 -0.469584 0
M  V30 5783 H 558.942 3.70539 1.16761 0
M  V30 5784 H 560.614 4.41274 -1.34444 0
M  V30 5785 H 558.857 4.12892 -1.33052 0
M  V30 5786 H 559.528 5.50202 -0.445186 0
M  V30 5787 H 562.004 4.07365 0.848113 0
M  V30 5788 H 560.88 5.26563 1.54992 0
M  V30 5789 H 561.141 3.7333 2.36805 0
M  V30 5790 N 560.2 0.0768682 1.57412 0
M  V30 5791 C 561.11 -0.903207 2.16516 0
M  V30 5792 C 562.126 -1.32341 1.12968 0
M  V30 5793 O 563.302 -1.39507 1.45258 0
M  V30 5794 C 560.367 -2.1508 2.71922 0
M  V30 5795 C 559.428 -1.78653 3.90361 0
M  V30 5796 C 558.661 -2.97465 4.43114 0
M  V30 5797 O 558.884 -4.11638 3.94854 0
M  V30 5798 O 557.818 -2.76987 5.3438 0
M  V30 5799 H 561.644 -0.430427 3.00634 0
M  V30 5800 H 559.229 -0.146485 1.4868 0
M  V30 5801 H 561.111 -2.8823 3.07411 0
M  V30 5802 H 559.786 -2.61446 1.9086 0
M  V30 5803 H 558.693 -1.0274 3.59716 0
M  V30 5804 H 560.026 -1.37066 4.7273 0
M  V30 5805 N 561.678 -1.56367 -0.196722 0
M  V30 5806 C 562.924 -1.81698 -0.914182 0
M  V30 5807 C 563.279 -0.65367 -1.80956 0
M  V30 5808 O 562.572 0.351224 -1.88353 0
M  V30 5809 C 562.766 -3.10663 -1.767 0
M  V30 5810 C 562.595 -4.39428 -0.955689 0
M  V30 5811 C 561.365 -5.01221 -0.64076 0
M  V30 5812 C 563.563 -5.1337 -0.309165 0
M  V30 5813 N 561.545 -6.13608 0.189358 0
M  V30 5814 C 562.916 -6.18815 0.383225 0
M  V30 5815 C 564.971 -4.97393 -0.224726 0
M  V30 5816 C 563.674 -7.10015 1.15201 0
M  V30 5817 C 565.7 -5.89014 0.530658 0
M  V30 5818 C 565.062 -6.93903 1.2115 0
M  V30 5819 H 561.161 -0.716203 -0.31397 0
M  V30 5820 H 563.745 -1.93838 -0.18304 0
M  V30 5821 H 561.916 -2.99762 -2.46976 0
M  V30 5822 H 563.648 -3.24088 -2.42382 0
M  V30 5823 H 560.403 -4.63669 -0.96479 0
M  V30 5824 H 560.827 -6.74389 0.593979 0
M  V30 5825 H 565.469 -4.16331 -0.736754 0
M  V30 5826 H 563.187 -7.9054 1.67547 0
M  V30 5827 H 566.773 -5.78726 0.597326 0
M  V30 5828 H 565.653 -7.63576 1.78665 0
M  V30 5829 N 563.156 0.464375 -1.50603 0
M  V30 5830 C 564.066 1.58723 -1.72754 0
M  V30 5831 C 565.082 1.62925 -0.610844 0
M  V30 5832 O 566.258 1.8067 -0.889963 0
M  V30 5833 C 563.323 2.94897 -1.82309 0
M  V30 5834 C 562.384 3.0103 -3.06071 0
M  V30 5835 C 561.617 4.30708 -3.1516 0
M  V30 5836 O 561.84 5.2159 -2.30868 0
M  V30 5837 O 560.774 4.42571 -4.0794 0
M  V30 5838 H 564.6 1.42954 -2.67951 0
M  V30 5839 H 562.185 0.644579 -1.3478 0
M  V30 5840 H 564.067 3.75764 -1.90735 0
M  V30 5841 H 562.742 3.10851 -0.902967 0
M  V30 5842 H 561.649 2.19217 -3.03142 0
M  V30 5843 H 562.982 2.90014 -3.97684 0
M  V30 5844 N 564.634 1.40294 0.718013 0
M  V30 5845 C 565.859 1.41941 1.5122 0
M  V30 5846 C 566.284 0.0202371 1.88089 0
M  V30 5847 O 565.642 -0.971078 1.53101 0
M  V30 5848 C 565.69 2.3141 2.76554 0
M  V30 5849 O 564.794 1.75567 3.73162 0
M  V30 5850 H 564.135 0.482644 0.456016 0
M  V30 5851 H 566.665 1.84494 0.884478 0
M  V30 5852 H 566.675 2.46513 3.25108 0
M  V30 5853 H 565.35 3.33085 2.49053 0
M  V30 5854 H 563.927 1.69798 3.31999 0
M  V30 5855 N 566.112 -0.949982 1.2575 0
M  V30 5856 C 567.06 -2.06869 1.06339 0
M  V30 5857 C 568.054 -1.69399 -0.00708901 0
M  V30 5858 O 569.26 -1.79383 0.148897 0
M  V30 5859 H 565.635 -0.677197 0.326969 0
M  V30 5860 H 567.606 -2.20396 2.01167 0
M  V30 5861 C 566.355 -3.40503 0.703769 0
M  V30 5862 H 565.678 -3.69807 1.51931 0
M  V30 5863 H 567.118 -4.19623 0.607677 0
M  V30 5864 C 565.577 -3.31685 -0.5905 0
M  V30 5865 O 566.107 -3.67085 -1.63131 0
M  V30 5866 N 564.313 -2.84797 -0.577859 0
M  V30 5867 H 563.86 -2.56186 0.26951 0
M  V30 5868 H 563.818 -2.79279 -1.44398 0
M  V30 5869 N 567.59 -1.07411 -1.15328 0
M  V30 5870 C 568.838 -0.796073 -1.85761 0
M  V30 5871 C 569.159 0.679864 -1.82764 0
M  V30 5872 O 568.429 1.49242 -1.269 0
M  V30 5873 H 567.009 -0.291495 -0.687779 0
M  V30 5874 H 569.671 -1.35799 -1.39802 0
M  V30 5875 H 568.767 -1.13114 -2.90881 0
M  V30 5876 N 569.068 1.32177 -0.85831 0
M  V30 5877 C 570 2.27688 -0.262835 0
M  V30 5878 C 571.013 1.52588 0.567513 0
M  V30 5879 O 572.202 1.74156 0.391407 0
M  V30 5880 C 569.302 3.32668 0.646937 0
M  V30 5881 C 568.475 4.37148 -0.148372 0
M  V30 5882 C 567.534 5.21686 0.687728 0
M  V30 5883 O 566.56 5.69074 0.119934 0
M  V30 5884 N 567.762 5.44892 2.00182 0
M  V30 5885 H 570.527 2.79426 -1.08356 0
M  V30 5886 H 568.088 1.45076 -0.718647 0
M  V30 5887 H 570.08 3.86134 1.2117 0
M  V30 5888 H 568.65 2.81061 1.36834 0
M  V30 5889 H 567.87 3.83915 -0.894572 0
M  V30 5890 H 569.158 5.04038 -0.694514 0
M  V30 5891 H 568.556 5.08128 2.4864 0
M  V30 5892 H 567.113 6.0134 2.51463 0
M  V30 5893 N 570.547 0.616602 1.45037 0
M  V30 5894 C 571.958 0.199359 1.85633 0
M  V30 5895 C 572.309 -1.24588 1.51566 0
M  V30 5896 O 571.434 -1.94594 0.94668 0
M  V30 5897 C 572.029 0.355033 3.36935 0
M  V30 5898 C 570.588 -0.00758748 3.76399 0
M  V30 5899 C 569.735 0.675256 2.68953 0
M  V30 5900 H 572.686 0.822708 1.3571 0
M  V30 5901 H 572.707 -0.410201 3.78282 0
M  V30 5902 H 572.219 1.40699 3.61698 0
M  V30 5903 H 570.32 -1.05837 3.57252 0
M  V30 5904 H 570.433 0.392346 4.77491 0
M  V30 5905 H 568.797 0.111992 2.54454 0
M  V30 5906 H 569.58 1.72952 2.96551 0
M  V30 5907 N 572.025 -1.5352 0.356285 0
M  V30 5908 C 572.935 -2.29151 -0.502712 0
M  V30 5909 C 573.951 -1.34753 -1.1008 0
M  V30 5910 O 575.127 -1.67803 -1.11374 0
M  V30 5911 C 572.192 -3.05911 -1.63154 0
M  V30 5912 C 571.253 -4.15958 -1.06194 0
M  V30 5913 C 570.486 -4.8905 -2.13696 0
M  V30 5914 O 570.709 -4.61919 -3.34645 0
M  V30 5915 O 569.643 -5.75202 -1.77275 0
M  V30 5916 H 573.469 -3.03492 0.112466 0
M  V30 5917 H 571.054 -1.4891 0.120942 0
M  V30 5918 H 572.936 -3.53874 -2.28804 0
M  V30 5919 H 571.611 -2.34415 -2.23229 0
M  V30 5920 H 570.518 -3.7227 -0.369603 0
M  V30 5921 H 571.851 -4.89593 -0.505872 0
M  V30 5922 N 573.503 -0.0852151 -1.57369 0
M  V30 5923 C 574.451 0.894856 -2.14698 0
M  V30 5924 C 575.445 1.29903 -1.08727 0
M  V30 5925 O 576.651 1.27471 -1.27088 0
M  V30 5926 H 573.026 0.306569 -0.686673 0
M  V30 5927 H 574.997 0.386542 -2.95886 0
M  V30 5928 C 573.746 2.14798 -2.73417 0
M  V30 5929 H 573.069 1.84585 -3.54638 0
M  V30 5930 H 574.509 2.81456 -3.1711 0
M  V30 5931 C 572.968 2.91546 -1.68828 0
M  V30 5932 O 573.498 3.85733 -1.12129 0
M  V30 5933 N 571.704 2.54901 -1.39549 0
M  V30 5934 H 571.251 1.7838 -1.85845 0
M  V30 5935 H 571.209 3.06553 -0.698054 0
M  V30 5936 N 574.981 1.5647 0.188427 0
M  V30 5937 C 575.929 1.95971 1.25293 0
M  V30 5938 C 576.923 0.846047 1.4676 0
M  V30 5939 O 578.129 1.03109 1.47542 0
M  V30 5940 H 574.504 0.623253 0.420784 0
M  V30 5941 H 576.475 2.84731 0.892792 0
M  V30 5942 C 575.224 2.32116 2.58877 0
M  V30 5943 H 574.547 3.17341 2.43176 0
M  V30 5944 H 575.987 2.63613 3.3209 0
M  V30 5945 C 574.446 1.15823 3.16365 0
M  V30 5946 O 574.976 0.436785 3.99318 0
M  V30 5947 N 573.182 0.933278 2.75206 0
M  V30 5948 H 572.729 1.52169 2.07852 0
M  V30 5949 H 572.687 0.156976 3.14008 0
M  V30 5950 N 576.459 -0.456382 1.50847 0
M  V30 5951 C 577.689 -1.22848 1.66108 0
M  V30 5952 C 578.097 -1.85936 0.349897 0
M  V30 5953 O 577.44 -1.70664 -0.679665 0
M  V30 5954 C 577.502 -2.36722 2.70561 0
M  V30 5955 C 577.166 -1.94154 4.13707 0
M  V30 5956 C 578.163 -1.4557 4.99105 0
M  V30 5957 C 575.848 -2.02426 4.59705 0
M  V30 5958 C 577.842 -1.0582 6.28555 0
M  V30 5959 C 575.529 -1.62287 5.89157 0
M  V30 5960 C 576.527 -1.14064 6.73408 0
M  V30 5961 O 576.215 -0.744873 8.00442 0
M  V30 5962 H 575.947 -0.377105 0.561042 0
M  V30 5963 H 578.501 -0.549431 1.97915 0
M  V30 5964 H 576.731 -3.07844 2.34027 0
M  V30 5965 H 578.42 -2.98646 2.74892 0
M  V30 5966 H 579.186 -1.38589 4.64777 0
M  V30 5967 H 575.065 -2.38908 3.94264 0
M  V30 5968 H 578.609 -0.6811 6.94267 0
M  V30 5969 H 574.506 -1.68932 6.23003 0
M  V30 5970 H 575.274 -0.87242 8.13837 0
M  V30 5971 N 577.937 -1.40673 -0.710563 0
M  V30 5972 C 578.884 -1.41336 -1.82463 0
M  V30 5973 C 579.854 -0.269648 -1.63897 0
M  V30 5974 O 581.039 -0.468463 -1.8496 0
M  V30 5975 C 578.179 -1.28665 -3.20218 0
M  V30 5976 C 577.292 -2.52784 -3.5032 0
M  V30 5977 C 576.427 -2.32517 -4.77608 0
M  V30 5978 C 575.466 -3.52187 -5.0063 0
M  V30 5979 N 574.603 -3.31084 -6.19135 0
M  V30 5980 H 579.443 -2.36558 -1.8123 0
M  V30 5981 H 576.98 -1.17483 -0.885226 0
M  V30 5982 H 578.938 -1.19324 -3.99772 0
M  V30 5983 H 577.568 -0.370602 -3.20666 0
M  V30 5984 H 576.62 -2.72634 -2.65283 0
M  V30 5985 H 577.932 -3.41845 -3.63241 0
M  V30 5986 H 577.086 -2.20558 -5.65189 0
M  V30 5987 H 575.825 -1.40889 -4.66906 0
M  V30 5988 H 574.83 -3.64617 -4.11502 0
M  V30 5989 H 576.055 -4.44749 -5.13201 0
M  V30 5990 H 574.001 -2.42143 -6.09674 0
M  V30 5991 H 573.918 -4.13713 -6.32754 0
M  V30 5992 H 575.186 -3.22868 -7.0949 0
M  V30 5993 N 579.415 0.9433 -1.26252 0
M  V30 5994 C 580.643 1.72367 -1.14443 0
M  V30 5995 C 581.058 1.86392 0.300572 0
M  V30 5996 O 580.415 1.36978 1.20596 0
M  V30 5997 C 580.466 3.13155 -1.806 0
M  V30 5998 O 580.187 2.99803 -3.19452 0
M  V30 5999 C 581.688 4.07417 -1.74717 0
M  V30 6000 H 578.908 0.539758 -0.398626 0
M  V30 6001 H 581.452 1.18268 -1.66832 0
M  V30 6002 H 579.607 3.64162 -1.32154 0
M  V30 6003 H 580.021 3.88697 -3.52158 0
M  V30 6004 H 581.495 5.03773 -2.25647 0
M  V30 6005 H 581.972 4.3337 -0.713244 0
M  V30 6006 H 582.578 3.6233 -2.22704 0
M  V30 6007 N 580.893 1.08022 1.14757 0
M  V30 6008 C 582.121 0.828847 1.89572 0
M  V30 6009 C 582.536 -0.618621 1.78377 0
M  V30 6010 O 581.893 -1.42482 1.1404 0
M  V30 6011 C 581.944 1.23677 3.39685 0
M  V30 6012 O 581.665 2.62746 3.50566 0
M  V30 6013 C 583.166 1.01569 4.31507 0
M  V30 6014 H 580.386 0.299196 0.600602 0
M  V30 6015 H 582.93 1.43846 1.45357 0
M  V30 6016 H 581.085 0.671347 3.81539 0
M  V30 6017 H 581.499 2.79573 4.43778 0
M  V30 6018 H 582.973 1.35055 5.35223 0
M  V30 6019 H 583.45 -0.0475433 4.39174 0
M  V30 6020 H 584.056 1.56636 3.95405 0
M  V30 6021 N 582.371 -1.3172 0.865308 0
M  V30 6022 C 583.782 -1.79104 0.527126 0
M  V30 6023 C 584.133 -1.7135 -0.955695 0
M  V30 6024 O 583.258 -1.27845 -1.74598 0
M  V30 6025 C 583.853 -3.25207 0.950061 0
M  V30 6026 C 582.412 -3.70504 0.663611 0
M  V30 6027 C 581.559 -2.52605 1.14395 0
M  V30 6028 H 584.51 -1.18868 1.05148 0
M  V30 6029 H 584.531 -3.79535 0.270805 0
M  V30 6030 H 584.043 -3.30818 2.02931 0
M  V30 6031 H 582.144 -3.70398 -0.404474 0
M  V30 6032 H 582.257 -4.62845 1.23737 0
M  V30 6033 H 580.621 -2.4838 0.563859 0
M  V30 6034 H 581.404 -2.60964 2.23053 0
M  V30 6035 N 583.85 -0.624285 -1.44708 0
M  V30 6036 C 585.26 -0.2092 -1.85524 0
M  V30 6037 C 585.611 1.23783 -1.52225 0
M  V30 6038 O 584.736 1.94089 -0.956986 0
M  V30 6039 C 585.332 -0.372897 -3.36742 0
M  V30 6040 C 583.891 -0.012374 -3.76398 0
M  V30 6041 C 583.038 -0.68951 -2.68591 0
M  V30 6042 H 585.989 -0.829894 -1.35272 0
M  V30 6043 H 586.01 0.390134 -3.78495 0
M  V30 6044 H 585.522 -1.42615 -3.60947 0
M  V30 6045 H 583.623 1.03941 -3.57809 0
M  V30 6046 H 583.736 -0.417663 -4.77276 0
M  V30 6047 H 582.1 -0.125484 -2.54391 0
M  V30 6048 H 582.883 -1.74522 -2.9563 0
M  V30 6049 N 585.328 1.53329 -0.364422 0
M  V30 6050 C 586.574 2.01537 0.225969 0
M  V30 6051 C 586.907 1.25128 1.48515 0
M  V30 6052 O 586.182 0.344653 1.91422 0
M  V30 6053 C 586.465 3.56339 0.519092 0
M  V30 6054 C 586.318 4.43441 -0.753639 0
M  V30 6055 C 587.637 4.19833 1.32015 0
M  V30 6056 H 584.756 0.732573 0.0806548 0
M  V30 6057 H 587.398 1.83597 -0.489084 0
M  V30 6058 H 585.548 3.71756 1.12825 0
M  V30 6059 H 587.22 4.39823 -1.39116 0
M  V30 6060 H 585.463 4.11457 -1.37424 0
M  V30 6061 H 586.134 5.49699 -0.503517 0
M  V30 6062 H 588.61 4.08242 0.804859 0
M  V30 6063 H 587.486 5.28177 1.49399 0
M  V30 6064 H 587.747 3.75821 2.32832 0
M  V30 6065 N 586.806 0.0935595 1.57322 0
M  V30 6066 C 587.736 -0.863062 2.16964 0
M  V30 6067 C 588.717 -1.29528 1.10256 0
M  V30 6068 O 589.902 -1.36245 1.38387 0
M  V30 6069 C 587.032 -2.12276 2.74875 0
M  V30 6070 C 585.986 -1.82921 3.86942 0
M  V30 6071 C 585.312 -3.15707 4.31548 0
M  V30 6072 C 586.612 -1.11737 5.10208 0
M  V30 6073 H 588.306 -0.366145 2.97153 0
M  V30 6074 H 585.852 -0.174673 1.42937 0
M  V30 6075 H 587.805 -2.79634 3.1525 0
M  V30 6076 H 586.529 -2.64248 1.91938 0
M  V30 6077 H 585.188 -1.17961 3.47103 0
M  V30 6078 H 584.836 -3.65563 3.45504 0
M  V30 6079 H 584.536 -2.96849 5.07104 0
M  V30 6080 H 586.06 -3.84226 4.74555 0
M  V30 6081 H 587.474 -1.69203 5.47762 0
M  V30 6082 H 585.871 -1.03064 5.91183 0
M  V30 6083 H 586.941 -0.0998818 4.84797 0
M  V30 6084 N 588.284 -1.56567 -0.180126 0
M  V30 6085 C 589.561 -1.7235 -0.924931 0
M  V30 6086 C 589.941 -0.652523 -2.00762 0
M  V30 6087 O 589.289 0.334115 -2.26044 0
M  V30 6088 C 589.499 -3.1523 -1.49771 0
M  V30 6089 C 590.847 -3.75921 -1.97405 0
M  V30 6090 O 591.871 -3.18452 -1.59583 0
M  V30 6091 O 590.73 -4.7681 -2.67048 0
M  V30 6092 H 587.824 -0.703502 -0.434758 0
M  V30 6093 H 590.37 -1.6886 -0.168647 0
M  V30 6094 H 589.142 -3.84656 -0.718027 0
M  V30 6095 H 588.765 -3.23009 -2.31842 0
M  V30 6096 N 589.762 0.448376 -1.51087 0
M  V30 6097 C 590.987 1.22605 -1.6728 0
M  V30 6098 C 591.412 1.84524 -0.365045 0
M  V30 6099 O 590.77 1.6832 0.673642 0
M  V30 6100 C 590.818 2.29393 -2.78229 0
M  V30 6101 O 589.922 3.34608 -2.41063 0
M  V30 6102 H 589.263 0.359705 -0.558129 0
M  V30 6103 H 591.793 0.530903 -1.97592 0
M  V30 6104 H 591.803 2.74352 -3.01986 0
M  V30 6105 H 590.478 1.83701 -3.73131 0
M  V30 6106 H 589.055 2.95202 -2.27838 0
M  V30 6107 N 591.24 1.41047 0.703093 0
M  V30 6108 C 592.517 1.30493 1.45708 0
M  V30 6109 C 592.897 -0.0709892 2.10981 0
M  V30 6110 O 592.245 -1.08471 2.01113 0
M  V30 6111 C 592.455 2.45287 2.48265 0
M  V30 6112 C 593.803 2.86104 3.13735 0
M  V30 6113 O 594.827 2.44971 2.58587 0
M  V30 6114 O 593.686 3.57206 4.13601 0
M  V30 6115 H 590.78 0.513144 0.648546 0
M  V30 6116 H 593.326 1.52995 0.734208 0
M  V30 6117 H 592.098 3.37135 1.98635 0
M  V30 6118 H 591.721 2.24622 3.28071 0
M  V30 6119 N 592.718 -0.936591 1.26751 0
M  V30 6120 C 593.966 -1.67998 1.12343 0
M  V30 6121 C 594.287 -1.92137 -0.332938 0
M  V30 6122 O 593.557 -1.52132 -1.23421 0
M  V30 6123 H 592.137 -0.622609 0.412756 0
M  V30 6124 H 594.799 -1.12509 1.59147 0
M  V30 6125 H 593.895 -2.65185 1.64571 0
M  V30 6126 N 594.196 -1.08629 -1.14182 0
M  V30 6127 C 595.421 -0.83902 -1.89671 0
M  V30 6128 C 595.846 0.603332 -1.78161 0
M  V30 6129 O 595.204 1.42301 -1.12339 0
M  V30 6130 C 595.252 -1.26854 -3.37551 0
M  V30 6131 O 594.356 -0.42188 -4.10236 0
M  V30 6132 H 593.697 -0.304545 -0.590041 0
M  V30 6133 H 596.227 -1.4483 -1.44518 0
M  V30 6134 H 596.237 -1.25038 -3.88368 0
M  V30 6135 H 594.912 -2.31901 -3.45246 0
M  V30 6136 H 593.489 -0.503654 -3.69483 0
M  V30 6137 N 595.674 1.31259 -0.872281 0
M  V30 6138 C 596.921 1.96622 -0.484365 0
M  V30 6139 C 597.249 1.68939 0.963841 0
M  V30 6140 O 596.504 0.97974 1.6941 0
M  V30 6141 C 596.803 3.50659 -0.690889 0
M  V30 6142 C 596.469 3.98366 -2.11224 0
M  V30 6143 C 595.131 4.11104 -2.50094 0
M  V30 6144 C 597.483 4.23425 -3.0391 0
M  V30 6145 C 594.811 4.46254 -3.80887 0
M  V30 6146 C 597.163 4.60039 -4.3422 0
M  V30 6147 C 595.827 4.70984 -4.73001 0
M  V30 6148 H 595.097 0.71949 -0.177242 0
M  V30 6149 H 597.744 1.56353 -1.10571 0
M  V30 6150 H 596.049 3.91798 0.0135782 0
M  V30 6151 H 597.746 3.99284 -0.370534 0
M  V30 6152 H 594.336 3.88949 -1.80047 0
M  V30 6153 H 598.52 4.13075 -2.75104 0
M  V30 6154 H 593.776 4.52926 -4.10692 0
M  V30 6155 H 597.95 4.78381 -5.06088 0
M  V30 6156 H 595.577 4.97977 -5.7439 0
M  V30 6157 N 597.152 0.631951 1.44375 0
M  V30 6158 C 598.399 0.136767 2.02038 0
M  V30 6159 C 598.727 -1.24168 1.49709 0
M  V30 6160 O 597.982 -1.83809 0.671763 0
M  V30 6161 C 598.281 0.0735861 3.57324 0
M  V30 6162 C 597.947 1.39092 4.28911 0
M  V30 6163 C 596.609 1.75171 4.48184 0
M  V30 6164 C 598.961 2.26042 4.69632 0
M  V30 6165 C 596.289 2.97907 5.05439 0
M  V30 6166 C 598.641 3.4805 5.28246 0
M  V30 6167 C 597.305 3.84351 5.45738 0
M  V30 6168 H 596.575 0.0500466 0.739308 0
M  V30 6169 H 599.222 0.818429 1.7313 0
M  V30 6170 H 597.527 -0.691449 3.8565 0
M  V30 6171 H 599.224 -0.326091 3.99672 0
M  V30 6172 H 595.814 1.10015 4.1424 0
M  V30 6173 H 599.998 1.99463 4.54454 0
M  V30 6174 H 595.254 3.26108 5.17169 0
M  V30 6175 H 599.428 4.15658 5.5875 0
M  V30 6176 H 597.055 4.79538 5.8987 0
M  V30 6177 N 598.631 -1.53133 0.372548 0
M  V30 6178 C 599.561 -2.28876 -0.462412 0
M  V30 6179 C 600.542 -1.31583 -1.07796 0
M  V30 6180 O 601.727 -1.60461 -1.09389 0
M  V30 6181 C 598.857 -3.08317 -1.59868 0
M  V30 6182 C 597.811 -4.13355 -1.11003 0
M  V30 6183 C 597.137 -4.8092 -2.33708 0
M  V30 6184 C 598.437 -5.21955 -0.18983 0
M  V30 6185 H 600.131 -2.9892 0.169511 0
M  V30 6186 H 597.677 -1.43761 0.0829658 0
M  V30 6187 H 599.63 -3.60055 -2.18949 0
M  V30 6188 H 598.354 -2.35976 -2.25794 0
M  V30 6189 H 597.013 -3.62573 -0.541869 0
M  V30 6190 H 596.661 -4.05144 -2.98106 0
M  V30 6191 H 596.361 -5.51904 -2.01682 0
M  V30 6192 H 597.885 -5.35455 -2.93462 0
M  V30 6193 H 599.299 -5.69153 -0.688319 0
M  V30 6194 H 597.696 -6.00087 0.0398887 0
M  V30 6195 H 598.766 -4.78811 0.766057 0
M  V30 6196 N 600.109 -0.101901 -1.5727 0
M  V30 6197 C 601.339 0.567568 -1.98651 0
M  V30 6198 C 601.747 1.61839 -0.980037 0
M  V30 6199 O 601.09 1.83661 0.0376564 0
M  V30 6200 C 601.152 1.26742 -3.36417 0
M  V30 6201 C 600.816 0.366561 -4.55528 0
M  V30 6202 C 601.813 -0.388022 -5.1845 0
M  V30 6203 C 599.498 0.282629 -5.01504 0
M  V30 6204 C 601.492 -1.21445 -6.25724 0
M  V30 6205 C 599.179 -0.547443 -6.08643 0
M  V30 6206 C 600.177 -1.29462 -6.70618 0
M  V30 6207 O 599.865 -2.11095 -7.7569 0
M  V30 6208 H 599.597 0.156282 -0.657687 0
M  V30 6209 H 602.151 -0.179912 -2.04611 0
M  V30 6210 H 600.381 2.06162 -3.27161 0
M  V30 6211 H 602.07 1.8321 -3.622 0
M  V30 6212 H 602.836 -0.332949 -4.83856 0
M  V30 6213 H 598.715 0.853868 -4.53023 0
M  V30 6214 H 602.259 -1.79814 -6.74027 0
M  V30 6215 H 598.156 -0.603971 -6.42668 0
M  V30 6216 H 598.924 -2.03851 -7.92709 0
M  V30 6217 N 601.587 1.56661 0.17182 0
M  V30 6218 C 602.812 1.86459 0.908165 0
M  V30 6219 C 603.237 0.688181 1.75059 0
M  V30 6220 O 602.595 -0.362753 1.77634 0
M  V30 6221 C 602.643 3.14669 1.76112 0
M  V30 6222 O 601.747 2.96858 2.86268 0
M  V30 6223 H 601.088 0.613318 0.254434 0
M  V30 6224 H 603.618 2.03892 0.170113 0
M  V30 6225 H 603.628 3.46061 2.16115 0
M  V30 6226 H 602.303 3.99905 1.14233 0
M  V30 6227 H 600.88 2.76819 2.49852 0
M  V30 6228 N 603.065 -0.440357 1.51323 0
M  V30 6229 C 604.012 -1.53429 1.72419 0
M  V30 6230 C 604.982 -1.56165 0.565826 0
M  V30 6231 O 606.167 -1.73222 0.799917 0
M  V30 6232 C 603.307 -2.91169 1.85242 0
M  V30 6233 C 602.42 -2.97985 3.12777 0
M  V30 6234 C 601.555 -4.26829 3.16212 0
M  V30 6235 C 600.594 -4.27501 4.38074 0
M  V30 6236 N 599.731 -5.47866 4.39076 0
M  V30 6237 H 604.571 -1.34743 2.65797 0
M  V30 6238 H 602.108 -0.654608 1.31732 0
M  V30 6239 H 604.066 -3.71087 1.90658 0
M  V30 6240 H 602.696 -3.0842 0.952744 0
M  V30 6241 H 601.748 -2.10749 3.16685 0
M  V30 6242 H 603.06 -2.94342 4.02696 0
M  V30 6243 H 602.214 -5.15118 3.20527 0
M  V30 6244 H 600.953 -4.33124 2.24176 0
M  V30 6245 H 599.958 -3.37606 4.33938 0
M  V30 6246 H 601.183 -4.22873 5.31371 0
M  V30 6247 H 599.129 -5.54887 3.49909 0
M  V30 6248 H 599.046 -5.46091 5.22801 0
M  V30 6249 H 600.314 -6.38195 4.4758 0
M  V30 6250 N 604.543 -1.41418 -0.695603 0
M  V30 6251 C 605.473 -1.46035 -1.82197 0
M  V30 6252 C 606.454 -0.319025 -1.67082 0
M  V30 6253 O 607.639 -0.530462 -1.86815 0
M  V30 6254 C 604.769 -1.34179 -3.20333 0
M  V30 6255 C 603.723 -2.46123 -3.50154 0
M  V30 6256 C 603.049 -2.19332 -4.87645 0
M  V30 6257 C 604.349 -3.88463 -3.49133 0
M  V30 6258 H 606.043 -2.40303 -1.78591 0
M  V30 6259 H 603.589 -1.15663 -0.857797 0
M  V30 6260 H 605.542 -1.36021 -3.98844 0
M  V30 6261 H 604.266 -0.363952 -3.24566 0
M  V30 6262 H 602.925 -2.43563 -2.73994 0
M  V30 6263 H 602.573 -1.19891 -4.88503 0
M  V30 6264 H 602.273 -2.94344 -5.08562 0
M  V30 6265 H 603.797 -2.22889 -5.68465 0
M  V30 6266 H 605.211 -3.92738 -4.17648 0
M  V30 6267 H 603.608 -4.63158 -3.81582 0
M  V30 6268 H 604.678 -4.16617 -2.48109 0
M  V30 6269 N 606.021 0.929856 -1.27246 0
M  V30 6270 C 607.249 1.71144 -1.16265 0
M  V30 6271 C 607.664 1.867 0.280786 0
M  V30 6272 O 607.021 1.38249 1.19136 0
M  V30 6273 C 607.072 3.11222 -1.83911 0
M  V30 6274 O 606.793 2.96398 -3.22614 0
M  V30 6275 C 608.294 4.05541 -1.79028 0
M  V30 6276 H 605.514 0.535499 -0.404328 0
M  V30 6277 H 608.058 1.16492 -1.68077 0
M  V30 6278 H 606.213 3.6274 -1.36009 0
M  V30 6279 H 606.627 3.8494 -3.56261 0
M  V30 6280 H 608.101 5.01351 -2.30978 0
M  V30 6281 H 608.578 4.32589 -0.759168 0
M  V30 6282 H 609.184 3.59947 -2.26535 0
M  V30 6283 N 607.499 1.09233 1.13605 0
M  V30 6284 C 608.745 0.828385 1.8511 0
M  V30 6285 C 609.078 -0.64437 1.83198 0
M  V30 6286 O 608.353 -1.47428 1.26867 0
M  V30 6287 C 608.636 1.36167 3.33363 0
M  V30 6288 C 608.489 2.90038 3.438 0
M  V30 6289 C 609.808 0.993819 4.28732 0
M  V30 6290 H 606.927 0.30239 0.672108 0
M  V30 6291 H 609.569 1.35339 1.33355 0
M  V30 6292 H 607.719 0.9151 3.77569 0
M  V30 6293 H 609.391 3.43128 3.08319 0
M  V30 6294 H 607.634 3.27271 2.84739 0
M  V30 6295 H 608.305 3.22428 4.48045 0
M  V30 6296 H 610.781 1.37893 3.92587 0
M  V30 6297 H 609.657 1.39403 5.30903 0
M  V30 6298 H 609.918 -0.0982206 4.41991 0
M  V30 6299 N 608.977 -1.30795 0.87923 0
M  V30 6300 C 610.254 -1.91145 0.415086 0
M  V30 6301 C 610.634 -1.7995 -1.10368 0
M  V30 6302 O 609.982 -1.21305 -1.93642 0
M  V30 6303 C 610.192 -3.37014 0.906778 0
M  V30 6304 C 611.54 -4.14101 0.938358 0
M  V30 6305 O 612.564 -3.45834 0.853053 0
M  V30 6306 O 611.423 -5.36054 1.06342 0
M  V30 6307 H 608.517 -0.81736 0.125905 0
M  V30 6308 H 611.063 -1.39401 0.967753 0
M  V30 6309 H 609.835 -3.3922 1.95053 0
M  V30 6310 H 609.458 -3.96204 0.332948 0
M  V30 6311 N 610.455 -0.639598 -1.44038 0
M  V30 6312 C 611.402 0.0602458 -2.30721 0
M  V30 6313 C 612.372 0.828352 -1.43971 0
M  V30 6314 O 613.557 0.807693 -1.72861 0
M  V30 6315 C 610.697 1.03008 -3.29368 0
M  V30 6316 C 609.81 0.259502 -4.3122 0
M  V30 6317 C 608.945 1.22191 -5.16955 0
M  V30 6318 C 607.984 0.440978 -6.10509 0
M  V30 6319 N 607.121 1.35428 -6.88915 0
M  V30 6320 H 611.961 -0.684867 -2.90023 0
M  V30 6321 H 609.498 -0.349509 -1.42888 0
M  V30 6322 H 611.456 1.60583 -3.85057 0
M  V30 6323 H 610.086 1.74222 -2.71747 0
M  V30 6324 H 609.138 -0.432317 -3.77935 0
M  V30 6325 H 610.45 -0.348347 -4.97582 0
M  V30 6326 H 609.604 1.86873 -5.77203 0
M  V30 6327 H 608.343 1.86367 -4.50687 0
M  V30 6328 H 607.348 -0.219279 -5.49363 0
M  V30 6329 H 608.573 -0.196192 -6.78817 0
M  V30 6330 H 606.519 1.9831 -6.25307 0
M  V30 6331 H 606.436 0.800657 -7.51748 0
M  V30 6332 H 607.704 1.98967 -7.53679 0
M  V30 6333 N 611.933 1.52934 -0.380664 0
M  V30 6334 C 613.158 2.06363 0.207157 0
M  V30 6335 C 613.583 1.25122 1.4045 0
M  V30 6336 O 612.941 0.274062 1.79217 0
M  V30 6337 C 612.989 3.56162 0.563996 0
M  V30 6338 O 612.093 3.77552 1.65917 0
M  V30 6339 H 611.434 0.663468 0.0265859 0
M  V30 6340 H 613.964 1.9719 -0.545635 0
M  V30 6341 H 613.974 3.99453 0.830752 0
M  V30 6342 H 612.649 4.14732 -0.311427 0
M  V30 6343 H 611.226 3.46154 1.3868 0
M  V30 6344 N 613.412 0.11024 1.57214 0
M  V30 6345 C 614.828 -0.24638 1.57687 0
M  V30 6346 C 615.028 -1.67344 1.12241 0
M  V30 6347 O 614.084 -2.39298 0.805783 0
M  V30 6348 C 615.397 -0.0210288 3.00693 0
M  V30 6349 C 616.945 -0.0876077 3.12877 0
M  V30 6350 C 617.42 0.10994 4.57868 0
M  V30 6351 N 618.911 0.0556135 4.63167 0
M  V30 6352 C 619.646 0.183495 5.73106 0
M  V30 6353 N 619.142 0.367058 6.91827 0
M  V30 6354 N 620.935 0.123689 5.61964 0
M  V30 6355 H 613.086 1.04246 1.85058 0
M  V30 6356 H 615.349 0.40979 0.854854 0
M  V30 6357 H 615.055 0.965203 3.38196 0
M  V30 6358 H 614.929 -0.756748 3.69531 0
M  V30 6359 H 617.316 -1.06436 2.75237 0
M  V30 6360 H 617.397 0.67985 2.466 0
M  V30 6361 H 617.041 1.08362 4.96206 0
M  V30 6362 H 616.971 -0.677397 5.22225 0
M  V30 6363 H 619.462 -0.0831062 3.77809 0
M  V30 6364 H 619.775 0.455739 7.71455 0
M  V30 6365 H 618.12 0.40292 6.93831 0
M  V30 6366 H 621.311 -0.0186928 4.68096 0
M  V30 6367 H 621.484 0.226797 6.47603 0
M  V30 6368 N 614.89 -1.56749 -0.16351 0
M  V30 6369 C 616.136 -1.83597 -0.875436 0
M  V30 6370 C 616.491 -0.691907 -1.79528 0
M  V30 6371 O 615.784 0.311193 -1.89056 0
M  V30 6372 C 615.978 -3.14342 -1.70071 0
M  V30 6373 C 615.807 -4.41356 -0.862265 0
M  V30 6374 C 614.577 -5.02467 -0.534299 0
M  V30 6375 C 616.775 -5.1391 -0.200203 0
M  V30 6376 N 614.757 -6.13068 0.31947 0
M  V30 6377 C 616.128 -6.17862 0.514398 0
M  V30 6378 C 618.183 -4.97757 -0.119171 0
M  V30 6379 C 616.886 -7.07412 1.30236 0
M  V30 6380 C 618.912 -5.87756 0.655477 0
M  V30 6381 C 618.274 -6.91178 1.35842 0
M  V30 6382 H 614.373 -0.722702 -0.298708 0
M  V30 6383 H 616.957 -1.94182 -0.141883 0
M  V30 6384 H 615.128 -3.04933 -2.40562 0
M  V30 6385 H 616.86 -3.29156 -2.35453 0
M  V30 6386 H 613.615 -4.65611 -0.866222 0
M  V30 6387 H 614.039 -6.72978 0.736893 0
M  V30 6388 H 618.681 -4.178 -0.648278 0
M  V30 6389 H 616.399 -7.86808 1.84278 0
M  V30 6390 H 619.985 -5.77328 0.719948 0
M  V30 6391 H 618.865 -7.59614 1.94822 0
M  V30 6392 N 616.368 0.432326 -1.51554 0
M  V30 6393 C 617.3 1.54357 -1.6943 0
M  V30 6394 C 618.313 1.52311 -0.574897 0
M  V30 6395 O 619.502 1.56997 -0.849369 0
M  V30 6396 C 616.602 2.93273 -1.69836 0
M  V30 6397 C 615.775 3.19768 -2.98442 0
M  V30 6398 C 614.834 4.38433 -2.90969 0
M  V30 6399 O 613.86 4.36842 -3.64908 0
M  V30 6400 N 615.062 5.42276 -2.07163 0
M  V30 6401 H 617.827 1.39426 -2.65293 0
M  V30 6402 H 615.388 0.621331 -1.49503 0
M  V30 6403 H 617.38 3.70687 -1.62399 0
M  V30 6404 H 615.95 3.01777 -0.815456 0
M  V30 6405 H 615.17 2.30607 -3.19709 0
M  V30 6406 H 616.458 3.343 -3.83563 0
M  V30 6407 H 615.856 5.46407 -1.46477 0
M  V30 6408 H 614.413 6.18524 -2.05601 0
M  V30 6409 N 617.846 1.41785 0.688094 0
M  V30 6410 C 618.778 1.40159 1.81351 0
M  V30 6411 C 619.791 0.30262 1.59963 0
M  V30 6412 O 620.98 0.564841 1.69327 0
M  V30 6413 C 618.08 1.16517 3.1824 0
M  V30 6414 C 617.253 2.38597 3.66593 0
M  V30 6415 C 616.312 2.10699 4.82174 0
M  V30 6416 O 615.338 2.83798 4.93404 0
M  V30 6417 N 616.54 1.10187 5.69947 0
M  V30 6418 H 619.305 2.3716 1.83236 0
M  V30 6419 H 616.866 1.36494 0.870697 0
M  V30 6420 H 618.858 0.957941 3.93199 0
M  V30 6421 H 617.428 0.280873 3.11336 0
M  V30 6422 H 616.648 2.74974 2.82459 0
M  V30 6423 H 617.936 3.19919 3.95638 0
M  V30 6424 H 617.334 0.497016 5.63512 0
M  V30 6425 H 615.891 0.954518 6.44773 0
M  V30 6426 N 619.324 -0.923095 1.27737 0
M  V30 6427 C 620.572 -1.66797 1.14119 0
M  V30 6428 C 620.893 -1.92479 -0.312541 0
M  V30 6429 O 620.163 -1.53432 -1.218 0
M  V30 6430 H 618.743 -0.618196 0.419336 0
M  V30 6431 H 621.405 -1.10815 1.60331 0
M  V30 6432 H 620.501 -2.63424 1.67374 0
M  V30 6433 N 620.802 -1.09834 -1.13024 0
M  V30 6434 C 621.75 -0.736283 -2.20639 0
M  V30 6435 C 622.744 0.264725 -1.67319 0
M  V30 6436 O 623.95 0.125745 -1.7956 0
M  V30 6437 H 620.325 -0.220136 -0.719058 0
M  V30 6438 H 622.296 -1.65295 -2.48436 0
M  V30 6439 C 621.045 -0.177544 -3.47246 0
M  V30 6440 H 620.368 -0.939009 -3.88616 0
M  V30 6441 H 621.808 0.0378007 -4.23983 0
M  V30 6442 C 620.267 1.08824 -3.1884 0
M  V30 6443 O 620.797 2.1708 -3.37993 0
M  V30 6444 N 619.003 1.00442 -2.7269 0
M  V30 6445 H 618.55 0.123383 -2.57304 0
M  V30 6446 H 618.508 1.85206 -2.5406 0
M  V30 6447 N 622.28 1.30327 -0.886154 0
M  V30 6448 C 623.526 1.96388 -0.505941 0
M  V30 6449 C 623.859 1.69784 0.942712 0
M  V30 6450 O 623.134 1.00322 1.6663 0
M  V30 6451 C 623.417 3.51488 -0.782826 0
M  V30 6452 C 623.27 3.87603 -2.28219 0
M  V30 6453 C 624.589 4.39331 -0.260128 0
M  V30 6454 H 621.708 0.713327 -0.185292 0
M  V30 6455 H 624.35 1.54178 -1.11036 0
M  V30 6456 H 622.5 3.87572 -0.268399 0
M  V30 6457 H 624.172 3.61537 -2.86512 0
M  V30 6458 H 622.415 3.3563 -2.74837 0
M  V30 6459 H 623.086 4.95806 -2.42653 0
M  V30 6460 H 625.562 4.10162 -0.700444 0
M  V30 6461 H 624.438 5.46769 -0.483179 0
M  V30 6462 H 624.699 4.34072 0.838674 0
M  V30 6463 N 623.758 0.647228 1.43697 0
M  V30 6464 C 625.005 0.158188 2.01881 0
M  V30 6465 C 625.333 -1.22573 1.51017 0
M  V30 6466 O 624.588 -1.83086 0.69122 0
M  V30 6467 C 624.887 0.111481 3.57226 0
M  V30 6468 C 624.553 1.43633 4.27411 0
M  V30 6469 C 623.215 1.79915 4.463 0
M  V30 6470 C 625.567 2.31011 4.67208 0
M  V30 6471 C 622.895 3.03251 5.02251 0
M  V30 6472 C 625.247 3.53633 5.24525 0
M  V30 6473 C 623.911 3.90118 5.41631 0
M  V30 6474 H 623.181 0.0578851 0.738736 0
M  V30 6475 H 625.828 0.836746 1.72252 0
M  V30 6476 H 624.133 -0.650507 3.86362 0
M  V30 6477 H 625.83 -0.283682 3.99995 0
M  V30 6478 H 622.42 1.14403 4.1305 0
M  V30 6479 H 626.604 2.04272 4.52313 0
M  V30 6480 H 621.86 3.31575 5.13681 0
M  V30 6481 H 626.034 4.21561 5.5431 0
M  V30 6482 H 623.661 4.85768 5.84751 0
M  V30 6483 N 625.236 -1.5273 0.388769 0
M  V30 6484 C 626.461 -2.0647 -0.19621 0
M  V30 6485 C 626.886 -1.25865 -1.39784 0
M  V30 6486 O 626.244 -0.283562 -1.79069 0
M  V30 6487 C 626.292 -3.56456 -0.5451 0
M  V30 6488 O 625.396 -3.78426 -1.63912 0
M  V30 6489 H 624.737 -0.663599 -0.023067 0
M  V30 6490 H 627.267 -1.96898 0.556084 0
M  V30 6491 H 627.277 -3.99888 -0.809557 0
M  V30 6492 H 625.952 -4.14561 0.333417 0
M  V30 6493 H 624.529 -3.46884 -1.36842 0
M  V30 6494 N 626.714 -0.118576 -1.57153 0
M  V30 6495 C 627.954 0.542618 -1.97066 0
M  V30 6496 C 628.318 1.63874 -1.00046 0
M  V30 6497 O 629.519 2.3588 -1.28895 0
M  V30 6498 C 627.79 1.06196 -3.41258 0
M  V30 6499 S 629.349 1.73174 -4.03183 0
M  V30 6500 H 626.167 0.17638 -0.688775 0
M  V30 6501 H 628.769 -0.203556 -1.94437 0
M  V30 6502 H 627.473 0.253016 -4.09619 0
M  V30 6503 H 627.004 1.84342 -3.47536 0
M  V30 6504 H 629.019 3.01749 -3.93906 0
M  V30 6505 N 628.193 1.56834 0.155195 0
M  V30 6506 C 629.418 1.87412 0.888337 0
M  V30 6507 C 629.843 0.70671 1.74319 0
M  V30 6508 O 629.201 -0.343892 1.78009 0
M  V30 6509 C 629.249 3.1652 1.72765 0
M  V30 6510 O 628.353 2.99877 2.83103 0
M  V30 6511 H 627.694 0.615983 0.247914 0
M  V30 6512 H 630.224 2.04061 0.148478 0
M  V30 6513 H 630.234 3.48334 2.12433 0
M  V30 6514 H 628.909 4.01094 1.09985 0
M  V30 6515 H 627.486 2.79453 2.46902 0
M  V30 6516 N 629.671 -0.424282 1.51781 0
M  V30 6517 C 630.917 -1.17434 1.6534 0
M  V30 6518 C 631.25 -1.90549 0.374806 0
M  V30 6519 O 630.525 -1.84145 -0.626179 0
M  V30 6520 C 630.808 -2.18093 2.86544 0
M  V30 6521 C 630.661 -1.48975 4.24413 0
M  V30 6522 C 631.98 -3.18934 3.03264 0
M  V30 6523 H 629.099 -0.425566 0.601716 0
M  V30 6524 H 631.741 -0.461921 1.84299 0
M  V30 6525 H 629.891 -2.78849 2.7051 0
M  V30 6526 H 631.563 -0.914551 4.52143 0
M  V30 6527 H 629.806 -0.791893 4.26511 0
M  V30 6528 H 630.477 -2.22347 5.05238 0
M  V30 6529 H 632.953 -2.68243 3.18096 0
M  V30 6530 H 631.829 -3.86645 3.89611 0
M  V30 6531 H 632.09 -3.85793 2.15908 0
M  V30 6532 N 631.149 -1.42148 -0.680565 0
M  V30 6533 C 632.082 -1.39602 -1.80517 0
M  V30 6534 C 633.06 -0.261098 -1.6049 0
M  V30 6535 O 634.244 -0.450404 -1.8304 0
M  V30 6536 C 631.371 -1.18134 -3.1743 0
M  V30 6537 C 630.417 -2.34543 -3.56219 0
M  V30 6538 S 631.25 -3.97063 -3.59306 0
M  V30 6539 C 632.406 -3.77926 -4.98921 0
M  V30 6540 H 632.639 -2.3477 -1.82402 0
M  V30 6541 H 630.172 -1.28851 -0.850691 0
M  V30 6542 H 632.13 -1.06434 -3.96462 0
M  V30 6543 H 630.791 -0.245611 -3.13138 0
M  V30 6544 H 629.984 -2.15255 -4.55721 0
M  V30 6545 H 629.586 -2.42728 -2.84533 0
M  V30 6546 H 631.878 -3.3856 -5.86842 0
M  V30 6547 H 632.821 -4.77084 -5.23256 0
M  V30 6548 H 633.229 -3.10904 -4.71167 0
M  V30 6549 N 632.627 0.916307 -1.28225 0
M  V30 6550 C 633.577 2.00488 -1.08574 0
M  V30 6551 C 634.561 1.60897 -0.0101874 0
M  V30 6552 O 635.753 1.75499 -0.230034 0
M  V30 6553 C 632.882 3.35076 -0.746943 0
M  V30 6554 C 631.968 3.81077 -1.86121 0
M  V30 6555 N 632.359 3.99475 -3.10247 0
M  V30 6556 C 630.657 4.10212 -1.75048 0
M  V30 6557 C 631.358 4.37965 -3.82834 0
M  V30 6558 N 630.334 4.4608 -3.10667 0
M  V30 6559 H 634.136 2.1276 -2.02757 0
M  V30 6560 H 631.65 1.10397 -1.19107 0
M  V30 6561 H 633.647 4.12743 -0.587252 0
M  V30 6562 H 632.307 3.2416 0.187146 0
M  V30 6563 H 633.318 3.85466 -3.45885 0
M  V30 6564 H 629.995 4.07947 -0.887999 0
M  V30 6565 H 631.385 4.60183 -4.89572 0
M  V30 6566 N 634.105 1.10431 1.1244 0
M  V30 6567 C 635.015 0.765502 2.21759 0
M  V30 6568 C 636.031 -0.236966 1.72379 0
M  V30 6569 O 637.207 -0.0757329 2.01258 0
M  V30 6570 C 634.272 0.202316 3.46109 0
M  V30 6571 C 633.333 1.26205 4.1033 0
M  V30 6572 C 632.566 0.725648 5.28744 0
M  V30 6573 O 632.789 -0.447942 5.68638 0
M  V30 6574 O 631.723 1.48555 5.83279 0
M  V30 6575 H 635.549 1.67801 2.53133 0
M  V30 6576 H 633.134 0.879443 1.20773 0
M  V30 6577 H 635.016 -0.107918 4.21262 0
M  V30 6578 H 633.691 -0.683052 3.16411 0
M  V30 6579 H 632.598 1.62514 3.36957 0
M  V30 6580 H 633.931 2.12044 4.44183 0
M  V30 6581 N 635.583 -1.29855 0.893053 0
M  V30 6582 C 636.546 -2.26183 0.370687 0
M  V30 6583 C 637.546 -1.53108 -0.491385 0
M  V30 6584 O 638.736 -1.71643 -0.297386 0
M  V30 6585 C 635.868 -3.37633 -0.470827 0
M  V30 6586 H 637.061 -2.73903 1.22135 0
M  V30 6587 H 634.614 -1.41183 0.67061 0
M  V30 6588 H 635.349 -2.95241 -1.34175 0
M  V30 6589 H 635.134 -3.91825 0.146784 0
M  V30 6590 H 636.624 -4.09313 -0.827825 0
M  V30 6591 N 637.061 -0.65484 -1.43351 0
M  V30 6592 C 637.991 0.0221809 -2.33489 0
M  V30 6593 C 638.972 0.810272 -1.49561 0
M  V30 6594 O 640.157 0.771426 -1.78221 0
M  V30 6595 C 637.287 0.988117 -3.32947 0
M  V30 6596 C 636.241 0.310026 -4.26876 0
M  V30 6597 C 635.567 1.38752 -5.16384 0
M  V30 6598 C 636.867 -0.798589 -5.16159 0
M  V30 6599 H 638.561 -0.730571 -2.9035 0
M  V30 6600 H 636.107 -0.352773 -1.39612 0
M  V30 6601 H 638.06 1.47067 -3.94904 0
M  V30 6602 H 636.784 1.77205 -2.74346 0
M  V30 6603 H 635.443 -0.152097 -3.66284 0
M  V30 6604 H 635.091 2.16293 -4.54121 0
M  V30 6605 H 634.791 0.939051 -5.80048 0
M  V30 6606 H 636.315 1.87141 -5.81215 0
M  V30 6607 H 637.729 -0.398126 -5.71916 0
M  V30 6608 H 636.126 -1.17163 -5.88552 0
M  V30 6609 H 637.196 -1.65588 -4.55751 0
M  V30 6610 N 638.539 1.52521 -0.396863 0
M  V30 6611 C 639.489 2.2348 0.451722 0
M  V30 6612 C 640.473 1.2415 1.0235 0
M  V30 6613 O 641.665 1.4945 0.948348 0
M  V30 6614 C 638.794 3.05067 1.57445 0
M  V30 6615 C 637.88 4.11799 1.01404 0
M  V30 6616 N 638.271 5.05482 0.179234 0
M  V30 6617 C 636.569 4.27064 1.28578 0
M  V30 6618 C 637.27 5.81552 -0.131202 0
M  V30 6619 N 636.246 5.41523 0.474735 0
M  V30 6620 H 640.048 2.93269 -0.192534 0
M  V30 6621 H 637.562 1.61081 -0.206591 0
M  V30 6622 H 639.559 3.54446 2.19485 0
M  V30 6623 H 638.219 2.36816 2.22145 0
M  V30 6624 H 639.23 5.17573 -0.18411 0
M  V30 6625 H 635.907 3.70042 1.93327 0
M  V30 6626 H 637.297 6.67023 -0.808061 0
M  V30 6627 N 640.017 0.126909 1.57088 0
M  V30 6628 C 640.965 -0.837618 2.16995 0
M  V30 6629 C 641.959 -1.26974 1.12133 0
M  V30 6630 O 643.165 -1.24056 1.30423 0
M  V30 6631 H 639.54 -0.288256 0.694559 0
M  V30 6632 H 641.511 -0.307957 2.96807 0
M  V30 6633 C 640.26 -2.07474 2.79016 0
M  V30 6634 H 639.583 -1.75117 3.59408 0
M  V30 6635 H 641.023 -2.72949 3.24461 0
M  V30 6636 C 639.482 -2.86967 1.76498 0
M  V30 6637 O 640.012 -3.82625 1.22316 0
M  V30 6638 N 638.218 -2.51111 1.46258 0
M  V30 6639 H 637.765 -1.73389 1.90509 0
M  V30 6640 H 637.723 -3.04594 0.779085 0
M  V30 6641 N 641.495 -1.56914 -0.146875 0
M  V30 6642 C 642.445 -1.94693 -1.18653 0
M  V30 6643 C 643.429 -0.81821 -1.38543 0
M  V30 6644 O 644.621 -1.08167 -1.40103 0
M  V30 6645 C 641.75 -2.33117 -2.52014 0
M  V30 6646 C 640.836 -3.5256 -2.35717 0
M  V30 6647 N 641.227 -4.69091 -1.89175 0
M  V30 6648 C 639.525 -3.57647 -2.66467 0
M  V30 6649 C 640.226 -5.51187 -1.85924 0
M  V30 6650 N 639.202 -4.92899 -2.29242 0
M  V30 6651 H 643.004 -2.82264 -0.81879 0
M  V30 6652 H 640.518 -1.58474 -0.354929 0
M  V30 6653 H 642.515 -2.58387 -3.27172 0
M  V30 6654 H 641.175 -1.46898 -2.89571 0
M  V30 6655 H 642.186 -4.92844 -1.59139 0
M  V30 6656 H 638.863 -2.81967 -3.07898 0
M  V30 6657 H 640.253 -6.54613 -1.51431 0
M  V30 6658 N 642.974 0.416227 -1.52004 0
M  V30 6659 C 644.204 1.18401 -1.69307 0
M  V30 6660 C 644.612 1.84943 -0.399072 0
M  V30 6661 O 643.955 1.72406 0.634177 0
M  V30 6662 C 644.017 2.29465 -2.76742 0
M  V30 6663 C 643.681 1.83117 -4.18709 0
M  V30 6664 C 644.678 1.32286 -5.02789 0
M  V30 6665 C 642.363 1.90167 -4.64911 0
M  V30 6666 C 644.357 0.891178 -6.31139 0
M  V30 6667 C 642.044 1.4661 -5.93253 0
M  V30 6668 C 643.042 0.961696 -6.76196 0
M  V30 6669 O 642.73 0.532388 -8.02135 0
M  V30 6670 H 642.462 0.362098 -0.570843 0
M  V30 6671 H 645.016 0.496764 -1.99302 0
M  V30 6672 H 643.246 3.01531 -2.42107 0
M  V30 6673 H 644.935 2.91252 -2.82713 0
M  V30 6674 H 645.701 1.26218 -4.68288 0
M  V30 6675 H 641.58 2.28371 -4.00459 0
M  V30 6676 H 645.124 0.496788 -6.95829 0
M  V30 6677 H 641.021 1.52355 -6.27263 0
M  V30 6678 H 641.789 0.656339 -8.15864 0
M  V30 6679 N 644.452 1.42507 0.673017 0
M  V30 6680 C 645.68 1.46473 1.46128 0
M  V30 6681 C 646.095 0.0765912 1.88645 0
M  V30 6682 O 645.452 -0.909057 1.58248 0
M  V30 6683 C 645.503 2.39339 2.70923 0
M  V30 6684 O 645.224 3.72752 2.3019 0
M  V30 6685 C 646.725 2.52343 3.64469 0
M  V30 6686 H 643.945 0.49812 0.449575 0
M  V30 6687 H 646.489 1.87041 0.826802 0
M  V30 6688 H 644.644 2.02019 3.30556 0
M  V30 6689 H 645.058 4.22503 3.10791 0
M  V30 6690 H 646.532 3.2144 4.48754 0
M  V30 6691 H 647.009 1.56189 4.1049 0
M  V30 6692 H 647.615 2.90392 3.10729 0
M  V30 6693 N 645.93 -0.909495 1.28709 0
M  V30 6694 C 646.862 -2.01729 1.08804 0
M  V30 6695 C 647.875 -1.62755 0.0384739 0
M  V30 6696 O 649.064 -1.76259 0.281977 0
M  V30 6697 C 646.164 -3.32952 0.63217 0
M  V30 6698 C 645.337 -4.00512 1.75809 0
M  V30 6699 C 644.396 -5.10019 1.29488 0
M  V30 6700 O 643.422 -5.32986 1.99787 0
M  V30 6701 N 644.624 -5.80278 0.1604 0
M  V30 6702 H 647.389 -2.19362 2.04207 0
M  V30 6703 H 644.95 -1.08106 1.20518 0
M  V30 6704 H 646.942 -4.03543 0.305802 0
M  V30 6705 H 645.512 -3.11759 -0.229134 0
M  V30 6706 H 644.732 -3.23413 2.25383 0
M  V30 6707 H 646.02 -4.42395 2.51325 0
M  V30 6708 H 645.418 -5.64094 -0.425937 0
M  V30 6709 H 643.975 -6.51713 -0.106663 0
M  V30 6710 N 647.408 -1.11026 -1.11852 0
M  V30 6711 C 648.355 -0.764662 -2.17765 0
M  V30 6712 C 649.325 0.261854 -1.64023 0
M  V30 6713 O 650.51 0.139748 -1.90288 0
M  V30 6714 C 647.65 -0.209317 -3.44465 0
M  V30 6715 C 646.763 -1.29187 -4.12231 0
M  V30 6716 C 645.898 -0.697523 -5.266 0
M  V30 6717 C 644.937 -1.76023 -5.86244 0
M  V30 6718 N 644.074 -1.18569 -6.92016 0
M  V30 6719 H 648.914 -1.67202 -2.46673 0
M  V30 6720 H 646.451 -0.835065 -1.21099 0
M  V30 6721 H 648.409 0.130599 -4.16996 0
M  V30 6722 H 647.039 0.661251 -3.15955 0
M  V30 6723 H 646.091 -1.74881 -3.37818 0
M  V30 6724 H 647.403 -2.09607 -4.52622 0
M  V30 6725 H 646.557 -0.307412 -6.05921 0
M  V30 6726 H 645.296 0.138044 -4.87505 0
M  V30 6727 H 644.301 -2.1597 -5.05606 0
M  V30 6728 H 645.526 -2.59875 -6.27409 0
M  V30 6729 H 643.472 -0.371695 -6.54946 0
M  V30 6730 H 643.389 -1.92666 -7.31038 0
M  V30 6731 H 644.657 -0.82233 -7.7515 0
M  V30 6732 N 648.886 1.2938 -0.899927 0
M  V30 6733 C 650.111 2.00228 -0.540692 0
M  V30 6734 C 650.536 1.66909 0.867359 0
M  V30 6735 O 649.894 0.893824 1.57735 0
M  V30 6736 C 649.942 3.52921 -0.740232 0
M  V30 6737 O 649.046 4.11879 0.207154 0
M  V30 6738 H 648.387 0.629505 -0.211233 0
M  V30 6739 H 650.917 1.6487 -1.21158 0
M  V30 6740 H 650.927 4.0287 -0.644973 0
M  V30 6741 H 649.602 3.76508 -1.76677 0
M  V30 6742 H 648.179 3.72845 0.0643315 0
M  V30 6743 N 650.364 0.662433 1.43002 0
M  V30 6744 C 651.294 -0.00979809 2.33498 0
M  V30 6745 C 652.275 -0.802329 1.49989 0
M  V30 6746 O 653.46 -0.761964 1.78627 0
M  V30 6747 C 650.59 -0.970446 3.33466 0
M  V30 6748 C 649.544 -0.287383 4.27034 0
M  V30 6749 C 648.87 -1.36012 5.17112 0
M  V30 6750 C 650.17 0.82595 5.15728 0
M  V30 6751 H 651.864 0.745959 2.89958 0
M  V30 6752 H 649.41 0.360172 1.39423 0
M  V30 6753 H 651.363 -1.44971 3.95679 0
M  V30 6754 H 650.087 -1.75748 2.75282 0
M  V30 6755 H 648.746 0.17152 3.66199 0
M  V30 6756 H 648.394 -2.13882 4.55262 0
M  V30 6757 H 648.094 -0.908276 5.80538 0
M  V30 6758 H 649.618 -1.84056 5.82199 0
M  V30 6759 H 651.032 0.42845 5.71697 0
M  V30 6760 H 649.429 1.20282 5.87922 0
M  V30 6761 H 650.499 1.68003 4.54866 0
M  V30 6762 N 651.842 -1.52309 0.404946 0
M  V30 6763 C 653.067 -2.06666 -0.1743 0
M  V30 6764 C 653.492 -1.27341 -1.38441 0
M  V30 6765 O 652.85 -0.302539 -1.78758 0
M  V30 6766 C 652.898 -3.57014 -0.507262 0
M  V30 6767 O 652.002 -3.80144 -1.59889 0
M  V30 6768 H 651.343 -0.663807 -0.0160273 0
M  V30 6769 H 653.873 -1.96297 0.576937 0
M  V30 6770 H 653.883 -4.00724 -0.767098 0
M  V30 6771 H 652.558 -4.14184 0.377368 0
M  V30 6772 H 651.135 -3.48316 -1.33155 0
M  V30 6773 N 653.32 -0.135238 -1.57019 0
M  V30 6774 C 654.25 0.805235 -2.19176 0
M  V30 6775 C 655.231 1.2656 -1.13651 0
M  V30 6776 O 656.416 1.32528 -1.4195 0
M  V30 6777 C 653.546 2.04914 -2.80406 0
M  V30 6778 C 652.5 1.72598 -3.91655 0
M  V30 6779 C 651.826 3.04154 -4.39766 0
M  V30 6780 C 653.126 0.981709 -5.12991 0
M  V30 6781 H 654.82 0.287232 -2.98019 0
M  V30 6782 H 652.366 0.136714 -1.4335 0
M  V30 6783 H 654.319 2.71178 -3.22553 0
M  V30 6784 H 653.043 2.59067 -1.98877 0
M  V30 6785 H 651.702 1.08717 -3.50109 0
M  V30 6786 H 651.35 3.56274 -3.55075 0
M  V30 6787 H 651.05 2.83299 -5.14796 0
M  V30 6788 H 652.574 3.71509 -4.84576 0
M  V30 6789 H 653.988 1.5462 -5.52056 0
M  V30 6790 H 652.385 0.873533 -5.93708 0
M  V30 6791 H 653.455 -0.0286887 -4.84892 0
M  V30 6792 N 654.798 1.5699 0.138552 0
M  V30 6793 C 656.023 1.88344 0.86841 0
M  V30 6794 C 656.448 0.725159 1.7356 0
M  V30 6795 O 655.806 -0.324992 1.78363 0
M  V30 6796 C 655.854 3.18334 1.69398 0
M  V30 6797 O 654.958 3.02863 2.79907 0
M  V30 6798 H 654.299 0.618577 0.241367 0
M  V30 6799 H 656.829 2.04207 0.126826 0
M  V30 6800 H 656.839 3.50567 2.08726 0
M  V30 6801 H 655.514 4.02238 1.05725 0
M  V30 6802 H 654.091 2.82056 2.43924 0
M  V30 6803 N 656.276 -0.40816 1.52223 0
M  V30 6804 C 657.687 -0.986929 1.58482 0
M  V30 6805 C 658.038 -1.91521 0.425917 0
M  V30 6806 O 657.163 -2.11593 -0.453593 0
M  V30 6807 C 657.758 -1.7967 2.87235 0
M  V30 6808 C 656.317 -2.32549 2.9597 0
M  V30 6809 C 655.464 -1.12558 2.53428 0
M  V30 6810 H 658.415 -0.188362 1.57578 0
M  V30 6811 H 658.436 -2.65417 2.72642 0
M  V30 6812 H 657.948 -1.12082 3.71563 0
M  V30 6813 H 656.049 -3.03505 2.16137 0
M  V30 6814 H 656.162 -2.63348 4.00231 0
M  V30 6815 H 654.526 -1.47984 2.07299 0
M  V30 6816 H 655.309 -0.465351 3.40131 0
M  V30 6817 N 657.755 -1.42862 -0.66545 0
M  V30 6818 C 659.003 -1.43546 -1.42264 0
M  V30 6819 C 659.324 -0.0563116 -1.94919 0
M  V30 6820 O 658.594 0.906568 -1.73661 0
M  V30 6821 H 657.174 -0.528464 -0.527953 0
M  V30 6822 H 659.836 -1.78363 -0.785665 0
M  V30 6823 H 658.932 -2.14079 -2.27105 0
M  V30 6824 N 659.233 0.902656 -1.29189 0
M  V30 6825 C 660.18 2.00643 -1.14066 0
M  V30 6826 C 661.15 1.66064 -0.0347756 0
M  V30 6827 O 662.335 1.8973 -0.201752 0
M  V30 6828 C 659.475 3.35214 -0.820104 0
M  V30 6829 C 658.588 3.82594 -2.00614 0
M  V30 6830 C 657.723 5.05727 -1.62522 0
M  V30 6831 C 656.762 5.45469 -2.77724 0
M  V30 6832 N 655.899 6.59789 -2.40048 0
M  V30 6833 H 660.739 2.1291 -2.08502 0
M  V30 6834 H 658.276 1.04271 -1.03759 0
M  V30 6835 H 660.234 4.12643 -0.614949 0
M  V30 6836 H 658.864 3.22682 0.0873452 0
M  V30 6837 H 657.916 3.01226 -2.32308 0
M  V30 6838 H 659.228 4.07999 -2.86946 0
M  V30 6839 H 658.382 5.90732 -1.38277 0
M  V30 6840 H 657.121 4.82155 -0.733333 0
M  V30 6841 H 656.126 4.59 -3.02653 0
M  V30 6842 H 657.351 5.71024 -3.67572 0
M  V30 6843 H 655.297 6.37826 -1.53343 0
M  V30 6844 H 655.214 6.84975 -3.19914 0
M  V30 6845 H 656.482 7.4807 -2.19116 0
M  V30 6846 O 660.75 1.23723 1.03802 0
M  V30 6847 H 661.441 1.01035 1.65262 0
M  V30 END ATOM
M  V30 BEGIN BOND
M  V30 END BOND
M  V30 END CTAB
M  END
$$$$
