drugbank_target|P30519 Heme oxygenase 2 (DB00157; DB04912)
 OpenBabel12092119353D

  0  0  0     0  0            999 V3000
M  V30 BEGIN CTAB
M  V30 COUNTS 5006 5056 0 0 0
M  V30 BEGIN ATOM
M  V30 1 H -0.908 1.98254 -0.117106 0
M  V30 2 N 0 1.576 0 0
M  V30 3 C 0.933 2.03868 1.02534 0
M  V30 4 C 1.911 0.928543 1.3348 0
M  V30 5 O 3.095 1.19667 1.45644 0
M  V30 6 C 0.222 2.43627 2.35294 0
M  V30 7 C -0.732 3.65373 2.2001 0
M  V30 8 S 0.101 5.13292 1.52614 0
M  V30 9 C 1.257 5.56322 2.86805 0
M  V30 10 H 1.49 2.90518 0.631377 0
M  V30 11 H -0.977 1.52953 0.210867 0
M  V30 12 H 0.981 2.67203 3.11629 0
M  V30 13 H -0.358 1.57376 2.7183 0
M  V30 14 H -1.165 3.90944 3.18086 0
M  V30 15 H -1.563 3.418 1.51819 0
M  V30 16 H 0.729 5.58782 3.83104 0
M  V30 17 H 1.672 6.56266 2.65933 0
M  V30 18 H 2.08 4.83886 2.90714 0
M  V30 19 N 1.4781 -0.272755 1.55222 0
M  V30 20 C 2.7031 -1.02683 1.80197 0
M  V30 21 C 3.1281 -1.79142 0.573551 0
M  V30 22 O 2.4861 -1.74917 -0.476849 0
M  V30 23 C 2.5341 -1.9609 3.02624 0
M  V30 24 O 1.6381 -3.04863 2.77727 0
M  V30 25 H 0.9791 -0.293557 0.595584 0
M  V30 26 H 3.5091 -0.30159 2.02365 0
M  V30 27 H 3.5191 -2.38039 3.31363 0
M  V30 28 H 2.1941 -1.39851 3.91682 0
M  V30 29 H 0.7711 -2.67228 2.60084 0
M  V30 30 N 2.9562 -1.48159 -0.537278 0
M  V30 31 C 3.9192 -1.61665 -1.62472 0
M  V30 32 C 4.9192 -0.490395 -1.5314 0
M  V30 33 O 6.1092 -0.755998 -1.5694 0
M  V30 34 C 3.2412 -1.57997 -3.02076 0
M  V30 35 H 4.4342 -2.58621 -1.51839 0
M  V30 36 H 1.9872 -1.36647 -0.758771 0
M  V30 37 H 2.7222 -0.624913 -3.18222 0
M  V30 38 H 2.5072 -2.39755 -3.10258 0
M  V30 39 H 3.9972 -1.70627 -3.81151 0
M  V30 40 N 4.4343 0.785586 -1.36625 0
M  V30 41 C 5.3443 1.92964 -1.33425 0
M  V30 42 C 6.3603 1.72394 -0.235851 0
M  V30 43 O 7.5363 1.95866 -0.468878 0
M  V30 44 C 4.6013 3.27884 -1.12662 0
M  V30 45 C 3.6623 3.61204 -2.32013 0
M  V30 46 C 2.8953 4.89687 -2.12231 0
M  V30 47 O 3.1183 5.59704 -1.09945 0
M  V30 48 O 2.0523 5.21752 -3.00098 0
M  V30 49 H 5.8783 1.98613 -2.29753 0
M  V30 50 H 3.4633 0.926384 -1.17211 0
M  V30 51 H 5.3453 4.08614 -1.03016 0
M  V30 52 H 4.0203 3.23118 -0.193991 0
M  V30 53 H 2.9273 2.80765 -2.47228 0
M  V30 54 H 4.2603 3.70698 -3.23796 0
M  V30 55 N 5.9124 1.20967 1.01018 0
M  V30 56 C 7.1584 1.02526 1.74975 0
M  V30 57 C 7.4914 -0.4408 1.89131 0
M  V30 58 O 6.7664 -1.32718 1.42184 0
M  V30 59 C 7.0494 1.71699 3.1653 0
M  V30 60 C 6.9024 3.25791 3.10129 0
M  V30 61 C 8.2214 1.45531 4.15342 0
M  V30 62 H 5.3404 0.373863 0.635134 0
M  V30 63 H 7.9824 1.49071 1.17805 0
M  V30 64 H 6.1324 1.32128 3.65341 0
M  V30 65 H 7.8044 3.74697 2.69072 0
M  V30 66 H 6.0474 3.56363 2.47362 0
M  V30 67 H 6.7184 3.69353 4.10222 0
M  V30 68 H 9.1944 1.79872 3.75213 0
M  V30 69 H 8.0704 1.96453 5.1254 0
M  V30 70 H 8.3314 0.384237 4.40427 0
M  V30 71 N 7.3905 -1.2043 1.01659 0
M  V30 72 C 8.3005 -2.2689 0.596484 0
M  V30 73 C 9.3165 -1.70107 -0.36599 0
M  V30 74 O 10.4925 -2.00117 -0.226942 0
M  V30 75 C 7.5575 -3.4665 -0.0586659 0
M  V30 76 C 6.6185 -4.18662 0.949751 0
M  V30 77 C 5.8515 -5.32705 0.32577 0
M  V30 78 O 6.0745 -5.63656 -0.874509 0
M  V30 79 O 5.0085 -5.92803 1.04249 0
M  V30 80 H 8.8345 -2.65041 1.4828 0
M  V30 81 H 6.4195 -1.27048 0.786082 0
M  V30 82 H 8.3015 -4.19256 -0.424564 0
M  V30 83 H 6.9765 -3.10375 -0.91918 0
M  V30 84 H 5.8835 -3.48229 1.36702 0
M  V30 85 H 7.2165 -4.58878 1.78023 0
M  V30 86 N 8.8686 -0.792821 -1.36206 0
M  V30 87 C 10.0966 -0.378825 -2.03402 0
M  V30 88 C 10.5116 1.00586 -1.59774 0
M  V30 89 O 9.8686 1.64574 -0.788764 0
M  V30 90 C 9.9196 -0.43683 -3.58851 0
M  V30 91 O 9.6406 -1.76691 -4.00889 0
M  V30 92 C 11.1416 -0.0138943 -4.43298 0
M  V30 93 H 8.3616 -0.155673 -0.652692 0
M  V30 94 H 10.9056 -1.07261 -1.74113 0
M  V30 95 H 9.0606 0.208575 -3.86838 0
M  V30 96 H 9.4746 -1.72011 -4.95492 0
M  V30 97 H 10.9486 -0.105615 -5.51899 0
M  V30 98 H 11.4256 1.03915 -4.2673 0
M  V30 99 H 12.0316 -0.63192 -4.20579 0
M  V30 100 N 10.3467 1.47872 -0.545128 0
M  V30 101 C 11.5717 2.07391 -0.0190611 0
M  V30 102 C 11.9967 1.39688 1.25971 0
M  V30 103 O 11.3547 0.467816 1.7516 0
M  V30 104 C 11.4027 3.60188 0.172335 0
M  V30 105 O 10.5067 3.9339 1.23766 0
M  V30 106 H 9.8477 0.662411 -0.0459059 0
M  V30 107 H 12.3777 1.90066 -0.757365 0
M  V30 108 H 12.3877 4.06129 0.390305 0
M  V30 109 H 11.0627 4.08865 -0.761725 0
M  V30 110 H 9.6397 3.5921 1.00114 0
M  V30 111 N 11.8248 0.280983 1.55075 0
M  V30 112 C 12.7348 -0.61388 2.26426 0
M  V30 113 C 13.7508 -1.16521 1.29224 0
M  V30 114 O 14.9268 -1.19426 1.62171 0
M  V30 115 C 11.9918 -1.7788 2.9759 0
M  V30 116 C 11.0528 -1.26355 4.10284 0
M  V30 117 C 10.2858 -2.37295 4.78045 0
M  V30 118 O 10.5088 -3.56777 4.45047 0
M  V30 119 O 9.4428 -2.05119 5.65871 0
M  V30 120 H 13.2688 -0.0356932 3.03679 0
M  V30 121 H 10.8538 0.0481686 1.49322 0
M  V30 122 H 12.7358 -2.45791 3.42293 0
M  V30 123 H 11.4108 -2.34397 2.23249 0
M  V30 124 H 10.3178 -0.550735 3.70024 0
M  V30 125 H 11.6508 -0.744065 4.86543 0
M  V30 126 N 13.3029 -1.57598 0.00835791 0
M  V30 127 C 14.5509 -1.90551 -0.6734 0
M  V30 128 C 14.8719 -0.883301 -1.73847 0
M  V30 129 O 14.1419 0.0781442 -1.95744 0
M  V30 130 H 12.7219 -0.703312 -0.251717 0
M  V30 131 H 15.3839 -1.94833 0.0512592 0
M  V30 132 H 14.4799 -2.9056 -1.13935 0
M  V30 133 N 14.781 0.264519 -1.55364 0
M  V30 134 C 16.027 0.99646 -1.76631 0
M  V30 135 C 16.36 1.85632 -0.570478 0
M  V30 136 O 15.635 1.89647 0.43175 0
M  V30 137 C 15.918 1.87187 -3.07625 0
M  V30 138 C 15.771 1.04138 -4.37579 0
M  V30 139 C 17.09 2.85749 -3.34717 0
M  V30 140 H 14.209 0.360841 -0.642622 0
M  V30 141 H 16.851 0.268218 -1.88097 0
M  V30 142 H 15.001 2.49279 -2.9798 0
M  V30 143 H 16.673 0.440517 -4.59192 0
M  V30 144 H 14.916 0.345115 -4.32425 0
M  V30 145 H 15.587 1.68729 -5.2558 0
M  V30 146 H 18.063 2.33793 -3.4421 0
M  V30 147 H 16.939 3.44136 -4.27623 0
M  V30 148 H 17.2 3.61311 -2.54768 0
M  V30 149 N 16.2591 1.48442 0.529413 0
M  V30 150 C 17.5361 1.46978 1.29062 0
M  V30 151 C 17.9161 0.181769 2.10316 0
M  V30 152 O 17.2641 -0.836481 2.12639 0
M  V30 153 C 17.4741 2.7321 2.17157 0
M  V30 154 C 18.8221 3.21562 2.77278 0
M  V30 155 O 19.8461 2.74131 2.27444 0
M  V30 156 O 18.7051 4.04094 3.67927 0
M  V30 157 H 15.7991 0.587003 0.582543 0
M  V30 158 H 18.3451 1.60676 0.546021 0
M  V30 159 H 17.1171 3.58465 1.56903 0
M  V30 160 H 16.7401 2.62235 2.98862 0
M  V30 161 N 17.7372 -0.778329 1.37039 0
M  V30 162 C 18.6472 -1.92253 1.34446 0
M  V30 163 C 19.6632 -1.72267 0.244991 0
M  V30 164 O 20.8392 -1.95615 0.479258 0
M  V30 165 C 17.9042 -3.27282 1.144 0
M  V30 166 C 16.9652 -3.59969 2.33925 0
M  V30 167 C 16.1982 -4.88555 2.14825 0
M  V30 168 O 16.4212 -5.59113 1.12912 0
M  V30 169 O 15.3552 -5.20153 3.02861 0
M  V30 170 H 19.1812 -1.97392 2.30803 0
M  V30 171 H 16.7662 -0.920154 1.17701 0
M  V30 172 H 18.6482 -4.08062 1.05182 0
M  V30 173 H 17.3232 -3.23011 0.211124 0
M  V30 174 H 16.2302 -2.7945 2.48714 0
M  V30 175 H 17.5632 -3.68976 3.25757 0
M  V30 176 N 19.2153 -1.21501 -1.00376 0
M  V30 177 C 20.4403 -1.05977 -1.78279 0
M  V30 178 C 20.8653 0.385994 -1.84097 0
M  V30 179 O 20.2233 1.27849 -1.28547 0
M  V30 180 C 20.2713 -1.66302 -3.19963 0
M  V30 181 O 19.3753 -0.909333 -4.0225 0
M  V30 182 H 18.7163 -0.372906 -0.549397 0
M  V30 183 H 21.2463 -1.6107 -1.26165 0
M  V30 184 H 21.2563 -1.70574 -3.70632 0
M  V30 185 H 19.9313 -2.71515 -3.15043 0
M  V30 186 H 18.5083 -0.941795 -3.60811 0
M  V30 187 N 20.6934 1.19889 -1.02296 0
M  V30 188 C 21.6034 2.26571 -0.608508 0
M  V30 189 C 22.6194 1.70299 0.356964 0
M  V30 190 O 23.7954 2.00235 0.216326 0
M  V30 191 C 20.8604 3.46677 0.0402814 0
M  V30 192 C 19.9214 4.18153 -0.97194 0
M  V30 193 C 19.1544 5.32525 -0.354016 0
M  V30 194 O 19.3774 5.64112 0.844604 0
M  V30 195 O 18.3114 5.92242 -1.07391 0
M  V30 196 H 22.1374 2.64251 -1.49684 0
M  V30 197 H 19.7224 1.26629 -0.792809 0
M  V30 198 H 21.6044 4.19475 0.402324 0
M  V30 199 H 20.2794 3.10858 0.902707 0
M  V30 200 H 19.1864 3.47499 -1.38546 0
M  V30 201 H 20.5194 4.57927 -1.80454 0
M  V30 202 N 22.1715 0.800033 1.35784 0
M  V30 203 C 23.1185 0.203848 2.29898 0
M  V30 204 C 24.0885 -0.658375 1.52495 0
M  V30 205 O 25.2735 -0.604832 1.8096 0
M  V30 206 C 22.4135 -0.64688 3.38983 0
M  V30 207 C 21.5265 0.235054 4.3136 0
M  V30 208 C 20.6615 -0.623054 5.27533 0
M  V30 209 C 19.7005 0.259682 6.11549 0
M  V30 210 N 18.8375 -0.558019 6.99879 0
M  V30 211 H 23.6775 1.01186 2.80295 0
M  V30 212 H 21.2145 0.51053 1.37957 0
M  V30 213 H 23.1725 -1.15521 4.00887 0
M  V30 214 H 21.8025 -1.42021 2.89879 0
M  V30 215 H 20.8545 0.861438 3.70518 0
M  V30 216 H 22.1665 0.914768 4.9034 0
M  V30 217 H 21.3205 -1.19678 5.94779 0
M  V30 218 H 20.0595 -1.33636 4.69034 0
M  V30 219 H 19.0645 0.845726 5.43256 0
M  V30 220 H 20.2895 0.970748 6.72126 0
M  V30 221 H 18.2355 -1.25542 6.43875 0
M  V30 222 H 18.1525 0.0637872 7.55973 0
M  V30 223 H 19.4205 -1.11523 7.71481 0
M  V30 224 N 23.6496 -1.47581 0.552962 0
M  V30 225 C 24.5966 -2.29957 -0.197108 0
M  V30 226 C 25.5666 -1.38799 -0.912359 0
M  V30 227 O 26.7516 -1.67761 -0.908888 0
M  V30 228 C 23.8916 -3.22672 -1.22379 0
M  V30 229 C 23.0046 -4.28919 -0.515038 0
M  V30 230 C 22.1396 -5.0879 -1.52664 0
M  V30 231 C 21.1786 -6.06815 -0.802631 0
M  V30 232 N 20.3156 -6.7966 -1.76086 0
M  V30 233 H 25.1556 -2.93578 0.511486 0
M  V30 234 H 22.6926 -1.4471 0.264067 0
M  V30 235 H 24.6506 -3.74845 -1.83159 0
M  V30 236 H 23.2806 -2.60925 -1.90047 0
M  V30 237 H 22.3326 -3.79835 0.207192 0
M  V30 238 H 23.6446 -4.98773 0.0523425 0
M  V30 239 H 22.7986 -5.65091 -2.20809 0
M  V30 240 H 21.5376 -4.38828 -2.12794 0
M  V30 241 H 20.5426 -5.49695 -0.107238 0
M  V30 242 H 21.7676 -6.78784 -0.207135 0
M  V30 243 H 19.7136 -6.12432 -2.35081 0
M  V30 244 H 19.6306 -7.45669 -1.24552 0
M  V30 245 H 20.8986 -7.40538 -2.43359 0
M  V30 246 N 25.1277 -0.289203 -1.54924 0
M  V30 247 C 26.0757 0.607966 -2.24514 0
M  V30 248 C 27.0697 1.14655 -1.24702 0
M  V30 249 O 28.2757 1.09856 -1.4259 0
M  V30 250 H 24.6507 0.21464 -0.720718 0
M  V30 251 H 26.6217 -0.00164182 -2.984 0
M  V30 252 C 25.3707 1.77406 -2.99036 0
M  V30 253 H 24.6937 1.36884 -3.75637 0
M  V30 254 H 26.1337 2.37814 -3.51028 0
M  V30 255 C 24.5927 2.67107 -2.05318 0
M  V30 256 O 25.1227 3.6787 -1.61353 0
M  V30 257 N 23.3287 2.34582 -1.71521 0
M  V30 258 H 22.8757 1.52688 -2.07471 0
M  V30 259 H 22.8337 2.94867 -1.0909 0
M  V30 260 N 26.6058 1.57591 -0.0167156 0
M  V30 261 C 27.8308 1.9598 0.67872 0
M  V30 262 C 28.2558 0.892546 1.65575 0
M  V30 263 O 27.6138 -0.147772 1.80697 0
M  V30 264 C 27.6618 3.33468 1.37227 0
M  V30 265 O 26.7658 3.28954 2.48722 0
M  V30 266 H 26.1068 0.639339 0.17928 0
M  V30 267 H 28.6368 2.04463 -0.0748802 0
M  V30 268 H 28.6468 3.69417 1.7319 0
M  V30 269 H 27.3218 4.10694 0.656007 0
M  V30 270 H 25.8988 3.04705 2.14963 0
M  V30 271 N 28.0839 -0.256276 1.55502 0
M  V30 272 C 29.3319 -0.983672 1.76545 0
M  V30 273 C 29.6529 -1.86206 0.578982 0
M  V30 274 O 28.9229 -1.91656 -0.405577 0
M  V30 275 H 27.5029 -0.366191 0.651086 0
M  V30 276 H 30.1649 -0.276479 1.92929 0
M  V30 277 H 29.2609 -1.61087 2.67315 0
M  V30 278 N 29.562 -1.4872 -0.521534 0
M  V30 279 C 30.525 -1.63379 -1.60748 0
M  V30 280 C 31.525 -0.50661 -1.52611 0
M  V30 281 O 32.715 -0.772601 -1.5613 0
M  V30 282 C 29.847 -1.61192 -3.00383 0
M  V30 283 H 31.04 -2.60217 -1.49087 0
M  V30 284 H 28.593 -1.37444 -0.744235 0
M  V30 285 H 29.328 -0.65863 -3.17541 0
M  V30 286 H 29.113 -2.43032 -3.07698 0
M  V30 287 H 30.603 -1.7466 -3.7932 0
M  V30 288 N 31.0401 0.771051 -1.3745 0
M  V30 289 C 31.9701 1.89827 -1.3597 0
M  V30 290 C 32.9511 1.68562 -0.228216 0
M  V30 291 O 34.1361 1.8941 -0.428675 0
M  V30 292 C 31.2661 3.2712 -1.16662 0
M  V30 293 C 30.2201 3.6295 -2.2683 0
M  V30 294 C 29.5461 4.98791 -1.92644 0
M  V30 295 C 30.8461 3.69627 -3.69017 0
M  V30 296 H 32.5401 1.91323 -2.30295 0
M  V30 297 H 30.0861 0.919082 -1.10855 0
M  V30 298 H 32.0391 4.05615 -1.14256 0
M  V30 299 H 30.7631 3.26059 -0.187926 0
M  V30 300 H 29.4221 2.86763 -2.28392 0
M  V30 301 H 29.0701 4.94271 -0.933021 0
M  V30 302 H 28.7701 5.23733 -2.66416 0
M  V30 303 H 30.2941 5.79685 -1.91826 0
M  V30 304 H 31.7081 4.38273 -3.69581 0
M  V30 305 H 30.1051 4.06067 -4.41848 0
M  V30 306 H 31.1751 2.70273 -4.02592 0
M  V30 307 N 32.5182 1.22032 0.997298 0
M  V30 308 C 33.4282 1.00271 2.12092 0
M  V30 309 C 34.4442 -0.047621 1.73935 0
M  V30 310 O 35.6202 0.144136 2.00884 0
M  V30 311 C 32.6852 0.578449 3.4184 0
M  V30 312 C 31.7462 1.70189 3.94125 0
M  V30 313 C 30.9792 1.29778 5.17681 0
M  V30 314 O 31.2022 0.174676 5.70132 0
M  V30 315 O 30.1362 2.11261 5.63607 0
M  V30 316 H 33.9622 1.94398 2.3333 0
M  V30 317 H 31.5472 1.00587 1.10465 0
M  V30 318 H 33.4292 0.351998 4.19927 0
M  V30 319 H 32.1042 -0.334019 3.21972 0
M  V30 320 H 31.0112 1.98282 3.1723 0
M  V30 321 H 32.3442 2.59206 4.18417 0
M  V30 322 N 33.9963 -1.19345 1.0293 0
M  V30 323 C 34.9433 -2.2258 0.610464 0
M  V30 324 C 35.9133 -1.6179 -0.375946 0
M  V30 325 O 37.0983 -1.88844 -0.272511 0
M  V30 326 C 34.2383 -3.45085 -0.0321473 0
M  V30 327 C 33.3513 -4.20258 1.00035 0
M  V30 328 C 32.4863 -5.3019 0.32746 0
M  V30 329 C 31.5253 -5.97121 1.34584 0
M  V30 330 N 30.6623 -6.98615 0.698726 0
M  V30 331 H 35.5023 -2.57764 1.49538 0
M  V30 332 H 33.0393 -1.26644 0.748311 0
M  V30 333 H 34.9973 -4.15061 -0.421966 0
M  V30 334 H 33.6273 -3.10555 -0.88064 0
M  V30 335 H 32.6793 -3.49223 1.50823 0
M  V30 336 H 33.9913 -4.66175 1.77433 0
M  V30 337 H 33.1453 -6.06587 -0.11718 0
M  V30 338 H 31.8843 -4.85345 -0.478713 0
M  V30 339 H 30.8893 -5.19474 1.80074 0
M  V30 340 H 32.1143 -6.4405 2.15352 0
M  V30 341 H 30.0603 -6.55942 -0.0873471 0
M  V30 342 H 29.9773 -7.42724 1.41058 0
M  V30 343 H 31.2453 -7.79004 0.278102 0
M  V30 344 N 35.4744 -0.807222 -1.35358 0
M  V30 345 C 36.3844 -0.219594 -2.3357 0
M  V30 346 C 37.4004 0.637734 -1.61892 0
M  V30 347 O 38.5764 0.549336 -1.93763 0
M  V30 348 C 35.6414 0.62158 -3.41083 0
M  V30 349 C 34.7024 -0.256315 -4.28534 0
M  V30 350 C 33.9354 0.544807 -5.30912 0
M  V30 351 O 34.1584 1.77944 -5.41934 0
M  V30 352 O 33.0924 -0.0646478 -6.01865 0
M  V30 353 H 36.9184 -1.03208 -2.85625 0
M  V30 354 H 34.5034 -0.569025 -1.38139 0
M  V30 355 H 36.3854 1.10067 -4.06772 0
M  V30 356 H 35.0604 1.41165 -2.91297 0
M  V30 357 H 33.9674 -0.782559 -3.65823 0
M  V30 358 H 35.3004 -1.01034 -4.81719 0
M  V30 359 N 36.9525 1.47285 -0.560781 0
M  V30 360 C 37.9005 2.31756 0.197942 0
M  V30 361 C 38.8945 1.43146 0.905854 0
M  V30 362 O 40.1005 1.59891 0.826733 0
M  V30 363 H 36.4755 0.747438 0.0827049 0
M  V30 364 H 38.4465 2.9359 -0.533629 0
M  V30 365 C 37.1955 3.25874 1.21249 0
M  V30 366 H 36.5185 3.94023 0.67719 0
M  V30 367 H 37.9585 3.87803 1.71419 0
M  V30 368 C 36.4175 2.49651 2.26221 0
M  V30 369 O 36.9475 2.24355 3.33208 0
M  V30 370 N 35.1535 2.10597 2.00243 0
M  V30 371 H 34.7005 2.31369 1.13252 0
M  V30 372 H 34.6585 1.59913 2.70694 0
M  V30 373 N 38.4306 0.297415 1.54768 0
M  V30 374 C 39.3626 -0.613881 2.20826 0
M  V30 375 C 40.3756 -1.10032 1.19987 0
M  V30 376 O 41.5646 -1.01839 1.46598 0
M  V30 377 C 38.6646 -1.852 2.83821 0
M  V30 378 C 37.8376 -1.50865 4.10559 0
M  V30 379 C 36.8966 -2.60154 4.57391 0
M  V30 380 O 35.9226 -2.25398 5.2267 0
M  V30 381 N 37.1246 -3.90629 4.29406 0
M  V30 382 H 39.8896 -0.048389 2.99661 0
M  V30 383 H 37.4506 0.11946 1.61459 0
M  V30 384 H 39.4426 -2.57652 3.12086 0
M  V30 385 H 38.0126 -2.32597 2.08847 0
M  V30 386 H 37.2326 -0.616925 3.89343 0
M  V30 387 H 38.5206 -1.25458 4.9309 0
M  V30 388 H 37.9186 -4.21677 3.77101 0
M  V30 389 H 36.4756 -4.59391 4.62388 0
M  V30 390 N 39.9087 -1.5758 0.0250728 0
M  V30 391 C 40.8417 -2.05473 -0.992777 0
M  V30 392 C 41.8197 -0.949661 -1.31986 0
M  V30 393 O 43.0037 -1.21969 -1.43722 0
M  V30 394 C 40.1307 -2.4734 -2.31389 0
M  V30 395 C 39.1767 -3.68827 -2.1417 0
M  V30 396 S 40.0097 -5.15655 -1.44429 0
M  V30 397 C 41.1657 -5.60814 -2.77918 0
M  V30 398 H 41.3987 -2.91486 -0.585078 0
M  V30 399 H 38.9317 -1.53269 -0.186507 0
M  V30 400 H 40.8897 -2.72127 -3.07339 0
M  V30 401 H 39.5507 -1.6168 -2.69292 0
M  V30 402 H 38.7437 -3.95955 -3.11826 0
M  V30 403 H 38.3457 -3.44172 -1.46362 0
M  V30 404 H 40.6377 -5.64806 -3.74166 0
M  V30 405 H 41.5807 -6.60414 -2.55459 0
M  V30 406 H 41.9887 -4.8845 -2.82979 0
M  V30 407 N 41.3868 0.248026 -1.55636 0
M  V30 408 C 42.8028 0.596483 -1.48035 0
M  V30 409 C 43.0028 1.88386 -0.715039 0
M  V30 410 O 42.0588 2.51319 -0.243944 0
M  V30 411 C 43.3718 0.700258 -2.92433 0
M  V30 412 C 44.9198 0.792659 -3.02797 0
M  V30 413 C 45.3948 0.928005 -4.485 0
M  V30 414 N 46.8858 0.992903 -4.52433 0
M  V30 415 C 47.6208 1.11687 -5.62418 0
M  V30 416 N 47.1168 1.20645 -6.82214 0
M  V30 417 N 48.9098 1.14994 -5.50212 0
M  V30 418 H 41.0608 -0.597109 -2.03834 0
M  V30 419 H 43.3238 -0.205925 -0.925364 0
M  V30 420 H 43.0298 -0.175658 -3.51261 0
M  V30 421 H 42.9038 1.57255 -3.42857 0
M  V30 422 H 45.2908 1.65903 -2.4405 0
M  V30 423 H 45.3718 -0.104762 -2.55585 0
M  V30 424 H 45.0158 0.0661971 -5.07857 0
M  V30 425 H 44.9458 1.84045 -4.93391 0
M  V30 426 H 47.4368 0.935064 -3.66149 0
M  V30 427 H 47.7498 1.30008 -7.61786 0
M  V30 428 H 46.0948 1.17605 -6.84977 0
M  V30 429 H 49.2858 1.07643 -4.55555 0
M  V30 430 H 49.4588 1.24311 -6.35965 0
M  V30 431 N 42.8649 1.48995 0.513639 0
M  V30 432 C 43.7979 1.59319 1.63379 0
M  V30 433 C 44.7759 0.442816 1.56454 0
M  V30 434 O 45.9599 0.656655 1.76693 0
M  V30 435 C 43.0869 1.5364 3.01848 0
M  V30 436 C 42.1329 2.7372 3.27078 0
M  V30 437 S 42.9659 4.35528 3.1157 0
M  V30 438 C 44.1219 4.32473 4.52458 0
M  V30 439 H 44.3549 2.54079 1.54374 0
M  V30 440 H 41.8879 1.3773 0.697849 0
M  V30 441 H 43.8459 1.51049 3.81699 0
M  V30 442 H 42.5069 0.601898 3.08279 0
M  V30 443 H 41.6999 2.6593 4.28132 0
M  V30 444 H 41.3019 2.73657 2.54927 0
M  V30 445 H 43.5939 4.03414 5.44301 0
M  V30 446 H 44.5369 5.33762 4.65299 0
M  V30 447 H 44.9449 3.62718 4.32546 0
M  V30 448 N 44.343 -0.763751 1.37857 0
M  V30 449 C 45.306 -1.85889 1.34081 0
M  V30 450 C 46.306 -1.58949 0.243277 0
M  V30 451 O 47.496 -1.66882 0.499589 0
M  V30 452 C 44.628 -3.23176 1.08489 0
M  V30 453 H 45.821 -1.90648 2.31502 0
M  V30 454 H 43.374 -0.964367 1.23003 0
M  V30 455 H 44.109 -3.24091 0.116318 0
M  V30 456 H 43.894 -3.44124 1.8794 0
M  V30 457 H 45.384 -4.03254 1.08517 0
M  V30 458 N 45.8211 -1.22559 -0.990812 0
M  V30 459 C 47.0981 -0.959875 -1.70428 0
M  V30 460 C 47.4781 0.524455 -2.04481 0
M  V30 461 O 46.8261 1.49302 -1.72977 0
M  V30 462 C 47.0361 -1.85955 -2.95333 0
M  V30 463 C 48.3841 -2.11687 -3.68068 0
M  V30 464 O 49.4081 -1.8342 -3.05345 0
M  V30 465 O 48.2671 -2.59572 -4.80921 0
M  V30 466 H 45.3611 -0.361154 -0.743974 0
M  V30 467 H 47.9071 -1.33554 -1.04697 0
M  V30 468 H 46.6791 -2.86346 -2.66687 0
M  V30 469 H 46.3021 -1.4856 -3.68803 0
M  V30 470 N 47.2992 1.18797 -1.03562 0
M  V30 471 C 48.2292 2.24472 -0.643019 0
M  V30 472 C 49.2102 1.66433 0.351283 0
M  V30 473 O 50.3952 1.92803 0.232505 0
M  V30 474 C 47.5252 3.473 4.24935e-05 0
M  V30 475 C 46.4792 4.18055 -0.917257 0
M  V30 476 C 45.8052 5.34519 -0.138941 0
M  V30 477 C 47.1052 4.72109 -2.23407 0
M  V30 478 H 48.7992 2.57566 -1.52643 0
M  V30 479 H 46.3452 1.23806 -0.735394 0
M  V30 480 H 48.2982 4.20426 0.286383 0
M  V30 481 H 47.0222 3.13424 0.918299 0
M  V30 482 H 45.6812 3.46821 -1.1879 0
M  V30 483 H 45.3292 4.96891 0.781562 0
M  V30 484 H 45.0292 5.82794 -0.750005 0
M  V30 485 H 46.5532 6.10438 0.1405 0
M  V30 486 H 47.9672 5.36955 -2.00879 0
M  V30 487 H 46.3642 5.30897 -2.79765 0
M  V30 488 H 47.4342 3.89807 -2.88407 0
M  V30 489 N 48.7773 0.814389 1.34928 0
M  V30 490 C 50.0023 0.410097 2.03305 0
M  V30 491 C 50.4273 -0.973464 1.60951 0
M  V30 492 O 49.7853 -1.63185 0.789964 0
M  V30 493 C 49.8333 0.51049 3.56968 0
M  V30 494 O 48.9373 -0.473035 4.09678 0
M  V30 495 H 48.2783 0.170088 0.641846 0
M  V30 496 H 50.8083 1.10244 1.72358 0
M  V30 497 H 50.8183 0.383135 4.06197 0
M  V30 498 H 49.4933 1.51963 3.87144 0
M  V30 499 H 48.0703 -0.305272 3.71648 0
M  V30 500 N 50.2554 -1.46986 0.568584 0
M  V30 501 C 51.1654 -2.33942 -0.17555 0
M  V30 502 C 52.1814 -1.48891 -0.90041 0
M  V30 503 O 53.3574 -1.81794 -0.86676 0
M  V30 504 C 50.4224 -3.25811 -1.18524 0
M  V30 505 C 49.4834 -4.26757 -0.466582 0
M  V30 506 C 48.7164 -5.14236 -1.42817 0
M  V30 507 O 48.9394 -5.04379 -2.66379 0
M  V30 508 O 47.8734 -5.94412 -0.946453 0
M  V30 509 H 51.6994 -2.98896 0.538036 0
M  V30 510 H 49.2844 -1.4573 0.329097 0
M  V30 511 H 51.1664 -3.82527 -1.76779 0
M  V30 512 H 49.8414 -2.63471 -1.88055 0
M  V30 513 H 48.7484 -3.73769 0.157451 0
M  V30 514 H 50.0814 -4.91843 0.187485 0
M  V30 515 N 51.7335 -0.305618 -1.54608 0
M  V30 516 C 52.6635 0.561482 -2.26649 0
M  V30 517 C 53.6445 1.13415 -1.26772 0
M  V30 518 O 54.8295 1.16262 -1.55553 0
M  V30 519 C 51.9595 1.73122 -3.01075 0
M  V30 520 C 50.9135 1.2887 -4.08138 0
M  V30 521 C 50.2395 2.54396 -4.70305 0
M  V30 522 C 51.5395 0.416578 -5.20636 0
M  V30 523 H 53.2335 -0.0393902 -2.99374 0
M  V30 524 H 50.7795 -0.020385 -1.43986 0
M  V30 525 H 52.7325 2.34396 -3.50195 0
M  V30 526 H 51.4565 2.3584 -2.25936 0
M  V30 527 H 50.1155 0.698991 -3.59875 0
M  V30 528 H 49.7635 3.15439 -3.918 0
M  V30 529 H 49.4635 2.25486 -5.42614 0
M  V30 530 H 50.9875 3.16464 -5.2219 0
M  V30 531 H 52.4015 0.935116 -5.65622 0
M  V30 532 H 50.7985 0.221046 -5.99693 0
M  V30 533 H 51.8685 -0.557162 -4.81688 0
M  V30 534 N 53.2116 1.57565 -0.0334293 0
M  V30 535 C 54.1416 2.13511 0.945265 0
M  V30 536 C 55.1226 1.05231 1.33643 0
M  V30 537 O 56.3076 1.33084 1.41429 0
M  V30 538 C 53.4376 2.6657 2.22616 0
M  V30 539 C 52.3916 3.79676 1.97561 0
M  V30 540 C 51.7176 4.1918 3.31952 0
M  V30 541 C 53.0176 5.0557 1.31135 0
M  V30 542 H 54.7116 2.95538 0.479325 0
M  V30 543 H 52.2576 1.42166 0.229115 0
M  V30 544 H 54.2106 3.04344 2.91466 0
M  V30 545 H 52.9346 1.8171 2.71384 0
M  V30 546 H 51.5936 3.42347 1.31127 0
M  V30 547 H 51.2416 3.31296 3.78487 0
M  V30 548 H 50.9416 4.95402 3.15992 0
M  V30 549 H 52.4656 4.59541 4.02063 0
M  V30 550 H 53.8796 5.40903 1.89992 0
M  V30 551 H 52.2766 5.86818 1.25559 0
M  V30 552 H 53.3466 4.84062 0.284894 0
M  V30 553 N 54.6897 -0.239769 1.55765 0
M  V30 554 C 55.6367 -1.29696 1.90913 0
M  V30 555 C 56.6067 -1.47478 0.764164 0
M  V30 556 O 57.7917 -1.61345 1.01845 0
M  V30 557 C 54.9317 -2.64598 2.21544 0
M  V30 558 C 54.0447 -2.54765 3.48882 0
M  V30 559 C 53.1797 -3.82069 3.69049 0
M  V30 560 C 52.2187 -3.66883 4.89963 0
M  V30 561 N 51.3557 -4.86094 5.06614 0
M  V30 562 H 56.1957 -0.990224 2.81067 0
M  V30 563 H 53.7327 -0.477684 1.39128 0
M  V30 564 H 55.6907 -3.43132 2.3731 0
M  V30 565 H 54.3207 -2.93405 1.34585 0
M  V30 566 H 53.3727 -1.67763 3.41409 0
M  V30 567 H 54.6847 -2.39457 4.37563 0
M  V30 568 H 53.8387 -4.69046 3.84812 0
M  V30 569 H 52.5777 -4.00282 2.78614 0
M  V30 570 H 51.5827 -2.78289 4.74168 0
M  V30 571 H 52.8077 -3.50157 5.81865 0
M  V30 572 H 50.7537 -5.04655 4.19117 0
M  V30 573 H 50.6707 -4.73443 5.89396 0
M  V30 574 H 51.9387 -5.74549 5.26795 0
M  V30 575 N 56.1678 -1.49265 -0.50573 0
M  V30 576 C 57.0778 -1.68312 -1.63427 0
M  V30 577 C 58.0938 -0.565682 -1.64548 0
M  V30 578 O 59.2698 -0.839801 -1.83055 0
M  V30 579 C 56.3348 -1.74107 -2.99813 0
M  V30 580 C 55.3958 -2.97653 -3.09356 0
M  V30 581 C 54.6288 -3.03163 -4.39236 0
M  V30 582 O 54.8518 -2.16396 -5.27758 0
M  V30 583 O 53.7858 -3.9558 -4.53652 0
M  V30 584 H 57.6118 -2.63907 -1.50289 0
M  V30 585 H 55.1968 -1.32951 -0.681502 0
M  V30 586 H 57.0788 -1.803 -3.80881 0
M  V30 587 H 55.7538 -0.816901 -3.13223 0
M  V30 588 H 54.6608 -2.96981 -2.27493 0
M  V30 589 H 55.9938 -3.89535 -3.00871 0
M  V30 590 N 57.6459 0.756429 -1.3826 0
M  V30 591 C 58.8939 1.51248 -1.34047 0
M  V30 592 C 59.2149 1.94875 0.0698372 0
M  V30 593 O 58.4849 1.67436 1.01696 0
M  V30 594 H 57.0649 0.561018 -0.493222 0
M  V30 595 H 59.7269 0.899347 -1.7291 0
M  V30 596 H 58.8229 2.40472 -1.98947 0
M  V30 597 N 59.124 1.23083 0.984299 0
M  V30 598 C 60.352 1.08714 1.76037 0
M  V30 599 C 60.767 -0.361691 1.85303 0
M  V30 600 O 60.124 -1.25034 1.32939 0
M  V30 601 C 60.175 1.70206 3.18923 0
M  V30 602 O 59.896 3.09423 3.10144 0
M  V30 603 C 61.397 1.61227 4.12941 0
M  V30 604 H 58.617 0.380664 0.552572 0
M  V30 605 H 61.161 1.62853 1.23689 0
M  V30 606 H 59.316 1.20109 3.6831 0
M  V30 607 H 59.73 3.39188 4.00065 0
M  V30 608 H 61.204 2.08962 5.10919 0
M  V30 609 H 61.681 0.570375 4.35481 0
M  V30 610 H 62.287 2.10671 3.69456 0
M  V30 611 N 60.6021 -1.18246 1.0419 0
M  V30 612 C 61.5491 -2.2192 0.634037 0
M  V30 613 C 62.5191 -1.62179 -0.358765 0
M  V30 614 O 63.7041 -1.89122 -0.252466 0
M  V30 615 C 60.8441 -3.451 0.00445535 0
M  V30 616 C 59.9571 -4.19174 1.04487 0
M  V30 617 C 59.0921 -5.29813 0.383676 0
M  V30 618 C 58.1311 -5.9566 1.4091 0
M  V30 619 N 57.2681 -6.97834 0.772784 0
M  V30 620 H 62.1081 -2.56164 1.52263 0
M  V30 621 H 59.6451 -1.25843 0.761701 0
M  V30 622 H 61.6031 -4.15485 -0.377919 0
M  V30 623 H 60.2331 -3.11472 -0.847652 0
M  V30 624 H 59.2851 -3.47604 1.54518 0
M  V30 625 H 60.5971 -4.64267 1.82368 0
M  V30 626 H 59.7511 -6.06677 -0.0528366 0
M  V30 627 H 58.4901 -4.85825 -0.427208 0
M  V30 628 H 57.4951 -5.17535 1.85574 0
M  V30 629 H 58.7201 -6.4173 2.22171 0
M  V30 630 H 56.6661 -6.55998 -0.0177708 0
M  V30 631 H 56.5831 -7.41186 1.48928 0
M  V30 632 H 57.8511 -7.78665 0.36071 0
M  V30 633 N 62.0802 -0.821533 -1.34494 0
M  V30 634 C 62.9902 -0.244355 -2.33324 0
M  V30 635 C 64.0062 0.620527 -1.62559 0
M  V30 636 O 65.1822 0.528754 -1.94335 0
M  V30 637 C 62.2472 0.585368 -3.41723 0
M  V30 638 C 61.3082 -0.301752 -4.28238 0
M  V30 639 C 60.5412 0.488466 -5.3146 0
M  V30 640 O 60.7642 1.72186 -5.4379 0
M  V30 641 O 59.6982 -0.12848 -6.01763 0
M  V30 642 H 63.5242 -1.06231 -2.84515 0
M  V30 643 H 61.1092 -0.583645 -1.37528 0
M  V30 644 H 62.9912 1.05747 -4.07916 0
M  V30 645 H 61.6662 1.38068 -2.92778 0
M  V30 646 H 60.5732 -0.821315 -3.64973 0
M  V30 647 H 61.9062 -1.06138 -4.8062 0
M  V30 648 N 63.5583 1.46682 -0.576371 0
M  V30 649 C 64.5213 2.28707 0.150239 0
M  V30 650 C 65.5213 1.38035 0.824794 0
M  V30 651 O 66.7113 1.60476 0.677719 0
M  V30 652 C 63.8433 3.18248 1.22192 0
M  V30 653 H 65.0363 2.94423 -0.570521 0
M  V30 654 H 62.5893 1.52688 -0.334078 0
M  V30 655 H 63.3243 2.57265 1.97447 0
M  V30 656 H 63.1093 3.85 0.742812 0
M  V30 657 H 64.5993 3.80001 1.73172 0
M  V30 658 N 65.0364 0.313813 1.54444 0
M  V30 659 C 65.9864 -0.571898 2.20711 0
M  V30 660 C 66.9704 -1.08913 1.18435 0
M  V30 661 O 68.1624 -1.02777 1.44104 0
M  V30 662 C 65.2914 -1.7371 2.96108 0
M  V30 663 C 64.3774 -1.23522 4.05713 0
M  V30 664 N 64.7684 -0.452288 5.03774 0
M  V30 665 C 63.0664 -1.51482 4.19487 0
M  V30 666 C 63.7674 -0.183438 5.81411 0
M  V30 667 N 62.7434 -0.766845 5.38164 0
M  V30 668 H 66.5454 0.0336802 2.93881 0
M  V30 669 H 64.0594 0.119192 1.61962 0
M  V30 670 H 66.0564 -2.38329 3.4206 0
M  V30 671 H 64.7164 -2.34625 2.24458 0
M  V30 672 H 65.7274 -0.0960131 5.17811 0
M  V30 673 H 62.4044 -2.13053 3.59047 0
M  V30 674 H 63.7944 0.446216 6.70417 0
M  V30 675 N 66.5145 -1.57545 0.0417849 0
M  V30 676 C 67.7915 -1.83642 -0.673433 0
M  V30 677 C 68.1715 -0.928298 -1.89594 0
M  V30 678 O 67.5195 0.0129955 -2.28496 0
M  V30 679 C 67.7295 -3.33155 -1.03964 0
M  V30 680 C 69.0775 -3.99941 -1.42592 0
M  V30 681 O 70.1015 -3.37725 -1.13226 0
M  V30 682 O 68.9605 -5.09619 -1.9736 0
M  V30 683 H 66.0545 -0.757638 -0.331533 0
M  V30 684 H 68.6005 -1.69554 0.070433 0
M  V30 685 H 67.3725 -3.9093 -0.170098 0
M  V30 686 H 66.9955 -3.52396 -1.84126 0
M  V30 687 N 67.9926 0.231505 -1.5589 0
M  V30 688 C 69.4086 0.580748 -1.48659 0
M  V30 689 C 69.6086 1.87617 -0.73498 0
M  V30 690 O 68.6646 2.51046 -0.270586 0
M  V30 691 C 69.9776 0.669202 -2.93159 0
M  V30 692 C 71.5256 0.760499 -3.03621 0
M  V30 693 C 72.0006 0.880383 -4.49459 0
M  V30 694 N 73.4916 0.944861 -4.53461 0
M  V30 695 C 74.2266 1.05716 -5.63571 0
M  V30 696 N 73.7226 1.13403 -6.83456 0
M  V30 697 N 75.5156 1.09152 -5.514 0
M  V30 698 H 67.6666 -0.618695 -2.03189 0
M  V30 699 H 69.9296 -0.215728 -0.923128 0
M  V30 700 H 69.6356 -0.212904 -3.51055 0
M  V30 701 H 69.5096 1.5361 -3.44505 0
M  V30 702 H 71.8966 1.63305 -2.45796 0
M  V30 703 H 71.9776 -0.131864 -2.5546 0
M  V30 704 H 71.6216 0.0123284 -5.07899 0
M  V30 705 H 71.5516 1.78802 -4.95316 0
M  V30 706 H 74.0426 0.896176 -3.6712 0
M  V30 707 H 74.3556 1.21921 -7.63122 0
M  V30 708 H 72.7006 1.10333 -6.86186 0
M  V30 709 H 75.8916 1.02805 -4.56671 0
M  V30 710 H 76.0646 1.17558 -6.37247 0
M  V30 711 N 69.4707 1.49531 0.497807 0
M  V30 712 C 70.4337 1.65916 1.58128 0
M  V30 713 C 71.4337 0.530825 1.51786 0
M  V30 714 O 72.6237 0.797342 1.54881 0
M  V30 715 C 69.7557 1.65951 2.9778 0
M  V30 716 H 70.9487 2.62556 1.44929 0
M  V30 717 H 68.5017 1.38611 0.722275 0
M  V30 718 H 69.2367 0.709065 3.16453 0
M  V30 719 H 69.0217 2.47897 3.03792 0
M  V30 720 H 70.5117 1.80673 3.76493 0
M  V30 721 N 70.9488 -0.749086 1.3866 0
M  V30 722 C 71.8588 -1.89358 1.38494 0
M  V30 723 C 72.8748 -1.71708 0.281476 0
M  V30 724 O 74.0508 -1.94554 0.520643 0
M  V30 725 C 71.1158 -3.24782 1.21316 0
M  V30 726 C 70.1768 -3.54926 2.41508 0
M  V30 727 C 69.4098 -4.83888 2.2514 0
M  V30 728 O 69.6328 -5.56592 1.24746 0
M  V30 729 O 68.5668 -5.13612 3.13826 0
M  V30 730 H 72.3928 -1.92452 2.34938 0
M  V30 731 H 69.9778 -0.894981 1.19626 0
M  V30 732 H 71.8598 -4.05739 1.13814 0
M  V30 733 H 70.5348 -3.2249 0.279592 0
M  V30 734 H 69.4418 -2.74112 2.54585 0
M  V30 735 H 70.7748 -3.61983 3.3351 0
M  V30 736 N 72.4269 -1.23603 -0.977757 0
M  V30 737 C 73.3749 -1.01704 -2.09187 0
M  V30 738 C 74.3689 0.0448214 -1.69341 0
M  V30 739 O 75.5749 -0.108902 -1.7967 0
M  V30 740 H 71.9499 -0.311803 -0.684312 0
M  V30 741 H 73.9209 -1.96207 -2.24823 0
M  V30 742 C 72.6699 -0.627746 -3.41986 0
M  V30 743 H 71.9929 -1.43656 -3.73099 0
M  V30 744 H 73.4329 -0.514053 -4.20872 0
M  V30 745 C 71.8919 0.664238 -3.30287 0
M  V30 746 O 72.4219 1.71268 -3.6336 0
M  V30 747 N 70.6279 0.641156 -2.83439 0
M  V30 748 H 70.1749 -0.212376 -2.56723 0
M  V30 749 H 70.1329 1.50583 -2.75993 0
M  V30 750 N 73.905 1.17692 -1.04816 0
M  V30 751 C 75.133 1.91786 -0.776254 0
M  V30 752 C 75.548 1.76604 0.667577 0
M  V30 753 O 74.905 1.10067 1.45573 0
M  V30 754 C 74.956 3.42967 -1.14263 0
M  V30 755 O 74.677 3.57678 -2.52978 0
M  V30 756 C 76.178 4.34144 -0.896311 0
M  V30 757 H 73.398 0.608624 -0.282519 0
M  V30 758 H 75.942 1.49268 -1.39783 0
M  V30 759 H 74.097 3.83245 -0.565874 0
M  V30 760 H 74.511 4.51319 -2.67229 0
M  V30 761 H 75.985 5.38744 -1.20244 0
M  V30 762 H 76.462 4.38876 0.168636 0
M  V30 763 H 77.068 3.99574 -1.45672 0
M  V30 764 N 75.3831 0.828654 1.34056 0
M  V30 765 C 76.3151 0.212052 2.28217 0
M  V30 766 C 77.3281 -0.601362 1.51286 0
M  V30 767 O 78.5171 -0.430104 1.73241 0
M  V30 768 C 75.6171 -0.72088 3.31144 0
M  V30 769 C 74.7901 0.0509587 4.3737 0
M  V30 770 C 73.8491 -0.803766 5.20025 0
M  V30 771 O 72.8751 -0.246667 5.68665 0
M  V30 772 N 74.0771 -2.1227 5.40298 0
M  V30 773 H 76.8421 1.02105 2.81771 0
M  V30 774 H 74.4031 0.686153 1.46641 0
M  V30 775 H 76.3951 -1.29742 3.8334 0
M  V30 776 H 74.9651 -1.43061 2.77943 0
M  V30 777 H 74.1851 0.808831 3.85813 0
M  V30 778 H 75.4731 0.582065 5.0546 0
M  V30 779 H 74.8711 -2.59898 5.02464 0
M  V30 780 H 73.4281 -2.64796 5.95589 0
M  V30 781 N 76.8612 -1.46375 0.584142 0
M  V30 782 C 78.1082 -2.02378 0.0702675 0
M  V30 783 C 78.4362 -1.45545 -1.29023 0
M  V30 784 O 77.6912 -0.610967 -1.85918 0
M  V30 785 C 77.9902 -3.57373 -0.0439342 0
M  V30 786 C 77.6562 -4.33252 1.24915 0
M  V30 787 C 76.3182 -4.53701 1.60341 0
M  V30 788 C 78.6702 -4.7681 2.1048 0
M  V30 789 C 75.9982 -5.1496 2.81128 0
M  V30 790 C 78.3502 -5.39404 3.30494 0
M  V30 791 C 77.0142 -5.5808 3.66201 0
M  V30 792 H 76.2842 -0.740554 0.0257127 0
M  V30 793 H 78.9312 -1.75727 0.761065 0
M  V30 794 H 77.2362 -3.83169 -0.817869 0
M  V30 795 H 78.9332 -3.98384 -0.457318 0
M  V30 796 H 75.5232 -4.17633 0.963364 0
M  V30 797 H 79.7072 -4.60766 1.84414 0
M  V30 798 H 74.9632 -5.27611 3.08928 0
M  V30 799 H 79.1372 -5.72114 3.97063 0
M  V30 800 H 76.7642 -6.05318 4.59885 0
M  V30 801 N 78.3393 -0.321999 -1.54275 0
M  V30 802 C 79.5853 0.281461 -2.00837 0
M  V30 803 C 79.9183 1.51909 -1.20985 0
M  V30 804 O 79.1933 1.923 -0.291733 0
M  V30 805 C 79.4763 0.617162 -3.54772 0
M  V30 806 C 79.3293 -0.631064 -4.45351 0
M  V30 807 C 80.6483 1.43542 -4.16033 0
M  V30 808 H 77.7673 0.100826 -0.730071 0
M  V30 809 H 80.4093 -0.438268 -1.84876 0
M  V30 810 H 78.5593 1.23034 -3.68504 0
M  V30 811 H 80.2313 -1.26934 -4.43492 0
M  V30 812 H 78.4743 -1.26025 -4.15091 0
M  V30 813 H 79.1453 -0.351735 -5.50878 0
M  V30 814 H 81.6213 0.917134 -4.05867 0
M  V30 815 H 80.4973 1.63907 -5.23856 0
M  V30 816 H 80.7583 2.43108 -3.69257 0
M  V30 817 N 79.8174 1.5752 -0.0501392 0
M  V30 818 C 80.7644 2.1147 0.924603 0
M  V30 819 C 81.7344 1.02182 1.30951 0
M  V30 820 O 82.9194 1.29723 1.39916 0
M  V30 821 C 80.0594 2.66337 2.19451 0
M  V30 822 C 79.1724 3.89708 1.86418 0
M  V30 823 C 78.3074 4.32893 3.07859 0
M  V30 824 C 77.3464 5.48967 2.70742 0
M  V30 825 N 76.4834 5.87211 3.84874 0
M  V30 826 H 81.3234 2.94465 0.457639 0
M  V30 827 H 78.8604 1.45531 0.214266 0
M  V30 828 H 80.8184 2.96247 2.93758 0
M  V30 829 H 79.4484 1.86141 2.63726 0
M  V30 830 H 78.5004 3.66396 1.02264 0
M  V30 831 H 79.8124 4.74074 1.55096 0
M  V30 832 H 78.9664 4.6435 3.90466 0
M  V30 833 H 77.7054 3.47336 3.42358 0
M  V30 834 H 76.7104 5.17183 1.86551 0
M  V30 835 H 77.9354 6.3624 2.37436 0
M  V30 836 H 75.8814 5.04607 4.19175 0
M  V30 837 H 75.7984 6.66266 3.57247 0
M  V30 838 H 77.0664 6.23282 4.68123 0
M  V30 839 N 81.2955 -0.223234 1.56011 0
M  V30 840 C 82.5725 -0.972108 1.69733 0
M  V30 841 C 82.9525 -2.02485 0.59691 0
M  V30 842 O 82.3005 -2.25037 -0.396324 0
M  V30 843 C 82.5105 -1.58407 3.10979 0
M  V30 844 C 83.8585 -2.07696 3.70334 0
M  V30 845 O 84.8825 -1.68304 3.1393 0
M  V30 846 O 83.7415 -2.80096 4.69264 0
M  V30 847 H 80.8355 -0.453993 0.691245 0
M  V30 848 H 83.3815 -0.215149 1.68331 0
M  V30 849 H 82.1535 -0.823831 3.82529 0
M  V30 850 H 81.7765 -2.40661 3.16493 0
M  V30 851 N 82.7736 -1.49793 -0.48987 0
M  V30 852 C 84.0206 -1.59841 -1.24327 0
M  V30 853 C 84.3486 -0.290135 -1.92324 0
M  V30 854 O 83.6036 0.722749 -1.81865 0
M  V30 855 C 83.9026 -2.71488 -2.32441 0
M  V30 856 C 83.5686 -4.12614 -1.81826 0
M  V30 857 C 82.2306 -4.51017 -1.67742 0
M  V30 858 C 84.5826 -5.00892 -1.4407 0
M  V30 859 C 81.9106 -5.75459 -1.14297 0
M  V30 860 C 84.2626 -6.25863 -0.920742 0
M  V30 861 C 82.9266 -6.63086 -0.766383 0
M  V30 862 H 82.1966 -0.584899 -0.454944 0
M  V30 863 H 84.8436 -1.83663 -0.542215 0
M  V30 864 H 83.1486 -2.4168 -3.0838 0
M  V30 865 H 84.8456 -2.76469 -2.90458 0
M  V30 866 H 81.4356 -3.82307 -1.93751 0
M  V30 867 H 85.6196 -4.7187 -1.53794 0
M  V30 868 H 80.8756 -6.02989 -1.01068 0
M  V30 869 H 85.0496 -6.9364 -0.619448 0
M  V30 870 H 82.6766 -7.59393 -0.350083 0
M  V30 871 N 84.2517 0.741722 -1.39055 0
M  V30 872 C 85.1817 1.869 -1.39966 0
M  V30 873 C 86.1627 1.6804 -0.26392 0
M  V30 874 O 87.3477 1.88458 -0.468755 0
M  V30 875 C 84.4777 3.24572 -1.23574 0
M  V30 876 C 83.4317 3.58056 -2.34477 0
M  V30 877 C 82.7577 4.94593 -2.0318 0
M  V30 878 C 84.0577 3.61716 -3.76774 0
M  V30 879 H 85.7517 1.86395 -2.34302 0
M  V30 880 H 83.2977 0.895361 -1.1278 0
M  V30 881 H 85.2507 4.031 -1.22834 0
M  V30 882 H 83.9747 3.25587 -0.257045 0
M  V30 883 H 82.6337 2.81854 -2.34423 0
M  V30 884 H 82.2817 4.92181 -1.03765 0
M  V30 885 H 81.9817 5.17964 -2.77465 0
M  V30 886 H 83.5057 5.75486 -2.04079 0
M  V30 887 H 84.9197 4.30335 -3.78794 0
M  V30 888 H 83.3167 3.96603 -4.50362 0
M  V30 889 H 84.3867 2.61672 -4.08235 0
M  V30 890 N 85.7298 1.2412 0.971189 0
M  V30 891 C 86.6768 1.0305 2.06517 0
M  V30 892 C 87.6468 -0.0550666 1.66009 0
M  V30 893 O 88.8318 0.0988688 1.90544 0
M  V30 894 C 85.9718 0.637653 3.39158 0
M  V30 895 C 85.0848 1.79633 3.92882 0
M  V30 896 C 84.2198 1.34939 5.13775 0
M  V30 897 C 83.2588 2.47823 5.59687 0
M  V30 898 N 82.3958 2.04022 6.71803 0
M  V30 899 H 87.2358 1.96685 2.23873 0
M  V30 900 H 84.7728 0.979694 1.09729 0
M  V30 901 H 86.7308 0.390931 4.15364 0
M  V30 902 H 85.3608 -0.261693 3.21737 0
M  V30 903 H 84.4128 2.15681 3.13346 0
M  V30 904 H 85.7248 2.64466 4.22918 0
M  V30 905 H 84.8788 1.06134 5.97345 0
M  V30 906 H 83.6178 0.471557 4.85415 0
M  V30 907 H 82.6228 2.77392 4.74693 0
M  V30 908 H 83.8478 3.36158 5.90063 0
M  V30 909 H 81.7938 1.18632 6.45184 0
M  V30 910 H 81.7108 2.82409 7.01271 0
M  V30 911 H 82.9788 1.78347 7.58823 0
M  V30 912 N 87.2079 -1.17134 1.05439 0
M  V30 913 C 88.4559 -1.87085 0.764429 0
M  V30 914 C 88.7769 -1.81584 -0.710787 0
M  V30 915 O 88.0469 -1.24349 -1.51374 0
M  V30 916 H 86.6269 -0.692627 0.279779 0
M  V30 917 H 89.2889 -1.42087 1.33406 0
M  V30 918 H 88.3849 -2.92759 1.0816 0
M  V30 919 N 88.686 -0.835752 -1.33615 0
M  V30 920 C 89.634 -0.255238 -2.31195 0
M  V30 921 C 90.628 0.61107 -1.57995 0
M  V30 922 O 91.834 0.500979 -1.72888 0
M  V30 923 H 88.209 -0.0638085 -0.749288 0
M  V30 924 H 90.18 -1.09283 -2.77669 0
M  V30 925 C 88.929 0.55754 -3.43201 0
M  V30 926 H 88.252 -0.0997553 -3.99676 0
M  V30 927 H 89.692 0.929622 -4.13683 0
M  V30 928 C 88.151 1.73515 -2.88781 0
M  V30 929 O 88.681 2.83376 -2.84712 0
M  V30 930 N 86.887 1.55603 -2.4543 0
M  V30 931 H 86.434 0.662354 -2.48939 0
M  V30 932 H 86.392 2.34545 -2.09371 0
M  V30 933 N 90.1641 1.46063 -0.591896 0
M  V30 934 C 91.4131 2.01547 -0.0786637 0
M  V30 935 C 91.7261 1.46796 1.29268 0
M  V30 936 O 92.9321 1.94157 1.89777 0
M  V30 937 C 91.3881 3.59787 -0.0900024 0
M  V30 938 C 90.9961 4.23534 -1.46023 0
M  V30 939 C 92.7401 4.22895 0.368806 0
M  V30 940 C 90.6471 5.73881 -1.4288 0
M  V30 941 H 89.5771 0.753564 -0.0256388 0
M  V30 942 H 92.2281 1.677 -0.744905 0
M  V30 943 H 90.6101 3.90752 0.642586 0
M  V30 944 H 91.7841 4.04167 -2.21328 0
M  V30 945 H 90.0991 3.72558 -1.85982 0
M  V30 946 H 92.6961 5.33116 0.411258 0
M  V30 947 H 93.0391 3.9247 1.38827 0
M  V30 948 H 93.5721 3.9659 -0.31001 0
M  V30 949 H 90.3111 6.0898 -2.42536 0
M  V30 950 H 89.8311 5.95486 -0.718095 0
M  V30 951 H 91.5101 6.36776 -1.14565 0
M  V30 952 N 91.6422 0.330177 1.54103 0
M  V30 953 C 92.5892 -0.532762 2.24567 0
M  V30 954 C 93.5592 -1.10635 1.23892 0
M  V30 955 O 94.7442 -1.14546 1.5259 0
M  V30 956 C 91.8842 -1.6845 3.01195 0
M  V30 957 C 90.9972 -1.13951 4.167 0
M  V30 958 C 90.1322 -2.25746 4.80845 0
M  V30 959 C 89.1712 -1.6853 5.88442 0
M  V30 960 N 88.3082 -2.74014 6.46421 0
M  V30 961 H 93.1482 0.0746905 2.97906 0
M  V30 962 H 90.6852 0.048632 1.4702 0
M  V30 963 H 92.6432 -2.36234 3.43874 0
M  V30 964 H 91.2732 -2.26314 2.30178 0
M  V30 965 H 90.3252 -0.35301 3.78758 0
M  V30 966 H 91.6372 -0.680892 4.94131 0
M  V30 967 H 90.7912 -3.01422 5.26526 0
M  V30 968 H 89.5302 -2.74947 4.0281 0
M  V30 969 H 88.5352 -0.913543 5.42157 0
M  V30 970 H 89.7602 -1.20198 6.68378 0
M  V30 971 H 87.7062 -3.22494 5.71256 0
M  V30 972 H 87.6232 -2.32735 7.19285 0
M  V30 973 H 88.8912 -3.49499 6.96757 0
M  V30 974 N 93.1203 -1.57491 0.0584922 0
M  V30 975 C 94.0673 -2.11958 -0.913376 0
M  V30 976 C 95.0373 -1.02875 -1.30407 0
M  V30 977 O 96.2223 -1.30464 -1.39226 0
M  V30 978 C 93.3623 -2.67497 -2.18035 0
M  V30 979 C 92.4753 -3.90691 -1.84349 0
M  V30 980 C 91.6103 -4.3452 -3.05559 0
M  V30 981 C 90.6493 -5.50395 -2.67827 0
M  V30 982 N 89.7863 -5.89244 -3.81754 0
M  V30 983 H 94.6263 -2.94704 -0.442017 0
M  V30 984 H 92.1633 -1.45643 -0.206545 0
M  V30 985 H 94.1213 -2.978 -2.92183 0
M  V30 986 H 92.7513 -1.87537 -2.62735 0
M  V30 987 H 91.8033 -3.66934 -1.00319 0
M  V30 988 H 93.1153 -4.7489 -1.5258 0
M  V30 989 H 92.2693 -4.66414 -3.87998 0
M  V30 990 H 91.0083 -3.49147 -3.40511 0
M  V30 991 H 90.0133 -5.18165 -1.83806 0
M  V30 992 H 91.2383 -6.3749 -2.34059 0
M  V30 993 H 89.1843 -5.06823 -4.16493 0
M  V30 994 H 89.1013 -6.68151 -3.53708 0
M  V30 995 H 90.3693 -6.25756 -4.64811 0
M  V30 996 N 94.5984 0.214957 -1.56127 0
M  V30 997 C 95.5084 1.28727 -1.96129 0
M  V30 998 C 96.5244 1.50916 -0.866044 0
M  V30 999 O 97.7004 1.63918 -1.17016 0
M  V30 1000 C 94.7654 2.61569 -2.27558 0
M  V30 1001 C 93.8264 2.47625 -3.50685 0
M  V30 1002 C 93.0594 3.74132 -3.80606 0
M  V30 1003 O 93.2824 4.77438 -3.12104 0
M  V30 1004 O 92.2164 3.70849 -4.74083 0
M  V30 1005 H 96.0424 0.977855 -2.87527 0
M  V30 1006 H 93.6274 0.418358 -1.43423 0
M  V30 1007 H 95.5094 3.40012 -2.48938 0
M  V30 1008 H 94.1844 2.92178 -1.39332 0
M  V30 1009 H 93.0914 1.67361 -3.34576 0
M  V30 1010 H 94.4244 2.21954 -4.39315 0
M  V30 1011 N 96.0765 1.50051 0.48192 0
M  V30 1012 C 97.0065 1.71046 1.58951 0
M  V30 1013 C 97.9875 0.559288 1.60642 0
M  V30 1014 O 99.1725 0.797243 1.77081 0
M  V30 1015 C 96.3025 1.79462 2.97339 0
M  V30 1016 C 95.2565 2.94558 3.10515 0
M  V30 1017 C 94.5825 2.88105 4.50444 0
M  V30 1018 C 95.8825 4.35227 2.88747 0
M  V30 1019 H 97.5765 2.6378 1.41635 0
M  V30 1020 H 95.1225 1.26936 0.679942 0
M  V30 1021 H 97.0755 1.92734 3.74742 0
M  V30 1022 H 95.7995 0.833412 3.15788 0
M  V30 1023 H 94.4585 2.80918 2.35543 0
M  V30 1024 H 94.1065 1.89853 4.65795 0
M  V30 1025 H 93.8065 3.65366 4.60197 0
M  V30 1026 H 95.3305 3.03412 5.29881 0
M  V30 1027 H 96.7445 4.49449 3.55905 0
M  V30 1028 H 95.1415 5.13856 3.09955 0
M  V30 1029 H 96.2115 4.48347 1.84696 0
M  V30 1030 N 97.5546 -0.734337 1.39446 0
M  V30 1031 C 98.8016 -1.49391 1.36706 0
M  V30 1032 C 99.1296 -1.94465 -0.0367813 0
M  V30 1033 O 98.3846 -1.67154 -1.01774 0
M  V30 1034 C 98.6836 -2.74711 2.28623 0
M  V30 1035 C 98.3496 -2.48501 3.76242 0
M  V30 1036 C 97.0116 -2.41062 4.16464 0
M  V30 1037 C 99.3636 -2.26098 4.69606 0
M  V30 1038 C 96.6916 -2.09262 5.48112 0
M  V30 1039 C 99.0436 -1.95814 6.01531 0
M  V30 1040 C 97.7076 -1.86845 6.40816 0
M  V30 1041 H 96.9776 -0.546661 0.500243 0
M  V30 1042 H 99.6246 -0.842788 1.71957 0
M  V30 1043 H 97.9296 -3.44569 1.86492 0
M  V30 1044 H 99.6266 -3.32741 2.23796 0
M  V30 1045 H 96.2166 -2.55169 3.44364 0
M  V30 1046 H 100.401 -2.30812 4.39363 0
M  V30 1047 H 95.6566 -2.00841 5.77471 0
M  V30 1048 H 99.8306 -1.77488 6.73403 0
M  V30 1049 H 97.4576 -1.6197 7.42745 0
M  V30 1050 N 99.0327 -1.24633 -0.964593 0
M  V30 1051 C 99.9797 -1.04144 -2.05968 0
M  V30 1052 C 100.95 0.046262 -1.66036 0
M  V30 1053 O 102.135 -0.108972 -1.90489 0
M  V30 1054 C 99.2747 -0.65563 -3.38815 0
M  V30 1055 C 98.3877 -1.81714 -3.91923 0
M  V30 1056 C 97.5227 -1.37662 -5.13052 0
M  V30 1057 C 96.5617 -2.50788 -5.58365 0
M  V30 1058 N 95.6987 -2.07582 -6.70712 0
M  V30 1059 H 100.539 -1.9787 -2.22827 0
M  V30 1060 H 98.0757 -0.9855 -1.09208 0
M  V30 1061 H 100.034 -0.412954 -4.15151 0
M  V30 1062 H 98.6637 0.244627 -3.21872 0
M  V30 1063 H 97.7157 -2.1734 -3.12198 0
M  V30 1064 H 99.0277 -2.66705 -4.21509 0
M  V30 1065 H 98.1817 -1.093 -5.96773 0
M  V30 1066 H 96.9207 -0.497293 -4.85158 0
M  V30 1067 H 95.9257 -2.79906 -4.73215 0
M  V30 1068 H 97.1507 -3.39283 -5.88272 0
M  V30 1069 H 95.0967 -1.22051 -6.44546 0
M  V30 1070 H 95.0137 -2.86125 -6.99763 0
M  V30 1071 H 96.2817 -1.82369 -7.57867 0
M  V30 1072 N 100.511 1.16574 -1.06058 0
M  V30 1073 C 101.441 2.23057 -0.690488 0
M  V30 1074 C 102.422 1.67141 0.315901 0
M  V30 1075 O 103.607 1.93253 0.191556 0
M  V30 1076 C 100.737 3.47222 -0.073625 0
M  V30 1077 C 99.6908 4.16016 -1.00573 0
M  V30 1078 C 99.0168 5.34104 -0.252289 0
M  V30 1079 C 100.317 4.67264 -2.33371 0
M  V30 1080 H 102.011 2.54271 -1.58072 0
M  V30 1081 H 99.5568 1.22218 -0.76149 0
M  V30 1082 H 101.51 4.20939 0.19714 0
M  V30 1083 H 100.234 3.15302 0.85161 0
M  V30 1084 H 98.8928 3.44223 -1.2612 0
M  V30 1085 H 98.5408 4.98437 0.675988 0
M  V30 1086 H 98.2408 5.81072 -0.873455 0
M  V30 1087 H 99.7648 6.10599 0.0109857 0
M  V30 1088 H 101.179 5.32573 -2.12223 0
M  V30 1089 H 99.5758 5.24843 -2.90963 0
M  V30 1090 H 100.646 3.83602 -2.96611 0
M  V30 1091 N 101.989 0.842826 1.3317 0
M  V30 1092 C 102.952 0.284065 2.27433 0
M  V30 1093 C 103.952 -0.54948 1.5112 0
M  V30 1094 O 105.142 -0.362699 1.70382 0
M  V30 1095 C 102.274 -0.599384 3.35589 0
M  V30 1096 H 103.467 1.11589 2.78366 0
M  V30 1097 H 101.02 0.616221 1.4364 0
M  V30 1098 H 101.755 -1.45349 2.89904 0
M  V30 1099 H 101.54 -0.00291266 3.921 0
M  V30 1100 H 103.03 -0.983488 4.05854 0
M  V30 1101 N 103.467 -1.45747 0.599634 0
M  V30 1102 C 104.695 -2.06668 0.0978551 0
M  V30 1103 C 105.11 -1.44562 -1.21439 0
M  V30 1104 O 104.467 -0.556923 -1.73795 0
M  V30 1105 C 104.518 -3.61456 -0.0567044 0
M  V30 1106 O 104.239 -4.21242 1.20361 0
M  V30 1107 C 105.74 -4.39345 -0.590869 0
M  V30 1108 H 102.96 -0.667825 0.0651943 0
M  V30 1109 H 105.504 -1.87115 0.82511 0
M  V30 1110 H 103.659 -3.80378 -0.734251 0
M  V30 1111 H 104.073 -5.14323 1.02821 0
M  V30 1112 H 105.547 -5.48182 -0.648131 0
M  V30 1113 H 106.024 -4.08568 -1.61147 0
M  V30 1114 H 106.63 -4.25268 0.0523679 0
M  V30 1115 N 104.945 -0.338344 -1.53925 0
M  V30 1116 C 106.173 0.261298 -2.05243 0
M  V30 1117 C 106.588 1.44625 -1.21363 0
M  V30 1118 O 105.945 1.80811 -0.247736 0
M  V30 1119 C 105.996 0.681412 -3.5502 0
M  V30 1120 O 105.717 -0.456414 -4.35716 0
M  V30 1121 C 107.218 1.34232 -4.22489 0
M  V30 1122 H 104.438 0.0513685 -0.669031 0
M  V30 1123 H 106.982 -0.488822 -1.98572 0
M  V30 1124 H 105.137 1.38148 -3.61931 0
M  V30 1125 H 105.551 -0.122564 -5.24357 0
M  V30 1126 H 107.025 1.58708 -5.28693 0
M  V30 1127 H 107.502 2.29426 -3.74514 0
M  V30 1128 H 108.108 0.684424 -4.19757 0
M  V30 1129 N 106.423 1.57458 -0.0668435 0
M  V30 1130 C 107.386 2.11323 0.887422 0
M  V30 1131 C 108.386 1.03618 1.22964 0
M  V30 1132 O 109.576 1.29626 1.16373 0
M  V30 1133 C 106.708 2.61048 2.19242 0
M  V30 1134 H 107.901 2.96942 0.420194 0
M  V30 1135 H 105.454 1.55239 0.181793 0
M  V30 1136 H 106.189 1.78868 2.70512 0
M  V30 1137 H 105.974 3.39769 1.95702 0
M  V30 1138 H 107.464 3.02814 2.87565 0
M  V30 1139 N 107.901 -0.206675 1.56239 0
M  V30 1140 C 108.831 -1.25909 1.96645 0
M  V30 1141 C 109.812 -1.48097 0.836734 0
M  V30 1142 O 110.997 -1.6003 1.10019 0
M  V30 1143 C 108.127 -2.6058 2.29599 0
M  V30 1144 C 107.081 -2.53024 3.452 0
M  V30 1145 C 106.407 -3.91861 3.63798 0
M  V30 1146 C 107.707 -2.06524 4.79734 0
M  V30 1147 H 109.401 -0.923369 2.84806 0
M  V30 1148 H 106.947 -0.442735 1.37025 0
M  V30 1149 H 108.9 -3.34375 2.56459 0
M  V30 1150 H 107.624 -2.95869 1.38307 0
M  V30 1151 H 106.283 -1.81684 3.18412 0
M  V30 1152 H 105.931 -4.24483 2.69857 0
M  V30 1153 H 105.631 -3.87683 4.4156 0
M  V30 1154 H 107.155 -4.67296 3.93022 0
M  V30 1155 H 108.569 -2.70072 5.05702 0
M  V30 1156 H 106.966 -2.13374 5.60885 0
M  V30 1157 H 108.036 -1.01802 4.74093 0
M  V30 1158 N 109.379 -1.50304 -0.473955 0
M  V30 1159 C 110.609 -1.64663 -1.24778 0
M  V30 1160 C 111.017 -0.328174 -1.86332 0
M  V30 1161 O 110.36 0.699536 -1.69859 0
M  V30 1162 C 110.422 -2.6778 -2.39863 0
M  V30 1163 C 110.086 -4.11413 -1.98969 0
M  V30 1164 C 111.083 -4.97372 -1.51385 0
M  V30 1165 C 108.768 -4.57312 -2.07777 0
M  V30 1166 C 110.762 -6.27277 -1.13148 0
M  V30 1167 C 108.449 -5.87223 -1.69152 0
M  V30 1168 C 109.447 -6.72031 -1.21915 0
M  V30 1169 O 109.135 -7.99518 -0.838237 0
M  V30 1170 H 108.867 -0.556602 -0.383627 0
M  V30 1171 H 111.421 -1.9726 -0.572491 0
M  V30 1172 H 109.651 -2.30419 -3.10554 0
M  V30 1173 H 111.34 -2.71388 -3.01833 0
M  V30 1174 H 112.106 -4.63128 -1.44004 0
M  V30 1175 H 107.985 -3.91449 -2.43493 0
M  V30 1176 H 111.529 -6.93425 -0.762077 0
M  V30 1177 H 107.426 -6.20989 -1.76191 0
M  V30 1178 H 108.194 -8.12764 -0.967339 0
M  V30 1179 N 110.857 0.726932 -1.39834 0
M  V30 1180 C 112.104 1.48664 -1.37496 0
M  V30 1181 C 112.432 1.94482 0.0264678 0
M  V30 1182 O 111.687 1.67692 1.00886 0
M  V30 1183 C 111.986 2.73495 -2.30077 0
M  V30 1184 C 111.652 2.46502 -3.77555 0
M  V30 1185 C 110.314 2.3885 -4.17737 0
M  V30 1186 C 112.666 2.23604 -4.70798 0
M  V30 1187 C 109.994 2.06352 -5.49214 0
M  V30 1188 C 112.346 1.92622 -6.02561 0
M  V30 1189 C 111.01 1.83444 -6.41798 0
M  V30 1190 H 110.28 0.544001 -0.503135 0
M  V30 1191 H 112.927 0.833657 -1.72402 0
M  V30 1192 H 111.232 3.43575 -1.88317 0
M  V30 1193 H 112.929 3.31549 -2.25558 0
M  V30 1194 H 109.519 2.5334 -3.45712 0
M  V30 1195 H 113.703 2.28479 -4.40581 0
M  V30 1196 H 108.959 1.97776 -5.78528 0
M  V30 1197 H 113.133 1.73914 -6.74334 0
M  V30 1198 H 110.76 1.58029 -7.43593 0
M  V30 1199 N 112.336 1.25143 0.95797 0
M  V30 1200 C 113.564 1.12424 1.73691 0
M  V30 1201 C 113.979 -0.322304 1.86029 0
M  V30 1202 O 113.336 -1.22186 1.35561 0
M  V30 1203 C 113.387 1.76933 3.15241 0
M  V30 1204 O 113.108 3.15932 3.03511 0
M  V30 1205 C 114.609 1.6995 4.09429 0
M  V30 1206 H 111.829 0.3923 0.544373 0
M  V30 1207 H 114.373 1.6544 1.20207 0
M  V30 1208 H 112.528 1.27895 3.6568 0
M  V30 1209 H 112.942 3.47598 3.9278 0
M  V30 1210 H 114.416 2.19753 5.06372 0
M  V30 1211 H 114.893 0.662619 4.34173 0
M  V30 1212 H 115.499 2.18461 3.64904 0
M  V30 1213 N 113.814 -1.1601 1.06675 0
M  V30 1214 C 115.044 -1.90251 0.805497 0
M  V30 1215 C 115.452 -1.77891 -0.64431 0
M  V30 1216 O 114.795 -1.12383 -1.45313 0
M  V30 1217 C 114.857 -3.41419 1.12576 0
M  V30 1218 C 114.521 -3.77564 2.57477 0
M  V30 1219 C 115.518 -3.79161 3.55715 0
M  V30 1220 C 113.203 -4.08079 2.92877 0
M  V30 1221 C 115.197 -4.10767 4.8739 0
M  V30 1222 C 112.884 -4.39351 4.24751 0
M  V30 1223 C 113.882 -4.40675 5.21818 0
M  V30 1224 O 113.57 -4.71202 6.51325 0
M  V30 1225 H 113.302 -0.610018 0.291297 0
M  V30 1226 H 115.856 -1.47958 1.4247 0
M  V30 1227 H 114.086 -3.84079 0.449503 0
M  V30 1228 H 115.775 -3.9694 0.84814 0
M  V30 1229 H 116.541 -3.55693 3.29708 0
M  V30 1230 H 112.42 -4.06211 2.17976 0
M  V30 1231 H 115.964 -4.11715 5.63148 0
M  V30 1232 H 111.861 -4.62285 4.50514 0
M  V30 1233 H 112.629 -4.88996 6.56373 0
M  V30 1234 N 115.292 -0.849877 -1.32721 0
M  V30 1235 C 116.517 -0.463856 -2.02146 0
M  V30 1236 C 116.942 0.930449 -1.63476 0
M  V30 1237 O 116.3 1.61033 -0.832952 0
M  V30 1238 C 116.348 -0.604955 -3.55489 0
M  V30 1239 O 115.452 0.36425 -4.10788 0
M  V30 1240 H 114.793 -0.187046 -0.637111 0
M  V30 1241 H 117.323 -1.14775 -1.69375 0
M  V30 1242 H 117.333 -0.490696 -4.05038 0
M  V30 1243 H 116.008 -1.62174 -3.82978 0
M  V30 1244 H 114.585 0.206628 -3.72327 0
M  V30 1245 N 116.77 1.45427 -0.607355 0
M  V30 1246 C 117.733 2.28974 0.101693 0
M  V30 1247 C 118.733 1.39754 0.795329 0
M  V30 1248 O 119.923 1.61878 0.643527 0
M  V30 1249 C 117.055 3.20768 1.15414 0
M  V30 1250 H 118.248 2.93147 -0.632844 0
M  V30 1251 H 115.801 1.51945 -0.366391 0
M  V30 1252 H 116.536 2.61395 1.91945 0
M  V30 1253 H 116.321 3.86489 0.66098 0
M  V30 1254 H 117.811 3.83589 1.65073 0
M  V30 1255 N 118.248 0.346503 1.53744 0
M  V30 1256 C 119.178 -0.501193 2.28058 0
M  V30 1257 C 120.159 -1.10014 1.29734 0
M  V30 1258 O 121.344 -1.12097 1.58581 0
M  V30 1259 C 118.474 -1.65078 3.05559 0
M  V30 1260 C 117.428 -1.18003 4.11411 0
M  V30 1261 C 116.754 -2.41837 4.76884 0
M  V30 1262 C 118.054 -0.278394 5.21558 0
M  V30 1263 H 119.748 0.11875 2.99164 0
M  V30 1264 H 117.294 0.0585531 1.43881 0
M  V30 1265 H 119.247 -2.25028 3.56287 0
M  V30 1266 H 117.971 -2.29767 2.32109 0
M  V30 1267 H 116.63 -0.603331 3.61601 0
M  V30 1268 H 116.278 -3.0494 4.00026 0
M  V30 1269 H 115.978 -2.1102 5.48402 0
M  V30 1270 H 117.502 -3.02508 5.30397 0
M  V30 1271 H 118.916 -0.784823 5.67903 0
M  V30 1272 H 117.313 -0.0619707 6.00068 0
M  V30 1273 H 118.383 0.684677 4.80042 0
M  V30 1274 N 119.726 -1.57421 0.075193 0
M  V30 1275 C 120.636 -2.1642 -0.905511 0
M  V30 1276 C 121.652 -1.12828 -1.32461 0
M  V30 1277 O 122.828 -1.45109 -1.39661 0
M  V30 1278 C 119.893 -2.71693 -2.15369 0
M  V30 1279 C 118.954 -3.90171 -1.79068 0
M  V30 1280 C 118.187 -4.42798 -2.97936 0
M  V30 1281 O 118.41 -3.94416 -4.12058 0
M  V30 1282 O 117.344 -5.34085 -2.77555 0
M  V30 1283 H 121.17 -3.00588 -0.433626 0
M  V30 1284 H 118.755 -1.48664 -0.148067 0
M  V30 1285 H 120.637 -3.07104 -2.88557 0
M  V30 1286 H 119.312 -1.90582 -2.61649 0
M  V30 1287 H 118.219 -3.59606 -1.03122 0
M  V30 1288 H 119.552 -4.72584 -1.37569 0
M  V30 1289 N 121.204 0.198386 -1.56346 0
M  V30 1290 C 122.114 1.2664 -1.97483 0
M  V30 1291 C 123.13 1.49989 -0.882002 0
M  V30 1292 O 124.306 1.62668 -1.18748 0
M  V30 1293 C 121.371 2.59141 -2.30319 0
M  V30 1294 C 120.432 2.43892 -3.53292 0
M  V30 1295 C 119.665 3.70074 -3.84553 0
M  V30 1296 O 119.888 4.74101 -3.1715 0
M  V30 1297 O 118.822 3.658 -4.7799 0
M  V30 1298 H 122.648 0.947304 -2.88548 0
M  V30 1299 H 120.233 0.403123 -1.43859 0
M  V30 1300 H 122.115 3.37352 -2.5253 0
M  V30 1301 H 120.79 2.90684 -1.42423 0
M  V30 1302 H 119.697 1.63803 -3.36332 0
M  V30 1303 H 121.03 2.17282 -4.41644 0
M  V30 1304 N 122.682 1.50554 0.465978 0
M  V30 1305 C 123.592 1.72585 1.58907 0
M  V30 1306 C 124.608 0.60911 1.6299 0
M  V30 1307 O 125.784 0.88804 1.80765 0
M  V30 1308 C 122.849 1.81995 2.95091 0
M  V30 1309 C 121.91 3.05751 3.01355 0
M  V30 1310 C 121.143 3.14702 4.31043 0
M  V30 1311 O 121.366 2.30313 5.21835 0
M  V30 1312 O 120.3 4.07468 4.43005 0
M  V30 1313 H 124.126 2.67799 1.43239 0
M  V30 1314 H 121.711 1.34711 0.646013 0
M  V30 1315 H 123.593 1.90335 3.75966 0
M  V30 1316 H 122.268 0.899659 3.10947 0
M  V30 1317 H 121.175 3.02908 2.19539 0
M  V30 1318 H 122.508 3.97375 2.90437 0
M  V30 1319 N 124.16 -0.719506 1.40217 0
M  V30 1320 C 125.093 -1.84298 1.34571 0
M  V30 1321 C 126.071 -1.61149 0.216741 0
M  V30 1322 O 127.255 -1.84212 0.399756 0
M  V30 1323 C 124.382 -3.20568 1.09335 0
M  V30 1324 C 123.428 -3.62551 2.24631 0
M  V30 1325 S 124.261 -3.7012 3.87004 0
M  V30 1326 C 125.417 -5.09154 3.64024 0
M  V30 1327 H 125.65 -1.88807 2.2965 0
M  V30 1328 H 123.183 -0.885901 1.26456 0
M  V30 1329 H 125.141 -3.99246 0.954602 0
M  V30 1330 H 123.802 -3.13696 0.159164 0
M  V30 1331 H 122.995 -4.61483 2.02606 0
M  V30 1332 H 122.597 -2.91119 2.34789 0
M  V30 1333 H 124.889 -5.95955 3.22248 0
M  V30 1334 H 125.832 -5.36213 4.62473 0
M  V30 1335 H 126.24 -4.79562 2.97793 0
M  V30 1336 N 125.638 -1.25649 -0.95132 0
M  V30 1337 C 126.548 -1.08073 -2.08224 0
M  V30 1338 C 127.564 -0.0169666 -1.73992 0
M  V30 1339 O 128.74 -0.218593 -2.0021 0
M  V30 1340 C 125.805 -0.704922 -3.39458 0
M  V30 1341 C 124.866 -1.84699 -3.87537 0
M  V30 1342 C 124.099 -1.48902 -5.12508 0
M  V30 1343 O 124.322 -0.386156 -5.69091 0
M  V30 1344 O 123.256 -2.32033 -5.55378 0
M  V30 1345 H 127.082 -2.02924 -2.25954 0
M  V30 1346 H 124.667 -1.04618 -1.06656 0
M  V30 1347 H 126.549 -0.507609 -4.18332 0
M  V30 1348 H 125.224 0.214291 -3.2299 0
M  V30 1349 H 124.131 -2.09919 -3.09653 0
M  V30 1350 H 125.464 -2.74557 -4.08509 0
M  V30 1351 N 127.117 1.15442 -1.07289 0
M  V30 1352 C 128.533 1.38201 -0.798288 0
M  V30 1353 C 128.733 1.92429 0.597769 0
M  V30 1354 O 127.789 2.12962 1.3566 0
M  V30 1355 C 129.102 2.35357 -1.87156 0
M  V30 1356 C 130.65 2.49021 -1.89624 0
M  V30 1357 C 131.125 3.49468 -2.96034 0
M  V30 1358 N 132.616 3.57003 -2.95132 0
M  V30 1359 C 133.351 4.34543 -3.74112 0
M  V30 1360 N 132.847 5.15421 -4.6294 0
M  V30 1361 N 134.64 4.29625 -3.62462 0
M  V30 1362 H 126.791 0.78584 -1.97328 0
M  V30 1363 H 129.054 0.408065 -0.855679 0
M  V30 1364 H 128.76 2.02626 -2.87464 0
M  V30 1365 H 128.634 3.35129 -1.73114 0
M  V30 1366 H 131.021 2.81051 -0.899687 0
M  V30 1367 H 131.102 1.4925 -2.07745 0
M  V30 1368 H 130.746 3.18173 -3.95889 0
M  V30 1369 H 130.676 4.48992 -2.75161 0
M  V30 1370 H 133.167 2.99276 -2.30743 0
M  V30 1371 H 133.48 5.7183 -5.19837 0
M  V30 1372 H 131.825 5.14729 -4.66989 0
M  V30 1373 H 135.016 3.65505 -2.92444 0
M  V30 1374 H 135.189 4.89807 -4.24256 0
M  V30 1375 N 128.595 0.856903 1.32268 0
M  V30 1376 C 129.543 0.291987 2.3076 0
M  V30 1377 C 130.537 -0.585857 1.58947 0
M  V30 1378 O 131.743 -0.47341 1.73663 0
M  V30 1379 H 128.118 0.075721 0.748178 0
M  V30 1380 H 130.089 1.13687 2.75895 0
M  V30 1381 C 128.838 -0.502869 3.44044 0
M  V30 1382 H 128.161 0.163328 3.99466 0
M  V30 1383 H 129.601 -0.863691 4.1511 0
M  V30 1384 C 128.06 -1.68898 2.91505 0
M  V30 1385 O 128.59 -2.78811 2.89184 0
M  V30 1386 N 126.796 -1.51679 2.47875 0
M  V30 1387 H 126.343 -0.622666 2.49961 0
M  V30 1388 H 126.301 -2.31184 2.13076 0
M  V30 1389 N 130.073 -1.45103 0.615059 0
M  V30 1390 C 131.02 -2.30586 -0.0993978 0
M  V30 1391 C 131.99 -1.42544 -0.852669 0
M  V30 1392 O 133.175 -1.71465 -0.836917 0
M  V30 1393 C 130.315 -3.27572 -1.08583 0
M  V30 1394 C 129.428 -4.30717 -0.332656 0
M  V30 1395 C 128.563 -5.14807 -1.30947 0
M  V30 1396 C 127.602 -6.09673 -0.544538 0
M  V30 1397 N 126.739 -6.86517 -1.47101 0
M  V30 1398 H 131.579 -2.91144 0.635542 0
M  V30 1399 H 129.116 -1.4346 0.325206 0
M  V30 1400 H 131.074 -3.82276 -1.67095 0
M  V30 1401 H 129.704 -2.68751 -1.78809 0
M  V30 1402 H 128.756 -3.78615 0.368107 0
M  V30 1403 H 130.068 -4.98102 0.263842 0
M  V30 1404 H 129.222 -5.73948 -1.96643 0
M  V30 1405 H 127.961 -4.47458 -1.9399 0
M  V30 1406 H 126.966 -5.49656 0.126003 0
M  V30 1407 H 128.191 -6.79052 0.080947 0
M  V30 1408 H 126.137 -6.21851 -2.08895 0
M  V30 1409 H 126.054 -7.50281 -0.928137 0
M  V30 1410 H 127.322 -7.50194 -2.11731 0
M  V30 1411 N 131.551 -0.354651 -1.53558 0
M  V30 1412 C 132.828 0.294281 -1.93374 0
M  V30 1413 C 133.208 1.67313 -1.28723 0
M  V30 1414 O 132.556 2.24179 -0.442247 0
M  V30 1415 C 132.766 0.355445 -3.47185 0
M  V30 1416 C 134.114 0.601007 -4.20325 0
M  V30 1417 O 135.138 0.437106 -3.53508 0
M  V30 1418 O 133.997 0.919322 -5.38712 0
M  V30 1419 H 131.091 0.174033 -0.808481 0
M  V30 1420 H 133.637 -0.406638 -1.64756 0
M  V30 1421 H 132.409 -0.611729 -3.86489 0
M  V30 1422 H 132.032 1.1027 -3.82003 0
M  V30 1423 N 133.029 1.57378 -0.0835403 0
M  V30 1424 C 133.979 2.09916 0.889905 0
M  V30 1425 C 134.963 1.01151 1.25129 0
M  V30 1426 O 136.155 1.27443 1.2283 0
M  V30 1427 C 133.284 2.67379 2.15322 0
M  V30 1428 C 132.37 3.83167 1.81779 0
M  V30 1429 N 132.761 4.91665 1.18739 0
M  V30 1430 C 131.059 3.92685 2.11459 0
M  V30 1431 C 131.76 5.72409 1.0355 0
M  V30 1432 N 130.736 5.21062 1.54906 0
M  V30 1433 H 134.538 2.91188 0.398378 0
M  V30 1434 H 132.052 1.61956 0.120013 0
M  V30 1435 H 134.049 3.0334 2.8599 0
M  V30 1436 H 132.709 1.87558 2.65051 0
M  V30 1437 H 133.72 5.10784 0.855604 0
M  V30 1438 H 130.397 3.23856 2.63483 0
M  V30 1439 H 131.787 6.69699 0.543425 0
M  V30 1440 N 134.507 -0.190092 1.56449 0
M  V30 1441 C 135.918 -0.754312 1.70784 0
M  V30 1442 C 136.269 -1.83631 0.690951 0
M  V30 1443 O 135.394 -2.15868 -0.151604 0
M  V30 1444 C 135.989 -1.37503 3.09642 0
M  V30 1445 C 134.548 -1.88628 3.25725 0
M  V30 1446 C 133.695 -0.758098 2.66736 0
M  V30 1447 H 136.646 0.0350524 1.58661 0
M  V30 1448 H 136.667 -2.2445 3.0725 0
M  V30 1449 H 136.179 -0.587302 3.83631 0
M  V30 1450 H 134.28 -2.70103 2.56661 0
M  V30 1451 H 134.393 -2.04462 4.3328 0
M  V30 1452 H 132.757 -1.17369 2.26046 0
M  V30 1453 H 133.54 0.0174705 3.43296 0
M  V30 1454 N 135.985 -1.50799 -0.457987 0
M  V30 1455 C 136.948 -1.7005 -1.53674 0
M  V30 1456 C 137.948 -0.570881 -1.50325 0
M  V30 1457 O 139.138 -0.838126 -1.52712 0
M  V30 1458 C 136.27 -1.73788 -2.93276 0
M  V30 1459 H 137.463 -2.66306 -1.37917 0
M  V30 1460 H 135.016 -1.40477 -0.685271 0
M  V30 1461 H 135.751 -0.792717 -3.14462 0
M  V30 1462 H 135.536 -2.55864 -2.97113 0
M  V30 1463 H 137.026 -1.90591 -3.71571 0
M  V30 1464 N 137.463 0.71206 -1.40597 0
M  V30 1465 C 138.71 1.47197 -1.39065 0
M  V30 1466 C 139.038 1.94499 0.00583891 0
M  V30 1467 O 138.293 1.68752 0.99102 0
M  V30 1468 C 138.592 2.71039 -2.32965 0
M  V30 1469 C 138.258 2.42484 -3.80148 0
M  V30 1470 C 136.92 2.34406 -4.20247 0
M  V30 1471 C 139.272 2.18598 -4.73143 0
M  V30 1472 C 136.6 2.00516 -5.51371 0
M  V30 1473 C 138.952 1.8622 -6.0457 0
M  V30 1474 C 137.616 1.76626 -6.43708 0
M  V30 1475 H 136.886 0.538634 -0.508876 0
M  V30 1476 H 139.533 0.815325 -1.73276 0
M  V30 1477 H 137.838 3.41558 -1.91951 0
M  V30 1478 H 139.535 3.29138 -2.29061 0
M  V30 1479 H 136.125 2.49659 -3.4838 0
M  V30 1480 H 140.309 2.23793 -4.42979 0
M  V30 1481 H 135.565 1.91628 -5.80593 0
M  V30 1482 H 139.739 1.66752 -6.76141 0
M  V30 1483 H 137.366 1.50133 -7.45228 0
M  V30 1484 N 138.941 1.26152 0.944643 0
M  V30 1485 C 139.904 1.07474 2.0244 0
M  V30 1486 C 140.904 0.0242064 1.60782 0
M  V30 1487 O 142.094 0.267302 1.72137 0
M  V30 1488 C 139.226 0.633956 3.34953 0
M  V30 1489 H 140.419 2.03336 2.20442 0
M  V30 1490 H 137.972 1.087 1.12312 0
M  V30 1491 H 138.707 -0.326811 3.22649 0
M  V30 1492 H 138.492 1.39247 3.66542 0
M  V30 1493 H 139.982 0.52501 4.14287 0
M  V30 1494 N 140.419 -1.14872 1.07899 0
M  V30 1495 C 141.83 -1.67367 0.827363 0
M  V30 1496 C 142.181 -1.85236 -0.646693 0
M  V30 1497 O 141.306 -1.55974 -1.50004 0
M  V30 1498 C 141.901 -3.04016 1.49532 0
M  V30 1499 C 140.46 -3.53566 1.29106 0
M  V30 1500 C 139.607 -2.29161 1.56143 0
M  V30 1501 H 142.558 -0.990083 1.24028 0
M  V30 1502 H 142.579 -3.69219 0.919643 0
M  V30 1503 H 142.091 -2.90978 2.56814 0
M  V30 1504 H 140.192 -3.71835 0.238713 0
M  V30 1505 H 140.305 -4.34661 2.01511 0
M  V30 1506 H 138.669 -2.34978 0.982717 0
M  V30 1507 H 139.452 -2.18705 2.64619 0
M  V30 1508 N 141.898 -0.863906 -1.31812 0
M  V30 1509 C 142.828 -0.330843 -2.31144 0
M  V30 1510 C 143.809 0.575005 -1.60087 0
M  V30 1511 O 144.994 0.493304 -1.8783 0
M  V30 1512 C 142.124 0.47374 -3.44054 0
M  V30 1513 C 141.078 -0.338481 -4.26659 0
M  V30 1514 C 140.404 0.591412 -5.31419 0
M  V30 1515 C 141.704 -1.56926 -4.98168 0
M  V30 1516 H 143.398 -1.16086 -2.75979 0
M  V30 1517 H 140.944 -0.559657 -1.32679 0
M  V30 1518 H 142.897 0.857143 -4.12591 0
M  V30 1519 H 141.621 1.33721 -2.9797 0
M  V30 1520 H 140.28 -0.703754 -3.59782 0
M  V30 1521 H 139.928 1.45199 -4.81587 0
M  V30 1522 H 139.628 0.0519022 -5.87577 0
M  V30 1523 H 141.152 0.97179 -6.02817 0
M  V30 1524 H 142.566 -1.25764 -5.59336 0
M  V30 1525 H 140.963 -2.04739 -5.64094 0
M  V30 1526 H 142.033 -2.32544 -4.25501 0
M  V30 1527 N 143.376 1.44774 -0.622745 0
M  V30 1528 C 144.606 2.06187 -0.130532 0
M  V30 1529 C 145.014 1.46547 1.19669 0
M  V30 1530 O 144.357 0.579636 1.74316 0
M  V30 1531 C 144.419 3.59437 0.0674983 0
M  V30 1532 C 144.083 4.41496 -1.18026 0
M  V30 1533 C 145.08 4.75512 -2.102 0
M  V30 1534 C 142.765 4.82007 -1.41333 0
M  V30 1535 C 144.759 5.48912 -3.23998 0
M  V30 1536 C 142.446 5.55157 -2.55429 0
M  V30 1537 C 143.444 5.88528 -3.46589 0
M  V30 1538 O 143.132 6.60191 -4.58697 0
M  V30 1539 H 142.864 0.672045 -0.0730162 0
M  V30 1540 H 145.418 1.86768 -0.854802 0
M  V30 1541 H 143.648 3.77314 0.846825 0
M  V30 1542 H 145.337 4.02642 0.513209 0
M  V30 1543 H 146.103 4.4476 -1.93425 0
M  V30 1544 H 141.982 4.55457 -0.712709 0
M  V30 1545 H 145.526 5.74877 -3.95174 0
M  V30 1546 H 141.423 5.85324 -2.72151 0
M  V30 1547 H 142.191 6.78654 -4.57571 0
M  V30 1548 N 144.854 0.36279 1.53368 0
M  V30 1549 C 146.101 -0.227776 2.01215 0
M  V30 1550 C 146.429 -1.49003 1.25014 0
M  V30 1551 O 145.684 -1.92876 0.331236 0
M  V30 1552 C 145.983 -0.568417 3.52851 0
M  V30 1553 C 145.649 0.59918 4.46901 0
M  V30 1554 C 144.311 0.919559 4.72332 0
M  V30 1555 C 146.663 1.38156 5.02556 0
M  V30 1556 C 143.991 2.02434 5.5067 0
M  V30 1557 C 146.343 2.47674 5.821 0
M  V30 1558 C 145.007 2.8025 6.05819 0
M  V30 1559 H 144.277 -0.083349 0.736297 0
M  V30 1560 H 146.924 0.494677 1.85001 0
M  V30 1561 H 145.229 -1.37185 3.66998 0
M  V30 1562 H 146.926 -1.03756 3.87344 0
M  V30 1563 H 143.516 0.339437 4.27254 0
M  V30 1564 H 147.7 1.14729 4.82857 0
M  V30 1565 H 142.956 2.28075 5.67267 0
M  V30 1566 H 147.13 3.08716 6.24234 0
M  V30 1567 H 144.757 3.65979 6.66306 0
M  V30 1568 N 146.332 -1.57332 0.0918853 0
M  V30 1569 C 147.743 -1.81496 -0.437739 0
M  V30 1570 C 148.094 -1.00727 -1.6837 0
M  V30 1571 O 147.219 -0.235694 -2.15113 0
M  V30 1572 C 147.814 -3.29197 -0.800939 0
M  V30 1573 C 146.373 -3.54136 -1.27532 0
M  V30 1574 C 145.52 -2.75979 -0.270392 0
M  V30 1575 H 148.471 -1.55494 0.317366 0
M  V30 1576 H 148.492 -3.42344 -1.66074 0
M  V30 1577 H 148.004 -3.87955 0.106078 0
M  V30 1578 H 146.105 -3.00705 -2.20016 0
M  V30 1579 H 146.218 -4.62792 -1.23938 0
M  V30 1580 H 144.582 -2.43349 -0.751872 0
M  V30 1581 H 145.365 -3.37484 0.629248 0
M  V30 1582 N 147.81 0.181792 -1.56548 0
M  V30 1583 C 148.743 1.25366 -1.90679 0
M  V30 1584 C 149.721 1.43299 -0.768376 0
M  V30 1585 O 150.905 1.58475 -1.02068 0
M  V30 1586 C 148.032 2.61826 -2.1486 0
M  V30 1587 C 147.078 2.60688 -3.37556 0
M  V30 1588 S 147.911 2.10804 -4.92262 0
M  V30 1589 C 149.067 3.49062 -5.19525 0
M  V30 1590 H 149.3 0.962277 -2.81296 0
M  V30 1591 H 146.833 0.385892 -1.495 0
M  V30 1592 H 148.791 3.40371 -2.29473 0
M  V30 1593 H 147.452 2.88169 -1.24969 0
M  V30 1594 H 146.645 3.61058 -3.51643 0
M  V30 1595 H 146.247 1.90232 -3.22006 0
M  V30 1596 H 148.539 4.45003 -5.10861 0
M  V30 1597 H 149.482 3.39859 -6.2121 0
M  V30 1598 H 149.89 3.4459 -4.47122 0
M  V30 1599 N 149.288 1.51039 0.449983 0
M  V30 1600 C 150.198 1.74261 1.57067 0
M  V30 1601 C 151.214 0.626363 1.62335 0
M  V30 1602 O 152.39 0.907162 1.79812 0
M  V30 1603 C 149.455 1.85114 2.93144 0
M  V30 1604 C 148.516 3.0893 2.98095 0
M  V30 1605 C 147.749 3.19256 4.27681 0
M  V30 1606 O 147.972 2.35835 5.19363 0
M  V30 1607 O 146.906 4.12144 4.38658 0
M  V30 1608 H 150.732 2.69303 1.40391 0
M  V30 1609 H 148.317 1.35389 0.631688 0
M  V30 1610 H 150.199 1.94311 3.73926 0
M  V30 1611 H 148.874 0.932588 3.09975 0
M  V30 1612 H 147.781 3.0522 2.16314 0
M  V30 1613 H 149.114 4.00433 2.86206 0
M  V30 1614 N 150.766 -0.704594 1.40972 0
M  V30 1615 C 151.696 -1.83124 1.44872 0
M  V30 1616 C 152.677 -1.67281 0.30838 0
M  V30 1617 O 153.862 -1.87149 0.518556 0
M  V30 1618 C 150.992 -3.21181 1.32136 0
M  V30 1619 C 149.946 -3.51714 2.43888 0
M  V30 1620 C 149.272 -4.89032 2.16222 0
M  V30 1621 C 150.572 -3.516 3.86232 0
M  V30 1622 H 152.266 -1.80117 2.39161 0
M  V30 1623 H 149.812 -0.865145 1.15114 0
M  V30 1624 H 151.765 -3.99702 1.33479 0
M  V30 1625 H 150.489 -3.24791 0.343279 0
M  V30 1626 H 149.148 -2.75539 2.41813 0
M  V30 1627 H 148.796 -4.89256 1.16778 0
M  V30 1628 H 148.496 -5.10426 2.911 0
M  V30 1629 H 150.02 -5.69873 2.19265 0
M  V30 1630 H 151.434 -4.2014 3.9007 0
M  V30 1631 H 149.831 -3.84523 4.60719 0
M  V30 1632 H 150.901 -2.50757 4.15029 0
M  V30 1633 N 152.244 -1.26651 -0.937939 0
M  V30 1634 C 153.194 -1.05156 -2.02302 0
M  V30 1635 C 154.178 0.0171233 -1.60891 0
M  V30 1636 O 155.37 -0.200213 -1.75864 0
M  V30 1637 C 152.499 -0.689962 -3.36295 0
M  V30 1638 C 151.585 -1.79626 -3.84181 0
M  V30 1639 N 151.976 -3.03422 -4.04684 0
M  V30 1640 C 150.274 -1.6806 -4.13124 0
M  V30 1641 C 150.975 -3.75345 -4.444 0
M  V30 1642 N 149.951 -3.03051 -4.51288 0
M  V30 1643 H 153.753 -1.99117 -2.1617 0
M  V30 1644 H 151.267 -1.17216 -1.12402 0
M  V30 1645 H 153.264 -0.517112 -4.13681 0
M  V30 1646 H 151.924 0.242139 -3.23796 0
M  V30 1647 H 152.935 -3.39293 -3.91281 0
M  V30 1648 H 149.612 -0.818629 -4.09396 0
M  V30 1649 H 151.002 -4.81691 -4.68427 0
M  V30 1650 N 153.722 1.14298 -1.08507 0
M  V30 1651 C 155.138 1.37347 -0.812901 0
M  V30 1652 C 155.338 1.93052 0.577325 0
M  V30 1653 O 154.394 2.14389 1.33393 0
M  V30 1654 C 155.707 2.33359 -1.89642 0
M  V30 1655 C 157.255 2.46996 -1.92255 0
M  V30 1656 C 157.73 3.46309 -2.99724 0
M  V30 1657 N 159.221 3.53853 -2.98902 0
M  V30 1658 C 159.956 4.3055 -3.787 0
M  V30 1659 N 159.452 5.10482 -4.6838 0
M  V30 1660 N 161.245 4.25757 -3.66998 0
M  V30 1661 H 153.396 0.764867 -1.9815 0
M  V30 1662 H 155.659 0.398966 -0.859959 0
M  V30 1663 H 155.365 1.99565 -2.89597 0
M  V30 1664 H 155.239 3.33274 -1.76659 0
M  V30 1665 H 157.626 2.80081 -0.929445 0
M  V30 1666 H 157.707 1.47039 -2.09316 0
M  V30 1667 H 157.351 3.13957 -3.99241 0
M  V30 1668 H 157.281 4.46049 -2.79907 0
M  V30 1669 H 159.772 2.96812 -2.33904 0
M  V30 1670 H 160.085 5.66284 -5.25873 0
M  V30 1671 H 158.43 5.09747 -4.72422 0
M  V30 1672 H 161.621 3.62383 -2.96304 0
M  V30 1673 H 161.794 4.85279 -4.29427 0
M  V30 1674 N 155.201 0.870884 1.31352 0
M  V30 1675 C 156.148 0.325425 2.28494 0
M  V30 1676 C 157.118 -0.576615 1.5577 0
M  V30 1677 O 158.303 -0.508059 1.83911 0
M  V30 1678 C 155.443 -0.466283 3.41935 0
M  V30 1679 C 154.556 0.463378 4.29508 0
M  V30 1680 C 153.691 -0.342544 5.30094 0
M  V30 1681 C 152.73 0.583486 6.09313 0
M  V30 1682 N 151.867 -0.186244 7.01853 0
M  V30 1683 H 156.707 1.15901 2.74538 0
M  V30 1684 H 154.244 0.58294 1.35056 0
M  V30 1685 H 156.202 -0.941085 4.06447 0
M  V30 1686 H 154.832 -1.26456 2.97 0
M  V30 1687 H 153.884 1.05663 3.65431 0
M  V30 1688 H 155.196 1.1734 4.84802 0
M  V30 1689 H 154.35 -0.879816 6.00287 0
M  V30 1690 H 153.089 -1.08585 4.75458 0
M  V30 1691 H 152.094 1.13251 5.3801 0
M  V30 1692 H 153.319 1.32566 6.66035 0
M  V30 1693 H 151.265 -0.912348 6.49625 0
M  V30 1694 H 151.182 0.464422 7.54572 0
M  V30 1695 H 152.45 -0.704716 7.76308 0
M  V30 1696 N 156.679 -1.44442 0.630414 0
M  V30 1697 C 157.589 -2.34476 -0.0761693 0
M  V30 1698 C 158.605 -1.52576 -0.836449 0
M  V30 1699 O 159.781 -1.85307 -0.788874 0
M  V30 1700 C 156.846 -3.30545 -1.04599 0
M  V30 1701 C 155.907 -4.28352 -0.28516 0
M  V30 1702 C 155.14 -5.19831 -1.20878 0
M  V30 1703 O 155.363 -5.15223 -2.44747 0
M  V30 1704 O 154.297 -5.97892 -0.693491 0
M  V30 1705 H 158.123 -2.96345 0.664324 0
M  V30 1706 H 155.708 -1.44203 0.39061 0
M  V30 1707 H 157.59 -3.89681 -1.60396 0
M  V30 1708 H 156.265 -2.7121 -1.76711 0
M  V30 1709 H 155.172 -3.72764 0.315837 0
M  V30 1710 H 156.505 -4.90605 0.395924 0
M  V30 1711 N 158.157 -0.370918 -1.53173 0
M  V30 1712 C 159.12 0.460778 -2.24521 0
M  V30 1713 C 160.12 1.00536 -1.25496 0
M  V30 1714 O 161.31 0.890266 -1.49733 0
M  V30 1715 C 158.442 1.64457 -2.98608 0
M  V30 1716 H 159.635 -0.163613 -2.99453 0
M  V30 1717 H 157.188 -0.122699 -1.55818 0
M  V30 1718 H 157.923 2.30691 -2.2793 0
M  V30 1719 H 157.708 1.26099 -3.7127 0
M  V30 1720 H 159.198 2.23384 -3.5283 0
M  V30 1721 N 159.635 1.57281 -0.100228 0
M  V30 1722 C 160.565 2.17328 0.853857 0
M  V30 1723 C 161.546 1.10804 1.2906 0
M  V30 1724 O 162.731 1.38963 1.35657 0
M  V30 1725 C 159.861 2.75772 2.11109 0
M  V30 1726 C 158.815 3.87713 1.81279 0
M  V30 1727 C 158.141 4.32882 3.13874 0
M  V30 1728 C 159.441 5.10677 1.09574 0
M  V30 1729 H 161.135 2.97305 0.353545 0
M  V30 1730 H 158.681 1.43009 0.168612 0
M  V30 1731 H 160.634 3.16433 2.78296 0
M  V30 1732 H 159.358 1.93057 2.63432 0
M  V30 1733 H 158.017 3.476 1.16489 0
M  V30 1734 H 157.665 3.47051 3.64095 0
M  V30 1735 H 157.365 5.08358 2.94696 0
M  V30 1736 H 158.889 4.7618 3.82211 0
M  V30 1737 H 160.303 5.48474 1.66879 0
M  V30 1738 H 158.7 5.91615 1.00557 0
M  V30 1739 H 159.77 4.84835 0.0793299 0
M  V30 1740 N 161.113 -0.173488 1.56642 0
M  V30 1741 C 162.341 -0.906095 1.86004 0
M  V30 1742 C 162.756 -1.75921 0.685355 0
M  V30 1743 O 162.113 -1.79198 -0.345578 0
M  V30 1744 C 162.164 -1.78462 3.14378 0
M  V30 1745 O 161.885 -0.965914 4.27319 0
M  V30 1746 C 163.386 -2.62707 3.57071 0
M  V30 1747 H 160.606 -0.263341 0.617165 0
M  V30 1748 H 163.15 -0.174236 2.03756 0
M  V30 1749 H 161.305 -2.46984 2.98459 0
M  V30 1750 H 161.719 -1.56655 5.00559 0
M  V30 1751 H 163.193 -3.19969 4.49804 0
M  V30 1752 H 163.67 -3.37472 2.81086 0
M  V30 1753 H 164.276 -1.99521 3.75595 0
M  V30 1754 N 162.591 -1.51276 -0.441967 0
M  V30 1755 C 163.538 -1.72256 -1.53612 0
M  V30 1756 C 164.508 -0.564164 -1.56225 0
M  V30 1757 O 165.693 -0.798074 -1.73307 0
M  V30 1758 C 162.833 -1.84932 -2.91366 0
M  V30 1759 C 161.946 -3.12459 -2.98317 0
M  V30 1760 C 161.081 -3.15758 -4.27166 0
M  V30 1761 C 160.12 -4.37619 -4.27967 0
M  V30 1762 N 159.257 -4.38493 -5.48333 0
M  V30 1763 H 164.097 -2.65654 -1.35026 0
M  V30 1764 H 161.634 -1.31662 -0.656009 0
M  V30 1765 H 163.592 -1.90263 -3.7129 0
M  V30 1766 H 162.222 -0.949461 -3.08521 0
M  V30 1767 H 161.274 -3.1646 -2.11086 0
M  V30 1768 H 162.586 -4.02382 -2.94771 0
M  V30 1769 H 161.74 -3.19979 -5.15459 0
M  V30 1770 H 160.479 -2.23715 -4.33362 0
M  V30 1771 H 159.484 -4.33579 -3.38067 0
M  V30 1772 H 160.709 -5.30921 -4.23438 0
M  V30 1773 H 158.655 -3.49318 -5.55259 0
M  V30 1774 H 158.572 -5.22219 -5.46647 0
M  V30 1775 H 159.84 -4.469 -6.38671 0
M  V30 1776 N 164.069 0.697108 -1.41344 0
M  V30 1777 C 165.346 1.45154 -1.31109 0
M  V30 1778 C 165.726 2.11009 0.0620449 0
M  V30 1779 O 165.074 2.01571 1.07618 0
M  V30 1780 C 165.284 2.47223 -2.46337 0
M  V30 1781 C 166.632 3.1252 -2.87431 0
M  V30 1782 O 167.656 2.57547 -2.46065 0
M  V30 1783 O 166.515 4.12083 -3.58957 0
M  V30 1784 H 163.609 0.646365 -0.515889 0
M  V30 1785 H 166.155 0.727716 -1.53305 0
M  V30 1786 H 164.927 1.97204 -3.37974 0
M  V30 1787 H 164.55 3.27116 -2.2601 0
M  V30 1788 N 165.547 1.27147 0.931209 0
M  V30 1789 C 166.48 1.0389 2.0318 0
M  V30 1790 C 167.458 -0.0395716 1.62552 0
M  V30 1791 O 168.642 0.104867 1.88208 0
M  V30 1792 C 165.769 0.575227 3.3378 0
M  V30 1793 C 164.815 1.64774 3.93385 0
M  V30 1794 S 165.648 3.23933 4.26413 0
M  V30 1795 C 166.804 2.79358 5.60098 0
M  V30 1796 H 167.037 1.97075 2.22596 0
M  V30 1797 H 164.57 1.10938 1.07387 0
M  V30 1798 H 166.528 0.314385 4.09294 0
M  V30 1799 H 165.189 -0.336505 3.12292 0
M  V30 1800 H 164.382 1.27454 4.87618 0
M  V30 1801 H 163.984 1.86048 3.24441 0
M  V30 1802 H 166.276 2.24443 6.39243 0
M  V30 1803 H 167.219 3.72322 6.02314 0
M  V30 1804 H 167.627 2.1861 5.20452 0
M  V30 1805 N 167.025 -1.13721 1.09112 0
M  V30 1806 C 167.935 -2.22638 0.73957 0
M  V30 1807 C 168.951 -1.72091 -0.257068 0
M  V30 1808 O 170.127 -2.01155 -0.0992154 0
M  V30 1809 C 167.192 -3.46322 0.16191 0
M  V30 1810 C 166.253 -4.11775 1.21408 0
M  V30 1811 C 165.486 -5.29555 0.663891 0
M  V30 1812 O 165.709 -5.68077 -0.514274 0
M  V30 1813 O 164.643 -5.84973 1.41738 0
M  V30 1814 H 168.469 -2.55074 1.64836 0
M  V30 1815 H 166.054 -1.21791 0.865289 0
M  V30 1816 H 167.936 -4.21107 -0.157073 0
M  V30 1817 H 166.611 -3.15593 -0.719932 0
M  V30 1818 H 165.518 -3.3883 1.58571 0
M  V30 1819 H 166.851 -4.46627 2.06845 0
M  V30 1820 N 168.503 -0.877838 -1.30888 0
M  V30 1821 C 169.733 -0.506678 -2.00291 0
M  V30 1822 C 170.141 0.907449 -1.66018 0
M  V30 1823 O 169.484 1.60719 -0.88967 0
M  V30 1824 C 169.546 -0.59323 -3.54572 0
M  V30 1825 C 169.21 -1.97038 -4.12341 0
M  V30 1826 C 170.207 -2.93889 -4.28865 0
M  V30 1827 C 167.892 -2.27383 -4.47886 0
M  V30 1828 C 169.886 -4.19224 -4.80136 0
M  V30 1829 C 167.573 -3.52965 -4.98857 0
M  V30 1830 C 168.571 -4.48701 -5.14934 0
M  V30 1831 O 168.259 -5.72056 -5.64808 0
M  V30 1832 H 167.991 -0.1951 -0.647234 0
M  V30 1833 H 170.545 -1.18301 -1.6791 0
M  V30 1834 H 168.775 0.140057 -3.86446 0
M  V30 1835 H 170.464 -0.234372 -4.05223 0
M  V30 1836 H 171.23 -2.71756 -4.01714 0
M  V30 1837 H 167.109 -1.53639 -4.34645 0
M  V30 1838 H 170.653 -4.93956 -4.92599 0
M  V30 1839 H 166.55 -3.74939 -5.25443 0
M  V30 1840 H 167.318 -5.74337 -5.83163 0
M  V30 1841 N 169.982 1.44106 -0.638065 0
M  V30 1842 C 171.229 2.01978 -0.14533 0
M  V30 1843 C 171.557 1.50234 1.23532 0
M  V30 1844 O 170.812 0.679548 1.83523 0
M  V30 1845 C 171.111 3.5729 -0.0887327 0
M  V30 1846 C 170.777 4.28317 -1.40909 0
M  V30 1847 C 169.439 4.47437 -1.77069 0
M  V30 1848 C 171.791 4.6867 -2.28031 0
M  V30 1849 C 169.119 5.04171 -3.00047 0
M  V30 1850 C 171.471 5.26766 -3.50286 0
M  V30 1851 C 170.135 5.44104 -3.86661 0
M  V30 1852 H 169.405 0.739089 -0.0531801 0
M  V30 1853 H 172.052 1.72781 -0.825761 0
M  V30 1854 H 170.357 3.8594 0.675095 0
M  V30 1855 H 172.054 3.99807 0.309145 0
M  V30 1856 H 168.644 4.1377 -1.1177 0
M  V30 1857 H 172.828 4.53604 -2.01388 0
M  V30 1858 H 168.084 5.15782 -3.28298 0
M  V30 1859 H 172.258 5.56983 -4.18023 0
M  V30 1860 H 169.885 5.87832 -4.82034 0
M  V30 1861 N 171.46 0.379036 1.52974 0
M  V30 1862 C 172.707 -0.206421 2.01445 0
M  V30 1863 C 173.035 -1.47668 1.26587 0
M  V30 1864 O 172.29 -1.92514 0.351675 0
M  V30 1865 C 172.589 -0.53096 3.53434 0
M  V30 1866 C 172.255 0.646546 4.46241 0
M  V30 1867 C 170.917 0.969604 4.7133 0
M  V30 1868 C 173.269 1.43479 5.01062 0
M  V30 1869 C 170.597 2.08263 5.48492 0
M  V30 1870 C 172.949 2.53834 5.7944 0
M  V30 1871 C 171.613 2.86659 6.02812 0
M  V30 1872 H 170.883 -0.0755349 0.73714 0
M  V30 1873 H 173.53 0.514271 1.84465 0
M  V30 1874 H 171.835 -1.33285 3.68432 0
M  V30 1875 H 173.532 -0.996417 3.88423 0
M  V30 1876 H 170.122 0.384734 4.2687 0
M  V30 1877 H 174.306 1.19844 4.81613 0
M  V30 1878 H 169.562 2.34078 5.64816 0
M  V30 1879 H 173.736 3.15319 6.20924 0
M  V30 1880 H 171.363 3.73026 6.62387 0
M  V30 1881 N 172.938 -1.57226 0.108567 0
M  V30 1882 C 174.186 -1.94448 -0.550853 0
M  V30 1883 C 174.507 -0.992074 -1.67878 0
M  V30 1884 O 173.777 -0.0465 -1.95845 0
M  V30 1885 H 172.357 -0.717897 -0.206479 0
M  V30 1886 H 175.019 -1.94112 0.175062 0
M  V30 1887 H 174.115 -2.97218 -0.952259 0
M  V30 1888 N 174.416 0.165178 -1.56732 0
M  V30 1889 C 175.326 1.22423 -2.00125 0
M  V30 1890 C 176.342 1.48084 -0.913619 0
M  V30 1891 O 177.518 1.60112 -1.22172 0
M  V30 1892 C 174.583 2.54197 -2.35764 0
M  V30 1893 C 173.644 2.36343 -3.58386 0
M  V30 1894 C 172.877 3.61834 -3.92316 0
M  V30 1895 O 173.1 4.67267 -3.27135 0
M  V30 1896 O 172.034 3.55579 -4.85641 0
M  V30 1897 H 175.86 0.885886 -2.90492 0
M  V30 1898 H 173.445 0.372518 -1.44681 0
M  V30 1899 H 175.327 3.3192 -2.59629 0
M  V30 1900 H 174.002 2.87598 -1.48557 0
M  V30 1901 H 172.909 1.56632 -3.39731 0
M  V30 1902 H 174.242 2.07865 -4.46154 0
M  V30 1903 N 175.894 1.51508 0.433938 0
M  V30 1904 C 176.842 1.73646 1.54757 0
M  V30 1905 C 177.836 0.602854 1.5831 0
M  V30 1906 O 179.042 0.784318 1.62014 0
M  V30 1907 H 175.417 0.548718 0.51421 0
M  V30 1908 H 177.388 2.66991 1.33261 0
M  V30 1909 C 176.137 1.88172 2.92381 0
M  V30 1910 H 175.46 2.74808 2.90381 0
M  V30 1911 H 176.9 2.07672 3.6966 0
M  V30 1912 C 175.359 0.64239 3.30719 0
M  V30 1913 O 175.889 -0.201362 4.01195 0
M  V30 1914 N 174.095 0.485489 2.86516 0
M  V30 1915 H 173.642 1.17318 2.29334 0
M  V30 1916 H 173.6 -0.342482 3.12529 0
M  V30 1917 N 177.372 -0.689602 1.41712 0
M  V30 1918 C 178.618 -1.45041 1.42599 0
M  V30 1919 C 178.973 -1.92366 0.0363764 0
M  V30 1920 O 178.266 -1.67022 -0.938844 0
M  V30 1921 C 178.46 -2.67298 2.37247 0
M  V30 1922 C 178.289 -2.31935 3.85274 0
M  V30 1923 C 177.059 -2.2201 4.53916 0
M  V30 1924 C 179.257 -1.94526 4.76093 0
M  V30 1925 N 177.239 -1.79594 5.87043 0
M  V30 1926 C 178.61 -1.62915 5.98213 0
M  V30 1927 C 180.665 -1.81388 4.63684 0
M  V30 1928 C 179.368 -1.19486 7.09306 0
M  V30 1929 C 181.394 -1.39364 5.74745 0
M  V30 1930 C 180.756 -1.08668 6.95967 0
M  V30 1931 H 176.855 -0.527806 0.577014 0
M  V30 1932 H 179.439 -0.797266 1.77628 0
M  V30 1933 H 177.61 -3.30325 2.04304 0
M  V30 1934 H 179.342 -3.33806 2.28814 0
M  V30 1935 H 176.097 -2.406 4.07932 0
M  V30 1936 H 176.521 -1.60851 6.57614 0
M  V30 1937 H 181.163 -2.03772 3.70455 0
M  V30 1938 H 178.881 -0.958477 8.02396 0
M  V30 1939 H 182.467 -1.2974 5.6715 0
M  V30 1940 H 181.347 -0.766417 7.80446 0
M  V30 1941 N 178.85 -1.27639 -0.924453 0
M  V30 1942 C 179.76 -1.12466 -2.05885 0
M  V30 1943 C 180.776 -0.053869 -1.73917 0
M  V30 1944 O 181.952 -0.261012 -1.99702 0
M  V30 1945 C 179.017 -0.776768 -3.37886 0
M  V30 1946 C 178.078 -1.92878 -3.83532 0
M  V30 1947 C 177.311 -1.59739 -5.09234 0
M  V30 1948 O 177.534 -0.506782 -5.68144 0
M  V30 1949 O 176.468 -2.43761 -5.50331 0
M  V30 1950 H 180.294 -2.07671 -2.21599 0
M  V30 1951 H 177.879 -1.06857 -1.04413 0
M  V30 1952 H 179.761 -0.596229 -4.17161 0
M  V30 1953 H 178.436 0.145732 -3.23372 0
M  V30 1954 H 177.343 -2.1644 -3.0513 0
M  V30 1955 H 178.676 -2.8316 -4.02593 0
M  V30 1956 N 180.328 1.1314 -1.09713 0
M  V30 1957 C 181.238 2.22242 -0.751367 0
M  V30 1958 C 182.254 1.72224 0.247938 0
M  V30 1959 O 183.43 2.01205 0.0885463 0
M  V30 1960 C 180.495 3.46231 -0.180274 0
M  V30 1961 C 179.556 4.11125 -1.2359 0
M  V30 1962 C 178.789 5.29195 -0.691966 0
M  V30 1963 O 179.012 5.68342 0.48414 0
M  V30 1964 O 177.946 5.84214 -1.44838 0
M  V30 1965 H 181.772 2.54197 -1.66186 0
M  V30 1966 H 179.357 1.21331 -0.871735 0
M  V30 1967 H 181.239 4.21185 0.134739 0
M  V30 1968 H 179.914 3.1597 0.703185 0
M  V30 1969 H 178.821 3.37985 -1.60366 0
M  V30 1970 H 180.154 4.45524 -2.09211 0
M  V30 1971 N 181.806 0.884767 1.30421 0
M  V30 1972 C 182.738 0.308655 2.27112 0
M  V30 1973 C 183.751 -0.536655 1.53701 0
M  V30 1974 O 184.94 -0.35624 1.74909 0
M  V30 1975 C 182.04 -0.579782 3.33904 0
M  V30 1976 C 181.213 0.236417 4.36761 0
M  V30 1977 C 180.272 -0.582482 5.22966 0
M  V30 1978 O 179.298 -0.00525502 5.692 0
M  V30 1979 N 180.5 -1.89163 5.48815 0
M  V30 1980 H 183.265 1.13964 2.77186 0
M  V30 1981 H 180.826 0.747731 1.43599 0
M  V30 1982 H 182.818 -1.13366 3.88497 0
M  V30 1983 H 181.388 -1.31144 2.83761 0
M  V30 1984 H 180.608 0.97174 3.82035 0
M  V30 1985 H 181.896 0.795924 5.02536 0
M  V30 1986 H 181.294 -2.38352 5.13035 0
M  V30 1987 H 179.851 -2.39296 6.06284 0
M  V30 1988 N 183.284 -1.43765 0.645699 0
M  V30 1989 C 184.53 -2.02197 0.156271 0
M  V30 1990 C 184.863 -1.50776 -1.22393 0
M  V30 1991 O 184.138 -0.697771 -1.81553 0
M  V30 1992 C 184.421 -3.59749 0.158872 0
M  V30 1993 C 184.274 -4.21419 1.57245 0
M  V30 1994 C 185.593 -4.37149 -0.50879 0
M  V30 1995 H 182.712 -0.734694 0.0582602 0
M  V30 1996 H 185.354 -1.71157 0.824951 0
M  V30 1997 H 183.504 -3.86325 -0.410525 0
M  V30 1998 H 185.176 -4.059 2.19186 0
M  V30 1999 H 183.419 -3.78356 2.122 0
M  V30 2000 H 184.09 -5.30482 1.52619 0
M  V30 2001 H 186.566 -4.16093 -0.024412 0
M  V30 2002 H 185.442 -5.4683 -0.476213 0
M  V30 2003 H 185.703 -4.12839 -1.58165 0
M  V30 2004 N 184.763 -0.387143 -1.52771 0
M  V30 2005 C 185.695 0.484089 -2.2403 0
M  V30 2006 C 186.708 1.02849 -1.26198 0
M  V30 2007 O 187.897 0.931186 -1.52286 0
M  V30 2008 C 184.997 1.68337 -2.94136 0
M  V30 2009 C 184.17 1.26672 -4.18656 0
M  V30 2010 C 183.229 2.33045 -4.7178 0
M  V30 2011 O 182.255 1.94541 -5.34923 0
M  V30 2012 N 183.457 3.64929 -4.5145 0
M  V30 2013 H 186.222 -0.126404 -2.99433 0
M  V30 2014 H 183.783 -0.213392 -1.60488 0
M  V30 2015 H 185.775 2.39019 -3.26577 0
M  V30 2016 H 184.345 2.20025 -2.22053 0
M  V30 2017 H 183.565 0.388878 -3.92277 0
M  V30 2018 H 184.853 0.964964 -4.99566 0
M  V30 2019 H 184.251 3.98974 -4.01044 0
M  V30 2020 H 182.808 4.31651 -4.88386 0
M  V30 2021 N 186.241 1.57166 -0.116904 0
M  V30 2022 C 187.481 1.97008 0.544715 0
M  V30 2023 C 187.845 0.998713 1.63981 0
M  V30 2024 O 189.046 1.28644 2.36018 0
M  V30 2025 C 187.317 3.41145 1.06559 0
M  V30 2026 S 188.876 4.02998 1.73603 0
M  V30 2027 H 185.694 0.688587 0.177112 0
M  V30 2028 H 188.296 1.94459 -0.201487 0
M  V30 2029 H 187 4.09592 0.257374 0
M  V30 2030 H 186.531 3.4734 1.84712 0
M  V30 2031 H 188.546 3.93585 3.02168 0
M  V30 2032 N 187.719 -0.156864 1.56817 0
M  V30 2033 C 189.13 -0.717916 1.72345 0
M  V30 2034 C 189.481 -1.82124 0.729747 0
M  V30 2035 O 188.606 -2.16141 -0.105781 0
M  V30 2036 C 189.201 -1.30904 3.12489 0
M  V30 2037 C 187.76 -1.81676 3.29653 0
M  V30 2038 C 186.907 -0.701349 2.68284 0
M  V30 2039 H 189.858 0.0686989 1.58551 0
M  V30 2040 H 189.879 -2.17882 3.11942 0
M  V30 2041 H 189.391 -0.505796 3.8479 0
M  V30 2042 H 187.492 -2.64598 2.62333 0
M  V30 2043 H 187.605 -1.95226 4.3752 0
M  V30 2044 H 185.969 -1.12548 2.28484 0
M  V30 2045 H 186.752 0.0902846 3.43181 0
M  V30 2046 N 189.197 -1.51736 -0.425897 0
M  V30 2047 C 190.144 -1.73875 -1.51776 0
M  V30 2048 C 191.114 -0.580702 -1.55618 0
M  V30 2049 O 192.299 -0.81641 -1.72451 0
M  V30 2050 C 189.439 -1.88012 -2.89388 0
M  V30 2051 C 188.552 -3.15606 -2.94986 0
M  V30 2052 C 187.687 -3.20271 -4.23793 0
M  V30 2053 C 186.726 -4.42134 -4.23302 0
M  V30 2054 N 185.863 -4.44284 -5.43651 0
M  V30 2055 H 190.703 -2.67071 -1.32201 0
M  V30 2056 H 188.24 -1.32351 -0.642008 0
M  V30 2057 H 190.198 -1.9419 -3.69251 0
M  V30 2058 H 188.828 -0.98213 -3.07496 0
M  V30 2059 H 187.88 -3.18681 -2.07717 0
M  V30 2060 H 189.192 -4.05486 -2.90486 0
M  V30 2061 H 188.346 -3.25428 -5.12036 0
M  V30 2062 H 187.085 -2.28299 -4.30965 0
M  V30 2063 H 186.09 -4.3714 -3.3345 0
M  V30 2064 H 187.315 -5.35382 -4.17783 0
M  V30 2065 H 185.261 -3.55188 -5.51523 0
M  V30 2066 H 185.178 -5.27988 -5.41078 0
M  V30 2067 H 186.446 -4.53649 -6.33895 0
M  V30 2068 N 190.675 0.682077 -1.42076 0
M  V30 2069 C 191.638 1.77756 -1.44691 0
M  V30 2070 C 192.638 1.5726 -0.335535 0
M  V30 2071 O 193.828 1.63686 -0.596037 0
M  V30 2072 C 190.96 3.16301 -1.27146 0
M  V30 2073 H 192.153 1.76826 -2.42224 0
M  V30 2074 H 189.706 0.891012 -1.28416 0
M  V30 2075 H 190.441 3.22862 -0.305075 0
M  V30 2076 H 190.226 3.32581 -2.07683 0
M  V30 2077 H 191.716 3.96241 -1.31843 0
M  V30 2078 N 192.153 1.28127 0.917671 0
M  V30 2079 C 193.116 1.11744 2.00115 0
M  V30 2080 C 194.116 0.0583052 1.60694 0
M  V30 2081 O 195.306 0.303755 1.71531 0
M  V30 2082 C 192.438 0.704862 3.33533 0
M  V30 2083 H 193.631 2.07966 2.16079 0
M  V30 2084 H 191.184 1.11058 1.09981 0
M  V30 2085 H 191.919 -0.258299 3.2327 0
M  V30 2086 H 191.704 1.4699 3.63505 0
M  V30 2087 H 193.194 0.612768 4.1308 0
M  V30 2088 N 193.631 -1.12557 1.10312 0
M  V30 2089 C 194.563 -2.17971 0.708625 0
M  V30 2090 C 195.576 -1.60806 -0.254027 0
M  V30 2091 O 196.765 -1.78458 -0.0386891 0
M  V30 2092 C 193.865 -3.38891 0.0248198 0
M  V30 2093 C 193.038 -4.25548 1.01132 0
M  V30 2094 C 192.097 -5.24972 0.35924 0
M  V30 2095 O 191.123 -5.60174 1.00965 0
M  V30 2096 N 192.325 -5.73747 -0.882847 0
M  V30 2097 H 195.09 -2.52427 1.61557 0
M  V30 2098 H 192.651 -1.27967 0.991771 0
M  V30 2099 H 194.643 -4.02485 -0.422852 0
M  V30 2100 H 193.213 -3.02596 -0.784514 0
M  V30 2101 H 192.433 -3.58589 1.6373 0
M  V30 2102 H 193.721 -4.80294 1.67914 0
M  V30 2103 H 193.119 -5.4731 -1.43065 0
M  V30 2104 H 191.676 -6.39234 -1.27369 0
M  V30 2105 N 195.109 -0.891671 -1.2995 0
M  V30 2106 C 196.056 -0.361736 -2.27948 0
M  V30 2107 C 197.026 0.551761 -1.56668 0
M  V30 2108 O 198.211 0.478736 -1.84696 0
M  V30 2109 C 195.351 0.411825 -3.42634 0
M  V30 2110 C 194.464 -0.531651 -4.28716 0
M  V30 2111 C 193.599 0.258167 -5.30572 0
M  V30 2112 C 192.638 -0.680349 -6.08307 0
M  V30 2113 N 191.775 0.0745613 -7.0206 0
M  V30 2114 H 196.615 -1.20254 -2.72659 0
M  V30 2115 H 194.152 -0.604352 -1.34112 0
M  V30 2116 H 196.11 0.876304 -4.07893 0
M  V30 2117 H 194.74 1.21715 -2.98974 0
M  V30 2118 H 193.792 -1.11463 -3.63703 0
M  V30 2119 H 195.104 -1.25038 -4.82874 0
M  V30 2120 H 194.258 0.784204 -6.0161 0
M  V30 2121 H 192.997 1.01008 -4.77126 0
M  V30 2122 H 192.002 -1.21796 -5.3614 0
M  V30 2123 H 193.227 -1.43145 -6.63842 0
M  V30 2124 H 191.173 0.808883 -6.50994 0
M  V30 2125 H 191.09 -0.584409 -7.53738 0
M  V30 2126 H 192.358 0.581123 -7.77331 0
M  V30 2127 N 196.587 1.43421 -0.653314 0
M  V30 2128 C 197.817 2.05864 -0.174238 0
M  V30 2129 C 198.225 1.49052 1.16534 0
M  V30 2130 O 197.568 0.616481 1.73047 0
M  V30 2131 C 197.63 3.59499 -0.00875873 0
M  V30 2132 C 197.294 4.38893 -1.27364 0
M  V30 2133 C 198.291 4.70947 -2.20239 0
M  V30 2134 C 195.976 4.789 -1.51525 0
M  V30 2135 C 197.97 5.41916 -3.35568 0
M  V30 2136 C 195.657 5.49614 -2.67147 0
M  V30 2137 C 196.655 5.81044 -3.58994 0
M  V30 2138 O 196.343 6.50313 -4.72597 0
M  V30 2139 H 196.075 0.670345 -0.0872549 0
M  V30 2140 H 198.629 1.84913 -0.894226 0
M  V30 2141 H 196.859 3.79025 0.7666 0
M  V30 2142 H 198.548 4.0364 0.427687 0
M  V30 2143 H 199.314 4.40558 -2.02815 0
M  V30 2144 H 195.193 4.53843 -0.809158 0
M  V30 2145 H 198.737 5.66365 -4.07279 0
M  V30 2146 H 194.634 5.79419 -2.84505 0
M  V30 2147 H 195.402 6.68795 -4.71864 0
M  V30 2148 N 198.065 0.39524 1.52563 0
M  V30 2149 C 199.311 -0.185318 2.01952 0
M  V30 2150 C 199.644 -1.45964 1.28095 0
M  V30 2151 O 198.919 -1.90689 0.38315 0
M  V30 2152 C 199.202 -0.447193 3.57312 0
M  V30 2153 C 199.055 0.842828 4.41833 0
M  V30 2154 C 200.374 -1.23529 4.22408 0
M  V30 2155 H 197.493 -0.0658788 0.73405 0
M  V30 2156 H 200.135 0.525975 1.82575 0
M  V30 2157 H 198.285 -1.05312 3.73954 0
M  V30 2158 H 199.957 1.4795 4.36931 0
M  V30 2159 H 198.2 1.45686 4.08605 0
M  V30 2160 H 198.871 0.614165 5.48573 0
M  V30 2161 H 201.347 -0.722445 4.0978 0
M  V30 2162 H 200.223 -1.38727 5.3108 0
M  V30 2163 H 200.484 -2.25213 3.80436 0
M  V30 2164 N 199.544 -1.57102 0.125237 0
M  V30 2165 C 200.454 -2.19191 -0.8362 0
M  V30 2166 C 201.47 -1.16985 -1.28805 0
M  V30 2167 O 202.646 -1.49479 -1.34974 0
M  V30 2168 C 199.711 -2.78407 -2.06617 0
M  V30 2169 C 198.772 -3.9567 -1.66565 0
M  V30 2170 C 198.005 -4.52052 -2.83698 0
M  V30 2171 O 198.228 -4.07326 -3.99302 0
M  V30 2172 O 197.162 -5.42645 -2.60423 0
M  V30 2173 H 200.988 -3.01816 -0.337776 0
M  V30 2174 H 198.573 -1.4906 -0.100695 0
M  V30 2175 H 200.455 -3.16129 -2.7864 0
M  V30 2176 H 199.13 -1.9881 -2.55453 0
M  V30 2177 H 198.037 -3.62705 -0.916296 0
M  V30 2178 H 199.37 -4.76722 -1.22464 0
M  V30 2179 N 201.022 0.148545 -1.56898 0
M  V30 2180 C 202.438 0.501131 -1.51528 0
M  V30 2181 C 202.638 1.83458 -0.833399 0
M  V30 2182 O 201.694 2.49259 -0.40328 0
M  V30 2183 C 203.007 0.512864 -2.96294 0
M  V30 2184 C 204.555 0.598487 -3.07225 0
M  V30 2185 C 205.03 0.640897 -4.53494 0
M  V30 2186 N 206.521 0.703163 -4.57832 0
M  V30 2187 C 207.256 0.756935 -5.68382 0
M  V30 2188 N 206.752 0.770147 -6.88506 0
M  V30 2189 N 208.545 0.797698 -5.56411 0
M  V30 2190 H 200.696 -0.725532 -1.99624 0
M  V30 2191 H 202.959 -0.264358 -0.910395 0
M  V30 2192 H 202.665 -0.398691 -3.49433 0
M  V30 2193 H 202.539 1.35133 -3.52163 0
M  V30 2194 H 204.926 1.50046 -2.54106 0
M  V30 2195 H 205.007 -0.267093 -2.54402 0
M  V30 2196 H 204.651 -0.256915 -5.0725 0
M  V30 2197 H 204.581 1.52295 -5.04097 0
M  V30 2198 H 207.072 0.700314 -3.71354 0
M  V30 2199 H 207.385 0.812983 -7.68512 0
M  V30 2200 H 205.73 0.738049 -6.9107 0
M  V30 2201 H 208.921 0.784535 -4.61479 0
M  V30 2202 H 209.094 0.83614 -6.42583 0
M  V30 2203 N 202.5 1.5196 0.417844 0
M  V30 2204 C 203.749 1.6482 1.16264 0
M  V30 2205 C 204.062 0.379886 1.91876 0
M  V30 2206 O 205.268 0.388154 2.68711 0
M  V30 2207 C 203.724 2.91161 2.1155 0
M  V30 2208 C 203.332 4.25068 1.41495 0
M  V30 2209 C 205.076 3.13383 2.86341 0
M  V30 2210 C 202.983 5.42541 2.35379 0
M  V30 2211 H 201.913 0.613954 0.437694 0
M  V30 2212 H 204.564 1.78442 0.427871 0
M  V30 2213 H 202.946 2.71218 2.88543 0
M  V30 2214 H 204.12 4.55463 0.699263 0
M  V30 2215 H 202.435 4.0888 0.787792 0
M  V30 2216 H 205.032 3.98324 3.5671 0
M  V30 2217 H 205.375 2.27256 3.48798 0
M  V30 2218 H 205.908 3.33757 2.1645 0
M  V30 2219 H 202.647 6.30987 1.77582 0
M  V30 2220 H 202.167 5.16497 3.04945 0
M  V30 2221 H 203.846 5.75272 2.96093 0
M  V30 2222 N 203.978 -0.674533 1.42435 0
M  V30 2223 C 204.928 -1.7807 1.4239 0
M  V30 2224 C 205.912 -1.58169 0.295202 0
M  V30 2225 O 207.104 -1.68643 0.537449 0
M  V30 2226 C 204.233 -3.16532 1.32901 0
M  V30 2227 C 203.319 -3.42055 2.50717 0
M  V30 2228 N 203.71 -3.38162 3.76139 0
M  V30 2229 C 202.008 -3.72692 2.44983 0
M  V30 2230 C 202.709 -3.63177 4.54398 0
M  V30 2231 N 201.685 -3.83954 3.84812 0
M  V30 2232 H 205.487 -1.73454 2.37257 0
M  V30 2233 H 203.001 -0.875381 1.36788 0
M  V30 2234 H 204.998 -3.958 1.30951 0
M  V30 2235 H 203.658 -3.22345 0.390363 0
M  V30 2236 H 204.669 -3.18057 4.0873 0
M  V30 2237 H 201.346 -3.85749 1.59699 0
M  V30 2238 H 202.736 -3.66125 5.63384 0
M  V30 2239 N 205.456 -1.28612 -0.910864 0
M  V30 2240 C 206.686 -1.1862 -1.69153 0
M  V30 2241 C 207.094 0.257324 -1.87442 0
M  V30 2242 O 206.437 1.18543 -1.40332 0
M  V30 2243 C 206.499 -1.81606 -3.10257 0
M  V30 2244 C 206.163 -3.30864 -3.15243 0
M  V30 2245 C 207.16 -4.27256 -2.96223 0
M  V30 2246 C 204.845 -3.71871 -3.37664 0
M  V30 2247 C 206.839 -5.62631 -2.99541 0
M  V30 2248 C 204.526 -5.07371 -3.40614 0
M  V30 2249 C 205.524 -6.02561 -3.21573 0
M  V30 2250 O 205.212 -7.35589 -3.2429 0
M  V30 2251 H 204.944 -0.412633 -0.535453 0
M  V30 2252 H 207.498 -1.70306 -1.14827 0
M  V30 2253 H 205.728 -1.24418 -3.66138 0
M  V30 2254 H 207.417 -1.66092 -3.70362 0
M  V30 2255 H 208.183 -3.9691 -2.78725 0
M  V30 2256 H 204.062 -2.98241 -3.5153 0
M  V30 2257 H 207.606 -6.36907 -2.84597 0
M  V30 2258 H 203.503 -5.37366 -3.57642 0
M  V30 2259 H 204.271 -7.44252 -3.40633 0
M  V30 2260 N 206.934 1.1197 -1.10907 0
M  V30 2261 C 208.183 1.82947 -0.849302 0
M  V30 2262 C 208.496 1.85275 0.627112 0
M  V30 2263 O 209.702 2.52296 1.00295 0
M  V30 2264 C 208.158 3.28529 -1.46959 0
M  V30 2265 C 207.766 3.34546 -2.97965 0
M  V30 2266 C 209.51 4.04443 -1.28942 0
M  V30 2267 C 207.417 4.74491 -3.53004 0
M  V30 2268 H 206.347 0.685477 -0.314065 0
M  V30 2269 H 208.998 1.2604 -1.33365 0
M  V30 2270 H 207.38 3.85333 -0.912917 0
M  V30 2271 H 208.554 2.87654 -3.59989 0
M  V30 2272 H 206.869 2.72108 -3.15192 0
M  V30 2273 H 209.466 5.07787 -1.67502 0
M  V30 2274 H 209.809 4.15656 -0.231456 0
M  V30 2275 H 210.342 3.5401 -1.81443 0
M  V30 2276 H 207.081 4.68474 -4.58489 0
M  V30 2277 H 206.601 5.21816 -2.9575 0
M  V30 2278 H 208.28 5.4344 -3.51115 0
M  V30 2279 N 208.412 0.89855 1.29475 0
M  V30 2280 C 209.66 0.522847 1.9522 0
M  V30 2281 C 209.981 -0.93371 1.71192 0
M  V30 2282 O 209.251 -1.65823 1.04305 0
M  V30 2283 H 207.831 0.190366 0.722336 0
M  V30 2284 H 210.493 1.14459 1.5775 0
M  V30 2285 H 209.589 0.704476 3.04045 0
M  V30 2286 N 209.89 -1.43072 0.660911 0
M  V30 2287 C 210.822 -2.29108 -0.0647641 0
M  V30 2288 C 211.835 -1.42928 -0.779448 0
M  V30 2289 O 213.024 -1.66788 -0.635921 0
M  V30 2290 C 210.124 -3.20032 -1.11503 0
M  V30 2291 C 209.297 -4.34792 -0.476955 0
M  V30 2292 C 208.356 -5.06534 -1.42513 0
M  V30 2293 O 207.382 -5.61538 -0.930771 0
M  V30 2294 N 208.584 -5.1075 -2.75889 0
M  V30 2295 H 211.349 -2.92029 0.673731 0
M  V30 2296 H 208.91 -1.53846 0.50427 0
M  V30 2297 H 210.902 -3.64892 -1.75032 0
M  V30 2298 H 209.472 -2.58658 -1.75541 0
M  V30 2299 H 208.692 -3.92752 0.337572 0
M  V30 2300 H 209.98 -5.0879 -0.0318525 0
M  V30 2301 H 209.378 -4.67447 -3.18606 0
M  V30 2302 H 207.935 -5.59302 -3.347 0
M  V30 2303 N 211.368 -0.403325 -1.52352 0
M  V30 2304 C 212.316 0.439752 -2.28405 0
M  V30 2305 C 213.31 1.05089 -1.32863 0
M  V30 2306 O 214.516 0.989759 -1.50345 0
M  V30 2307 H 210.891 0.160587 -0.734653 0
M  V30 2308 H 212.862 -0.222983 -2.97566 0
M  V30 2309 C 211.611 1.54736 -3.11371 0
M  V30 2310 H 210.934 1.08643 -3.84755 0
M  V30 2311 H 212.374 2.1112 -3.67701 0
M  V30 2312 C 210.833 2.51141 -2.24566 0
M  V30 2313 O 211.363 3.54887 -1.88196 0
M  V30 2314 N 209.569 2.21213 -1.8845 0
M  V30 2315 H 209.116 1.36878 -2.18225 0
M  V30 2316 H 209.074 2.85963 -1.30662 0
M  V30 2317 N 212.846 1.57033 -0.133567 0
M  V30 2318 C 213.756 2.19632 0.824564 0
M  V30 2319 C 214.772 1.17666 1.28182 0
M  V30 2320 O 215.948 1.50193 1.3418 0
M  V30 2321 C 213.013 2.79499 2.05137 0
M  V30 2322 C 212.074 3.96548 1.64464 0
M  V30 2323 C 211.307 4.5355 2.81297 0
M  V30 2324 O 211.53 4.09438 3.97136 0
M  V30 2325 O 210.464 5.44018 2.57542 0
M  V30 2326 H 214.29 3.01991 0.321766 0
M  V30 2327 H 211.875 1.49112 0.0927889 0
M  V30 2328 H 213.757 3.17602 2.7696 0
M  V30 2329 H 212.432 2.00162 2.54395 0
M  V30 2330 H 211.339 3.63186 0.897048 0
M  V30 2331 H 212.672 4.77364 1.19934 0
M  V30 2332 N 214.325 -0.140222 1.56975 0
M  V30 2333 C 215.736 -0.699596 1.73097 0
M  V30 2334 C 216.087 -1.8134 0.749022 0
M  V30 2335 O 215.212 -2.16241 -0.0828503 0
M  V30 2336 C 215.807 -1.27582 3.1386 0
M  V30 2337 C 214.366 -1.78169 3.31561 0
M  V30 2338 C 213.513 -0.672855 2.69013 0
M  V30 2339 H 216.464 0.0855115 1.58469 0
M  V30 2340 H 216.485 -2.14561 3.14235 0
M  V30 2341 H 215.997 -0.464955 3.85305 0
M  V30 2342 H 214.098 -2.61801 2.65124 0
M  V30 2343 H 214.211 -1.90574 4.39566 0
M  V30 2344 H 212.575 -1.10118 2.29665 0
M  V30 2345 H 213.358 0.126679 3.43066 0
M  V30 2346 N 215.803 -1.52179 -0.40978 0
M  V30 2347 C 216.713 -1.78364 -1.52392 0
M  V30 2348 C 217.729 -0.669183 -1.60617 0
M  V30 2349 O 218.905 -0.954518 -1.77344 0
M  V30 2350 C 215.97 -1.92822 -2.88133 0
M  V30 2351 C 215.031 -3.16725 -2.898 0
M  V30 2352 C 214.264 -3.30483 -4.19067 0
M  V30 2353 O 214.487 -2.49522 -5.12928 0
M  V30 2354 O 213.421 -4.2363 -4.27576 0
M  V30 2355 H 217.247 -2.72931 -1.33201 0
M  V30 2356 H 214.832 -1.37016 -0.59557 0
M  V30 2357 H 216.714 -2.04157 -3.68643 0
M  V30 2358 H 215.389 -1.01444 -3.07393 0
M  V30 2359 H 214.296 -3.10848 -2.08146 0
M  V30 2360 H 215.629 -4.07881 -2.75489 0
M  V30 2361 N 217.281 0.66697 -1.42791 0
M  V30 2362 C 218.211 1.79218 -1.49677 0
M  V30 2363 C 219.192 1.66405 -0.352623 0
M  V30 2364 O 220.377 1.85708 -0.567993 0
M  V30 2365 C 217.507 3.17565 -1.40605 0
M  V30 2366 C 216.461 3.45124 -2.53127 0
M  V30 2367 C 215.787 4.83127 -2.29112 0
M  V30 2368 C 217.087 3.41236 -3.95418 0
M  V30 2369 H 218.781 1.73713 -2.43853 0
M  V30 2370 H 216.327 0.83432 -1.17367 0
M  V30 2371 H 218.28 3.96022 -1.44029 0
M  V30 2372 H 217.004 3.23767 -0.429271 0
M  V30 2373 H 215.663 2.69031 -2.49034 0
M  V30 2374 H 215.311 4.85988 -1.29709 0
M  V30 2375 H 215.011 5.02528 -3.04531 0
M  V30 2376 H 216.535 5.63859 -2.34297 0
M  V30 2377 H 217.949 4.09651 -4.01073 0
M  V30 2378 H 216.346 3.72173 -4.70752 0
M  V30 2379 H 217.416 2.39665 -4.21532 0
M  V30 2380 N 218.759 1.29093 0.90403 0
M  V30 2381 C 219.689 1.16401 2.02418 0
M  V30 2382 C 220.67 0.0593085 1.69997 0
M  V30 2383 O 221.855 0.238021 1.92736 0
M  V30 2384 C 218.985 0.835233 3.37107 0
M  V30 2385 C 217.939 1.89578 3.83724 0
M  V30 2386 C 217.265 1.42041 5.15489 0
M  V30 2387 C 218.565 3.30394 4.04521 0
M  V30 2388 H 220.259 2.10109 2.13295 0
M  V30 2389 H 217.805 1.01157 1.02486 0
M  V30 2390 H 219.758 0.733169 4.14973 0
M  V30 2391 H 218.482 -0.137543 3.2631 0
M  V30 2392 H 217.141 1.98715 3.08071 0
M  V30 2393 H 216.789 0.436426 5.01103 0
M  V30 2394 H 216.489 2.12964 5.4765 0
M  V30 2395 H 218.013 1.33176 5.959 0
M  V30 2396 H 219.427 3.24123 4.72882 0
M  V30 2397 H 217.824 3.99237 4.48029 0
M  V30 2398 H 218.894 3.73692 3.09002 0
M  V30 2399 N 220.237 -1.11381 1.11499 0
M  V30 2400 C 221.483 -1.83403 0.865512 0
M  V30 2401 C 221.816 -1.84459 -0.607329 0
M  V30 2402 O 221.091 -1.29811 -1.44842 0
M  V30 2403 C 221.374 -3.30552 1.42855 0
M  V30 2404 C 221.227 -3.37886 2.96906 0
M  V30 2405 C 222.546 -4.26643 1.08 0
M  V30 2406 H 219.665 -0.665879 0.31587 0
M  V30 2407 H 222.307 -1.30601 1.37998 0
M  V30 2408 H 220.457 -3.75648 0.990985 0
M  V30 2409 H 222.129 -3.01343 3.49271 0
M  V30 2410 H 220.372 -2.78088 3.32941 0
M  V30 2411 H 221.043 -4.41458 3.31389 0
M  V30 2412 H 223.519 -3.89729 1.45775 0
M  V30 2413 H 222.395 -5.27986 1.50072 0
M  V30 2414 H 222.656 -4.42099 -0.00915037 0
M  V30 2415 N 221.715 -0.905404 -1.28997 0
M  V30 2416 C 222.678 -0.392253 -2.25819 0
M  V30 2417 C 223.678 0.476753 -1.5357 0
M  V30 2418 O 224.868 0.280994 -1.71919 0
M  V30 2419 C 222 0.438588 -3.38067 0
M  V30 2420 H 223.193 -1.24743 -2.72725 0
M  V30 2421 H 220.746 -0.684051 -1.40536 0
M  V30 2422 H 221.481 1.31352 -2.96508 0
M  V30 2423 H 221.266 -0.184167 -3.91667 0
M  V30 2424 H 222.756 0.78873 -4.10084 0
M  V30 2425 N 223.193 1.4272 -0.668489 0
M  V30 2426 C 224.143 2.27971 0.0363806 0
M  V30 2427 C 225.127 1.40741 0.779794 0
M  V30 2428 O 226.319 1.64245 0.659745 0
M  V30 2429 C 223.448 3.28673 0.991398 0
M  V30 2430 C 222.534 4.23388 0.245658 0
M  V30 2431 N 222.925 5.00267 -0.746069 0
M  V30 2432 C 221.223 4.43355 0.484988 0
M  V30 2433 C 221.924 5.69396 -1.19009 0
M  V30 2434 N 220.9 5.41095 -0.521287 0
M  V30 2435 H 224.702 2.84833 -0.724394 0
M  V30 2436 H 222.216 1.54607 -0.497028 0
M  V30 2437 H 224.213 3.88543 1.51129 0
M  V30 2438 H 222.873 2.73373 1.75207 0
M  V30 2439 H 223.884 5.05525 -1.12537 0
M  V30 2440 H 220.561 3.99104 1.22565 0
M  V30 2441 H 221.951 6.41083 -2.01153 0
M  V30 2442 N 224.671 0.411399 1.52136 0
M  V30 2443 C 225.634 -0.401089 2.25663 0
M  V30 2444 C 226.634 -0.971732 1.28117 0
M  V30 2445 O 227.824 -0.850254 1.52041 0
M  V30 2446 C 224.956 -1.56483 3.02863 0
M  V30 2447 H 226.149 0.24295 2.98914 0
M  V30 2448 H 223.702 0.163968 1.55438 0
M  V30 2449 H 224.437 -2.24567 2.33967 0
M  V30 2450 H 224.222 -1.16211 3.74483 0
M  V30 2451 H 225.712 -2.13951 3.58629 0
M  V30 2452 N 226.149 -1.5696 0.141893 0
M  V30 2453 C 227.379 -2.00031 -0.516828 0
M  V30 2454 C 227.787 -1.02091 -1.59293 0
M  V30 2455 O 227.13 -0.00909657 -1.83698 0
M  V30 2456 C 227.192 -3.39534 -1.1814 0
M  V30 2457 C 226.856 -4.56313 -0.250513 0
M  V30 2458 C 227.853 -5.17295 0.519839 0
M  V30 2459 C 225.538 -5.02061 -0.154907 0
M  V30 2460 C 227.532 -6.2243 1.3733 0
M  V30 2461 C 225.219 -6.07053 0.702161 0
M  V30 2462 C 226.217 -6.67106 1.46487 0
M  V30 2463 O 225.905 -7.70066 2.30767 0
M  V30 2464 H 225.637 -0.661451 -0.139493 0
M  V30 2465 H 228.191 -2.04086 0.231926 0
M  V30 2466 H 226.421 -3.32302 -1.97769 0
M  V30 2467 H 228.11 -3.66745 -1.73933 0
M  V30 2468 H 228.876 -4.82852 0.45598 0
M  V30 2469 H 224.755 -4.5505 -0.7383 0
M  V30 2470 H 228.299 -6.69233 1.96909 0
M  V30 2471 H 224.196 -6.40923 0.76733 0
M  V30 2472 H 224.964 -7.87264 2.23959 0
M  V30 2473 N 227.627 0.131896 -1.57047 0
M  V30 2474 C 228.855 0.856461 -1.88341 0
M  V30 2475 C 229.27 1.74042 -0.731757 0
M  V30 2476 O 228.627 1.80051 0.297945 0
M  V30 2477 C 228.678 1.70064 -3.18999 0
M  V30 2478 O 228.399 0.852278 -4.2973 0
M  V30 2479 C 229.9 2.53148 -3.63911 0
M  V30 2480 H 227.12 0.246885 -0.62393 0
M  V30 2481 H 229.664 0.120152 -2.04147 0
M  V30 2482 H 227.819 2.38984 -3.04902 0
M  V30 2483 H 228.233 1.43329 -5.04537 0
M  V30 2484 H 229.707 3.07931 -4.58129 0
M  V30 2485 H 230.184 3.29901 -2.89935 0
M  V30 2486 H 230.79 1.89492 -3.80753 0
M  V30 2487 N 229.106 1.52395 0.401703 0
M  V30 2488 C 230.522 1.41363 0.740864 0
M  V30 2489 C 230.722 0.523982 1.94568 0
M  V30 2490 O 229.778 -0.00741204 2.52499 0
M  V30 2491 C 231.091 2.84011 0.987847 0
M  V30 2492 C 232.639 2.93404 1.09011 0
M  V30 2493 C 233.114 4.37036 1.3698 0
M  V30 2494 N 234.605 4.40304 1.43829 0
M  V30 2495 C 235.34 5.48508 1.67112 0
M  V30 2496 N 234.836 6.66819 1.87949 0
M  V30 2497 N 236.629 5.36034 1.69187 0
M  V30 2498 H 228.78 2.08765 -0.391262 0
M  V30 2499 H 231.043 0.941265 -0.112798 0
M  V30 2500 H 230.749 3.51265 0.174835 0
M  V30 2501 H 230.623 3.25502 1.906 0
M  V30 2502 H 233.01 2.26325 1.8937 0
M  V30 2503 H 233.091 2.55359 0.15015 0
M  V30 2504 H 232.735 5.04676 0.571353 0
M  V30 2505 H 232.665 4.72623 2.3224 0
M  V30 2506 H 235.156 3.55024 1.29486 0
M  V30 2507 H 235.469 7.45063 2.05185 0
M  V30 2508 H 233.814 6.6987 1.85199 0
M  V30 2509 H 237.005 4.42579 1.52451 0
M  V30 2510 H 237.178 6.20434 1.86993 0
M  V30 2511 N 230.584 -0.659388 1.43143 0
M  V30 2512 C 231.814 -1.44513 1.47646 0
M  V30 2513 C 232.222 -1.88981 0.0910095 0
M  V30 2514 O 231.565 -1.59702 -0.907789 0
M  V30 2515 C 231.627 -2.71663 2.35456 0
M  V30 2516 C 231.291 -2.49175 3.83094 0
M  V30 2517 C 232.288 -2.1279 4.74359 0
M  V30 2518 C 229.973 -2.63691 4.27519 0
M  V30 2519 C 231.967 -1.9121 6.08044 0
M  V30 2520 C 229.654 -2.41726 5.61259 0
M  V30 2521 C 230.652 -2.0554 6.51339 0
M  V30 2522 O 230.34 -1.838 7.82606 0
M  V30 2523 H 230.072 -0.45064 0.503884 0
M  V30 2524 H 232.626 -0.816248 1.88485 0
M  V30 2525 H 230.856 -3.37089 1.89493 0
M  V30 2526 H 232.545 -3.33595 2.31235 0
M  V30 2527 H 233.311 -2.01157 4.41317 0
M  V30 2528 H 229.19 -2.90832 3.57684 0
M  V30 2529 H 232.734 -1.62889 6.78316 0
M  V30 2530 H 228.631 -2.52959 5.9387 0
M  V30 2531 H 229.399 -1.98275 7.94122 0
M  V30 2532 N 232.062 -1.29571 -0.897171 0
M  V30 2533 C 232.995 -1.0924 -2.00354 0
M  V30 2534 C 233.973 -0.00354011 -1.626 0
M  V30 2535 O 235.157 -0.15473 -1.87864 0
M  V30 2536 C 232.284 -0.66352 -3.32137 0
M  V30 2537 C 231.33 -1.75146 -3.88878 0
M  V30 2538 S 232.163 -3.35124 -4.17674 0
M  V30 2539 C 233.319 -2.9411 -5.52494 0
M  V30 2540 H 233.552 -2.02907 -2.17292 0
M  V30 2541 H 231.085 -1.13746 -1.04408 0
M  V30 2542 H 233.043 -0.422791 -4.08317 0
M  V30 2543 H 231.704 0.253588 -3.13075 0
M  V30 2544 H 230.897 -1.40337 -4.84068 0
M  V30 2545 H 230.499 -1.94584 -3.19395 0
M  V30 2546 H 232.791 -2.41312 -6.33068 0
M  V30 2547 H 233.734 -3.88161 -5.9223 0
M  V30 2548 H 234.142 -2.32332 -5.14473 0
M  V30 2549 N 233.54 1.10788 -1.12088 0
M  V30 2550 C 234.788 1.8231 -0.872205 0
M  V30 2551 C 235.109 1.85419 0.603709 0
M  V30 2552 O 234.379 1.32963 1.43867 0
M  V30 2553 H 232.959 0.675137 -0.319686 0
M  V30 2554 H 235.621 1.34068 -1.41463 0
M  V30 2555 H 234.717 2.85955 -1.25045 0
M  V30 2556 N 235.018 0.912232 1.28515 0
M  V30 2557 C 236.295 0.463597 1.90027 0
M  V30 2558 C 236.675 -1.05753 1.82701 0
M  V30 2559 O 236.023 -1.90492 1.26194 0
M  V30 2560 C 236.233 0.992253 3.34597 0
M  V30 2561 C 237.581 1.04344 4.11579 0
M  V30 2562 O 238.605 0.94079 3.43551 0
M  V30 2563 O 237.464 1.1995 5.33174 0
M  V30 2564 H 234.558 0.146666 0.813891 0
M  V30 2565 H 237.104 1.00292 1.36893 0
M  V30 2566 H 235.876 2.03623 3.34146 0
M  V30 2567 H 235.499 0.433672 3.95228 0
M  V30 2568 N 236.496 -1.42363 0.676048 0
M  V30 2569 C 237.426 -2.33497 0.0124832 0
M  V30 2570 C 238.407 -1.50748 -0.787981 0
M  V30 2571 O 239.592 -1.79346 -0.744884 0
M  V30 2572 C 236.722 -3.34377 -0.938582 0
M  V30 2573 C 235.676 -4.27289 -0.246622 0
M  V30 2574 C 235.002 -5.18386 -1.31071 0
M  V30 2575 C 236.302 -5.14916 0.875125 0
M  V30 2576 H 237.996 -2.89233 0.773593 0
M  V30 2577 H 235.542 -1.39073 0.37346 0
M  V30 2578 H 237.495 -3.97044 -1.41188 0
M  V30 2579 H 236.219 -2.76947 -1.73113 0
M  V30 2580 H 234.878 -3.66018 0.206456 0
M  V30 2581 H 234.526 -4.57282 -2.09528 0
M  V30 2582 H 234.226 -5.81378 -0.852839 0
M  V30 2583 H 235.75 -5.83929 -1.78492 0
M  V30 2584 H 237.164 -5.71262 0.482983 0
M  V30 2585 H 235.561 -5.86747 1.25887 0
M  V30 2586 H 236.631 -4.53242 1.72335 0
M  V30 2587 N 237.974 -0.419461 -1.51915 0
M  V30 2588 C 239.199 0.154572 -2.06823 0
M  V30 2589 C 239.624 1.3722 -1.28656 0
M  V30 2590 O 238.982 1.78461 -0.319583 0
M  V30 2591 C 239.03 0.473172 -3.57482 0
M  V30 2592 O 238.134 1.56255 -3.81652 0
M  V30 2593 H 237.475 0.0096924 -0.663929 0
M  V30 2594 H 240.005 -0.595642 -1.95738 0
M  V30 2595 H 240.015 0.728825 -4.01438 0
M  V30 2596 H 238.69 -0.416873 -4.13805 0
M  V30 2597 H 237.267 1.29825 -3.49571 0
M  V30 2598 N 239.452 1.56882 -0.150215 0
M  V30 2599 C 240.7 1.9584 0.499105 0
M  V30 2600 C 241.021 1.03623 1.65188 0
M  V30 2601 O 240.291 0.0984084 1.95653 0
M  V30 2602 H 238.871 0.723119 0.187373 0
M  V30 2603 H 241.533 1.9358 -0.226466 0
M  V30 2604 H 240.629 2.99638 0.873122 0
M  V30 2605 N 240.93 -0.123565 1.57115 0
M  V30 2606 C 242.178 -0.83051 1.84247 0
M  V30 2607 C 242.499 -1.80629 0.73471 0
M  V30 2608 O 241.769 -1.94403 -0.241688 0
M  V30 2609 H 240.349 -0.309694 0.679778 0
M  V30 2610 H 243.011 -0.111976 1.94578 0
M  V30 2611 H 242.107 -1.37852 2.80006 0
M  V30 2612 N 242.408 -1.52605 -0.393616 0
M  V30 2613 C 243.34 -1.73303 -1.49995 0
M  V30 2614 C 244.353 -0.613473 -1.50799 0
M  V30 2615 O 245.542 -0.889049 -1.54784 0
M  V30 2616 C 242.642 -1.77245 -2.88855 0
M  V30 2617 C 241.815 -3.06483 -3.12069 0
M  V30 2618 C 240.874 -3.02033 -4.30886 0
M  V30 2619 O 239.9 -3.75907 -4.27414 0
M  V30 2620 N 241.102 -2.20897 -5.36828 0
M  V30 2621 H 243.867 -2.68756 -1.32629 0
M  V30 2622 H 241.428 -1.51036 -0.583083 0
M  V30 2623 H 243.42 -1.7178 -3.66434 0
M  V30 2624 H 241.99 -0.891993 -2.99603 0
M  V30 2625 H 241.21 -3.25474 -2.22396 0
M  V30 2626 H 242.498 -3.91947 -3.2443 0
M  V30 2627 H 241.896 -1.60336 -5.42502 0
M  V30 2628 H 240.453 -2.21275 -6.13091 0
M  V30 2629 N 243.887 0.651787 -1.4349 0
M  V30 2630 C 245.133 1.41376 -1.45398 0
M  V30 2631 C 245.466 1.94041 -0.0784823 0
M  V30 2632 O 244.741 1.72379 0.900878 0
M  V30 2633 C 245.024 2.59414 -2.49752 0
M  V30 2634 C 244.877 2.12232 -3.96582 0
M  V30 2635 C 246.196 3.61626 -2.50827 0
M  V30 2636 H 243.315 0.512719 -0.529422 0
M  V30 2637 H 245.957 0.738796 -1.75048 0
M  V30 2638 H 244.107 3.16997 -2.246 0
M  V30 2639 H 245.779 1.59639 -4.32797 0
M  V30 2640 H 244.022 1.43592 -4.09346 0
M  V30 2641 H 244.693 2.9712 -4.65214 0
M  V30 2642 H 247.169 3.13805 -2.7325 0
M  V30 2643 H 246.045 4.41766 -3.25783 0
M  V30 2644 H 246.306 4.14314 -1.5426 0
M  V30 2645 N 245.365 1.30045 0.890287 0
M  V30 2646 C 246.295 1.18541 2.01172 0
M  V30 2647 C 247.276 0.0773356 1.69924 0
M  V30 2648 O 248.461 0.25845 1.92473 0
M  V30 2649 C 245.591 0.870941 3.36202 0
M  V30 2650 C 244.545 1.93637 3.81692 0
M  V30 2651 C 243.871 1.475 5.13953 0
M  V30 2652 C 245.171 3.34666 4.00994 0
M  V30 2653 H 246.865 2.12359 2.11054 0
M  V30 2654 H 244.411 1.02238 1.01407 0
M  V30 2655 H 246.364 0.777141 4.14172 0
M  V30 2656 H 245.088 -0.102926 3.26438 0
M  V30 2657 H 243.747 2.01972 3.05946 0
M  V30 2658 H 243.395 0.489551 5.00612 0
M  V30 2659 H 243.095 2.1876 5.4536 0
M  V30 2660 H 244.619 1.39489 5.94454 0
M  V30 2661 H 246.033 3.2912 4.69417 0
M  V30 2662 H 244.43 4.03966 4.43769 0
M  V30 2663 H 245.5 3.76949 3.05021 0
M  V30 2664 N 246.843 -1.10192 1.12674 0
M  V30 2665 C 247.79 -2.16606 0.796906 0
M  V30 2666 C 248.76 -1.64394 -0.237476 0
M  V30 2667 O 249.945 -1.90474 -0.111484 0
M  V30 2668 C 247.085 -3.44116 0.26043 0
M  V30 2669 C 246.198 -4.10268 1.35293 0
M  V30 2670 C 245.333 -5.25507 0.775621 0
M  V30 2671 C 244.372 -5.83567 1.84706 0
M  V30 2672 N 243.509 -6.90179 1.28829 0
M  V30 2673 H 248.349 -2.44163 1.70846 0
M  V30 2674 H 245.886 -1.19846 0.85295 0
M  V30 2675 H 247.844 -4.17143 -0.0686814 0
M  V30 2676 H 246.474 -3.16901 -0.614274 0
M  V30 2677 H 245.526 -3.35184 1.79877 0
M  V30 2678 H 246.838 -4.4946 2.16303 0
M  V30 2679 H 245.992 -6.05398 0.397327 0
M  V30 2680 H 244.731 -4.87656 -0.0656581 0
M  V30 2681 H 243.736 -5.02344 2.23452 0
M  V30 2682 H 244.961 -6.23482 2.69161 0
M  V30 2683 H 242.907 -6.54322 0.468881 0
M  V30 2684 H 242.824 -7.28097 2.03497 0
M  V30 2685 H 244.092 -7.73844 0.937311 0
M  V30 2686 N 248.321 -0.919034 -1.28029 0
M  V30 2687 C 249.268 -0.410005 -2.27129 0
M  V30 2688 C 250.238 0.518405 -1.57803 0
M  V30 2689 O 251.423 0.439451 -1.8567 0
M  V30 2690 C 248.563 0.339054 -3.4343 0
M  V30 2691 C 247.676 -0.622468 -4.27492 0
M  V30 2692 C 246.811 0.145567 -5.31001 0
M  V30 2693 C 245.85 -0.809226 -6.06727 0
M  V30 2694 N 244.987 -0.0743728 -7.02061 0
M  V30 2695 H 249.827 -1.26011 -2.70047 0
M  V30 2696 H 247.364 -0.632663 -1.328 0
M  V30 2697 H 249.322 0.789586 -4.0966 0
M  V30 2698 H 247.952 1.15346 -3.01488 0
M  V30 2699 H 247.004 -1.19153 -3.61257 0
M  V30 2700 H 248.316 -1.35252 -4.80113 0
M  V30 2701 H 247.47 0.656417 -6.03139 0
M  V30 2702 H 246.209 0.908643 -4.79161 0
M  V30 2703 H 245.214 -1.3314 -5.33436 0
M  V30 2704 H 246.439 -1.57194 -6.60656 0
M  V30 2705 H 244.385 0.670616 -6.52563 0
M  V30 2706 H 244.302 -0.744157 -7.52329 0
M  V30 2707 H 245.57 0.416109 -7.78389 0
M  V30 2708 N 249.799 1.42003 -0.683588 0
M  V30 2709 C 251.045 2.01712 -0.209825 0
M  V30 2710 C 251.378 1.53968 1.18353 0
M  V30 2711 O 250.653 0.745661 1.79639 0
M  V30 2712 C 250.936 3.59202 -0.254197 0
M  V30 2713 C 250.789 4.17102 -1.68363 0
M  V30 2714 C 252.108 4.38344 0.392709 0
M  V30 2715 H 249.227 0.732891 -0.0777189 0
M  V30 2716 H 251.869 1.68909 -0.87004 0
M  V30 2717 H 250.019 3.87278 0.307954 0
M  V30 2718 H 251.691 3.99946 -2.29871 0
M  V30 2719 H 249.934 3.72597 -2.22157 0
M  V30 2720 H 250.605 5.26249 -1.6663 0
M  V30 2721 H 253.081 4.16011 -0.0859162 0
M  V30 2722 H 251.957 5.47901 0.331063 0
M  V30 2723 H 252.218 4.16887 1.47164 0
M  V30 2724 N 251.277 0.427512 1.51691 0
M  V30 2725 C 252.24 -0.377132 2.26076 0
M  V30 2726 C 253.24 -0.958089 1.29141 0
M  V30 2727 O 254.43 -0.83408 1.52934 0
M  V30 2728 C 251.562 -1.53262 3.04506 0
M  V30 2729 H 252.755 0.27464 2.9864 0
M  V30 2730 H 250.308 0.180445 1.55255 0
M  V30 2731 H 251.043 -2.22072 2.36335 0
M  V30 2732 H 250.828 -1.12232 3.75694 0
M  V30 2733 H 252.318 -2.10135 3.60878 0
M  V30 2734 N 252.755 -1.56801 0.158532 0
M  V30 2735 C 253.687 -2.14488 -0.807923 0
M  V30 2736 C 254.7 -1.09721 -1.20271 0
M  V30 2737 O 255.889 -1.36956 -1.14478 0
M  V30 2738 C 252.989 -2.66217 -2.09718 0
M  V30 2739 C 252.162 -3.95507 -1.86796 0
M  V30 2740 C 251.221 -4.3243 -2.99818 0
M  V30 2741 O 250.247 -5.00543 -2.71008 0
M  V30 2742 N 251.449 -3.92947 -4.27285 0
M  V30 2743 H 254.214 -2.98042 -0.314816 0
M  V30 2744 H 251.775 -1.61881 -0.0246692 0
M  V30 2745 H 253.767 -2.87924 -2.84398 0
M  V30 2746 H 252.337 -1.87324 -2.50257 0
M  V30 2747 H 251.557 -3.82309 -0.96089 0
M  V30 2748 H 252.845 -4.79972 -1.68833 0
M  V30 2749 H 252.243 -3.38087 -4.53557 0
M  V30 2750 H 250.8 -4.19681 -4.9871 0
M  V30 2751 N 254.233 0.115231 -1.57178 0
M  V30 2752 C 255.649 0.468877 -1.52557 0
M  V30 2753 C 255.849 1.81649 -0.872125 0
M  V30 2754 O 254.905 2.48347 -0.45606 0
M  V30 2755 C 256.218 0.4499 -2.97315 0
M  V30 2756 C 257.766 0.533185 -3.08425 0
M  V30 2757 C 258.241 0.54456 -4.54751 0
M  V30 2758 N 259.732 0.605892 -4.5922 0
M  V30 2759 C 260.467 0.636203 -5.6986 0
M  V30 2760 N 259.963 0.623931 -6.89985 0
M  V30 2761 N 261.756 0.679496 -5.57978 0
M  V30 2762 H 253.907 -0.767712 -1.9804 0
M  V30 2763 H 256.17 -0.283609 -0.904583 0
M  V30 2764 H 255.876 -0.472721 -3.48509 0
M  V30 2765 H 255.75 1.27632 -3.5495 0
M  V30 2766 H 258.137 1.44623 -2.57232 0
M  V30 2767 H 258.218 -0.320995 -2.53778 0
M  V30 2768 H 257.862 -0.364452 -5.06591 0
M  V30 2769 H 257.792 1.41568 -5.07214 0
M  V30 2770 H 260.283 0.621386 -3.72756 0
M  V30 2771 H 260.596 0.649787 -7.70063 0
M  V30 2772 H 258.941 0.591296 -6.9248 0
M  V30 2773 H 262.132 0.686472 -4.63039 0
M  V30 2774 H 262.305 0.69965 -6.44212 0
M  V30 2775 N 255.711 1.52812 0.385517 0
M  V30 2776 C 256.674 1.77188 1.45386 0
M  V30 2777 C 257.674 0.641953 1.4743 0
M  V30 2778 O 258.864 0.910033 1.4854 0
M  V30 2779 C 255.996 1.87582 2.8465 0
M  V30 2780 H 257.189 2.72583 1.25054 0
M  V30 2781 H 254.742 1.43586 0.617467 0
M  V30 2782 H 255.477 0.941849 3.10322 0
M  V30 2783 H 255.262 2.69748 2.84567 0
M  V30 2784 H 256.752 2.08102 3.62054 0
M  V30 2785 N 257.189 -0.644168 1.43834 0
M  V30 2786 C 258.119 -1.76814 1.52509 0
M  V30 2787 C 259.1 -1.65823 0.379052 0
M  V30 2788 O 260.285 -1.84781 0.597466 0
M  V30 2789 C 257.415 -3.15288 1.4564 0
M  V30 2790 C 256.369 -3.41053 2.58586 0
M  V30 2791 C 255.695 -4.79421 2.36769 0
M  V30 2792 C 256.995 -3.34902 4.00797 0
M  V30 2793 H 258.689 -1.69812 2.46586 0
M  V30 2794 H 256.235 -0.815542 1.1868 0
M  V30 2795 H 258.188 -3.93681 1.50311 0
M  V30 2796 H 256.912 -3.23043 0.480725 0
M  V30 2797 H 255.571 -2.65035 2.53282 0
M  V30 2798 H 255.219 -4.83863 1.37424 0
M  V30 2799 H 254.919 -4.9762 3.12487 0
M  V30 2800 H 256.443 -5.6006 2.43238 0
M  V30 2801 H 257.857 -4.03218 4.07539 0
M  V30 2802 H 256.254 -3.64637 4.76613 0
M  V30 2803 H 257.324 -2.32928 4.25291 0
M  V30 2804 N 258.668 -1.30515 -0.883378 0
M  V30 2805 C 259.615 -1.17032 -1.98927 0
M  V30 2806 C 260.585 -0.0594241 -1.65994 0
M  V30 2807 O 261.77 -0.229895 -1.8941 0
M  V30 2808 C 258.91 -0.869777 -3.33959 0
M  V30 2809 C 258.023 -2.06271 -3.79574 0
M  V30 2810 C 257.158 -1.70011 -5.03259 0
M  V30 2811 C 256.197 -2.8579 -5.41286 0
M  V30 2812 N 255.334 -2.49816 -6.56153 0
M  V30 2813 H 260.174 -2.1164 -2.09792 0
M  V30 2814 H 257.711 -1.05296 -1.02719 0
M  V30 2815 H 259.669 -0.676138 -4.11685 0
M  V30 2816 H 258.299 0.0394332 -3.22776 0
M  V30 2817 H 257.351 -2.36755 -2.97744 0
M  V30 2818 H 258.663 -2.92971 -4.03694 0
M  V30 2819 H 257.817 -1.47032 -5.88614 0
M  V30 2820 H 256.556 -0.804829 -4.81013 0
M  V30 2821 H 255.561 -3.09434 -4.54456 0
M  V30 2822 H 256.786 -3.76008 -5.65504 0
M  V30 2823 H 254.732 -1.62795 -6.35479 0
M  V30 2824 H 254.649 -3.30048 -6.8015 0
M  V30 2825 H 255.917 -2.30197 -7.44735 0
M  V30 2826 N 260.146 1.09593 -1.13257 0
M  V30 2827 C 261.076 2.18214 -0.830946 0
M  V30 2828 C 262.057 1.68812 0.208966 0
M  V30 2829 O 263.242 1.9408 0.0682666 0
M  V30 2830 C 260.372 3.46051 -0.294296 0
M  V30 2831 C 259.326 4.08778 -1.26826 0
M  V30 2832 C 258.652 5.31419 -0.591449 0
M  V30 2833 C 259.952 4.51476 -2.62615 0
M  V30 2834 H 261.646 2.43703 -1.73923 0
M  V30 2835 H 259.192 1.17128 -0.837675 0
M  V30 2836 H 261.145 4.2134 -0.0709606 0
M  V30 2837 H 259.869 3.20079 0.649366 0
M  V30 2838 H 258.528 3.35505 -1.47756 0
M  V30 2839 H 258.176 5.01727 0.357633 0
M  V30 2840 H 257.876 5.74341 -1.24123 0
M  V30 2841 H 259.4 6.09433 -0.377355 0
M  V30 2842 H 260.814 5.17999 -2.45663 0
M  V30 2843 H 259.211 5.05277 -3.23752 0
M  V30 2844 H 260.281 3.63962 -3.20406 0
M  V30 2845 N 261.624 0.925811 1.2754 0
M  V30 2846 C 263.035 0.610102 1.7645 0
M  V30 2847 C 263.386 -0.874723 1.75622 0
M  V30 2848 O 262.511 -1.68444 1.35851 0
M  V30 2849 C 263.106 1.10073 3.20421 0
M  V30 2850 C 261.665 0.835723 3.67005 0
M  V30 2851 C 260.812 1.26054 2.46993 0
M  V30 2852 H 263.763 1.10579 1.13833 0
M  V30 2853 H 263.784 0.447557 3.77859 0
M  V30 2854 H 263.296 2.18143 3.20991 0
M  V30 2855 H 261.397 -0.231249 3.71882 0
M  V30 2856 H 261.51 1.45193 4.56569 0
M  V30 2857 H 259.874 0.679111 2.45479 0
M  V30 2858 H 260.657 2.34984 2.50275 0
M  V30 2859 N 263.102 -1.41638 0.69111 0
M  V30 2860 C 264.327 -2.06148 0.227583 0
M  V30 2861 C 264.752 -1.51652 -1.11281 0
M  V30 2862 O 264.11 -0.64164 -1.69566 0
M  V30 2863 C 264.158 -3.60095 0.190858 0
M  V30 2864 O 263.262 -4.03845 -0.835664 0
M  V30 2865 H 262.603 -0.654434 0.112306 0
M  V30 2866 H 265.133 -1.81484 0.944714 0
M  V30 2867 H 265.143 -4.07995 0.020207 0
M  V30 2868 H 263.818 -3.99129 1.16915 0
M  V30 2869 H 262.395 -3.67458 -0.63473 0
M  V30 2870 N 264.58 -0.43555 -1.51462 0
M  V30 2871 C 265.808 0.130242 -2.0649 0
M  V30 2872 C 266.223 1.36614 -1.30315 0
M  V30 2873 O 265.58 1.78869 -0.362223 0
M  V30 2874 C 265.631 0.454253 -3.58635 0
M  V30 2875 O 265.352 -0.73259 -4.31931 0
M  V30 2876 C 266.853 1.07091 -4.3017 0
M  V30 2877 H 264.073 0.00871669 -0.670943 0
M  V30 2878 H 266.617 -0.614117 -1.95061 0
M  V30 2879 H 264.772 1.14851 -3.69984 0
M  V30 2880 H 265.186 -0.455787 -5.22516 0
M  V30 2881 H 266.66 1.24764 -5.37716 0
M  V30 2882 H 267.137 2.05144 -3.88346 0
M  V30 2883 H 267.743 0.416089 -4.2326 0
M  V30 2884 N 266.058 1.56714 -0.166846 0
M  V30 2885 C 267.306 1.96358 0.478305 0
M  V30 2886 C 267.627 1.0537 1.6408 0
M  V30 2887 O 266.897 0.119154 1.95537 0
M  V30 2888 H 265.477 0.725065 0.179692 0
M  V30 2889 H 268.139 1.93329 -0.246985 0
M  V30 2890 H 267.235 3.00547 0.841292 0
M  V30 2891 N 267.536 -0.106894 1.57237 0
M  V30 2892 C 268.446 -1.14911 2.0453 0
M  V30 2893 C 269.462 -1.44592 0.96795 0
M  V30 2894 O 270.638 -1.55468 1.2803 0
M  V30 2895 C 267.703 -2.45272 2.45036 0
M  V30 2896 C 266.764 -2.22879 3.66911 0
M  V30 2897 C 265.997 -3.47024 4.05475 0
M  V30 2898 O 266.22 -4.54804 3.44252 0
M  V30 2899 O 265.154 -3.3731 4.98504 0
M  V30 2900 H 268.98 -0.777461 2.9358 0
M  V30 2901 H 266.565 -0.318563 1.45964 0
M  V30 2902 H 268.447 -3.22055 2.71769 0
M  V30 2903 H 267.122 -2.81886 1.59129 0
M  V30 2904 H 266.029 -1.43915 3.45311 0
M  V30 2905 H 267.362 -1.91163 4.53561 0
M  V30 2906 N 269.014 -1.53014 -0.377408 0
M  V30 2907 C 270.262 -1.6829 -1.11906 0
M  V30 2908 C 270.583 -0.431206 -1.90173 0
M  V30 2909 O 269.853 0.554595 -1.87886 0
M  V30 2910 H 268.433 -0.620371 -0.416112 0
M  V30 2911 H 271.095 -1.90167 -0.426893 0
M  V30 2912 H 270.191 -2.53862 -1.8155 0
M  V30 2913 N 270.492 0.636531 -1.44174 0
M  V30 2914 C 271.72 1.42353 -1.50144 0
M  V30 2915 C 272.135 1.88389 -0.124575 0
M  V30 2916 O 271.492 1.6051 0.868489 0
M  V30 2917 C 271.543 2.64744 -2.46156 0
M  V30 2918 O 271.264 2.20629 -3.7849 0
M  V30 2919 C 272.765 3.57929 -2.61537 0
M  V30 2920 H 269.985 0.436752 -0.5094 0
M  V30 2921 H 272.529 0.778933 -1.89084 0
M  V30 2922 H 270.684 3.25307 -2.10366 0
M  V30 2923 H 271.098 2.99938 -4.30276 0
M  V30 2924 H 272.572 4.40428 -3.32757 0
M  V30 2925 H 273.049 4.06382 -1.66585 0
M  V30 2926 H 273.655 3.03238 -2.98206 0
M  V30 2927 N 271.97 1.30982 0.876444 0
M  V30 2928 C 272.902 1.13902 1.98894 0
M  V30 2929 C 273.915 0.0798815 1.62604 0
M  V30 2930 O 275.104 0.326743 1.75484 0
M  V30 2931 C 272.204 0.716699 3.31235 0
M  V30 2932 C 271.377 1.85945 3.95908 0
M  V30 2933 C 270.436 1.42426 5.06558 0
M  V30 2934 O 269.462 2.13287 5.27729 0
M  V30 2935 N 270.664 0.308025 5.79682 0
M  V30 2936 H 273.429 2.09724 2.14094 0
M  V30 2937 H 270.99 1.2323 1.05004 0
M  V30 2938 H 272.982 0.408403 4.02634 0
M  V30 2939 H 271.552 -0.149719 3.12241 0
M  V30 2940 H 270.772 2.33541 3.17573 0
M  V30 2941 H 272.06 2.62503 4.35855 0
M  V30 2942 H 271.458 -0.282241 5.64995 0
M  V30 2943 H 270.015 0.0592282 6.51773 0
M  V30 2944 N 273.449 -1.08991 1.13837 0
M  V30 2945 C 274.696 -1.81258 0.902882 0
M  V30 2946 C 275.024 -1.85936 -0.570803 0
M  V30 2947 O 274.279 -1.3267 -1.43865 0
M  V30 2948 C 274.578 -3.27042 1.44147 0
M  V30 2949 C 274.244 -3.4249 2.93276 0
M  V30 2950 C 272.906 -3.46414 3.33992 0
M  V30 2951 C 275.258 -3.4666 3.892 0
M  V30 2952 C 272.586 -3.52091 4.69307 0
M  V30 2953 C 274.938 -3.53872 5.24364 0
M  V30 2954 C 273.602 -3.56066 5.646 0
M  V30 2955 H 272.872 -0.663268 0.330388 0
M  V30 2956 H 275.519 -1.28368 1.42105 0
M  V30 2957 H 273.824 -3.82599 0.844097 0
M  V30 2958 H 275.521 -3.81499 1.23528 0
M  V30 2959 H 272.111 -3.40124 2.60794 0
M  V30 2960 H 276.295 -3.42865 3.58828 0
M  V30 2961 H 271.551 -3.52079 4.9985 0
M  V30 2962 H 275.725 -3.56043 5.98503 0
M  V30 2963 H 273.352 -3.60218 6.69438 0
M  V30 2964 N 274.927 -0.932562 -1.27047 0
M  V30 2965 C 276.157 -0.591173 -1.97961 0
M  V30 2966 C 276.565 0.836219 -1.69717 0
M  V30 2967 O 275.908 1.56801 -0.957036 0
M  V30 2968 C 275.97 -0.743082 -3.51736 0
M  V30 2969 C 275.634 -2.1435 -4.03613 0
M  V30 2970 C 276.631 -3.11815 -4.16014 0
M  V30 2971 C 274.316 -2.46175 -4.37839 0
M  V30 2972 C 276.31 -4.39211 -4.61923 0
M  V30 2973 C 273.997 -3.73806 -4.83438 0
M  V30 2974 C 274.995 -4.70137 -4.95439 0
M  V30 2975 O 274.683 -5.95496 -5.40037 0
M  V30 2976 H 274.415 -0.222375 -0.638377 0
M  V30 2977 H 276.969 -1.25317 -1.62742 0
M  V30 2978 H 275.199 -0.0239739 -3.86693 0
M  V30 2979 H 276.888 -0.40603 -4.03864 0
M  V30 2980 H 277.654 -2.88549 -3.89826 0
M  V30 2981 H 273.533 -1.71936 -4.27737 0
M  V30 2982 H 277.077 -5.14404 -4.71205 0
M  V30 2983 H 272.974 -3.96888 -5.09068 0
M  V30 2984 H 273.742 -5.98554 -5.58279 0
M  V30 2985 N 276.405 1.4127 -0.698611 0
M  V30 2986 C 277.335 2.33447 -0.049629 0
M  V30 2987 C 278.316 1.51982 0.763898 0
M  V30 2988 O 279.501 1.80509 0.716257 0
M  V30 2989 C 276.631 3.35828 0.885267 0
M  V30 2990 C 275.585 4.27627 0.178613 0
M  V30 2991 C 274.911 5.20406 1.22807 0
M  V30 2992 C 276.211 5.13459 -0.956933 0
M  V30 2993 H 277.905 2.87966 -0.81951 0
M  V30 2994 H 275.451 1.38461 -0.395538 0
M  V30 2995 H 277.404 3.9924 1.34854 0
M  V30 2996 H 276.128 2.79666 1.68685 0
M  V30 2997 H 274.787 3.65643 -0.26466 0
M  V30 2998 H 274.435 4.60558 2.02226 0
M  V30 2999 H 274.135 5.82661 0.760239 0
M  V30 3000 H 275.659 5.86695 1.69179 0
M  V30 3001 H 277.073 5.70421 -0.573805 0
M  V30 3002 H 275.47 5.8467 -1.35205 0
M  V30 3003 H 276.54 4.50443 -1.79524 0
M  V30 3004 N 277.883 0.443576 1.51229 0
M  V30 3005 C 279.13 -0.120796 2.02139 0
M  V30 3006 C 279.458 -1.42166 1.32736 0
M  V30 3007 O 278.713 -1.90849 0.43301 0
M  V30 3008 C 279.012 -0.380579 3.55368 0
M  V30 3009 C 278.678 0.83523 4.43097 0
M  V30 3010 C 277.34 1.16864 4.66794 0
M  V30 3011 C 279.692 1.64601 4.94526 0
M  V30 3012 C 277.02 2.31339 5.39165 0
M  V30 3013 C 279.372 2.78181 5.68153 0
M  V30 3014 C 278.036 3.11969 5.90112 0
M  V30 3015 H 277.306 -0.0442023 0.73968 0
M  V30 3016 H 279.953 0.592046 1.82118 0
M  V30 3017 H 278.258 -1.17538 3.73754 0
M  V30 3018 H 279.955 -0.830777 3.923 0
M  V30 3019 H 276.545 0.565437 4.24854 0
M  V30 3020 H 280.729 1.40163 4.76097 0
M  V30 3021 H 275.985 2.57823 5.5438 0
M  V30 3022 H 280.159 3.41371 6.06992 0
M  V30 3023 H 277.786 4.00784 6.45969 0
M  V30 3024 N 279.361 -1.56624 0.175154 0
M  V30 3025 C 280.271 -2.21741 -0.766042 0
M  V30 3026 C 281.287 -1.21023 -1.25018 0
M  V30 3027 O 282.463 -1.53697 -1.3015 0
M  V30 3028 C 279.528 -2.84839 -1.97655 0
M  V30 3029 C 278.589 -4.00769 -1.53892 0
M  V30 3030 C 277.822 -4.60849 -2.69173 0
M  V30 3031 O 278.045 -4.19823 -3.86141 0
M  V30 3032 O 276.979 -5.50655 -2.43028 0
M  V30 3033 H 280.805 -3.02738 -0.241585 0
M  V30 3034 H 278.39 -1.49305 -0.053222 0
M  V30 3035 H 280.272 -3.24834 -2.68442 0
M  V30 3036 H 278.947 -2.06836 -2.48999 0
M  V30 3037 H 277.854 -3.65436 -0.80044 0
M  V30 3038 H 279.187 -4.80376 -1.07236 0
M  V30 3039 N 280.839 0.0985539 -1.57292 0
M  V30 3040 C 281.787 1.1387 -2.02821 0
M  V30 3041 C 282.781 1.41676 -0.928666 0
M  V30 3042 O 283.987 1.41398 -1.11385 0
M  V30 3043 H 280.362 0.384419 -0.646317 0
M  V30 3044 H 282.333 0.728347 -2.89375 0
M  V30 3045 C 281.082 2.45166 -2.46554 0
M  V30 3046 H 280.405 2.24613 -3.3074 0
M  V30 3047 H 281.845 3.16456 -2.8219 0
M  V30 3048 C 280.304 3.09216 -1.33742 0
M  V30 3049 O 280.834 3.96163 -0.66464 0
M  V30 3050 N 279.04 2.69413 -1.08928 0
M  V30 3051 H 278.587 1.98801 -1.63817 0
M  V30 3052 H 278.545 3.12594 -0.336458 0
M  V30 3053 N 282.317 1.53212 0.369288 0
M  V30 3054 C 283.563 1.69466 1.11397 0
M  V30 3055 C 283.896 0.443257 1.89074 0
M  V30 3056 O 283.171 -0.559386 1.86282 0
M  V30 3057 C 283.454 2.9422 2.07621 0
M  V30 3058 C 283.307 4.29508 1.33577 0
M  V30 3059 C 284.626 3.14565 3.07794 0
M  V30 3060 H 281.745 0.616667 0.403597 0
M  V30 3061 H 284.387 1.85845 0.395179 0
M  V30 3062 H 282.537 2.80387 2.68916 0
M  V30 3063 H 284.209 4.55147 0.750955 0
M  V30 3064 H 282.452 4.29088 0.637618 0
M  V30 3065 H 283.123 5.12926 2.03989 0
M  V30 3066 H 285.599 3.2756 2.56601 0
M  V30 3067 H 284.475 4.03297 3.72348 0
M  V30 3068 H 284.736 2.29675 3.77759 0
M  V30 3069 N 283.795 -0.628877 1.44509 0
M  V30 3070 C 285.072 -1.38733 1.37886 0
M  V30 3071 C 285.452 -2.11065 0.0387008 0
M  V30 3072 O 284.8 -2.06476 -0.97878 0
M  V30 3073 C 285.01 -2.35188 2.57852 0
M  V30 3074 C 286.358 -2.9845 3.02014 0
M  V30 3075 O 287.382 -2.45513 2.58073 0
M  V30 3076 O 286.241 -3.94487 3.78209 0
M  V30 3077 H 283.335 -0.621015 0.54614 0
M  V30 3078 H 285.881 -0.653744 1.56602 0
M  V30 3079 H 284.653 -1.80855 3.46998 0
M  V30 3080 H 284.276 -3.1596 2.4136 0
M  V30 3081 N 285.273 -1.31445 -0.869486 0
M  V30 3082 C 286.221 -1.19067 -1.99814 0
M  V30 3083 C 287.215 -0.0988569 -1.69111 0
M  V30 3084 O 288.421 -0.260781 -1.78101 0
M  V30 3085 H 284.796 -0.368677 -0.655425 0
M  V30 3086 H 286.767 -2.14555 -2.07385 0
M  V30 3087 C 285.516 -0.915323 -3.35436 0
M  V30 3088 H 284.839 -1.74759 -3.59582 0
M  V30 3089 H 286.279 -0.868895 -4.15001 0
M  V30 3090 C 284.738 0.381928 -3.34728 0
M  V30 3091 O 285.268 1.39857 -3.76567 0
M  V30 3092 N 283.474 0.398633 -2.87853 0
M  V30 3093 H 283.021 -0.429186 -2.54 0
M  V30 3094 H 282.979 1.26651 -2.87762 0
M  V30 3095 N 286.751 1.08385 -1.14413 0
M  V30 3096 C 287.714 2.13486 -0.834048 0
M  V30 3097 C 288.714 1.59988 0.161418 0
M  V30 3098 O 289.904 1.74071 -0.0669575 0
M  V30 3099 C 287.036 3.4003 -0.243354 0
M  V30 3100 H 288.229 2.42425 -1.7655 0
M  V30 3101 H 285.782 1.24101 -0.950189 0
M  V30 3102 H 286.517 3.16726 0.696807 0
M  V30 3103 H 286.302 3.80157 -0.960367 0
M  V30 3104 H 287.792 4.17577 -0.0436242 0
M  V30 3105 N 288.23 0.939286 1.26551 0
M  V30 3106 C 289.162 0.404704 2.25599 0
M  V30 3107 C 290.175 -0.470983 1.55838 0
M  V30 3108 O 291.364 -0.281734 1.76263 0
M  V30 3109 C 288.464 -0.43764 3.36062 0
M  V30 3110 C 287.637 0.421449 4.35365 0
M  V30 3111 C 286.696 -0.36015 5.24966 0
M  V30 3112 O 285.722 0.236167 5.6871 0
M  V30 3113 N 286.924 -1.65715 5.56344 0
M  V30 3114 H 289.689 1.25618 2.72103 0
M  V30 3115 H 287.25 0.807963 1.40298 0
M  V30 3116 H 289.242 -0.967866 3.92956 0
M  V30 3117 H 287.812 -1.18991 2.89067 0
M  V30 3118 H 287.032 1.1329 3.7757 0
M  V30 3119 H 288.32 1.00835 4.98708 0
M  V30 3120 H 287.718 -2.16378 5.22682 0
M  V30 3121 H 286.275 -2.13366 6.15888 0
M  V30 3122 N 289.708 -1.40897 0.706093 0
M  V30 3123 C 290.64 -2.29199 0.00815776 0
M  V30 3124 C 291.653 -1.45336 -0.733582 0
M  V30 3125 O 292.842 -1.68727 -0.582537 0
M  V30 3126 C 289.942 -3.23417 -1.01265 0
M  V30 3127 C 289.115 -4.36089 -0.338387 0
M  V30 3128 C 288.174 -5.10811 -1.26326 0
M  V30 3129 O 287.2 -5.64215 -0.751651 0
M  V30 3130 N 288.402 -5.19269 -2.595 0
M  V30 3131 H 291.167 -2.89738 0.766297 0
M  V30 3132 H 288.728 -1.52164 0.55296 0
M  V30 3133 H 290.72 -3.70276 -1.63334 0
M  V30 3134 H 289.29 -2.64112 -1.67223 0
M  V30 3135 H 288.51 -3.91479 0.462352 0
M  V30 3136 H 289.798 -5.08634 0.130031 0
M  V30 3137 H 289.196 -4.77347 -3.03573 0
M  V30 3138 H 287.753 -5.69667 -3.16737 0
M  V30 3139 N 291.186 -0.45159 -1.50991 0
M  V30 3140 C 292.433 0.110074 -2.02201 0
M  V30 3141 C 292.761 1.4146 -1.33489 0
M  V30 3142 O 292.016 1.90617 -0.443125 0
M  V30 3143 C 292.315 0.361728 -3.55565 0
M  V30 3144 C 291.981 -0.858717 -4.42648 0
M  V30 3145 C 290.643 -1.19338 -4.66167 0
M  V30 3146 C 292.995 -1.67221 -4.93646 0
M  V30 3147 C 290.323 -2.34195 -5.37931 0
M  V30 3148 C 292.675 -2.8119 -5.6667 0
M  V30 3149 C 291.339 -3.15094 -5.88449 0
M  V30 3150 H 290.609 0.040279 -0.739904 0
M  V30 3151 H 293.256 -0.601696 -1.81802 0
M  V30 3152 H 291.561 1.15554 -3.74372 0
M  V30 3153 H 293.258 0.80996 -3.92735 0
M  V30 3154 H 289.848 -0.58796 -4.24548 0
M  V30 3155 H 294.032 -1.42686 -4.75347 0
M  V30 3156 H 289.288 -2.6076 -5.53005 0
M  V30 3157 H 293.462 -3.44585 -6.05173 0
M  V30 3158 H 291.089 -4.04204 -6.43835 0
M  V30 3159 N 292.664 1.56529 -0.183458 0
M  V30 3160 C 293.611 2.18546 0.742055 0
M  V30 3161 C 294.581 1.12912 1.2182 0
M  V30 3162 O 295.766 1.41115 1.28418 0
M  V30 3163 C 292.906 2.83977 1.96089 0
M  V30 3164 C 292.019 4.04105 1.52719 0
M  V30 3165 C 291.154 4.57427 2.70063 0
M  V30 3166 C 290.193 5.69938 2.23243 0
M  V30 3167 N 289.33 6.17717 3.33722 0
M  V30 3168 H 294.17 2.97284 0.206432 0
M  V30 3169 H 291.707 1.46823 0.0901571 0
M  V30 3170 H 293.665 3.20077 2.67594 0
M  V30 3171 H 292.295 2.07822 2.47002 0
M  V30 3172 H 291.347 3.73745 0.708436 0
M  V30 3173 H 292.659 4.85513 1.1436 0
M  V30 3174 H 291.813 4.95772 3.49708 0
M  V30 3175 H 290.552 3.75101 3.11689 0
M  V30 3176 H 289.557 5.31133 1.42048 0
M  V30 3177 H 290.782 6.54073 1.82661 0
M  V30 3178 H 288.728 5.38317 3.74902 0
M  V30 3179 H 288.645 6.94146 2.99495 0
M  V30 3180 H 289.913 6.60713 4.13616 0
M  V30 3181 N 294.142 -0.090211 1.57342 0
M  V30 3182 C 295.074 -1.13541 1.99101 0
M  V30 3183 C 296.087 -1.3604 0.894258 0
M  V30 3184 O 297.276 -1.34606 1.17233 0
M  V30 3185 C 294.376 -2.49001 2.29895 0
M  V30 3186 C 293.549 -2.46712 3.61182 0
M  V30 3187 C 292.608 -3.64136 3.79857 0
M  V30 3188 O 291.634 -3.46405 4.51655 0
M  V30 3189 N 292.836 -4.83802 3.20806 0
M  V30 3190 H 295.601 -0.779942 2.89373 0
M  V30 3191 H 293.162 -0.279125 1.59476 0
M  V30 3192 H 295.154 -3.26166 2.39578 0
M  V30 3193 H 293.724 -2.76619 1.45605 0
M  V30 3194 H 292.944 -1.55058 3.62423 0
M  V30 3195 H 294.232 -2.42265 4.4742 0
M  V30 3196 H 293.63 -5.01112 2.62494 0
M  V30 3197 H 292.187 -5.58543 3.35966 0
M  V30 3198 N 295.62 -1.53406 -0.361157 0
M  V30 3199 C 296.55 -1.83136 -1.44857 0
M  V30 3200 C 297.531 -0.685174 -1.5569 0
M  V30 3201 O 298.716 -0.93544 -1.70186 0
M  V30 3202 C 295.846 -2.02522 -2.82138 0
M  V30 3203 C 294.8 -3.18302 -2.86126 0
M  V30 3204 C 294.126 -3.22989 -4.26125 0
M  V30 3205 C 295.426 -4.56796 -2.53248 0
M  V30 3206 H 297.12 -2.74201 -1.20226 0
M  V30 3207 H 294.666 -1.31938 -0.576922 0
M  V30 3208 H 296.619 -2.21904 -3.58241 0
M  V30 3209 H 295.343 -1.08172 -3.08166 0
M  V30 3210 H 294.002 -2.98747 -2.12475 0
M  V30 3211 H 293.65 -2.26267 -4.49235 0
M  V30 3212 H 293.35 -4.00781 -4.29708 0
M  V30 3213 H 294.874 -3.44559 -5.04094 0
M  V30 3214 H 296.288 -4.7631 -3.19064 0
M  V30 3215 H 294.685 -5.36862 -2.68141 0
M  V30 3216 H 295.755 -4.61606 -1.48484 0
M  V30 3217 N 297.098 0.621204 -1.44841 0
M  V30 3218 C 298.328 1.40548 -1.51426 0
M  V30 3219 C 298.736 1.88673 -0.141083 0
M  V30 3220 O 298.079 1.62053 0.865128 0
M  V30 3221 C 298.141 2.65325 -2.42576 0
M  V30 3222 C 297.805 2.3893 -3.89566 0
M  V30 3223 C 298.802 2.00138 -4.79834 0
M  V30 3224 C 296.487 2.52263 -4.3436 0
M  V30 3225 C 298.481 1.75021 -6.129 0
M  V30 3226 C 296.168 2.2676 -5.67471 0
M  V30 3227 C 297.166 1.88199 -6.56559 0
M  V30 3228 O 296.854 1.62986 -7.87204 0
M  V30 3229 H 296.586 0.437122 -0.515655 0
M  V30 3230 H 299.14 0.765987 -1.90583 0
M  V30 3231 H 297.37 3.31947 -1.98364 0
M  V30 3232 H 299.059 3.27347 -2.39998 0
M  V30 3233 H 299.825 1.89386 -4.46495 0
M  V30 3234 H 295.704 2.81246 -3.65269 0
M  V30 3235 H 299.248 1.44848 -6.82396 0
M  V30 3236 H 295.145 2.37125 -6.00368 0
M  V30 3237 H 295.913 1.7715 -7.991 0
M  V30 3238 N 298.576 1.31904 0.862503 0
M  V30 3239 C 299.992 1.10724 1.14945 0
M  V30 3240 C 300.192 -0.117421 2.01158 0
M  V30 3241 O 299.248 -0.804595 2.39338 0
M  V30 3242 C 300.561 2.38267 1.83437 0
M  V30 3243 C 302.109 2.43949 1.96106 0
M  V30 3244 C 302.584 3.71394 2.68013 0
M  V30 3245 N 304.075 3.72331 2.75543 0
M  V30 3246 C 304.81 4.67641 3.31812 0
M  V30 3247 N 304.306 5.73313 3.88953 0
M  V30 3248 N 306.099 4.5515 3.29841 0
M  V30 3249 H 298.25 2.10436 0.288191 0
M  V30 3250 H 300.513 0.928705 0.190292 0
M  V30 3251 H 300.219 3.27759 1.27542 0
M  V30 3252 H 300.093 2.48633 2.83657 0
M  V30 3253 H 302.48 1.54922 2.51164 0
M  V30 3254 H 302.561 2.37543 0.949059 0
M  V30 3255 H 302.205 4.60791 2.13621 0
M  V30 3256 H 302.135 3.75069 3.69636 0
M  V30 3257 H 304.626 2.95947 2.34997 0
M  V30 3258 H 304.939 6.42107 4.30022 0
M  V30 3259 H 303.284 5.77077 3.87308 0
M  V30 3260 H 306.475 3.71766 2.84443 0
M  V30 3261 H 306.648 5.29604 3.73394 0
M  V30 3262 N 300.054 -1.07777 1.14986 0
M  V30 3263 C 301.017 -2.13041 0.845358 0
M  V30 3264 C 302.017 -1.60071 -0.152931 0
M  V30 3265 O 303.207 -1.74033 0.0761879 0
M  V30 3266 C 300.339 -3.39896 0.261383 0
M  V30 3267 H 301.532 -2.41485 1.77834 0
M  V30 3268 H 299.085 -1.23595 0.956757 0
M  V30 3269 H 299.82 -3.17091 -0.68 0
M  V30 3270 H 299.605 -3.79642 0.980514 0
M  V30 3271 H 301.095 -4.17548 0.0657687 0
M  V30 3272 N 301.532 -0.945985 -1.26051 0
M  V30 3273 C 302.948 -0.649045 -1.45807 0
M  V30 3274 C 303.148 0.796158 -1.85104 0
M  V30 3275 O 302.204 1.57233 -1.97571 0
M  V30 3276 C 303.517 -1.61458 -2.53677 0
M  V30 3277 C 305.065 -1.62481 -2.67524 0
M  V30 3278 C 305.54 -2.57776 -3.7857 0
M  V30 3279 N 307.031 -2.5609 -3.85969 0
M  V30 3280 C 307.766 -3.26508 -4.7136 0
M  V30 3281 N 307.262 -4.0637 -5.61102 0
M  V30 3282 N 309.055 -3.15437 -4.65248 0
M  V30 3283 H 301.206 -1.88005 -0.988328 0
M  V30 3284 H 303.469 -0.808198 -0.4955 0
M  V30 3285 H 303.175 -2.64644 -2.31638 0
M  V30 3286 H 303.049 -1.37036 -3.51427 0
M  V30 3287 H 305.436 -0.600167 -2.88933 0
M  V30 3288 H 305.517 -1.90958 -1.70202 0
M  V30 3289 H 305.161 -3.60361 -3.57913 0
M  V30 3290 H 305.091 -2.26587 -4.75359 0
M  V30 3291 H 307.582 -1.98105 -3.21812 0
M  V30 3292 H 307.895 -4.57042 -6.23164 0
M  V30 3293 H 306.24 -4.10469 -5.60839 0
M  V30 3294 H 309.431 -2.52525 -3.94143 0
M  V30 3295 H 309.604 -3.70584 -5.31575 0
M  V30 3296 N 303.011 1.40521 -0.713556 0
M  V30 3297 C 303.944 2.28198 -0.00881422 0
M  V30 3298 C 304.922 1.43227 0.769735 0
M  V30 3299 O 306.106 1.72641 0.756799 0
M  V30 3300 C 303.233 3.23758 0.994899 0
M  V30 3301 C 302.279 4.25391 0.3074 0
M  V30 3302 S 303.112 5.26765 -0.963247 0
M  V30 3303 C 304.268 6.25888 0.0384143 0
M  V30 3304 H 304.501 2.87622 -0.752407 0
M  V30 3305 H 302.034 1.45925 -0.504502 0
M  V30 3306 H 303.992 3.79341 1.56879 0
M  V30 3307 H 302.653 2.63396 1.71118 0
M  V30 3308 H 301.846 4.92596 1.0661 0
M  V30 3309 H 301.448 3.73497 -0.193879 0
M  V30 3310 H 303.74 6.71683 0.885912 0
M  V30 3311 H 304.683 7.05552 -0.60019 0
M  V30 3312 H 305.091 5.63072 0.401233 0
M  V30 3313 N 304.489 0.459591 1.5075 0
M  V30 3314 C 305.437 -0.354678 2.2988 0
M  V30 3315 C 306.431 -1.00086 1.36672 0
M  V30 3316 O 307.637 -0.933277 1.53915 0
M  V30 3317 H 304.012 -0.13321 0.740107 0
M  V30 3318 H 305.983 0.333269 2.96533 0
M  V30 3319 C 304.732 -1.43073 3.169 0
M  V30 3320 H 304.055 -0.942882 3.88523 0
M  V30 3321 H 305.495 -1.97328 3.75284 0
M  V30 3322 C 303.954 -2.42633 2.33732 0
M  V30 3323 O 304.484 -3.47658 2.01238 0
M  V30 3324 N 302.69 -2.14066 1.9653 0
M  V30 3325 H 302.237 -1.28685 2.23155 0
M  V30 3326 H 302.195 -2.80917 1.41185 0
M  V30 3327 N 305.967 -1.56429 0.191757 0
M  V30 3328 C 306.93 -2.17707 -0.716688 0
M  V30 3329 C 307.93 -1.13061 -1.14341 0
M  V30 3330 O 309.12 -1.38464 -1.05704 0
M  V30 3331 C 306.252 -2.77644 -1.97804 0
M  V30 3332 H 307.445 -2.99342 -0.1829 0
M  V30 3333 H 304.998 -1.56193 -0.0578566 0
M  V30 3334 H 305.733 -1.99799 -2.55443 0
M  V30 3335 H 305.518 -3.54246 -1.68083 0
M  V30 3336 H 307.008 -3.24708 -2.62592 0
M  V30 3337 N 307.445 0.0818655 -1.57387 0
M  V30 3338 C 308.375 1.09885 -2.06028 0
M  V30 3339 C 309.356 1.4098 -0.951774 0
M  V30 3340 O 310.541 1.50781 -1.22387 0
M  V30 3341 C 307.671 2.4151 -2.4958 0
M  V30 3342 C 306.625 2.24792 -3.64215 0
M  V30 3343 C 305.951 3.61712 -3.93787 0
M  V30 3344 C 307.251 1.67749 -4.94629 0
M  V30 3345 H 308.945 0.694128 -2.91243 0
M  V30 3346 H 306.491 0.332448 -1.4011 0
M  V30 3347 H 308.444 3.12939 -2.82219 0
M  V30 3348 H 307.168 2.83943 -1.61381 0
M  V30 3349 H 305.827 1.55807 -3.31843 0
M  V30 3350 H 305.475 4.01697 -3.02735 0
M  V30 3351 H 305.175 3.51368 -4.70971 0
M  V30 3352 H 306.699 4.34587 -4.28913 0
M  V30 3353 H 308.113 2.29032 -5.25564 0
M  V30 3354 H 306.51 1.68128 -5.76067 0
M  V30 3355 H 307.58 0.638059 -4.80684 0
M  V30 3356 N 308.923 1.53595 0.353017 0
M  V30 3357 C 310.2 1.61002 1.11075 0
M  V30 3358 C 310.58 0.425356 2.0677 0
M  V30 3359 O 309.928 -0.583267 2.2093 0
M  V30 3360 C 310.138 2.96631 1.83877 0
M  V30 3361 C 311.486 3.51653 2.37961 0
M  V30 3362 O 312.51 2.98743 1.93987 0
M  V30 3363 O 311.369 4.44177 3.18386 0
M  V30 3364 H 308.463 0.650825 0.510251 0
M  V30 3365 H 311.009 1.6594 0.35527 0
M  V30 3366 H 309.781 3.74293 1.14108 0
M  V30 3367 H 309.404 2.95242 2.66304 0
M  V30 3368 N 310.401 -0.613514 1.45168 0
M  V30 3369 C 311.331 -1.7354 1.56225 0
M  V30 3370 C 312.312 -1.64981 0.41414 0
M  V30 3371 O 313.497 -1.83472 0.636526 0
M  V30 3372 C 310.627 -3.12128 1.52295 0
M  V30 3373 C 309.581 -3.35491 2.65762 0
M  V30 3374 C 308.907 -4.74291 2.46885 0
M  V30 3375 C 310.207 -3.26325 4.0781 0
M  V30 3376 H 311.901 -1.64543 2.50132 0
M  V30 3377 H 309.447 -0.790185 1.20383 0
M  V30 3378 H 311.4 -3.90404 1.58628 0
M  V30 3379 H 310.124 -3.2195 0.549139 0
M  V30 3380 H 308.783 -2.59603 2.58847 0
M  V30 3381 H 308.431 -4.80839 1.47657 0
M  V30 3382 H 308.131 -4.9088 3.22972 0
M  V30 3383 H 309.655 -5.54775 2.55063 0
M  V30 3384 H 311.069 -3.94483 4.16 0
M  V30 3385 H 309.466 -3.54445 4.8424 0
M  V30 3386 H 310.536 -2.23855 4.30136 0
M  V30 3387 N 311.879 -1.3236 -0.855495 0
M  V30 3388 C 312.827 -1.2118 -1.9854 0
M  V30 3389 C 313.821 -0.116788 -1.68997 0
M  V30 3390 O 315.027 -0.279657 -1.77814 0
M  V30 3391 H 311.402 -0.375608 -0.651477 0
M  V30 3392 H 313.373 -2.16743 -2.05098 0
M  V30 3393 C 312.122 -0.950849 -3.34446 0
M  V30 3394 H 311.445 -1.78563 -3.57708 0
M  V30 3395 H 312.885 -0.912863 -4.14057 0
M  V30 3396 C 311.344 0.346404 -3.35114 0
M  V30 3397 O 311.874 1.35855 -3.7803 0
M  V30 3398 N 310.08 0.36808 -2.88259 0
M  V30 3399 H 309.627 -0.456102 -2.5353 0
M  V30 3400 H 309.585 1.23591 -2.89089 0
M  V30 3401 N 313.357 1.07166 -1.15556 0
M  V30 3402 C 314.29 2.13808 -0.797593 0
M  V30 3403 C 315.268 1.6101 0.226812 0
M  V30 3404 O 316.452 1.88161 0.112932 0
M  V30 3405 C 313.579 3.38187 -0.186371 0
M  V30 3406 C 312.625 4.09766 -1.18297 0
M  V30 3407 S 313.458 4.60932 -2.72584 0
M  V30 3408 C 314.614 5.88583 -2.12886 0
M  V30 3409 H 314.847 2.43843 -1.70083 0
M  V30 3410 H 312.38 1.19467 -0.978106 0
M  V30 3411 H 314.338 4.10189 0.159837 0
M  V30 3412 H 312.999 3.06326 0.694489 0
M  V30 3413 H 312.192 4.99065 -0.703562 0
M  V30 3414 H 311.794 3.43736 -1.47381 0
M  V30 3415 H 314.086 6.60866 -1.49208 0
M  V30 3416 H 315.029 6.41241 -3.0036 0
M  V30 3417 H 315.437 5.42194 -1.57116 0
M  V30 3418 N 314.835 0.952656 1.25548 0
M  V30 3419 C 315.782 0.47008 2.25962 0
M  V30 3420 C 316.752 -0.476384 1.59122 0
M  V30 3421 O 317.937 -0.39007 1.8677 0
M  V30 3422 C 315.077 -0.247881 3.44209 0
M  V30 3423 C 314.19 0.735591 4.25691 0
M  V30 3424 C 313.325 -0.0047306 5.312 0
M  V30 3425 C 312.364 0.969805 6.04368 0
M  V30 3426 N 311.501 0.260486 7.01617 0
M  V30 3427 H 316.341 1.33126 2.66611 0
M  V30 3428 H 313.878 0.66765 1.31076 0
M  V30 3429 H 315.836 -0.680695 4.1161 0
M  V30 3430 H 314.466 -1.07312 3.0444 0
M  V30 3431 H 313.518 1.28689 3.57971 0
M  V30 3432 H 314.83 1.47934 4.76358 0
M  V30 3433 H 313.984 -0.496275 6.04667 0
M  V30 3434 H 312.723 -0.781282 4.81401 0
M  V30 3435 H 311.728 1.47237 5.29718 0
M  V30 3436 H 312.953 1.74655 6.56256 0
M  V30 3437 H 310.899 -0.497364 6.54112 0
M  V30 3438 H 310.816 0.943362 7.50091 0
M  V30 3439 H 312.084 -0.209587 7.79218 0
M  V30 3440 N 316.313 -1.40141 0.720998 0
M  V30 3441 C 317.541 -2.05096 0.272656 0
M  V30 3442 C 317.956 -1.54334 -1.0875 0
M  V30 3443 O 317.313 -0.702211 -1.6845 0
M  V30 3444 C 317.364 -3.60636 0.249835 0
M  V30 3445 O 317.085 -4.09526 1.55629 0
M  V30 3446 C 318.586 -4.42772 -0.216396 0
M  V30 3447 H 315.806 -0.659897 0.121558 0
M  V30 3448 H 318.35 -1.79449 0.980723 0
M  V30 3449 H 316.505 -3.85232 -0.409237 0
M  V30 3450 H 316.919 -5.03758 1.4604 0
M  V30 3451 H 318.393 -5.51702 -0.181212 0
M  V30 3452 H 318.87 -4.20756 -1.25941 0
M  V30 3453 H 319.476 -4.23294 0.412596 0
M  V30 3454 N 317.792 -0.46758 -1.50504 0
M  V30 3455 C 318.739 0.328413 -2.28452 0
M  V30 3456 C 319.709 0.990313 -1.33349 0
M  V30 3457 O 320.894 1.00343 -1.62284 0
M  V30 3458 C 318.034 1.40648 -3.15138 0
M  V30 3459 C 317.147 0.759709 -4.25267 0
M  V30 3460 C 316.282 1.81537 -4.99217 0
M  V30 3461 C 315.321 1.14866 -6.01226 0
M  V30 3462 N 314.458 2.14702 -6.68467 0
M  V30 3463 H 319.298 -0.342603 -2.96024 0
M  V30 3464 H 316.835 -0.180801 -1.45985 0
M  V30 3465 H 318.793 2.04315 -3.63746 0
M  V30 3466 H 317.423 2.04671 -2.49619 0
M  V30 3467 H 316.475 0.0105671 -3.80399 0
M  V30 3468 H 317.787 0.233243 -4.98254 0
M  V30 3469 H 316.941 2.52793 -5.51526 0
M  V30 3470 H 315.68 2.37564 -4.25928 0
M  V30 3471 H 314.685 0.42171 -5.4818 0
M  V30 3472 H 315.91 0.595334 -6.76485 0
M  V30 3473 H 313.856 2.69752 -5.97972 0
M  V30 3474 H 313.773 1.6703 -7.37317 0
M  V30 3475 H 315.041 2.85348 -7.25394 0
M  V30 3476 N 319.27 1.56325 -0.20005 0
M  V30 3477 C 320.18 2.22931 0.730668 0
M  V30 3478 C 321.196 1.22997 1.23076 0
M  V30 3479 O 322.372 1.55748 1.27689 0
M  V30 3480 C 319.437 2.87948 1.93098 0
M  V30 3481 C 318.498 4.03166 1.47497 0
M  V30 3482 C 317.731 4.65073 2.61807 0
M  V30 3483 O 317.954 4.25913 3.79413 0
M  V30 3484 O 316.888 5.54452 2.34237 0
M  V30 3485 H 320.714 3.03084 0.193391 0
M  V30 3486 H 318.299 1.49371 0.0294621 0
M  V30 3487 H 320.181 3.29063 2.6324 0
M  V30 3488 H 318.856 2.10771 2.45677 0
M  V30 3489 H 317.763 3.66664 0.742201 0
M  V30 3490 H 319.096 4.82022 0.995796 0
M  V30 3491 N 320.748 -0.0735177 1.57428 0
M  V30 3492 C 322.164 -0.428264 1.53747 0
M  V30 3493 C 322.364 -1.79272 0.91998 0
M  V30 3494 O 321.42 -2.47051 0.521745 0
M  V30 3495 C 322.733 -0.370914 2.98404 0
M  V30 3496 C 324.281 -0.451224 3.0973 0
M  V30 3497 C 324.756 -0.4238 4.56035 0
M  V30 3498 N 326.247 -0.483925 4.60665 0
M  V30 3499 C 326.982 -0.484891 5.71346 0
M  V30 3500 N 326.478 -0.440775 6.91396 0
M  V30 3501 N 328.271 -0.531319 5.59583 0
M  V30 3502 H 320.422 0.819949 1.95935 0
M  V30 3503 H 322.685 0.307493 0.896745 0
M  V30 3504 H 322.391 0.564956 3.47133 0
M  V30 3505 H 322.265 -1.18176 3.5821 0
M  V30 3506 H 324.652 -1.37752 2.60976 0
M  V30 3507 H 324.733 0.388167 2.52838 0
M  V30 3508 H 324.377 0.498638 5.05446 0
M  V30 3509 H 324.307 -1.2807 5.10789 0
M  V30 3510 H 326.798 -0.522338 3.74273 0
M  V30 3511 H 327.111 -0.44539 7.71515 0
M  V30 3512 H 325.456 -0.40749 6.93804 0
M  V30 3513 H 328.647 -0.563464 4.64696 0
M  V30 3514 H 328.82 -0.528603 6.4584 0
M  V30 3515 N 322.226 -1.5378 -0.344866 0
M  V30 3516 C 323.475 -1.7018 -1.08267 0
M  V30 3517 C 323.788 -0.471 -1.89845 0
M  V30 3518 O 324.994 -0.515917 -2.66553 0
M  V30 3519 C 323.45 -3.00923 -1.97417 0
M  V30 3520 C 323.058 -4.31335 -1.21053 0
M  V30 3521 C 324.802 -3.26688 -2.71063 0
M  V30 3522 C 322.709 -5.53153 -2.09225 0
M  V30 3523 H 321.639 -0.634138 -0.407903 0
M  V30 3524 H 324.29 -1.8028 -0.342246 0
M  V30 3525 H 322.672 -2.84676 -2.75274 0
M  V30 3526 H 323.846 -4.58281 -0.481159 0
M  V30 3527 H 322.161 -4.12173 -0.591813 0
M  V30 3528 H 324.758 -4.1489 -3.37299 0
M  V30 3529 H 325.101 -2.43639 -3.37558 0
M  V30 3530 H 325.634 -3.43705 -2.0028 0
M  V30 3531 H 322.373 -6.38741 -1.47274 0
M  V30 3532 H 321.893 -5.30458 -2.79955 0
M  V30 3533 H 323.572 -5.88744 -2.68308 0
M  V30 3534 N 323.704 0.605807 -1.45491 0
M  V30 3535 C 324.95 1.36679 -1.49823 0
M  V30 3536 C 325.283 1.93693 -0.140175 0
M  V30 3537 O 324.558 1.75158 0.845581 0
M  V30 3538 C 324.841 2.51337 -2.57879 0
M  V30 3539 C 324.694 1.99508 -4.03134 0
M  V30 3540 C 326.013 3.53463 -2.62205 0
M  V30 3541 H 323.132 0.495617 -0.545466 0
M  V30 3542 H 325.774 0.682732 -1.7731 0
M  V30 3543 H 323.924 3.09691 -2.34571 0
M  V30 3544 H 325.596 1.45789 -4.37656 0
M  V30 3545 H 323.839 1.30496 -4.13707 0
M  V30 3546 H 324.51 2.82169 -4.74431 0
M  V30 3547 H 326.986 3.04953 -2.83095 0
M  V30 3548 H 325.862 4.31178 -3.39672 0
M  V30 3549 H 326.123 4.09197 -1.67363 0
M  V30 3550 N 325.182 1.32811 0.848464 0
M  V30 3551 C 326.092 1.24278 1.98978 0
M  V30 3552 C 327.108 0.155176 1.73307 0
M  V30 3553 O 328.284 0.376999 1.9784 0
M  V30 3554 C 325.349 0.972444 3.32783 0
M  V30 3555 C 324.41 2.14911 3.71634 0
M  V30 3556 C 323.643 1.89157 4.99054 0
M  V30 3557 O 323.866 0.837165 5.64223 0
M  V30 3558 O 322.8 2.75433 5.35183 0
M  V30 3559 H 326.626 2.20238 2.09115 0
M  V30 3560 H 324.211 1.12762 0.980052 0
M  V30 3561 H 326.093 0.838432 4.12975 0
M  V30 3562 H 324.768 0.043051 3.23671 0
M  V30 3563 H 323.675 2.33862 2.91992 0
M  V30 3564 H 325.008 3.06151 3.85399 0
M  V30 3565 N 326.66 -1.06551 1.16123 0
M  V30 3566 C 327.57 -2.17484 0.879662 0
M  V30 3567 C 328.586 -1.73377 -0.147104 0
M  V30 3568 O 329.762 -2.01379 0.0289128 0
M  V30 3569 C 326.827 -3.44591 0.381829 0
M  V30 3570 C 325.888 -4.0322 1.4735 0
M  V30 3571 C 325.121 -5.24261 0.999324 0
M  V30 3572 O 325.344 -5.70198 -0.151957 0
M  V30 3573 O 324.278 -5.74775 1.78653 0
M  V30 3574 H 328.104 -2.44075 1.80724 0
M  V30 3575 H 325.689 -1.16042 0.940992 0
M  V30 3576 H 327.571 -4.21254 0.111053 0
M  V30 3577 H 326.246 -3.19532 -0.51777 0
M  V30 3578 H 325.153 -3.2806 1.79798 0
M  V30 3579 H 326.486 -4.32568 2.34831 0
M  V30 3580 N 328.138 -0.959301 -1.25041 0
M  V30 3581 C 329.101 -0.487677 -2.23952 0
M  V30 3582 C 330.101 0.41119 -1.55454 0
M  V30 3583 O 331.291 0.207825 -1.72956 0
M  V30 3584 C 328.423 0.294807 -3.39623 0
M  V30 3585 H 329.616 -1.36198 -2.67189 0
M  V30 3586 H 327.169 -0.743042 -1.37508 0
M  V30 3587 H 327.904 1.18658 -3.01813 0
M  V30 3588 H 327.689 -0.35012 -3.90534 0
M  V30 3589 H 329.179 0.614089 -4.1306 0
M  V30 3590 N 329.616 1.39756 -0.72842 0
M  V30 3591 C 330.564 2.32485 -0.0731849 0
M  V30 3592 C 331.558 1.52717 0.733063 0
M  V30 3593 O 332.764 1.68428 0.634988 0
M  V30 3594 H 329.139 0.751984 -0.00486469 0
M  V30 3595 H 331.11 2.85382 -0.871761 0
M  V30 3596 C 329.859 3.37773 0.824908 0
M  V30 3597 H 329.182 3.99227 0.213915 0
M  V30 3598 H 330.622 4.05121 1.25111 0
M  V30 3599 C 329.081 2.74287 1.95622 0
M  V30 3600 O 329.611 2.61618 3.04826 0
M  V30 3601 N 327.817 2.32475 1.74367 0
M  V30 3602 H 327.364 2.4298 0.855494 0
M  V30 3603 H 327.322 1.90337 2.50238 0
M  V30 3604 N 331.094 0.475555 1.50254 0
M  V30 3605 C 332.041 -0.316293 2.28622 0
M  V30 3606 C 333.011 -0.983227 1.33873 0
M  V30 3607 O 334.196 -0.994805 1.62814 0
M  V30 3608 C 331.336 -1.38975 3.1588 0
M  V30 3609 C 330.449 -0.737146 4.25664 0
M  V30 3610 C 329.584 -1.78887 5.00173 0
M  V30 3611 C 328.623 -1.11676 6.01826 0
M  V30 3612 N 327.76 -2.11154 6.69596 0
M  V30 3613 H 332.6 0.358297 2.95838 0
M  V30 3614 H 330.137 0.188541 1.45887 0
M  V30 3615 H 332.095 -2.02383 3.64825 0
M  V30 3616 H 330.725 -2.03344 2.50701 0
M  V30 3617 H 329.777 0.0096065 3.80399 0
M  V30 3618 H 331.089 -0.206816 4.98371 0
M  V30 3619 H 330.243 -2.49865 5.52859 0
M  V30 3620 H 328.982 -2.35302 4.27182 0
M  V30 3621 H 327.987 -0.392633 5.48396 0
M  V30 3622 H 329.212 -0.55945 6.76792 0
M  V30 3623 H 327.158 -2.66577 5.99394 0
M  V30 3624 H 327.075 -1.63118 7.38193 0
M  V30 3625 H 328.343 -2.81497 7.26897 0
M  V30 3626 N 332.573 -1.56217 0.208337 0
M  V30 3627 C 333.536 -2.18455 -0.693557 0
M  V30 3628 C 334.536 -1.14268 -1.13135 0
M  V30 3629 O 335.726 -1.39577 -1.0423 0
M  V30 3630 C 332.858 -2.79727 -1.94848 0
M  V30 3631 H 334.051 -2.99519 -0.15114 0
M  V30 3632 H 331.604 -1.56245 -0.041287 0
M  V30 3633 H 332.339 -2.02497 -2.53309 0
M  V30 3634 H 332.124 -3.56009 -1.64316 0
M  V30 3635 H 333.614 -3.27475 -2.59133 0
M  V30 3636 N 334.051 0.0651679 -1.57465 0
M  V30 3637 C 335.298 0.763063 -1.87573 0
M  V30 3638 C 335.626 1.77242 -0.800961 0
M  V30 3639 O 334.881 1.94651 0.202316 0
M  V30 3640 C 335.18 1.50081 -3.24362 0
M  V30 3641 C 334.846 0.630816 -4.46466 0
M  V30 3642 C 333.508 0.391082 -4.79608 0
M  V30 3643 C 335.86 0.0279465 -5.21193 0
M  V30 3644 C 333.188 -0.460894 -5.84887 0
M  V30 3645 C 335.54 -0.811522 -6.27373 0
M  V30 3646 C 334.204 -1.06106 -6.59013 0
M  V30 3647 H 333.474 0.279224 -0.686378 0
M  V30 3648 H 336.121 0.0236726 -1.91485 0
M  V30 3649 H 334.426 2.31258 -3.16271 0
M  V30 3650 H 336.123 2.04571 -3.44894 0
M  V30 3651 H 332.713 0.8278 -4.2053 0
M  V30 3652 H 336.897 0.200262 -4.95896 0
M  V30 3653 H 332.153 -0.662907 -6.07796 0
M  V30 3654 H 336.327 -1.28537 -6.84435 0
M  V30 3655 H 333.954 -1.723 -7.40417 0
M  V30 3656 N 335.529 1.53961 0.336706 0
M  V30 3657 C 336.439 1.85432 1.43708 0
M  V30 3658 C 337.455 0.745053 1.57242 0
M  V30 3659 O 338.631 1.03804 1.72588 0
M  V30 3660 C 335.696 2.06349 2.78605 0
M  V30 3661 C 334.757 3.30191 2.74358 0
M  V30 3662 C 333.99 3.50101 4.02822 0
M  V30 3663 O 334.213 2.7371 5.00439 0
M  V30 3664 O 333.147 4.43547 4.06878 0
M  V30 3665 H 336.973 2.78975 1.20028 0
M  V30 3666 H 334.558 1.39701 0.52952 0
M  V30 3667 H 336.44 2.21513 3.58483 0
M  V30 3668 H 335.115 1.15995 3.02203 0
M  V30 3669 H 334.022 3.20425 1.93078 0
M  V30 3670 H 335.355 4.2056 2.55715 0
M  V30 3671 N 337.007 -0.598083 1.45811 0
M  V30 3672 C 338.237 -1.38121 1.53643 0
M  V30 3673 C 338.645 -1.88425 0.171081 0
M  V30 3674 O 337.988 -1.63409 -0.839237 0
M  V30 3675 C 338.05 -2.61432 2.46766 0
M  V30 3676 C 337.714 -2.32702 3.93318 0
M  V30 3677 C 338.711 -1.92479 4.82957 0
M  V30 3678 C 336.396 -2.45321 4.38318 0
M  V30 3679 C 338.39 -1.65248 6.15607 0
M  V30 3680 C 336.077 -2.17703 5.71007 0
M  V30 3681 C 337.075 -1.7773 6.5947 0
M  V30 3682 O 336.763 -1.50441 7.89698 0
M  V30 3683 H 336.495 -0.428863 0.522544 0
M  V30 3684 H 339.049 -0.73557 1.91777 0
M  V30 3685 H 337.279 -3.28749 2.0362 0
M  V30 3686 H 338.968 -3.23487 2.45175 0
M  V30 3687 H 339.734 -1.82258 4.49452 0
M  V30 3688 H 335.613 -2.75399 3.69697 0
M  V30 3689 H 339.157 -1.33973 6.84614 0
M  V30 3690 H 335.054 -2.27544 6.04065 0
M  V30 3691 H 335.822 -1.64415 8.01817 0
M  V30 3692 N 338.485 -1.33259 -0.841409 0
M  V30 3693 C 339.433 -1.23279 -1.97244 0
M  V30 3694 C 340.427 -0.134706 -1.68864 0
M  V30 3695 O 341.633 -0.298501 -1.77508 0
M  V30 3696 H 338.008 -0.382497 -0.647457 0
M  V30 3697 H 339.979 -2.18906 -2.02787 0
M  V30 3698 C 338.728 -0.986268 -3.33419 0
M  V30 3699 H 338.051 -1.82347 -3.55794 0
M  V30 3700 H 339.491 -0.956728 -4.13065 0
M  V30 3701 C 337.95 0.310842 -3.35463 0
M  V30 3702 O 338.48 1.31838 -3.79449 0
M  V30 3703 N 336.686 0.337485 -2.88634 0
M  V30 3704 H 336.233 -0.482967 -2.53032 0
M  V30 3705 H 336.191 1.20518 -2.90384 0
M  V30 3706 N 339.963 1.05934 -1.16686 0
M  V30 3707 C 340.896 2.1295 -0.820225 0
M  V30 3708 C 341.874 1.61242 0.209722 0
M  V30 3709 O 343.058 1.88271 0.0929688 0
M  V30 3710 C 340.185 3.3797 -0.22223 0
M  V30 3711 C 339.231 4.08488 -1.22637 0
M  V30 3712 S 340.064 4.58015 -2.77457 0
M  V30 3713 C 341.22 5.86292 -2.19117 0
M  V30 3714 H 341.453 2.42025 -1.72659 0
M  V30 3715 H 338.986 1.18423 -0.990722 0
M  V30 3716 H 340.944 4.10335 0.116322 0
M  V30 3717 H 339.605 3.07045 0.66196 0
M  V30 3718 H 338.798 4.98291 -0.756455 0
M  V30 3719 H 338.4 3.42154 -1.51019 0
M  V30 3720 H 340.692 6.59246 -1.56209 0
M  V30 3721 H 341.635 6.38019 -3.07144 0
M  V30 3722 H 342.043 5.40497 -1.62858 0
M  V30 3723 N 341.441 0.965919 1.2453 0
M  V30 3724 C 342.373 0.452465 2.2469 0
M  V30 3725 C 343.386 -0.437821 1.56802 0
M  V30 3726 O 344.575 -0.244283 1.76821 0
M  V30 3727 C 341.675 -0.366258 3.36915 0
M  V30 3728 C 340.848 0.513701 4.34373 0
M  V30 3729 C 339.907 -0.248716 5.25612 0
M  V30 3730 O 338.933 0.356745 5.68081 0
M  V30 3731 N 340.135 -1.53877 5.59734 0
M  V30 3732 H 342.9 1.31361 2.69378 0
M  V30 3733 H 340.461 0.837541 1.38553 0
M  V30 3734 H 342.453 -0.884297 3.94921 0
M  V30 3735 H 341.023 -1.12832 2.91526 0
M  V30 3736 H 340.243 1.21273 3.75082 0
M  V30 3737 H 341.531 1.11391 4.96457 0
M  V30 3738 H 340.929 -2.05243 5.27154 0
M  V30 3739 H 339.486 -2.00254 6.20275 0
M  V30 3740 N 342.919 -1.39368 0.735821 0
M  V30 3741 C 344.168 -1.99733 0.281004 0
M  V30 3742 C 344.481 -1.59055 -1.13846 0
M  V30 3743 O 345.687 -2.12262 -1.69284 0
M  V30 3744 C 344.143 -3.57057 0.451462 0
M  V30 3745 C 343.751 -4.06697 1.87886 0
M  V30 3746 C 345.495 -4.2446 0.0584616 0
M  V30 3747 C 343.402 -5.56598 1.99883 0
M  V30 3748 H 342.332 -0.747163 0.101311 0
M  V30 3749 H 344.983 -1.59357 0.909819 0
M  V30 3750 H 343.365 -3.95234 -0.246263 0
M  V30 3751 H 344.539 -3.79853 2.60861 0
M  V30 3752 H 342.854 -3.5196 2.22515 0
M  V30 3753 H 345.451 -5.34549 0.127099 0
M  V30 3754 H 345.794 -4.04444 -0.986433 0
M  V30 3755 H 346.327 -3.9146 0.707374 0
M  V30 3756 H 343.066 -5.81494 3.02564 0
M  V30 3757 H 342.586 -5.85242 1.31346 0
M  V30 3758 H 344.265 -6.22022 1.78039 0
M  V30 3759 N 344.397 -0.483516 -1.5 0
M  V30 3760 C 345.644 0.0671597 -2.02389 0
M  V30 3761 C 345.972 1.38597 -1.36459 0
M  V30 3762 O 345.227 1.89634 -0.483458 0
M  V30 3763 C 345.526 0.286226 -3.56252 0
M  V30 3764 C 345.192 -0.952416 -4.40726 0
M  V30 3765 C 343.854 -1.29199 -4.63531 0
M  V30 3766 C 346.206 -1.77655 -4.89988 0
M  V30 3767 C 343.534 -2.45553 -5.32842 0
M  V30 3768 C 345.886 -2.93147 -5.60578 0
M  V30 3769 C 344.55 -3.27505 -5.81633 0
M  V30 3770 H 343.82 0.0245755 -0.740592 0
M  V30 3771 H 346.467 -0.640124 -1.80485 0
M  V30 3772 H 344.772 1.07587 -3.76739 0
M  V30 3773 H 346.469 0.726473 -3.94365 0
M  V30 3774 H 343.059 -0.677881 -4.23205 0
M  V30 3775 H 347.243 -1.52737 -4.72213 0
M  V30 3776 H 342.499 -2.72431 -5.47349 0
M  V30 3777 H 346.673 -3.57344 -5.97727 0
M  V30 3778 H 344.3 -4.1777 -6.35116 0
M  V30 3779 N 345.875 1.56104 -0.216619 0
M  V30 3780 C 346.823 2.21434 0.712036 0
M  V30 3781 C 347.817 1.19218 1.20348 0
M  V30 3782 O 349.023 1.3731 1.16387 0
M  V30 3783 H 345.398 0.70992 0.248026 0
M  V30 3784 H 347.369 2.98083 0.137558 0
M  V30 3785 C 346.118 2.90434 1.91163 0
M  V30 3786 H 345.441 3.68842 1.54258 0
M  V30 3787 H 346.881 3.39552 2.5393 0
M  V30 3788 C 345.34 1.92635 2.76394 0
M  V30 3789 O 345.87 1.44017 3.74996 0
M  V30 3790 N 344.076 1.60392 2.42328 0
M  V30 3791 H 343.623 2.00122 1.622 0
M  V30 3792 H 343.581 0.952159 2.99635 0
M  V30 3793 N 347.353 -0.0568162 1.57498 0
M  V30 3794 C 348.263 -1.08346 2.08083 0
M  V30 3795 C 349.279 -1.41439 1.01346 0
M  V30 3796 O 350.455 -1.51316 1.32912 0
M  V30 3797 C 347.52 -2.37352 2.52715 0
M  V30 3798 C 346.581 -2.11093 3.73816 0
M  V30 3799 C 345.814 -3.33949 4.1631 0
M  V30 3800 O 346.037 -4.43622 3.58547 0
M  V30 3801 O 344.971 -3.21279 5.08983 0
M  V30 3802 H 348.797 -0.683667 2.95905 0
M  V30 3803 H 346.382 -0.271965 1.46904 0
M  V30 3804 H 348.264 -3.13246 2.81877 0
M  V30 3805 H 346.939 -2.76681 1.68016 0
M  V30 3806 H 345.846 -1.32856 3.49714 0
M  V30 3807 H 347.179 -1.76637 4.59413 0
M  V30 3808 N 348.832 -1.54138 -0.328536 0
M  V30 3809 C 349.762 -1.86167 -1.40939 0
M  V30 3810 C 350.743 -0.718044 -1.54202 0
M  V30 3811 O 351.928 -0.971328 -1.68163 0
M  V30 3812 C 349.058 -2.08461 -2.77779 0
M  V30 3813 C 348.012 -3.24299 -2.7931 0
M  V30 3814 C 347.338 -3.31955 -4.19178 0
M  V30 3815 C 348.638 -4.62065 -2.43502 0
M  V30 3816 H 350.332 -2.76689 -1.14383 0
M  V30 3817 H 347.878 -1.33132 -0.548806 0
M  V30 3818 H 349.831 -2.29453 -3.53454 0
M  V30 3819 H 348.555 -1.14684 -3.05802 0
M  V30 3820 H 347.214 -3.03187 -2.0609 0
M  V30 3821 H 346.862 -2.35745 -4.44335 0
M  V30 3822 H 346.562 -4.09805 -4.2111 0
M  V30 3823 H 348.086 -3.55175 -4.96672 0
M  V30 3824 H 349.5 -4.8297 -3.08889 0
M  V30 3825 H 347.897 -5.42429 -2.56693 0
M  V30 3826 H 348.967 -4.64652 -1.38659 0
M  V30 3827 N 350.31 0.590341 -1.46126 0
M  V30 3828 C 351.587 1.35029 -1.41515 0
M  V30 3829 C 351.967 2.10888 -0.0946472 0
M  V30 3830 O 351.315 2.08998 0.923693 0
M  V30 3831 C 351.525 2.28269 -2.63997 0
M  V30 3832 C 352.873 2.90338 -3.09821 0
M  V30 3833 O 353.897 2.38585 -2.64492 0
M  V30 3834 O 352.756 3.84321 -3.88535 0
M  V30 3835 H 349.85 0.606317 -0.562413 0
M  V30 3836 H 352.396 0.611994 -1.58281 0
M  V30 3837 H 351.168 1.71591 -3.51671 0
M  V30 3838 H 350.791 3.0945 -2.49652 0
M  V30 3839 N 351.788 1.33704 0.83433 0
M  V30 3840 C 352.72 1.20172 1.9517 0
M  V30 3841 C 353.733 0.131572 1.62267 0
M  V30 3842 O 354.922 0.382406 1.74356 0
M  V30 3843 C 352.022 0.821716 3.28787 0
M  V30 3844 C 351.195 1.98446 3.89792 0
M  V30 3845 C 350.254 1.58469 5.01771 0
M  V30 3846 O 349.28 2.29968 5.20676 0
M  V30 3847 N 350.482 0.492291 5.78409 0
M  V30 3848 H 353.247 2.16429 2.07313 0
M  V30 3849 H 350.808 1.26509 1.0103 0
M  V30 3850 H 352.8 0.536291 4.01131 0
M  V30 3851 H 351.37 -0.0503058 3.1256 0
M  V30 3852 H 350.59 2.43526 3.09982 0
M  V30 3853 H 351.878 2.76236 4.27283 0
M  V30 3854 H 351.276 -0.102349 5.65607 0
M  V30 3855 H 349.833 0.266555 6.51255 0
M  V30 3856 N 353.266 -1.05314 1.17247 0
M  V30 3857 C 354.229 -2.112 0.890357 0
M  V30 3858 C 355.229 -1.60359 -0.118943 0
M  V30 3859 O 356.419 -1.73833 0.113086 0
M  V30 3860 C 353.551 -3.39266 0.333422 0
M  V30 3861 H 354.744 -2.37659 1.82916 0
M  V30 3862 H 352.297 -1.21538 0.982758 0
M  V30 3863 H 353.032 -3.18462 -0.612587 0
M  V30 3864 H 352.817 -3.77477 1.06082 0
M  V30 3865 H 354.307 -4.17315 0.154322 0
M  V30 3866 N 354.744 -0.972509 -1.24016 0
M  V30 3867 C 355.992 -0.635776 -1.91839 0
M  V30 3868 C 356.313 0.832312 -1.76345 0
M  V30 3869 O 355.583 1.5946 -1.13795 0
M  V30 3870 H 354.163 -0.232157 -0.710009 0
M  V30 3871 H 356.825 -1.23462 -1.50809 0
M  V30 3872 H 355.921 -0.880545 -2.99421 0
M  V30 3873 N 356.222 1.38976 -0.743202 0
M  V30 3874 C 357.447 2.05161 -0.303936 0
M  V30 3875 C 357.872 1.55677 1.05576 0
M  V30 3876 O 357.23 0.704131 1.67068 0
M  V30 3877 C 357.278 3.59138 -0.324373 0
M  V30 3878 O 356.382 4.06668 0.685204 0
M  V30 3879 H 355.723 0.649815 -0.136518 0
M  V30 3880 H 358.253 1.77852 -1.01142 0
M  V30 3881 H 358.263 4.07639 -0.171618 0
M  V30 3882 H 356.938 3.94515 -1.31647 0
M  V30 3883 H 355.515 3.69561 0.497913 0
M  V30 3884 N 357.7 0.491464 1.49741 0
M  V30 3885 C 358.928 -0.0535151 2.06831 0
M  V30 3886 C 359.343 -1.31683 1.35296 0
M  V30 3887 O 358.7 -1.77402 0.42836 0
M  V30 3888 C 358.751 -0.320835 3.60073 0
M  V30 3889 O 358.472 0.892394 4.28915 0
M  V30 3890 C 359.973 -0.910519 4.33848 0
M  V30 3891 H 357.193 0.0161909 0.670805 0
M  V30 3892 H 359.737 0.68609 1.92647 0
M  V30 3893 H 357.892 -1.0104 3.73991 0
M  V30 3894 H 358.306 0.649401 5.20464 0
M  V30 3895 H 359.78 -1.04721 5.41976 0
M  V30 3896 H 360.257 -1.90589 3.95692 0
M  V30 3897 H 360.863 -0.258712 4.24512 0
M  V30 3898 N 359.178 -1.55987 0.224894 0
M  V30 3899 C 360.108 -2.23426 -0.678457 0
M  V30 3900 C 361.089 -1.20709 -1.19847 0
M  V30 3901 O 362.274 -1.49304 -1.24186 0
M  V30 3902 C 359.404 -2.91676 -1.88527 0
M  V30 3903 C 358.358 -4.00893 -1.49896 0
M  V30 3904 C 357.684 -4.56455 -2.78483 0
M  V30 3905 C 358.984 -5.17769 -0.686461 0
M  V30 3906 H 360.678 -2.99175 -0.116173 0
M  V30 3907 H 358.224 -1.43897 -0.054436 0
M  V30 3908 H 360.177 -3.37547 -2.5227 0
M  V30 3909 H 358.901 -2.1338 -2.47258 0
M  V30 3910 H 357.56 -3.55758 -0.884985 0
M  V30 3911 H 357.208 -3.74886 -3.35365 0
M  V30 3912 H 356.908 -5.30169 -2.53368 0
M  V30 3913 H 358.432 -5.05047 -3.43162 0
M  V30 3914 H 359.846 -5.60001 -1.22767 0
M  V30 3915 H 358.243 -5.97735 -0.532259 0
M  V30 3916 H 359.313 -4.83932 0.306196 0
M  V30 3917 N 360.656 0.0484629 -1.57525 0
M  V30 3918 C 361.619 1.03956 -2.04269 0
M  V30 3919 C 362.619 1.30211 -0.943496 0
M  V30 3920 O 363.809 1.25539 -1.20771 0
M  V30 3921 C 360.941 2.37742 -2.44319 0
M  V30 3922 H 362.134 0.636182 -2.93075 0
M  V30 3923 H 359.687 0.294811 -1.53494 0
M  V30 3924 H 360.422 2.82866 -1.5861 0
M  V30 3925 H 360.207 2.20021 -3.24551 0
M  V30 3926 H 361.697 3.08936 -2.80978 0
M  V30 3927 N 362.134 1.5431 0.320358 0
M  V30 3928 C 363.55 1.45091 0.664889 0
M  V30 3929 C 363.75 0.626382 1.91517 0
M  V30 3930 O 362.806 0.126443 2.52183 0
M  V30 3931 C 364.119 2.88848 0.83591 0
M  V30 3932 C 365.667 2.9877 0.933046 0
M  V30 3933 C 366.142 4.43683 1.13621 0
M  V30 3934 N 367.633 4.47309 1.20287 0
M  V30 3935 C 368.368 5.56595 1.37801 0
M  V30 3936 N 367.864 6.75844 1.52338 0
M  V30 3937 N 369.657 5.44248 1.40535 0
M  V30 3938 H 361.808 2.06398 -0.501374 0
M  V30 3939 H 364.071 0.933963 -0.162534 0
M  V30 3940 H 363.777 3.51698 -0.0116092 0
M  V30 3941 H 363.651 3.35148 1.73078 0
M  V30 3942 H 366.038 2.36045 1.77107 0
M  V30 3943 H 366.119 2.55796 0.0145782 0
M  V30 3944 H 365.763 5.06995 0.303032 0
M  V30 3945 H 365.693 4.84269 2.0686 0
M  V30 3946 H 368.184 3.61388 1.10485 0
M  V30 3947 H 368.497 7.54892 1.65403 0
M  V30 3948 H 366.842 6.78746 1.4943 0
M  V30 3949 H 370.033 4.50038 1.28777 0
M  V30 3950 H 370.206 6.29473 1.53842 0
M  V30 3951 N 363.613 -0.582584 1.46437 0
M  V30 3952 C 364.523 -1.71949 1.59595 0
M  V30 3953 C 365.539 -1.67264 0.479443 0
M  V30 3954 O 366.715 -1.87171 0.743579 0
M  V30 3955 C 363.78 -3.08452 1.58298 0
M  V30 3956 C 362.841 -3.244 2.81182 0
M  V30 3957 C 362.074 -4.54391 2.79937 0
M  V30 3958 O 362.297 -5.38287 1.8869 0
M  V30 3959 O 361.231 -4.73588 3.71481 0
M  V30 3960 H 365.057 -1.63795 2.55744 0
M  V30 3961 H 362.642 -0.749643 1.29231 0
M  V30 3962 H 364.524 -3.89732 1.60271 0
M  V30 3963 H 363.199 -3.17043 0.653094 0
M  V30 3964 H 362.106 -2.42613 2.84763 0
M  V30 3965 H 363.439 -3.20699 3.7338 0
M  V30 3966 N 365.091 -1.34144 -0.827227 0
M  V30 3967 C 366.319 -1.29325 -1.61501 0
M  V30 3968 C 366.734 0.13354 -1.88327 0
M  V30 3969 O 366.091 1.0793 -1.47164 0
M  V30 3970 C 366.142 -2.07746 -2.95844 0
M  V30 3971 O 365.863 -3.4486 -2.70191 0
M  V30 3972 C 367.364 -2.10273 -3.90256 0
M  V30 3973 H 364.584 -0.445069 -0.50215 0
M  V30 3974 H 367.128 -1.76693 -1.02955 0
M  V30 3975 H 365.283 -1.6403 -3.5096 0
M  V30 3976 H 365.697 -3.85345 -3.55822 0
M  V30 3977 H 367.171 -2.69575 -4.81698 0
M  V30 3978 H 367.648 -1.096 -4.25305 0
M  V30 3979 H 368.254 -2.54059 -3.41078 0
M  V30 3980 N 366.569 1.04691 -1.17803 0
M  V30 3981 C 367.499 2.14494 -0.92275 0
M  V30 3982 C 368.48 1.69546 0.137179 0
M  V30 3983 O 369.665 1.94195 -0.0141108 0
M  V30 3984 C 366.795 3.44491 -0.440803 0
M  V30 3985 C 365.749 4.03031 -1.4405 0
M  V30 3986 C 365.075 5.28432 -0.81631 0
M  V30 3987 C 366.375 4.39932 -2.81527 0
M  V30 3988 H 368.069 2.36107 -1.84103 0
M  V30 3989 H 365.615 1.1347 -0.886599 0
M  V30 3990 H 367.568 4.2066 -0.249602 0
M  V30 3991 H 366.292 3.22546 0.513025 0
M  V30 3992 H 364.951 3.28937 -1.61853 0
M  V30 3993 H 364.599 5.02792 0.144511 0
M  V30 3994 H 364.299 5.68559 -1.48371 0
M  V30 3995 H 365.823 6.07284 -0.635496 0
M  V30 3996 H 367.237 5.07113 -2.67412 0
M  V30 3997 H 365.634 4.9109 -3.44892 0
M  V30 3998 H 366.704 3.50045 -3.35554 0
M  V30 3999 N 368.047 0.979072 1.23499 0
M  V30 4000 C 368.957 0.526431 2.28617 0
M  V30 4001 C 369.973 -0.418126 1.68901 0
M  V30 4002 O 371.149 -0.288372 1.99325 0
M  V30 4003 C 368.214 -0.165235 3.46306 0
M  V30 4004 C 367.275 0.82056 4.21385 0
M  V30 4005 C 366.508 0.161807 5.33455 0
M  V30 4006 O 366.731 -1.04742 5.60701 0
M  V30 4007 O 365.665 0.859708 5.95729 0
M  V30 4008 H 369.491 1.4006 2.69475 0
M  V30 4009 H 367.076 0.746643 1.29405 0
M  V30 4010 H 368.958 -0.553287 4.17752 0
M  V30 4011 H 367.633 -1.01419 3.07402 0
M  V30 4012 H 366.54 1.25929 3.52268 0
M  V30 4013 H 367.873 1.63828 4.64135 0
M  V30 4014 N 369.525 -1.3858 0.750561 0
M  V30 4015 C 370.802 -1.94231 0.231009 0
M  V30 4016 C 371.182 -1.68611 -1.27018 0
M  V30 4017 O 370.53 -1.02296 -2.04323 0
M  V30 4018 C 370.74 -3.44123 0.581428 0
M  V30 4019 C 372.088 -4.2116 0.539389 0
M  V30 4020 O 373.112 -3.52391 0.519541 0
M  V30 4021 O 371.971 -5.43749 0.54765 0
M  V30 4022 H 369.065 -0.825639 0.0474263 0
M  V30 4023 H 371.611 -1.4799 0.830478 0
M  V30 4024 H 370.383 -3.56267 1.61833 0
M  V30 4025 H 370.006 -3.97573 -0.0462047 0
M  V30 4026 N 371.003 -0.499398 -1.49478 0
M  V30 4027 C 372.251 0.0455996 -2.02049 0
M  V30 4028 C 372.572 1.37633 -1.38138 0
M  V30 4029 O 371.842 1.8842 -0.536166 0
M  V30 4030 H 370.422 0.0198416 -0.746736 0
M  V30 4031 H 373.084 -0.656274 -1.83519 0
M  V30 4032 H 372.18 0.176445 -3.11601 0
M  V30 4033 N 372.481 1.55866 -0.233164 0
M  V30 4034 C 373.728 1.98603 0.395374 0
M  V30 4035 C 374.056 1.12105 1.58942 0
M  V30 4036 O 373.311 0.168656 1.94972 0
M  V30 4037 C 373.61 3.46856 0.861724 0
M  V30 4038 C 373.276 4.50348 -0.223066 0
M  V30 4039 C 371.938 4.78371 -0.521038 0
M  V30 4040 C 374.29 5.12355 -0.956124 0
M  V30 4041 C 371.618 5.6568 -1.55638 0
M  V30 4042 C 373.97 6.00786 -1.98089 0
M  V30 4043 C 372.634 6.27148 -2.28565 0
M  V30 4044 H 371.904 0.726739 0.144677 0
M  V30 4045 H 374.551 1.88491 -0.338114 0
M  V30 4046 H 372.856 3.5423 1.67418 0
M  V30 4047 H 374.553 3.77302 1.35809 0
M  V30 4048 H 371.143 4.28596 0.0193234 0
M  V30 4049 H 375.327 4.90765 -0.739166 0
M  V30 4050 H 370.583 5.84365 -1.798 0
M  V30 4051 H 374.757 6.4788 -2.55391 0
M  V30 4052 H 372.384 6.94597 -3.08932 0
M  V30 4053 N 373.959 -0.0401083 1.57549 0
M  V30 4054 C 375.37 -0.588097 1.77196 0
M  V30 4055 C 375.721 -1.76209 0.862832 0
M  V30 4056 O 374.846 -2.16331 0.0548389 0
M  V30 4057 C 375.441 -1.07363 3.21339 0
M  V30 4058 C 374 -1.56723 3.42221 0
M  V30 4059 C 373.147 -0.50041 2.72747 0
M  V30 4060 H 376.098 0.186119 1.57605 0
M  V30 4061 H 376.119 -1.94143 3.27244 0
M  V30 4062 H 375.631 -0.218975 3.87482 0
M  V30 4063 H 373.732 -2.4441 2.81237 0
M  V30 4064 H 373.845 -1.62234 4.50796 0
M  V30 4065 H 372.209 -0.952894 2.36203 0
M  V30 4066 H 372.992 0.344599 3.41566 0
M  V30 4067 N 375.437 -1.54477 -0.31217 0
M  V30 4068 C 376.683 -1.73483 -1.0503 0
M  V30 4069 C 377.016 -0.513125 -1.87298 0
M  V30 4070 O 376.291 0.489864 -1.8823 0
M  V30 4071 C 376.574 -3.01723 -1.96558 0
M  V30 4072 C 376.427 -4.3417 -1.17545 0
M  V30 4073 C 377.746 -3.25772 -2.95907 0
M  V30 4074 H 374.865 -0.631222 -0.380432 0
M  V30 4075 H 377.507 -1.87184 -0.325932 0
M  V30 4076 H 375.657 -2.90174 -2.58324 0
M  V30 4077 H 377.329 -4.5762 -0.581513 0
M  V30 4078 H 375.572 -4.31159 -0.477925 0
M  V30 4079 H 376.243 -5.20143 -1.84811 0
M  V30 4080 H 378.719 -3.36857 -2.44267 0
M  V30 4081 H 377.595 -4.16838 -3.57123 0
M  V30 4082 H 377.856 -2.43537 -3.68974 0
M  V30 4083 N 376.915 0.57481 -1.46744 0
M  V30 4084 C 377.865 1.67838 -1.54319 0
M  V30 4085 C 378.849 1.55759 -0.40346 0
M  V30 4086 O 380.041 1.6454 -0.652347 0
M  V30 4087 C 377.17 3.06624 -1.5439 0
M  V30 4088 C 376.256 3.23971 -2.73685 0
M  V30 4089 N 376.647 3.11447 -3.9854 0
M  V30 4090 C 374.945 3.5493 -2.70075 0
M  V30 4091 C 375.646 3.31011 -4.78337 0
M  V30 4092 N 374.622 3.56533 -4.10348 0
M  V30 4093 H 378.424 1.56698 -2.48642 0
M  V30 4094 H 375.938 0.779071 -1.42493 0
M  V30 4095 H 377.935 3.85839 -1.57905 0
M  V30 4096 H 376.595 3.1889 -0.611493 0
M  V30 4097 H 377.606 2.89145 -4.29669 0
M  V30 4098 H 374.283 3.73832 -1.85893 0
M  V30 4099 H 375.673 3.26445 -5.87268 0
M  V30 4100 N 378.394 1.34581 0.820102 0
M  V30 4101 C 379.671 1.17675 1.56244 0
M  V30 4102 C 380.051 -0.249541 2.0962 0
M  V30 4103 O 379.399 -1.25125 1.91196 0
M  V30 4104 C 379.609 2.23364 2.6816 0
M  V30 4105 C 380.957 2.58485 3.36854 0
M  V30 4106 O 381.981 2.22175 2.78418 0
M  V30 4107 O 380.84 3.20868 4.42386 0
M  V30 4108 H 377.934 0.456333 0.689702 0
M  V30 4109 H 380.48 1.46222 0.861231 0
M  V30 4110 H 379.252 3.19087 2.26493 0
M  V30 4111 H 378.875 1.96009 3.45928 0
M  V30 4112 N 379.872 -1.04064 1.18357 0
M  V30 4113 C 381.12 -1.76915 0.977013 0
M  V30 4114 C 381.441 -1.88624 -0.494577 0
M  V30 4115 O 380.711 -1.41125 -1.3587 0
M  V30 4116 H 379.291 -0.65535 0.358504 0
M  V30 4117 H 381.953 -1.25592 1.49039 0
M  V30 4118 H 381.049 -2.78178 1.41504 0
M  V30 4119 N 381.35 -0.985608 -1.22978 0
M  V30 4120 C 382.297 -0.529825 -2.24636 0
M  V30 4121 C 383.267 0.434028 -1.60329 0
M  V30 4122 O 384.452 0.340414 -1.87739 0
M  V30 4123 C 381.592 0.156533 -3.44745 0
M  V30 4124 C 380.705 -0.848197 -4.23591 0
M  V30 4125 C 379.84 -0.136109 -5.31026 0
M  V30 4126 C 378.879 -1.1297 -6.01585 0
M  V30 4127 N 378.016 -0.446415 -7.00679 0
M  V30 4128 H 382.856 -1.40148 -2.62988 0
M  V30 4129 H 380.393 -0.702168 -1.29259 0
M  V30 4130 H 382.351 0.571324 -4.1327 0
M  V30 4131 H 380.981 0.992025 -3.07179 0
M  V30 4132 H 380.033 -1.38135 -3.54433 0
M  V30 4133 H 381.345 -1.60512 -4.72268 0
M  V30 4134 H 380.499 0.335784 -6.0577 0
M  V30 4135 H 379.238 0.653373 -4.83304 0
M  V30 4136 H 378.243 -1.6123 -5.25628 0
M  V30 4137 H 379.468 -1.91993 -6.51395 0
M  V30 4138 H 377.414 0.323763 -6.55201 0
M  V30 4139 H 377.331 -1.1419 -7.47326 0
M  V30 4140 H 378.599 0.00291697 -7.795 0
M  V30 4141 N 382.828 1.3818 -0.7579 0
M  V30 4142 C 384.076 1.99624 -0.315361 0
M  V30 4143 C 384.397 1.60464 1.10799 0
M  V30 4144 O 383.667 0.863507 1.75842 0
M  V30 4145 H 382.247 0.73831 -0.113611 0
M  V30 4146 H 384.909 1.68878 -0.972952 0
M  V30 4147 H 384.005 3.09754 -0.381931 0
M  V30 4148 N 384.306 0.507319 1.49211 0
M  V30 4149 C 385.583 -0.0982702 1.95353 0
M  V30 4150 C 385.963 -1.53516 1.449 0
M  V30 4151 O 385.311 -2.18594 0.66551 0
M  V30 4152 C 385.521 -0.00440283 3.49 0
M  V30 4153 C 386.869 -0.175147 4.24239 0
M  V30 4154 O 387.893 -0.0792891 3.56112 0
M  V30 4155 O 386.752 -0.37276 5.45227 0
M  V30 4156 H 383.846 -0.0918236 0.821887 0
M  V30 4157 H 386.392 0.570307 1.5983 0
M  V30 4158 H 385.164 0.997402 3.78375 0
M  V30 4159 H 384.787 -0.712845 3.91158 0
M  V30 4160 N 385.784 -1.5574 0.241426 0
M  V30 4161 C 386.717 -2.17168 -0.700935 0
M  V30 4162 C 387.695 -1.12206 -1.1768 0
M  V30 4163 O 388.879 -1.40565 -1.25593 0
M  V30 4164 C 386.006 -2.76796 -1.95196 0
M  V30 4165 C 385.052 -3.94764 -1.61442 0
M  V30 4166 S 385.885 -5.30613 -0.72182 0
M  V30 4167 C 387.041 -5.93691 -1.98197 0
M  V30 4168 H 387.274 -2.96761 -0.178882 0
M  V30 4169 H 384.807 -1.54378 0.0259299 0
M  V30 4170 H 386.765 -3.11787 -2.67019 0
M  V30 4171 H 385.426 -1.9716 -2.44514 0
M  V30 4172 H 384.619 -4.35057 -2.54443 0
M  V30 4173 H 384.221 -3.61022 -0.976672 0
M  V30 4174 H 386.513 -6.10874 -2.92983 0
M  V30 4175 H 387.456 -6.89258 -1.62262 0
M  V30 4176 H 387.864 -5.22709 -2.13156 0
M  V30 4177 N 387.262 0.0317525 -1.57568 0
M  V30 4178 C 388.678 0.38735 -1.54828 0
M  V30 4179 C 388.878 1.7677 -0.967187 0
M  V30 4180 O 387.934 2.45581 -0.587063 0
M  V30 4181 C 389.247 0.291667 -2.99282 0
M  V30 4182 C 390.795 0.368946 -3.10818 0
M  V30 4183 C 391.27 0.302741 -4.56998 0
M  V30 4184 N 392.761 0.361617 -4.61786 0
M  V30 4185 C 393.496 0.333238 -5.72431 0
M  V30 4186 N 392.992 0.257308 -6.92322 0
M  V30 4187 N 394.785 0.382769 -5.60795 0
M  V30 4188 H 386.936 -0.871609 -1.93692 0
M  V30 4189 H 389.199 -0.331161 -0.888277 0
M  V30 4190 H 388.905 -0.656794 -3.45513 0
M  V30 4191 H 388.779 1.08638 -3.61217 0
M  V30 4192 H 391.166 1.30784 -2.64536 0
M  V30 4193 H 391.247 -0.455066 -2.5172 0
M  V30 4194 H 390.891 -0.632473 -5.03947 0
M  V30 4195 H 390.821 1.14482 -5.14005 0
M  V30 4196 H 393.312 0.422923 -3.75526 0
M  V30 4197 H 393.625 0.24068 -7.72425 0
M  V30 4198 H 391.97 0.223396 -6.94641 0
M  V30 4199 H 395.161 0.44006 -4.66027 0
M  V30 4200 H 395.334 0.357184 -6.47015 0
M  V30 4201 N 388.74 1.54641 0.303973 0
M  V30 4202 C 389.687 1.85386 1.37479 0
M  V30 4203 C 390.657 0.702528 1.50512 0
M  V30 4204 O 391.842 0.950867 1.65418 0
M  V30 4205 C 388.982 2.10413 2.73533 0
M  V30 4206 C 388.095 3.38049 2.68974 0
M  V30 4207 C 387.23 3.52934 3.97002 0
M  V30 4208 C 386.269 4.74373 3.86829 0
M  V30 4209 N 385.406 4.8608 5.06627 0
M  V30 4210 H 390.246 2.76732 1.1056 0
M  V30 4211 H 387.783 1.37034 0.534805 0
M  V30 4212 H 389.741 2.22919 3.52652 0
M  V30 4213 H 388.371 1.22338 2.98719 0
M  V30 4214 H 387.423 3.3418 1.81736 0
M  V30 4215 H 388.735 4.27288 2.57346 0
M  V30 4216 H 387.889 3.65088 4.84557 0
M  V30 4217 H 386.628 2.61824 4.1146 0
M  V30 4218 H 385.633 4.62255 2.97658 0
M  V30 4219 H 386.858 5.66888 3.73918 0
M  V30 4220 H 384.804 3.97891 5.21554 0
M  V30 4221 H 384.721 5.69315 4.9741 0
M  V30 4222 H 385.989 5.02587 5.95841 0
M  V30 4223 N 390.218 -0.567019 1.47046 0
M  V30 4224 C 391.458 -1.3355 1.54738 0
M  V30 4225 C 391.822 -1.90947 0.200772 0
M  V30 4226 O 393.023 -2.68367 0.152489 0
M  V30 4227 C 391.294 -2.42317 2.62712 0
M  V30 4228 S 392.853 -3.29383 2.89918 0
M  V30 4229 H 389.671 -0.454788 0.546525 0
M  V30 4230 H 392.273 -0.650191 1.84371 0
M  V30 4231 H 390.977 -1.98568 3.59164 0
M  V30 4232 H 390.508 -3.15601 2.34861 0
M  V30 4233 H 392.523 -4.41548 2.26384 0
M  V30 4234 N 391.696 -1.35014 -0.812953 0
M  V30 4235 C 393.107 -1.25035 -1.38648 0
M  V30 4236 C 393.458 0.119967 -1.95833 0
M  V30 4237 O 392.583 1.02069 -1.90816 0
M  V30 4238 C 393.178 -2.26394 -2.52054 0
M  V30 4239 C 391.737 -2.20175 -3.05287 0
M  V30 4240 C 390.884 -2.12451 -1.78213 0
M  V30 4241 H 393.835 -1.46235 -0.616516 0
M  V30 4242 H 393.856 -1.88672 -3.30429 0
M  V30 4243 H 393.368 -3.26116 -2.10404 0
M  V30 4244 H 391.469 -1.23841 -3.51417 0
M  V30 4245 H 391.582 -3.11863 -3.63701 0
M  V30 4246 H 389.946 -1.58328 -1.9951 0
M  V30 4247 H 390.729 -3.14024 -1.38723 0
M  V30 4248 N 393.175 1.03435 -1.18907 0
M  V30 4249 C 394.422 1.76743 -0.988334 0
M  V30 4250 C 394.75 1.88447 0.481441 0
M  V30 4251 O 394.005 1.39383 1.37371 0
M  V30 4252 C 394.304 3.19792 -1.59586 0
M  V30 4253 C 393.97 3.28108 -3.09283 0
M  V30 4254 C 392.632 3.30084 -3.5014 0
M  V30 4255 C 394.984 3.27696 -4.05296 0
M  V30 4256 C 392.312 3.29299 -4.85571 0
M  V30 4257 C 394.664 3.28451 -5.4065 0
M  V30 4258 C 393.328 3.28723 -5.80946 0
M  V30 4259 H 392.598 0.64675 -0.361657 0
M  V30 4260 H 395.245 1.21442 -1.48068 0
M  V30 4261 H 393.55 3.78136 -1.02568 0
M  V30 4262 H 395.247 3.75171 -1.41589 0
M  V30 4263 H 391.837 3.27294 -2.76725 0
M  V30 4264 H 396.021 3.25354 -3.74778 0
M  V30 4265 H 391.277 3.2783 -5.16079 0
M  V30 4266 H 395.451 3.27082 -6.14809 0
M  V30 4267 H 393.078 3.27868 -6.85862 0
M  V30 4268 N 394.653 0.992116 1.22453 0
M  V30 4269 C 395.883 0.684949 1.94915 0
M  V30 4270 C 396.291 -0.754292 1.73514 0
M  V30 4271 O 395.634 -1.52056 1.03076 0
M  V30 4272 C 395.696 0.910054 3.47791 0
M  V30 4273 C 395.36 2.33363 3.92926 0
M  V30 4274 C 396.357 3.31308 4.00663 0
M  V30 4275 C 394.042 2.66785 4.25595 0
M  V30 4276 C 396.036 4.6075 4.40441 0
M  V30 4277 C 393.723 3.96446 4.65053 0
M  V30 4278 C 394.721 4.9324 4.72444 0
M  V30 4279 O 394.409 6.20584 5.1101 0
M  V30 4280 H 394.141 0.25258 0.62704 0
M  V30 4281 H 396.695 1.32939 1.56577 0
M  V30 4282 H 394.925 0.208443 3.86138 0
M  V30 4283 H 396.614 0.598257 4.01467 0
M  V30 4284 H 397.38 3.0682 3.75615 0
M  V30 4285 H 393.259 1.92148 4.19047 0
M  V30 4286 H 396.803 5.363 4.46126 0
M  V30 4287 H 392.7 4.20724 4.89552 0
M  V30 4288 H 393.468 6.24509 5.29085 0
M  V30 4289 N 396.131 -1.37776 0.765217 0
M  V30 4290 C 397.094 -2.28686 0.153416 0
M  V30 4291 C 398.094 -1.47727 -0.635081 0
M  V30 4292 O 399.284 -1.68027 -0.459632 0
M  V30 4293 C 396.416 -3.31608 -0.790495 0
M  V30 4294 H 397.609 -2.84297 0.954723 0
M  V30 4295 H 395.162 -1.46932 0.53299 0
M  V30 4296 H 395.897 -2.81109 -1.61705 0
M  V30 4297 H 395.682 -3.9144 -0.227348 0
M  V30 4298 H 397.172 -3.99559 -1.21419 0
M  V30 4299 N 397.609 -0.515225 -1.4894 0
M  V30 4300 C 398.572 0.244681 -2.2789 0
M  V30 4301 C 399.572 0.881166 -1.34507 0
M  V30 4302 O 400.762 0.743497 -1.57537 0
M  V30 4303 C 397.894 1.35247 -3.12923 0
M  V30 4304 H 399.087 -0.448289 -2.96531 0
M  V30 4305 H 396.64 -0.270656 -1.53939 0
M  V30 4306 H 397.375 2.07916 -2.48881 0
M  V30 4307 H 397.16 0.901374 -3.81599 0
M  V30 4308 H 398.65 1.88737 -3.72516 0
M  V30 4309 N 399.087 1.5561 -0.249682 0
M  V30 4310 C 399.997 2.25143 0.659375 0
M  V30 4311 C 401.013 1.2685 1.19101 0
M  V30 4312 O 402.189 1.59732 1.22669 0
M  V30 4313 C 399.254 2.93945 1.8384 0
M  V30 4314 C 398.315 4.07655 1.34596 0
M  V30 4315 C 397.548 4.73167 2.46878 0
M  V30 4316 O 397.771 4.37768 3.65671 0
M  V30 4317 O 396.705 5.61623 2.16478 0
M  V30 4318 H 400.531 3.03545 0.0968698 0
M  V30 4319 H 398.116 1.49389 -0.018074 0
M  V30 4320 H 399.998 3.37271 2.52638 0
M  V30 4321 H 398.673 2.18481 2.38847 0
M  V30 4322 H 397.58 3.68839 0.625174 0
M  V30 4323 H 398.913 4.84946 0.841941 0
M  V30 4324 N 400.565 -0.0233959 1.57583 0
M  V30 4325 C 401.497 -1.04994 2.03737 0
M  V30 4326 C 402.51 -1.32125 0.951152 0
M  V30 4327 O 403.699 -1.29512 1.22837 0
M  V30 4328 C 400.799 -2.39026 2.40249 0
M  V30 4329 C 399.972 -2.31171 3.7132 0
M  V30 4330 C 399.031 -3.47698 3.94959 0
M  V30 4331 O 398.057 -3.26937 4.65941 0
M  V30 4332 N 399.259 -4.6976 3.41037 0
M  V30 4333 H 402.024 -0.656507 2.92421 0
M  V30 4334 H 399.585 -0.211235 1.60516 0
M  V30 4335 H 401.577 -3.15712 2.53196 0
M  V30 4336 H 400.147 -2.70194 1.57207 0
M  V30 4337 H 399.367 -1.39547 3.68674 0
M  V30 4338 H 400.655 -2.23071 4.57293 0
M  V30 4339 H 400.053 -4.89528 2.83512 0
M  V30 4340 H 398.61 -5.43791 3.59353 0
M  V30 4341 N 402.043 -1.548 -0.295768 0
M  V30 4342 C 403.32 -1.65014 -1.05023 0
M  V30 4343 C 403.7 -0.501805 -2.05049 0
M  V30 4344 O 403.048 0.500869 -2.22943 0
M  V30 4345 C 403.258 -3.03252 -1.72741 0
M  V30 4346 C 404.606 -3.60242 -2.24746 0
M  V30 4347 O 405.63 -3.05737 -1.82765 0
M  V30 4348 O 404.489 -4.55687 -3.01681 0
M  V30 4349 H 401.583 -0.669314 -0.485744 0
M  V30 4350 H 404.129 -1.67144 -0.293438 0
M  V30 4351 H 402.901 -3.7827 -1.00138 0
M  V30 4352 H 402.524 -3.04922 -2.55163 0
M  V30 4353 N 403.521 0.559213 -1.47345 0
M  V30 4354 C 404.468 1.66645 -1.59682 0
M  V30 4355 C 405.438 1.60168 -0.43994 0
M  V30 4356 O 406.623 1.79031 -0.659736 0
M  V30 4357 C 403.763 3.04969 -1.61518 0
M  V30 4358 C 402.876 3.21897 -2.88108 0
M  V30 4359 C 402.011 4.50608 -2.81294 0
M  V30 4360 C 401.05 4.60961 -4.02717 0
M  V30 4361 N 400.187 5.81024 -3.94151 0
M  V30 4362 H 405.027 1.55439 -2.54249 0
M  V30 4363 H 402.564 0.757219 -1.26113 0
M  V30 4364 H 404.522 3.85064 -1.60566 0
M  V30 4365 H 403.152 3.15015 -0.704645 0
M  V30 4366 H 402.204 2.35248 -2.98936 0
M  V30 4367 H 403.516 3.25412 -3.78032 0
M  V30 4368 H 402.67 5.3896 -2.7858 0
M  V30 4369 H 401.409 4.49568 -1.89049 0
M  V30 4370 H 400.414 3.71021 -4.05738 0
M  V30 4371 H 401.639 4.63761 -4.96087 0
M  V30 4372 H 399.585 5.80938 -3.04708 0
M  V30 4373 H 399.502 5.85909 -4.77752 0
M  V30 4374 H 400.77 6.71744 -3.9545 0
M  V30 4375 N 404.999 1.35443 0.805782 0
M  V30 4376 C 406.247 1.28507 1.55982 0
M  V30 4377 C 406.568 -0.140046 1.94496 0
M  V30 4378 O 405.838 -1.07666 1.63661 0
M  V30 4379 H 404.418 0.472676 0.578434 0
M  V30 4380 H 407.08 1.69555 0.961098 0
M  V30 4381 H 406.176 1.90148 2.47488 0
M  V30 4382 N 406.477 -1.02803 1.19454 0
M  V30 4383 C 407.44 -2.09264 0.934955 0
M  V30 4384 C 408.44 -1.60576 -0.0849015 0
M  V30 4385 O 409.63 -1.73554 0.149933 0
M  V30 4386 C 406.762 -3.38482 0.40531 0
M  V30 4387 H 407.955 -2.33726 1.87916 0
M  V30 4388 H 405.508 -1.19426 1.00832 0
M  V30 4389 H 406.243 -3.19689 -0.544899 0
M  V30 4390 H 406.028 -3.75142 1.14065 0
M  V30 4391 H 407.518 -4.16894 0.242806 0
M  V30 4392 N 407.956 -0.998596 -1.21925 0
M  V30 4393 C 408.886 -0.573688 -2.26343 0
M  V30 4394 C 409.867 0.402296 -1.65274 0
M  V30 4395 O 411.052 0.291683 -1.91997 0
M  V30 4396 C 408.182 0.106839 -3.47136 0
M  V30 4397 C 407.136 -0.788269 -4.20678 0
M  V30 4398 C 406.462 0.0254927 -5.34694 0
M  V30 4399 C 407.762 -2.08784 -4.78755 0
M  V30 4400 H 409.456 -1.44651 -2.62138 0
M  V30 4401 H 407.002 -0.696975 -1.26009 0
M  V30 4402 H 408.955 0.415531 -4.19346 0
M  V30 4403 H 407.679 1.01424 -3.10452 0
M  V30 4404 H 406.338 -1.08069 -3.50309 0
M  V30 4405 H 405.986 0.933989 -4.94253 0
M  V30 4406 H 405.686 -0.570437 -5.84825 0
M  V30 4407 H 407.21 0.328147 -6.09718 0
M  V30 4408 H 408.624 -1.84272 -5.42878 0
M  V30 4409 H 407.021 -2.63307 -5.39249 0
M  V30 4410 H 408.091 -2.76284 -3.98491 0
M  V30 4411 N 409.434 1.37368 -0.772513 0
M  V30 4412 C 410.344 2.34053 -0.160081 0
M  V30 4413 C 411.36 1.60216 0.678728 0
M  V30 4414 O 412.536 1.92303 0.59847 0
M  V30 4415 C 409.601 3.3939 0.708182 0
M  V30 4416 C 408.662 4.29048 -0.147172 0
M  V30 4417 C 407.895 5.29354 0.679744 0
M  V30 4418 O 408.118 5.3723 1.91678 0
M  V30 4419 O 407.052 6.01835 0.0885444 0
M  V30 4420 H 410.878 2.88159 -0.959053 0
M  V30 4421 H 408.463 1.39543 -0.533685 0
M  V30 4422 H 410.345 4.03839 1.20384 0
M  V30 4423 H 409.02 2.8761 1.48533 0
M  V30 4424 H 407.927 3.67697 -0.689205 0
M  V30 4425 H 409.26 4.84134 -0.887423 0
M  V30 4426 N 410.912 0.523116 1.48665 0
M  V30 4427 C 412.16 -0.0134497 2.02096 0
M  V30 4428 C 412.481 -1.35418 1.40311 0
M  V30 4429 O 411.751 -1.87543 0.566074 0
M  V30 4430 H 410.331 -0.00795915 0.746958 0
M  V30 4431 H 412.993 0.685388 1.82451 0
M  V30 4432 H 412.089 -0.126849 3.11842 0
M  V30 4433 N 412.39 -1.55475 0.257931 0
M  V30 4434 C 413.615 -2.04064 -0.370488 0
M  V30 4435 C 414.04 -1.13565 -1.49948 0
M  V30 4436 O 413.398 -0.130781 -1.80828 0
M  V30 4437 C 413.446 -3.50554 -0.845237 0
M  V30 4438 O 412.55 -3.63173 -1.95394 0
M  V30 4439 H 411.891 -0.659257 -0.0792243 0
M  V30 4440 H 414.421 -2.00903 0.387212 0
M  V30 4441 H 414.431 -3.91588 -1.14555 0
M  V30 4442 H 413.106 -4.15896 -0.0191259 0
M  V30 4443 H 411.683 -3.34039 -1.65748 0
M  V30 4444 N 413.868 0.0150385 -1.57593 0
M  V30 4445 C 415.093 0.718067 -1.94573 0
M  V30 4446 C 415.518 1.6734 -0.859005 0
M  V30 4447 O 414.876 1.80362 0.184147 0
M  V30 4448 C 414.924 1.43918 -3.30636 0
M  V30 4449 O 414.028 2.55299 -3.23876 0
M  V30 4450 H 413.369 0.192125 -0.635597 0
M  V30 4451 H 415.899 -0.0336708 -2.04572 0
M  V30 4452 H 415.909 1.80598 -3.65853 0
M  V30 4453 H 414.584 0.738619 -4.09289 0
M  V30 4454 H 413.161 2.21058 -3.00312 0
M  V30 4455 N 415.346 1.54954 0.287554 0
M  V30 4456 C 416.586 1.76617 1.02887 0
M  V30 4457 C 416.95 0.547759 1.84021 0
M  V30 4458 O 418.151 0.642365 2.61012 0
M  V30 4459 C 416.422 3.02717 1.89993 0
M  V30 4460 S 417.981 3.45438 2.70588 0
M  V30 4461 H 414.799 0.6207 0.346775 0
M  V30 4462 H 417.401 1.93172 0.30082 0
M  V30 4463 H 416.105 3.89503 1.29287 0
M  V30 4464 H 415.636 2.88787 2.67144 0
M  V30 4465 H 417.651 3.03566 3.92508 0
M  V30 4466 N 416.824 -0.551391 1.4764 0
M  V30 4467 C 418.235 -1.13349 1.48354 0
M  V30 4468 C 418.586 -1.94709 0.241432 0
M  V30 4469 O 417.711 -2.06306 -0.653205 0
M  V30 4470 C 418.306 -2.0623 2.68802 0
M  V30 4471 C 416.865 -2.597 2.72457 0
M  V30 4472 C 416.012 -1.36201 2.41546 0
M  V30 4473 H 418.963 -0.337698 1.55065 0
M  V30 4474 H 418.984 -2.90196 2.46103 0
M  V30 4475 H 418.496 -1.46987 3.59188 0
M  V30 4476 H 416.597 -3.22724 1.86225 0
M  V30 4477 H 416.71 -3.00296 3.73308 0
M  V30 4478 H 415.074 -1.67068 1.9225 0
M  V30 4479 H 415.857 -0.787425 3.34147 0
M  V30 4480 N 418.302 -1.35869 -0.798587 0
M  V30 4481 C 419.549 -1.29588 -1.55606 0
M  V30 4482 C 419.877 0.127456 -1.94082 0
M  V30 4483 O 419.132 1.09461 -1.62225 0
M  V30 4484 C 419.431 -2.1556 -2.85077 0
M  V30 4485 C 419.097 -3.6424 -2.65781 0
M  V30 4486 C 417.759 -4.04766 -2.60227 0
M  V30 4487 C 420.111 -4.58547 -2.47758 0
M  V30 4488 C 417.439 -5.37753 -2.34603 0
M  V30 4489 C 419.791 -5.91742 -2.23662 0
M  V30 4490 C 418.455 -6.31402 -2.16534 0
M  V30 4491 H 417.725 -0.474197 -0.569402 0
M  V30 4492 H 420.372 -1.67839 -0.922086 0
M  V30 4493 H 418.677 -1.70216 -3.52893 0
M  V30 4494 H 420.374 -2.08031 -3.42818 0
M  V30 4495 H 416.964 -3.32086 -2.70956 0
M  V30 4496 H 421.148 -4.28117 -2.51056 0
M  V30 4497 H 416.404 -5.67474 -2.2756 0
M  V30 4498 H 420.578 -6.6439 -2.08708 0
M  V30 4499 H 418.205 -7.34381 -1.96441 0
M  V30 4500 N 419.78 1.02168 -1.19998 0
M  V30 4501 C 421.196 1.27969 -0.953737 0
M  V30 4502 C 421.396 1.98079 0.369703 0
M  V30 4503 O 420.452 2.27306 1.09947 0
M  V30 4504 C 421.765 2.11971 -2.13281 0
M  V30 4505 C 423.313 2.25255 -2.17323 0
M  V30 4506 C 423.788 3.12632 -3.34702 0
M  V30 4507 N 425.279 3.2022 -3.34684 0
M  V30 4508 C 426.014 3.88039 -4.22153 0
M  V30 4509 N 425.51 4.58027 -5.19791 0
M  V30 4510 N 427.303 3.84511 -4.10009 0
M  V30 4511 H 419.454 0.550794 -2.05134 0
M  V30 4512 H 421.717 0.305683 -0.897364 0
M  V30 4513 H 421.423 1.67785 -3.09097 0
M  V30 4514 H 421.297 3.12699 -2.10949 0
M  V30 4515 H 423.684 2.68667 -1.22073 0
M  V30 4516 H 423.765 1.24053 -2.23706 0
M  V30 4517 H 423.409 2.69926 -4.30235 0
M  V30 4518 H 423.339 4.13909 -3.25556 0
M  V30 4519 H 425.83 2.70382 -2.64012 0
M  V30 4520 H 426.143 5.07429 -5.82868 0
M  V30 4521 H 424.488 4.56869 -5.23733 0
M  V30 4522 H 427.679 3.28978 -3.33003 0
M  V30 4523 H 427.852 4.3709 -4.78389 0
M  V30 4524 N 421.258 1.00505 1.21394 0
M  V30 4525 C 422.486 0.706609 1.9446 0
M  V30 4526 C 422.901 -0.73081 1.74082 0
M  V30 4527 O 422.258 -1.49446 1.04747 0
M  V30 4528 C 422.309 1.01824 3.46863 0
M  V30 4529 O 422.03 2.39919 3.66566 0
M  V30 4530 C 423.531 0.739216 4.37093 0
M  V30 4531 H 420.751 0.260394 0.618414 0
M  V30 4532 H 423.295 1.34311 1.54211 0
M  V30 4533 H 421.45 0.427343 3.85036 0
M  V30 4534 H 421.864 2.50784 4.6066 0
M  V30 4535 H 423.338 1.00744 5.42729 0
M  V30 4536 H 423.815 -0.326746 4.37983 0
M  V30 4537 H 424.421 1.31173 4.04566 0
M  V30 4538 N 422.737 -1.36956 0.779787 0
M  V30 4539 C 423.7 -2.2851 0.177662 0
M  V30 4540 C 424.7 -1.48393 -0.619377 0
M  V30 4541 O 425.89 -1.68505 -0.441785 0
M  V30 4542 C 423.022 -3.32428 -0.755279 0
M  V30 4543 H 424.215 -2.83269 0.984823 0
M  V30 4544 H 421.768 -1.46358 0.548544 0
M  V30 4545 H 422.503 -2.82808 -1.58714 0
M  V30 4546 H 422.288 -3.91659 -0.185817 0
M  V30 4547 H 423.778 -4.00824 -1.17174 0
M  V30 4548 N 424.215 -0.530993 -1.48385 0
M  V30 4549 C 425.148 0.278511 -2.26494 0
M  V30 4550 C 426.126 0.943905 -1.32398 0
M  V30 4551 O 427.31 0.968098 -1.61741 0
M  V30 4552 C 424.437 1.39453 -3.08659 0
M  V30 4553 C 423.483 0.840434 -4.18137 0
M  V30 4554 S 424.316 -0.292496 -5.34701 0
M  V30 4555 C 425.472 0.825973 -6.20426 0
M  V30 4556 H 425.705 -0.384365 -2.94805 0
M  V30 4557 H 423.238 -0.316799 -1.51115 0
M  V30 4558 H 425.196 2.03382 -3.56575 0
M  V30 4559 H 423.857 2.02913 -2.3976 0
M  V30 4560 H 423.05 1.67769 -4.75257 0
M  V30 4561 H 422.652 0.277819 -3.72967 0
M  V30 4562 H 424.944 1.72438 -6.55188 0
M  V30 4563 H 425.887 0.292728 -7.07495 0
M  V30 4564 H 426.295 1.10683 -5.53543 0
M  V30 4565 N 425.693 1.55336 -0.266172 0
M  V30 4566 C 426.656 2.20878 0.612001 0
M  V30 4567 C 427.656 1.18388 1.08816 0
M  V30 4568 O 428.846 1.4335 0.989774 0
M  V30 4569 C 425.978 2.86765 1.84332 0
M  V30 4570 H 427.171 2.99873 0.0398718 0
M  V30 4571 H 424.724 1.56291 -0.0167309 0
M  V30 4572 H 425.459 2.11759 2.45619 0
M  V30 4573 H 425.244 3.61862 1.5099 0
M  V30 4574 H 426.734 3.36867 2.46801 0
M  V30 4575 N 427.171 -0.0066808 1.57599 0
M  V30 4576 C 428.417 -0.693947 1.90558 0
M  V30 4577 C 428.75 -1.73792 0.866594 0
M  V30 4578 O 428.025 -1.94156 -0.115548 0
M  V30 4579 C 428.308 -1.34317 3.34112 0
M  V30 4580 C 428.161 -0.311189 4.48722 0
M  V30 4581 C 429.48 -2.27116 3.7697 0
M  V30 4582 H 426.599 -0.250803 0.693013 0
M  V30 4583 H 429.241 0.043242 1.89951 0
M  V30 4584 H 427.391 -1.9715 3.3476 0
M  V30 4585 H 429.063 0.316944 4.6021 0
M  V30 4586 H 427.306 0.367253 4.32243 0
M  V30 4587 H 427.977 -0.804366 5.46108 0
M  V30 4588 H 430.453 -1.74306 3.77831 0
M  V30 4589 H 429.329 -2.69511 4.78179 0
M  V30 4590 H 429.59 -3.14743 3.10466 0
M  V30 4591 N 428.649 -1.55105 -0.279332 0
M  V30 4592 C 429.579 -1.90557 -1.34945 0
M  V30 4593 C 430.56 -0.766738 -1.51839 0
M  V30 4594 O 431.745 -1.02434 -1.64988 0
M  V30 4595 C 428.875 -2.17193 -2.71006 0
M  V30 4596 C 427.829 -3.33021 -2.68851 0
M  V30 4597 C 427.155 -3.45123 -4.08405 0
M  V30 4598 C 428.455 -4.69578 -2.28678 0
M  V30 4599 H 430.149 -2.80188 -1.05522 0
M  V30 4600 H 427.695 -1.34811 -0.506173 0
M  V30 4601 H 429.648 -2.40581 -3.45975 0
M  V30 4602 H 428.372 -1.24355 -3.01999 0
M  V30 4603 H 427.031 -3.0959 -1.9634 0
M  V30 4604 H 426.679 -2.49762 -4.3661 0
M  V30 4605 H 426.379 -4.22995 -4.07859 0
M  V30 4606 H 427.903 -3.70796 -4.85121 0
M  V30 4607 H 429.317 -4.92553 -2.93368 0
M  V30 4608 H 427.714 -5.5032 -2.39306 0
M  V30 4609 H 428.784 -4.68828 -1.23807 0
M  V30 4610 N 430.127 0.543554 -1.4793 0
M  V30 4611 C 431.543 0.870806 -1.3375 0
M  V30 4612 C 431.743 1.9864 -0.338261 0
M  V30 4613 O 430.799 2.51305 0.245371 0
M  V30 4614 C 432.112 1.25114 -2.73435 0
M  V30 4615 C 433.66 1.3618 -2.81823 0
M  V30 4616 C 434.135 1.77563 -4.22179 0
M  V30 4617 N 435.626 1.8469 -4.24787 0
M  V30 4618 C 436.361 2.18067 -5.30315 0
M  V30 4619 N 435.857 2.49963 -6.46135 0
M  V30 4620 N 437.65 2.18958 -5.17701 0
M  V30 4621 H 429.801 -0.19275 -2.11524 0
M  V30 4622 H 432.064 -0.0235777 -0.947707 0
M  V30 4623 H 431.77 0.50514 -3.48053 0
M  V30 4624 H 431.644 2.20431 -3.06088 0
M  V30 4625 H 434.031 2.09859 -2.07468 0
M  V30 4626 H 434.112 0.390169 -2.52807 0
M  V30 4627 H 433.756 1.04449 -4.97044 0
M  V30 4628 H 433.686 2.75753 -4.48629 0
M  V30 4629 H 436.177 1.62372 -3.41239 0
M  V30 4630 H 436.49 2.74497 -7.22406 0
M  V30 4631 H 434.835 2.47513 -6.49432 0
M  V30 4632 H 438.026 1.93488 -4.2624 0
M  V30 4633 H 438.199 2.44639 -6.00047 0
M  V30 4634 N 431.605 1.3629 0.791371 0
M  V30 4635 C 432.552 1.30458 1.90393 0
M  V30 4636 C 433.522 0.173632 1.6519 0
M  V30 4637 O 434.707 0.35983 1.87376 0
M  V30 4638 C 431.847 1.09777 3.27174 0
M  V30 4639 C 430.96 2.31929 3.64462 0
M  V30 4640 C 430.095 2.04276 4.90352 0
M  V30 4641 C 429.134 3.224 5.20312 0
M  V30 4642 N 428.271 2.94424 6.37385 0
M  V30 4643 H 433.111 2.25589 1.94714 0
M  V30 4644 H 430.648 1.12122 0.952216 0
M  V30 4645 H 432.606 0.958133 4.06049 0
M  V30 4646 H 431.236 0.183014 3.22281 0
M  V30 4647 H 430.288 2.56703 2.80727 0
M  V30 4648 H 431.6 3.20085 3.82553 0
M  V30 4649 H 430.754 1.87231 5.77087 0
M  V30 4650 H 429.493 1.13428 4.74326 0
M  V30 4651 H 428.498 3.40005 4.32061 0
M  V30 4652 H 429.723 4.14071 5.38258 0
M  V30 4653 H 427.669 2.06185 6.22755 0
M  V30 4654 H 427.586 3.76118 6.55798 0
M  V30 4655 H 428.854 2.80953 7.27108 0
M  V30 4656 N 433.083 -1.0153 1.20538 0
M  V30 4657 C 434.494 -1.56598 1.01657 0
M  V30 4658 C 434.845 -1.91505 -0.426668 0
M  V30 4659 O 433.97 -1.72375 -1.30827 0
M  V30 4660 C 434.565 -2.84542 1.83905 0
M  V30 4661 C 433.124 -3.36133 1.69386 0
M  V30 4662 C 432.271 -2.09427 1.81757 0
M  V30 4663 H 435.222 -0.838974 1.34711 0
M  V30 4664 H 435.243 -3.56004 1.34319 0
M  V30 4665 H 434.755 -2.59105 2.8894 0
M  V30 4666 H 432.856 -3.66528 0.669933 0
M  V30 4667 H 432.969 -4.08248 2.50739 0
M  V30 4668 H 431.333 -2.21941 1.24957 0
M  V30 4669 H 432.116 -1.86414 2.88279 0
M  V30 4670 N 434.561 -1.01147 -1.20859 0
M  V30 4671 C 435.786 -0.716698 -1.94623 0
M  V30 4672 C 436.211 0.715415 -1.73964 0
M  V30 4673 O 435.569 1.49157 -1.03062 0
M  V30 4674 C 435.617 -1.0513 -3.44935 0
M  V30 4675 O 434.721 -0.160131 -4.12089 0
M  V30 4676 H 434.062 -0.266404 -0.608214 0
M  V30 4677 H 436.592 -1.35346 -1.53436 0
M  V30 4678 H 436.602 -1.00086 -3.95533 0
M  V30 4679 H 435.277 -2.09475 -3.59295 0
M  V30 4680 H 433.854 -0.267657 -3.71938 0
M  V30 4681 N 436.039 1.36541 -0.78704 0
M  V30 4682 C 436.969 2.32659 -0.197992 0
M  V30 4683 C 437.95 1.56533 0.665697 0
M  V30 4684 O 439.135 1.84698 0.60001 0
M  V30 4685 C 436.265 3.40778 0.669901 0
M  V30 4686 C 435.219 4.27897 -0.0937039 0
M  V30 4687 C 434.545 5.27163 0.894629 0
M  V30 4688 C 435.845 5.06334 -1.28154 0
M  V30 4689 H 437.539 2.82171 -1.00099 0
M  V30 4690 H 435.085 1.35665 -0.482793 0
M  V30 4691 H 437.038 4.07008 1.09191 0
M  V30 4692 H 435.762 2.89827 1.50558 0
M  V30 4693 H 434.421 3.6322 -0.49666 0
M  V30 4694 H 434.069 4.72486 1.72527 0
M  V30 4695 H 433.769 5.86317 0.388149 0
M  V30 4696 H 435.293 5.96266 1.31525 0
M  V30 4697 H 436.707 5.65617 -0.93541 0
M  V30 4698 H 435.104 5.74888 -1.72115 0
M  V30 4699 H 436.174 4.38114 -2.07807 0
M  V30 4700 N 437.518 0.538854 1.48102 0
M  V30 4701 C 438.45 -0.256278 2.27763 0
M  V30 4702 C 439.463 -0.89633 1.35904 0
M  V30 4703 O 440.652 -0.773275 1.60881 0
M  V30 4704 C 437.752 -1.37896 3.09577 0
M  V30 4705 C 436.925 -0.839159 4.29275 0
M  V30 4706 C 435.984 -1.84405 4.9283 0
M  V30 4707 O 435.01 -1.39746 5.51779 0
M  V30 4708 N 436.212 -3.17666 4.85869 0
M  V30 4709 H 438.977 0.426968 2.96643 0
M  V30 4710 H 436.538 0.373747 1.57527 0
M  V30 4711 H 438.53 -2.04955 3.48963 0
M  V30 4712 H 437.1 -1.96572 2.4306 0
M  V30 4713 H 436.32 0.00769287 3.94199 0
M  V30 4714 H 437.608 -0.457548 5.06739 0
M  V30 4715 H 437.006 -3.56609 4.39143 0
M  V30 4716 H 435.563 -3.80334 5.29329 0
M  V30 4717 N 438.996 -1.55193 0.274407 0
M  V30 4718 C 440.243 -1.99581 -0.342579 0
M  V30 4719 C 440.571 -1.1628 -1.55914 0
M  V30 4720 O 439.826 -0.22029 -1.94456 0
M  V30 4721 C 440.125 -3.49019 -0.769458 0
M  V30 4722 C 439.791 -4.49598 0.342389 0
M  V30 4723 C 438.453 -4.76821 0.647686 0
M  V30 4724 C 440.805 -5.0964 1.09163 0
M  V30 4725 C 438.133 -5.61354 1.70581 0
M  V30 4726 C 440.485 -5.95323 2.13948 0
M  V30 4727 C 439.149 -6.20867 2.45113 0
M  V30 4728 H 438.419 -0.730319 -0.125358 0
M  V30 4729 H 441.066 -1.87529 0.387971 0
M  V30 4730 H 439.371 -3.58544 -1.57967 0
M  V30 4731 H 441.068 -3.8077 -1.25757 0
M  V30 4732 H 437.658 -4.28496 0.094318 0
M  V30 4733 H 441.842 -4.88632 0.869024 0
M  V30 4734 H 437.098 -5.79392 1.9523 0
M  V30 4735 H 441.272 -6.40881 2.72478 0
M  V30 4736 H 438.899 -6.86162 3.27239 0
M  V30 4737 N 440.474 -0.00167713 -1.576 0
M  V30 4738 C 441.723 0.682021 -1.89819 0
M  V30 4739 C 442.036 1.74844 -0.876871 0
M  V30 4740 O 443.242 2.48688 -1.08934 0
M  V30 4741 C 441.698 1.26425 -3.36964 0
M  V30 4742 C 441.306 0.232568 -4.47396 0
M  V30 4743 C 443.05 1.92604 -3.78291 0
M  V30 4744 C 440.957 0.824882 -5.85619 0
M  V30 4745 H 439.887 0.258499 -0.708304 0
M  V30 4746 H 442.538 -0.0624957 -1.83394 0
M  V30 4747 H 440.92 2.05949 -3.38232 0
M  V30 4748 H 442.094 -0.5382 -4.57646 0
M  V30 4749 H 440.409 -0.32888 -4.15099 0
M  V30 4750 H 443.006 2.37827 -4.78897 0
M  V30 4751 H 443.349 2.75732 -3.11894 0
M  V30 4752 H 443.882 1.19812 -3.79328 0
M  V30 4753 H 440.621 0.0323542 -6.55492 0
M  V30 4754 H 440.141 1.56477 -5.79029 0
M  V30 4755 H 441.82 1.32301 -6.33329 0
M  V30 4756 N 441.952 1.55251 0.271103 0
M  V30 4757 C 442.882 1.9127 1.33933 0
M  V30 4758 C 443.863 0.77478 1.5143 0
M  V30 4759 O 445.048 1.03307 1.64442 0
M  V30 4760 C 442.178 2.18627 2.69851 0
M  V30 4761 C 441.132 3.34442 2.67081 0
M  V30 4762 C 440.458 3.47284 4.06569 0
M  V30 4763 C 441.758 4.70784 2.26185 0
M  V30 4764 H 443.452 2.80744 1.04035 0
M  V30 4765 H 440.998 1.35077 0.499017 0
M  V30 4766 H 442.951 2.42413 3.44694 0
M  V30 4767 H 441.675 1.25955 3.01335 0
M  V30 4768 H 440.334 3.10627 1.94695 0
M  V30 4769 H 439.982 2.52074 4.35279 0
M  V30 4770 H 439.682 4.25152 4.0561 0
M  V30 4771 H 441.206 3.73363 4.83148 0
M  V30 4772 H 442.62 4.94102 2.90751 0
M  V30 4773 H 441.017 5.51582 2.36384 0
M  V30 4774 H 442.087 4.69478 1.21319 0
M  V30 4775 N 443.43 -0.535701 1.48216 0
M  V30 4776 C 444.393 -1.623 1.61838 0
M  V30 4777 C 445.393 -1.53087 0.492024 0
M  V30 4778 O 446.583 -1.5686 0.757668 0
M  V30 4779 C 443.715 -3.01907 1.58319 0
M  V30 4780 H 444.908 -1.51564 2.58783 0
M  V30 4781 H 442.461 -0.757317 1.36727 0
M  V30 4782 H 443.196 -3.18155 0.628299 0
M  V30 4783 H 442.981 -3.10003 2.40085 0
M  V30 4784 H 444.471 -3.80969 1.71033 0
M  V30 4785 N 444.908 -1.36708 -0.784132 0
M  V30 4786 C 445.871 -1.31307 -1.87859 0
M  V30 4787 C 446.871 -0.219654 -1.59293 0
M  V30 4788 O 448.061 -0.47476 -1.67606 0
M  V30 4789 C 445.193 -1.03679 -3.24751 0
M  V30 4790 H 446.386 -2.28647 -1.94064 0
M  V30 4791 H 443.939 -1.21558 -0.98252 0
M  V30 4792 H 444.674 -0.0681936 -3.24228 0
M  V30 4793 H 444.459 -1.82811 -3.46876 0
M  V30 4794 H 445.949 -1.02518 -4.04821 0
M  V30 4795 N 446.386 1.0089 -1.21074 0
M  V30 4796 C 447.634 1.74262 -1.02358 0
M  V30 4797 C 447.955 1.89869 0.444393 0
M  V30 4798 O 447.225 1.44677 1.32081 0
M  V30 4799 H 445.805 0.645615 -0.375754 0
M  V30 4800 H 448.467 1.21596 -1.52317 0
M  V30 4801 H 447.563 2.74328 -1.4883 0
M  V30 4802 N 447.864 1.01787 1.20321 0
M  V30 4803 C 449.11 0.708985 1.90003 0
M  V30 4804 C 449.443 -0.759572 1.78729 0
M  V30 4805 O 448.718 -1.55198 1.17234 0
M  V30 4806 C 449.001 1.1469 3.41348 0
M  V30 4807 C 448.854 2.67586 3.61549 0
M  V30 4808 C 450.173 0.71915 4.34185 0
M  V30 4809 H 447.292 0.259034 0.689978 0
M  V30 4810 H 449.934 1.26584 1.41692 0
M  V30 4811 H 448.084 0.673128 3.82624 0
M  V30 4812 H 449.756 3.22826 3.29517 0
M  V30 4813 H 447.999 3.085 3.04976 0
M  V30 4814 H 448.67 2.93281 4.67643 0
M  V30 4815 H 451.146 1.12647 4.00562 0
M  V30 4816 H 450.022 1.05358 5.38694 0
M  V30 4817 H 450.283 -0.379111 4.40472 0
M  V30 4818 N 449.342 -1.36122 0.79427 0
M  V30 4819 C 450.305 -2.28309 0.201889 0
M  V30 4820 C 451.305 -1.49041 -0.603603 0
M  V30 4821 O 452.495 -1.68964 -0.423888 0
M  V30 4822 C 449.627 -3.3321 -0.719978 0
M  V30 4823 H 450.82 -2.82208 1.01481 0
M  V30 4824 H 448.373 -1.45768 0.564037 0
M  V30 4825 H 449.108 -2.84475 -1.55706 0
M  V30 4826 H 448.893 -3.91835 -0.144266 0
M  V30 4827 H 450.383 -4.02044 -1.12916 0
M  V30 4828 N 450.82 -0.546701 -1.47814 0
M  V30 4829 C 451.75 0.195317 -2.32682 0
M  V30 4830 C 452.731 0.918981 -1.43139 0
M  V30 4831 O 453.916 0.901501 -1.72008 0
M  V30 4832 C 451.046 1.23237 -3.247 0
M  V30 4833 C 450 0.625818 -4.234 0
M  V30 4834 C 449.326 1.76674 -5.04669 0
M  V30 4835 C 450.626 -0.413515 -5.2066 0
M  V30 4836 H 452.32 -0.513184 -2.94969 0
M  V30 4837 H 449.866 -0.248241 -1.41844 0
M  V30 4838 H 451.819 1.75955 -3.82907 0
M  V30 4839 H 450.543 1.97067 -2.60446 0
M  V30 4840 H 449.202 0.120023 -3.66403 0
M  V30 4841 H 448.85 2.49383 -4.36826 0
M  V30 4842 H 448.55 1.36673 -5.71484 0
M  V30 4843 H 450.074 2.29738 -5.65732 0
M  V30 4844 H 451.488 0.0272042 -5.73294 0
M  V30 4845 H 449.885 -0.731825 -5.95621 0
M  V30 4846 H 450.955 -1.31325 -4.66778 0
M  V30 4847 N 452.299 1.55045 -0.282633 0
M  V30 4848 C 453.262 2.21515 0.588539 0
M  V30 4849 C 454.262 1.19535 1.07554 0
M  V30 4850 O 455.452 1.44391 0.974514 0
M  V30 4851 C 452.584 2.88704 1.8128 0
M  V30 4852 H 453.777 2.99899 0.00806397 0
M  V30 4853 H 451.33 1.56265 -0.0333067 0
M  V30 4854 H 452.065 2.14352 2.43359 0
M  V30 4855 H 451.85 3.63443 1.47144 0
M  V30 4856 H 453.34 3.39465 2.43214 0
M  V30 4857 N 453.777 0.010035 1.57597 0
M  V30 4858 C 454.74 -0.963029 2.07986 0
M  V30 4859 C 455.74 -1.26619 0.991173 0
M  V30 4860 O 456.93 -1.2097 1.25347 0
M  V30 4861 C 454.062 -2.2851 2.52974 0
M  V30 4862 H 455.255 -0.526971 2.95234 0
M  V30 4863 H 452.808 -0.237639 1.54483 0
M  V30 4864 H 453.543 -2.76784 1.69 0
M  V30 4865 H 453.328 -2.07824 3.32493 0
M  V30 4866 H 454.818 -2.98294 2.9225 0
M  V30 4867 N 455.255 -1.55392 -0.262866 0
M  V30 4868 C 456.503 -1.76127 -0.991147 0
M  V30 4869 C 456.824 -0.571083 -1.8645 0
M  V30 4870 O 456.094 0.413698 -1.91482 0
M  V30 4871 H 454.674 -0.649528 -0.368948 0
M  V30 4872 H 457.336 -1.9281 -0.284655 0
M  V30 4873 H 456.432 -2.6663 -1.62219 0
M  V30 4874 N 456.733 0.527833 -1.48498 0
M  V30 4875 C 457.663 1.64136 -1.66077 0
M  V30 4876 C 458.644 1.62286 -0.509625 0
M  V30 4877 O 459.829 1.79449 -0.742413 0
M  V30 4878 C 456.959 3.02717 -1.70234 0
M  V30 4879 C 455.913 3.19426 -2.8487 0
M  V30 4880 C 455.239 4.5909 -2.74118 0
M  V30 4881 C 456.539 3.01993 -4.26142 0
M  V30 4882 H 458.233 1.4968 -2.593 0
M  V30 4883 H 455.779 0.718654 -1.24785 0
M  V30 4884 H 457.732 3.80491 -1.8112 0
M  V30 4885 H 456.456 3.18201 -0.735911 0
M  V30 4886 H 455.115 2.4407 -2.73542 0
M  V30 4887 H 454.763 4.71413 -1.7544 0
M  V30 4888 H 454.463 4.71214 -3.51042 0
M  V30 4889 H 455.987 5.3896 -2.86974 0
M  V30 4890 H 457.401 3.69558 -4.38292 0
M  V30 4891 H 455.798 3.2561 -5.04082 0
M  V30 4892 H 456.868 1.98396 -4.42456 0
M  V30 4893 N 458.211 1.37122 0.776871 0
M  V30 4894 C 459.141 1.35164 1.90402 0
M  V30 4895 C 460.122 0.221069 1.68657 0
M  V30 4896 O 461.307 0.420642 1.8959 0
M  V30 4897 C 458.437 1.15274 3.27611 0
M  V30 4898 C 457.391 2.25289 3.63908 0
M  V30 4899 C 456.717 1.90527 4.99603 0
M  V30 4900 C 458.017 3.67446 3.71188 0
M  V30 4901 H 459.711 2.29482 1.92297 0
M  V30 4902 H 457.257 1.10465 0.923773 0
M  V30 4903 H 459.21 1.12536 4.06096 0
M  V30 4904 H 457.934 0.174102 3.26136 0
M  V30 4905 H 456.593 2.27174 2.87728 0
M  V30 4906 H 456.241 0.91206 4.94662 0
M  V30 4907 H 455.941 2.64193 5.24858 0
M  V30 4908 H 457.465 1.89367 5.80493 0
M  V30 4909 H 458.879 3.67719 4.39836 0
M  V30 4910 H 457.276 4.40123 4.07936 0
M  V30 4911 H 458.346 4.01443 2.71977 0
M  V30 4912 N 459.689 -1.00246 1.21608 0
M  V30 4913 C 460.652 -2.07233 0.979133 0
M  V30 4914 C 461.652 -1.6072 -0.0508219 0
M  V30 4915 O 462.842 -1.73196 0.186712 0
M  V30 4916 C 459.974 -3.37546 0.477016 0
M  V30 4917 H 461.167 -2.29687 1.92831 0
M  V30 4918 H 458.72 -1.17261 1.03342 0
M  V30 4919 H 459.455 -3.20773 -0.476966 0
M  V30 4920 H 459.24 -3.72638 1.21997 0
M  V30 4921 H 460.73 -4.16285 0.331181 0
M  V30 4922 N 461.167 -1.02423 -1.1978 0
M  V30 4923 C 462.413 -0.72878 -1.89896 0
M  V30 4924 C 462.768 0.734248 -1.77839 0
M  V30 4925 O 462.061 1.52733 -1.15685 0
M  V30 4926 C 462.255 -1.1088 -3.39765 0
M  V30 4927 C 462.084 -2.60722 -3.66407 0
M  V30 4928 C 460.854 -3.27623 -3.84696 0
M  V30 4929 C 463.052 -3.58924 -3.68345 0
M  V30 4930 N 461.034 -4.66617 -3.98926 0
M  V30 4931 C 462.405 -4.83514 -3.8809 0
M  V30 4932 C 464.46 -3.52788 -3.51347 0
M  V30 4933 C 463.163 -6.0271 -3.92598 0
M  V30 4934 C 465.189 -4.71394 -3.5713 0
M  V30 4935 C 464.551 -5.94796 -3.77356 0
M  V30 4936 H 460.65 -0.318473 -0.714212 0
M  V30 4937 H 463.234 -1.3106 -1.43984 0
M  V30 4938 H 461.405 -0.555233 -3.84411 0
M  V30 4939 H 463.137 -0.766082 -3.97383 0
M  V30 4940 H 459.892 -2.7804 -3.83393 0
M  V30 4941 H 460.316 -5.38805 -4.099 0
M  V30 4942 H 464.958 -2.58372 -3.3467 0
M  V30 4943 H 462.676 -6.97499 -4.08069 0
M  V30 4944 H 466.262 -4.6827 -3.45275 0
M  V30 4945 H 465.142 -6.85037 -3.81699 0
M  V30 4946 N 462.645 1.35699 -0.801477 0
M  V30 4947 C 463.875 2.02862 -0.3912 0
M  V30 4948 C 464.283 1.60552 1.00099 0
M  V30 4949 O 463.626 0.796215 1.65548 0
M  V30 4950 C 463.688 3.57386 -0.389299 0
M  V30 4951 C 463.352 4.22943 -1.73113 0
M  V30 4952 C 464.349 4.44984 -2.68859 0
M  V30 4953 C 462.034 4.60167 -2.01373 0
M  V30 4954 C 464.028 5.03345 -3.91053 0
M  V30 4955 C 461.715 5.18243 -3.23832 0
M  V30 4956 C 462.713 5.39773 -4.1849 0
M  V30 4957 O 462.401 5.96626 -5.38788 0
M  V30 4958 H 462.133 0.657341 -0.157732 0
M  V30 4959 H 464.687 1.74407 -1.08496 0
M  V30 4960 H 462.917 3.85011 0.361031 0
M  V30 4961 H 464.606 4.059 -0.0020365 0
M  V30 4962 H 465.372 4.1661 -2.48316 0
M  V30 4963 H 461.251 4.42726 -1.28508 0
M  V30 4964 H 464.795 5.20065 -4.64949 0
M  V30 4965 H 460.692 5.46044 -3.44248 0
M  V30 4966 H 461.46 6.15082 -5.40015 0
M  V30 4967 N 464.123 0.554532 1.47522 0
M  V30 4968 C 465.353 0.0342074 2.06572 0
M  V30 4969 C 465.761 -1.26375 1.40805 0
M  V30 4970 O 465.104 -1.7683 0.49769 0
M  V30 4971 C 465.166 -0.235096 3.5873 0
M  V30 4972 C 464.83 0.973024 4.46521 0
M  V30 4973 C 465.827 1.8779 4.848 0
M  V30 4974 C 463.512 1.18694 4.88075 0
M  V30 4975 C 465.506 2.98039 5.63428 0
M  V30 4976 C 463.193 2.29254 5.66468 0
M  V30 4977 C 464.191 3.18757 6.04055 0
M  V30 4978 O 463.879 4.27401 6.8087 0
M  V30 4979 H 463.611 0.041587 0.67472 0
M  V30 4980 H 466.165 0.766748 1.90552 0
M  V30 4981 H 464.395 -1.02191 3.72953 0
M  V30 4982 H 466.084 -0.700477 3.9981 0
M  V30 4983 H 466.85 1.72467 4.53299 0
M  V30 4984 H 462.729 0.49947 4.58286 0
M  V30 4985 H 466.273 3.67926 5.92685 0
M  V30 4986 H 462.17 2.4455 5.97382 0
M  V30 4987 H 462.938 4.25415 6.9926 0
M  V30 4988 N 465.601 -1.54893 0.290851 0
M  V30 4989 C 466.534 -2.19289 -0.631489 0
M  V30 4990 C 467.512 -1.15893 -1.14051 0
M  V30 4991 O 468.696 -1.4449 -1.21058 0
M  V30 4992 C 465.823 -2.82866 -1.86291 0
M  V30 4993 C 464.869 -3.997 -1.48801 0
M  V30 4994 S 465.702 -5.32641 -0.552644 0
M  V30 4995 C 466.858 -5.99696 -1.79209 0
M  V30 4996 H 467.091 -2.9718 -0.0843791 0
M  V30 4997 H 464.624 -1.54218 0.075031 0
M  V30 4998 H 466.582 -3.20124 -2.56964 0
M  V30 4999 H 465.243 -2.04839 -2.38117 0
M  V30 5000 H 464.436 -4.42932 -2.40473 0
M  V30 5001 H 464.038 -3.63947 -0.861321 0
M  V30 5002 H 466.33 -6.19886 -2.734 0
M  V30 5003 H 467.273 -6.94071 -1.40251 0
M  V30 5004 H 467.681 -5.29226 -1.96419 0
M  V30 5005 O 467.118 -0.15707 -1.60734 0
M  V30 5006 H 467.809 0.435157 -1.88749 0
M  V30 END ATOM
M  V30 BEGIN BOND
M  V30 END BOND
M  V30 END CTAB
M  END
$$$$
