drugbank_target|P13674 Prolyl 4-hydroxylase subunit alpha-1 (DB00126; DB00172; DB01275)
 OpenBabel12092119233D

  0  0  0     0  0            999 V3000
M  V30 BEGIN CTAB
M  V30 COUNTS 8559 8656 0 0 0
M  V30 BEGIN ATOM
M  V30 1 H -0.908 1.98254 -0.117106 0
M  V30 2 N 0 1.576 0 0
M  V30 3 C 0.933 2.03868 1.02534 0
M  V30 4 C 1.911 0.928543 1.3348 0
M  V30 5 O 3.095 1.19667 1.45644 0
M  V30 6 C 0.222 2.43627 2.35294 0
M  V30 7 C -0.732 3.65373 2.2001 0
M  V30 8 S 0.101 5.13292 1.52614 0
M  V30 9 C 1.257 5.56322 2.86805 0
M  V30 10 H 1.49 2.90518 0.631377 0
M  V30 11 H -0.977 1.52953 0.210867 0
M  V30 12 H 0.981 2.67203 3.11629 0
M  V30 13 H -0.358 1.57376 2.7183 0
M  V30 14 H -1.165 3.90944 3.18086 0
M  V30 15 H -1.563 3.418 1.51819 0
M  V30 16 H 0.729 5.58782 3.83104 0
M  V30 17 H 1.672 6.56266 2.65933 0
M  V30 18 H 2.08 4.83886 2.90714 0
M  V30 19 N 1.4781 -0.272755 1.55222 0
M  V30 20 C 2.7271 -1.00211 1.75045 0
M  V30 21 C 3.0401 -1.87441 0.559046 0
M  V30 22 O 4.2461 -2.63856 0.639698 0
M  V30 23 C 2.7021 -1.83165 3.09804 0
M  V30 24 C 2.3101 -1.008 4.36513 0
M  V30 25 C 4.0541 -2.55529 3.38977 0
M  V30 26 C 1.9611 -1.83194 5.62311 0
M  V30 27 H 0.8911 -0.377878 0.652476 0
M  V30 28 H 3.5421 -0.257776 1.8168 0
M  V30 29 H 1.9241 -2.61694 2.97207 0
M  V30 30 H 3.0981 -0.266855 4.60027 0
M  V30 31 H 1.4131 -0.398897 4.14485 0
M  V30 32 H 4.0101 -3.17578 4.30172 0
M  V30 33 H 4.3531 -3.25825 2.59121 0
M  V30 34 H 4.8861 -1.84029 3.52673 0
M  V30 35 H 1.6251 -1.17318 6.44916 0
M  V30 36 H 1.1451 -2.54905 5.4294 0
M  V30 37 H 2.8241 -2.40552 6.00619 0
M  V30 38 N 2.9562 -1.48159 -0.537278 0
M  V30 39 C 4.2022 -1.57015 -1.29297 0
M  V30 40 C 4.5572 -0.237791 -1.90925 0
M  V30 41 O 3.8502 0.758621 -1.75942 0
M  V30 42 C 4.0442 -2.63956 -2.40961 0
M  V30 43 C 3.8732 -4.07461 -1.90278 0
M  V30 44 C 2.6432 -4.74685 -1.73213 0
M  V30 45 C 4.8412 -4.93858 -1.43556 0
M  V30 46 N 2.8232 -6.02633 -1.17078 0
M  V30 47 C 4.1942 -6.11993 -0.993204 0
M  V30 48 C 6.2492 -4.80141 -1.31792 0
M  V30 49 C 4.9522 -7.17923 -0.444872 0
M  V30 50 C 6.9782 -5.86186 -0.783585 0
M  V30 51 C 6.3402 -7.03524 -0.351261 0
M  V30 52 H 2.4392 -0.629154 -0.464423 0
M  V30 53 H 5.0232 -1.85006 -0.606705 0
M  V30 54 H 3.1942 -2.378 -3.07093 0
M  V30 55 H 4.9262 -2.62539 -3.07986 0
M  V30 56 H 1.6812 -4.30902 -1.9652 0
M  V30 57 H 2.1052 -6.7085 -0.910421 0
M  V30 58 H 6.7472 -3.89772 -1.63823 0
M  V30 59 H 4.4652 -8.08022 -0.11222 0
M  V30 60 H 8.0512 -5.77624 -0.695835 0
M  V30 61 H 6.9312 -7.8418 0.055777 0
M  V30 62 N 4.4343 0.785586 -1.36625 0
M  V30 63 C 5.6643 1.5722 -1.34036 0
M  V30 64 C 6.0723 1.89033 0.0795062 0
M  V30 65 O 5.4153 1.50881 1.04789 0
M  V30 66 C 5.4773 2.91759 -2.10041 0
M  V30 67 C 5.1413 2.82654 -3.59104 0
M  V30 68 C 6.1383 2.54634 -4.53274 0
M  V30 69 C 3.8233 3.01111 -4.02042 0
M  V30 70 C 5.8173 2.45177 -5.88359 0
M  V30 71 C 3.5043 2.91276 -5.37216 0
M  V30 72 C 4.5023 2.63348 -6.30188 0
M  V30 73 O 4.1903 2.53514 -7.6288 0
M  V30 74 H 3.9223 0.494177 -0.461265 0
M  V30 75 H 6.4763 0.982632 -1.8037 0
M  V30 76 H 4.7063 3.52781 -1.58375 0
M  V30 77 H 6.3953 3.53059 -2.00261 0
M  V30 78 H 7.1613 2.40073 -4.21414 0
M  V30 79 H 3.0403 3.21854 -3.30047 0
M  V30 80 H 6.5843 2.23299 -6.60896 0
M  V30 81 H 2.4813 3.054 -5.68684 0
M  V30 82 H 3.2493 2.68967 -7.73045 0
M  V30 83 N 5.9124 1.20967 1.01018 0
M  V30 84 C 7.1614 1.01796 1.74128 0
M  V30 85 C 7.4744 -0.449691 1.90361 0
M  V30 86 O 8.6804 -0.76068 2.60626 0
M  V30 87 C 7.1364 1.7727 3.13215 0
M  V30 88 C 6.7444 3.28171 3.04972 0
M  V30 89 C 8.4884 1.66489 3.90489 0
M  V30 90 C 6.3954 3.96156 4.39107 0
M  V30 91 H 5.3254 0.377276 0.652824 0
M  V30 92 H 7.9764 1.44651 1.12909 0
M  V30 93 H 6.3584 1.27205 3.75013 0
M  V30 94 H 7.5324 3.85499 2.52443 0
M  V30 95 H 5.8474 3.39437 2.41188 0
M  V30 96 H 8.4444 2.14617 4.89738 0
M  V30 97 H 8.7874 0.6222 4.11624 0
M  V30 98 H 9.3204 2.14003 3.35332 0
M  V30 99 H 6.0594 5.00604 4.23174 0
M  V30 100 H 5.5794 3.43617 4.91617 0
M  V30 101 H 7.2584 4.00774 5.07926 0
M  V30 102 N 7.3905 -1.2043 1.01659 0
M  V30 103 C 8.3205 -2.25466 0.607226 0
M  V30 104 C 9.3015 -1.65853 -0.377716 0
M  V30 105 O 10.4865 -1.92409 -0.263149 0
M  V30 106 C 7.6165 -3.47256 -0.0552949 0
M  V30 107 C 6.5705 -4.19462 0.850632 0
M  V30 108 C 5.8965 -5.34673 0.0538859 0
M  V30 109 C 7.1965 -4.75603 2.15868 0
M  V30 110 H 8.8905 -2.59962 1.48526 0
M  V30 111 H 6.4365 -1.2496 0.715605 0
M  V30 112 H 8.3895 -4.19917 -0.353233 0
M  V30 113 H 7.1135 -3.11924 -0.968045 0
M  V30 114 H 5.7725 -3.48667 1.13257 0
M  V30 115 H 5.4205 -4.95585 -0.860514 0
M  V30 116 H 5.1205 -5.83913 0.657192 0
M  V30 117 H 6.6445 -6.10138 -0.237598 0
M  V30 118 H 8.0585 -5.40083 1.92311 0
M  V30 119 H 6.4555 -5.3528 2.71284 0
M  V30 120 H 7.5255 -3.94346 2.82169 0
M  V30 121 N 8.8686 -0.792821 -1.36206 0
M  V30 122 C 10.1176 -0.363353 -1.984 0
M  V30 123 C 10.4306 1.07172 -1.63626 0
M  V30 124 O 11.6366 1.60362 -2.19081 0
M  V30 125 C 10.0926 -0.59872 -3.54885 0
M  V30 126 C 9.7006 -2.04543 -3.9858 0
M  V30 127 C 11.4446 -0.233926 -4.23855 0
M  V30 128 C 9.3516 -2.22727 -5.47856 0
M  V30 129 H 8.2816 -0.13212 -0.742334 0
M  V30 130 H 10.9326 -0.974935 -1.55458 0
M  V30 131 H 9.3146 0.0826222 -3.95914 0
M  V30 132 H 10.4886 -2.76345 -3.68741 0
M  V30 133 H 8.8036 -2.36879 -3.42458 0
M  V30 134 H 11.4006 -0.348027 -5.33566 0
M  V30 135 H 11.7436 0.818351 -4.08177 0
M  V30 136 H 12.2766 -0.868639 -3.882 0
M  V30 137 H 9.0156 -3.2635 -5.68486 0
M  V30 138 H 8.5356 -1.55434 -5.7931 0
M  V30 139 H 10.2146 -2.03607 -6.14128 0
M  V30 140 N 10.3467 1.47872 -0.545128 0
M  V30 141 C 11.5957 2.01695 -0.0145033 0
M  V30 142 C 11.9087 1.42609 1.33873 0
M  V30 143 O 13.1147 1.88021 1.95858 0
M  V30 144 C 11.5707 3.59892 0.0245068 0
M  V30 145 C 11.1787 4.27966 -1.32475 0
M  V30 146 C 12.9227 4.21507 0.50316 0
M  V30 147 C 10.8297 5.78136 -1.2455 0
M  V30 148 H 9.7597 0.753998 -0.00165172 0
M  V30 149 H 12.4107 1.69985 -0.691175 0
M  V30 150 H 10.7927 3.88509 0.766575 0
M  V30 151 H 11.9667 4.11003 -2.08357 0
M  V30 152 H 10.2817 3.78286 -1.74036 0
M  V30 153 H 12.8787 5.31538 0.580656 0
M  V30 154 H 13.2217 3.87855 1.51243 0
M  V30 155 H 13.7547 3.97376 -0.183681 0
M  V30 156 H 10.4937 6.16388 -2.23039 0
M  V30 157 H 10.0137 5.97469 -0.528282 0
M  V30 158 H 11.6927 6.40099 -0.942488 0
M  V30 159 N 11.8248 0.280983 1.55075 0
M  V30 160 C 13.0728 -0.333455 1.9933 0
M  V30 161 C 13.3938 -1.55937 1.17085 0
M  V30 162 O 12.6638 -1.94143 0.261805 0
M  V30 163 H 11.2438 -0.126197 0.736263 0
M  V30 164 H 13.9058 0.387678 1.91005 0
M  V30 165 H 13.0018 -0.619292 3.05894 0
M  V30 166 N 13.3029 -1.57598 0.00835791 0
M  V30 167 C 14.5519 -1.90107 -0.673968 0
M  V30 168 C 14.8649 -0.884275 -1.7447 0
M  V30 169 O 16.0709 -1.09987 -2.48224 0
M  V30 170 C 14.5269 -3.37497 -1.24995 0
M  V30 171 C 14.1349 -4.47491 -0.2136 0
M  V30 172 C 15.8789 -3.79104 -1.90999 0
M  V30 173 C 13.7859 -5.85963 -0.80005 0
M  V30 174 H 12.7159 -0.709393 -0.255495 0
M  V30 175 H 15.3669 -1.83365 0.0702693 0
M  V30 176 H 13.7489 -3.39102 -2.04513 0
M  V30 177 H 14.9229 -4.57414 0.557596 0
M  V30 178 H 13.2379 -4.14956 0.346474 0
M  V30 179 H 15.8349 -4.79901 -2.35795 0
M  V30 180 H 16.1779 -3.1306 -2.74407 0
M  V30 181 H 16.7109 -3.79833 -1.18203 0
M  V30 182 H 13.4499 -6.555 -0.00456708 0
M  V30 183 H 12.9699 -5.79687 -1.54021 0
M  V30 184 H 14.6489 -6.33884 -1.29615 0
M  V30 185 N 14.781 0.264519 -1.55364 0
M  V30 186 C 15.711 1.33121 -1.91836 0
M  V30 187 C 16.692 1.51101 -0.781192 0
M  V30 188 O 17.877 1.64003 -1.04003 0
M  V30 189 C 15.007 2.68921 -2.19769 0
M  V30 190 C 13.961 2.65661 -3.35571 0
M  V30 191 C 13.287 4.05093 -3.49004 0
M  V30 192 C 14.587 2.24187 -4.71739 0
M  V30 193 H 16.281 1.02844 -2.81182 0
M  V30 194 H 13.827 0.493286 -1.35287 0
M  V30 195 H 15.78 3.43663 -2.43872 0
M  V30 196 H 14.504 3.00799 -1.27231 0
M  V30 197 H 13.163 1.93377 -3.1145 0
M  V30 198 H 12.811 4.34206 -2.53917 0
M  V30 199 H 12.511 4.03804 -4.26868 0
M  V30 200 H 14.035 4.81561 -3.75408 0
M  V30 201 H 15.449 2.88654 -4.9533 0
M  V30 202 H 13.846 2.34044 -5.52579 0
M  V30 203 H 14.916 1.19327 -4.69988 0
M  V30 204 N 16.2591 1.48442 0.529413 0
M  V30 205 C 17.1891 1.65902 1.64313 0
M  V30 206 C 18.1701 0.507897 1.6234 0
M  V30 207 O 19.3551 0.740503 1.79528 0
M  V30 208 C 16.4851 1.69911 3.02898 0
M  V30 209 C 15.4391 2.8453 3.19729 0
M  V30 210 C 14.7651 2.73629 4.59381 0
M  V30 211 C 16.0651 4.25821 3.02447 0
M  V30 212 H 17.7591 2.5914 1.49955 0
M  V30 213 H 15.3051 1.24709 0.719982 0
M  V30 214 H 17.2581 1.80715 3.80684 0
M  V30 215 H 15.9821 0.732524 3.18279 0
M  V30 216 H 14.6411 2.73283 2.44361 0
M  V30 217 H 14.2891 1.74938 4.71599 0
M  V30 218 H 13.9891 3.50541 4.71588 0
M  V30 219 H 15.5131 2.86401 5.39265 0
M  V30 220 H 16.9271 4.37898 3.70024 0
M  V30 221 H 15.3241 5.03735 3.26146 0
M  V30 222 H 16.3941 4.42244 1.98867 0
M  V30 223 N 17.7372 -0.778329 1.37039 0
M  V30 224 C 19.1482 -1.35421 1.28523 0
M  V30 225 C 19.4992 -1.96075 -0.0700901 0
M  V30 226 O 18.6242 -1.93352 -0.971801 0
M  V30 227 C 19.2192 -2.46211 2.32735 0
M  V30 228 C 17.7782 -2.99585 2.27873 0
M  V30 229 C 16.9252 -1.72748 2.16918 0
M  V30 230 H 19.8762 -0.5791 1.47757 0
M  V30 231 H 19.8972 -3.2552 1.9702 0
M  V30 232 H 19.4092 -2.02036 3.31365 0
M  V30 233 H 17.5102 -3.48152 1.32745 0
M  V30 234 H 17.6232 -3.55646 3.21018 0
M  V30 235 H 15.9872 -1.95416 1.63354 0
M  V30 236 H 16.7702 -1.30686 3.17452 0
M  V30 237 N 19.2153 -1.21501 -1.00376 0
M  V30 238 C 20.1473 -0.933174 -2.09343 0
M  V30 239 C 21.1603 0.0840896 -1.62583 0
M  V30 240 O 22.3493 -0.148563 -1.77881 0
M  V30 241 C 19.4493 -0.379869 -3.36764 0
M  V30 242 C 18.6223 -1.45176 -4.12605 0
M  V30 243 C 17.6813 -0.907476 -5.18316 0
M  V30 244 O 16.7073 -1.5912 -5.46507 0
M  V30 245 N 17.9093 0.276649 -5.7984 0
M  V30 246 H 20.6743 -1.87124 -2.34104 0
M  V30 247 H 18.2353 -1.12043 -1.16867 0
M  V30 248 H 20.2273 -0.00131488 -4.047 0
M  V30 249 H 18.7973 0.463048 -3.09151 0
M  V30 250 H 18.0173 -2.00411 -3.39454 0
M  V30 251 H 19.3053 -2.17328 -4.6005 0
M  V30 252 H 18.7033 0.849147 -5.59291 0
M  V30 253 H 17.2603 0.596702 -6.49063 0
M  V30 254 N 20.6934 1.19889 -1.02296 0
M  V30 255 C 21.9184 1.9393 -0.735237 0
M  V30 256 C 22.3434 1.74639 0.698782 0
M  V30 257 O 21.7014 1.04481 1.48167 0
M  V30 258 C 21.7494 3.43916 -1.08417 0
M  V30 259 O 20.8534 4.11917 -0.199446 0
M  V30 260 H 20.1944 0.605645 -0.272196 0
M  V30 261 H 22.7244 1.52137 -1.36804 0
M  V30 262 H 22.7344 3.9456 -1.03856 0
M  V30 263 H 21.4094 3.5728 -2.12894 0
M  V30 264 H 19.9864 3.71666 -0.303136 0
M  V30 265 N 22.1715 0.800033 1.35784 0
M  V30 266 C 23.1015 0.220184 2.3246 0
M  V30 267 C 24.0825 -0.65073 1.57161 0
M  V30 268 O 25.2675 -0.582359 1.85263 0
M  V30 269 C 22.3975 -0.637353 3.41402 0
M  V30 270 C 21.3515 0.134531 4.27789 0
M  V30 271 C 20.6775 -0.844285 5.27992 0
M  V30 272 C 21.9775 1.32979 5.05088 0
M  V30 273 H 23.6715 1.02787 2.81203 0
M  V30 274 H 21.2175 0.495717 1.35199 0
M  V30 275 H 23.1705 -1.05302 4.08031 0
M  V30 276 H 21.8945 -1.47785 2.91251 0
M  V30 277 H 20.5535 0.531296 3.6273 0
M  V30 278 H 20.2015 -1.68011 4.74111 0
M  V30 279 H 19.9015 -0.332184 5.8666 0
M  V30 280 H 21.4255 -1.2583 5.97494 0
M  V30 281 H 22.8395 0.98934 5.64699 0
M  V30 282 H 21.2365 1.77593 5.7322 0
M  V30 283 H 22.3065 2.11978 4.36111 0
M  V30 284 N 23.6496 -1.47581 0.552962 0
M  V30 285 C 24.6126 -2.28439 -0.186605 0
M  V30 286 C 25.6126 -1.36706 -0.84665 0
M  V30 287 O 26.8026 -1.59378 -0.703164 0
M  V30 288 C 23.9346 -3.16264 -1.2724 0
M  V30 289 H 25.1276 -2.95294 0.523609 0
M  V30 290 H 22.6806 -1.532 0.309745 0
M  V30 291 H 23.4156 -2.54091 -2.01514 0
M  V30 292 H 23.2006 -3.83769 -0.803968 0
M  V30 293 H 24.6906 -3.77198 -1.79196 0
M  V30 294 N 25.1277 -0.289203 -1.54924 0
M  V30 295 C 26.0777 0.606939 -2.19773 0
M  V30 296 C 27.0617 1.10783 -1.16687 0
M  V30 297 O 28.2537 1.05057 -1.4245 0
M  V30 298 C 25.3827 1.78398 -2.93307 0
M  V30 299 C 24.4687 1.29961 -4.03697 0
M  V30 300 N 24.8597 0.532377 -5.0299 0
M  V30 301 C 23.1577 1.58136 -4.17024 0
M  V30 302 C 23.8587 0.275912 -5.81045 0
M  V30 303 N 22.8347 0.852365 -5.36876 0
M  V30 304 H 26.6367 0.0130779 -2.93897 0
M  V30 305 H 24.1507 -0.09341 -1.62131 0
M  V30 306 H 26.1477 2.43741 -3.38225 0
M  V30 307 H 24.8077 2.38166 -2.20697 0
M  V30 308 H 25.8187 0.17838 -5.17593 0
M  V30 309 H 22.4957 2.18738 -3.55612 0
M  V30 310 H 23.8857 -0.339502 -6.71042 0
M  V30 311 N 26.6058 1.57591 -0.0167156 0
M  V30 312 C 28.0168 1.79201 0.523834 0
M  V30 313 C 28.3678 0.925796 1.72984 0
M  V30 314 O 27.4928 0.132792 2.15992 0
M  V30 315 C 28.0878 3.25 0.957091 0
M  V30 316 C 26.6468 3.47648 1.44283 0
M  V30 317 C 25.7938 2.74374 0.401757 0
M  V30 318 H 28.7448 1.56831 -0.242816 0
M  V30 319 H 28.7658 3.34031 1.82219 0
M  V30 320 H 28.2778 3.88019 0.0791415 0
M  V30 321 H 26.3788 2.89866 2.34113 0
M  V30 322 H 26.4918 4.56352 1.45877 0
M  V30 323 H 24.8558 2.39485 0.867121 0
M  V30 324 H 25.6388 3.40102 -0.467513 0
M  V30 325 N 28.0839 -0.256276 1.55502 0
M  V30 326 C 29.3319 -0.983672 1.76545 0
M  V30 327 C 29.6529 -1.86206 0.578982 0
M  V30 328 O 28.9229 -1.91656 -0.405577 0
M  V30 329 H 27.5029 -0.366191 0.651086 0
M  V30 330 H 30.1649 -0.276479 1.92929 0
M  V30 331 H 29.2609 -1.61087 2.67315 0
M  V30 332 N 29.562 -1.4872 -0.521534 0
M  V30 333 C 30.809 -1.57168 -1.27689 0
M  V30 334 C 31.137 -0.249275 -1.92896 0
M  V30 335 O 30.392 0.761162 -1.80291 0
M  V30 336 C 30.691 -2.66497 -2.38148 0
M  V30 337 C 30.357 -4.08664 -1.90538 0
M  V30 338 C 29.019 -4.47357 -1.77271 0
M  V30 339 C 31.371 -4.97724 -1.54663 0
M  V30 340 C 28.699 -5.72905 -1.26478 0
M  V30 341 C 31.051 -6.2377 -1.05329 0
M  V30 342 C 29.715 -6.61311 -0.906861 0
M  V30 343 H 28.985 -0.575117 -0.467249 0
M  V30 344 H 31.632 -1.82472 -0.581051 0
M  V30 345 H 29.937 -2.35085 -3.13437 0
M  V30 346 H 31.634 -2.70246 -2.96257 0
M  V30 347 H 28.224 -3.78111 -2.01816 0
M  V30 348 H 32.408 -4.68501 -1.63768 0
M  V30 349 H 27.664 -6.00709 -1.13835 0
M  V30 350 H 31.838 -6.9217 -0.76644 0
M  V30 351 H 29.465 -7.5848 -0.511083 0
M  V30 352 N 31.0401 0.771051 -1.3745 0
M  V30 353 C 32.2871 1.52963 -1.32697 0
M  V30 354 C 32.6151 1.94299 0.0883274 0
M  V30 355 O 31.8701 1.64397 1.0617 0
M  V30 356 C 32.1691 2.80676 -2.2126 0
M  V30 357 C 31.8351 2.58389 -3.69521 0
M  V30 358 C 30.4971 2.52019 -4.09927 0
M  V30 359 C 32.8491 2.38469 -4.63446 0
M  V30 360 C 30.1771 2.23721 -5.42371 0
M  V30 361 C 32.5291 2.11694 -5.96128 0
M  V30 362 C 31.1931 2.03769 -6.35637 0
M  V30 363 H 30.4631 0.559732 -0.485573 0
M  V30 364 H 33.1101 0.888083 -1.69662 0
M  V30 365 H 31.4151 3.49392 -1.77291 0
M  V30 366 H 33.1121 3.38557 -2.14895 0
M  V30 367 H 29.7021 2.6421 -3.37478 0
M  V30 368 H 33.8861 2.4238 -4.33089 0
M  V30 369 H 29.1421 2.16081 -5.71943 0
M  V30 370 H 33.3161 1.9528 -6.6846 0
M  V30 371 H 30.9431 1.81606 -7.38189 0
M  V30 372 N 32.5182 1.22032 0.997298 0
M  V30 373 C 33.7462 1.06841 1.7718 0
M  V30 374 C 34.1612 -0.381325 1.84909 0
M  V30 375 O 33.5182 -1.26437 1.31605 0
M  V30 376 C 33.5692 1.66814 3.20711 0
M  V30 377 O 33.2902 3.06116 3.13408 0
M  V30 378 C 34.7912 1.56838 4.14628 0
M  V30 379 H 32.0112 0.374782 0.556578 0
M  V30 380 H 34.5552 1.61532 1.2541 0
M  V30 381 H 32.7102 1.16196 3.69564 0
M  V30 382 H 33.1242 3.34926 4.0364 0
M  V30 383 H 34.5982 2.03532 5.13107 0
M  V30 384 H 35.0752 0.524155 4.36061 0
M  V30 385 H 35.6812 2.06741 3.7167 0
M  V30 386 N 33.9963 -1.19345 1.0293 0
M  V30 387 C 35.2213 -1.93538 0.745511 0
M  V30 388 C 35.6463 -1.75007 -0.689511 0
M  V30 389 O 35.0043 -1.05265 -1.47611 0
M  V30 390 C 35.0523 -3.43336 1.10239 0
M  V30 391 O 34.1563 -4.11806 0.221289 0
M  V30 392 H 33.4973 -0.604193 0.275404 0
M  V30 393 H 36.0273 -1.5141 1.37609 0
M  V30 394 H 36.0373 -3.94004 1.05947 0
M  V30 395 H 34.7123 -3.56146 2.14786 0
M  V30 396 H 33.2893 -3.715 0.322842 0
M  V30 397 N 35.4744 -0.807222 -1.35358 0
M  V30 398 C 36.7234 -0.384376 -1.98004 0
M  V30 399 C 37.0364 1.0543 -1.64754 0
M  V30 400 O 38.2424 1.58029 -2.20769 0
M  V30 401 C 36.6984 -0.636326 -3.5423 0
M  V30 402 C 36.3064 -2.08759 -3.96388 0
M  V30 403 C 38.0504 -0.278869 -4.23583 0
M  V30 404 C 35.9574 -2.28525 -5.45463 0
M  V30 405 H 34.8874 -0.139986 -0.740891 0
M  V30 406 H 37.5384 -0.991369 -1.54415 0
M  V30 407 H 35.9204 0.0406256 -3.95979 0
M  V30 408 H 37.0944 -2.8024 -3.6579 0
M  V30 409 H 35.4094 -2.40497 -3.39926 0
M  V30 410 H 38.0064 -0.404599 -5.33167 0
M  V30 411 H 38.3494 0.775012 -4.09022 0
M  V30 412 H 38.8824 -0.909764 -3.87257 0
M  V30 413 H 35.6214 -3.32361 -5.64992 0
M  V30 414 H 35.1414 -1.61569 -5.77629 0
M  V30 415 H 36.8204 -2.10109 -6.11934 0
M  V30 416 N 36.9525 1.47285 -0.560781 0
M  V30 417 C 38.2005 2.02064 -0.0379868 0
M  V30 418 C 38.5215 1.43711 1.31803 0
M  V30 419 O 37.7915 0.61362 1.86042 0
M  V30 420 H 36.3715 0.746918 -0.0110531 0
M  V30 421 H 39.0335 1.80648 -0.731598 0
M  V30 422 H 38.1295 3.12064 0.0474463 0
M  V30 423 N 38.4306 0.297415 1.54768 0
M  V30 424 C 39.3626 -0.613881 2.20826 0
M  V30 425 C 40.3756 -1.10032 1.19987 0
M  V30 426 O 41.5646 -1.01839 1.46598 0
M  V30 427 C 38.6646 -1.852 2.83821 0
M  V30 428 C 37.8376 -1.50865 4.10559 0
M  V30 429 C 36.8966 -2.60154 4.57391 0
M  V30 430 O 35.9226 -2.25398 5.2267 0
M  V30 431 N 37.1246 -3.90629 4.29406 0
M  V30 432 H 39.8896 -0.048389 2.99661 0
M  V30 433 H 37.4506 0.11946 1.61459 0
M  V30 434 H 39.4426 -2.57652 3.12086 0
M  V30 435 H 38.0126 -2.32597 2.08847 0
M  V30 436 H 37.2326 -0.616925 3.89343 0
M  V30 437 H 38.5206 -1.25458 4.9309 0
M  V30 438 H 37.9186 -4.21677 3.77101 0
M  V30 439 H 36.4756 -4.59391 4.62388 0
M  V30 440 N 39.9087 -1.5758 0.0250728 0
M  V30 441 C 40.8417 -2.05473 -0.992777 0
M  V30 442 C 41.8197 -0.949661 -1.31986 0
M  V30 443 O 43.0037 -1.21969 -1.43722 0
M  V30 444 C 40.1307 -2.4734 -2.31389 0
M  V30 445 C 39.1767 -3.68827 -2.1417 0
M  V30 446 S 40.0097 -5.15655 -1.44429 0
M  V30 447 C 41.1657 -5.60814 -2.77918 0
M  V30 448 H 41.3987 -2.91486 -0.585078 0
M  V30 449 H 38.9317 -1.53269 -0.186507 0
M  V30 450 H 40.8897 -2.72127 -3.07339 0
M  V30 451 H 39.5507 -1.6168 -2.69292 0
M  V30 452 H 38.7437 -3.95955 -3.11826 0
M  V30 453 H 38.3457 -3.44172 -1.46362 0
M  V30 454 H 40.6377 -5.64806 -3.74166 0
M  V30 455 H 41.5807 -6.60414 -2.55459 0
M  V30 456 H 41.9887 -4.8845 -2.82979 0
M  V30 457 N 41.3868 0.248026 -1.55636 0
M  V30 458 C 42.6148 0.993808 -1.81469 0
M  V30 459 C 43.0298 1.78991 -0.60064 0
M  V30 460 O 42.3868 1.77345 0.430682 0
M  V30 461 C 42.4378 1.93258 -3.05506 0
M  V30 462 O 42.1588 1.16869 -4.22224 0
M  V30 463 C 43.6598 2.79444 -3.4413 0
M  V30 464 H 40.8798 0.292486 -0.603898 0
M  V30 465 H 43.4238 0.271253 -2.02693 0
M  V30 466 H 41.5788 2.60943 -2.86335 0
M  V30 467 H 41.9928 1.80359 -4.92515 0
M  V30 468 H 43.4668 3.41066 -4.34026 0
M  V30 469 H 43.9438 3.50499 -2.64665 0
M  V30 470 H 44.5498 2.17214 -3.65648 0
M  V30 471 N 42.8649 1.48995 0.513639 0
M  V30 472 C 44.1419 1.48338 1.27495 0
M  V30 473 C 44.5219 0.204065 2.10111 0
M  V30 474 O 43.8699 -0.813881 2.13514 0
M  V30 475 C 44.0799 2.75498 2.14247 0
M  V30 476 C 45.4279 3.24484 2.73852 0
M  V30 477 O 46.4519 2.76528 2.24523 0
M  V30 478 O 45.3109 4.07974 3.6362 0
M  V30 479 H 42.4049 0.593149 0.576284 0
M  V30 480 H 44.9509 1.61246 0.528948 0
M  V30 481 H 43.7229 3.60109 1.53092 0
M  V30 482 H 43.3459 2.6539 2.96064 0
M  V30 483 N 44.343 -0.763751 1.37857 0
M  V30 484 C 45.273 -1.89103 1.36975 0
M  V30 485 C 46.254 -1.68439 0.237152 0
M  V30 486 O 47.439 -1.8918 0.438713 0
M  V30 487 C 44.569 -3.26496 1.18395 0
M  V30 488 C 43.523 -3.61741 2.28751 0
M  V30 489 C 42.849 -4.97762 1.95286 0
M  V30 490 C 44.149 -3.67665 3.70972 0
M  V30 491 H 45.843 -1.90099 2.31307 0
M  V30 492 H 43.389 -0.91319 1.11341 0
M  V30 493 H 45.342 -4.05003 1.16406 0
M  V30 494 H 44.066 -3.25955 0.205215 0
M  V30 495 H 42.725 -2.85547 2.29909 0
M  V30 496 H 42.373 -4.93769 0.959221 0
M  V30 497 H 42.073 -5.22313 2.69189 0
M  V30 498 H 43.597 -5.7866 1.94898 0
M  V30 499 H 45.011 -4.36307 3.719 0
M  V30 500 H 43.408 -4.03718 4.43995 0
M  V30 501 H 44.478 -2.68134 4.0402 0
M  V30 502 N 45.8211 -1.22559 -0.990812 0
M  V30 503 C 47.0701 -1.04553 -1.72486 0
M  V30 504 C 47.3831 0.419349 -1.91052 0
M  V30 505 O 48.5891 0.719121 -2.61803 0
M  V30 506 C 47.0451 -1.82231 -3.10355 0
M  V30 507 C 46.6531 -3.32981 -2.99713 0
M  V30 508 C 48.3971 -1.7268 -3.87791 0
M  V30 509 C 46.3041 -4.03091 -4.32748 0
M  V30 510 H 45.2341 -0.387614 -0.646739 0
M  V30 511 H 47.8851 -1.46429 -1.10593 0
M  V30 512 H 46.2671 -1.33155 -3.72942 0
M  V30 513 H 47.4411 -3.89466 -2.46278 0
M  V30 514 H 45.7561 -3.43231 -2.35758 0
M  V30 515 H 48.3531 -2.22381 -4.86262 0
M  V30 516 H 48.6961 -0.687607 -4.10582 0
M  V30 517 H 49.2291 -2.1931 -3.31885 0
M  V30 518 H 45.9681 -5.07273 -4.15156 0
M  V30 519 H 45.4881 -3.51394 -4.86089 0
M  V30 520 H 47.1671 -4.08804 -5.01486 0
M  V30 521 N 47.2992 1.18797 -1.03562 0
M  V30 522 C 48.2492 2.20161 -0.592724 0
M  V30 523 C 49.2332 1.56772 0.362133 0
M  V30 524 O 50.4252 1.76062 0.182009 0
M  V30 525 C 47.5542 3.43266 0.0481024 0
M  V30 526 C 46.6402 4.13786 -0.9296 0
M  V30 527 N 47.0312 4.60388 -2.09467 0
M  V30 528 C 45.3292 4.39572 -0.754499 0
M  V30 529 C 46.0302 5.14619 -2.71187 0
M  V30 530 N 45.0062 5.05826 -1.991 0
M  V30 531 H 48.8082 2.53877 -1.48066 0
M  V30 532 H 46.3222 1.34946 -0.903514 0
M  V30 533 H 48.3192 4.15136 0.383058 0
M  V30 534 H 46.9792 3.11048 0.931636 0
M  V30 535 H 47.9902 4.54999 -2.47379 0
M  V30 536 H 44.6672 4.17425 0.0793713 0
M  V30 537 H 46.0572 5.60917 -3.69895 0
M  V30 538 N 48.7773 0.814389 1.34928 0
M  V30 539 C 50.0053 0.411136 2.02774 0
M  V30 540 C 50.4203 -0.980316 1.61354 0
M  V30 541 O 49.7773 -1.63299 0.814847 0
M  V30 542 C 49.8283 0.493865 3.58111 0
M  V30 543 O 49.5493 1.83047 3.98027 0
M  V30 544 C 51.0503 0.0844174 4.4322 0
M  V30 545 H 48.2703 0.166037 0.650133 0
M  V30 546 H 50.8143 1.10018 1.72384 0
M  V30 547 H 48.9693 -0.147006 3.87121 0
M  V30 548 H 49.3833 1.79872 4.92693 0
M  V30 549 H 50.8573 0.193404 5.51661 0
M  V30 550 H 51.3343 -0.97113 4.28329 0
M  V30 551 H 51.9403 0.69875 4.19521 0
M  V30 552 N 50.2554 -1.46986 0.568584 0
M  V30 553 C 51.1654 -2.33942 -0.17555 0
M  V30 554 C 52.1814 -1.48891 -0.90041 0
M  V30 555 O 53.3574 -1.81794 -0.86676 0
M  V30 556 C 50.4224 -3.25811 -1.18524 0
M  V30 557 C 49.4834 -4.26757 -0.466582 0
M  V30 558 C 48.7164 -5.14236 -1.42817 0
M  V30 559 O 48.9394 -5.04379 -2.66379 0
M  V30 560 O 47.8734 -5.94412 -0.946453 0
M  V30 561 H 51.6994 -2.98896 0.538036 0
M  V30 562 H 49.2844 -1.4573 0.329097 0
M  V30 563 H 51.1664 -3.82527 -1.76779 0
M  V30 564 H 49.8414 -2.63471 -1.88055 0
M  V30 565 H 48.7484 -3.73769 0.157451 0
M  V30 566 H 50.0814 -4.91843 0.187485 0
M  V30 567 N 51.7335 -0.305618 -1.54608 0
M  V30 568 C 52.6805 0.568421 -2.23691 0
M  V30 569 C 53.6505 1.12592 -1.22116 0
M  V30 570 O 54.8355 1.16959 -1.50749 0
M  V30 571 C 51.9755 1.7322 -2.98477 0
M  V30 572 C 51.0885 1.20566 -4.14835 0
M  V30 573 C 50.2235 2.33368 -4.77193 0
M  V30 574 C 49.2625 1.7787 -5.85686 0
M  V30 575 N 48.3995 2.84263 -6.4198 0
M  V30 576 H 53.2395 -0.0272867 -2.97988 0
M  V30 577 H 50.7765 -0.0252363 -1.47078 0
M  V30 578 H 52.7345 2.41675 -3.40072 0
M  V30 579 H 51.3645 2.29947 -2.26548 0
M  V30 580 H 50.4165 0.413223 -3.78149 0
M  V30 581 H 51.7285 0.759417 -4.92985 0
M  V30 582 H 50.8825 3.09761 -5.21664 0
M  V30 583 H 49.6215 2.8132 -3.98385 0
M  V30 584 H 48.6265 0.99968 -5.40635 0
M  V30 585 H 49.8515 1.30816 -6.66381 0
M  V30 586 H 47.7975 3.31541 -5.66053 0
M  V30 587 H 47.7145 2.44149 -7.15491 0
M  V30 588 H 48.9825 3.6054 -6.91109 0
M  V30 589 N 53.2116 1.57565 -0.0334293 0
M  V30 590 C 54.4886 1.83282 0.683163 0
M  V30 591 C 54.8686 0.91823 1.90084 0
M  V30 592 O 54.2166 -0.025113 2.28486 0
M  V30 593 C 54.4266 3.32599 1.0573 0
M  V30 594 C 55.7746 3.99179 1.44711 0
M  V30 595 O 56.7986 3.3712 1.15015 0
M  V30 596 O 55.6576 5.08565 2.0006 0
M  V30 597 H 52.7516 0.755869 0.335546 0
M  V30 598 H 55.2976 1.69589 -0.0614402 0
M  V30 599 H 54.0696 3.90834 0.190828 0
M  V30 600 H 53.6926 3.51415 1.85993 0
M  V30 601 N 54.6897 -0.239769 1.55765 0
M  V30 602 C 55.6197 -1.30052 1.9393 0
M  V30 603 C 56.6007 -1.49839 0.805132 0
M  V30 604 O 57.7857 -1.62328 1.06599 0
M  V30 605 C 54.9157 -2.65391 2.2402 0
M  V30 606 C 53.8697 -2.60289 3.39755 0
M  V30 607 C 53.1957 -3.99489 3.55405 0
M  V30 608 C 54.4957 -2.16654 4.75246 0
M  V30 609 H 56.1897 -0.983573 2.82783 0
M  V30 610 H 53.7357 -0.471701 1.36055 0
M  V30 611 H 55.6887 -3.3974 2.49308 0
M  V30 612 H 54.4127 -2.98736 1.32 0
M  V30 613 H 53.0717 -1.88398 3.14487 0
M  V30 614 H 52.7197 -4.30112 2.60793 0
M  V30 615 H 52.4197 -3.96962 4.33238 0
M  V30 616 H 53.9437 -4.75528 3.83022 0
M  V30 617 H 55.3577 -2.80737 4.99859 0
M  V30 618 H 53.7547 -2.25223 5.56232 0
M  V30 619 H 54.8247 -1.11835 4.71827 0
M  V30 620 N 56.1678 -1.49265 -0.50573 0
M  V30 621 C 57.4138 -1.58748 -1.26202 0
M  V30 622 C 57.7468 -0.271227 -1.92297 0
M  V30 623 O 57.0218 0.724831 -1.80489 0
M  V30 624 C 57.3048 -2.74332 -2.33268 0
M  V30 625 C 57.1578 -4.15737 -1.71705 0
M  V30 626 C 58.4768 -2.85576 -3.34865 0
M  V30 627 H 55.5958 -0.577826 -0.457478 0
M  V30 628 H 58.2378 -1.81532 -0.560897 0
M  V30 629 H 56.3878 -2.55036 -2.93068 0
M  V30 630 H 58.0598 -4.46537 -1.15769 0
M  V30 631 H 56.3028 -4.21605 -1.02135 0
M  V30 632 H 56.9738 -4.92477 -2.49341 0
M  V30 633 H 59.4498 -3.03127 -2.8505 0
M  V30 634 H 58.3258 -3.68135 -4.07146 0
M  V30 635 H 58.5868 -1.94732 -3.96903 0
M  V30 636 N 57.6459 0.756429 -1.3826 0
M  V30 637 C 58.8739 1.54565 -1.3754 0
M  V30 638 C 59.2889 1.88767 0.0355331 0
M  V30 639 O 58.6459 1.52572 1.0014 0
M  V30 640 C 58.6969 2.84654 -2.22833 0
M  V30 641 O 58.4179 2.51912 -3.5843 0
M  V30 642 C 59.9189 3.78807 -2.30261 0
M  V30 643 H 57.1389 0.478353 -0.470553 0
M  V30 644 H 59.6829 0.936381 -1.81803 0
M  V30 645 H 57.8379 3.41965 -1.8204 0
M  V30 646 H 58.2519 3.35325 -4.03308 0
M  V30 647 H 59.7259 4.67045 -2.94233 0
M  V30 648 H 60.2029 4.19038 -1.31545 0
M  V30 649 H 60.8089 3.2742 -2.71433 0
M  V30 650 N 59.124 1.23083 0.984299 0
M  V30 651 C 60.349 1.088 1.76571 0
M  V30 652 C 60.774 -0.356657 1.84688 0
M  V30 653 O 60.132 -1.25788 1.30565 0
M  V30 654 C 60.18 1.71371 3.17277 0
M  V30 655 O 59.284 0.973213 4.00752 0
M  V30 656 H 58.625 0.381599 0.543395 0
M  V30 657 H 61.155 1.63057 1.23587 0
M  V30 658 H 61.165 1.76449 3.67872 0
M  V30 659 H 59.84 2.76493 3.10684 0
M  V30 660 H 58.417 0.999078 3.59267 0
M  V30 661 N 60.6021 -1.18246 1.0419 0
M  V30 662 C 61.5321 -2.24127 0.654914 0
M  V30 663 C 62.5131 -1.66617 -0.342451 0
M  V30 664 O 63.6981 -1.92924 -0.222277 0
M  V30 665 C 60.8281 -3.47295 0.0183757 0
M  V30 666 C 59.7821 -4.17563 0.939414 0
M  V30 667 C 59.1081 -5.34438 0.167286 0
M  V30 668 C 60.4081 -4.70917 2.25908 0
M  V30 669 H 62.1021 -2.56753 1.54007 0
M  V30 670 H 59.6481 -1.23414 0.74195 0
M  V30 671 H 61.6011 -4.20572 -0.264082 0
M  V30 672 H 60.3251 -3.13907 -0.901664 0
M  V30 673 H 58.9841 -3.46186 1.20628 0
M  V30 674 H 58.6321 -4.97298 -0.7552 0
M  V30 675 H 58.3321 -5.82388 0.780901 0
M  V30 676 H 59.8561 -6.10504 -0.108125 0
M  V30 677 H 61.2701 -5.35882 2.03724 0
M  V30 678 H 59.6671 -5.29406 2.82577 0
M  V30 679 H 60.7371 -3.88272 2.9047 0
M  V30 680 N 62.0802 -0.821533 -1.34494 0
M  V30 681 C 63.0272 -0.240397 -2.29545 0
M  V30 682 C 63.9972 0.634031 -1.53523 0
M  V30 683 O 65.1822 0.575966 -1.81899 0
M  V30 684 C 62.3222 0.592869 -3.39969 0
M  V30 685 C 61.4352 -0.30365 -4.30932 0
M  V30 686 C 60.5702 0.539049 -5.28458 0
M  V30 687 C 59.6092 -0.356942 -6.11058 0
M  V30 688 N 58.7462 0.446603 -7.00678 0
M  V30 689 H 63.5862 -1.05632 -2.7865 0
M  V30 690 H 61.1232 -0.532413 -1.37127 0
M  V30 691 H 63.0812 1.09129 -4.02675 0
M  V30 692 H 61.7112 1.37392 -2.92102 0
M  V30 693 H 60.7632 -0.920276 -3.691 0
M  V30 694 H 62.0752 -0.992661 -4.88823 0
M  V30 695 H 61.2292 1.102 -5.96608 0
M  V30 696 H 59.9682 1.26157 -4.71101 0
M  V30 697 H 58.9732 -0.932047 -5.41842 0
M  V30 698 H 60.1982 -1.07755 -6.70497 0
M  V30 699 H 58.1442 1.15282 -6.45791 0
M  V30 700 H 58.0612 -0.184048 -7.55776 0
M  V30 701 H 59.3292 0.992352 -7.73158 0
M  V30 702 N 63.5583 1.46682 -0.576371 0
M  V30 703 C 64.8353 1.95599 0.00703437 0
M  V30 704 C 65.2153 1.51904 1.46589 0
M  V30 705 O 64.5633 0.766755 2.15251 0
M  V30 706 C 64.7733 3.4864 -0.158404 0
M  V30 707 C 66.1213 4.24594 -0.0229439 0
M  V30 708 O 67.1453 3.56094 -0.0869173 0
M  V30 709 O 66.0043 5.46373 0.118015 0
M  V30 710 H 63.0983 0.825275 0.053384 0
M  V30 711 H 65.6443 1.56996 -0.644244 0
M  V30 712 H 64.4163 3.7331 -1.17282 0
M  V30 713 H 64.0393 3.94057 0.5296 0
M  V30 714 N 65.0364 0.313813 1.54444 0
M  V30 715 C 66.2664 -0.293491 2.04505 0
M  V30 716 C 66.6744 -1.47086 1.19005 0
M  V30 717 O 66.0174 -1.82481 0.211257 0
M  V30 718 C 66.0794 -0.800455 3.50475 0
M  V30 719 C 65.7434 0.253322 4.56297 0
M  V30 720 C 66.7404 1.08612 5.08428 0
M  V30 721 C 64.4254 0.398708 5.00715 0
M  V30 722 C 66.4194 2.05013 6.0353 0
M  V30 723 C 64.1064 1.36614 5.95634 0
M  V30 724 C 65.1044 2.19033 6.46926 0
M  V30 725 O 64.7924 3.14134 7.39983 0
M  V30 726 H 64.5244 -0.0658325 0.672787 0
M  V30 727 H 67.0784 0.455177 2.00293 0
M  V30 728 H 65.3084 -1.59987 3.52053 0
M  V30 729 H 66.9974 -1.32504 3.83663 0
M  V30 730 H 67.7634 0.984736 4.74898 0
M  V30 731 H 63.6424 -0.23289 4.60411 0
M  V30 732 H 67.1864 2.69382 6.4349 0
M  V30 733 H 63.0834 1.4682 6.28581 0
M  V30 734 H 63.8514 3.0926 7.57826 0
M  V30 735 N 66.5145 -1.57545 0.0417849 0
M  V30 736 C 67.7635 -1.91494 -0.633492 0
M  V30 737 C 68.0765 -0.921084 -1.72556 0
M  V30 738 O 69.2825 -1.15228 -2.45835 0
M  V30 739 C 67.7385 -3.40072 -1.17808 0
M  V30 740 C 67.3465 -4.47843 -0.118633 0
M  V30 741 C 69.0905 -3.8307 -1.82915 0
M  V30 742 C 66.9975 -5.87529 -0.675578 0
M  V30 743 H 65.9275 -0.714653 -0.24039 0
M  V30 744 H 68.5785 -1.83175 0.109148 0
M  V30 745 H 66.9605 -3.43364 -1.97274 0
M  V30 746 H 68.1345 -4.56128 0.654494 0
M  V30 747 H 66.4495 -4.14128 0.434414 0
M  V30 748 H 69.0465 -4.84794 -2.25563 0
M  V30 749 H 69.3895 -3.1881 -2.67705 0
M  V30 750 H 69.9225 -3.82255 -1.10119 0
M  V30 751 H 66.6615 -6.55362 0.134475 0
M  V30 752 H 66.1815 -5.82824 -1.4169 0
M  V30 753 H 67.8605 -6.36491 -1.1614 0
M  V30 754 N 67.9926 0.231505 -1.5589 0
M  V30 755 C 68.9396 1.28682 -1.91598 0
M  V30 756 C 69.9096 1.47071 -0.771974 0
M  V30 757 O 71.0946 1.60802 -1.027 0
M  V30 758 C 68.2346 2.6342 -2.22944 0
M  V30 759 C 67.3476 2.52912 -3.50228 0
M  V30 760 C 66.4826 3.80106 -3.7107 0
M  V30 761 C 65.5216 3.64279 -4.91902 0
M  V30 762 N 64.6586 4.834 -5.09184 0
M  V30 763 H 69.4986 0.975305 -2.81588 0
M  V30 764 H 67.0356 0.470299 -1.39379 0
M  V30 765 H 68.9936 3.41869 -2.39126 0
M  V30 766 H 67.6236 2.92687 -1.36139 0
M  V30 767 H 66.6756 1.6595 -3.42294 0
M  V30 768 H 67.9876 2.37133 -4.38827 0
M  V30 769 H 67.1416 4.66999 -3.87295 0
M  V30 770 H 65.8806 3.98799 -2.80733 0
M  V30 771 H 64.8856 2.7577 -4.75637 0
M  V30 772 H 66.1106 3.47067 -5.83714 0
M  V30 773 H 64.0566 5.02425 -4.21788 0
M  V30 774 H 63.9736 4.70311 -5.91898 0
M  V30 775 H 65.2416 5.71747 -5.29835 0
M  V30 776 N 69.4707 1.49531 0.497807 0
M  V30 777 C 70.4337 1.65916 1.58128 0
M  V30 778 C 71.4337 0.530825 1.51786 0
M  V30 779 O 72.6237 0.797342 1.54881 0
M  V30 780 C 69.7557 1.65951 2.9778 0
M  V30 781 H 70.9487 2.62556 1.44929 0
M  V30 782 H 68.5017 1.38611 0.722275 0
M  V30 783 H 69.2367 0.709065 3.16453 0
M  V30 784 H 69.0217 2.47897 3.03792 0
M  V30 785 H 70.5117 1.80673 3.76493 0
M  V30 786 N 70.9488 -0.749086 1.3866 0
M  V30 787 C 71.8588 -1.89358 1.38494 0
M  V30 788 C 72.8748 -1.71708 0.281476 0
M  V30 789 O 74.0508 -1.94554 0.520643 0
M  V30 790 C 71.1158 -3.24782 1.21316 0
M  V30 791 C 70.1768 -3.54926 2.41508 0
M  V30 792 C 69.4098 -4.83888 2.2514 0
M  V30 793 O 69.6328 -5.56592 1.24746 0
M  V30 794 O 68.5668 -5.13612 3.13826 0
M  V30 795 H 72.3928 -1.92452 2.34938 0
M  V30 796 H 69.9778 -0.894981 1.19626 0
M  V30 797 H 71.8598 -4.05739 1.13814 0
M  V30 798 H 70.5348 -3.2249 0.279592 0
M  V30 799 H 69.4418 -2.74112 2.54585 0
M  V30 800 H 70.7748 -3.61983 3.3351 0
M  V30 801 N 72.4269 -1.23603 -0.977757 0
M  V30 802 C 73.3369 -1.03632 -2.1047 0
M  V30 803 C 74.3529 0.0199435 -1.73989 0
M  V30 804 O 75.5289 -0.176076 -2.00629 0
M  V30 805 C 72.5939 -0.63276 -3.40877 0
M  V30 806 C 71.6549 -1.76437 -3.91367 0
M  V30 807 C 70.8879 -1.37997 -5.15551 0
M  V30 808 O 71.1109 -0.265357 -5.69782 0
M  V30 809 O 70.0449 -2.20201 -5.60174 0
M  V30 810 H 73.8709 -1.98086 -2.30208 0
M  V30 811 H 71.4559 -1.02332 -1.08851 0
M  V30 812 H 73.3379 -0.418761 -4.19314 0
M  V30 813 H 72.0129 0.282754 -3.22463 0
M  V30 814 H 70.9199 -2.03304 -3.14036 0
M  V30 815 H 72.2529 -2.6583 -4.14241 0
M  V30 816 N 73.905 1.17692 -1.04816 0
M  V30 817 C 75.182 1.83768 -0.669963 0
M  V30 818 C 75.562 1.93232 0.849986 0
M  V30 819 O 74.91 1.46397 1.75443 0
M  V30 820 C 75.12 3.21641 -1.35455 0
M  V30 821 C 76.468 3.97592 -1.49017 0
M  V30 822 O 77.492 3.31107 -1.31326 0
M  V30 823 O 76.351 5.16729 -1.77914 0
M  V30 824 H 73.445 0.792799 -0.235368 0
M  V30 825 H 75.991 1.25021 -1.14751 0
M  V30 826 H 74.763 3.097 -2.39168 0
M  V30 827 H 74.386 3.88052 -0.866107 0
M  V30 828 N 75.3831 0.828654 1.34056 0
M  V30 829 C 76.3301 0.252567 2.29414 0
M  V30 830 C 77.3001 -0.62588 1.53857 0
M  V30 831 O 78.4851 -0.566312 1.82202 0
M  V30 832 C 75.6251 -0.574831 3.40279 0
M  V30 833 C 74.7381 0.326499 4.30764 0
M  V30 834 C 73.8731 -0.511016 5.28736 0
M  V30 835 C 72.9121 0.389342 6.1086 0
M  V30 836 N 72.0491 -0.409439 7.00905 0
M  V30 837 H 76.8891 1.07108 2.78086 0
M  V30 838 H 74.4261 0.539677 1.36843 0
M  V30 839 H 76.3841 -1.06992 4.03248 0
M  V30 840 H 75.0141 -1.35841 2.92826 0
M  V30 841 H 74.0661 0.939837 3.68607 0
M  V30 842 H 75.3781 1.01857 4.88289 0
M  V30 843 H 74.5321 -1.07035 5.97184 0
M  V30 844 H 73.2711 -1.23657 4.71763 0
M  V30 845 H 72.2761 0.960769 5.4134 0
M  V30 846 H 73.5011 1.1131 6.69916 0
M  V30 847 H 71.4471 -1.11856 6.46393 0
M  V30 848 H 71.3641 0.224126 7.55668 0
M  V30 849 H 72.6321 -0.951336 7.73673 0
M  V30 850 N 76.8612 -1.46375 0.584142 0
M  V30 851 C 77.7912 -2.33103 -0.136037 0
M  V30 852 C 78.7722 -1.45431 -0.882255 0
M  V30 853 O 79.9572 -1.74246 -0.857434 0
M  V30 854 C 77.0872 -3.27731 -1.14933 0
M  V30 855 C 76.0412 -4.24855 -0.517862 0
M  V30 856 C 75.3672 -5.09001 -1.63773 0
M  V30 857 C 76.6672 -5.19439 0.545886 0
M  V30 858 H 78.3612 -2.93568 0.588086 0
M  V30 859 H 75.9072 -1.41166 0.284259 0
M  V30 860 H 77.8602 -3.87261 -1.66153 0
M  V30 861 H 76.5842 -2.65377 -1.90375 0
M  V30 862 H 75.2432 -3.6659 -0.0267361 0
M  V30 863 H 74.8912 -4.43031 -2.38185 0
M  V30 864 H 74.5912 -5.74777 -1.22085 0
M  V30 865 H 76.1152 -5.71396 -2.15266 0
M  V30 866 H 77.5292 -5.73177 0.118704 0
M  V30 867 H 75.9262 -5.93566 0.88317 0
M  V30 868 H 76.9962 -4.63285 1.43162 0
M  V30 869 N 78.3393 -0.321999 -1.54275 0
M  V30 870 C 79.2493 0.553631 -2.27974 0
M  V30 871 C 80.2653 1.13054 -1.32268 0
M  V30 872 O 81.4413 1.15084 -1.6528 0
M  V30 873 C 78.5063 1.69927 -3.02201 0
M  V30 874 C 77.5673 1.15433 -4.1349 0
M  V30 875 C 76.8003 2.24537 -4.84168 0
M  V30 876 O 77.0233 3.44852 -4.5435 0
M  V30 877 O 75.9573 1.90044 -5.7111 0
M  V30 878 H 79.7833 -0.0448345 -3.03667 0
M  V30 879 H 77.3683 -0.0877418 -1.49142 0
M  V30 880 H 79.2503 2.3663 -3.48689 0
M  V30 881 H 77.9253 2.28395 -2.29385 0
M  V30 882 H 76.8323 0.452436 -3.71354 0
M  V30 883 H 78.1653 0.614805 -4.88345 0
M  V30 884 N 79.8174 1.5752 -0.0501392 0
M  V30 885 C 80.7494 2.08413 0.95376 0
M  V30 886 C 81.7624 1.01175 1.27544 0
M  V30 887 O 82.9514 1.28744 1.23641 0
M  V30 888 C 80.0514 2.51138 2.27559 0
M  V30 889 C 79.2244 3.817 2.13598 0
M  V30 890 C 78.2834 4.10749 3.28895 0
M  V30 891 O 77.3094 4.80685 3.04845 0
M  V30 892 N 78.5114 3.62579 4.5334 0
M  V30 893 H 81.2764 2.95165 0.519383 0
M  V30 894 H 78.8374 1.61327 0.136127 0
M  V30 895 H 80.8294 2.67648 3.03557 0
M  V30 896 H 79.3994 1.6964 2.62567 0
M  V30 897 H 78.6194 3.74782 1.22197 0
M  V30 898 H 79.9074 4.67201 2.01496 0
M  V30 899 H 79.3054 3.06039 4.75769 0
M  V30 900 H 77.8624 3.84329 5.26436 0
M  V30 901 N 81.2955 -0.223234 1.56011 0
M  V30 902 C 82.5445 -0.945912 1.78144 0
M  V30 903 C 82.8575 -1.85567 0.618396 0
M  V30 904 O 84.0635 -2.61688 0.723318 0
M  V30 905 C 82.5195 -1.73216 3.15475 0
M  V30 906 C 82.1275 -0.868619 4.39499 0
M  V30 907 C 83.8715 -2.44615 3.46935 0
M  V30 908 C 81.7785 -1.65212 5.67855 0
M  V30 909 H 80.7085 -0.356929 0.664167 0
M  V30 910 H 83.3595 -0.199845 1.82409 0
M  V30 911 H 81.7415 -2.52107 3.05382 0
M  V30 912 H 82.9155 -0.120366 4.60643 0
M  V30 913 H 81.2305 -0.26683 4.15544 0
M  V30 914 H 83.8275 -3.03732 4.40058 0
M  V30 915 H 84.1705 -3.17417 2.69355 0
M  V30 916 H 84.7035 -1.72715 3.58349 0
M  V30 917 H 81.4425 -0.967407 6.48322 0
M  V30 918 H 80.9625 -2.37503 5.50774 0
M  V30 919 H 82.6415 -2.21322 6.07968 0
M  V30 920 N 82.7736 -1.49793 -0.48987 0
M  V30 921 C 83.7206 -1.67281 -1.59014 0
M  V30 922 C 84.6906 -0.514177 -1.57941 0
M  V30 923 O 85.8756 -0.742533 -1.75759 0
M  V30 924 C 83.0156 -1.75569 -2.97102 0
M  V30 925 C 82.1286 -3.0281 -3.08107 0
M  V30 926 C 81.2636 -3.02008 -4.36995 0
M  V30 927 C 80.3026 -4.23782 -4.41673 0
M  V30 928 N 79.4396 -4.20826 -5.62005 0
M  V30 929 H 84.2796 -2.61224 -1.43409 0
M  V30 930 H 81.8166 -1.29508 -0.697565 0
M  V30 931 H 83.7746 -1.78354 -3.77155 0
M  V30 932 H 82.4046 -0.850827 -3.11385 0
M  V30 933 H 81.4566 -3.09584 -2.21047 0
M  V30 934 H 82.7686 -3.92801 -3.07423 0
M  V30 935 H 81.9226 -3.03418 -5.25378 0
M  V30 936 H 80.6616 -2.09815 -4.4026 0
M  V30 937 H 79.6666 -4.22604 -3.5169 0
M  V30 938 H 80.8916 -5.17181 -4.40115 0
M  V30 939 H 78.8376 -3.31476 -5.66091 0
M  V30 940 H 78.7546 -5.04564 -5.62984 0
M  V30 941 H 80.0226 -4.26355 -6.52565 0
M  V30 942 N 84.2517 0.741722 -1.39055 0
M  V30 943 C 85.1987 1.85566 -1.37237 0
M  V30 944 C 86.1687 1.64457 -0.233072 0
M  V30 945 O 87.3537 1.85957 -0.427147 0
M  V30 946 C 84.4937 3.23004 -1.215 0
M  V30 947 C 83.6067 3.55864 -2.44918 0
M  V30 948 C 82.7417 4.82669 -2.21821 0
M  V30 949 C 81.7807 5.08351 -3.40948 0
M  V30 950 N 80.9177 6.26356 -3.17211 0
M  V30 951 H 85.7577 1.86455 -2.32462 0
M  V30 952 H 83.2947 0.911176 -1.15482 0
M  V30 953 H 85.2527 4.02331 -1.10389 0
M  V30 954 H 83.8827 3.21411 -0.29908 0
M  V30 955 H 82.9347 2.7129 -2.66657 0
M  V30 956 H 84.2467 3.70765 -3.33668 0
M  V30 957 H 83.4007 5.69962 -2.07914 0
M  V30 958 H 82.1397 4.69929 -1.30454 0
M  V30 959 H 81.1447 4.19522 -3.55361 0
M  V30 960 H 82.3697 5.22981 -4.33207 0
M  V30 961 H 80.3157 6.14917 -2.28502 0
M  V30 962 H 80.2327 6.41813 -3.99515 0
M  V30 963 H 81.5007 7.16506 -3.06984 0
M  V30 964 N 85.7298 1.2412 0.971189 0
M  V30 965 C 86.9758 1.09048 1.71698 0
M  V30 966 C 87.3308 -0.367442 1.88859 0
M  V30 967 O 86.6238 -1.26792 1.43646 0
M  V30 968 C 86.8178 1.75983 3.11071 0
M  V30 969 C 86.6468 3.28133 3.07504 0
M  V30 970 C 85.4168 3.97331 3.1218 0
M  V30 971 C 87.6148 4.24773 2.89952 0
M  V30 972 N 85.5968 5.3639 2.98596 0
M  V30 973 C 86.9678 5.50806 2.84627 0
M  V30 974 C 89.0228 4.15392 2.74506 0
M  V30 975 C 87.7258 6.68533 2.65437 0
M  V30 976 C 89.7518 5.32793 2.56682 0
M  V30 977 C 89.1138 6.57756 2.52063 0
M  V30 978 H 85.2128 0.453632 0.636979 0
M  V30 979 H 87.7968 1.56983 1.15171 0
M  V30 980 H 85.9678 1.30566 3.65796 0
M  V30 981 H 87.6998 1.53803 3.74335 0
M  V30 982 H 84.4548 3.48473 3.20724 0
M  V30 983 H 84.8788 6.09321 2.95054 0
M  V30 984 H 89.5208 3.19543 2.76861 0
M  V30 985 H 87.2388 7.64509 2.61825 0
M  V30 986 H 90.8248 5.27383 2.4568 0
M  V30 987 H 89.7048 7.4707 2.38446 0
M  V30 988 N 87.2079 -1.17134 1.05439 0
M  V30 989 C 88.1709 -2.19439 0.661764 0
M  V30 990 C 89.1709 -1.58199 -0.288042 0
M  V30 991 O 90.3609 -1.74053 -0.0715803 0
M  V30 992 C 87.4929 -3.40889 -0.0276209 0
M  V30 993 H 88.6859 -2.55688 1.56728 0
M  V30 994 H 86.2389 -1.31259 0.848567 0
M  V30 995 H 86.9739 -3.10187 -0.94629 0
M  V30 996 H 86.7589 -3.86586 0.655238 0
M  V30 997 H 88.2489 -4.16603 -0.288342 0
M  V30 998 N 88.686 -0.835752 -1.33615 0
M  V30 999 C 89.596 -0.269088 -2.33052 0
M  V30 1000 C 90.612 0.603251 -1.63208 0
M  V30 1001 O 91.788 0.508112 -1.94885 0
M  V30 1002 C 88.853 0.549091 -3.42324 0
M  V30 1003 C 87.914 -0.347156 -4.27894 0
M  V30 1004 C 87.147 0.43207 -5.31948 0
M  V30 1005 O 87.37 1.66409 -5.45586 0
M  V30 1006 O 86.304 -0.192298 -6.01593 0
M  V30 1007 H 90.13 -1.09243 -2.83372 0
M  V30 1008 H 87.715 -0.598198 -1.36901 0
M  V30 1009 H 89.597 1.01414 -4.09015 0
M  V30 1010 H 88.272 1.34955 -2.94226 0
M  V30 1011 H 87.179 -0.859979 -3.64081 0
M  V30 1012 H 88.512 -1.1123 -4.79467 0
M  V30 1013 N 90.1641 1.46063 -0.591896 0
M  V30 1014 C 91.1111 2.30399 0.136069 0
M  V30 1015 C 92.0811 1.41169 0.875238 0
M  V30 1016 O 93.2661 1.70112 0.86409 0
M  V30 1017 C 90.4061 3.25804 1.13781 0
M  V30 1018 C 89.5191 4.30134 0.401137 0
M  V30 1019 C 88.6541 5.12659 1.39121 0
M  V30 1020 C 87.6931 6.0873 0.641462 0
M  V30 1021 N 86.8301 6.8409 1.58004 0
M  V30 1022 H 91.6701 2.92118 -0.589144 0
M  V30 1023 H 89.2071 1.43959 -0.302342 0
M  V30 1024 H 91.1651 3.79569 1.73156 0
M  V30 1025 H 89.7951 2.65872 1.83062 0
M  V30 1026 H 88.8471 3.79152 -0.307826 0
M  V30 1027 H 90.1591 4.98458 -0.184565 0
M  V30 1028 H 89.3131 5.70747 2.05749 0
M  V30 1029 H 88.0521 4.44316 2.01084 0
M  V30 1030 H 87.0571 5.49786 -0.0385419 0
M  V30 1031 H 88.2821 6.79095 0.0270945 0
M  V30 1032 H 86.2281 6.18449 2.18761 0
M  V30 1033 H 86.1451 7.48709 1.04738 0
M  V30 1034 H 87.4131 7.4673 2.23639 0
M  V30 1035 N 91.6422 0.330177 1.54103 0
M  V30 1036 C 92.5722 -0.525353 2.27513 0
M  V30 1037 C 93.5532 -1.11383 1.2856 0
M  V30 1038 O 94.7382 -1.13773 1.57383 0
M  V30 1039 C 91.8682 -1.6831 3.03791 0
M  V30 1040 C 90.8222 -1.2236 4.10137 0
M  V30 1041 C 90.1482 -2.46882 4.74293 0
M  V30 1042 C 91.4482 -0.333697 5.21233 0
M  V30 1043 H 93.1422 0.087013 2.99274 0
M  V30 1044 H 90.6882 0.0432893 1.43935 0
M  V30 1045 H 92.6412 -2.28795 3.5388 0
M  V30 1046 H 91.3652 -2.32216 2.29659 0
M  V30 1047 H 90.0242 -0.64165 3.60941 0
M  V30 1048 H 89.6722 -3.09165 3.96769 0
M  V30 1049 H 89.3722 -2.16825 5.46133 0
M  V30 1050 H 90.8962 -3.08117 5.27159 0
M  V30 1051 H 92.3102 -0.845013 5.67038 0
M  V30 1052 H 90.7072 -0.125612 5.99969 0
M  V30 1053 H 91.7772 0.633724 4.80741 0
M  V30 1054 N 93.1203 -1.57491 0.0584922 0
M  V30 1055 C 94.3973 -1.84346 -0.653918 0
M  V30 1056 C 94.7773 -0.948355 -1.88599 0
M  V30 1057 O 94.1253 -0.0112403 -2.28497 0
M  V30 1058 C 94.3353 -3.34239 -1.00425 0
M  V30 1059 C 95.6833 -4.01431 -1.38342 0
M  V30 1060 O 96.7073 -3.38907 -1.09637 0
M  V30 1061 O 95.5663 -5.11683 -1.91943 0
M  V30 1062 H 92.6603 -0.761112 -0.323478 0
M  V30 1063 H 95.2063 -1.6947 0.0884125 0
M  V30 1064 H 93.9783 -3.91089 -0.128625 0
M  V30 1065 H 93.6013 -3.54329 -1.80378 0
M  V30 1066 N 94.5984 0.214957 -1.56127 0
M  V30 1067 C 96.0144 0.564948 -1.49267 0
M  V30 1068 C 96.2144 1.86827 -0.754838 0
M  V30 1069 O 95.2704 2.50745 -0.297198 0
M  V30 1070 C 96.5834 0.638071 -2.93852 0
M  V30 1071 C 98.1314 0.728253 -3.0441 0
M  V30 1072 C 98.6064 0.832663 -4.50367 0
M  V30 1073 N 100.097 0.896712 -4.54437 0
M  V30 1074 C 100.832 0.997324 -5.6466 0
M  V30 1075 N 100.328 1.06147 -6.8462 0
M  V30 1076 N 102.121 1.03297 -5.52527 0
M  V30 1077 H 94.2724 -0.640211 -2.02522 0
M  V30 1078 H 96.5354 -0.225507 -0.920788 0
M  V30 1079 H 96.2414 -0.250126 -3.50809 0
M  V30 1080 H 96.1154 1.49947 -3.46115 0
M  V30 1081 H 98.5024 1.60689 -2.47514 0
M  V30 1082 H 98.5834 -0.158952 -2.55306 0
M  V30 1083 H 98.2274 -0.0415417 -5.07883 0
M  V30 1084 H 98.1574 1.73538 -4.97184 0
M  V30 1085 H 100.648 0.857188 -3.6805 0
M  V30 1086 H 100.961 1.1382 -7.64372 0
M  V30 1087 H 99.3064 1.03049 -6.87318 0
M  V30 1088 H 102.497 0.979558 -4.57736 0
M  V30 1089 H 102.67 1.10793 -6.38458 0
M  V30 1090 N 96.0765 1.50051 0.48192 0
M  V30 1091 C 97.0065 1.71046 1.58951 0
M  V30 1092 C 97.9875 0.559288 1.60642 0
M  V30 1093 O 99.1725 0.797243 1.77081 0
M  V30 1094 C 96.3025 1.79462 2.97339 0
M  V30 1095 C 95.2565 2.94558 3.10515 0
M  V30 1096 C 94.5825 2.88105 4.50444 0
M  V30 1097 C 95.8825 4.35227 2.88747 0
M  V30 1098 H 97.5765 2.6378 1.41635 0
M  V30 1099 H 95.1225 1.26936 0.679942 0
M  V30 1100 H 97.0755 1.92734 3.74742 0
M  V30 1101 H 95.7995 0.833412 3.15788 0
M  V30 1102 H 94.4585 2.80918 2.35543 0
M  V30 1103 H 94.1065 1.89853 4.65795 0
M  V30 1104 H 93.8065 3.65366 4.60197 0
M  V30 1105 H 95.3305 3.03412 5.29881 0
M  V30 1106 H 96.7445 4.49449 3.55905 0
M  V30 1107 H 95.1415 5.13856 3.09955 0
M  V30 1108 H 96.2115 4.48347 1.84696 0
M  V30 1109 N 97.5546 -0.734337 1.39446 0
M  V30 1110 C 98.7826 -1.52358 1.39981 0
M  V30 1111 C 99.1976 -1.88799 -0.0054975 0
M  V30 1112 O 98.5546 -1.54146 -0.976998 0
M  V30 1113 C 98.6056 -2.81072 2.27333 0
M  V30 1114 O 98.3266 -2.46178 3.62392 0
M  V30 1115 C 99.8276 -3.75096 2.36259 0
M  V30 1116 H 97.0476 -0.470806 0.478103 0
M  V30 1117 H 99.5916 -0.907339 1.83269 0
M  V30 1118 H 97.7466 -3.39026 1.87457 0
M  V30 1119 H 98.1606 -3.28866 4.08592 0
M  V30 1120 H 99.6346 -4.62305 3.01626 0
M  V30 1121 H 100.112 -4.16892 1.38194 0
M  V30 1122 H 100.718 -3.23061 2.76608 0
M  V30 1123 N 99.0327 -1.24633 -0.964593 0
M  V30 1124 C 100.258 -1.11596 -1.74818 0
M  V30 1125 C 100.683 0.32723 -1.85232 0
M  V30 1126 O 100.041 1.23695 -1.32549 0
M  V30 1127 C 100.089 -1.76397 -3.1451 0
M  V30 1128 O 99.1927 -1.03685 -3.99153 0
M  V30 1129 H 98.5337 -0.390196 -0.537255 0
M  V30 1130 H 101.064 -1.65002 -1.20977 0
M  V30 1131 H 101.074 -1.8228 -3.65018 0
M  V30 1132 H 99.7487 -2.81401 -3.06246 0
M  V30 1133 H 98.3257 -1.05611 -3.57632 0
M  V30 1134 N 100.511 1.16574 -1.06058 0
M  V30 1135 C 101.739 1.90952 -0.796552 0
M  V30 1136 C 102.154 1.77302 0.648808 0
M  V30 1137 O 101.511 1.11605 1.44397 0
M  V30 1138 C 101.562 3.41736 -1.17894 0
M  V30 1139 O 101.283 3.54975 -2.56758 0
M  V30 1140 C 102.784 4.33169 -0.942308 0
M  V30 1141 H 100.004 0.605594 -0.288959 0
M  V30 1142 H 102.548 1.47777 -1.41358 0
M  V30 1143 H 100.703 3.82623 -0.606491 0
M  V30 1144 H 101.117 4.4846 -2.72 0
M  V30 1145 H 102.591 5.37439 -1.25952 0
M  V30 1146 H 103.068 4.3903 0.122078 0
M  V30 1147 H 103.674 3.98007 -1.49902 0
M  V30 1148 N 101.989 0.842826 1.3317 0
M  V30 1149 C 102.952 0.284065 2.27433 0
M  V30 1150 C 103.952 -0.54948 1.5112 0
M  V30 1151 O 105.142 -0.362699 1.70382 0
M  V30 1152 C 102.274 -0.599384 3.35589 0
M  V30 1153 H 103.467 1.11589 2.78366 0
M  V30 1154 H 101.02 0.616221 1.4364 0
M  V30 1155 H 101.755 -1.45349 2.89904 0
M  V30 1156 H 101.54 -0.00291266 3.921 0
M  V30 1157 H 103.03 -0.983488 4.05854 0
M  V30 1158 N 103.467 -1.45747 0.599634 0
M  V30 1159 C 104.695 -2.06668 0.0978551 0
M  V30 1160 C 105.11 -1.44562 -1.21439 0
M  V30 1161 O 104.467 -0.556923 -1.73795 0
M  V30 1162 C 104.518 -3.61456 -0.0567044 0
M  V30 1163 O 104.239 -4.21242 1.20361 0
M  V30 1164 C 105.74 -4.39345 -0.590869 0
M  V30 1165 H 102.96 -0.667825 0.0651943 0
M  V30 1166 H 105.504 -1.87115 0.82511 0
M  V30 1167 H 103.659 -3.80378 -0.734251 0
M  V30 1168 H 104.073 -5.14323 1.02821 0
M  V30 1169 H 105.547 -5.48182 -0.648131 0
M  V30 1170 H 106.024 -4.08568 -1.61147 0
M  V30 1171 H 106.63 -4.25268 0.0523679 0
M  V30 1172 N 104.945 -0.338344 -1.53925 0
M  V30 1173 C 105.892 0.520845 -2.24846 0
M  V30 1174 C 106.862 1.09976 -1.24477 0
M  V30 1175 O 108.047 1.13735 -1.53196 0
M  V30 1176 C 105.187 1.6685 -3.02084 0
M  V30 1177 C 104.3 1.11739 -4.17299 0
M  V30 1178 C 103.435 2.23193 -4.82036 0
M  V30 1179 C 102.474 1.65407 -5.89328 0
M  V30 1180 N 101.611 2.70582 -6.47866 0
M  V30 1181 H 106.451 -0.0904881 -2.97863 0
M  V30 1182 H 103.988 -0.0564282 -1.46992 0
M  V30 1183 H 105.946 2.34407 -3.45122 0
M  V30 1184 H 104.576 2.2509 -2.31375 0
M  V30 1185 H 103.628 0.332919 -3.7894 0
M  V30 1186 H 104.94 0.654677 -4.94485 0
M  V30 1187 H 104.094 2.98626 -5.28117 0
M  V30 1188 H 102.833 2.72807 -4.04262 0
M  V30 1189 H 101.838 0.884779 -5.42634 0
M  V30 1190 H 103.063 1.16652 -6.69006 0
M  V30 1191 H 101.009 3.1946 -5.72959 0
M  V30 1192 H 100.926 2.28917 -7.20509 0
M  V30 1193 H 102.194 3.45799 -6.98601 0
M  V30 1194 N 106.423 1.57458 -0.0668435 0
M  V30 1195 C 107.7 1.8469 0.644132 0
M  V30 1196 C 108.08 0.958343 1.88093 0
M  V30 1197 O 107.428 0.0233579 2.28488 0
M  V30 1198 C 107.638 3.34767 0.986509 0
M  V30 1199 C 108.986 4.02159 1.36212 0
M  V30 1200 O 110.01 3.39484 1.07839 0
M  V30 1201 O 108.869 5.12694 1.89227 0
M  V30 1202 H 105.963 0.762816 0.319437 0
M  V30 1203 H 108.509 1.6942 -0.0973986 0
M  V30 1204 H 107.281 3.91151 0.107883 0
M  V30 1205 H 106.904 3.55281 1.78497 0
M  V30 1206 N 107.901 -0.206675 1.56239 0
M  V30 1207 C 109.312 -0.772383 1.69974 0
M  V30 1208 C 109.663 -1.84353 0.671436 0
M  V30 1209 O 108.788 -2.15695 -0.174491 0
M  V30 1210 C 109.383 -1.40779 3.08167 0
M  V30 1211 C 107.942 -1.92072 3.23706 0
M  V30 1212 C 107.089 -0.786347 2.65917 0
M  V30 1213 H 110.04 0.0182223 1.5869 0
M  V30 1214 H 110.061 -2.27696 3.04852 0
M  V30 1215 H 109.573 -0.627958 3.82986 0
M  V30 1216 H 107.674 -2.7281 2.53782 0
M  V30 1217 H 107.787 -2.09046 4.31087 0
M  V30 1218 H 106.151 -1.1976 2.24788 0
M  V30 1219 H 106.934 -0.0189416 3.43295 0
M  V30 1220 N 109.379 -1.50304 -0.473955 0
M  V30 1221 C 110.289 -1.7174 -1.5982 0
M  V30 1222 C 111.305 -0.600457 -1.63311 0
M  V30 1223 O 112.481 -0.878441 -1.81233 0
M  V30 1224 C 109.546 -1.80427 -2.96052 0
M  V30 1225 C 108.607 -3.04148 -3.02972 0
M  V30 1226 C 107.84 -3.12411 -4.32706 0
M  V30 1227 O 108.063 -2.27542 -5.23049 0
M  V30 1228 O 106.997 -4.05113 -4.45159 0
M  V30 1229 H 110.823 -2.67035 -1.44657 0
M  V30 1230 H 108.408 -1.34366 -0.653148 0
M  V30 1231 H 110.29 -1.88338 -3.7697 0
M  V30 1232 H 108.965 -0.883156 -3.11419 0
M  V30 1233 H 107.872 -3.0174 -2.21142 0
M  V30 1234 H 109.205 -3.95829 -2.92541 0
M  V30 1235 N 110.857 0.726932 -1.39834 0
M  V30 1236 C 112.105 1.4837 -1.37225 0
M  V30 1237 C 112.426 1.94979 0.0284857 0
M  V30 1238 O 111.696 1.69555 0.981213 0
M  V30 1239 H 110.276 0.55043 -0.505011 0
M  V30 1240 H 112.938 0.862468 -1.74778 0
M  V30 1241 H 112.034 2.36198 -2.04003 0
M  V30 1242 N 112.336 1.25143 0.95797 0
M  V30 1243 C 113.583 1.09692 1.70217 0
M  V30 1244 C 113.911 -0.362654 1.91089 0
M  V30 1245 O 113.166 -1.28386 1.47701 0
M  V30 1246 C 113.465 1.79272 3.09187 0
M  V30 1247 C 113.131 3.29196 3.08125 0
M  V30 1248 C 111.793 3.70096 3.07543 0
M  V30 1249 C 114.145 4.24995 3.0171 0
M  V30 1250 C 111.473 5.05213 2.9829 0
M  V30 1251 C 113.825 5.60132 2.93999 0
M  V30 1252 C 112.489 6.00365 2.9175 0
M  V30 1253 H 111.759 0.401393 0.622868 0
M  V30 1254 H 114.406 1.55372 1.11945 0
M  V30 1255 H 112.711 1.26014 3.70982 0
M  V30 1256 H 114.408 1.64773 3.65583 0
M  V30 1257 H 110.998 2.96651 3.09348 0
M  V30 1258 H 115.182 3.9439 3.01281 0
M  V30 1259 H 110.438 5.35569 2.94916 0
M  V30 1260 H 114.612 6.3406 2.87996 0
M  V30 1261 H 112.239 7.05023 2.84336 0
M  V30 1262 N 113.814 -1.1601 1.06675 0
M  V30 1263 C 115.06 -1.86909 0.786945 0
M  V30 1264 C 115.393 -1.81717 -0.685018 0
M  V30 1265 O 114.668 -1.23551 -1.50218 0
M  V30 1266 C 114.951 -3.36313 1.28707 0
M  V30 1267 C 114.804 -3.50175 2.82308 0
M  V30 1268 C 116.123 -4.3084 0.898071 0
M  V30 1269 H 113.242 -0.678677 0.287343 0
M  V30 1270 H 115.884 -1.36336 1.32334 0
M  V30 1271 H 114.034 -3.79513 0.830768 0
M  V30 1272 H 115.706 -3.15886 3.36175 0
M  V30 1273 H 113.949 -2.91959 3.20847 0
M  V30 1274 H 114.62 -4.55116 3.12368 0
M  V30 1275 H 117.096 -3.95561 1.29114 0
M  V30 1276 H 115.972 -5.33876 1.27543 0
M  V30 1277 H 116.233 -4.41662 -0.196651 0
M  V30 1278 N 115.292 -0.849877 -1.32721 0
M  V30 1279 C 116.54 -0.450032 -1.97026 0
M  V30 1280 C 116.861 0.996604 -1.67609 0
M  V30 1281 O 116.131 1.6958 -0.980786 0
M  V30 1282 H 114.711 -0.163426 -0.728904 0
M  V30 1283 H 117.373 -1.08526 -1.6189 0
M  V30 1284 H 116.469 -0.591146 -3.0645 0
M  V30 1285 N 116.77 1.45427 -0.607355 0
M  V30 1286 C 117.72 2.27612 0.133038 0
M  V30 1287 C 118.704 1.37307 0.838785 0
M  V30 1288 O 119.896 1.61299 0.728813 0
M  V30 1289 C 117.025 3.24173 1.12991 0
M  V30 1290 C 116.111 4.21965 0.425011 0
M  V30 1291 N 116.502 5.02982 -0.533217 0
M  V30 1292 C 114.8 4.40899 0.672593 0
M  V30 1293 C 115.501 5.73931 -0.947518 0
M  V30 1294 N 114.477 5.42819 -0.291321 0
M  V30 1295 H 118.279 2.87649 -0.602935 0
M  V30 1296 H 115.793 1.56576 -0.431006 0
M  V30 1297 H 117.79 3.81783 1.67473 0
M  V30 1298 H 116.45 2.65696 1.86644 0
M  V30 1299 H 117.461 5.09843 -0.90995 0
M  V30 1300 H 114.138 3.93547 1.39382 0
M  V30 1301 H 115.528 6.49037 -1.73782 0
M  V30 1302 N 118.248 0.346503 1.53744 0
M  V30 1303 C 119.659 -0.136779 1.86198 0
M  V30 1304 C 120.01 -1.49749 1.26766 0
M  V30 1305 O 119.135 -2.08417 0.582355 0
M  V30 1306 C 119.73 -0.254966 3.37839 0
M  V30 1307 C 118.289 -0.682482 3.70161 0
M  V30 1308 C 117.436 0.181981 2.76702 0
M  V30 1309 H 120.387 0.565994 1.48264 0
M  V30 1310 H 120.408 -1.08195 3.64793 0
M  V30 1311 H 119.92 0.735526 3.81066 0
M  V30 1312 H 118.021 -1.68189 3.3248 0
M  V30 1313 H 118.134 -0.470326 4.76786 0
M  V30 1314 H 116.498 -0.34615 2.52337 0
M  V30 1315 H 117.281 1.16966 3.2276 0
M  V30 1316 N 119.726 -1.57421 0.075193 0
M  V30 1317 C 120.972 -1.93905 -0.594025 0
M  V30 1318 C 121.305 -0.955701 -1.69056 0
M  V30 1319 O 120.58 0.0145373 -1.94495 0
M  V30 1320 C 120.863 -3.40638 -1.1678 0
M  V30 1321 C 120.716 -4.49733 -0.0776792 0
M  V30 1322 C 122.035 -3.88259 -2.07228 0
M  V30 1323 H 119.154 -0.705105 -0.214466 0
M  V30 1324 H 121.796 -1.8947 0.141854 0
M  V30 1325 H 119.946 -3.44549 -1.79494 0
M  V30 1326 H 121.618 -4.57942 0.555573 0
M  V30 1327 H 119.861 -4.29751 0.591286 0
M  V30 1328 H 120.532 -5.49549 -0.519603 0
M  V30 1329 H 123.008 -3.86376 -1.54445 0
M  V30 1330 H 121.884 -4.91533 -2.44308 0
M  V30 1331 H 122.145 -3.26396 -2.98191 0
M  V30 1332 N 121.204 0.198386 -1.56346 0
M  V30 1333 C 122.152 1.26538 -1.95169 0
M  V30 1334 C 123.146 1.47295 -0.836685 0
M  V30 1335 O 124.352 1.48195 -1.02167 0
M  V30 1336 H 120.727 0.424744 -0.620561 0
M  V30 1337 H 122.698 0.910904 -2.84157 0
M  V30 1338 C 121.447 2.6035 -2.30463 0
M  V30 1339 H 120.77 2.45192 -3.15786 0
M  V30 1340 H 122.21 3.33762 -2.61494 0
M  V30 1341 C 120.669 3.17096 -1.13806 0
M  V30 1342 O 121.199 3.99588 -0.41135 0
M  V30 1343 N 119.405 2.75795 -0.915736 0
M  V30 1344 H 118.952 2.08816 -1.50843 0
M  V30 1345 H 118.91 3.14101 -0.136979 0
M  V30 1346 N 122.682 1.50554 0.465978 0
M  V30 1347 C 123.645 1.69233 1.54574 0
M  V30 1348 C 124.645 0.562901 1.50626 0
M  V30 1349 O 125.835 0.830016 1.53155 0
M  V30 1350 C 122.967 1.7223 2.94193 0
M  V30 1351 H 124.16 2.65571 1.39327 0
M  V30 1352 H 121.713 1.40111 0.692711 0
M  V30 1353 H 122.448 0.77603 3.14878 0
M  V30 1354 H 122.233 2.54285 2.98466 0
M  V30 1355 H 123.723 1.88618 3.72576 0
M  V30 1356 N 124.16 -0.719506 1.40217 0
M  V30 1357 C 125.407 -1.47933 1.38283 0
M  V30 1358 C 125.735 -1.94493 -0.0161536 0
M  V30 1359 O 124.99 -1.68224 -0.999956 0
M  V30 1360 C 125.289 -2.72271 2.31524 0
M  V30 1361 C 124.955 -2.44496 3.78857 0
M  V30 1362 C 123.617 -2.36631 4.18998 0
M  V30 1363 C 125.969 -2.21104 4.71977 0
M  V30 1364 C 123.297 -2.03437 5.503 0
M  V30 1365 C 125.649 -1.89423 6.03574 0
M  V30 1366 C 124.313 -1.80038 6.42762 0
M  V30 1367 H 123.583 -0.541325 0.506012 0
M  V30 1368 H 126.23 -0.824502 1.72842 0
M  V30 1369 H 124.535 -3.42572 1.90137 0
M  V30 1370 H 126.232 -3.30348 2.27313 0
M  V30 1371 H 122.822 -2.51503 3.47051 0
M  V30 1372 H 127.006 -2.26139 4.41786 0
M  V30 1373 H 122.262 -1.94705 5.79569 0
M  V30 1374 H 126.436 -1.70336 6.75247 0
M  V30 1375 H 124.063 -1.54083 7.44421 0
M  V30 1376 N 125.638 -1.25649 -0.95132 0
M  V30 1377 C 126.585 -1.06323 -2.04851 0
M  V30 1378 C 127.555 0.0286491 -1.66075 0
M  V30 1379 O 128.74 -0.12917 -1.90362 0
M  V30 1380 C 125.88 -0.691529 -3.381 0
M  V30 1381 C 124.993 -1.85861 -3.89974 0
M  V30 1382 C 124.128 -1.43096 -5.11563 0
M  V30 1383 C 123.167 -2.56696 -5.55674 0
M  V30 1384 N 122.304 -2.14684 -6.68472 0
M  V30 1385 H 127.144 -2.00222 -2.20715 0
M  V30 1386 H 124.681 -0.997027 -1.08156 0
M  V30 1387 H 126.639 -0.456963 -4.1469 0
M  V30 1388 H 125.269 0.210474 -3.22113 0
M  V30 1389 H 124.321 -2.20639 -3.09875 0
M  V30 1390 H 125.633 -2.71161 -4.18657 0
M  V30 1391 H 124.787 -1.15624 -5.9558 0
M  V30 1392 H 123.526 -0.548722 -4.84603 0
M  V30 1393 H 122.531 -2.84909 -4.7022 0
M  V30 1394 H 123.756 -3.45503 -5.8464 0
M  V30 1395 H 121.702 -1.28881 -6.43215 0
M  V30 1396 H 121.619 -2.9353 -6.96689 0
M  V30 1397 H 122.887 -1.90397 -7.5589 0
M  V30 1398 N 127.117 1.15442 -1.07289 0
M  V30 1399 C 128.047 2.22312 -0.714107 0
M  V30 1400 C 129.028 1.67467 0.298155 0
M  V30 1401 O 130.213 1.93445 0.171048 0
M  V30 1402 C 127.343 3.47124 -0.110448 0
M  V30 1403 C 126.297 4.14926 -1.04979 0
M  V30 1404 C 125.623 5.33807 -0.308924 0
M  V30 1405 C 126.923 4.64762 -2.38314 0
M  V30 1406 H 128.617 2.5258 -1.6076 0
M  V30 1407 H 126.163 1.21404 -0.77441 0
M  V30 1408 H 128.116 4.21124 0.152482 0
M  V30 1409 H 126.84 3.16187 0.81812 0
M  V30 1410 H 125.499 3.42866 -1.29764 0
M  V30 1411 H 125.147 4.99126 0.623084 0
M  V30 1412 H 124.847 5.80113 -0.935036 0
M  V30 1413 H 126.371 6.10576 -0.0537771 0
M  V30 1414 H 127.785 5.30292 -2.1786 0
M  V30 1415 H 126.182 5.21728 -2.96514 0
M  V30 1416 H 127.252 3.80434 -3.00663 0
M  V30 1417 N 128.595 0.856903 1.32268 0
M  V30 1418 C 129.528 0.247937 2.26849 0
M  V30 1419 C 130.506 -0.615382 1.50505 0
M  V30 1420 O 131.69 -0.571689 1.79622 0
M  V30 1421 C 128.817 -0.650093 3.32403 0
M  V30 1422 C 127.863 0.140138 4.2627 0
M  V30 1423 S 128.696 1.51004 5.13769 0
M  V30 1424 C 129.852 0.61778 6.22844 0
M  V30 1425 H 130.085 1.04971 2.78152 0
M  V30 1426 H 127.618 0.654665 1.39834 0
M  V30 1427 H 129.576 -1.16256 3.93694 0
M  V30 1428 H 128.237 -1.4257 2.7988 0
M  V30 1429 H 127.43 -0.543945 5.01056 0
M  V30 1430 H 127.032 0.584267 3.69408 0
M  V30 1431 H 129.324 -0.177053 6.77269 0
M  V30 1432 H 130.267 1.33636 6.95375 0
M  V30 1433 H 130.675 0.191124 5.64176 0
M  V30 1434 N 130.073 -1.45103 0.615059 0
M  V30 1435 C 131.02 -2.30586 -0.0993978 0
M  V30 1436 C 131.99 -1.42544 -0.852669 0
M  V30 1437 O 133.175 -1.71465 -0.836917 0
M  V30 1438 C 130.315 -3.27572 -1.08583 0
M  V30 1439 C 129.428 -4.30717 -0.332656 0
M  V30 1440 C 128.563 -5.14807 -1.30947 0
M  V30 1441 C 127.602 -6.09673 -0.544538 0
M  V30 1442 N 126.739 -6.86517 -1.47101 0
M  V30 1443 H 131.579 -2.91144 0.635542 0
M  V30 1444 H 129.116 -1.4346 0.325206 0
M  V30 1445 H 131.074 -3.82276 -1.67095 0
M  V30 1446 H 129.704 -2.68751 -1.78809 0
M  V30 1447 H 128.756 -3.78615 0.368107 0
M  V30 1448 H 130.068 -4.98102 0.263842 0
M  V30 1449 H 129.222 -5.73948 -1.96643 0
M  V30 1450 H 127.961 -4.47458 -1.9399 0
M  V30 1451 H 126.966 -5.49656 0.126003 0
M  V30 1452 H 128.191 -6.79052 0.080947 0
M  V30 1453 H 126.137 -6.21851 -2.08895 0
M  V30 1454 H 126.054 -7.50281 -0.928137 0
M  V30 1455 H 127.322 -7.50194 -2.11731 0
M  V30 1456 N 131.551 -0.354651 -1.53558 0
M  V30 1457 C 132.967 -0.00315426 -1.596 0
M  V30 1458 C 133.167 1.47741 -1.37021 0
M  V30 1459 O 132.223 2.23759 -1.16996 0
M  V30 1460 C 133.536 -0.44929 -2.97325 0
M  V30 1461 C 135.084 -0.402578 -3.104 0
M  V30 1462 C 135.559 -0.824355 -4.5052 0
M  V30 1463 N 137.05 -0.778979 -4.56603 0
M  V30 1464 C 137.785 -1.07715 -5.63192 0
M  V30 1465 N 137.281 -1.44405 -6.77583 0
M  V30 1466 N 139.074 -1.00066 -5.53121 0
M  V30 1467 H 131.225 -1.31893 -1.66487 0
M  V30 1468 H 133.488 -0.538388 -0.780284 0
M  V30 1469 H 133.194 -1.48202 -3.1895 0
M  V30 1470 H 133.068 0.169772 -3.76818 0
M  V30 1471 H 135.455 0.621004 -2.88492 0
M  V30 1472 H 135.536 -1.05699 -2.32941 0
M  V30 1473 H 135.18 -1.846 -4.73165 0
M  V30 1474 H 135.11 -0.147304 -5.26394 0
M  V30 1475 H 137.601 -0.508528 -3.74463 0
M  V30 1476 H 137.914 -1.65612 -7.54846 0
M  V30 1477 H 136.259 -1.4826 -6.79002 0
M  V30 1478 H 139.45 -0.713293 -4.62633 0
M  V30 1479 H 139.623 -1.23638 -6.36096 0
M  V30 1480 N 133.029 1.57378 -0.0835403 0
M  V30 1481 C 133.959 2.1641 0.87686 0
M  V30 1482 C 134.94 1.09429 1.30228 0
M  V30 1483 O 136.125 1.37516 1.37124 0
M  V30 1484 C 133.255 2.73517 2.14022 0
M  V30 1485 C 132.209 3.85769 1.85381 0
M  V30 1486 C 131.535 4.29529 3.18448 0
M  V30 1487 C 132.835 5.09486 1.14984 0
M  V30 1488 H 134.529 2.96914 0.385059 0
M  V30 1489 H 132.075 1.42823 0.18377 0
M  V30 1490 H 134.028 3.13463 2.81636 0
M  V30 1491 H 132.752 1.90252 2.65465 0
M  V30 1492 H 131.411 3.46345 1.20169 0
M  V30 1493 H 131.059 3.43169 3.67755 0
M  V30 1494 H 130.759 5.05204 3.00071 0
M  V30 1495 H 132.283 4.72099 3.8724 0
M  V30 1496 H 133.697 5.46674 1.72687 0
M  V30 1497 H 132.094 5.90515 1.06826 0
M  V30 1498 H 133.164 4.84724 0.130749 0
M  V30 1499 N 134.507 -0.190092 1.56449 0
M  V30 1500 C 135.455 -1.25501 1.95837 0
M  V30 1501 C 136.449 -1.4685 0.844485 0
M  V30 1502 O 137.655 -1.47651 1.02952 0
M  V30 1503 H 134.03 -0.421447 0.622805 0
M  V30 1504 H 136.001 -0.895821 2.84636 0
M  V30 1505 C 134.75 -2.59124 2.31841 0
M  V30 1506 H 134.073 -2.43514 3.17082 0
M  V30 1507 H 135.513 -3.32371 2.6326 0
M  V30 1508 C 133.972 -3.16488 1.15486 0
M  V30 1509 O 134.502 -3.99365 0.432535 0
M  V30 1510 N 132.708 -2.75305 0.930349 0
M  V30 1511 H 132.255 -2.08013 1.51948 0
M  V30 1512 H 132.213 -3.14024 0.153634 0
M  V30 1513 N 135.985 -1.50799 -0.457987 0
M  V30 1514 C 137.213 -1.66218 -1.23203 0
M  V30 1515 C 137.628 -0.350894 -1.85511 0
M  V30 1516 O 136.985 0.668546 -1.69814 0
M  V30 1517 C 137.036 -2.76291 -2.33121 0
M  V30 1518 O 136.757 -4.02338 -1.73366 0
M  V30 1519 C 138.258 -3.028 -3.2377 0
M  V30 1520 H 135.478 -0.558361 -0.372121 0
M  V30 1521 H 138.022 -1.97099 -0.545179 0
M  V30 1522 H 136.177 -2.48068 -2.97558 0
M  V30 1523 H 136.591 -4.63312 -2.4585 0
M  V30 1524 H 138.065 -3.8345 -3.97077 0
M  V30 1525 H 138.542 -2.14385 -3.83322 0
M  V30 1526 H 139.148 -3.32604 -2.65056 0
M  V30 1527 N 137.463 0.71206 -1.40597 0
M  V30 1528 C 138.373 1.8562 -1.43466 0
M  V30 1529 C 139.389 1.70902 -0.326902 0
M  V30 1530 O 140.565 1.93105 -0.572043 0
M  V30 1531 C 137.63 3.21451 -1.29884 0
M  V30 1532 C 136.691 3.48398 -2.50833 0
M  V30 1533 C 135.924 4.77749 -2.3789 0
M  V30 1534 O 136.147 5.53089 -1.39459 0
M  V30 1535 O 135.081 5.05111 -3.27333 0
M  V30 1536 H 138.907 1.86155 -2.39958 0
M  V30 1537 H 136.492 0.86295 -1.21957 0
M  V30 1538 H 138.374 4.02579 -1.24531 0
M  V30 1539 H 137.049 3.21636 -0.364997 0
M  V30 1540 H 135.956 2.67265 -2.61763 0
M  V30 1541 H 137.289 3.53014 -3.4299 0
M  V30 1542 N 138.941 1.26152 0.944643 0
M  V30 1543 C 140.187 1.12665 1.69346 0
M  V30 1544 C 140.542 -0.3273 1.89596 0
M  V30 1545 O 139.835 -1.23717 1.46303 0
M  V30 1546 C 140.029 1.82541 3.07268 0
M  V30 1547 C 139.858 3.34582 3.00475 0
M  V30 1548 C 138.628 4.03863 3.03681 0
M  V30 1549 C 140.826 4.30828 2.80877 0
M  V30 1550 N 138.808 5.42603 2.87151 0
M  V30 1551 C 140.179 5.5672 2.7288 0
M  V30 1552 C 142.234 4.21122 2.65633 0
M  V30 1553 C 140.937 6.74013 2.51196 0
M  V30 1554 C 142.963 5.38118 2.45323 0
M  V30 1555 C 142.325 6.62955 2.38055 0
M  V30 1556 H 138.424 0.467041 0.627214 0
M  V30 1557 H 141.008 1.59391 1.11815 0
M  V30 1558 H 139.179 1.38296 3.62945 0
M  V30 1559 H 140.911 1.61708 3.70989 0
M  V30 1560 H 137.666 3.55198 3.1326 0
M  V30 1561 H 138.09 6.15443 2.82063 0
M  V30 1562 H 142.732 3.25344 2.70021 0
M  V30 1563 H 140.45 7.6989 2.4555 0
M  V30 1564 H 144.036 5.32475 2.34439 0
M  V30 1565 H 142.916 7.51959 2.22546 0
M  V30 1566 N 140.419 -1.14872 1.07899 0
M  V30 1567 C 141.644 -1.90202 0.826926 0
M  V30 1568 C 142.069 -1.77774 -0.614664 0
M  V30 1569 O 141.427 -1.11431 -1.43013 0
M  V30 1570 C 141.475 -3.38352 1.24702 0
M  V30 1571 O 140.579 -4.10497 0.39575 0
M  V30 1572 H 139.92 -0.591968 0.300782 0
M  V30 1573 H 142.45 -1.45437 1.43907 0
M  V30 1574 H 142.46 -3.89156 1.22563 0
M  V30 1575 H 141.135 -3.46715 2.29698 0
M  V30 1576 H 139.712 -3.69796 0.480117 0
M  V30 1577 N 141.898 -0.863906 -1.31812 0
M  V30 1578 C 142.808 -0.318461 -2.32428 0
M  V30 1579 C 143.824 0.568496 -1.64451 0
M  V30 1580 O 145 0.46666 -1.95919 0
M  V30 1581 C 142.065 0.476355 -3.43412 0
M  V30 1582 C 141.126 -0.43784 -4.27061 0
M  V30 1583 C 140.359 0.319138 -5.32745 0
M  V30 1584 O 140.582 1.54799 -5.48993 0
M  V30 1585 O 139.516 -0.319861 -6.01049 0
M  V30 1586 H 143.342 -1.15229 -2.80991 0
M  V30 1587 H 140.927 -0.627103 -1.35602 0
M  V30 1588 H 142.809 0.927156 -4.11074 0
M  V30 1589 H 141.484 1.28683 -2.97022 0
M  V30 1590 H 140.391 -0.937013 -3.62175 0
M  V30 1591 H 141.724 -1.21375 -4.77 0
M  V30 1592 N 143.376 1.44774 -0.622745 0
M  V30 1593 C 144.306 2.33382 0.0741861 0
M  V30 1594 C 145.287 1.47719 0.843387 0
M  V30 1595 O 146.472 1.76458 0.810934 0
M  V30 1596 C 143.602 3.30663 1.06204 0
M  V30 1597 C 142.556 4.26079 0.405037 0
M  V30 1598 C 141.882 5.13165 1.5022 0
M  V30 1599 C 143.182 5.1781 -0.683414 0
M  V30 1600 H 144.876 2.91905 -0.665713 0
M  V30 1601 H 142.422 1.40363 -0.321587 0
M  V30 1602 H 144.375 3.9153 1.55827 0
M  V30 1603 H 143.099 2.70331 1.83272 0
M  V30 1604 H 141.758 3.66532 -0.0704683 0
M  V30 1605 H 141.406 4.49191 2.26355 0
M  V30 1606 H 141.106 5.77812 1.06803 0
M  V30 1607 H 142.63 5.76902 2.00041 0
M  V30 1608 H 144.044 5.72661 -0.270631 0
M  V30 1609 H 142.441 5.91015 -1.04023 0
M  V30 1610 H 143.511 4.59326 -1.55395 0
M  V30 1611 N 144.854 0.36279 1.53368 0
M  V30 1612 C 145.764 -0.492994 2.29362 0
M  V30 1613 C 146.78 -1.09507 1.35219 0
M  V30 1614 O 147.956 -1.10662 1.68273 0
M  V30 1615 C 145.021 -1.61855 3.066 0
M  V30 1616 C 144.082 -1.04429 4.16405 0
M  V30 1617 C 143.315 -2.11621 4.89951 0
M  V30 1618 O 143.538 -3.32684 4.63333 0
M  V30 1619 O 142.472 -1.74835 5.75948 0
M  V30 1620 H 146.298 0.125331 3.03441 0
M  V30 1621 H 143.883 0.127253 1.48857 0
M  V30 1622 H 145.765 -2.27302 3.54841 0
M  V30 1623 H 144.44 -2.22233 2.3536 0
M  V30 1624 H 143.347 -0.353819 3.72423 0
M  V30 1625 H 144.68 -0.485113 4.89804 0
M  V30 1626 N 146.332 -1.57332 0.0918853 0
M  V30 1627 C 147.28 -2.15075 -0.885747 0
M  V30 1628 C 148.274 -1.09277 -1.29441 0
M  V30 1629 O 149.48 -1.27627 -1.26931 0
M  V30 1630 H 145.855 -0.687966 -0.303656 0
M  V30 1631 H 147.826 -2.96047 -0.373995 0
M  V30 1632 C 146.575 -2.74325 -2.13638 0
M  V30 1633 H 145.898 -3.55418 -1.8308 0
M  V30 1634 H 147.338 -3.183 -2.80109 0
M  V30 1635 C 145.797 -1.70062 -2.90827 0
M  V30 1636 O 146.327 -1.13763 -3.85254 0
M  V30 1637 N 144.533 -1.40628 -2.54307 0
M  V30 1638 H 144.08 -1.866 -1.7759 0
M  V30 1639 H 144.038 -0.711043 -3.06254 0
M  V30 1640 N 147.81 0.181792 -1.56548 0
M  V30 1641 C 148.74 1.22765 -1.98623 0
M  V30 1642 C 149.721 1.46747 -0.860189 0
M  V30 1643 O 150.906 1.58259 -1.12551 0
M  V30 1644 C 148.036 2.56894 -2.33715 0
M  V30 1645 C 146.99 2.475 -3.49182 0
M  V30 1646 C 146.316 3.86023 -3.69986 0
M  V30 1647 C 147.616 1.98866 -4.82959 0
M  V30 1648 H 149.31 0.877942 -2.86239 0
M  V30 1649 H 146.856 0.42088 -1.37712 0
M  V30 1650 H 148.809 3.30253 -2.61746 0
M  V30 1651 H 147.533 2.93632 -1.42997 0
M  V30 1652 H 146.192 1.76596 -3.21262 0
M  V30 1653 H 145.84 4.20136 -2.76576 0
M  V30 1654 H 145.54 3.80609 -4.47672 0
M  V30 1655 H 147.064 4.60984 -4.00407 0
M  V30 1656 H 148.478 2.61992 -5.09934 0
M  V30 1657 H 146.875 2.04424 -5.64208 0
M  V30 1658 H 147.945 0.942465 -4.75653 0
M  V30 1659 N 149.288 1.51039 0.449983 0
M  V30 1660 C 150.534 1.63322 1.20223 0
M  V30 1661 C 150.867 0.34241 1.91158 0
M  V30 1662 O 150.142 -0.657344 1.83055 0
M  V30 1663 C 150.425 2.82801 2.22925 0
M  V30 1664 C 150.278 4.21823 1.56157 0
M  V30 1665 C 151.597 2.97807 3.24035 0
M  V30 1666 H 148.716 0.594407 0.435718 0
M  V30 1667 H 151.358 1.83489 0.493136 0
M  V30 1668 H 149.508 2.65738 2.834 0
M  V30 1669 H 151.18 4.50526 0.991162 0
M  V30 1670 H 149.423 4.25105 0.864172 0
M  V30 1671 H 150.094 5.01391 2.30891 0
M  V30 1672 H 152.57 3.13497 2.73603 0
M  V30 1673 H 151.446 3.82992 3.93202 0
M  V30 1674 H 151.707 2.09328 3.89402 0
M  V30 1675 N 150.766 -0.704594 1.40972 0
M  V30 1676 C 151.696 -1.83124 1.44872 0
M  V30 1677 C 152.677 -1.67281 0.30838 0
M  V30 1678 O 153.862 -1.87149 0.518556 0
M  V30 1679 C 150.992 -3.21181 1.32136 0
M  V30 1680 C 149.946 -3.51714 2.43888 0
M  V30 1681 C 149.272 -4.89032 2.16222 0
M  V30 1682 C 150.572 -3.516 3.86232 0
M  V30 1683 H 152.266 -1.80117 2.39161 0
M  V30 1684 H 149.812 -0.865145 1.15114 0
M  V30 1685 H 151.765 -3.99702 1.33479 0
M  V30 1686 H 150.489 -3.24791 0.343279 0
M  V30 1687 H 149.148 -2.75539 2.41813 0
M  V30 1688 H 148.796 -4.89256 1.16778 0
M  V30 1689 H 148.496 -5.10426 2.911 0
M  V30 1690 H 150.02 -5.69873 2.19265 0
M  V30 1691 H 151.434 -4.2014 3.9007 0
M  V30 1692 H 149.831 -3.84523 4.60719 0
M  V30 1693 H 150.901 -2.50757 4.15029 0
M  V30 1694 N 152.244 -1.26651 -0.937939 0
M  V30 1695 C 153.191 -1.0849 -2.03712 0
M  V30 1696 C 154.161 0.011033 -1.66096 0
M  V30 1697 O 155.346 -0.149353 -1.90215 0
M  V30 1698 C 152.486 -0.72735 -3.37348 0
M  V30 1699 C 151.599 -1.89986 -3.87981 0
M  V30 1700 C 150.734 -1.48513 -5.10017 0
M  V30 1701 C 149.773 -2.62575 -5.5292 0
M  V30 1702 N 148.91 -2.21762 -6.66158 0
M  V30 1703 H 153.75 -2.02551 -2.18579 0
M  V30 1704 H 151.287 -1.00844 -1.07093 0
M  V30 1705 H 153.245 -0.50092 -4.14182 0
M  V30 1706 H 151.875 0.176298 -3.22318 0
M  V30 1707 H 150.927 -2.23913 -3.07518 0
M  V30 1708 H 152.239 -2.75586 -4.15757 0
M  V30 1709 H 151.393 -1.21934 -5.94321 0
M  V30 1710 H 150.132 -0.60009 -4.83994 0
M  V30 1711 H 149.137 -2.8988 -4.67172 0
M  V30 1712 H 150.362 -3.51685 -5.80943 0
M  V30 1713 H 148.308 -1.35696 -6.41812 0
M  V30 1714 H 148.225 -3.00903 -6.93537 0
M  V30 1715 H 149.493 -1.98403 -7.53828 0
M  V30 1716 N 153.722 1.14298 -1.08507 0
M  V30 1717 C 154.999 1.81544 -0.728088 0
M  V30 1718 C 155.379 1.95838 0.78808 0
M  V30 1719 O 154.727 1.51904 1.70697 0
M  V30 1720 C 154.937 3.17169 -1.45619 0
M  V30 1721 C 156.285 3.9265 -1.61591 0
M  V30 1722 O 157.309 3.26762 -1.41793 0
M  V30 1723 O 156.168 5.10807 -1.94263 0
M  V30 1724 H 153.262 0.78491 -0.260471 0
M  V30 1725 H 155.808 1.21307 -1.18671 0
M  V30 1726 H 154.58 3.01934 -2.489 0
M  V30 1727 H 154.203 3.851 -0.989124 0
M  V30 1728 N 155.201 0.870884 1.31352 0
M  V30 1729 C 156.134 0.271983 2.26573 0
M  V30 1730 C 157.112 -0.599385 1.51149 0
M  V30 1731 O 158.296 -0.552605 1.80218 0
M  V30 1732 C 155.423 -0.614801 3.33073 0
M  V30 1733 C 154.469 0.185342 4.26097 0
M  V30 1734 S 155.302 1.56444 5.12138 0
M  V30 1735 C 156.458 0.683807 6.22153 0
M  V30 1736 H 156.691 1.07916 2.77023 0
M  V30 1737 H 154.224 0.669459 1.39132 0
M  V30 1738 H 156.182 -1.12074 3.94905 0
M  V30 1739 H 154.843 -1.39593 2.81376 0
M  V30 1740 H 154.036 -0.490771 5.01605 0
M  V30 1741 H 153.638 0.623415 3.68768 0
M  V30 1742 H 155.93 -0.10521 6.77418 0
M  V30 1743 H 156.873 1.41004 6.93919 0
M  V30 1744 H 157.281 0.250952 5.63942 0
M  V30 1745 N 156.679 -1.44442 0.630414 0
M  V30 1746 C 157.904 -2.06927 0.139944 0
M  V30 1747 C 158.329 -1.46795 -1.17613 0
M  V30 1748 O 157.687 -0.569144 -1.72135 0
M  V30 1749 C 157.735 -3.6058 0.0379581 0
M  V30 1750 O 156.839 -3.99937 -1.0062 0
M  V30 1751 H 156.18 -0.658608 0.0844483 0
M  V30 1752 H 158.71 -1.85327 0.866891 0
M  V30 1753 H 158.72 -4.07714 -0.152856 0
M  V30 1754 H 157.395 -4.03728 0.998809 0
M  V30 1755 H 155.972 -3.64436 -0.79001 0
M  V30 1756 N 158.157 -0.370918 -1.53173 0
M  V30 1757 C 159.434 0.273754 -1.93675 0
M  V30 1758 C 159.814 1.65938 -1.3049 0
M  V30 1759 O 159.162 2.23698 -0.465999 0
M  V30 1760 C 159.372 0.318602 -3.47543 0
M  V30 1761 C 160.72 0.556392 -4.20939 0
M  V30 1762 O 161.744 0.399587 -3.53952 0
M  V30 1763 O 160.603 0.862133 -5.39657 0
M  V30 1764 H 157.697 0.165448 -0.810281 0
M  V30 1765 H 160.243 -0.42409 -1.64315 0
M  V30 1766 H 159.015 -0.652687 -3.85818 0
M  V30 1767 H 158.638 1.06212 -3.83151 0
M  V30 1768 N 159.635 1.57281 -0.100228 0
M  V30 1769 C 160.883 1.94153 0.561157 0
M  V30 1770 C 161.204 0.983157 1.68401 0
M  V30 1771 O 160.474 0.0361132 1.95867 0
M  V30 1772 H 159.054 0.716791 0.210283 0
M  V30 1773 H 161.716 1.94202 -0.164765 0
M  V30 1774 H 160.812 2.96709 0.968008 0
M  V30 1775 N 161.113 -0.173488 1.56642 0
M  V30 1776 C 162.36 -0.890465 1.81871 0
M  V30 1777 C 162.688 -1.82339 0.67696 0
M  V30 1778 O 161.943 -1.92795 -0.335926 0
M  V30 1779 C 162.242 -1.72069 3.13252 0
M  V30 1780 C 161.908 -0.936878 4.41059 0
M  V30 1781 C 160.57 -0.720545 4.75775 0
M  V30 1782 C 162.922 -0.386919 5.19762 0
M  V30 1783 C 160.25 0.0568829 5.86672 0
M  V30 1784 C 162.602 0.37741 6.31473 0
M  V30 1785 C 161.266 0.604563 6.64757 0
M  V30 1786 H 160.536 -0.325844 0.665512 0
M  V30 1787 H 163.183 -0.155527 1.90867 0
M  V30 1788 H 161.488 -2.52496 2.99588 0
M  V30 1789 H 163.185 -2.27844 3.29982 0
M  V30 1790 H 159.775 -1.11553 4.13828 0
M  V30 1791 H 163.959 -0.541398 4.93338 0
M  V30 1792 H 159.215 0.242635 6.10918 0
M  V30 1793 H 163.389 0.810825 6.91664 0
M  V30 1794 H 161.016 1.20885 7.50527 0
M  V30 1795 N 162.591 -1.51276 -0.441967 0
M  V30 1796 C 163.84 -1.6295 -1.18871 0
M  V30 1797 C 164.153 -0.349312 -1.92456 0
M  V30 1798 O 165.359 -0.345355 -2.69295 0
M  V30 1799 C 163.815 -2.87759 -2.16155 0
M  V30 1800 C 163.423 -4.22764 -1.48239 0
M  V30 1801 C 165.167 -3.08788 -2.91291 0
M  V30 1802 C 163.074 -5.38728 -2.4398 0
M  V30 1803 H 162.004 -0.606913 -0.447406 0
M  V30 1804 H 164.655 -1.77739 -0.456205 0
M  V30 1805 H 163.037 -2.66593 -2.92821 0
M  V30 1806 H 164.211 -4.54293 -0.771635 0
M  V30 1807 H 162.526 -4.07575 -0.852741 0
M  V30 1808 H 165.123 -3.92599 -3.63002 0
M  V30 1809 H 165.466 -2.21679 -3.5237 0
M  V30 1810 H 165.999 -3.30272 -2.21733 0
M  V30 1811 H 162.738 -6.28082 -1.87598 0
M  V30 1812 H 162.258 -5.1158 -3.13123 0
M  V30 1813 H 163.937 -5.70489 -3.05207 0
M  V30 1814 N 164.069 0.697108 -1.41344 0
M  V30 1815 C 165.294 1.49096 -1.44171 0
M  V30 1816 C 165.719 1.88038 -0.0481568 0
M  V30 1817 O 165.077 1.54525 0.948243 0
M  V30 1818 C 165.125 2.73088 -2.3549 0
M  V30 1819 O 164.229 3.70514 -1.81088 0
M  V30 1820 H 163.57 0.448801 -0.489361 0
M  V30 1821 H 166.1 0.856992 -1.85787 0
M  V30 1822 H 166.11 3.21413 -2.51312 0
M  V30 1823 H 164.785 2.44081 -3.36745 0
M  V30 1824 H 163.362 3.29441 -1.74708 0
M  V30 1825 N 165.547 1.27147 0.931209 0
M  V30 1826 C 166.495 1.09398 2.05268 0
M  V30 1827 C 167.489 0.0180591 1.6939 0
M  V30 1828 O 168.695 0.17551 1.79142 0
M  V30 1829 H 165.07 0.336986 0.672268 0
M  V30 1830 H 167.041 2.04416 2.17386 0
M  V30 1831 C 165.79 0.75424 3.39421 0
M  V30 1832 H 165.113 1.57404 3.67511 0
M  V30 1833 H 166.553 0.669903 4.18674 0
M  V30 1834 C 165.012 -0.541197 3.32525 0
M  V30 1835 O 165.542 -1.57664 3.69466 0
M  V30 1836 N 163.748 -0.535517 2.85623 0
M  V30 1837 H 163.295 0.307511 2.55758 0
M  V30 1838 H 163.253 -1.40236 2.81392 0
M  V30 1839 N 167.025 -1.13721 1.09112 0
M  V30 1840 C 167.955 -2.21148 0.749385 0
M  V30 1841 C 168.936 -1.6792 -0.271475 0
M  V30 1842 O 170.121 -1.93693 -0.140251 0
M  V30 1843 C 167.251 -3.46905 0.165659 0
M  V30 1844 C 166.205 -4.13203 1.11567 0
M  V30 1845 C 165.531 -5.33248 0.393809 0
M  V30 1846 C 166.831 -4.60912 2.45678 0
M  V30 1847 H 168.525 -2.4999 1.64758 0
M  V30 1848 H 166.071 -1.20156 0.793626 0
M  V30 1849 H 168.024 -4.21313 -0.085466 0
M  V30 1850 H 166.748 -3.17449 -0.767714 0
M  V30 1851 H 165.407 -3.40758 1.35202 0
M  V30 1852 H 165.055 -5.00054 -0.543599 0
M  V30 1853 H 164.755 -5.78552 1.02721 0
M  V30 1854 H 166.279 -6.10413 0.150908 0
M  V30 1855 H 167.693 -5.26759 2.26269 0
M  V30 1856 H 166.09 -5.16944 3.04776 0
M  V30 1857 H 167.16 -3.75603 3.06677 0
M  V30 1858 N 168.503 -0.877838 -1.30888 0
M  V30 1859 C 169.731 -0.507414 -2.00581 0
M  V30 1860 C 170.146 0.902216 -1.65848 0
M  V30 1861 O 169.503 1.59225 -0.891831 0
M  V30 1862 C 169.554 -0.664162 -3.55347 0
M  V30 1863 O 169.275 -2.01829 -3.8884 0
M  V30 1864 C 170.776 -0.295787 -4.42312 0
M  V30 1865 H 167.996 -0.196866 -0.641471 0
M  V30 1866 H 170.54 -1.18117 -1.66939 0
M  V30 1867 H 168.695 -0.0378619 -3.87381 0
M  V30 1868 H 169.109 -2.03174 -4.8355 0
M  V30 1869 H 170.583 -0.456388 -5.5011 0
M  V30 1870 H 171.06 0.765663 -4.32475 0
M  V30 1871 H 171.666 -0.898113 -4.15709 0
M  V30 1872 N 169.982 1.44106 -0.638065 0
M  V30 1873 C 171.231 2.01194 -0.142744 0
M  V30 1874 C 171.544 1.50835 1.24532 0
M  V30 1875 O 172.75 2.00096 1.83504 0
M  V30 1876 C 171.206 3.59319 -0.20442 0
M  V30 1877 C 170.814 4.18674 -1.59423 0
M  V30 1878 C 172.558 4.23854 0.234079 0
M  V30 1879 C 170.465 5.69045 -1.61065 0
M  V30 1880 H 169.395 0.752367 -0.0495998 0
M  V30 1881 H 172.046 1.65246 -0.797881 0
M  V30 1882 H 170.428 3.92598 0.517946 0
M  V30 1883 H 171.602 3.96921 -2.34074 0
M  V30 1884 H 169.917 3.66453 -1.97741 0
M  V30 1885 H 172.514 5.34155 0.241443 0
M  V30 1886 H 172.857 3.96688 1.2627 0
M  V30 1887 H 173.39 3.95403 -0.436025 0
M  V30 1888 H 170.129 6.00956 -2.61787 0
M  V30 1889 H 169.649 5.929 -0.90718 0
M  V30 1890 H 171.328 6.32809 -1.34766 0
M  V30 1891 N 171.46 0.379036 1.52974 0
M  V30 1892 C 172.392 -0.495963 2.2377 0
M  V30 1893 C 173.405 -1.03517 1.25651 0
M  V30 1894 O 174.594 -0.939249 1.51791 0
M  V30 1895 C 171.694 -1.69894 2.93239 0
M  V30 1896 C 170.867 -1.2889 4.17979 0
M  V30 1897 C 169.926 -2.35543 4.70538 0
M  V30 1898 O 168.952 -1.97375 5.33883 0
M  V30 1899 N 170.154 -3.67318 4.49508 0
M  V30 1900 H 172.919 0.110523 2.99496 0
M  V30 1901 H 170.48 0.204878 1.60598 0
M  V30 1902 H 172.472 -2.40747 3.25304 0
M  V30 1903 H 171.042 -2.212 2.20883 0
M  V30 1904 H 170.262 -0.409676 3.92065 0
M  V30 1905 H 171.55 -0.991443 4.99047 0
M  V30 1906 H 170.948 -4.01095 3.98923 0
M  V30 1907 H 169.505 -4.34235 4.8609 0
M  V30 1908 N 172.938 -1.57226 0.108567 0
M  V30 1909 C 174.354 -1.5766 -0.248058 0
M  V30 1910 C 174.554 -1.12063 -1.67464 0
M  V30 1911 O 173.61 -0.803236 -2.39383 0
M  V30 1912 C 174.923 -3.0069 -0.0242287 0
M  V30 1913 C 176.471 -3.12868 -0.0909372 0
M  V30 1914 C 176.946 -4.57879 0.105067 0
M  V30 1915 N 178.437 -4.63172 0.0506846 0
M  V30 1916 C 179.172 -5.73126 0.177396 0
M  V30 1917 N 178.668 -6.91866 0.359696 0
M  V30 1918 N 180.461 -5.61977 0.117709 0
M  V30 1919 H 172.612 -1.85169 1.04049 0
M  V30 1920 H 174.875 -0.85529 0.40888 0
M  V30 1921 H 174.581 -3.38299 0.961604 0
M  V30 1922 H 174.455 -3.6945 -0.76068 0
M  V30 1923 H 176.842 -2.75124 -1.06729 0
M  V30 1924 H 176.923 -2.46672 0.677225 0
M  V30 1925 H 176.567 -4.96321 1.07834 0
M  V30 1926 H 176.497 -5.22153 -0.682954 0
M  V30 1927 H 178.988 -3.778 -0.0871266 0
M  V30 1928 H 179.301 -7.71503 0.447529 0
M  V30 1929 H 177.646 -6.93874 0.395536 0
M  V30 1930 H 180.837 -4.68094 -0.0236741 0
M  V30 1931 H 181.01 -6.47627 0.219905 0
M  V30 1932 N 174.416 0.165178 -1.56732 0
M  V30 1933 C 175.348 1.22911 -1.93457 0
M  V30 1934 C 176.361 1.40152 -0.828333 0
M  V30 1935 O 177.55 1.40046 -1.10677 0
M  V30 1936 C 174.65 2.59686 -2.17753 0
M  V30 1937 C 173.823 2.63663 -3.48999 0
M  V30 1938 C 172.882 3.81845 -3.62051 0
M  V30 1939 O 171.908 3.67559 -4.34613 0
M  V30 1940 N 173.11 4.98557 -2.97357 0
M  V30 1941 H 175.875 0.917118 -2.85323 0
M  V30 1942 H 173.436 0.354895 -1.57962 0
M  V30 1943 H 175.428 3.37225 -2.23743 0
M  V30 1944 H 173.998 2.83251 -1.32242 0
M  V30 1945 H 173.218 1.72173 -3.54612 0
M  V30 1946 H 174.506 2.63336 -4.35352 0
M  V30 1947 H 173.904 5.13065 -2.38287 0
M  V30 1948 H 172.461 5.73936 -3.08934 0
M  V30 1949 N 175.894 1.51508 0.433938 0
M  V30 1950 C 177.124 1.67914 1.20369 0
M  V30 1951 C 177.532 0.377461 1.85397 0
M  V30 1952 O 176.875 -0.654255 1.71654 0
M  V30 1953 C 176.937 2.74045 2.32679 0
M  V30 1954 C 176.601 4.16543 1.87991 0
M  V30 1955 C 177.598 5.01211 1.38145 0
M  V30 1956 C 175.283 4.6266 1.95579 0
M  V30 1957 C 177.277 6.30056 0.964774 0
M  V30 1958 C 174.964 5.91501 1.53523 0
M  V30 1959 C 175.962 6.75027 1.04055 0
M  V30 1960 O 175.65 8.01459 0.625964 0
M  V30 1961 H 175.382 0.566578 0.368735 0
M  V30 1962 H 177.936 1.98709 0.51999 0
M  V30 1963 H 176.166 2.38572 3.04336 0
M  V30 1964 H 177.855 2.79295 2.94532 0
M  V30 1965 H 178.621 4.66783 1.31675 0
M  V30 1966 H 174.5 3.97767 2.33029 0
M  V30 1967 H 178.044 6.95202 0.57796 0
M  V30 1968 H 173.941 6.25442 1.59665 0
M  V30 1969 H 174.709 8.15043 0.751509 0
M  V30 1970 N 177.372 -0.689602 1.41712 0
M  V30 1971 C 178.619 -1.44966 1.4139 0
M  V30 1972 C 178.947 -1.94484 0.025105 0
M  V30 1973 O 178.202 -1.70307 -0.964048 0
M  V30 1974 C 178.501 -2.67298 2.37247 0
M  V30 1975 C 178.167 -2.36405 3.83958 0
M  V30 1976 C 176.829 -2.27691 4.23923 0
M  V30 1977 C 179.181 -2.11043 4.76561 0
M  V30 1978 C 176.509 -1.91719 5.54492 0
M  V30 1979 C 178.861 -1.76578 6.07456 0
M  V30 1980 C 177.525 -1.66363 6.46436 0
M  V30 1981 H 176.795 -0.53047 0.517381 0
M  V30 1982 H 179.442 -0.787655 1.74552 0
M  V30 1983 H 177.747 -3.38461 1.9736 0
M  V30 1984 H 179.444 -3.25452 2.34269 0
M  V30 1985 H 176.034 -2.44085 3.52308 0
M  V30 1986 H 180.218 -2.16717 4.46483 0
M  V30 1987 H 175.474 -1.82367 5.83568 0
M  V30 1988 H 179.648 -1.55974 6.78708 0
M  V30 1989 H 177.275 -1.38258 7.47522 0
M  V30 1990 N 178.85 -1.27639 -0.924453 0
M  V30 1991 C 180.261 -1.12834 -1.48746 0
M  V30 1992 C 180.612 0.285505 -1.94112 0
M  V30 1993 O 179.737 1.17874 -1.81479 0
M  V30 1994 C 180.332 -2.04217 -2.70334 0
M  V30 1995 C 178.891 -1.93509 -3.22848 0
M  V30 1996 C 178.038 -1.96583 -1.95577 0
M  V30 1997 H 180.989 -1.40484 -0.738233 0
M  V30 1998 H 181.01 -1.59989 -3.4523 0
M  V30 1999 H 180.522 -3.07111 -2.37285 0
M  V30 2000 H 178.623 -0.936131 -3.60649 0
M  V30 2001 H 178.736 -2.79917 -3.88823 0
M  V30 2002 H 177.1 -1.4085 -2.12211 0
M  V30 2003 H 177.883 -3.01137 -1.64837 0
M  V30 2004 N 180.328 1.1314 -1.09713 0
M  V30 2005 C 181.276 2.20717 -0.733934 0
M  V30 2006 C 182.27 1.6729 0.266506 0
M  V30 2007 O 183.476 1.79547 0.127656 0
M  V30 2008 H 179.851 0.719292 -0.21937 0
M  V30 2009 H 181.822 2.48611 -1.6503 0
M  V30 2010 C 180.571 3.47265 -0.173849 0
M  V30 2011 H 179.894 3.88716 -0.934873 0
M  V30 2012 H 181.334 4.23979 0.0423126 0
M  V30 2013 C 179.793 3.18724 1.09164 0
M  V30 2014 O 180.323 3.37762 2.17439 0
M  V30 2015 N 178.529 2.72583 1.00732 0
M  V30 2016 H 178.076 2.57291 0.126121 0
M  V30 2017 H 178.034 2.53862 1.85476 0
M  V30 2018 N 181.806 0.884767 1.30421 0
M  V30 2019 C 183.083 0.423185 1.90967 0
M  V30 2020 C 183.463 -1.09605 1.80416 0
M  V30 2021 O 182.811 -1.93126 1.22125 0
M  V30 2022 C 183.021 0.921056 3.36627 0
M  V30 2023 C 184.369 0.955903 4.137 0
M  V30 2024 O 185.393 0.867706 3.4547 0
M  V30 2025 O 184.252 1.08614 5.35598 0
M  V30 2026 H 181.346 0.129369 0.816819 0
M  V30 2027 H 183.892 0.973653 1.3899 0
M  V30 2028 H 182.664 1.96489 3.3839 0
M  V30 2029 H 182.287 0.349741 3.96059 0
M  V30 2030 N 183.284 -1.43765 0.645699 0
M  V30 2031 C 184.194 -2.34544 -0.0512957 0
M  V30 2032 C 185.21 -1.53455 -0.82022 0
M  V30 2033 O 186.386 -1.86133 -0.769176 0
M  V30 2034 C 183.451 -3.31636 -1.01087 0
M  V30 2035 C 182.512 -4.2863 -0.239712 0
M  V30 2036 C 181.745 -5.21084 -1.15358 0
M  V30 2037 O 181.968 -5.1779 -2.39269 0
M  V30 2038 O 180.902 -5.98593 -0.630038 0
M  V30 2039 H 184.728 -2.95624 0.695718 0
M  V30 2040 H 182.313 -1.43781 0.405882 0
M  V30 2041 H 184.195 -3.9136 -1.56254 0
M  V30 2042 H 182.87 -2.73069 -1.73824 0
M  V30 2043 H 181.777 -3.72408 0.355356 0
M  V30 2044 H 183.11 -4.90157 0.447936 0
M  V30 2045 N 184.763 -0.387143 -1.52771 0
M  V30 2046 C 186.04 0.253197 -1.93954 0
M  V30 2047 C 186.42 1.64545 -1.32243 0
M  V30 2048 O 185.768 2.23191 -0.489699 0
M  V30 2049 C 185.978 0.281722 -3.47861 0
M  V30 2050 C 187.326 0.511715 -4.21505 0
M  V30 2051 O 188.35 0.362023 -3.54356 0
M  V30 2052 O 187.209 0.804847 -5.40541 0
M  V30 2053 H 184.303 0.156845 -0.811991 0
M  V30 2054 H 186.849 -0.441494 -1.63856 0
M  V30 2055 H 185.621 -0.693571 -3.85104 0
M  V30 2056 H 185.244 1.02142 -3.84256 0
M  V30 2057 N 186.241 1.57166 -0.116904 0
M  V30 2058 C 187.173 2.12271 0.864507 0
M  V30 2059 C 188.186 1.06494 1.23138 0
M  V30 2060 O 189.375 1.33873 1.18069 0
M  V30 2061 C 186.475 2.60564 2.16702 0
M  V30 2062 C 185.648 3.90416 1.97216 0
M  V30 2063 C 184.707 4.24329 3.11178 0
M  V30 2064 O 183.733 4.93182 2.84184 0
M  V30 2065 N 184.935 3.8148 4.37554 0
M  V30 2066 H 187.7 2.97102 0.393726 0
M  V30 2067 H 185.261 1.61759 0.0675805 0
M  V30 2068 H 187.253 2.80282 2.91932 0
M  V30 2069 H 185.823 1.80623 2.55135 0
M  V30 2070 H 185.043 3.79627 1.06192 0
M  V30 2071 H 186.331 4.75327 1.81499 0
M  V30 2072 H 185.729 3.25943 4.62361 0
M  V30 2073 H 184.286 4.06311 5.09661 0
M  V30 2074 N 187.719 -0.156864 1.56817 0
M  V30 2075 C 188.965 -0.872416 1.83076 0
M  V30 2076 C 189.298 -1.81261 0.697001 0
M  V30 2077 O 188.573 -1.92171 -0.30008 0
M  V30 2078 C 188.856 -1.65551 3.19789 0
M  V30 2079 C 188.709 -0.737467 4.43713 0
M  V30 2080 C 190.028 -2.62012 3.53606 0
M  V30 2081 H 187.147 -0.315715 0.665953 0
M  V30 2082 H 189.789 -0.138004 1.89498 0
M  V30 2083 H 187.939 -2.28159 3.14445 0
M  V30 2084 H 189.611 -0.123143 4.61136 0
M  V30 2085 H 187.854 -0.0464067 4.33775 0
M  V30 2086 H 188.525 -1.32122 5.35955 0
M  V30 2087 H 191.001 -2.09525 3.59497 0
M  V30 2088 H 189.877 -3.13861 4.50314 0
M  V30 2089 H 190.138 -3.42902 2.79053 0
M  V30 2090 N 189.197 -1.51736 -0.425897 0
M  V30 2091 C 190.445 -1.64644 -1.17204 0
M  V30 2092 C 190.766 -0.370486 -1.91448 0
M  V30 2093 O 190.036 0.614088 -1.86026 0
M  V30 2094 H 188.616 -0.606819 -0.435638 0
M  V30 2095 H 191.278 -1.88713 -0.487177 0
M  V30 2096 H 190.374 -2.47958 -1.89534 0
M  V30 2097 N 190.675 0.682077 -1.42076 0
M  V30 2098 C 191.638 1.77756 -1.44691 0
M  V30 2099 C 192.638 1.5726 -0.335535 0
M  V30 2100 O 193.828 1.63686 -0.596037 0
M  V30 2101 C 190.96 3.16301 -1.27146 0
M  V30 2102 H 192.153 1.76826 -2.42224 0
M  V30 2103 H 189.706 0.891012 -1.28416 0
M  V30 2104 H 190.441 3.22862 -0.305075 0
M  V30 2105 H 190.226 3.32581 -2.07683 0
M  V30 2106 H 191.716 3.96241 -1.31843 0
M  V30 2107 N 192.153 1.28127 0.917671 0
M  V30 2108 C 193.116 1.11744 2.00115 0
M  V30 2109 C 194.116 0.0583052 1.60694 0
M  V30 2110 O 195.306 0.303755 1.71531 0
M  V30 2111 C 192.438 0.704862 3.33533 0
M  V30 2112 H 193.631 2.07966 2.16079 0
M  V30 2113 H 191.184 1.11058 1.09981 0
M  V30 2114 H 191.919 -0.258299 3.2327 0
M  V30 2115 H 191.704 1.4699 3.63505 0
M  V30 2116 H 193.194 0.612768 4.1308 0
M  V30 2117 N 193.631 -1.12557 1.10312 0
M  V30 2118 C 194.578 -2.18247 0.750781 0
M  V30 2119 C 195.548 -1.63853 -0.272293 0
M  V30 2120 O 196.733 -1.90195 -0.151862 0
M  V30 2121 C 193.873 -3.44591 0.187379 0
M  V30 2122 C 192.986 -4.13046 1.2656 0
M  V30 2123 C 192.121 -5.27034 0.663978 0
M  V30 2124 C 191.16 -5.87353 1.72287 0
M  V30 2125 N 190.297 -6.92757 1.1416 0
M  V30 2126 H 195.137 -2.47732 1.65628 0
M  V30 2127 H 192.674 -1.21629 0.827337 0
M  V30 2128 H 194.632 -4.16904 -0.157148 0
M  V30 2129 H 193.262 -3.15527 -0.681355 0
M  V30 2130 H 192.314 -3.38924 1.72727 0
M  V30 2131 H 193.626 -4.53947 2.06721 0
M  V30 2132 H 192.78 -6.06104 0.268824 0
M  V30 2133 H 191.519 -4.87407 -0.169082 0
M  V30 2134 H 190.524 -5.06971 2.12746 0
M  V30 2135 H 191.749 -6.29051 2.55875 0
M  V30 2136 H 189.695 -6.5517 0.329984 0
M  V30 2137 H 189.612 -7.3225 1.88007 0
M  V30 2138 H 190.88 -7.75658 0.772956 0
M  V30 2139 N 195.109 -0.891671 -1.2995 0
M  V30 2140 C 196.072 -0.36828 -2.26222 0
M  V30 2141 C 197.072 0.493014 -1.53056 0
M  V30 2142 O 198.262 0.299213 -1.71611 0
M  V30 2143 C 195.394 0.47442 -3.37583 0
M  V30 2144 H 196.587 -1.21844 -2.74033 0
M  V30 2145 H 194.14 -0.669107 -1.41254 0
M  V30 2146 H 194.875 1.34489 -2.95099 0
M  V30 2147 H 194.66 -0.142615 -3.91841 0
M  V30 2148 H 196.15 0.83218 -4.09224 0
M  V30 2149 N 196.587 1.43421 -0.653314 0
M  V30 2150 C 197.517 2.33487 0.0246656 0
M  V30 2151 C 198.498 1.49475 0.811863 0
M  V30 2152 O 199.683 1.78139 0.773322 0
M  V30 2153 C 196.813 3.32841 0.99166 0
M  V30 2154 C 195.767 4.26842 0.314568 0
M  V30 2155 C 195.093 5.16236 1.39302 0
M  V30 2156 C 196.393 5.16243 -0.793095 0
M  V30 2157 H 198.087 2.90427 -0.727481 0
M  V30 2158 H 195.633 1.39649 -0.351287 0
M  V30 2159 H 197.586 3.94747 1.47487 0
M  V30 2160 H 196.31 2.74158 1.77497 0
M  V30 2161 H 194.969 3.663 -0.148199 0
M  V30 2162 H 194.617 4.53891 2.16776 0
M  V30 2163 H 194.317 5.79948 0.945223 0
M  V30 2164 H 195.841 5.81015 1.87759 0
M  V30 2165 H 197.255 5.71958 -0.392039 0
M  V30 2166 H 195.652 5.88676 -1.16536 0
M  V30 2167 H 196.722 4.55927 -1.65103 0
M  V30 2168 N 198.065 0.39524 1.52563 0
M  V30 2169 C 198.995 -0.428384 2.29537 0
M  V30 2170 C 199.976 -1.05831 1.33169 0
M  V30 2171 O 201.161 -1.06995 1.62067 0
M  V30 2172 C 198.291 -1.55274 3.10656 0
M  V30 2173 C 197.245 -1.04855 4.14957 0
M  V30 2174 C 196.571 -2.26543 4.84337 0
M  V30 2175 C 197.871 -0.112324 5.22179 0
M  V30 2176 H 199.565 0.213867 2.98635 0
M  V30 2177 H 197.111 0.104298 1.43622 0
M  V30 2178 H 199.064 -2.1358 3.63265 0
M  V30 2179 H 197.788 -2.22266 2.39302 0
M  V30 2180 H 196.447 -0.487985 3.63338 0
M  V30 2181 H 196.095 -2.92059 4.09525 0
M  V30 2182 H 195.795 -1.93466 5.54837 0
M  V30 2183 H 197.319 -2.85481 5.39753 0
M  V30 2184 H 198.733 -0.603752 5.70112 0
M  V30 2185 H 197.13 0.128968 5.99961 0
M  V30 2186 H 198.2 0.837052 4.77621 0
M  V30 2187 N 199.544 -1.57102 0.125237 0
M  V30 2188 C 200.96 -1.57915 -0.231322 0
M  V30 2189 C 201.16 -1.13833 -1.66266 0
M  V30 2190 O 200.216 -0.828581 -2.38518 0
M  V30 2191 C 201.529 -3.00699 0.00766489 0
M  V30 2192 C 203.077 -3.12947 -0.0577483 0
M  V30 2193 C 203.552 -4.57742 0.153626 0
M  V30 2194 N 205.043 -4.63092 0.0998073 0
M  V30 2195 C 205.778 -5.72905 0.238174 0
M  V30 2196 N 205.274 -6.91445 0.433057 0
M  V30 2197 N 207.067 -5.6182 0.177308 0
M  V30 2198 H 199.218 -1.84055 1.06007 0
M  V30 2199 H 201.481 -0.850905 0.417929 0
M  V30 2200 H 201.187 -3.3726 0.997431 0
M  V30 2201 H 201.061 -3.70236 -0.721452 0
M  V30 2202 H 203.448 -2.7624 -1.03804 0
M  V30 2203 H 203.529 -2.4594 0.70335 0
M  V30 2204 H 203.173 -4.95149 1.13092 0
M  V30 2205 H 203.103 -5.22848 -0.627534 0
M  V30 2206 H 205.594 -3.77871 -0.047051 0
M  V30 2207 H 205.907 -7.70985 0.529332 0
M  V30 2208 H 204.252 -6.93415 0.469109 0
M  V30 2209 H 207.443 -4.68093 0.0259748 0
M  V30 2210 H 207.616 -6.47357 0.288582 0
M  V30 2211 N 201.022 0.148545 -1.56898 0
M  V30 2212 C 201.952 1.18524 -2.01182 0
M  V30 2213 C 202.933 1.4489 -0.891123 0
M  V30 2214 O 204.118 1.55836 -1.15882 0
M  V30 2215 C 201.248 2.51879 -2.39112 0
M  V30 2216 C 200.202 2.40038 -3.54353 0
M  V30 2217 C 199.528 3.78089 -3.78091 0
M  V30 2218 C 200.828 1.88577 -4.87069 0
M  V30 2219 H 202.522 0.817029 -2.88036 0
M  V30 2220 H 200.068 0.391575 -1.38574 0
M  V30 2221 H 202.021 3.24627 -2.68692 0
M  V30 2222 H 200.745 2.90532 -1.49193 0
M  V30 2223 H 199.404 1.69742 -3.24936 0
M  V30 2224 H 199.052 4.14175 -2.85426 0
M  V30 2225 H 198.752 3.71028 -4.55645 0
M  V30 2226 H 200.276 4.52387 -4.10095 0
M  V30 2227 H 201.69 2.51117 -5.15377 0
M  V30 2228 H 200.087 1.9241 -5.68417 0
M  V30 2229 H 201.157 0.84136 -4.77545 0
M  V30 2230 N 202.5 1.5196 0.417844 0
M  V30 2231 C 203.432 1.70895 1.52733 0
M  V30 2232 C 204.445 0.589405 1.51756 0
M  V30 2233 O 205.634 0.864312 1.56179 0
M  V30 2234 C 202.734 1.72627 2.91639 0
M  V30 2235 C 201.907 3.01479 3.16905 0
M  V30 2236 C 200.966 2.95139 4.35637 0
M  V30 2237 O 199.992 3.69059 4.3334 0
M  V30 2238 N 201.194 2.12328 5.40275 0
M  V30 2239 H 203.959 2.66612 1.36888 0
M  V30 2240 H 201.52 1.50089 0.607037 0
M  V30 2241 H 203.512 1.65928 3.6912 0
M  V30 2242 H 202.082 0.844216 3.00985 0
M  V30 2243 H 201.302 3.21895 2.27546 0
M  V30 2244 H 202.59 3.86736 3.30625 0
M  V30 2245 H 201.988 1.51685 5.44985 0
M  V30 2246 H 200.545 2.11494 6.16534 0
M  V30 2247 N 203.978 -0.674533 1.42435 0
M  V30 2248 C 205.255 -1.4305 1.33402 0
M  V30 2249 C 205.635 -2.11081 -0.0284674 0
M  V30 2250 O 204.983 -2.03257 -1.04397 0
M  V30 2251 C 205.193 -2.43272 2.50239 0
M  V30 2252 C 206.541 -3.07907 2.92367 0
M  V30 2253 O 207.565 -2.53599 2.50132 0
M  V30 2254 O 206.424 -4.0632 3.65467 0
M  V30 2255 H 203.518 -0.638076 0.526106 0
M  V30 2256 H 206.064 -0.703235 1.54443 0
M  V30 2257 H 204.836 -1.91803 3.41068 0
M  V30 2258 H 204.459 -3.23479 2.31186 0
M  V30 2259 N 205.456 -1.28612 -0.910864 0
M  V30 2260 C 206.684 -1.18792 -1.69399 0
M  V30 2261 C 207.099 0.253039 -1.87097 0
M  V30 2262 O 206.456 1.17071 -1.40003 0
M  V30 2263 C 206.507 -1.88511 -3.08457 0
M  V30 2264 O 206.228 -3.26979 -2.91576 0
M  V30 2265 C 207.729 -1.85029 -4.02839 0
M  V30 2266 H 204.949 -0.412233 -0.529438 0
M  V30 2267 H 207.493 -1.69788 -1.13984 0
M  V30 2268 H 205.648 -1.41379 -3.60681 0
M  V30 2269 H 206.062 -3.61936 -3.79608 0
M  V30 2270 H 207.536 -2.38395 -4.97867 0
M  V30 2271 H 208.013 -0.823303 -4.31414 0
M  V30 2272 H 208.619 -2.31853 -3.56545 0
M  V30 2273 N 206.934 1.1197 -1.10907 0
M  V30 2274 C 208.164 1.8713 -0.875553 0
M  V30 2275 C 208.572 1.8016 0.577843 0
M  V30 2276 O 207.915 1.17699 1.41042 0
M  V30 2277 C 207.977 3.37005 -1.2517 0
M  V30 2278 C 207.641 3.67748 -2.71313 0
M  V30 2279 C 208.638 3.65698 -3.69542 0
M  V30 2280 C 206.323 3.96928 -3.07821 0
M  V30 2281 C 208.317 3.92395 -5.023 0
M  V30 2282 C 206.004 4.23284 -4.40765 0
M  V30 2283 C 207.002 4.21005 -5.37814 0
M  V30 2284 O 206.69 4.46704 -6.68364 0
M  V30 2285 H 206.422 0.598786 -0.313737 0
M  V30 2286 H 208.976 1.42568 -1.47863 0
M  V30 2287 H 207.206 3.82146 -0.591741 0
M  V30 2288 H 208.895 3.93519 -0.994877 0
M  V30 2289 H 209.661 3.43211 -3.42682 0
M  V30 2290 H 205.54 3.97841 -2.32902 0
M  V30 2291 H 209.084 3.90531 -5.78041 0
M  V30 2292 H 204.981 4.45246 -4.67361 0
M  V30 2293 H 205.749 4.64299 -6.74069 0
M  V30 2294 N 208.412 0.89855 1.29475 0
M  V30 2295 C 209.36 0.365253 2.29714 0
M  V30 2296 C 210.354 -0.534993 1.6073 0
M  V30 2297 O 211.56 -0.417921 1.75081 0
M  V30 2298 H 207.935 0.0994853 0.74539 0
M  V30 2299 H 209.906 1.22406 2.72138 0
M  V30 2300 C 208.655 -0.393159 3.4547 0
M  V30 2301 H 207.978 0.290332 3.98744 0
M  V30 2302 H 209.418 -0.731189 4.17648 0
M  V30 2303 C 207.877 -1.59539 2.9673 0
M  V30 2304 O 208.407 -2.69469 2.97908 0
M  V30 2305 N 206.613 -1.43716 2.52575 0
M  V30 2306 H 206.16 -0.542828 2.51816 0
M  V30 2307 H 206.118 -2.24288 2.20323 0
M  V30 2308 N 209.89 -1.43072 0.660911 0
M  V30 2309 C 210.82 -2.33497 -0.0122829 0
M  V30 2310 C 211.801 -1.49903 -0.803925 0
M  V30 2311 O 212.986 -1.78546 -0.763864 0
M  V30 2312 C 210.116 -3.33363 -0.973994 0
M  V30 2313 C 209.07 -4.27003 -0.291928 0
M  V30 2314 C 208.396 -5.16967 -1.36562 0
M  V30 2315 C 209.696 -5.15816 0.820462 0
M  V30 2316 H 211.39 -2.90038 0.742873 0
M  V30 2317 H 208.936 -1.39461 0.358688 0
M  V30 2318 H 210.889 -3.95524 -1.45392 0
M  V30 2319 H 209.613 -2.75095 -1.7604 0
M  V30 2320 H 208.272 -3.66217 0.167623 0
M  V30 2321 H 207.92 -4.55034 -2.14366 0
M  V30 2322 H 207.62 -5.80441 -0.914454 0
M  V30 2323 H 209.144 -5.82003 -1.84675 0
M  V30 2324 H 210.558 -5.71742 0.422366 0
M  V30 2325 H 208.955 -5.8805 1.19656 0
M  V30 2326 H 210.025 -4.55045 1.67518 0
M  V30 2327 N 211.368 -0.403325 -1.52352 0
M  V30 2328 C 212.645 0.232611 -1.94212 0
M  V30 2329 C 213.025 1.63133 -1.33981 0
M  V30 2330 O 212.373 2.22659 -0.513344 0
M  V30 2331 C 212.583 0.244811 -3.4814 0
M  V30 2332 C 213.931 0.46698 -4.22024 0
M  V30 2333 O 214.955 0.324419 -3.5472 0
M  V30 2334 O 213.814 0.74747 -5.41364 0
M  V30 2335 H 210.908 0.148223 -0.813609 0
M  V30 2336 H 213.454 -0.458848 -1.63379 0
M  V30 2337 H 212.226 -0.734378 -3.84347 0
M  V30 2338 H 211.849 0.980611 -3.85318 0
M  V30 2339 N 212.846 1.57033 -0.133567 0
M  V30 2340 C 214.074 2.00044 0.528195 0
M  V30 2341 C 214.489 1.01349 1.59291 0
M  V30 2342 O 213.846 0.00848369 1.82498 0
M  V30 2343 C 213.897 3.43018 1.1411 0
M  V30 2344 O 213.618 4.37939 0.11892 0
M  V30 2345 C 215.119 4.01237 1.88477 0
M  V30 2346 H 212.339 0.656517 0.138661 0
M  V30 2347 H 214.883 2.03267 -0.224196 0
M  V30 2348 H 213.038 3.40688 1.84418 0
M  V30 2349 H 213.452 5.21436 0.56613 0
M  V30 2350 H 214.926 5.03314 2.26669 0
M  V30 2351 H 215.403 3.41193 2.76558 0
M  V30 2352 H 216.009 4.07156 1.22898 0
M  V30 2353 N 214.325 -0.140222 1.56975 0
M  V30 2354 C 215.602 -0.880769 1.74648 0
M  V30 2355 C 215.982 -1.99036 0.703404 0
M  V30 2356 O 215.33 -2.26821 -0.27648 0
M  V30 2357 C 215.54 -1.417 3.18939 0
M  V30 2358 C 216.888 -1.87774 3.80823 0
M  V30 2359 O 217.912 -1.51427 3.2241 0
M  V30 2360 O 216.771 -2.54827 4.83452 0
M  V30 2361 H 213.865 -0.416713 0.714338 0
M  V30 2362 H 216.411 -0.125618 1.69234 0
M  V30 2363 H 215.183 -0.619902 3.86359 0
M  V30 2364 H 214.806 -2.23546 3.28805 0
M  V30 2365 N 215.803 -1.52179 -0.40978 0
M  V30 2366 C 217.031 -1.70054 -1.17853 0
M  V30 2367 C 217.446 -0.409735 -1.843 0
M  V30 2368 O 216.803 0.614183 -1.71855 0
M  V30 2369 C 216.854 -2.83568 -2.24213 0
M  V30 2370 O 216.575 -4.0765 -1.60478 0
M  V30 2371 C 218.076 -3.12947 -3.13973 0
M  V30 2372 H 215.296 -0.569917 -0.354169 0
M  V30 2373 H 217.84 -1.98734 -0.482198 0
M  V30 2374 H 215.995 -2.57409 -2.89516 0
M  V30 2375 H 216.409 -4.70899 -2.30986 0
M  V30 2376 H 217.883 -3.95889 -3.84677 0
M  V30 2377 H 218.36 -2.26472 -3.76307 0
M  V30 2378 H 218.966 -3.40868 -2.5434 0
M  V30 2379 N 217.281 0.66697 -1.42791 0
M  V30 2380 C 218.53 1.42278 -1.42968 0
M  V30 2381 C 218.843 1.9553 -0.0524489 0
M  V30 2382 O 220.049 2.71414 0.068363 0
M  V30 2383 C 218.505 2.57418 -2.51524 0
M  V30 2384 C 218.113 2.10832 -3.9529 0
M  V30 2385 C 219.857 3.34878 -2.60877 0
M  V30 2386 C 217.764 3.23101 -4.95338 0
M  V30 2387 H 216.694 0.534533 -0.531781 0
M  V30 2388 H 219.345 0.721302 -1.68729 0
M  V30 2389 H 217.727 3.29971 -2.18941 0
M  V30 2390 H 218.901 1.4538 -4.37266 0
M  V30 2391 H 217.216 1.46289 -3.89857 0
M  V30 2392 H 219.813 4.18505 -3.32802 0
M  V30 2393 H 220.156 3.81993 -1.6549 0
M  V30 2394 H 220.689 2.69398 -2.92693 0
M  V30 2395 H 217.428 2.80969 -5.9223 0
M  V30 2396 H 216.948 3.87309 -4.57987 0
M  V30 2397 H 218.627 3.88447 -5.17415 0
M  V30 2398 N 218.759 1.29093 0.90403 0
M  V30 2399 C 219.984 1.19809 1.69294 0
M  V30 2400 C 220.409 -0.238481 1.86582 0
M  V30 2401 O 219.767 -1.1723 1.383 0
M  V30 2402 C 219.815 1.91202 3.05736 0
M  V30 2403 O 218.919 1.22611 3.93752 0
M  V30 2404 H 218.26 0.415385 0.518027 0
M  V30 2405 H 220.79 1.70586 1.12967 0
M  V30 2406 H 220.8 1.99487 3.55906 0
M  V30 2407 H 219.475 2.95692 2.92471 0
M  V30 2408 H 218.052 1.22554 3.52186 0
M  V30 2409 N 220.237 -1.11381 1.11499 0
M  V30 2410 C 221.184 -2.17439 0.773887 0
M  V30 2411 C 222.154 -1.64132 -0.254899 0
M  V30 2412 O 223.339 -1.90345 -0.13168 0
M  V30 2413 C 220.479 -3.44373 0.223917 0
M  V30 2414 C 219.592 -4.1168 1.30934 0
M  V30 2415 C 218.727 -5.263 0.71984 0
M  V30 2416 C 217.766 -5.85493 1.78507 0
M  V30 2417 N 216.903 -6.91507 1.21502 0
M  V30 2418 H 221.743 -2.45962 1.68246 0
M  V30 2419 H 219.28 -1.20744 0.840191 0
M  V30 2420 H 221.238 -4.17047 -0.112921 0
M  V30 2421 H 219.868 -3.16232 -0.647851 0
M  V30 2422 H 218.92 -3.37073 1.76312 0
M  V30 2423 H 220.232 -4.51729 2.11524 0
M  V30 2424 H 219.386 -6.05785 0.333094 0
M  V30 2425 H 218.125 -4.87559 -0.117377 0
M  V30 2426 H 217.13 -5.04686 2.18111 0
M  V30 2427 H 218.355 -6.26301 2.62533 0
M  V30 2428 H 216.301 -6.54783 0.399455 0
M  V30 2429 H 216.218 -7.30214 1.95763 0
M  V30 2430 H 217.486 -7.74795 0.855181 0
M  V30 2431 N 221.715 -0.905404 -1.28997 0
M  V30 2432 C 222.963 -0.533192 -1.9494 0
M  V30 2433 C 223.284 0.924618 -1.71685 0
M  V30 2434 O 222.554 1.65268 -1.05183 0
M  V30 2435 H 221.134 -0.194194 -0.721317 0
M  V30 2436 H 223.796 -1.15294 -1.57141 0
M  V30 2437 H 222.892 -0.72059 -3.03667 0
M  V30 2438 N 223.193 1.4272 -0.668489 0
M  V30 2439 C 224.141 2.32586 0.0254857 0
M  V30 2440 C 225.135 1.49471 0.797176 0
M  V30 2441 O 226.341 1.65583 0.705853 0
M  V30 2442 H 222.716 0.751514 0.0270339 0
M  V30 2443 H 224.687 2.88823 -0.749936 0
M  V30 2444 C 223.436 3.3397 0.967427 0
M  V30 2445 H 222.759 3.97961 0.383048 0
M  V30 2446 H 224.199 3.9945 1.42181 0
M  V30 2447 C 222.658 2.65744 2.0708 0
M  V30 2448 O 223.188 2.48454 3.15648 0
M  V30 2449 N 221.394 2.2487 1.8407 0
M  V30 2450 H 220.941 2.39132 0.95778 0
M  V30 2451 H 220.899 1.79552 2.58086 0
M  V30 2452 N 224.671 0.411399 1.52136 0
M  V30 2453 C 225.601 -0.404015 2.29978 0
M  V30 2454 C 226.582 -1.04412 1.34284 0
M  V30 2455 O 227.767 -1.0527 1.63192 0
M  V30 2456 C 224.897 -1.5197 3.12286 0
M  V30 2457 C 223.851 -1.00448 4.16046 0
M  V30 2458 C 223.177 -2.21393 4.86712 0
M  V30 2459 C 224.477 -0.0569336 5.22269 0
M  V30 2460 H 226.171 0.245529 2.98392 0
M  V30 2461 H 223.717 0.119525 1.43503 0
M  V30 2462 H 225.67 -2.09715 3.6551 0
M  V30 2463 H 224.394 -2.19716 2.41646 0
M  V30 2464 H 223.053 -0.449421 3.63835 0
M  V30 2465 H 222.701 -2.87699 4.12599 0
M  V30 2466 H 222.401 -1.87571 5.56858 0
M  V30 2467 H 223.925 -2.7974 5.4275 0
M  V30 2468 H 225.339 -0.54325 5.7072 0
M  V30 2469 H 223.736 0.192594 5.99791 0
M  V30 2470 H 224.806 0.887663 4.76706 0
M  V30 2471 N 226.149 -1.5696 0.141893 0
M  V30 2472 C 227.56 -1.82797 -0.379776 0
M  V30 2473 C 227.911 -1.06033 -1.6508 0
M  V30 2474 O 227.036 -0.304011 -2.14254 0
M  V30 2475 C 227.631 -3.31578 -0.695802 0
M  V30 2476 C 226.19 -3.58014 -1.16201 0
M  V30 2477 C 225.337 -2.76699 -0.182455 0
M  V30 2478 H 228.288 -1.54406 0.366675 0
M  V30 2479 H 228.309 -3.47454 -1.55099 0
M  V30 2480 H 227.821 -3.87421 0.229449 0
M  V30 2481 H 225.922 -3.07553 -2.10338 0
M  V30 2482 H 226.035 -4.66501 -1.09151 0
M  V30 2483 H 224.399 -2.45618 -0.674072 0
M  V30 2484 H 225.182 -3.35311 0.736297 0
M  V30 2485 N 227.627 0.131896 -1.57047 0
M  V30 2486 C 228.875 0.840269 -1.83804 0
M  V30 2487 C 229.196 1.81017 -0.72512 0
M  V30 2488 O 228.466 1.94272 0.251995 0
M  V30 2489 H 227.046 0.313294 -0.678127 0
M  V30 2490 H 229.708 0.122294 -1.94516 0
M  V30 2491 H 228.804 1.39335 -2.79271 0
M  V30 2492 N 229.106 1.52395 0.401703 0
M  V30 2493 C 230.352 1.67065 1.14966 0
M  V30 2494 C 230.685 0.403052 1.89971 0
M  V30 2495 O 229.96 -0.598774 1.85054 0
M  V30 2496 C 230.243 2.8975 2.13815 0
M  V30 2497 C 230.096 4.26578 1.42658 0
M  V30 2498 C 231.415 3.07965 3.14397 0
M  V30 2499 H 228.534 0.607968 0.416587 0
M  V30 2500 H 231.176 1.84965 0.434511 0
M  V30 2501 H 229.326 2.74619 2.74803 0
M  V30 2502 H 230.998 4.53451 0.847329 0
M  V30 2503 H 229.241 4.27639 0.72849 0
M  V30 2504 H 229.912 5.08483 2.14823 0
M  V30 2505 H 232.388 3.22043 2.63491 0
M  V30 2506 H 231.264 3.95308 3.80819 0
M  V30 2507 H 231.525 2.21611 3.82545 0
M  V30 2508 N 230.584 -0.659388 1.43143 0
M  V30 2509 C 231.531 -1.77249 1.47822 0
M  V30 2510 C 232.501 -1.62818 0.328558 0
M  V30 2511 O 233.686 -1.83151 0.534838 0
M  V30 2512 C 230.826 -3.15371 1.40126 0
M  V30 2513 C 229.939 -3.4098 2.65249 0
M  V30 2514 C 229.074 -4.68915 2.49584 0
M  V30 2515 C 228.113 -4.87608 3.70006 0
M  V30 2516 N 227.25 -6.06796 3.53189 0
M  V30 2517 H 232.09 -1.72584 2.42938 0
M  V30 2518 H 229.627 -0.842297 1.20598 0
M  V30 2519 H 231.585 -3.9521 1.33659 0
M  V30 2520 H 230.215 -3.19121 0.485964 0
M  V30 2521 H 229.267 -2.55282 2.8202 0
M  V30 2522 H 230.579 -3.50681 3.54717 0
M  V30 2523 H 229.733 -5.56871 2.4079 0
M  V30 2524 H 228.472 -4.61524 1.5763 0
M  V30 2525 H 227.477 -3.9809 3.79215 0
M  V30 2526 H 228.702 -4.96834 4.62961 0
M  V30 2527 H 226.648 -6.00549 2.63965 0
M  V30 2528 H 226.565 -6.17428 4.36255 0
M  V30 2529 H 227.833 -6.9739 3.48236 0
M  V30 2530 N 232.062 -1.29571 -0.897171 0
M  V30 2531 C 233.012 -1.11539 -1.98855 0
M  V30 2532 C 233.996 -0.0340716 -1.60864 0
M  V30 2533 O 235.188 -0.256062 -1.75138 0
M  V30 2534 C 232.317 -0.796603 -3.3393 0
M  V30 2535 C 231.403 -1.91758 -3.78272 0
M  V30 2536 N 231.794 -3.16143 -3.94826 0
M  V30 2537 C 230.092 -1.81119 -4.07568 0
M  V30 2538 C 230.793 -3.89293 -4.32233 0
M  V30 2539 N 229.769 -3.17255 -4.41419 0
M  V30 2540 H 233.571 -2.05894 -2.09726 0
M  V30 2541 H 231.085 -1.20732 -1.08616 0
M  V30 2542 H 233.082 -0.648459 -4.11826 0
M  V30 2543 H 231.742 0.139003 -3.24402 0
M  V30 2544 H 232.753 -3.5157 -3.80288 0
M  V30 2545 H 229.43 -0.948461 -4.06584 0
M  V30 2546 H 230.82 -4.9635 -4.52865 0
M  V30 2547 N 233.54 1.10788 -1.12088 0
M  V30 2548 C 234.487 2.17025 -0.785407 0
M  V30 2549 C 235.457 1.64265 0.246191 0
M  V30 2550 O 236.642 1.90412 0.121584 0
M  V30 2551 C 233.782 3.44249 -0.242177 0
M  V30 2552 C 232.895 4.1098 -1.33115 0
M  V30 2553 C 232.03 5.25911 -0.747741 0
M  V30 2554 C 231.069 5.84538 -1.81609 0
M  V30 2555 N 230.206 6.90853 -1.25167 0
M  V30 2556 H 235.046 2.45066 -1.69548 0
M  V30 2557 H 232.583 1.20297 -0.846582 0
M  V30 2558 H 234.541 4.17101 0.0908026 0
M  V30 2559 H 233.171 3.16571 0.631072 0
M  V30 2560 H 232.223 3.36133 -1.78097 0
M  V30 2561 H 233.535 4.50601 -2.13917 0
M  V30 2562 H 232.689 6.056 -0.365216 0
M  V30 2563 H 231.428 4.87614 0.0915188 0
M  V30 2564 H 230.433 5.03522 -2.20785 0
M  V30 2565 H 231.658 6.249 -2.6585 0
M  V30 2566 H 229.604 6.54562 -0.434174 0
M  V30 2567 H 229.521 7.29166 -1.99633 0
M  V30 2568 H 230.789 7.7433 -0.896259 0
M  V30 2569 N 235.018 0.912232 1.28515 0
M  V30 2570 C 236.243 0.559774 1.99703 0
M  V30 2571 C 236.668 -0.851393 1.67729 0
M  V30 2572 O 236.026 -1.56875 0.908834 0
M  V30 2573 C 236.074 0.773874 3.52198 0
M  V30 2574 O 235.178 -0.167842 4.12058 0
M  V30 2575 H 234.519 0.21723 0.627461 0
M  V30 2576 H 237.049 1.22725 1.63706 0
M  V30 2577 H 237.059 0.683386 4.02236 0
M  V30 2578 H 235.734 1.80261 3.74805 0
M  V30 2579 H 234.311 -0.0287509 3.72889 0
M  V30 2580 N 236.496 -1.42363 0.676048 0
M  V30 2581 C 237.743 -2.01522 0.19883 0
M  V30 2582 C 238.071 -1.53456 -1.19505 0
M  V30 2583 O 237.326 -0.727967 -1.81657 0
M  V30 2584 C 237.625 -3.56929 0.183431 0
M  V30 2585 C 237.291 -4.24431 1.52215 0
M  V30 2586 C 235.953 -4.42585 1.8887 0
M  V30 2587 C 238.305 -4.62459 2.40377 0
M  V30 2588 C 235.633 -4.96039 3.13309 0
M  V30 2589 C 237.985 -5.17294 3.64129 0
M  V30 2590 C 236.649 -5.33661 4.00951 0
M  V30 2591 H 235.919 -0.737419 0.0727571 0
M  V30 2592 H 238.566 -1.70531 0.871281 0
M  V30 2593 H 236.871 -3.87594 -0.572532 0
M  V30 2594 H 238.568 -4.00486 -0.203035 0
M  V30 2595 H 235.158 -4.10661 1.22701 0
M  V30 2596 H 239.342 -4.48105 2.13343 0
M  V30 2597 H 234.598 -5.06896 3.41857 0
M  V30 2598 H 238.772 -5.45704 4.32644 0
M  V30 2599 H 236.399 -5.74845 4.9745 0
M  V30 2600 N 237.974 -0.419461 -1.51915 0
M  V30 2601 C 238.904 0.391813 -2.30189 0
M  V30 2602 C 239.885 1.03699 -1.34836 0
M  V30 2603 O 241.07 1.04403 -1.63748 0
M  V30 2604 C 238.2 1.50312 -3.13087 0
M  V30 2605 C 237.154 0.9824 -4.16573 0
M  V30 2606 C 236.48 2.18809 -4.8788 0
M  V30 2607 C 237.78 0.0292356 -5.22292 0
M  V30 2608 H 239.474 -0.26135 -2.98257 0
M  V30 2609 H 237.02 -0.127134 -1.43438 0
M  V30 2610 H 238.973 2.07773 -3.66617 0
M  V30 2611 H 237.697 2.18431 -2.42807 0
M  V30 2612 H 236.356 0.430119 -3.64068 0
M  V30 2613 H 236.004 2.85507 -4.14119 0
M  V30 2614 H 235.704 1.84615 -5.57845 0
M  V30 2615 H 237.228 2.76858 -5.44226 0
M  V30 2616 H 238.642 0.512976 -5.71 0
M  V30 2617 H 237.039 -0.2244 -5.9968 0
M  V30 2618 H 238.109 -0.912931 -4.76228 0
M  V30 2619 N 239.452 1.56882 -0.150215 0
M  V30 2620 C 240.68 2.00593 0.506948 0
M  V30 2621 C 241.095 1.03033 1.58208 0
M  V30 2622 O 240.452 0.0278396 1.82479 0
M  V30 2623 C 240.503 3.44209 1.10465 0
M  V30 2624 O 240.224 4.3804 0.0724636 0
M  V30 2625 C 241.725 4.03214 1.84211 0
M  V30 2626 H 238.945 0.65795 0.13169 0
M  V30 2627 H 241.489 2.03018 -0.245743 0
M  V30 2628 H 239.644 3.42625 1.80795 0
M  V30 2629 H 240.058 5.22007 0.510793 0
M  V30 2630 H 241.532 5.0569 2.21318 0
M  V30 2631 H 242.009 3.44107 2.72923 0
M  V30 2632 H 242.615 4.08437 1.18572 0
M  V30 2633 N 240.93 -0.123565 1.57115 0
M  V30 2634 C 241.893 -1.13583 1.99076 0
M  V30 2635 C 242.893 -1.34564 0.880296 0
M  V30 2636 O 244.083 -1.31158 1.14644 0
M  V30 2637 C 241.215 -2.49128 2.32698 0
M  V30 2638 H 242.408 -0.775287 2.89706 0
M  V30 2639 H 239.961 -0.36771 1.51913 0
M  V30 2640 H 240.696 -2.90111 1.44934 0
M  V30 2641 H 240.481 -2.35255 3.13684 0
M  V30 2642 H 241.971 -3.2199 2.65918 0
M  V30 2643 N 242.408 -1.52605 -0.393616 0
M  V30 2644 C 243.318 -1.79971 -1.50492 0
M  V30 2645 C 244.334 -0.686181 -1.59899 0
M  V30 2646 O 245.51 -0.973274 -1.76322 0
M  V30 2647 C 242.575 -1.95867 -2.86072 0
M  V30 2648 C 241.636 -3.19781 -2.86424 0
M  V30 2649 C 240.869 -3.34909 -4.15538 0
M  V30 2650 O 241.092 -2.54948 -5.10253 0
M  V30 2651 O 240.026 -4.28141 -4.23059 0
M  V30 2652 H 243.852 -2.74328 -1.30299 0
M  V30 2653 H 241.437 -1.3764 -0.581005 0
M  V30 2654 H 243.319 -2.08056 -3.66457 0
M  V30 2655 H 241.994 -1.04699 -3.063 0
M  V30 2656 H 240.901 -3.13038 -2.04837 0
M  V30 2657 H 242.234 -4.1078 -2.71147 0
M  V30 2658 N 243.887 0.651787 -1.4349 0
M  V30 2659 C 245.164 1.40909 -1.35661 0
M  V30 2660 C 245.544 2.11099 -0.00511733 0
M  V30 2661 O 244.892 2.04892 1.0115 0
M  V30 2662 C 245.102 2.3926 -2.54078 0
M  V30 2663 C 246.45 3.03217 -2.97228 0
M  V30 2664 O 247.474 2.49588 -2.54135 0
M  V30 2665 O 246.333 4.00455 -3.71885 0
M  V30 2666 H 243.427 0.629625 -0.536191 0
M  V30 2667 H 245.973 0.678575 -1.55542 0
M  V30 2668 H 244.745 1.86352 -3.44076 0
M  V30 2669 H 244.368 3.1976 -2.36303 0
M  V30 2670 N 245.365 1.30045 0.890287 0
M  V30 2671 C 246.605 1.19839 1.65584 0
M  V30 2672 C 246.969 -0.244175 1.90441 0
M  V30 2673 O 248.17 -0.469378 2.6467 0
M  V30 2674 C 246.441 1.99876 2.96284 0
M  V30 2675 S 248 2.06309 3.87275 0
M  V30 2676 H 244.818 0.427157 0.568382 0
M  V30 2677 H 247.42 1.64453 1.05715 0
M  V30 2678 H 246.124 3.03809 2.75913 0
M  V30 2679 H 245.655 1.55903 3.61189 0
M  V30 2680 H 247.67 1.18661 4.81803 0
M  V30 2681 N 246.843 -1.10192 1.12674 0
M  V30 2682 C 248.09 -1.82205 0.883606 0
M  V30 2683 C 248.418 -1.8532 -0.590492 0
M  V30 2684 O 247.673 -1.31137 -1.45264 0
M  V30 2685 C 247.972 -3.28552 1.4067 0
M  V30 2686 C 247.638 -3.45582 2.89627 0
M  V30 2687 C 246.3 -3.49937 3.30299 0
M  V30 2688 C 248.652 -3.50768 3.85501 0
M  V30 2689 C 245.98 -3.57049 4.65546 0
M  V30 2690 C 248.332 -3.59414 5.20581 0
M  V30 2691 C 246.996 -3.62034 5.60792 0
M  V30 2692 H 246.266 -0.666735 0.323334 0
M  V30 2693 H 248.913 -1.29868 1.40736 0
M  V30 2694 H 247.218 -3.83473 0.80347 0
M  V30 2695 H 248.915 -3.82788 1.19475 0
M  V30 2696 H 245.505 -3.42871 2.57172 0
M  V30 2697 H 249.689 -3.46651 3.55171 0
M  V30 2698 H 244.945 -3.57361 4.96088 0
M  V30 2699 H 249.119 -3.62371 5.94693 0
M  V30 2700 H 246.746 -3.67298 6.6558 0
M  V30 2701 N 248.321 -0.919034 -1.28029 0
M  V30 2702 C 249.231 -0.416756 -2.30869 0
M  V30 2703 C 250.247 0.498235 -1.66714 0
M  V30 2704 O 251.423 0.383144 -1.97722 0
M  V30 2705 C 248.488 0.330274 -3.45123 0
M  V30 2706 C 247.549 -0.618578 -4.2482 0
M  V30 2707 C 246.782 0.0928959 -5.33619 0
M  V30 2708 O 247.005 1.31375 -5.55065 0
M  V30 2709 O 245.939 -0.574499 -5.99152 0
M  V30 2710 H 249.765 -1.27043 -2.75851 0
M  V30 2711 H 247.35 -0.684052 -1.3282 0
M  V30 2712 H 249.232 0.751972 -4.14636 0
M  V30 2713 H 247.907 1.1597 -3.02213 0
M  V30 2714 H 246.814 -1.08978 -3.57875 0
M  V30 2715 H 248.147 -1.41497 -4.71423 0
M  V30 2716 N 249.799 1.42003 -0.683588 0
M  V30 2717 C 250.729 2.33487 -0.024866 0
M  V30 2718 C 251.71 1.51163 0.779975 0
M  V30 2719 O 252.895 1.79739 0.735362 0
M  V30 2720 C 250.025 3.3487 0.920836 0
M  V30 2721 C 248.979 4.27414 0.223958 0
M  V30 2722 C 248.305 5.19074 1.2832 0
M  V30 2723 C 249.605 5.14445 -0.90242 0
M  V30 2724 H 251.299 2.88819 -0.788921 0
M  V30 2725 H 248.845 1.38873 -0.38083 0
M  V30 2726 H 250.798 3.97787 1.39081 0
M  V30 2727 H 249.522 2.77861 1.71642 0
M  V30 2728 H 248.181 3.65904 -0.225864 0
M  V30 2729 H 247.829 4.58387 2.071 0
M  V30 2730 H 247.529 5.81822 0.821995 0
M  V30 2731 H 249.053 5.84867 1.75392 0
M  V30 2732 H 250.467 5.70998 -0.513272 0
M  V30 2733 H 248.864 5.86072 -1.28997 0
M  V30 2734 H 249.934 4.52322 -1.74737 0
M  V30 2735 N 251.277 0.427512 1.51691 0
M  V30 2736 C 252.525 -0.141948 2.01601 0
M  V30 2737 C 252.846 -1.44067 1.31414 0
M  V30 2738 O 252.116 -1.90763 0.445658 0
M  V30 2739 H 250.696 -0.0554468 0.744939 0
M  V30 2740 H 253.358 0.567968 1.86441 0
M  V30 2741 H 252.454 -0.324913 3.10404 0
M  V30 2742 N 252.755 -1.56801 0.158532 0
M  V30 2743 C 253.702 -2.17337 -0.776729 0
M  V30 2744 C 254.672 -1.1096 -1.23601 0
M  V30 2745 O 255.857 -1.39054 -1.30647 0
M  V30 2746 C 252.997 -2.80822 -2.00582 0
M  V30 2747 C 252.11 -4.01624 -1.59129 0
M  V30 2748 C 251.245 -4.53072 -2.77306 0
M  V30 2749 C 250.284 -5.66314 -2.32282 0
M  V30 2750 N 249.421 -6.12329 -3.43508 0
M  V30 2751 H 254.261 -2.96918 -0.253701 0
M  V30 2752 H 251.798 -1.46661 -0.113504 0
M  V30 2753 H 253.756 -3.15779 -2.72652 0
M  V30 2754 H 252.386 -2.03866 -2.50277 0
M  V30 2755 H 251.438 -3.72571 -0.767806 0
M  V30 2756 H 252.75 -4.83633 -1.2207 0
M  V30 2757 H 251.904 -4.90145 -3.57551 0
M  V30 2758 H 250.643 -3.70095 -3.17617 0
M  V30 2759 H 249.648 -5.28806 -1.5048 0
M  V30 2760 H 250.873 -6.51085 -1.93043 0
M  V30 2761 H 248.819 -5.32284 -3.83418 0
M  V30 2762 H 248.736 -6.89293 -3.105 0
M  V30 2763 H 250.004 -6.5405 -4.24075 0
M  V30 2764 N 254.233 0.115231 -1.57178 0
M  V30 2765 C 255.479 0.82357 -1.85325 0
M  V30 2766 C 255.812 1.79349 -0.744814 0
M  V30 2767 O 255.087 1.92899 0.249024 0
M  V30 2768 C 255.37 1.57014 -3.24066 0
M  V30 2769 C 255.223 0.619565 -4.45513 0
M  V30 2770 C 256.542 2.52545 -3.60429 0
M  V30 2771 H 253.661 0.297948 -0.674089 0
M  V30 2772 H 256.303 0.0877138 -1.89797 0
M  V30 2773 H 254.453 2.19742 -3.20383 0
M  V30 2774 H 256.125 0.000837639 -4.613 0
M  V30 2775 H 254.368 -0.0686174 -4.33746 0
M  V30 2776 H 255.039 1.17866 -5.3927 0
M  V30 2777 H 257.515 1.9992 -3.64926 0
M  V30 2778 H 256.391 3.01811 -4.58477 0
M  V30 2779 H 256.652 3.35383 -2.88047 0
M  V30 2780 N 255.711 1.52812 0.385517 0
M  V30 2781 C 256.674 1.77188 1.45386 0
M  V30 2782 C 257.674 0.641953 1.4743 0
M  V30 2783 O 258.864 0.910033 1.4854 0
M  V30 2784 C 255.996 1.87582 2.8465 0
M  V30 2785 H 257.189 2.72583 1.25054 0
M  V30 2786 H 254.742 1.43586 0.617467 0
M  V30 2787 H 255.477 0.941849 3.10322 0
M  V30 2788 H 255.262 2.69748 2.84567 0
M  V30 2789 H 256.752 2.08102 3.62054 0
M  V30 2790 N 257.189 -0.644168 1.43834 0
M  V30 2791 C 258.419 -1.42939 1.49171 0
M  V30 2792 C 258.827 -1.88874 0.111048 0
M  V30 2793 O 258.17 -1.60656 -0.8908 0
M  V30 2794 C 258.232 -2.69151 2.38324 0
M  V30 2795 C 257.896 -2.45097 3.85715 0
M  V30 2796 C 258.893 -2.07747 4.76589 0
M  V30 2797 C 256.578 -2.59141 4.30292 0
M  V30 2798 C 258.572 -1.8475 6.10038 0
M  V30 2799 C 256.259 -2.35759 5.63792 0
M  V30 2800 C 257.257 -1.9862 6.53482 0
M  V30 2801 O 256.945 -1.75489 7.84512 0
M  V30 2802 H 256.677 -0.445271 0.508635 0
M  V30 2803 H 259.231 -0.79621 1.8934 0
M  V30 2804 H 257.461 -3.3506 1.93058 0
M  V30 2805 H 259.15 -3.31123 2.3476 0
M  V30 2806 H 259.916 -1.96465 4.43426 0
M  V30 2807 H 255.795 -2.87022 3.60749 0
M  V30 2808 H 259.339 -1.55686 6.80006 0
M  V30 2809 H 255.236 -2.46646 5.9652 0
M  V30 2810 H 256.004 -1.89841 7.9618 0
M  V30 2811 N 258.668 -1.30515 -0.883378 0
M  V30 2812 C 259.896 -1.22359 -1.66841 0
M  V30 2813 C 260.311 0.213296 -1.87591 0
M  V30 2814 O 259.668 1.14075 -1.42454 0
M  V30 2815 C 259.719 -1.95011 -3.04389 0
M  V30 2816 O 259.44 -3.3309 -2.84575 0
M  V30 2817 C 260.941 -1.93532 -3.98824 0
M  V30 2818 H 258.161 -0.423371 -0.520575 0
M  V30 2819 H 260.705 -1.72167 -1.10357 0
M  V30 2820 H 258.86 -1.48997 -3.57601 0
M  V30 2821 H 259.274 -3.69907 -3.71846 0
M  V30 2822 H 260.748 -2.48902 -4.92699 0
M  V30 2823 H 261.225 -0.914627 -4.29571 0
M  V30 2824 H 261.831 -2.39364 -3.51547 0
M  V30 2825 N 260.146 1.09593 -1.13257 0
M  V30 2826 C 261.056 2.19739 -0.821691 0
M  V30 2827 C 262.072 1.72926 0.19302 0
M  V30 2828 O 263.248 2.01385 0.0244895 0
M  V30 2829 C 260.313 3.45482 -0.290333 0
M  V30 2830 C 259.374 4.06985 -1.36607 0
M  V30 2831 C 258.607 5.26726 -0.859975 0
M  V30 2832 O 258.83 5.69594 0.303082 0
M  V30 2833 O 257.764 5.7931 -1.63351 0
M  V30 2834 H 261.59 2.48781 -1.74189 0
M  V30 2835 H 259.175 1.18496 -0.909894 0
M  V30 2836 H 261.057 4.214 0.000674022 0
M  V30 2837 H 259.732 3.18047 0.602306 0
M  V30 2838 H 258.639 3.32712 -1.71037 0
M  V30 2839 H 259.972 4.38643 -2.23279 0
M  V30 2840 N 261.624 0.925811 1.2754 0
M  V30 2841 C 262.587 0.428129 2.25166 0
M  V30 2842 C 263.587 -0.452261 1.54309 0
M  V30 2843 O 264.777 -0.253608 1.72344 0
M  V30 2844 C 261.909 -0.384749 3.38722 0
M  V30 2845 H 263.102 1.29066 2.70706 0
M  V30 2846 H 260.655 0.706323 1.3943 0
M  V30 2847 H 261.39 -1.26618 2.98561 0
M  V30 2848 H 261.175 0.246454 3.91325 0
M  V30 2849 H 262.665 -0.723389 4.11287 0
M  V30 2850 N 263.102 -1.41638 0.69111 0
M  V30 2851 C 264.379 -1.95036 0.148421 0
M  V30 2852 C 264.759 -1.63072 -1.34055 0
M  V30 2853 O 264.107 -0.93538 -2.08478 0
M  V30 2854 C 264.317 -3.46279 0.434951 0
M  V30 2855 C 265.665 -4.23069 0.360275 0
M  V30 2856 O 266.689 -3.54277 0.369613 0
M  V30 2857 O 265.548 -5.45583 0.316534 0
M  V30 2858 H 262.642 -0.826908 0.0123654 0
M  V30 2859 H 265.188 -1.5138 0.766963 0
M  V30 2860 H 263.96 -3.6281 1.46576 0
M  V30 2861 H 263.583 -3.97019 -0.214787 0
M  V30 2862 N 264.58 -0.43555 -1.51462 0
M  V30 2863 C 265.81 0.130053 -2.0619 0
M  V30 2864 C 266.218 1.37164 -1.30317 0
M  V30 2865 O 265.561 1.80225 -0.355598 0
M  V30 2866 C 265.623 0.519418 -3.55728 0
M  V30 2867 C 265.287 -0.615119 -4.52841 0
M  V30 2868 C 266.284 -1.48671 -4.9819 0
M  V30 2869 C 263.969 -0.795341 -4.95963 0
M  V30 2870 C 265.963 -2.52324 -5.8533 0
M  V30 2871 C 263.65 -1.83514 -5.82894 0
M  V30 2872 C 264.648 -2.69748 -6.27475 0
M  V30 2873 O 264.336 -3.71944 -7.1268 0
M  V30 2874 H 264.068 0.0121612 -0.675891 0
M  V30 2875 H 266.622 -0.6129 -1.96043 0
M  V30 2876 H 264.852 1.31505 -3.63653 0
M  V30 2877 H 266.541 1.01597 -3.92979 0
M  V30 2878 H 267.307 -1.359 -4.65571 0
M  V30 2879 H 263.186 -0.133713 -4.60806 0
M  V30 2880 H 266.73 -3.19665 -6.20048 0
M  V30 2881 H 262.627 -1.96306 -6.14926 0
M  V30 2882 H 263.395 -3.68503 -7.30854 0
M  V30 2883 N 266.058 1.56714 -0.166846 0
M  V30 2884 C 267.288 2.00828 0.48494 0
M  V30 2885 C 267.696 1.04612 1.57648 0
M  V30 2886 O 267.039 0.0383201 1.8366 0
M  V30 2887 C 267.101 3.4137 1.12723 0
M  V30 2888 C 266.765 4.56654 0.177886 0
M  V30 2889 C 267.762 5.16402 -0.60207 0
M  V30 2890 C 265.447 5.02244 0.0750139 0
M  V30 2891 C 267.441 6.20167 -1.47215 0
M  V30 2892 C 265.128 6.05859 -0.798649 0
M  V30 2893 C 266.126 6.64691 -1.57082 0
M  V30 2894 O 265.814 7.66297 -2.42989 0
M  V30 2895 H 265.546 0.663587 0.128953 0
M  V30 2896 H 268.1 2.03692 -0.264365 0
M  V30 2897 H 266.33 3.35406 1.92457 0
M  V30 2898 H 268.019 3.69466 1.68076 0
M  V30 2899 H 268.785 4.82065 -0.53274 0
M  V30 2900 H 264.664 4.56167 0.665812 0
M  V30 2901 H 268.208 6.66016 -2.07531 0
M  V30 2902 H 264.105 6.39621 -0.869199 0
M  V30 2903 H 264.873 7.83601 -2.36455 0
M  V30 2904 N 267.536 -0.106894 1.57237 0
M  V30 2905 C 268.486 -1.1366 1.9765 0
M  V30 2906 C 269.47 -1.36416 0.853203 0
M  V30 2907 O 270.662 -1.37305 1.11697 0
M  V30 2908 C 267.791 -2.46 2.39455 0
M  V30 2909 C 266.877 -2.26668 3.58445 0
M  V30 2910 N 267.268 -1.77176 4.73754 0
M  V30 2911 C 265.566 -2.57279 3.64312 0
M  V30 2912 C 266.267 -1.71836 5.5574 0
M  V30 2913 N 265.243 -2.16623 4.98573 0
M  V30 2914 H 269.045 -0.74669 2.84256 0
M  V30 2915 H 266.559 -0.314483 1.59326 0
M  V30 2916 H 268.556 -3.2049 2.6663 0
M  V30 2917 H 267.216 -2.85738 1.54219 0
M  V30 2918 H 268.227 -1.46545 4.96734 0
M  V30 2919 H 264.904 -3.00622 2.89711 0
M  V30 2920 H 266.294 -1.34723 6.58255 0
M  V30 2921 N 269.014 -1.53014 -0.377408 0
M  V30 2922 C 270.242 -1.72515 -1.14219 0
M  V30 2923 C 270.657 -0.448735 -1.8339 0
M  V30 2924 O 270.014 0.577592 -1.73119 0
M  V30 2925 C 270.065 -2.8826 -2.18148 0
M  V30 2926 O 269.786 -4.10962 -1.51795 0
M  V30 2927 C 271.287 -3.19536 -3.07264 0
M  V30 2928 H 268.507 -0.577301 -0.342001 0
M  V30 2929 H 271.051 -1.99712 -0.439935 0
M  V30 2930 H 269.206 -2.63492 -2.83991 0
M  V30 2931 H 269.62 -4.75693 -2.20945 0
M  V30 2932 H 271.094 -4.03959 -3.76193 0
M  V30 2933 H 271.571 -2.34403 -3.71419 0
M  V30 2934 H 272.177 -3.46186 -2.47053 0
M  V30 2935 N 270.492 0.636531 -1.44174 0
M  V30 2936 C 271.402 1.77754 -1.53103 0
M  V30 2937 C 272.418 1.68928 -0.417034 0
M  V30 2938 O 273.594 1.89801 -0.6736 0
M  V30 2939 C 270.659 3.14115 -1.46741 0
M  V30 2940 C 269.72 3.34612 -2.68948 0
M  V30 2941 C 268.953 4.64467 -2.6288 0
M  V30 2942 O 269.176 5.44919 -1.68581 0
M  V30 2943 O 268.11 4.87049 -3.53648 0
M  V30 2944 H 271.936 1.73174 -2.49489 0
M  V30 2945 H 269.521 0.79709 -1.2636 0
M  V30 2946 H 271.403 3.95412 -1.45696 0
M  V30 2947 H 270.078 3.19249 -0.534975 0
M  V30 2948 H 268.985 2.53014 -2.75562 0
M  V30 2949 H 270.318 3.34336 -3.61221 0
M  V30 2950 N 271.97 1.30982 0.876444 0
M  V30 2951 C 272.9 1.20668 1.99903 0
M  V30 2952 C 273.881 0.095354 1.69833 0
M  V30 2953 O 275.066 0.27885 1.92188 0
M  V30 2954 C 272.196 0.90655 3.3526 0
M  V30 2955 C 271.15 1.97675 3.79617 0
M  V30 2956 C 270.476 1.52943 5.1236 0
M  V30 2957 C 271.776 3.389 3.97422 0
M  V30 2958 H 273.47 2.14586 2.0879 0
M  V30 2959 H 271.016 1.03308 1.00317 0
M  V30 2960 H 272.969 0.821025 4.13324 0
M  V30 2961 H 271.693 -0.0682969 3.26529 0
M  V30 2962 H 270.352 2.05205 3.03787 0
M  V30 2963 H 270 0.54262 5.00065 0
M  V30 2964 H 269.7 2.24532 5.43009 0
M  V30 2965 H 271.224 1.45786 5.92941 0
M  V30 2966 H 272.638 3.34081 4.659 0
M  V30 2967 H 271.035 4.0865 4.3946 0
M  V30 2968 H 272.105 3.80163 3.01006 0
M  V30 2969 N 273.449 -1.08991 1.13837 0
M  V30 2970 C 274.695 -1.81699 0.91417 0
M  V30 2971 C 275.05 -1.84264 -0.553594 0
M  V30 2972 O 274.343 -1.30313 -1.4046 0
M  V30 2973 C 274.537 -3.27042 1.44147 0
M  V30 2974 C 274.366 -3.38637 2.95897 0
M  V30 2975 C 273.136 -3.50177 3.64286 0
M  V30 2976 C 275.334 -3.30791 3.93804 0
M  V30 2977 N 273.316 -3.50501 5.04006 0
M  V30 2978 C 274.687 -3.38037 5.19741 0
M  V30 2979 C 276.742 -3.14488 3.86007 0
M  V30 2980 C 275.445 -3.30659 6.38793 0
M  V30 2981 C 277.471 -3.08438 5.04599 0
M  V30 2982 C 276.833 -3.1628 6.29402 0
M  V30 2983 H 272.932 -0.678967 0.387979 0
M  V30 2984 H 275.516 -1.30224 1.4474 0
M  V30 2985 H 273.687 -3.76976 0.935091 0
M  V30 2986 H 275.419 -3.87785 1.1578 0
M  V30 2987 H 272.174 -3.53815 3.1482 0
M  V30 2988 H 272.598 -3.54236 5.76928 0
M  V30 2989 H 277.24 -3.07291 2.90399 0
M  V30 2990 H 274.958 -3.36618 7.34652 0
M  V30 2991 H 278.544 -2.96952 5.0031 0
M  V30 2992 H 277.424 -3.1162 7.19627 0
M  V30 2993 N 274.927 -0.932562 -1.27047 0
M  V30 2994 C 275.86 -0.379774 -2.25018 0
M  V30 2995 C 276.838 0.526587 -1.53837 0
M  V30 2996 O 278.022 0.465992 -1.82649 0
M  V30 2997 C 275.149 0.455187 -3.35627 0
M  V30 2998 C 274.195 -0.388428 -4.24728 0
M  V30 2999 S 275.028 -1.80701 -5.04091 0
M  V30 3000 C 276.184 -0.979865 -6.18182 0
M  V30 3001 H 276.417 -1.2101 -2.71558 0
M  V30 3002 H 273.95 -0.735078 -1.35779 0
M  V30 3003 H 275.908 0.931052 -3.99802 0
M  V30 3004 H 274.569 1.26009 -2.87716 0
M  V30 3005 H 273.762 0.25089 -5.03375 0
M  V30 3006 H 273.364 -0.798649 -3.65373 0
M  V30 3007 H 275.656 -0.218115 -6.77149 0
M  V30 3008 H 276.599 -1.73951 -6.86401 0
M  V30 3009 H 277.007 -0.51973 -5.62102 0
M  V30 3010 N 276.405 1.4127 -0.698611 0
M  V30 3011 C 277.315 2.34573 -0.0357891 0
M  V30 3012 C 278.331 1.56393 0.762701 0
M  V30 3013 O 279.507 1.8886 0.699564 0
M  V30 3014 C 276.572 3.35159 0.887089 0
M  V30 3015 C 275.633 4.29225 0.0804634 0
M  V30 3016 C 274.866 5.25006 0.959387 0
M  V30 3017 O 275.089 5.26314 2.19886 0
M  V30 3018 O 274.023 6.00519 0.407439 0
M  V30 3019 H 277.849 2.92838 -0.804957 0
M  V30 3020 H 275.434 1.42175 -0.458966 0
M  V30 3021 H 277.316 3.9689 1.41621 0
M  V30 3022 H 275.991 2.79333 1.6357 0
M  V30 3023 H 274.898 3.70833 -0.493328 0
M  V30 3024 H 276.231 4.88157 -0.629547 0
M  V30 3025 N 277.883 0.443576 1.51229 0
M  V30 3026 C 278.815 -0.400608 2.25672 0
M  V30 3027 C 279.828 -0.980945 1.29928 0
M  V30 3028 O 281.017 -0.874024 1.55638 0
M  V30 3029 C 278.117 -1.57304 3.00181 0
M  V30 3030 C 277.29 -1.11046 4.23069 0
M  V30 3031 C 276.349 -2.15374 4.80105 0
M  V30 3032 O 275.375 -1.74554 5.41774 0
M  V30 3033 N 276.577 -3.47922 4.64683 0
M  V30 3034 H 279.342 0.23745 2.98758 0
M  V30 3035 H 276.903 0.272809 1.59585 0
M  V30 3036 H 278.895 -2.26733 3.35223 0
M  V30 3037 H 277.465 -2.11632 2.30066 0
M  V30 3038 H 276.685 -0.243019 3.9345 0
M  V30 3039 H 277.973 -0.778888 5.02803 0
M  V30 3040 H 277.371 -3.83815 4.15575 0
M  V30 3041 H 275.928 -4.13228 5.0407 0
M  V30 3042 N 279.361 -1.56624 0.175154 0
M  V30 3043 C 280.324 -2.16934 -0.739738 0
M  V30 3044 C 281.324 -1.11842 -1.15533 0
M  V30 3045 O 282.514 -1.37335 -1.07167 0
M  V30 3046 C 279.646 -2.75531 -2.00738 0
M  V30 3047 H 280.839 -2.99131 -0.214639 0
M  V30 3048 H 278.392 -1.56123 -0.0744197 0
M  V30 3049 H 279.127 -1.97078 -2.57548 0
M  V30 3050 H 278.912 -3.52444 -1.71831 0
M  V30 3051 H 280.402 -3.21904 -2.66021 0
M  V30 3052 N 280.839 0.0985539 -1.57292 0
M  V30 3053 C 281.769 1.12064 -2.04851 0
M  V30 3054 C 282.75 1.41981 -0.936767 0
M  V30 3055 O 283.935 1.52071 -1.20781 0
M  V30 3056 C 281.065 2.44144 -2.47004 0
M  V30 3057 C 280.019 2.28643 -3.6181 0
M  V30 3058 C 279.345 3.65869 -3.89929 0
M  V30 3059 C 280.645 1.72986 -4.92822 0
M  V30 3060 H 282.339 0.724979 -2.9049 0
M  V30 3061 H 279.885 0.34729 -1.39749 0
M  V30 3062 H 281.838 3.15914 -2.78884 0
M  V30 3063 H 280.562 2.85639 -1.5836 0
M  V30 3064 H 279.221 1.59318 -3.30172 0
M  V30 3065 H 278.869 4.04885 -2.98458 0
M  V30 3066 H 278.569 3.56344 -4.67218 0
M  V30 3067 H 280.093 4.39112 -4.2428 0
M  V30 3068 H 281.507 2.34593 -5.23105 0
M  V30 3069 H 279.904 1.74229 -5.74251 0
M  V30 3070 H 280.974 0.689007 -4.7998 0
M  V30 3071 N 282.317 1.53212 0.369288 0
M  V30 3072 C 283.733 1.42902 0.710712 0
M  V30 3073 C 283.933 0.565135 1.93413 0
M  V30 3074 O 282.989 0.0461484 2.52458 0
M  V30 3075 C 284.302 2.86042 0.927382 0
M  V30 3076 C 285.85 2.9565 1.02762 0
M  V30 3077 C 286.325 4.39843 1.27679 0
M  V30 3078 N 287.816 4.43256 1.34457 0
M  V30 3079 C 288.551 5.51929 1.55439 0
M  V30 3080 N 288.047 6.70655 1.73762 0
M  V30 3081 N 289.84 5.39502 1.57779 0
M  V30 3082 H 281.991 2.07888 -0.435457 0
M  V30 3083 H 284.254 0.938661 -0.132739 0
M  V30 3084 H 283.96 3.51557 0.100287 0
M  V30 3085 H 283.834 3.29472 1.83653 0
M  V30 3086 H 286.221 2.30291 1.84527 0
M  V30 3087 H 286.302 2.5562 0.0959504 0
M  V30 3088 H 285.946 5.05774 0.464175 0
M  V30 3089 H 285.876 4.77443 2.22162 0
M  V30 3090 H 288.367 3.5769 1.21926 0
M  V30 3091 H 288.68 7.49248 1.89335 0
M  V30 3092 H 287.025 6.73648 1.70948 0
M  V30 3093 H 290.216 4.45713 1.43029 0
M  V30 3094 H 290.389 6.2426 1.7379 0
M  V30 3095 N 283.795 -0.628877 1.44509 0
M  V30 3096 C 284.727 -1.754 1.47538 0
M  V30 3097 C 285.74 -1.58575 0.368506 0
M  V30 3098 O 286.929 -1.66847 0.634376 0
M  V30 3099 C 284.029 -3.1315 1.29577 0
M  V30 3100 C 283.202 -3.56413 2.53551 0
M  V30 3101 C 282.261 -4.7305 2.30457 0
M  V30 3102 O 281.287 -4.81247 3.03957 0
M  V30 3103 N 282.489 -5.64903 1.3366 0
M  V30 3104 H 285.254 -1.73272 2.44534 0
M  V30 3105 H 282.815 -0.813512 1.39977 0
M  V30 3106 H 284.807 -3.88902 1.11971 0
M  V30 3107 H 283.377 -3.09908 0.409371 0
M  V30 3108 H 282.597 -2.70847 2.86419 0
M  V30 3109 H 283.885 -3.82071 3.36005 0
M  V30 3110 H 283.283 -5.60975 0.729604 0
M  V30 3111 H 281.84 -6.40275 1.22032 0
M  V30 3112 N 285.273 -1.31445 -0.869486 0
M  V30 3113 C 286.203 -1.21727 -1.99261 0
M  V30 3114 C 287.184 -0.104359 -1.6978 0
M  V30 3115 O 288.369 -0.289038 -1.92037 0
M  V30 3116 C 285.499 -0.924317 -3.34774 0
M  V30 3117 C 284.453 -1.99685 -3.78563 0
M  V30 3118 C 283.779 -1.55658 -5.11541 0
M  V30 3119 C 285.079 -3.41003 -3.95619 0
M  V30 3120 H 286.773 -2.1569 -2.07649 0
M  V30 3121 H 284.319 -1.03839 -0.997675 0
M  V30 3122 H 286.272 -0.842934 -4.12883 0
M  V30 3123 H 284.996 0.0509793 -3.2656 0
M  V30 3124 H 283.655 -2.06813 -3.02694 0
M  V30 3125 H 283.303 -0.569132 -4.9977 0
M  V30 3126 H 283.003 -2.27409 -5.41811 0
M  V30 3127 H 284.527 -1.48928 -5.92159 0
M  V30 3128 H 285.941 -3.36547 -4.64122 0
M  V30 3129 H 284.338 -4.10975 -4.37286 0
M  V30 3130 H 285.408 -3.81754 -2.98985 0
M  V30 3131 N 286.751 1.08385 -1.14413 0
M  V30 3132 C 288.028 1.77429 -0.823297 0
M  V30 3133 C 288.408 1.9974 0.683163 0
M  V30 3134 O 287.756 1.60739 1.62405 0
M  V30 3135 C 287.966 3.09004 -1.62227 0
M  V30 3136 C 289.314 3.83532 -1.82177 0
M  V30 3137 O 290.338 3.18786 -1.58915 0
M  V30 3138 O 289.197 4.99792 -2.21067 0
M  V30 3139 H 286.291 0.769999 -0.301712 0
M  V30 3140 H 288.837 1.14846 -1.24934 0
M  V30 3141 H 287.609 2.88316 -2.64555 0
M  V30 3142 H 287.232 3.79316 -1.19187 0
M  V30 3143 N 288.23 0.939286 1.26551 0
M  V30 3144 C 289.14 0.453432 2.30176 0
M  V30 3145 C 290.156 -0.471649 1.67486 0
M  V30 3146 O 291.332 -0.35164 1.98306 0
M  V30 3147 C 288.397 -0.275326 3.45605 0
M  V30 3148 C 287.458 0.686084 4.23782 0
M  V30 3149 C 286.691 -0.00798994 5.33699 0
M  V30 3150 O 286.914 -1.22528 5.57085 0
M  V30 3151 O 285.848 0.669746 5.98162 0
M  V30 3152 H 289.674 1.31416 2.73795 0
M  V30 3153 H 287.259 0.705095 1.31715 0
M  V30 3154 H 289.141 -0.685911 4.1578 0
M  V30 3155 H 287.816 -1.11147 3.0402 0
M  V30 3156 H 286.723 1.14658 3.56096 0
M  V30 3157 H 288.056 1.48979 4.69112 0
M  V30 3158 N 289.708 -1.40897 0.706093 0
M  V30 3159 C 290.956 -2.00657 0.241054 0
M  V30 3160 C 291.277 -1.56241 -1.16678 0
M  V30 3161 O 290.547 -0.79765 -1.78926 0
M  V30 3162 H 289.127 -0.742018 0.0861308 0
M  V30 3163 H 291.789 -1.72372 0.909604 0
M  V30 3164 H 290.885 -3.10958 0.266705 0
M  V30 3165 N 291.186 -0.45159 -1.50991 0
M  V30 3166 C 292.096 0.358431 -2.31846 0
M  V30 3167 C 293.112 1.01438 -1.41373 0
M  V30 3168 O 294.288 1.00663 -1.74439 0
M  V30 3169 C 291.353 1.43704 -3.15515 0
M  V30 3170 C 290.414 0.799742 -4.21785 0
M  V30 3171 C 289.647 1.82696 -5.01456 0
M  V30 3172 O 289.87 3.05105 -4.81941 0
M  V30 3173 O 288.804 1.40958 -5.85162 0
M  V30 3174 H 292.63 -0.302032 -3.02194 0
M  V30 3175 H 290.215 -0.213825 -1.47862 0
M  V30 3176 H 292.097 2.06227 -3.67489 0
M  V30 3177 H 290.772 2.08133 -2.47916 0
M  V30 3178 H 289.679 0.136084 -3.73852 0
M  V30 3179 H 291.012 0.198718 -4.91799 0
M  V30 3180 N 292.664 1.56529 -0.183458 0
M  V30 3181 C 293.913 1.96419 0.458511 0
M  V30 3182 C 294.226 1.0727 1.63562 0
M  V30 3183 O 295.432 1.36893 2.34462 0
M  V30 3184 C 293.888 3.49298 0.867122 0
M  V30 3185 C 293.496 4.47092 -0.285057 0
M  V30 3186 C 295.24 3.97983 1.47683 0
M  V30 3187 C 293.147 5.91225 0.143862 0
M  V30 3188 H 292.077 0.733394 0.175071 0
M  V30 3189 H 294.728 1.81448 -0.273624 0
M  V30 3190 H 293.11 3.59731 1.65559 0
M  V30 3191 H 294.284 4.48383 -1.0625 0
M  V30 3192 H 292.599 4.08535 -0.805503 0
M  V30 3193 H 295.196 5.03134 1.80999 0
M  V30 3194 H 295.539 3.41618 2.37914 0
M  V30 3195 H 296.072 3.90617 0.752562 0
M  V30 3196 H 292.811 6.5149 -0.723974 0
M  V30 3197 H 292.331 5.93214 0.886413 0
M  V30 3198 H 294.01 6.44362 0.583628 0
M  V30 3199 N 294.142 -0.090211 1.57342 0
M  V30 3200 C 295.367 -0.810082 1.90925 0
M  V30 3201 C 295.792 -1.71248 0.778187 0
M  V30 3202 O 295.15 -1.79278 -0.269991 0
M  V30 3203 C 295.198 -1.59529 3.23393 0
M  V30 3204 O 294.302 -2.70461 3.11327 0
M  V30 3205 H 293.643 -0.222231 0.625707 0
M  V30 3206 H 296.173 -0.0639716 2.045 0
M  V30 3207 H 296.183 -1.97847 3.5682 0
M  V30 3208 H 294.858 -0.933055 4.05299 0
M  V30 3209 H 293.435 -2.35135 2.89423 0
M  V30 3210 N 295.62 -1.53406 -0.361157 0
M  V30 3211 C 296.848 -1.73717 -1.12383 0
M  V30 3212 C 297.263 -0.468161 -1.82904 0
M  V30 3213 O 296.62 0.559198 -1.73722 0
M  V30 3214 C 296.671 -2.90558 -2.15078 0
M  V30 3215 O 296.392 -4.12549 -1.47428 0
M  V30 3216 C 297.893 -3.22777 -3.03858 0
M  V30 3217 H 295.113 -0.580896 -0.335858 0
M  V30 3218 H 297.657 -2.00167 -0.418728 0
M  V30 3219 H 295.812 -2.66489 -2.8118 0
M  V30 3220 H 296.226 -4.78009 -2.15887 0
M  V30 3221 H 297.7 -4.07927 -3.71887 0
M  V30 3222 H 298.177 -2.38329 -3.68912 0
M  V30 3223 H 298.783 -3.48787 -2.43367 0
M  V30 3224 N 297.098 0.621204 -1.44841 0
M  V30 3225 C 298.347 1.37658 -1.47422 0
M  V30 3226 C 298.66 1.95264 -0.114629 0
M  V30 3227 O 299.866 2.71494 -0.0180199 0
M  V30 3228 C 298.322 2.49285 -2.59586 0
M  V30 3229 C 297.93 1.98149 -4.01797 0
M  V30 3230 C 299.674 3.26409 -2.71399 0
M  V30 3231 C 297.581 3.07178 -5.05367 0
M  V30 3232 H 296.511 0.517344 -0.548517 0
M  V30 3233 H 299.162 0.667257 -1.70938 0
M  V30 3234 H 297.544 3.22839 -2.29328 0
M  V30 3235 H 298.718 1.31395 -4.41669 0
M  V30 3236 H 297.033 1.33812 -3.94314 0
M  V30 3237 H 299.63 4.07706 -3.45948 0
M  V30 3238 H 299.973 3.76535 -1.77559 0
M  V30 3239 H 300.506 2.5995 -3.01116 0
M  V30 3240 H 297.245 2.61985 -6.00869 0
M  V30 3241 H 296.765 3.72542 -4.70077 0
M  V30 3242 H 298.444 3.71789 -5.29511 0
M  V30 3243 N 298.576 1.31904 0.862503 0
M  V30 3244 C 299.853 1.12644 1.59908 0
M  V30 3245 C 300.233 -0.316104 2.0872 0
M  V30 3246 O 299.581 -1.31145 1.87118 0
M  V30 3247 C 299.791 2.1472 2.7513 0
M  V30 3248 C 301.139 2.47637 3.44907 0
M  V30 3249 O 302.163 2.13205 2.85346 0
M  V30 3250 O 301.022 3.06632 4.52371 0
M  V30 3251 H 298.116 0.43416 0.703871 0
M  V30 3252 H 300.662 1.43408 0.907314 0
M  V30 3253 H 299.434 3.1172 2.3653 0
M  V30 3254 H 299.057 1.84905 3.51989 0
M  V30 3255 N 300.054 -1.07777 1.14986 0
M  V30 3256 C 301.001 -2.14867 0.842672 0
M  V30 3257 C 301.971 -1.6486 -0.202552 0
M  V30 3258 O 303.156 -1.90668 -0.0710568 0
M  V30 3259 C 300.296 -3.43486 0.333363 0
M  V30 3260 C 299.409 -4.07306 1.43965 0
M  V30 3261 C 298.544 -5.23744 0.886914 0
M  V30 3262 C 297.583 -5.79517 1.97043 0
M  V30 3263 N 296.72 -6.87291 1.4344 0
M  V30 3264 H 301.56 -2.40485 1.75986 0
M  V30 3265 H 299.097 -1.1801 0.878179 0
M  V30 3266 H 301.055 -4.17195 0.0198163 0
M  V30 3267 H 299.685 -3.18133 -0.546916 0
M  V30 3268 H 298.737 -3.31293 1.86946 0
M  V30 3269 H 300.049 -4.44771 2.25788 0
M  V30 3270 H 299.203 -6.04419 0.525651 0
M  V30 3271 H 297.942 -4.87685 0.0377957 0
M  V30 3272 H 296.947 -4.97491 2.34057 0
M  V30 3273 H 298.172 -6.17632 2.82325 0
M  V30 3274 H 296.118 -6.5318 0.607567 0
M  V30 3275 H 296.035 -7.23617 2.18895 0
M  V30 3276 H 297.303 -7.71682 1.10124 0
M  V30 3277 N 301.532 -0.945985 -1.26051 0
M  V30 3278 C 302.778 -0.597002 -1.93814 0
M  V30 3279 C 303.111 0.862484 -1.73997 0
M  V30 3280 O 302.386 1.61769 -1.07986 0
M  V30 3281 C 302.669 -0.945937 -3.47454 0
M  V30 3282 C 302.522 -2.46052 -3.76535 0
M  V30 3283 C 303.841 -0.464785 -4.37639 0
M  V30 3284 H 300.96 -0.218366 -0.703907 0
M  V30 3285 H 303.602 -1.18107 -1.48831 0
M  V30 3286 H 301.752 -0.448902 -3.85898 0
M  V30 3287 H 303.424 -3.03065 -3.47778 0
M  V30 3288 H 301.667 -2.90194 -3.22444 0
M  V30 3289 H 302.338 -2.65517 -4.83947 0
M  V30 3290 H 304.814 -0.891016 -4.06448 0
M  V30 3291 H 303.69 -0.737712 -5.4392 0
M  V30 3292 H 303.951 0.635274 -4.37512 0
M  V30 3293 N 303.011 1.40521 -0.713556 0
M  V30 3294 C 304.236 2.05759 -0.26035 0
M  V30 3295 C 304.661 1.53403 1.08854 0
M  V30 3296 O 304.019 0.668535 1.68524 0
M  V30 3297 C 304.067 3.59745 -0.248122 0
M  V30 3298 O 303.171 4.05123 0.77131 0
M  V30 3299 H 302.512 0.652564 -0.122703 0
M  V30 3300 H 305.042 1.79958 -0.973467 0
M  V30 3301 H 305.052 4.07911 -0.0851129 0
M  V30 3302 H 303.727 3.97218 -1.2325 0
M  V30 3303 H 302.304 3.68422 0.57619 0
M  V30 3304 N 304.489 0.459591 1.5075 0
M  V30 3305 C 305.735 -0.0994966 2.02556 0
M  V30 3306 C 306.068 -1.40399 1.3417 0
M  V30 3307 O 305.343 -1.88892 0.463683 0
M  V30 3308 C 305.626 -0.295242 3.58888 0
M  V30 3309 C 305.479 1.02947 4.37861 0
M  V30 3310 C 306.798 -1.05502 4.27267 0
M  V30 3311 H 303.917 -0.034686 0.736183 0
M  V30 3312 H 306.559 0.602938 1.8018 0
M  V30 3313 H 304.709 -0.893563 3.78084 0
M  V30 3314 H 306.381 1.66348 4.30263 0
M  V30 3315 H 304.624 1.62885 4.02058 0
M  V30 3316 H 305.295 0.846281 5.45474 0
M  V30 3317 H 307.771 -0.547993 4.12476 0
M  V30 3318 H 306.647 -1.16077 5.36486 0
M  V30 3319 H 306.908 -2.08875 3.89645 0
M  V30 3320 N 305.967 -1.56429 0.191757 0
M  V30 3321 C 306.897 -2.21937 -0.725696 0
M  V30 3322 C 307.878 -1.1814 -1.2238 0
M  V30 3323 O 309.063 -1.46636 -1.27325 0
M  V30 3324 C 306.193 -2.87611 -1.94672 0
M  V30 3325 C 305.147 -3.97623 -1.58366 0
M  V30 3326 C 304.473 -4.50446 -2.88102 0
M  V30 3327 C 305.773 -5.16197 -0.796133 0
M  V30 3328 H 307.467 -2.98861 -0.179606 0
M  V30 3329 H 305.013 -1.43749 -0.0849464 0
M  V30 3330 H 306.966 -3.3212 -2.59373 0
M  V30 3331 H 305.69 -2.08087 -2.51728 0
M  V30 3332 H 304.349 -3.53801 -0.960247 0
M  V30 3333 H 303.997 -3.67688 -3.43241 0
M  V30 3334 H 303.697 -5.24675 -2.64556 0
M  V30 3335 H 305.221 -4.97654 -3.53798 0
M  V30 3336 H 306.635 -5.57271 -1.34618 0
M  V30 3337 H 305.032 -5.96471 -0.658928 0
M  V30 3338 H 306.102 -4.84473 0.203478 0
M  V30 3339 N 307.445 0.0818655 -1.57387 0
M  V30 3340 C 308.722 0.815343 -1.77796 0
M  V30 3341 C 309.102 1.96289 -0.77679 0
M  V30 3342 O 308.45 2.27691 0.192106 0
M  V30 3343 C 308.66 1.29765 -3.23978 0
M  V30 3344 C 310.008 1.7351 -3.8753 0
M  V30 3345 O 311.032 1.39356 -3.27808 0
M  V30 3346 O 309.891 2.36708 -4.92576 0
M  V30 3347 H 306.985 0.389914 -0.729312 0
M  V30 3348 H 309.531 0.0627213 -1.69584 0
M  V30 3349 H 308.303 0.47608 -3.88393 0
M  V30 3350 H 307.926 2.11189 -3.36875 0
M  V30 3351 N 308.923 1.53595 0.353017 0
M  V30 3352 C 310.153 1.74058 1.11299 0
M  V30 3353 C 310.561 0.475205 1.83135 0
M  V30 3354 O 309.904 -0.562344 1.74881 0
M  V30 3355 C 309.966 2.85994 2.17825 0
M  V30 3356 C 309.63 4.25923 1.65647 0
M  V30 3357 C 310.627 5.07829 1.11383 0
M  V30 3358 C 308.312 4.72377 1.7078 0
M  V30 3359 C 310.306 6.34285 0.629439 0
M  V30 3360 C 307.993 5.98808 1.21953 0
M  V30 3361 C 308.991 6.79594 0.681265 0
M  V30 3362 O 308.679 8.03651 0.200248 0
M  V30 3363 H 308.411 0.585327 0.338183 0
M  V30 3364 H 310.965 2.01186 0.413927 0
M  V30 3365 H 309.195 2.54368 2.91262 0
M  V30 3366 H 310.884 2.94515 2.79313 0
M  V30 3367 H 311.65 4.73107 1.06746 0
M  V30 3368 H 307.529 4.0956 2.11617 0
M  V30 3369 H 311.073 6.97288 0.208636 0
M  V30 3370 H 306.97 6.33026 1.26287 0
M  V30 3371 H 307.738 8.1788 0.318416 0
M  V30 3372 N 310.401 -0.613514 1.45168 0
M  V30 3373 C 311.331 -1.7354 1.56225 0
M  V30 3374 C 312.312 -1.64981 0.41414 0
M  V30 3375 O 313.497 -1.83472 0.636526 0
M  V30 3376 C 310.627 -3.12128 1.52295 0
M  V30 3377 C 309.581 -3.35491 2.65762 0
M  V30 3378 C 308.907 -4.74291 2.46885 0
M  V30 3379 C 310.207 -3.26325 4.0781 0
M  V30 3380 H 311.901 -1.64543 2.50132 0
M  V30 3381 H 309.447 -0.790185 1.20383 0
M  V30 3382 H 311.4 -3.90404 1.58628 0
M  V30 3383 H 310.124 -3.2195 0.549139 0
M  V30 3384 H 308.783 -2.59603 2.58847 0
M  V30 3385 H 308.431 -4.80839 1.47657 0
M  V30 3386 H 308.131 -4.9088 3.22972 0
M  V30 3387 H 309.655 -5.54775 2.55063 0
M  V30 3388 H 311.069 -3.94483 4.16 0
M  V30 3389 H 309.466 -3.54445 4.8424 0
M  V30 3390 H 310.536 -2.23855 4.30136 0
M  V30 3391 N 311.879 -1.3236 -0.855495 0
M  V30 3392 C 313.104 -1.2601 -1.64731 0
M  V30 3393 C 313.529 0.169068 -1.87339 0
M  V30 3394 O 312.887 1.12016 -1.42556 0
M  V30 3395 C 312.935 -2.02417 -2.98429 0
M  V30 3396 O 312.039 -1.3714 -3.8893 0
M  V30 3397 H 311.38 -0.434325 -0.502253 0
M  V30 3398 H 313.91 -1.74661 -1.06558 0
M  V30 3399 H 313.92 -2.12559 -3.48257 0
M  V30 3400 H 312.595 -3.06343 -2.81295 0
M  V30 3401 H 311.172 -1.3554 -3.47395 0
M  V30 3402 N 313.357 1.07166 -1.15556 0
M  V30 3403 C 314.587 1.83248 -0.954133 0
M  V30 3404 C 314.995 1.82449 0.500911 0
M  V30 3405 O 314.338 1.23575 1.35923 0
M  V30 3406 C 314.4 3.31393 -1.39351 0
M  V30 3407 C 314.064 3.5591 -2.86666 0
M  V30 3408 C 315.061 3.49695 -3.8472 0
M  V30 3409 C 312.746 3.83515 -3.24379 0
M  V30 3410 C 314.74 3.70737 -5.18491 0
M  V30 3411 C 312.427 4.04209 -4.58321 0
M  V30 3412 C 313.425 3.97815 -5.55186 0
M  V30 3413 O 313.113 4.17954 -6.86709 0
M  V30 3414 H 312.845 0.584941 -0.338851 0
M  V30 3415 H 315.399 1.36169 -1.53777 0
M  V30 3416 H 313.629 3.79292 -0.75329 0
M  V30 3417 H 315.318 3.88945 -1.16089 0
M  V30 3418 H 316.084 3.28368 -3.56931 0
M  V30 3419 H 311.963 3.87605 -2.49567 0
M  V30 3420 H 315.507 3.65663 -5.94085 0
M  V30 3421 H 311.404 4.25023 -4.85825 0
M  V30 3422 H 312.172 4.35291 -6.93155 0
M  V30 3423 N 314.835 0.952656 1.25548 0
M  V30 3424 C 315.798 0.475794 2.24207 0
M  V30 3425 C 316.798 -0.419428 1.55234 0
M  V30 3426 O 317.988 -0.216994 1.72843 0
M  V30 3427 C 315.12 -0.312814 3.39462 0
M  V30 3428 H 316.313 1.34779 2.67908 0
M  V30 3429 H 313.866 0.735739 1.37901 0
M  V30 3430 H 314.601 -1.20257 3.01179 0
M  V30 3431 H 314.386 0.329404 3.90714 0
M  V30 3432 H 315.876 -0.635986 4.12729 0
M  V30 3433 N 316.313 -1.40141 0.720998 0
M  V30 3434 C 317.559 -2.01084 0.263231 0
M  V30 3435 C 317.892 -1.57052 -1.14229 0
M  V30 3436 O 317.167 -0.793027 -1.77599 0
M  V30 3437 C 317.45 -3.58401 0.349344 0
M  V30 3438 C 317.303 -4.12491 1.79363 0
M  V30 3439 C 318.622 -4.39231 -0.276351 0
M  V30 3440 H 315.741 -0.730572 0.0971228 0
M  V30 3441 H 318.383 -1.66543 0.914518 0
M  V30 3442 H 316.533 -3.87958 -0.205165 0
M  V30 3443 H 318.205 -3.93711 2.40394 0
M  V30 3444 H 316.448 -3.66576 2.31958 0
M  V30 3445 H 317.119 -5.21646 1.80524 0
M  V30 3446 H 319.595 -4.15637 0.196184 0
M  V30 3447 H 318.471 -5.48586 -0.185681 0
M  V30 3448 H 318.732 -4.20643 -1.36059 0
M  V30 3449 N 317.792 -0.46758 -1.50504 0
M  V30 3450 C 319.022 0.086288 -2.0642 0
M  V30 3451 C 319.43 1.34369 -1.33197 0
M  V30 3452 O 318.773 1.79431 -0.393747 0
M  V30 3453 C 318.835 0.443846 -3.5675 0
M  V30 3454 C 318.499 -0.711035 -4.51435 0
M  V30 3455 C 319.496 -1.59205 -4.94924 0
M  V30 3456 C 317.181 -0.900363 -4.94165 0
M  V30 3457 C 319.175 -2.64683 -5.79846 0
M  V30 3458 C 316.862 -1.95837 -5.7887 0
M  V30 3459 C 317.86 -2.82997 -6.21612 0
M  V30 3460 O 317.548 -3.86977 -7.0463 0
M  V30 3461 H 317.28 -0.00217814 -0.675996 0
M  V30 3462 H 319.834 -0.654346 -1.94698 0
M  V30 3463 H 318.064 1.23762 -3.6636 0
M  V30 3464 H 319.753 0.932386 -3.95046 0
M  V30 3465 H 320.519 -1.45745 -4.62583 0
M  V30 3466 H 316.398 -0.231427 -4.60419 0
M  V30 3467 H 319.942 -3.32745 -6.13128 0
M  V30 3468 H 315.839 -2.09305 -6.10624 0
M  V30 3469 H 316.607 -3.83923 -7.22873 0
M  V30 3470 N 319.27 1.56325 -0.20005 0
M  V30 3471 C 320.202 2.16555 0.750771 0
M  V30 3472 C 321.215 1.12871 1.1732 0
M  V30 3473 O 322.404 1.39943 1.10807 0
M  V30 3474 C 319.504 2.71684 2.02586 0
M  V30 3475 C 318.677 4.00321 1.76244 0
M  V30 3476 C 317.736 4.40227 2.88248 0
M  V30 3477 O 316.762 5.07552 2.57642 0
M  V30 3478 N 317.964 4.04138 4.16717 0
M  V30 3479 H 320.729 2.98772 0.235685 0
M  V30 3480 H 318.29 1.6189 -0.0182594 0
M  V30 3481 H 320.282 2.95363 2.76664 0
M  V30 3482 H 318.852 1.93893 2.45202 0
M  V30 3483 H 318.072 3.84723 0.85919 0
M  V30 3484 H 319.36 4.84279 1.56048 0
M  V30 3485 H 318.758 3.49993 4.44434 0
M  V30 3486 H 317.315 4.32756 4.87407 0
M  V30 3487 N 320.748 -0.0735177 1.57428 0
M  V30 3488 C 321.68 -1.11423 2.00294 0
M  V30 3489 C 322.693 -1.35084 0.908637 0
M  V30 3490 O 323.882 -1.33355 1.18654 0
M  V30 3491 C 320.982 -2.46548 2.32523 0
M  V30 3492 C 320.155 -2.42867 3.63778 0
M  V30 3493 C 319.214 -3.60087 3.83697 0
M  V30 3494 O 318.24 -3.41595 4.55304 0
M  V30 3495 N 319.442 -4.80372 3.25919 0
M  V30 3496 H 322.207 -0.749206 2.90184 0
M  V30 3497 H 319.768 -0.262195 1.59763 0
M  V30 3498 H 321.76 -3.23607 2.43024 0
M  V30 3499 H 320.33 -2.75059 1.48531 0
M  V30 3500 H 319.55 -1.51206 3.64047 0
M  V30 3501 H 320.838 -2.37506 4.49965 0
M  V30 3502 H 320.236 -4.983 2.67795 0
M  V30 3503 H 318.793 -5.54948 3.41871 0
M  V30 3504 N 322.226 -1.5378 -0.344866 0
M  V30 3505 C 323.474 -1.70625 -1.08311 0
M  V30 3506 C 323.795 -0.471447 -1.89215 0
M  V30 3507 O 323.065 0.514616 -1.8902 0
M  V30 3508 H 321.645 -0.629058 -0.402859 0
M  V30 3509 H 324.307 -1.9103 -0.386459 0
M  V30 3510 H 323.403 -2.57656 -1.76124 0
M  V30 3511 N 323.704 0.605807 -1.45491 0
M  V30 3512 C 324.981 1.36522 -1.40075 0
M  V30 3513 C 325.361 2.10976 -0.0722744 0
M  V30 3514 O 324.709 2.08007 0.945808 0
M  V30 3515 C 324.919 2.31056 -2.61561 0
M  V30 3516 C 326.267 2.93608 -3.06724 0
M  V30 3517 O 327.291 2.41376 -2.61946 0
M  V30 3518 O 326.15 3.88421 -3.84437 0
M  V30 3519 H 323.244 0.612248 -0.555951 0
M  V30 3520 H 325.79 0.628747 -1.57623 0
M  V30 3521 H 324.562 1.75311 -3.49831 0
M  V30 3522 H 324.185 3.12081 -2.46356 0
M  V30 3523 N 325.182 1.32811 0.848464 0
M  V30 3524 C 326.112 1.24882 1.97299 0
M  V30 3525 C 327.093 0.131357 1.69592 0
M  V30 3526 O 328.278 0.319553 1.91553 0
M  V30 3527 C 325.408 0.97746 3.33261 0
M  V30 3528 C 324.362 2.05682 3.75338 0
M  V30 3529 C 323.688 1.63777 5.09 0
M  V30 3530 C 324.988 3.47254 3.90144 0
M  V30 3531 H 326.682 2.18966 2.04191 0
M  V30 3532 H 324.228 1.05413 0.981029 0
M  V30 3533 H 326.181 0.908513 4.1149 0
M  V30 3534 H 324.905 0.000980011 3.266 0
M  V30 3535 H 323.564 2.11603 2.99366 0
M  V30 3536 H 323.212 0.648569 4.98801 0
M  V30 3537 H 322.912 2.36 5.38124 0
M  V30 3538 H 324.436 1.5833 5.89715 0
M  V30 3539 H 325.85 3.43888 4.58709 0
M  V30 3540 H 324.247 4.1788 4.30693 0
M  V30 3541 H 325.317 3.86462 2.92874 0
M  V30 3542 N 326.66 -1.06551 1.16123 0
M  V30 3543 C 327.937 -1.76097 0.85142 0
M  V30 3544 C 328.317 -2.00802 -0.6513 0
M  V30 3545 O 327.665 -1.63302 -1.59827 0
M  V30 3546 C 327.875 -3.06384 1.67122 0
M  V30 3547 C 329.223 -3.80585 1.88255 0
M  V30 3548 O 330.247 -3.16218 1.63966 0
M  V30 3549 O 329.106 -4.96212 2.2899 0
M  V30 3550 H 326.2 -0.765102 0.313923 0
M  V30 3551 H 328.746 -1.12844 1.26745 0
M  V30 3552 H 327.518 -2.84071 2.69108 0
M  V30 3553 H 327.141 -3.77371 1.25206 0
M  V30 3554 N 328.138 -0.959301 -1.25041 0
M  V30 3555 C 329.085 -0.482057 -2.2571 0
M  V30 3556 C 330.055 0.467939 -1.59372 0
M  V30 3557 O 331.24 0.380159 -1.86974 0
M  V30 3558 C 328.38 0.229623 -3.44335 0
M  V30 3559 C 327.493 -0.758156 -4.25295 0
M  V30 3560 C 326.628 -0.0234403 -5.31195 0
M  V30 3561 C 325.667 -1.00184 -6.03846 0
M  V30 3562 N 324.804 -0.29769 -7.01469 0
M  V30 3563 H 329.644 -1.34538 -2.65901 0
M  V30 3564 H 327.181 -0.674592 -1.3072 0
M  V30 3565 H 329.139 0.658856 -4.11965 0
M  V30 3566 H 327.769 1.05696 -3.05005 0
M  V30 3567 H 326.821 -1.30586 -3.57284 0
M  V30 3568 H 328.133 -1.50458 -4.75567 0
M  V30 3569 H 327.287 0.464201 -6.04922 0
M  V30 3570 H 326.026 0.755741 -4.81809 0
M  V30 3571 H 325.031 -1.50044 -5.2893 0
M  V30 3572 H 326.256 -1.78133 -6.55321 0
M  V30 3573 H 324.202 0.462668 -6.54366 0
M  V30 3574 H 324.119 -0.983128 -7.4958 0
M  V30 3575 H 325.387 0.16826 -7.79318 0
M  V30 3576 N 329.616 1.39756 -0.72842 0
M  V30 3577 C 330.579 2.29012 -0.0927297 0
M  V30 3578 C 331.579 1.45992 0.674025 0
M  V30 3579 O 332.769 1.66749 0.50402 0
M  V30 3580 C 329.901 3.29396 0.878137 0
M  V30 3581 H 331.094 2.86729 -0.879011 0
M  V30 3582 H 328.647 1.48293 -0.493847 0
M  V30 3583 H 329.382 2.76722 1.69101 0
M  V30 3584 H 329.167 3.907 0.331051 0
M  V30 3585 H 330.657 3.96199 1.3197 0
M  V30 3586 N 331.094 0.475555 1.50254 0
M  V30 3587 C 332.024 -0.30611 2.31485 0
M  V30 3588 C 333.005 -0.986228 1.38591 0
M  V30 3589 O 334.19 -0.982541 1.67511 0
M  V30 3590 C 331.32 -1.38588 3.1845 0
M  V30 3591 C 330.274 -0.827115 4.19932 0
M  V30 3592 C 329.6 -2.00551 4.95665 0
M  V30 3593 C 330.9 0.16463 5.2204 0
M  V30 3594 H 332.594 0.371866 2.97082 0
M  V30 3595 H 330.14 0.180282 1.42867 0
M  V30 3596 H 332.093 -1.94023 3.74076 0
M  V30 3597 H 330.817 -2.09269 2.50747 0
M  V30 3598 H 329.476 -0.294702 3.65414 0
M  V30 3599 H 329.124 -2.6994 4.2443 0
M  V30 3600 H 328.824 -1.63784 5.64313 0
M  V30 3601 H 330.348 -2.56468 5.54127 0
M  V30 3602 H 331.762 -0.300699 5.72511 0
M  V30 3603 H 330.159 0.446813 5.98434 0
M  V30 3604 H 331.229 1.08905 4.72512 0
M  V30 3605 N 332.573 -1.56217 0.208337 0
M  V30 3606 C 333.503 -2.22694 -0.702116 0
M  V30 3607 C 334.484 -1.19432 -1.2112 0
M  V30 3608 O 335.669 -1.47978 -1.25762 0
M  V30 3609 C 332.799 -2.8966 -1.9161 0
M  V30 3610 C 331.753 -3.9928 -1.5414 0
M  V30 3611 C 331.079 -4.53476 -2.83308 0
M  V30 3612 C 332.379 -5.17012 -0.741339 0
M  V30 3613 H 334.073 -2.99034 -0.147898 0
M  V30 3614 H 331.619 -1.43831 -0.0696951 0
M  V30 3615 H 333.572 -3.34852 -2.55836 0
M  V30 3616 H 332.296 -2.10746 -2.49507 0
M  V30 3617 H 330.955 -3.54799 -0.922668 0
M  V30 3618 H 330.603 -3.71308 -3.39322 0
M  V30 3619 H 330.303 -5.27451 -2.58976 0
M  V30 3620 H 331.827 -5.01378 -3.485 0
M  V30 3621 H 333.241 -5.58667 -1.28699 0
M  V30 3622 H 331.638 -5.97137 -0.595627 0
M  V30 3623 H 332.708 -4.8423 0.254851 0
M  V30 3624 N 334.051 0.0651679 -1.57465 0
M  V30 3625 C 334.981 1.07693 -2.07182 0
M  V30 3626 C 335.962 1.39962 -0.966673 0
M  V30 3627 O 337.147 1.49475 -1.2398 0
M  V30 3628 C 334.277 2.3885 -2.52127 0
M  V30 3629 C 333.231 2.20917 -3.66579 0
M  V30 3630 C 332.557 3.57515 -3.97601 0
M  V30 3631 C 333.857 1.62493 -4.9638 0
M  V30 3632 H 335.551 0.663199 -2.91962 0
M  V30 3633 H 333.097 0.317569 -1.40455 0
M  V30 3634 H 335.05 3.09928 -2.85522 0
M  V30 3635 H 333.774 2.82215 -1.64384 0
M  V30 3636 H 332.433 1.52279 -3.33477 0
M  V30 3637 H 332.081 3.98463 -3.06979 0
M  V30 3638 H 331.781 3.46353 -4.74672 0
M  V30 3639 H 333.305 4.30013 -4.33499 0
M  V30 3640 H 334.719 2.23445 -5.27963 0
M  V30 3641 H 333.116 1.62009 -5.77818 0
M  V30 3642 H 334.186 0.587041 -4.81333 0
M  V30 3643 N 335.529 1.53961 0.336706 0
M  V30 3644 C 336.757 1.75483 1.09605 0
M  V30 3645 C 337.172 0.4972 1.82136 0
M  V30 3646 O 336.529 -0.53149 1.74589 0
M  V30 3647 C 336.58 2.93943 2.10428 0
M  V30 3648 O 336.301 4.14842 1.40846 0
M  V30 3649 C 337.802 3.27571 2.98684 0
M  V30 3650 H 335.022 0.586166 0.326574 0
M  V30 3651 H 337.566 2.00808 0.38683 0
M  V30 3652 H 335.721 2.70929 2.76905 0
M  V30 3653 H 336.135 4.81383 2.08255 0
M  V30 3654 H 337.609 4.13791 3.6535 0
M  V30 3655 H 338.086 2.44168 3.65074 0
M  V30 3656 H 338.692 3.52615 2.37787 0
M  V30 3657 N 337.007 -0.598083 1.45811 0
M  V30 3658 C 337.954 -1.7082 1.55207 0
M  V30 3659 C 338.924 -1.61278 0.39732 0
M  V30 3660 O 340.109 -1.80717 0.612038 0
M  V30 3661 C 337.249 -3.09144 1.53376 0
M  V30 3662 C 336.362 -3.29423 2.79472 0
M  V30 3663 C 335.497 -4.57907 2.69248 0
M  V30 3664 C 334.536 -4.71476 3.90354 0
M  V30 3665 N 333.673 -5.9127 3.78608 0
M  V30 3666 H 338.513 -1.62125 2.50039 0
M  V30 3667 H 336.05 -0.790389 1.24062 0
M  V30 3668 H 338.008 -3.89186 1.50301 0
M  V30 3669 H 336.638 -3.16773 0.620876 0
M  V30 3670 H 335.69 -2.43091 2.92594 0
M  V30 3671 H 337.002 -3.3532 3.69272 0
M  V30 3672 H 336.156 -5.46157 2.64192 0
M  V30 3673 H 334.895 -4.54423 1.77063 0
M  V30 3674 H 333.9 -3.81648 3.95759 0
M  V30 3675 H 335.125 -4.76751 4.83617 0
M  V30 3676 H 333.071 -5.88813 2.89199 0
M  V30 3677 H 332.988 -5.98369 4.6205 0
M  V30 3678 H 334.256 -6.81992 3.77501 0
M  V30 3679 N 338.485 -1.33259 -0.841409 0
M  V30 3680 C 339.432 -1.23302 -1.95103 0
M  V30 3681 C 340.402 -0.112204 -1.65721 0
M  V30 3682 O 341.587 -0.290038 -1.88583 0
M  V30 3683 C 338.727 -0.975583 -3.31023 0
M  V30 3684 C 337.84 -2.18243 -3.72819 0
M  V30 3685 C 336.975 -1.85936 -4.97595 0
M  V30 3686 C 336.014 -3.02866 -5.3192 0
M  V30 3687 N 335.151 -2.70565 -6.47873 0
M  V30 3688 H 339.991 -2.18207 -2.02952 0
M  V30 3689 H 337.528 -1.0851 -0.993173 0
M  V30 3690 H 339.486 -0.80677 -4.09325 0
M  V30 3691 H 338.116 -0.0632755 -3.22738 0
M  V30 3692 H 337.168 -2.46107 -2.90061 0
M  V30 3693 H 338.48 -3.05666 -3.94169 0
M  V30 3694 H 337.634 -1.65684 -5.83638 0
M  V30 3695 H 336.373 -0.957452 -4.78209 0
M  V30 3696 H 335.378 -3.23736 -4.44382 0
M  V30 3697 H 336.603 -3.93809 -5.53255 0
M  V30 3698 H 334.549 -1.8293 -6.29978 0
M  V30 3699 H 334.466 -3.51519 -6.69306 0
M  V30 3700 H 335.734 -2.53774 -7.37034 0
M  V30 3701 N 339.963 1.05934 -1.16686 0
M  V30 3702 C 340.893 2.1546 -0.899949 0
M  V30 3703 C 341.874 1.69391 0.155154 0
M  V30 3704 O 343.059 1.94199 0.00648693 0
M  V30 3705 C 340.189 3.44939 -0.404241 0
M  V30 3706 C 339.143 4.04536 -1.39767 0
M  V30 3707 C 338.469 5.29268 -0.760216 0
M  V30 3708 C 339.769 4.42893 -2.76845 0
M  V30 3709 H 341.463 2.38046 -1.81588 0
M  V30 3710 H 339.009 1.14404 -0.874514 0
M  V30 3711 H 340.962 4.20901 -0.204971 0
M  V30 3712 H 339.686 3.21983 0.547206 0
M  V30 3713 H 338.345 3.30635 -1.58355 0
M  V30 3714 H 337.993 5.02611 0.197831 0
M  V30 3715 H 337.693 5.70101 -1.42332 0
M  V30 3716 H 339.217 6.07924 -0.57105 0
M  V30 3717 H 340.631 5.09921 -2.62019 0
M  V30 3718 H 339.028 4.94721 -3.39663 0
M  V30 3719 H 340.098 3.53584 -3.31823 0
M  V30 3720 N 341.441 0.965919 1.2453 0
M  V30 3721 C 342.371 0.513476 2.27784 0
M  V30 3722 C 343.352 -0.445974 1.6415 0
M  V30 3723 O 344.537 -0.342485 1.91156 0
M  V30 3724 C 341.667 -0.198839 3.4673 0
M  V30 3725 C 340.621 0.676456 4.2262 0
M  V30 3726 C 339.947 -0.167248 5.34438 0
M  V30 3727 C 341.247 1.96017 4.84123 0
M  V30 3728 H 342.941 1.3765 2.65881 0
M  V30 3729 H 340.487 0.663321 1.27813 0
M  V30 3730 H 342.44 -0.526567 4.18097 0
M  V30 3731 H 341.164 -1.0962 3.07654 0
M  V30 3732 H 339.823 0.98743 3.53052 0
M  V30 3733 H 339.471 -1.0647 4.91603 0
M  V30 3734 H 339.171 0.415181 5.86131 0
M  V30 3735 H 340.695 -0.489688 6.08633 0
M  V30 3736 H 342.109 1.69814 5.47573 0
M  V30 3737 H 340.506 2.48918 5.4604 0
M  V30 3738 H 341.576 2.65622 4.05676 0
M  V30 3739 N 342.919 -1.39368 0.735821 0
M  V30 3740 C 343.829 -2.34395 0.0979693 0
M  V30 3741 C 344.845 -1.58361 -0.720968 0
M  V30 3742 O 346.021 -1.90648 -0.649245 0
M  V30 3743 C 343.086 -3.37393 -0.797916 0
M  V30 3744 C 342.147 -4.29287 0.0333662 0
M  V30 3745 C 341.38 -5.27365 -0.819854 0
M  V30 3746 O 341.603 -5.31959 -2.05855 0
M  V30 3747 O 340.537 -6.01389 -0.248079 0
M  V30 3748 H 344.363 -2.90601 0.882315 0
M  V30 3749 H 341.948 -1.40909 0.4965 0
M  V30 3750 H 343.83 -4.00505 -1.31048 0
M  V30 3751 H 342.505 -2.83571 -1.56106 0
M  V30 3752 H 341.412 -3.69395 0.591475 0
M  V30 3753 H 342.745 -4.86317 0.758752 0
M  V30 3754 N 344.397 -0.483516 -1.5 0
M  V30 3755 C 345.327 0.293829 -2.31644 0
M  V30 3756 C 346.308 0.978864 -1.39112 0
M  V30 3757 O 347.493 0.973644 -1.68029 0
M  V30 3758 C 344.623 1.36897 -3.19181 0
M  V30 3759 C 343.577 0.804833 -4.20365 0
M  V30 3760 C 342.903 1.9792 -4.96721 0
M  V30 3761 C 344.203 -0.192313 -5.21946 0
M  V30 3762 H 345.897 -0.387616 -2.9688 0
M  V30 3763 H 343.443 -0.187856 -1.42769 0
M  V30 3764 H 345.396 1.92037 -3.751 0
M  V30 3765 H 344.12 2.07936 -2.51853 0
M  V30 3766 H 342.779 0.275319 -3.65565 0
M  V30 3767 H 342.427 2.67686 -4.25856 0
M  V30 3768 H 342.127 1.60789 -5.65173 0
M  V30 3769 H 343.651 2.53526 -5.55479 0
M  V30 3770 H 345.065 0.270333 -5.72662 0
M  V30 3771 H 343.462 -0.478543 -5.98189 0
M  V30 3772 H 344.532 -1.11409 -4.71928 0
M  V30 3773 N 345.875 1.56104 -0.216619 0
M  V30 3774 C 347.152 1.89988 0.465165 0
M  V30 3775 C 347.532 1.13326 1.78102 0
M  V30 3776 O 346.88 0.241033 2.27225 0
M  V30 3777 C 347.09 3.42646 0.662939 0
M  V30 3778 C 348.438 4.13311 0.972602 0
M  V30 3779 O 349.462 3.48217 0.749901 0
M  V30 3780 O 348.321 5.28396 1.39499 0
M  V30 3781 H 345.415 0.78979 0.245276 0
M  V30 3782 H 347.961 1.67721 -0.258436 0
M  V30 3783 H 346.733 3.90399 -0.26543 0
M  V30 3784 H 346.356 3.70677 1.43821 0
M  V30 3785 N 347.353 -0.0568162 1.57498 0
M  V30 3786 C 348.764 -0.606858 1.76562 0
M  V30 3787 C 349.115 -1.77114 0.844094 0
M  V30 3788 O 348.24 -2.16376 0.0318911 0
M  V30 3789 C 348.835 -1.10766 3.20182 0
M  V30 3790 C 347.394 -1.60344 3.40539 0
M  V30 3791 C 346.541 -0.529311 2.72201 0
M  V30 3792 H 349.492 0.169393 1.57793 0
M  V30 3793 H 349.513 -1.97602 3.25167 0
M  V30 3794 H 349.025 -0.26006 3.87228 0
M  V30 3795 H 347.126 -2.47379 2.78629 0
M  V30 3796 H 347.239 -1.67006 4.4905 0
M  V30 3797 H 345.603 -0.977893 2.35179 0
M  V30 3798 H 346.386 0.308352 3.41912 0
M  V30 3799 N 348.832 -1.54138 -0.328536 0
M  V30 3800 C 349.742 -1.86192 -1.42723 0
M  V30 3801 C 350.758 -0.753382 -1.56844 0
M  V30 3802 O 351.934 -1.04718 -1.72035 0
M  V30 3803 C 348.999 -2.07824 -2.77507 0
M  V30 3804 C 348.06 -3.31641 -2.72603 0
M  V30 3805 C 347.293 -3.52232 -4.00959 0
M  V30 3806 O 347.516 -2.7636 -4.9898 0
M  V30 3807 O 346.45 -4.45699 -4.0452 0
M  V30 3808 H 350.276 -2.79608 -1.18547 0
M  V30 3809 H 347.861 -1.3998 -0.522104 0
M  V30 3810 H 349.743 -2.23411 -3.57303 0
M  V30 3811 H 348.418 -1.17596 -3.01584 0
M  V30 3812 H 347.325 -3.21444 -1.91376 0
M  V30 3813 H 348.658 -4.2191 -2.53481 0
M  V30 3814 N 350.31 0.590341 -1.46126 0
M  V30 3815 C 351.26 1.69466 -1.5253 0
M  V30 3816 C 352.244 1.56179 -0.386917 0
M  V30 3817 O 353.436 1.65223 -0.634858 0
M  V30 3818 C 350.565 3.08245 -1.5113 0
M  V30 3819 C 349.651 3.26856 -2.70233 0
M  V30 3820 N 350.042 3.15657 -3.95214 0
M  V30 3821 C 348.34 3.57775 -2.66296 0
M  V30 3822 C 349.041 3.36066 -4.74799 0
M  V30 3823 N 348.017 3.60865 -4.06543 0
M  V30 3824 H 351.819 1.59326 -2.46966 0
M  V30 3825 H 349.333 0.79414 -1.41659 0
M  V30 3826 H 351.33 3.87492 -1.53804 0
M  V30 3827 H 349.99 3.19521 -0.577636 0
M  V30 3828 H 351.001 2.93686 -4.26578 0
M  V30 3829 H 347.678 3.75782 -1.81918 0
M  V30 3830 H 349.068 3.32655 -5.83772 0
M  V30 3831 N 351.788 1.33704 0.83433 0
M  V30 3832 C 352.72 1.20172 1.9517 0
M  V30 3833 C 353.733 0.131572 1.62267 0
M  V30 3834 O 354.922 0.382406 1.74356 0
M  V30 3835 C 352.022 0.821716 3.28787 0
M  V30 3836 C 351.195 1.98446 3.89792 0
M  V30 3837 C 350.254 1.58469 5.01771 0
M  V30 3838 O 349.28 2.29968 5.20676 0
M  V30 3839 N 350.482 0.492291 5.78409 0
M  V30 3840 H 353.247 2.16429 2.07313 0
M  V30 3841 H 350.808 1.26509 1.0103 0
M  V30 3842 H 352.8 0.536291 4.01131 0
M  V30 3843 H 351.37 -0.0503058 3.1256 0
M  V30 3844 H 350.59 2.43526 3.09982 0
M  V30 3845 H 351.878 2.76236 4.27283 0
M  V30 3846 H 351.276 -0.102349 5.65607 0
M  V30 3847 H 349.833 0.266555 6.51255 0
M  V30 3848 N 353.266 -1.05314 1.17247 0
M  V30 3849 C 354.682 -1.30452 0.919473 0
M  V30 3850 C 354.882 -1.9703 -0.42209 0
M  V30 3851 O 353.938 -2.24311 -1.15935 0
M  V30 3852 C 355.251 -2.17551 2.07586 0
M  V30 3853 C 356.799 -2.30937 2.11275 0
M  V30 3854 C 357.274 -3.21396 3.26296 0
M  V30 3855 N 358.765 -3.28981 3.26076 0
M  V30 3856 C 359.5 -3.99095 4.11716 0
M  V30 3857 N 358.996 -4.71648 5.07465 0
M  V30 3858 N 360.789 -3.95247 3.9967 0
M  V30 3859 H 352.94 -0.604988 2.03602 0
M  V30 3860 H 355.203 -0.329368 0.888944 0
M  V30 3861 H 354.909 -1.75921 3.0454 0
M  V30 3862 H 354.783 -3.18182 2.02584 0
M  V30 3863 H 357.17 -2.71809 1.14907 0
M  V30 3864 H 357.251 -1.2994 2.20339 0
M  V30 3865 H 356.895 -2.81238 4.22927 0
M  V30 3866 H 356.825 -4.22395 3.14467 0
M  V30 3867 H 359.316 -2.77286 2.5675 0
M  V30 3868 H 359.629 -5.22705 5.6921 0
M  V30 3869 H 357.974 -4.70594 5.11435 0
M  V30 3870 H 361.165 -3.37691 3.24164 0
M  V30 3871 H 361.338 -4.4962 4.66632 0
M  V30 3872 N 354.744 -0.972509 -1.24016 0
M  V30 3873 C 355.707 -0.511403 -2.23422 0
M  V30 3874 C 356.707 0.394679 -1.55881 0
M  V30 3875 O 357.897 0.189469 -1.73167 0
M  V30 3876 C 355.029 0.258769 -3.39916 0
M  V30 3877 H 356.222 -1.39024 -2.6573 0
M  V30 3878 H 353.775 -0.757585 -1.36713 0
M  V30 3879 H 354.51 1.1545 -3.03054 0
M  V30 3880 H 354.295 -0.391522 -3.9014 0
M  V30 3881 H 355.785 0.570244 -4.13688 0
M  V30 3882 N 356.222 1.38976 -0.743202 0
M  V30 3883 C 357.17 2.32394 -0.0978389 0
M  V30 3884 C 358.164 1.53486 0.716824 0
M  V30 3885 O 359.37 1.69092 0.617088 0
M  V30 3886 H 355.745 0.75189 -0.0128402 0
M  V30 3887 H 357.716 2.84441 -0.901981 0
M  V30 3888 C 356.465 3.38629 0.789036 0
M  V30 3889 H 355.788 3.99432 0.171559 0
M  V30 3890 H 357.228 4.06426 1.20807 0
M  V30 3891 C 355.687 2.76347 1.92702 0
M  V30 3892 O 356.217 2.64836 3.02034 0
M  V30 3893 N 354.423 2.34311 1.71891 0
M  V30 3894 H 353.97 2.43873 0.829675 0
M  V30 3895 H 353.928 1.9298 2.48205 0
M  V30 3896 N 357.7 0.491464 1.49741 0
M  V30 3897 C 358.948 -0.0563141 2.02022 0
M  V30 3898 C 359.269 -1.38363 1.37407 0
M  V30 3899 O 358.539 -1.88702 0.526166 0
M  V30 3900 H 357.119 -0.0238014 0.746621 0
M  V30 3901 H 359.781 0.646533 1.83864 0
M  V30 3902 H 358.877 -0.192967 3.11503 0
M  V30 3903 N 359.178 -1.55987 0.224894 0
M  V30 3904 C 360.126 -2.21808 -0.700283 0
M  V30 3905 C 361.12 -1.19854 -1.19714 0
M  V30 3906 O 362.326 -1.37925 -1.15658 0
M  V30 3907 H 358.701 -0.711226 -0.244258 0
M  V30 3908 H 360.672 -2.98152 -0.121749 0
M  V30 3909 C 359.421 -2.91444 -1.8962 0
M  V30 3910 H 358.744 -3.69655 -1.52299 0
M  V30 3911 H 360.184 -3.40894 -2.52125 0
M  V30 3912 C 358.643 -1.94098 -2.75368 0
M  V30 3913 O 359.173 -1.46004 -3.74227 0
M  V30 3914 N 357.379 -1.61675 -2.41474 0
M  V30 3915 H 356.926 -2.00979 -1.61137 0
M  V30 3916 H 356.884 -0.968036 -2.99126 0
M  V30 3917 N 360.656 0.0484629 -1.57525 0
M  V30 3918 C 361.586 1.0549 -2.08313 0
M  V30 3919 C 362.567 1.38929 -0.981463 0
M  V30 3920 O 363.752 1.48151 -1.25558 0
M  V30 3921 C 360.882 2.36162 -2.54646 0
M  V30 3922 C 359.836 2.17016 -3.68901 0
M  V30 3923 C 359.162 3.53278 -4.01371 0
M  V30 3924 C 360.462 1.57219 -4.98076 0
M  V30 3925 H 362.156 0.632195 -2.92649 0
M  V30 3926 H 359.702 0.302654 -1.40784 0
M  V30 3927 H 361.655 3.06882 -2.88793 0
M  V30 3928 H 360.379 2.80456 -1.67368 0
M  V30 3929 H 359.038 1.48733 -3.35073 0
M  V30 3930 H 358.686 3.95185 -3.11188 0
M  V30 3931 H 358.386 3.41299 -4.78318 0
M  V30 3932 H 359.91 4.25391 -4.38035 0
M  V30 3933 H 361.324 2.17832 -5.30304 0
M  V30 3934 H 359.721 1.55871 -5.79503 0
M  V30 3935 H 360.791 0.535956 -4.81929 0
M  V30 3936 N 362.134 1.5431 0.320358 0
M  V30 3937 C 363.081 1.83918 1.39438 0
M  V30 3938 C 364.051 0.686525 1.51248 0
M  V30 3939 O 365.236 0.933269 1.66417 0
M  V30 3940 C 362.376 2.075 2.75749 0
M  V30 3941 C 361.489 3.35177 2.72544 0
M  V30 3942 C 360.624 3.48704 4.00723 0
M  V30 3943 C 359.663 4.70244 3.91838 0
M  V30 3944 N 358.8 4.80679 5.11754 0
M  V30 3945 H 363.64 2.75544 1.13489 0
M  V30 3946 H 361.177 1.36459 0.549309 0
M  V30 3947 H 363.135 2.19166 3.54996 0
M  V30 3948 H 361.765 1.19163 3 0
M  V30 3949 H 360.817 3.32233 1.85271 0
M  V30 3950 H 362.129 4.24534 2.61863 0
M  V30 3951 H 361.283 3.59928 4.88402 0
M  V30 3952 H 360.022 2.57445 4.14214 0
M  V30 3953 H 359.027 4.59072 3.02544 0
M  V30 3954 H 360.252 5.6289 3.7991 0
M  V30 3955 H 358.198 3.92337 5.25745 0
M  V30 3956 H 358.115 5.64007 5.0342 0
M  V30 3957 H 359.383 4.96239 6.01138 0
M  V30 3958 N 363.613 -0.582584 1.46437 0
M  V30 3959 C 364.843 -1.36484 1.55099 0
M  V30 3960 C 365.251 -1.88233 0.191056 0
M  V30 3961 O 364.594 -1.6429 -0.821858 0
M  V30 3962 C 364.656 -2.588 2.49525 0
M  V30 3963 C 364.32 -2.28517 3.95764 0
M  V30 3964 C 365.317 -1.87346 4.84972 0
M  V30 3965 C 363.002 -2.40658 4.40896 0
M  V30 3966 C 364.996 -1.5871 6.17325 0
M  V30 3967 C 362.683 -2.11635 5.73284 0
M  V30 3968 C 363.681 -1.70725 6.61318 0
M  V30 3969 O 363.369 -1.42057 7.91249 0
M  V30 3970 H 363.101 -0.423297 0.527063 0
M  V30 3971 H 365.655 -0.715188 1.92547 0
M  V30 3972 H 363.885 -3.26571 2.07095 0
M  V30 3973 H 365.574 -3.20868 2.48593 0
M  V30 3974 H 366.34 -1.77481 4.5136 0
M  V30 3975 H 362.219 -2.71463 3.72598 0
M  V30 3976 H 365.763 -1.26704 6.85997 0
M  V30 3977 H 361.66 -2.21124 6.06444 0
M  V30 3978 H 362.428 -1.55901 8.03515 0
M  V30 3979 N 365.091 -1.34144 -0.827227 0
M  V30 3980 C 366.338 -1.26258 -1.58319 0
M  V30 3981 C 366.666 0.168595 -1.93768 0
M  V30 3982 O 365.921 1.12877 -1.59866 0
M  V30 3983 C 366.22 -2.09464 -2.89585 0
M  V30 3984 C 365.886 -3.58521 -2.73448 0
M  V30 3985 C 364.548 -3.99155 -2.68754 0
M  V30 3986 C 366.9 -4.53189 -2.57428 0
M  V30 3987 C 364.228 -5.32656 -2.45957 0
M  V30 3988 C 366.58 -5.86864 -2.36163 0
M  V30 3989 C 365.244 -6.26667 -2.29879 0
M  V30 3990 H 364.514 -0.462013 -0.579332 0
M  V30 3991 H 367.161 -1.65845 -0.95748 0
M  V30 3992 H 365.466 -1.62692 -3.56425 0
M  V30 3993 H 367.163 -2.00712 -3.47154 0
M  V30 3994 H 363.753 -3.26264 -2.77939 0
M  V30 3995 H 367.937 -4.22696 -2.60081 0
M  V30 3996 H 363.193 -5.62519 -2.39546 0
M  V30 3997 H 367.367 -6.59813 -2.22754 0
M  V30 3998 H 364.994 -7.30049 -2.11975 0
M  V30 3999 N 366.569 1.04691 -1.17803 0
M  V30 4000 C 367.479 2.16057 -0.914151 0
M  V30 4001 C 368.495 1.73589 0.119503 0
M  V30 4002 O 369.671 2.01308 -0.0609468 0
M  V30 4003 C 366.736 3.4394 -0.436603 0
M  V30 4004 C 365.797 4.00825 -1.53746 0
M  V30 4005 C 365.03 5.22604 -1.0826 0
M  V30 4006 O 365.253 5.70367 0.0612244 0
M  V30 4007 O 364.187 5.7186 -1.87775 0
M  V30 4008 H 368.013 2.41169 -1.84584 0
M  V30 4009 H 365.598 1.1453 -0.959334 0
M  V30 4010 H 367.48 4.21024 -0.178057 0
M  V30 4011 H 366.155 3.20316 0.466869 0
M  V30 4012 H 365.062 3.25158 -1.84995 0
M  V30 4013 H 366.395 4.28778 -2.41683 0
M  V30 4014 N 368.047 0.979072 1.23499 0
M  V30 4015 C 369.277 0.664237 1.95631 0
M  V30 4016 C 369.685 -0.772653 1.72704 0
M  V30 4017 O 369.028 -1.53141 1.01457 0
M  V30 4018 C 369.09 0.873115 3.48736 0
M  V30 4019 C 368.754 2.29182 3.95379 0
M  V30 4020 C 369.751 3.2704 4.04155 0
M  V30 4021 C 367.436 2.62256 4.28401 0
M  V30 4022 C 369.43 4.56052 4.45304 0
M  V30 4023 C 367.117 3.91491 4.69231 0
M  V30 4024 C 368.115 4.88201 4.77649 0
M  V30 4025 O 367.803 6.15129 5.17563 0
M  V30 4026 H 367.535 0.245915 0.629684 0
M  V30 4027 H 370.089 1.3127 1.57979 0
M  V30 4028 H 368.319 0.167476 3.86337 0
M  V30 4029 H 370.008 0.555642 4.02079 0
M  V30 4030 H 370.774 3.02819 3.78848 0
M  V30 4031 H 366.653 1.87692 4.21061 0
M  V30 4032 H 370.197 5.31538 4.51789 0
M  V30 4033 H 366.094 4.15508 4.93987 0
M  V30 4034 H 366.862 6.18862 5.35679 0
M  V30 4035 N 369.525 -1.3858 0.750561 0
M  V30 4036 C 370.774 -1.99424 0.302172 0
M  V30 4037 C 371.087 -1.60254 -1.12152 0
M  V30 4038 O 372.293 -2.14046 -1.67023 0
M  V30 4039 C 370.749 -3.56558 0.489307 0
M  V30 4040 C 370.357 -4.04682 1.92189 0
M  V30 4041 C 372.101 -4.24374 0.103478 0
M  V30 4042 C 370.008 -5.54446 2.05775 0
M  V30 4043 H 368.938 -0.746046 0.10923 0
M  V30 4044 H 371.589 -1.58383 0.92667 0
M  V30 4045 H 369.971 -3.95472 -0.204329 0
M  V30 4046 H 371.145 -3.77065 2.64875 0
M  V30 4047 H 369.46 -3.4958 2.26236 0
M  V30 4048 H 372.057 -5.34384 0.183787 0
M  V30 4049 H 372.4 -4.05468 -0.943481 0
M  V30 4050 H 372.933 -3.90688 0.748854 0
M  V30 4051 H 369.672 -5.78252 3.08714 0
M  V30 4052 H 369.192 -5.83816 1.37546 0
M  V30 4053 H 370.871 -6.20099 1.84626 0
M  V30 4054 N 371.003 -0.499398 -1.49478 0
M  V30 4055 C 371.936 0.326491 -2.25852 0
M  V30 4056 C 372.914 0.971776 -1.30366 0
M  V30 4057 O 374.098 1.00219 -1.59651 0
M  V30 4058 C 371.225 1.45969 -3.05632 0
M  V30 4059 C 370.271 0.928938 -4.16261 0
M  V30 4060 S 371.104 -0.179012 -5.35201 0
M  V30 4061 C 372.26 0.957389 -6.18534 0
M  V30 4062 H 372.493 -0.321746 -2.95554 0
M  V30 4063 H 370.026 -0.284674 -1.51753 0
M  V30 4064 H 371.984 2.109 -3.52181 0
M  V30 4065 H 370.645 2.07953 -2.35402 0
M  V30 4066 H 369.838 1.77813 -4.71592 0
M  V30 4067 H 369.44 0.356869 -3.72293 0
M  V30 4068 H 371.732 1.86296 -6.51383 0
M  V30 4069 H 372.675 0.442733 -7.06715 0
M  V30 4070 H 373.083 1.224 -5.5107 0
M  V30 4071 N 372.481 1.55866 -0.233164 0
M  V30 4072 C 373.444 2.1953 0.658715 0
M  V30 4073 C 374.444 1.16053 1.11303 0
M  V30 4074 O 375.634 1.41218 1.01996 0
M  V30 4075 C 372.766 2.82791 1.90373 0
M  V30 4076 H 373.959 2.99721 0.10347 0
M  V30 4077 H 371.512 1.56291 0.0164245 0
M  V30 4078 H 372.247 2.06501 2.50056 0
M  V30 4079 H 372.032 3.58578 1.58632 0
M  V30 4080 H 373.522 3.31556 2.53891 0
M  V30 4081 N 373.959 -0.0401083 1.57549 0
M  V30 4082 C 374.906 -1.04413 2.05831 0
M  V30 4083 C 375.876 -1.36585 0.945184 0
M  V30 4084 O 377.061 -1.47112 1.21502 0
M  V30 4085 C 374.201 -2.34336 2.53339 0
M  V30 4086 C 373.314 -2.08419 3.78398 0
M  V30 4087 C 372.449 -3.32133 4.14561 0
M  V30 4088 C 371.488 -3.01721 5.3257 0
M  V30 4089 N 370.625 -4.17855 5.64218 0
M  V30 4090 H 375.465 -0.625442 2.91363 0
M  V30 4091 H 373.002 -0.297218 1.44066 0
M  V30 4092 H 374.96 -3.10234 2.78946 0
M  V30 4093 H 373.59 -2.73948 1.7074 0
M  V30 4094 H 372.642 -1.23069 3.59942 0
M  V30 4095 H 373.954 -1.81978 4.64419 0
M  V30 4096 H 373.108 -4.16406 4.41238 0
M  V30 4097 H 371.847 -3.61678 3.2717 0
M  V30 4098 H 370.852 -2.15849 5.05657 0
M  V30 4099 H 372.077 -2.73466 6.21605 0
M  V30 4100 H 370.023 -4.47372 4.79786 0
M  V30 4101 H 369.94 -3.94798 6.44725 0
M  V30 4102 H 371.208 -5.03033 5.95465 0
M  V30 4103 N 375.437 -1.54477 -0.31217 0
M  V30 4104 C 376.347 -1.87695 -1.4074 0
M  V30 4105 C 377.363 -0.769975 -1.56036 0
M  V30 4106 O 378.539 -1.06537 -1.70915 0
M  V30 4107 C 375.604 -2.10755 -2.75287 0
M  V30 4108 C 374.665 -3.34514 -2.69071 0
M  V30 4109 C 373.898 -3.56465 -3.97201 0
M  V30 4110 O 374.121 -2.81637 -4.96021 0
M  V30 4111 O 373.055 -4.49964 -3.9977 0
M  V30 4112 H 376.881 -2.80849 -1.15574 0
M  V30 4113 H 374.466 -1.40526 -0.507228 0
M  V30 4114 H 376.348 -2.27188 -3.54913 0
M  V30 4115 H 375.023 -1.20788 -3.0032 0
M  V30 4116 H 373.93 -3.23456 -1.87955 0
M  V30 4117 H 375.263 -4.24575 -2.48992 0
M  V30 4118 N 376.915 0.57481 -1.46744 0
M  V30 4119 C 377.862 1.68329 -1.57905 0
M  V30 4120 C 378.832 1.60625 -0.422927 0
M  V30 4121 O 380.017 1.79721 -0.640711 0
M  V30 4122 C 377.157 3.06665 -1.58274 0
M  V30 4123 C 376.27 3.24935 -2.84678 0
M  V30 4124 C 375.405 4.53566 -2.76499 0
M  V30 4125 C 374.444 4.65207 -3.97806 0
M  V30 4126 N 373.581 5.85172 -3.87967 0
M  V30 4127 H 378.421 1.58127 -2.52587 0
M  V30 4128 H 375.958 0.770552 -1.25303 0
M  V30 4129 H 377.916 3.86745 -1.56473 0
M  V30 4130 H 376.546 3.15745 -0.671194 0
M  V30 4131 H 375.598 2.38405 -2.96424 0
M  V30 4132 H 376.91 3.29403 -3.7456 0
M  V30 4133 H 376.064 5.41885 -2.72848 0
M  V30 4134 H 374.803 4.51548 -1.8427 0
M  V30 4135 H 373.808 3.75304 -4.0178 0
M  V30 4136 H 375.033 4.68997 -4.9114 0
M  V30 4137 H 372.979 5.84137 -2.98529 0
M  V30 4138 H 372.896 5.90943 -4.71511 0
M  V30 4139 H 374.164 6.759 -3.88303 0
M  V30 4140 N 378.394 1.34581 0.820102 0
M  V30 4141 C 379.671 1.17675 1.56244 0
M  V30 4142 C 380.051 -0.249541 2.0962 0
M  V30 4143 O 379.399 -1.25125 1.91196 0
M  V30 4144 C 379.609 2.23364 2.6816 0
M  V30 4145 C 380.957 2.58485 3.36854 0
M  V30 4146 O 381.981 2.22175 2.78418 0
M  V30 4147 O 380.84 3.20868 4.42386 0
M  V30 4148 H 377.934 0.456333 0.689702 0
M  V30 4149 H 380.48 1.46222 0.861231 0
M  V30 4150 H 379.252 3.19087 2.26493 0
M  V30 4151 H 378.875 1.96009 3.45928 0
M  V30 4152 N 379.872 -1.04064 1.18357 0
M  V30 4153 C 381.118 -1.77528 0.980397 0
M  V30 4154 C 381.451 -1.87948 -0.48879 0
M  V30 4155 O 380.726 -1.3876 -1.36293 0
M  V30 4156 C 381.009 -3.20797 1.63588 0
M  V30 4157 C 380.862 -3.1832 3.17793 0
M  V30 4158 C 382.181 -4.18911 1.34914 0
M  V30 4159 H 379.3 -0.644443 0.357578 0
M  V30 4160 H 381.942 -1.2156 1.46024 0
M  V30 4161 H 380.092 -3.68586 1.22788 0
M  V30 4162 H 381.764 -2.78521 3.67728 0
M  V30 4163 H 380.007 -2.56351 3.49952 0
M  V30 4164 H 380.678 -4.19489 3.58794 0
M  V30 4165 H 383.154 -3.7967 1.70265 0
M  V30 4166 H 382.03 -5.17374 1.83346 0
M  V30 4167 H 382.291 -4.41262 0.272027 0
M  V30 4168 N 381.35 -0.985608 -1.22978 0
M  V30 4169 C 382.298 -0.522631 -2.26652 0
M  V30 4170 C 383.292 0.422998 -1.64034 0
M  V30 4171 O 384.498 0.296319 -1.77544 0
M  V30 4172 H 380.873 -0.150597 -0.736766 0
M  V30 4173 H 382.844 -1.40863 -2.63059 0
M  V30 4174 C 381.593 0.154238 -3.47358 0
M  V30 4175 H 380.916 -0.564329 -3.95797 0
M  V30 4176 H 382.356 0.441744 -4.21693 0
M  V30 4177 C 380.815 1.38719 -3.07016 0
M  V30 4178 O 381.345 2.48307 -3.15764 0
M  V30 4179 N 379.551 1.25975 -2.61875 0
M  V30 4180 H 379.098 0.368068 -2.54957 0
M  V30 4181 H 379.056 2.08578 -2.3525 0
M  V30 4182 N 382.828 1.3818 -0.7579 0
M  V30 4183 C 383.775 2.30416 -0.133057 0
M  V30 4184 C 384.745 1.50398 0.704957 0
M  V30 4185 O 385.93 1.79014 0.660192 0
M  V30 4186 C 383.07 3.36834 0.750813 0
M  V30 4187 C 382.183 4.31879 -0.102297 0
M  V30 4188 C 381.318 5.25368 0.784979 0
M  V30 4189 C 380.357 6.12058 -0.0715046 0
M  V30 4190 N 379.494 6.97832 0.772972 0
M  V30 4191 H 384.334 2.83274 -0.925186 0
M  V30 4192 H 381.871 1.39461 -0.467866 0
M  V30 4193 H 383.829 3.97145 1.27794 0
M  V30 4194 H 382.459 2.85374 1.50868 0
M  V30 4195 H 381.511 3.72991 -0.747095 0
M  V30 4196 H 382.823 4.92921 -0.763552 0
M  V30 4197 H 381.977 5.90818 1.37911 0
M  V30 4198 H 380.716 4.64703 1.47996 0
M  V30 4199 H 379.721 5.456 -0.678272 0
M  V30 4200 H 380.946 6.74793 -0.763606 0
M  V30 4201 H 378.892 6.3971 1.45282 0
M  V30 4202 H 378.809 7.55812 0.168709 0
M  V30 4203 H 380.077 7.67687 1.35194 0
M  V30 4204 N 384.306 0.507319 1.49211 0
M  V30 4205 C 385.531 -0.033725 2.07373 0
M  V30 4206 C 385.956 -1.29485 1.36437 0
M  V30 4207 O 385.314 -1.76294 0.423087 0
M  V30 4208 C 385.362 -0.263945 3.59633 0
M  V30 4209 O 384.466 -1.33737 3.90113 0
M  V30 4210 H 383.807 0.0290331 0.663365 0
M  V30 4211 H 386.337 0.708749 1.91932 0
M  V30 4212 H 386.347 -0.493536 4.05004 0
M  V30 4213 H 385.022 0.657424 4.10671 0
M  V30 4214 H 383.599 -1.09224 3.56545 0
M  V30 4215 N 385.784 -1.5574 0.241426 0
M  V30 4216 C 386.747 -2.19877 -0.647063 0
M  V30 4217 C 387.747 -1.16642 -1.10686 0
M  V30 4218 O 388.937 -1.41757 -1.01245 0
M  V30 4219 C 386.069 -2.83797 -1.88871 0
M  V30 4220 H 387.262 -2.99772 -0.087574 0
M  V30 4221 H 384.815 -1.56298 -0.00813574 0
M  V30 4222 H 385.55 -2.07824 -2.48957 0
M  V30 4223 H 385.335 -3.59414 -1.56728 0
M  V30 4224 H 386.825 -3.32898 -2.52129 0
M  V30 4225 N 387.262 0.0317525 -1.57568 0
M  V30 4226 C 388.487 0.738664 -1.938 0
M  V30 4227 C 388.912 1.68242 -0.841208 0
M  V30 4228 O 388.27 1.80157 0.203267 0
M  V30 4229 C 388.318 1.47417 -3.29091 0
M  V30 4230 O 387.422 2.5872 -3.2115 0
M  V30 4231 H 386.763 0.198856 -0.633524 0
M  V30 4232 H 389.293 -0.0119713 -2.04596 0
M  V30 4233 H 389.303 1.84468 -3.63917 0
M  V30 4234 H 387.978 0.781988 -4.08482 0
M  V30 4235 H 386.555 2.24231 -2.97951 0
M  V30 4236 N 388.74 1.54641 0.303973 0
M  V30 4237 C 390.017 1.64455 1.05896 0
M  V30 4238 C 390.397 0.490923 2.05312 0
M  V30 4239 O 389.745 -0.512685 2.22674 0
M  V30 4240 C 389.955 3.02331 1.74347 0
M  V30 4241 C 391.303 3.59045 2.26653 0
M  V30 4242 O 392.327 3.04764 1.84384 0
M  V30 4243 O 391.186 4.54081 3.04093 0
M  V30 4244 H 388.28 0.666729 0.489287 0
M  V30 4245 H 390.826 1.66986 0.302298 0
M  V30 4246 H 389.598 3.77734 1.02142 0
M  V30 4247 H 389.221 3.03565 2.56777 0
M  V30 4248 N 390.218 -0.567019 1.47046 0
M  V30 4249 C 391.495 -1.3276 1.43646 0
M  V30 4250 C 391.875 -2.1071 0.128186 0
M  V30 4251 O 391.223 -2.10441 -0.890326 0
M  V30 4252 C 391.433 -2.2404 2.67595 0
M  V30 4253 C 392.781 -2.85372 3.14401 0
M  V30 4254 O 393.805 -2.34346 2.68254 0
M  V30 4255 O 392.664 -3.78091 3.946 0
M  V30 4256 H 389.758 -0.597293 0.571988 0
M  V30 4257 H 392.304 -0.586735 1.59234 0
M  V30 4258 H 391.076 -1.65975 3.54356 0
M  V30 4259 H 390.699 -3.05439 2.54544 0
M  V30 4260 N 391.696 -1.35014 -0.812953 0
M  V30 4261 C 392.628 -1.23262 -1.93233 0
M  V30 4262 C 393.641 -0.157371 -1.62038 0
M  V30 4263 O 394.83 -0.410096 -1.73725 0
M  V30 4264 C 391.93 -0.87392 -3.27438 0
M  V30 4265 C 391.103 -2.04622 -3.86586 0
M  V30 4266 C 390.162 -1.66432 -4.99186 0
M  V30 4267 O 389.188 -2.38222 -5.16951 0
M  V30 4268 N 390.39 -0.584248 -5.77552 0
M  V30 4269 H 393.155 -2.19699 -2.03844 0
M  V30 4270 H 390.716 -1.281 -0.99005 0
M  V30 4271 H 392.708 -0.600039 -4.00227 0
M  V30 4272 H 391.278 0.00057392 -3.126 0
M  V30 4273 H 390.498 -2.48427 -3.06068 0
M  V30 4274 H 391.786 -2.82999 -4.22835 0
M  V30 4275 H 391.184 0.0123526 -5.65699 0
M  V30 4276 H 389.741 -0.37013 -6.50748 0
M  V30 4277 N 393.175 1.03435 -1.18907 0
M  V30 4278 C 394.4 1.80919 -1.01406 0
M  V30 4279 C 394.825 1.83055 0.432721 0
M  V30 4280 O 394.183 1.25252 1.31079 0
M  V30 4281 C 394.231 3.24091 -1.58105 0
M  V30 4282 O 393.335 4.04434 -0.806669 0
M  V30 4283 H 392.676 0.558709 -0.358803 0
M  V30 4284 H 395.206 1.30223 -1.57807 0
M  V30 4285 H 395.216 3.74853 -1.61087 0
M  V30 4286 H 393.891 3.21851 -2.6341 0
M  V30 4287 H 392.468 3.63091 -0.849666 0
M  V30 4288 N 394.653 0.992116 1.22453 0
M  V30 4289 C 395.93 0.583508 1.86694 0
M  V30 4290 C 396.31 -0.9392 1.89056 0
M  V30 4291 O 395.658 -1.82081 1.38053 0
M  V30 4292 C 395.868 1.20304 3.2761 0
M  V30 4293 C 397.216 1.30308 4.0411 0
M  V30 4294 O 398.24 1.15737 3.36873 0
M  V30 4295 O 397.099 1.53615 5.24466 0
M  V30 4296 H 394.193 0.198129 0.802916 0
M  V30 4297 H 396.739 1.08794 1.30238 0
M  V30 4298 H 395.511 2.24461 3.2052 0
M  V30 4299 H 395.134 0.684144 3.9167 0
M  V30 4300 N 396.131 -1.37776 0.765217 0
M  V30 4301 C 397.063 -2.28958 0.105361 0
M  V30 4302 C 398.076 -1.48316 -0.67128 0
M  V30 4303 O 399.265 -1.71046 -0.51045 0
M  V30 4304 C 396.365 -3.27421 -0.874569 0
M  V30 4305 C 395.538 -4.37132 -0.153123 0
M  V30 4306 C 394.597 -5.1571 -1.04547 0
M  V30 4307 O 393.623 -5.66896 -0.511672 0
M  V30 4308 N 394.825 -5.29808 -2.37243 0
M  V30 4309 H 397.59 -2.86227 0.888495 0
M  V30 4310 H 395.151 -1.49682 0.617 0
M  V30 4311 H 397.143 -3.7687 -1.47483 0
M  V30 4312 H 395.713 -2.70967 -1.55871 0
M  V30 4313 H 394.933 -3.89166 0.627975 0
M  V30 4314 H 396.221 -5.07625 0.345643 0
M  V30 4315 H 395.619 -4.89793 -2.83054 0
M  V30 4316 H 394.176 -5.82589 -2.9229 0
M  V30 4317 N 397.609 -0.515225 -1.4894 0
M  V30 4318 C 398.556 0.255567 -2.29381 0
M  V30 4319 C 399.526 0.947387 -1.36432 0
M  V30 4320 O 400.711 0.951288 -1.65394 0
M  V30 4321 C 397.851 1.30551 -3.19453 0
M  V30 4322 C 396.964 0.624029 -4.27469 0
M  V30 4323 C 396.099 1.65563 -5.0474 0
M  V30 4324 C 395.138 0.956802 -6.04576 0
M  V30 4325 N 394.275 1.93326 -6.74959 0
M  V30 4326 H 399.115 -0.436607 -2.94784 0
M  V30 4327 H 396.652 -0.227154 -1.45336 0
M  V30 4328 H 398.61 1.92639 -3.70062 0
M  V30 4329 H 397.24 1.96626 -2.56004 0
M  V30 4330 H 396.292 -0.110459 -3.8024 0
M  V30 4331 H 397.604 0.0746092 -4.98744 0
M  V30 4332 H 396.758 2.35119 -5.59289 0
M  V30 4333 H 395.497 2.23893 -4.3327 0
M  V30 4334 H 394.502 0.247097 -5.49244 0
M  V30 4335 H 395.727 0.379814 -6.78037 0
M  V30 4336 H 393.673 2.50591 -6.06251 0
M  V30 4337 H 393.59 1.43489 -7.42258 0
M  V30 4338 H 394.858 2.62126 -7.34105 0
M  V30 4339 N 399.087 1.5561 -0.249682 0
M  V30 4340 C 400.315 2.03411 0.378352 0
M  V30 4341 C 400.73 1.12886 1.51335 0
M  V30 4342 O 400.087 0.143833 1.81932 0
M  V30 4343 C 400.138 3.50537 0.88351 0
M  V30 4344 O 399.859 4.37614 -0.20626 0
M  V30 4345 C 401.36 4.14113 1.58195 0
M  V30 4346 H 398.58 0.664994 0.08958 0
M  V30 4347 H 401.124 2.01044 -0.374357 0
M  V30 4348 H 399.279 3.5343 1.58639 0
M  V30 4349 H 399.693 5.24199 0.177782 0
M  V30 4350 H 401.167 5.18741 1.8871 0
M  V30 4351 H 401.644 3.60767 2.50487 0
M  V30 4352 H 402.25 4.15151 0.923573 0
M  V30 4353 N 400.565 -0.0233959 1.57583 0
M  V30 4354 C 401.793 -0.724682 1.93794 0
M  V30 4355 C 402.208 -1.68588 0.849912 0
M  V30 4356 O 401.565 -1.81676 -0.173204 0
M  V30 4357 C 401.616 -1.47684 3.29957 0
M  V30 4358 O 401.337 -0.554222 4.3458 0
M  V30 4359 C 402.838 -2.27477 3.80485 0
M  V30 4360 H 400.058 -0.203317 0.639455 0
M  V30 4361 H 402.602 0.0207653 2.04489 0
M  V30 4362 H 400.757 -2.17412 3.20641 0
M  V30 4363 H 401.171 -1.08232 5.13212 0
M  V30 4364 H 402.645 -2.7564 4.78254 0
M  V30 4365 H 403.122 -3.09144 3.11972 0
M  V30 4366 H 403.728 -1.62813 3.92902 0
M  V30 4367 N 402.043 -1.548 -0.295768 0
M  V30 4368 C 403.454 -1.65274 -0.868411 0
M  V30 4369 C 403.805 -0.56481 -1.87894 0
M  V30 4370 O 402.93 0.29767 -2.14343 0
M  V30 4371 C 403.525 -2.99603 -1.58188 0
M  V30 4372 C 402.084 -3.12181 -2.10286 0
M  V30 4373 C 401.231 -2.6098 -0.93727 0
M  V30 4374 H 404.182 -1.58534 -0.0726422 0
M  V30 4375 H 404.203 -2.91319 -2.44772 0
M  V30 4376 H 403.715 -3.78764 -0.846151 0
M  V30 4377 H 401.816 -2.3775 -2.8689 0
M  V30 4378 H 401.929 -4.18415 -2.33379 0
M  V30 4379 H 400.293 -2.17564 -1.32431 0
M  V30 4380 H 401.076 -3.42623 -0.215414 0
M  V30 4381 N 403.521 0.559213 -1.47345 0
M  V30 4382 C 404.468 1.66645 -1.59682 0
M  V30 4383 C 405.438 1.60168 -0.43994 0
M  V30 4384 O 406.623 1.79031 -0.659736 0
M  V30 4385 C 403.763 3.04969 -1.61518 0
M  V30 4386 C 402.876 3.21897 -2.88108 0
M  V30 4387 C 402.011 4.50608 -2.81294 0
M  V30 4388 C 401.05 4.60961 -4.02717 0
M  V30 4389 N 400.187 5.81024 -3.94151 0
M  V30 4390 H 405.027 1.55439 -2.54249 0
M  V30 4391 H 402.564 0.757219 -1.26113 0
M  V30 4392 H 404.522 3.85064 -1.60566 0
M  V30 4393 H 403.152 3.15015 -0.704645 0
M  V30 4394 H 402.204 2.35248 -2.98936 0
M  V30 4395 H 403.516 3.25412 -3.78032 0
M  V30 4396 H 402.67 5.3896 -2.7858 0
M  V30 4397 H 401.409 4.49568 -1.89049 0
M  V30 4398 H 400.414 3.71021 -4.05738 0
M  V30 4399 H 401.639 4.63761 -4.96087 0
M  V30 4400 H 399.585 5.80938 -3.04708 0
M  V30 4401 H 399.502 5.85909 -4.77752 0
M  V30 4402 H 400.77 6.71744 -3.9545 0
M  V30 4403 N 404.999 1.35443 0.805782 0
M  V30 4404 C 405.946 1.28431 1.91766 0
M  V30 4405 C 406.916 0.156102 1.65365 0
M  V30 4406 O 408.101 0.339936 1.87747 0
M  V30 4407 C 405.241 1.06301 3.2832 0
M  V30 4408 C 404.354 2.2805 3.66902 0
M  V30 4409 C 403.489 1.99064 4.92491 0
M  V30 4410 C 402.528 3.16863 5.23703 0
M  V30 4411 N 401.665 2.87647 6.40471 0
M  V30 4412 H 406.505 2.23511 1.97096 0
M  V30 4413 H 404.042 1.11105 0.964054 0
M  V30 4414 H 406 0.915012 4.07042 0
M  V30 4415 H 404.63 0.148822 3.22457 0
M  V30 4416 H 403.682 2.53711 2.83434 0
M  V30 4417 H 404.994 3.1601 3.85927 0
M  V30 4418 H 404.148 1.81099 5.7904 0
M  V30 4419 H 402.887 1.0839 4.75503 0
M  V30 4420 H 401.892 3.35404 4.35642 0
M  V30 4421 H 403.117 4.08339 5.4262 0
M  V30 4422 H 401.063 1.99568 6.24907 0
M  V30 4423 H 400.98 3.69141 6.59751 0
M  V30 4424 H 402.248 2.73226 7.30047 0
M  V30 4425 N 406.477 -1.02803 1.19454 0
M  V30 4426 C 407.424 -2.11099 0.933046 0
M  V30 4427 C 408.394 -1.65571 -0.132447 0
M  V30 4428 O 409.579 -1.90797 0.00987576 0
M  V30 4429 C 406.719 -3.41763 0.478747 0
M  V30 4430 C 405.832 -4.00833 1.6111 0
M  V30 4431 C 404.967 -5.19511 1.10825 0
M  V30 4432 C 404.006 -5.70639 2.21445 0
M  V30 4433 N 403.143 -6.80589 1.72461 0
M  V30 4434 H 407.983 -2.32804 1.86028 0
M  V30 4435 H 405.52 -1.14179 0.927441 0
M  V30 4436 H 407.478 -4.16736 0.196745 0
M  V30 4437 H 406.108 -3.20166 -0.411493 0
M  V30 4438 H 405.16 -3.23066 2.00829 0
M  V30 4439 H 406.472 -4.34794 2.4445 0
M  V30 4440 H 405.626 -6.01645 0.781533 0
M  V30 4441 H 404.365 -4.87086 0.244606 0
M  V30 4442 H 403.37 -4.87116 2.54947 0
M  V30 4443 H 404.595 -6.05102 3.08267 0
M  V30 4444 H 402.541 -6.50016 0.884056 0
M  V30 4445 H 402.458 -7.13681 2.49389 0
M  V30 4446 H 403.726 -7.66317 1.42755 0
M  V30 4447 N 407.956 -0.998596 -1.21925 0
M  V30 4448 C 409.204 -0.676325 -1.90448 0
M  V30 4449 C 409.525 0.794719 -1.78071 0
M  V30 4450 O 408.795 1.5701 -1.17152 0
M  V30 4451 H 407.375 -0.247165 -0.704925 0
M  V30 4452 H 410.037 -1.26633 -1.48156 0
M  V30 4453 H 409.133 -0.943858 -2.97486 0
M  V30 4454 N 409.434 1.37368 -0.772513 0
M  V30 4455 C 410.68 1.99969 -0.337681 0
M  V30 4456 C 411.013 1.61184 1.08321 0
M  V30 4457 O 410.288 0.858395 1.74533 0
M  V30 4458 C 410.571 3.56858 -0.482121 0
M  V30 4459 C 410.424 4.0555 -1.94549 0
M  V30 4460 C 411.743 4.39955 0.113143 0
M  V30 4461 H 408.862 0.726464 -0.124171 0
M  V30 4462 H 411.504 1.63034 -0.975699 0
M  V30 4463 H 409.654 3.88452 0.0610361 0
M  V30 4464 H 411.326 3.84518 -2.54841 0
M  V30 4465 H 409.569 3.57715 -2.45403 0
M  V30 4466 H 410.24 5.14587 -1.9976 0
M  V30 4467 H 412.716 4.14623 -0.35031 0
M  V30 4468 H 411.592 5.48897 -0.0180514 0
M  V30 4469 H 411.853 4.25403 1.20354 0
M  V30 4470 N 410.912 0.523116 1.48665 0
M  V30 4471 C 411.875 -0.232592 2.28017 0
M  V30 4472 C 412.875 -0.874021 1.34972 0
M  V30 4473 O 414.065 -0.735132 1.57929 0
M  V30 4474 C 411.197 -1.33586 3.13636 0
M  V30 4475 H 412.39 0.464008 2.96289 0
M  V30 4476 H 409.943 0.278816 1.53793 0
M  V30 4477 H 410.678 -2.06593 2.4998 0
M  V30 4478 H 410.463 -0.881125 3.82071 0
M  V30 4479 H 411.953 -1.86759 3.73511 0
M  V30 4480 N 412.39 -1.55475 0.257931 0
M  V30 4481 C 413.636 -1.99502 -0.364266 0
M  V30 4482 C 413.969 -1.146 -1.56782 0
M  V30 4483 O 413.244 -0.211968 -1.93342 0
M  V30 4484 C 413.527 -3.51917 -0.763333 0
M  V30 4485 C 413.38 -4.4758 0.446371 0
M  V30 4486 C 414.699 -4.09742 -1.60623 0
M  V30 4487 H 411.818 -0.725277 -0.130929 0
M  V30 4488 H 414.46 -1.8653 0.361446 0
M  V30 4489 H 412.61 -3.63101 -1.38166 0
M  V30 4490 H 414.282 -4.48362 1.08487 0
M  V30 4491 H 412.525 -4.19947 1.08753 0
M  V30 4492 H 413.196 -5.51862 0.123645 0
M  V30 4493 H 415.672 -4.01727 -1.08418 0
M  V30 4494 H 414.548 -5.16631 -1.85429 0
M  V30 4495 H 414.809 -3.58889 -2.58169 0
M  V30 4496 N 413.868 0.0150385 -1.57593 0
M  V30 4497 C 415.145 0.7392 -1.81094 0
M  V30 4498 C 415.525 1.92817 -0.859344 0
M  V30 4499 O 414.873 2.28301 0.095362 0
M  V30 4500 C 415.083 1.15907 -3.29191 0
M  V30 4501 C 416.431 1.56918 -3.9454 0
M  V30 4502 O 417.455 1.25328 -3.33424 0
M  V30 4503 O 416.314 2.15604 -5.02173 0
M  V30 4504 H 413.408 0.358631 -0.745193 0
M  V30 4505 H 415.954 -0.00926156 -1.69697 0
M  V30 4506 H 414.726 0.310921 -3.90063 0
M  V30 4507 H 414.349 1.96711 -3.45529 0
M  V30 4508 N 415.346 1.54954 0.287554 0
M  V30 4509 C 416.576 1.78622 1.03816 0
M  V30 4510 C 416.984 0.552451 1.80955 0
M  V30 4511 O 416.327 -0.487665 1.77109 0
M  V30 4512 C 416.389 2.94975 2.055 0
M  V30 4513 C 416.053 4.32565 1.47433 0
M  V30 4514 C 417.05 5.12096 0.897436 0
M  V30 4515 C 414.735 4.79195 1.50591 0
M  V30 4516 C 416.729 6.36383 0.359851 0
M  V30 4517 C 414.416 6.03441 0.964459 0
M  V30 4518 C 415.414 6.81872 0.392413 0
M  V30 4519 O 415.102 8.03777 -0.140788 0
M  V30 4520 H 414.834 0.599144 0.313053 0
M  V30 4521 H 417.388 2.02761 0.328225 0
M  V30 4522 H 415.618 2.66493 2.80211 0
M  V30 4523 H 417.307 3.06097 2.6657 0
M  V30 4524 H 418.073 4.77209 0.865841 0
M  V30 4525 H 413.952 4.18167 1.94055 0
M  V30 4526 H 417.496 6.97545 -0.0872951 0
M  V30 4527 H 413.393 6.37813 0.993246 0
M  V30 4528 H 414.161 8.18495 -0.0287617 0
M  V30 4529 N 416.824 -0.551391 1.4764 0
M  V30 4530 C 417.754 -1.66757 1.63445 0
M  V30 4531 C 418.735 -1.63077 0.483742 0
M  V30 4532 O 419.92 -1.80607 0.71377 0
M  V30 4533 C 417.05 -3.05387 1.65396 0
M  V30 4534 C 416.004 -3.23918 2.79752 0
M  V30 4535 C 415.33 -4.63393 2.66779 0
M  V30 4536 C 416.63 -3.08735 4.21284 0
M  V30 4537 H 418.324 -1.53786 2.56886 0
M  V30 4538 H 415.87 -0.738415 1.23626 0
M  V30 4539 H 417.823 -3.83325 1.75043 0
M  V30 4540 H 416.547 -3.19332 0.685195 0
M  V30 4541 H 415.206 -2.48391 2.69625 0
M  V30 4542 H 414.854 -4.74144 1.67918 0
M  V30 4543 H 414.554 -4.7674 3.43501 0
M  V30 4544 H 416.078 -5.43458 2.78364 0
M  V30 4545 H 417.492 -3.76484 4.32357 0
M  V30 4546 H 415.889 -3.33588 4.98838 0
M  V30 4547 H 416.959 -2.0541 4.39243 0
M  V30 4548 N 418.302 -1.35869 -0.798587 0
M  V30 4549 C 419.713 -1.26498 -1.37314 0
M  V30 4550 C 420.064 0.0991899 -1.95949 0
M  V30 4551 O 419.189 1.0004 -1.91888 0
M  V30 4552 C 419.784 -2.29054 -2.49639 0
M  V30 4553 C 418.343 -2.234 -3.02935 0
M  V30 4554 C 417.49 -2.14329 -1.75949 0
M  V30 4555 H 420.441 -1.46881 -0.600971 0
M  V30 4556 H 420.462 -1.92166 -3.28409 0
M  V30 4557 H 419.974 -3.2833 -2.06933 0
M  V30 4558 H 418.075 -1.27562 -3.50084 0
M  V30 4559 H 418.188 -3.15703 -3.60372 0
M  V30 4560 H 416.552 -1.60435 -1.9782 0
M  V30 4561 H 417.335 -3.15477 -1.35384 0
M  V30 4562 N 419.78 1.02168 -1.19998 0
M  V30 4563 C 420.69 2.14069 -0.959774 0
M  V30 4564 C 421.706 1.73804 0.082655 0
M  V30 4565 O 422.882 2.01133 -0.103633 0
M  V30 4566 C 419.947 3.42936 -0.509459 0
M  V30 4567 C 419.008 3.97474 -1.62213 0
M  V30 4568 C 418.241 5.2019 -1.19321 0
M  V30 4569 O 418.464 5.70369 -0.0597726 0
M  V30 4570 O 417.398 5.67749 -1.99863 0
M  V30 4571 H 421.224 2.37199 -1.89658 0
M  V30 4572 H 418.809 1.12469 -0.983411 0
M  V30 4573 H 420.691 4.20551 -0.267322 0
M  V30 4574 H 419.366 3.21234 0.398821 0
M  V30 4575 H 418.273 3.21161 -1.9185 0
M  V30 4576 H 419.606 4.23555 -2.50723 0
M  V30 4577 N 421.258 1.00505 1.21394 0
M  V30 4578 C 422.674 0.717873 1.42544 0
M  V30 4579 C 422.874 -0.706936 1.88692 0
M  V30 4580 O 421.93 -1.47627 2.04847 0
M  V30 4581 C 423.243 1.73377 2.45684 0
M  V30 4582 C 424.791 1.75059 2.59467 0
M  V30 4583 C 425.266 2.75545 3.6584 0
M  V30 4584 N 426.757 2.74213 3.73311 0
M  V30 4585 C 427.492 3.48626 4.55245 0
M  V30 4586 N 426.988 4.32678 5.41075 0
M  V30 4587 N 428.781 3.37276 4.49668 0
M  V30 4588 H 420.932 1.92506 0.897503 0
M  V30 4589 H 423.195 0.830919 0.456375 0
M  V30 4590 H 422.901 2.75395 2.18748 0
M  V30 4591 H 422.775 1.53647 3.44489 0
M  V30 4592 H 425.162 0.737337 2.8574 0
M  V30 4593 H 425.243 1.98861 1.60897 0
M  V30 4594 H 424.887 3.77028 3.40313 0
M  V30 4595 H 424.817 2.49009 4.64007 0
M  V30 4596 H 427.308 2.13234 3.11993 0
M  V30 4597 H 427.621 4.86253 6.00648 0
M  V30 4598 H 425.966 4.3676 5.40616 0
M  V30 4599 H 429.157 2.71043 3.81646 0
M  V30 4600 H 429.33 3.95524 5.13288 0
M  V30 4601 N 422.737 -1.36956 0.779787 0
M  V30 4602 C 423.669 -2.28833 0.129639 0
M  V30 4603 C 424.682 -1.4902 -0.655511 0
M  V30 4604 O 425.871 -1.71578 -0.492279 0
M  V30 4605 C 422.971 -3.2833 -0.839792 0
M  V30 4606 C 422.144 -4.3727 -0.10675 0
M  V30 4607 C 421.203 -5.16789 -0.990717 0
M  V30 4608 O 420.229 -5.67406 -0.451516 0
M  V30 4609 N 421.431 -5.32294 -2.3161 0
M  V30 4610 H 424.196 -2.85268 0.918803 0
M  V30 4611 H 421.757 -1.49019 0.632841 0
M  V30 4612 H 423.749 -3.78413 -1.43477 0
M  V30 4613 H 422.319 -2.72605 -1.52988 0
M  V30 4614 H 421.539 -3.88478 0.669216 0
M  V30 4615 H 422.827 -5.07229 0.399464 0
M  V30 4616 H 422.225 -4.92768 -2.77843 0
M  V30 4617 H 420.782 -5.85656 -2.86095 0
M  V30 4618 N 424.215 -0.530993 -1.48385 0
M  V30 4619 C 425.162 0.231223 -2.29639 0
M  V30 4620 C 426.132 0.932864 -1.37429 0
M  V30 4621 O 427.317 0.933692 -1.66394 0
M  V30 4622 C 424.457 1.27155 -3.2082 0
M  V30 4623 C 423.57 0.578655 -4.28107 0
M  V30 4624 C 422.705 1.602 -5.06467 0
M  V30 4625 C 421.744 0.892625 -6.05556 0
M  V30 4626 N 420.881 1.86157 -6.76971 0
M  V30 4627 H 425.721 -0.467848 -2.94305 0
M  V30 4628 H 423.258 -0.242556 -1.45086 0
M  V30 4629 H 425.216 1.88703 -3.72085 0
M  V30 4630 H 423.846 1.939 -2.58075 0
M  V30 4631 H 422.898 -0.150782 -3.80101 0
M  V30 4632 H 424.21 0.0217065 -4.98795 0
M  V30 4633 H 423.364 2.29173 -5.61751 0
M  V30 4634 H 422.103 2.19285 -4.35621 0
M  V30 4635 H 421.108 0.188829 -5.49476 0
M  V30 4636 H 422.333 0.307878 -6.78402 0
M  V30 4637 H 420.279 2.44147 -6.08875 0
M  V30 4638 H 420.196 1.35608 -7.43738 0
M  V30 4639 H 421.464 2.54325 -7.36844 0
M  V30 4640 N 425.693 1.55336 -0.266172 0
M  V30 4641 C 426.923 2.03506 0.356239 0
M  V30 4642 C 427.331 1.14426 1.50676 0
M  V30 4643 O 426.674 0.155043 1.83045 0
M  V30 4644 C 426.736 3.47848 0.90785 0
M  V30 4645 C 426.4 4.56861 -0.112888 0
M  V30 4646 C 427.397 5.11528 -0.929264 0
M  V30 4647 C 425.082 5.01704 -0.244546 0
M  V30 4648 C 427.076 6.09549 -1.86357 0
M  V30 4649 C 424.763 5.99553 -1.18234 0
M  V30 4650 C 425.761 6.53356 -1.99036 0
M  V30 4651 O 425.449 7.49293 -2.91231 0
M  V30 4652 H 425.181 0.670444 0.08649 0
M  V30 4653 H 427.735 2.01598 -0.39337 0
M  V30 4654 H 425.965 3.46967 1.70737 0
M  V30 4655 H 427.654 3.79407 1.44239 0
M  V30 4656 H 428.42 4.77701 -0.838237 0
M  V30 4657 H 424.299 4.59477 0.374359 0
M  V30 4658 H 427.843 6.51469 -2.49467 0
M  V30 4659 H 423.74 6.32799 -1.27421 0
M  V30 4660 H 424.508 7.66978 -2.8581 0
M  V30 4661 N 427.171 -0.0066808 1.57599 0
M  V30 4662 C 428.081 -1.01671 2.11424 0
M  V30 4663 C 429.097 -1.38143 1.05795 0
M  V30 4664 O 430.273 -1.47011 1.37658 0
M  V30 4665 C 427.338 -2.29192 2.60139 0
M  V30 4666 C 426.399 -1.99094 3.80342 0
M  V30 4667 C 425.632 -3.20535 4.26724 0
M  V30 4668 O 425.855 -4.3199 3.72479 0
M  V30 4669 O 424.789 -3.04924 5.18946 0
M  V30 4670 H 428.615 -0.589181 2.9793 0
M  V30 4671 H 426.2 -0.225091 1.47695 0
M  V30 4672 H 428.082 -3.0412 2.917 0
M  V30 4673 H 426.757 -2.71195 1.76733 0
M  V30 4674 H 425.664 -1.21663 3.53764 0
M  V30 4675 H 426.997 -1.61931 4.648 0
M  V30 4676 N 428.649 -1.55105 -0.279332 0
M  V30 4677 C 429.582 -1.82467 -1.37044 0
M  V30 4678 C 430.56 -0.677261 -1.47824 0
M  V30 4679 O 431.744 -0.919578 -1.64548 0
M  V30 4680 C 428.871 -1.98066 -2.7475 0
M  V30 4681 C 427.917 -3.20594 -2.81286 0
M  V30 4682 S 428.75 -4.78116 -2.41175 0
M  V30 4683 C 429.906 -4.9668 -3.80867 0
M  V30 4684 H 430.139 -2.74728 -1.1363 0
M  V30 4685 H 427.672 -1.46794 -0.478625 0
M  V30 4686 H 429.63 -2.07739 -3.54055 0
M  V30 4687 H 428.291 -1.06704 -2.9542 0
M  V30 4688 H 427.484 -3.28376 -3.82341 0
M  V30 4689 H 427.086 -3.09479 -2.09996 0
M  V30 4690 H 429.378 -4.82033 -4.76078 0
M  V30 4691 H 430.321 -5.98741 -3.78041 0
M  V30 4692 H 430.729 -4.24698 -3.71876 0
M  V30 4693 N 430.127 0.543554 -1.4793 0
M  V30 4694 C 431.057 1.65888 -1.64327 0
M  V30 4695 C 432.038 1.62818 -0.492383 0
M  V30 4696 O 433.223 1.80226 -0.723338 0
M  V30 4697 C 430.353 3.04506 -1.67013 0
M  V30 4698 C 429.307 3.2243 -2.81466 0
M  V30 4699 C 428.633 4.61972 -2.69233 0
M  V30 4700 C 429.933 3.06496 -4.22915 0
M  V30 4701 H 431.627 1.52421 -2.57698 0
M  V30 4702 H 429.173 0.731849 -1.24016 0
M  V30 4703 H 431.126 3.82391 -1.77074 0
M  V30 4704 H 429.85 3.18964 -0.70212 0
M  V30 4705 H 428.509 2.46957 -2.70938 0
M  V30 4706 H 428.157 4.73247 -1.7043 0
M  V30 4707 H 427.857 4.74911 -3.46025 0
M  V30 4708 H 429.381 5.41974 -2.81242 0
M  V30 4709 H 430.795 3.74186 -4.34348 0
M  V30 4710 H 429.192 3.30938 -5.006 0
M  V30 4711 H 430.262 2.03077 -4.40327 0
M  V30 4712 N 431.605 1.3629 0.791371 0
M  V30 4713 C 432.845 1.31792 1.56238 0
M  V30 4714 C 433.209 -0.102237 1.91728 0
M  V30 4715 O 434.41 -0.271759 2.67423 0
M  V30 4716 C 432.681 2.21303 2.80642 0
M  V30 4717 S 434.24 2.34468 3.70904 0
M  V30 4718 H 431.058 0.468141 0.535131 0
M  V30 4719 H 433.66 1.71841 0.932246 0
M  V30 4720 H 432.364 3.23439 2.52617 0
M  V30 4721 H 431.895 1.82266 3.4863 0
M  V30 4722 H 433.91 1.54074 4.71673 0
M  V30 4723 N 433.083 -1.0153 1.20538 0
M  V30 4724 C 434.499 -1.27461 0.96051 0
M  V30 4725 C 434.699 -1.98273 -0.359193 0
M  V30 4726 O 433.755 -2.27886 -1.0874 0
M  V30 4727 C 435.068 -2.10837 2.14402 0
M  V30 4728 C 436.616 -2.24099 2.18515 0
M  V30 4729 C 437.091 -3.10852 3.36355 0
M  V30 4730 N 438.582 -3.18441 3.36377 0
M  V30 4731 C 439.317 -3.85795 4.24205 0
M  V30 4732 N 438.813 -4.55264 5.22213 0
M  V30 4733 N 440.606 -3.82331 4.12043 0
M  V30 4734 H 432.757 -0.539907 2.05423 0
M  V30 4735 H 435.02 -0.30092 0.898972 0
M  V30 4736 H 434.726 -1.66144 3.09983 0
M  V30 4737 H 434.6 -3.11576 2.12604 0
M  V30 4738 H 436.987 -2.68016 1.23497 0
M  V30 4739 H 437.068 -1.22865 2.24361 0
M  V30 4740 H 436.712 -2.6764 4.31661 0
M  V30 4741 H 436.642 -4.12177 3.27746 0
M  V30 4742 H 439.133 -2.68978 2.65442 0
M  V30 4743 H 439.446 -5.04331 5.85551 0
M  V30 4744 H 437.791 -4.54085 5.26148 0
M  V30 4745 H 440.982 -3.27207 3.34743 0
M  V30 4746 H 441.155 -4.34547 4.807 0
M  V30 4747 N 434.561 -1.01147 -1.20859 0
M  V30 4748 C 435.809 -0.696486 -1.89719 0
M  V30 4749 C 436.13 0.775788 -1.78904 0
M  V30 4750 O 435.4 1.55759 -1.18811 0
M  V30 4751 H 433.98 -0.254628 -0.702263 0
M  V30 4752 H 436.642 -1.28197 -1.46804 0
M  V30 4753 H 435.738 -0.975357 -2.96468 0
M  V30 4754 N 436.039 1.36541 -0.78704 0
M  V30 4755 C 436.949 2.3387 -0.184896 0
M  V30 4756 C 437.965 1.60927 0.661697 0
M  V30 4757 O 439.141 1.92927 0.57804 0
M  V30 4758 C 436.206 3.40122 0.672145 0
M  V30 4759 C 435.267 4.28867 -0.19267 0
M  V30 4760 C 434.5 5.30045 0.623561 0
M  V30 4761 O 434.723 5.39232 1.8597 0
M  V30 4762 O 433.657 6.01895 0.0247068 0
M  V30 4763 H 437.483 2.87126 -0.989562 0
M  V30 4764 H 435.068 1.38969 -0.548455 0
M  V30 4765 H 436.95 4.05093 1.16094 0
M  V30 4766 H 435.625 2.89169 1.45474 0
M  V30 4767 H 434.532 3.66945 -0.728166 0
M  V30 4768 H 435.865 4.83165 -0.938722 0
M  V30 4769 N 437.518 0.538854 1.48102 0
M  V30 4770 C 438.766 0.00798599 2.02098 0
M  V30 4771 C 439.087 -1.33922 1.41739 0
M  V30 4772 O 438.357 -1.86932 0.585934 0
M  V30 4773 H 436.937 -3.62179e-05 0.747 0
M  V30 4774 H 439.599 0.7047 1.81714 0
M  V30 4775 H 438.695 -0.0937672 3.11959 0
M  V30 4776 N 438.996 -1.55193 0.274407 0
M  V30 4777 C 440.245 -1.98758 -0.343213 0
M  V30 4778 C 440.558 -1.16624 -1.5703 0
M  V30 4779 O 441.764 -1.5033 -2.26082 0
M  V30 4780 C 440.22 -3.53759 -0.661996 0
M  V30 4781 C 439.828 -4.4467 0.54524 0
M  V30 4782 C 441.572 -4.05916 -1.24228 0
M  V30 4783 C 439.479 -5.91058 0.201084 0
M  V30 4784 H 438.409 -0.742353 -0.132014 0
M  V30 4785 H 441.06 -1.79545 0.378948 0
M  V30 4786 H 439.442 -3.68772 -1.44304 0
M  V30 4787 H 440.616 -4.41426 1.32212 0
M  V30 4788 H 438.931 -4.03143 1.04232 0
M  V30 4789 H 441.528 -5.12831 -1.51357 0
M  V30 4790 H 441.871 -3.54908 -2.17592 0
M  V30 4791 H 442.404 -3.9434 -0.523542 0
M  V30 4792 H 439.143 -6.46161 1.10258 0
M  V30 4793 H 438.663 -5.97373 -0.539045 0
M  V30 4794 H 440.342 -6.46669 -0.206954 0
M  V30 4795 N 440.474 -0.00167713 -1.576 0
M  V30 4796 C 441.421 0.989195 -2.08527 0
M  V30 4797 C 442.391 1.34031 -0.981065 0
M  V30 4798 O 443.576 1.43839 -1.2536 0
M  V30 4799 C 440.716 2.27537 -2.59463 0
M  V30 4800 C 439.829 1.98314 -3.83791 0
M  V30 4801 C 438.964 3.21025 -4.23222 0
M  V30 4802 C 438.003 2.87495 -5.40382 0
M  V30 4803 N 437.14 4.02749 -5.75098 0
M  V30 4804 H 441.98 0.547973 -2.92919 0
M  V30 4805 H 439.517 0.258917 -1.44803 0
M  V30 4806 H 441.475 3.02729 -2.87073 0
M  V30 4807 H 440.105 2.69325 -1.77943 0
M  V30 4808 H 439.157 1.13482 -3.63078 0
M  V30 4809 H 440.469 1.69601 -4.69081 0
M  V30 4810 H 439.623 4.04561 -4.52123 0
M  V30 4811 H 438.362 3.52877 -3.36644 0
M  V30 4812 H 437.367 2.02367 -5.11202 0
M  V30 4813 H 438.592 2.56889 -6.28637 0
M  V30 4814 H 436.538 4.34494 -4.91478 0
M  V30 4815 H 436.455 3.77566 -6.54966 0
M  V30 4816 H 437.723 4.87068 -6.08592 0
M  V30 4817 N 441.952 1.55251 0.271103 0
M  V30 4818 C 442.885 1.83191 1.36075 0
M  V30 4819 C 443.863 0.685091 1.47463 0
M  V30 4820 O 445.047 0.928292 1.64058 0
M  V30 4821 C 442.174 1.99521 2.73696 0
M  V30 4822 C 441.22 3.22081 2.79582 0
M  V30 4823 S 442.053 4.79388 2.38636 0
M  V30 4824 C 443.209 4.98693 3.78228 0
M  V30 4825 H 443.442 2.75327 1.12171 0
M  V30 4826 H 440.975 1.47046 0.470833 0
M  V30 4827 H 442.933 2.09613 3.52948 0
M  V30 4828 H 441.594 1.0827 2.9485 0
M  V30 4829 H 440.787 3.304 3.80594 0
M  V30 4830 H 440.389 3.10589 2.08352 0
M  V30 4831 H 442.681 4.84551 4.73515 0
M  V30 4832 H 443.624 6.00738 3.7486 0
M  V30 4833 H 444.032 4.26665 3.69618 0
M  V30 4834 N 443.43 -0.535701 1.48216 0
M  V30 4835 C 444.658 -1.31671 1.59594 0
M  V30 4836 C 445.073 -1.87083 0.254056 0
M  V30 4837 O 444.43 -1.66112 -0.755854 0
M  V30 4838 C 444.481 -2.47158 2.63809 0
M  V30 4839 O 444.202 -1.94032 3.92789 0
M  V30 4840 C 445.703 -3.39062 2.85573 0
M  V30 4841 H 442.923 -0.400623 0.538277 0
M  V30 4842 H 445.467 -0.646827 1.94001 0
M  V30 4843 H 443.622 -3.10043 2.32276 0
M  V30 4844 H 444.036 -2.69585 4.49916 0
M  V30 4845 H 445.51 -4.16459 3.62306 0
M  V30 4846 H 445.987 -3.93941 1.94184 0
M  V30 4847 H 446.593 -2.81975 3.18387 0
M  V30 4848 N 444.908 -1.36708 -0.784132 0
M  V30 4849 C 446.319 -1.27947 -1.35965 0
M  V30 4850 C 446.67 0.0784013 -1.96043 0
M  V30 4851 O 445.795 0.979989 -1.92938 0
M  V30 4852 C 446.39 -2.31689 -2.47195 0
M  V30 4853 C 444.949 -2.26601 -3.00548 0
M  V30 4854 C 444.096 -2.16184 -1.73666 0
M  V30 4855 H 447.047 -1.4751 -0.585358 0
M  V30 4856 H 447.068 -1.95638 -3.26352 0
M  V30 4857 H 446.58 -3.30506 -2.03439 0
M  V30 4858 H 444.681 -1.31268 -3.48711 0
M  V30 4859 H 444.794 -3.19508 -3.57004 0
M  V30 4860 H 443.158 -1.62524 -1.96107 0
M  V30 4861 H 443.941 -3.16896 -1.32031 0
M  V30 4862 N 446.386 1.0089 -1.21074 0
M  V30 4863 C 447.802 1.2695 -0.967257 0
M  V30 4864 C 448.002 1.9846 0.348673 0
M  V30 4865 O 447.058 2.28459 1.0753 0
M  V30 4866 C 448.371 2.09697 -2.15517 0
M  V30 4867 C 449.919 2.22937 -2.197 0
M  V30 4868 C 450.394 3.09064 -3.37999 0
M  V30 4869 N 451.885 3.16653 -3.38061 0
M  V30 4870 C 452.62 3.8354 -4.26245 0
M  V30 4871 N 452.116 4.52488 -5.2462 0
M  V30 4872 N 453.909 3.80141 -4.14064 0
M  V30 4873 H 446.06 0.529005 -2.05707 0
M  V30 4874 H 448.323 0.296148 -0.900556 0
M  V30 4875 H 448.029 1.64497 -3.10859 0
M  V30 4876 H 447.903 3.10444 -2.14253 0
M  V30 4877 H 450.29 2.67357 -1.24916 0
M  V30 4878 H 450.371 1.21673 -2.2501 0
M  V30 4879 H 450.015 2.65347 -4.33074 0
M  V30 4880 H 449.945 4.10433 -3.29928 0
M  V30 4881 H 452.436 2.67566 -2.66865 0
M  V30 4882 H 452.749 5.01219 -5.88217 0
M  V30 4883 H 451.094 4.51288 -5.28549 0
M  V30 4884 H 454.285 3.25427 -3.36474 0
M  V30 4885 H 454.458 4.31992 -4.82998 0
M  V30 4886 N 447.864 1.01787 1.20321 0
M  V30 4887 C 449.28 0.732951 1.41774 0
M  V30 4888 C 449.48 -0.686883 1.89431 0
M  V30 4889 O 448.536 -1.45446 2.06402 0
M  V30 4890 C 449.849 1.75973 2.43832 0
M  V30 4891 C 451.397 1.77802 2.57596 0
M  V30 4892 C 451.872 2.7941 3.62897 0
M  V30 4893 N 453.363 2.78157 3.70382 0
M  V30 4894 C 454.098 3.53434 4.51521 0
M  V30 4895 N 453.594 4.38392 5.36455 0
M  V30 4896 N 455.387 3.42026 4.46066 0
M  V30 4897 H 447.538 1.93447 0.877035 0
M  V30 4898 H 449.801 0.835712 0.447536 0
M  V30 4899 H 449.507 2.77699 2.15815 0
M  V30 4900 H 449.381 1.57292 3.4284 0
M  V30 4901 H 451.768 0.767602 2.84942 0
M  V30 4902 H 451.849 2.00557 1.58779 0
M  V30 4903 H 451.493 3.80616 3.36295 0
M  V30 4904 H 451.423 2.53916 4.61339 0
M  V30 4905 H 453.914 2.16531 3.09714 0
M  V30 4906 H 454.227 4.92596 5.95457 0
M  V30 4907 H 452.572 4.4247 5.35953 0
M  V30 4908 H 455.763 2.75075 3.78749 0
M  V30 4909 H 455.936 4.00946 5.09064 0
M  V30 4910 N 449.342 -1.36122 0.79427 0
M  V30 4911 C 450.274 -2.28683 0.153903 0
M  V30 4912 C 451.287 -1.49707 -0.639669 0
M  V30 4913 O 452.476 -1.7209 -0.474054 0
M  V30 4914 C 449.576 -3.29202 -0.804921 0
M  V30 4915 C 448.749 -4.37358 -0.060366 0
M  V30 4916 C 447.808 -5.17811 -0.935849 0
M  V30 4917 O 446.834 -5.67853 -0.391309 0
M  V30 4918 N 448.036 -5.34721 -2.25951 0
M  V30 4919 H 450.801 -2.84278 0.949008 0
M  V30 4920 H 448.362 -1.4834 0.648611 0
M  V30 4921 H 450.354 -3.79914 -1.39455 0
M  V30 4922 H 448.924 -2.74212 -1.50088 0
M  V30 4923 H 448.144 -3.87746 0.710382 0
M  V30 4924 H 449.432 -5.06777 0.45324 0
M  V30 4925 H 448.83 -4.95687 -2.72601 0
M  V30 4926 H 447.387 -5.88657 -2.79867 0
M  V30 4927 N 450.82 -0.546701 -1.47814 0
M  V30 4928 C 451.767 0.206854 -2.29871 0
M  V30 4929 C 452.737 0.918235 -1.38411 0
M  V30 4930 O 453.922 0.915991 -1.67375 0
M  V30 4931 C 451.062 1.23746 -3.22151 0
M  V30 4932 C 450.175 0.533216 -4.28697 0
M  V30 4933 C 449.31 1.5482 -5.08138 0
M  V30 4934 C 448.349 0.828347 -6.06469 0
M  V30 4935 N 447.486 1.78966 -6.78908 0
M  V30 4936 H 452.326 -0.499037 -2.93792 0
M  V30 4937 H 449.863 -0.25793 -1.44821 0
M  V30 4938 H 451.821 1.84746 -3.74065 0
M  V30 4939 H 450.451 1.91151 -2.60117 0
M  V30 4940 H 449.503 -0.191089 -3.7992 0
M  V30 4941 H 450.815 -0.0311987 -4.9879 0
M  V30 4942 H 449.969 2.23202 -5.6415 0
M  V30 4943 H 448.708 2.14652 -4.37922 0
M  V30 4944 H 447.713 0.130539 -5.49645 0
M  V30 4945 H 448.938 0.235907 -6.7869 0
M  V30 4946 H 446.884 2.37675 -6.1143 0
M  V30 4947 H 446.801 1.27712 -7.45135 0
M  V30 4948 H 448.069 2.46496 -7.395 0
M  V30 4949 N 452.299 1.55045 -0.282633 0
M  V30 4950 C 453.246 2.22822 0.601566 0
M  V30 4951 C 454.216 1.20431 1.14392 0
M  V30 4952 O 455.401 1.48996 1.19184 0
M  V30 4953 C 452.541 2.95873 1.77632 0
M  V30 4954 C 451.654 4.12999 1.26711 0
M  V30 4955 C 450.789 4.73676 2.40426 0
M  V30 4956 C 449.828 5.82981 1.86545 0
M  V30 4957 N 448.965 6.3769 2.93762 0
M  V30 4958 H 453.805 2.97995 0.0169528 0
M  V30 4959 H 451.342 1.471 -0.00339964 0
M  V30 4960 H 453.3 3.36447 2.46697 0
M  V30 4961 H 451.93 2.2311 2.33285 0
M  V30 4962 H 450.982 3.77494 0.469314 0
M  V30 4963 H 452.294 4.91803 0.832518 0
M  V30 4964 H 451.448 5.17008 3.17471 0
M  V30 4965 H 450.187 3.94164 2.87203 0
M  V30 4966 H 449.192 5.39092 1.07983 0
M  V30 4967 H 450.417 6.64366 1.40694 0
M  V30 4968 H 448.363 5.61069 3.39908 0
M  V30 4969 H 448.28 7.11788 2.54744 0
M  V30 4970 H 449.548 6.8568 3.7076 0
M  V30 4971 N 453.777 0.010035 1.57597 0
M  V30 4972 C 454.707 -0.976857 2.12084 0
M  V30 4973 C 455.688 -1.35191 1.03235 0
M  V30 4974 O 456.873 -1.43389 1.3097 0
M  V30 4975 C 454.003 -2.26548 2.63236 0
M  V30 4976 C 452.957 -2.03175 3.76701 0
M  V30 4977 C 452.283 -3.38138 4.14206 0
M  V30 4978 C 453.583 -1.38625 5.03568 0
M  V30 4979 H 455.277 -0.523145 2.94794 0
M  V30 4980 H 452.823 -0.250195 1.4181 0
M  V30 4981 H 454.776 -2.95952 2.99984 0
M  V30 4982 H 453.5 -2.74051 1.77661 0
M  V30 4983 H 452.159 -1.36195 3.40362 0
M  V30 4984 H 451.807 -3.83363 3.25641 0
M  V30 4985 H 451.507 -3.23312 4.90656 0
M  V30 4986 H 453.031 -4.08841 4.53521 0
M  V30 4987 H 454.445 -1.98 5.38023 0
M  V30 4988 H 452.842 -1.34256 5.84889 0
M  V30 4989 H 453.912 -0.356722 4.83586 0
M  V30 4990 N 455.255 -1.55392 -0.262866 0
M  V30 4991 C 456.502 -1.76476 -0.993109 0
M  V30 4992 C 456.83 -0.571479 -1.85915 0
M  V30 4993 O 456.085 0.445733 -1.90556 0
M  V30 4994 C 456.384 -3.02889 -1.89718 0
M  V30 4995 C 456.05 -4.34974 -1.18781 0
M  V30 4996 C 454.712 -4.7087 -0.991699 0
M  V30 4997 C 457.064 -5.16695 -0.683798 0
M  V30 4998 C 454.392 -5.86036 -0.279024 0
M  V30 4999 C 456.744 -6.32598 0.0153327 0
M  V30 5000 C 455.408 -6.67127 0.223062 0
M  V30 5001 H 454.678 -0.64577 -0.363404 0
M  V30 5002 H 457.325 -1.89664 -0.264525 0
M  V30 5003 H 455.63 -2.84644 -2.6923 0
M  V30 5004 H 457.327 -3.16399 -2.46359 0
M  V30 5005 H 453.917 -4.06765 -1.35058 0
M  V30 5006 H 458.101 -4.8943 -0.8229 0
M  V30 5007 H 453.357 -6.11306 -0.107456 0
M  V30 5008 H 457.531 -6.95171 0.413584 0
M  V30 5009 H 455.158 -7.56216 0.777265 0
M  V30 5010 N 456.733 0.527833 -1.48498 0
M  V30 5011 C 457.973 1.29401 -1.58224 0
M  V30 5012 C 458.337 1.90348 -0.251327 0
M  V30 5013 O 459.538 2.67868 -0.223588 0
M  V30 5014 C 457.809 2.35266 -2.69044 0
M  V30 5015 S 459.368 3.2158 -2.98549 0
M  V30 5016 H 456.186 0.440138 -0.558391 0
M  V30 5017 H 458.788 0.601079 -1.8603 0
M  V30 5018 H 457.492 1.88975 -3.64303 0
M  V30 5019 H 457.023 3.09263 -2.43146 0
M  V30 5020 H 459.038 4.35391 -2.38011 0
M  V30 5021 N 458.211 1.37122 0.776871 0
M  V30 5022 C 459.627 1.1781 1.07671 0
M  V30 5023 C 459.827 0.0107454 2.01497 0
M  V30 5024 O 458.883 -0.650756 2.4397 0
M  V30 5025 C 460.196 2.49451 1.67913 0
M  V30 5026 C 461.744 2.55927 1.80195 0
M  V30 5027 C 462.219 3.87686 2.43851 0
M  V30 5028 N 463.71 3.891 2.51307 0
M  V30 5029 C 464.445 4.87797 3.014 0
M  V30 5030 N 463.941 5.96888 3.51705 0
M  V30 5031 N 465.734 4.75205 3.00227 0
M  V30 5032 H 457.885 2.11843 0.153778 0
M  V30 5033 H 460.148 0.938927 0.130844 0
M  V30 5034 H 459.854 3.35207 1.06439 0
M  V30 5035 H 459.728 2.66169 2.67271 0
M  V30 5036 H 462.115 1.70582 2.40803 0
M  V30 5037 H 462.196 2.43097 0.796069 0
M  V30 5038 H 461.84 4.73444 1.83884 0
M  V30 5039 H 461.77 3.97817 3.45035 0
M  V30 5040 H 464.261 3.10293 2.157 0
M  V30 5041 H 464.574 6.68155 3.88316 0
M  V30 5042 H 462.919 6.0054 3.49824 0
M  V30 5043 H 466.11 3.89103 2.60224 0
M  V30 5044 H 466.283 5.52279 3.38957 0
M  V30 5045 N 459.689 -1.00246 1.21608 0
M  V30 5046 C 460.919 -1.77373 1.05935 0
M  V30 5047 C 461.327 -1.85059 -0.393686 0
M  V30 5048 O 460.67 -1.31289 -1.28487 0
M  V30 5049 C 460.732 -3.22705 1.58435 0
M  V30 5050 C 460.396 -3.38591 3.06929 0
M  V30 5051 C 461.393 -3.2667 4.04454 0
M  V30 5052 C 459.078 -3.6395 3.46187 0
M  V30 5053 C 461.072 -3.39877 5.39224 0
M  V30 5054 C 458.759 -3.768 4.81108 0
M  V30 5055 C 459.757 -3.6477 5.77436 0
M  V30 5056 O 459.445 -3.77206 7.09909 0
M  V30 5057 H 459.177 -0.56419 0.372378 0
M  V30 5058 H 461.731 -1.26971 1.61454 0
M  V30 5059 H 459.961 -3.74255 0.973147 0
M  V30 5060 H 461.65 -3.81515 1.38568 0
M  V30 5061 H 462.416 -3.06999 3.75468 0
M  V30 5062 H 458.295 -3.72395 2.71741 0
M  V30 5063 H 461.839 -3.30404 6.14393 0
M  V30 5064 H 457.736 -3.95975 5.09779 0
M  V30 5065 H 458.504 -3.94138 7.17355 0
M  V30 5066 N 461.167 -1.02423 -1.1978 0
M  V30 5067 C 462.117 -0.571689 -2.20716 0
M  V30 5068 C 463.101 0.377077 -1.56419 0
M  V30 5069 O 464.293 0.198801 -1.7588 0
M  V30 5070 C 461.422 0.0808555 -3.43205 0
M  V30 5071 C 460.508 -0.890073 -4.14655 0
M  V30 5072 N 460.899 -2.05065 -4.62366 0
M  V30 5073 C 459.197 -0.71252 -4.40272 0
M  V30 5074 C 459.898 -2.66264 -5.17183 0
M  V30 5075 N 458.874 -1.94264 -5.07703 0
M  V30 5076 H 462.676 -1.45636 -2.55279 0
M  V30 5077 H 460.19 -0.890596 -1.35802 0
M  V30 5078 H 462.187 0.422654 -4.14752 0
M  V30 5079 H 460.847 0.961274 -3.10144 0
M  V30 5080 H 461.858 -2.43026 -4.57339 0
M  V30 5081 H 458.535 0.119199 -4.1733 0
M  V30 5082 H 459.925 -3.64526 -5.64421 0
M  V30 5083 N 462.645 1.35699 -0.801477 0
M  V30 5084 C 463.922 1.9324 -0.302937 0
M  V30 5085 C 464.302 1.73209 1.20672 0
M  V30 5086 O 463.65 1.09809 2.00385 0
M  V30 5087 C 463.86 3.41728 -0.708747 0
M  V30 5088 C 465.208 4.18868 -0.695328 0
M  V30 5089 O 466.232 3.5022 -0.649971 0
M  V30 5090 O 465.091 5.41342 -0.749081 0
M  V30 5091 H 462.185 0.82331 -0.0780367 0
M  V30 5092 H 464.731 1.44806 -0.884832 0
M  V30 5093 H 463.503 3.50015 -1.74944 0
M  V30 5094 H 463.126 3.97471 -0.101384 0
M  V30 5095 N 464.123 0.554532 1.47522 0
M  V30 5096 C 465.371 0.0294208 2.02079 0
M  V30 5097 C 465.692 -1.32411 1.43151 0
M  V30 5098 O 464.962 -1.863 0.605728 0
M  V30 5099 H 463.542 0.00788672 0.746958 0
M  V30 5100 H 466.204 0.723934 1.80956 0
M  V30 5101 H 465.3 -0.0606745 3.12041 0
M  V30 5102 N 465.601 -1.54893 0.290851 0
M  V30 5103 C 466.549 -2.24579 -0.605576 0
M  V30 5104 C 467.543 -1.24824 -1.14522 0
M  V30 5105 O 468.749 -1.42706 -1.09704 0
M  V30 5106 H 465.124 -0.720946 -0.213872 0
M  V30 5107 H 467.095 -2.984 0.0048173 0
M  V30 5108 C 465.844 -2.99224 -1.77088 0
M  V30 5109 H 465.167 -3.75782 -1.36484 0
M  V30 5110 H 466.607 -3.51281 -2.3744 0
M  V30 5111 C 465.066 -2.05602 -2.66888 0
M  V30 5112 O 465.596 -1.61745 -3.67698 0
M  V30 5113 N 463.802 -1.71771 -2.34399 0
M  V30 5114 H 463.349 -2.07633 -1.52468 0
M  V30 5115 H 463.307 -1.09403 -2.94751 0
M  V30 5116 N 467.08 -0.0183926 -1.57589 0
M  V30 5117 C 468.496 0.337897 -1.55982 0
M  V30 5118 C 468.696 1.73604 -1.02294 0
M  V30 5119 O 467.752 2.43589 -0.664895 0
M  V30 5120 C 469.065 0.196305 -3.00059 0
M  V30 5121 C 470.613 0.269875 -3.11834 0
M  V30 5122 C 471.088 0.157197 -4.5773 0
M  V30 5123 N 472.579 0.214521 -4.62703 0
M  V30 5124 C 473.314 0.150955 -5.73201 0
M  V30 5125 N 472.81 0.0369212 -6.9279 0
M  V30 5126 N 474.603 0.204162 -5.61729 0
M  V30 5127 H 466.754 -0.93279 -1.90821 0
M  V30 5128 H 469.017 -0.359253 -0.877292 0
M  V30 5129 H 468.723 -0.766383 -3.43248 0
M  V30 5130 H 468.597 0.970908 -3.6449 0
M  V30 5131 H 470.984 1.22302 -2.68563 0
M  V30 5132 H 471.065 -0.534918 -2.50144 0
M  V30 5133 H 470.709 -0.792479 -5.01679 0
M  V30 5134 H 470.639 0.980717 -5.17387 0
M  V30 5135 H 473.13 0.303238 -3.76681 0
M  V30 5136 H 473.443 -0.00518321 -7.728 0
M  V30 5137 H 471.788 0.0022886 -6.95 0
M  V30 5138 H 474.979 0.291575 -4.67191 0
M  V30 5139 H 475.152 0.15116 -6.47824 0
M  V30 5140 N 468.558 1.5553 0.254621 0
M  V30 5141 C 469.506 1.9048 1.33492 0
M  V30 5142 C 470.5 0.78304 1.50216 0
M  V30 5143 O 471.706 0.967582 1.51782 0
M  V30 5144 H 468.081 0.604846 0.44684 0
M  V30 5145 H 470.052 2.80688 1.01275 0
M  V30 5146 C 468.801 2.20928 2.68489 0
M  V30 5147 H 468.124 3.06742 2.56417 0
M  V30 5148 H 469.564 2.49291 3.42972 0
M  V30 5149 C 468.023 1.023 3.20993 0
M  V30 5150 O 468.553 0.267027 4.00811 0
M  V30 5151 N 466.759 0.815714 2.78917 0
M  V30 5152 H 466.306 1.43217 2.14119 0
M  V30 5153 H 466.264 0.0236532 3.14391 0
M  V30 5154 N 470.036 -0.519951 1.48776 0
M  V30 5155 C 471.447 -1.10177 1.50725 0
M  V30 5156 C 471.798 -1.94153 0.282678 0
M  V30 5157 O 470.923 -2.07645 -0.609298 0
M  V30 5158 C 471.518 -2.00482 2.73116 0
M  V30 5159 C 470.077 -2.53862 2.77905 0
M  V30 5160 C 469.224 -1.31047 2.44381 0
M  V30 5161 H 472.175 -0.30473 1.55747 0
M  V30 5162 H 472.196 -2.8491 2.52203 0
M  V30 5163 H 471.708 -1.39335 3.62225 0
M  V30 5164 H 469.809 -3.18702 1.93029 0
M  V30 5165 H 469.922 -2.9231 3.79594 0
M  V30 5166 H 468.286 -1.62953 1.95751 0
M  V30 5167 H 469.069 -0.71637 3.35743 0
M  V30 5168 N 471.514 -1.37532 -0.769588 0
M  V30 5169 C 472.461 -1.3347 -1.88293 0
M  V30 5170 C 473.431 -0.199891 -1.64893 0
M  V30 5171 O 474.616 -0.389594 -1.8678 0
M  V30 5172 C 471.756 -1.14968 -3.25387 0
M  V30 5173 C 470.869 -2.37698 -3.60727 0
M  V30 5174 C 470.004 -2.12051 -4.8704 0
M  V30 5175 C 469.043 -3.30636 -5.15117 0
M  V30 5176 N 468.18 -3.04527 -6.3262 0
M  V30 5177 H 473.02 -2.28658 -1.911 0
M  V30 5178 H 470.557 -1.13622 -0.934257 0
M  V30 5179 H 472.515 -1.02261 -4.04473 0
M  V30 5180 H 471.145 -0.234263 -3.21949 0
M  V30 5181 H 470.197 -2.61137 -2.76608 0
M  V30 5182 H 471.509 -3.26131 -3.77413 0
M  V30 5183 H 470.663 -1.96388 -5.74035 0
M  V30 5184 H 469.402 -1.20959 -4.72462 0
M  V30 5185 H 468.407 -3.46836 -4.26597 0
M  V30 5186 H 469.632 -4.22582 -5.31603 0
M  V30 5187 H 467.578 -2.16067 -6.19396 0
M  V30 5188 H 467.495 -3.86503 -6.49732 0
M  V30 5189 H 468.763 -2.92485 -7.22546 0
M  V30 5190 N 472.992 0.995999 -1.22138 0
M  V30 5191 C 474.239 1.7351 -1.04406 0
M  V30 5192 C 474.567 1.89884 0.421244 0
M  V30 5193 O 473.822 1.43683 1.32867 0
M  V30 5194 C 474.121 3.14553 -1.6968 0
M  V30 5195 C 473.787 3.18102 -3.19565 0
M  V30 5196 C 472.449 3.18778 -3.60464 0
M  V30 5197 C 474.801 3.14636 -4.15516 0
M  V30 5198 C 472.129 3.13684 -4.95801 0
M  V30 5199 C 474.481 3.11084 -5.50826 0
M  V30 5200 C 473.145 3.10074 -5.91109 0
M  V30 5201 H 472.415 0.634916 -0.38205 0
M  V30 5202 H 475.062 1.1667 -1.51857 0
M  V30 5203 H 473.367 3.74682 -1.14546 0
M  V30 5204 H 475.064 3.70477 -1.53454 0
M  V30 5205 H 471.654 3.18324 -2.86998 0
M  V30 5206 H 475.838 3.13266 -3.84939 0
M  V30 5207 H 471.094 3.11245 -5.26247 0
M  V30 5208 H 475.268 3.07357 -6.24904 0
M  V30 5209 H 472.895 3.05882 -6.95946 0
M  V30 5210 N 474.47 1.03057 1.19235 0
M  V30 5211 C 475.719 0.72326 1.88287 0
M  V30 5212 C 476.032 -0.751333 1.80594 0
M  V30 5213 O 477.238 -1.17176 2.44912 0
M  V30 5214 C 475.694 1.24338 3.3774 0
M  V30 5215 C 475.302 2.74587 3.53986 0
M  V30 5216 C 477.046 1.01213 4.12257 0
M  V30 5217 C 474.953 3.20009 4.97341 0
M  V30 5218 H 473.883 0.266848 0.705201 0
M  V30 5219 H 476.534 1.24509 1.34795 0
M  V30 5220 H 474.916 0.649457 3.90638 0
M  V30 5221 H 476.09 3.39649 3.11408 0
M  V30 5222 H 474.405 2.9601 2.9286 0
M  V30 5223 H 477.002 1.32675 5.17978 0
M  V30 5224 H 477.345 -0.051001 4.16269 0
M  V30 5225 H 477.878 1.57014 3.65501 0
M  V30 5226 H 474.617 4.25659 4.98493 0
M  V30 5227 H 474.137 2.59676 5.40674 0
M  V30 5228 H 475.816 3.13447 5.66003 0
M  V30 5229 N 475.948 -1.35272 0.808662 0
M  V30 5230 C 476.878 -2.32315 0.234981 0
M  V30 5231 C 477.859 -1.57572 -0.64071 0
M  V30 5232 O 479.044 -1.8563 -0.570551 0
M  V30 5233 C 476.174 -3.41801 -0.615601 0
M  V30 5234 C 475.128 -4.27694 0.161767 0
M  V30 5235 C 474.454 -5.28519 -0.810649 0
M  V30 5236 C 475.754 -5.04231 1.36193 0
M  V30 5237 H 477.448 -2.80543 1.04575 0
M  V30 5238 H 474.994 -1.3488 0.504315 0
M  V30 5239 H 476.947 -4.08693 -1.02702 0
M  V30 5240 H 475.671 -2.92186 -1.45928 0
M  V30 5241 H 474.33 -3.62384 0.554382 0
M  V30 5242 H 473.978 -4.75171 -1.64988 0
M  V30 5243 H 473.678 -5.8686 -0.294822 0
M  V30 5244 H 475.202 -5.98283 -1.22023 0
M  V30 5245 H 476.616 -5.64058 1.02528 0
M  V30 5246 H 475.013 -5.72077 1.81239 0
M  V30 5247 H 476.083 -4.34753 2.14751 0
M  V30 5248 N 477.426 -0.562348 -1.47226 0
M  V30 5249 C 478.389 0.172056 -2.28553 0
M  V30 5250 C 479.389 0.837928 -1.37242 0
M  V30 5251 O 480.579 0.693001 -1.59822 0
M  V30 5252 C 477.711 1.25223 -3.17068 0
M  V30 5253 H 478.904 -0.542401 -2.94954 0
M  V30 5254 H 476.457 -0.319493 -1.53 0
M  V30 5255 H 477.192 1.99892 -2.55369 0
M  V30 5256 H 476.977 0.779515 -3.84273 0
M  V30 5257 H 478.467 1.76791 -3.78332 0
M  V30 5258 N 478.904 1.54736 -0.299062 0
M  V30 5259 C 480.315 1.8569 0.193971 0
M  V30 5260 C 480.666 1.22101 1.53577 0
M  V30 5261 O 479.791 0.51799 2.10109 0
M  V30 5262 C 480.386 3.36895 0.358733 0
M  V30 5263 C 478.945 3.67887 0.795986 0
M  V30 5264 C 478.092 2.77131 -0.096807 0
M  V30 5265 H 481.043 1.49934 -0.520134 0
M  V30 5266 H 481.064 3.61294 1.19361 0
M  V30 5267 H 480.576 3.83148 -0.617998 0
M  V30 5268 H 478.677 3.27151 1.78334 0
M  V30 5269 H 478.79 4.75114 0.616718 0
M  V30 5270 H 477.154 2.51153 0.423581 0
M  V30 5271 H 477.937 3.26204 -1.06986 0
M  V30 5272 N 480.382 0.0267497 1.57577 0
M  V30 5273 C 481.345 -0.940916 2.08996 0
M  V30 5274 C 482.345 -1.25561 1.00455 0
M  V30 5275 O 483.535 -1.19634 1.26623 0
M  V30 5276 C 480.667 -2.25814 2.55384 0
M  V30 5277 H 481.86 -0.495628 2.95776 0
M  V30 5278 H 479.413 -0.221241 1.54726 0
M  V30 5279 H 480.148 -2.74976 1.71926 0
M  V30 5280 H 479.933 -2.04285 3.34679 0
M  V30 5281 H 481.423 -2.95178 2.95398 0
M  V30 5282 N 481.861 -1.55662 -0.24637 0
M  V30 5283 C 482.808 -1.90361 -1.30504 0
M  V30 5284 C 483.778 -0.757905 -1.47801 0
M  V30 5285 O 484.963 -1.01161 -1.61775 0
M  V30 5286 C 482.103 -2.2042 -2.65535 0
M  V30 5287 C 481.216 -3.47799 -2.56242 0
M  V30 5288 C 480.351 -3.67426 -3.8363 0
M  V30 5289 C 479.39 -4.88403 -3.68956 0
M  V30 5290 N 478.527 -5.04548 -4.88237 0
M  V30 5291 H 483.367 -2.80645 -1.00213 0
M  V30 5292 H 480.904 -1.38924 -0.483577 0
M  V30 5293 H 482.862 -2.35853 -3.44135 0
M  V30 5294 H 481.492 -1.3334 -2.93973 0
M  V30 5295 H 480.544 -3.40694 -1.69208 0
M  V30 5296 H 481.856 -4.36544 -2.4131 0
M  V30 5297 H 481.01 -3.82821 -4.70673 0
M  V30 5298 H 479.749 -2.76914 -4.01459 0
M  V30 5299 H 478.754 -4.72984 -2.80296 0
M  V30 5300 H 479.979 -5.80375 -3.52621 0
M  V30 5301 H 477.925 -4.16974 -5.06427 0
M  V30 5302 H 477.842 -5.87384 -4.75937 0
M  V30 5303 H 479.11 -5.24355 -5.76777 0
M  V30 5304 N 483.339 0.512053 -1.4905 0
M  V30 5305 C 484.271 1.63121 -1.6101 0
M  V30 5306 C 485.284 1.55145 -0.493352 0
M  V30 5307 O 486.473 1.61278 -0.764955 0
M  V30 5308 C 483.573 3.01863 -1.54052 0
M  V30 5309 C 482.746 3.35138 -2.81072 0
M  V30 5310 C 481.805 4.5324 -2.67319 0
M  V30 5311 O 480.831 4.55571 -3.41238 0
M  V30 5312 N 482.033 5.52495 -1.78127 0
M  V30 5313 H 484.798 1.53292 -2.5753 0
M  V30 5314 H 482.359 0.699706 -1.45999 0
M  V30 5315 H 484.351 3.78774 -1.42521 0
M  V30 5316 H 482.921 3.05675 -0.654345 0
M  V30 5317 H 482.141 2.4723 -3.07036 0
M  V30 5318 H 483.429 3.54162 -3.65304 0
M  V30 5319 H 482.827 5.53403 -1.17308 0
M  V30 5320 H 481.384 6.28553 -1.72525 0
M  V30 5321 N 484.817 1.37938 0.762283 0
M  V30 5322 C 485.727 1.36681 1.90671 0
M  V30 5323 C 486.743 0.265078 1.71969 0
M  V30 5324 O 487.919 0.502055 1.95042 0
M  V30 5325 C 484.984 1.18211 3.25925 0
M  V30 5326 C 484.045 2.3811 3.57214 0
M  V30 5327 C 483.278 2.20512 4.86014 0
M  V30 5328 O 483.501 1.19429 5.57757 0
M  V30 5329 O 482.435 3.08911 5.16583 0
M  V30 5330 H 486.261 2.33091 1.94685 0
M  V30 5331 H 483.846 1.18767 0.906356 0
M  V30 5332 H 485.728 1.09937 4.06807 0
M  V30 5333 H 484.403 0.248807 3.22742 0
M  V30 5334 H 483.31 2.51958 2.76529 0
M  V30 5335 H 484.643 3.30041 3.65149 0
M  V30 5336 N 486.295 -0.989507 1.22664 0
M  V30 5337 C 487.572 -1.70326 0.961688 0
M  V30 5338 C 487.952 -2.04537 -0.522279 0
M  V30 5339 O 487.3 -1.73136 -1.49118 0
M  V30 5340 C 487.51 -2.95135 1.86269 0
M  V30 5341 C 488.858 -3.67842 2.12078 0
M  V30 5342 O 489.882 -3.0515 1.83745 0
M  V30 5343 O 488.741 -4.80644 2.60083 0
M  V30 5344 H 485.835 -0.743589 0.361946 0
M  V30 5345 H 488.381 -1.04555 1.33665 0
M  V30 5346 H 487.153 -2.66382 2.8663 0
M  V30 5347 H 486.776 -3.68645 1.48952 0
M  V30 5348 N 487.773 -1.03688 -1.18687 0
M  V30 5349 C 488.683 -0.634908 -2.25845 0
M  V30 5350 C 489.699 0.337065 -1.70704 0
M  V30 5351 O 490.875 0.192943 -2.00474 0
M  V30 5352 C 487.94 -0.000180054 -3.467 0
M  V30 5353 C 487.001 -1.02067 -4.1699 0
M  V30 5354 C 486.234 -0.41614 -5.32075 0
M  V30 5355 O 486.457 0.778712 -5.65059 0
M  V30 5356 O 485.391 -1.14296 -5.90948 0
M  V30 5357 H 489.217 -1.52757 -2.62486 0
M  V30 5358 H 486.802 -0.807533 -1.25695 0
M  V30 5359 H 488.684 0.353342 -4.19916 0
M  V30 5360 H 487.359 0.866367 -3.11891 0
M  V30 5361 H 486.266 -1.42592 -3.45859 0
M  V30 5362 H 487.599 -1.85786 -4.5579 0
M  V30 5363 N 489.251 1.34841 -0.815825 0
M  V30 5364 C 490.497 1.99219 -0.410288 0
M  V30 5365 C 490.852 1.63532 1.01366 0
M  V30 5366 O 490.145 0.893093 1.69512 0
M  V30 5367 C 490.339 3.53273 -0.541541 0
M  V30 5368 C 490.168 4.03927 -1.9767 0
M  V30 5369 C 488.938 4.32852 -2.60706 0
M  V30 5370 C 491.136 4.21808 -2.9425 0
M  V30 5371 N 489.118 4.69494 -3.95536 0
M  V30 5372 C 490.489 4.6155 -4.13971 0
M  V30 5373 C 492.544 4.04038 -2.9096 0
M  V30 5374 C 491.247 4.85381 -5.30847 0
M  V30 5375 C 493.273 4.29031 -4.07046 0
M  V30 5376 C 492.635 4.69054 -5.25517 0
M  V30 5377 H 488.734 0.756494 -0.198094 0
M  V30 5378 H 491.318 1.63379 -1.05902 0
M  V30 5379 H 489.489 3.88323 0.0772544 0
M  V30 5380 H 491.221 4.04551 -0.109694 0
M  V30 5381 H 487.976 4.23503 -2.11995 0
M  V30 5382 H 488.4 4.92061 -4.64979 0
M  V30 5383 H 493.042 3.7223 -2.00512 0
M  V30 5384 H 490.76 5.16059 -6.21859 0
M  V30 5385 H 494.346 4.16826 -4.05891 0
M  V30 5386 H 493.226 4.88014 -6.1385 0
M  V30 5387 N 490.729 0.570148 1.46925 0
M  V30 5388 C 492.006 -0.0153259 1.95594 0
M  V30 5389 C 492.386 -1.47232 1.51281 0
M  V30 5390 O 491.734 -2.15574 0.757624 0
M  V30 5391 C 491.944 0.143624 3.48704 0
M  V30 5392 C 493.292 0.00494484 4.246 0
M  V30 5393 O 494.316 0.0718214 3.56128 0
M  V30 5394 O 493.175 -0.141175 5.46318 0
M  V30 5395 H 490.269 -0.0568819 0.825041 0
M  V30 5396 H 492.815 0.637583 1.57267 0
M  V30 5397 H 491.587 1.15699 3.73804 0
M  V30 5398 H 491.21 -0.5463 3.93829 0
M  V30 5399 N 492.207 -1.54576 0.307264 0
M  V30 5400 C 493.154 -2.23751 -0.56604 0
M  V30 5401 C 494.124 -1.22235 -1.12462 0
M  V30 5402 O 495.309 -1.50873 -1.16799 0
M  V30 5403 C 492.449 -2.98661 -1.72903 0
M  V30 5404 C 491.562 -4.14963 -1.20124 0
M  V30 5405 C 490.697 -4.77441 -2.3286 0
M  V30 5406 C 489.736 -5.85875 -1.77247 0
M  V30 5407 N 488.873 -6.42282 -2.8358 0
M  V30 5408 H 493.713 -2.97984 0.0304578 0
M  V30 5409 H 491.25 -1.47076 0.0268015 0
M  V30 5410 H 493.208 -3.40329 -2.41313 0
M  V30 5411 H 491.838 -2.26793 -2.29706 0
M  V30 5412 H 490.89 -3.78193 -0.409198 0
M  V30 5413 H 492.202 -4.93066 -0.754171 0
M  V30 5414 H 491.356 -5.21993 -3.09205 0
M  V30 5415 H 490.095 -3.98684 -2.80896 0
M  V30 5416 H 489.1 -5.40741 -0.993926 0
M  V30 5417 H 490.325 -6.6652 -1.30107 0
M  V30 5418 H 488.271 -5.66406 -3.30939 0
M  V30 5419 H 488.188 -7.1575 -2.43388 0
M  V30 5420 H 489.456 -6.91492 -3.59804 0
M  V30 5421 N 493.685 -0.035106 -1.57561 0
M  V30 5422 C 495.096 0.502885 -1.798 0
M  V30 5423 C 495.447 1.71892 -0.945921 0
M  V30 5424 O 494.572 2.15822 -0.157991 0
M  V30 5425 C 495.167 0.919097 -3.26095 0
M  V30 5426 C 493.726 1.40216 -3.49308 0
M  V30 5427 C 492.873 0.369709 -2.74824 0
M  V30 5428 H 495.824 -0.261102 -1.56537 0
M  V30 5429 H 495.845 1.78308 -3.36135 0
M  V30 5430 H 495.357 0.0338526 -3.88085 0
M  V30 5431 H 493.458 2.30714 -2.92578 0
M  V30 5432 H 493.571 1.40541 -4.58023 0
M  V30 5433 H 491.935 0.839113 -2.40481 0
M  V30 5434 H 492.718 -0.507173 -3.39533 0
M  V30 5435 N 495.163 1.55791 0.238111 0
M  V30 5436 C 496.579 1.48411 0.587045 0
M  V30 5437 C 496.779 0.72702 1.87927 0
M  V30 5438 O 495.835 0.259942 2.51158 0
M  V30 5439 C 497.148 2.92873 0.681623 0
M  V30 5440 C 498.696 3.03295 0.773363 0
M  V30 5441 C 499.171 4.49082 0.899428 0
M  V30 5442 N 500.662 4.53056 0.964075 0
M  V30 5443 C 501.397 5.63117 1.08104 0
M  V30 5444 N 500.893 6.82969 1.16299 0
M  V30 5445 N 502.686 5.50933 1.11488 0
M  V30 5446 H 494.837 2.0345 -0.610076 0
M  V30 5447 H 497.1 0.924034 -0.211813 0
M  V30 5448 H 496.806 3.51142 -0.19802 0
M  V30 5449 H 496.68 3.43851 1.55069 0
M  V30 5450 H 499.067 2.45101 1.64346 0
M  V30 5451 H 499.148 2.55513 -0.121034 0
M  V30 5452 H 498.792 5.07889 0.0338586 0
M  V30 5453 H 498.722 4.94553 1.809 0
M  V30 5454 H 501.213 3.66737 0.91173 0
M  V30 5455 H 501.526 7.62598 1.25155 0
M  V30 5456 H 499.871 6.85712 1.13241 0
M  V30 5457 H 503.062 4.56231 1.0474 0
M  V30 5458 H 503.235 6.36743 1.20259 0
M  V30 5459 N 496.642 -0.504142 1.49319 0
M  V30 5460 C 497.891 -1.25507 1.57895 0
M  V30 5461 C 498.204 -1.93735 0.269433 0
M  V30 5462 O 499.41 -2.70492 0.233706 0
M  V30 5463 C 497.866 -2.27869 2.78574 0
M  V30 5464 C 497.474 -1.65594 4.16272 0
M  V30 5465 C 499.218 -3.0381 2.96479 0
M  V30 5466 C 497.125 -2.66048 5.28178 0
M  V30 5467 H 496.055 -0.47212 0.587894 0
M  V30 5468 H 498.706 -0.52931 1.757 0
M  V30 5469 H 497.088 -3.03594 2.54257 0
M  V30 5470 H 498.262 -0.958826 4.50714 0
M  V30 5471 H 496.577 -1.02055 4.037 0
M  V30 5472 H 499.174 -3.78925 3.77253 0
M  V30 5473 H 499.517 -3.61235 2.06918 0
M  V30 5474 H 500.05 -2.352 3.20821 0
M  V30 5475 H 496.789 -2.13408 6.19788 0
M  V30 5476 H 496.309 -3.34009 4.98195 0
M  V30 5477 H 497.988 -3.28536 5.57381 0
M  V30 5478 N 498.12 -1.38341 -0.754957 0
M  V30 5479 C 499.369 -1.33791 -1.5094 0
M  V30 5480 C 499.682 0.0699267 -1.95475 0
M  V30 5481 O 500.888 0.237956 -2.70455 0
M  V30 5482 C 499.344 -2.34934 -2.72643 0
M  V30 5483 C 498.952 -3.81332 -2.35138 0
M  V30 5484 C 500.696 -2.39425 -3.50536 0
M  V30 5485 C 498.603 -4.74164 -3.53444 0
M  V30 5486 H 497.533 -0.497314 -0.566741 0
M  V30 5487 H 500.184 -1.63888 -0.825403 0
M  V30 5488 H 498.566 -1.97878 -3.43017 0
M  V30 5489 H 499.74 -4.27319 -1.7244 0
M  V30 5490 H 498.055 -3.79946 -1.70382 0
M  V30 5491 H 500.652 -3.0598 -4.38498 0
M  V30 5492 H 500.995 -1.41278 -3.91594 0
M  V30 5493 H 501.528 -2.75274 -2.87174 0
M  V30 5494 H 498.267 -5.73501 -3.17453 0
M  V30 5495 H 497.787 -4.3287 -4.15191 0
M  V30 5496 H 499.466 -4.92111 -4.20043 0
M  V30 5497 N 499.598 0.982988 -1.23187 0
M  V30 5498 C 501.014 1.2487 -0.993967 0
M  V30 5499 C 501.214 1.99155 0.306498 0
M  V30 5500 O 500.27 2.30688 1.0266 0
M  V30 5501 C 501.583 2.05078 -2.19917 0
M  V30 5502 C 503.131 2.18227 -2.2438 0
M  V30 5503 C 503.606 3.01825 -3.44479 0
M  V30 5504 N 505.097 3.09411 -3.44702 0
M  V30 5505 C 505.832 3.74412 -4.34285 0
M  V30 5506 N 505.328 4.41259 -5.341 0
M  V30 5507 N 507.121 3.71273 -4.22035 0
M  V30 5508 H 499.272 0.485253 -2.06783 0
M  V30 5509 H 501.535 0.276979 -0.906635 0
M  V30 5510 H 501.241 1.57867 -3.14279 0
M  V30 5511 H 501.115 3.05829 -2.2079 0
M  V30 5512 H 503.502 2.64648 -1.30559 0
M  V30 5513 H 503.583 1.16873 -2.2754 0
M  V30 5514 H 503.227 2.56102 -4.38605 0
M  V30 5515 H 503.157 4.03342 -3.38559 0
M  V30 5516 H 505.648 2.61845 -2.7248 0
M  V30 5517 H 505.961 4.88629 -5.98717 0
M  V30 5518 H 504.306 4.39975 -5.38002 0
M  V30 5519 H 507.497 3.18217 -3.43301 0
M  V30 5520 H 507.67 4.21649 -4.92053 0
M  V30 5521 N 501.076 1.04316 1.18135 0
M  V30 5522 C 502.323 0.74802 1.88178 0
M  V30 5523 C 502.651 -0.72441 1.80506 0
M  V30 5524 O 501.906 -1.54463 1.20165 0
M  V30 5525 C 502.205 1.16271 3.37958 0
M  V30 5526 C 501.871 2.63585 3.65833 0
M  V30 5527 C 500.533 3.03829 3.73151 0
M  V30 5528 C 502.885 3.58822 3.78016 0
M  V30 5529 C 500.213 4.38194 3.90132 0
M  V30 5530 C 502.565 4.92909 3.96514 0
M  V30 5531 C 501.229 5.3282 4.02068 0
M  V30 5532 H 500.499 0.27372 0.688592 0
M  V30 5533 H 503.146 1.30863 1.39811 0
M  V30 5534 H 501.451 0.520938 3.88321 0
M  V30 5535 H 503.148 0.911672 3.90499 0
M  V30 5536 H 499.738 2.31414 3.60757 0
M  V30 5537 H 503.922 3.28875 3.71692 0
M  V30 5538 H 499.178 4.68631 3.92677 0
M  V30 5539 H 503.352 5.66606 4.04883 0
M  V30 5540 H 500.979 6.36943 4.14979 0
M  V30 5541 N 502.554 -1.34406 0.822964 0
M  V30 5542 C 503.504 -2.26963 0.217208 0
M  V30 5543 C 504.488 -1.48536 -0.618545 0
M  V30 5544 O 505.68 -1.7056 -0.473118 0
M  V30 5545 C 502.809 -3.37655 -0.619973 0
M  V30 5546 C 501.895 -4.23495 0.226411 0
M  V30 5547 N 502.286 -4.88876 1.29744 0
M  V30 5548 C 500.584 -4.45999 0.0107554 0
M  V30 5549 C 501.285 -5.52642 1.81553 0
M  V30 5550 N 500.261 -5.31949 1.11942 0
M  V30 5551 H 504.063 -2.75017 1.03647 0
M  V30 5552 H 501.577 -1.48126 0.665777 0
M  V30 5553 H 503.574 -4.02932 -1.07011 0
M  V30 5554 H 502.234 -2.91151 -1.43739 0
M  V30 5555 H 503.245 -4.89886 1.68024 0
M  V30 5556 H 499.922 -4.10253 -0.774495 0
M  V30 5557 H 501.312 -6.14755 2.71156 0
M  V30 5558 N 504.032 -0.577932 -1.46621 0
M  V30 5559 C 505.309 0.00495287 -1.95599 0
M  V30 5560 C 505.689 1.46428 -1.5206 0
M  V30 5561 O 505.037 2.1517 -0.769046 0
M  V30 5562 C 505.247 -0.162114 -3.48623 0
M  V30 5563 C 506.595 -0.0274623 -4.24591 0
M  V30 5564 O 507.619 -0.0907067 -3.56084 0
M  V30 5565 O 506.478 0.1122 -5.46385 0
M  V30 5566 H 503.572 0.0525057 -0.825332 0
M  V30 5567 H 506.118 -0.645914 -1.56927 0
M  V30 5568 H 504.89 -1.17679 -3.73185 0
M  V30 5569 H 504.513 0.525407 -3.94113 0
M  V30 5570 N 505.51 1.54411 -0.315457 0
M  V30 5571 C 506.759 1.99599 0.290395 0
M  V30 5572 C 507.072 1.20746 1.53882 0
M  V30 5573 O 508.278 1.56272 2.22017 0
M  V30 5574 C 506.734 3.5539 0.56797 0
M  V30 5575 C 506.342 4.43068 -0.662945 0
M  V30 5576 C 508.086 4.09067 1.13422 0
M  V30 5577 C 505.993 5.90317 -0.357722 0
M  V30 5578 H 504.923 0.745592 0.112286 0
M  V30 5579 H 507.574 1.78477 -0.426418 0
M  V30 5580 H 505.956 3.72468 1.34476 0
M  V30 5581 H 507.13 4.37765 -1.43869 0
M  V30 5582 H 505.445 4.00238 -1.14884 0
M  V30 5583 H 508.042 5.16663 1.37707 0
M  V30 5584 H 508.385 3.60552 2.08106 0
M  V30 5585 H 508.918 3.95589 0.418805 0
M  V30 5586 H 505.657 6.4301 -1.27351 0
M  V30 5587 H 505.177 5.98592 0.380472 0
M  V30 5588 H 506.856 6.4699 0.0354284 0
M  V30 5589 N 506.988 0.0434614 1.5754 0
M  V30 5590 C 508.237 -0.631454 1.91561 0
M  V30 5591 C 508.55 -1.72457 0.92292 0
M  V30 5592 O 509.756 -2.45712 1.15489 0
M  V30 5593 C 508.212 -1.17447 3.40197 0
M  V30 5594 C 507.82 -0.113867 4.47855 0
M  V30 5595 C 509.564 -1.82507 3.83264 0
M  V30 5596 C 507.471 -0.669326 5.876 0
M  V30 5597 H 506.401 -0.239629 0.714908 0
M  V30 5598 H 509.052 0.111097 1.83163 0
M  V30 5599 H 507.434 -1.96909 3.43574 0
M  V30 5600 H 508.608 0.659348 4.56058 0
M  V30 5601 H 506.923 0.438821 4.14081 0
M  V30 5602 H 509.52 -2.25047 4.85034 0
M  V30 5603 H 509.863 -2.67365 3.19095 0
M  V30 5604 H 510.396 -1.09712 3.82372 0
M  V30 5605 H 507.135 0.141449 6.55347 0
M  V30 5606 H 506.655 -1.4107 5.82974 0
M  V30 5607 H 508.334 -1.15463 6.36614 0
M  V30 5608 N 508.466 -1.55915 -0.229846 0
M  V30 5609 C 509.691 -1.8296 -0.976743 0
M  V30 5610 C 510.116 -0.622735 -1.77493 0
M  V30 5611 O 509.474 0.428431 -1.76165 0
M  V30 5612 C 509.522 -3.07916 -1.8767 0
M  V30 5613 O 508.626 -2.86028 -2.97088 0
M  V30 5614 H 507.967 -0.603453 -0.277021 0
M  V30 5615 H 510.497 -2.0312 -0.245669 0
M  V30 5616 H 510.507 -3.37802 -2.2881 0
M  V30 5617 H 509.182 -3.95389 -1.28996 0
M  V30 5618 H 507.759 -2.67355 -2.59954 0
M  V30 5619 N 509.944 0.496216 -1.49584 0
M  V30 5620 C 511.221 1.25755 -1.49816 0
M  V30 5621 C 511.601 2.09859 -0.228572 0
M  V30 5622 O 510.949 2.14449 0.788908 0
M  V30 5623 C 511.159 2.11017 -2.7798 0
M  V30 5624 C 512.507 2.70047 -3.27658 0
M  V30 5625 O 513.531 2.21281 -2.79129 0
M  V30 5626 O 512.39 3.58834 -4.1219 0
M  V30 5627 H 509.484 0.569322 -0.599834 0
M  V30 5628 H 512.03 0.510094 -1.61852 0
M  V30 5629 H 510.802 1.48879 -3.61871 0
M  V30 5630 H 510.425 2.92947 -2.68827 0
M  V30 5631 N 511.423 1.38739 0.74761 0
M  V30 5632 C 512.386 1.36241 1.84312 0
M  V30 5633 C 513.386 0.261811 1.58654 0
M  V30 5634 O 514.576 0.519031 1.66288 0
M  V30 5635 C 511.708 1.12253 3.21888 0
M  V30 5636 H 512.901 2.33712 1.87933 0
M  V30 5637 H 510.454 1.2412 0.949946 0
M  V30 5638 H 511.189 0.154133 3.23934 0
M  V30 5639 H 510.974 1.91943 3.41907 0
M  V30 5640 H 512.464 1.13215 4.0196 0
M  V30 5641 N 512.901 -0.976442 1.23707 0
M  V30 5642 C 513.811 -2.10359 1.03856 0
M  V30 5643 C 514.827 -1.73991 -0.0180919 0
M  V30 5644 O 516.003 -2.0061 0.178211 0
M  V30 5645 C 513.068 -3.40809 0.636387 0
M  V30 5646 C 512.129 -3.91179 1.76854 0
M  V30 5647 C 511.362 -5.15404 1.38546 0
M  V30 5648 O 511.585 -5.69754 0.27142 0
M  V30 5649 O 510.519 -5.5994 2.20797 0
M  V30 5650 H 514.345 -2.29997 1.98331 0
M  V30 5651 H 511.93 -1.08742 1.02448 0
M  V30 5652 H 513.812 -4.19269 0.423223 0
M  V30 5653 H 512.487 -3.22493 -0.279322 0
M  V30 5654 H 511.394 -3.13819 2.03638 0
M  V30 5655 H 512.727 -4.13958 2.6627 0
M  V30 5656 N 514.379 -1.04941 -1.1758 0
M  V30 5657 C 515.628 -0.753124 -1.87112 0
M  V30 5658 C 515.941 0.722507 -1.81767 0
M  V30 5659 O 517.147 1.13265 -2.46746 0
M  V30 5660 C 515.603 -1.29695 -3.35719 0
M  V30 5661 C 515.211 -2.80184 -3.49572 0
M  V30 5662 C 516.955 -1.07759 -4.10595 0
M  V30 5663 C 514.862 -3.2788 -4.92187 0
M  V30 5664 H 513.792 -0.278034 -0.700866 0
M  V30 5665 H 516.443 -1.26637 -1.32798 0
M  V30 5666 H 514.825 -0.711522 -3.89555 0
M  V30 5667 H 515.999 -3.44561 -3.05965 0
M  V30 5668 H 514.314 -3.00632 -2.88113 0
M  V30 5669 H 516.911 -1.40899 -5.15802 0
M  V30 5670 H 517.254 -0.0152302 -4.16297 0
M  V30 5671 H 517.787 -1.62809 -3.62957 0
M  V30 5672 H 514.526 -4.33535 -4.91658 0
M  V30 5673 H 514.046 -2.68245 -5.36475 0
M  V30 5674 H 515.725 -3.22412 -5.60945 0
M  V30 5675 N 515.857 1.33968 -0.830081 0
M  V30 5676 C 516.767 2.33164 -0.259207 0
M  V30 5677 C 517.783 1.62951 0.610164 0
M  V30 5678 O 518.959 1.94668 0.516369 0
M  V30 5679 C 516.024 3.42088 0.563598 0
M  V30 5680 C 515.085 4.28037 -0.329014 0
M  V30 5681 C 514.318 5.3176 0.454616 0
M  V30 5682 O 514.541 5.44876 1.6872 0
M  V30 5683 O 513.475 6.01669 -0.166794 0
M  V30 5684 H 517.301 2.83832 -1.08041 0
M  V30 5685 H 514.886 1.37154 -0.59239 0
M  V30 5686 H 516.768 4.08581 1.03147 0
M  V30 5687 H 515.443 2.93651 1.36201 0
M  V30 5688 H 514.35 3.64443 -0.844538 0
M  V30 5689 H 515.683 4.79934 -1.09196 0
M  V30 5690 N 517.335 0.585699 1.46312 0
M  V30 5691 C 518.584 0.0701192 2.01578 0
M  V30 5692 C 518.897 -1.29889 1.46247 0
M  V30 5693 O 520.103 -1.90598 1.93351 0
M  V30 5694 C 518.559 0.0747499 3.59822 0
M  V30 5695 C 518.167 1.44226 4.24149 0
M  V30 5696 C 519.911 -0.38673 4.22735 0
M  V30 5697 C 517.818 1.40446 5.74481 0
M  V30 5698 H 516.748 0.0224441 0.753666 0
M  V30 5699 H 519.399 0.737789 1.68015 0
M  V30 5700 H 517.781 -0.659144 3.90476 0
M  V30 5701 H 518.955 2.19612 4.05101 0
M  V30 5702 H 517.27 1.84401 3.73343 0
M  V30 5703 H 519.867 -0.433853 5.32937 0
M  V30 5704 H 520.21 -1.40489 3.91878 0
M  V30 5705 H 520.743 0.293195 3.96718 0
M  V30 5706 H 517.482 2.39952 6.10003 0
M  V30 5707 H 517.002 0.692845 5.95785 0
M  V30 5708 H 518.681 1.11865 6.37256 0
M  V30 5709 N 518.813 -1.54241 0.323641 0
M  V30 5710 C 520.059 -2.00867 -0.279323 0
M  V30 5711 C 520.392 -1.21146 -1.5178 0
M  V30 5712 O 519.667 -0.29378 -1.92269 0
M  V30 5713 C 519.95 -3.54837 -0.613387 0
M  V30 5714 C 519.803 -4.45284 0.635803 0
M  V30 5715 C 521.122 -4.16186 -1.43099 0
M  V30 5716 H 518.241 -0.730177 -0.100049 0
M  V30 5717 H 520.883 -1.84829 0.440235 0
M  V30 5718 H 519.033 -3.68634 -1.22641 0
M  V30 5719 H 520.705 -4.43357 1.27406 0
M  V30 5720 H 518.948 -4.14956 1.26466 0
M  V30 5721 H 519.619 -5.5084 0.357597 0
M  V30 5722 H 522.095 -4.05964 -0.912814 0
M  V30 5723 H 520.971 -5.24031 -1.6335 0
M  V30 5724 H 521.232 -3.69516 -2.42715 0
M  V30 5725 N 520.291 -0.0518155 -1.57515 0
M  V30 5726 C 521.238 0.922352 -2.11569 0
M  V30 5727 C 522.208 1.30842 -1.02321 0
M  V30 5728 O 523.393 1.39778 -1.29872 0
M  V30 5729 C 520.533 2.19167 -2.6657 0
M  V30 5730 C 519.646 1.86003 -3.89906 0
M  V30 5731 C 518.781 3.07398 -4.33221 0
M  V30 5732 C 517.82 2.70158 -5.49255 0
M  V30 5733 N 516.957 3.84248 -5.8762 0
M  V30 5734 H 521.797 0.454506 -2.94514 0
M  V30 5735 H 519.334 0.212718 -1.45554 0
M  V30 5736 H 521.292 2.93443 -2.96559 0
M  V30 5737 H 519.922 2.63528 -1.86421 0
M  V30 5738 H 518.974 1.01874 -3.66505 0
M  V30 5739 H 520.286 1.54592 -4.74239 0
M  V30 5740 H 519.44 3.89972 -4.64765 0
M  V30 5741 H 518.179 3.41988 -3.477 0
M  V30 5742 H 517.184 1.86001 -5.17382 0
M  V30 5743 H 518.409 2.36759 -6.36492 0
M  V30 5744 H 516.355 4.18638 -5.05053 0
M  V30 5745 H 516.272 3.56538 -6.66646 0
M  V30 5746 H 517.54 4.6746 -6.2378 0
M  V30 5747 N 521.769 1.56035 0.221574 0
M  V30 5748 C 523.046 1.69837 0.970301 0
M  V30 5749 C 523.426 0.599065 2.02421 0
M  V30 5750 O 522.774 -0.393929 2.25079 0
M  V30 5751 C 522.984 3.11148 1.58076 0
M  V30 5752 C 524.332 3.70555 2.07302 0
M  V30 5753 O 525.356 3.14109 1.6797 0
M  V30 5754 O 524.215 4.69562 2.79596 0
M  V30 5755 H 521.309 0.691727 0.453257 0
M  V30 5756 H 523.855 1.68353 0.213358 0
M  V30 5757 H 522.627 3.82617 0.819759 0
M  V30 5758 H 522.25 3.16749 2.40324 0
M  V30 5759 N 523.247 -0.488276 1.49845 0
M  V30 5760 C 524.177 -1.59675 1.70371 0
M  V30 5761 C 525.158 -1.60878 0.552473 0
M  V30 5762 O 526.343 -1.77417 0.78973 0
M  V30 5763 C 523.473 -2.98098 1.782 0
M  V30 5764 C 522.427 -3.11761 2.93239 0
M  V30 5765 C 521.753 -4.51661 2.86193 0
M  V30 5766 C 523.053 -2.90589 4.33999 0
M  V30 5767 H 524.747 -1.42752 2.63177 0
M  V30 5768 H 522.293 -0.685317 1.26647 0
M  V30 5769 H 524.246 -3.75555 1.91144 0
M  V30 5770 H 522.97 -3.16138 0.820018 0
M  V30 5771 H 521.629 -2.36732 2.79917 0
M  V30 5772 H 521.277 -4.66595 1.87877 0
M  V30 5773 H 520.977 -4.61742 3.63412 0
M  V30 5774 H 522.501 -5.31162 3.01163 0
M  V30 5775 H 523.915 -3.57807 4.47936 0
M  V30 5776 H 522.312 -3.1213 5.12538 0
M  V30 5777 H 523.382 -1.86595 4.4756 0
M  V30 5778 N 524.725 -1.39134 -0.740242 0
M  V30 5779 C 525.688 -1.37217 -1.83587 0
M  V30 5780 C 526.688 -0.270221 -1.58513 0
M  V30 5781 O 527.878 -0.527843 -1.6601 0
M  V30 5782 C 525.01 -1.13959 -3.21288 0
M  V30 5783 H 526.203 -2.34705 -1.86691 0
M  V30 5784 H 523.756 -1.24622 -0.94335 0
M  V30 5785 H 524.491 -0.17131 -3.23847 0
M  V30 5786 H 524.276 -1.93754 -3.40884 0
M  V30 5787 H 525.766 -1.15346 -4.01354 0
M  V30 5788 N 526.204 0.969867 -1.24223 0
M  V30 5789 C 527.151 2.06407 -1.0327 0
M  V30 5790 C 528.121 1.66014 0.0533 0
M  V30 5791 O 529.306 1.90533 -0.100896 0
M  V30 5792 C 526.446 3.3909 -0.641262 0
M  V30 5793 C 525.559 3.9269 -1.80051 0
M  V30 5794 C 524.694 5.13631 -1.35486 0
M  V30 5795 C 523.733 5.59423 -2.48419 0
M  V30 5796 N 522.87 6.71586 -2.04737 0
M  V30 5797 H 527.71 2.23663 -1.96923 0
M  V30 5798 H 525.247 1.09624 -0.980862 0
M  V30 5799 H 527.205 4.15323 -0.395351 0
M  V30 5800 H 525.835 3.21765 0.258269 0
M  V30 5801 H 524.887 3.13116 -2.16014 0
M  V30 5802 H 526.199 4.22636 -2.64916 0
M  V30 5803 H 525.353 5.97231 -1.0677 0
M  V30 5804 H 524.092 4.85364 -0.476722 0
M  V30 5805 H 523.097 4.74398 -2.77897 0
M  V30 5806 H 524.322 5.89705 -3.36786 0
M  V30 5807 H 522.268 6.45058 -1.19318 0
M  V30 5808 H 522.185 7.0097 -2.83156 0
M  V30 5809 H 523.453 7.58633 -1.79154 0
M  V30 5810 N 527.682 1.05563 1.17022 0
M  V30 5811 C 529.093 0.793475 1.69 0
M  V30 5812 C 529.444 -0.683882 1.83895 0
M  V30 5813 O 528.569 -1.53116 1.5292 0
M  V30 5814 C 529.164 1.43376 3.06967 0
M  V30 5815 C 527.723 1.21956 3.56095 0
M  V30 5816 C 526.87 1.51494 2.3226 0
M  V30 5817 H 529.821 1.22008 1.01487 0
M  V30 5818 H 529.842 0.845068 3.70997 0
M  V30 5819 H 529.354 2.50899 2.96093 0
M  V30 5820 H 527.455 0.163749 3.7224 0
M  V30 5821 H 527.568 1.92713 4.38633 0
M  V30 5822 H 525.932 0.935175 2.3691 0
M  V30 5823 H 526.715 2.60159 2.23992 0
M  V30 5824 N 529.16 -1.33526 0.837174 0
M  V30 5825 C 530.576 -1.50727 0.524743 0
M  V30 5826 C 530.776 -1.77792 -0.948279 0
M  V30 5827 O 529.832 -1.83719 -1.73216 0
M  V30 5828 C 531.145 -2.66299 1.39661 0
M  V30 5829 C 532.693 -2.80183 1.39521 0
M  V30 5830 C 533.168 -3.98815 2.25189 0
M  V30 5831 N 534.659 -4.06047 2.2289 0
M  V30 5832 C 535.394 -4.97032 2.85915 0
M  V30 5833 N 534.89 -5.93143 3.57985 0
M  V30 5834 N 536.683 -4.90015 2.75394 0
M  V30 5835 H 528.834 -1.1422 1.79074 0
M  V30 5836 H 531.097 -0.561399 0.763894 0
M  V30 5837 H 530.803 -2.52974 2.4433 0
M  V30 5838 H 530.677 -3.61663 1.07145 0
M  V30 5839 H 533.064 -2.92942 0.356253 0
M  V30 5840 H 533.145 -1.85586 1.76044 0
M  V30 5841 H 532.789 -3.86817 3.29143 0
M  V30 5842 H 532.719 -4.92654 1.86009 0
M  V30 5843 H 535.21 -3.37262 1.70478 0
M  V30 5844 H 535.523 -6.59227 4.03286 0
M  V30 5845 H 533.868 -5.93223 3.62093 0
M  V30 5846 H 537.059 -4.13894 2.18654 0
M  V30 5847 H 537.232 -5.60724 3.24796 0
M  V30 5848 N 530.638 -0.59345 -1.46 0
M  V30 5849 C 531.568 0.121192 -2.33185 0
M  V30 5850 C 532.549 0.872977 -1.4599 0
M  V30 5851 O 533.734 0.846321 -1.74789 0
M  V30 5852 C 530.864 1.12844 -3.28456 0
M  V30 5853 C 529.818 0.4908 -4.25177 0
M  V30 5854 C 529.144 1.60529 -5.10034 0
M  V30 5855 C 530.444 -0.578949 -5.19081 0
M  V30 5856 H 532.138 -0.606767 -2.93187 0
M  V30 5857 H 529.684 -0.293242 -1.40983 0
M  V30 5858 H 531.637 1.63684 -3.88311 0
M  V30 5859 H 530.361 1.88681 -2.66584 0
M  V30 5860 H 529.02 0.00339328 -3.666 0
M  V30 5861 H 528.668 2.35359 -4.44539 0
M  V30 5862 H 528.368 1.18422 -5.75543 0
M  V30 5863 H 529.892 2.11623 -5.72755 0
M  V30 5864 H 531.306 -0.155199 -5.7309 0
M  V30 5865 H 529.703 -0.920947 -5.92991 0
M  V30 5866 H 530.773 -1.46109 -4.62364 0
M  V30 5867 N 532.116 1.54067 -0.331816 0
M  V30 5868 C 533.532 1.59587 0.0205388 0
M  V30 5869 C 533.732 1.34813 1.49759 0
M  V30 5870 O 532.788 1.13661 2.25471 0
M  V30 5871 C 534.101 2.97959 -0.405103 0
M  V30 5872 C 535.649 3.10964 -0.356454 0
M  V30 5873 C 536.124 4.51694 -0.757384 0
M  V30 5874 N 537.615 4.57709 -0.71111 0
M  V30 5875 C 538.35 5.64729 -0.993427 0
M  V30 5876 N 537.846 6.79652 -1.3433 0
M  V30 5877 N 539.639 5.54546 -0.918442 0
M  V30 5878 H 531.79 1.68426 -1.29407 0
M  V30 5879 H 534.053 0.78819 -0.526745 0
M  V30 5880 H 533.759 3.21115 -1.43451 0
M  V30 5881 H 533.633 3.76524 0.225692 0
M  V30 5882 H 536.02 2.87538 0.663763 0
M  V30 5883 H 536.101 2.34484 -1.02229 0
M  V30 5884 H 535.745 4.75853 -1.77555 0
M  V30 5885 H 535.675 5.26555 -0.0691444 0
M  V30 5886 H 538.166 3.75176 -0.452883 0
M  V30 5887 H 538.479 7.57221 -1.54388 0
M  V30 5888 H 536.824 6.81128 -1.38164 0
M  V30 5889 H 540.015 4.63641 -0.644536 0
M  V30 5890 H 540.188 6.37861 -1.14181 0
M  V30 5891 N 533.594 0.0601682 1.57485 0
M  V30 5892 C 535.01 -0.296422 1.56823 0
M  V30 5893 C 535.21 -1.70831 1.0686 0
M  V30 5894 O 534.266 -2.4174 0.729245 0
M  V30 5895 C 535.579 -0.116681 3.00474 0
M  V30 5896 C 537.127 -0.187103 3.1244 0
M  V30 5897 C 537.602 -0.035783 4.57986 0
M  V30 5898 N 539.093 -0.0917676 4.63109 0
M  V30 5899 C 539.828 0.00107251 5.734 0
M  V30 5900 N 539.324 0.146773 6.92645 0
M  V30 5901 N 541.117 -0.0551577 5.62073 0
M  V30 5902 H 533.268 0.983055 1.88281 0
M  V30 5903 H 535.531 0.382386 0.867459 0
M  V30 5904 H 535.237 0.85712 3.41096 0
M  V30 5905 H 535.111 -0.873929 3.66936 0
M  V30 5906 H 537.498 -1.15138 2.71712 0
M  V30 5907 H 537.579 0.601052 2.48638 0
M  V30 5908 H 537.223 0.925212 4.99402 0
M  V30 5909 H 537.153 -0.843196 5.19806 0
M  V30 5910 H 539.644 -0.203261 3.77353 0
M  V30 5911 H 539.957 0.210076 7.72514 0
M  V30 5912 H 538.302 0.181979 6.94762 0
M  V30 5913 H 541.493 -0.167605 4.678 0
M  V30 5914 H 541.666 0.020652 6.47997 0
M  V30 5915 N 535.072 -1.5615 -0.213296 0
M  V30 5916 C 536.035 -1.92249 -1.24792 0
M  V30 5917 C 537.035 -0.801828 -1.39382 0
M  V30 5918 O 538.225 -1.06948 -1.37506 0
M  V30 5919 C 535.357 -2.18056 -2.62039 0
M  V30 5920 H 536.55 -2.84793 -0.939845 0
M  V30 5921 H 534.103 -1.49559 -0.454062 0
M  V30 5922 H 534.838 -1.2809 -2.97932 0
M  V30 5923 H 534.623 -2.99703 -2.52825 0
M  V30 5924 H 536.113 -2.47051 -3.36683 0
M  V30 5925 N 536.55 0.480323 -1.50102 0
M  V30 5926 C 537.778 1.25657 -1.64371 0
M  V30 5927 C 538.193 1.86011 -0.323316 0
M  V30 5928 O 537.55 1.68803 0.693682 0
M  V30 5929 C 537.601 2.37197 -2.728 0
M  V30 5930 O 537.322 1.7932 -3.9972 0
M  V30 5931 C 538.823 3.2823 -2.9796 0
M  V30 5932 H 536.043 0.380369 -0.552775 0
M  V30 5933 H 538.587 0.574379 -1.96268 0
M  V30 5934 H 536.742 3.01208 -2.43623 0
M  V30 5935 H 537.156 2.52701 -4.59611 0
M  V30 5936 H 538.63 4.02725 -3.77513 0
M  V30 5937 H 539.107 3.86462 -2.08671 0
M  V30 5938 H 539.713 2.69964 -3.28633 0
M  V30 5939 N 538.028 1.39524 0.732853 0
M  V30 5940 C 539.277 1.36175 1.48792 0
M  V30 5941 C 539.59 -0.0388195 1.95561 0
M  V30 5942 O 540.796 -0.194899 2.708 0
M  V30 5943 C 539.252 2.39242 2.68871 0
M  V30 5944 C 538.86 3.85024 2.29042 0
M  V30 5945 C 540.604 2.44972 3.46683 0
M  V30 5946 C 538.511 4.79727 3.45856 0
M  V30 5947 H 537.441 0.506267 0.558757 0
M  V30 5948 H 540.092 1.65181 0.799226 0
M  V30 5949 H 538.474 2.0331 3.39825 0
M  V30 5950 H 539.648 4.30008 1.6562 0
M  V30 5951 H 537.963 3.82609 1.64316 0
M  V30 5952 H 540.56 3.12918 4.33574 0
M  V30 5953 H 540.903 1.4749 3.89297 0
M  V30 5954 H 541.436 2.79808 2.82759 0
M  V30 5955 H 538.175 5.78479 3.08289 0
M  V30 5956 H 537.695 4.39421 4.08251 0
M  V30 5957 H 539.374 4.98731 4.12161 0
M  V30 5958 N 539.506 -0.963266 1.24736 0
M  V30 5959 C 540.731 -1.74699 1.11781 0
M  V30 5960 C 541.156 -1.85267 -0.325258 0
M  V30 5961 O 540.514 -1.32681 -1.23553 0
M  V30 5962 C 540.562 -3.14322 1.76731 0
M  V30 5963 O 539.666 -3.99043 1.04109 0
M  V30 5964 H 539.007 -0.53684 0.390767 0
M  V30 5965 H 541.537 -1.20801 1.65131 0
M  V30 5966 H 541.547 -3.64824 1.82668 0
M  V30 5967 H 540.222 -3.05946 2.81726 0
M  V30 5968 H 538.799 -3.5752 1.05991 0
M  V30 5969 N 540.985 -1.06182 -1.16461 0
M  V30 5970 C 541.933 -0.665716 -2.2287 0
M  V30 5971 C 542.927 0.317822 -1.66392 0
M  V30 5972 O 544.133 0.182807 -1.79069 0
M  V30 5973 H 540.508 -0.197148 -0.725697 0
M  V30 5974 H 542.479 -1.57307 -2.53569 0
M  V30 5975 C 541.228 -0.0669803 -3.47635 0
M  V30 5976 H 540.551 -0.814899 -3.91407 0
M  V30 5977 H 541.991 0.172669 -4.23648 0
M  V30 5978 C 540.45 1.18913 -3.15216 0
M  V30 5979 O 540.98 2.27723 -3.30916 0
M  V30 5980 N 539.186 1.09066 -2.69357 0
M  V30 5981 H 538.733 0.20518 -2.56782 0
M  V30 5982 H 538.691 1.93195 -2.48039 0
M  V30 5983 N 542.463 1.3308 -0.844243 0
M  V30 5984 C 543.874 1.7992 -0.498566 0
M  V30 5985 C 544.225 1.69808 0.982834 0
M  V30 5986 O 543.35 1.25051 1.7661 0
M  V30 5987 C 543.945 3.26677 -0.898204 0
M  V30 5988 C 542.504 3.71513 -0.604583 0
M  V30 5989 C 541.651 2.54393 -1.10362 0
M  V30 5990 H 544.602 1.20526 -1.03244 0
M  V30 5991 H 544.623 3.79918 -0.21039 0
M  V30 5992 H 544.135 3.34004 -1.97643 0
M  V30 5993 H 542.236 3.69708 0.46335 0
M  V30 5994 H 542.349 4.64755 -1.16358 0
M  V30 5995 H 540.713 2.49246 -0.524273 0
M  V30 5996 H 541.496 2.6448 -2.18873 0
M  V30 5997 N 543.941 0.601185 1.45683 0
M  V30 5998 C 545.19 0.0914953 2.01492 0
M  V30 5999 C 545.503 -1.28331 1.47616 0
M  V30 6000 O 546.709 -1.88537 1.95362 0
M  V30 6001 C 545.165 0.11291 3.59723 0
M  V30 6002 C 544.773 1.48717 4.22596 0
M  V30 6003 C 546.517 -0.341871 4.23121 0
M  V30 6004 C 544.424 1.46531 5.7296 0
M  V30 6005 H 543.354 0.0304365 0.753385 0
M  V30 6006 H 546.005 0.755568 1.67223 0
M  V30 6007 H 544.387 -0.617692 3.91153 0
M  V30 6008 H 545.561 2.23897 4.02749 0
M  V30 6009 H 543.876 1.88351 3.71366 0
M  V30 6010 H 546.473 -0.377304 5.33367 0
M  V30 6011 H 546.816 -1.36325 3.93346 0
M  V30 6012 H 547.349 0.335256 3.96385 0
M  V30 6013 H 544.088 2.46408 6.07423 0
M  V30 6014 H 543.608 0.755997 5.95017 0
M  V30 6015 H 545.287 1.18618 6.36034 0
M  V30 6016 N 545.419 -1.53889 0.339982 0
M  V30 6017 C 546.647 -2.05271 -0.259114 0
M  V30 6018 C 547.062 -1.21517 -1.44496 0
M  V30 6019 O 546.419 -0.24966 -1.80784 0
M  V30 6020 C 546.47 -3.55092 -0.677634 0
M  V30 6021 O 546.191 -4.35667 0.461051 0
M  V30 6022 C 547.692 -4.22631 -1.33782 0
M  V30 6023 H 544.912 -0.669085 -0.0506566 0
M  V30 6024 H 547.456 -1.9852 0.490935 0
M  V30 6025 H 545.611 -3.62077 -1.37763 0
M  V30 6026 H 546.025 -5.24343 0.128144 0
M  V30 6027 H 547.499 -5.28861 -1.58145 0
M  V30 6028 H 547.976 -3.74758 -2.29027 0
M  V30 6029 H 548.582 -4.19829 -0.679957 0
M  V30 6030 N 546.897 -0.0685191 -1.57451 0
M  V30 6031 C 548.145 0.60016 -1.92983 0
M  V30 6032 C 548.466 1.70348 -0.949028 0
M  V30 6033 O 547.736 1.959 0.00335647 0
M  V30 6034 H 546.316 0.224682 -0.712409 0
M  V30 6035 H 548.978 -0.125605 -1.94495 0
M  V30 6036 H 548.074 1.02759 -2.94698 0
M  V30 6037 N 548.375 1.56261 0.205012 0
M  V30 6038 C 549.652 1.70856 0.952233 0
M  V30 6039 C 550.032 0.620501 2.01775 0
M  V30 6040 O 549.38 -0.370035 2.25484 0
M  V30 6041 C 549.59 3.12807 1.54767 0
M  V30 6042 C 550.938 3.72733 2.0336 0
M  V30 6043 O 551.962 3.15873 1.64629 0
M  V30 6044 O 550.821 4.72501 2.746 0
M  V30 6045 H 547.915 0.696496 0.445895 0
M  V30 6046 H 550.461 1.6857 0.195489 0
M  V30 6047 H 549.233 3.83465 0.779132 0
M  V30 6048 H 548.856 3.1928 2.36951 0
M  V30 6049 N 549.853 -0.472356 1.50355 0
M  V30 6050 C 550.783 -1.57859 1.72055 0
M  V30 6051 C 551.764 -1.60283 0.569505 0
M  V30 6052 O 552.949 -1.7657 0.808503 0
M  V30 6053 C 550.079 -2.96191 1.81351 0
M  V30 6054 C 549.033 -3.08633 2.96529 0
M  V30 6055 C 548.359 -4.486 2.90968 0
M  V30 6056 C 549.659 -2.85969 4.37057 0
M  V30 6057 H 551.353 -1.39953 2.64676 0
M  V30 6058 H 548.899 -0.671846 1.27367 0
M  V30 6059 H 550.852 -3.73507 1.95117 0
M  V30 6060 H 549.576 -3.15251 0.853502 0
M  V30 6061 H 548.235 -2.33749 2.82413 0
M  V30 6062 H 547.883 -4.64577 1.92815 0
M  V30 6063 H 547.583 -4.57861 3.68289 0
M  V30 6064 H 549.107 -5.27938 3.0678 0
M  V30 6065 H 550.521 -3.53036 4.51706 0
M  V30 6066 H 548.918 -3.06677 5.15819 0
M  V30 6067 H 549.988 -1.81838 4.49514 0
M  V30 6068 N 551.331 -1.39911 -0.725443 0
M  V30 6069 C 552.241 -1.41688 -1.8698 0
M  V30 6070 C 553.257 -0.310579 -1.71206 0
M  V30 6071 O 554.433 -0.55359 -1.93642 0
M  V30 6072 C 551.498 -1.26811 -3.22676 0
M  V30 6073 C 550.559 -2.47497 -3.50776 0
M  V30 6074 C 549.792 -2.3332 -4.79997 0
M  V30 6075 O 550.015 -1.34175 -5.54394 0
M  V30 6076 O 548.949 -3.22498 -5.08211 0
M  V30 6077 H 552.775 -2.38171 -1.88436 0
M  V30 6078 H 550.36 -1.21128 -0.874548 0
M  V30 6079 H 552.242 -1.20684 -4.03749 0
M  V30 6080 H 550.917 -0.334289 -3.21969 0
M  V30 6081 H 549.824 -2.59201 -2.69751 0
M  V30 6082 H 551.157 -3.39606 -3.5627 0
M  V30 6083 N 552.809 0.956637 -1.25245 0
M  V30 6084 C 554.037 1.73571 -1.12608 0
M  V30 6085 C 554.452 1.86063 0.320324 0
M  V30 6086 O 553.809 1.35691 1.22042 0
M  V30 6087 C 553.86 3.15053 -1.77268 0
M  V30 6088 O 553.581 3.03174 -3.16255 0
M  V30 6089 C 555.082 4.09248 -1.70386 0
M  V30 6090 H 552.302 0.543955 -0.392879 0
M  V30 6091 H 554.846 1.20031 -1.65568 0
M  V30 6092 H 553.001 3.65543 -1.28284 0
M  V30 6093 H 553.415 3.9241 -3.48015 0
M  V30 6094 H 554.889 5.06138 -2.20291 0
M  V30 6095 H 555.366 4.34102 -0.667239 0
M  V30 6096 H 555.972 3.64672 -2.18849 0
M  V30 6097 N 554.287 1.06798 1.15896 0
M  V30 6098 C 555.533 0.788934 1.86825 0
M  V30 6099 C 555.866 -0.683084 1.8179 0
M  V30 6100 O 555.141 -1.50086 1.23711 0
M  V30 6101 C 555.424 1.29065 3.36176 0
M  V30 6102 C 555.277 2.8268 3.49874 0
M  V30 6103 C 556.596 0.902655 4.30744 0
M  V30 6104 H 553.715 0.288066 0.678371 0
M  V30 6105 H 556.357 1.32479 1.36195 0
M  V30 6106 H 554.507 0.834806 3.79425 0
M  V30 6107 H 556.179 3.36511 3.15528 0
M  V30 6108 H 554.422 3.21157 2.91617 0
M  V30 6109 H 555.093 3.12852 4.54783 0
M  V30 6110 H 557.569 1.29535 3.95424 0
M  V30 6111 H 556.445 1.28111 5.3374 0
M  V30 6112 H 556.706 -0.191951 4.41683 0
M  V30 6113 N 555.766 -1.3263 0.851289 0
M  V30 6114 C 556.716 -2.26451 0.265302 0
M  V30 6115 C 557.7 -1.49814 -0.586899 0
M  V30 6116 O 558.892 -1.71525 -0.436834 0
M  V30 6117 C 556.021 -3.38895 -0.548212 0
M  V30 6118 C 555.107 -4.2292 0.316189 0
M  V30 6119 N 555.498 -4.86014 1.40084 0
M  V30 6120 C 553.796 -4.45876 0.105356 0
M  V30 6121 C 554.497 -5.48667 1.93235 0
M  V30 6122 N 553.473 -5.29455 1.232 0
M  V30 6123 H 557.275 -2.72757 1.09457 0
M  V30 6124 H 554.789 -1.4668 0.697047 0
M  V30 6125 H 556.786 -4.05111 -0.984402 0
M  V30 6126 H 555.446 -2.94135 -1.37531 0
M  V30 6127 H 556.457 -4.86212 1.78377 0
M  V30 6128 H 553.134 -4.11804 -0.687299 0
M  V30 6129 H 554.524 -6.08865 2.84135 0
M  V30 6130 N 557.244 -0.608902 -1.45362 0
M  V30 6131 C 558.474 -0.110852 -2.06302 0
M  V30 6132 C 558.882 1.21062 -1.45398 0
M  V30 6133 O 558.225 1.74861 -0.562976 0
M  V30 6134 C 558.287 0.101793 -3.59356 0
M  V30 6135 C 557.951 -1.13808 -4.42602 0
M  V30 6136 C 558.948 -2.05653 -4.77496 0
M  V30 6137 C 556.633 -1.36727 -4.83333 0
M  V30 6138 C 558.627 -3.18745 -5.51978 0
M  V30 6139 C 556.314 -2.5012 -5.57569 0
M  V30 6140 C 557.312 -3.40957 -5.91809 0
M  V30 6141 O 557 -4.52376 -6.64538 0
M  V30 6142 H 556.732 -0.0666001 -0.672711 0
M  V30 6143 H 559.286 -0.836942 -1.87575 0
M  V30 6144 H 557.516 0.88279 -3.76489 0
M  V30 6145 H 559.205 0.551607 -4.02134 0
M  V30 6146 H 559.971 -1.89172 -4.46586 0
M  V30 6147 H 555.85 -0.669216 -4.56117 0
M  V30 6148 H 559.394 -3.8967 -5.78622 0
M  V30 6149 H 555.291 -2.66553 -5.87894 0
M  V30 6150 H 556.059 -4.51075 -6.82989 0
M  V30 6151 N 558.722 1.53707 -0.348139 0
M  V30 6152 C 560.138 1.596 0.00361134 0
M  V30 6153 C 560.338 1.36394 1.4832 0
M  V30 6154 O 559.394 1.16046 2.24253 0
M  V30 6155 C 560.707 2.97512 -0.436682 0
M  V30 6156 C 562.255 3.10568 -0.389416 0
M  V30 6157 C 562.73 4.50866 -0.805249 0
M  V30 6158 N 564.221 4.56929 -0.759616 0
M  V30 6159 C 564.956 5.63643 -1.05327 0
M  V30 6160 N 564.452 6.78189 -1.41531 0
M  V30 6161 N 566.245 5.5354 -0.977207 0
M  V30 6162 H 558.396 1.67044 -1.31187 0
M  V30 6163 H 560.659 0.782559 -0.535075 0
M  V30 6164 H 560.365 3.19575 -1.46849 0
M  V30 6165 H 560.239 3.76742 0.185744 0
M  V30 6166 H 562.626 2.88226 0.633228 0
M  V30 6167 H 562.707 2.33387 -1.04711 0
M  V30 6168 H 562.351 4.73943 -1.82593 0
M  V30 6169 H 562.281 5.26452 -0.124989 0
M  V30 6170 H 564.772 3.74675 -0.49265 0
M  V30 6171 H 565.085 7.55541 -1.62411 0
M  V30 6172 H 563.43 6.79624 -1.45381 0
M  V30 6173 H 566.621 4.62932 -0.693675 0
M  V30 6174 H 566.794 6.36614 -1.2094 0
M  V30 6175 N 560.2 0.0768682 1.57412 0
M  V30 6176 C 561.449 -0.590679 1.92857 0
M  V30 6177 C 561.762 -1.70461 0.959293 0
M  V30 6178 O 562.968 -2.43207 1.20675 0
M  V30 6179 C 561.424 -1.10204 3.42612 0
M  V30 6180 C 561.032 -0.0188447 4.47996 0
M  V30 6181 C 562.776 -1.74336 3.87049 0
M  V30 6182 C 560.683 -0.544536 5.88888 0
M  V30 6183 H 559.613 -0.224411 0.71983 0
M  V30 6184 H 562.264 0.149924 1.82887 0
M  V30 6185 H 560.646 -1.89577 3.47673 0
M  V30 6186 H 561.82 0.755936 4.54557 0
M  V30 6187 H 560.135 0.526555 4.13057 0
M  V30 6188 H 562.732 -2.14708 4.89699 0
M  V30 6189 H 563.075 -2.60537 3.24694 0
M  V30 6190 H 563.608 -1.01577 3.84613 0
M  V30 6191 H 560.347 0.280426 6.549 0
M  V30 6192 H 559.867 -1.28673 5.85836 0
M  V30 6193 H 561.546 -1.01933 6.3892 0
M  V30 6194 N 561.678 -1.56367 -0.196722 0
M  V30 6195 C 562.903 -1.84991 -0.937714 0
M  V30 6196 C 563.328 -0.660244 -1.76132 0
M  V30 6197 O 562.686 0.390967 -1.77034 0
M  V30 6198 C 562.734 -3.11828 -1.81096 0
M  V30 6199 O 561.838 -2.92266 -2.90955 0
M  V30 6200 H 561.179 -0.609193 -0.264159 0
M  V30 6201 H 563.709 -2.03595 -0.202529 0
M  V30 6202 H 563.719 -3.42579 -2.21594 0
M  V30 6203 H 562.394 -3.98037 -1.2058 0
M  V30 6204 H 560.971 -2.72809 -2.54224 0
M  V30 6205 N 563.156 0.464375 -1.50603 0
M  V30 6206 C 564.103 1.56152 -1.69956 0
M  V30 6207 C 565.073 1.57046 -0.54091 0
M  V30 6208 O 566.258 1.74473 -0.772258 0
M  V30 6209 C 563.398 2.94079 -1.80586 0
M  V30 6210 C 562.511 3.02923 -3.07996 0
M  V30 6211 C 561.646 4.31806 -3.09382 0
M  V30 6212 C 560.685 4.34417 -4.31218 0
M  V30 6213 N 559.822 5.54782 -4.30304 0
M  V30 6214 H 564.662 1.38955 -2.6362 0
M  V30 6215 H 562.199 0.675482 -1.30674 0
M  V30 6216 H 564.157 3.74073 -1.8473 0
M  V30 6217 H 562.787 3.09896 -0.903556 0
M  V30 6218 H 561.839 2.1576 -3.13292 0
M  V30 6219 H 563.151 3.00712 -3.97962 0
M  V30 6220 H 562.305 5.20153 -3.12292 0
M  V30 6221 H 561.044 4.36636 -2.17257 0
M  V30 6222 H 560.049 3.44467 -4.28512 0
M  V30 6223 H 561.274 4.31273 -5.24576 0
M  V30 6224 H 559.22 5.60384 -3.41037 0
M  V30 6225 H 559.137 5.54339 -5.14047 0
M  V30 6226 H 560.405 6.45235 -4.3737 0
M  V30 6227 N 564.634 1.40294 0.718013 0
M  V30 6228 C 565.859 1.41941 1.5122 0
M  V30 6229 C 566.284 0.0202371 1.88089 0
M  V30 6230 O 565.642 -0.971078 1.53101 0
M  V30 6231 C 565.69 2.3141 2.76554 0
M  V30 6232 O 564.794 1.75567 3.73162 0
M  V30 6233 H 564.135 0.482644 0.456016 0
M  V30 6234 H 566.665 1.84494 0.884478 0
M  V30 6235 H 566.675 2.46513 3.25108 0
M  V30 6236 H 565.35 3.33085 2.49053 0
M  V30 6237 H 563.927 1.69798 3.31999 0
M  V30 6238 N 566.112 -0.949982 1.2575 0
M  V30 6239 C 567.075 -2.02894 1.06615 0
M  V30 6240 C 568.075 -1.60791 0.0173905 0
M  V30 6241 O 569.265 -1.72249 0.260003 0
M  V30 6242 C 566.397 -3.35219 0.619751 0
M  V30 6243 H 567.59 -2.21302 2.02399 0
M  V30 6244 H 565.143 -1.12772 1.08223 0
M  V30 6245 H 565.878 -3.22508 -0.340486 0
M  V30 6246 H 565.663 -3.67129 1.37692 0
M  V30 6247 H 567.153 -4.14505 0.507443 0
M  V30 6248 N 567.59 -1.07411 -1.15328 0
M  V30 6249 C 568.836 -0.808666 -1.86634 0
M  V30 6250 C 569.191 0.65816 -1.80793 0
M  V30 6251 O 568.484 1.47689 -1.22059 0
M  V30 6252 C 568.678 -1.25191 -3.34757 0
M  V30 6253 C 568.507 -2.76028 -3.55019 0
M  V30 6254 C 567.277 -3.43644 -3.70455 0
M  V30 6255 C 569.475 -3.74224 -3.5279 0
M  V30 6256 N 567.457 -4.83117 -3.78776 0
M  V30 6257 C 568.828 -4.9954 -3.67233 0
M  V30 6258 C 570.883 -3.67373 -3.36068 0
M  V30 6259 C 569.586 -6.18819 -3.66682 0
M  V30 6260 C 571.612 -4.86116 -3.36816 0
M  V30 6261 C 570.974 -6.10266 -3.51789 0
M  V30 6262 H 567.073 -0.348478 -0.700062 0
M  V30 6263 H 569.657 -1.37049 -1.38295 0
M  V30 6264 H 567.828 -0.717775 -3.8171 0
M  V30 6265 H 569.56 -0.933936 -3.93776 0
M  V30 6266 H 566.315 -2.94051 -3.71256 0
M  V30 6267 H 566.739 -5.55705 -3.86679 0
M  V30 6268 H 571.381 -2.72334 -3.2341 0
M  V30 6269 H 569.099 -7.14179 -3.78118 0
M  V30 6270 H 572.685 -4.82492 -3.25103 0
M  V30 6271 H 571.565 -7.00609 -3.52301 0
M  V30 6272 N 569.068 1.32177 -0.85831 0
M  V30 6273 C 569.998 2.31282 -0.321041 0
M  V30 6274 C 570.979 1.59841 0.581786 0
M  V30 6275 O 572.164 1.87619 0.501262 0
M  V30 6276 C 569.294 3.4385 0.48832 0
M  V30 6277 C 568.248 4.26799 -0.320391 0
M  V30 6278 C 567.574 5.31164 0.613934 0
M  V30 6279 C 568.874 4.98829 -1.54813 0
M  V30 6280 H 570.568 2.76469 -1.14915 0
M  V30 6281 H 568.114 1.32916 -0.554028 0
M  V30 6282 H 570.067 4.12224 0.874626 0
M  V30 6283 H 568.791 2.97401 1.34983 0
M  V30 6284 H 567.45 3.60077 -0.688497 0
M  V30 6285 H 567.098 4.80967 1.47239 0
M  V30 6286 H 566.798 5.8755 0.0768097 0
M  V30 6287 H 568.322 6.024 0.997336 0
M  V30 6288 H 569.736 5.59864 -1.23392 0
M  V30 6289 H 568.133 5.64957 -2.02346 0
M  V30 6290 H 569.203 4.26483 -2.30739 0
M  V30 6291 N 570.547 0.616602 1.45037 0
M  V30 6292 C 571.772 0.120192 2.07051 0
M  V30 6293 C 572.197 -1.19008 1.45666 0
M  V30 6294 O 571.555 -1.7267 0.552692 0
M  V30 6295 C 571.603 0.00354901 3.606 0
M  V30 6296 O 570.707 -1.04431 3.98958 0
M  V30 6297 H 570.048 0.0781599 0.659384 0
M  V30 6298 H 572.578 0.849167 1.86146 0
M  V30 6299 H 572.588 -0.191754 4.07549 0
M  V30 6300 H 571.263 0.960239 4.04663 0
M  V30 6301 H 569.84 -0.824749 3.63665 0
M  V30 6302 N 572.025 -1.5352 0.356285 0
M  V30 6303 C 573.273 -2.00719 -0.235837 0
M  V30 6304 C 573.594 -1.24551 -1.5004 0
M  V30 6305 O 572.864 -0.356185 -1.92635 0
M  V30 6306 H 571.444 -0.741542 -0.0901366 0
M  V30 6307 H 574.106 -1.88887 0.480378 0
M  V30 6308 H 573.202 -3.08551 -0.469357 0
M  V30 6309 N 573.503 -0.0852151 -1.57369 0
M  V30 6310 C 574.733 0.588605 -1.98038 0
M  V30 6311 C 575.141 1.62869 -0.962817 0
M  V30 6312 O 574.484 1.83611 0.057134 0
M  V30 6313 C 574.546 1.30303 -3.35054 0
M  V30 6314 C 574.21 0.414855 -4.55113 0
M  V30 6315 C 575.207 -0.333011 -5.18832 0
M  V30 6316 C 572.892 0.335804 -5.01176 0
M  V30 6317 C 574.886 -1.14801 -6.26976 0
M  V30 6318 C 572.573 -0.482857 -6.09189 0
M  V30 6319 C 573.571 -1.22342 -6.71953 0
M  V30 6320 O 573.259 -2.02855 -7.77885 0
M  V30 6321 H 572.991 0.163249 -0.655992 0
M  V30 6322 H 575.545 -0.1582 -2.0479 0
M  V30 6323 H 573.775 2.0962 -3.24956 0
M  V30 6324 H 575.464 1.87041 -3.60237 0
M  V30 6325 H 576.23 -0.281611 -4.84182 0
M  V30 6326 H 572.109 0.901869 -4.52092 0
M  V30 6327 H 575.653 -1.72654 -6.75897 0
M  V30 6328 H 571.55 -0.535773 -6.43273 0
M  V30 6329 H 572.318 -1.95432 -7.94826 0
M  V30 6330 N 574.981 1.5647 0.188427 0
M  V30 6331 C 575.891 1.98285 1.2538 0
M  V30 6332 C 576.907 0.891535 1.49424 0
M  V30 6333 O 578.083 1.19782 1.61908 0
M  V30 6334 C 575.148 2.31965 2.57669 0
M  V30 6335 C 574.209 3.54838 2.41638 0
M  V30 6336 C 573.442 3.86901 3.67618 0
M  V30 6337 O 573.665 3.20163 4.72072 0
M  V30 6338 O 572.599 4.80309 3.62749 0
M  V30 6339 H 576.425 2.89145 0.928912 0
M  V30 6340 H 574.01 1.44112 0.393955 0
M  V30 6341 H 575.892 2.54673 3.35737 0
M  V30 6342 H 574.567 1.44271 2.89771 0
M  V30 6343 H 573.474 3.37369 1.61658 0
M  V30 6344 H 574.807 4.43019 2.14465 0
M  V30 6345 N 576.459 -0.456382 1.50847 0
M  V30 6346 C 577.407 -1.57318 1.71329 0
M  V30 6347 C 578.401 -1.59187 0.579287 0
M  V30 6348 O 579.607 -1.6316 0.76018 0
M  V30 6349 H 575.982 -0.5223 0.541024 0
M  V30 6350 H 577.953 -1.3721 2.64983 0
M  V30 6351 C 576.702 -2.95142 1.83811 0
M  V30 6352 H 576.025 -2.94428 2.70467 0
M  V30 6353 H 577.465 -3.72702 2.02161 0
M  V30 6354 C 575.924 -3.31636 0.593224 0
M  V30 6355 O 576.454 -4.00852 -0.260898 0
M  V30 6356 N 574.66 -2.87205 0.442902 0
M  V30 6357 H 574.207 -2.31051 1.13901 0
M  V30 6358 H 574.165 -3.11986 -0.38884 0
M  V30 6359 N 577.937 -1.40673 -0.710563 0
M  V30 6360 C 579.348 -1.34975 -1.28991 0
M  V30 6361 C 579.699 -0.0256272 -1.96183 0
M  V30 6362 O 578.824 0.876339 -1.97862 0
M  V30 6363 C 579.419 -2.44467 -2.34567 0
M  V30 6364 C 577.978 -2.42213 -2.88114 0
M  V30 6365 C 577.125 -2.25085 -1.61963 0
M  V30 6366 H 580.076 -1.50406 -0.506343 0
M  V30 6367 H 580.097 -2.12663 -3.15523 0
M  V30 6368 H 579.609 -3.40825 -1.85634 0
M  V30 6369 H 577.71 -1.49568 -3.41263 0
M  V30 6370 H 577.823 -3.37983 -3.39565 0
M  V30 6371 H 576.187 -1.72691 -1.87216 0
M  V30 6372 H 576.97 -3.23449 -1.15047 0
M  V30 6373 N 579.415 0.9433 -1.26252 0
M  V30 6374 C 580.661 1.69175 -1.11837 0
M  V30 6375 C 580.994 1.91238 0.337891 0
M  V30 6376 O 580.269 1.49152 1.24836 0
M  V30 6377 C 580.552 3.06783 -1.88563 0
M  V30 6378 C 580.405 2.9206 -3.42083 0
M  V30 6379 C 581.724 4.06865 -1.67776 0
M  V30 6380 H 578.843 0.61399 -0.407658 0
M  V30 6381 H 581.485 1.09572 -1.55222 0
M  V30 6382 H 579.635 3.57663 -1.51689 0
M  V30 6383 H 581.307 2.48419 -3.88698 0
M  V30 6384 H 579.55 2.27731 -3.69217 0
M  V30 6385 H 580.221 3.89651 -3.90994 0
M  V30 6386 H 582.697 3.64939 -1.99897 0
M  V30 6387 H 581.573 5.01168 -2.23879 0
M  V30 6388 H 581.834 4.37705 -0.621816 0
M  V30 6389 N 580.893 1.08022 1.14757 0
M  V30 6390 C 582.139 0.808705 1.85978 0
M  V30 6391 C 582.472 -0.663764 1.82504 0
M  V30 6392 O 581.747 -1.48765 1.25296 0
M  V30 6393 C 582.03 1.32623 3.34788 0
M  V30 6394 C 581.883 2.86375 3.46856 0
M  V30 6395 C 583.202 0.948291 4.29762 0
M  V30 6396 H 580.321 0.295244 0.675278 0
M  V30 6397 H 582.963 1.33917 1.34783 0
M  V30 6398 H 581.113 0.875002 3.78518 0
M  V30 6399 H 582.785 3.39839 3.11941 0
M  V30 6400 H 581.028 3.24232 2.88194 0
M  V30 6401 H 581.699 3.17658 4.51439 0
M  V30 6402 H 584.175 1.33722 3.94028 0
M  V30 6403 H 583.051 1.33765 5.32352 0
M  V30 6404 H 583.312 -0.145094 4.41862 0
M  V30 6405 N 582.371 -1.3172 0.865308 0
M  V30 6406 C 583.596 -2.01591 0.487415 0
M  V30 6407 C 584.021 -1.6455 -0.911307 0
M  V30 6408 O 583.379 -0.851689 -1.6005 0
M  V30 6409 C 583.427 -3.54759 0.646401 0
M  V30 6410 O 582.531 -4.11185 -0.316284 0
M  V30 6411 H 581.872 -0.634884 0.194468 0
M  V30 6412 H 584.402 -1.68024 1.16744 0
M  V30 6413 H 584.412 -4.04438 0.537932 0
M  V30 6414 H 583.087 -3.8106 1.66632 0
M  V30 6415 H 581.664 -3.72543 -0.163162 0
M  V30 6416 N 583.85 -0.624285 -1.44708 0
M  V30 6417 C 585.266 -0.289322 -1.56956 0
M  V30 6418 C 585.466 1.20773 -1.61295 0
M  V30 6419 O 584.522 1.9915 -1.55227 0
M  V30 6420 C 585.835 -0.975215 -2.84447 0
M  V30 6421 C 587.383 -0.952709 -2.98148 0
M  V30 6422 C 587.858 -1.61893 -4.28433 0
M  V30 6423 N 589.349 -1.5852 -4.35231 0
M  V30 6424 C 590.084 -2.06969 -5.34744 0
M  V30 6425 N 589.58 -2.63579 -6.40701 0
M  V30 6426 N 591.373 -1.97638 -5.26209 0
M  V30 6427 H 583.524 -1.59612 -1.40135 0
M  V30 6428 H 585.787 -0.669592 -0.671081 0
M  V30 6429 H 585.493 -2.02999 -2.87201 0
M  V30 6430 H 585.367 -0.508749 -3.73753 0
M  V30 6431 H 587.754 0.093568 -2.94952 0
M  V30 6432 H 587.835 -1.4576 -2.10209 0
M  V30 6433 H 587.479 -2.66463 -4.32389 0
M  V30 6434 H 587.409 -1.08893 -5.15218 0
M  V30 6435 H 589.899 -1.17183 -3.59272 0
M  V30 6436 H 590.213 -2.98298 -7.12908 0
M  V30 6437 H 588.558 -2.67626 -6.41406 0
M  V30 6438 H 591.749 -1.5314 -4.42341 0
M  V30 6439 H 591.922 -2.35708 -6.03611 0
M  V30 6440 N 585.328 1.53329 -0.364422 0
M  V30 6441 C 586.577 2.00421 0.226747 0
M  V30 6442 C 586.89 1.25581 1.49963 0
M  V30 6443 O 588.096 1.63256 2.16933 0
M  V30 6444 C 586.552 3.57017 0.454618 0
M  V30 6445 C 586.16 4.40734 -0.803568 0
M  V30 6446 C 587.904 4.12468 1.00351 0
M  V30 6447 C 585.811 5.8888 -0.545345 0
M  V30 6448 H 584.741 0.748787 0.0885082 0
M  V30 6449 H 587.392 1.7703 -0.482983 0
M  V30 6450 H 585.774 3.76558 1.22558 0
M  V30 6451 H 586.948 4.32967 -1.57723 0
M  V30 6452 H 585.263 3.96381 -1.27559 0
M  V30 6453 H 587.86 5.20783 1.212 0
M  V30 6454 H 588.203 3.6699 1.9653 0
M  V30 6455 H 588.736 3.96721 0.29274 0
M  V30 6456 H 585.475 6.38633 -1.47743 0
M  V30 6457 H 584.995 5.99499 0.189842 0
M  V30 6458 H 586.674 6.46776 -0.170425 0
M  V30 6459 N 586.806 0.0935595 1.57322 0
M  V30 6460 C 587.754 -0.883457 2.15169 0
M  V30 6461 C 588.748 -1.29324 1.09415 0
M  V30 6462 O 589.954 -1.26795 1.27762 0
M  V30 6463 H 586.329 -0.302923 0.688289 0
M  V30 6464 H 588.3 -0.370845 2.96087 0
M  V30 6465 C 587.049 -2.13345 2.74552 0
M  V30 6466 H 586.372 -1.82702 3.55612 0
M  V30 6467 H 587.812 -2.7977 3.18598 0
M  V30 6468 C 586.271 -2.90646 1.70371 0
M  V30 6469 O 586.801 -3.85133 1.14173 0
M  V30 6470 N 585.007 -2.54157 1.40899 0
M  V30 6471 H 584.554 -1.77391 1.86789 0
M  V30 6472 H 584.512 -3.06178 0.714301 0
M  V30 6473 N 588.284 -1.56567 -0.180126 0
M  V30 6474 C 589.217 -1.90813 -1.25163 0
M  V30 6475 C 590.195 -0.7699 -1.43218 0
M  V30 6476 O 591.379 -1.02236 -1.58367 0
M  V30 6477 C 588.506 -2.15138 -2.61597 0
M  V30 6478 C 587.552 -3.37834 -2.60328 0
M  V30 6479 S 588.385 -4.92486 -2.1028 0
M  V30 6480 C 589.541 -5.19896 -3.48509 0
M  V30 6481 H 589.774 -2.81398 -0.959283 0
M  V30 6482 H 587.307 -1.49541 -0.3843 0
M  V30 6483 H 589.265 -2.29835 -3.40127 0
M  V30 6484 H 587.926 -1.25276 -2.88036 0
M  V30 6485 H 587.119 -3.52027 -3.60684 0
M  V30 6486 H 586.721 -3.22208 -1.8989 0
M  V30 6487 H 589.013 -5.11334 -4.44459 0
M  V30 6488 H 589.956 -6.21571 -3.39198 0
M  V30 6489 H 590.364 -4.47489 -3.44114 0
M  V30 6490 N 589.762 0.448376 -1.51087 0
M  V30 6491 C 591.178 0.783984 -1.39017 0
M  V30 6492 C 591.378 1.96087 -0.463904 0
M  V30 6493 O 590.434 2.52357 0.0850534 0
M  V30 6494 C 591.747 1.07471 -2.80839 0
M  V30 6495 C 593.295 1.17981 -2.89913 0
M  V30 6496 C 593.77 1.50354 -4.32617 0
M  V30 6497 N 595.261 1.57301 -4.35673 0
M  V30 6498 C 595.996 1.839 -5.4311 0
M  V30 6499 N 595.492 2.08365 -6.60724 0
M  V30 6500 N 597.285 1.8559 -5.30578 0
M  V30 6501 H 589.436 -0.326881 -2.0987 0
M  V30 6502 H 591.699 -0.0838006 -0.944289 0
M  V30 6503 H 591.405 0.282768 -3.50561 0
M  V30 6504 H 591.279 2.00519 -3.19487 0
M  V30 6505 H 593.666 1.9624 -2.20395 0
M  V30 6506 H 593.747 0.228603 -2.54776 0
M  V30 6507 H 593.391 0.726273 -5.0268 0
M  V30 6508 H 593.321 2.46663 -4.65258 0
M  V30 6509 H 595.812 1.40342 -3.50874 0
M  V30 6510 H 596.125 2.27999 -7.38401 0
M  V30 6511 H 594.47 2.0571 -6.63859 0
M  V30 6512 H 597.661 1.65989 -4.37682 0
M  V30 6513 H 597.834 2.05983 -6.1439 0
M  V30 6514 N 591.24 1.41047 0.703093 0
M  V30 6515 C 592.489 1.39301 1.4587 0
M  V30 6516 C 592.802 0.00267077 1.956 0
M  V30 6517 O 594.008 -0.137414 2.71152 0
M  V30 6518 C 592.464 2.44891 2.63735 0
M  V30 6519 C 592.072 3.89796 2.20824 0
M  V30 6520 C 593.816 2.5227 3.41409 0
M  V30 6521 C 591.723 4.86955 3.35602 0
M  V30 6522 H 590.653 0.518005 0.547893 0
M  V30 6523 H 593.304 1.66839 0.764009 0
M  V30 6524 H 591.686 2.10472 3.35436 0
M  V30 6525 H 592.86 4.33424 1.56461 0
M  V30 6526 H 591.175 3.86008 1.56163 0
M  V30 6527 H 593.772 3.22044 4.26839 0
M  V30 6528 H 594.115 1.55714 3.86081 0
M  V30 6529 H 594.648 2.85742 2.7676 0
M  V30 6530 H 591.387 5.84888 2.9595 0
M  V30 6531 H 590.907 4.47982 3.98839 0
M  V30 6532 H 592.586 5.07361 4.01489 0
M  V30 6533 N 592.718 -0.936591 1.26751 0
M  V30 6534 C 593.65 -2.03991 1.045 0
M  V30 6535 C 594.663 -1.628 0.00394261 0
M  V30 6536 O 595.852 -1.76817 0.244526 0
M  V30 6537 C 592.952 -3.34218 0.561403 0
M  V30 6538 C 592.125 -4.04151 1.67274 0
M  V30 6539 C 591.184 -5.12651 1.1864 0
M  V30 6540 O 590.21 -5.37104 1.88437 0
M  V30 6541 N 591.412 -5.80488 0.037278 0
M  V30 6542 H 594.177 -2.23644 1.99508 0
M  V30 6543 H 591.738 -1.10638 1.18198 0
M  V30 6544 H 593.73 -4.04101 0.220136 0
M  V30 6545 H 592.3 -3.11203 -0.295211 0
M  V30 6546 H 591.52 -3.28121 2.18472 0
M  V30 6547 H 592.808 -4.47626 2.41885 0
M  V30 6548 H 592.206 -5.63064 -0.545494 0
M  V30 6549 H 590.763 -6.5134 -0.244877 0
M  V30 6550 N 594.196 -1.08629 -1.14182 0
M  V30 6551 C 595.473 -0.73002 -1.81466 0
M  V30 6552 C 595.853 0.785996 -1.95922 0
M  V30 6553 O 595.201 1.70535 -1.52086 0
M  V30 6554 C 595.411 -1.45957 -3.17014 0
M  V30 6555 C 596.759 -1.62008 -3.92477 0
M  V30 6556 O 597.783 -1.42141 -3.26611 0
M  V30 6557 O 596.642 -1.94806 -5.106 0
M  V30 6558 H 593.736 -0.261307 -0.784632 0
M  V30 6559 H 596.282 -1.188 -1.2118 0
M  V30 6560 H 595.054 -2.49221 -3.01669 0
M  V30 6561 H 594.677 -0.993222 -3.84995 0
M  V30 6562 N 595.674 1.31259 -0.872281 0
M  V30 6563 C 596.604 2.30929 -0.345554 0
M  V30 6564 C 597.585 1.60449 0.5648 0
M  V30 6565 O 598.77 1.8814 0.481335 0
M  V30 6566 C 595.9 3.44348 0.451823 0
M  V30 6567 C 594.854 4.26435 -0.365641 0
M  V30 6568 C 594.18 5.31785 0.557562 0
M  V30 6569 C 595.48 4.97159 -1.60095 0
M  V30 6570 H 597.174 2.75234 -1.17841 0
M  V30 6571 H 594.72 1.3232 -0.568094 0
M  V30 6572 H 596.673 4.13128 0.830854 0
M  V30 6573 H 595.397 2.98816 1.31821 0
M  V30 6574 H 594.056 3.59326 -0.726649 0
M  V30 6575 H 593.704 4.82502 1.4213 0
M  V30 6576 H 593.404 5.87598 0.0144878 0
M  V30 6577 H 594.928 6.03424 0.933387 0
M  V30 6578 H 596.342 5.58523 -1.29323 0
M  V30 6579 H 594.739 5.62779 -2.08327 0
M  V30 6580 H 595.809 4.24012 -2.35249 0
M  V30 6581 N 597.152 0.631951 1.44375 0
M  V30 6582 C 598.38 0.143867 2.06399 0
M  V30 6583 C 598.795 -1.18188 1.47231 0
M  V30 6584 O 598.152 -1.72511 0.595498 0
M  V30 6585 C 598.203 0.0238253 3.61492 0
M  V30 6586 O 597.924 1.29715 4.18456 0
M  V30 6587 C 599.425 -0.492856 4.40552 0
M  V30 6588 H 596.645 0.0800542 0.666207 0
M  V30 6589 H 599.189 0.866586 1.85231 0
M  V30 6590 H 597.344 -0.649338 3.81919 0
M  V30 6591 H 597.758 1.14252 5.11905 0
M  V30 6592 H 599.232 -0.525861 5.49489 0
M  V30 6593 H 599.709 -1.52006 4.12057 0
M  V30 6594 H 600.315 0.147085 4.25046 0
M  V30 6595 N 598.631 -1.53133 0.372548 0
M  V30 6596 C 599.879 -2.00958 -0.214534 0
M  V30 6597 C 600.2 -1.26135 -1.48711 0
M  V30 6598 O 599.47 -0.376597 -1.92246 0
M  V30 6599 H 598.05 -0.742456 -0.0822664 0
M  V30 6600 H 600.712 -1.88367 0.500385 0
M  V30 6601 H 599.808 -3.09031 -0.436605 0
M  V30 6602 N 600.109 -0.101901 -1.5727 0
M  V30 6603 C 601.039 0.851544 -2.17419 0
M  V30 6604 C 602.02 1.28942 -1.10941 0
M  V30 6605 O 603.205 1.35509 -1.39107 0
M  V30 6606 C 600.335 2.10816 -2.75996 0
M  V30 6607 C 599.289 1.80867 -3.87906 0
M  V30 6608 C 598.615 3.13413 -4.33216 0
M  V30 6609 C 599.915 1.0903 -5.10793 0
M  V30 6610 H 601.609 0.350381 -2.97343 0
M  V30 6611 H 599.155 0.16709 -1.43027 0
M  V30 6612 H 601.108 2.77959 -3.16729 0
M  V30 6613 H 599.832 2.63227 -1.93337 0
M  V30 6614 H 598.491 1.16119 -3.47724 0
M  V30 6615 H 598.139 3.63725 -3.47438 0
M  V30 6616 H 597.839 2.94155 -5.08671 0
M  V30 6617 H 599.363 3.81704 -4.76586 0
M  V30 6618 H 600.777 1.66295 -5.48652 0
M  V30 6619 H 599.174 0.99927 -5.91722 0
M  V30 6620 H 600.244 0.0741704 -4.84843 0
M  V30 6621 N 601.587 1.56661 0.17182 0
M  V30 6622 C 602.864 1.72838 0.915778 0
M  V30 6623 C 603.244 0.66316 2.00413 0
M  V30 6624 O 602.592 -0.322123 2.26218 0
M  V30 6625 C 602.802 3.16019 1.48097 0
M  V30 6626 C 604.15 3.76962 1.95408 0
M  V30 6627 O 605.174 3.19294 1.57892 0
M  V30 6628 O 604.033 4.78219 2.64516 0
M  V30 6629 H 601.127 0.705797 0.431021 0
M  V30 6630 H 603.673 1.68947 0.159689 0
M  V30 6631 H 602.445 3.85031 0.697618 0
M  V30 6632 H 602.068 3.24234 2.30126 0
M  V30 6633 N 603.065 -0.440357 1.51323 0
M  V30 6634 C 604.311 -1.19181 1.64085 0
M  V30 6635 C 604.644 -1.90936 0.354575 0
M  V30 6636 O 603.919 -1.8347 -0.645675 0
M  V30 6637 C 604.202 -2.2112 2.84215 0
M  V30 6638 C 604.055 -1.53468 4.22809 0
M  V30 6639 C 605.374 -3.22133 2.99864 0
M  V30 6640 H 602.493 -0.431924 0.597169 0
M  V30 6641 H 605.135 -0.481443 1.83799 0
M  V30 6642 H 603.285 -2.81703 2.67537 0
M  V30 6643 H 604.957 -0.962455 4.51148 0
M  V30 6644 H 603.2 -0.837086 4.25647 0
M  V30 6645 H 603.871 -2.27694 5.02852 0
M  V30 6646 H 606.347 -2.71601 3.15233 0
M  V30 6647 H 605.223 -3.90756 3.85488 0
M  V30 6648 H 605.484 -3.88061 2.11804 0
M  V30 6649 N 604.543 -1.41418 -0.695603 0
M  V30 6650 C 605.768 -1.44329 -1.48942 0
M  V30 6651 C 606.193 -0.0501579 -1.88033 0
M  V30 6652 O 605.551 0.946598 -1.54626 0
M  V30 6653 C 605.599 -2.3578 -2.72837 0
M  V30 6654 O 604.703 -1.81482 -3.70322 0
M  V30 6655 H 604.044 -0.489838 -0.44828 0
M  V30 6656 H 606.574 -1.85878 -0.855014 0
M  V30 6657 H 606.584 -2.51654 -3.21145 0
M  V30 6658 H 605.259 -3.37005 -2.43722 0
M  V30 6659 H 603.836 -1.75058 -3.29255 0
M  V30 6660 N 606.021 0.929856 -1.27246 0
M  V30 6661 C 607.249 1.71144 -1.16265 0
M  V30 6662 C 607.664 1.867 0.280786 0
M  V30 6663 O 607.021 1.38249 1.19136 0
M  V30 6664 C 607.072 3.11222 -1.83911 0
M  V30 6665 O 606.793 2.96398 -3.22614 0
M  V30 6666 C 608.294 4.05541 -1.79028 0
M  V30 6667 H 605.514 0.535499 -0.404328 0
M  V30 6668 H 608.058 1.16492 -1.68077 0
M  V30 6669 H 606.213 3.6274 -1.36009 0
M  V30 6670 H 606.627 3.8494 -3.56261 0
M  V30 6671 H 608.101 5.01351 -2.30978 0
M  V30 6672 H 608.578 4.32589 -0.759168 0
M  V30 6673 H 609.184 3.59947 -2.26535 0
M  V30 6674 N 607.499 1.09233 1.13605 0
M  V30 6675 C 608.462 0.733553 2.17144 0
M  V30 6676 C 609.462 -0.235873 1.59061 0
M  V30 6677 O 610.652 -0.0143167 1.74194 0
M  V30 6678 C 607.784 0.084471 3.40795 0
M  V30 6679 H 608.977 1.65049 2.50397 0
M  V30 6680 H 606.53 0.891264 1.28399 0
M  V30 6681 H 607.265 -0.843795 3.1313 0
M  V30 6682 H 607.05 0.781985 3.84223 0
M  V30 6683 H 608.54 -0.151216 4.17326 0
M  V30 6684 N 608.977 -1.30795 0.87923 0
M  V30 6685 C 609.887 -2.32041 0.345565 0
M  V30 6686 C 610.903 -1.65103 -0.549265 0
M  V30 6687 O 612.079 -1.9645 -0.443763 0
M  V30 6688 C 609.144 -3.43944 -0.436245 0
M  V30 6689 C 608.205 -4.26521 0.48765 0
M  V30 6690 C 607.438 -5.33081 -0.256943 0
M  V30 6691 O 607.661 -5.50762 -1.48381 0
M  V30 6692 O 606.595 -6.00635 0.389985 0
M  V30 6693 H 610.421 -2.79627 1.18501 0
M  V30 6694 H 608.006 -1.3486 0.642885 0
M  V30 6695 H 609.888 -4.12128 -0.879119 0
M  V30 6696 H 608.563 -2.98504 -1.25208 0
M  V30 6697 H 607.47 -3.61057 0.979216 0
M  V30 6698 H 608.803 -4.75551 1.26933 0
M  V30 6699 N 610.455 -0.639598 -1.44038 0
M  V30 6700 C 611.365 0.0612377 -2.3452 0
M  V30 6701 C 612.381 0.826717 -1.53106 0
M  V30 6702 O 613.557 0.777059 -1.85806 0
M  V30 6703 C 610.622 1.02492 -3.31204 0
M  V30 6704 C 609.683 0.25788 -4.28525 0
M  V30 6705 C 608.916 1.17566 -5.2059 0
M  V30 6706 O 609.139 2.41461 -5.16771 0
M  V30 6707 O 608.073 0.655407 -5.98321 0
M  V30 6708 H 611.899 -0.68318 -2.95916 0
M  V30 6709 H 609.484 -0.399784 -1.43952 0
M  V30 6710 H 611.366 1.57911 -3.90694 0
M  V30 6711 H 610.041 1.7498 -2.7233 0
M  V30 6712 H 608.948 -0.339566 -3.72556 0
M  V30 6713 H 610.281 -0.427154 -4.90343 0
M  V30 6714 N 611.933 1.52934 -0.380664 0
M  V30 6715 C 612.863 2.29118 0.450268 0
M  V30 6716 C 613.844 1.32153 1.07096 0
M  V30 6717 O 615.029 1.61038 1.08537 0
M  V30 6718 C 612.159 3.09161 1.58231 0
M  V30 6719 C 611.113 4.13938 1.0881 0
M  V30 6720 C 610.439 4.82153 2.31155 0
M  V30 6721 C 611.739 5.22048 0.162146 0
M  V30 6722 H 613.433 2.98826 -0.185361 0
M  V30 6723 H 610.979 1.43715 -0.0905886 0
M  V30 6724 H 612.932 3.61211 2.17036 0
M  V30 6725 H 611.656 2.3717 2.2454 0
M  V30 6726 H 610.315 3.62855 0.522633 0
M  V30 6727 H 609.963 4.06719 2.95953 0
M  V30 6728 H 609.663 5.52966 1.98752 0
M  V30 6729 H 611.187 5.37004 2.90618 0
M  V30 6730 H 612.601 5.6951 0.658126 0
M  V30 6731 H 610.998 6.00057 -0.0717122 0
M  V30 6732 H 612.068 4.78398 -0.791438 0
M  V30 6733 N 613.412 0.11024 1.57214 0
M  V30 6734 C 614.344 -0.873497 2.11902 0
M  V30 6735 C 615.357 -1.23588 1.05971 0
M  V30 6736 O 616.546 -1.18636 1.33371 0
M  V30 6737 C 613.646 -2.17805 2.59643 0
M  V30 6738 C 612.819 -1.98869 3.89576 0
M  V30 6739 C 611.878 -3.12974 4.23006 0
M  V30 6740 O 610.904 -2.86272 4.91973 0
M  V30 6741 N 612.106 -4.39167 3.79622 0
M  V30 6742 H 614.871 -0.406317 2.96933 0
M  V30 6743 H 612.432 -0.074437 1.61729 0
M  V30 6744 H 614.424 -2.93117 2.79042 0
M  V30 6745 H 612.994 -2.55899 1.7954 0
M  V30 6746 H 612.214 -1.078 3.79174 0
M  V30 6747 H 613.502 -1.83512 4.74553 0
M  V30 6748 H 612.9 -4.63739 3.2398 0
M  V30 6749 H 611.457 -5.11379 4.04147 0
M  V30 6750 N 614.89 -1.56749 -0.16351 0
M  V30 6751 C 616.136 -1.82704 -0.880168 0
M  V30 6752 C 616.469 -0.689311 -1.81555 0
M  V30 6753 O 615.744 0.308224 -1.92042 0
M  V30 6754 C 616.027 -3.19084 -1.66905 0
M  V30 6755 C 615.88 -4.43397 -0.756269 0
M  V30 6756 C 617.199 -3.52493 -2.63509 0
M  V30 6757 H 614.318 -0.664608 -0.318535 0
M  V30 6758 H 616.96 -1.89438 -0.146036 0
M  V30 6759 H 615.11 -3.13475 -2.2949 0
M  V30 6760 H 616.782 -4.61079 -0.14269 0
M  V30 6761 H 615.025 -4.33752 -0.0647944 0
M  V30 6762 H 615.696 -5.3539 -1.34393 0
M  V30 6763 H 618.172 -3.58606 -2.11047 0
M  V30 6764 H 617.048 -4.48979 -3.15767 0
M  V30 6765 H 617.309 -2.77597 -3.44082 0
M  V30 6766 N 616.368 0.432326 -1.51554 0
M  V30 6767 C 617.331 1.50765 -1.72634 0
M  V30 6768 C 618.331 1.49334 -0.596314 0
M  V30 6769 O 619.521 1.51268 -0.863925 0
M  V30 6770 C 616.653 2.90284 -1.7874 0
M  V30 6771 H 617.846 1.33377 -2.68609 0
M  V30 6772 H 615.399 0.661329 -1.4162 0
M  V30 6773 H 616.134 3.13071 -0.845977 0
M  V30 6774 H 615.919 2.92727 -2.6087 0
M  V30 6775 H 617.409 3.68282 -1.96871 0
M  V30 6776 N 617.846 1.41785 0.688094 0
M  V30 6777 C 618.794 1.44436 1.82321 0
M  V30 6778 C 619.788 0.321544 1.6632 0
M  V30 6779 O 620.994 0.493931 1.73091 0
M  V30 6780 H 617.369 0.452084 0.600936 0
M  V30 6781 H 619.34 2.40087 1.77202 0
M  V30 6782 C 618.089 1.35071 3.20392 0
M  V30 6783 H 617.412 2.2076 3.33324 0
M  V30 6784 H 618.852 1.40988 3.99873 0
M  V30 6785 C 617.311 0.0639127 3.36839 0
M  V30 6786 O 617.841 -0.888495 3.91751 0
M  V30 6787 N 616.047 -0.0146114 2.90596 0
M  V30 6788 H 615.594 0.761191 2.46097 0
M  V30 6789 H 615.552 -0.874988 3.01979 0
M  V30 6790 N 619.324 -0.923095 1.27737 0
M  V30 6791 C 620.554 -1.70277 1.17001 0
M  V30 6792 C 620.962 -1.87188 -0.275199 0
M  V30 6793 O 620.305 -1.39195 -1.19877 0
M  V30 6794 C 620.367 -3.11976 1.78637 0
M  V30 6795 C 620.031 -3.18386 3.27841 0
M  V30 6796 C 621.028 -3.00287 4.2441 0
M  V30 6797 C 618.713 -3.41198 3.68632 0
M  V30 6798 C 620.707 -3.04896 5.59747 0
M  V30 6799 C 618.394 -3.4544 5.04097 0
M  V30 6800 C 619.392 -3.27309 5.99465 0
M  V30 6801 O 619.08 -3.31295 7.32461 0
M  V30 6802 H 618.812 -0.539366 0.407505 0
M  V30 6803 H 621.366 -1.16446 1.69202 0
M  V30 6804 H 619.596 -3.67308 1.20919 0
M  V30 6805 H 621.285 -3.7193 1.6255 0
M  V30 6806 H 622.051 -2.825 3.94232 0
M  V30 6807 H 617.93 -3.54359 2.94873 0
M  V30 6808 H 621.474 -2.90662 6.34162 0
M  V30 6809 H 617.371 -3.62753 5.33929 0
M  V30 6810 H 618.139 -3.47719 7.40968 0
M  V30 6811 N 620.802 -1.09834 -1.13024 0
M  V30 6812 C 622.05 -0.835297 -1.8403 0
M  V30 6813 C 622.371 0.640944 -1.84165 0
M  V30 6814 O 621.641 1.46517 -1.30037 0
M  V30 6815 H 620.221 -0.306018 -0.681441 0
M  V30 6816 H 622.883 -1.38734 -1.36891 0
M  V30 6817 H 621.979 -1.19258 -2.88416 0
M  V30 6818 N 622.28 1.30327 -0.886154 0
M  V30 6819 C 623.526 1.96388 -0.505941 0
M  V30 6820 C 623.859 1.69784 0.942712 0
M  V30 6821 O 623.134 1.00322 1.6663 0
M  V30 6822 C 623.417 3.51488 -0.782826 0
M  V30 6823 C 623.27 3.87603 -2.28219 0
M  V30 6824 C 624.589 4.39331 -0.260128 0
M  V30 6825 H 621.708 0.713327 -0.185292 0
M  V30 6826 H 624.35 1.54178 -1.11036 0
M  V30 6827 H 622.5 3.87572 -0.268399 0
M  V30 6828 H 624.172 3.61537 -2.86512 0
M  V30 6829 H 622.415 3.3563 -2.74837 0
M  V30 6830 H 623.086 4.95806 -2.42653 0
M  V30 6831 H 625.562 4.10162 -0.700444 0
M  V30 6832 H 624.438 5.46769 -0.483179 0
M  V30 6833 H 624.699 4.34072 0.838674 0
M  V30 6834 N 623.758 0.647228 1.43697 0
M  V30 6835 C 625.006 0.157876 2.01482 0
M  V30 6836 C 625.327 -1.23039 1.51282 0
M  V30 6837 O 624.597 -1.82071 0.722982 0
M  V30 6838 H 623.177 0.0553745 0.744945 0
M  V30 6839 H 625.839 0.83755 1.75986 0
M  V30 6840 H 624.935 0.137895 3.11795 0
M  V30 6841 N 625.236 -1.5273 0.388769 0
M  V30 6842 C 626.484 -2.01174 -0.193208 0
M  V30 6843 C 626.805 -1.27705 -1.47365 0
M  V30 6844 O 626.075 -0.396966 -1.91836 0
M  V30 6845 H 624.655 -0.743287 -0.0743871 0
M  V30 6846 H 627.317 -1.87826 0.520336 0
M  V30 6847 H 626.413 -3.09477 -0.403803 0
M  V30 6848 N 626.714 -0.118576 -1.57153 0
M  V30 6849 C 627.646 0.862247 -2.12363 0
M  V30 6850 C 628.659 1.23025 -1.06625 0
M  V30 6851 O 629.848 1.17927 -1.33998 0
M  V30 6852 C 626.948 2.16425 -2.60794 0
M  V30 6853 C 626.121 1.96801 -3.90626 0
M  V30 6854 C 625.18 3.10726 -4.2466 0
M  V30 6855 O 624.206 2.83659 -4.93484 0
M  V30 6856 N 625.408 4.37147 -3.81946 0
M  V30 6857 H 628.173 0.390564 -2.97144 0
M  V30 6858 H 625.734 0.0658591 -1.61766 0
M  V30 6859 H 627.726 2.91633 -2.80593 0
M  V30 6860 H 626.296 2.54943 -1.80895 0
M  V30 6861 H 625.516 1.05787 -3.7974 0
M  V30 6862 H 626.804 1.80993 -4.7552 0
M  V30 6863 H 626.202 4.62014 -3.26435 0
M  V30 6864 H 624.759 5.09229 -4.06853 0
M  V30 6865 N 628.193 1.56834 0.155195 0
M  V30 6866 C 629.423 1.86778 0.883044 0
M  V30 6867 C 629.831 0.703824 1.75622 0
M  V30 6868 O 629.174 -0.33581 1.80605 0
M  V30 6869 C 629.236 3.1133 1.79761 0
M  V30 6870 C 628.9 4.43504 1.10242 0
M  V30 6871 C 629.897 5.17859 0.460204 0
M  V30 6872 C 627.582 4.90233 1.09437 0
M  V30 6873 C 629.576 6.37144 -0.180782 0
M  V30 6874 C 627.263 6.09444 0.449569 0
M  V30 6875 C 628.261 6.82744 -0.186888 0
M  V30 6876 O 627.949 7.99692 -0.821486 0
M  V30 6877 H 627.681 0.62352 0.261149 0
M  V30 6878 H 630.235 2.04813 0.155204 0
M  V30 6879 H 628.465 2.89282 2.56618 0
M  V30 6880 H 630.154 3.27587 2.39669 0
M  V30 6881 H 630.92 4.8283 0.458289 0
M  V30 6882 H 626.799 4.33109 1.57917 0
M  V30 6883 H 630.343 6.94296 -0.678154 0
M  V30 6884 H 626.24 6.43936 0.449123 0
M  V30 6885 H 627.008 8.15306 -0.722337 0
M  V30 6886 N 629.671 -0.424282 1.51781 0
M  V30 6887 C 630.581 -1.54087 1.76902 0
M  V30 6888 C 631.597 -1.61249 0.653826 0
M  V30 6889 O 632.773 -1.78247 0.937552 0
M  V30 6890 C 629.838 -2.8996 1.90063 0
M  V30 6891 C 628.899 -2.92809 3.13945 0
M  V30 6892 C 628.132 -4.22201 3.26469 0
M  V30 6893 O 628.355 -5.15286 2.44616 0
M  V30 6894 O 627.289 -4.31599 4.1953 0
M  V30 6895 H 631.115 -1.358 2.71647 0
M  V30 6896 H 628.7 -0.608618 1.36441 0
M  V30 6897 H 630.582 -3.70575 2.0063 0
M  V30 6898 H 629.257 -3.08347 0.985067 0
M  V30 6899 H 628.164 -2.11102 3.08847 0
M  V30 6900 H 629.497 -2.79369 4.05233 0
M  V30 6901 N 631.149 -1.42148 -0.680565 0
M  V30 6902 C 632.56 -1.3768 -1.26099 0
M  V30 6903 C 632.911 -0.0672348 -1.96085 0
M  V30 6904 O 632.036 0.834172 -1.99676 0
M  V30 6905 C 632.631 -2.49387 -2.29328 0
M  V30 6906 C 631.19 -2.4827 -2.82911 0
M  V30 6907 C 630.337 -2.2847 -1.57152 0
M  V30 6908 H 633.288 -1.51446 -0.474326 0
M  V30 6909 H 633.309 -2.19307 -3.10941 0
M  V30 6910 H 632.821 -3.44686 -1.78363 0
M  V30 6911 H 630.922 -1.56773 -3.38013 0
M  V30 6912 H 631.035 -3.45109 -3.3232 0
M  V30 6913 H 629.399 -1.76623 -1.83511 0
M  V30 6914 H 630.182 -3.25816 -1.0816 0
M  V30 6915 N 632.627 0.916307 -1.28225 0
M  V30 6916 C 633.577 2.00488 -1.08574 0
M  V30 6917 C 634.561 1.60897 -0.0101874 0
M  V30 6918 O 635.753 1.75499 -0.230034 0
M  V30 6919 C 632.882 3.35076 -0.746943 0
M  V30 6920 C 631.968 3.81077 -1.86121 0
M  V30 6921 N 632.359 3.99475 -3.10247 0
M  V30 6922 C 630.657 4.10212 -1.75048 0
M  V30 6923 C 631.358 4.37965 -3.82834 0
M  V30 6924 N 630.334 4.4608 -3.10667 0
M  V30 6925 H 634.136 2.1276 -2.02757 0
M  V30 6926 H 631.65 1.10397 -1.19107 0
M  V30 6927 H 633.647 4.12743 -0.587252 0
M  V30 6928 H 632.307 3.2416 0.187146 0
M  V30 6929 H 633.318 3.85466 -3.45885 0
M  V30 6930 H 629.995 4.07947 -0.887999 0
M  V30 6931 H 631.385 4.60183 -4.89572 0
M  V30 6932 N 634.105 1.10431 1.1244 0
M  V30 6933 C 635.352 0.846717 1.83948 0
M  V30 6934 C 635.68 -0.627709 1.84093 0
M  V30 6935 O 634.935 -1.47876 1.28184 0
M  V30 6936 C 635.234 1.34022 3.3132 0
M  V30 6937 C 634.9 2.82606 3.51347 0
M  V30 6938 C 633.562 3.23182 3.56521 0
M  V30 6939 C 635.914 3.78356 3.58464 0
M  V30 6940 C 633.242 4.58258 3.66356 0
M  V30 6941 C 635.594 5.13234 3.69829 0
M  V30 6942 C 634.258 5.53384 3.73259 0
M  V30 6943 H 633.528 0.309836 0.673114 0
M  V30 6944 H 636.175 1.38091 1.32677 0
M  V30 6945 H 634.48 0.726047 3.85014 0
M  V30 6946 H 636.177 1.11739 3.85118 0
M  V30 6947 H 632.767 2.50212 3.47983 0
M  V30 6948 H 636.951 3.48115 3.53737 0
M  V30 6949 H 632.207 4.88787 3.67284 0
M  V30 6950 H 636.381 5.87272 3.74279 0
M  V30 6951 H 634.008 6.58045 3.80633 0
M  V30 6952 N 635.583 -1.29855 0.893053 0
M  V30 6953 C 636.86 -1.90694 0.435336 0
M  V30 6954 C 637.24 -1.8111 -1.08454 0
M  V30 6955 O 636.588 -1.23352 -1.92345 0
M  V30 6956 C 636.798 -3.36033 0.942472 0
M  V30 6957 C 638.146 -4.13083 0.982226 0
M  V30 6958 O 639.17 -3.4491 0.889686 0
M  V30 6959 O 638.029 -5.34896 1.12022 0
M  V30 6960 H 635.123 -0.815978 0.134567 0
M  V30 6961 H 637.669 -1.38367 0.982484 0
M  V30 6962 H 636.441 -3.37132 1.9864 0
M  V30 6963 H 636.064 -3.95828 0.374952 0
M  V30 6964 N 637.061 -0.65484 -1.43351 0
M  V30 6965 C 638.308 -0.168892 -2.01794 0
M  V30 6966 C 638.636 1.2177 -1.51665 0
M  V30 6967 O 637.891 1.82717 -0.70092 0
M  V30 6968 C 638.19 -0.130424 -3.57162 0
M  V30 6969 C 637.856 -1.45898 -4.26643 0
M  V30 6970 C 636.518 -1.82279 -4.4534 0
M  V30 6971 C 638.87 -2.33485 -4.65976 0
M  V30 6972 C 636.198 -3.0591 -5.00635 0
M  V30 6973 C 638.55 -3.5641 -5.22642 0
M  V30 6974 C 637.214 -3.92985 -5.39555 0
M  V30 6975 H 636.484 -0.061802 -0.738418 0
M  V30 6976 H 639.131 -0.845869 -1.71806 0
M  V30 6977 H 637.436 0.630008 -3.86702 0
M  V30 6978 H 639.133 0.262465 -4.0014 0
M  V30 6979 H 635.723 -1.16591 -4.12437 0
M  V30 6980 H 639.907 -2.06668 -4.51223 0
M  V30 6981 H 635.163 -3.34295 -5.11915 0
M  V30 6982 H 639.337 -4.24495 -5.52066 0
M  V30 6983 H 636.964 -4.88862 -5.82167 0
M  V30 6984 N 638.539 1.52521 -0.396863 0
M  V30 6985 C 639.502 2.2527 0.422604 0
M  V30 6986 C 640.502 1.27184 0.983913 0
M  V30 6987 O 641.692 1.51222 0.864723 0
M  V30 6988 C 638.824 3.01356 1.59365 0
M  V30 6989 H 640.017 2.99133 -0.214416 0
M  V30 6990 H 637.57 1.55587 -0.149128 0
M  V30 6991 H 638.305 2.31813 2.26789 0
M  V30 6992 H 638.09 3.73357 1.19779 0
M  V30 6993 H 639.58 3.56571 2.17363 0
M  V30 6994 N 640.017 0.126909 1.57088 0
M  V30 6995 C 641.433 -0.229641 1.57939 0
M  V30 6996 C 641.633 -1.66145 1.1401 0
M  V30 6997 O 640.689 -2.3843 0.831119 0
M  V30 6998 C 642.002 0.0108648 3.00698 0
M  V30 6999 C 643.55 -0.054418 3.12953 0
M  V30 7000 C 644.025 0.158497 4.57726 0
M  V30 7001 N 645.516 0.104735 4.63082 0
M  V30 7002 C 646.251 0.24427 5.72879 0
M  V30 7003 N 645.747 0.440415 6.91399 0
M  V30 7004 N 647.54 0.183286 5.61801 0
M  V30 7005 H 639.691 1.06203 1.83942 0
M  V30 7006 H 641.954 0.418834 0.85046 0
M  V30 7007 H 641.66 1.00102 3.37154 0
M  V30 7008 H 641.534 -0.717512 3.70313 0
M  V30 7009 H 643.921 -1.0351 2.7635 0
M  V30 7010 H 644.002 0.705967 2.45865 0
M  V30 7011 H 643.646 1.13619 4.95028 0
M  V30 7012 H 643.576 -0.62197 5.22914 0
M  V30 7013 H 646.067 -0.0430298 3.77876 0
M  V30 7014 H 646.38 0.537536 7.70928 0
M  V30 7015 H 644.725 0.476488 6.93365 0
M  V30 7016 H 647.916 0.0309561 4.6809 0
M  V30 7017 H 648.089 0.295471 6.47326 0
M  V30 7018 N 641.495 -1.56914 -0.146875 0
M  V30 7019 C 642.442 -1.98275 -1.18134 0
M  V30 7020 C 643.412 -0.850367 -1.42681 0
M  V30 7021 O 644.597 -1.11244 -1.55014 0
M  V30 7022 C 641.737 -2.36861 -2.5098 0
M  V30 7023 C 640.85 -3.63391 -2.33605 0
M  V30 7024 C 639.985 -3.91079 -3.59486 0
M  V30 7025 C 639.024 -5.10879 -3.37149 0
M  V30 7026 N 638.161 -5.34577 -4.55161 0
M  V30 7027 H 643.001 -2.8645 -0.821622 0
M  V30 7028 H 640.538 -1.41718 -0.394248 0
M  V30 7029 H 642.496 -2.57262 -3.28439 0
M  V30 7030 H 641.126 -1.51766 -2.84898 0
M  V30 7031 H 640.178 -3.50766 -1.47199 0
M  V30 7032 H 641.49 -4.51007 -2.13059 0
M  V30 7033 H 640.644 -4.11979 -4.45374 0
M  V30 7034 H 639.383 -3.01885 -3.83036 0
M  V30 7035 H 638.388 -4.89853 -2.49649 0
M  V30 7036 H 639.613 -6.01626 -3.14997 0
M  V30 7037 H 637.559 -4.48337 -4.78884 0
M  V30 7038 H 637.476 -6.16463 -4.37618 0
M  V30 7039 H 638.744 -5.59975 -5.42263 0
M  V30 7040 N 642.974 0.416227 -1.52004 0
M  V30 7041 C 644.251 1.17637 -1.56272 0
M  V30 7042 C 644.631 2.08352 -0.339493 0
M  V30 7043 O 643.979 2.1833 0.674124 0
M  V30 7044 C 644.189 1.95986 -2.88774 0
M  V30 7045 C 645.537 2.52299 -3.41512 0
M  V30 7046 O 646.561 2.06174 -2.90467 0
M  V30 7047 O 645.42 3.3648 -4.30631 0
M  V30 7048 H 642.514 0.536726 -0.629169 0
M  V30 7049 H 645.06 0.423583 -1.64329 0
M  V30 7050 H 643.832 1.29487 -3.69254 0
M  V30 7051 H 643.455 2.78285 -2.83978 0
M  V30 7052 N 644.452 1.42507 0.673017 0
M  V30 7053 C 645.362 1.4853 1.81593 0
M  V30 7054 C 646.378 0.373907 1.69935 0
M  V30 7055 O 647.554 0.625078 1.91454 0
M  V30 7056 C 644.619 1.387 3.17747 0
M  V30 7057 C 643.68 2.60346 3.41348 0
M  V30 7058 C 642.913 2.50975 4.71007 0
M  V30 7059 O 643.136 1.54659 5.49033 0
M  V30 7060 O 642.07 3.41138 4.95892 0
M  V30 7061 H 645.896 2.45001 1.79467 0
M  V30 7062 H 643.481 1.2429 0.82899 0
M  V30 7063 H 645.363 1.35586 3.98992 0
M  V30 7064 H 644.038 0.453555 3.20507 0
M  V30 7065 H 642.945 2.69034 2.59945 0
M  V30 7066 H 644.278 3.52595 3.43421 0
M  V30 7067 N 645.93 -0.909495 1.28709 0
M  V30 7068 C 647.341 -1.47419 1.14563 0
M  V30 7069 C 647.692 -1.94432 -0.262832 0
M  V30 7070 O 646.817 -1.82842 -1.15748 0
M  V30 7071 C 647.412 -2.67933 2.07358 0
M  V30 7072 C 645.971 -3.20568 1.97264 0
M  V30 7073 C 645.118 -1.93269 1.98852 0
M  V30 7074 H 648.069 -0.721787 1.41336 0
M  V30 7075 H 648.09 -3.43339 1.64007 0
M  V30 7076 H 647.602 -2.33685 3.09859 0
M  V30 7077 H 645.703 -3.59531 0.978157 0
M  V30 7078 H 645.816 -3.85529 2.84436 0
M  V30 7079 H 644.18 -2.10553 1.43317 0
M  V30 7080 H 644.963 -1.61312 3.0304 0
M  V30 7081 N 647.408 -1.11026 -1.11852 0
M  V30 7082 C 648.685 -0.768347 -1.79877 0
M  V30 7083 C 649.065 0.744261 -1.97545 0
M  V30 7084 O 648.413 1.67271 -1.55669 0
M  V30 7085 C 648.623 -1.52648 -3.13846 0
M  V30 7086 C 649.971 -1.70297 -3.88953 0
M  V30 7087 O 650.995 -1.49037 -3.23522 0
M  V30 7088 O 649.854 -2.05593 -5.06353 0
M  V30 7089 H 646.948 -0.277891 -0.778913 0
M  V30 7090 H 649.494 -1.21343 -1.18633 0
M  V30 7091 H 648.266 -2.55564 -2.96315 0
M  V30 7092 H 647.889 -1.07466 -3.82801 0
M  V30 7093 N 648.886 1.2938 -0.899927 0
M  V30 7094 C 649.849 2.25983 -0.382677 0
M  V30 7095 C 650.849 1.53366 0.483259 0
M  V30 7096 O 652.039 1.71798 0.28828 0
M  V30 7097 C 649.171 3.37878 0.452915 0
M  V30 7098 H 650.364 2.73252 -1.23586 0
M  V30 7099 H 647.917 1.40825 -0.678088 0
M  V30 7100 H 648.652 2.95949 1.32608 0
M  V30 7101 H 648.437 3.91742 -0.167562 0
M  V30 7102 H 649.927 4.09746 0.806107 0
M  V30 7103 N 650.364 0.662433 1.43002 0
M  V30 7104 C 651.611 0.179591 2.01702 0
M  V30 7105 C 651.939 -1.20964 1.52309 0
M  V30 7106 O 651.194 -1.82343 0.7106 0
M  V30 7107 C 651.493 0.149363 3.57088 0
M  V30 7108 C 651.159 1.48158 4.25864 0
M  V30 7109 C 649.821 1.84638 4.44367 0
M  V30 7110 C 652.173 2.35953 4.64732 0
M  V30 7111 C 649.501 3.08561 4.99006 0
M  V30 7112 C 651.853 3.59176 5.20745 0
M  V30 7113 C 650.517 3.95841 5.37463 0
M  V30 7114 H 649.787 0.0657172 0.73808 0
M  V30 7115 H 652.434 0.854968 1.71355 0
M  V30 7116 H 650.739 -0.609491 3.8703 0
M  V30 7117 H 652.436 -0.241241 4.00274 0
M  V30 7118 H 649.026 1.18777 4.11813 0
M  V30 7119 H 653.21 2.09058 4.50121 0
M  V30 7120 H 648.466 3.37005 5.10135 0
M  V30 7121 H 652.64 4.27417 5.49807 0
M  V30 7122 H 650.267 4.91942 5.79566 0
M  V30 7123 N 651.842 -1.52309 0.404946 0
M  V30 7124 C 652.789 -2.26898 -0.422597 0
M  V30 7125 C 653.759 -1.2914 -1.04461 0
M  V30 7126 O 654.944 -1.57996 -1.06967 0
M  V30 7127 C 652.084 -3.09053 -1.53559 0
M  V30 7128 C 651.197 -4.21762 -0.934908 0
M  V30 7129 C 650.332 -4.91283 -2.02025 0
M  V30 7130 C 649.371 -5.95962 -1.39628 0
M  V30 7131 N 648.508 -6.59017 -2.42159 0
M  V30 7132 H 653.348 -2.97188 0.219903 0
M  V30 7133 H 650.885 -1.46607 0.120282 0
M  V30 7134 H 652.843 -3.54987 -2.19181 0
M  V30 7135 H 651.473 -2.40942 -2.14818 0
M  V30 7136 H 650.525 -3.80029 -0.167854 0
M  V30 7137 H 651.837 -4.96864 -0.439073 0
M  V30 7138 H 650.991 -5.40601 -2.75383 0
M  V30 7139 H 649.73 -4.15741 -2.54973 0
M  V30 7140 H 648.735 -5.45968 -0.648023 0
M  V30 7141 H 649.96 -6.73445 -0.874553 0
M  V30 7142 H 647.906 -5.86306 -2.94247 0
M  V30 7143 H 647.823 -7.2978 -1.97376 0
M  V30 7144 H 649.091 -7.12974 -3.15099 0
M  V30 7145 N 653.32 -0.135238 -1.57019 0
M  V30 7146 C 654.23 0.822226 -2.19719 0
M  V30 7147 C 655.246 1.28057 -1.17802 0
M  V30 7148 O 656.422 1.3402 -1.50335 0
M  V30 7149 C 653.487 2.0484 -2.79717 0
M  V30 7150 C 652.548 1.64042 -3.96723 0
M  V30 7151 C 651.781 2.80814 -4.53849 0
M  V30 7152 O 652.004 3.967 -4.0986 0
M  V30 7153 O 650.938 2.56963 -5.44292 0
M  V30 7154 H 654.764 0.318552 -3.02025 0
M  V30 7155 H 652.349 0.0912021 -1.49121 0
M  V30 7156 H 654.231 2.76622 -3.17897 0
M  V30 7157 H 652.906 2.54182 -2.00432 0
M  V30 7158 H 651.813 0.893182 -3.63281 0
M  V30 7159 H 653.146 1.19426 -4.77492 0
M  V30 7160 N 654.798 1.5699 0.138552 0
M  V30 7161 C 655.728 2.01933 1.17241 0
M  V30 7162 C 656.709 0.90033 1.44319 0
M  V30 7163 O 657.894 1.16872 1.55095 0
M  V30 7164 C 655.024 2.40711 2.50351 0
M  V30 7165 C 653.978 3.55874 2.37776 0
M  V30 7166 C 653.304 3.80491 3.75674 0
M  V30 7167 C 654.604 4.8826 1.85472 0
M  V30 7168 H 656.298 2.88551 0.798672 0
M  V30 7169 H 653.844 1.3882 0.382743 0
M  V30 7170 H 655.797 2.70754 3.22909 0
M  V30 7171 H 654.521 1.5104 2.89576 0
M  V30 7172 H 653.18 3.2601 1.67669 0
M  V30 7173 H 652.828 2.88057 4.12349 0
M  V30 7174 H 652.528 4.57998 3.68119 0
M  V30 7175 H 654.052 4.12967 4.49767 0
M  V30 7176 H 655.466 5.16965 2.4783 0
M  V30 7177 H 653.863 5.69631 1.88787 0
M  V30 7178 H 654.933 4.78071 0.810935 0
M  V30 7179 N 656.276 -0.40816 1.52223 0
M  V30 7180 C 657.524 -1.15274 1.66001 0
M  V30 7181 C 657.845 -1.91003 0.392803 0
M  V30 7182 O 657.115 -1.8673 -0.592336 0
M  V30 7183 H 655.695 -0.428526 0.611861 0
M  V30 7184 H 658.357 -0.46512 1.89269 0
M  V30 7185 H 657.453 -1.86628 2.50153 0
M  V30 7186 N 657.755 -1.42862 -0.66545 0
M  V30 7187 C 658.983 -1.47246 -1.45349 0
M  V30 7188 C 659.398 -0.0865944 -1.88601 0
M  V30 7189 O 658.755 0.900652 -1.58728 0
M  V30 7190 C 658.806 -2.40772 -2.6965 0
M  V30 7191 O 658.527 -3.73968 -2.2821 0
M  V30 7192 C 660.028 -2.54272 -3.63126 0
M  V30 7193 H 657.248 -0.500497 -0.446927 0
M  V30 7194 H 659.792 -1.87477 -0.816871 0
M  V30 7195 H 657.947 -2.0377 -3.29479 0
M  V30 7196 H 658.361 -4.24146 -3.08546 0
M  V30 7197 H 659.835 -3.23815 -4.47043 0
M  V30 7198 H 660.312 -1.58364 -4.09656 0
M  V30 7199 H 660.918 -2.92036 -3.09185 0
M  V30 7200 N 659.233 0.902656 -1.29189 0
M  V30 7201 C 660.481 1.6496 -1.16758 0
M  V30 7202 C 660.802 1.92952 0.28188 0
M  V30 7203 O 660.072 1.55351 1.19344 0
M  V30 7204 H 658.652 0.611447 -0.429118 0
M  V30 7205 H 661.314 1.0825 -1.62074 0
M  V30 7206 H 660.41 2.60728 -1.71544 0
M  V30 7207 N 660.711 1.11618 1.11262 0
M  V30 7208 C 661.659 0.771291 2.1944 0
M  V30 7209 C 662.653 -0.238073 1.67719 0
M  V30 7210 O 663.859 -0.0971628 1.79738 0
M  V30 7211 H 660.234 0.231548 0.715465 0
M  V30 7212 H 662.205 1.69226 2.45775 0
M  V30 7213 C 660.954 0.232765 3.4692 0
M  V30 7214 H 660.277 1.00072 3.87073 0
M  V30 7215 H 661.717 0.0296561 4.2399 0
M  V30 7216 C 660.176 -1.03738 3.20531 0
M  V30 7217 O 660.706 -2.11675 3.41404 0
M  V30 7218 N 658.912 -0.960906 2.74253 0
M  V30 7219 H 658.459 -0.0824323 2.57468 0
M  V30 7220 H 658.417 -1.8114 2.56974 0
M  V30 7221 N 662.189 -1.289 0.906776 0
M  V30 7222 C 663.605 -1.47733 0.603902 0
M  V30 7223 C 663.805 -1.82568 -0.852702 0
M  V30 7224 O 662.861 -1.92642 -1.63234 0
M  V30 7225 C 664.174 -2.58522 1.53581 0
M  V30 7226 C 665.722 -2.72394 1.54177 0
M  V30 7227 C 666.197 -3.86318 2.46013 0
M  V30 7228 N 667.688 -3.93661 2.441 0
M  V30 7229 C 668.423 -4.81177 3.11859 0
M  V30 7230 N 667.919 -5.73333 3.88923 0
M  V30 7231 N 669.712 -4.74728 3.00981 0
M  V30 7232 H 661.863 -1.04567 1.84877 0
M  V30 7233 H 664.126 -0.520118 0.792579 0
M  V30 7234 H 663.832 -2.39667 2.57396 0
M  V30 7235 H 663.706 -3.55475 1.26165 0
M  V30 7236 H 666.093 -2.90641 0.511034 0
M  V30 7237 H 666.174 -1.75993 1.85634 0
M  V30 7238 H 665.818 -3.68826 3.49185 0
M  V30 7239 H 665.748 -4.82102 2.11862 0
M  V30 7240 H 668.239 -3.27751 1.88115 0
M  V30 7241 H 668.552 -6.36923 4.37663 0
M  V30 7242 H 666.897 -5.73196 3.93029 0
M  V30 7243 H 670.088 -4.01722 2.40286 0
M  V30 7244 H 670.261 -5.42719 3.54062 0
M  V30 7245 N 663.667 -0.670007 -1.42649 0
M  V30 7246 C 664.916 -0.187526 -2.00826 0
M  V30 7247 C 665.229 1.21142 -1.53571 0
M  V30 7248 O 666.435 1.79001 -2.04134 0
M  V30 7249 C 664.891 -0.284409 -3.58774 0
M  V30 7250 C 664.499 -1.6871 -4.15019 0
M  V30 7251 C 666.243 0.139605 -4.2427 0
M  V30 7252 C 664.15 -1.73701 -5.65316 0
M  V30 7253 H 663.08 -0.0663468 -0.751075 0
M  V30 7254 H 665.731 -0.834492 -1.63427 0
M  V30 7255 H 664.113 0.430364 -3.93655 0
M  V30 7256 H 665.287 -2.42857 -3.91608 0
M  V30 7257 H 663.602 -2.05855 -3.61957 0
M  V30 7258 H 666.199 0.122398 -5.3456 0
M  V30 7259 H 666.542 1.17403 -3.99402 0
M  V30 7260 H 667.075 -0.523995 -3.94334 0
M  V30 7261 H 663.814 -2.75109 -5.94975 0
M  V30 7262 H 663.334 -1.03903 -5.90732 0
M  V30 7263 H 665.013 -1.48829 -6.2965 0
M  V30 7264 N 665.145 1.52092 -0.413018 0
M  V30 7265 C 666.108 2.25706 0.398687 0
M  V30 7266 C 667.108 1.28221 0.970368 0
M  V30 7267 O 668.298 1.52131 0.848635 0
M  V30 7268 C 665.43 3.03029 1.5616 0
M  V30 7269 H 666.623 2.98888 -0.246131 0
M  V30 7270 H 664.176 1.5542 -0.165622 0
M  V30 7271 H 664.911 2.34205 2.24317 0
M  V30 7272 H 664.696 3.74606 1.15812 0
M  V30 7273 H 666.186 3.58857 2.13569 0
M  V30 7274 N 666.623 0.143563 1.56945 0
M  V30 7275 C 667.851 -0.515447 2.00377 0
M  V30 7276 C 668.266 -1.58643 1.02361 0
M  V30 7277 O 667.623 -1.82489 0.0201039 0
M  V30 7278 C 667.674 -1.11923 3.43737 0
M  V30 7279 O 667.395 -0.0910318 4.38005 0
M  V30 7280 C 668.896 -1.85918 4.02429 0
M  V30 7281 H 666.116 -0.134478 0.657386 0
M  V30 7282 H 668.66 0.237135 2.0312 0
M  V30 7283 H 666.815 -1.82245 3.41856 0
M  V30 7284 H 667.229 -0.532916 5.21786 0
M  V30 7285 H 668.703 -2.2346 5.04747 0
M  V30 7286 H 669.18 -2.7438 3.42947 0
M  V30 7287 H 669.786 -1.20303 4.07931 0
M  V30 7288 N 668.101 -1.57061 -0.130224 0
M  V30 7289 C 669.347 -1.85412 -0.836295 0
M  V30 7290 C 669.702 -0.729831 -1.7802 0
M  V30 7291 O 668.995 0.271021 -1.89673 0
M  V30 7292 C 669.189 -3.17878 -1.63365 0
M  V30 7293 C 669.018 -4.43086 -0.768453 0
M  V30 7294 C 667.788 -5.03488 -0.427598 0
M  V30 7295 C 669.986 -5.14219 -0.0911495 0
M  V30 7296 N 667.968 -6.12253 0.449439 0
M  V30 7297 C 669.339 -6.16632 0.645341 0
M  V30 7298 C 671.394 -4.97898 -0.0135625 0
M  V30 7299 C 670.097 -7.0449 1.45212 0
M  V30 7300 C 672.123 -5.86234 0.780001 0
M  V30 7301 C 671.485 -6.88141 1.50472 0
M  V30 7302 H 667.584 -0.728875 -0.283311 0
M  V30 7303 H 670.168 -1.9444 -0.100662 0
M  V30 7304 H 668.339 -3.09967 -2.3404 0
M  V30 7305 H 670.071 -3.34076 -2.28419 0
M  V30 7306 H 666.826 -4.67344 -0.767264 0
M  V30 7307 H 667.25 -6.71263 0.879476 0
M  V30 7308 H 671.892 -4.19082 -0.559511 0
M  V30 7309 H 669.61 -7.82722 2.00926 0
M  V30 7310 H 673.196 -5.75671 0.842246 0
M  V30 7311 H 672.076 -7.55311 2.1089 0
M  V30 7312 N 669.579 0.400081 -1.52437 0
M  V30 7313 C 670.509 1.4947 -1.7939 0
M  V30 7314 C 671.49 1.57383 -0.645329 0
M  V30 7315 O 672.675 1.72511 -0.891826 0
M  V30 7316 C 669.805 2.87201 -1.95276 0
M  V30 7317 C 668.759 2.94134 -3.10917 0
M  V30 7318 C 668.085 4.34207 -3.1204 0
M  V30 7319 C 669.385 2.64791 -4.50203 0
M  V30 7320 H 671.079 1.27165 -2.71052 0
M  V30 7321 H 668.625 0.610312 -1.30427 0
M  V30 7322 H 670.578 3.63772 -2.12715 0
M  V30 7323 H 669.302 3.10819 -1.00294 0
M  V30 7324 H 667.961 2.20009 -2.93243 0
M  V30 7325 H 667.609 4.54848 -2.14761 0
M  V30 7326 H 667.309 4.39768 -3.89715 0
M  V30 7327 H 668.833 5.127 -3.31619 0
M  V30 7328 H 670.247 3.31083 -4.68035 0
M  V30 7329 H 668.644 2.81717 -5.29864 0
M  V30 7330 H 669.714 1.60184 -4.57678 0
M  V30 7331 N 671.057 1.43213 0.657864 0
M  V30 7332 C 672.304 1.44584 1.41781 0
M  V30 7333 C 672.632 0.0684208 1.9438 0
M  V30 7334 O 671.887 -0.925872 1.72413 0
M  V30 7335 C 672.186 2.43143 2.61947 0
M  V30 7336 C 671.852 3.89128 2.27794 0
M  V30 7337 C 670.514 4.28889 2.18191 0
M  V30 7338 C 672.866 4.81144 2.00375 0
M  V30 7339 C 670.194 5.58625 1.79319 0
M  V30 7340 C 672.546 6.11239 1.63003 0
M  V30 7341 C 671.21 6.49981 1.51922 0
M  V30 7342 H 670.48 0.529069 0.518813 0
M  V30 7343 H 673.127 1.76263 0.748577 0
M  V30 7344 H 671.432 2.04851 3.33981 0
M  V30 7345 H 673.129 2.4146 3.20153 0
M  V30 7346 H 669.719 3.57657 2.36176 0
M  V30 7347 H 673.903 4.512 2.06718 0
M  V30 7348 H 669.159 5.87486 1.69323 0
M  V30 7349 H 673.333 6.82014 1.40817 0
M  V30 7350 H 670.96 7.50416 1.21572 0
M  V30 7351 N 672.536 -0.895792 1.29666 0
M  V30 7352 C 673.766 -1.67757 1.20586 0
M  V30 7353 C 674.174 -1.87729 -0.235432 0
M  V30 7354 O 673.517 -1.41706 -1.16898 0
M  V30 7355 C 673.579 -3.08117 1.85215 0
M  V30 7356 C 673.243 -3.1136 3.3452 0
M  V30 7357 C 674.24 -2.91217 4.30684 0
M  V30 7358 C 671.925 -3.33302 3.75786 0
M  V30 7359 C 673.919 -2.92955 5.66089 0
M  V30 7360 C 671.606 -3.3467 5.11311 0
M  V30 7361 C 672.604 -3.14519 6.06273 0
M  V30 7362 O 672.292 -3.15684 7.39323 0
M  V30 7363 H 672.024 -0.530601 0.418854 0
M  V30 7364 H 674.578 -1.12831 1.71634 0
M  V30 7365 H 672.808 -3.64661 1.28683 0
M  V30 7366 H 674.497 -3.68399 1.70403 0
M  V30 7367 H 675.263 -2.74074 4.00136 0
M  V30 7368 H 671.142 -3.48025 3.02324 0
M  V30 7369 H 674.686 -2.77145 6.40185 0
M  V30 7370 H 670.583 -3.51346 5.41504 0
M  V30 7371 H 671.351 -3.31924 7.48177 0
M  V30 7372 N 674.014 -1.12206 -1.10668 0
M  V30 7373 C 674.947 -0.731468 -2.16159 0
M  V30 7374 C 675.925 0.276216 -1.60237 0
M  V30 7375 O 677.109 0.17074 -1.87725 0
M  V30 7376 C 674.236 -0.0822882 -3.386 0
M  V30 7377 C 673.282 -1.05641 -4.1321 0
M  V30 7378 S 674.115 -2.58281 -4.69096 0
M  V30 7379 C 675.271 -1.94686 -5.94851 0
M  V30 7380 H 675.504 -1.62504 -2.48957 0
M  V30 7381 H 673.037 -0.940906 -1.22419 0
M  V30 7382 H 674.995 0.285896 -4.09503 0
M  V30 7383 H 673.656 0.788358 -3.04046 0
M  V30 7384 H 672.849 -0.549764 -5.00993 0
M  V30 7385 H 672.451 -1.36741 -3.48106 0
M  V30 7386 H 674.743 -1.28815 -6.65141 0
M  V30 7387 H 675.686 -2.80499 -6.50174 0
M  V30 7388 H 676.094 -1.40369 -5.46769 0
M  V30 7389 N 675.492 1.28418 -0.913599 0
M  V30 7390 C 676.717 1.99643 -0.561899 0
M  V30 7391 C 677.142 1.67819 0.849608 0
M  V30 7392 O 676.5 0.910503 1.56779 0
M  V30 7393 C 676.548 3.52116 -0.777622 0
M  V30 7394 O 675.652 4.12076 0.163457 0
M  V30 7395 H 674.993 0.627229 -0.217898 0
M  V30 7396 H 677.523 1.63575 -1.229 0
M  V30 7397 H 677.533 4.02163 -0.687666 0
M  V30 7398 H 676.208 3.74613 -1.8066 0
M  V30 7399 H 674.785 3.72892 0.0247827 0
M  V30 7400 N 676.97 0.677563 1.42291 0
M  V30 7401 C 678.247 0.129803 1.95169 0
M  V30 7402 C 678.627 -1.35605 1.61786 0
M  V30 7403 O 677.975 -2.09361 0.915444 0
M  V30 7404 C 678.185 0.401889 3.46678 0
M  V30 7405 C 679.533 0.319889 4.23393 0
M  V30 7406 O 680.557 0.33579 3.54614 0
M  V30 7407 O 679.416 0.264459 5.4586 0
M  V30 7408 H 676.51 0.00447433 0.826988 0
M  V30 7409 H 679.056 0.752483 1.52105 0
M  V30 7410 H 677.828 1.43108 3.64192 0
M  V30 7411 H 677.451 -0.252662 3.96796 0
M  V30 7412 N 678.448 -1.51871 0.421078 0
M  V30 7413 C 679.694 -2.02237 -0.151014 0
M  V30 7414 C 680.027 -1.30554 -1.43768 0
M  V30 7415 O 679.302 -0.41546 -1.90011 0
M  V30 7416 C 679.585 -3.5802 -0.386482 0
M  V30 7417 C 679.438 -4.40339 0.9177 0
M  V30 7418 C 680.757 -4.24444 -1.16342 0
M  V30 7419 H 677.876 -0.735062 -0.0534102 0
M  V30 7420 H 680.518 -1.81656 0.556888 0
M  V30 7421 H 678.668 -3.75688 -0.989494 0
M  V30 7422 H 680.34 -4.34357 1.55344 0
M  V30 7423 H 678.583 -4.06073 1.526 0
M  V30 7424 H 679.254 -5.47451 0.707187 0
M  V30 7425 H 681.73 -4.10948 -0.652788 0
M  V30 7426 H 680.606 -5.33358 -1.29693 0
M  V30 7427 H 680.867 -3.84204 -2.18724 0
M  V30 7428 N 679.926 -0.151884 -1.56866 0
M  V30 7429 C 681.151 0.508044 -2.01081 0
M  V30 7430 C 681.576 1.57306 -1.03134 0
M  V30 7431 O 680.934 1.81298 -0.0078309 0
M  V30 7432 C 680.982 1.08106 -3.44014 0
M  V30 7433 O 680.086 2.19577 -3.49084 0
M  V30 7434 H 679.427 0.123757 -0.652365 0
M  V30 7435 H 681.957 -0.250055 -2.03066 0
M  V30 7436 H 681.967 1.40851 -3.82916 0
M  V30 7437 H 680.642 0.301168 -4.14808 0
M  V30 7438 H 679.219 1.88023 -3.22027 0
M  V30 7439 N 681.404 1.57128 0.121893 0
M  V30 7440 C 682.367 1.99197 1.13372 0
M  V30 7441 C 683.367 0.881728 1.3447 0
M  V30 7442 O 684.557 1.14783 1.31036 0
M  V30 7443 C 681.689 2.32963 2.4888 0
M  V30 7444 H 682.882 2.89788 0.772204 0
M  V30 7445 H 680.435 1.51952 0.366093 0
M  V30 7446 H 681.17 1.45243 2.89957 0
M  V30 7447 H 680.955 3.13934 2.34921 0
M  V30 7448 H 682.445 2.66261 3.21706 0
M  V30 7449 N 682.882 -0.391992 1.52647 0
M  V30 7450 C 684.13 -1.13507 1.67214 0
M  V30 7451 C 684.451 -1.90575 0.41304 0
M  V30 7452 O 683.721 -1.87348 -0.572498 0
M  V30 7453 H 682.301 -0.422013 0.616372 0
M  V30 7454 H 684.963 -0.44502 1.89751 0
M  V30 7455 H 684.059 -1.83964 2.52118 0
M  V30 7456 N 684.36 -1.4356 -0.65026 0
M  V30 7457 C 685.608 -1.45046 -1.40734 0
M  V30 7458 C 685.929 -0.0769822 -1.94848 0
M  V30 7459 O 685.199 0.888098 -1.74613 0
M  V30 7460 H 683.779 -0.534034 -0.522318 0
M  V30 7461 H 686.441 -1.79186 -0.766703 0
M  V30 7462 H 685.537 -2.16476 -2.24822 0
M  V30 7463 N 685.838 0.888903 -1.30139 0
M  V30 7464 C 686.801 1.97576 -1.16174 0
M  V30 7465 C 687.801 1.60525 -0.094086 0
M  V30 7466 O 688.991 1.70812 -0.341889 0
M  V30 7467 C 686.123 3.3188 -0.778983 0
M  V30 7468 H 687.316 2.11393 -2.12728 0
M  V30 7469 H 684.869 1.0748 -1.1348 0
M  V30 7470 H 685.604 3.23765 0.186225 0
M  V30 7471 H 685.389 3.60141 -1.55051 0
M  V30 7472 H 686.879 4.11612 -0.704631 0
M  V30 7473 N 687.317 1.12792 1.10072 0
M  V30 7474 C 688.545 0.908506 1.85886 0
M  V30 7475 C 688.96 -0.542408 1.80841 0
M  V30 7476 O 688.317 -1.37517 1.1998 0
M  V30 7477 C 688.368 1.37973 3.34134 0
M  V30 7478 O 688.089 2.77378 3.39106 0
M  V30 7479 C 689.59 1.1978 4.26811 0
M  V30 7480 H 686.81 0.3244 0.587372 0
M  V30 7481 H 689.354 1.49882 1.39125 0
M  V30 7482 H 687.509 0.832566 3.78348 0
M  V30 7483 H 687.923 2.98144 4.31521 0
M  V30 7484 H 689.397 1.57635 5.29014 0
M  V30 7485 H 689.874 0.138768 4.38981 0
M  V30 7486 H 690.48 1.73266 3.88406 0
M  V30 7487 N 688.795 -1.27931 0.920396 0
M  V30 7488 C 690.041 -1.94977 0.557832 0
M  V30 7489 C 690.374 -1.72224 -0.897365 0
M  V30 7490 O 689.649 -1.04705 -1.63912 0
M  V30 7491 C 689.932 -3.49289 0.875741 0
M  V30 7492 C 689.785 -3.81416 2.38416 0
M  V30 7493 C 691.104 -4.38486 0.376517 0
M  V30 7494 H 688.223 -0.708164 0.20414 0
M  V30 7495 H 690.865 -1.5118 1.15085 0
M  V30 7496 H 689.015 -3.86724 0.371062 0
M  V30 7497 H 690.687 -3.53813 2.95997 0
M  V30 7498 H 688.93 -3.28225 2.83639 0
M  V30 7499 H 689.601 -4.89198 2.55713 0
M  V30 7500 H 692.077 -4.08161 0.808945 0
M  V30 7501 H 690.953 -5.45296 0.627976 0
M  V30 7502 H 691.214 -4.36143 -0.723293 0
M  V30 7503 N 690.273 -0.685099 -1.4193 0
M  V30 7504 C 691.52 -0.211658 -2.01391 0
M  V30 7505 C 691.848 1.18526 -1.54214 0
M  V30 7506 O 691.103 1.81189 -0.739519 0
M  V30 7507 C 691.402 -0.206154 -3.56805 0
M  V30 7508 C 691.068 -1.54915 -4.23453 0
M  V30 7509 C 689.73 -1.91684 -4.41373 0
M  V30 7510 C 692.082 -2.43317 -4.60919 0
M  V30 7511 C 689.41 -3.16461 -4.94034 0
M  V30 7512 C 691.762 -3.67415 -5.14965 0
M  V30 7513 C 690.426 -4.04341 -5.31098 0
M  V30 7514 H 689.696 -0.0774511 -0.736941 0
M  V30 7515 H 692.343 -0.882121 -1.69973 0
M  V30 7516 H 690.648 0.547841 -3.87951 0
M  V30 7517 H 692.345 0.17753 -4.00607 0
M  V30 7518 H 688.935 -1.25314 -4.09871 0
M  V30 7519 H 693.119 -2.16192 -4.46738 0
M  V30 7520 H 688.375 -3.45078 -5.04709 0
M  V30 7521 H 692.549 -4.3611 -5.42938 0
M  V30 7522 H 690.176 -5.01101 -5.71666 0
M  V30 7523 N 691.751 1.51645 -0.429126 0
M  V30 7524 C 693.162 1.86665 0.0359003 0
M  V30 7525 C 693.513 1.34677 1.42676 0
M  V30 7526 O 692.638 0.694195 2.04963 0
M  V30 7527 C 693.233 3.38724 0.0719221 0
M  V30 7528 C 691.792 3.7331 0.481336 0
M  V30 7529 C 690.939 2.75313 -0.331329 0
M  V30 7530 H 693.89 1.44987 -0.645333 0
M  V30 7531 H 693.911 3.7011 0.883118 0
M  V30 7532 H 693.423 3.76532 -0.940495 0
M  V30 7533 H 691.524 3.41088 1.49966 0
M  V30 7534 H 691.637 4.78631 0.211837 0
M  V30 7535 H 690.001 2.53839 0.209204 0
M  V30 7536 H 690.784 3.15963 -1.34247 0
M  V30 7537 N 693.229 0.160201 1.56784 0
M  V30 7538 C 694.139 -0.787167 2.21 0
M  V30 7539 C 695.155 -1.26167 1.19825 0
M  V30 7540 O 696.331 -1.31611 1.52448 0
M  V30 7541 C 693.396 -2.00364 2.8294 0
M  V30 7542 C 692.457 -1.5771 3.99282 0
M  V30 7543 C 691.69 -2.73558 4.58259 0
M  V30 7544 O 691.913 -3.90129 4.16119 0
M  V30 7545 O 690.847 -2.48271 5.48311 0
M  V30 7546 H 694.673 -0.270462 3.02493 0
M  V30 7547 H 692.258 -0.0674666 1.49248 0
M  V30 7548 H 694.14 -2.71529 3.22257 0
M  V30 7549 H 692.815 -2.50961 2.04451 0
M  V30 7550 H 691.722 -0.835274 3.64656 0
M  V30 7551 H 693.055 -1.11815 4.79331 0
M  V30 7552 N 694.707 -1.5719 -0.113559 0
M  V30 7553 C 695.953 -1.85412 -0.821597 0
M  V30 7554 C 696.286 -0.746722 -1.7927 0
M  V30 7555 O 695.561 0.246971 -1.92926 0
M  V30 7556 C 695.844 -3.24233 -1.56669 0
M  V30 7557 C 695.697 -4.45578 -0.614823 0
M  V30 7558 C 697.016 -3.60697 -2.52161 0
M  V30 7559 H 694.135 -0.674406 -0.29723 0
M  V30 7560 H 696.777 -1.89807 -0.085694 0
M  V30 7561 H 694.927 -3.20617 -2.19401 0
M  V30 7562 H 696.599 -4.613 0.00407137 0
M  V30 7563 H 694.842 -4.33738 0.0732332 0
M  V30 7564 H 695.513 -5.39395 -1.17292 0
M  V30 7565 H 697.989 -3.65139 -1.99532 0
M  V30 7566 H 696.865 -4.58798 -3.01323 0
M  V30 7567 H 697.126 -2.88403 -3.35076 0
M  V30 7568 N 696.185 0.383891 -1.52853 0
M  V30 7569 C 697.433 1.12619 -1.67814 0
M  V30 7570 C 697.754 1.90354 -0.423141 0
M  V30 7571 O 697.024 1.87649 0.562554 0
M  V30 7572 H 695.604 0.418738 -0.618601 0
M  V30 7573 H 698.266 0.43495 -1.89985 0
M  V30 7574 H 697.362 1.82624 -2.5309 0
M  V30 7575 N 697.663 1.43903 0.642637 0
M  V30 7576 C 698.626 1.49538 1.73698 0
M  V30 7577 C 699.626 0.378776 1.56275 0
M  V30 7578 O 700.816 0.64095 1.6198 0
M  V30 7579 C 697.948 1.35821 3.12675 0
M  V30 7580 H 699.141 2.47008 1.70079 0
M  V30 7581 H 696.694 1.30824 0.85526 0
M  V30 7582 H 697.429 0.393994 3.21898 0
M  V30 7583 H 697.214 2.16776 3.26727 0
M  V30 7584 H 698.704 1.4272 3.92455 0
M  V30 7585 N 699.141 -0.881989 1.30609 0
M  V30 7586 C 700.366 -1.67236 1.22665 0
M  V30 7587 C 700.791 -1.8696 -0.206777 0
M  V30 7588 O 700.149 -1.4027 -1.14865 0
M  V30 7589 C 700.197 -3.02446 1.96363 0
M  V30 7590 O 699.301 -3.91614 1.29276 0
M  V30 7591 H 698.642 -0.510902 0.424117 0
M  V30 7592 H 701.172 -1.10055 1.72479 0
M  V30 7593 H 701.182 -3.52468 2.055 0
M  V30 7594 H 699.857 -2.8741 3.00613 0
M  V30 7595 H 698.434 -3.50055 1.28514 0
M  V30 7596 N 700.619 -1.13374 -1.09472 0
M  V30 7597 C 701.865 -0.896516 -1.81908 0
M  V30 7598 C 702.198 0.575933 -1.85463 0
M  V30 7599 O 701.473 1.42618 -1.32251 0
M  V30 7600 C 701.756 -1.48445 -3.28079 0
M  V30 7601 C 701.609 -3.02598 -3.32798 0
M  V30 7602 C 702.928 -1.15226 -4.24748 0
M  V30 7603 H 700.047 -0.327127 -0.660422 0
M  V30 7604 H 702.689 -1.40195 -1.2824 0
M  V30 7605 H 700.839 -1.0546 -3.73912 0
M  V30 7606 H 702.511 -3.54335 -2.95372 0
M  V30 7607 H 700.754 -3.37613 -2.72397 0
M  V30 7608 H 701.425 -3.38835 -4.3577 0
M  V30 7609 H 703.901 -1.52369 -3.87199 0
M  V30 7610 H 702.777 -1.59012 -5.25363 0
M  V30 7611 H 703.038 -0.0658891 -4.42051 0
M  V30 7612 N 702.098 1.27442 -0.927168 0
M  V30 7613 C 703.344 1.95025 -0.577651 0
M  V30 7614 C 703.699 1.71534 0.871421 0
M  V30 7615 O 702.992 1.03354 1.61333 0
M  V30 7616 C 703.186 3.47413 -0.838994 0
M  V30 7617 C 703.015 3.85721 -2.31192 0
M  V30 7618 C 701.785 4.09199 -2.96452 0
M  V30 7619 C 703.983 3.95352 -3.28939 0
M  V30 7620 N 701.965 4.34283 -4.33903 0
M  V30 7621 C 703.336 4.24805 -4.51598 0
M  V30 7622 C 705.391 3.77926 -3.24155 0
M  V30 7623 C 704.094 4.38645 -5.70073 0
M  V30 7624 C 706.12 3.9299 -4.41942 0
M  V30 7625 C 705.482 4.22829 -5.63379 0
M  V30 7626 H 701.581 0.736983 -0.261495 0
M  V30 7627 H 704.165 1.53816 -1.19368 0
M  V30 7628 H 702.336 3.87581 -0.252129 0
M  V30 7629 H 704.068 4.02166 -0.452158 0
M  V30 7630 H 700.823 4.04013 -2.47125 0
M  V30 7631 H 701.247 4.50883 -5.05008 0
M  V30 7632 H 705.889 3.53897 -2.31337 0
M  V30 7633 H 703.607 4.615 -6.63358 0
M  V30 7634 H 707.193 3.80926 -4.39757 0
M  V30 7635 H 706.073 4.34234 -6.53001 0
M  V30 7636 N 703.576 0.692616 1.41565 0
M  V30 7637 C 704.987 0.297478 1.84315 0
M  V30 7638 C 705.338 -1.16379 1.57957 0
M  V30 7639 O 704.463 -1.89303 1.0485 0
M  V30 7640 C 705.058 0.533136 3.34579 0
M  V30 7641 C 703.617 0.191944 3.7591 0
M  V30 7642 C 702.764 0.816873 2.64995 0
M  V30 7643 H 705.715 0.893488 1.31158 0
M  V30 7644 H 705.736 -0.209105 3.79925 0
M  V30 7645 H 705.248 1.59674 3.53731 0
M  V30 7646 H 703.349 -0.867512 3.6236 0
M  V30 7647 H 703.462 0.644902 4.7474 0
M  V30 7648 H 701.826 0.246715 2.53502 0
M  V30 7649 H 702.609 1.88429 2.86966 0
M  V30 7650 N 705.054 -1.51416 0.437162 0
M  V30 7651 C 706.001 -2.27743 -0.374374 0
M  V30 7652 C 706.971 -1.31327 -1.01698 0
M  V30 7653 O 708.156 -1.60229 -1.03592 0
M  V30 7654 C 705.296 -3.12241 -1.46969 0
M  V30 7655 C 704.409 -4.23651 -0.845236 0
M  V30 7656 C 703.544 -4.95458 -1.91559 0
M  V30 7657 C 702.583 -5.98789 -1.26956 0
M  V30 7658 N 701.72 -6.64005 -2.28126 0
M  V30 7659 H 706.56 -2.96654 0.282892 0
M  V30 7660 H 704.097 -1.46319 0.151352 0
M  V30 7661 H 706.055 -3.59556 -2.11602 0
M  V30 7662 H 704.685 -2.45445 -2.09659 0
M  V30 7663 H 703.737 -3.803 -0.0872059 0
M  V30 7664 H 705.049 -4.97683 -0.333582 0
M  V30 7665 H 704.203 -5.46321 -2.63854 0
M  V30 7666 H 702.942 -4.21055 -2.46097 0
M  V30 7667 H 701.947 -5.47219 -0.53207 0
M  V30 7668 H 703.172 -6.75149 -0.731509 0
M  V30 7669 H 701.118 -5.92415 -2.81745 0
M  V30 7670 H 701.035 -7.33802 -1.81852 0
M  V30 7671 H 702.303 -7.19498 -2.99905 0
M  V30 7672 N 706.532 -0.168513 -1.56696 0
M  V30 7673 C 707.479 0.762875 -2.17828 0
M  V30 7674 C 708.449 1.22892 -1.11745 0
M  V30 7675 O 709.634 1.29759 -1.39883 0
M  V30 7676 C 706.774 1.9879 -2.82093 0
M  V30 7677 C 705.887 1.56568 -4.02629 0
M  V30 7678 C 705.022 2.74416 -4.54829 0
M  V30 7679 C 704.061 2.28671 -5.67782 0
M  V30 7680 N 703.198 3.39602 -6.14504 0
M  V30 7681 H 708.038 0.23479 -2.97074 0
M  V30 7682 H 705.575 0.104163 -1.46731 0
M  V30 7683 H 707.533 2.70636 -3.17509 0
M  V30 7684 H 706.163 2.48973 -2.05456 0
M  V30 7685 H 705.215 0.744067 -3.73052 0
M  V30 7686 H 706.527 1.18988 -4.844 0
M  V30 7687 H 705.681 3.54423 -4.92412 0
M  V30 7688 H 704.42 3.15254 -3.7211 0
M  V30 7689 H 703.425 1.4711 -5.29753 0
M  V30 7690 H 704.65 1.88894 -6.52301 0
M  V30 7691 H 702.596 3.80021 -5.34715 0
M  V30 7692 H 702.513 3.06105 -6.91257 0
M  V30 7693 H 703.781 4.19902 -6.56737 0
M  V30 7694 N 708.01 1.57248 0.105221 0
M  V30 7695 C 709.258 1.85204 0.808951 0
M  V30 7696 C 709.579 0.75574 1.7976 0
M  V30 7697 O 708.849 -0.218984 1.94672 0
M  V30 7698 H 707.429 0.683346 0.301739 0
M  V30 7699 H 710.091 1.94695 0.0892605 0
M  V30 7700 H 709.187 2.81595 1.34575 0
M  V30 7701 N 709.488 -0.375779 1.53054 0
M  V30 7702 C 710.716 -1.14036 1.72637 0
M  V30 7703 C 711.131 -1.83342 0.450687 0
M  V30 7704 O 710.488 -1.7318 -0.575749 0
M  V30 7705 C 710.539 -2.17841 2.88492 0
M  V30 7706 O 710.26 -1.51358 4.11123 0
M  V30 7707 C 711.761 -3.06924 3.19863 0
M  V30 7708 H 708.981 -0.341386 0.577665 0
M  V30 7709 H 711.525 -0.437809 1.99759 0
M  V30 7710 H 709.68 -2.8371 2.63794 0
M  V30 7711 H 710.094 -2.20439 4.75928 0
M  V30 7712 H 711.568 -3.75763 4.04359 0
M  V30 7713 H 712.045 -3.71169 2.34798 0
M  V30 7714 H 712.651 -2.46684 3.46449 0
M  V30 7715 N 710.966 -1.44241 -0.634997 0
M  V30 7716 C 711.929 -1.50457 -1.72903 0
M  V30 7717 C 712.929 -0.387058 -1.56072 0
M  V30 7718 O 714.119 -0.649531 -1.61638 0
M  V30 7719 C 711.251 -1.37477 -3.1195 0
M  V30 7720 H 712.444 -2.47907 -1.68767 0
M  V30 7721 H 709.997 -1.31276 -0.84831 0
M  V30 7722 H 710.732 -0.41106 -3.21684 0
M  V30 7723 H 710.517 -2.18506 -3.25573 0
M  V30 7724 H 712.007 -1.44799 -3.91692 0
M  V30 7725 N 712.444 0.87505 -1.31075 0
M  V30 7726 C 713.69 1.63009 -1.20647 0
M  V30 7727 C 714.023 1.9276 0.236045 0
M  V30 7728 O 713.298 1.55559 1.16754 0
M  V30 7729 C 713.581 2.96357 -2.0456 0
M  V30 7730 C 713.434 2.73516 -3.57084 0
M  V30 7731 C 714.753 3.974 -1.89107 0
M  V30 7732 H 711.872 0.591518 -0.439631 0
M  V30 7733 H 714.514 1.0119 -1.60812 0
M  V30 7734 H 712.664 3.49119 -1.70435 0
M  V30 7735 H 714.336 2.27465 -4.01319 0
M  V30 7736 H 712.579 2.0784 -3.80769 0
M  V30 7737 H 713.25 3.68377 -4.11099 0
M  V30 7738 H 715.726 3.5383 -2.18961 0
M  V30 7739 H 714.602 4.88596 -2.5013 0
M  V30 7740 H 714.863 4.33794 -0.85296 0
M  V30 7741 N 713.922 1.13953 1.08869 0
M  V30 7742 C 715.169 0.90481 1.81161 0
M  V30 7743 C 715.497 -0.568824 1.85996 0
M  V30 7744 O 714.752 -1.43723 1.32823 0
M  V30 7745 C 715.051 1.44495 3.26888 0
M  V30 7746 C 714.717 2.93641 3.42178 0
M  V30 7747 C 713.379 3.34361 3.46059 0
M  V30 7748 C 715.731 3.89568 3.46246 0
M  V30 7749 C 713.059 4.69681 3.51592 0
M  V30 7750 C 715.411 5.2474 3.53314 0
M  V30 7751 C 714.075 5.64979 3.55465 0
M  V30 7752 H 713.345 0.331094 0.662916 0
M  V30 7753 H 715.992 1.42242 1.28217 0
M  V30 7754 H 714.297 0.848169 3.82509 0
M  V30 7755 H 715.994 1.23934 3.81368 0
M  V30 7756 H 712.584 2.61156 3.39846 0
M  V30 7757 H 716.768 3.59192 3.42483 0
M  V30 7758 H 712.024 5.00224 3.51547 0
M  V30 7759 H 716.198 5.98882 3.55406 0
M  V30 7760 H 713.825 6.69821 3.59505 0
M  V30 7761 N 715.4 -1.26948 0.933913 0
M  V30 7762 C 716.646 -1.94716 0.587985 0
M  V30 7763 C 717.001 -1.71994 -0.862312 0
M  V30 7764 O 716.294 -1.04208 -1.60783 0
M  V30 7765 C 716.488 -3.46963 0.857406 0
M  V30 7766 C 716.317 -3.84489 2.33234 0
M  V30 7767 C 715.087 -4.07621 2.98618 0
M  V30 7768 C 717.285 -3.93602 3.31031 0
M  V30 7769 N 715.267 -4.31976 4.362 0
M  V30 7770 C 716.638 -4.22404 4.53845 0
M  V30 7771 C 718.693 -3.76201 3.26155 0
M  V30 7772 C 717.396 -4.35615 5.72391 0
M  V30 7773 C 719.422 -3.90641 4.4402 0
M  V30 7774 C 718.784 -4.19835 5.65613 0
M  V30 7775 H 714.883 -0.735586 0.2654 0
M  V30 7776 H 717.467 -1.53181 1.20182 0
M  V30 7777 H 715.638 -3.87442 0.27268 0
M  V30 7778 H 717.37 -4.01921 0.47348 0
M  V30 7779 H 714.125 -4.02696 2.49264 0
M  V30 7780 H 714.549 -4.48199 5.07392 0
M  V30 7781 H 719.191 -3.52665 2.3321 0
M  V30 7782 H 716.909 -4.57975 6.65796 0
M  V30 7783 H 720.495 -3.78589 4.41771 0
M  V30 7784 H 719.375 -4.30765 6.55295 0
M  V30 7785 N 716.879 -0.700114 -1.41195 0
M  V30 7786 C 718.109 -0.241828 -2.0518 0
M  V30 7787 C 718.517 1.1157 -1.52803 0
M  V30 7788 O 717.86 1.70926 -0.673042 0
M  V30 7789 C 717.922 -0.12695 -3.59276 0
M  V30 7790 C 717.586 -1.41725 -4.34469 0
M  V30 7791 C 718.583 -2.35604 -4.63451 0
M  V30 7792 C 716.268 -1.67189 -4.73659 0
M  V30 7793 C 718.262 -3.53204 -5.3059 0
M  V30 7794 C 715.949 -2.85073 -5.40534 0
M  V30 7795 C 716.947 -3.77904 -5.68927 0
M  V30 7796 O 716.635 -4.93723 -6.34424 0
M  V30 7797 H 716.367 -0.109247 -0.667114 0
M  V30 7798 H 718.921 -0.954538 -1.81873 0
M  V30 7799 H 717.151 0.641571 -3.81341 0
M  V30 7800 H 718.84 0.294748 -4.04828 0
M  V30 7801 H 719.606 -2.1719 -4.33651 0
M  V30 7802 H 715.485 -0.957935 -4.50937 0
M  V30 7803 H 719.029 -4.25679 -5.52669 0
M  V30 7804 H 714.926 -3.03402 -5.69752 0
M  V30 7805 H 715.694 -4.93597 -6.5292 0
M  V30 7806 N 718.357 1.51182 -0.445186 0
M  V30 7807 C 719.305 2.29531 0.376597 0
M  V30 7808 C 720.299 1.35711 1.01385 0
M  V30 7809 O 721.505 1.53018 0.947922 0
M  V30 7810 H 717.88 0.738803 0.140267 0
M  V30 7811 H 719.851 2.96838 -0.304958 0
M  V30 7812 C 718.6 3.1552 1.4609 0
M  V30 7813 H 717.923 3.87605 0.979912 0
M  V30 7814 H 719.363 3.73384 2.009 0
M  V30 7815 C 717.822 2.31406 2.44852 0
M  V30 7816 O 718.352 1.97912 3.49562 0
M  V30 7817 N 716.558 1.94478 2.15932 0
M  V30 7818 H 716.105 2.21917 1.30808 0
M  V30 7819 H 716.063 1.38498 2.82251 0
M  V30 7820 N 719.835 0.176821 1.56605 0
M  V30 7821 C 720.765 -0.746841 2.21234 0
M  V30 7822 C 721.746 -1.23502 1.16967 0
M  V30 7823 O 722.931 -1.28718 1.45414 0
M  V30 7824 C 720.061 -1.97407 2.8574 0
M  V30 7825 C 719.015 -1.62153 3.96094 0
M  V30 7826 C 718.341 -2.92387 4.47676 0
M  V30 7827 C 719.641 -0.845353 5.15413 0
M  V30 7828 H 721.335 -0.208116 2.98676 0
M  V30 7829 H 718.881 -0.0986594 1.43662 0
M  V30 7830 H 720.834 -2.62531 3.2963 0
M  V30 7831 H 719.558 -2.53703 2.05676 0
M  V30 7832 H 718.217 -0.993964 3.52868 0
M  V30 7833 H 717.865 -3.46734 3.64396 0
M  V30 7834 H 717.565 -2.69551 5.22127 0
M  V30 7835 H 719.089 -3.5853 4.94255 0
M  V30 7836 H 720.503 -1.39929 5.55961 0
M  V30 7837 H 718.9 -0.715814 5.95815 0
M  V30 7838 H 719.97 0.157239 4.84645 0
M  V30 7839 N 721.313 -1.57302 -0.09688 0
M  V30 7840 C 722.56 -1.85997 -0.800699 0
M  V30 7841 C 722.888 -0.765089 -1.7882 0
M  V30 7842 O 722.143 0.241492 -1.94204 0
M  V30 7843 C 722.442 -3.21272 -1.56586 0
M  V30 7844 C 722.108 -4.45104 -0.72064 0
M  V30 7845 C 720.77 -4.78723 -0.487632 0
M  V30 7846 C 723.122 -5.2103 -0.132948 0
M  V30 7847 C 720.45 -5.85697 0.34296 0
M  V30 7848 C 722.802 -6.28881 0.684957 0
M  V30 7849 C 721.466 -6.61017 0.928073 0
M  V30 7850 H 720.736 -0.680613 -0.292997 0
M  V30 7851 H 723.383 -1.91399 -0.0622474 0
M  V30 7852 H 721.688 -3.11547 -2.37583 0
M  V30 7853 H 723.385 -3.40702 -2.11478 0
M  V30 7854 H 719.975 -4.18777 -0.912359 0
M  V30 7855 H 724.159 -4.95392 -0.300132 0
M  V30 7856 H 719.415 -6.09008 0.540317 0
M  V30 7857 H 723.589 -6.86886 1.14721 0
M  V30 7858 H 721.216 -7.43738 1.57348 0
M  V30 7859 N 722.791 0.367657 -1.53252 0
M  V30 7860 C 723.754 1.43308 -1.78873 0
M  V30 7861 C 724.754 1.46671 -0.659115 0
M  V30 7862 O 725.944 1.47468 -0.927306 0
M  V30 7863 C 723.076 2.82442 -1.90892 0
M  V30 7864 H 724.269 1.21864 -2.74024 0
M  V30 7865 H 721.822 0.600668 -1.44297 0
M  V30 7866 H 722.557 3.09202 -0.978 0
M  V30 7867 H 722.342 2.81399 -2.73051 0
M  V30 7868 H 723.832 3.59601 -2.12314 0
M  V30 7869 N 724.269 1.44576 0.627338 0
M  V30 7870 C 725.494 1.51271 1.41887 0
M  V30 7871 C 725.919 0.139814 1.8758 0
M  V30 7872 O 725.277 -0.871746 1.58966 0
M  V30 7873 C 725.325 2.48529 2.61277 0
M  V30 7874 O 724.429 1.98944 3.61241 0
M  V30 7875 H 723.77 0.510668 0.424399 0
M  V30 7876 H 726.3 1.89746 0.765356 0
M  V30 7877 H 726.31 2.66689 3.08773 0
M  V30 7878 H 724.985 3.48249 2.27366 0
M  V30 7879 H 723.562 1.90568 3.20528 0
M  V30 7880 N 725.747 -0.868086 1.31537 0
M  V30 7881 C 726.995 -1.61807 1.21091 0
M  V30 7882 C 727.316 -1.93631 -0.230623 0
M  V30 7883 O 726.586 -1.5846 -1.15183 0
M  V30 7884 H 725.166 -0.599854 0.445178 0
M  V30 7885 H 727.828 -1.03915 1.64887 0
M  V30 7886 H 726.924 -2.56088 1.78396 0
M  V30 7887 N 727.225 -1.14528 -1.08264 0
M  V30 7888 C 728.135 -0.84728 -2.18765 0
M  V30 7889 C 729.151 0.172826 -1.7314 0
M  V30 7890 O 730.327 0.000985336 -2.014 0
M  V30 7891 C 727.392 -0.330633 -3.4512 0
M  V30 7892 C 726.453 -1.41348 -4.05363 0
M  V30 7893 C 725.686 -0.921387 -5.25686 0
M  V30 7894 O 725.909 0.236587 -5.69909 0
M  V30 7895 O 724.843 -1.70101 -5.77364 0
M  V30 7896 H 728.669 -1.7708 -2.46731 0
M  V30 7897 H 726.254 -0.923661 -1.17426 0
M  V30 7898 H 728.136 -0.0485053 -4.21372 0
M  V30 7899 H 726.811 0.565147 -3.18728 0
M  V30 7900 H 725.718 -1.74908 -3.30693 0
M  V30 7901 H 727.051 -2.28383 -4.36007 0
M  V30 7902 N 728.703 1.26451 -0.940633 0
M  V30 7903 C 729.951 1.93395 -0.586748 0
M  V30 7904 C 730.272 1.7417 0.876921 0
M  V30 7905 O 729.542 1.097 1.62304 0
M  V30 7906 H 728.122 0.715687 -0.214012 0
M  V30 7907 H 730.784 1.53902 -1.19584 0
M  V30 7908 H 729.88 3.01565 -0.804059 0
M  V30 7909 N 730.181 0.707592 1.40822 0
M  V30 7910 C 731.458 0.171172 1.9485 0
M  V30 7911 C 731.838 -1.32143 1.64625 0
M  V30 7912 O 731.186 -2.07372 0.959647 0
M  V30 7913 C 731.396 0.475334 3.45748 0
M  V30 7914 C 732.744 0.409625 4.22619 0
M  V30 7915 O 733.768 0.410934 3.53822 0
M  V30 7916 O 732.627 0.380185 5.45176 0
M  V30 7917 H 729.721 0.022015 0.826707 0
M  V30 7918 H 732.267 0.784577 1.50474 0
M  V30 7919 H 731.039 1.50801 3.61075 0
M  V30 7920 H 730.662 -0.168439 3.97243 0
M  V30 7921 N 731.66 -1.50943 0.453197 0
M  V30 7922 C 732.89 -2.06328 -0.105981 0
M  V30 7923 C 733.298 -1.31909 -1.35634 0
M  V30 7924 O 732.641 -0.376607 -1.79798 0
M  V30 7925 C 732.703 -3.5631 -0.477868 0
M  V30 7926 C 732.367 -4.52093 0.667925 0
M  V30 7927 C 733.364 -4.96421 1.54475 0
M  V30 7928 C 731.049 -4.95001 0.853168 0
M  V30 7929 C 733.043 -5.82346 2.59138 0
M  V30 7930 C 730.73 -5.80713 1.90305 0
M  V30 7931 C 731.728 -6.24284 2.77053 0
M  V30 7932 O 731.416 -7.08291 3.80236 0
M  V30 7933 H 731.148 -0.675986 -0.00427247 0
M  V30 7934 H 733.702 -1.95314 0.635738 0
M  V30 7935 H 731.932 -3.65163 -1.27252 0
M  V30 7936 H 733.621 -3.94138 -0.970039 0
M  V30 7937 H 734.387 -4.63953 1.41324 0
M  V30 7938 H 730.266 -4.60619 0.187482 0
M  V30 7939 H 733.81 -6.16276 3.2688 0
M  V30 7940 H 729.707 -6.12593 2.03469 0
M  V30 7941 H 730.475 -7.26504 3.77007 0
M  V30 7942 N 733.138 -0.185124 -1.56509 0
M  V30 7943 C 734.363 0.465278 -2.02114 0
M  V30 7944 C 734.788 1.55083 -1.06447 0
M  V30 7945 O 734.146 1.81241 -0.0462852 0
M  V30 7946 C 734.194 1.00784 -3.46229 0
M  V30 7947 O 733.298 2.12123 -3.53663 0
M  V30 7948 H 732.639 0.109891 -0.654843 0
M  V30 7949 H 735.169 -0.293072 -2.0249 0
M  V30 7950 H 735.179 1.32697 -3.85818 0
M  V30 7951 H 733.854 0.213113 -4.15354 0
M  V30 7952 H 732.431 1.8115 -3.25943 0
M  V30 7953 N 734.616 1.57351 0.0885366 0
M  V30 7954 C 735.844 1.90631 0.804196 0
M  V30 7955 C 736.259 0.779474 1.71958 0
M  V30 7956 O 735.616 -0.248179 1.80805 0
M  V30 7957 C 735.667 3.23568 1.61202 0
M  V30 7958 O 735.388 4.31917 0.733447 0
M  V30 7959 C 736.889 3.70753 2.43016 0
M  V30 7960 H 734.109 0.630501 0.229585 0
M  V30 7961 H 736.653 2.044 0.0638092 0
M  V30 7962 H 734.808 3.11377 2.30485 0
M  V30 7963 H 735.222 5.08297 1.29361 0
M  V30 7964 H 736.696 4.66447 2.9518 0
M  V30 7965 H 737.173 2.98922 3.2178 0
M  V30 7966 H 737.779 3.85834 1.7892 0
M  V30 7967 N 736.094 -0.359525 1.53444 0
M  V30 7968 C 737.51 -0.701599 1.43352 0
M  V30 7969 C 737.71 -1.93049 0.577439 0
M  V30 7970 O 736.766 -2.52423 0.0622224 0
M  V30 7971 C 738.079 -0.90915 2.86627 0
M  V30 7972 C 739.627 -1.00878 2.96298 0
M  V30 7973 C 740.102 -1.24876 4.40647 0
M  V30 7974 N 741.593 -1.31632 4.44103 0
M  V30 7975 C 742.328 -1.51922 5.52908 0
M  V30 7976 N 741.824 -1.69489 6.71748 0
M  V30 7977 N 743.617 -1.54341 5.40496 0
M  V30 7978 H 735.768 0.448685 2.07607 0
M  V30 7979 H 738.031 0.138713 0.937797 0
M  V30 7980 H 737.737 -0.0778997 3.51614 0
M  V30 7981 H 737.611 -1.81551 3.30634 0
M  V30 7982 H 739.998 -1.83057 2.31461 0
M  V30 7983 H 740.079 -0.0796721 2.55676 0
M  V30 7984 H 739.723 -0.431961 5.0606 0
M  V30 7985 H 739.653 -2.19118 4.78848 0
M  V30 7986 H 742.144 -1.19646 3.5846 0
M  V30 7987 H 742.457 -1.84561 7.50438 0
M  V30 7988 H 740.802 -1.66655 6.74723 0
M  V30 7989 H 743.993 -1.40188 4.46615 0
M  V30 7990 H 744.166 -1.69812 6.25354 0
M  V30 7991 N 737.572 -1.44907 -0.619662 0
M  V30 7992 C 738.522 -1.49085 -1.72504 0
M  V30 7993 C 739.506 -0.355372 -1.56926 0
M  V30 7994 O 740.698 -0.601441 -1.66468 0
M  V30 7995 C 737.827 -1.44889 -3.11227 0
M  V30 7996 C 736.913 -2.63593 -3.32234 0
M  V30 7997 N 737.304 -3.88775 -3.23555 0
M  V30 7998 C 735.602 -2.59033 -3.63067 0
M  V30 7999 C 736.303 -4.67932 -3.45564 0
M  V30 8000 N 735.279 -3.9919 -3.68983 0
M  V30 8001 H 739.081 -2.43706 -1.6427 0
M  V30 8002 H 736.595 -1.4003 -0.82252 0
M  V30 8003 H 738.592 -1.45966 -3.90512 0
M  V30 8004 H 737.252 -0.513143 -3.2062 0
M  V30 8005 H 738.263 -4.20574 -3.02221 0
M  V30 8006 H 734.94 -1.7431 -3.79371 0
M  V30 8007 H 736.33 -5.76952 -3.44349 0
M  V30 8008 N 739.05 0.861098 -1.31996 0
M  V30 8009 C 740.013 1.95068 -1.20338 0
M  V30 8010 C 741.013 1.60289 -0.128114 0
M  V30 8011 O 742.203 1.70048 -0.378044 0
M  V30 8012 C 739.335 3.30153 -0.849205 0
M  V30 8013 H 740.528 2.06833 -2.17164 0
M  V30 8014 H 738.081 1.05049 -1.15734 0
M  V30 8015 H 738.816 3.24087 0.117508 0
M  V30 8016 H 738.601 3.56771 -1.62655 0
M  V30 8017 H 740.091 4.10025 -0.791782 0
M  V30 8018 N 740.528 1.15101 1.07655 0
M  V30 8019 C 741.491 0.847625 2.12951 0
M  V30 8020 C 742.491 -0.151227 1.60087 0
M  V30 8021 O 743.681 0.0780399 1.74025 0
M  V30 8022 C 740.813 0.265 3.39868 0
M  V30 8023 H 742.006 1.7809 2.41296 0
M  V30 8024 H 739.559 0.958072 1.23494 0
M  V30 8025 H 740.294 -0.676625 3.17163 0
M  V30 8026 H 740.079 0.984554 3.79538 0
M  V30 8027 H 741.569 0.0702121 4.17541 0
M  V30 8028 N 742.006 -1.2595 0.947325 0
M  V30 8029 C 743.246 -1.95218 0.605743 0
M  V30 8030 C 743.61 -1.72624 -0.84054 0
M  V30 8031 O 744.811 -2.35748 -1.29136 0
M  V30 8032 C 743.082 -3.44654 0.94596 0
M  V30 8033 S 744.641 -4.32922 0.715849 0
M  V30 8034 H 741.459 -0.675159 0.222894 0
M  V30 8035 H 744.061 -1.52766 1.21995 0
M  V30 8036 H 742.765 -3.586 1.99585 0
M  V30 8037 H 742.296 -3.92082 0.321718 0
M  V30 8038 H 744.311 -4.94445 -0.416959 0
M  V30 8039 N 743.484 -0.715051 -1.40445 0
M  V30 8040 C 744.895 -0.326763 -1.83818 0
M  V30 8041 C 745.246 1.13851 -1.59789 0
M  V30 8042 O 744.371 1.87611 -1.07848 0
M  V30 8043 C 744.966 -0.586297 -3.33688 0
M  V30 8044 C 743.525 -0.251724 -3.75557 0
M  V30 8045 C 742.672 -0.858928 -2.63662 0
M  V30 8046 H 745.623 -0.914241 -1.2972 0
M  V30 8047 H 745.644 0.148636 -3.8021 0
M  V30 8048 H 745.156 -1.65281 -3.51146 0
M  V30 8049 H 743.257 0.809754 -3.63695 0
M  V30 8050 H 743.37 -0.720348 -4.73654 0
M  V30 8051 H 741.734 -0.287013 -2.53078 0
M  V30 8052 H 742.517 -1.9297 -2.83932 0
M  V30 8053 N 744.962 1.50701 -0.461195 0
M  V30 8054 C 746.208 2.02566 0.0973411 0
M  V30 8055 C 746.541 1.3432 1.40257 0
M  V30 8056 O 745.816 0.465692 1.88843 0
M  V30 8057 C 746.099 3.58919 0.291423 0
M  V30 8058 C 745.952 4.37751 -1.03413 0
M  V30 8059 C 747.271 4.27379 1.05048 0
M  V30 8060 H 744.39 0.73622 0.0339026 0
M  V30 8061 H 747.032 1.80115 -0.604855 0
M  V30 8062 H 745.182 3.78179 0.889539 0
M  V30 8063 H 746.854 4.30085 -1.66806 0
M  V30 8064 H 745.097 4.01885 -1.63313 0
M  V30 8065 H 745.768 5.45384 -0.852085 0
M  V30 8066 H 748.244 4.12534 0.543603 0
M  V30 8067 H 747.12 5.36609 1.15506 0
M  V30 8068 H 747.381 3.89868 2.0846 0
M  V30 8069 N 746.441 0.193421 1.56409 0
M  V30 8070 C 747.371 -0.723334 2.22014 0
M  V30 8071 C 748.352 -1.22254 1.1827 0
M  V30 8072 O 749.537 -1.27168 1.46771 0
M  V30 8073 C 746.667 -1.94366 2.87818 0
M  V30 8074 C 745.621 -1.57943 3.97791 0
M  V30 8075 C 744.947 -2.87623 4.50752 0
M  V30 8076 C 746.247 -0.790639 5.16281 0
M  V30 8077 H 747.941 -0.176426 2.9888 0
M  V30 8078 H 745.487 -0.0834166 1.43758 0
M  V30 8079 H 747.44 -2.5902 3.32396 0
M  V30 8080 H 746.164 -2.51507 2.08355 0
M  V30 8081 H 744.823 -0.956482 3.53903 0
M  V30 8082 H 744.471 -3.4285 3.68053 0
M  V30 8083 H 744.171 -2.63998 5.24956 0
M  V30 8084 H 745.695 -3.53268 4.9803 0
M  V30 8085 H 747.109 -1.34024 5.57414 0
M  V30 8086 H 745.506 -0.65258 5.96541 0
M  V30 8087 H 746.576 0.208633 4.84451 0
M  V30 8088 N 747.919 -1.57396 -0.0801906 0
M  V30 8089 C 749.165 -1.87113 -0.782083 0
M  V30 8090 C 749.498 -0.78458 -1.77646 0
M  V30 8091 O 748.773 0.205993 -1.93406 0
M  V30 8092 C 749.056 -3.27483 -1.49756 0
M  V30 8093 C 748.909 -4.46782 -0.520171 0
M  V30 8094 C 750.228 -3.65965 -2.44454 0
M  V30 8095 H 747.347 -0.680559 -0.282858 0
M  V30 8096 H 749.989 -1.89946 -0.0454139 0
M  V30 8097 H 748.139 -3.25199 -2.12551 0
M  V30 8098 H 749.811 -4.61187 0.101919 0
M  V30 8099 H 748.054 -4.33485 0.165219 0
M  V30 8100 H 748.725 -5.41761 -1.05824 0
M  V30 8101 H 751.201 -3.69289 -1.91742 0
M  V30 8102 H 750.077 -4.65086 -2.91524 0
M  V30 8103 H 750.338 -2.95446 -3.28883 0
M  V30 8104 N 749.397 0.351382 -1.53633 0
M  V30 8105 C 750.645 1.09034 -1.70165 0
M  V30 8106 C 750.966 1.89413 -0.463422 0
M  V30 8107 O 750.236 1.888 0.522624 0
M  V30 8108 H 748.816 0.405522 -0.627344 0
M  V30 8109 H 751.478 0.394554 -1.90865 0
M  V30 8110 H 750.574 1.77215 -2.56907 0
M  V30 8111 N 750.875 1.45233 0.611969 0
M  V30 8112 C 751.823 1.53898 1.74408 0
M  V30 8113 C 752.817 0.409254 1.64382 0
M  V30 8114 O 754.023 0.584988 1.70229 0
M  V30 8115 H 750.398 0.483303 0.576127 0
M  V30 8116 H 752.369 2.49143 1.64227 0
M  V30 8117 C 751.118 1.51865 3.12782 0
M  V30 8118 H 750.441 2.38118 3.21154 0
M  V30 8119 H 751.881 1.61986 3.91838 0
M  V30 8120 C 750.34 0.242374 3.36027 0
M  V30 8121 O 750.87 -0.679587 3.9591 0
M  V30 8122 N 749.076 0.139448 2.90265 0
M  V30 8123 H 748.623 0.890571 2.41716 0
M  V30 8124 H 748.581 -0.713686 3.06193 0
M  V30 8125 N 752.353 -0.854086 1.3245 0
M  V30 8126 C 753.3 -1.96271 1.21434 0
M  V30 8127 C 754.27 -1.6582 0.0963851 0
M  V30 8128 O 755.455 -1.88851 0.27203 0
M  V30 8129 C 752.595 -3.31939 0.943952 0
M  V30 8130 C 751.708 -3.74885 2.14675 0
M  V30 8131 C 750.843 -4.99347 1.81179 0
M  V30 8132 C 749.882 -5.34785 2.97777 0
M  V30 8133 N 749.019 -6.50425 2.6437 0
M  V30 8134 H 753.859 -2.05025 2.16261 0
M  V30 8135 H 751.396 -1.00348 1.07558 0
M  V30 8136 H 753.354 -4.10076 0.767675 0
M  V30 8137 H 751.984 -3.22784 0.0324763 0
M  V30 8138 H 751.036 -2.92396 2.43328 0
M  V30 8139 H 752.348 -3.97068 3.01891 0
M  V30 8140 H 751.502 -5.85193 1.60107 0
M  V30 8141 H 750.241 -4.79101 0.911777 0
M  V30 8142 H 749.246 -4.47451 3.1948 0
M  V30 8143 H 750.471 -5.56988 3.88511 0
M  V30 8144 H 748.417 -6.31695 1.7691 0
M  V30 8145 H 748.334 -6.7263 3.45116 0
M  V30 8146 H 749.602 -7.39422 2.46729 0
M  V30 8147 N 753.831 -1.1567 -1.07043 0
M  V30 8148 C 755.077 -0.944878 -1.80121 0
M  V30 8149 C 755.432 0.522239 -1.85177 0
M  V30 8150 O 754.725 1.38228 -1.32678 0
M  V30 8151 C 754.919 -1.49677 -3.24548 0
M  V30 8152 C 754.748 -3.01602 -3.33566 0
M  V30 8153 C 753.518 -3.70177 -3.43943 0
M  V30 8154 C 755.716 -3.99362 -3.24059 0
M  V30 8155 N 753.698 -5.09882 -3.41896 0
M  V30 8156 C 755.069 -5.25404 -3.29167 0
M  V30 8157 C 757.124 -3.91289 -3.07891 0
M  V30 8158 C 755.827 -6.44314 -3.19769 0
M  V30 8159 C 757.853 -5.09761 -2.99829 0
M  V30 8160 C 757.215 -6.34679 -3.05552 0
M  V30 8161 H 753.314 -0.399447 -0.672284 0
M  V30 8162 H 755.898 -1.4693 -1.27749 0
M  V30 8163 H 754.069 -0.998941 -3.75334 0
M  V30 8164 H 755.801 -1.22346 -3.85764 0
M  V30 8165 H 752.556 -3.2078 -3.48421 0
M  V30 8166 H 752.98 -5.82857 -3.44393 0
M  V30 8167 H 757.622 -2.95573 -3.02318 0
M  V30 8168 H 755.34 -7.4026 -3.24101 0
M  V30 8169 H 758.926 -5.05279 -2.88418 0
M  V30 8170 H 757.806 -7.24812 -2.99361 0
M  V30 8171 N 755.309 1.25446 -0.953992 0
M  V30 8172 C 756.555 1.9343 -0.60933 0
M  V30 8173 C 756.888 1.74542 0.851388 0
M  V30 8174 O 756.163 1.09014 1.61078 0
M  V30 8175 C 756.446 3.46844 -0.968041 0
M  V30 8176 C 756.299 3.74961 -2.48444 0
M  V30 8177 C 757.618 4.37334 -0.492641 0
M  V30 8178 H 754.737 0.702502 -0.222844 0
M  V30 8179 H 757.379 1.48076 -1.19053 0
M  V30 8180 H 755.529 3.85604 -0.473465 0
M  V30 8181 H 757.201 3.45841 -3.05273 0
M  V30 8182 H 755.444 3.20589 -2.92241 0
M  V30 8183 H 756.115 4.82246 -2.68594 0
M  V30 8184 H 758.591 4.05873 -0.916878 0
M  V30 8185 H 757.467 5.43439 -0.772331 0
M  V30 8186 H 757.728 4.37908 0.607403 0
M  V30 8187 N 756.787 0.722489 1.40064 0
M  V30 8188 C 758.012 0.273446 2.05589 0
M  V30 8189 C 758.437 -1.07875 1.54093 0
M  V30 8190 O 757.795 -1.68095 0.679252 0
M  V30 8191 C 757.843 0.271023 3.5958 0
M  V30 8192 O 756.947 -0.745499 4.05606 0
M  V30 8193 H 756.288 0.126856 0.65177 0
M  V30 8194 H 758.818 0.984906 1.79334 0
M  V30 8195 H 758.828 0.111084 4.07849 0
M  V30 8196 H 757.503 1.25776 3.96425 0
M  V30 8197 H 756.08 -0.552719 3.68781 0
M  V30 8198 N 758.265 -1.50454 0.469181 0
M  V30 8199 C 759.213 -2.30101 -0.340033 0
M  V30 8200 C 760.207 -1.37306 -0.992135 0
M  V30 8201 O 761.413 -1.54506 -0.923458 0
M  V30 8202 H 757.788 -0.740941 -0.128495 0
M  V30 8203 H 759.759 -2.96315 0.352144 0
M  V30 8204 C 758.508 -3.17804 -1.41052 0
M  V30 8205 H 757.831 -3.89115 -0.918124 0
M  V30 8206 H 759.271 -3.76533 -1.94934 0
M  V30 8207 C 757.73 -2.35272 -2.4114 0
M  V30 8208 O 758.26 -2.03448 -3.4637 0
M  V30 8209 N 756.466 -1.97889 -2.1281 0
M  V30 8210 H 756.013 -2.2397 -1.27261 0
M  V30 8211 H 755.971 -1.42971 -2.80012 0
M  V30 8212 N 759.743 -0.201713 -1.56304 0
M  V30 8213 C 760.69 0.716499 -2.19397 0
M  V30 8214 C 761.66 1.20494 -1.14326 0
M  V30 8215 O 762.845 1.26763 -1.42604 0
M  V30 8216 C 759.985 1.92762 -2.86246 0
M  V30 8217 C 759.098 1.47993 -4.0586 0
M  V30 8218 C 758.233 2.64706 -4.60547 0
M  V30 8219 C 757.272 2.16576 -5.72504 0
M  V30 8220 N 756.409 3.26491 -6.21569 0
M  V30 8221 H 761.249 0.171724 -2.97505 0
M  V30 8222 H 758.786 0.073016 -1.46919 0
M  V30 8223 H 760.744 2.6384 -3.23178 0
M  V30 8224 H 759.374 2.44559 -2.10691 0
M  V30 8225 H 758.426 0.66477 -3.74546 0
M  V30 8226 H 759.738 1.08686 -4.86815 0
M  V30 8227 H 758.892 3.43898 -4.99819 0
M  V30 8228 H 757.631 3.0729 -3.78713 0
M  V30 8229 H 756.636 1.3584 -5.32755 0
M  V30 8230 H 757.861 1.75015 -6.56161 0
M  V30 8231 H 755.807 3.68594 -5.42655 0
M  V30 8232 H 755.724 2.91374 -6.97594 0
M  V30 8233 H 756.992 4.05877 -6.65495 0
M  V30 8234 N 761.222 1.57436 0.0718424 0
M  V30 8235 C 762.468 1.88388 0.766904 0
M  V30 8236 C 762.823 0.7954 1.75189 0
M  V30 8237 O 762.116 -0.200438 1.90549 0
M  V30 8238 C 762.31 3.23723 1.51455 0
M  V30 8239 C 762.139 4.45632 0.603475 0
M  V30 8240 C 760.909 5.04728 0.240437 0
M  V30 8241 C 763.107 5.14203 -0.0997624 0
M  V30 8242 N 761.089 6.10163 -0.676363 0
M  V30 8243 C 762.46 6.13812 -0.873755 0
M  V30 8244 C 764.515 4.97605 -0.171238 0
M  V30 8245 C 763.218 6.98615 -1.71258 0
M  V30 8246 C 765.244 5.82935 -0.997041 0
M  V30 8247 C 764.606 6.82082 -1.75908 0
M  V30 8248 H 760.705 0.738888 0.256064 0
M  V30 8249 H 763.289 1.94679 0.0284273 0
M  V30 8250 H 761.46 3.1844 2.22375 0
M  V30 8251 H 763.192 3.42324 2.15862 0
M  V30 8252 H 759.947 4.69869 0.593284 0
M  V30 8253 H 760.371 6.67537 -1.12801 0
M  V30 8254 H 765.013 4.20869 0.403586 0
M  V30 8255 H 762.731 7.74726 -2.29838 0
M  V30 8256 H 766.317 5.72149 -1.05532 0
M  V30 8257 H 765.197 7.46964 -2.38778 0
M  V30 8258 N 762.7 -0.34323 1.53817 0
M  V30 8259 C 763.63 -1.42709 1.84814 0
M  V30 8260 C 764.611 -1.5488 0.703297 0
M  V30 8261 O 765.796 -1.69082 0.955237 0
M  V30 8262 C 762.926 -2.79756 2.05801 0
M  V30 8263 C 761.88 -2.82392 3.21619 0
M  V30 8264 C 761.206 -4.22326 3.2794 0
M  V30 8265 C 762.506 -2.479 4.59721 0
M  V30 8266 H 764.2 -1.17018 2.75585 0
M  V30 8267 H 761.746 -0.561485 1.32602 0
M  V30 8268 H 763.699 -3.55627 2.26069 0
M  V30 8269 H 762.423 -3.06883 1.11761 0
M  V30 8270 H 761.082 -2.08974 3.01207 0
M  V30 8271 H 760.73 -4.46564 2.31494 0
M  V30 8272 H 760.43 -4.25001 4.05768 0
M  V30 8273 H 761.954 -5.00039 3.50419 0
M  V30 8274 H 763.368 -3.13484 4.80001 0
M  V30 8275 H 761.765 -2.61857 5.39954 0
M  V30 8276 H 762.835 -1.43087 4.63308 0
M  V30 8277 N 764.178 -1.45556 -0.604258 0
M  V30 8278 C 765.128 -1.50906 -1.70913 0
M  V30 8279 C 766.112 -0.371996 -1.56541 0
M  V30 8280 O 767.304 -0.619064 -1.65821 0
M  V30 8281 C 764.433 -1.48181 -3.09673 0
M  V30 8282 C 763.519 -2.67102 -3.2942 0
M  V30 8283 N 763.91 -3.92184 -3.19414 0
M  V30 8284 C 762.208 -2.6287 -3.60299 0
M  V30 8285 C 762.909 -4.71571 -3.40581 0
M  V30 8286 N 761.885 -4.03081 -3.64728 0
M  V30 8287 H 765.687 -2.45435 -1.61675 0
M  V30 8288 H 763.201 -1.40894 -0.807622 0
M  V30 8289 H 765.198 -1.501 -3.88942 0
M  V30 8290 H 763.858 -0.54712 -3.20057 0
M  V30 8291 H 764.869 -4.23756 -2.97743 0
M  V30 8292 H 761.546 -1.78324 -3.77501 0
M  V30 8293 H 762.936 -5.80571 -3.38211 0
M  V30 8294 N 765.656 0.84705 -1.32902 0
M  V30 8295 C 766.566 1.98845 -1.2449 0
M  V30 8296 C 767.582 1.7329 -0.15702 0
M  V30 8297 O 768.758 1.978 -0.379104 0
M  V30 8298 C 765.823 3.32679 -0.975985 0
M  V30 8299 C 764.884 3.71405 -2.15306 0
M  V30 8300 C 764.117 4.98853 -1.89688 0
M  V30 8301 O 764.34 5.64134 -0.843168 0
M  V30 8302 O 763.274 5.34889 -2.76002 0
M  V30 8303 H 767.1 2.0888 -2.2046 0
M  V30 8304 H 764.685 0.978852 -1.12867 0
M  V30 8305 H 766.567 4.12885 -0.842826 0
M  V30 8306 H 765.242 3.23667 -0.0464954 0
M  V30 8307 H 764.149 2.91743 -2.34172 0
M  V30 8308 H 765.482 3.85073 -3.06561 0
M  V30 8309 N 767.134 1.16236 1.06428 0
M  V30 8310 C 768.55 0.906983 1.31324 0
M  V30 8311 C 768.75 -0.440872 1.96618 0
M  V30 8312 O 767.806 -1.1807 2.23194 0
M  V30 8313 C 769.119 2.05501 2.19522 0
M  V30 8314 C 770.667 2.09061 2.32943 0
M  V30 8315 C 771.142 3.23214 3.24495 0
M  V30 8316 N 772.633 3.22922 3.32078 0
M  V30 8317 C 773.368 4.07889 4.03006 0
M  V30 8318 N 772.864 5.02941 4.76469 0
M  V30 8319 N 774.657 3.95881 3.99043 0
M  V30 8320 H 766.808 2.03015 0.624388 0
M  V30 8321 H 769.071 0.88576 0.337835 0
M  V30 8322 H 768.777 3.02847 1.78819 0
M  V30 8323 H 768.651 1.99538 3.201 0
M  V30 8324 H 771.038 1.12308 2.72893 0
M  V30 8325 H 771.119 2.19089 1.32037 0
M  V30 8326 H 770.763 4.20225 2.85261 0
M  V30 8327 H 770.693 3.10423 4.25377 0
M  V30 8328 H 773.184 2.54093 2.79724 0
M  V30 8329 H 773.497 5.64196 5.28112 0
M  V30 8330 H 771.842 5.06922 4.75453 0
M  V30 8331 H 775.033 3.20927 3.40769 0
M  V30 8332 H 775.206 4.62321 4.54052 0
M  V30 8333 N 768.612 -1.24939 0.960631 0
M  V30 8334 C 769.86 -1.92437 0.617441 0
M  V30 8335 C 770.181 -1.75543 -0.849101 0
M  V30 8336 O 769.451 -1.12269 -1.60538 0
M  V30 8337 H 768.031 -0.712192 0.225371 0
M  V30 8338 H 770.693 -1.5198 1.22017 0
M  V30 8339 H 769.789 -3.00247 0.851933 0
M  V30 8340 N 770.09 -0.729906 -1.39679 0
M  V30 8341 C 771.022 -0.0470588 -2.29152 0
M  V30 8342 C 772.035 0.708808 -1.4656 0
M  V30 8343 O 773.224 0.553815 -1.69691 0
M  V30 8344 C 770.324 0.957612 -3.25089 0
M  V30 8345 C 769.497 0.264321 -4.36601 0
M  V30 8346 C 768.556 1.17638 -5.12882 0
M  V30 8347 O 767.582 0.655777 -5.6541 0
M  V30 8348 N 768.784 2.50649 -5.23598 0
M  V30 8349 H 771.549 -0.815364 -2.88395 0
M  V30 8350 H 769.11 -0.578707 -1.51204 0
M  V30 8351 H 771.102 1.57026 -3.72995 0
M  V30 8352 H 769.672 1.62716 -2.66912 0
M  V30 8353 H 768.892 -0.528732 -3.90638 0
M  V30 8354 H 770.18 -0.216344 -5.0834 0
M  V30 8355 H 769.578 2.95427 -4.82431 0
M  V30 8356 H 768.135 3.07022 -5.74961 0
M  V30 8357 N 771.568 1.50203 -0.477153 0
M  V30 8358 C 772.478 2.32421 0.319027 0
M  V30 8359 C 773.494 1.43075 0.990233 0
M  V30 8360 O 774.67 1.76123 0.976873 0
M  V30 8361 C 771.735 3.17909 1.38328 0
M  V30 8362 C 770.796 4.23082 0.728036 0
M  V30 8363 C 770.029 5.04484 1.74158 0
M  V30 8364 O 770.252 4.8705 2.96881 0
M  V30 8365 O 769.186 5.8747 1.31006 0
M  V30 8366 H 773.012 3.01638 -0.353281 0
M  V30 8367 H 770.597 1.47478 -0.238891 0
M  V30 8368 H 772.479 3.70937 1.9996 0
M  V30 8369 H 771.154 2.51413 2.03895 0
M  V30 8370 H 770.061 3.7403 0.07261 0
M  V30 8371 H 771.394 4.92065 0.115216 0
M  V30 8372 N 773.046 0.209999 1.56195 0
M  V30 8373 C 774.293 -0.424813 1.97994 0
M  V30 8374 C 774.621 -1.60589 1.09733 0
M  V30 8375 O 773.876 -1.95201 0.139693 0
M  V30 8376 C 774.175 -0.91312 3.45539 0
M  V30 8377 C 773.841 0.156187 4.50629 0
M  V30 8378 C 772.503 0.449966 4.79092 0
M  V30 8379 C 774.855 0.879959 5.13718 0
M  V30 8380 C 772.183 1.47223 5.67928 0
M  V30 8381 C 774.535 1.89148 6.0366 0
M  V30 8382 C 773.199 2.1923 6.30472 0
M  V30 8383 H 772.469 -0.15545 0.724511 0
M  V30 8384 H 775.116 0.310095 1.88973 0
M  V30 8385 H 773.421 -1.72658 3.51705 0
M  V30 8386 H 775.118 -1.41395 3.75245 0
M  V30 8387 H 771.708 -0.0829466 4.2852 0
M  V30 8388 H 775.892 0.66623 4.91808 0
M  V30 8389 H 771.148 1.71105 5.86969 0
M  V30 8390 H 775.322 2.45745 6.516 0
M  V30 8391 H 772.949 2.98587 6.99107 0
M  V30 8392 N 774.524 -1.57472 -0.0634922 0
M  V30 8393 C 775.94 -1.54016 -0.418466 0
M  V30 8394 C 776.14 -0.931376 -1.78683 0
M  V30 8395 O 775.196 -0.537465 -2.46714 0
M  V30 8396 C 776.509 -2.98634 -0.351906 0
M  V30 8397 C 778.057 -3.10012 -0.431494 0
M  V30 8398 C 778.532 -4.56296 -0.394754 0
M  V30 8399 N 780.023 -4.60964 -0.454583 0
M  V30 8400 C 780.758 -5.71643 -0.448501 0
M  V30 8401 N 780.254 -6.91663 -0.396742 0
M  V30 8402 N 782.047 -5.5991 -0.495677 0
M  V30 8403 H 774.198 -1.95409 0.832408 0
M  V30 8404 H 776.461 -0.894769 0.313197 0
M  V30 8405 H 776.167 -3.46766 0.587048 0
M  V30 8406 H 776.041 -3.58955 -1.15893 0
M  V30 8407 H 778.428 -2.61848 -1.36087 0
M  V30 8408 H 778.509 -2.52585 0.404258 0
M  V30 8409 H 778.153 -5.05119 0.530811 0
M  V30 8410 H 778.083 -5.11594 -1.24815 0
M  V30 8411 H 780.574 -3.74598 -0.498496 0
M  V30 8412 H 780.887 -7.71783 -0.396256 0
M  V30 8413 H 779.232 -6.9405 -0.363304 0
M  V30 8414 H 782.423 -4.65046 -0.533864 0
M  V30 8415 H 782.596 -6.46164 -0.487469 0
M  V30 8416 N 776.003 0.335068 -1.53997 0
M  V30 8417 C 777.419 0.678704 -1.4445 0
M  V30 8418 C 777.619 1.92106 -0.608078 0
M  V30 8419 O 776.675 2.52292 -0.102373 0
M  V30 8420 C 777.988 0.863435 -2.88037 0
M  V30 8421 C 779.536 0.961513 -2.97866 0
M  V30 8422 C 780.011 1.1785 -4.42578 0
M  V30 8423 N 781.502 1.2455 -4.46141 0
M  V30 8424 C 782.237 1.43106 -5.55255 0
M  V30 8425 N 781.733 1.5878 -6.74359 0
M  V30 8426 N 783.526 1.45722 -5.42883 0
M  V30 8427 H 775.677 -0.481656 -2.06867 0
M  V30 8428 H 777.94 -0.153615 -0.935471 0
M  V30 8429 H 777.646 0.0219511 -3.51693 0
M  V30 8430 H 777.52 1.76268 -3.33481 0
M  V30 8431 H 779.907 1.79351 -2.34344 0
M  V30 8432 H 779.988 0.0389862 -2.5577 0
M  V30 8433 H 779.632 0.351397 -5.06683 0
M  V30 8434 H 779.562 2.11472 -4.82273 0
M  V30 8435 H 782.053 1.13928 -3.60318 0
M  V30 8436 H 782.366 1.72599 -7.53279 0
M  V30 8437 H 780.711 1.559 -6.77289 0
M  V30 8438 H 783.902 1.33065 -4.48789 0
M  V30 8439 H 784.075 1.59841 -6.27977 0
M  V30 8440 N 777.481 1.45874 0.596531 0
M  V30 8441 C 778.892 1.44798 1.17857 0
M  V30 8442 C 779.243 0.181443 1.95359 0
M  V30 8443 O 778.368 -0.716336 2.042 0
M  V30 8444 C 778.963 2.62333 2.14398 0
M  V30 8445 C 777.522 2.64342 2.67955 0
M  V30 8446 C 776.669 2.37244 1.43564 0
M  V30 8447 H 779.62 1.53954 0.385222 0
M  V30 8448 H 779.641 2.37063 2.97626 0
M  V30 8449 H 779.153 3.54499 1.57963 0
M  V30 8450 H 777.254 1.76213 3.28298 0
M  V30 8451 H 777.367 3.63897 3.11634 0
M  V30 8452 H 775.731 1.87022 1.72901 0
M  V30 8453 H 776.514 3.31568 0.889805 0
M  V30 8454 N 778.959 -0.83999 1.33349 0
M  V30 8455 C 780.199 -1.60888 1.26073 0
M  V30 8456 C 780.563 -1.91234 -0.17129 0
M  V30 8457 O 781.764 -2.66269 -0.36799 0
M  V30 8458 C 780.035 -2.88438 2.11042 0
M  V30 8459 S 781.594 -3.79116 2.20944 0
M  V30 8460 H 778.412 -0.55166 0.448545 0
M  V30 8461 H 781.014 -0.99359 1.68369 0
M  V30 8462 H 779.718 -2.64113 3.14121 0
M  V30 8463 H 779.249 -3.54974 1.69579 0
M  V30 8464 H 781.264 -4.76921 1.36969 0
M  V30 8465 N 780.437 -1.16799 -1.0581 0
M  V30 8466 C 781.665 -0.97687 -1.82387 0
M  V30 8467 C 782.08 0.474917 -1.82729 0
M  V30 8468 O 781.437 1.3297 -1.25001 0
M  V30 8469 C 781.488 -1.50279 -3.28783 0
M  V30 8470 O 781.209 -2.89772 -3.28578 0
M  V30 8471 C 782.71 -1.35538 -4.22071 0
M  V30 8472 H 779.93 -0.345977 -0.574927 0
M  V30 8473 H 782.474 -1.54942 -1.33466 0
M  V30 8474 H 780.629 -0.972414 -3.74997 0
M  V30 8475 H 781.043 -3.13954 -4.20159 0
M  V30 8476 H 782.517 -1.7716 -5.22799 0
M  V30 8477 H 782.994 -0.301598 -4.38163 0
M  V30 8478 H 783.6 -1.87562 -3.81708 0
M  V30 8479 N 781.915 1.24427 -0.967243 0
M  V30 8480 C 782.845 2.2773 -0.515899 0
M  V30 8481 C 783.826 1.64197 0.444227 0
M  V30 8482 O 785.011 1.91193 0.340451 0
M  V30 8483 C 782.141 3.46751 0.195149 0
M  V30 8484 C 781.095 4.22548 -0.680953 0
M  V30 8485 C 780.421 5.34456 0.161561 0
M  V30 8486 C 781.721 4.83914 -1.96532 0
M  V30 8487 H 783.415 2.65735 -1.37933 0
M  V30 8488 H 780.961 1.27742 -0.664681 0
M  V30 8489 H 782.914 4.18153 0.522117 0
M  V30 8490 H 781.638 3.07771 1.09292 0
M  V30 8491 H 780.297 3.52946 -0.991186 0
M  V30 8492 H 779.945 4.91716 1.05947 0
M  V30 8493 H 779.645 5.86087 -0.421418 0
M  V30 8494 H 781.169 6.08685 0.483211 0
M  V30 8495 H 782.583 5.47392 -1.70396 0
M  V30 8496 H 780.98 5.45775 -2.49499 0
M  V30 8497 H 782.05 4.05393 -2.66053 0
M  V30 8498 N 783.393 0.737304 1.3929 0
M  V30 8499 C 784.618 0.295237 2.05288 0
M  V30 8500 C 785.043 -1.06235 1.55228 0
M  V30 8501 O 784.401 -1.67365 0.697043 0
M  V30 8502 C 784.449 0.309146 3.59272 0
M  V30 8503 O 783.553 -0.702437 4.06374 0
M  V30 8504 H 782.894 0.133762 0.650387 0
M  V30 8505 H 785.424 1.00387 1.78279 0
M  V30 8506 H 785.434 0.154336 4.07708 0
M  V30 8507 H 784.109 1.29974 3.95069 0
M  V30 8508 H 782.686 -0.513574 3.69346 0
M  V30 8509 N 784.871 -1.49948 0.485112 0
M  V30 8510 C 785.781 -2.32587 -0.306697 0
M  V30 8511 C 786.797 -1.43598 -0.982632 0
M  V30 8512 O 787.973 -1.76638 -0.967519 0
M  V30 8513 C 785.038 -3.18638 -1.3664 0
M  V30 8514 C 784.099 -4.23462 -0.705589 0
M  V30 8515 C 783.332 -5.05401 -1.7148 0
M  V30 8516 O 783.555 -4.88618 -2.94293 0
M  V30 8517 O 782.489 -5.88157 -1.27889 0
M  V30 8518 H 786.315 -3.01447 0.369272 0
M  V30 8519 H 783.9 -1.47349 0.246709 0
M  V30 8520 H 785.782 -3.71992 -1.9799 0
M  V30 8521 H 784.457 -2.52491 -2.02559 0
M  V30 8522 H 783.364 -3.74063 -0.0527733 0
M  V30 8523 H 784.697 -4.92119 -0.0891187 0
M  V30 8524 N 786.349 -0.21828 -1.56081 0
M  V30 8525 C 787.279 0.687922 -2.23136 0
M  V30 8526 C 788.26 1.20357 -1.202 0
M  V30 8527 O 789.445 1.24817 -1.48776 0
M  V30 8528 C 786.575 1.89762 -2.90874 0
M  V30 8529 C 785.529 1.51595 -4.00254 0
M  V30 8530 C 784.855 2.80415 -4.55271 0
M  V30 8531 C 786.155 0.708404 -5.17474 0
M  V30 8532 H 787.849 0.128854 -2.99123 0
M  V30 8533 H 785.395 0.0605354 -1.43873 0
M  V30 8534 H 787.348 2.53699 -3.36474 0
M  V30 8535 H 786.072 2.4816 -2.1233 0
M  V30 8536 H 784.731 0.900058 -3.55379 0
M  V30 8537 H 784.379 3.36951 -3.73461 0
M  V30 8538 H 784.079 2.55613 -5.2909 0
M  V30 8539 H 785.603 3.453 -5.03587 0
M  V30 8540 H 787.017 1.2514 -5.59476 0
M  V30 8541 H 785.414 0.557593 -5.97504 0
M  V30 8542 H 786.484 -0.285679 -4.84058 0
M  V30 8543 N 787.827 1.57504 0.0551401 0
M  V30 8544 C 788.737 2.08198 1.08124 0
M  V30 8545 C 789.753 1.01496 1.41331 0
M  V30 8546 O 790.929 1.33073 1.51174 0
M  V30 8547 C 787.994 2.52968 2.37083 0
M  V30 8548 C 787.055 3.7404 2.10696 0
M  V30 8549 C 786.288 4.16665 3.33505 0
M  V30 8550 O 786.511 3.59019 4.4324 0
M  V30 8551 O 785.445 5.09324 3.20737 0
M  V30 8552 H 789.271 2.95977 0.680518 0
M  V30 8553 H 786.856 1.46933 0.270401 0
M  V30 8554 H 788.738 2.82211 3.12946 0
M  V30 8555 H 787.413 1.6831 2.76502 0
M  V30 8556 H 786.32 3.49855 1.32484 0
M  V30 8557 H 787.653 4.59601 1.76148 0
M  V30 8558 O 789.344 -0.198462 1.60276 0
M  V30 8559 H 790.035 -0.837638 1.74652 0
M  V30 END ATOM
M  V30 BEGIN BOND
M  V30 END BOND
M  V30 END CTAB
M  END
$$$$
