drugbank_target|P46883 Primary amine oxidase (DB01634; DB01657; DB02178; DB02928; DB03631; DB04325; DB04334)
 OpenBabel12092119503D

  0  0  0     0  0            999 V3000
M  V30 BEGIN CTAB
M  V30 COUNTS 11787 11941 0 0 0
M  V30 BEGIN ATOM
M  V30 1 H -0.908 1.98254 -0.117106 0
M  V30 2 N 0 1.576 0 0
M  V30 3 C 0.933 2.03868 1.02534 0
M  V30 4 C 1.911 0.928543 1.3348 0
M  V30 5 O 3.095 1.19667 1.45644 0
M  V30 6 C 0.222 2.43627 2.35294 0
M  V30 7 C -0.732 3.65373 2.2001 0
M  V30 8 S 0.101 5.13292 1.52614 0
M  V30 9 C 1.257 5.56322 2.86805 0
M  V30 10 H 1.49 2.90518 0.631377 0
M  V30 11 H -0.977 1.52953 0.210867 0
M  V30 12 H 0.981 2.67203 3.11629 0
M  V30 13 H -0.358 1.57376 2.7183 0
M  V30 14 H -1.165 3.90944 3.18086 0
M  V30 15 H -1.563 3.418 1.51819 0
M  V30 16 H 0.729 5.58782 3.83104 0
M  V30 17 H 1.672 6.56266 2.65933 0
M  V30 18 H 2.08 4.83886 2.90714 0
M  V30 19 N 1.4781 -0.272755 1.55222 0
M  V30 20 C 2.7261 -1.00234 1.75492 0
M  V30 21 C 3.0471 -1.8681 0.5592 0
M  V30 22 O 2.3171 -1.91215 -0.425882 0
M  V30 23 H 0.8971 -0.373076 0.647166 0
M  V30 24 H 3.5591 -0.296926 1.92625 0
M  V30 25 H 2.6551 -1.63913 2.65592 0
M  V30 26 N 2.9562 -1.48159 -0.537278 0
M  V30 27 C 4.1812 -1.59707 -1.32319 0
M  V30 28 C 4.6062 -0.254859 -1.86365 0
M  V30 29 O 3.9642 0.772378 -1.64024 0
M  V30 30 C 4.0122 -2.6412 -2.45505 0
M  V30 31 O 3.1162 -2.20774 -3.48328 0
M  V30 32 H 2.4572 -0.535791 -0.392204 0
M  V30 33 H 4.9872 -1.94092 -0.647268 0
M  V30 34 H 4.9972 -2.85166 -2.91795 0
M  V30 35 H 3.6722 -3.61567 -2.05528 0
M  V30 36 H 2.2492 -2.09911 -3.08207 0
M  V30 37 N 4.4343 0.785586 -1.36625 0
M  V30 38 C 5.8453 1.36101 -1.27803 0
M  V30 39 C 6.1963 1.96035 0.0804875 0
M  V30 40 O 5.3213 1.92834 0.982042 0
M  V30 41 C 5.9163 2.47442 -2.31426 0
M  V30 42 C 4.4753 3.00789 -2.26281 0
M  V30 43 C 3.6223 1.73896 -2.15999 0
M  V30 44 H 6.5733 0.586928 -1.47448 0
M  V30 45 H 6.5943 3.2656 -1.95291 0
M  V30 46 H 6.1063 2.03791 -3.30289 0
M  V30 47 H 4.2073 3.48851 -1.30896 0
M  V30 48 H 4.3203 3.57343 -3.19128 0
M  V30 49 H 2.6843 1.9628 -1.62316 0
M  V30 50 H 3.4673 1.32368 -3.16755 0
M  V30 51 N 5.9124 1.20967 1.01018 0
M  V30 52 C 7.1374 1.0503 1.78839 0
M  V30 53 C 7.5624 -0.395752 1.8389 0
M  V30 54 O 6.9204 -1.28529 1.27867 0
M  V30 55 C 6.9684 1.64602 3.2084 0
M  V30 56 O 6.0724 0.887988 4.02726 0
M  V30 57 H 5.4134 0.369987 0.551367 0
M  V30 58 H 7.9434 1.60399 1.27018 0
M  V30 59 H 7.9534 1.68607 3.71532 0
M  V30 60 H 6.6284 2.69841 3.16479 0
M  V30 61 H 5.2054 0.922648 3.61305 0
M  V30 62 N 7.3905 -1.2043 1.01659 0
M  V30 63 C 8.3205 -2.25466 0.607226 0
M  V30 64 C 9.3015 -1.65853 -0.377716 0
M  V30 65 O 10.4865 -1.92409 -0.263149 0
M  V30 66 C 7.6165 -3.47256 -0.0552949 0
M  V30 67 C 6.5705 -4.19462 0.850632 0
M  V30 68 C 5.8965 -5.34673 0.0538859 0
M  V30 69 C 7.1965 -4.75603 2.15868 0
M  V30 70 H 8.8905 -2.59962 1.48526 0
M  V30 71 H 6.4365 -1.2496 0.715605 0
M  V30 72 H 8.3895 -4.19917 -0.353233 0
M  V30 73 H 7.1135 -3.11924 -0.968045 0
M  V30 74 H 5.7725 -3.48667 1.13257 0
M  V30 75 H 5.4205 -4.95585 -0.860514 0
M  V30 76 H 5.1205 -5.83913 0.657192 0
M  V30 77 H 6.6445 -6.10138 -0.237598 0
M  V30 78 H 8.0585 -5.40083 1.92311 0
M  V30 79 H 6.4555 -5.3528 2.71284 0
M  V30 80 H 7.5255 -3.94346 2.82169 0
M  V30 81 N 8.8686 -0.792821 -1.36206 0
M  V30 82 C 10.0986 -0.378275 -2.03107 0
M  V30 83 C 10.5066 1.01119 -1.59911 0
M  V30 84 O 9.8496 1.66052 -0.785658 0
M  V30 85 C 9.9116 -0.366535 -3.57627 0
M  V30 86 C 9.5756 -1.70416 -4.24037 0
M  V30 87 C 10.5726 -2.6602 -4.46687 0
M  V30 88 C 8.2576 -1.98439 -4.6144 0
M  V30 89 C 10.2516 -3.8784 -5.05825 0
M  V30 90 C 7.9386 -3.20525 -5.20295 0
M  V30 91 C 8.9366 -4.15044 -5.42427 0
M  V30 92 O 8.6246 -5.34978 -6.00045 0
M  V30 93 H 8.3566 -0.153543 -0.658332 0
M  V30 94 H 10.9106 -1.07383 -1.75094 0
M  V30 95 H 9.1406 0.385539 -3.84773 0
M  V30 96 H 10.8296 0.0238088 -4.05893 0
M  V30 97 H 11.5956 -2.45658 -4.18183 0
M  V30 98 H 7.4746 -1.25686 -4.43536 0
M  V30 99 H 11.0186 -4.61628 -5.23015 0
M  V30 100 H 6.9156 -3.40764 -5.48225 0
M  V30 101 H 7.6836 -5.36088 -6.18508 0
M  V30 102 N 10.3467 1.47872 -0.545128 0
M  V30 103 C 11.5717 2.07391 -0.0190611 0
M  V30 104 C 11.9967 1.39688 1.25971 0
M  V30 105 O 11.3547 0.467816 1.7516 0
M  V30 106 C 11.4027 3.60188 0.172335 0
M  V30 107 O 10.5067 3.9339 1.23766 0
M  V30 108 H 9.8477 0.662411 -0.0459059 0
M  V30 109 H 12.3777 1.90066 -0.757365 0
M  V30 110 H 12.3877 4.06129 0.390305 0
M  V30 111 H 11.0627 4.08865 -0.761725 0
M  V30 112 H 9.6397 3.5921 1.00114 0
M  V30 113 N 11.8248 0.280983 1.55075 0
M  V30 114 C 12.7878 -0.590896 2.21452 0
M  V30 115 C 13.7878 -1.07682 1.19421 0
M  V30 116 O 14.9778 -0.97605 1.44288 0
M  V30 117 C 12.1098 -1.81587 2.88511 0
M  V30 118 H 13.3028 -0.0112554 2.99898 0
M  V30 119 H 10.8558 0.0316438 1.56268 0
M  V30 120 H 11.5908 -2.43587 2.14093 0
M  V30 121 H 11.3758 -1.4753 3.63287 0
M  V30 122 H 12.8658 -2.43575 3.39206 0
M  V30 123 N 13.3029 -1.57598 0.00835791 0
M  V30 124 C 14.7189 -1.55764 -0.347822 0
M  V30 125 C 14.9189 -1.01186 -1.74252 0
M  V30 126 O 13.9749 -0.649371 -2.44007 0
M  V30 127 C 15.2879 -2.99927 -0.215407 0
M  V30 128 C 16.8359 -3.11656 -0.289725 0
M  V30 129 C 17.3109 -4.57621 -0.18634 0
M  V30 130 N 18.8019 -4.62557 -0.243978 0
M  V30 131 C 19.5369 -5.73094 -0.18745 0
M  V30 132 N 19.0329 -6.92753 -0.0810331 0
M  V30 133 N 20.8259 -5.61588 -0.239925 0
M  V30 134 H 12.9769 -1.91411 0.92062 0
M  V30 135 H 15.2399 -0.879562 0.353659 0
M  V30 136 H 14.9459 -3.43729 0.744512 0
M  V30 137 H 14.8199 -3.63865 -0.994097 0
M  V30 138 H 17.2069 -2.67779 -1.24009 0
M  V30 139 H 17.2879 -2.5048 0.51898 0
M  V30 140 H 16.9319 -5.02174 0.760519 0
M  V30 141 H 16.8619 -5.16752 -1.01364 0
M  V30 142 H 19.3529 -3.76481 -0.327217 0
M  V30 143 H 19.6659 -7.72787 -0.0440241 0
M  V30 144 H 18.0109 -6.94984 -0.0465419 0
M  V30 145 H 21.2019 -4.66996 -0.321317 0
M  V30 146 H 21.3749 -6.47714 -0.192407 0
M  V30 147 N 14.781 0.264519 -1.55364 0
M  V30 148 C 15.728 1.32717 -1.88825 0
M  V30 149 C 16.698 1.48675 -0.740605 0
M  V30 150 O 17.883 1.62945 -0.992657 0
M  V30 151 C 15.023 2.68089 -2.17307 0
M  V30 152 C 14.136 2.60284 -3.44785 0
M  V30 153 C 13.271 3.87892 -3.62924 0
M  V30 154 C 12.31 3.74631 -4.84064 0
M  V30 155 N 11.447 4.94092 -4.98816 0
M  V30 156 H 16.287 1.03481 -2.79456 0
M  V30 157 H 13.824 0.499757 -1.3835 0
M  V30 158 H 15.782 3.46864 -2.31821 0
M  V30 159 H 14.412 2.95509 -1.299 0
M  V30 160 H 13.464 1.73173 -3.38697 0
M  V30 161 H 14.776 2.46388 -4.33698 0
M  V30 162 H 13.93 4.75109 -3.77302 0
M  V30 163 H 12.669 4.04664 -2.7221 0
M  V30 164 H 11.674 2.85797 -4.69681 0
M  V30 165 H 12.899 3.5937 -5.76221 0
M  V30 166 H 10.845 5.11259 -4.11036 0
M  V30 167 H 10.762 4.8276 -5.81789 0
M  V30 168 H 12.03 5.82857 -5.17588 0
M  V30 169 N 16.2591 1.48442 0.529413 0
M  V30 170 C 17.4871 1.60151 1.30994 0
M  V30 171 C 17.9021 0.261985 1.86973 0
M  V30 172 O 17.2591 -0.748805 1.66431 0
M  V30 173 C 17.3101 2.64854 2.46038 0
M  V30 174 O 17.0311 3.93608 1.92365 0
M  V30 175 C 18.5321 2.87007 3.37849 0
M  V30 176 H 15.7521 0.539971 0.398338 0
M  V30 177 H 18.2961 1.94273 0.638597 0
M  V30 178 H 16.4511 2.33589 3.09055 0
M  V30 179 H 16.8651 4.51055 2.67675 0
M  V30 180 H 18.3391 3.64068 4.14919 0
M  V30 181 H 18.8161 1.95852 3.93114 0
M  V30 182 H 19.4221 3.19579 2.80623 0
M  V30 183 N 17.7372 -0.778329 1.37039 0
M  V30 184 C 18.9652 -1.56734 1.35063 0
M  V30 185 C 19.3802 -1.88686 -0.0655597 0
M  V30 186 O 18.7372 -1.5096 -1.02554 0
M  V30 187 C 18.7882 -2.88163 2.18276 0
M  V30 188 O 18.5092 -2.57583 3.54376 0
M  V30 189 C 20.0102 -3.82422 2.24206 0
M  V30 190 H 17.2302 -0.485778 0.462883 0
M  V30 191 H 19.7742 -0.965185 1.8029 0
M  V30 192 H 17.9292 -3.44818 1.76576 0
M  V30 193 H 18.3432 -3.41699 3.97922 0
M  V30 194 H 19.8172 -4.71667 2.86765 0
M  V30 195 H 20.2942 -4.21078 1.24861 0
M  V30 196 H 20.9002 -3.31697 2.6619 0
M  V30 197 N 19.2153 -1.21501 -1.00376 0
M  V30 198 C 20.1453 -0.999478 -2.11028 0
M  V30 199 C 21.1263 0.0759671 -1.6993 0
M  V30 200 O 22.3113 -0.0841106 -1.94018 0
M  V30 201 C 19.4413 -0.564709 -3.42678 0
M  V30 202 C 18.3953 -1.58486 -3.97576 0
M  V30 203 C 17.7213 -1.00628 -5.25146 0
M  V30 204 C 19.0213 -2.97204 -4.29496 0
M  V30 205 H 20.7153 -1.92495 -2.29317 0
M  V30 206 H 18.2613 -0.92693 -1.102 0
M  V30 207 H 20.2143 -0.401091 -4.19487 0
M  V30 208 H 18.9383 0.396411 -3.24185 0
M  V30 209 H 17.5973 -1.73606 -3.22888 0
M  V30 210 H 17.2453 -0.0368439 -5.02987 0
M  V30 211 H 16.9453 -1.68771 -5.62841 0
M  V30 212 H 18.4693 -0.854015 -6.04598 0
M  V30 213 H 19.8833 -2.8552 -4.97143 0
M  V30 214 H 18.2803 -3.62372 -4.78338 0
M  V30 215 H 19.3503 -3.47956 -3.3772 0
M  V30 216 N 20.6934 1.19889 -1.02296 0
M  V30 217 C 21.6564 2.21116 -0.603351 0
M  V30 218 C 22.6564 1.5738 0.329884 0
M  V30 219 O 23.8464 1.73802 0.117702 0
M  V30 220 C 20.9784 3.40696 0.117992 0
M  V30 221 H 22.1714 2.59754 -1.49893 0
M  V30 222 H 19.7244 1.33463 -0.813468 0
M  V30 223 H 20.4594 3.07569 1.0282 0
M  V30 224 H 20.2444 3.88188 -0.552511 0
M  V30 225 H 21.7344 4.15692 0.398696 0
M  V30 226 N 22.1715 0.800033 1.35784 0
M  V30 227 C 23.1015 0.220184 2.3246 0
M  V30 228 C 24.0825 -0.65073 1.57161 0
M  V30 229 O 25.2675 -0.582359 1.85263 0
M  V30 230 C 22.3975 -0.637353 3.41402 0
M  V30 231 C 21.3515 0.134531 4.27789 0
M  V30 232 C 20.6775 -0.844285 5.27992 0
M  V30 233 C 21.9775 1.32979 5.05088 0
M  V30 234 H 23.6715 1.02787 2.81203 0
M  V30 235 H 21.2175 0.495717 1.35199 0
M  V30 236 H 23.1705 -1.05302 4.08031 0
M  V30 237 H 21.8945 -1.47785 2.91251 0
M  V30 238 H 20.5535 0.531296 3.6273 0
M  V30 239 H 20.2015 -1.68011 4.74111 0
M  V30 240 H 19.9015 -0.332184 5.8666 0
M  V30 241 H 21.4255 -1.2583 5.97494 0
M  V30 242 H 22.8395 0.98934 5.64699 0
M  V30 243 H 21.2365 1.77593 5.7322 0
M  V30 244 H 22.3065 2.11978 4.36111 0
M  V30 245 N 23.6496 -1.47581 0.552962 0
M  V30 246 C 24.6126 -2.28439 -0.186605 0
M  V30 247 C 25.6126 -1.36706 -0.84665 0
M  V30 248 O 26.8026 -1.59378 -0.703164 0
M  V30 249 C 23.9346 -3.16264 -1.2724 0
M  V30 250 H 25.1276 -2.95294 0.523609 0
M  V30 251 H 22.6806 -1.532 0.309745 0
M  V30 252 H 23.4156 -2.54091 -2.01514 0
M  V30 253 H 23.2006 -3.83769 -0.803968 0
M  V30 254 H 24.6906 -3.77198 -1.79196 0
M  V30 255 N 25.1277 -0.289203 -1.54924 0
M  V30 256 C 26.3737 0.323998 -2.00195 0
M  V30 257 C 26.7067 1.54441 -1.17735 0
M  V30 258 O 25.9817 1.92875 -0.250878 0
M  V30 259 C 26.2647 0.692276 -3.53383 0
M  V30 260 C 26.1177 -0.536457 -4.46589 0
M  V30 261 C 27.4367 1.52335 -4.12895 0
M  V30 262 H 24.5557 0.116289 -0.727768 0
M  V30 263 H 27.1977 -0.398954 -1.85764 0
M  V30 264 H 25.3477 1.30822 -3.65811 0
M  V30 265 H 27.0197 -1.17499 -4.46085 0
M  V30 266 H 25.2627 -1.17192 -4.1767 0
M  V30 267 H 25.9337 -0.234806 -5.515 0
M  V30 268 H 28.4097 1.00302 -4.0383 0
M  V30 269 H 27.2857 1.74982 -5.20262 0
M  V30 270 H 27.5467 2.50886 -3.64018 0
M  V30 271 N 26.6058 1.57591 -0.0167156 0
M  V30 272 C 27.5688 2.08393 0.954204 0
M  V30 273 C 28.5688 0.996531 1.26198 0
M  V30 274 O 29.7588 1.25858 1.20438 0
M  V30 275 C 26.8908 2.5394 2.27436 0
M  V30 276 H 28.0838 2.95455 0.514451 0
M  V30 277 H 25.6368 1.54582 0.231089 0
M  V30 278 H 26.3718 1.70171 2.76066 0
M  V30 279 H 26.1568 3.33371 2.06412 0
M  V30 280 H 27.6468 2.93512 2.97053 0
M  V30 281 N 28.0839 -0.256276 1.55502 0
M  V30 282 C 29.0139 -1.32102 1.92539 0
M  V30 283 C 29.9949 -1.50684 0.789194 0
M  V30 284 O 31.1799 -1.63449 1.04872 0
M  V30 285 C 28.3099 -2.67752 2.21192 0
M  V30 286 C 27.2639 -2.63878 3.36975 0
M  V30 287 C 26.5899 -4.03236 3.51147 0
M  V30 288 C 27.8899 -2.21682 4.72921 0
M  V30 289 H 29.5839 -1.01351 2.81724 0
M  V30 290 H 27.1299 -0.486105 1.35547 0
M  V30 291 H 29.0829 -3.42365 2.45691 0
M  V30 292 H 27.8069 -3.0012 1.28824 0
M  V30 293 H 26.4659 -1.91722 3.12471 0
M  V30 294 H 26.1139 -4.32854 2.56216 0
M  V30 295 H 25.8139 -4.01535 4.29003 0
M  V30 296 H 27.3379 -4.79563 3.77957 0
M  V30 297 H 28.7519 -2.86023 4.96854 0
M  V30 298 H 27.1489 -2.3111 5.53812 0
M  V30 299 H 28.2189 -1.16833 4.70615 0
M  V30 300 N 29.562 -1.4872 -0.521534 0
M  V30 301 C 30.787 -1.61101 -1.30618 0
M  V30 302 C 31.212 -0.274611 -1.86085 0
M  V30 303 O 30.57 0.754937 -1.64834 0
M  V30 304 C 30.618 -2.66709 -2.4269 0
M  V30 305 O 29.722 -2.24456 -3.45967 0
M  V30 306 H 29.063 -0.539921 -0.386499 0
M  V30 307 H 31.593 -1.94767 -0.626645 0
M  V30 308 H 31.603 -2.88245 -2.88754 0
M  V30 309 H 30.278 -3.63727 -2.01682 0
M  V30 310 H 28.855 -2.13168 -3.05964 0
M  V30 311 N 31.0401 0.771051 -1.3745 0
M  V30 312 C 32.2871 1.52963 -1.32697 0
M  V30 313 C 32.6151 1.94299 0.0883274 0
M  V30 314 O 31.8701 1.64397 1.0617 0
M  V30 315 C 32.1691 2.80676 -2.2126 0
M  V30 316 C 31.8351 2.58389 -3.69521 0
M  V30 317 C 30.4971 2.52019 -4.09927 0
M  V30 318 C 32.8491 2.38469 -4.63446 0
M  V30 319 C 30.1771 2.23721 -5.42371 0
M  V30 320 C 32.5291 2.11694 -5.96128 0
M  V30 321 C 31.1931 2.03769 -6.35637 0
M  V30 322 H 30.4631 0.559732 -0.485573 0
M  V30 323 H 33.1101 0.888083 -1.69662 0
M  V30 324 H 31.4151 3.49392 -1.77291 0
M  V30 325 H 33.1121 3.38557 -2.14895 0
M  V30 326 H 29.7021 2.6421 -3.37478 0
M  V30 327 H 33.8861 2.4238 -4.33089 0
M  V30 328 H 29.1421 2.16081 -5.71943 0
M  V30 329 H 33.3161 1.9528 -6.6846 0
M  V30 330 H 30.9431 1.81606 -7.38189 0
M  V30 331 N 32.5182 1.22032 0.997298 0
M  V30 332 C 33.4812 0.987909 2.06816 0
M  V30 333 C 34.4812 -0.0440084 1.6074 0
M  V30 334 O 35.6712 0.194053 1.73116 0
M  V30 335 C 32.8032 0.49132 3.37341 0
M  V30 336 H 33.9962 1.93803 2.28868 0
M  V30 337 H 31.5492 1.03838 1.16822 0
M  V30 338 H 32.2842 -0.463364 3.20973 0
M  V30 339 H 32.0692 1.23575 3.72118 0
M  V30 340 H 33.5592 0.348824 4.16141 0
M  V30 341 N 33.9963 -1.19345 1.0293 0
M  V30 342 C 35.2423 -1.89585 0.736824 0
M  V30 343 C 35.5973 -1.78148 -0.726703 0
M  V30 344 O 34.8903 -1.16332 -1.52242 0
M  V30 345 C 35.0843 -3.39292 1.12319 0
M  V30 346 C 34.9133 -3.65298 2.62273 0
M  V30 347 C 33.6833 -3.83304 3.29251 0
M  V30 348 C 35.8813 -3.6682 3.60482 0
M  V30 349 N 33.8633 -3.96944 4.68304 0
M  V30 350 C 35.2343 -3.86037 4.85155 0
M  V30 351 C 37.2893 -3.49848 3.54275 0
M  V30 352 C 35.9923 -3.9004 6.04369 0
M  V30 353 C 38.0183 -3.55129 4.72903 0
M  V30 354 C 37.3803 -3.74831 5.9639 0
M  V30 355 H 33.4793 -0.712856 0.321497 0
M  V30 356 H 36.0633 -1.43427 1.31669 0
M  V30 357 H 34.2343 -3.84172 0.571524 0
M  V30 358 H 35.9663 -3.97055 0.78292 0
M  V30 359 H 32.7213 -3.82211 2.79663 0
M  V30 360 H 33.1453 -4.07613 5.40538 0
M  V30 361 H 37.7873 -3.33572 2.59788 0
M  V30 362 H 35.5053 -4.05108 6.99223 0
M  V30 363 H 39.0913 -3.43287 4.69729 0
M  V30 364 H 37.9713 -3.78792 6.86649 0
M  V30 365 N 35.4744 -0.807222 -1.35358 0
M  V30 366 C 36.4064 -0.175717 -2.28525 0
M  V30 367 C 37.4194 0.625354 -1.5031 0
M  V30 368 O 38.6084 0.457611 -1.72535 0
M  V30 369 C 35.7084 0.773471 -3.29956 0
M  V30 370 C 34.8814 0.0186296 -4.37396 0
M  V30 371 C 33.9404 0.886395 -5.18681 0
M  V30 372 O 32.9664 0.337106 -5.68201 0
M  V30 373 N 34.1684 2.20839 -5.36852 0
M  V30 374 H 36.9334 -0.976091 -2.83359 0
M  V30 375 H 34.4944 -0.662737 -1.47714 0
M  V30 376 H 36.4864 1.35824 -3.81227 0
M  V30 377 H 35.0564 1.47465 -2.75632 0
M  V30 378 H 34.2764 -0.747349 -3.87051 0
M  V30 379 H 35.5644 -0.501577 -5.06322 0
M  V30 380 H 34.9624 2.67858 -4.98265 0
M  V30 381 H 33.5194 2.74237 -5.91301 0
M  V30 382 N 36.9525 1.47285 -0.560781 0
M  V30 383 C 37.9155 2.28535 0.174488 0
M  V30 384 C 38.9155 1.37153 0.839388 0
M  V30 385 O 40.1055 1.59748 0.694702 0
M  V30 386 C 37.2375 3.16934 1.25561 0
M  V30 387 H 38.4305 2.95012 -0.539262 0
M  V30 388 H 35.9835 1.53034 -0.317865 0
M  V30 389 H 36.7185 2.55157 2.00164 0
M  V30 390 H 36.5035 3.8419 0.783604 0
M  V30 391 H 37.9935 3.78143 1.77193 0
M  V30 392 N 38.4306 0.297415 1.54768 0
M  V30 393 C 39.8416 -0.195947 1.85669 0
M  V30 394 C 40.1926 -1.53707 1.21937 0
M  V30 395 O 39.3176 -2.10164 0.515754 0
M  V30 396 C 39.9126 -0.362318 3.36857 0
M  V30 397 C 38.4716 -0.799901 3.67802 0
M  V30 398 C 37.6186 0.0938578 2.77141 0
M  V30 399 H 40.5696 0.518538 1.4999 0
M  V30 400 H 40.5906 -1.19745 3.61167 0
M  V30 401 H 40.1026 0.613921 3.83214 0
M  V30 402 H 38.2036 -1.78682 3.26961 0
M  V30 403 H 38.3166 -0.621773 4.75048 0
M  V30 404 H 36.6806 -0.426254 2.51108 0
M  V30 405 H 37.4636 1.06639 3.26318 0
M  V30 406 N 39.9087 -1.5758 0.0250728 0
M  V30 407 C 41.1547 -1.91917 -0.655413 0
M  V30 408 C 41.4877 -0.901433 -1.72011 0
M  V30 409 O 40.7627 0.0764069 -1.9435 0
M  V30 410 C 41.0457 -3.36751 -1.27558 0
M  V30 411 C 40.8987 -4.49258 -0.220719 0
M  V30 412 C 42.2177 -3.81469 -2.19475 0
M  V30 413 H 39.3367 -0.697925 -0.23679 0
M  V30 414 H 41.9787 -1.89825 0.0815036 0
M  V30 415 H 40.1287 -3.38664 -1.90365 0
M  V30 416 H 41.8007 -4.59478 0.409601 0
M  V30 417 H 40.0437 -4.31415 0.454264 0
M  V30 418 H 40.7147 -5.47618 -0.694175 0
M  V30 419 H 43.1907 -3.81266 -1.66659 0
M  V30 420 H 42.0667 -4.83512 -2.59822 0
M  V30 421 H 42.3277 -3.16744 -3.08424 0
M  V30 422 N 41.3868 0.248026 -1.55636 0
M  V30 423 C 42.6338 0.976224 -1.77415 0
M  V30 424 C 42.9618 1.85361 -0.589193 0
M  V30 425 O 42.2168 1.90973 0.427529 0
M  V30 426 C 42.5158 1.86819 -3.04686 0
M  V30 427 C 42.1818 1.14625 -4.36087 0
M  V30 428 C 40.8438 0.946723 -4.71795 0
M  V30 429 C 43.1958 0.634463 -5.17324 0
M  V30 430 C 40.5238 0.223091 -5.86276 0
M  V30 431 C 42.8758 -0.0756959 -6.32555 0
M  V30 432 C 41.5398 -0.286711 -6.66884 0
M  V30 433 H 40.8098 0.357226 -0.649208 0
M  V30 434 H 43.4568 0.246415 -1.89908 0
M  V30 435 H 41.7618 2.66502 -2.872 0
M  V30 436 H 43.4588 2.43329 -3.18735 0
M  V30 437 H 40.0488 1.3117 -4.08035 0
M  V30 438 H 44.2328 0.77616 -4.90193 0
M  V30 439 H 39.4888 0.0491185 -6.1138 0
M  V30 440 H 43.6628 -0.479899 -6.94745 0
M  V30 441 H 41.2898 -0.849389 -7.5544 0
M  V30 442 N 42.8649 1.48995 0.513639 0
M  V30 443 C 43.8279 1.64229 1.59879 0
M  V30 444 C 44.8279 0.514696 1.5234 0
M  V30 445 O 46.0179 0.78087 1.55718 0
M  V30 446 C 43.1499 1.62783 2.99524 0
M  V30 447 H 44.3429 2.61004 1.47705 0
M  V30 448 H 41.8959 1.37837 0.736936 0
M  V30 449 H 42.6309 0.675461 3.17188 0
M  V30 450 H 42.4159 2.4466 3.06404 0
M  V30 451 H 43.9059 1.76669 3.78388 0
M  V30 452 N 44.343 -0.763751 1.37857 0
M  V30 453 C 45.293 -1.86765 1.30777 0
M  V30 454 C 46.277 -1.59726 0.194015 0
M  V30 455 O 47.469 -1.7172 0.42911 0
M  V30 456 C 44.598 -3.24343 1.12502 0
M  V30 457 C 43.684 -3.57307 2.28456 0
M  V30 458 N 44.075 -3.61398 3.53871 0
M  V30 459 C 42.373 -3.87517 2.20786 0
M  V30 460 C 43.074 -3.91339 4.30382 0
M  V30 461 N 42.05 -4.07649 3.59615 0
M  V30 462 H 45.852 -1.88191 2.25746 0
M  V30 463 H 43.366 -0.9606 1.30944 0
M  V30 464 H 45.363 -4.03327 1.05514 0
M  V30 465 H 44.023 -3.24175 0.184574 0
M  V30 466 H 45.034 -3.43407 3.87675 0
M  V30 467 H 41.711 -3.95125 1.34844 0
M  V30 468 H 43.101 -4.01213 5.3896 0
M  V30 469 N 45.8211 -1.22559 -0.990812 0
M  V30 470 C 47.0691 -1.04933 -1.72724 0
M  V30 471 C 47.3901 0.416158 -1.90508 0
M  V30 472 O 46.6601 1.29918 -1.46622 0
M  V30 473 H 45.2401 -0.385296 -0.639965 0
M  V30 474 H 47.9021 -1.54105 -1.19322 0
M  V30 475 H 46.9981 -1.52886 -2.72089 0
M  V30 476 N 47.2992 1.18797 -1.03562 0
M  V30 477 C 48.5472 1.88278 -0.734569 0
M  V30 478 C 48.8682 1.8043 0.739586 0
M  V30 479 O 48.1382 1.21925 1.53333 0
M  V30 480 H 46.7182 0.696991 -0.268725 0
M  V30 481 H 49.3802 1.44192 -1.31129 0
M  V30 482 H 48.4762 2.94443 -1.03489 0
M  V30 483 N 48.7773 0.814389 1.34928 0
M  V30 484 C 49.6873 0.231978 2.3345 0
M  V30 485 C 50.7033 -0.629139 1.62228 0
M  V30 486 O 51.8793 -0.539052 1.94052 0
M  V30 487 C 48.9443 -0.603482 3.41407 0
M  V30 488 C 48.0053 0.279037 4.28392 0
M  V30 489 C 47.2383 -0.516643 5.31193 0
M  V30 490 O 47.4613 -1.75068 5.4287 0
M  V30 491 O 46.3953 0.0965652 6.01823 0
M  V30 492 H 50.2213 1.04721 2.85074 0
M  V30 493 H 47.8063 0.576343 1.37836 0
M  V30 494 H 49.6883 -1.07908 4.0735 0
M  V30 495 H 48.3633 -1.39618 2.92042 0
M  V30 496 H 47.2703 0.801948 3.65403 0
M  V30 497 H 48.6033 1.03588 4.81176 0
M  V30 498 N 50.2554 -1.46986 0.568584 0
M  V30 499 C 51.2184 -2.28624 -0.162366 0
M  V30 500 C 52.2184 -1.37596 -0.832103 0
M  V30 501 O 53.4084 -1.60115 -0.68622 0
M  V30 502 C 50.5404 -3.17596 -1.23878 0
M  V30 503 H 51.7334 -2.94722 0.554899 0
M  V30 504 H 49.2864 -1.52863 0.325976 0
M  V30 505 H 50.0214 -2.56214 -1.98808 0
M  V30 506 H 49.8064 -3.846 -0.763219 0
M  V30 507 H 51.2964 -3.79078 -1.75185 0
M  V30 508 N 51.7335 -0.305618 -1.54608 0
M  V30 509 C 52.6835 0.583595 -2.20405 0
M  V30 510 C 53.6675 1.09539 -1.17856 0
M  V30 511 O 54.8595 1.0354 -1.43557 0
M  V30 512 C 51.9885 1.75277 -2.95183 0
M  V30 513 C 51.0745 1.25672 -4.05052 0
M  V30 514 N 51.4655 0.478998 -5.03527 0
M  V30 515 C 49.7635 1.53704 -4.18678 0
M  V30 516 C 50.4645 0.214269 -5.81305 0
M  V30 517 N 49.4405 0.795374 -5.3775 0
M  V30 518 H 53.2425 -0.0180946 -2.93894 0
M  V30 519 H 50.7565 -0.110601 -1.62023 0
M  V30 520 H 52.7535 2.4014 -3.40791 0
M  V30 521 H 51.4135 2.35812 -2.23211 0
M  V30 522 H 52.4245 0.123473 -5.17753 0
M  V30 523 H 49.1015 2.14954 -3.57912 0
M  V30 524 H 50.4915 -0.410656 -6.70644 0
M  V30 525 N 53.2116 1.57565 -0.0334293 0
M  V30 526 C 54.1446 2.05997 0.981866 0
M  V30 527 C 55.1226 0.956647 1.3148 0
M  V30 528 O 56.3066 1.22729 1.43073 0
M  V30 529 C 53.4336 2.48564 2.30074 0
M  V30 530 C 52.4796 3.69958 2.12211 0
M  V30 531 S 53.3126 5.16414 1.41692 0
M  V30 532 C 54.4686 5.6228 2.7494 0
M  V30 533 H 54.7016 2.91792 0.569612 0
M  V30 534 H 52.2346 1.53366 0.178376 0
M  V30 535 H 54.1926 2.73753 3.05892 0
M  V30 536 H 52.8536 1.63106 2.68431 0
M  V30 537 H 52.0466 3.97603 3.09722 0
M  V30 538 H 51.6486 3.44943 1.44535 0
M  V30 539 H 53.9406 5.66783 3.71165 0
M  V30 540 H 54.8836 6.61759 2.51953 0
M  V30 541 H 55.2916 4.89944 2.80384 0
M  V30 542 N 54.6897 -0.239769 1.55765 0
M  V30 543 C 55.9357 -0.968234 1.78194 0
M  V30 544 C 56.2687 -1.84701 0.599938 0
M  V30 545 O 55.5437 -1.9031 -0.401524 0
M  V30 546 C 55.8267 -1.8227 3.10564 0
M  V30 547 C 55.6797 -0.971633 4.3918 0
M  V30 548 C 56.9987 -2.80388 3.39221 0
M  V30 549 H 54.1177 -0.350572 0.648281 0
M  V30 550 H 56.7597 -0.238259 1.885 0
M  V30 551 H 54.9097 -2.44507 3.01908 0
M  V30 552 H 56.5817 -0.367408 4.59835 0
M  V30 553 H 54.8247 -0.276276 4.32919 0
M  V30 554 H 55.4957 -1.60346 5.28198 0
M  V30 555 H 57.9717 -2.28287 3.47885 0
M  V30 556 H 56.8477 -3.3729 4.33044 0
M  V30 557 H 57.1087 -3.57212 2.60484 0
M  V30 558 N 56.1678 -1.49265 -0.50573 0
M  V30 559 C 57.5788 -1.51769 -1.08734 0
M  V30 560 C 57.9298 -0.301192 -1.93874 0
M  V30 561 O 57.0548 0.589456 -2.08217 0
M  V30 562 C 57.6498 -2.75017 -1.97867 0
M  V30 563 C 56.2088 -2.80314 -2.51199 0
M  V30 564 C 55.3558 -2.4562 -1.28709 0
M  V30 565 H 58.3068 -1.56031 -0.289855 0
M  V30 566 H 58.3278 -2.5491 -2.82491 0
M  V30 567 H 57.8398 -3.63539 -1.35873 0
M  V30 568 H 55.9408 -1.96061 -3.16845 0
M  V30 569 H 56.0538 -3.82366 -2.88675 0
M  V30 570 H 54.4178 -1.97297 -1.61078 0
M  V30 571 H 55.2008 -3.36411 -0.6843 0
M  V30 572 N 57.6459 0.756429 -1.3826 0
M  V30 573 C 58.5789 1.87802 -1.29637 0
M  V30 574 C 59.5569 1.61667 -0.173939 0
M  V30 575 O 60.7409 1.85208 -0.350775 0
M  V30 576 C 57.8679 3.23354 -1.00797 0
M  V30 577 C 56.9139 3.68379 -2.14939 0
M  V30 578 S 57.7469 3.8025 -3.77054 0
M  V30 579 C 58.9029 5.18626 -3.50396 0
M  V30 580 H 59.1359 1.94829 -2.24564 0
M  V30 581 H 56.6689 0.919117 -1.24063 0
M  V30 582 H 58.6269 4.01637 -0.848413 0
M  V30 583 H 57.2879 3.14008 -0.0759369 0
M  V30 584 H 56.4809 4.66693 -1.90299 0
M  V30 585 H 56.0829 2.97242 -2.26988 0
M  V30 586 H 58.3749 6.04289 -3.06334 0
M  V30 587 H 59.3179 5.48286 -4.48094 0
M  V30 588 H 59.7259 4.87289 -2.84973 0
M  V30 589 N 59.124 1.23083 0.984299 0
M  V30 590 C 60.401 0.9689 1.69917 0
M  V30 591 C 60.781 -0.513604 2.04757 0
M  V30 592 O 60.129 -1.48383 1.73767 0
M  V30 593 C 60.339 1.87518 2.94343 0
M  V30 594 C 61.687 2.13636 3.6694 0
M  V30 595 O 62.711 1.85036 3.04368 0
M  V30 596 O 61.57 2.62119 4.79537 0
M  V30 597 H 58.664 0.365095 0.742048 0
M  V30 598 H 61.21 1.34107 1.03987 0
M  V30 599 H 59.982 2.87756 2.65164 0
M  V30 600 H 59.605 1.50514 3.6801 0
M  V30 601 N 60.6021 -1.18246 1.0419 0
M  V30 602 C 61.5491 -2.2192 0.634037 0
M  V30 603 C 62.5191 -1.62179 -0.358765 0
M  V30 604 O 63.7041 -1.89122 -0.252466 0
M  V30 605 C 60.8441 -3.451 0.00445535 0
M  V30 606 C 59.9571 -4.19174 1.04487 0
M  V30 607 C 59.0921 -5.29813 0.383676 0
M  V30 608 C 58.1311 -5.9566 1.4091 0
M  V30 609 N 57.2681 -6.97834 0.772784 0
M  V30 610 H 62.1081 -2.56164 1.52263 0
M  V30 611 H 59.6451 -1.25843 0.761701 0
M  V30 612 H 61.6031 -4.15485 -0.377919 0
M  V30 613 H 60.2331 -3.11472 -0.847652 0
M  V30 614 H 59.2851 -3.47604 1.54518 0
M  V30 615 H 60.5971 -4.64267 1.82368 0
M  V30 616 H 59.7511 -6.06677 -0.0528366 0
M  V30 617 H 58.4901 -4.85825 -0.427208 0
M  V30 618 H 57.4951 -5.17535 1.85574 0
M  V30 619 H 58.7201 -6.4173 2.22171 0
M  V30 620 H 56.6661 -6.55998 -0.0177708 0
M  V30 621 H 56.5831 -7.41186 1.48928 0
M  V30 622 H 57.8511 -7.78665 0.36071 0
M  V30 623 N 62.0802 -0.821533 -1.34494 0
M  V30 624 C 63.3082 -0.421884 -2.02553 0
M  V30 625 C 63.7232 0.971745 -1.61872 0
M  V30 626 O 63.0802 1.62864 -0.823496 0
M  V30 627 C 63.1312 -0.51285 -3.57844 0
M  V30 628 O 62.8522 -1.85155 -3.97051 0
M  V30 629 C 64.3532 -0.107921 -4.43169 0
M  V30 630 H 61.5732 -0.169482 -0.649243 0
M  V30 631 H 64.1172 -1.1093 -1.71798 0
M  V30 632 H 62.2722 0.126474 -3.87193 0
M  V30 633 H 62.6862 -1.82482 -4.91732 0
M  V30 634 H 64.1602 -0.222657 -5.51551 0
M  V30 635 H 64.6372 0.948401 -4.28838 0
M  V30 636 H 65.2432 -0.720989 -4.19144 0
M  V30 637 N 63.5583 1.46682 -0.576371 0
M  V30 638 C 64.4883 2.33028 0.148397 0
M  V30 639 C 65.4693 1.44961 0.889956 0
M  V30 640 O 66.6543 1.73789 0.866662 0
M  V30 641 C 63.7843 3.27117 1.1667 0
M  V30 642 C 62.7383 4.24575 0.540386 0
M  V30 643 C 62.0643 5.08126 1.6647 0
M  V30 644 C 63.3643 5.19722 -0.518331 0
M  V30 645 H 65.0583 2.93875 -0.572509 0
M  V30 646 H 62.6043 1.41315 -0.276768 0
M  V30 647 H 64.5573 3.86374 1.68204 0
M  V30 648 H 63.2813 2.64364 1.9178 0
M  V30 649 H 61.9403 3.66571 0.0461769 0
M  V30 650 H 61.5883 4.41762 2.40531 0
M  V30 651 H 61.2883 5.74122 1.25131 0
M  V30 652 H 62.8123 5.70246 2.18293 0
M  V30 653 H 64.2263 5.73232 -0.0883058 0
M  V30 654 H 62.6233 5.94026 -0.851679 0
M  V30 655 H 63.6933 4.64037 -1.40703 0
M  V30 656 N 65.0364 0.313813 1.54444 0
M  V30 657 C 65.9834 -0.55655 2.23989 0
M  V30 658 C 66.9534 -1.11943 1.22711 0
M  V30 659 O 68.1384 -1.16158 1.51367 0
M  V30 660 C 65.2784 -1.71635 2.99392 0
M  V30 661 C 64.3914 -1.18364 4.15468 0
M  V30 662 C 63.5264 -2.30834 4.78424 0
M  V30 663 C 62.5654 -1.74762 5.86622 0
M  V30 664 N 61.7024 -2.80855 6.43479 0
M  V30 665 H 66.5424 0.0430893 2.97969 0
M  V30 666 H 64.0794 0.0330359 1.47063 0
M  V30 667 H 66.0374 -2.39868 3.41349 0
M  V30 668 H 64.6674 -2.28742 2.27765 0
M  V30 669 H 63.7194 -0.393163 3.78363 0
M  V30 670 H 65.0314 -0.733262 4.93381 0
M  V30 671 H 64.1854 -3.0699 5.23299 0
M  V30 672 H 62.9244 -2.79204 3.99871 0
M  V30 673 H 61.9294 -0.970995 5.41158 0
M  V30 674 H 63.1544 -1.2728 6.67066 0
M  V30 675 H 61.1004 -3.28535 5.67804 0
M  V30 676 H 61.0174 -2.40351 7.16776 0
M  V30 677 H 62.2854 -3.5687 6.93011 0
M  V30 678 N 66.5145 -1.57545 0.0417849 0
M  V30 679 C 67.4245 -2.14451 -0.951213 0
M  V30 680 C 68.4405 -1.09992 -1.34825 0
M  V30 681 O 69.6165 -1.42114 -1.42708 0
M  V30 682 C 66.6815 -2.67063 -2.21084 0
M  V30 683 C 65.7425 -3.86284 -1.87304 0
M  V30 684 C 64.9755 -4.36378 -3.07261 0
M  V30 685 O 65.1985 -3.85587 -4.20332 0
M  V30 686 O 64.1325 -5.28077 -2.88822 0
M  V30 687 H 67.9585 -2.99601 -0.497287 0
M  V30 688 H 65.5435 -1.48317 -0.179567 0
M  V30 689 H 67.4255 -3.00914 -2.95006 0
M  V30 690 H 66.1005 -1.84989 -2.65633 0
M  V30 691 H 65.0075 -3.57338 -1.10727 0
M  V30 692 H 66.3405 -4.6956 -1.47562 0
M  V30 693 N 67.9926 0.231505 -1.5589 0
M  V30 694 C 69.2396 0.957352 -1.78441 0
M  V30 695 C 69.5676 1.84726 -0.60882 0
M  V30 696 O 68.8226 1.91416 0.40725 0
M  V30 697 C 69.1216 1.83577 -3.0665 0
M  V30 698 C 68.7876 1.09993 -4.37278 0
M  V30 699 C 67.4496 0.896629 -4.72773 0
M  V30 700 C 69.8016 0.579558 -5.17968 0
M  V30 701 C 67.1296 0.160896 -5.86479 0
M  V30 702 C 69.4816 -0.142783 -6.32439 0
M  V30 703 C 68.1456 -0.357427 -6.66542 0
M  V30 704 H 67.4156 0.35032 -0.65296 0
M  V30 705 H 70.0626 0.226259 -1.90159 0
M  V30 706 H 68.3676 2.63441 -2.90011 0
M  V30 707 H 70.0646 2.39934 -3.21298 0
M  V30 708 H 66.6546 1.26835 -4.09403 0
M  V30 709 H 70.8386 0.724125 -4.90989 0
M  V30 710 H 66.0946 -0.0157293 -6.11398 0
M  V30 711 H 70.2686 -0.553559 -6.94196 0
M  V30 712 H 67.8956 -0.929466 -7.54497 0
M  V30 713 N 69.4707 1.49531 0.497807 0
M  V30 714 C 70.7187 1.58865 1.24926 0
M  V30 715 C 71.0397 0.278721 1.92998 0
M  V30 716 O 70.3097 -0.702144 1.82885 0
M  V30 717 H 68.8897 0.585343 0.464094 0
M  V30 718 H 71.5517 1.86174 0.57666 0
M  V30 719 H 70.6477 2.38633 2.01149 0
M  V30 720 N 70.9488 -0.749086 1.3866 0
M  V30 721 C 71.9118 -1.84457 1.36045 0
M  V30 722 C 72.9118 -1.58682 0.260122 0
M  V30 723 O 74.1018 -1.66343 0.517261 0
M  V30 724 C 71.2338 -3.22008 1.11911 0
M  V30 725 H 72.4268 -1.88182 2.33512 0
M  V30 726 H 69.9798 -0.951266 1.24019 0
M  V30 727 H 70.7148 -3.2395 0.150686 0
M  V30 728 H 70.4998 -3.42111 1.91579 0
M  V30 729 H 71.9898 -4.0208 1.12788 0
M  V30 730 N 72.4269 -1.23603 -0.977757 0
M  V30 731 C 73.7039 -0.977897 -1.69401 0
M  V30 732 C 74.0839 0.502738 -2.05026 0
M  V30 733 O 73.4319 1.47459 -1.74551 0
M  V30 734 C 73.6419 -1.89077 -2.93345 0
M  V30 735 C 74.9899 -2.15579 -3.65802 0
M  V30 736 O 76.0139 -1.86648 -3.03383 0
M  V30 737 O 74.8729 -2.64658 -4.78141 0
M  V30 738 H 71.9669 -0.369025 -0.740101 0
M  V30 739 H 74.5129 -1.34657 -1.03274 0
M  V30 740 H 73.2849 -2.89158 -2.63634 0
M  V30 741 H 72.9079 -1.52463 -3.67207 0
M  V30 742 N 73.905 1.17692 -1.04816 0
M  V30 743 C 75.151 1.88137 -0.75711 0
M  V30 744 C 75.484 1.80604 0.713841 0
M  V30 745 O 74.759 1.21146 1.52164 0
M  V30 746 C 75.042 3.38318 -1.2334 0
M  V30 747 C 74.895 3.54622 -2.76701 0
M  V30 748 C 76.214 4.32214 -0.829415 0
M  V30 749 H 73.333 0.683163 -0.27651 0
M  V30 750 H 75.975 1.38424 -1.30149 0
M  V30 751 H 74.125 3.80787 -0.770286 0
M  V30 752 H 75.797 3.21194 -3.31107 0
M  V30 753 H 74.04 2.97026 -3.16161 0
M  V30 754 H 74.711 4.60028 -3.05088 0
M  V30 755 H 77.187 3.97565 -1.22805 0
M  V30 756 H 76.063 5.35838 -1.19033 0
M  V30 757 H 76.324 4.41294 0.266891 0
M  V30 758 N 75.3831 0.828654 1.34056 0
M  V30 759 C 76.3151 0.212052 2.28217 0
M  V30 760 C 77.3281 -0.601362 1.51286 0
M  V30 761 O 78.5171 -0.430104 1.73241 0
M  V30 762 C 75.6171 -0.72088 3.31144 0
M  V30 763 C 74.7901 0.0509587 4.3737 0
M  V30 764 C 73.8491 -0.803766 5.20025 0
M  V30 765 O 72.8751 -0.246667 5.68665 0
M  V30 766 N 74.0771 -2.1227 5.40298 0
M  V30 767 H 76.8421 1.02105 2.81771 0
M  V30 768 H 74.4031 0.686153 1.46641 0
M  V30 769 H 76.3951 -1.29742 3.8334 0
M  V30 770 H 74.9651 -1.43061 2.77943 0
M  V30 771 H 74.1851 0.808831 3.85813 0
M  V30 772 H 75.4731 0.582065 5.0546 0
M  V30 773 H 74.8711 -2.59898 5.02464 0
M  V30 774 H 73.4281 -2.64796 5.95589 0
M  V30 775 N 76.8612 -1.46375 0.584142 0
M  V30 776 C 78.1072 -2.03248 0.0787103 0
M  V30 777 C 78.4622 -1.44737 -1.26763 0
M  V30 778 O 77.7552 -0.603625 -1.81843 0
M  V30 779 C 77.9492 -3.57373 -0.0439342 0
M  V30 780 C 77.7782 -4.30831 1.28897 0
M  V30 781 C 76.5482 -4.69683 1.8635 0
M  V30 782 C 78.7462 -4.64278 2.21248 0
M  V30 783 N 76.7282 -5.27898 3.13365 0
M  V30 784 C 78.0992 -5.23078 3.32851 0
M  V30 785 C 80.1542 -4.46209 2.20911 0
M  V30 786 C 78.8572 -5.65715 4.44251 0
M  V30 787 C 80.8832 -4.89864 3.31341 0
M  V30 788 C 80.2452 -5.48736 4.41665 0
M  V30 789 H 76.3442 -0.778714 0.0716144 0
M  V30 790 H 78.9282 -1.78509 0.777355 0
M  V30 791 H 77.0992 -3.81823 -0.711749 0
M  V30 792 H 78.8312 -4.00892 -0.553881 0
M  V30 793 H 75.5862 -4.52488 1.39826 0
M  V30 794 H 76.0102 -5.61525 3.78178 0
M  V30 795 H 80.6522 -4.00027 1.36888 0
M  V30 796 H 78.3702 -6.10875 5.29015 0
M  V30 797 H 81.9562 -4.77634 3.322 0
M  V30 798 H 80.8362 -5.81898 5.25704 0
M  V30 799 N 78.3393 -0.321999 -1.54275 0
M  V30 800 C 79.6163 0.335232 -1.92706 0
M  V30 801 C 79.9963 1.70006 -1.25145 0
M  V30 802 O 79.3443 2.25067 -0.394596 0
M  V30 803 C 79.5543 0.429008 -3.46353 0
M  V30 804 C 80.9023 0.690029 -4.18956 0
M  V30 805 O 81.9263 0.511992 -3.52501 0
M  V30 806 O 80.7853 1.03338 -5.36641 0
M  V30 807 H 77.8793 0.191143 -0.804608 0
M  V30 808 H 80.4253 -0.3716 -1.65581 0
M  V30 809 H 79.1973 -0.529611 -3.87699 0
M  V30 810 H 78.8203 1.18348 -3.79578 0
M  V30 811 N 79.8174 1.5752 -0.0501392 0
M  V30 812 C 81.0944 1.83996 0.663685 0
M  V30 813 C 81.4744 0.938339 1.89099 0
M  V30 814 O 80.8224 -0.00087759 2.285 0
M  V30 815 C 81.0324 3.33702 1.02196 0
M  V30 816 C 82.3804 4.00691 1.40469 0
M  V30 817 O 83.4044 3.38321 1.11433 0
M  V30 818 O 82.2634 5.10658 1.94654 0
M  V30 819 H 79.3574 0.759385 0.32751 0
M  V30 820 H 81.9034 1.69514 -0.0794238 0
M  V30 821 H 80.6754 3.91015 0.149364 0
M  V30 822 H 80.2984 3.53368 1.82255 0
M  V30 823 N 81.2955 -0.223234 1.56011 0
M  V30 824 C 82.5255 -0.963413 1.82762 0
M  V30 825 C 82.9335 -1.78516 0.626804 0
M  V30 826 O 82.2765 -1.78974 -0.414014 0
M  V30 827 C 82.3385 -1.93126 3.0322 0
M  V30 828 C 82.0025 -1.2942 4.38291 0
M  V30 829 C 82.9995 -0.684916 5.15369 0
M  V30 830 C 80.6845 -1.30647 4.85012 0
M  V30 831 C 82.6785 -0.0963971 6.37327 0
M  V30 832 C 80.3655 -0.71411 6.06913 0
M  V30 833 C 81.3635 -0.110123 6.82911 0
M  V30 834 O 81.0515 0.47303 8.02507 0
M  V30 835 H 80.7835 -0.288011 0.611576 0
M  V30 836 H 83.3375 -0.244103 2.03944 0
M  V30 837 H 81.5675 -2.68952 2.77852 0
M  V30 838 H 83.2565 -2.53685 3.16857 0
M  V30 839 H 84.0225 -0.667774 4.80381 0
M  V30 840 H 79.9015 -1.76598 4.25833 0
M  V30 841 H 83.4455 0.375657 6.96588 0
M  V30 842 H 79.3425 -0.728659 6.41374 0
M  V30 843 H 80.1105 0.367186 8.17676 0
M  V30 844 N 82.7736 -1.49793 -0.48987 0
M  V30 845 C 83.7366 -1.66752 -1.57246 0
M  V30 846 C 84.7366 -0.538867 -1.51502 0
M  V30 847 O 85.9266 -0.805545 -1.54456 0
M  V30 848 C 83.0586 -1.67528 -2.96896 0
M  V30 849 H 84.2516 -2.63321 -1.43534 0
M  V30 850 H 81.8046 -1.38992 -0.714914 0
M  V30 851 H 82.5396 -0.725837 -3.16073 0
M  V30 852 H 82.3246 -2.49504 -3.02473 0
M  V30 853 H 83.8146 -1.82667 -3.7553 0
M  V30 854 N 84.2517 0.741722 -1.39055 0
M  V30 855 C 85.1837 1.8657 -1.33133 0
M  V30 856 C 86.1967 1.61001 -0.241329 0
M  V30 857 O 87.3857 1.7136 -0.499784 0
M  V30 858 C 84.4857 3.22457 -1.04283 0
M  V30 859 C 83.6587 3.75435 -2.24427 0
M  V30 860 C 82.7177 4.89867 -1.92138 0
M  V30 861 O 81.7437 5.03879 -2.64754 0
M  V30 862 N 82.9457 5.73738 -0.88347 0
M  V30 863 H 85.7107 1.92156 -2.29991 0
M  V30 864 H 83.2717 0.922172 -1.3307 0
M  V30 865 H 85.2637 3.9657 -0.807128 0
M  V30 866 H 83.8337 3.12181 -0.161807 0
M  V30 867 H 83.0537 2.92751 -2.6399 0
M  V30 868 H 84.3417 4.07563 -3.04581 0
M  V30 869 H 83.7397 5.64999 -0.281517 0
M  V30 870 H 82.2967 6.47947 -0.707662 0
M  V30 871 N 85.7298 1.2412 0.971189 0
M  V30 872 C 86.6598 1.05508 2.08304 0
M  V30 873 C 87.6408 -0.0308864 1.70072 0
M  V30 874 O 88.8258 0.135521 1.93727 0
M  V30 875 C 85.9558 0.655365 3.4106 0
M  V30 876 C 84.9098 1.68971 3.93234 0
M  V30 877 C 84.2358 1.14516 5.22293 0
M  V30 878 C 85.5358 3.08487 4.21465 0
M  V30 879 H 87.2298 1.98507 2.24132 0
M  V30 880 H 84.7758 0.955821 1.07704 0
M  V30 881 H 86.7288 0.51217 4.18276 0
M  V30 882 H 85.4528 -0.31032 3.25122 0
M  V30 883 H 84.1118 1.82106 3.18171 0
M  V30 884 H 83.7598 0.170189 5.02712 0
M  V30 885 H 83.4598 1.83635 5.58168 0
M  V30 886 H 84.9838 1.01401 6.02121 0
M  V30 887 H 86.3978 2.98601 4.89398 0
M  V30 888 H 84.7948 3.74926 4.68562 0
M  V30 889 H 85.8648 3.56787 3.28376 0
M  V30 890 N 87.2079 -1.17134 1.05439 0
M  V30 891 C 88.4549 -1.87456 0.765942 0
M  V30 892 C 88.7829 -1.81189 -0.707153 0
M  V30 893 O 88.0379 -1.21633 -1.5331 0
M  V30 894 C 88.3369 -3.36833 1.19491 0
M  V30 895 C 88.0029 -3.63301 2.67063 0
M  V30 896 C 86.6649 -3.70234 3.07376 0
M  V30 897 C 89.0169 -3.74575 3.62413 0
M  V30 898 C 86.3449 -3.85933 4.41896 0
M  V30 899 C 88.6969 -3.91793 4.9667 0
M  V30 900 C 87.3609 -3.96966 5.36633 0
M  V30 901 H 86.6309 -0.685948 0.280278 0
M  V30 902 H 89.2779 -1.38556 1.32192 0
M  V30 903 H 87.5829 -3.87807 0.557969 0
M  V30 904 H 89.2799 -3.89611 0.948893 0
M  V30 905 H 85.8699 -3.58532 2.34846 0
M  V30 906 H 90.0539 -3.68537 3.32406 0
M  V30 907 H 85.3099 -3.88187 4.72357 0
M  V30 908 H 89.4839 -3.99458 5.70444 0
M  V30 909 H 87.1109 -4.08883 6.40874 0
M  V30 910 N 88.686 -0.835752 -1.33615 0
M  V30 911 C 89.914 -0.443344 -2.02094 0
M  V30 912 C 90.329 0.954522 -1.62894 0
M  V30 913 O 89.686 1.61982 -0.840723 0
M  V30 914 C 89.737 -0.550775 -3.5728 0
M  V30 915 O 89.458 -1.89356 -3.95065 0
M  V30 916 C 90.959 -0.154919 -4.43029 0
M  V30 917 H 88.179 -0.176359 -0.647409 0
M  V30 918 H 90.723 -1.12746 -1.70612 0
M  V30 919 H 88.878 0.0853997 -3.87306 0
M  V30 920 H 89.292 -1.87687 -4.89769 0
M  V30 921 H 90.766 -0.281144 -5.51284 0
M  V30 922 H 91.243 0.902863 -4.2982 0
M  V30 923 H 91.849 -0.765404 -4.18356 0
M  V30 924 N 90.1641 1.46063 -0.591896 0
M  V30 925 C 91.0941 2.33172 0.123673 0
M  V30 926 C 92.0751 1.45897 0.87453 0
M  V30 927 O 93.2601 1.74698 0.848181 0
M  V30 928 C 90.3901 3.28336 1.13194 0
M  V30 929 C 89.3441 4.25124 0.495324 0
M  V30 930 C 88.6701 5.09863 1.61071 0
M  V30 931 C 89.9701 5.19143 -0.573425 0
M  V30 932 H 91.6641 2.93252 -0.603646 0
M  V30 933 H 89.2101 1.41014 -0.291741 0
M  V30 934 H 91.1631 3.88137 1.64097 0
M  V30 935 H 89.8871 2.66383 1.88965 0
M  V30 936 H 88.5461 3.66599 0.00729452 0
M  V30 937 H 88.1941 4.44288 2.35832 0
M  V30 938 H 87.8941 5.75417 1.19035 0
M  V30 939 H 89.4181 5.72529 2.12233 0
M  V30 940 H 90.8321 5.73106 -0.1491 0
M  V30 941 H 89.2291 5.93089 -0.914636 0
M  V30 942 H 90.2991 4.62519 -1.45617 0
M  V30 943 N 91.6422 0.330177 1.54103 0
M  V30 944 C 92.8912 -0.271336 1.99867 0
M  V30 945 C 93.2042 -1.52723 1.22209 0
M  V30 946 O 94.4102 -2.20515 1.58383 0
M  V30 947 C 92.8662 -0.534032 3.55916 0
M  V30 948 C 92.4742 0.705193 4.42415 0
M  V30 949 C 94.2182 -1.09514 4.1013 0
M  V30 950 C 92.1252 0.414035 5.89949 0
M  V30 951 H 91.0552 -0.105166 0.74663 0
M  V30 952 H 93.7062 0.443429 1.78062 0
M  V30 953 H 92.0882 -1.30915 3.73734 0
M  V30 954 H 93.2622 1.4804 4.36372 0
M  V30 955 H 91.5772 1.18698 3.99124 0
M  V30 956 H 94.1742 -1.3277 5.17954 0
M  V30 957 H 94.5172 -2.04656 3.62521 0
M  V30 958 H 95.0502 -0.381038 3.95971 0
M  V30 959 H 91.7892 1.33481 6.41766 0
M  V30 960 H 91.3092 -0.323336 5.98928 0
M  V30 961 H 92.9882 0.0263105 6.46995 0
M  V30 962 N 93.1203 -1.57491 0.0584922 0
M  V30 963 C 94.0673 -2.11958 -0.913376 0
M  V30 964 C 95.0373 -1.02875 -1.30407 0
M  V30 965 O 96.2223 -1.30464 -1.39226 0
M  V30 966 C 93.3623 -2.67497 -2.18035 0
M  V30 967 C 92.4753 -3.90691 -1.84349 0
M  V30 968 C 91.6103 -4.3452 -3.05559 0
M  V30 969 C 90.6493 -5.50395 -2.67827 0
M  V30 970 N 89.7863 -5.89244 -3.81754 0
M  V30 971 H 94.6263 -2.94704 -0.442017 0
M  V30 972 H 92.1633 -1.45643 -0.206545 0
M  V30 973 H 94.1213 -2.978 -2.92183 0
M  V30 974 H 92.7513 -1.87537 -2.62735 0
M  V30 975 H 91.8033 -3.66934 -1.00319 0
M  V30 976 H 93.1153 -4.7489 -1.5258 0
M  V30 977 H 92.2693 -4.66414 -3.87998 0
M  V30 978 H 91.0083 -3.49147 -3.40511 0
M  V30 979 H 90.0133 -5.18165 -1.83806 0
M  V30 980 H 91.2383 -6.3749 -2.34059 0
M  V30 981 H 89.1843 -5.06823 -4.16493 0
M  V30 982 H 89.1013 -6.68151 -3.53708 0
M  V30 983 H 90.3693 -6.25756 -4.64811 0
M  V30 984 N 94.5984 0.214957 -1.56127 0
M  V30 985 C 95.8754 0.963093 -1.70247 0
M  V30 986 C 96.2554 2.02166 -0.60764 0
M  V30 987 O 95.6034 2.25244 0.384385 0
M  V30 988 C 95.8134 1.56756 -3.11815 0
M  V30 989 C 97.1614 2.0573 -3.7143 0
M  V30 990 O 98.1854 1.66637 -3.14818 0
M  V30 991 O 97.0444 2.77603 -4.70743 0
M  V30 992 H 94.1384 0.450321 -0.693643 0
M  V30 993 H 96.6844 0.206219 -1.68442 0
M  V30 994 H 95.4564 0.803533 -3.82961 0
M  V30 995 H 95.0794 2.3898 -3.17765 0
M  V30 996 N 96.0765 1.50051 0.48192 0
M  V30 997 C 97.3245 1.60181 1.23234 0
M  V30 998 C 97.6455 0.299176 1.92691 0
M  V30 999 O 96.9155 -0.682708 1.83619 0
M  V30 1000 H 95.4955 0.590232 0.457859 0
M  V30 1001 H 98.1575 1.86775 0.556881 0
M  V30 1002 H 97.2535 2.40753 1.98607 0
M  V30 1003 N 97.5546 -0.734337 1.39446 0
M  V30 1004 C 98.5176 -1.83004 1.37994 0
M  V30 1005 C 99.5176 -1.58397 0.276938 0
M  V30 1006 O 100.708 -1.65785 0.534875 0
M  V30 1007 C 97.8396 -3.20802 1.1532 0
M  V30 1008 H 99.0326 -1.85694 2.35494 0
M  V30 1009 H 96.5856 -0.938059 1.25021 0
M  V30 1010 H 97.3206 -3.23772 0.185036 0
M  V30 1011 H 97.1056 -3.4006 1.95197 0
M  V30 1012 H 98.5956 -4.00862 1.17046 0
M  V30 1013 N 99.0327 -1.24633 -0.964593 0
M  V30 1014 C 100.263 -1.11339 -1.74032 0
M  V30 1015 C 100.671 0.336593 -1.86182 0
M  V30 1016 O 100.014 1.24389 -1.35178 0
M  V30 1017 C 100.076 -1.68284 -3.1768 0
M  V30 1018 C 99.7397 -3.17196 -3.28992 0
M  V30 1019 C 100.737 -4.14308 -3.14078 0
M  V30 1020 C 98.4217 -3.57215 -3.53133 0
M  V30 1021 C 100.416 -5.4942 -3.23135 0
M  V30 1022 C 98.1027 -4.92468 -3.61827 0
M  V30 1023 C 99.1007 -5.8838 -3.46841 0
M  V30 1024 O 98.7887 -7.21173 -3.55197 0
M  V30 1025 H 98.5207 -0.389551 -0.552472 0
M  V30 1026 H 101.075 -1.65282 -1.21946 0
M  V30 1027 H 99.3047 -1.08777 -3.71085 0
M  V30 1028 H 100.994 -1.50234 -3.77074 0
M  V30 1029 H 101.76 -3.84731 -2.95308 0
M  V30 1030 H 97.6387 -2.83063 -3.63863 0
M  V30 1031 H 101.183 -6.24263 -3.11355 0
M  V30 1032 H 97.0797 -5.21714 -3.80111 0
M  V30 1033 H 97.8477 -7.29135 -3.71892 0
M  V30 1034 N 100.511 1.16574 -1.06058 0
M  V30 1035 C 101.757 1.87324 -0.777022 0
M  V30 1036 C 102.09 1.81351 0.694645 0
M  V30 1037 O 101.365 1.22753 1.50871 0
M  V30 1038 C 101.648 3.36991 -1.26922 0
M  V30 1039 C 101.501 3.51667 -2.80447 0
M  V30 1040 C 102.82 4.3131 -0.87521 0
M  V30 1041 H 99.9388 0.680191 -0.28374 0
M  V30 1042 H 102.581 1.37036 -1.3161 0
M  V30 1043 H 100.731 3.79949 -0.81063 0
M  V30 1044 H 102.403 3.17664 -3.34495 0
M  V30 1045 H 100.646 2.93656 -3.19294 0
M  V30 1046 H 101.317 4.56766 -3.0995 0
M  V30 1047 H 103.793 3.9624 -1.27014 0
M  V30 1048 H 102.669 5.34545 -1.2471 0
M  V30 1049 H 102.93 4.41552 0.220071 0
M  V30 1050 N 101.989 0.842826 1.3317 0
M  V30 1051 C 102.936 0.276885 2.29133 0
M  V30 1052 C 103.906 -0.609527 1.54512 0
M  V30 1053 O 105.091 -0.546955 1.82792 0
M  V30 1054 C 102.231 -0.538707 3.40869 0
M  V30 1055 C 101.344 0.372169 4.30394 0
M  V30 1056 C 100.479 -0.454908 5.29249 0
M  V30 1057 C 99.5179 0.45411 6.10413 0
M  V30 1058 N 98.6549 -0.335075 7.013 0
M  V30 1059 H 103.495 1.10052 2.76934 0
M  V30 1060 H 101.032 0.554161 1.36262 0
M  V30 1061 H 102.99 -1.02709 4.0436 0
M  V30 1062 H 101.62 -1.32727 2.9425 0
M  V30 1063 H 100.672 0.97888 3.6759 0
M  V30 1064 H 101.984 1.0703 4.87182 0
M  V30 1065 H 101.138 -1.00695 5.98285 0
M  V30 1066 H 99.8769 -1.18646 4.73048 0
M  V30 1067 H 98.8819 1.01813 5.40291 0
M  V30 1068 H 100.107 1.18409 6.68697 0
M  V30 1069 H 98.0529 -1.04994 6.47543 0
M  V30 1070 H 97.9699 0.304262 7.55387 0
M  V30 1071 H 99.2379 -0.869224 7.74638 0
M  V30 1072 N 103.467 -1.45747 0.599634 0
M  V30 1073 C 104.713 -2.02592 0.0918643 0
M  V30 1074 C 105.046 -1.46806 -1.27128 0
M  V30 1075 O 104.321 -0.639658 -1.83681 0
M  V30 1076 C 104.604 -3.60073 0.0443398 0
M  V30 1077 C 104.457 -4.26208 1.43759 0
M  V30 1078 C 105.776 -4.35309 -0.647608 0
M  V30 1079 H 102.895 -0.736175 0.034857 0
M  V30 1080 H 105.537 -1.73694 0.770081 0
M  V30 1081 H 103.687 -3.84823 -0.533224 0
M  V30 1082 H 105.359 -4.12668 2.06162 0
M  V30 1083 H 103.602 -3.84916 2.00056 0
M  V30 1084 H 104.273 -5.35069 1.35665 0
M  V30 1085 H 106.749 -4.15805 -0.156776 0
M  V30 1086 H 105.625 -5.45038 -0.649942 0
M  V30 1087 H 105.886 -4.07598 -1.71219 0
M  V30 1088 N 104.945 -0.338344 -1.53925 0
M  V30 1089 C 105.892 0.520845 -2.24846 0
M  V30 1090 C 106.862 1.09976 -1.24477 0
M  V30 1091 O 108.047 1.13735 -1.53196 0
M  V30 1092 C 105.187 1.6685 -3.02084 0
M  V30 1093 C 104.3 1.11739 -4.17299 0
M  V30 1094 C 103.435 2.23193 -4.82036 0
M  V30 1095 C 102.474 1.65407 -5.89328 0
M  V30 1096 N 101.611 2.70582 -6.47866 0
M  V30 1097 H 106.451 -0.0904881 -2.97863 0
M  V30 1098 H 103.988 -0.0564282 -1.46992 0
M  V30 1099 H 105.946 2.34407 -3.45122 0
M  V30 1100 H 104.576 2.2509 -2.31375 0
M  V30 1101 H 103.628 0.332919 -3.7894 0
M  V30 1102 H 104.94 0.654677 -4.94485 0
M  V30 1103 H 104.094 2.98626 -5.28117 0
M  V30 1104 H 102.833 2.72807 -4.04262 0
M  V30 1105 H 101.838 0.884779 -5.42634 0
M  V30 1106 H 103.063 1.16652 -6.69006 0
M  V30 1107 H 101.009 3.1946 -5.72959 0
M  V30 1108 H 100.926 2.28917 -7.20509 0
M  V30 1109 H 102.194 3.45799 -6.98601 0
M  V30 1110 N 106.423 1.57458 -0.0668435 0
M  V30 1111 C 107.834 1.80776 0.466558 0
M  V30 1112 C 108.185 0.980361 1.69951 0
M  V30 1113 O 107.31 0.201441 2.1546 0
M  V30 1114 C 107.905 3.27881 0.85321 0
M  V30 1115 C 106.464 3.52062 1.3315 0
M  V30 1116 C 105.611 2.75513 0.314264 0
M  V30 1117 H 108.562 1.5598 -0.292588 0
M  V30 1118 H 108.583 3.39659 1.715 0
M  V30 1119 H 108.095 3.88075 -0.0443439 0
M  V30 1120 H 106.196 2.97167 2.24772 0
M  V30 1121 H 106.309 4.60762 1.31285 0
M  V30 1122 H 104.673 2.42123 0.790492 0
M  V30 1123 H 105.456 3.38442 -0.575477 0
M  V30 1124 N 107.901 -0.206675 1.56239 0
M  V30 1125 C 109.149 -0.927007 1.79586 0
M  V30 1126 C 109.47 -1.8427 0.637929 0
M  V30 1127 O 108.74 -1.92849 -0.344398 0
M  V30 1128 H 107.32 -0.345292 0.662407 0
M  V30 1129 H 109.982 -0.21496 1.93711 0
M  V30 1130 H 109.078 -1.52501 2.72305 0
M  V30 1131 N 109.379 -1.50304 -0.473955 0
M  V30 1132 C 110.342 -1.6841 -1.55469 0
M  V30 1133 C 111.342 -0.554905 -1.50922 0
M  V30 1134 O 112.532 -0.821882 -1.53593 0
M  V30 1135 C 109.664 -1.70667 -2.95102 0
M  V30 1136 H 110.857 -2.64828 -1.40733 0
M  V30 1137 H 108.41 -1.39742 -0.700132 0
M  V30 1138 H 109.145 -0.75932 -3.15285 0
M  V30 1139 H 108.93 -2.52698 -2.9981 0
M  V30 1140 H 110.42 -1.8664 -3.73571 0
M  V30 1141 N 110.857 0.726932 -1.39834 0
M  V30 1142 C 111.789 1.85147 -1.35104 0
M  V30 1143 C 112.802 1.60736 -0.258392 0
M  V30 1144 O 113.991 1.70821 -0.517931 0
M  V30 1145 C 111.091 3.21332 -1.07697 0
M  V30 1146 C 110.264 3.73033 -2.28396 0
M  V30 1147 C 109.323 4.87802 -1.97322 0
M  V30 1148 O 108.349 5.01043 -2.70083 0
M  V30 1149 N 109.551 5.72768 -0.944273 0
M  V30 1150 H 112.316 1.89706 -2.32017 0
M  V30 1151 H 109.877 0.908006 -1.3404 0
M  V30 1152 H 111.869 3.95691 -0.849144 0
M  V30 1153 H 110.439 3.11992 -0.194909 0
M  V30 1154 H 109.659 2.89934 -2.6708 0
M  V30 1155 H 110.947 4.0431 -3.08887 0
M  V30 1156 H 110.345 5.64669 -0.341427 0
M  V30 1157 H 108.902 6.4716 -0.776346 0
M  V30 1158 N 112.336 1.25143 0.95797 0
M  V30 1159 C 113.564 1.12424 1.73691 0
M  V30 1160 C 113.979 -0.322304 1.86029 0
M  V30 1161 O 113.336 -1.22186 1.35561 0
M  V30 1162 C 113.387 1.76933 3.15241 0
M  V30 1163 O 113.108 3.15932 3.03511 0
M  V30 1164 C 114.609 1.6995 4.09429 0
M  V30 1165 H 111.829 0.3923 0.544373 0
M  V30 1166 H 114.373 1.6544 1.20207 0
M  V30 1167 H 112.528 1.27895 3.6568 0
M  V30 1168 H 112.942 3.47598 3.9278 0
M  V30 1169 H 114.416 2.19753 5.06372 0
M  V30 1170 H 114.893 0.662619 4.34173 0
M  V30 1171 H 115.499 2.18461 3.64904 0
M  V30 1172 N 113.814 -1.1601 1.06675 0
M  V30 1173 C 114.777 -2.18724 0.685001 0
M  V30 1174 C 115.777 -1.58496 -0.271246 0
M  V30 1175 O 116.967 -1.74119 -0.0531156 0
M  V30 1176 C 114.099 -3.40899 0.00853648 0
M  V30 1177 H 115.292 -2.54011 1.59431 0
M  V30 1178 H 112.845 -1.30352 0.862441 0
M  V30 1179 H 113.58 -3.11173 -0.913337 0
M  V30 1180 H 113.365 -3.8587 0.696204 0
M  V30 1181 H 114.855 -4.16886 -0.24414 0
M  V30 1182 N 115.292 -0.849877 -1.32721 0
M  V30 1183 C 116.541 -0.447175 -1.96681 0
M  V30 1184 C 116.854 1.00135 -1.68025 0
M  V30 1185 O 118.06 1.50926 -2.25685 0
M  V30 1186 C 116.516 -0.7487 -3.52026 0
M  V30 1187 C 116.124 -2.21264 -3.89546 0
M  V30 1188 C 117.868 -0.413487 -4.22481 0
M  V30 1189 C 115.775 -2.45763 -5.37917 0
M  V30 1190 H 114.705 -0.163486 -0.736063 0
M  V30 1191 H 117.356 -1.03999 -1.51183 0
M  V30 1192 H 115.738 -0.0853727 -3.95908 0
M  V30 1193 H 116.912 -2.91736 -3.56689 0
M  V30 1194 H 115.227 -2.5119 -3.32103 0
M  V30 1195 H 117.824 -0.574017 -5.3161 0
M  V30 1196 H 118.167 0.644492 -4.11281 0
M  V30 1197 H 118.7 -1.03251 -3.84167 0
M  V30 1198 H 115.439 -3.50168 -5.54132 0
M  V30 1199 H 114.959 -1.79864 -5.72197 0
M  V30 1200 H 116.638 -2.29471 -6.0494 0
M  V30 1201 N 116.77 1.45427 -0.607355 0
M  V30 1202 C 118.016 2.0254 -0.102607 0
M  V30 1203 C 118.349 1.47478 1.26348 0
M  V30 1204 O 117.624 0.64939 1.83339 0
M  V30 1205 C 117.907 3.60044 -0.0634347 0
M  V30 1206 C 117.76 4.2544 -1.46017 0
M  V30 1207 C 119.079 4.35646 0.624514 0
M  V30 1208 H 116.198 0.73598 -0.0387607 0
M  V30 1209 H 118.84 1.73284 -0.779282 0
M  V30 1210 H 116.99 3.85101 0.512808 0
M  V30 1211 H 118.662 4.11569 -2.08347 0
M  V30 1212 H 116.905 3.83849 -2.02094 0
M  V30 1213 H 117.576 5.34342 -1.385 0
M  V30 1214 H 120.052 4.15882 0.134723 0
M  V30 1215 H 118.928 5.45376 0.621028 0
M  V30 1216 H 119.189 4.08501 1.69055 0
M  V30 1217 N 118.248 0.346503 1.53744 0
M  V30 1218 C 119.196 -0.52422 2.26616 0
M  V30 1219 C 120.19 -1.09948 1.28871 0
M  V30 1220 O 121.396 -1.04488 1.46568 0
M  V30 1221 H 117.771 -0.187743 0.728187 0
M  V30 1222 H 119.742 0.11239 2.98188 0
M  V30 1223 C 118.491 -1.66186 3.05414 0
M  V30 1224 H 117.814 -1.22848 3.80458 0
M  V30 1225 H 119.254 -2.24622 3.59612 0
M  V30 1226 C 117.713 -2.59302 2.1509 0
M  V30 1227 O 118.243 -3.61628 1.74895 0
M  V30 1228 N 116.449 -2.28055 1.8011 0
M  V30 1229 H 115.996 -1.44883 2.12994 0
M  V30 1230 H 115.954 -2.90615 1.19958 0
M  V30 1231 N 119.726 -1.57421 0.075193 0
M  V30 1232 C 120.974 -1.93236 -0.591974 0
M  V30 1233 C 121.295 -0.956241 -1.69944 0
M  V30 1234 O 120.565 -0.00494792 -1.95899 0
M  V30 1235 H 119.145 -0.713355 -0.22166 0
M  V30 1236 H 121.807 -1.9444 0.133848 0
M  V30 1237 H 120.903 -2.95131 -1.01509 0
M  V30 1238 N 121.204 0.198386 -1.56346 0
M  V30 1239 C 122.136 1.26987 -1.90806 0
M  V30 1240 C 123.149 1.41877 -0.798419 0
M  V30 1241 O 124.338 1.42362 -1.07682 0
M  V30 1242 C 121.438 2.64246 -2.12196 0
M  V30 1243 C 120.611 2.71007 -3.43328 0
M  V30 1244 C 119.67 3.89439 -3.5387 0
M  V30 1245 O 118.696 3.76695 -4.26719 0
M  V30 1246 N 119.898 5.04752 -2.86715 0
M  V30 1247 H 122.663 0.977433 -2.83313 0
M  V30 1248 H 120.224 0.388322 -1.57174 0
M  V30 1249 H 122.216 3.41896 -2.1654 0
M  V30 1250 H 120.786 2.85992 -1.26204 0
M  V30 1251 H 120.006 1.79657 -3.50881 0
M  V30 1252 H 121.294 2.72512 -4.29668 0
M  V30 1253 H 120.692 5.18004 -2.2735 0
M  V30 1254 H 119.249 5.8036 -2.96691 0
M  V30 1255 N 122.682 1.50554 0.465978 0
M  V30 1256 C 124.093 1.54599 1.04671 0
M  V30 1257 C 124.444 0.352488 1.93008 0
M  V30 1258 O 123.569 -0.534044 2.09707 0
M  V30 1259 C 124.164 2.80166 1.90505 0
M  V30 1260 C 122.723 2.86876 2.43678 0
M  V30 1261 C 121.87 2.48947 1.22151 0
M  V30 1262 H 124.821 1.56744 0.248384 0
M  V30 1263 H 124.842 2.62311 2.75633 0
M  V30 1264 H 124.354 3.67013 1.26186 0
M  V30 1265 H 122.455 2.04393 3.11536 0
M  V30 1266 H 122.568 3.89885 2.78436 0
M  V30 1267 H 120.932 2.01498 1.5579 0
M  V30 1268 H 121.715 3.38107 0.594866 0
M  V30 1269 N 124.16 -0.719506 1.40217 0
M  V30 1270 C 125.09 -1.8465 1.42922 0
M  V30 1271 C 126.071 -1.67599 0.29062 0
M  V30 1272 O 127.256 -1.87688 0.498677 0
M  V30 1273 C 124.386 -3.22565 1.28722 0
M  V30 1274 C 123.34 -3.54281 2.40144 0
M  V30 1275 C 122.666 -4.91298 2.11023 0
M  V30 1276 C 123.966 -3.55676 3.82481 0
M  V30 1277 H 125.66 -1.82644 2.37237 0
M  V30 1278 H 123.206 -0.877305 1.1419 0
M  V30 1279 H 125.159 -4.01095 1.29232 0
M  V30 1280 H 123.883 -3.25137 0.308811 0
M  V30 1281 H 122.542 -2.78088 2.38877 0
M  V30 1282 H 122.19 -4.90468 1.11582 0
M  V30 1283 H 121.89 -5.13485 2.8567 0
M  V30 1284 H 123.414 -5.72166 2.13209 0
M  V30 1285 H 124.828 -4.24254 3.85592 0
M  V30 1286 H 123.225 -3.89388 4.56614 0
M  V30 1287 H 124.295 -2.55144 4.12346 0
M  V30 1288 N 125.638 -1.25649 -0.95132 0
M  V30 1289 C 126.601 -1.06399 -2.03007 0
M  V30 1290 C 127.601 -0.0156794 -1.60792 0
M  V30 1291 O 128.791 -0.25817 -1.72276 0
M  V30 1292 C 125.923 -0.616184 -3.35285 0
M  V30 1293 H 127.116 -2.02164 -2.21517 0
M  V30 1294 H 124.669 -1.08103 -1.12887 0
M  V30 1295 H 125.404 0.343917 -3.22471 0
M  V30 1296 H 125.189 -1.37301 -3.67275 0
M  V30 1297 H 126.679 -0.503032 -4.14559 0
M  V30 1298 N 127.117 1.15442 -1.07289 0
M  V30 1299 C 128.047 2.22312 -0.714107 0
M  V30 1300 C 129.028 1.67467 0.298155 0
M  V30 1301 O 130.213 1.93445 0.171048 0
M  V30 1302 C 127.343 3.47124 -0.110448 0
M  V30 1303 C 126.297 4.14926 -1.04979 0
M  V30 1304 C 125.623 5.33807 -0.308924 0
M  V30 1305 C 126.923 4.64762 -2.38314 0
M  V30 1306 H 128.617 2.5258 -1.6076 0
M  V30 1307 H 126.163 1.21404 -0.77441 0
M  V30 1308 H 128.116 4.21124 0.152482 0
M  V30 1309 H 126.84 3.16187 0.81812 0
M  V30 1310 H 125.499 3.42866 -1.29764 0
M  V30 1311 H 125.147 4.99126 0.623084 0
M  V30 1312 H 124.847 5.80113 -0.935036 0
M  V30 1313 H 126.371 6.10576 -0.0537771 0
M  V30 1314 H 127.785 5.30292 -2.1786 0
M  V30 1315 H 126.182 5.21728 -2.96514 0
M  V30 1316 H 127.252 3.80434 -3.00663 0
M  V30 1317 N 128.595 0.856903 1.32268 0
M  V30 1318 C 129.527 0.260412 2.27716 0
M  V30 1319 C 130.54 -0.569137 1.52528 0
M  V30 1320 O 131.729 -0.39326 1.74114 0
M  V30 1321 C 128.829 -0.650477 3.32599 0
M  V30 1322 C 128.002 0.14372 4.37164 0
M  V30 1323 C 127.061 -0.69328 5.21613 0
M  V30 1324 O 126.087 -0.12599 5.69061 0
M  V30 1325 N 127.289 -2.00761 5.44679 0
M  V30 1326 H 130.054 1.08059 2.79541 0
M  V30 1327 H 127.615 0.717103 1.45152 0
M  V30 1328 H 129.607 -1.21581 3.86005 0
M  V30 1329 H 128.177 -1.37133 2.80915 0
M  V30 1330 H 127.397 0.890486 3.8401 0
M  V30 1331 H 128.685 0.68915 5.04111 0
M  V30 1332 H 128.083 -2.49181 5.07863 0
M  V30 1333 H 126.64 -2.52103 6.01072 0
M  V30 1334 N 130.073 -1.45103 0.615059 0
M  V30 1335 C 131.319 -2.02483 0.113347 0
M  V30 1336 C 131.652 -1.48146 -1.25564 0
M  V30 1337 O 130.927 -0.659104 -1.82992 0
M  V30 1338 C 131.21 -3.60005 0.0825278 0
M  V30 1339 C 131.063 -4.2466 1.48271 0
M  V30 1340 C 132.382 -4.35972 -0.601401 0
M  V30 1341 H 129.501 -0.735764 0.0426632 0
M  V30 1342 H 132.143 -1.72868 0.788461 0
M  V30 1343 H 130.293 -3.85367 -0.492378 0
M  V30 1344 H 131.965 -4.10458 2.10527 0
M  V30 1345 H 130.208 -3.82772 2.04127 0
M  V30 1346 H 130.879 -5.336 1.41332 0
M  V30 1347 H 133.355 -4.15947 -0.112666 0
M  V30 1348 H 132.231 -5.45697 -0.592097 0
M  V30 1349 H 132.492 -4.09391 -1.66887 0
M  V30 1350 N 131.551 -0.354651 -1.53558 0
M  V30 1351 C 132.962 0.126902 -1.86268 0
M  V30 1352 C 133.313 1.49075 -1.27558 0
M  V30 1353 O 132.438 2.08105 -0.5934 0
M  V30 1354 C 133.033 0.237046 -3.3797 0
M  V30 1355 C 131.592 0.662842 -3.70518 0
M  V30 1356 C 130.739 -0.196652 -2.76602 0
M  V30 1357 H 133.69 -0.573849 -1.47962 0
M  V30 1358 H 133.711 1.06259 -3.65362 0
M  V30 1359 H 133.223 -0.755725 -3.80671 0
M  V30 1360 H 131.324 1.66424 -3.33367 0
M  V30 1361 H 131.437 0.445034 -4.77029 0
M  V30 1362 H 129.801 0.332763 -2.52517 0
M  V30 1363 H 130.584 -1.18676 -3.22135 0
M  V30 1364 N 133.029 1.57378 -0.0835403 0
M  V30 1365 C 134.275 1.94217 0.583733 0
M  V30 1366 C 134.608 0.964653 1.68547 0
M  V30 1367 O 133.883 -0.00422258 1.945 0
M  V30 1368 C 134.166 3.41253 1.14972 0
M  V30 1369 C 134.019 4.49768 0.0538277 0
M  V30 1370 C 135.338 3.89352 2.05166 0
M  V30 1371 H 132.457 0.706233 0.210724 0
M  V30 1372 H 135.099 1.89392 -0.1519 0
M  V30 1373 H 133.249 3.45496 1.77665 0
M  V30 1374 H 134.921 4.57641 -0.579851 0
M  V30 1375 H 133.164 4.29432 -0.614068 0
M  V30 1376 H 133.835 5.49817 0.490452 0
M  V30 1377 H 136.311 3.87189 1.52393 0
M  V30 1378 H 135.187 4.92822 2.41698 0
M  V30 1379 H 135.448 3.27973 2.96456 0
M  V30 1380 N 134.507 -0.190092 1.56449 0
M  V30 1381 C 135.753 -0.911052 1.81184 0
M  V30 1382 C 136.086 -1.82699 0.658396 0
M  V30 1383 O 135.361 -1.91491 -0.340775 0
M  V30 1384 C 135.644 -1.72297 3.16205 0
M  V30 1385 C 135.497 -0.831419 4.42049 0
M  V30 1386 C 136.816 -2.69454 3.47969 0
M  V30 1387 H 133.935 -0.32977 0.659106 0
M  V30 1388 H 136.577 -0.178169 1.89163 0
M  V30 1389 H 134.727 -2.34778 3.09534 0
M  V30 1390 H 136.399 -0.220929 4.60771 0
M  V30 1391 H 134.642 -0.138406 4.33579 0
M  V30 1392 H 135.313 -1.43461 5.33032 0
M  V30 1393 H 137.789 -2.17104 3.54972 0
M  V30 1394 H 136.665 -3.23342 4.43555 0
M  V30 1395 H 136.926 -3.48744 2.71717 0
M  V30 1396 N 135.985 -1.50799 -0.457987 0
M  V30 1397 C 136.918 -1.65273 -1.57353 0
M  V30 1398 C 137.896 -0.500578 -1.54703 0
M  V30 1399 O 139.08 -0.721781 -1.74134 0
M  V30 1400 C 136.207 -1.64737 -2.95938 0
M  V30 1401 C 135.253 -2.8567 -3.16693 0
M  V30 1402 S 136.086 -4.46791 -2.95191 0
M  V30 1403 C 137.242 -4.48968 -4.36095 0
M  V30 1404 H 137.475 -2.59633 -1.44838 0
M  V30 1405 H 135.008 -1.40225 -0.64625 0
M  V30 1406 H 136.966 -1.65112 -3.7583 0
M  V30 1407 H 135.627 -0.715899 -3.05833 0
M  V30 1408 H 134.82 -2.81637 -4.17967 0
M  V30 1409 H 134.422 -2.8293 -2.44594 0
M  V30 1410 H 136.714 -4.23337 -5.28954 0
M  V30 1411 H 137.657 -5.50664 -4.45168 0
M  V30 1412 H 138.065 -3.78522 -4.18786 0
M  V30 1413 N 137.463 0.71206 -1.40597 0
M  V30 1414 C 138.41 1.82613 -1.41142 0
M  V30 1415 C 139.38 1.63925 -0.267903 0
M  V30 1416 O 140.565 1.85009 -0.466495 0
M  V30 1417 C 137.705 3.20354 -1.28324 0
M  V30 1418 C 136.818 3.50589 -2.52411 0
M  V30 1419 C 135.953 4.77855 -2.32009 0
M  V30 1420 C 134.992 5.01005 -3.51654 0
M  V30 1421 N 134.129 6.19487 -3.30425 0
M  V30 1422 H 138.969 1.81482 -2.36365 0
M  V30 1423 H 136.506 0.886475 -1.17388 0
M  V30 1424 H 138.464 3.99899 -1.18899 0
M  V30 1425 H 137.094 3.20705 -0.367189 0
M  V30 1426 H 136.146 2.65573 -2.72351 0
M  V30 1427 H 137.458 3.63604 -3.41458 0
M  V30 1428 H 136.612 5.65424 -2.19956 0
M  V30 1429 H 135.351 4.67056 -1.40392 0
M  V30 1430 H 134.356 4.1189 -3.64179 0
M  V30 1431 H 135.581 5.13674 -4.44202 0
M  V30 1432 H 133.527 6.09932 -2.41494 0
M  V30 1433 H 133.444 6.33194 -4.13039 0
M  V30 1434 H 134.712 7.09834 -3.22113 0
M  V30 1435 N 138.941 1.26152 0.944643 0
M  V30 1436 C 140.218 1.02247 1.66748 0
M  V30 1437 C 140.598 -0.448202 2.06287 0
M  V30 1438 O 139.946 -1.42779 1.78399 0
M  V30 1439 C 140.156 1.96788 2.88228 0
M  V30 1440 C 141.504 2.25201 3.59958 0
M  V30 1441 O 142.528 1.94626 2.98327 0
M  V30 1442 O 141.387 2.77242 4.70956 0
M  V30 1443 H 138.481 0.388517 0.730057 0
M  V30 1444 H 141.027 1.37348 0.99668 0
M  V30 1445 H 139.799 2.96047 2.55875 0
M  V30 1446 H 139.422 1.62145 3.63035 0
M  V30 1447 N 140.419 -1.14872 1.07899 0
M  V30 1448 C 141.367 -2.21857 0.698727 0
M  V30 1449 C 142.361 -1.66845 -0.293086 0
M  V30 1450 O 143.567 -1.79321 -0.156204 0
M  V30 1451 H 139.942 -0.722691 0.207899 0
M  V30 1452 H 141.913 -2.51205 1.61054 0
M  V30 1453 C 140.662 -3.47498 0.11858 0
M  V30 1454 H 139.985 -3.90154 0.872914 0
M  V30 1455 H 141.425 -4.23858 -0.109759 0
M  V30 1456 C 139.884 -3.16947 -1.1422 0
M  V30 1457 O 140.414 -3.3426 -2.22785 0
M  V30 1458 N 138.62 -2.70946 -1.05055 0
M  V30 1459 H 138.167 -2.57058 -0.167038 0
M  V30 1460 H 138.125 -2.50879 -1.89491 0
M  V30 1461 N 141.898 -0.863906 -1.31812 0
M  V30 1462 C 142.845 -0.313303 -2.28664 0
M  V30 1463 C 143.815 0.584868 -1.55462 0
M  V30 1464 O 145 0.517805 -1.83639 0
M  V30 1465 C 142.14 0.48441 -3.41683 0
M  V30 1466 C 141.253 -0.440594 -4.29747 0
M  V30 1467 C 140.388 0.370652 -5.29905 0
M  V30 1468 C 139.427 -0.551164 -6.09613 0
M  V30 1469 N 138.564 0.223462 -7.01744 0
M  V30 1470 H 143.404 -1.14444 -2.75148 0
M  V30 1471 H 140.941 -0.575769 -1.35364 0
M  V30 1472 H 142.899 0.962627 -4.05943 0
M  V30 1473 H 141.529 1.28029 -2.96325 0
M  V30 1474 H 140.581 -1.03724 -3.65986 0
M  V30 1475 H 141.893 -1.14767 -4.85417 0
M  V30 1476 H 141.047 0.911638 -5.99812 0
M  V30 1477 H 139.786 1.11105 -4.74876 0
M  V30 1478 H 138.791 -1.10396 -5.38603 0
M  V30 1479 H 140.016 -1.29032 -6.66729 0
M  V30 1480 H 137.962 0.946787 -6.49132 0
M  V30 1481 H 137.879 -0.424399 -7.54808 0
M  V30 1482 H 139.147 0.745876 -7.75923 0
M  V30 1483 N 143.376 1.44774 -0.622745 0
M  V30 1484 C 144.339 2.29069 0.0774015 0
M  V30 1485 C 145.339 1.4059 0.780461 0
M  V30 1486 O 146.529 1.62551 0.626322 0
M  V30 1487 C 143.661 3.21974 1.12006 0
M  V30 1488 H 144.854 2.92459 -0.663901 0
M  V30 1489 H 142.407 1.51548 -0.382486 0
M  V30 1490 H 143.142 2.63417 1.89162 0
M  V30 1491 H 142.927 3.87168 0.619951 0
M  V30 1492 H 144.417 3.85318 1.60995 0
M  V30 1493 N 144.854 0.36279 1.53368 0
M  V30 1494 C 146.1 -0.220702 2.02199 0
M  V30 1495 C 146.455 -1.46649 1.24546 0
M  V30 1496 O 145.748 -1.88737 0.32996 0
M  V30 1497 C 145.942 -0.568417 3.52851 0
M  V30 1498 C 145.771 0.642126 4.45092 0
M  V30 1499 C 144.541 1.15335 4.91961 0
M  V30 1500 C 146.739 1.50649 4.91741 0
M  V30 1501 N 144.721 2.3242 5.68202 0
M  V30 1502 C 146.092 2.52404 5.66297 0
M  V30 1503 C 148.147 1.52969 4.73819 0
M  V30 1504 C 146.85 3.56331 6.24836 0
M  V30 1505 C 148.876 2.55789 5.33222 0
M  V30 1506 C 148.238 3.56268 6.07662 0
M  V30 1507 H 144.337 -0.0435508 0.780786 0
M  V30 1508 H 146.921 0.506704 1.87991 0
M  V30 1509 H 145.092 -1.2649 3.67226 0
M  V30 1510 H 146.824 -1.13676 3.88407 0
M  V30 1511 H 143.579 0.718412 4.68119 0
M  V30 1512 H 144.003 2.91591 6.10986 0
M  V30 1513 H 148.645 0.766418 4.15795 0
M  V30 1514 H 146.363 4.33543 6.81958 0
M  V30 1515 H 149.949 2.58435 5.21251 0
M  V30 1516 H 148.829 4.34524 6.52808 0
M  V30 1517 N 146.332 -1.57332 0.0918853 0
M  V30 1518 C 147.578 -1.94524 -0.573425 0
M  V30 1519 C 147.911 -0.973578 -1.68033 0
M  V30 1520 O 147.186 -0.00609226 -1.94499 0
M  V30 1521 C 147.469 -3.41858 -1.13161 0
M  V30 1522 C 147.322 -4.4979 -0.0299747 0
M  V30 1523 C 148.641 -3.90435 -2.03098 0
M  V30 1524 H 145.76 -0.70734 -0.206975 0
M  V30 1525 H 148.402 -1.89309 0.161942 0
M  V30 1526 H 146.552 -3.46433 -1.7583 0
M  V30 1527 H 148.224 -4.57327 0.604112 0
M  V30 1528 H 146.467 -4.291 0.636833 0
M  V30 1529 H 147.138 -5.50069 -0.461287 0
M  V30 1530 H 149.614 -3.87992 -1.50338 0
M  V30 1531 H 148.49 -4.94097 -2.39081 0
M  V30 1532 H 148.751 -3.29541 -2.94712 0
M  V30 1533 N 147.81 0.181792 -1.56548 0
M  V30 1534 C 149.035 0.920019 -1.85877 0
M  V30 1535 C 149.46 1.75494 -0.677021 0
M  V30 1536 O 148.818 1.77399 0.374056 0
M  V30 1537 C 148.866 1.78112 -3.13542 0
M  V30 1538 O 147.97 2.88152 -2.95029 0
M  V30 1539 H 147.311 0.258334 -0.611686 0
M  V30 1540 H 149.841 0.183092 -2.03779 0
M  V30 1541 H 149.851 2.18314 -3.44678 0
M  V30 1542 H 148.526 1.16777 -3.99169 0
M  V30 1543 H 147.103 2.51609 -2.75222 0
M  V30 1544 N 149.288 1.51039 0.449983 0
M  V30 1545 C 150.565 1.53612 1.21089 0
M  V30 1546 C 150.945 0.292997 2.09057 0
M  V30 1547 O 150.293 -0.72259 2.16774 0
M  V30 1548 C 150.503 2.84337 2.0237 0
M  V30 1549 C 151.851 3.35807 2.59843 0
M  V30 1550 O 152.875 2.85802 2.12593 0
M  V30 1551 O 151.734 4.23029 3.45989 0
M  V30 1552 H 148.828 0.617057 0.550608 0
M  V30 1553 H 151.374 1.63344 0.460082 0
M  V30 1554 H 150.146 3.66278 1.37681 0
M  V30 1555 H 149.769 2.77708 2.84542 0
M  V30 1556 N 150.766 -0.704594 1.40972 0
M  V30 1557 C 151.994 -1.49354 1.43182 0
M  V30 1558 C 152.409 -1.88768 0.0345508 0
M  V30 1559 O 151.766 -1.56184 -0.944081 0
M  V30 1560 C 151.817 -2.76187 2.33244 0
M  V30 1561 O 151.538 -2.38436 3.67532 0
M  V30 1562 C 153.039 -3.7 2.44162 0
M  V30 1563 H 150.259 -0.460559 0.487982 0
M  V30 1564 H 152.803 -0.868261 1.85153 0
M  V30 1565 H 150.958 -3.34974 1.94606 0
M  V30 1566 H 151.372 -3.20126 4.15475 0
M  V30 1567 H 152.846 -4.55803 3.11364 0
M  V30 1568 H 153.323 -4.13867 1.47006 0
M  V30 1569 H 153.929 -3.17121 2.83398 0
M  V30 1570 N 152.244 -1.26651 -0.937939 0
M  V30 1571 C 153.491 -1.12387 -1.6845 0
M  V30 1572 C 153.819 0.332208 -1.91642 0
M  V30 1573 O 153.074 1.2602 -1.49725 0
M  V30 1574 C 153.373 -1.84168 -3.06295 0
M  V30 1575 C 153.039 -3.34056 -3.02849 0
M  V30 1576 C 151.701 -3.74942 -3.01616 0
M  V30 1577 C 154.053 -4.29741 -2.9491 0
M  V30 1578 C 151.381 -5.09894 -2.90215 0
M  V30 1579 C 153.733 -5.64738 -2.8505 0
M  V30 1580 C 152.397 -6.0493 -2.82162 0
M  V30 1581 H 151.667 -0.411252 -0.616403 0
M  V30 1582 H 154.314 -1.57134 -1.09459 0
M  V30 1583 H 152.619 -1.319 -3.6893 0
M  V30 1584 H 154.316 -1.70569 -3.62915 0
M  V30 1585 H 150.906 -3.01534 -3.0459 0
M  V30 1586 H 155.09 -3.99133 -2.94969 0
M  V30 1587 H 150.346 -5.40194 -2.86358 0
M  V30 1588 H 154.52 -6.38561 -2.77872 0
M  V30 1589 H 152.147 -7.09457 -2.73084 0
M  V30 1590 N 153.722 1.14298 -1.08507 0
M  V30 1591 C 154.971 1.84708 -0.810305 0
M  V30 1592 C 155.284 1.83903 0.666271 0
M  V30 1593 O 156.49 2.50112 1.05624 0
M  V30 1594 C 154.946 3.31572 -1.39957 0
M  V30 1595 C 154.554 3.40791 -2.90801 0
M  V30 1596 C 156.298 4.07087 -1.20334 0
M  V30 1597 C 154.205 4.81872 -3.4286 0
M  V30 1598 H 153.135 0.691985 -0.299454 0
M  V30 1599 H 155.786 1.28841 -1.30661 0
M  V30 1600 H 154.168 3.87183 -0.830976 0
M  V30 1601 H 155.342 2.95225 -3.53806 0
M  V30 1602 H 153.657 2.78732 -3.0935 0
M  V30 1603 H 156.254 5.11225 -1.56693 0
M  V30 1604 H 156.597 4.16054 -0.143237 0
M  V30 1605 H 157.13 3.57779 -1.73893 0
M  V30 1606 H 153.869 4.78094 -4.48449 0
M  V30 1607 H 153.389 5.27972 -2.84615 0
M  V30 1608 H 155.068 5.50765 -3.39509 0
M  V30 1609 N 155.201 0.870884 1.31352 0
M  V30 1610 C 156.149 0.316445 2.30437 0
M  V30 1611 C 157.143 -0.568965 1.59559 0
M  V30 1612 O 158.349 -0.454964 1.74155 0
M  V30 1613 H 154.724 0.0836521 0.747333 0
M  V30 1614 H 156.695 1.16606 2.74673 0
M  V30 1615 C 155.444 -0.46635 3.44558 0
M  V30 1616 H 154.767 0.205687 3.99271 0
M  V30 1617 H 156.207 -0.819614 4.16003 0
M  V30 1618 C 154.666 -1.65797 2.9328 0
M  V30 1619 O 155.196 -2.75728 2.92125 0
M  V30 1620 N 153.402 -1.49041 2.4947 0
M  V30 1621 H 152.949 -0.59612 2.50608 0
M  V30 1622 H 152.907 -2.28911 2.15516 0
M  V30 1623 N 156.679 -1.44442 0.630414 0
M  V30 1624 C 157.956 -1.9549 0.0655657 0
M  V30 1625 C 158.336 -1.5724 -1.40851 0
M  V30 1626 O 157.684 -0.846116 -2.12257 0
M  V30 1627 C 157.894 -3.47812 0.287691 0
M  V30 1628 C 159.242 -4.24216 0.180513 0
M  V30 1629 O 160.266 -3.55526 0.219019 0
M  V30 1630 O 159.125 -5.46434 0.0848493 0
M  V30 1631 H 156.219 -0.826688 -0.0227177 0
M  V30 1632 H 158.765 -1.54496 0.702068 0
M  V30 1633 H 157.537 -3.687 1.31056 0
M  V30 1634 H 157.16 -3.95751 -0.382984 0
M  V30 1635 N 158.157 -0.370918 -1.53173 0
M  V30 1636 C 159.403 0.217423 -2.01631 0
M  V30 1637 C 159.736 1.47983 -1.25756 0
M  V30 1638 O 159.011 1.91274 -0.352764 0
M  V30 1639 C 159.294 0.503982 -3.56556 0
M  V30 1640 C 159.147 -0.77243 -4.43118 0
M  V30 1641 C 160.466 1.30234 -4.20389 0
M  V30 1642 H 157.585 0.0775486 -0.732909 0
M  V30 1643 H 160.227 -0.496863 -1.83388 0
M  V30 1644 H 158.377 1.11248 -3.72231 0
M  V30 1645 H 160.049 -1.4098 -4.39229 0
M  V30 1646 H 158.292 -1.39167 -4.10871 0
M  V30 1647 H 158.963 -0.526815 -5.4948 0
M  V30 1648 H 161.439 0.787546 -4.08579 0
M  V30 1649 H 160.315 1.47158 -5.28806 0
M  V30 1650 H 160.576 2.31237 -3.76805 0
M  V30 1651 N 159.635 1.57281 -0.100228 0
M  V30 1652 C 160.882 1.94537 0.562268 0
M  V30 1653 C 161.21 0.982315 1.67871 0
M  V30 1654 O 160.465 0.00280936 1.957 0
M  V30 1655 C 160.764 3.38305 1.15259 0
M  V30 1656 C 160.43 4.50618 0.159409 0
M  V30 1657 C 159.092 4.81066 -0.113741 0
M  V30 1658 C 161.444 5.18615 -0.518461 0
M  V30 1659 C 158.772 5.76835 -1.07137 0
M  V30 1660 C 161.124 6.15412 -1.46459 0
M  V30 1661 C 159.788 6.44262 -1.74592 0
M  V30 1662 H 159.058 0.711863 0.205748 0
M  V30 1663 H 161.705 1.90679 -0.17715 0
M  V30 1664 H 160.01 3.38766 1.96836 0
M  V30 1665 H 161.707 3.64435 1.67297 0
M  V30 1666 H 158.297 4.2689 0.382491 0
M  V30 1667 H 162.481 4.95264 -0.320581 0
M  V30 1668 H 157.737 5.975 -1.29628 0
M  V30 1669 H 161.911 6.67194 -1.99564 0
M  V30 1670 H 159.538 7.1828 -2.48953 0
M  V30 1671 N 161.113 -0.173488 1.56642 0
M  V30 1672 C 162.045 -1.23935 1.92802 0
M  V30 1673 C 163.058 -1.40589 0.820889 0
M  V30 1674 O 164.247 -1.40631 1.09933 0
M  V30 1675 C 161.347 -2.60837 2.16373 0
M  V30 1676 C 160.52 -2.6551 3.47596 0
M  V30 1677 C 159.579 -3.8376 3.60021 0
M  V30 1678 O 158.605 -3.69859 4.32658 0
M  V30 1679 N 159.807 -5.00127 2.94709 0
M  V30 1680 H 162.572 -0.932236 2.84832 0
M  V30 1681 H 160.133 -0.363268 1.57772 0
M  V30 1682 H 162.125 -3.38407 2.21952 0
M  V30 1683 H 160.695 -2.83948 1.30738 0
M  V30 1684 H 159.915 -1.74052 3.53694 0
M  V30 1685 H 161.203 -2.65641 4.33949 0
M  V30 1686 H 160.601 -5.14322 2.35563 0
M  V30 1687 H 159.158 -5.75567 3.05886 0
M  V30 1688 N 162.591 -1.51276 -0.441967 0
M  V30 1689 C 163.816 -1.67799 -1.21895 0
M  V30 1690 C 164.241 -0.372864 -1.84367 0
M  V30 1691 O 163.599 0.666501 -1.68604 0
M  V30 1692 C 163.647 -2.79199 -2.28211 0
M  V30 1693 O 162.751 -2.42479 -3.33583 0
M  V30 1694 H 162.092 -0.559649 -0.357336 0
M  V30 1695 H 164.622 -1.97815 -0.522522 0
M  V30 1696 H 164.632 -3.03146 -2.73069 0
M  V30 1697 H 163.307 -3.73906 -1.82118 0
M  V30 1698 H 161.884 -2.29087 -2.94234 0
M  V30 1699 N 164.069 0.697108 -1.41344 0
M  V30 1700 C 165.317 1.45426 -1.40341 0
M  V30 1701 C 165.638 1.94996 -0.0128787 0
M  V30 1702 O 164.908 1.71599 0.945027 0
M  V30 1703 H 163.488 0.539594 -0.516573 0
M  V30 1704 H 166.15 0.825201 -1.76569 0
M  V30 1705 H 165.246 2.31817 -2.08967 0
M  V30 1706 N 165.547 1.27147 0.931209 0
M  V30 1707 C 166.477 1.12081 2.04842 0
M  V30 1708 C 167.458 0.0232364 1.70084 0
M  V30 1709 O 168.643 0.197085 1.93197 0
M  V30 1710 C 165.773 0.76354 3.38803 0
M  V30 1711 C 164.727 1.81396 3.87659 0
M  V30 1712 C 164.053 1.31075 5.18385 0
M  V30 1713 C 165.353 3.21739 4.11438 0
M  V30 1714 H 167.047 2.05537 2.17703 0
M  V30 1715 H 164.593 0.989603 1.04608 0
M  V30 1716 H 166.546 0.644982 4.16435 0
M  V30 1717 H 165.27 -0.206727 3.25945 0
M  V30 1718 H 163.929 1.92136 3.12217 0
M  V30 1719 H 163.577 0.330037 5.01916 0
M  V30 1720 H 163.277 2.013 5.52044 0
M  V30 1721 H 164.801 1.20506 5.98591 0
M  V30 1722 H 166.215 3.14019 4.79651 0
M  V30 1723 H 164.612 3.89644 4.56397 0
M  V30 1724 H 165.682 3.67054 3.16859 0
M  V30 1725 N 167.025 -1.13721 1.09112 0
M  V30 1726 C 168.302 -1.81155 0.737706 0
M  V30 1727 C 168.682 -1.96253 -0.777683 0
M  V30 1728 O 168.03 -1.52807 -1.69889 0
M  V30 1729 C 168.24 -3.16392 1.47299 0
M  V30 1730 C 169.588 -3.91787 1.63671 0
M  V30 1731 O 170.612 -3.26005 1.43524 0
M  V30 1732 O 169.471 -5.0977 1.96969 0
M  V30 1733 H 166.565 -0.783518 0.26463 0
M  V30 1734 H 169.111 -1.20676 1.19312 0
M  V30 1735 H 167.883 -3.0061 2.50498 0
M  V30 1736 H 167.506 -3.8457 1.00953 0
M  V30 1737 N 168.503 -0.877838 -1.30888 0
M  V30 1738 C 169.435 -0.296607 -2.27273 0
M  V30 1739 C 170.448 0.544799 -1.53414 0
M  V30 1740 O 171.637 0.365511 -1.74718 0
M  V30 1741 C 168.737 0.597481 -3.33592 0
M  V30 1742 C 167.91 -0.213251 -4.3688 0
M  V30 1743 C 166.969 0.610208 -5.2265 0
M  V30 1744 O 165.995 0.035441 -5.69189 0
M  V30 1745 N 167.197 1.92071 -5.47804 0
M  V30 1746 H 169.962 -1.12492 -2.77787 0
M  V30 1747 H 167.523 -0.740105 -1.43993 0
M  V30 1748 H 169.515 1.15425 -3.87891 0
M  V30 1749 H 168.085 1.32647 -2.83061 0
M  V30 1750 H 167.305 -0.951466 -3.82545 0
M  V30 1751 H 168.593 -0.769262 -5.02951 0
M  V30 1752 H 167.991 2.4107 -5.11763 0
M  V30 1753 H 166.548 2.42508 -6.05007 0
M  V30 1754 N 169.982 1.44106 -0.638065 0
M  V30 1755 C 171.21 2.06336 -0.152615 0
M  V30 1756 C 171.625 1.47731 1.17563 0
M  V30 1757 O 170.982 0.602806 1.72257 0
M  V30 1758 C 171.033 3.61479 -0.0391491 0
M  V30 1759 O 170.754 4.17903 -1.31487 0
M  V30 1760 C 172.255 4.40757 0.474176 0
M  V30 1761 H 169.475 0.665862 -0.0828776 0
M  V30 1762 H 172.019 1.84862 -0.87443 0
M  V30 1763 H 170.174 3.82191 0.633142 0
M  V30 1764 H 170.588 5.11416 -1.16421 0
M  V30 1765 H 172.062 5.49707 0.502562 0
M  V30 1766 H 172.539 4.12697 1.50258 0
M  V30 1767 H 173.145 4.24979 -0.165102 0
M  V30 1768 N 171.46 0.379036 1.52974 0
M  V30 1769 C 172.707 -0.206421 2.01445 0
M  V30 1770 C 173.035 -1.47668 1.26587 0
M  V30 1771 O 172.29 -1.92514 0.351675 0
M  V30 1772 C 172.589 -0.53096 3.53434 0
M  V30 1773 C 172.255 0.646546 4.46241 0
M  V30 1774 C 170.917 0.969604 4.7133 0
M  V30 1775 C 173.269 1.43479 5.01062 0
M  V30 1776 C 170.597 2.08263 5.48492 0
M  V30 1777 C 172.949 2.53834 5.7944 0
M  V30 1778 C 171.613 2.86659 6.02812 0
M  V30 1779 H 170.883 -0.0755349 0.73714 0
M  V30 1780 H 173.53 0.514271 1.84465 0
M  V30 1781 H 171.835 -1.33285 3.68432 0
M  V30 1782 H 173.532 -0.996417 3.88423 0
M  V30 1783 H 170.122 0.384734 4.2687 0
M  V30 1784 H 174.306 1.19844 4.81613 0
M  V30 1785 H 169.562 2.34078 5.64816 0
M  V30 1786 H 173.736 3.15319 6.20924 0
M  V30 1787 H 171.363 3.73026 6.62387 0
M  V30 1788 N 172.938 -1.57226 0.108567 0
M  V30 1789 C 173.87 -2.11809 -0.875752 0
M  V30 1790 C 174.883 -1.05839 -1.23701 0
M  V30 1791 O 176.072 -1.33245 -1.18778 0
M  V30 1792 C 173.172 -2.59411 -2.18081 0
M  V30 1793 C 172.345 -3.89364 -1.99284 0
M  V30 1794 C 171.404 -4.22672 -3.13424 0
M  V30 1795 O 170.43 -4.91668 -2.86795 0
M  V30 1796 N 171.632 -3.79154 -4.3957 0
M  V30 1797 H 174.397 -2.9689 -0.409477 0
M  V30 1798 H 171.958 -1.61721 -0.076158 0
M  V30 1799 H 173.95 -2.7873 -2.93414 0
M  V30 1800 H 172.52 -1.79268 -2.5609 0
M  V30 1801 H 171.74 -3.79059 -1.08203 0
M  V30 1802 H 173.028 -4.74358 -1.84017 0
M  V30 1803 H 172.426 -3.23486 -4.64083 0
M  V30 1804 H 170.983 -4.03602 -5.11809 0
M  V30 1805 N 174.416 0.165178 -1.56732 0
M  V30 1806 C 175.662 0.882112 -1.82611 0
M  V30 1807 C 175.995 1.81628 -0.687378 0
M  V30 1808 O 175.27 1.92009 0.310267 0
M  V30 1809 C 175.553 1.67245 -3.18906 0
M  V30 1810 C 175.406 0.760987 -4.43316 0
M  V30 1811 C 176.725 2.63884 -3.52212 0
M  V30 1812 H 173.844 0.319242 -0.664269 0
M  V30 1813 H 176.486 0.148052 -1.89422 0
M  V30 1814 H 174.636 2.29824 -3.1323 0
M  V30 1815 H 176.308 0.147596 -4.61064 0
M  V30 1816 H 174.551 0.0694102 -4.33744 0
M  V30 1817 H 175.222 1.34962 -5.35247 0
M  V30 1818 H 177.698 2.11429 -3.58381 0
M  V30 1819 H 176.574 3.16245 -4.48643 0
M  V30 1820 H 176.835 3.44377 -2.77231 0
M  V30 1821 N 175.894 1.51508 0.433938 0
M  V30 1822 C 176.804 1.75917 1.5521 0
M  V30 1823 C 177.82 0.643545 1.61662 0
M  V30 1824 O 178.996 0.926183 1.7884 0
M  V30 1825 C 176.061 1.88213 2.91164 0
M  V30 1826 C 175.122 3.12074 2.94802 0
M  V30 1827 C 174.355 3.23774 4.24271 0
M  V30 1828 O 174.578 2.4133 5.16833 0
M  V30 1829 O 173.512 4.16774 4.34262 0
M  V30 1830 H 177.338 2.70777 1.37527 0
M  V30 1831 H 174.923 1.36051 0.617293 0
M  V30 1832 H 176.805 1.98267 3.71845 0
M  V30 1833 H 175.48 0.965413 3.08968 0
M  V30 1834 H 174.387 3.07497 2.13065 0
M  V30 1835 H 175.72 4.03446 2.81943 0
M  V30 1836 N 177.372 -0.689602 1.41712 0
M  V30 1837 C 178.319 -1.80345 1.44029 0
M  V30 1838 C 179.289 -1.63478 0.293948 0
M  V30 1839 O 180.474 -1.84244 0.495869 0
M  V30 1840 C 177.614 -3.18272 1.33405 0
M  V30 1841 C 176.727 -3.46529 2.57956 0
M  V30 1842 C 175.862 -4.74103 2.39582 0
M  V30 1843 C 174.901 -4.95347 3.5958 0
M  V30 1844 N 174.038 -6.14151 3.40239 0
M  V30 1845 H 178.878 -1.77698 2.39222 0
M  V30 1846 H 176.415 -0.867688 1.18784 0
M  V30 1847 H 178.373 -3.97956 1.25246 0
M  V30 1848 H 177.003 -3.2008 0.418164 0
M  V30 1849 H 176.055 -2.61207 2.76542 0
M  V30 1850 H 177.367 -3.58126 3.47199 0
M  V30 1851 H 176.521 -5.61853 2.28924 0
M  V30 1852 H 175.26 -4.64763 1.47805 0
M  V30 1853 H 174.265 -4.06044 3.70686 0
M  V30 1854 H 175.49 -5.06542 4.52318 0
M  V30 1855 H 173.436 -6.06013 2.51167 0
M  V30 1856 H 173.353 -6.26543 4.23061 0
M  V30 1857 H 174.621 -7.04619 3.33365 0
M  V30 1858 N 178.85 -1.27639 -0.924453 0
M  V30 1859 C 180.266 -1.05113 -1.20097 0
M  V30 1860 C 180.466 0.213262 -2.00368 0
M  V30 1861 O 179.522 0.91787 -2.35226 0
M  V30 1862 C 180.835 -2.29244 -1.94596 0
M  V30 1863 C 182.383 -2.34315 -2.07522 0
M  V30 1864 C 182.858 -3.58183 -2.85427 0
M  V30 1865 N 184.349 -3.5876 -2.92994 0
M  V30 1866 C 185.084 -4.51277 -3.53746 0
M  V30 1867 N 184.58 -5.54102 -4.15863 0
M  V30 1868 N 186.373 -4.38894 -3.51181 0
M  V30 1869 H 178.524 -2.08821 -0.388264 0
M  V30 1870 H 180.787 -0.918568 -0.234385 0
M  V30 1871 H 180.493 -3.21301 -1.43034 0
M  V30 1872 H 180.367 -2.34816 -2.95197 0
M  V30 1873 H 182.754 -1.42762 -2.58269 0
M  V30 1874 H 182.835 -2.32744 -1.06131 0
M  V30 1875 H 182.479 -4.50074 -2.35363 0
M  V30 1876 H 182.409 -3.57006 -3.8711 0
M  V30 1877 H 184.9 -2.84398 -2.4885 0
M  V30 1878 H 185.213 -6.20859 -4.60168 0
M  V30 1879 H 183.558 -5.57941 -4.144 0
M  V30 1880 H 186.749 -3.57772 -3.01856 0
M  V30 1881 H 186.922 -5.11186 -3.98237 0
M  V30 1882 N 180.328 1.1314 -1.09713 0
M  V30 1883 C 181.739 1.66029 -0.853885 0
M  V30 1884 C 182.09 1.86241 0.617142 0
M  V30 1885 O 181.215 1.5834 1.47503 0
M  V30 1886 C 181.81 3.01599 -1.5435 0
M  V30 1887 C 180.369 3.51467 -1.34714 0
M  V30 1888 C 179.516 2.26648 -1.59769 0
M  V30 1889 H 182.467 0.970226 -1.25588 0
M  V30 1890 H 182.488 3.67709 -0.978267 0
M  V30 1891 H 182 2.86856 -2.6141 0
M  V30 1892 H 180.101 3.71408 -0.297838 0
M  V30 1893 H 180.214 4.314 -2.08401 0
M  V30 1894 H 178.578 2.33385 -1.01998 0
M  V30 1895 H 179.361 2.14467 -2.68065 0
M  V30 1896 N 181.806 0.884767 1.30421 0
M  V30 1897 C 182.756 0.322846 2.25703 0
M  V30 1898 C 183.74 -0.548582 1.51259 0
M  V30 1899 O 184.932 -0.39304 1.72581 0
M  V30 1900 C 182.061 -0.461787 3.4018 0
M  V30 1901 C 181.147 0.423717 4.21978 0
M  V30 1902 N 181.538 1.52408 4.82292 0
M  V30 1903 C 179.836 0.218795 4.45463 0
M  V30 1904 C 180.537 2.07136 5.43571 0
M  V30 1905 N 179.513 1.36635 5.26148 0
M  V30 1906 H 183.315 1.16363 2.69883 0
M  V30 1907 H 180.829 0.73415 1.44859 0
M  V30 1908 H 182.826 -0.880985 4.07485 0
M  V30 1909 H 181.486 -1.30001 2.9754 0
M  V30 1910 H 182.497 1.90693 4.81515 0
M  V30 1911 H 179.174 -0.582275 4.1342 0
M  V30 1912 H 180.564 2.99538 6.01437 0
M  V30 1913 N 183.284 -1.43765 0.645699 0
M  V30 1914 C 184.695 -1.85193 0.236719 0
M  V30 1915 C 185.046 -1.54045 -1.21509 0
M  V30 1916 O 184.171 -0.985694 -1.92647 0
M  V30 1917 C 184.766 -3.36151 0.422845 0
M  V30 1918 C 183.325 -3.76338 0.0682492 0
M  V30 1919 C 182.472 -2.67538 0.729306 0
M  V30 1920 H 185.423 -1.34025 0.849883 0
M  V30 1921 H 185.444 -3.79032 -0.333904 0
M  V30 1922 H 184.956 -3.5879 1.47958 0
M  V30 1923 H 183.057 -3.59312 -0.986179 0
M  V30 1924 H 183.17 -4.76603 0.488469 0
M  V30 1925 H 181.534 -2.54176 0.163235 0
M  V30 1926 H 182.317 -2.93006 1.78892 0
M  V30 1927 N 184.763 -0.387143 -1.52771 0
M  V30 1928 C 185.693 0.440551 -2.29306 0
M  V30 1929 C 186.674 1.06535 -1.32606 0
M  V30 1930 O 187.859 1.07853 -1.61497 0
M  V30 1931 C 184.989 1.56919 -3.09829 0
M  V30 1932 C 183.943 1.07054 -4.14395 0
M  V30 1933 C 183.269 2.29109 -4.83129 0
M  V30 1934 C 184.569 0.140015 -5.22112 0
M  V30 1935 H 186.263 -0.198026 -2.98744 0
M  V30 1936 H 183.809 -0.09668 -1.43675 0
M  V30 1937 H 185.762 2.15503 -3.62128 0
M  V30 1938 H 184.486 2.23532 -2.3812 0
M  V30 1939 H 183.145 0.507247 -3.63074 0
M  V30 1940 H 182.793 2.94227 -4.0797 0
M  V30 1941 H 182.493 1.96406 -5.53804 0
M  V30 1942 H 184.017 2.88339 -5.38231 0
M  V30 1943 H 185.431 0.633978 -5.69784 0
M  V30 1944 H 183.828 -0.0971485 -6.00021 0
M  V30 1945 H 184.898 -0.811711 -4.78058 0
M  V30 1946 N 186.241 1.57166 -0.116904 0
M  V30 1947 C 187.189 2.16457 0.851418 0
M  V30 1948 C 188.183 1.11323 1.27686 0
M  V30 1949 O 189.389 1.2963 1.24884 0
M  V30 1950 H 185.764 0.69271 0.292672 0
M  V30 1951 H 187.735 2.96605 0.32685 0
M  V30 1952 C 186.484 2.77689 2.09246 0
M  V30 1953 H 185.807 3.58285 1.77402 0
M  V30 1954 H 187.247 3.22716 2.7501 0
M  V30 1955 C 185.706 1.74667 2.88085 0
M  V30 1956 O 186.236 1.19877 3.83396 0
M  V30 1957 N 184.442 1.44656 2.52038 0
M  V30 1958 H 183.989 1.89402 1.74599 0
M  V30 1959 H 183.947 0.759675 3.05084 0
M  V30 1960 N 187.719 -0.156864 1.56817 0
M  V30 1961 C 188.682 -1.17781 1.96622 0
M  V30 1962 C 189.682 -1.36401 0.851555 0
M  V30 1963 O 190.872 -1.33561 1.11836 0
M  V30 1964 C 188.004 -2.54008 2.27361 0
M  V30 1965 H 189.197 -0.836564 2.87996 0
M  V30 1966 H 186.75 -0.39985 1.51099 0
M  V30 1967 H 187.485 -2.9312 1.38748 0
M  V30 1968 H 187.27 -2.41856 3.08623 0
M  V30 1969 H 188.76 -3.27558 2.59029 0
M  V30 1970 N 189.197 -1.51736 -0.425897 0
M  V30 1971 C 190.127 -1.76827 -1.52494 0
M  V30 1972 C 191.108 -0.618524 -1.58456 0
M  V30 1973 O 192.293 -0.862416 -1.74 0
M  V30 1974 C 189.423 -1.90374 -2.90474 0
M  V30 1975 C 188.377 -3.0588 -2.99369 0
M  V30 1976 C 187.703 -3.04625 -4.3944 0
M  V30 1977 C 189.003 -4.45644 -2.72394 0
M  V30 1978 H 190.697 -2.68855 -1.31748 0
M  V30 1979 H 188.243 -1.29372 -0.632362 0
M  V30 1980 H 190.196 -2.0651 -3.6733 0
M  V30 1981 H 188.92 -0.95004 -3.12477 0
M  V30 1982 H 187.579 -2.89467 -2.24954 0
M  V30 1983 H 187.227 -2.0701 -4.58428 0
M  V30 1984 H 186.927 -3.82195 -4.46319 0
M  V30 1985 H 188.451 -3.22869 -5.18255 0
M  V30 1986 H 189.865 -4.62348 -3.38979 0
M  V30 1987 H 188.262 -5.25006 -2.9067 0
M  V30 1988 H 189.332 -4.54893 -1.67929 0
M  V30 1989 N 190.675 0.682077 -1.42076 0
M  V30 1990 C 191.903 1.47057 -1.4554 0
M  V30 1991 C 192.318 1.8869 -0.0645779 0
M  V30 1992 O 191.675 1.57666 0.919115 0
M  V30 1993 C 191.726 2.72442 -2.37609 0
M  V30 1994 O 191.447 2.32559 -3.71279 0
M  V30 1995 C 192.948 3.66069 -2.50017 0
M  V30 1996 H 190.168 0.452737 -0.495248 0
M  V30 1997 H 192.712 0.838695 -1.8651 0
M  V30 1998 H 190.867 3.31835 -1.9991 0
M  V30 1999 H 191.281 3.13475 -4.20516 0
M  V30 2000 H 192.755 4.50792 -3.18576 0
M  V30 2001 H 193.232 4.11476 -1.53572 0
M  V30 2002 H 193.838 3.12572 -2.88407 0
M  V30 2003 N 192.153 1.28127 0.917671 0
M  V30 2004 C 193.116 1.11744 2.00115 0
M  V30 2005 C 194.116 0.0583052 1.60694 0
M  V30 2006 O 195.306 0.303755 1.71531 0
M  V30 2007 C 192.438 0.704862 3.33533 0
M  V30 2008 H 193.631 2.07966 2.16079 0
M  V30 2009 H 191.184 1.11058 1.09981 0
M  V30 2010 H 191.919 -0.258299 3.2327 0
M  V30 2011 H 191.704 1.4699 3.63505 0
M  V30 2012 H 193.194 0.612768 4.1308 0
M  V30 2013 N 193.631 -1.12557 1.10312 0
M  V30 2014 C 194.908 -1.80363 0.756878 0
M  V30 2015 C 195.288 -1.97067 -0.756824 0
M  V30 2016 O 194.636 -1.54601 -1.68259 0
M  V30 2017 C 194.846 -3.14812 1.50647 0
M  V30 2018 C 196.194 -3.90029 1.67817 0
M  V30 2019 O 197.218 -3.24464 1.46974 0
M  V30 2020 O 196.077 -5.07652 2.02365 0
M  V30 2021 H 193.171 -0.780667 0.272926 0
M  V30 2022 H 195.717 -1.19404 1.20586 0
M  V30 2023 H 194.489 -2.97936 2.53672 0
M  V30 2024 H 194.112 -3.83478 1.05026 0
M  V30 2025 N 195.109 -0.891671 -1.2995 0
M  V30 2026 C 196.019 -0.367691 -2.31701 0
M  V30 2027 C 197.035 0.533486 -1.6562 0
M  V30 2028 O 198.211 0.424997 -1.96865 0
M  V30 2029 C 195.276 0.403406 -3.44345 0
M  V30 2030 C 194.337 -0.528328 -4.26037 0
M  V30 2031 C 193.57 0.206063 -5.33302 0
M  V30 2032 O 193.793 1.43119 -5.52153 0
M  V30 2033 O 192.727 -0.447281 -6.00236 0
M  V30 2034 H 196.553 -1.21163 -2.78484 0
M  V30 2035 H 194.138 -0.655725 -1.34241 0
M  V30 2036 H 196.02 0.839753 -4.12948 0
M  V30 2037 H 194.695 1.22354 -2.99685 0
M  V30 2038 H 193.602 -1.01362 -3.60106 0
M  V30 2039 H 194.935 -1.31465 -4.74318 0
M  V30 2040 N 196.587 1.43421 -0.653314 0
M  V30 2041 C 197.836 2.01032 -0.164076 0
M  V30 2042 C 198.149 1.52147 1.22926 0
M  V30 2043 O 199.355 2.02031 1.81371 0
M  V30 2044 C 197.811 3.59082 -0.24252 0
M  V30 2045 C 197.419 4.1696 -1.63855 0
M  V30 2046 C 199.163 4.24079 0.18911 0
M  V30 2047 C 197.07 5.67304 -1.67092 0
M  V30 2048 H 196 0.751798 -0.0575769 0
M  V30 2049 H 198.651 1.6439 -0.815362 0
M  V30 2050 H 197.033 3.93125 0.476276 0
M  V30 2051 H 198.207 3.94416 -2.38271 0
M  V30 2052 H 196.522 3.64335 -2.01616 0
M  V30 2053 H 199.119 5.34381 0.184775 0
M  V30 2054 H 199.462 3.98005 1.22056 0
M  V30 2055 H 199.995 3.94918 -0.477938 0
M  V30 2056 H 196.734 5.98145 -2.68146 0
M  V30 2057 H 196.254 5.91904 -0.970014 0
M  V30 2058 H 197.933 6.31344 -1.4147 0
M  V30 2059 N 198.065 0.39524 1.52563 0
M  V30 2060 C 199.012 -0.437036 2.26624 0
M  V30 2061 C 199.982 -1.05281 1.28472 0
M  V30 2062 O 201.167 -1.07971 1.57311 0
M  V30 2063 C 198.307 -1.55524 3.08069 0
M  V30 2064 C 197.42 -0.961745 4.21158 0
M  V30 2065 C 196.555 -2.05149 4.89987 0
M  V30 2066 C 195.594 -1.4342 5.95061 0
M  V30 2067 N 194.731 -2.46351 6.57462 0
M  V30 2068 H 199.571 0.200976 2.97322 0
M  V30 2069 H 197.108 0.110944 1.46681 0
M  V30 2070 H 199.066 -2.21437 3.53584 0
M  V30 2071 H 197.696 -2.16348 2.3957 0
M  V30 2072 H 196.748 -0.192048 3.79915 0
M  V30 2073 H 198.06 -0.470701 4.96574 0
M  V30 2074 H 197.214 -2.78819 5.38837 0
M  V30 2075 H 195.953 -2.57615 4.14109 0
M  V30 2076 H 194.958 -0.682774 5.45544 0
M  V30 2077 H 196.183 -0.917416 6.72875 0
M  V30 2078 H 194.129 -2.97975 5.8442 0
M  V30 2079 H 194.046 -2.02019 7.28508 0
M  V30 2080 H 195.314 -3.19633 7.10954 0
M  V30 2081 N 199.544 -1.57102 0.125237 0
M  V30 2082 C 200.476 -2.12726 -0.853237 0
M  V30 2083 C 201.489 -1.07145 -1.22571 0
M  V30 2084 O 202.678 -1.34497 -1.17358 0
M  V30 2085 C 199.778 -2.61709 -2.15317 0
M  V30 2086 C 198.951 -3.91456 -1.95143 0
M  V30 2087 C 198.01 -4.25973 -3.08923 0
M  V30 2088 O 197.036 -4.94682 -2.81564 0
M  V30 2089 N 198.238 -3.83795 -4.35524 0
M  V30 2090 H 201.003 -2.97307 -0.377964 0
M  V30 2091 H 198.564 -1.61792 -0.0590011 0
M  V30 2092 H 200.556 -2.81826 -2.90441 0
M  V30 2093 H 199.126 -1.81974 -2.54174 0
M  V30 2094 H 198.346 -3.80185 -1.04177 0
M  V30 2095 H 199.634 -4.76283 -1.78976 0
M  V30 2096 H 199.032 -3.2839 -4.60626 0
M  V30 2097 H 197.589 -4.09008 -5.07499 0
M  V30 2098 N 201.022 0.148545 -1.56898 0
M  V30 2099 C 201.985 1.16736 -1.97244 0
M  V30 2100 C 202.985 1.35947 -0.858777 0
M  V30 2101 O 204.175 1.32966 -1.12542 0
M  V30 2102 C 201.307 2.52798 -2.28705 0
M  V30 2103 H 202.5 0.821279 -2.88435 0
M  V30 2104 H 200.053 0.391831 -1.51309 0
M  V30 2105 H 200.788 2.92381 -1.403 0
M  V30 2106 H 200.573 2.40216 -3.09901 0
M  V30 2107 H 202.063 3.26179 -2.60762 0
M  V30 2108 N 202.5 1.5196 0.417844 0
M  V30 2109 C 203.746 1.65836 1.16732 0
M  V30 2110 C 204.079 0.382881 1.90388 0
M  V30 2111 O 203.354 -0.618368 1.84408 0
M  V30 2112 C 203.637 2.87466 2.16876 0
M  V30 2113 C 203.49 4.25041 1.47174 0
M  V30 2114 C 204.809 3.04613 3.17646 0
M  V30 2115 H 201.928 0.603515 0.423011 0
M  V30 2116 H 204.57 1.84494 0.454105 0
M  V30 2117 H 202.72 2.71689 2.777 0
M  V30 2118 H 204.392 4.52527 0.895376 0
M  V30 2119 H 202.635 4.26843 0.773806 0
M  V30 2120 H 203.306 5.06176 2.20204 0
M  V30 2121 H 205.782 3.1923 2.66892 0
M  V30 2122 H 204.658 3.91247 3.8499 0
M  V30 2123 H 204.919 2.17541 3.84874 0
M  V30 2124 N 203.978 -0.674533 1.42435 0
M  V30 2125 C 204.888 -1.81751 1.48337 0
M  V30 2126 C 205.904 -1.69975 0.372099 0
M  V30 2127 O 207.08 -1.91521 0.62304 0
M  V30 2128 C 204.145 -3.17895 1.38361 0
M  V30 2129 C 203.206 -3.41625 2.59982 0
M  V30 2130 C 202.439 -4.71274 2.50473 0
M  V30 2131 O 202.662 -5.49197 1.54075 0
M  V30 2132 O 201.596 -4.96254 3.4061 0
M  V30 2133 H 205.422 -1.79728 2.44809 0
M  V30 2134 H 203.007 -0.830312 1.24202 0
M  V30 2135 H 204.889 -3.99136 1.35161 0
M  V30 2136 H 203.564 -3.20555 0.450144 0
M  V30 2137 H 202.471 -2.60231 2.68757 0
M  V30 2138 H 203.804 -3.43796 3.52229 0
M  V30 2139 N 205.456 -1.28612 -0.910864 0
M  V30 2140 C 206.705 -1.15311 -1.65488 0
M  V30 2141 C 207.018 0.296999 -1.93332 0
M  V30 2142 O 208.224 0.551168 -2.65847 0
M  V30 2143 C 206.68 -2.01599 -2.98137 0
M  V30 2144 C 206.288 -3.51367 -2.7793 0
M  V30 2145 C 208.032 -1.96993 -3.76024 0
M  V30 2146 C 205.939 -4.29797 -4.06237 0
M  V30 2147 H 204.869 -0.42796 -0.620779 0
M  V30 2148 H 207.52 -1.53166 -1.01057 0
M  V30 2149 H 205.902 -1.56603 -3.63719 0
M  V30 2150 H 207.076 -4.0434 -2.21011 0
M  V30 2151 H 205.391 -3.57529 -2.13452 0
M  V30 2152 H 207.988 -2.52856 -4.71135 0
M  V30 2153 H 208.331 -0.94733 -4.05378 0
M  V30 2154 H 208.864 -2.39973 -3.17266 0
M  V30 2155 H 205.603 -5.32648 -3.82055 0
M  V30 2156 H 205.123 -3.81596 -4.62757 0
M  V30 2157 H 206.802 -4.39869 -4.74473 0
M  V30 2158 N 206.934 1.1197 -1.10907 0
M  V30 2159 C 208.18 1.8386 -0.855773 0
M  V30 2160 C 208.513 1.84134 0.617103 0
M  V30 2161 O 207.788 1.29041 1.45529 0
M  V30 2162 C 208.071 3.31305 -1.411 0
M  V30 2163 C 207.924 3.39456 -2.9511 0
M  V30 2164 C 209.243 4.2721 -1.05736 0
M  V30 2165 H 206.362 0.667545 -0.312334 0
M  V30 2166 H 209.004 1.31331 -1.37303 0
M  V30 2167 H 207.154 3.76169 -0.97105 0
M  V30 2168 H 208.826 3.03191 -3.47668 0
M  V30 2169 H 207.069 2.79849 -3.31462 0
M  V30 2170 H 207.74 4.43209 -3.29044 0
M  V30 2171 H 210.216 3.90497 -1.43706 0
M  V30 2172 H 209.092 5.28775 -1.47269 0
M  V30 2173 H 209.353 4.42088 0.0325958 0
M  V30 2174 N 208.412 0.89855 1.29475 0
M  V30 2175 C 209.359 0.373819 2.27753 0
M  V30 2176 C 210.329 -0.543444 1.56958 0
M  V30 2177 O 211.514 -0.468934 1.84948 0
M  V30 2178 C 208.654 -0.393648 3.42848 0
M  V30 2179 C 207.767 0.554379 4.28428 0
M  V30 2180 C 206.902 -0.230026 5.30702 0
M  V30 2181 C 205.941 0.712599 6.07938 0
M  V30 2182 N 205.078 -0.0373283 7.0209 0
M  V30 2183 H 209.918 1.21699 2.72017 0
M  V30 2184 H 207.455 0.611456 1.33789 0
M  V30 2185 H 209.413 -0.85466 4.08352 0
M  V30 2186 H 208.043 -1.20128 2.99615 0
M  V30 2187 H 207.095 1.13391 3.63107 0
M  V30 2188 H 208.407 1.27597 4.82204 0
M  V30 2189 H 207.561 -0.752288 6.02018 0
M  V30 2190 H 206.3 -0.984758 4.77654 0
M  V30 2191 H 205.305 1.24637 5.35486 0
M  V30 2192 H 206.53 1.46664 6.63074 0
M  V30 2193 H 204.476 -0.774348 6.51414 0
M  V30 2194 H 204.393 0.624374 7.53417 0
M  V30 2195 H 205.661 -0.539891 7.77628 0
M  V30 2196 N 209.89 -1.43072 0.660911 0
M  V30 2197 C 210.853 -2.29194 -0.0166406 0
M  V30 2198 C 211.853 -1.42609 -0.742912 0
M  V30 2199 O 213.043 -1.64155 -0.583004 0
M  V30 2200 C 210.175 -3.24831 -1.0343 0
M  V30 2201 H 211.368 -2.90596 0.741208 0
M  V30 2202 H 208.921 -1.5048 0.422532 0
M  V30 2203 H 209.656 -2.68339 -1.82111 0
M  V30 2204 H 209.441 -3.88676 -0.517082 0
M  V30 2205 H 210.931 -3.89451 -1.50723 0
M  V30 2206 N 211.368 -0.403325 -1.52352 0
M  V30 2207 C 212.593 0.176499 -2.06648 0
M  V30 2208 C 213.018 1.38577 -1.27193 0
M  V30 2209 O 212.376 1.7879 -0.300637 0
M  V30 2210 C 212.424 0.511061 -3.5696 0
M  V30 2211 O 211.528 1.60294 -3.79973 0
M  V30 2212 H 210.869 0.0167337 -0.663789 0
M  V30 2213 H 213.399 -0.574848 -1.96359 0
M  V30 2214 H 213.409 0.771362 -4.00642 0
M  V30 2215 H 212.084 -0.37296 -4.14224 0
M  V30 2216 H 210.661 1.33526 -3.48174 0
M  V30 2217 N 212.846 1.57033 -0.133567 0
M  V30 2218 C 213.809 2.14897 0.796995 0
M  V30 2219 C 214.809 1.0874 1.18458 0
M  V30 2220 O 215.999 1.34446 1.1077 0
M  V30 2221 C 213.131 2.70112 2.07973 0
M  V30 2222 H 214.324 2.98457 0.293873 0
M  V30 2223 H 211.877 1.55871 0.115787 0
M  V30 2224 H 212.612 1.9018 2.62682 0
M  V30 2225 H 212.397 3.47764 1.81115 0
M  V30 2226 H 213.887 3.14738 2.74462 0
M  V30 2227 N 214.325 -0.140222 1.56975 0
M  V30 2228 C 215.602 -0.880769 1.74648 0
M  V30 2229 C 215.982 -1.99036 0.703404 0
M  V30 2230 O 215.33 -2.26821 -0.27648 0
M  V30 2231 C 215.54 -1.417 3.18939 0
M  V30 2232 C 216.888 -1.87774 3.80823 0
M  V30 2233 O 217.912 -1.51427 3.2241 0
M  V30 2234 O 216.771 -2.54827 4.83452 0
M  V30 2235 H 213.865 -0.416713 0.714338 0
M  V30 2236 H 216.411 -0.125618 1.69234 0
M  V30 2237 H 215.183 -0.619902 3.86359 0
M  V30 2238 H 214.806 -2.23546 3.28805 0
M  V30 2239 N 215.803 -1.52179 -0.40978 0
M  V30 2240 C 217.05 -1.66206 -1.15679 0
M  V30 2241 C 217.378 -0.391674 -1.90516 0
M  V30 2242 O 216.633 0.62533 -1.8544 0
M  V30 2243 C 216.932 -2.83428 -2.17723 0
M  V30 2244 C 216.598 -4.21672 -1.59699 0
M  V30 2245 C 215.26 -4.59274 -1.43599 0
M  V30 2246 C 217.612 -5.07825 -1.17317 0
M  V30 2247 C 214.94 -5.80709 -0.836328 0
M  V30 2248 C 217.292 -6.29864 -0.587691 0
M  V30 2249 C 215.956 -6.66216 -0.413818 0
M  V30 2250 H 215.226 -0.608192 -0.423301 0
M  V30 2251 H 217.873 -1.86279 -0.444097 0
M  V30 2252 H 216.178 -2.57687 -2.95135 0
M  V30 2253 H 217.875 -2.91477 -2.75394 0
M  V30 2254 H 214.465 -3.9204 -1.73213 0
M  V30 2255 H 218.649 -4.79359 -1.28565 0
M  V30 2256 H 213.905 -6.07498 -0.689626 0
M  V30 2257 H 218.079 -6.95948 -0.250894 0
M  V30 2258 H 215.706 -7.60182 0.0529471 0
M  V30 2259 N 217.281 0.66697 -1.42791 0
M  V30 2260 C 218.228 1.7803 -1.4688 0
M  V30 2261 C 219.198 1.6299 -0.319919 0
M  V30 2262 O 220.383 1.83432 -0.525118 0
M  V30 2263 C 217.523 3.1611 -1.38451 0
M  V30 2264 C 216.636 3.42381 -2.63437 0
M  V30 2265 C 215.771 4.70232 -2.47094 0
M  V30 2266 C 214.81 4.89564 -3.67415 0
M  V30 2267 N 213.947 6.08661 -3.49966 0
M  V30 2268 H 218.787 1.7387 -2.42019 0
M  V30 2269 H 216.324 0.84868 -1.20149 0
M  V30 2270 H 218.282 3.95914 -1.31561 0
M  V30 2271 H 216.912 3.19374 -0.469033 0
M  V30 2272 H 215.964 2.56774 -2.80662 0
M  V30 2273 H 217.276 3.52557 -3.52853 0
M  V30 2274 H 216.43 5.5814 -2.37834 0
M  V30 2275 H 215.169 4.62353 -1.5518 0
M  V30 2276 H 214.174 4.00096 -3.77099 0
M  V30 2277 H 215.399 4.99282 -4.6032 0
M  V30 2278 H 213.345 6.0194 -2.60776 0
M  V30 2279 H 213.262 6.19733 -4.32975 0
M  V30 2280 H 214.53 6.99226 -3.44532 0
M  V30 2281 N 218.759 1.29093 0.90403 0
M  V30 2282 C 220.17 1.15186 1.46932 0
M  V30 2283 C 220.521 -0.254587 1.94541 0
M  V30 2284 O 219.646 -1.14972 1.83332 0
M  V30 2285 C 220.241 2.08492 2.67051 0
M  V30 2286 C 218.8 1.98621 3.19729 0
M  V30 2287 C 217.947 1.9967 1.92425 0
M  V30 2288 H 220.898 1.41641 0.715789 0
M  V30 2289 H 220.919 1.65461 3.42641 0
M  V30 2290 H 220.431 3.10847 2.3237 0
M  V30 2291 H 218.532 0.993389 3.59114 0
M  V30 2292 H 218.645 2.86068 3.8432 0
M  V30 2293 H 217.009 1.44208 2.09943 0
M  V30 2294 H 217.792 3.03721 1.60026 0
M  V30 2295 N 220.237 -1.11381 1.11499 0
M  V30 2296 C 221.185 -2.19522 0.768956 0
M  V30 2297 C 222.179 -1.67693 -0.239857 0
M  V30 2298 O 223.385 -1.79727 -0.0990755 0
M  V30 2299 H 219.76 -0.715711 0.230786 0
M  V30 2300 H 221.731 -2.45954 1.68964 0
M  V30 2301 C 220.48 -3.46945 0.229073 0
M  V30 2302 H 219.803 -3.8718 0.996596 0
M  V30 2303 H 221.243 -4.23993 0.0251441 0
M  V30 2304 C 219.702 -3.2042 -1.04079 0
M  V30 2305 O 220.232 -3.41178 -2.12038 0
M  V30 2306 N 218.438 -2.74151 -0.963823 0
M  V30 2307 H 217.985 -2.57459 -0.0851722 0
M  V30 2308 H 217.943 -2.56781 -1.81414 0
M  V30 2309 N 221.715 -0.905404 -1.28997 0
M  V30 2310 C 222.943 -0.549846 -1.9946 0
M  V30 2311 C 223.358 0.866834 -1.67724 0
M  V30 2312 O 222.715 1.57298 -0.925404 0
M  V30 2313 C 222.766 -0.739387 -3.53858 0
M  V30 2314 O 222.487 -2.10031 -3.84472 0
M  V30 2315 C 223.988 -0.389541 -4.41585 0
M  V30 2316 H 221.208 -0.210429 -0.637151 0
M  V30 2317 H 223.752 -1.21632 -1.64396 0
M  V30 2318 H 221.907 -0.120023 -3.87214 0
M  V30 2319 H 222.321 -2.13385 -4.79132 0
M  V30 2320 H 223.795 -0.572972 -5.49018 0
M  V30 2321 H 224.272 0.673756 -4.34001 0
M  V30 2322 H 224.878 -0.986089 -4.1371 0
M  V30 2323 N 223.193 1.4272 -0.668489 0
M  V30 2324 C 224.609 1.55992 -0.33745 0
M  V30 2325 C 224.809 1.64933 1.15756 0
M  V30 2326 O 223.865 1.61278 1.94282 0
M  V30 2327 C 225.178 2.81314 -1.06222 0
M  V30 2328 C 226.726 2.95078 -1.04394 0
M  V30 2329 C 227.201 4.23252 -1.74991 0
M  V30 2330 N 228.692 4.3015 -1.71829 0
M  V30 2331 C 229.427 5.28127 -2.23315 0
M  V30 2332 N 228.923 6.32293 -2.83156 0
M  V30 2333 N 230.716 5.19882 -2.13726 0
M  V30 2334 H 222.867 1.3516 -1.63846 0
M  V30 2335 H 225.13 0.650174 -0.689912 0
M  V30 2336 H 224.836 2.80823 -2.11734 0
M  V30 2337 H 224.71 3.72012 -0.62344 0
M  V30 2338 H 227.097 2.951 0.0028244 0
M  V30 2339 H 227.178 2.05627 -1.52155 0
M  V30 2340 H 226.822 4.2399 -2.79633 0
M  V30 2341 H 226.752 5.11626 -1.24685 0
M  V30 2342 H 229.243 3.55499 -1.28175 0
M  V30 2343 H 229.556 7.03398 -3.20079 0
M  V30 2344 H 227.901 6.32873 -2.87223 0
M  V30 2345 H 231.092 4.37423 -1.66669 0
M  V30 2346 H 231.265 5.96077 -2.54158 0
M  V30 2347 N 224.671 0.411399 1.52136 0
M  V30 2348 C 225.918 -0.163645 2.01838 0
M  V30 2349 C 226.246 -1.4495 1.29691 0
M  V30 2350 O 225.501 -1.91725 0.392431 0
M  V30 2351 C 225.8 -0.455872 3.54481 0
M  V30 2352 C 225.466 0.741055 4.44769 0
M  V30 2353 C 224.128 1.06936 4.69167 0
M  V30 2354 C 226.48 1.54075 4.97906 0
M  V30 2355 C 223.808 2.19851 5.43951 0
M  V30 2356 C 226.16 2.66067 5.73926 0
M  V30 2357 C 224.824 2.99381 5.96596 0
M  V30 2358 H 224.094 -0.0598821 0.738576 0
M  V30 2359 H 226.741 0.553283 1.83333 0
M  V30 2360 H 225.046 -1.2544 3.71177 0
M  V30 2361 H 226.743 -0.913802 3.90449 0
M  V30 2362 H 223.333 0.475192 4.25958 0
M  V30 2363 H 227.517 1.30033 4.78963 0
M  V30 2364 H 222.773 2.46006 5.59724 0
M  V30 2365 H 226.947 3.28419 6.14096 0
M  V30 2366 H 224.574 3.86992 6.54325 0
M  V30 2367 N 226.149 -1.5696 0.141893 0
M  V30 2368 C 227.377 -2.00322 -0.517579 0
M  V30 2369 C 227.792 -1.02193 -1.58752 0
M  V30 2370 O 227.149 -0.0181619 -1.82491 0
M  V30 2371 C 227.2 -3.43618 -1.12289 0
M  V30 2372 O 226.921 -4.37995 -0.0956929 0
M  V30 2373 C 228.422 -4.02231 -1.86347 0
M  V30 2374 H 225.642 -0.657243 -0.135177 0
M  V30 2375 H 228.186 -2.03146 0.234973 0
M  V30 2376 H 226.341 -3.41662 -1.82609 0
M  V30 2377 H 226.755 -5.21729 -0.538469 0
M  V30 2378 H 228.229 -5.04509 -2.23997 0
M  V30 2379 H 228.706 -3.42655 -2.74744 0
M  V30 2380 H 229.312 -4.07802 -1.20737 0
M  V30 2381 N 227.627 0.131896 -1.57047 0
M  V30 2382 C 228.537 1.1815 -2.02676 0
M  V30 2383 C 229.553 1.46113 -0.944824 0
M  V30 2384 O 230.729 1.57485 -1.25541 0
M  V30 2385 C 227.794 2.49139 -2.41103 0
M  V30 2386 C 226.855 2.28688 -3.63318 0
M  V30 2387 C 226.088 3.53431 -3.99903 0
M  V30 2388 O 226.311 4.60223 -3.36973 0
M  V30 2389 O 225.245 3.45198 -4.93074 0
M  V30 2390 H 229.071 0.824069 -2.92306 0
M  V30 2391 H 226.656 0.341745 -1.45439 0
M  V30 2392 H 228.538 3.26338 -2.66611 0
M  V30 2393 H 227.213 2.84382 -1.54624 0
M  V30 2394 H 226.12 1.4939 -3.42977 0
M  V30 2395 H 227.453 1.98355 -4.50462 0
M  V30 2396 N 229.106 1.52395 0.401703 0
M  V30 2397 C 230.355 1.66044 1.14509 0
M  V30 2398 C 230.668 0.400216 1.91462 0
M  V30 2399 O 231.874 0.416632 2.68284 0
M  V30 2400 C 230.33 2.93388 2.0845 0
M  V30 2401 C 229.938 4.26545 1.36978 0
M  V30 2402 C 231.682 3.16402 2.83001 0
M  V30 2403 C 229.589 5.45007 2.29611 0
M  V30 2404 H 228.519 0.618562 0.431158 0
M  V30 2405 H 231.17 1.78886 0.40892 0
M  V30 2406 H 229.552 2.74263 2.8565 0
M  V30 2407 H 230.726 4.56179 0.650916 0
M  V30 2408 H 229.041 4.09692 0.74438 0
M  V30 2409 H 231.638 4.02085 3.52465 0
M  V30 2410 H 231.981 2.30943 3.46368 0
M  V30 2411 H 232.514 3.36034 2.12898 0
M  V30 2412 H 229.253 6.32835 1.70879 0
M  V30 2413 H 228.773 5.19702 2.9945 0
M  V30 2414 H 230.452 5.7838 2.89974 0
M  V30 2415 N 230.584 -0.659388 1.43143 0
M  V30 2416 C 231.809 -1.45221 1.48073 0
M  V30 2417 C 232.234 -1.87845 0.097995 0
M  V30 2418 O 231.592 -1.56985 -0.90694 0
M  V30 2419 C 231.64 -2.66748 2.42647 0
M  V30 2420 O 230.744 -3.65583 1.90848 0
M  V30 2421 H 230.085 -0.435669 0.501088 0
M  V30 2422 H 232.615 -0.807432 1.87994 0
M  V30 2423 H 232.625 -3.14637 2.59745 0
M  V30 2424 H 231.3 -2.35067 3.43098 0
M  V30 2425 H 229.877 -3.24693 1.83381 0
M  V30 2426 N 232.062 -1.29571 -0.897171 0
M  V30 2427 C 232.992 -1.17473 -2.01798 0
M  V30 2428 C 233.973 -0.068323 -1.69963 0
M  V30 2429 O 235.158 -0.248239 -1.92607 0
M  V30 2430 C 232.288 -0.853099 -3.36659 0
M  V30 2431 C 231.242 -1.9161 -3.82713 0
M  V30 2432 C 230.568 -1.44773 -5.14728 0
M  V30 2433 C 231.868 -3.32535 -4.02763 0
M  V30 2434 H 233.562 -2.11237 -2.12177 0
M  V30 2435 H 231.108 -1.01699 -1.01948 0
M  V30 2436 H 233.061 -0.755165 -4.14578 0
M  V30 2437 H 231.785 0.120236 -3.26379 0
M  V30 2438 H 230.444 -2.00346 -3.07013 0
M  V30 2439 H 230.092 -0.462995 -5.00865 0
M  V30 2440 H 229.792 -2.15865 -5.46513 0
M  V30 2441 H 231.316 -1.36334 -5.95185 0
M  V30 2442 H 232.73 -3.26626 -4.71156 0
M  V30 2443 H 231.127 -4.01607 -4.45905 0
M  V30 2444 H 232.197 -3.75326 -3.07016 0
M  V30 2445 N 233.54 1.10788 -1.12088 0
M  V30 2446 C 234.47 2.19083 -0.807755 0
M  V30 2447 C 235.451 1.6858 0.226859 0
M  V30 2448 O 236.636 1.93997 0.0888475 0
M  V30 2449 C 233.766 3.46344 -0.257576 0
M  V30 2450 C 232.72 4.101 -1.22483 0
M  V30 2451 C 232.046 5.32016 -0.535052 0
M  V30 2452 C 233.346 4.54236 -2.57811 0
M  V30 2453 H 235.04 2.45534 -1.71328 0
M  V30 2454 H 232.586 1.1801 -0.825205 0
M  V30 2455 H 234.539 4.21392 -0.0262679 0
M  V30 2456 H 233.263 3.19373 0.683278 0
M  V30 2457 H 231.922 3.37054 -1.44189 0
M  V30 2458 H 231.57 5.01319 0.410827 0
M  V30 2459 H 231.27 5.75625 -1.18024 0
M  V30 2460 H 232.794 6.09799 -0.312695 0
M  V30 2461 H 234.208 5.20575 -2.40155 0
M  V30 2462 H 232.605 5.08682 -3.18375 0
M  V30 2463 H 233.675 3.6734 -3.16528 0
M  V30 2464 N 235.018 0.912232 1.28515 0
M  V30 2465 C 236.429 0.591352 1.77087 0
M  V30 2466 C 236.78 -0.8933 1.74684 0
M  V30 2467 O 235.905 -1.69876 1.34056 0
M  V30 2468 C 236.5 1.06668 3.2157 0
M  V30 2469 C 235.059 0.79675 3.67871 0
M  V30 2470 C 234.206 1.23427 2.48316 0
M  V30 2471 H 237.157 1.09365 1.15 0
M  V30 2472 H 237.178 0.407455 3.78312 0
M  V30 2473 H 236.69 2.14726 3.23287 0
M  V30 2474 H 234.791 -0.270679 3.71616 0
M  V30 2475 H 234.904 1.40343 4.58084 0
M  V30 2476 H 233.268 0.653036 2.46186 0
M  V30 2477 H 234.051 2.32316 2.52753 0
M  V30 2478 N 236.496 -1.42363 0.676048 0
M  V30 2479 C 237.907 -1.84649 0.275948 0
M  V30 2480 C 238.258 -1.56588 -1.18214 0
M  V30 2481 O 237.383 -1.02634 -1.90513 0
M  V30 2482 C 237.978 -3.35178 0.494053 0
M  V30 2483 C 236.537 -3.76109 0.148061 0
M  V30 2484 C 235.684 -2.65931 0.785891 0
M  V30 2485 H 238.635 -1.32192 0.878121 0
M  V30 2486 H 238.656 -3.79655 -0.25343 0
M  V30 2487 H 238.168 -3.55571 1.55535 0
M  V30 2488 H 236.269 -3.61323 -0.909742 0
M  V30 2489 H 236.382 -4.7546 0.589454 0
M  V30 2490 H 234.746 -2.53773 0.217113 0
M  V30 2491 H 235.529 -2.89146 1.85067 0
M  V30 2492 N 237.974 -0.419461 -1.51915 0
M  V30 2493 C 239.251 0.211999 -1.94448 0
M  V30 2494 C 239.631 1.61703 -1.35703 0
M  V30 2495 O 238.979 2.22102 -0.536931 0
M  V30 2496 C 239.189 0.207872 -3.4838 0
M  V30 2497 C 240.537 0.422192 -4.22496 0
M  V30 2498 O 241.561 0.286778 -3.55044 0
M  V30 2499 O 240.42 0.690009 -5.42126 0
M  V30 2500 H 237.514 0.139586 -0.815135 0
M  V30 2501 H 240.06 -0.476151 -1.62883 0
M  V30 2502 H 238.832 -0.775102 -3.83546 0
M  V30 2503 H 238.455 0.939688 -3.86336 0
M  V30 2504 N 239.452 1.56882 -0.150215 0
M  V30 2505 C 240.399 2.16922 0.788244 0
M  V30 2506 C 241.369 1.10303 1.24187 0
M  V30 2507 O 242.554 1.38359 1.31383 0
M  V30 2508 C 239.694 2.79754 2.02068 0
M  V30 2509 C 238.807 4.00775 1.61257 0
M  V30 2510 C 237.942 4.51595 2.79705 0
M  V30 2511 C 236.981 5.65074 2.35282 0
M  V30 2512 N 236.118 6.10499 3.4675 0
M  V30 2513 H 240.958 2.96779 0.269444 0
M  V30 2514 H 238.495 1.46599 0.12128 0
M  V30 2515 H 240.453 3.14329 2.74323 0
M  V30 2516 H 239.083 2.02536 2.51354 0
M  V30 2517 H 238.135 3.72158 0.787553 0
M  V30 2518 H 239.447 4.82978 1.24633 0
M  V30 2519 H 238.601 4.88242 3.60145 0
M  V30 2520 H 237.34 3.68406 3.19576 0
M  V30 2521 H 236.345 5.28 1.53283 0
M  V30 2522 H 237.57 6.50052 1.96493 0
M  V30 2523 H 235.516 5.30243 3.86236 0
M  V30 2524 H 235.433 6.87637 3.14152 0
M  V30 2525 H 236.701 6.51791 4.27537 0
M  V30 2526 N 240.93 -0.123565 1.57115 0
M  V30 2527 C 241.84 -1.17074 2.033 0
M  V30 2528 C 242.856 -1.4561 0.952559 0
M  V30 2529 O 244.032 -1.56817 1.26374 0
M  V30 2530 C 241.097 -2.47857 2.42421 0
M  V30 2531 C 240.158 -2.26758 3.64526 0
M  V30 2532 C 239.391 -3.51305 4.01771 0
M  V30 2533 O 239.614 -4.5843 3.39409 0
M  V30 2534 O 238.548 -3.42578 4.94898 0
M  V30 2535 H 242.374 -0.808555 2.92739 0
M  V30 2536 H 239.959 -0.334027 1.45618 0
M  V30 2537 H 241.841 -3.2492 2.68338 0
M  V30 2538 H 240.516 -2.83558 1.5613 0
M  V30 2539 H 239.423 -1.47569 3.43765 0
M  V30 2540 H 240.756 -1.95963 4.51508 0
M  V30 2541 N 242.408 -1.52605 -0.393616 0
M  V30 2542 C 243.371 -1.76415 -1.46323 0
M  V30 2543 C 244.371 -0.634126 -1.47768 0
M  V30 2544 O 245.561 -0.902142 -1.4902 0
M  V30 2545 C 242.693 -1.8607 -2.85641 0
M  V30 2546 H 243.886 -2.71916 -1.26498 0
M  V30 2547 H 241.439 -1.43257 -0.625073 0
M  V30 2548 H 242.174 -0.925378 -3.10817 0
M  V30 2549 H 241.959 -2.68235 -2.85993 0
M  V30 2550 H 243.449 -2.06179 -3.63153 0
M  V30 2551 N 243.887 0.651787 -1.4349 0
M  V30 2552 C 245.133 1.41376 -1.45398 0
M  V30 2553 C 245.466 1.94041 -0.0784823 0
M  V30 2554 O 244.741 1.72379 0.900878 0
M  V30 2555 C 245.024 2.59414 -2.49752 0
M  V30 2556 C 244.877 2.12232 -3.96582 0
M  V30 2557 C 246.196 3.61626 -2.50827 0
M  V30 2558 H 243.315 0.512719 -0.529422 0
M  V30 2559 H 245.957 0.738796 -1.75048 0
M  V30 2560 H 244.107 3.16997 -2.246 0
M  V30 2561 H 245.779 1.59639 -4.32797 0
M  V30 2562 H 244.022 1.43592 -4.09346 0
M  V30 2563 H 244.693 2.9712 -4.65214 0
M  V30 2564 H 247.169 3.13805 -2.7325 0
M  V30 2565 H 246.045 4.41766 -3.25783 0
M  V30 2566 H 246.306 4.14314 -1.5426 0
M  V30 2567 N 245.365 1.30045 0.890287 0
M  V30 2568 C 246.611 1.19747 1.64415 0
M  V30 2569 C 246.966 -0.246591 1.90813 0
M  V30 2570 O 246.259 -1.174 1.51419 0
M  V30 2571 C 246.453 1.95409 2.99249 0
M  V30 2572 C 246.282 3.47025 2.86013 0
M  V30 2573 C 245.052 4.1638 2.86279 0
M  V30 2574 C 247.25 4.42353 2.62351 0
M  V30 2575 N 245.232 5.54293 2.63879 0
M  V30 2576 C 246.603 5.67792 2.49022 0
M  V30 2577 C 248.658 4.32009 2.47533 0
M  V30 2578 C 247.361 6.8406 2.22383 0
M  V30 2579 C 249.387 5.48038 2.22279 0
M  V30 2580 C 248.749 6.72455 2.09722 0
M  V30 2581 H 244.848 0.493223 0.60684 0
M  V30 2582 H 247.432 1.6399 1.04954 0
M  V30 2583 H 245.603 1.53565 3.56752 0
M  V30 2584 H 247.335 1.77298 3.63796 0
M  V30 2585 H 244.09 3.68164 2.97913 0
M  V30 2586 H 244.514 6.26852 2.55706 0
M  V30 2587 H 249.156 3.36503 2.55979 0
M  V30 2588 H 246.874 7.79612 2.12675 0
M  V30 2589 H 250.46 5.41939 2.11643 0
M  V30 2590 H 249.34 7.60722 1.90453 0
M  V30 2591 N 246.843 -1.10192 1.12674 0
M  V30 2592 C 247.806 -2.14786 0.799979 0
M  V30 2593 C 248.806 -1.59711 -0.18685 0
M  V30 2594 O 249.996 -1.74156 0.0392558 0
M  V30 2595 C 247.128 -3.40374 0.189228 0
M  V30 2596 H 248.321 -2.45203 1.72671 0
M  V30 2597 H 245.874 -1.25597 0.930326 0
M  V30 2598 H 246.609 -3.15577 -0.747107 0
M  V30 2599 H 246.394 -3.81637 0.899766 0
M  V30 2600 H 247.884 -4.17594 -0.0228143 0
M  V30 2601 N 248.321 -0.919034 -1.28029 0
M  V30 2602 C 249.568 -0.554934 -1.94748 0
M  V30 2603 C 249.896 0.90231 -1.72304 0
M  V30 2604 O 249.151 1.65767 -1.04018 0
M  V30 2605 C 249.45 -0.816855 -3.4794 0
M  V30 2606 C 249.116 -2.25448 -3.90492 0
M  V30 2607 C 247.778 -2.64752 -4.01821 0
M  V30 2608 C 250.13 -3.18977 -4.12193 0
M  V30 2609 C 247.458 -3.96727 -4.32232 0
M  V30 2610 C 249.81 -4.50523 -4.44086 0
M  V30 2611 C 248.474 -4.89673 -4.53626 0
M  V30 2612 H 247.744 -0.203065 -0.712633 0
M  V30 2613 H 250.391 -1.16136 -1.52265 0
M  V30 2614 H 248.696 -0.127677 -3.91592 0
M  V30 2615 H 250.393 -0.514238 -3.97689 0
M  V30 2616 H 246.983 -1.93952 -3.82205 0
M  V30 2617 H 251.167 -2.89817 -4.02889 0
M  V30 2618 H 246.423 -4.26754 -4.37825 0
M  V30 2619 H 250.597 -5.23005 -4.59825 0
M  V30 2620 H 248.224 -5.91969 -4.76946 0
M  V30 2621 N 249.799 1.42003 -0.683588 0
M  V30 2622 C 250.762 2.29191 -0.0198243 0
M  V30 2623 C 251.762 1.43773 0.72013 0
M  V30 2624 O 252.952 1.65061 0.556815 0
M  V30 2625 C 250.084 3.26435 0.982487 0
M  V30 2626 H 251.277 2.8938 -0.787345 0
M  V30 2627 H 248.83 1.49789 -0.446418 0
M  V30 2628 H 249.565 2.71203 1.77819 0
M  V30 2629 H 249.35 3.89449 0.455182 0
M  V30 2630 H 250.84 3.918 1.44508 0
M  V30 2631 N 251.277 0.427512 1.51691 0
M  V30 2632 C 252.207 -0.3796 2.30394 0
M  V30 2633 C 253.188 -1.02982 1.35384 0
M  V30 2634 O 254.373 -1.03534 1.643 0
M  V30 2635 C 251.503 -1.48649 3.1388 0
M  V30 2636 C 250.457 -0.960294 4.17088 0
M  V30 2637 C 249.783 -2.16219 4.89033 0
M  V30 2638 C 251.083 -0.00153679 5.223 0
M  V30 2639 H 252.777 0.277164 2.98114 0
M  V30 2640 H 250.323 0.134739 1.43368 0
M  V30 2641 H 252.276 -2.05826 3.67714 0
M  V30 2642 H 251 -2.1714 2.43962 0
M  V30 2643 H 249.659 -0.410806 3.64291 0
M  V30 2644 H 249.307 -2.83307 4.15628 0
M  V30 2645 H 249.007 -1.81654 5.58816 0
M  V30 2646 H 250.531 -2.73968 5.45687 0
M  V30 2647 H 251.945 -0.482687 5.71264 0
M  V30 2648 H 250.342 0.256199 5.99553 0
M  V30 2649 H 251.412 0.938174 4.75738 0
M  V30 2650 N 252.755 -1.56801 0.158532 0
M  V30 2651 C 253.665 -2.20916 -0.789518 0
M  V30 2652 C 254.681 -1.1969 -1.26294 0
M  V30 2653 O 255.857 -1.52308 -1.31773 0
M  V30 2654 C 252.922 -2.82727 -2.00665 0
M  V30 2655 C 251.983 -3.99114 -1.58134 0
M  V30 2656 C 251.216 -4.57968 -2.74045 0
M  V30 2657 O 251.439 -4.15704 -3.90572 0
M  V30 2658 O 250.373 -5.48047 -2.48855 0
M  V30 2659 H 254.199 -3.02464 -0.273681 0
M  V30 2660 H 251.784 -1.4924 -0.0690548 0
M  V30 2661 H 253.666 -3.21968 -2.71872 0
M  V30 2662 H 252.341 -2.04184 -2.51179 0
M  V30 2663 H 251.248 -3.64567 -0.839155 0
M  V30 2664 H 252.581 -4.79212 -1.12325 0
M  V30 2665 N 254.233 0.115231 -1.57178 0
M  V30 2666 C 255.181 1.16014 -2.01602 0
M  V30 2667 C 256.175 1.42653 -0.913587 0
M  V30 2668 O 257.381 1.42571 -1.09879 0
M  V30 2669 H 253.756 0.391252 -0.642204 0
M  V30 2670 H 255.727 0.758998 -2.88586 0
M  V30 2671 C 254.476 2.47767 -2.4394 0
M  V30 2672 H 253.799 2.28108 -3.28339 0
M  V30 2673 H 255.239 3.19432 -2.78818 0
M  V30 2674 C 253.698 3.10617 -1.30455 0
M  V30 2675 O 254.228 3.96846 -0.622585 0
M  V30 2676 N 252.434 2.70553 -1.06064 0
M  V30 2677 H 251.981 2.00527 -1.61699 0
M  V30 2678 H 251.939 3.12934 -0.303284 0
M  V30 2679 N 255.711 1.52812 0.385517 0
M  V30 2680 C 256.658 1.77838 1.47113 0
M  V30 2681 C 257.628 0.621757 1.54024 0
M  V30 2682 O 258.813 0.861846 1.70226 0
M  V30 2683 C 255.953 1.95618 2.84302 0
M  V30 2684 C 255.066 3.23316 2.86515 0
M  V30 2685 C 254.201 3.31394 4.15152 0
M  V30 2686 C 253.24 4.53201 4.1143 0
M  V30 2687 N 252.377 4.58542 5.3168 0
M  V30 2688 H 257.217 2.70482 1.25073 0
M  V30 2689 H 254.754 1.34006 0.606692 0
M  V30 2690 H 256.712 2.03912 3.63972 0
M  V30 2691 H 255.342 1.06331 3.04784 0
M  V30 2692 H 254.394 3.24076 1.99195 0
M  V30 2693 H 255.706 4.13045 2.79634 0
M  V30 2694 H 254.86 3.3889 5.03228 0
M  V30 2695 H 253.599 2.39645 4.24761 0
M  V30 2696 H 252.604 4.45827 3.21742 0
M  V30 2697 H 253.829 5.46271 4.03442 0
M  V30 2698 H 251.775 3.69686 5.41912 0
M  V30 2699 H 251.692 5.42148 5.26889 0
M  V30 2700 H 252.96 4.70296 6.21644 0
M  V30 2701 N 257.189 -0.644168 1.43834 0
M  V30 2702 C 258.6 -1.22554 1.40845 0
M  V30 2703 C 258.951 -1.9585 0.117115 0
M  V30 2704 O 258.076 -2.01734 -0.783086 0
M  V30 2705 C 258.671 -2.22907 2.55143 0
M  V30 2706 C 257.23 -2.76501 2.5539 0
M  V30 2707 C 256.377 -1.51287 2.32396 0
M  V30 2708 H 259.328 -0.43563 1.52604 0
M  V30 2709 H 259.349 -3.05259 2.2715 0
M  V30 2710 H 258.861 -1.69533 3.49114 0
M  V30 2711 H 256.962 -3.33914 1.65324 0
M  V30 2712 H 257.075 -3.23429 3.53455 0
M  V30 2713 H 255.439 -1.78957 1.81236 0
M  V30 2714 H 256.222 -0.998336 3.28463 0
M  V30 2715 N 258.668 -1.30515 -0.883378 0
M  V30 2716 C 259.914 -1.19607 -1.63774 0
M  V30 2717 C 260.247 0.248314 -1.92606 0
M  V30 2718 O 259.522 1.17742 -1.54813 0
M  V30 2719 C 259.805 -2.02669 -2.97653 0
M  V30 2720 C 259.658 -3.55335 -2.75784 0
M  V30 2721 C 260.977 -1.86573 -3.98596 0
M  V30 2722 H 258.096 -0.435856 -0.594305 0
M  V30 2723 H 260.738 -1.60165 -1.02212 0
M  V30 2724 H 258.888 -1.68208 -3.50197 0
M  V30 2725 H 260.56 -3.99863 -2.30016 0
M  V30 2726 H 258.803 -3.79438 -2.1026 0
M  V30 2727 H 259.474 -4.08745 -3.70988 0
M  V30 2728 H 261.95 -2.16703 -3.55217 0
M  V30 2729 H 260.826 -2.47014 -4.90179 0
M  V30 2730 H 261.087 -0.825321 -4.34328 0
M  V30 2731 N 260.146 1.09593 -1.13257 0
M  V30 2732 C 261.423 1.78293 -0.804432 0
M  V30 2733 C 261.803 1.99004 0.70431 0
M  V30 2734 O 261.151 1.59007 1.641 0
M  V30 2735 C 261.361 3.10707 -1.5894 0
M  V30 2736 C 262.709 3.85443 -1.78099 0
M  V30 2737 O 263.733 3.20454 -1.55525 0
M  V30 2738 O 262.592 5.02108 -2.15753 0
M  V30 2739 H 259.686 0.773156 -0.293528 0
M  V30 2740 H 262.232 1.16164 -1.23709 0
M  V30 2741 H 261.004 2.91106 -2.61482 0
M  V30 2742 H 260.627 3.80558 -1.15157 0
M  V30 2743 N 261.624 0.925811 1.2754 0
M  V30 2744 C 262.556 0.380753 2.26015 0
M  V30 2745 C 263.569 -0.487485 1.5533 0
M  V30 2746 O 264.758 -0.300413 1.75954 0
M  V30 2747 C 261.858 -0.473259 3.35579 0
M  V30 2748 C 261.031 0.375249 4.35787 0
M  V30 2749 C 260.09 -0.415809 5.24555 0
M  V30 2750 O 259.116 0.175834 5.68928 0
M  V30 2751 N 260.318 -1.71607 5.54555 0
M  V30 2752 H 263.083 1.22725 2.73421 0
M  V30 2753 H 260.644 0.793037 1.41147 0
M  V30 2754 H 262.636 -1.00949 3.91907 0
M  V30 2755 H 261.206 -1.2205 2.87789 0
M  V30 2756 H 260.426 1.09279 3.7875 0
M  V30 2757 H 261.714 0.955399 4.99749 0
M  V30 2758 H 261.112 -2.2191 5.20358 0
M  V30 2759 H 259.669 -2.19887 6.1359 0
M  V30 2760 N 263.102 -1.41638 0.69111 0
M  V30 2761 C 264.513 -1.84346 0.295517 0
M  V30 2762 C 264.864 -1.57833 -1.16547 0
M  V30 2763 O 263.989 -1.04648 -1.89414 0
M  V30 2764 C 264.584 -3.34636 0.529575 0
M  V30 2765 C 263.143 -3.7593 0.187944 0
M  V30 2766 C 262.29 -2.65082 0.814052 0
M  V30 2767 H 265.241 -1.31253 0.892092 0
M  V30 2768 H 265.262 -3.79903 -0.213148 0
M  V30 2769 H 264.774 -3.53901 1.59297 0
M  V30 2770 H 262.875 -3.62268 -0.871367 0
M  V30 2771 H 262.988 -4.74808 0.63985 0
M  V30 2772 H 261.352 -2.53528 0.244017 0
M  V30 2773 H 262.135 -2.87167 1.88123 0
M  V30 2774 N 264.58 -0.43555 -1.51462 0
M  V30 2775 C 265.996 -0.0877501 -1.59359 0
M  V30 2776 C 266.196 1.4027 -1.4466 0
M  V30 2777 O 265.252 2.17243 -1.28693 0
M  V30 2778 C 266.565 -0.606264 -2.94525 0
M  V30 2779 C 268.113 -0.566548 -3.0783 0
M  V30 2780 C 268.588 -1.06201 -4.45517 0
M  V30 2781 N 270.079 -1.01992 -4.51832 0
M  V30 2782 C 270.814 -1.37417 -5.5669 0
M  V30 2783 N 270.31 -1.80119 -6.68976 0
M  V30 2784 N 272.103 -1.29245 -5.47039 0
M  V30 2785 H 264.254 -1.40533 -1.59261 0
M  V30 2786 H 266.517 -0.578992 -0.750648 0
M  V30 2787 H 266.223 -1.64901 -3.10645 0
M  V30 2788 H 266.097 -0.0302097 -3.77188 0
M  V30 2789 H 268.484 0.467208 -2.91378 0
M  V30 2790 H 268.565 -1.17898 -2.2701 0
M  V30 2791 H 268.209 -2.09422 -4.62715 0
M  V30 2792 H 268.139 -0.426127 -5.24873 0
M  V30 2793 H 270.63 -0.706308 -3.71241 0
M  V30 2794 H 270.943 -2.05392 -7.45006 0
M  V30 2795 H 269.288 -1.84044 -6.70189 0
M  V30 2796 H 272.479 -0.957522 -4.58202 0
M  V30 2797 H 272.652 -1.57182 -6.28648 0
M  V30 2798 N 266.058 1.56714 -0.166846 0
M  V30 2799 C 267.005 2.17746 0.765193 0
M  V30 2800 C 267.975 1.11614 1.23011 0
M  V30 2801 O 269.16 1.39745 1.29908 0
M  V30 2802 C 266.3 2.81882 1.9909 0
M  V30 2803 C 265.413 4.02462 1.56997 0
M  V30 2804 C 264.548 4.54537 2.749 0
M  V30 2805 C 263.587 5.67538 2.29275 0
M  V30 2806 N 262.724 6.14142 3.40255 0
M  V30 2807 H 267.564 2.97048 0.237952 0
M  V30 2808 H 265.101 1.4672 0.105725 0
M  V30 2809 H 267.059 3.17221 2.70974 0
M  V30 2810 H 265.689 2.05191 2.49192 0
M  V30 2811 H 264.741 3.72973 0.748037 0
M  V30 2812 H 266.053 4.84273 1.19503 0
M  V30 2813 H 265.207 4.92035 3.54946 0
M  V30 2814 H 263.946 3.71774 3.1565 0
M  V30 2815 H 262.951 5.29597 1.47674 0
M  V30 2816 H 264.176 6.52099 1.89588 0
M  V30 2817 H 262.122 5.3431 3.8059 0
M  V30 2818 H 262.039 6.9093 3.06841 0
M  V30 2819 H 263.307 6.56289 4.206 0
M  V30 2820 N 267.536 -0.106894 1.57237 0
M  V30 2821 C 268.499 -1.11466 2.0027 0
M  V30 2822 C 269.499 -1.33623 0.894519 0
M  V30 2823 O 270.689 -1.29935 1.16028 0
M  V30 2824 C 267.821 -2.46646 2.35327 0
M  V30 2825 H 269.014 -0.744516 2.90512 0
M  V30 2826 H 266.567 -0.351576 1.52295 0
M  V30 2827 H 267.302 -2.88558 1.48003 0
M  V30 2828 H 267.087 -2.31915 3.16161 0
M  V30 2829 H 268.577 -3.19151 2.69318 0
M  V30 2830 N 269.014 -1.53014 -0.377408 0
M  V30 2831 C 270.291 -1.59215 -1.13622 0
M  V30 2832 C 270.671 -0.392407 -2.07421 0
M  V30 2833 O 270.019 0.618342 -2.19975 0
M  V30 2834 C 270.229 -2.93669 -1.88573 0
M  V30 2835 C 271.577 -3.47822 -2.43526 0
M  V30 2836 O 272.601 -2.9562 -1.98715 0
M  V30 2837 O 271.46 -4.39055 -3.25412 0
M  V30 2838 H 268.554 -0.642625 -0.52054 0
M  V30 2839 H 271.1 -1.65353 -0.381625 0
M  V30 2840 H 269.872 -3.7243 -1.20048 0
M  V30 2841 H 269.495 -2.90968 -2.70968 0
M  V30 2842 N 270.492 0.636531 -1.44174 0
M  V30 2843 C 271.738 1.39826 -1.4689 0
M  V30 2844 C 272.071 1.93947 -0.0990585 0
M  V30 2845 O 271.346 1.73325 0.882544 0
M  V30 2846 C 271.629 2.56751 -2.5249 0
M  V30 2847 C 271.482 2.08014 -3.98811 0
M  V30 2848 C 272.801 3.58946 -2.54649 0
M  V30 2849 H 269.92 0.507075 -0.53483 0
M  V30 2850 H 272.562 0.720188 -1.75822 0
M  V30 2851 H 270.712 3.14597 -2.2795 0
M  V30 2852 H 272.384 1.5504 -4.34466 0
M  V30 2853 H 270.627 1.39242 -4.10846 0
M  V30 2854 H 271.298 2.92169 -4.68339 0
M  V30 2855 H 273.774 3.1089 -2.76563 0
M  V30 2856 H 272.65 4.38286 -3.3045 0
M  V30 2857 H 272.911 4.12655 -1.58646 0
M  V30 2858 N 271.97 1.30982 0.876444 0
M  V30 2859 C 273.219 1.19658 1.62373 0
M  V30 2860 C 273.532 -0.245636 1.94052 0
M  V30 2861 O 274.738 -0.48049 2.67214 0
M  V30 2862 C 273.194 2.09433 2.92687 0
M  V30 2863 C 272.802 3.58613 2.68516 0
M  V30 2864 C 274.546 2.06893 3.70669 0
M  V30 2865 C 272.453 4.40416 3.94699 0
M  V30 2866 H 271.383 0.444268 0.609214 0
M  V30 2867 H 274.034 1.55791 0.969605 0
M  V30 2868 H 272.416 1.66191 3.59439 0
M  V30 2869 H 273.59 4.10058 2.10212 0
M  V30 2870 H 271.905 3.63063 2.03898 0
M  V30 2871 H 274.502 2.65258 4.64265 0
M  V30 2872 H 274.845 1.05448 4.02724 0
M  V30 2873 H 275.378 2.48301 3.10792 0
M  V30 2874 H 272.117 5.42591 3.67798 0
M  V30 2875 H 271.637 3.93731 4.52477 0
M  V30 2876 H 273.316 4.52294 4.62644 0
M  V30 2877 N 273.449 -1.08991 1.13837 0
M  V30 2878 C 274.382 -2.15049 0.763477 0
M  V30 2879 C 275.36 -1.60629 -0.252398 0
M  V30 2880 O 276.544 -1.87958 -0.142853 0
M  V30 2881 C 273.671 -3.38441 0.132545 0
M  V30 2882 C 272.717 -4.11596 1.11763 0
M  V30 2883 S 273.55 -4.6521 2.65216 0
M  V30 2884 C 274.706 -5.91896 2.03495 0
M  V30 2885 H 274.939 -2.46518 1.66182 0
M  V30 2886 H 272.472 -1.21008 0.958976 0
M  V30 2887 H 274.43 -4.09883 -0.225074 0
M  V30 2888 H 273.091 -3.05182 -0.743135 0
M  V30 2889 H 272.284 -5.00121 0.624076 0
M  V30 2890 H 271.886 -3.46038 1.41894 0
M  V30 2891 H 274.178 -6.63156 1.38675 0
M  V30 2892 H 275.121 -6.45938 2.9012 0
M  V30 2893 H 275.529 -5.44625 1.48471 0
M  V30 2894 N 274.927 -0.932562 -1.27047 0
M  V30 2895 C 275.857 -0.452902 -2.29066 0
M  V30 2896 C 276.838 0.489338 -1.62909 0
M  V30 2897 O 278.023 0.393046 -1.90181 0
M  V30 2898 C 275.153 0.290698 -3.46081 0
M  V30 2899 C 274.107 -0.564168 -4.24265 0
M  V30 2900 C 273.433 0.308886 -5.33807 0
M  V30 2901 C 274.733 -1.83112 -4.89149 0
M  V30 2902 H 276.427 -1.30552 -2.69437 0
M  V30 2903 H 273.973 -0.629201 -1.29526 0
M  V30 2904 H 275.926 0.637233 -4.16554 0
M  V30 2905 H 274.65 1.17738 -3.0464 0
M  V30 2906 H 273.309 -0.893477 -3.55545 0
M  V30 2907 H 272.957 1.19467 -4.88607 0
M  V30 2908 H 272.657 -0.259633 -5.87026 0
M  V30 2909 H 274.181 0.650884 -6.07121 0
M  V30 2910 H 275.595 -1.55236 -5.51883 0
M  V30 2911 H 273.992 -2.34353 -5.52448 0
M  V30 2912 H 275.062 -2.54772 -4.12576 0
M  V30 2913 N 276.405 1.4127 -0.698611 0
M  V30 2914 C 277.682 1.94955 -0.158762 0
M  V30 2915 C 278.062 1.63781 1.33188 0
M  V30 2916 O 277.41 0.946423 2.07979 0
M  V30 2917 C 277.62 3.46044 -0.453309 0
M  V30 2918 C 278.968 4.22872 -0.382707 0
M  V30 2919 O 279.992 3.54076 -0.388396 0
M  V30 2920 O 278.851 5.45407 -0.345463 0
M  V30 2921 H 275.945 0.82683 -0.0167505 0
M  V30 2922 H 278.491 1.50971 -0.77498 0
M  V30 2923 H 277.263 3.62028 -1.48498 0
M  V30 2924 H 276.886 3.97128 0.19373 0
M  V30 2925 N 277.883 0.443576 1.51229 0
M  V30 2926 C 279.131 -0.120557 2.0174 0
M  V30 2927 C 279.452 -1.42665 1.32935 0
M  V30 2928 O 278.722 -1.9028 0.465866 0
M  V30 2929 H 277.302 -0.0475426 0.745486 0
M  V30 2930 H 279.964 0.587711 1.85828 0
M  V30 2931 H 279.06 -0.291972 3.10731 0
M  V30 2932 N 279.361 -1.56624 0.175154 0
M  V30 2933 C 280.308 -2.18149 -0.753634 0
M  V30 2934 C 281.278 -1.12265 -1.22417 0
M  V30 2935 O 282.463 -1.40432 -1.29165 0
M  V30 2936 C 279.603 -2.82933 -1.97592 0
M  V30 2937 C 278.716 -4.03289 -1.5486 0
M  V30 2938 C 277.851 -4.55988 -2.72485 0
M  V30 2939 C 276.89 -5.68746 -2.26262 0
M  V30 2940 N 276.027 -6.15938 -3.36994 0
M  V30 2941 H 280.867 -2.9717 -0.222195 0
M  V30 2942 H 278.404 -1.46774 -0.0979422 0
M  V30 2943 H 280.362 -3.18653 -2.69288 0
M  V30 2944 H 278.992 -2.06509 -2.481 0
M  V30 2945 H 278.044 -3.73364 -0.728246 0
M  V30 2946 H 279.356 -4.849 -1.16933 0
M  V30 2947 H 278.51 -4.9391 -3.52332 0
M  V30 2948 H 277.249 -3.73443 -3.13674 0
M  V30 2949 H 276.254 -5.30372 -1.44863 0
M  V30 2950 H 277.479 -6.53095 -1.86127 0
M  V30 2951 H 275.425 -5.36321 -3.77751 0
M  V30 2952 H 275.342 -6.92548 -3.03172 0
M  V30 2953 H 276.61 -6.58511 -4.17114 0
M  V30 2954 N 280.839 0.0985539 -1.57292 0
M  V30 2955 C 281.789 1.1261 -1.9825 0
M  V30 2956 C 282.773 1.35961 -0.860426 0
M  V30 2957 O 283.965 1.36711 -1.12424 0
M  V30 2958 C 281.094 2.44727 -2.40757 0
M  V30 2959 C 280.18 2.24764 -3.59642 0
M  V30 2960 N 280.571 1.74661 -4.74687 0
M  V30 2961 C 278.869 2.55344 -3.65672 0
M  V30 2962 C 279.57 1.68887 -5.56644 0
M  V30 2963 N 278.546 2.13976 -4.99715 0
M  V30 2964 H 282.348 0.731604 -2.84648 0
M  V30 2965 H 279.862 0.306029 -1.59491 0
M  V30 2966 H 281.859 3.19072 -2.68326 0
M  V30 2967 H 280.519 2.84917 -1.55733 0
M  V30 2968 H 281.53 1.43908 -4.97505 0
M  V30 2969 H 278.207 2.99081 -2.91302 0
M  V30 2970 H 279.597 1.3123 -6.5896 0
M  V30 2971 N 282.317 1.53212 0.369288 0
M  V30 2972 C 283.566 1.68436 1.10961 0
M  V30 2973 C 283.879 0.440738 1.9057 0
M  V30 2974 O 285.085 0.473446 2.6734 0
M  V30 2975 C 283.541 2.97744 2.0218 0
M  V30 2976 C 283.149 4.29355 1.279 0
M  V30 2977 C 284.893 3.22334 2.76226 0
M  V30 2978 C 282.8 5.49755 2.17999 0
M  V30 2979 H 281.73 0.627568 0.41794 0
M  V30 2980 H 284.381 1.79713 0.370884 0
M  V30 2981 H 282.763 2.8026 2.79768 0
M  V30 2982 H 283.937 4.57458 0.554007 0
M  V30 2983 H 282.252 4.11179 0.657311 0
M  V30 2984 H 284.849 4.09471 3.43857 0
M  V30 2985 H 285.192 2.38238 3.41392 0
M  V30 2986 H 285.725 3.40475 2.05723 0
M  V30 2987 H 282.464 6.36318 1.57417 0
M  V30 2988 H 281.984 5.25937 2.88359 0
M  V30 2989 H 283.663 5.84401 2.77641 0
M  V30 2990 N 283.795 -0.628877 1.44509 0
M  V30 2991 C 285.044 -1.38437 1.4669 0
M  V30 2992 C 285.357 -1.95322 0.104272 0
M  V30 2993 O 286.563 -2.715 0.00362163 0
M  V30 2994 C 285.019 -2.50659 2.5826 0
M  V30 2995 C 284.627 -2.00277 4.0074 0
M  V30 2996 C 286.371 -3.27844 2.69664 0
M  V30 2997 C 284.278 -3.09854 5.0373 0
M  V30 2998 H 283.208 -0.520245 0.545766 0
M  V30 2999 H 285.859 -0.676313 1.70582 0
M  V30 3000 H 284.241 -3.2405 2.27612 0
M  V30 3001 H 285.415 -1.33736 4.40966 0
M  V30 3002 H 283.73 -1.35901 3.93599 0
M  V30 3003 H 286.327 -4.09534 3.43781 0
M  V30 3004 H 286.67 -3.77471 1.75559 0
M  V30 3005 H 287.203 -2.61543 2.99733 0
M  V30 3006 H 283.942 -2.65168 5.99472 0
M  V30 3007 H 283.462 -3.7503 4.68095 0
M  V30 3008 H 285.141 -3.74592 5.27532 0
M  V30 3009 N 285.273 -1.31445 -0.869486 0
M  V30 3010 C 286.183 -1.21097 -2.0093 0
M  V30 3011 C 287.199 -0.127584 -1.73532 0
M  V30 3012 O 288.375 -0.345477 -1.98415 0
M  V30 3013 C 285.44 -0.919378 -3.34288 0
M  V30 3014 C 284.501 -2.08971 -3.75006 0
M  V30 3015 C 283.734 -1.81194 -5.02001 0
M  V30 3016 O 283.957 -0.747296 -5.65484 0
M  V30 3017 O 282.891 -2.66883 -5.39497 0
M  V30 3018 H 286.717 -2.16883 -2.12592 0
M  V30 3019 H 284.302 -1.11189 -0.997868 0
M  V30 3020 H 286.184 -0.772625 -4.14257 0
M  V30 3021 H 284.859 0.00844772 -3.23699 0
M  V30 3022 H 283.766 -2.29187 -2.95676 0
M  V30 3023 H 285.099 -2.9998 -3.90221 0
M  V30 3024 N 286.751 1.08385 -1.14413 0
M  V30 3025 C 287.714 2.13486 -0.834048 0
M  V30 3026 C 288.714 1.59988 0.161418 0
M  V30 3027 O 289.904 1.74071 -0.0669575 0
M  V30 3028 C 287.036 3.4003 -0.243354 0
M  V30 3029 H 288.229 2.42425 -1.7655 0
M  V30 3030 H 285.782 1.24101 -0.950189 0
M  V30 3031 H 286.517 3.16726 0.696807 0
M  V30 3032 H 286.302 3.80157 -0.960367 0
M  V30 3033 H 287.792 4.17577 -0.0436242 0
M  V30 3034 N 288.23 0.939286 1.26551 0
M  V30 3035 C 289.476 0.586715 1.94128 0
M  V30 3036 C 289.809 -0.8717 1.73537 0
M  V30 3037 O 289.084 -1.62339 1.07127 0
M  V30 3038 C 289.367 0.927497 3.4795 0
M  V30 3039 C 289.22 2.44052 3.77834 0
M  V30 3040 C 290.539 0.441569 4.37879 0
M  V30 3041 H 287.658 0.21463 0.705055 0
M  V30 3042 H 290.3 1.17316 1.49455 0
M  V30 3043 H 288.45 0.428431 3.8613 0
M  V30 3044 H 290.122 3.01216 3.4938 0
M  V30 3045 H 288.365 2.8848 3.23978 0
M  V30 3046 H 289.036 2.62947 4.85348 0
M  V30 3047 H 291.512 0.869448 4.06915 0
M  V30 3048 H 290.388 0.708856 5.44304 0
M  V30 3049 H 290.649 -0.658467 4.37169 0
M  V30 3050 N 289.708 -1.40897 0.706093 0
M  V30 3051 C 290.954 -2.01352 0.241889 0
M  V30 3052 C 291.287 -1.55832 -1.15888 0
M  V30 3053 O 290.562 -0.774145 -1.7843 0
M  V30 3054 C 290.845 -3.58752 0.311311 0
M  V30 3055 C 290.698 -4.1437 1.74978 0
M  V30 3056 C 292.017 -4.38914 -0.322922 0
M  V30 3057 H 289.136 -0.731562 0.0893687 0
M  V30 3058 H 291.778 -1.67504 0.896802 0
M  V30 3059 H 289.928 -3.87718 -0.246302 0
M  V30 3060 H 291.6 -3.96239 2.36205 0
M  V30 3061 H 289.843 -3.69016 2.28057 0
M  V30 3062 H 290.514 -5.23532 1.74981 0
M  V30 3063 H 292.99 -4.15822 0.152089 0
M  V30 3064 H 291.866 -5.48358 -0.243855 0
M  V30 3065 H 292.127 -4.19176 -1.40513 0
M  V30 3066 N 291.186 -0.45159 -1.50991 0
M  V30 3067 C 292.463 0.170707 -1.94854 0
M  V30 3068 C 292.843 1.58788 -1.39103 0
M  V30 3069 O 292.191 2.20913 -0.583921 0
M  V30 3070 C 292.401 0.133929 -3.48743 0
M  V30 3071 C 293.749 0.33248 -4.23296 0
M  V30 3072 O 294.773 0.211403 -3.55572 0
M  V30 3073 O 293.632 0.57486 -5.43468 0
M  V30 3074 H 290.726 0.122264 -0.817912 0
M  V30 3075 H 293.272 -0.510594 -1.61836 0
M  V30 3076 H 292.044 -0.856283 -3.81816 0
M  V30 3077 H 291.667 0.857529 -3.88242 0
M  V30 3078 N 292.664 1.56529 -0.183458 0
M  V30 3079 C 293.594 2.21549 0.737456 0
M  V30 3080 C 294.575 1.17489 1.23005 0
M  V30 3081 O 295.76 1.45959 1.281 0
M  V30 3082 C 292.89 2.86575 1.96194 0
M  V30 3083 C 291.844 3.96778 1.60473 0
M  V30 3084 C 291.17 4.48911 2.90487 0
M  V30 3085 C 292.47 5.15767 0.823497 0
M  V30 3086 H 294.164 2.98761 0.195453 0
M  V30 3087 H 291.71 1.43702 0.0925686 0
M  V30 3088 H 293.663 3.30739 2.61131 0
M  V30 3089 H 292.387 2.06749 2.52828 0
M  V30 3090 H 291.046 3.53286 0.978997 0
M  V30 3091 H 290.694 3.65862 3.45186 0
M  V30 3092 H 290.394 5.23265 2.67335 0
M  V30 3093 H 291.918 4.95771 3.56432 0
M  V30 3094 H 293.332 5.56549 1.37571 0
M  V30 3095 H 291.729 5.96114 0.690551 0
M  V30 3096 H 292.799 4.84574 -0.177782 0
M  V30 3097 N 294.142 -0.090211 1.57342 0
M  V30 3098 C 295.074 -1.13541 1.99101 0
M  V30 3099 C 296.087 -1.3604 0.894258 0
M  V30 3100 O 297.276 -1.34606 1.17233 0
M  V30 3101 C 294.376 -2.49001 2.29895 0
M  V30 3102 C 293.549 -2.46712 3.61182 0
M  V30 3103 C 292.608 -3.64136 3.79857 0
M  V30 3104 O 291.634 -3.46405 4.51655 0
M  V30 3105 N 292.836 -4.83802 3.20806 0
M  V30 3106 H 295.601 -0.779942 2.89373 0
M  V30 3107 H 293.162 -0.279125 1.59476 0
M  V30 3108 H 295.154 -3.26166 2.39578 0
M  V30 3109 H 293.724 -2.76619 1.45605 0
M  V30 3110 H 292.944 -1.55058 3.62423 0
M  V30 3111 H 294.232 -2.42265 4.4742 0
M  V30 3112 H 293.63 -5.01112 2.62494 0
M  V30 3113 H 292.187 -5.58543 3.35966 0
M  V30 3114 N 295.62 -1.53406 -0.361157 0
M  V30 3115 C 296.568 -1.80832 -1.46296 0
M  V30 3116 C 297.562 -0.677699 -1.55253 0
M  V30 3117 O 298.768 -0.860723 -1.58087 0
M  V30 3118 H 295.143 -0.572627 -0.487445 0
M  V30 3119 H 297.114 -2.73045 -1.20371 0
M  V30 3120 C 295.863 -2.01907 -2.8307 0
M  V30 3121 H 295.186 -2.88349 -2.76938 0
M  V30 3122 H 296.626 -2.25072 -3.59331 0
M  V30 3123 C 295.085 -0.799449 -3.27277 0
M  V30 3124 O 295.615 0.00971761 -4.01699 0
M  V30 3125 N 293.821 -0.621637 -2.83873 0
M  V30 3126 H 293.368 -1.28126 -2.23476 0
M  V30 3127 H 293.326 0.19298 -3.13807 0
M  V30 3128 N 297.098 0.621204 -1.44841 0
M  V30 3129 C 298.046 1.75385 -1.52784 0
M  V30 3130 C 299.04 1.64639 -0.398779 0
M  V30 3131 O 300.246 1.70598 -0.574137 0
M  V30 3132 H 296.621 0.579193 -0.479625 0
M  V30 3133 H 298.592 1.6581 -2.48092 0
M  V30 3134 C 297.341 3.13742 -1.4987 0
M  V30 3135 H 296.664 3.22663 -2.36069 0
M  V30 3136 H 298.104 3.92861 -1.59487 0
M  V30 3137 C 296.563 3.36175 -0.220973 0
M  V30 3138 O 297.093 3.95469 0.704782 0
M  V30 3139 N 295.299 2.90348 -0.120963 0
M  V30 3140 H 294.846 2.42278 -0.875162 0
M  V30 3141 H 294.804 3.05732 0.733168 0
M  V30 3142 N 298.576 1.31904 0.862503 0
M  V30 3143 C 299.523 1.20182 1.9704 0
M  V30 3144 C 300.493 0.0858247 1.65878 0
M  V30 3145 O 301.678 0.26 1.8902 0
M  V30 3146 C 298.818 0.922797 3.32533 0
M  V30 3147 C 297.931 2.12284 3.76244 0
M  V30 3148 C 297.066 1.77996 5.00491 0
M  V30 3149 C 296.105 2.94366 5.36671 0
M  V30 3150 N 295.242 2.60223 6.52095 0
M  V30 3151 H 300.082 2.14951 2.06398 0
M  V30 3152 H 297.619 1.06917 1.01031 0
M  V30 3153 H 299.577 0.741548 4.10557 0
M  V30 3154 H 298.207 0.0119227 3.22798 0
M  V30 3155 H 297.259 2.41461 2.9394 0
M  V30 3156 H 298.571 2.99357 3.98982 0
M  V30 3157 H 297.725 1.56377 5.862 0
M  V30 3158 H 296.464 0.881252 4.79672 0
M  V30 3159 H 295.469 3.16625 4.49476 0
M  V30 3160 H 296.694 3.84957 5.59451 0
M  V30 3161 H 294.64 1.72884 6.32809 0
M  V30 3162 H 294.557 3.40827 6.74814 0
M  V30 3163 H 295.825 2.42016 7.40978 0
M  V30 3164 N 300.054 -1.07777 1.14986 0
M  V30 3165 C 300.984 -2.16865 0.865557 0
M  V30 3166 C 301.965 -1.69123 -0.182083 0
M  V30 3167 O 303.15 -1.94164 -0.0373815 0
M  V30 3168 C 300.28 -3.45539 0.349313 0
M  V30 3169 C 299.234 -4.06708 1.33313 0
M  V30 3170 C 298.56 -5.30411 0.675918 0
M  V30 3171 C 299.86 -4.47241 2.69764 0
M  V30 3172 H 301.554 -2.40905 1.77778 0
M  V30 3173 H 299.1 -1.15781 0.856203 0
M  V30 3174 H 301.053 -4.21174 0.137983 0
M  V30 3175 H 299.777 -3.21072 -0.598362 0
M  V30 3176 H 298.436 -3.33112 1.53075 0
M  V30 3177 H 298.084 -5.02232 -0.277767 0
M  V30 3178 H 297.784 -5.72293 1.33244 0
M  V30 3179 H 299.308 -6.08755 0.474262 0
M  V30 3180 H 300.722 -5.14025 2.53873 0
M  V30 3181 H 299.119 -5.00062 3.3175 0
M  V30 3182 H 300.189 -3.58818 3.26156 0
M  V30 3183 N 301.532 -0.945985 -1.26051 0
M  V30 3184 C 302.462 -0.477172 -2.28572 0
M  V30 3185 C 303.443 0.472032 -1.63419 0
M  V30 3186 O 304.628 0.372853 -1.90587 0
M  V30 3187 C 301.758 0.253975 -3.4637 0
M  V30 3188 C 300.712 -0.609135 -4.23643 0
M  V30 3189 C 300.038 0.252252 -5.34105 0
M  V30 3190 C 301.338 -1.8829 -4.8718 0
M  V30 3191 H 303.032 -1.33402 -2.68038 0
M  V30 3192 H 300.578 -0.642904 -1.28852 0
M  V30 3193 H 302.531 0.593016 -4.17207 0
M  V30 3194 H 301.255 1.145 -3.05871 0
M  V30 3195 H 299.914 -0.931138 -3.54578 0
M  V30 3196 H 299.562 1.14278 -4.89846 0
M  V30 3197 H 299.262 -0.32188 -5.86718 0
M  V30 3198 H 300.786 0.586454 -6.07777 0
M  V30 3199 H 302.2 -1.61081 -5.50205 0
M  V30 3200 H 300.597 -2.40199 -5.49931 0
M  V30 3201 H 301.667 -2.59134 -4.09851 0
M  V30 3202 N 303.011 1.40521 -0.713556 0
M  V30 3203 C 304.236 2.05759 -0.26035 0
M  V30 3204 C 304.661 1.53403 1.08854 0
M  V30 3205 O 304.019 0.668535 1.68524 0
M  V30 3206 C 304.067 3.59745 -0.248122 0
M  V30 3207 O 303.171 4.05123 0.77131 0
M  V30 3208 H 302.512 0.652564 -0.122703 0
M  V30 3209 H 305.042 1.79958 -0.973467 0
M  V30 3210 H 305.052 4.07911 -0.0851129 0
M  V30 3211 H 303.727 3.97218 -1.2325 0
M  V30 3212 H 302.304 3.68422 0.57619 0
M  V30 3213 N 304.489 0.459591 1.5075 0
M  V30 3214 C 305.735 -0.091664 2.03193 0
M  V30 3215 C 306.09 -1.38432 1.3362 0
M  V30 3216 O 305.383 -1.86257 0.449322 0
M  V30 3217 C 305.577 -0.342866 3.55752 0
M  V30 3218 C 305.406 0.923888 4.40107 0
M  V30 3219 C 304.176 1.46388 4.83631 0
M  V30 3220 C 306.374 1.81617 4.81165 0
M  V30 3221 N 304.356 2.68086 5.52271 0
M  V30 3222 C 305.727 2.87907 5.49099 0
M  V30 3223 C 307.782 1.82793 4.63132 0
M  V30 3224 C 306.485 3.95347 6.0091 0
M  V30 3225 C 308.511 2.89182 5.15876 0
M  V30 3226 C 307.873 3.94191 5.83774 0
M  V30 3227 H 303.972 0.00619247 0.781975 0
M  V30 3228 H 306.556 0.625233 1.84388 0
M  V30 3229 H 304.727 -1.0288 3.74527 0
M  V30 3230 H 306.459 -0.887445 3.9485 0
M  V30 3231 H 303.214 1.01466 4.62603 0
M  V30 3232 H 303.638 3.29857 5.91205 0
M  V30 3233 H 308.28 1.0293 4.1008 0
M  V30 3234 H 305.998 4.76035 6.53006 0
M  V30 3235 H 309.584 2.91061 5.0376 0
M  V30 3236 H 308.464 4.75161 6.23853 0
M  V30 3237 N 305.967 -1.56429 0.191757 0
M  V30 3238 C 306.899 -2.16154 -0.762245 0
M  V30 3239 C 307.912 -1.12247 -1.17917 0
M  V30 3240 O 309.101 -1.39353 -1.11548 0
M  V30 3241 C 306.201 -2.70606 -2.04024 0
M  V30 3242 C 305.374 -3.99381 -1.78364 0
M  V30 3243 C 304.433 -4.38692 -2.90578 0
M  V30 3244 O 303.459 -5.06179 -2.6033 0
M  V30 3245 N 304.661 -4.01922 -4.18854 0
M  V30 3246 H 307.426 -2.98643 -0.251526 0
M  V30 3247 H 304.987 -1.61897 0.00967373 0
M  V30 3248 H 306.979 -2.93891 -2.78227 0
M  V30 3249 H 305.549 -1.9259 -2.46227 0
M  V30 3250 H 304.769 -3.84262 -0.879581 0
M  V30 3251 H 306.057 -4.83445 -1.58614 0
M  V30 3252 H 305.455 -3.47631 -4.46283 0
M  V30 3253 H 304.012 -4.30165 -4.89695 0
M  V30 3254 N 307.445 0.0818655 -1.57387 0
M  V30 3255 C 308.856 0.634871 -1.75574 0
M  V30 3256 C 309.207 1.78435 -0.815809 0
M  V30 3257 O 308.332 2.164 0.0025366 0
M  V30 3258 C 308.927 1.15845 -3.18379 0
M  V30 3259 C 307.486 1.65741 -3.37945 0
M  V30 3260 C 306.633 0.572549 -2.71325 0
M  V30 3261 H 309.584 -0.144268 -1.58043 0
M  V30 3262 H 309.605 2.02751 -3.21982 0
M  V30 3263 H 309.117 0.321631 -3.86765 0
M  V30 3264 H 307.218 2.51781 -2.74658 0
M  V30 3265 H 307.331 1.74129 -4.46336 0
M  V30 3266 H 305.695 1.01518 -2.33594 0
M  V30 3267 H 306.478 -0.253918 -3.4236 0
M  V30 3268 N 308.923 1.53595 0.353017 0
M  V30 3269 C 310.172 1.69603 1.09168 0
M  V30 3270 C 310.485 0.460925 1.90092 0
M  V30 3271 O 311.691 0.501774 2.66823 0
M  V30 3272 C 310.147 2.99872 1.9901 0
M  V30 3273 C 309.755 4.30687 1.23339 0
M  V30 3274 C 311.499 3.25246 2.72792 0
M  V30 3275 C 309.406 5.52036 2.12156 0
M  V30 3276 H 308.336 0.631966 0.411261 0
M  V30 3277 H 310.987 1.80096 0.351802 0
M  V30 3278 H 309.369 2.83212 2.7678 0
M  V30 3279 H 310.543 4.58019 0.505456 0
M  V30 3280 H 308.858 4.11853 0.613663 0
M  V30 3281 H 311.455 4.13095 3.39495 0
M  V30 3282 H 311.798 2.41846 3.38846 0
M  V30 3283 H 312.331 3.42638 2.021 0
M  V30 3284 H 309.07 6.37951 1.50659 0
M  V30 3285 H 308.59 5.28966 2.82764 0
M  V30 3286 H 310.269 5.87313 2.71427 0
M  V30 3287 N 310.401 -0.613514 1.45168 0
M  V30 3288 C 311.348 -1.72456 1.53387 0
M  V30 3289 C 312.318 -1.6169 0.380191 0
M  V30 3290 O 313.503 -1.81356 0.592836 0
M  V30 3291 C 310.643 -3.10753 1.50088 0
M  V30 3292 C 309.756 -3.32368 2.75963 0
M  V30 3293 C 308.891 -4.60737 2.64376 0
M  V30 3294 C 307.93 -4.7559 3.85332 0
M  V30 3295 N 307.067 -5.95253 3.72315 0
M  V30 3296 H 311.907 -1.64768 2.48305 0
M  V30 3297 H 309.444 -0.803503 1.23216 0
M  V30 3298 H 311.402 -3.90758 1.46164 0
M  V30 3299 H 310.032 -3.17413 0.587243 0
M  V30 3300 H 309.084 -2.4618 2.89999 0
M  V30 3301 H 310.396 -3.39218 3.65695 0
M  V30 3302 H 309.55 -5.48928 2.58385 0
M  V30 3303 H 308.289 -4.56275 1.72233 0
M  V30 3304 H 307.294 -3.85824 3.91688 0
M  V30 3305 H 308.519 -4.81854 4.78533 0
M  V30 3306 H 306.465 -5.91847 2.82937 0
M  V30 3307 H 306.382 -6.03236 4.55677 0
M  V30 3308 H 307.65 -6.85958 3.70246 0
M  V30 3309 N 311.879 -1.3236 -0.855495 0
M  V30 3310 C 313.156 -1.13491 -1.59309 0
M  V30 3311 C 313.536 0.30503 -2.08885 0
M  V30 3312 O 312.884 1.30151 -1.87811 0
M  V30 3313 C 313.094 -2.16176 -2.73987 0
M  V30 3314 C 314.442 -2.49463 -3.43589 0
M  V30 3315 O 315.466 -2.14715 -2.84211 0
M  V30 3316 O 314.325 -3.09027 -4.50738 0
M  V30 3317 H 311.419 -0.437887 -0.701559 0
M  V30 3318 H 313.965 -1.43887 -0.899696 0
M  V30 3319 H 312.737 -3.1297 -2.34873 0
M  V30 3320 H 312.36 -1.86769 -3.51003 0
M  V30 3321 N 313.357 1.07166 -1.15556 0
M  V30 3322 C 314.32 2.12589 -0.856644 0
M  V30 3323 C 315.32 1.6015 0.14444 0
M  V30 3324 O 316.51 1.7399 -0.0854163 0
M  V30 3325 C 313.642 3.39753 -0.279405 0
M  V30 3326 H 314.835 2.40539 -1.79112 0
M  V30 3327 H 312.388 1.23086 -0.963298 0
M  V30 3328 H 313.123 3.17447 0.663174 0
M  V30 3329 H 312.908 3.79117 -1.00063 0
M  V30 3330 H 314.398 4.17507 -0.0879113 0
M  V30 3331 N 314.835 0.952656 1.25548 0
M  V30 3332 C 315.785 0.442033 2.23674 0
M  V30 3333 C 316.769 -0.467632 1.53955 0
M  V30 3334 O 317.961 -0.301006 1.74422 0
M  V30 3335 C 315.09 -0.280816 3.4215 0
M  V30 3336 C 314.176 0.646803 4.19139 0
M  V30 3337 N 314.567 1.77759 4.73535 0
M  V30 3338 C 312.865 0.454617 4.43677 0
M  V30 3339 C 313.566 2.35658 5.31827 0
M  V30 3340 N 312.542 1.64333 5.18166 0
M  V30 3341 H 316.344 1.30505 2.63336 0
M  V30 3342 H 313.858 0.809904 1.40763 0
M  V30 3343 H 315.855 -0.663747 4.11582 0
M  V30 3344 H 314.515 -1.14046 3.04012 0
M  V30 3345 H 315.526 2.15949 4.7073 0
M  V30 3346 H 312.203 -0.362312 4.15925 0
M  V30 3347 H 313.593 3.30998 5.84713 0
M  V30 3348 N 316.313 -1.40141 0.720998 0
M  V30 3349 C 317.561 -2.0039 0.262323 0
M  V30 3350 C 317.882 -1.57469 -1.15015 0
M  V30 3351 O 317.152 -0.816582 -1.78069 0
M  V30 3352 H 315.732 -0.741063 0.093996 0
M  V30 3353 H 318.394 -1.71398 0.927835 0
M  V30 3354 H 317.49 -3.10658 0.299671 0
M  V30 3355 N 317.792 -0.46758 -1.50504 0
M  V30 3356 C 318.725 0.374324 -2.25109 0
M  V30 3357 C 319.703 0.99921 -1.28275 0
M  V30 3358 O 320.887 1.03583 -1.57489 0
M  V30 3359 C 318.014 1.52419 -3.02467 0
M  V30 3360 C 317.06 1.01702 -4.14197 0
M  V30 3361 S 317.893 -0.0654477 -5.3546 0
M  V30 3362 C 319.049 1.08837 -6.16365 0
M  V30 3363 H 319.282 -0.258983 -2.9617 0
M  V30 3364 H 316.815 -0.252421 -1.52323 0
M  V30 3365 H 318.773 2.18322 -3.47628 0
M  V30 3366 H 317.434 2.129 -2.30938 0
M  V30 3367 H 316.627 1.87776 -4.67714 0
M  V30 3368 H 316.229 0.435757 -3.71453 0
M  V30 3369 H 318.521 2.00071 -6.47285 0
M  V30 3370 H 319.464 0.592538 -7.05616 0
M  V30 3371 H 319.872 1.34061 -5.4835 0
M  V30 3372 N 319.27 1.56325 -0.20005 0
M  V30 3373 C 320.516 1.98012 0.438059 0
M  V30 3374 C 320.849 1.08702 1.60927 0
M  V30 3375 O 320.124 0.140064 1.93995 0
M  V30 3376 C 320.407 3.48841 0.893419 0
M  V30 3377 C 320.26 4.48928 -0.279947 0
M  V30 3378 C 321.579 4.03498 1.75719 0
M  V30 3379 H 318.698 0.719918 0.157757 0
M  V30 3380 H 321.34 1.87743 -0.291968 0
M  V30 3381 H 319.49 3.57723 1.51547 0
M  V30 3382 H 321.162 4.52079 -0.91772 0
M  V30 3383 H 319.405 4.23694 -0.930919 0
M  V30 3384 H 320.076 5.5194 0.0812601 0
M  V30 3385 H 322.552 3.97427 1.23253 0
M  V30 3386 H 321.428 5.09393 2.04476 0
M  V30 3387 H 321.689 3.4906 2.71311 0
M  V30 3388 N 320.748 -0.0735177 1.57428 0
M  V30 3389 C 321.678 -1.0879 2.06608 0
M  V30 3390 C 322.659 -1.40473 0.959237 0
M  V30 3391 O 323.844 -1.5013 1.23185 0
M  V30 3392 C 320.974 -2.40183 2.50857 0
M  V30 3393 C 319.928 -2.22858 3.65402 0
M  V30 3394 C 319.254 -3.59619 3.957 0
M  V30 3395 C 320.554 -1.65123 4.95511 0
M  V30 3396 H 322.248 -0.678673 2.91607 0
M  V30 3397 H 319.794 -0.325013 1.40284 0
M  V30 3398 H 321.747 -3.11437 2.83874 0
M  V30 3399 H 320.471 -2.83083 1.62885 0
M  V30 3400 H 319.13 -1.54045 3.32664 0
M  V30 3401 H 318.778 -4.00086 3.04861 0
M  V30 3402 H 318.478 -3.48866 4.72828 0
M  V30 3403 H 320.002 -4.32306 4.31212 0
M  V30 3404 H 321.416 -2.26241 5.26771 0
M  V30 3405 H 319.813 -1.65071 5.7695 0
M  V30 3406 H 320.883 -0.612559 4.81015 0
M  V30 3407 N 322.226 -1.5378 -0.344866 0
M  V30 3408 C 323.156 -1.84662 -1.42906 0
M  V30 3409 C 324.137 -0.701648 -1.54955 0
M  V30 3410 O 325.322 -0.953438 -1.69184 0
M  V30 3411 C 322.452 -2.05503 -2.79974 0
M  V30 3412 C 321.406 -3.21318 -2.82734 0
M  V30 3413 C 320.732 -3.2749 -4.22675 0
M  V30 3414 C 322.032 -4.59456 -2.48389 0
M  V30 3415 H 323.726 -2.75461 -1.17311 0
M  V30 3416 H 321.272 -1.32542 -0.562896 0
M  V30 3417 H 323.225 -2.25691 -3.55867 0
M  V30 3418 H 321.949 -1.11434 -3.07002 0
M  V30 3419 H 320.608 -3.00984 -2.09294 0
M  V30 3420 H 320.256 -2.31019 -4.4681 0
M  V30 3421 H 319.956 -4.05316 -4.25433 0
M  V30 3422 H 321.48 -3.49887 -5.00412 0
M  V30 3423 H 322.894 -4.79667 -3.13995 0
M  V30 3424 H 321.291 -5.39675 -2.62432 0
M  V30 3425 H 322.361 -4.63155 -1.4358 0
M  V30 3426 N 323.704 0.605807 -1.45491 0
M  V30 3427 C 324.981 1.36522 -1.40075 0
M  V30 3428 C 325.361 2.10976 -0.0722744 0
M  V30 3429 O 324.709 2.08007 0.945808 0
M  V30 3430 C 324.919 2.31056 -2.61561 0
M  V30 3431 C 326.267 2.93608 -3.06724 0
M  V30 3432 O 327.291 2.41376 -2.61946 0
M  V30 3433 O 326.15 3.88421 -3.84437 0
M  V30 3434 H 323.244 0.612248 -0.555951 0
M  V30 3435 H 325.79 0.628747 -1.57623 0
M  V30 3436 H 324.562 1.75311 -3.49831 0
M  V30 3437 H 324.185 3.12081 -2.46356 0
M  V30 3438 N 325.182 1.32811 0.848464 0
M  V30 3439 C 326.459 1.14334 1.58704 0
M  V30 3440 C 326.839 -0.293948 2.09043 0
M  V30 3441 O 326.187 -1.29153 1.88499 0
M  V30 3442 C 326.397 2.17626 2.72837 0
M  V30 3443 C 327.745 2.51282 3.42261 0
M  V30 3444 O 328.769 2.16219 2.83068 0
M  V30 3445 O 327.628 3.11413 4.49093 0
M  V30 3446 H 324.722 0.441601 0.699226 0
M  V30 3447 H 327.268 1.44362 0.892053 0
M  V30 3448 H 326.04 3.14211 2.3321 0
M  V30 3449 H 325.663 1.88628 3.50008 0
M  V30 3450 N 326.66 -1.06551 1.16123 0
M  V30 3451 C 327.907 -1.79302 0.941126 0
M  V30 3452 C 328.235 -1.87105 -0.531235 0
M  V30 3453 O 327.49 -1.35692 -1.41018 0
M  V30 3454 C 327.789 -3.23911 1.51052 0
M  V30 3455 C 327.455 -3.36193 3.00475 0
M  V30 3456 C 326.117 -3.39252 3.41265 0
M  V30 3457 C 328.469 -3.38326 3.96465 0
M  V30 3458 C 325.797 -3.42057 4.76669 0
M  V30 3459 C 328.149 -3.4267 5.31752 0
M  V30 3460 C 326.813 -3.4401 5.72026 0
M  V30 3461 H 326.083 -0.656111 0.344382 0
M  V30 3462 H 328.73 -1.25325 1.44796 0
M  V30 3463 H 327.035 -3.80723 0.925063 0
M  V30 3464 H 328.732 -3.78793 1.31593 0
M  V30 3465 H 325.322 -3.34516 2.6795 0
M  V30 3466 H 329.506 -3.35176 3.6602 0
M  V30 3467 H 324.762 -3.41398 5.07206 0
M  V30 3468 H 328.936 -3.43268 6.05921 0
M  V30 3469 H 326.563 -3.45937 6.76928 0
M  V30 3470 N 328.138 -0.959301 -1.25041 0
M  V30 3471 C 329.101 -0.487677 -2.23952 0
M  V30 3472 C 330.101 0.41119 -1.55454 0
M  V30 3473 O 331.291 0.207825 -1.72956 0
M  V30 3474 C 328.423 0.294807 -3.39623 0
M  V30 3475 H 329.616 -1.36198 -2.67189 0
M  V30 3476 H 327.169 -0.743042 -1.37508 0
M  V30 3477 H 327.904 1.18658 -3.01813 0
M  V30 3478 H 327.689 -0.35012 -3.90534 0
M  V30 3479 H 329.179 0.614089 -4.1306 0
M  V30 3480 N 329.616 1.39756 -0.72842 0
M  V30 3481 C 330.841 2.05472 -0.282159 0
M  V30 3482 C 331.266 1.54549 1.07221 0
M  V30 3483 O 330.624 0.686372 1.67805 0
M  V30 3484 C 330.672 3.59462 -0.286264 0
M  V30 3485 O 329.776 4.05918 0.728298 0
M  V30 3486 H 329.117 0.651226 -0.129618 0
M  V30 3487 H 331.647 1.78915 -0.992499 0
M  V30 3488 H 331.657 4.07798 -0.128373 0
M  V30 3489 H 330.332 3.95889 -1.27456 0
M  V30 3490 H 328.909 3.69012 0.537081 0
M  V30 3491 N 331.094 0.475555 1.50254 0
M  V30 3492 C 332.34 -0.0780073 2.0265 0
M  V30 3493 C 332.673 -1.38968 1.35652 0
M  V30 3494 O 331.948 -1.8839 0.483691 0
M  V30 3495 C 332.231 -0.257161 3.59181 0
M  V30 3496 C 332.084 1.07585 4.36744 0
M  V30 3497 C 333.403 -1.00965 4.28362 0
M  V30 3498 H 330.522 -0.0268758 0.73651 0
M  V30 3499 H 333.164 0.622015 1.7953 0
M  V30 3500 H 331.314 -0.853412 3.79011 0
M  V30 3501 H 332.986 1.70902 4.28474 0
M  V30 3502 H 331.229 1.6714 4.00308 0
M  V30 3503 H 331.9 0.904088 5.44546 0
M  V30 3504 H 334.376 -0.504214 4.13034 0
M  V30 3505 H 333.252 -1.10381 5.37687 0
M  V30 3506 H 333.513 -2.04731 3.91839 0
M  V30 3507 N 332.573 -1.56217 0.208337 0
M  V30 3508 C 333.505 -2.1695 -0.739276 0
M  V30 3509 C 334.518 -1.13492 -1.1672 0
M  V30 3510 O 335.707 -1.40529 -1.10063 0
M  V30 3511 C 332.807 -2.72755 -2.01142 0
M  V30 3512 C 331.98 -4.0125 -1.74118 0
M  V30 3513 C 331.039 -4.41749 -2.85909 0
M  V30 3514 O 330.065 -5.08912 -2.54946 0
M  V30 3515 N 331.267 -4.06342 -4.14568 0
M  V30 3516 H 334.032 -2.98893 -0.219837 0
M  V30 3517 H 331.593 -1.61878 0.0268445 0
M  V30 3518 H 333.585 -2.96826 -2.75094 0
M  V30 3519 H 332.155 -1.95191 -2.4417 0
M  V30 3520 H 331.375 -3.85173 -0.838775 0
M  V30 3521 H 332.663 -4.851 -1.53477 0
M  V30 3522 H 332.061 -3.52345 -4.42571 0
M  V30 3523 H 330.618 -4.35335 -4.85105 0
M  V30 3524 N 334.051 0.0651679 -1.57465 0
M  V30 3525 C 334.999 1.09542 -2.05191 0
M  V30 3526 C 335.993 1.39675 -0.958509 0
M  V30 3527 O 337.199 1.39003 -1.14359 0
M  V30 3528 H 333.574 0.370623 -0.654326 0
M  V30 3529 H 335.545 0.666802 -2.90854 0
M  V30 3530 C 334.294 2.39881 -2.51699 0
M  V30 3531 H 333.617 2.17547 -3.3543 0
M  V30 3532 H 335.057 3.104 -2.88839 0
M  V30 3533 C 333.516 3.0631 -1.40271 0
M  V30 3534 O 334.046 3.94664 -0.748523 0
M  V30 3535 N 332.252 2.67041 -1.14618 0
M  V30 3536 H 331.799 1.95281 -1.67997 0
M  V30 3537 H 331.757 3.1181 -0.402688 0
M  V30 3538 N 335.529 1.53961 0.336706 0
M  V30 3539 C 336.778 1.70751 1.07363 0
M  V30 3540 C 337.091 0.481061 1.89592 0
M  V30 3541 O 338.297 0.530046 2.66276 0
M  V30 3542 C 336.753 3.01965 1.95818 0
M  V30 3543 C 336.361 4.31971 1.18764 0
M  V30 3544 C 338.105 3.28121 2.69327 0
M  V30 3545 C 336.012 5.54255 2.06289 0
M  V30 3546 H 334.942 0.636292 0.404535 0
M  V30 3547 H 337.593 1.80459 0.332681 0
M  V30 3548 H 335.975 2.86132 2.7376 0
M  V30 3549 H 337.149 4.5853 0.456849 0
M  V30 3550 H 335.464 4.12481 0.569946 0
M  V30 3551 H 338.061 4.16673 3.35094 0
M  V30 3552 H 338.404 2.45426 3.36261 0
M  V30 3553 H 338.937 3.44762 1.98454 0
M  V30 3554 H 335.676 6.39513 1.43885 0
M  V30 3555 H 335.196 5.31935 2.77138 0
M  V30 3556 H 336.875 5.90159 2.65182 0
M  V30 3557 N 337.007 -0.598083 1.45811 0
M  V30 3558 C 338.256 -1.35295 1.49594 0
M  V30 3559 C 338.569 -1.95057 0.145679 0
M  V30 3560 O 339.775 -2.71431 0.0612099 0
M  V30 3561 C 338.231 -2.45124 2.63519 0
M  V30 3562 C 337.839 -1.91732 4.04899 0
M  V30 3563 C 339.583 -3.2205 2.76558 0
M  V30 3564 C 337.49 -2.991 5.1019 0
M  V30 3565 H 336.42 -0.508552 0.556679 0
M  V30 3566 H 339.071 -0.639977 1.71978 0
M  V30 3567 H 337.453 -3.19149 2.34435 0
M  V30 3568 H 338.627 -1.24352 4.43704 0
M  V30 3569 H 336.942 -1.27522 3.96393 0
M  V30 3570 H 339.539 -4.0215 3.52391 0
M  V30 3571 H 339.882 -3.73663 1.83526 0
M  V30 3572 H 340.415 -2.55127 3.05213 0
M  V30 3573 H 337.154 -2.52393 6.04961 0
M  V30 3574 H 336.674 -3.65017 4.75944 0
M  V30 3575 H 338.353 -3.63318 5.35359 0
M  V30 3576 N 338.485 -1.33259 -0.841409 0
M  V30 3577 C 339.433 -1.23279 -1.97244 0
M  V30 3578 C 340.427 -0.134706 -1.68864 0
M  V30 3579 O 341.633 -0.298501 -1.77508 0
M  V30 3580 H 338.008 -0.382497 -0.647457 0
M  V30 3581 H 339.979 -2.18906 -2.02787 0
M  V30 3582 C 338.728 -0.986268 -3.33419 0
M  V30 3583 H 338.051 -1.82347 -3.55794 0
M  V30 3584 H 339.491 -0.956728 -4.13065 0
M  V30 3585 C 337.95 0.310842 -3.35463 0
M  V30 3586 O 338.48 1.31838 -3.79449 0
M  V30 3587 N 336.686 0.337485 -2.88634 0
M  V30 3588 H 336.233 -0.482967 -2.53032 0
M  V30 3589 H 336.191 1.20518 -2.90384 0
M  V30 3590 N 339.963 1.05934 -1.16686 0
M  V30 3591 C 340.911 2.15603 -0.872817 0
M  V30 3592 C 341.905 1.68647 0.159576 0
M  V30 3593 O 343.111 1.79995 0.0132125 0
M  V30 3594 H 339.486 0.703885 -0.264671 0
M  V30 3595 H 341.457 2.37613 -1.80507 0
M  V30 3596 C 340.206 3.45457 -0.394344 0
M  V30 3597 H 339.529 3.81984 -1.18019 0
M  V30 3598 H 340.969 4.2339 -0.227408 0
M  V30 3599 C 339.428 3.25021 0.88673 0
M  V30 3600 O 339.958 3.50906 1.95519 0
M  V30 3601 N 338.164 2.78437 0.831925 0
M  V30 3602 H 337.711 2.57572 -0.0377619 0
M  V30 3603 H 337.669 2.65144 1.68956 0
M  V30 3604 N 341.441 0.965919 1.2453 0
M  V30 3605 C 342.666 0.643971 1.97149 0
M  V30 3606 C 343.091 -0.779487 1.71189 0
M  V30 3607 O 342.449 -1.5288 0.974553 0
M  V30 3608 C 342.497 0.922557 3.48599 0
M  V30 3609 O 341.601 0.00707672 4.12399 0
M  V30 3610 H 340.942 0.243647 0.617683 0
M  V30 3611 H 343.472 1.29558 1.58353 0
M  V30 3612 H 343.482 0.853373 3.98976 0
M  V30 3613 H 342.157 1.95996 3.66822 0
M  V30 3614 H 340.734 0.12943 3.72675 0
M  V30 3615 N 342.919 -1.39368 0.735821 0
M  V30 3616 C 343.829 -2.34395 0.0979693 0
M  V30 3617 C 344.845 -1.58361 -0.720968 0
M  V30 3618 O 346.021 -1.90648 -0.649245 0
M  V30 3619 C 343.086 -3.37393 -0.797916 0
M  V30 3620 C 342.147 -4.29287 0.0333662 0
M  V30 3621 C 341.38 -5.27365 -0.819854 0
M  V30 3622 O 341.603 -5.31959 -2.05855 0
M  V30 3623 O 340.537 -6.01389 -0.248079 0
M  V30 3624 H 344.363 -2.90601 0.882315 0
M  V30 3625 H 341.948 -1.40909 0.4965 0
M  V30 3626 H 343.83 -4.00505 -1.31048 0
M  V30 3627 H 342.505 -2.83571 -1.56106 0
M  V30 3628 H 341.412 -3.69395 0.591475 0
M  V30 3629 H 342.745 -4.86317 0.758752 0
M  V30 3630 N 344.397 -0.483516 -1.5 0
M  V30 3631 C 345.307 0.309172 -2.32554 0
M  V30 3632 C 346.323 0.984159 -1.43493 0
M  V30 3633 O 347.499 0.969399 -1.76535 0
M  V30 3634 C 344.564 1.36979 -3.18493 0
M  V30 3635 C 343.625 0.710095 -4.23387 0
M  V30 3636 C 342.858 1.72018 -5.05218 0
M  V30 3637 O 343.081 2.94813 -4.88305 0
M  V30 3638 O 342.015 1.28515 -5.8802 0
M  V30 3639 H 345.841 -0.366064 -3.01486 0
M  V30 3640 H 343.426 -0.24514 -1.47375 0
M  V30 3641 H 345.308 1.98385 -3.71781 0
M  V30 3642 H 343.983 2.02828 -2.52275 0
M  V30 3643 H 342.89 0.0567539 -3.74057 0
M  V30 3644 H 344.223 0.0943557 -4.9211 0
M  V30 3645 N 345.875 1.56104 -0.216619 0
M  V30 3646 C 347.122 1.98172 0.416416 0
M  V30 3647 C 347.45 1.10413 1.60122 0
M  V30 3648 O 346.705 0.147967 1.9514 0
M  V30 3649 C 347.004 3.45923 0.898464 0
M  V30 3650 C 346.67 4.50559 -0.175288 0
M  V30 3651 C 345.332 4.78897 -0.470271 0
M  V30 3652 C 347.684 5.1334 -0.901728 0
M  V30 3653 C 345.012 5.67299 -1.4963 0
M  V30 3654 C 347.364 6.02853 -1.91705 0
M  V30 3655 C 346.028 6.29537 -2.21901 0
M  V30 3656 H 345.298 0.725164 0.152377 0
M  V30 3657 H 347.945 1.88839 -0.318103 0
M  V30 3658 H 346.25 3.52434 1.71165 0
M  V30 3659 H 347.947 3.75841 1.39803 0
M  V30 3660 H 344.537 4.28551 0.0647806 0
M  V30 3661 H 348.721 4.91521 -0.687072 0
M  V30 3662 H 343.977 5.86239 -1.73592 0
M  V30 3663 H 348.151 6.50552 -2.48505 0
M  V30 3664 H 345.778 6.97835 -3.01548 0
M  V30 3665 N 347.353 -0.0568162 1.57498 0
M  V30 3666 C 348.316 -1.05038 2.03715 0
M  V30 3667 C 349.316 -1.30709 0.936577 0
M  V30 3668 O 350.506 -1.26178 1.20103 0
M  V30 3669 C 347.638 -2.39034 2.43055 0
M  V30 3670 H 348.831 -0.651715 2.92733 0
M  V30 3671 H 346.384 -0.302947 1.53336 0
M  V30 3672 H 347.119 -2.83703 1.57108 0
M  V30 3673 H 346.904 -2.21739 3.2338 0
M  V30 3674 H 348.394 -3.10421 2.79336 0
M  V30 3675 N 348.832 -1.54138 -0.328536 0
M  V30 3676 C 349.795 -1.82462 -1.38709 0
M  V30 3677 C 350.795 -0.696229 -1.44946 0
M  V30 3678 O 351.985 -0.964535 -1.4506 0
M  V30 3679 C 349.117 -1.98018 -2.77492 0
M  V30 3680 H 350.31 -2.77037 -1.14851 0
M  V30 3681 H 347.863 -1.45779 -0.563751 0
M  V30 3682 H 348.598 -1.05637 -3.06613 0
M  V30 3683 H 348.383 -2.80124 -2.74359 0
M  V30 3684 H 349.873 -2.21396 -3.54081 0
M  V30 3685 N 350.31 0.590341 -1.46126 0
M  V30 3686 C 351.273 1.68194 -1.55703 0
M  V30 3687 C 352.273 1.54808 -0.434868 0
M  V30 3688 O 353.463 1.59564 -0.698928 0
M  V30 3689 C 350.595 3.07575 -1.47005 0
M  V30 3690 H 351.788 1.61064 -2.52979 0
M  V30 3691 H 349.341 0.807541 -1.33823 0
M  V30 3692 H 350.076 3.20268 -0.509785 0
M  V30 3693 H 349.861 3.187 -2.28414 0
M  V30 3694 H 351.351 3.87055 -1.56776 0
M  V30 3695 N 351.788 1.33704 0.83433 0
M  V30 3696 C 353.034 1.25603 1.59222 0
M  V30 3697 C 353.367 -0.176659 1.93395 0
M  V30 3698 O 352.642 -1.11915 1.59076 0
M  V30 3699 C 352.925 2.13576 2.89926 0
M  V30 3700 C 352.778 3.65326 2.62406 0
M  V30 3701 C 354.097 2.01238 3.91397 0
M  V30 3702 H 351.216 0.457613 0.577719 0
M  V30 3703 H 353.858 1.63848 0.961972 0
M  V30 3704 H 352.008 1.8109 3.43713 0
M  V30 3705 H 353.68 4.08124 2.15017 0
M  V30 3706 H 351.923 3.8698 1.96033 0
M  V30 3707 H 352.594 4.22232 3.55562 0
M  V30 3708 H 355.07 2.29738 3.46929 0
M  V30 3709 H 353.946 2.65036 4.80673 0
M  V30 3710 H 354.207 0.985951 4.30966 0
M  V30 3711 N 353.266 -1.05314 1.17247 0
M  V30 3712 C 354.213 -2.13031 0.888058 0
M  V30 3713 C 355.183 -1.65253 -0.167537 0
M  V30 3714 O 356.368 -1.90775 -0.0305974 0
M  V30 3715 C 353.508 -3.42702 0.406147 0
M  V30 3716 C 352.621 -4.04161 1.52572 0
M  V30 3717 C 351.756 -5.21744 0.997808 0
M  V30 3718 C 350.795 -5.75207 2.09291 0
M  V30 3719 N 349.932 -6.84094 1.57986 0
M  V30 3720 H 354.772 -2.36698 1.81048 0
M  V30 3721 H 352.309 -1.16121 0.903013 0
M  V30 3722 H 354.267 -4.17059 0.108305 0
M  V30 3723 H 352.897 -3.19222 -0.479313 0
M  V30 3724 H 351.949 -3.27253 1.93931 0
M  V30 3725 H 353.261 -4.39881 2.35172 0
M  V30 3726 H 352.415 -6.03168 0.653739 0
M  V30 3727 H 351.154 -4.87495 0.141232 0
M  V30 3728 H 350.159 -4.92414 2.44557 0
M  V30 3729 H 351.384 -6.11505 2.95362 0
M  V30 3730 H 349.33 -6.51745 0.74598 0
M  V30 3731 H 349.247 -7.18811 2.34195 0
M  V30 3732 H 350.515 -7.69172 1.26468 0
M  V30 3733 N 354.744 -0.972509 -1.24016 0
M  V30 3734 C 355.691 -0.505969 -2.25186 0
M  V30 3735 C 356.661 0.451009 -1.5986 0
M  V30 3736 O 357.846 0.360307 -1.87367 0
M  V30 3737 C 354.986 0.193089 -3.44559 0
M  V30 3738 C 354.099 -0.803222 -4.24467 0
M  V30 3739 C 353.234 -0.0797793 -5.3114 0
M  V30 3740 C 352.273 -1.06583 -6.02749 0
M  V30 3741 N 351.41 -0.372074 -7.01113 0
M  V30 3742 H 356.25 -1.37351 -2.64459 0
M  V30 3743 H 353.787 -0.688419 -1.29997 0
M  V30 3744 H 355.745 0.615125 -4.1264 0
M  V30 3745 H 354.375 1.02455 -3.06109 0
M  V30 3746 H 353.427 -1.34368 -3.55878 0
M  V30 3747 H 354.739 -1.55494 -4.73944 0
M  V30 3748 H 353.893 0.400015 -6.0538 0
M  V30 3749 H 352.632 0.704597 -4.82583 0
M  V30 3750 H 351.637 -1.55645 -5.27309 0
M  V30 3751 H 352.862 -1.85074 -6.53395 0
M  V30 3752 H 350.808 0.393238 -6.5482 0
M  V30 3753 H 350.725 -1.06258 -7.48495 0
M  V30 3754 H 351.993 0.0855932 -7.79453 0
M  V30 3755 N 356.222 1.38976 -0.743202 0
M  V30 3756 C 357.638 1.53984 -0.419664 0
M  V30 3757 C 357.838 1.70837 1.0685 0
M  V30 3758 O 356.894 1.7135 1.8546 0
M  V30 3759 C 358.207 2.75287 -1.20985 0
M  V30 3760 C 359.755 2.89129 -1.19889 0
M  V30 3761 C 360.23 4.13381 -1.97181 0
M  V30 3762 N 361.721 4.20437 -1.94389 0
M  V30 3763 C 362.456 5.15547 -2.50996 0
M  V30 3764 N 361.952 6.16395 -3.16274 0
M  V30 3765 N 363.745 5.07822 -2.40984 0
M  V30 3766 H 355.896 1.26285 -1.7078 0
M  V30 3767 H 358.159 0.612689 -0.723406 0
M  V30 3768 H 357.865 2.69204 -2.26323 0
M  V30 3769 H 357.739 3.68184 -0.819759 0
M  V30 3770 H 360.126 2.947 -0.153606 0
M  V30 3771 H 360.207 1.97272 -1.62841 0
M  V30 3772 H 359.851 4.08572 -3.01714 0
M  V30 3773 H 359.781 5.04298 -1.51629 0
M  V30 3774 H 362.272 3.48205 -1.46839 0
M  V30 3775 H 362.585 6.85443 -3.56915 0
M  V30 3776 H 360.93 6.16758 -3.20367 0
M  V30 3777 H 364.121 4.27973 -1.89622 0
M  V30 3778 H 364.294 5.81767 -2.85397 0
M  V30 3779 N 357.7 0.491464 1.49741 0
M  V30 3780 C 358.948 -0.0563141 2.02022 0
M  V30 3781 C 359.269 -1.38363 1.37407 0
M  V30 3782 O 358.539 -1.88702 0.526166 0
M  V30 3783 H 357.119 -0.0238014 0.746621 0
M  V30 3784 H 359.781 0.646533 1.83864 0
M  V30 3785 H 358.877 -0.192967 3.11503 0
M  V30 3786 N 359.178 -1.55987 0.224894 0
M  V30 3787 C 360.427 -1.97566 -0.406273 0
M  V30 3788 C 360.74 -1.11569 -1.6066 0
M  V30 3789 O 361.946 -1.43062 -2.3075 0
M  V30 3790 C 360.402 -3.51474 -0.774207 0
M  V30 3791 C 360.01 -4.46179 0.403496 0
M  V30 3792 C 361.754 -4.01758 -1.37079 0
M  V30 3793 C 359.661 -5.91399 0.0129412 0
M  V30 3794 H 358.591 -0.737777 -0.155565 0
M  V30 3795 H 361.242 -1.80659 0.321635 0
M  V30 3796 H 359.624 -3.63994 -1.55963 0
M  V30 3797 H 360.798 -4.45409 1.18101 0
M  V30 3798 H 359.113 -4.06255 0.913536 0
M  V30 3799 H 361.71 -5.07756 -1.67596 0
M  V30 3800 H 362.053 -3.47805 -2.28773 0
M  V30 3801 H 362.586 -3.92475 -0.648733 0
M  V30 3802 H 359.325 -6.49341 0.896451 0
M  V30 3803 H 358.845 -5.95356 -0.728821 0
M  V30 3804 H 360.524 -6.45683 -0.412582 0
M  V30 3805 N 360.656 0.0484629 -1.57525 0
M  V30 3806 C 361.884 0.755421 -1.92616 0
M  V30 3807 C 362.299 1.69919 -0.822984 0
M  V30 3808 O 361.656 1.81378 0.202085 0
M  V30 3809 C 361.707 1.52915 -3.27566 0
M  V30 3810 O 361.428 0.62329 -4.33644 0
M  V30 3811 C 362.929 2.33502 -3.76818 0
M  V30 3812 H 360.149 0.213465 -0.63614 0
M  V30 3813 H 362.693 0.0117698 -2.04497 0
M  V30 3814 H 360.848 2.22486 -3.17142 0
M  V30 3815 H 361.262 1.16383 -5.11425 0
M  V30 3816 H 362.736 2.83214 -4.73808 0
M  V30 3817 H 363.213 3.14068 -3.07014 0
M  V30 3818 H 363.819 1.69043 -3.90262 0
M  V30 3819 N 362.134 1.5431 0.320358 0
M  V30 3820 C 363.411 1.63322 1.07635 0
M  V30 3821 C 363.791 0.46912 2.05821 0
M  V30 3822 O 363.139 -0.536274 2.22118 0
M  V30 3823 C 363.349 3.00465 1.77544 0
M  V30 3824 C 364.697 3.56621 2.30449 0
M  V30 3825 O 365.721 3.02791 1.87606 0
M  V30 3826 O 364.58 4.5083 3.08892 0
M  V30 3827 H 361.674 0.661502 0.496331 0
M  V30 3828 H 364.22 1.66656 0.319992 0
M  V30 3829 H 362.992 3.76629 1.06143 0
M  V30 3830 H 362.615 3.00824 2.59982 0
M  V30 3831 N 363.613 -0.582584 1.46437 0
M  V30 3832 C 364.576 -1.67366 1.56592 0
M  V30 3833 C 365.576 -1.54575 0.443072 0
M  V30 3834 O 366.766 -1.59191 0.707381 0
M  V30 3835 C 363.898 -3.06791 1.48634 0
M  V30 3836 H 365.091 -1.5972 2.5383 0
M  V30 3837 H 362.644 -0.800432 1.34249 0
M  V30 3838 H 363.379 -3.19993 0.526763 0
M  V30 3839 H 363.164 -3.17484 2.30101 0
M  V30 3840 H 364.654 -3.86218 1.58826 0
M  V30 3841 N 365.091 -1.34144 -0.827227 0
M  V30 3842 C 366.038 -1.25364 -1.93785 0
M  V30 3843 C 367.008 -0.129774 -1.65592 0
M  V30 3844 O 368.193 -0.310024 -1.88264 0
M  V30 3845 C 365.333 -1.01064 -3.2997 0
M  V30 3846 C 364.446 -2.22185 -3.70484 0
M  V30 3847 C 363.581 -1.91203 -4.95595 0
M  V30 3848 C 362.62 -3.08491 -5.28677 0
M  V30 3849 N 361.757 -2.77421 -6.44967 0
M  V30 3850 H 366.597 -2.20347 -2.00627 0
M  V30 3851 H 364.134 -1.09558 -0.981608 0
M  V30 3852 H 366.092 -0.850139 -4.08446 0
M  V30 3853 H 364.722 -0.0975026 -3.22653 0
M  V30 3854 H 363.774 -2.4917 -2.87434 0
M  V30 3855 H 365.086 -3.0983 -3.90905 0
M  V30 3856 H 364.24 -1.71864 -5.81848 0
M  V30 3857 H 362.979 -1.00812 -4.77167 0
M  V30 3858 H 361.984 -3.28431 -4.40923 0
M  V30 3859 H 363.209 -3.99655 -5.49047 0
M  V30 3860 H 361.155 -1.89601 -6.28003 0
M  V30 3861 H 361.072 -3.58598 -6.6554 0
M  V30 3862 H 362.34 -2.61577 -7.34301 0
M  V30 3863 N 366.569 1.04691 -1.17803 0
M  V30 3864 C 367.516 2.12557 -0.899343 0
M  V30 3865 C 368.486 1.65339 0.158771 0
M  V30 3866 O 369.671 1.90789 0.0204797 0
M  V30 3867 C 366.811 3.42481 -0.424315 0
M  V30 3868 C 365.924 4.03346 -1.54713 0
M  V30 3869 C 365.059 5.21208 -1.02546 0
M  V30 3870 C 364.098 5.74089 -2.12339 0
M  V30 3871 N 363.235 6.83247 -1.61612 0
M  V30 3872 H 368.075 2.35734 -1.823 0
M  V30 3873 H 365.612 1.1564 -0.909159 0
M  V30 3874 H 367.57 4.16996 -0.130421 0
M  V30 3875 H 366.2 3.19471 0.462377 0
M  V30 3876 H 365.252 3.2622 -1.95664 0
M  V30 3877 H 366.564 4.38628 -2.37501 0
M  V30 3878 H 365.718 6.02812 -0.685718 0
M  V30 3879 H 364.457 4.87414 -0.167084 0
M  V30 3880 H 363.462 4.91111 -2.47165 0
M  V30 3881 H 364.687 6.0993 -2.98601 0
M  V30 3882 H 362.633 6.5134 -0.780533 0
M  V30 3883 H 362.55 7.17559 -2.38003 0
M  V30 3884 H 363.818 7.68491 -1.30545 0
M  V30 3885 N 368.047 0.979072 1.23499 0
M  V30 3886 C 369.293 0.648178 1.92163 0
M  V30 3887 C 369.626 -0.816049 1.76222 0
M  V30 3888 O 368.901 -1.58849 1.12237 0
M  V30 3889 C 369.184 1.03773 3.44824 0
M  V30 3890 C 369.037 2.55948 3.69879 0
M  V30 3891 C 370.356 0.580653 4.36253 0
M  V30 3892 H 367.475 0.236952 0.69787 0
M  V30 3893 H 370.117 1.22012 1.45647 0
M  V30 3894 H 368.267 0.551058 3.84572 0
M  V30 3895 H 369.939 3.12179 3.3962 0
M  V30 3896 H 368.182 2.98641 3.14636 0
M  V30 3897 H 368.853 2.78255 4.76737 0
M  V30 3898 H 371.329 0.998465 4.03943 0
M  V30 3899 H 370.205 0.881663 5.41773 0
M  V30 3900 H 370.466 -0.519052 4.39042 0
M  V30 3901 N 369.525 -1.3858 0.750561 0
M  V30 3902 C 370.774 -1.99424 0.302172 0
M  V30 3903 C 371.087 -1.60254 -1.12152 0
M  V30 3904 O 372.293 -2.14046 -1.67023 0
M  V30 3905 C 370.749 -3.56558 0.489307 0
M  V30 3906 C 370.357 -4.04682 1.92189 0
M  V30 3907 C 372.101 -4.24374 0.103478 0
M  V30 3908 C 370.008 -5.54446 2.05775 0
M  V30 3909 H 368.938 -0.746046 0.10923 0
M  V30 3910 H 371.589 -1.58383 0.92667 0
M  V30 3911 H 369.971 -3.95472 -0.204329 0
M  V30 3912 H 371.145 -3.77065 2.64875 0
M  V30 3913 H 369.46 -3.4958 2.26236 0
M  V30 3914 H 372.057 -5.34384 0.183787 0
M  V30 3915 H 372.4 -4.05468 -0.943481 0
M  V30 3916 H 372.933 -3.90688 0.748854 0
M  V30 3917 H 369.672 -5.78252 3.08714 0
M  V30 3918 H 369.192 -5.83816 1.37546 0
M  V30 3919 H 370.871 -6.20099 1.84626 0
M  V30 3920 N 371.003 -0.499398 -1.49478 0
M  V30 3921 C 372.231 0.0425456 -2.06856 0
M  V30 3922 C 372.646 1.30964 -1.35992 0
M  V30 3923 O 372.003 1.77172 -0.437762 0
M  V30 3924 C 372.054 0.301735 -3.60239 0
M  V30 3925 O 371.775 -0.915127 -4.28436 0
M  V30 3926 C 373.276 0.887499 -4.34325 0
M  V30 3927 H 370.496 -0.0197482 -0.670709 0
M  V30 3928 H 373.04 -0.696297 -1.92281 0
M  V30 3929 H 371.195 0.990556 -3.74522 0
M  V30 3930 H 371.609 -0.676993 -5.20113 0
M  V30 3931 H 373.083 1.01845 -5.42523 0
M  V30 3932 H 373.56 1.88488 -3.96698 0
M  V30 3933 H 374.166 0.236196 -4.24644 0
M  V30 3934 N 372.481 1.55866 -0.233164 0
M  V30 3935 C 373.709 2.02998 0.399905 0
M  V30 3936 C 374.124 1.11274 1.52524 0
M  V30 3937 O 373.481 0.124528 1.82075 0
M  V30 3938 C 373.532 3.4958 0.920639 0
M  V30 3939 O 373.253 4.37808 -0.159834 0
M  V30 3940 C 374.754 4.12411 1.62578 0
M  V30 3941 H 371.974 0.664006 0.0966281 0
M  V30 3942 H 374.518 2.0143 -0.353013 0
M  V30 3943 H 372.673 3.51727 1.62379 0
M  V30 3944 H 373.087 5.23981 0.23337 0
M  V30 3945 H 374.561 5.16711 1.94201 0
M  V30 3946 H 375.038 3.5809 2.54299 0
M  V30 3947 H 375.644 4.14148 0.967553 0
M  V30 3948 N 373.959 -0.0401083 1.57549 0
M  V30 3949 C 375.37 -0.588097 1.77196 0
M  V30 3950 C 375.721 -1.76209 0.862832 0
M  V30 3951 O 374.846 -2.16331 0.0548389 0
M  V30 3952 C 375.441 -1.07363 3.21339 0
M  V30 3953 C 374 -1.56723 3.42221 0
M  V30 3954 C 373.147 -0.50041 2.72747 0
M  V30 3955 H 376.098 0.186119 1.57605 0
M  V30 3956 H 376.119 -1.94143 3.27244 0
M  V30 3957 H 375.631 -0.218975 3.87482 0
M  V30 3958 H 373.732 -2.4441 2.81237 0
M  V30 3959 H 373.845 -1.62234 4.50796 0
M  V30 3960 H 372.209 -0.952894 2.36203 0
M  V30 3961 H 372.992 0.344599 3.41566 0
M  V30 3962 N 375.437 -1.54477 -0.31217 0
M  V30 3963 C 376.367 -1.87652 -1.38957 0
M  V30 3964 C 377.348 -0.734358 -1.53431 0
M  V30 3965 O 378.533 -0.98911 -1.67123 0
M  V30 3966 C 375.663 -2.11396 -2.75552 0
M  V30 3967 C 374.617 -3.27243 -2.75855 0
M  V30 3968 C 373.943 -3.36382 -4.15633 0
M  V30 3969 C 375.243 -4.64622 -2.38587 0
M  V30 3970 H 376.937 -2.77887 -1.11442 0
M  V30 3971 H 374.483 -1.33707 -0.534655 0
M  V30 3972 H 376.436 -2.33189 -3.51 0
M  V30 3973 H 375.16 -1.17921 -3.04569 0
M  V30 3974 H 373.819 -3.05356 -2.02863 0
M  V30 3975 H 373.467 -2.40445 -4.41809 0
M  V30 3976 H 373.167 -4.14249 -4.1674 0
M  V30 3977 H 374.691 -3.60422 -4.92877 0
M  V30 3978 H 376.105 -4.86219 -3.03749 0
M  V30 3979 H 374.502 -5.45121 -2.50925 0
M  V30 3980 H 375.572 -4.66097 -1.33723 0
M  V30 3981 N 376.915 0.57481 -1.46744 0
M  V30 3982 C 378.143 1.35856 -1.56047 0
M  V30 3983 C 378.558 1.87691 -0.204365 0
M  V30 3984 O 377.915 1.64049 0.79963 0
M  V30 3985 C 377.966 2.54066 -2.57163 0
M  V30 3986 O 377.687 2.04377 -3.87507 0
M  V30 3987 C 379.188 3.46514 -2.76483 0
M  V30 3988 H 376.408 0.414754 -0.527466 0
M  V30 3989 H 378.952 0.698035 -1.92218 0
M  V30 3990 H 377.107 3.16092 -2.23974 0
M  V30 3991 H 377.521 2.81419 -4.4261 0
M  V30 3992 H 378.995 4.25919 -3.51137 0
M  V30 3993 H 379.472 3.98951 -1.83671 0
M  V30 3994 H 380.078 2.90318 -3.10799 0
M  V30 3995 N 378.394 1.34581 0.820102 0
M  V30 3996 C 379.64 1.27285 1.57881 0
M  V30 3997 C 379.973 -0.156137 1.93571 0
M  V30 3998 O 379.248 -1.10222 1.60254 0
M  V30 3999 C 379.531 2.16639 2.87645 0
M  V30 4000 C 379.384 3.68088 2.58517 0
M  V30 4001 C 380.703 2.05378 3.8924 0
M  V30 4002 H 377.822 0.463714 0.572833 0
M  V30 4003 H 380.464 1.64859 0.944539 0
M  V30 4004 H 378.614 1.84725 3.41773 0
M  V30 4005 H 380.286 4.10382 2.10676 0
M  V30 4006 H 378.529 3.89038 1.91917 0
M  V30 4007 H 379.2 4.2598 3.51063 0
M  V30 4008 H 381.676 2.33404 3.44473 0
M  V30 4009 H 380.552 2.7012 4.77835 0
M  V30 4010 H 380.813 1.0316 4.29896 0
M  V30 4011 N 379.872 -1.04064 1.18357 0
M  V30 4012 C 381.12 -1.76915 0.977013 0
M  V30 4013 C 381.441 -1.88624 -0.494577 0
M  V30 4014 O 380.711 -1.41125 -1.3587 0
M  V30 4015 H 379.291 -0.65535 0.358504 0
M  V30 4016 H 381.953 -1.25592 1.49039 0
M  V30 4017 H 381.049 -2.78178 1.41504 0
M  V30 4018 N 381.35 -0.985608 -1.22978 0
M  V30 4019 C 382.58 -0.674603 -1.95276 0
M  V30 4020 C 382.988 0.763483 -1.73111 0
M  V30 4021 O 382.331 1.52601 -1.02268 0
M  V30 4022 C 382.393 -0.891597 -3.48268 0
M  V30 4023 C 382.057 -2.31275 -3.94158 0
M  V30 4024 C 383.054 -3.29179 -4.02415 0
M  V30 4025 C 380.739 -2.64524 -4.27004 0
M  V30 4026 C 382.733 -4.58407 -4.42879 0
M  V30 4027 C 380.42 -3.93974 -4.67149 0
M  V30 4028 C 381.418 -4.90727 -4.75053 0
M  V30 4029 O 381.106 -6.17865 -5.14294 0
M  V30 4030 H 380.838 -0.249251 -0.628371 0
M  V30 4031 H 383.392 -1.32106 -1.5728 0
M  V30 4032 H 381.622 -0.187962 -3.86243 0
M  V30 4033 H 383.311 -0.576957 -4.01779 0
M  V30 4034 H 384.077 -3.04823 -3.77237 0
M  V30 4035 H 379.956 -1.89923 -4.2006 0
M  V30 4036 H 383.5 -5.33926 -4.48964 0
M  V30 4037 H 379.397 -4.18122 -4.91777 0
M  V30 4038 H 380.165 -6.21694 -5.32389 0
M  V30 4039 N 382.828 1.3818 -0.7579 0
M  V30 4040 C 384.075 2.00019 -0.315985 0
M  V30 4041 C 384.403 1.60163 1.10355 0
M  V30 4042 O 383.658 0.83264 1.77103 0
M  V30 4043 C 383.957 3.55252 -0.391218 0
M  V30 4044 C 383.623 4.14834 -1.76702 0
M  V30 4045 C 382.285 4.30821 -2.14353 0
M  V30 4046 C 384.637 4.47658 -2.66931 0
M  V30 4047 C 381.965 4.76928 -3.41696 0
M  V30 4048 C 384.317 4.95184 -3.93669 0
M  V30 4049 C 382.981 5.09377 -4.31383 0
M  V30 4050 H 382.251 0.731923 -0.115627 0
M  V30 4051 H 384.898 1.65161 -0.969223 0
M  V30 4052 H 383.203 3.90273 0.34558 0
M  V30 4053 H 384.9 4.00988 -0.030805 0
M  V30 4054 H 381.49 4.02808 -1.46435 0
M  V30 4055 H 385.674 4.34904 -2.39106 0
M  V30 4056 H 380.93 4.86103 -3.70829 0
M  V30 4057 H 385.104 5.19551 -4.63724 0
M  V30 4058 H 382.731 5.44865 -5.30119 0
M  V30 4059 N 384.306 0.507319 1.49211 0
M  V30 4060 C 385.583 -0.0982702 1.95353 0
M  V30 4061 C 385.963 -1.53516 1.449 0
M  V30 4062 O 385.311 -2.18594 0.66551 0
M  V30 4063 C 385.521 -0.00440283 3.49 0
M  V30 4064 C 386.869 -0.175147 4.24239 0
M  V30 4065 O 387.893 -0.0792891 3.56112 0
M  V30 4066 O 386.752 -0.37276 5.45227 0
M  V30 4067 H 383.846 -0.0918236 0.821887 0
M  V30 4068 H 386.392 0.570307 1.5983 0
M  V30 4069 H 385.164 0.997402 3.78375 0
M  V30 4070 H 384.787 -0.712845 3.91158 0
M  V30 4071 N 385.784 -1.5574 0.241426 0
M  V30 4072 C 387.032 -1.98417 -0.384075 0
M  V30 4073 C 387.353 -1.13078 -1.58866 0
M  V30 4074 O 386.623 -0.212312 -1.94746 0
M  V30 4075 H 385.203 -0.732813 -0.144894 0
M  V30 4076 H 387.865 -1.9193 0.338943 0
M  V30 4077 H 386.961 -3.04219 -0.696939 0
M  V30 4078 N 387.262 0.0317525 -1.57568 0
M  V30 4079 C 388.209 1.0332 -2.06382 0
M  V30 4080 C 389.179 1.36082 -0.952414 0
M  V30 4081 O 390.364 1.46466 -1.2228 0
M  V30 4082 C 387.504 2.32989 -2.54578 0
M  V30 4083 C 386.617 2.0641 -3.79498 0
M  V30 4084 C 385.752 3.2993 -4.16317 0
M  V30 4085 C 384.791 2.98893 -5.34162 0
M  V30 4086 N 383.928 4.14857 -5.66426 0
M  V30 4087 H 388.768 0.609982 -2.9169 0
M  V30 4088 H 386.305 0.289573 -1.44222 0
M  V30 4089 H 388.263 3.0875 -2.80587 0
M  V30 4090 H 386.893 2.73039 -1.7219 0
M  V30 4091 H 385.945 1.21158 -3.6059 0
M  V30 4092 H 387.257 1.79513 -4.65378 0
M  V30 4093 H 386.411 4.1406 -4.4344 0
M  V30 4094 H 385.15 3.59938 -3.29083 0
M  V30 4095 H 384.155 2.13164 -5.06795 0
M  V30 4096 H 385.38 2.70165 -6.23047 0
M  V30 4097 H 383.326 4.44821 -4.82151 0
M  V30 4098 H 383.243 3.91374 -6.4681 0
M  V30 4099 H 384.511 4.99868 -5.98124 0
M  V30 4100 N 388.74 1.54641 0.303973 0
M  V30 4101 C 390.017 1.64455 1.05896 0
M  V30 4102 C 390.397 0.490923 2.05312 0
M  V30 4103 O 389.745 -0.512685 2.22674 0
M  V30 4104 C 389.955 3.02331 1.74347 0
M  V30 4105 C 391.303 3.59045 2.26653 0
M  V30 4106 O 392.327 3.04764 1.84384 0
M  V30 4107 O 391.186 4.54081 3.04093 0
M  V30 4108 H 388.28 0.666729 0.489287 0
M  V30 4109 H 390.826 1.66986 0.302298 0
M  V30 4110 H 389.598 3.77734 1.02142 0
M  V30 4111 H 389.221 3.03565 2.56777 0
M  V30 4112 N 390.218 -0.567019 1.47046 0
M  V30 4113 C 391.466 -1.322 1.52864 0
M  V30 4114 C 391.787 -1.94088 0.188388 0
M  V30 4115 O 391.057 -1.7941 -0.786693 0
M  V30 4116 H 389.637 -0.490894 0.563056 0
M  V30 4117 H 392.299 -0.662879 1.83281 0
M  V30 4118 H 391.395 -2.12062 2.2899 0
M  V30 4119 N 391.696 -1.35014 -0.812953 0
M  V30 4120 C 392.626 -1.30069 -1.93919 0
M  V30 4121 C 393.607 -0.176275 -1.69184 0
M  V30 4122 O 394.792 -0.370227 -1.90638 0
M  V30 4123 C 391.922 -1.06547 -3.30552 0
M  V30 4124 C 390.876 -2.15561 -3.69753 0
M  V30 4125 C 390.202 -1.77214 -5.04479 0
M  V30 4126 C 391.502 -3.57476 -3.808 0
M  V30 4127 H 393.196 -2.24303 -1.98314 0
M  V30 4128 H 390.742 -1.07977 -0.952736 0
M  V30 4129 H 392.695 -1.01729 -4.08937 0
M  V30 4130 H 391.419 -0.0875719 -3.26483 0
M  V30 4131 H 390.078 -2.19466 -2.9365 0
M  V30 4132 H 389.726 -0.780589 -4.96906 0
M  V30 4133 H 389.426 -2.50184 -5.31678 0
M  V30 4134 H 390.95 -1.7391 -5.8531 0
M  V30 4135 H 392.364 -3.55929 -4.4943 0
M  V30 4136 H 390.761 -4.29152 -4.19462 0
M  V30 4137 H 391.831 -3.94091 -2.82525 0
M  V30 4138 N 393.175 1.03435 -1.18907 0
M  V30 4139 C 394.122 2.11591 -0.921837 0
M  V30 4140 C 395.092 1.65499 0.141226 0
M  V30 4141 O 396.277 1.908 0.000242829 0
M  V30 4142 C 393.417 3.42012 -0.460616 0
M  V30 4143 C 392.53 4.01682 -1.58982 0
M  V30 4144 C 391.665 5.20091 -1.08069 0
M  V30 4145 C 390.704 5.71805 -2.18416 0
M  V30 4146 N 389.841 6.81494 -1.68849 0
M  V30 4147 H 394.681 2.33787 -1.8479 0
M  V30 4148 H 392.218 1.1467 -0.921373 0
M  V30 4149 H 394.176 4.16834 -0.174642 0
M  V30 4150 H 392.806 3.19944 0.428467 0
M  V30 4151 H 391.858 3.24127 -1.99113 0
M  V30 4152 H 393.17 4.36084 -2.4214 0
M  V30 4153 H 392.324 6.02051 -0.749615 0
M  V30 4154 H 391.063 4.87209 -0.218771 0
M  V30 4155 H 390.068 4.88461 -2.5236 0
M  V30 4156 H 391.293 6.06728 -3.05054 0
M  V30 4157 H 389.239 6.50475 -0.849572 0
M  V30 4158 H 389.156 7.14994 -2.45601 0
M  V30 4159 H 390.424 7.67063 -1.38689 0
M  V30 4160 N 394.653 0.992116 1.22453 0
M  V30 4161 C 395.585 0.500024 2.23679 0
M  V30 4162 C 396.598 -0.404463 1.57696 0
M  V30 4163 O 397.787 -0.206722 1.77299 0
M  V30 4164 C 394.887 -0.294711 3.37616 0
M  V30 4165 C 394.06 0.605723 4.33186 0
M  V30 4166 C 393.119 -0.13717 5.26021 0
M  V30 4167 O 392.145 0.477164 5.67196 0
M  V30 4168 N 393.347 -1.4197 5.62872 0
M  V30 4169 H 396.112 1.37045 2.66531 0
M  V30 4170 H 393.673 0.866741 1.36745 0
M  V30 4171 H 395.665 -0.800329 3.96707 0
M  V30 4172 H 394.235 -1.06623 2.93854 0
M  V30 4173 H 393.455 1.29202 3.72425 0
M  V30 4174 H 394.743 1.21896 4.93983 0
M  V30 4175 H 394.141 -1.94015 5.31389 0
M  V30 4176 H 392.698 -1.87052 6.24383 0
M  V30 4177 N 396.131 -1.37776 0.765217 0
M  V30 4178 C 397.408 -1.93975 0.251596 0
M  V30 4179 C 397.788 -1.69949 -1.25222 0
M  V30 4180 O 397.136 -1.04457 -2.03226 0
M  V30 4181 C 397.346 -3.43487 0.617895 0
M  V30 4182 C 398.694 -4.20564 0.584029 0
M  V30 4183 O 399.718 -3.5182 0.556888 0
M  V30 4184 O 398.577 -5.43138 0.605291 0
M  V30 4185 H 395.671 -0.82509 0.0561806 0
M  V30 4186 H 398.217 -1.47101 0.846128 0
M  V30 4187 H 396.989 -3.5453 1.65602 0
M  V30 4188 H 396.612 -3.976 -0.00403411 0
M  V30 4189 N 397.609 -0.515225 -1.4894 0
M  V30 4190 C 398.572 0.244681 -2.2789 0
M  V30 4191 C 399.572 0.881166 -1.34507 0
M  V30 4192 O 400.762 0.743497 -1.57537 0
M  V30 4193 C 397.894 1.35247 -3.12923 0
M  V30 4194 H 399.087 -0.448289 -2.96531 0
M  V30 4195 H 396.64 -0.270656 -1.53939 0
M  V30 4196 H 397.375 2.07916 -2.48881 0
M  V30 4197 H 397.16 0.901374 -3.81599 0
M  V30 4198 H 398.65 1.88737 -3.72516 0
M  V30 4199 N 399.087 1.5561 -0.249682 0
M  V30 4200 C 400.503 1.59254 0.105103 0
M  V30 4201 C 400.703 1.26685 1.56694 0
M  V30 4202 O 399.759 1.0155 2.31179 0
M  V30 4203 C 401.072 2.99687 -0.246592 0
M  V30 4204 C 402.62 3.12416 -0.191118 0
M  V30 4205 C 403.095 4.55074 -0.516885 0
M  V30 4206 N 404.586 4.60835 -0.467489 0
M  V30 4207 C 405.321 5.69201 -0.69268 0
M  V30 4208 N 404.817 6.85817 -0.981146 0
M  V30 4209 N 406.61 5.58635 -0.623198 0
M  V30 4210 H 398.761 1.75049 -1.20298 0
M  V30 4211 H 401.024 0.815003 -0.484225 0
M  V30 4212 H 400.73 3.28267 -1.26228 0
M  V30 4213 H 400.604 3.74798 0.424962 0
M  V30 4214 H 402.991 2.83615 0.815247 0
M  V30 4215 H 403.072 2.39573 -0.896563 0
M  V30 4216 H 402.716 4.84596 -1.52082 0
M  V30 4217 H 402.646 5.26181 0.210068 0
M  V30 4218 H 405.137 3.7705 -0.253373 0
M  V30 4219 H 405.45 7.64341 -1.14032 0
M  V30 4220 H 403.795 6.87494 -1.01865 0
M  V30 4221 H 406.986 4.66406 -0.397863 0
M  V30 4222 H 407.159 6.43017 -0.802093 0
M  V30 4223 N 400.565 -0.0233959 1.57583 0
M  V30 4224 C 401.495 -1.02162 2.09965 0
M  V30 4225 C 402.476 -1.3735 1.00344 0
M  V30 4226 O 403.661 -1.46135 1.27899 0
M  V30 4227 C 400.791 -2.32081 2.58371 0
M  V30 4228 C 399.745 -2.1112 3.72307 0
M  V30 4229 C 399.071 -3.46848 4.06941 0
M  V30 4230 C 400.371 -1.49276 5.00514 0
M  V30 4231 H 402.065 -0.585557 2.93618 0
M  V30 4232 H 399.611 -0.280218 1.41247 0
M  V30 4233 H 401.564 -3.02249 2.93639 0
M  V30 4234 H 400.288 -2.77758 1.71808 0
M  V30 4235 H 398.947 -1.43384 3.37397 0
M  V30 4236 H 398.595 -3.90184 3.17436 0
M  V30 4237 H 398.295 -3.33646 4.83688 0
M  V30 4238 H 399.819 -4.18369 4.44747 0
M  V30 4239 H 401.233 -2.09368 5.33702 0
M  V30 4240 H 399.63 -1.46632 5.8191 0
M  V30 4241 H 400.7 -0.459217 4.82721 0
M  V30 4242 N 402.043 -1.548 -0.295768 0
M  V30 4243 C 402.973 -1.89115 -1.36959 0
M  V30 4244 C 403.954 -0.75059 -1.52644 0
M  V30 4245 O 405.139 -1.00678 -1.66065 0
M  V30 4246 C 402.269 -2.14307 -2.73295 0
M  V30 4247 C 401.223 -3.30151 -2.72368 0
M  V30 4248 C 400.549 -3.40772 -4.12042 0
M  V30 4249 C 401.849 -4.67126 -2.33646 0
M  V30 4250 H 403.543 -2.79053 -1.08488 0
M  V30 4251 H 401.089 -1.34266 -0.520443 0
M  V30 4252 H 403.042 -2.36898 -3.48507 0
M  V30 4253 H 401.766 -1.21145 -3.03301 0
M  V30 4254 H 400.425 -3.0749 -1.99613 0
M  V30 4255 H 400.073 -2.45117 -4.39234 0
M  V30 4256 H 399.773 -4.18645 -4.12322 0
M  V30 4257 H 401.297 -3.6563 -4.89027 0
M  V30 4258 H 402.711 -4.89414 -2.98575 0
M  V30 4259 H 401.108 -5.47751 -2.45129 0
M  V30 4260 H 402.178 -4.67489 -1.28772 0
M  V30 4261 N 403.521 0.559213 -1.47345 0
M  V30 4262 C 404.468 1.66645 -1.59682 0
M  V30 4263 C 405.438 1.60168 -0.43994 0
M  V30 4264 O 406.623 1.79031 -0.659736 0
M  V30 4265 C 403.763 3.04969 -1.61518 0
M  V30 4266 C 402.876 3.21897 -2.88108 0
M  V30 4267 C 402.011 4.50608 -2.81294 0
M  V30 4268 C 401.05 4.60961 -4.02717 0
M  V30 4269 N 400.187 5.81024 -3.94151 0
M  V30 4270 H 405.027 1.55439 -2.54249 0
M  V30 4271 H 402.564 0.757219 -1.26113 0
M  V30 4272 H 404.522 3.85064 -1.60566 0
M  V30 4273 H 403.152 3.15015 -0.704645 0
M  V30 4274 H 402.204 2.35248 -2.98936 0
M  V30 4275 H 403.516 3.25412 -3.78032 0
M  V30 4276 H 402.67 5.3896 -2.7858 0
M  V30 4277 H 401.409 4.49568 -1.89049 0
M  V30 4278 H 400.414 3.71021 -4.05738 0
M  V30 4279 H 401.639 4.63761 -4.96087 0
M  V30 4280 H 399.585 5.80938 -3.04708 0
M  V30 4281 H 399.502 5.85909 -4.77752 0
M  V30 4282 H 400.77 6.71744 -3.9545 0
M  V30 4283 N 404.999 1.35443 0.805782 0
M  V30 4284 C 406.245 1.28952 1.56522 0
M  V30 4285 C 406.578 -0.135597 1.93726 0
M  V30 4286 O 405.853 -1.08516 1.61414 0
M  V30 4287 C 406.136 2.19678 2.85331 0
M  V30 4288 C 405.989 3.7081 2.54598 0
M  V30 4289 C 407.308 2.09495 3.8704 0
M  V30 4290 H 404.427 0.469764 0.567883 0
M  V30 4291 H 407.069 1.65851 0.927001 0
M  V30 4292 H 405.219 1.8834 3.39795 0
M  V30 4293 H 406.891 4.12593 2.06312 0
M  V30 4294 H 405.134 3.91051 1.8778 0
M  V30 4295 H 405.805 4.29679 3.46525 0
M  V30 4296 H 408.281 2.37045 3.41978 0
M  V30 4297 H 407.157 2.75173 4.74943 0
M  V30 4298 H 407.418 1.07714 4.28777 0
M  V30 4299 N 406.477 -1.02803 1.19454 0
M  V30 4300 C 407.726 -1.7562 0.991996 0
M  V30 4301 C 408.039 -1.89672 -0.477901 0
M  V30 4302 O 409.245 -2.59468 -0.799287 0
M  V30 4303 C 407.701 -3.15812 1.72601 0
M  V30 4304 C 407.309 -3.0981 3.23607 0
M  V30 4305 C 409.053 -3.92918 1.60674 0
M  V30 4306 C 406.96 -4.44939 3.89594 0
M  V30 4307 H 405.89 -0.658352 0.367543 0
M  V30 4308 H 408.541 -1.15044 1.42959 0
M  V30 4309 H 406.923 -3.7686 1.21624 0
M  V30 4310 H 408.097 -2.58138 3.81709 0
M  V30 4311 H 406.412 -2.46201 3.35819 0
M  V30 4312 H 409.009 -4.9287 2.07323 0
M  V30 4313 H 409.352 -4.12502 0.561025 0
M  V30 4314 H 409.885 -3.38472 2.09001 0
M  V30 4315 H 406.624 -4.30559 4.94267 0
M  V30 4316 H 406.144 -4.96664 3.36281 0
M  V30 4317 H 407.823 -5.1382 3.93189 0
M  V30 4318 N 407.956 -0.998596 -1.21925 0
M  V30 4319 C 409.181 -0.696015 -1.95372 0
M  V30 4320 C 409.606 0.733826 -1.73195 0
M  V30 4321 O 408.964 1.50242 -1.01474 0
M  V30 4322 C 409.012 -1.01466 -3.4603 0
M  V30 4323 O 408.116 -0.116415 -4.12236 0
M  V30 4324 H 407.457 -0.259938 -0.611006 0
M  V30 4325 H 409.987 -1.33711 -1.54863 0
M  V30 4326 H 409.997 -0.958855 -3.96573 0
M  V30 4327 H 408.672 -2.05653 -3.61497 0
M  V30 4328 H 407.249 -0.228193 -3.72201 0
M  V30 4329 N 409.434 1.37368 -0.772513 0
M  V30 4330 C 410.664 2.03647 -0.348082 0
M  V30 4331 C 411.072 1.58392 1.03482 0
M  V30 4332 O 410.415 0.760921 1.672 0
M  V30 4333 C 410.477 3.58131 -0.313404 0
M  V30 4334 C 410.141 4.2652 -1.64102 0
M  V30 4335 C 411.138 4.50587 -2.5936 0
M  V30 4336 C 408.823 4.64335 -1.91567 0
M  V30 4337 C 410.817 5.11526 -3.80289 0
M  V30 4338 C 408.504 5.24996 -3.12766 0
M  V30 4339 C 409.502 5.48529 -4.06946 0
M  V30 4340 O 409.19 6.07921 -5.26011 0
M  V30 4341 H 408.922 0.660538 -0.143753 0
M  V30 4342 H 411.476 1.76669 -1.04772 0
M  V30 4343 H 409.706 3.84159 0.442617 0
M  V30 4344 H 411.395 4.05813 0.0840613 0
M  V30 4345 H 412.161 4.21784 -2.39423 0
M  V30 4346 H 408.04 4.45353 -1.19088 0
M  V30 4347 H 411.584 5.29811 -4.53813 0
M  V30 4348 H 407.481 5.53223 -3.32588 0
M  V30 4349 H 408.249 6.26398 -5.26847 0
M  V30 4350 N 410.912 0.523116 1.48665 0
M  V30 4351 C 411.842 -0.23231 2.32342 0
M  V30 4352 C 412.823 -0.941637 1.41659 0
M  V30 4353 O 414.008 -0.928751 1.70552 0
M  V30 4354 C 411.138 -1.28387 3.22698 0
M  V30 4355 C 410.092 -0.693098 4.22351 0
M  V30 4356 C 409.418 -1.8468 5.01794 0
M  V30 4357 C 410.718 0.33063 5.21252 0
M  V30 4358 H 412.412 0.466192 2.95748 0
M  V30 4359 H 409.958 0.225643 1.42221 0
M  V30 4360 H 411.911 -1.82024 3.80059 0
M  V30 4361 H 410.635 -2.01186 2.57278 0
M  V30 4362 H 409.294 -0.178299 3.66166 0
M  V30 4363 H 408.942 -2.56301 4.32804 0
M  V30 4364 H 408.642 -1.45747 5.69238 0
M  V30 4365 H 410.166 -2.38709 5.62006 0
M  V30 4366 H 411.58 -0.118407 5.73178 0
M  V30 4367 H 409.977 0.636974 5.9671 0
M  V30 4368 H 411.047 1.23883 4.68808 0
M  V30 4369 N 412.39 -1.55475 0.257931 0
M  V30 4370 C 413.667 -1.91155 -0.414629 0
M  V30 4371 C 414.047 -1.18008 -1.75035 0
M  V30 4372 O 413.395 -0.301193 -2.26506 0
M  V30 4373 C 413.605 -3.44283 -0.571859 0
M  V30 4374 C 414.953 -4.15744 -0.862678 0
M  V30 4375 O 415.977 -3.50083 -0.657314 0
M  V30 4376 O 414.836 -5.31909 -1.2544 0
M  V30 4377 H 411.93 -0.796016 -0.22425 0
M  V30 4378 H 414.476 -1.66976 0.302814 0
M  V30 4379 H 413.248 -3.89558 0.368844 0
M  V30 4380 H 412.871 -3.7436 -1.33943 0
M  V30 4381 N 413.868 0.0150385 -1.57593 0
M  V30 4382 C 415.114 0.704043 -1.90187 0
M  V30 4383 C 415.447 1.74249 -0.857366 0
M  V30 4384 O 414.722 1.94092 0.125843 0
M  V30 4385 C 415.005 1.36087 -3.33395 0
M  V30 4386 C 414.858 0.334981 -4.48551 0
M  V30 4387 C 416.177 2.29112 -3.7576 0
M  V30 4388 H 413.296 0.254475 -0.691673 0
M  V30 4389 H 415.938 -0.0331678 -1.89971 0
M  V30 4390 H 414.088 1.98922 -3.3371 0
M  V30 4391 H 415.76 -0.292534 -4.60372 0
M  V30 4392 H 414.003 -0.344325 -4.32431 0
M  V30 4393 H 414.674 0.833316 -5.45674 0
M  V30 4394 H 417.15 1.76308 -3.76902 0
M  V30 4395 H 416.026 2.72043 -4.76743 0
M  V30 4396 H 416.287 3.16385 -3.08793 0
M  V30 4397 N 415.346 1.54954 0.287554 0
M  V30 4398 C 416.594 1.74528 1.01904 0
M  V30 4399 C 416.915 0.541349 1.87335 0
M  V30 4400 O 416.185 -0.444108 1.908 0
M  V30 4401 H 414.765 0.643576 0.379235 0
M  V30 4402 H 417.427 1.92333 0.315294 0
M  V30 4403 H 416.523 2.64015 1.6644 0
M  V30 4404 N 416.824 -0.551391 1.4764 0
M  V30 4405 C 418.101 -1.31229 1.45046 0
M  V30 4406 C 418.481 -2.10563 0.150527 0
M  V30 4407 O 417.829 -2.11374 -0.867956 0
M  V30 4408 C 418.039 -2.21189 2.69956 0
M  V30 4409 C 419.387 -2.82021 3.1741 0
M  V30 4410 O 420.411 -2.31488 2.70724 0
M  V30 4411 O 419.27 -3.73885 3.98588 0
M  V30 4412 H 416.364 -0.591193 0.578291 0
M  V30 4413 H 418.91 -0.569813 1.59847 0
M  V30 4414 H 417.682 -1.62207 3.56096 0
M  V30 4415 H 417.305 -3.02722 2.57769 0
M  V30 4416 N 418.302 -1.35869 -0.798587 0
M  V30 4417 C 419.55 -1.29332 -1.55298 0
M  V30 4418 C 419.871 0.129729 -1.94568 0
M  V30 4419 O 419.141 1.06796 -1.6423 0
M  V30 4420 H 417.721 -0.475737 -0.57592 0
M  V30 4421 H 420.383 -1.70062 -0.952093 0
M  V30 4422 H 419.479 -1.91458 -2.46476 0
M  V30 4423 N 419.78 1.02168 -1.19998 0
M  V30 4424 C 420.728 2.12717 -0.940967 0
M  V30 4425 C 421.722 1.69069 0.105841 0
M  V30 4426 O 422.928 1.79946 -0.0440583 0
M  V30 4427 H 419.303 0.695108 -0.28693 0
M  V30 4428 H 421.274 2.3175 -1.87975 0
M  V30 4429 C 420.023 3.44027 -0.504049 0
M  V30 4430 H 419.346 3.78036 -1.30112 0
M  V30 4431 H 420.786 4.22452 -0.361991 0
M  V30 4432 C 419.245 3.27678 0.782878 0
M  V30 4433 O 419.775 3.56949 1.84256 0
M  V30 4434 N 417.981 2.80943 0.742921 0
M  V30 4435 H 417.528 2.57322 -0.119687 0
M  V30 4436 H 417.486 2.70385 1.60435 0
M  V30 4437 N 421.258 1.00505 1.21394 0
M  V30 4438 C 422.488 0.705584 1.94178 0
M  V30 4439 C 422.896 -0.735846 1.74304 0
M  V30 4440 O 422.239 -1.50954 1.04683 0
M  V30 4441 C 422.301 0.94689 3.46806 0
M  V30 4442 C 421.965 2.37517 3.90429 0
M  V30 4443 C 422.962 3.35539 3.97127 0
M  V30 4444 C 420.647 2.71284 4.22742 0
M  V30 4445 C 422.641 4.65395 4.3553 0
M  V30 4446 C 420.328 4.01356 4.60822 0
M  V30 4447 C 421.326 4.98223 4.67186 0
M  V30 4448 O 421.014 6.25969 5.04399 0
M  V30 4449 H 420.746 0.259216 0.624326 0
M  V30 4450 H 423.3 1.34592 1.55159 0
M  V30 4451 H 421.53 0.249386 3.85895 0
M  V30 4452 H 423.219 0.640804 4.0081 0
M  V30 4453 H 423.985 3.10786 3.7234 0
M  V30 4454 H 419.864 1.96581 4.16985 0
M  V30 4455 H 423.408 5.41002 4.40412 0
M  V30 4456 H 419.305 4.25893 4.85063 0
M  V30 4457 H 420.073 6.30085 5.22431 0
M  V30 4458 N 422.737 -1.36956 0.779787 0
M  V30 4459 C 423.983 -2.00237 0.357324 0
M  V30 4460 C 424.338 -1.60787 -1.05666 0
M  V30 4461 O 423.631 -0.847836 -1.71821 0
M  V30 4462 C 423.825 -3.54585 0.447686 0
M  V30 4463 C 423.654 -4.09025 1.86891 0
M  V30 4464 C 422.424 -4.39612 2.49138 0
M  V30 4465 C 424.622 -4.29461 2.82963 0
M  V30 4466 N 422.604 -4.79816 3.82949 0
M  V30 4467 C 423.975 -4.72363 4.01588 0
M  V30 4468 C 426.03 -4.1161 2.80145 0
M  V30 4469 C 424.733 -4.99284 5.17791 0
M  V30 4470 C 426.759 -4.39672 3.95528 0
M  V30 4471 C 426.121 -4.82822 5.12896 0
M  V30 4472 H 422.22 -0.76148 0.177968 0
M  V30 4473 H 424.804 -1.6613 1.01533 0
M  V30 4474 H 422.975 -3.87982 -0.180184 0
M  V30 4475 H 424.707 -4.047 0.0023955 0
M  V30 4476 H 421.462 -4.28975 2.00693 0
M  V30 4477 H 421.886 -5.04216 4.51769 0
M  V30 4478 H 426.528 -3.77415 1.90572 0
M  V30 4479 H 424.246 -5.32365 6.07958 0
M  V30 4480 H 427.832 -4.27441 3.94697 0
M  V30 4481 H 426.712 -5.04118 6.00695 0
M  V30 4482 N 424.215 -0.530993 -1.48385 0
M  V30 4483 C 425.178 0.220497 -2.28137 0
M  V30 4484 C 426.178 0.866851 -1.35434 0
M  V30 4485 O 427.368 0.726746 -1.58316 0
M  V30 4486 C 424.5 1.31921 -3.1434 0
M  V30 4487 H 425.693 -0.479714 -2.96038 0
M  V30 4488 H 423.246 -0.286968 -1.53643 0
M  V30 4489 H 423.981 2.05264 -2.51072 0
M  V30 4490 H 423.766 0.86085 -3.82533 0
M  V30 4491 H 425.256 1.84776 -3.74497 0
M  V30 4492 N 425.693 1.55336 -0.266172 0
M  V30 4493 C 426.643 2.18848 0.639497 0
M  V30 4494 C 427.627 1.1503 1.12503 0
M  V30 4495 O 428.819 1.40875 1.0716 0
M  V30 4496 C 425.948 2.90626 1.82733 0
M  V30 4497 C 425.034 4.01723 1.35939 0
M  V30 4498 N 425.425 5.02145 0.606988 0
M  V30 4499 C 423.723 4.1463 1.6431 0
M  V30 4500 C 424.424 5.80572 0.362138 0
M  V30 4501 N 423.4 5.35551 0.931971 0
M  V30 4502 H 427.202 2.93845 0.0567057 0
M  V30 4503 H 424.716 1.62252 -0.0693312 0
M  V30 4504 H 426.713 3.34569 2.48735 0
M  V30 4505 H 425.373 2.17137 2.41416 0
M  V30 4506 H 426.384 5.17271 0.255198 0
M  V30 4507 H 423.061 3.52326 2.23993 0
M  V30 4508 H 424.451 6.71472 -0.239848 0
M  V30 4509 N 427.171 -0.0066808 1.57599 0
M  V30 4510 C 428.582 -0.550379 1.78403 0
M  V30 4511 C 428.933 -1.74339 0.900014 0
M  V30 4512 O 428.058 -2.16166 0.100713 0
M  V30 4513 C 428.653 -1.00523 3.23544 0
M  V30 4514 C 427.212 -1.49428 3.45468 0
M  V30 4515 C 426.359 -0.442444 2.73748 0
M  V30 4516 H 429.31 0.219508 1.57175 0
M  V30 4517 H 429.331 -1.87157 3.31289 0
M  V30 4518 H 428.843 -0.136735 3.87859 0
M  V30 4519 H 426.944 -2.3839 2.86358 0
M  V30 4520 H 427.057 -1.52635 4.54136 0
M  V30 4521 H 425.421 -0.902578 2.38171 0
M  V30 4522 H 426.204 0.416973 3.40758 0
M  V30 4523 N 428.649 -1.55105 -0.279332 0
M  V30 4524 C 429.898 -1.74618 -1.00952 0
M  V30 4525 C 430.211 -0.551096 -1.87676 0
M  V30 4526 O 431.417 -0.628507 -2.64125 0
M  V30 4527 C 429.873 -3.09025 -1.84476 0
M  V30 4528 C 429.481 -4.36081 -1.0265 0
M  V30 4529 C 431.225 -3.37891 -2.56963 0
M  V30 4530 C 429.132 -5.6153 -1.85576 0
M  V30 4531 H 428.062 -0.650868 -0.38064 0
M  V30 4532 H 430.713 -1.81569 -0.265475 0
M  V30 4533 H 429.095 -2.96095 -2.62952 0
M  V30 4534 H 430.269 -4.59909 -0.286354 0
M  V30 4535 H 428.584 -4.14312 -0.416464 0
M  V30 4536 H 431.181 -4.28822 -3.19399 0
M  V30 4537 H 431.524 -2.57737 -3.26921 0
M  V30 4538 H 432.057 -3.5189 -1.85522 0
M  V30 4539 H 428.796 -6.44413 -1.2005 0
M  V30 4540 H 428.316 -5.41854 -2.57204 0
M  V30 4541 H 429.995 -5.99594 -2.43096 0
M  V30 4542 N 430.127 0.543554 -1.4793 0
M  V30 4543 C 431.037 1.67657 -1.64098 0
M  V30 4544 C 432.053 1.65934 -0.523622 0
M  V30 4545 O 433.229 1.85133 -0.792943 0
M  V30 4546 C 430.294 3.04146 -1.66421 0
M  V30 4547 C 429.355 3.16831 -2.89684 0
M  V30 4548 C 428.588 4.46809 -2.91886 0
M  V30 4549 O 428.811 5.33095 -2.02895 0
M  V30 4550 O 427.745 4.63573 -3.83906 0
M  V30 4551 H 431.571 1.56957 -2.59997 0
M  V30 4552 H 429.156 0.715116 -1.31173 0
M  V30 4553 H 431.038 3.85346 -1.70548 0
M  V30 4554 H 429.713 3.152 -0.736923 0
M  V30 4555 H 428.62 2.34977 -2.91095 0
M  V30 4556 H 429.953 3.10687 -3.81752 0
M  V30 4557 N 431.605 1.3629 0.791371 0
M  V30 4558 C 432.553 1.30514 1.92533 0
M  V30 4559 C 433.547 0.197285 1.68247 0
M  V30 4560 O 434.753 0.364176 1.76278 0
M  V30 4561 H 431.128 0.406263 0.632815 0
M  V30 4562 H 433.099 2.26282 1.94523 0
M  V30 4563 C 431.848 1.10933 3.29529 0
M  V30 4564 H 431.171 1.95427 3.48781 0
M  V30 4565 H 432.611 1.10937 4.0923 0
M  V30 4566 C 431.07 -0.186123 3.36385 0
M  V30 4567 O 431.6 -1.17664 3.84081 0
M  V30 4568 N 429.806 -0.230128 2.89687 0
M  V30 4569 H 429.353 0.576545 2.51065 0
M  V30 4570 H 429.311 -1.09658 2.94657 0
M  V30 4571 N 433.083 -1.0153 1.20538 0
M  V30 4572 C 434.013 -2.11972 0.979295 0
M  V30 4573 C 434.994 -1.6985 -0.0921787 0
M  V30 4574 O 436.179 -1.94089 0.0655932 0
M  V30 4575 C 433.309 -3.43201 0.531984 0
M  V30 4576 C 432.263 -3.9907 1.54685 0
M  V30 4577 C 431.589 -5.26082 0.956127 0
M  V30 4578 C 432.889 -4.32313 2.93092 0
M  V30 4579 H 434.583 -2.31143 1.90298 0
M  V30 4580 H 432.129 -1.11079 0.916372 0
M  V30 4581 H 434.082 -4.1985 0.361044 0
M  V30 4582 H 432.806 -3.23792 -0.427327 0
M  V30 4583 H 431.465 -3.2453 1.70517 0
M  V30 4584 H 431.113 -5.02999 -0.0111538 0
M  V30 4585 H 430.813 -5.64426 1.63393 0
M  V30 4586 H 432.337 -6.05386 0.796284 0
M  V30 4587 H 433.751 -4.99845 2.80763 0
M  V30 4588 H 432.148 -4.81774 3.57791 0
M  V30 4589 H 433.218 -3.41025 3.44717 0
M  V30 4590 N 434.561 -1.01147 -1.20859 0
M  V30 4591 C 435.807 -0.698899 -1.90377 0
M  V30 4592 C 436.14 0.76904 -1.78324 0
M  V30 4593 O 435.415 1.55817 -1.16409 0
M  V30 4594 C 435.698 -1.12878 -3.41951 0
M  V30 4595 C 435.551 -2.65665 -3.62963 0
M  V30 4596 C 436.87 -0.696114 -4.3456 0
M  V30 4597 H 433.989 -0.255372 -0.691342 0
M  V30 4598 H 436.631 -1.25831 -1.42361 0
M  V30 4599 H 434.781 -0.652827 -3.82976 0
M  V30 4600 H 436.453 -3.21074 -3.31224 0
M  V30 4601 H 434.696 -3.06878 -3.06608 0
M  V30 4602 H 435.367 -2.90797 -4.69192 0
M  V30 4603 H 437.843 -1.10521 -4.01154 0
M  V30 4604 H 436.719 -1.025 -5.39245 0
M  V30 4605 H 436.98 0.402465 -4.40264 0
M  V30 4606 N 436.039 1.36541 -0.78704 0
M  V30 4607 C 437.002 2.28413 -0.189778 0
M  V30 4608 C 438.002 1.48719 0.611499 0
M  V30 4609 O 439.192 1.68737 0.432842 0
M  V30 4610 C 436.324 3.32824 0.737638 0
M  V30 4611 H 437.517 2.82743 -0.999831 0
M  V30 4612 H 435.07 1.46065 -0.556298 0
M  V30 4613 H 435.805 2.83646 1.57212 0
M  V30 4614 H 435.59 3.91752 0.165044 0
M  V30 4615 H 437.08 4.0144 1.15047 0
M  V30 4616 N 437.518 0.538854 1.48102 0
M  V30 4617 C 438.764 0.00801365 2.02798 0
M  V30 4618 C 439.097 -1.3309 1.41424 0
M  V30 4619 O 438.372 -1.86169 0.563158 0
M  V30 4620 C 438.655 -0.104589 3.59948 0
M  V30 4621 C 438.508 1.26012 4.31788 0
M  V30 4622 C 439.827 -0.827055 4.32259 0
M  V30 4623 H 436.946 0.00438624 0.736987 0
M  V30 4624 H 439.588 0.6976 1.7673 0
M  V30 4625 H 437.738 -0.691893 3.82289 0
M  V30 4626 H 439.41 1.88922 4.2084 0
M  V30 4627 H 437.653 1.83968 3.92859 0
M  V30 4628 H 438.324 1.13424 5.40221 0
M  V30 4629 H 440.8 -0.328578 4.14801 0
M  V30 4630 H 439.676 -0.87476 5.41885 0
M  V30 4631 H 439.937 -1.87927 4.0017 0
M  V30 4632 N 438.996 -1.55193 0.274407 0
M  V30 4633 C 440.242 -1.99877 -0.343086 0
M  V30 4634 C 440.575 -1.16256 -1.55558 0
M  V30 4635 O 439.85 -0.232462 -1.93106 0
M  V30 4636 C 440.133 -3.52706 -0.725965 0
M  V30 4637 C 439.986 -4.47081 0.493818 0
M  V30 4638 C 441.305 -4.11422 -1.56268 0
M  V30 4639 H 438.424 -0.726625 -0.123229 0
M  V30 4640 H 441.066 -1.86136 0.38121 0
M  V30 4641 H 439.216 -3.64546 -1.34307 0
M  V30 4642 H 440.888 -4.47186 1.13237 0
M  V30 4643 H 439.131 -4.1877 1.13201 0
M  V30 4644 H 439.802 -5.51699 0.18217 0
M  V30 4645 H 442.278 -4.02855 -1.04151 0
M  V30 4646 H 441.154 -5.18568 -1.79939 0
M  V30 4647 H 441.415 -3.61607 -2.54348 0
M  V30 4648 N 440.474 -0.00167713 -1.576 0
M  V30 4649 C 441.751 0.719951 -1.81868 0
M  V30 4650 C 442.131 1.91895 -0.879747 0
M  V30 4651 O 441.479 2.28389 0.0711423 0
M  V30 4652 C 441.689 1.12409 -3.30402 0
M  V30 4653 C 443.037 1.52724 -3.96182 0
M  V30 4654 O 444.061 1.21784 -3.34734 0
M  V30 4655 O 442.92 2.10265 -5.04431 0
M  V30 4656 H 440.014 0.350707 -0.748955 0
M  V30 4657 H 442.56 -0.0272597 -1.69678 0
M  V30 4658 H 441.332 0.269532 -3.90371 0
M  V30 4659 H 440.955 1.93035 -3.47596 0
M  V30 4660 N 441.952 1.55251 0.271103 0
M  V30 4661 C 442.882 1.9127 1.33933 0
M  V30 4662 C 443.863 0.77478 1.5143 0
M  V30 4663 O 445.048 1.03307 1.64442 0
M  V30 4664 C 442.178 2.18627 2.69851 0
M  V30 4665 C 441.132 3.34442 2.67081 0
M  V30 4666 C 440.458 3.47284 4.06569 0
M  V30 4667 C 441.758 4.70784 2.26185 0
M  V30 4668 H 443.452 2.80744 1.04035 0
M  V30 4669 H 440.998 1.35077 0.499017 0
M  V30 4670 H 442.951 2.42413 3.44694 0
M  V30 4671 H 441.675 1.25955 3.01335 0
M  V30 4672 H 440.334 3.10627 1.94695 0
M  V30 4673 H 439.982 2.52074 4.35279 0
M  V30 4674 H 439.682 4.25152 4.0561 0
M  V30 4675 H 441.206 3.73363 4.83148 0
M  V30 4676 H 442.62 4.94102 2.90751 0
M  V30 4677 H 441.017 5.51582 2.36384 0
M  V30 4678 H 442.087 4.69478 1.21319 0
M  V30 4679 N 443.43 -0.535701 1.48216 0
M  V30 4680 C 444.34 -1.66785 1.64985 0
M  V30 4681 C 445.356 -1.65654 0.532414 0
M  V30 4682 O 446.532 -1.8471 0.80275 0
M  V30 4683 C 443.597 -3.0326 1.68031 0
M  V30 4684 C 442.658 -3.1529 2.9136 0
M  V30 4685 C 441.891 -4.45255 2.94252 0
M  V30 4686 O 442.114 -5.32011 2.05719 0
M  V30 4687 O 441.048 -4.6153 3.86359 0
M  V30 4688 H 444.874 -1.55576 2.60825 0
M  V30 4689 H 442.459 -0.70815 1.31551 0
M  V30 4690 H 444.341 -3.84436 1.72589 0
M  V30 4691 H 443.016 -3.14805 0.753628 0
M  V30 4692 H 441.923 -2.3343 2.92337 0
M  V30 4693 H 443.256 -3.08658 3.83394 0
M  V30 4694 N 444.908 -1.36708 -0.784132 0
M  V30 4695 C 445.84 -1.27333 -1.90575 0
M  V30 4696 C 446.853 -0.191706 -1.61667 0
M  V30 4697 O 448.042 -0.446854 -1.72816 0
M  V30 4698 C 445.142 -0.943177 -3.25511 0
M  V30 4699 C 444.315 -2.12776 -3.82158 0
M  V30 4700 C 443.374 -1.76983 -4.95544 0
M  V30 4701 O 442.4 -2.49134 -5.11782 0
M  V30 4702 N 443.602 -0.706624 -5.76183 0
M  V30 4703 H 446.367 -2.23974 -1.99138 0
M  V30 4704 H 443.928 -1.30171 -0.962656 0
M  V30 4705 H 445.92 -0.684799 -3.98864 0
M  V30 4706 H 444.49 -0.0657333 -3.12531 0
M  V30 4707 H 443.71 -2.54863 -3.0073 0
M  V30 4708 H 444.998 -2.91904 -4.16737 0
M  V30 4709 H 444.396 -0.107643 -5.65598 0
M  V30 4710 H 442.953 -0.50808 -6.49817 0
M  V30 4711 N 446.386 1.0089 -1.21074 0
M  V30 4712 C 447.333 2.09588 -0.966512 0
M  V30 4713 C 448.303 1.65761 0.106089 0
M  V30 4714 O 449.488 1.90758 -0.0402287 0
M  V30 4715 C 446.628 3.40958 -0.533058 0
M  V30 4716 C 445.741 3.9822 -1.67467 0
M  V30 4717 C 444.876 5.17682 -1.19076 0
M  V30 4718 C 443.915 5.67043 -2.30496 0
M  V30 4719 N 443.052 6.77759 -1.83267 0
M  V30 4720 H 447.892 2.29815 -1.89708 0
M  V30 4721 H 445.429 1.12689 -0.945489 0
M  V30 4722 H 447.387 4.1637 -0.263019 0
M  V30 4723 H 446.017 3.20781 0.360505 0
M  V30 4724 H 445.069 3.1983 -2.05944 0
M  V30 4725 H 446.381 4.3085 -2.51336 0
M  V30 4726 H 445.535 6.00326 -0.877151 0
M  V30 4727 H 444.274 4.86635 -0.322066 0
M  V30 4728 H 443.279 4.82999 -2.62664 0
M  V30 4729 H 444.504 6.00121 -3.17855 0
M  V30 4730 H 442.45 6.48527 -0.987356 0
M  V30 4731 H 442.367 7.09624 -2.60711 0
M  V30 4732 H 443.635 7.63949 -1.54928 0
M  V30 4733 N 447.864 1.01787 1.20321 0
M  V30 4734 C 448.811 0.589197 2.23153 0
M  V30 4735 C 449.781 -0.391367 1.61423 0
M  V30 4736 O 450.966 -0.290518 1.88575 0
M  V30 4737 C 448.106 -0.0650747 3.45039 0
M  V30 4738 C 447.219 0.960207 4.21194 0
M  V30 4739 C 446.354 0.276854 5.30478 0
M  V30 4740 C 445.393 1.2888 5.98378 0
M  V30 4741 N 444.53 0.632031 6.99249 0
M  V30 4742 H 449.37 1.47071 2.59179 0
M  V30 4743 H 446.907 0.736192 1.27352 0
M  V30 4744 H 448.865 -0.461552 4.14639 0
M  V30 4745 H 447.495 -0.910233 3.09701 0
M  V30 4746 H 446.547 1.47484 3.50646 0
M  V30 4747 H 447.859 1.72977 4.67847 0
M  V30 4748 H 447.013 -0.175056 6.06447 0
M  V30 4749 H 445.752 -0.525004 4.84866 0
M  V30 4750 H 444.757 1.75109 5.21169 0
M  V30 4751 H 445.982 2.09196 6.46076 0
M  V30 4752 H 443.928 -0.149935 6.55829 0
M  V30 4753 H 443.845 1.33964 7.44036 0
M  V30 4754 H 445.113 0.203755 7.79234 0
M  V30 4755 N 449.342 -1.36122 0.79427 0
M  V30 4756 C 450.591 -1.98361 0.365464 0
M  V30 4757 C 450.904 -1.6374 -1.06997 0
M  V30 4758 O 452.11 -2.19251 -1.60129 0
M  V30 4759 C 450.566 -3.54821 0.602496 0
M  V30 4760 C 450.174 -3.98362 2.04967 0
M  V30 4761 C 451.918 -4.2383 0.238437 0
M  V30 4762 C 449.825 -5.47619 2.2331 0
M  V30 4763 H 448.755 -0.742193 0.13291 0
M  V30 4764 H 451.406 -1.55354 0.976589 0
M  V30 4765 H 449.788 -3.95922 -0.078409 0
M  V30 4766 H 450.962 -3.68447 2.76737 0
M  V30 4767 H 449.277 -3.42206 2.37243 0
M  V30 4768 H 451.874 -5.33529 0.353705 0
M  V30 4769 H 452.217 -4.08264 -0.814006 0
M  V30 4770 H 452.75 -3.88108 0.872769 0
M  V30 4771 H 449.489 -5.68138 3.26955 0
M  V30 4772 H 449.009 -5.79145 1.5605 0
M  V30 4773 H 450.688 -6.13911 2.0426 0
M  V30 4774 N 450.82 -0.546701 -1.47814 0
M  V30 4775 C 452.066 -0.0187684 -2.02791 0
M  V30 4776 C 452.399 1.32338 -1.42128 0
M  V30 4777 O 451.674 1.85867 -0.573023 0
M  V30 4778 C 451.957 0.0854985 -3.59998 0
M  V30 4779 C 451.81 -1.283 -4.31114 0
M  V30 4780 C 453.129 0.80412 -4.32691 0
M  V30 4781 H 450.248 -0.0082946 -0.736953 0
M  V30 4782 H 452.89 -0.706962 -1.76358 0
M  V30 4783 H 451.04 0.671609 -3.82651 0
M  V30 4784 H 452.712 -1.91151 -4.19832 0
M  V30 4785 H 450.955 -1.86049 -3.91878 0
M  V30 4786 H 451.626 -1.16287 -5.39612 0
M  V30 4787 H 454.102 0.306576 -4.14969 0
M  V30 4788 H 452.978 0.846011 -5.42341 0
M  V30 4789 H 453.239 1.85802 -4.01161 0
M  V30 4790 N 452.299 1.55045 -0.282633 0
M  V30 4791 C 453.246 2.22822 0.601566 0
M  V30 4792 C 454.216 1.20431 1.14392 0
M  V30 4793 O 455.401 1.48996 1.19184 0
M  V30 4794 C 452.541 2.95873 1.77632 0
M  V30 4795 C 451.654 4.12999 1.26711 0
M  V30 4796 C 450.789 4.73676 2.40426 0
M  V30 4797 C 449.828 5.82981 1.86545 0
M  V30 4798 N 448.965 6.3769 2.93762 0
M  V30 4799 H 453.805 2.97995 0.0169528 0
M  V30 4800 H 451.342 1.471 -0.00339964 0
M  V30 4801 H 453.3 3.36447 2.46697 0
M  V30 4802 H 451.93 2.2311 2.33285 0
M  V30 4803 H 450.982 3.77494 0.469314 0
M  V30 4804 H 452.294 4.91803 0.832518 0
M  V30 4805 H 451.448 5.17008 3.17471 0
M  V30 4806 H 450.187 3.94164 2.87203 0
M  V30 4807 H 449.192 5.39092 1.07983 0
M  V30 4808 H 450.417 6.64366 1.40694 0
M  V30 4809 H 448.363 5.61069 3.39908 0
M  V30 4810 H 448.28 7.11788 2.54744 0
M  V30 4811 H 449.548 6.8568 3.7076 0
M  V30 4812 N 453.777 0.010035 1.57597 0
M  V30 4813 C 455.026 -0.671945 1.90178 0
M  V30 4814 C 455.339 -1.74376 0.886131 0
M  V30 4815 O 456.545 -2.48107 1.10252 0
M  V30 4816 C 455.001 -1.24636 3.3763 0
M  V30 4817 C 454.609 -0.208838 4.47513 0
M  V30 4818 C 456.353 -1.90595 3.79307 0
M  V30 4819 C 454.26 -0.793814 5.86048 0
M  V30 4820 H 453.19 -0.25474 0.709665 0
M  V30 4821 H 455.841 0.0722206 1.83358 0
M  V30 4822 H 454.223 -2.04152 3.3932 0
M  V30 4823 H 455.397 0.562463 4.57354 0
M  V30 4824 H 453.712 0.350889 4.14919 0
M  V30 4825 H 456.309 -2.35284 4.80151 0
M  V30 4826 H 456.652 -2.74074 3.13352 0
M  V30 4827 H 457.185 -1.17798 3.79958 0
M  V30 4828 H 453.924 0.00240855 6.555 0
M  V30 4829 H 453.444 -1.53404 5.79851 0
M  V30 4830 H 455.123 -1.2894 6.34022 0
M  V30 4831 N 455.255 -1.55392 -0.262866 0
M  V30 4832 C 456.165 -1.92077 -1.34698 0
M  V30 4833 C 457.181 -0.819227 -1.53508 0
M  V30 4834 O 458.357 -1.11921 -1.67439 0
M  V30 4835 C 455.422 -2.19407 -2.68443 0
M  V30 4836 C 454.483 -3.42905 -2.58292 0
M  V30 4837 C 453.716 -3.68921 -3.85659 0
M  V30 4838 O 453.939 -2.97275 -4.8681 0
M  V30 4839 O 452.873 -4.62455 -3.85252 0
M  V30 4840 H 456.699 -2.84384 -1.06581 0
M  V30 4841 H 454.284 -1.42069 -0.462264 0
M  V30 4842 H 456.166 -2.38365 -3.47506 0
M  V30 4843 H 454.841 -1.30282 -2.96325 0
M  V30 4844 H 453.748 -3.29272 -1.7757 0
M  V30 4845 H 455.081 -4.32282 -2.35358 0
M  V30 4846 N 456.733 0.527833 -1.48498 0
M  V30 4847 C 457.643 1.65907 -1.65867 0
M  V30 4848 C 458.659 1.6537 -0.541192 0
M  V30 4849 O 459.835 1.84282 -0.812534 0
M  V30 4850 C 456.9 3.02364 -1.69637 0
M  V30 4851 C 455.961 3.1374 -2.93028 0
M  V30 4852 C 455.194 4.43688 -2.96609 0
M  V30 4853 O 455.417 5.30913 -2.08538 0
M  V30 4854 O 454.351 4.59475 -3.88802 0
M  V30 4855 H 458.177 1.5419 -2.61647 0
M  V30 4856 H 455.762 0.701163 -1.31924 0
M  V30 4857 H 457.644 3.83515 -1.74625 0
M  V30 4858 H 456.319 3.14401 -0.770312 0
M  V30 4859 H 455.226 2.31877 -2.93571 0
M  V30 4860 H 456.559 3.06621 -3.85026 0
M  V30 4861 N 458.211 1.37122 0.776871 0
M  V30 4862 C 459.459 1.31787 1.53221 0
M  V30 4863 C 459.78 -0.0987589 1.9475 0
M  V30 4864 O 459.05 -1.0417 1.65908 0
M  V30 4865 H 457.63 0.484839 0.568278 0
M  V30 4866 H 460.292 1.71556 0.924917 0
M  V30 4867 H 459.388 1.95355 2.43398 0
M  V30 4868 N 459.689 -1.00246 1.21608 0
M  V30 4869 C 461.1 -1.55511 1.03312 0
M  V30 4870 C 461.451 -1.91946 -0.406332 0
M  V30 4871 O 460.576 -1.73753 -1.28992 0
M  V30 4872 C 461.171 -2.82576 1.86913 0
M  V30 4873 C 459.73 -3.34318 1.72941 0
M  V30 4874 C 458.877 -2.07487 1.83968 0
M  V30 4875 H 461.828 -0.824638 1.35593 0
M  V30 4876 H 461.849 -3.54559 1.38087 0
M  V30 4877 H 461.361 -2.56026 2.91672 0
M  V30 4878 H 459.462 -3.65797 0.70877 0
M  V30 4879 H 459.575 -4.05566 2.55055 0
M  V30 4880 H 457.939 -2.20603 1.27304 0
M  V30 4881 H 458.722 -1.83346 2.9024 0
M  V30 4882 N 461.167 -1.02423 -1.1978 0
M  V30 4883 C 462.413 -0.719051 -1.89625 0
M  V30 4884 C 462.746 0.750083 -1.7913 0
M  V30 4885 O 462.021 1.54574 -1.18056 0
M  V30 4886 C 462.304 -1.16499 -3.40735 0
M  V30 4887 C 462.157 -2.695 -3.60125 0
M  V30 4888 C 463.476 -0.742166 -4.33797 0
M  V30 4889 H 460.595 -0.26269 -0.688595 0
M  V30 4890 H 463.237 -1.27333 -1.41018 0
M  V30 4891 H 461.387 -0.69341 -3.82262 0
M  V30 4892 H 463.059 -3.24569 -3.278 0
M  V30 4893 H 461.302 -3.10113 -3.03336 0
M  V30 4894 H 461.973 -2.95757 -4.66081 0
M  V30 4895 H 464.449 -1.1477 -3.99959 0
M  V30 4896 H 463.325 -1.08213 -5.38127 0
M  V30 4897 H 463.586 0.355747 -4.40666 0
M  V30 4898 N 462.645 1.35699 -0.801477 0
M  V30 4899 C 463.891 1.99208 -0.380022 0
M  V30 4900 C 464.224 1.63445 1.04878 0
M  V30 4901 O 463.499 0.895223 1.72673 0
M  V30 4902 C 463.782 3.55755 -0.557708 0
M  V30 4903 C 463.635 4.01332 -2.03107 0
M  V30 4904 C 464.954 4.40096 0.0197968 0
M  V30 4905 H 462.073 0.723667 -0.139552 0
M  V30 4906 H 464.715 1.60928 -1.01006 0
M  V30 4907 H 462.865 3.88494 -0.0213741 0
M  V30 4908 H 464.537 3.79026 -2.62939 0
M  V30 4909 H 462.78 3.52429 -2.52936 0
M  V30 4910 H 463.451 5.10234 -2.1063 0
M  V30 4911 H 465.927 4.13786 -0.438179 0
M  V30 4912 H 464.803 5.48735 -0.134477 0
M  V30 4913 H 465.064 4.2786 1.11303 0
M  V30 4914 N 464.123 0.554532 1.47522 0
M  V30 4915 C 465.534 0.120446 1.86311 0
M  V30 4916 C 465.885 -1.30904 1.46145 0
M  V30 4917 O 465.01 -1.98434 0.863294 0
M  V30 4918 C 465.605 0.211808 3.38137 0
M  V30 4919 C 464.164 -0.167224 3.76028 0
M  V30 4920 C 463.311 0.560576 2.71575 0
M  V30 4921 H 466.262 0.764408 1.39077 0
M  V30 4922 H 466.283 -0.570275 3.76202 0
M  V30 4923 H 465.795 1.25232 3.6734 0
M  V30 4924 H 463.896 -1.20894 3.52442 0
M  V30 4925 H 464.009 0.189473 4.78725 0
M  V30 4926 H 462.373 0.00396836 2.547 0
M  V30 4927 H 463.156 1.60219 3.0362 0
M  V30 4928 N 465.601 -1.54893 0.290851 0
M  V30 4929 C 466.847 -2.0023 -0.321867 0
M  V30 4930 C 467.18 -1.179 -1.54316 0
M  V30 4931 O 466.455 -0.25293 -1.92848 0
M  V30 4932 C 466.738 -3.53456 -0.688515 0
M  V30 4933 C 466.591 -4.46532 0.541209 0
M  V30 4934 C 467.91 -4.13057 -1.51895 0
M  V30 4935 H 465.029 -0.727891 -0.115515 0
M  V30 4936 H 467.671 -1.85722 0.400931 0
M  V30 4937 H 465.821 -3.6595 -1.30433 0
M  V30 4938 H 467.493 -4.4596 1.17973 0
M  V30 4939 H 465.736 -4.17545 1.17636 0
M  V30 4940 H 466.407 -5.51475 0.240675 0
M  V30 4941 H 468.883 -4.03937 -0.99872 0
M  V30 4942 H 467.759 -5.20448 -1.74429 0
M  V30 4943 H 468.02 -3.64284 -2.50498 0
M  V30 4944 N 467.08 -0.0183926 -1.57589 0
M  V30 4945 C 468.491 0.521927 -1.79256 0
M  V30 4946 C 468.842 1.72885 -0.927636 0
M  V30 4947 O 467.967 2.15978 -0.135091 0
M  V30 4948 C 468.562 0.953632 -3.25102 0
M  V30 4949 C 467.121 1.43913 -3.47801 0
M  V30 4950 C 466.268 0.398837 -2.74417 0
M  V30 4951 H 469.219 -0.244485 -1.56805 0
M  V30 4952 H 469.24 1.81863 -3.34224 0
M  V30 4953 H 468.752 0.0750123 -3.88028 0
M  V30 4954 H 466.853 2.33804 -2.90115 0
M  V30 4955 H 466.966 1.45391 -4.56507 0
M  V30 4956 H 465.33 0.864572 -2.39577 0
M  V30 4957 H 466.113 -0.471132 -3.40052 0
M  V30 4958 N 468.558 1.5553 0.254621 0
M  V30 4959 C 469.491 1.84624 1.34124 0
M  V30 4960 C 470.469 0.700693 1.46728 0
M  V30 4961 O 471.653 0.94564 1.63064 0
M  V30 4962 C 468.78 2.02412 2.71564 0
M  V30 4963 C 467.826 3.25028 2.7615 0
M  V30 4964 S 468.659 4.81893 2.33538 0
M  V30 4965 C 469.815 5.02677 3.72917 0
M  V30 4966 H 470.048 2.76501 1.09245 0
M  V30 4967 H 467.581 1.47537 0.455211 0
M  V30 4968 H 469.539 2.13345 3.50705 0
M  V30 4969 H 468.2 1.11391 2.93685 0
M  V30 4970 H 467.393 3.34418 3.77069 0
M  V30 4971 H 466.995 3.12781 2.05046 0
M  V30 4972 H 469.287 4.89546 4.68349 0
M  V30 4973 H 470.23 6.0468 3.68467 0
M  V30 4974 H 470.638 4.30561 3.65072 0
M  V30 4975 N 470.036 -0.519951 1.48776 0
M  V30 4976 C 471.264 -1.29971 1.60982 0
M  V30 4977 C 471.679 -1.86803 0.273885 0
M  V30 4978 O 471.036 -1.66904 -0.738193 0
M  V30 4979 C 471.087 -2.44346 2.66415 0
M  V30 4980 O 470.808 -1.89855 3.94825 0
M  V30 4981 C 472.309 -3.36014 2.89153 0
M  V30 4982 H 469.529 -0.394891 0.542496 0
M  V30 4983 H 472.073 -0.626214 1.94676 0
M  V30 4984 H 470.228 -3.07562 2.35552 0
M  V30 4985 H 470.642 -2.64798 4.5275 0
M  V30 4986 H 472.116 -4.12593 3.66703 0
M  V30 4987 H 472.593 -3.91859 1.98351 0
M  V30 4988 H 473.199 -2.78582 3.21359 0
M  V30 4989 N 471.514 -1.37532 -0.769588 0
M  V30 4990 C 472.477 -1.33292 -1.86456 0
M  V30 4991 C 473.477 -0.236537 -1.59051 0
M  V30 4992 O 474.667 -0.492511 -1.67093 0
M  V30 4993 C 471.799 -1.07118 -3.23633 0
M  V30 4994 H 472.992 -2.30692 -1.91628 0
M  V30 4995 H 470.545 -1.22593 -0.969572 0
M  V30 4996 H 471.28 -0.102578 -3.24138 0
M  V30 4997 H 471.065 -1.86479 -3.44917 0
M  V30 4998 H 472.555 -1.06806 -4.03711 0
M  V30 4999 N 472.992 0.995999 -1.22138 0
M  V30 5000 C 474.408 1.25917 -0.980667 0
M  V30 5001 C 474.608 1.98819 0.327604 0
M  V30 5002 O 473.664 2.29587 1.05101 0
M  V30 5003 C 474.977 2.07399 -2.17729 0
M  V30 5004 C 476.525 2.20594 -2.22052 0
M  V30 5005 C 477 3.05462 -3.41258 0
M  V30 5006 N 478.491 3.13049 -3.41401 0
M  V30 5007 C 479.226 3.78997 -4.30289 0
M  V30 5008 N 478.722 4.46899 -5.2939 0
M  V30 5009 N 480.515 3.75728 -4.18073 0
M  V30 5010 H 472.666 0.507158 -2.06256 0
M  V30 5011 H 474.929 0.28658 -0.903646 0
M  V30 5012 H 474.635 1.61191 -3.12586 0
M  V30 5013 H 474.509 3.08154 -2.17534 0
M  V30 5014 H 476.896 2.66017 -1.27745 0
M  V30 5015 H 476.977 1.1928 -2.26287 0
M  V30 5016 H 476.621 2.60739 -4.35864 0
M  V30 5017 H 476.551 4.06911 -3.34262 0
M  V30 5018 H 479.042 2.64721 -2.69688 0
M  V30 5019 H 479.355 4.94952 -5.935 0
M  V30 5020 H 477.7 4.45657 -5.33306 0
M  V30 5021 H 480.891 3.2184 -3.39907 0
M  V30 5022 H 481.064 4.26845 -4.87553 0
M  V30 5023 N 474.47 1.03057 1.19235 0
M  V30 5024 C 475.881 0.757449 1.70645 0
M  V30 5025 C 476.232 -0.722735 1.82403 0
M  V30 5026 O 475.357 -1.56325 1.49638 0
M  V30 5027 C 475.952 1.36833 3.09939 0
M  V30 5028 C 474.511 1.14375 3.58602 0
M  V30 5029 C 473.658 1.46533 2.35422 0
M  V30 5030 H 476.609 1.19828 1.04052 0
M  V30 5031 H 476.63 0.766184 3.72706 0
M  V30 5032 H 476.142 2.44562 3.01349 0
M  V30 5033 H 474.243 0.0847542 3.72504 0
M  V30 5034 H 474.356 1.83366 4.42622 0
M  V30 5035 H 472.72 0.884712 2.38841 0
M  V30 5036 H 473.503 2.55349 2.2946 0
M  V30 5037 N 475.948 -1.35272 0.808662 0
M  V30 5038 C 477.195 -1.98709 0.390003 0
M  V30 5039 C 477.523 -1.64148 -1.04335 0
M  V30 5040 O 476.778 -0.897797 -1.73891 0
M  V30 5041 C 477.077 -3.53556 0.522798 0
M  V30 5042 C 476.743 -4.0799 1.91977 0
M  V30 5043 C 475.405 -4.22568 2.30195 0
M  V30 5044 C 477.757 -4.37442 2.83361 0
M  V30 5045 C 475.085 -4.63918 3.59162 0
M  V30 5046 C 477.437 -4.80232 4.11776 0
M  V30 5047 C 476.101 -4.93016 4.49991 0
M  V30 5048 H 475.371 -0.727127 0.142712 0
M  V30 5049 H 478.018 -1.6145 1.02985 0
M  V30 5050 H 476.323 -3.91287 -0.200494 0
M  V30 5051 H 478.02 -4.00598 0.179608 0
M  V30 5052 H 474.61 -3.97096 1.61284 0
M  V30 5053 H 478.794 -4.25731 2.55083 0
M  V30 5054 H 474.05 -4.72005 3.88615 0
M  V30 5055 H 478.224 -5.01982 4.82687 0
M  V30 5056 H 475.851 -5.24814 5.49976 0
M  V30 5057 N 477.426 -0.562348 -1.47226 0
M  V30 5058 C 478.703 0.0256985 -1.95583 0
M  V30 5059 C 479.083 1.48032 -1.50498 0
M  V30 5060 O 478.431 2.15973 -0.746181 0
M  V30 5061 C 478.641 -0.125129 -3.48776 0
M  V30 5062 C 479.989 0.0175728 -4.24596 0
M  V30 5063 O 481.013 -0.0529341 -3.56161 0
M  V30 5064 O 479.872 0.170145 -5.46235 0
M  V30 5065 H 476.966 0.0612565 -0.824728 0
M  V30 5066 H 479.512 -0.629233 -1.57603 0
M  V30 5067 H 478.284 -1.13715 -3.74412 0
M  V30 5068 H 477.907 0.567178 -3.93534 0
M  V30 5069 N 478.904 1.54736 -0.299062 0
M  V30 5070 C 480.152 1.99706 0.31017 0
M  V30 5071 C 480.473 1.18896 1.54559 0
M  V30 5072 O 479.743 0.284445 1.93824 0
M  V30 5073 H 478.323 0.737686 0.117596 0
M  V30 5074 H 480.985 1.9054 -0.409943 0
M  V30 5075 H 480.081 3.06596 0.58355 0
M  V30 5076 N 480.382 0.0267497 1.57577 0
M  V30 5077 C 481.798 -0.32962 1.56159 0
M  V30 5078 C 481.998 -1.73059 1.03213 0
M  V30 5079 O 481.054 -2.43233 0.677804 0
M  V30 5080 C 482.367 -0.18039 3.00158 0
M  V30 5081 C 483.915 -0.253334 3.11973 0
M  V30 5082 C 484.39 -0.132921 4.57807 0
M  V30 5083 N 485.881 -0.189979 4.6281 0
M  V30 5084 C 486.616 -0.120554 5.73273 0
M  V30 5085 N 486.112 -0.000180315 6.928 0
M  V30 5086 N 487.905 -0.174369 5.61829 0
M  V30 5087 H 480.056 0.942896 1.90324 0
M  V30 5088 H 482.319 0.3639 0.875375 0
M  V30 5089 H 482.025 0.784576 3.42837 0
M  V30 5090 H 481.899 -0.951565 3.65 0
M  V30 5091 H 484.286 -1.20876 2.69208 0
M  V30 5092 H 484.367 0.548177 2.49857 0
M  V30 5093 H 484.011 0.819073 5.01252 0
M  V30 5094 H 483.941 -0.953264 5.179 0
M  V30 5095 H 486.432 -0.283257 3.76837 0
M  V30 5096 H 486.745 0.0461666 7.72786 0
M  V30 5097 H 485.09 0.034569 6.94991 0
M  V30 5098 H 488.281 -0.266794 4.67339 0
M  V30 5099 H 488.454 -0.116802 6.47895 0
M  V30 5100 N 481.861 -1.55662 -0.24637 0
M  V30 5101 C 483.138 -1.68272 -0.997198 0
M  V30 5102 C 483.518 -0.566785 -2.03349 0
M  V30 5103 O 482.866 0.429688 -2.24424 0
M  V30 5104 C 483.076 -3.08594 -1.63006 0
M  V30 5105 C 484.424 -3.6721 -2.13171 0
M  V30 5106 O 485.448 -3.11397 -1.72946 0
M  V30 5107 O 484.307 -4.65054 -2.87031 0
M  V30 5108 H 481.401 -0.684429 -0.464205 0
M  V30 5109 H 483.947 -1.67993 -0.240114 0
M  V30 5110 H 482.719 -3.81264 -0.880527 0
M  V30 5111 H 482.342 -3.12886 -2.45333 0
M  V30 5112 N 483.339 0.512053 -1.4905 0
M  V30 5113 C 484.755 0.84224 -1.35567 0
M  V30 5114 C 484.955 1.97878 -0.380319 0
M  V30 5115 O 484.011 2.51769 0.19201 0
M  V30 5116 C 485.324 1.19286 -2.76028 0
M  V30 5117 C 486.872 1.30171 -2.84648 0
M  V30 5118 C 487.347 1.68568 -4.25851 0
M  V30 5119 N 488.838 1.75638 -4.28609 0
M  V30 5120 C 489.573 2.06769 -5.34821 0
M  V30 5121 N 489.069 2.36201 -6.51292 0
M  V30 5122 N 490.862 2.07927 -5.22229 0
M  V30 5123 H 483.013 -0.237574 -2.11067 0
M  V30 5124 H 485.276 -0.0436747 -0.946993 0
M  V30 5125 H 484.982 0.431199 -3.49047 0
M  V30 5126 H 484.856 2.13889 -3.10695 0
M  V30 5127 H 487.243 2.05411 -2.11873 0
M  V30 5128 H 487.324 0.336457 -2.53578 0
M  V30 5129 H 486.968 0.938824 -4.99148 0
M  V30 5130 H 486.898 2.66174 -4.54377 0
M  V30 5131 H 489.389 1.55097 -3.44606 0
M  V30 5132 H 489.702 2.59112 -7.28066 0
M  V30 5133 H 488.047 2.33681 -6.54536 0
M  V30 5134 H 491.238 1.84403 -4.30248 0
M  V30 5135 H 491.411 2.31856 -6.05101 0
M  V30 5136 N 484.817 1.37938 0.762283 0
M  V30 5137 C 486.063 1.33866 1.52341 0
M  V30 5138 C 486.396 -0.0738961 1.94059 0
M  V30 5139 O 485.671 -1.03326 1.64785 0
M  V30 5140 C 485.954 2.28644 2.78197 0
M  V30 5141 C 485.807 3.78722 2.42672 0
M  V30 5142 C 487.126 2.21702 3.80179 0
M  V30 5143 H 484.245 0.487593 0.55265 0
M  V30 5144 H 486.887 1.68717 0.873767 0
M  V30 5145 H 485.037 1.99055 3.33631 0
M  V30 5146 H 486.709 4.18948 1.93081 0
M  V30 5147 H 484.952 3.96827 1.75244 0
M  V30 5148 H 485.623 4.40486 3.3268 0
M  V30 5149 H 488.099 2.47805 3.34263 0
M  V30 5150 H 486.975 2.90143 4.65949 0
M  V30 5151 H 487.236 1.21301 4.25133 0
M  V30 5152 N 486.295 -0.989507 1.22664 0
M  V30 5153 C 487.258 -2.06183 1.00106 0
M  V30 5154 C 488.258 -1.60765 -0.0337726 0
M  V30 5155 O 489.448 -1.72989 0.205072 0
M  V30 5156 C 486.58 -3.37021 0.51279 0
M  V30 5157 H 487.773 -2.27629 1.95256 0
M  V30 5158 H 485.326 -1.16158 1.0458 0
M  V30 5159 H 486.061 -3.21261 -0.442917 0
M  V30 5160 H 485.846 -3.71323 1.25942 0
M  V30 5161 H 487.336 -4.1591 0.375315 0
M  V30 5162 N 487.773 -1.03688 -1.18687 0
M  V30 5163 C 489.184 -0.766488 -1.70241 0
M  V30 5164 C 489.535 0.713052 -1.82784 0
M  V30 5165 O 488.66 1.55529 -1.50465 0
M  V30 5166 C 489.255 -1.38475 -3.09209 0
M  V30 5167 C 487.814 -1.16276 -3.5799 0
M  V30 5168 C 486.961 -1.4778 -2.34641 0
M  V30 5169 H 489.912 -1.20378 -1.03415 0
M  V30 5170 H 489.933 -0.785939 -3.72295 0
M  V30 5171 H 489.445 -2.46157 -3.00048 0
M  V30 5172 H 487.546 -0.104508 -3.72453 0
M  V30 5173 H 487.659 -1.8571 -4.41643 0
M  V30 5174 H 486.023 -0.897366 -2.38368 0
M  V30 5175 H 486.806 -2.56562 -2.28102 0
M  V30 5176 N 489.251 1.34841 -0.815825 0
M  V30 5177 C 490.214 2.27959 -0.238185 0
M  V30 5178 C 491.214 1.49983 0.579816 0
M  V30 5179 O 492.404 1.69617 0.396953 0
M  V30 5180 C 489.536 3.34314 0.666876 0
M  V30 5181 H 490.729 2.80558 -1.05958 0
M  V30 5182 H 488.282 1.44852 -0.587156 0
M  V30 5183 H 489.017 2.86916 1.5116 0
M  V30 5184 H 488.802 3.92014 0.0819106 0
M  V30 5185 H 490.292 4.0379 1.06506 0
M  V30 5186 N 490.729 0.570148 1.46925 0
M  V30 5187 C 491.975 0.0510284 2.02736 0
M  V30 5188 C 492.308 -1.3006 1.44215 0
M  V30 5189 O 491.583 -1.84932 0.602521 0
M  V30 5190 C 491.866 -0.028215 3.60089 0
M  V30 5191 C 491.719 1.35142 4.29018 0
M  V30 5192 C 493.038 -0.735181 4.33916 0
M  V30 5193 H 490.157 0.0200178 0.736728 0
M  V30 5194 H 492.799 0.73493 1.75211 0
M  V30 5195 H 490.949 -0.610648 3.83671 0
M  V30 5196 H 492.621 1.97806 4.16738 0
M  V30 5197 H 490.864 1.9226 3.88868 0
M  V30 5198 H 491.535 1.24857 5.37694 0
M  V30 5199 H 494.011 -0.240519 4.15404 0
M  V30 5200 H 492.887 -0.759622 5.43618 0
M  V30 5201 H 493.148 -1.79397 4.04066 0
M  V30 5202 N 492.207 -1.54576 0.307264 0
M  V30 5203 C 493.154 -2.23751 -0.56604 0
M  V30 5204 C 494.124 -1.22235 -1.12462 0
M  V30 5205 O 495.309 -1.50873 -1.16799 0
M  V30 5206 C 492.449 -2.98661 -1.72903 0
M  V30 5207 C 491.562 -4.14963 -1.20124 0
M  V30 5208 C 490.697 -4.77441 -2.3286 0
M  V30 5209 C 489.736 -5.85875 -1.77247 0
M  V30 5210 N 488.873 -6.42282 -2.8358 0
M  V30 5211 H 493.713 -2.97984 0.0304578 0
M  V30 5212 H 491.25 -1.47076 0.0268015 0
M  V30 5213 H 493.208 -3.40329 -2.41313 0
M  V30 5214 H 491.838 -2.26793 -2.29706 0
M  V30 5215 H 490.89 -3.78193 -0.409198 0
M  V30 5216 H 492.202 -4.93066 -0.754171 0
M  V30 5217 H 491.356 -5.21993 -3.09205 0
M  V30 5218 H 490.095 -3.98684 -2.80896 0
M  V30 5219 H 489.1 -5.40741 -0.993926 0
M  V30 5220 H 490.325 -6.6652 -1.30107 0
M  V30 5221 H 488.271 -5.66406 -3.30939 0
M  V30 5222 H 488.188 -7.1575 -2.43388 0
M  V30 5223 H 489.456 -6.91492 -3.59804 0
M  V30 5224 N 493.685 -0.035106 -1.57561 0
M  V30 5225 C 495.096 0.502885 -1.798 0
M  V30 5226 C 495.447 1.71892 -0.945921 0
M  V30 5227 O 494.572 2.15822 -0.157991 0
M  V30 5228 C 495.167 0.919097 -3.26095 0
M  V30 5229 C 493.726 1.40216 -3.49308 0
M  V30 5230 C 492.873 0.369709 -2.74824 0
M  V30 5231 H 495.824 -0.261102 -1.56537 0
M  V30 5232 H 495.845 1.78308 -3.36135 0
M  V30 5233 H 495.357 0.0338526 -3.88085 0
M  V30 5234 H 493.458 2.30714 -2.92578 0
M  V30 5235 H 493.571 1.40541 -4.58023 0
M  V30 5236 H 491.935 0.839113 -2.40481 0
M  V30 5237 H 492.718 -0.507173 -3.39533 0
M  V30 5238 N 495.163 1.55791 0.238111 0
M  V30 5239 C 496.096 1.86036 1.32158 0
M  V30 5240 C 497.074 0.716216 1.45976 0
M  V30 5241 O 498.258 0.962882 1.62052 0
M  V30 5242 C 495.385 2.05281 2.69402 0
M  V30 5243 C 494.431 3.27939 2.72687 0
M  V30 5244 S 495.264 4.84342 2.28413 0
M  V30 5245 C 496.42 5.06604 3.67565 0
M  V30 5246 H 496.653 2.77644 1.06306 0
M  V30 5247 H 494.186 1.48012 0.439537 0
M  V30 5248 H 496.144 2.17053 3.48423 0
M  V30 5249 H 494.805 1.14499 2.92487 0
M  V30 5250 H 493.998 3.38398 3.73501 0
M  V30 5251 H 493.6 3.14938 2.01717 0
M  V30 5252 H 495.892 4.94486 4.6313 0
M  V30 5253 H 496.835 6.08554 3.62033 0
M  V30 5254 H 497.243 4.34409 3.60485 0
M  V30 5255 N 496.642 -0.504142 1.49319 0
M  V30 5256 C 497.574 -1.62265 1.61872 0
M  V30 5257 C 498.587 -1.54881 0.501573 0
M  V30 5258 O 499.776 -1.6087 0.773497 0
M  V30 5259 C 496.876 -3.01042 1.55651 0
M  V30 5260 C 496.049 -3.33642 2.82845 0
M  V30 5261 C 495.108 -4.51816 2.69719 0
M  V30 5262 O 494.134 -4.53755 3.4365 0
M  V30 5263 N 495.336 -5.51543 1.81055 0
M  V30 5264 H 498.101 -1.51924 2.58339 0
M  V30 5265 H 495.662 -0.691954 1.46368 0
M  V30 5266 H 497.654 -3.78013 1.44528 0
M  V30 5267 H 496.224 -3.05323 0.670546 0
M  V30 5268 H 495.444 -2.45598 3.08343 0
M  V30 5269 H 496.732 -3.5222 3.67177 0
M  V30 5270 H 496.13 -5.52774 1.20241 0
M  V30 5271 H 494.687 -6.27629 1.75856 0
M  V30 5272 N 498.12 -1.38341 -0.754957 0
M  V30 5273 C 499.369 -1.33791 -1.5094 0
M  V30 5274 C 499.682 0.0699267 -1.95475 0
M  V30 5275 O 500.888 0.237956 -2.70455 0
M  V30 5276 C 499.344 -2.34934 -2.72643 0
M  V30 5277 C 498.952 -3.81332 -2.35138 0
M  V30 5278 C 500.696 -2.39425 -3.50536 0
M  V30 5279 C 498.603 -4.74164 -3.53444 0
M  V30 5280 H 497.533 -0.497314 -0.566741 0
M  V30 5281 H 500.184 -1.63888 -0.825403 0
M  V30 5282 H 498.566 -1.97878 -3.43017 0
M  V30 5283 H 499.74 -4.27319 -1.7244 0
M  V30 5284 H 498.055 -3.79946 -1.70382 0
M  V30 5285 H 500.652 -3.0598 -4.38498 0
M  V30 5286 H 500.995 -1.41278 -3.91594 0
M  V30 5287 H 501.528 -2.75274 -2.87174 0
M  V30 5288 H 498.267 -5.73501 -3.17453 0
M  V30 5289 H 497.787 -4.3287 -4.15191 0
M  V30 5290 H 499.466 -4.92111 -4.20043 0
M  V30 5291 N 499.598 0.982988 -1.23187 0
M  V30 5292 C 500.847 1.71817 -1.05649 0
M  V30 5293 C 501.16 1.91315 0.407176 0
M  V30 5294 O 502.366 2.62256 0.702436 0
M  V30 5295 C 500.822 3.09188 -1.84203 0
M  V30 5296 C 500.43 2.97586 -3.34882 0
M  V30 5297 C 502.174 3.86684 -1.75146 0
M  V30 5298 C 500.081 4.30173 -4.05839 0
M  V30 5299 H 499.011 0.644258 -0.391724 0
M  V30 5300 H 501.662 1.09659 -1.4713 0
M  V30 5301 H 500.044 3.72087 -1.35527 0
M  V30 5302 H 501.218 2.43793 -3.91026 0
M  V30 5303 H 499.533 2.33567 -3.44725 0
M  V30 5304 H 502.13 4.84836 -2.25473 0
M  V30 5305 H 502.473 4.10136 -0.713737 0
M  V30 5306 H 503.006 3.30482 -2.21419 0
M  V30 5307 H 499.745 4.11918 -5.09906 0
M  V30 5308 H 499.265 4.83841 -3.54482 0
M  V30 5309 H 500.944 4.98873 -4.11989 0
M  V30 5310 N 501.076 1.04316 1.18135 0
M  V30 5311 C 501.986 0.646876 2.25505 0
M  V30 5312 C 503.002 -0.328008 1.7088 0
M  V30 5313 O 504.178 -0.182309 2.00573 0
M  V30 5314 C 501.243 0.0185664 3.46695 0
M  V30 5315 C 500.304 1.04277 4.16443 0
M  V30 5316 C 499.537 0.444352 5.31847 0
M  V30 5317 O 499.76 -0.748735 5.65465 0
M  V30 5318 O 498.694 1.17428 5.90334 0
M  V30 5319 H 502.52 1.54147 2.61672 0
M  V30 5320 H 500.105 0.814188 1.25265 0
M  V30 5321 H 501.987 -0.331068 4.20097 0
M  V30 5322 H 500.662 -0.849814 3.12346 0
M  V30 5323 H 499.569 1.44425 3.45098 0
M  V30 5324 H 500.902 1.882 4.54798 0
M  V30 5325 N 502.554 -1.34406 0.822964 0
M  V30 5326 C 503.965 -1.8069 0.469879 0
M  V30 5327 C 504.316 -1.68223 -1.00972 0
M  V30 5328 O 503.441 -1.22226 -1.78577 0
M  V30 5329 C 504.036 -3.28064 0.846118 0
M  V30 5330 C 502.595 -3.72428 0.545402 0
M  V30 5331 C 501.742 -2.56116 1.06301 0
M  V30 5332 H 504.693 -1.22153 1.01313 0
M  V30 5333 H 504.714 -3.80205 0.149922 0
M  V30 5334 H 504.226 -3.37107 1.92304 0
M  V30 5335 H 502.327 -3.68924 -0.522109 0
M  V30 5336 H 502.44 -4.66548 1.0895 0
M  V30 5337 H 500.804 -2.50048 0.484554 0
M  V30 5338 H 501.587 -2.67928 2.14638 0
M  V30 5339 N 504.032 -0.577932 -1.46621 0
M  V30 5340 C 504.942 0.160651 -2.34049 0
M  V30 5341 C 505.958 0.890911 -1.49462 0
M  V30 5342 O 507.134 0.855166 -1.82343 0
M  V30 5343 C 504.199 1.16447 -3.26559 0
M  V30 5344 C 503.26 0.4394 -4.27045 0
M  V30 5345 C 502.493 1.3954 -5.15135 0
M  V30 5346 O 502.716 2.63162 -5.06065 0
M  V30 5347 O 501.65 0.908585 -5.95003 0
M  V30 5348 H 505.476 -0.557057 -2.98547 0
M  V30 5349 H 503.061 -0.338369 -1.45518 0
M  V30 5350 H 504.943 1.7434 -3.83645 0
M  V30 5351 H 503.618 1.86373 -2.64663 0
M  V30 5352 H 502.525 -0.181247 -3.73661 0
M  V30 5353 H 503.858 -0.218799 -4.91713 0
M  V30 5354 N 505.51 1.54411 -0.315457 0
M  V30 5355 C 506.758 2.00023 0.288971 0
M  V30 5356 C 507.079 1.20529 1.5329 0
M  V30 5357 O 506.349 0.304986 1.93511 0
M  V30 5358 H 504.929 0.738891 0.109766 0
M  V30 5359 H 507.591 1.90094 -0.430129 0
M  V30 5360 H 506.687 3.07198 0.550999 0
M  V30 5361 N 506.988 0.0434614 1.5754 0
M  V30 5362 C 507.935 -0.93356 2.11077 0
M  V30 5363 C 508.905 -1.31383 1.01626 0
M  V30 5364 O 510.09 -1.40465 1.29129 0
M  V30 5365 C 507.23 -2.20578 2.65404 0
M  V30 5366 C 506.343 -1.88068 3.88914 0
M  V30 5367 C 505.478 -3.09691 4.31584 0
M  V30 5368 C 504.517 -2.73067 5.47815 0
M  V30 5369 N 503.654 -3.87359 5.85574 0
M  V30 5370 H 508.494 -0.470118 2.94268 0
M  V30 5371 H 506.031 -0.220434 1.45439 0
M  V30 5372 H 507.989 -2.95011 2.94999 0
M  V30 5373 H 506.619 -2.64513 1.85021 0
M  V30 5374 H 505.671 -1.03816 3.6596 0
M  V30 5375 H 506.983 -1.57104 4.73413 0
M  V30 5376 H 506.137 -3.92431 4.62691 0
M  V30 5377 H 504.876 -3.43827 3.45882 0
M  V30 5378 H 503.881 -1.88742 5.16388 0
M  V30 5379 H 505.106 -2.40131 6.35227 0
M  V30 5380 H 503.052 -4.21311 5.02825 0
M  V30 5381 H 502.969 -3.60068 6.64746 0
M  V30 5382 H 504.237 -4.70761 6.21292 0
M  V30 5383 N 508.466 -1.55915 -0.229846 0
M  V30 5384 C 509.414 -1.9258 -1.30444 0
M  V30 5385 C 510.408 -0.806839 -1.48951 0
M  V30 5386 O 511.614 -0.991606 -1.50224 0
M  V30 5387 H 507.989 -0.611878 -0.437161 0
M  V30 5388 H 509.96 -2.82264 -0.96797 0
M  V30 5389 C 508.709 -2.25171 -2.6494 0
M  V30 5390 H 508.032 -3.10782 -2.51504 0
M  V30 5391 H 509.472 -2.54716 -3.38963 0
M  V30 5392 C 507.931 -1.07394 -3.19324 0
M  V30 5393 O 508.461 -0.330759 -4.00336 0
M  V30 5394 N 506.667 -0.859984 -2.77584 0
M  V30 5395 H 506.214 -1.46605 -2.11813 0
M  V30 5396 H 506.172 -0.0736671 -3.14314 0
M  V30 5397 N 509.944 0.496216 -1.49584 0
M  V30 5398 C 511.174 1.27209 -1.62793 0
M  V30 5399 C 511.582 1.86799 -0.300476 0
M  V30 5400 O 510.925 1.68802 0.724674 0
M  V30 5401 C 510.987 2.43812 -2.64189 0
M  V30 5402 C 510.651 2.05055 -4.08414 0
M  V30 5403 C 511.648 1.58752 -4.9507 0
M  V30 5404 C 509.333 2.14543 -4.54177 0
M  V30 5405 C 511.327 1.22448 -6.25528 0
M  V30 5406 C 509.014 1.77851 -5.84647 0
M  V30 5407 C 510.012 1.31878 -6.70147 0
M  V30 5408 O 509.7 0.956834 -7.98185 0
M  V30 5409 H 509.432 0.391848 -0.550846 0
M  V30 5410 H 511.986 0.601712 -1.96389 0
M  V30 5411 H 510.216 3.13941 -2.25783 0
M  V30 5412 H 511.905 3.05829 -2.66877 0
M  V30 5413 H 512.671 1.50863 -4.60939 0
M  V30 5414 H 508.55 2.49277 -3.87791 0
M  V30 5415 H 512.094 0.864933 -6.92217 0
M  V30 5416 H 507.991 1.8539 -6.18305 0
M  V30 5417 H 508.759 1.08789 -8.11238 0
M  V30 5418 N 511.423 1.38739 0.74761 0
M  V30 5419 C 512.651 1.38521 1.53686 0
M  V30 5420 C 513.066 -0.0235129 1.88785 0
M  V30 5421 O 512.423 -0.991662 1.53207 0
M  V30 5422 C 512.474 2.24641 2.83229 0
M  V30 5423 O 512.195 3.60026 2.49625 0
M  V30 5424 C 513.696 2.32669 3.77333 0
M  V30 5425 H 510.916 0.473589 0.475347 0
M  V30 5426 H 513.46 1.82395 0.924786 0
M  V30 5427 H 511.615 1.84213 3.40799 0
M  V30 5428 H 512.029 4.05435 3.3275 0
M  V30 5429 H 513.503 2.97201 4.65162 0
M  V30 5430 H 513.98 1.3421 4.18192 0
M  V30 5431 H 514.586 2.73512 3.25685 0
M  V30 5432 N 512.901 -0.976442 1.23707 0
M  V30 5433 C 514.15 -1.71254 1.06559 0
M  V30 5434 C 514.463 -1.91528 -0.397024 0
M  V30 5435 O 515.669 -2.62625 -0.688518 0
M  V30 5436 C 514.125 -3.08207 1.8584 0
M  V30 5437 C 513.733 -2.95806 3.36456 0
M  V30 5438 C 515.477 -3.85749 1.77194 0
M  V30 5439 C 513.384 -4.28015 4.08114 0
M  V30 5440 H 512.314 -0.642171 0.395136 0
M  V30 5441 H 514.965 -1.08877 1.4771 0
M  V30 5442 H 513.347 -3.71363 1.37498 0
M  V30 5443 H 514.521 -2.41716 3.92314 0
M  V30 5444 H 512.836 -2.31736 3.45959 0
M  V30 5445 H 515.433 -4.83633 2.28041 0
M  V30 5446 H 515.776 -4.09752 0.735477 0
M  V30 5447 H 516.309 -3.29303 2.23169 0
M  V30 5448 H 513.048 -4.09208 5.12083 0
M  V30 5449 H 512.568 -4.81955 3.57043 0
M  V30 5450 H 514.247 -4.96681 4.14629 0
M  V30 5451 N 514.379 -1.04941 -1.1758 0
M  V30 5452 C 515.607 -0.778294 -1.91703 0
M  V30 5453 C 516.022 0.665697 -1.76675 0
M  V30 5454 O 515.379 1.45456 -1.10222 0
M  V30 5455 C 515.43 -1.14628 -3.42845 0
M  V30 5456 O 515.151 -2.53359 -3.57409 0
M  V30 5457 C 516.652 -0.900931 -4.34049 0
M  V30 5458 H 513.872 -0.283167 -0.608323 0
M  V30 5459 H 516.416 -1.39942 -1.49119 0
M  V30 5460 H 514.571 -0.569953 -3.83184 0
M  V30 5461 H 514.985 -2.67709 -4.51035 0
M  V30 5462 H 516.459 -1.20817 -5.38616 0
M  V30 5463 H 516.936 0.163966 -4.38894 0
M  V30 5464 H 517.542 -1.46097 -3.99419 0
M  V30 5465 N 515.857 1.33968 -0.830081 0
M  V30 5466 C 517.105 1.97672 -0.420734 0
M  V30 5467 C 517.426 1.66111 1.02138 0
M  V30 5468 O 516.696 0.955503 1.71017 0
M  V30 5469 H 515.276 0.73125 -0.152587 0
M  V30 5470 H 517.938 1.63483 -1.0611 0
M  V30 5471 H 517.034 3.07294 -0.545588 0
M  V30 5472 N 517.335 0.585699 1.46312 0
M  V30 5473 C 518.612 0.00542031 1.95599 0
M  V30 5474 C 518.992 -1.45619 1.52834 0
M  V30 5475 O 518.34 -2.14759 0.780446 0
M  V30 5476 C 518.55 0.180601 3.48532 0
M  V30 5477 C 519.898 0.049979 4.24571 0
M  V30 5478 O 520.922 0.109589 3.56031 0
M  V30 5479 O 519.781 -0.0832226 5.46437 0
M  V30 5480 H 516.875 -0.0481281 0.825598 0
M  V30 5481 H 519.421 0.654227 1.56582 0
M  V30 5482 H 518.193 1.19657 3.72556 0
M  V30 5483 H 517.816 -0.504498 3.94386 0
M  V30 5484 N 518.813 -1.54241 0.323641 0
M  V30 5485 C 519.746 -2.20579 -0.584833 0
M  V30 5486 C 520.724 -1.18286 -1.11567 0
M  V30 5487 O 521.908 -1.47025 -1.17966 0
M  V30 5488 C 519.035 -2.86754 -1.80249 0
M  V30 5489 C 518.081 -4.02767 -1.4029 0
M  V30 5490 S 518.914 -5.33693 -0.439539 0
M  V30 5491 C 520.07 -6.03362 -1.66448 0
M  V30 5492 H 520.303 -2.97292 -0.0213238 0
M  V30 5493 H 517.836 -1.54024 0.107726 0
M  V30 5494 H 519.794 -3.25503 -2.50116 0
M  V30 5495 H 518.455 -2.09844 -2.33719 0
M  V30 5496 H 517.648 -4.47933 -2.31024 0
M  V30 5497 H 517.25 -3.65692 -0.783928 0
M  V30 5498 H 519.542 -6.25546 -2.6019 0
M  V30 5499 H 520.485 -6.9689 -1.25498 0
M  V30 5500 H 520.893 -5.33273 -1.85149 0
M  V30 5501 N 520.291 -0.0518155 -1.57515 0
M  V30 5502 C 521.54 0.621286 -1.91893 0
M  V30 5503 C 521.853 1.71966 -0.932052 0
M  V30 5504 O 523.059 2.45096 -1.16791 0
M  V30 5505 C 521.515 1.15641 -3.40816 0
M  V30 5506 C 521.123 0.0901146 -4.47909 0
M  V30 5507 C 522.867 1.80472 -3.84227 0
M  V30 5508 C 520.774 0.638154 -5.87947 0
M  V30 5509 H 519.704 0.235835 -0.716169 0
M  V30 5510 H 522.355 -0.120809 -1.83102 0
M  V30 5511 H 520.737 1.95084 -3.44613 0
M  V30 5512 H 521.911 -0.683525 -4.55702 0
M  V30 5513 H 520.226 -0.460774 -4.13843 0
M  V30 5514 H 522.823 2.22471 -4.86221 0
M  V30 5515 H 523.166 2.65669 -3.20508 0
M  V30 5516 H 523.699 1.07683 -3.82948 0
M  V30 5517 H 520.438 -0.176202 -6.55263 0
M  V30 5518 H 519.958 1.37976 -5.83714 0
M  V30 5519 H 521.637 1.12085 -6.37217 0
M  V30 5520 N 521.769 1.56035 0.221574 0
M  V30 5521 C 522.719 1.8881 1.27807 0
M  V30 5522 C 523.703 0.751177 1.42289 0
M  V30 5523 O 524.895 1.01359 1.45104 0
M  V30 5524 C 522.024 2.20828 2.6285 0
M  V30 5525 C 521.11 3.40912 2.52269 0
M  V30 5526 N 521.501 4.59531 2.1134 0
M  V30 5527 C 519.799 3.44526 2.83228 0
M  V30 5528 C 520.5 5.41689 2.1201 0
M  V30 5529 N 519.476 4.814 2.52497 0
M  V30 5530 H 523.278 2.78036 0.952529 0
M  V30 5531 H 520.792 1.566 0.430134 0
M  V30 5532 H 522.789 2.42483 3.39127 0
M  V30 5533 H 521.449 1.32914 2.9625 0
M  V30 5534 H 522.46 4.8469 1.82472 0
M  V30 5535 H 519.137 2.66956 3.21 0
M  V30 5536 H 520.527 6.46643 1.82491 0
M  V30 5537 N 523.247 -0.488276 1.49845 0
M  V30 5538 C 524.493 -1.24065 1.61182 0
M  V30 5539 C 524.848 -1.9004 0.300435 0
M  V30 5540 O 524.141 -1.78341 -0.700365 0
M  V30 5541 C 524.335 -2.32152 2.71735 0
M  V30 5542 C 524.164 -1.76778 4.13497 0
M  V30 5543 C 522.934 -1.57513 4.80123 0
M  V30 5544 C 525.132 -1.27242 4.98311 0
M  V30 5545 N 523.114 -0.972015 6.06156 0
M  V30 5546 C 524.485 -0.791457 6.14928 0
M  V30 5547 C 526.54 -1.15934 4.84214 0
M  V30 5548 C 525.243 -0.208593 7.18997 0
M  V30 5549 C 527.269 -0.590436 5.88445 0
M  V30 5550 C 526.631 -0.119767 7.04298 0
M  V30 5551 H 522.73 -0.443487 0.644083 0
M  V30 5552 H 525.314 -0.545551 1.86901 0
M  V30 5553 H 523.485 -2.99108 2.47768 0
M  V30 5554 H 525.217 -2.99187 2.72523 0
M  V30 5555 H 521.972 -1.82247 4.37131 0
M  V30 5556 H 522.396 -0.689367 6.73481 0
M  V30 5557 H 527.038 -1.5092 3.94947 0
M  V30 5558 H 524.756 0.153501 8.07954 0
M  V30 5559 H 528.342 -0.505548 5.79599 0
M  V30 5560 H 527.222 0.313568 7.83573 0
M  V30 5561 N 524.725 -1.39134 -0.740242 0
M  V30 5562 C 526.141 -1.20623 -1.0451 0
M  V30 5563 C 526.341 -0.0641651 -2.01398 0
M  V30 5564 O 525.397 0.585843 -2.4561 0
M  V30 5565 C 526.71 -2.53815 -1.6124 0
M  V30 5566 C 528.258 -2.60615 -1.73346 0
M  V30 5567 C 528.733 -3.94015 -2.33486 0
M  V30 5568 N 530.224 -3.95627 -2.40902 0
M  V30 5569 C 530.959 -4.95616 -2.88361 0
M  V30 5570 N 530.455 -6.06003 -3.35756 0
M  V30 5571 N 532.248 -4.82998 -2.87523 0
M  V30 5572 H 524.399 -2.12176 -0.0975576 0
M  V30 5573 H 526.662 -0.942066 -0.105904 0
M  V30 5574 H 526.368 -3.37911 -0.975144 0
M  V30 5575 H 526.242 -2.73162 -2.6012 0
M  V30 5576 H 528.629 -1.76906 -2.36195 0
M  V30 5577 H 528.71 -2.45123 -0.731336 0
M  V30 5578 H 528.354 -4.78153 -1.71267 0
M  V30 5579 H 528.284 -4.06825 -3.34366 0
M  V30 5580 H 530.775 -3.15903 -2.07398 0
M  V30 5581 H 531.088 -6.78215 -3.70464 0
M  V30 5582 H 529.433 -6.09604 -3.33778 0
M  V30 5583 H 532.624 -3.95866 -2.49816 0
M  V30 5584 H 532.797 -5.61072 -3.24196 0
M  V30 5585 N 526.204 0.969867 -1.24223 0
M  V30 5586 C 527.152 2.08535 -1.03034 0
M  V30 5587 C 528.146 1.69366 0.0340379 0
M  V30 5588 O 529.352 1.79597 -0.12034 0
M  V30 5589 H 525.727 0.682313 -0.316154 0
M  V30 5590 H 527.698 2.23569 -1.97635 0
M  V30 5591 C 526.447 3.4158 -0.649509 0
M  V30 5592 H 525.77 3.72177 -1.46028 0
M  V30 5593 H 527.21 4.20536 -0.540841 0
M  V30 5594 C 525.669 3.30703 0.643194 0
M  V30 5595 O 526.199 3.64443 1.68951 0
M  V30 5596 N 524.405 2.83841 0.623095 0
M  V30 5597 H 523.952 2.56583 -0.228719 0
M  V30 5598 H 523.91 2.76946 1.48823 0
M  V30 5599 N 527.682 1.05563 1.17022 0
M  V30 5600 C 528.928 0.778872 1.87897 0
M  V30 5601 C 529.283 -0.686839 1.79723 0
M  V30 5602 O 528.576 -1.49612 1.19694 0
M  V30 5603 C 528.77 1.19849 3.36706 0
M  V30 5604 C 528.599 2.70345 3.59366 0
M  V30 5605 C 527.369 3.37707 3.75875 0
M  V30 5606 C 529.567 3.68564 3.58699 0
M  V30 5607 N 527.549 4.7703 3.86414 0
M  V30 5608 C 528.92 4.93634 3.75134 0
M  V30 5609 C 530.975 3.6198 3.4187 0
M  V30 5610 C 529.678 6.12907 3.76481 0
M  V30 5611 C 531.704 4.80697 3.44507 0
M  V30 5612 C 531.066 6.04592 3.61453 0
M  V30 5613 H 527.165 0.337297 0.705517 0
M  V30 5614 H 529.749 1.34832 1.40458 0
M  V30 5615 H 527.92 0.656958 3.82804 0
M  V30 5616 H 529.652 0.871172 3.95212 0
M  V30 5617 H 526.407 2.88108 3.75887 0
M  V30 5618 H 526.831 5.49483 3.95471 0
M  V30 5619 H 531.473 2.67154 3.27702 0
M  V30 5620 H 529.191 7.08073 3.89432 0
M  V30 5621 H 532.777 4.77259 3.32738 0
M  V30 5622 H 531.657 6.94916 3.63403 0
M  V30 5623 N 529.16 -1.33526 0.837174 0
M  V30 5624 C 530.437 -1.92369 0.354065 0
M  V30 5625 C 530.817 -1.76348 -1.16038 0
M  V30 5626 O 530.165 -1.15083 -1.97403 0
M  V30 5627 C 530.375 -3.39728 0.799101 0
M  V30 5628 C 531.723 -4.16877 0.806139 0
M  V30 5629 O 532.747 -3.48373 0.742597 0
M  V30 5630 O 531.606 -5.39166 0.892345 0
M  V30 5631 H 528.7 -0.820952 0.0998378 0
M  V30 5632 H 531.246 -1.42409 0.922913 0
M  V30 5633 H 530.018 -3.45254 1.84162 0
M  V30 5634 H 529.641 -3.97062 0.206731 0
M  V30 5635 N 530.638 -0.59345 -1.46 0
M  V30 5636 C 531.885 -0.0831523 -2.02329 0
M  V30 5637 C 532.213 1.28093 -1.46364 0
M  V30 5638 O 531.468 1.85526 -0.622793 0
M  V30 5639 C 531.767 0.021178 -3.57394 0
M  V30 5640 C 531.433 -1.27671 -4.32448 0
M  V30 5641 C 530.095 -1.63227 -4.5267 0
M  V30 5642 C 532.447 -2.13511 -4.7546 0
M  V30 5643 C 529.775 -2.84401 -5.1316 0
M  V30 5644 C 532.127 -3.33922 -5.37289 0
M  V30 5645 C 530.791 -3.69747 -5.55737 0
M  V30 5646 H 530.061 -0.0304276 -0.740375 0
M  V30 5647 H 532.708 -0.772239 -1.75239 0
M  V30 5648 H 531.013 0.793454 -3.83682 0
M  V30 5649 H 532.71 0.431942 -3.98667 0
M  V30 5650 H 529.3 -0.989937 -4.17011 0
M  V30 5651 H 533.484 -1.87344 -4.59582 0
M  V30 5652 H 528.74 -3.12282 -5.25633 0
M  V30 5653 H 532.914 -4.00698 -5.69574 0
M  V30 5654 H 530.541 -4.6373 -6.02377 0
M  V30 5655 N 532.116 1.54067 -0.331816 0
M  V30 5656 C 533.066 2.21363 0.546101 0
M  V30 5657 C 534.05 1.19698 1.07523 0
M  V30 5658 O 535.242 1.45293 1.01088 0
M  V30 5659 C 532.371 2.98115 1.70242 0
M  V30 5660 C 531.457 4.07127 1.18779 0
M  V30 5661 N 531.848 5.04267 0.393465 0
M  V30 5662 C 530.146 4.21226 1.46576 0
M  V30 5663 C 530.847 5.81585 0.115572 0
M  V30 5664 N 529.823 5.39022 0.703987 0
M  V30 5665 H 533.625 2.93821 -0.0679751 0
M  V30 5666 H 531.139 1.61812 -0.138085 0
M  V30 5667 H 533.136 3.44818 2.34321 0
M  V30 5668 H 531.796 2.27181 2.31989 0
M  V30 5669 H 532.807 5.17888 0.0355757 0
M  V30 5670 H 529.484 3.61509 2.08848 0
M  V30 5671 H 530.874 6.6985 -0.524426 0
M  V30 5672 N 533.594 0.0601682 1.57485 0
M  V30 5673 C 534.524 -0.90889 2.15085 0
M  V30 5674 C 535.505 -1.31838 1.07484 0
M  V30 5675 O 536.69 -1.3915 1.35466 0
M  V30 5676 C 533.82 -2.18059 2.7031 0
M  V30 5677 C 532.774 -1.91088 3.82974 0
M  V30 5678 C 532.1 -3.24789 4.24754 0
M  V30 5679 C 533.4 -1.22535 5.07723 0
M  V30 5680 H 535.094 -0.429093 2.96309 0
M  V30 5681 H 532.64 -0.204952 1.42534 0
M  V30 5682 H 534.593 -2.86258 3.09248 0
M  V30 5683 H 533.317 -2.6826 1.8629 0
M  V30 5684 H 531.976 -1.25297 3.44523 0
M  V30 5685 H 531.624 -3.72809 3.37672 0
M  V30 5686 H 531.324 -3.07538 5.00694 0
M  V30 5687 H 532.848 -3.94205 4.66299 0
M  V30 5688 H 534.262 -1.80783 5.4405 0
M  V30 5689 H 532.659 -1.1558 5.88864 0
M  V30 5690 H 533.729 -0.202692 4.84476 0
M  V30 5691 N 535.072 -1.5615 -0.213296 0
M  V30 5692 C 536.297 -1.83986 -0.957282 0
M  V30 5693 C 536.722 -0.641526 -1.76822 0
M  V30 5694 O 536.08 0.409722 -1.7661 0
M  V30 5695 C 536.128 -3.09889 -1.84393 0
M  V30 5696 O 535.232 -2.89163 -2.94038 0
M  V30 5697 H 534.573 -0.606357 -0.270605 0
M  V30 5698 H 537.103 -2.03369 -0.224111 0
M  V30 5699 H 537.113 -3.40209 -2.25215 0
M  V30 5700 H 535.788 -3.96735 -1.24795 0
M  V30 5701 H 534.365 -2.70097 -2.57103 0
M  V30 5702 N 536.55 0.480323 -1.50102 0
M  V30 5703 C 537.483 1.59789 -1.62919 0
M  V30 5704 C 538.461 1.55429 -0.477557 0
M  V30 5705 O 539.645 1.75186 -0.695851 0
M  V30 5706 C 536.772 2.98351 -1.60325 0
M  V30 5707 C 535.818 3.20899 -2.80938 0
M  V30 5708 S 536.651 3.01791 -4.4236 0
M  V30 5709 C 537.807 4.42712 -4.42444 0
M  V30 5710 H 538.04 1.48676 -2.57454 0
M  V30 5711 H 535.573 0.666996 -1.3925 0
M  V30 5712 H 537.531 3.7824 -1.59514 0
M  V30 5713 H 536.192 3.06862 -0.670419 0
M  V30 5714 H 535.385 4.22102 -2.75401 0
M  V30 5715 H 534.987 2.48768 -2.79268 0
M  V30 5716 H 537.279 5.3518 -4.15438 0
M  V30 5717 H 538.222 4.53294 -5.43995 0
M  V30 5718 H 538.63 4.24359 -3.72263 0
M  V30 5719 N 538.028 1.39524 0.732853 0
M  V30 5720 C 538.976 1.38563 1.86824 0
M  V30 5721 C 539.97 0.268467 1.67259 0
M  V30 5722 O 541.176 0.438613 1.74574 0
M  V30 5723 H 537.551 0.432737 0.615014 0
M  V30 5724 H 539.522 2.34328 1.84751 0
M  V30 5725 C 538.271 1.2481 3.24527 0
M  V30 5726 H 537.594 2.10044 3.40179 0
M  V30 5727 H 539.034 1.28194 4.04156 0
M  V30 5728 C 537.493 -0.0432825 3.36872 0
M  V30 5729 O 538.023 -1.01268 3.88726 0
M  V30 5730 N 536.229 -0.107055 2.90403 0
M  V30 5731 H 535.776 0.682512 2.48394 0
M  V30 5732 H 535.734 -0.970618 2.99042 0
M  V30 5733 N 539.506 -0.963266 1.24736 0
M  V30 5734 C 540.731 -1.74699 1.11781 0
M  V30 5735 C 541.156 -1.85267 -0.325258 0
M  V30 5736 O 540.514 -1.32681 -1.23553 0
M  V30 5737 C 540.562 -3.14322 1.76731 0
M  V30 5738 O 539.666 -3.99043 1.04109 0
M  V30 5739 H 539.007 -0.53684 0.390767 0
M  V30 5740 H 541.537 -1.20801 1.65131 0
M  V30 5741 H 541.547 -3.64824 1.82668 0
M  V30 5742 H 540.222 -3.05946 2.81726 0
M  V30 5743 H 538.799 -3.5752 1.05991 0
M  V30 5744 N 540.985 -1.06182 -1.16461 0
M  V30 5745 C 542.401 -0.785065 -1.38956 0
M  V30 5746 C 542.601 0.616103 -1.9185 0
M  V30 5747 O 541.657 1.37686 -2.11657 0
M  V30 5748 C 542.97 -1.84902 -2.37132 0
M  V30 5749 C 544.518 -1.8724 -2.50819 0
M  V30 5750 C 544.993 -2.92686 -3.52277 0
M  V30 5751 N 546.484 -2.91712 -3.59803 0
M  V30 5752 C 547.219 -3.69949 -4.38093 0
M  V30 5753 N 546.715 -4.58 -5.19815 0
M  V30 5754 N 548.508 -3.58346 -4.33064 0
M  V30 5755 H 540.659 -1.96569 -0.804634 0
M  V30 5756 H 542.922 -0.851747 -0.416211 0
M  V30 5757 H 542.628 -2.85518 -2.0536 0
M  V30 5758 H 542.502 -1.69908 -3.36766 0
M  V30 5759 H 544.889 -0.872827 -2.81897 0
M  V30 5760 H 544.97 -2.06311 -1.51226 0
M  V30 5761 H 544.614 -3.92835 -3.21937 0
M  V30 5762 H 544.544 -2.70864 -4.51598 0
M  V30 5763 H 547.035 -2.27876 -3.01464 0
M  V30 5764 H 547.348 -5.14357 -5.76764 0
M  V30 5765 H 545.693 -4.62056 -5.19162 0
M  V30 5766 H 548.884 -2.88943 -3.68279 0
M  V30 5767 H 549.057 -4.19563 -4.93833 0
M  V30 5768 N 542.463 1.3308 -0.844243 0
M  V30 5769 C 543.709 1.97898 -0.443206 0
M  V30 5770 C 544.042 1.66699 0.99625 0
M  V30 5771 O 543.317 0.949704 1.69738 0
M  V30 5772 C 543.6 3.53801 -0.670606 0
M  V30 5773 C 543.453 3.94667 -2.15772 0
M  V30 5774 C 544.772 4.39936 -0.120226 0
M  V30 5775 H 541.891 0.718861 -0.162504 0
M  V30 5776 H 544.533 1.57633 -1.06075 0
M  V30 5777 H 542.683 3.88229 -0.14496 0
M  V30 5778 H 544.355 3.70469 -2.74865 0
M  V30 5779 H 542.598 3.44203 -2.6402 0
M  V30 5780 H 543.269 5.03275 -2.26757 0
M  V30 5781 H 545.745 4.12183 -0.5696 0
M  V30 5782 H 544.621 5.4803 -0.308984 0
M  V30 5783 H 544.882 4.31184 0.976347 0
M  V30 5784 N 543.941 0.601185 1.45683 0
M  V30 5785 C 545.189 0.0936957 2.01883 0
M  V30 5786 C 545.51 -1.2779 1.47291 0
M  V30 5787 O 544.78 -1.84279 0.664691 0
M  V30 5788 H 543.36 0.0316466 0.746329 0
M  V30 5789 H 546.022 0.781137 1.78562 0
M  V30 5790 H 545.118 0.0386297 3.12076 0
M  V30 5791 N 545.419 -1.53889 0.339982 0
M  V30 5792 C 546.83 -1.86139 -0.144671 0
M  V30 5793 C 547.181 -1.2613 -1.50285 0
M  V30 5794 O 546.306 -0.573515 -2.08662 0
M  V30 5795 C 546.901 -3.37728 -0.269285 0
M  V30 5796 C 545.46 -3.69868 -0.698168 0
M  V30 5797 C 544.607 -2.76777 0.170249 0
M  V30 5798 H 547.558 -1.48503 0.559704 0
M  V30 5799 H 547.579 -3.64331 -1.0974 0
M  V30 5800 H 547.091 -3.81375 0.719366 0
M  V30 5801 H 545.192 -3.31764 -1.69597 0
M  V30 5802 H 545.305 -4.76582 -0.490533 0
M  V30 5803 H 543.669 -2.52188 -0.356844 0
M  V30 5804 H 544.452 -3.23253 1.15597 0
M  V30 5805 N 546.897 -0.0685191 -1.57451 0
M  V30 5806 C 547.83 0.935736 -2.08133 0
M  V30 5807 C 548.808 1.29317 -0.985698 0
M  V30 5808 O 549.992 1.40304 -1.25886 0
M  V30 5809 C 547.119 2.2448 -2.53627 0
M  V30 5810 C 546.165 2.03917 -3.74593 0
M  V30 5811 S 546.998 1.30154 -5.19442 0
M  V30 5812 C 548.154 2.62346 -5.68265 0
M  V30 5813 H 548.387 0.504473 -2.92989 0
M  V30 5814 H 545.92 0.144169 -1.53725 0
M  V30 5815 H 547.878 2.99718 -2.80499 0
M  V30 5816 H 546.539 2.64731 -1.69045 0
M  V30 5817 H 545.732 3.00788 -4.04404 0
M  V30 5818 H 545.334 1.36815 -3.48077 0
M  V30 5819 H 547.626 3.58448 -5.7491 0
M  V30 5820 H 548.569 2.3715 -6.67207 0
M  V30 5821 H 548.977 2.69401 -4.96068 0
M  V30 5822 N 548.375 1.56261 0.205012 0
M  V30 5823 C 549.624 1.79236 0.925058 0
M  V30 5824 C 549.937 0.640011 1.84833 0
M  V30 5825 O 551.143 0.753809 2.60826 0
M  V30 5826 C 549.599 3.17475 1.69522 0
M  V30 5827 C 549.207 4.40482 0.817269 0
M  V30 5828 C 550.951 3.49766 2.4055 0
M  V30 5829 C 548.858 5.69744 1.58573 0
M  V30 5830 H 547.788 0.668287 0.349153 0
M  V30 5831 H 550.439 1.82629 0.178544 0
M  V30 5832 H 548.821 3.08304 2.48526 0
M  V30 5833 H 549.995 4.60752 0.0665988 0
M  V30 5834 H 548.31 4.15827 0.218316 0
M  V30 5835 H 550.907 4.43573 2.98575 0
M  V30 5836 H 551.25 2.73041 3.14252 0
M  V30 5837 H 551.783 3.60341 1.68522 0
M  V30 5838 H 548.522 6.49407 0.891679 0
M  V30 5839 H 548.042 5.53509 2.31059 0
M  V30 5840 H 549.721 6.1051 2.14212 0
M  V30 5841 N 549.853 -0.472356 1.50355 0
M  V30 5842 C 551.078 -1.25251 1.65309 0
M  V30 5843 C 551.503 -1.85081 0.335643 0
M  V30 5844 O 550.861 -1.67227 -0.700335 0
M  V30 5845 C 550.909 -2.3379 2.74544 0
M  V30 5846 O 550.013 -3.38401 2.35709 0
M  V30 5847 H 549.354 -0.368539 0.552336 0
M  V30 5848 H 551.884 -0.562271 1.96722 0
M  V30 5849 H 551.894 -2.79121 2.97583 0
M  V30 5850 H 550.569 -1.89614 3.70161 0
M  V30 5851 H 549.146 -2.9879 2.23112 0
M  V30 5852 N 551.331 -1.39911 -0.725443 0
M  V30 5853 C 552.559 -1.40949 -1.51463 0
M  V30 5854 C 552.974 -0.0065242 -1.88799 0
M  V30 5855 O 552.331 0.967163 -1.54765 0
M  V30 5856 C 552.382 -2.29119 -2.79619 0
M  V30 5857 O 552.103 -3.63952 -2.43866 0
M  V30 5858 C 553.604 -2.38642 -3.73584 0
M  V30 5859 H 550.824 -0.481091 -0.467752 0
M  V30 5860 H 553.368 -1.83843 -0.895651 0
M  V30 5861 H 551.523 -1.89612 -3.37826 0
M  V30 5862 H 551.937 -4.10677 -3.26258 0
M  V30 5863 H 553.411 -3.04563 -4.60375 0
M  V30 5864 H 553.888 -1.40846 -4.16004 0
M  V30 5865 H 554.494 -2.78659 -3.21293 0
M  V30 5866 N 552.809 0.956637 -1.25245 0
M  V30 5867 C 554.055 1.70352 -1.10036 0
M  V30 5868 C 554.388 1.90869 0.358156 0
M  V30 5869 O 553.663 1.47819 1.26411 0
M  V30 5870 C 553.946 3.08766 -1.85298 0
M  V30 5871 C 553.799 2.95672 -3.38966 0
M  V30 5872 C 555.118 4.08622 -1.63451 0
M  V30 5873 H 552.237 0.618279 -0.401123 0
M  V30 5874 H 554.879 1.11212 -1.54051 0
M  V30 5875 H 553.029 3.59252 -1.47887 0
M  V30 5876 H 554.701 2.52527 -3.86041 0
M  V30 5877 H 552.944 2.31634 -3.6678 0
M  V30 5878 H 553.615 3.93776 -3.86839 0
M  V30 5879 H 556.091 3.67038 -1.96015 0
M  V30 5880 H 554.967 5.03514 -2.18551 0
M  V30 5881 H 555.228 4.3834 -0.575357 0
M  V30 5882 N 554.287 1.06798 1.15896 0
M  V30 5883 C 555.515 0.808694 1.90441 0
M  V30 5884 C 555.93 -0.637506 1.77711 0
M  V30 5885 O 555.287 -1.43684 1.12522 0
M  V30 5886 C 555.338 1.20068 3.40978 0
M  V30 5887 O 555.059 2.59013 3.53333 0
M  V30 5888 C 556.56 0.96987 4.3256 0
M  V30 5889 H 553.78 0.292809 0.603742 0
M  V30 5890 H 556.324 1.42296 1.46874 0
M  V30 5891 H 554.479 0.630842 3.82229 0
M  V30 5892 H 554.893 2.7485 4.46719 0
M  V30 5893 H 556.367 1.29371 5.36626 0
M  V30 5894 H 556.844 -0.0941209 4.39099 0
M  V30 5895 H 557.45 1.52433 3.97044 0
M  V30 5896 N 555.766 -1.3263 0.851289 0
M  V30 5897 C 556.996 -2.01271 0.466222 0
M  V30 5898 C 557.404 -1.64156 -0.940714 0
M  V30 5899 O 556.747 -0.857109 -1.62479 0
M  V30 5900 C 556.809 -3.55695 0.521672 0
M  V30 5901 C 556.473 -4.16227 1.88691 0
M  V30 5902 C 557.47 -4.34699 2.85189 0
M  V30 5903 C 555.155 -4.52377 2.18313 0
M  V30 5904 C 557.149 -4.88484 4.09465 0
M  V30 5905 C 554.836 -5.05868 3.42843 0
M  V30 5906 C 555.834 -5.23869 4.38235 0
M  V30 5907 O 555.522 -5.76218 5.6056 0
M  V30 5908 H 555.254 -0.651034 0.18202 0
M  V30 5909 H 557.808 -1.7026 1.14894 0
M  V30 5910 H 556.038 -3.86086 -0.217888 0
M  V30 5911 H 557.727 -4.05613 0.152682 0
M  V30 5912 H 558.493 -4.07107 2.63607 0
M  V30 5913 H 554.372 -4.37652 1.44851 0
M  V30 5914 H 557.916 -5.02451 4.83931 0
M  V30 5915 H 553.813 -5.32891 3.64277 0
M  V30 5916 H 554.581 -5.94616 5.62471 0
M  V30 5917 N 557.244 -0.608902 -1.45362 0
M  V30 5918 C 558.192 0.121639 -2.32282 0
M  V30 5919 C 559.186 0.858301 -1.46046 0
M  V30 5920 O 560.392 0.773718 -1.62523 0
M  V30 5921 H 556.767 0.058086 -0.749753 0
M  V30 5922 H 558.738 -0.629866 -2.91677 0
M  V30 5923 C 557.487 1.1047 -3.29684 0
M  V30 5924 H 556.81 0.547278 -3.96036 0
M  V30 5925 H 558.25 1.58576 -3.9323 0
M  V30 5926 C 556.709 2.17891 -2.56954 0
M  V30 5927 O 557.239 3.25652 -2.35189 0
M  V30 5928 N 555.445 1.93211 -2.17066 0
M  V30 5929 H 554.992 1.05584 -2.34967 0
M  V30 5930 H 554.95 2.6529 -1.68727 0
M  V30 5931 N 558.722 1.53707 -0.348139 0
M  V30 5932 C 559.999 1.93247 0.302475 0
M  V30 5933 C 560.379 1.28012 1.67857 0
M  V30 5934 O 559.727 0.43274 2.24365 0
M  V30 5935 C 559.937 3.47031 0.370159 0
M  V30 5936 C 561.285 4.20066 0.61882 0
M  V30 5937 O 562.309 3.53319 0.452087 0
M  V30 5938 O 561.168 5.38318 0.94215 0
M  V30 5939 H 558.262 0.807736 0.177458 0
M  V30 5940 H 560.808 1.64927 -0.399651 0
M  V30 5941 H 559.58 3.86745 -0.59534 0
M  V30 5942 H 559.203 3.81532 1.11888 0
M  V30 5943 N 560.2 0.0768682 1.57412 0
M  V30 5944 C 561.148 -0.906229 2.1422 0
M  V30 5945 C 562.142 -1.30477 1.08037 0
M  V30 5946 O 563.348 -1.28143 1.2641 0
M  V30 5947 H 559.723 -0.310207 0.685037 0
M  V30 5948 H 561.694 -0.402228 2.95677 0
M  V30 5949 C 560.443 -2.16245 2.72274 0
M  V30 5950 H 559.766 -1.86463 3.53655 0
M  V30 5951 H 561.206 -2.83134 3.15613 0
M  V30 5952 C 559.665 -2.92437 1.67279 0
M  V30 5953 O 560.195 -3.86322 1.10081 0
M  V30 5954 N 558.401 -2.55637 1.38195 0
M  V30 5955 H 557.948 -1.79363 1.84897 0
M  V30 5956 H 557.906 -3.06919 0.681787 0
M  V30 5957 N 561.678 -1.56367 -0.196722 0
M  V30 5958 C 562.926 -1.80172 -0.915554 0
M  V30 5959 C 563.247 -0.649649 -1.8386 0
M  V30 5960 O 562.517 0.332111 -1.93064 0
M  V30 5961 H 561.097 -0.664592 -0.341067 0
M  V30 5962 H 563.759 -1.93844 -0.202622 0
M  V30 5963 H 562.855 -2.7327 -1.50764 0
M  V30 5964 N 563.156 0.464375 -1.50603 0
M  V30 5965 C 564.384 1.23907 -1.65695 0
M  V30 5966 C 564.799 1.85658 -0.343027 0
M  V30 5967 O 564.156 1.69529 0.675739 0
M  V30 5968 C 564.207 2.3429 -2.75301 0
M  V30 5969 O 563.928 1.7507 -4.01599 0
M  V30 5970 C 565.429 3.25051 -3.01424 0
M  V30 5971 H 562.649 0.374485 -0.556778 0
M  V30 5972 H 565.193 0.55353 -1.96866 0
M  V30 5973 H 563.348 2.98607 -2.46804 0
M  V30 5974 H 563.762 2.47812 -4.62266 0
M  V30 5975 H 565.236 3.98699 -3.81763 0
M  V30 5976 H 565.713 3.84227 -2.12758 0
M  V30 5977 H 566.319 2.66463 -3.31477 0
M  V30 5978 N 564.634 1.40294 0.718013 0
M  V30 5979 C 565.581 1.40367 1.8321 0
M  V30 5980 C 566.551 0.260952 1.64037 0
M  V30 5981 O 567.736 0.458648 1.85205 0
M  V30 5982 C 564.876 1.26965 3.20895 0
M  V30 5983 C 563.989 2.50922 3.51656 0
M  V30 5984 C 563.124 2.29981 4.78834 0
M  V30 5985 C 562.163 3.49527 5.02491 0
M  V30 5986 N 561.3 3.27796 6.20882 0
M  V30 5987 H 566.14 2.35593 1.82482 0
M  V30 5988 H 563.677 1.17012 0.891444 0
M  V30 5989 H 565.635 1.17202 4.00399 0
M  V30 5990 H 564.265 0.353591 3.20858 0
M  V30 5991 H 563.317 2.71223 2.66725 0
M  V30 5992 H 564.629 3.39913 3.65048 0
M  V30 5993 H 563.783 2.17558 5.66351 0
M  V30 5994 H 562.522 1.38411 4.67647 0
M  V30 5995 H 561.527 3.6243 4.1343 0
M  V30 5996 H 562.752 4.42021 5.15553 0
M  V30 5997 H 560.698 2.38906 6.1095 0
M  V30 5998 H 560.615 4.10351 6.34939 0
M  V30 5999 H 561.883 3.19101 7.11193 0
M  V30 6000 N 566.112 -0.949982 1.2575 0
M  V30 6001 C 567.528 -1.22191 1.02672 0
M  V30 6002 C 567.728 -1.99898 -0.253588 0
M  V30 6003 O 566.784 -2.33329 -0.965076 0
M  V30 6004 C 568.097 -1.99175 2.25277 0
M  V30 6005 C 569.645 -2.12201 2.30087 0
M  V30 6006 C 570.12 -2.92586 3.5236 0
M  V30 6007 N 571.611 -3.00163 3.52784 0
M  V30 6008 C 572.346 -3.62766 4.44059 0
M  V30 6009 N 571.842 -4.26943 5.45611 0
M  V30 6010 N 573.635 -3.59953 4.3173 0
M  V30 6011 H 565.786 -0.430258 2.07996 0
M  V30 6012 H 568.049 -0.252844 0.91366 0
M  V30 6013 H 567.755 -1.49479 3.18354 0
M  V30 6014 H 567.629 -2.99868 2.28821 0
M  V30 6015 H 570.016 -2.61093 1.3753 0
M  V30 6016 H 570.097 -1.10799 2.30559 0
M  V30 6017 H 569.741 -2.44383 4.45241 0
M  V30 6018 H 569.671 -3.94224 3.49134 0
M  V30 6019 H 572.162 -2.54529 2.79327 0
M  V30 6020 H 572.475 -4.72583 6.11461 0
M  V30 6021 H 570.82 -4.25557 5.49478 0
M  V30 6022 H 574.011 -3.09003 3.51617 0
M  V30 6023 H 574.184 -4.08455 5.03059 0
M  V30 6024 N 567.59 -1.07411 -1.15328 0
M  V30 6025 C 568.537 -0.694995 -2.20087 0
M  V30 6026 C 569.507 0.313904 -1.63107 0
M  V30 6027 O 570.692 0.200216 -1.89747 0
M  V30 6028 C 567.832 -0.0996218 -3.44956 0
M  V30 6029 C 566.945 -1.16007 -4.16133 0
M  V30 6030 C 566.08 -0.529636 -5.28553 0
M  V30 6031 C 565.119 -1.57283 -5.91548 0
M  V30 6032 N 564.256 -0.964932 -6.95438 0
M  V30 6033 H 569.096 -1.5927 -2.51867 0
M  V30 6034 H 566.633 -0.796115 -1.23695 0
M  V30 6035 H 568.591 0.263197 -4.16369 0
M  V30 6036 H 567.221 0.761435 -3.13691 0
M  V30 6037 H 566.273 -1.64045 -3.4321 0
M  V30 6038 H 567.585 -1.95101 -4.59061 0
M  V30 6039 H 566.739 -0.114487 -6.06592 0
M  V30 6040 H 565.478 0.29307 -4.86819 0
M  V30 6041 H 564.483 -1.99775 -5.12221 0
M  V30 6042 H 565.708 -2.39783 -6.35359 0
M  V30 6043 H 563.654 -0.16314 -6.55797 0
M  V30 6044 H 563.571 -1.69311 -7.36797 0
M  V30 6045 H 564.839 -0.575305 -7.77374 0
M  V30 6046 N 569.068 1.32177 -0.85831 0
M  V30 6047 C 570.314 1.97417 -0.46417 0
M  V30 6048 C 570.647 1.67746 0.978514 0
M  V30 6049 O 569.922 0.967654 1.68721 0
M  V30 6050 C 570.205 3.53069 -0.708094 0
M  V30 6051 C 570.058 3.92357 -2.19946 0
M  V30 6052 C 571.377 4.39783 -0.166881 0
M  V30 6053 H 568.496 0.717097 -0.17012 0
M  V30 6054 H 571.138 1.56499 -1.07741 0
M  V30 6055 H 569.288 3.88054 -0.186128 0
M  V30 6056 H 570.96 3.67533 -2.78779 0
M  V30 6057 H 569.203 3.41384 -2.67656 0
M  V30 6058 H 569.874 5.00841 -2.32082 0
M  V30 6059 H 572.35 4.11556 -0.613285 0
M  V30 6060 H 571.226 5.47671 -0.367093 0
M  V30 6061 H 571.487 4.32196 0.930559 0
M  V30 6062 N 570.547 0.616602 1.45037 0
M  V30 6063 C 571.48 -0.145984 2.27733 0
M  V30 6064 C 572.458 -0.865108 1.37676 0
M  V30 6065 O 573.642 -0.872152 1.6711 0
M  V30 6066 C 570.769 -1.2122 3.16265 0
M  V30 6067 C 569.815 -0.595218 4.22326 0
M  V30 6068 S 570.648 0.603744 5.32086 0
M  V30 6069 C 571.804 -0.462842 6.24186 0
M  V30 6070 H 572.037 0.555591 2.92062 0
M  V30 6071 H 569.57 0.404364 1.49011 0
M  V30 6072 H 571.528 -1.82247 3.67827 0
M  V30 6073 H 570.189 -1.88589 2.51183 0
M  V30 6074 H 569.382 -1.39775 4.8423 0
M  V30 6075 H 568.984 -0.0598965 3.73952 0
M  V30 6076 H 571.276 -1.33945 6.64127 0
M  V30 6077 H 572.219 0.120259 7.07998 0
M  V30 6078 H 572.627 -0.782219 5.59054 0
M  V30 6079 N 572.025 -1.5352 0.356285 0
M  V30 6080 C 573.255 -2.05236 -0.236983 0
M  V30 6081 C 573.663 -1.23016 -1.43749 0
M  V30 6082 O 573.006 -0.2615 -1.81829 0
M  V30 6083 C 573.068 -3.52549 -0.7035 0
M  V30 6084 C 572.732 -4.55425 0.379059 0
M  V30 6085 C 573.729 -5.0524 1.22592 0
M  V30 6086 C 571.414 -4.99425 0.536638 0
M  V30 6087 C 573.408 -5.97647 2.21578 0
M  V30 6088 C 571.095 -5.9164 1.52988 0
M  V30 6089 C 572.093 -6.4064 2.3679 0
M  V30 6090 O 571.781 -7.31039 3.34421 0
M  V30 6091 H 571.513 -0.674346 -0.047254 0
M  V30 6092 H 574.067 -1.98962 0.510238 0
M  V30 6093 H 572.297 -3.56331 -1.50217 0
M  V30 6094 H 573.986 -3.87171 -1.21873 0
M  V30 6095 H 574.752 -4.72002 1.11532 0
M  V30 6096 H 570.631 -4.60879 -0.105834 0
M  V30 6097 H 574.175 -6.35816 2.87025 0
M  V30 6098 H 570.072 -6.24293 1.64099 0
M  V30 6099 H 570.84 -7.49009 3.30041 0
M  V30 6100 N 573.503 -0.0852151 -1.57369 0
M  V30 6101 C 574.413 0.891712 -2.16992 0
M  V30 6102 C 575.429 1.3174 -1.13669 0
M  V30 6103 O 576.605 1.38735 -1.45995 0
M  V30 6104 C 573.67 2.13635 -2.73059 0
M  V30 6105 C 572.731 1.7658 -3.91303 0
M  V30 6106 C 571.964 2.95111 -4.44686 0
M  V30 6107 O 572.187 4.09539 -3.97032 0
M  V30 6108 O 571.121 2.74149 -5.35841 0
M  V30 6109 H 574.947 0.414477 -3.00858 0
M  V30 6110 H 572.532 0.138598 -1.48756 0
M  V30 6111 H 574.414 2.86595 -3.08935 0
M  V30 6112 H 573.089 2.6043 -1.92244 0
M  V30 6113 H 571.996 1.00831 -3.60255 0
M  V30 6114 H 573.329 1.34557 -4.7345 0
M  V30 6115 N 574.981 1.5647 0.188427 0
M  V30 6116 C 576.229 1.80655 0.905986 0
M  V30 6117 C 576.55 0.659391 1.83513 0
M  V30 6118 O 575.82 -0.321868 1.93238 0
M  V30 6119 H 574.4 0.666391 0.337538 0
M  V30 6120 H 577.062 1.93949 0.192339 0
M  V30 6121 H 576.158 2.74066 1.49313 0
M  V30 6122 N 576.459 -0.456382 1.50847 0
M  V30 6123 C 577.684 -1.2349 1.66628 0
M  V30 6124 C 578.109 -1.84715 0.355254 0
M  V30 6125 O 577.467 -1.67961 -0.682559 0
M  V30 6126 C 577.515 -2.30865 2.77009 0
M  V30 6127 O 576.619 -3.35882 2.39285 0
M  V30 6128 H 575.96 -0.36266 0.556214 0
M  V30 6129 H 578.49 -0.541374 1.97308 0
M  V30 6130 H 578.5 -2.75949 3.00526 0
M  V30 6131 H 577.175 -1.85677 3.72152 0
M  V30 6132 H 575.752 -2.96406 2.26269 0
M  V30 6133 N 577.937 -1.40673 -0.710563 0
M  V30 6134 C 578.867 -1.44095 -1.83736 0
M  V30 6135 C 579.848 -0.301286 -1.67411 0
M  V30 6136 O 581.033 -0.510618 -1.87367 0
M  V30 6137 C 578.163 -1.30773 -3.21738 0
M  V30 6138 C 577.117 -2.42395 -3.52745 0
M  V30 6139 C 576.443 -2.14147 -4.89944 0
M  V30 6140 C 577.743 -3.84738 -3.53234 0
M  V30 6141 H 579.437 -2.38396 -1.81129 0
M  V30 6142 H 576.983 -1.14746 -0.870017 0
M  V30 6143 H 578.936 -1.31783 -4.00264 0
M  V30 6144 H 577.66 -0.329507 -3.24934 0
M  V30 6145 H 576.319 -2.40643 -2.76562 0
M  V30 6146 H 575.967 -1.14703 -4.89747 0
M  V30 6147 H 575.667 -2.88934 -5.11655 0
M  V30 6148 H 577.191 -2.16848 -5.70797 0
M  V30 6149 H 578.605 -3.88286 -4.2179 0
M  V30 6150 H 577.002 -4.59085 -3.86473 0
M  V30 6151 H 578.072 -4.13962 -2.52514 0
M  V30 6152 N 579.415 0.9433 -1.26252 0
M  V30 6153 C 580.663 1.68592 -1.11451 0
M  V30 6154 C 580.984 1.91957 0.343123 0
M  V30 6155 O 580.254 1.51475 1.24226 0
M  V30 6156 H 578.834 0.624789 -0.409448 0
M  V30 6157 H 581.496 1.13351 -1.58548 0
M  V30 6158 H 580.592 2.66054 -1.63162 0
M  V30 6159 N 580.893 1.08022 1.14757 0
M  V30 6160 C 582.141 0.805913 1.85336 0
M  V30 6161 C 582.462 -0.670162 1.83122 0
M  V30 6162 O 581.732 -1.48567 1.2769 0
M  V30 6163 H 580.312 0.295138 0.686223 0
M  V30 6164 H 582.974 1.36538 1.3908 0
M  V30 6165 H 582.07 1.14655 2.90277 0
M  V30 6166 N 582.371 -1.3172 0.865308 0
M  V30 6167 C 583.304 -2.26687 0.262376 0
M  V30 6168 C 584.282 -1.50894 -0.605787 0
M  V30 6169 O 585.466 -1.79982 -0.56024 0
M  V30 6170 C 582.593 -3.3281 -0.628915 0
M  V30 6171 C 581.639 -4.26172 0.167278 0
M  V30 6172 S 582.472 -5.12797 1.54272 0
M  V30 6173 C 583.628 -6.22438 0.657427 0
M  V30 6174 H 583.861 -2.77478 1.0674 0
M  V30 6175 H 581.394 -1.39414 0.663555 0
M  V30 6176 H 583.352 -3.94426 -1.13747 0
M  V30 6177 H 582.013 -2.80782 -1.40785 0
M  V30 6178 H 581.206 -5.01392 -0.51203 0
M  V30 6179 H 580.808 -3.69029 0.607777 0
M  V30 6180 H 583.1 -6.77368 -0.133925 0
M  V30 6181 H 584.043 -6.9451 1.38061 0
M  V30 6182 H 584.451 -5.64043 0.227044 0
M  V30 6183 N 583.85 -0.624285 -1.44708 0
M  V30 6184 C 585.099 -0.123539 -2.01321 0
M  V30 6185 C 585.412 1.25966 -1.49639 0
M  V30 6186 O 586.618 1.85405 -1.98336 0
M  V30 6187 C 585.074 -0.170124 -3.59498 0
M  V30 6188 C 584.682 -1.55421 -4.20176 0
M  V30 6189 C 586.426 0.274513 -4.23611 0
M  V30 6190 C 584.332 -1.55628 -5.70556 0
M  V30 6191 H 583.263 -0.0424183 -0.752806 0
M  V30 6192 H 585.913 -0.782076 -1.65999 0
M  V30 6193 H 584.296 0.555385 -3.92086 0
M  V30 6194 H 585.47 -2.30276 -3.99136 0
M  V30 6195 H 583.784 -1.94235 -3.68323 0
M  V30 6196 H 586.382 0.292402 -5.339 0
M  V30 6197 H 586.725 1.3005 -3.95465 0
M  V30 6198 H 587.258 -0.398275 -3.95801 0
M  V30 6199 H 583.997 -2.56041 -6.03426 0
M  V30 6200 H 583.517 -0.850563 -5.93739 0
M  V30 6201 H 585.196 -1.28721 -6.34066 0
M  V30 6202 N 585.328 1.53329 -0.364422 0
M  V30 6203 C 586.574 2.01537 0.225969 0
M  V30 6204 C 586.907 1.25128 1.48515 0
M  V30 6205 O 586.182 0.344653 1.91422 0
M  V30 6206 C 586.465 3.56339 0.519092 0
M  V30 6207 C 586.318 4.43441 -0.753639 0
M  V30 6208 C 587.637 4.19833 1.32015 0
M  V30 6209 H 584.756 0.732573 0.0806548 0
M  V30 6210 H 587.398 1.83597 -0.489084 0
M  V30 6211 H 585.548 3.71756 1.12825 0
M  V30 6212 H 587.22 4.39823 -1.39116 0
M  V30 6213 H 585.463 4.11457 -1.37424 0
M  V30 6214 H 586.134 5.49699 -0.503517 0
M  V30 6215 H 588.61 4.08242 0.804859 0
M  V30 6216 H 587.486 5.28177 1.49399 0
M  V30 6217 H 587.747 3.75821 2.32832 0
M  V30 6218 N 586.806 0.0935595 1.57322 0
M  V30 6219 C 588.217 -0.435807 1.81542 0
M  V30 6220 C 588.568 -1.68263 1.00907 0
M  V30 6221 O 587.693 -2.15087 0.237983 0
M  V30 6222 C 588.288 -0.797436 3.29282 0
M  V30 6223 C 586.847 -1.27155 3.54272 0
M  V30 6224 C 585.994 -0.267455 2.76007 0
M  V30 6225 H 588.945 0.31902 1.5546 0
M  V30 6226 H 588.966 -1.6571 3.42521 0
M  V30 6227 H 588.478 0.110206 3.87943 0
M  V30 6228 H 586.579 -2.19696 3.00939 0
M  V30 6229 H 586.692 -1.23445 4.62923 0
M  V30 6230 H 585.056 -0.749282 2.43429 0
M  V30 6231 H 585.839 0.632839 3.37417 0
M  V30 6232 N 588.284 -1.56567 -0.180126 0
M  V30 6233 C 589.514 -1.85349 -0.912647 0
M  V30 6234 C 589.922 -0.675795 -1.76719 0
M  V30 6235 O 589.265 0.3645 -1.80047 0
M  V30 6236 C 589.327 -3.08431 -1.84691 0
M  V30 6237 C 588.991 -4.41694 -1.17284 0
M  V30 6238 C 589.988 -5.17062 -0.542532 0
M  V30 6239 C 587.673 -4.8843 -1.17223 0
M  V30 6240 C 589.667 -6.37351 0.0793953 0
M  V30 6241 C 587.354 -6.08652 -0.54647 0
M  V30 6242 C 588.352 -6.82955 0.0782458 0
M  V30 6243 O 588.04 -8.00897 0.694158 0
M  V30 6244 H 587.772 -0.619286 -0.271036 0
M  V30 6245 H 590.326 -2.0454 -0.187768 0
M  V30 6246 H 588.556 -2.85163 -2.61188 0
M  V30 6247 H 590.245 -3.23733 -2.44851 0
M  V30 6248 H 591.011 -4.8204 -0.535045 0
M  V30 6249 H 586.89 -4.30542 -1.64788 0
M  V30 6250 H 590.434 -6.95287 0.567612 0
M  V30 6251 H 586.331 -6.4314 -0.55151 0
M  V30 6252 H 587.099 -8.16352 0.592537 0
M  V30 6253 N 589.762 0.448376 -1.51087 0
M  V30 6254 C 591.01 1.19635 -1.62886 0
M  V30 6255 C 591.331 1.91977 -0.342024 0
M  V30 6256 O 590.601 1.85094 0.641636 0
M  V30 6257 H 589.181 0.444598 -0.600285 0
M  V30 6258 H 591.843 0.515138 -1.87969 0
M  V30 6259 H 590.939 1.93194 -2.45117 0
M  V30 6260 N 591.24 1.41047 0.703093 0
M  V30 6261 C 592.517 1.30493 1.45708 0
M  V30 6262 C 592.897 -0.0709892 2.10981 0
M  V30 6263 O 592.245 -1.08471 2.01113 0
M  V30 6264 C 592.455 2.45287 2.48265 0
M  V30 6265 C 593.803 2.86104 3.13735 0
M  V30 6266 O 594.827 2.44971 2.58587 0
M  V30 6267 O 593.686 3.57206 4.13601 0
M  V30 6268 H 590.78 0.513144 0.648546 0
M  V30 6269 H 593.326 1.52995 0.734208 0
M  V30 6270 H 592.098 3.37135 1.98635 0
M  V30 6271 H 591.721 2.24622 3.28071 0
M  V30 6272 N 592.718 -0.936591 1.26751 0
M  V30 6273 C 594.129 -1.49816 1.1141 0
M  V30 6274 C 594.48 -1.9383 -0.304015 0
M  V30 6275 O 593.605 -1.80346 -1.196 0
M  V30 6276 C 594.2 -2.72271 2.01629 0
M  V30 6277 C 592.759 -3.2468 1.9042 0
M  V30 6278 C 591.906 -1.97444 1.94708 0
M  V30 6279 H 594.857 -0.751604 1.39773 0
M  V30 6280 H 594.878 -3.46741 1.56688 0
M  V30 6281 H 594.39 -2.40205 3.04833 0
M  V30 6282 H 592.491 -3.61525 0.901674 0
M  V30 6283 H 592.604 -3.91476 2.76195 0
M  V30 6284 H 590.968 -2.13545 1.38818 0
M  V30 6285 H 591.751 -1.67703 2.9955 0
M  V30 6286 N 594.196 -1.08629 -1.14182 0
M  V30 6287 C 595.473 -0.73002 -1.81466 0
M  V30 6288 C 595.853 0.785996 -1.95922 0
M  V30 6289 O 595.201 1.70535 -1.52086 0
M  V30 6290 C 595.411 -1.45957 -3.17014 0
M  V30 6291 C 596.759 -1.62008 -3.92477 0
M  V30 6292 O 597.783 -1.42141 -3.26611 0
M  V30 6293 O 596.642 -1.94806 -5.106 0
M  V30 6294 H 593.736 -0.261307 -0.784632 0
M  V30 6295 H 596.282 -1.188 -1.2118 0
M  V30 6296 H 595.054 -2.49221 -3.01669 0
M  V30 6297 H 594.677 -0.993222 -3.84995 0
M  V30 6298 N 595.674 1.31259 -0.872281 0
M  V30 6299 C 596.923 1.95893 -0.480493 0
M  V30 6300 C 597.236 1.697 0.972688 0
M  V30 6301 O 598.442 2.28214 1.47073 0
M  V30 6302 C 596.898 3.50705 -0.808342 0
M  V30 6303 C 596.506 3.85735 -2.27844 0
M  V30 6304 C 598.25 4.21719 -0.485136 0
M  V30 6305 C 596.157 5.33668 -2.54858 0
M  V30 6306 H 595.087 0.733182 -0.175955 0
M  V30 6307 H 597.738 1.49396 -1.0655 0
M  V30 6308 H 596.12 3.95706 -0.152558 0
M  V30 6309 H 597.294 3.51686 -2.97748 0
M  V30 6310 H 595.609 3.27792 -2.56791 0
M  V30 6311 H 598.206 5.30559 -0.664166 0
M  V30 6312 H 598.549 4.12316 0.574592 0
M  V30 6313 H 599.082 3.82359 -1.09756 0
M  V30 6314 H 595.821 5.48109 -3.59523 0
M  V30 6315 H 595.341 5.69061 -1.8955 0
M  V30 6316 H 597.02 6.00958 -2.39706 0
M  V30 6317 N 597.152 0.631951 1.44375 0
M  V30 6318 C 598.4 0.136497 2.01639 0
M  V30 6319 C 598.721 -1.24637 1.49969 0
M  V30 6320 O 597.991 -1.82827 0.70363 0
M  V30 6321 H 596.571 0.0474703 0.74549 0
M  V30 6322 H 599.233 0.818837 1.76865 0
M  V30 6323 H 598.329 0.104817 3.11924 0
M  V30 6324 N 598.631 -1.53133 0.372548 0
M  V30 6325 C 599.877 -2.02336 -0.207823 0
M  V30 6326 C 600.232 -1.25477 -1.45853 0
M  V30 6327 O 599.525 -0.341971 -1.88524 0
M  V30 6328 C 599.719 -3.53206 -0.545938 0
M  V30 6329 C 599.548 -4.44674 0.670454 0
M  V30 6330 C 598.318 -4.91217 1.18465 0
M  V30 6331 C 600.516 -4.90772 1.53777 0
M  V30 6332 N 598.498 -5.66711 2.36034 0
M  V30 6333 C 599.869 -5.64678 2.56004 0
M  V30 6334 C 601.924 -4.72836 1.55983 0
M  V30 6335 C 600.627 -6.22555 3.60303 0
M  V30 6336 C 602.653 -5.31583 2.59179 0
M  V30 6337 C 602.015 -6.05381 3.6013 0
M  V30 6338 H 598.114 -0.781048 -0.0385783 0
M  V30 6339 H 600.698 -1.87665 0.518664 0
M  V30 6340 H 598.869 -3.68024 -1.24149 0
M  V30 6341 H 600.601 -3.89123 -1.112 0
M  V30 6342 H 597.356 -4.67652 0.748205 0
M  V30 6343 H 597.78 -6.09117 2.95475 0
M  V30 6344 H 602.422 -4.15299 0.792877 0
M  V30 6345 H 600.14 -6.79183 4.37876 0
M  V30 6346 H 603.726 -5.19595 2.61749 0
M  V30 6347 H 602.606 -6.50028 4.38672 0
M  V30 6348 N 600.109 -0.101901 -1.5727 0
M  V30 6349 C 601.339 0.567568 -1.98651 0
M  V30 6350 C 601.747 1.61839 -0.980037 0
M  V30 6351 O 601.09 1.83661 0.0376564 0
M  V30 6352 C 601.152 1.26742 -3.36417 0
M  V30 6353 C 600.816 0.366561 -4.55528 0
M  V30 6354 C 601.813 -0.388022 -5.1845 0
M  V30 6355 C 599.498 0.282629 -5.01504 0
M  V30 6356 C 601.492 -1.21445 -6.25724 0
M  V30 6357 C 599.179 -0.547443 -6.08643 0
M  V30 6358 C 600.177 -1.29462 -6.70618 0
M  V30 6359 O 599.865 -2.11095 -7.7569 0
M  V30 6360 H 599.597 0.156282 -0.657687 0
M  V30 6361 H 602.151 -0.179912 -2.04611 0
M  V30 6362 H 600.381 2.06162 -3.27161 0
M  V30 6363 H 602.07 1.8321 -3.622 0
M  V30 6364 H 602.836 -0.332949 -4.83856 0
M  V30 6365 H 598.715 0.853868 -4.53023 0
M  V30 6366 H 602.259 -1.79814 -6.74027 0
M  V30 6367 H 598.156 -0.603971 -6.42668 0
M  V30 6368 H 598.924 -2.03851 -7.92709 0
M  V30 6369 N 601.587 1.56661 0.17182 0
M  V30 6370 C 602.834 1.81965 0.888529 0
M  V30 6371 C 603.162 0.6789 1.82267 0
M  V30 6372 O 602.417 -0.333875 1.92831 0
M  V30 6373 C 602.716 3.13435 1.71736 0
M  V30 6374 C 602.382 4.41159 0.932184 0
M  V30 6375 C 601.044 4.75851 0.715481 0
M  V30 6376 C 603.396 5.19803 0.381387 0
M  V30 6377 C 600.724 5.86666 -0.063126 0
M  V30 6378 C 603.076 6.31433 -0.384129 0
M  V30 6379 C 601.74 6.64692 -0.611637 0
M  V30 6380 H 601.01 0.665859 0.325136 0
M  V30 6381 H 603.657 1.90884 0.153495 0
M  V30 6382 H 601.962 2.99857 2.52177 0
M  V30 6383 H 603.659 3.30224 2.27493 0
M  V30 6384 H 600.249 4.13947 1.11112 0
M  V30 6385 H 604.433 4.93396 0.536148 0
M  V30 6386 H 599.689 6.10892 -0.249136 0
M  V30 6387 H 603.863 6.91577 -0.818185 0
M  V30 6388 H 601.49 7.50398 -1.21684 0
M  V30 6389 N 603.065 -0.440357 1.51323 0
M  V30 6390 C 604.012 -1.53429 1.72419 0
M  V30 6391 C 604.982 -1.56165 0.565826 0
M  V30 6392 O 606.167 -1.73222 0.799917 0
M  V30 6393 C 603.307 -2.91169 1.85242 0
M  V30 6394 C 602.42 -2.97985 3.12777 0
M  V30 6395 C 601.555 -4.26829 3.16212 0
M  V30 6396 C 600.594 -4.27501 4.38074 0
M  V30 6397 N 599.731 -5.47866 4.39076 0
M  V30 6398 H 604.571 -1.34743 2.65797 0
M  V30 6399 H 602.108 -0.654608 1.31732 0
M  V30 6400 H 604.066 -3.71087 1.90658 0
M  V30 6401 H 602.696 -3.0842 0.952744 0
M  V30 6402 H 601.748 -2.10749 3.16685 0
M  V30 6403 H 603.06 -2.94342 4.02696 0
M  V30 6404 H 602.214 -5.15118 3.20527 0
M  V30 6405 H 600.953 -4.33124 2.24176 0
M  V30 6406 H 599.958 -3.37606 4.33938 0
M  V30 6407 H 601.183 -4.22873 5.31371 0
M  V30 6408 H 599.129 -5.54887 3.49909 0
M  V30 6409 H 599.046 -5.46091 5.22801 0
M  V30 6410 H 600.314 -6.38195 4.4758 0
M  V30 6411 N 604.543 -1.41418 -0.695603 0
M  V30 6412 C 605.506 -1.42988 -1.79129 0
M  V30 6413 C 606.506 -0.320514 -1.57573 0
M  V30 6414 O 607.696 -0.58039 -1.64247 0
M  V30 6415 C 604.828 -1.24122 -3.175 0
M  V30 6416 H 606.021 -2.40526 -1.7913 0
M  V30 6417 H 603.574 -1.2756 -0.903225 0
M  V30 6418 H 604.309 -0.274253 -3.23138 0
M  V30 6419 H 604.094 -2.045 -3.34547 0
M  V30 6420 H 605.584 -1.28056 -3.97481 0
M  V30 6421 N 606.021 0.929856 -1.27246 0
M  V30 6422 C 607.251 1.70895 -1.16096 0
M  V30 6423 C 607.659 1.87039 0.285122 0
M  V30 6424 O 607.002 1.38557 1.20614 0
M  V30 6425 C 607.064 3.12919 -1.7698 0
M  V30 6426 C 606.728 3.2012 -3.26148 0
M  V30 6427 C 607.725 3.02533 -4.22812 0
M  V30 6428 C 605.41 3.43148 -3.66817 0
M  V30 6429 C 607.404 3.07861 -5.58122 0
M  V30 6430 C 605.091 3.48109 -5.02258 0
M  V30 6431 C 606.089 3.30483 -5.97721 0
M  V30 6432 O 605.777 3.35175 -7.30694 0
M  V30 6433 H 605.509 0.54152 -0.404639 0
M  V30 6434 H 608.063 1.17342 -1.68582 0
M  V30 6435 H 606.293 3.67945 -1.18969 0
M  V30 6436 H 607.982 3.72787 -1.60576 0
M  V30 6437 H 608.748 2.84586 -3.92728 0
M  V30 6438 H 604.627 3.55918 -2.9299 0
M  V30 6439 H 608.171 2.94021 -6.32612 0
M  V30 6440 H 604.068 3.65579 -5.31998 0
M  V30 6441 H 604.836 3.51644 -7.39114 0
M  V30 6442 N 607.499 1.09233 1.13605 0
M  V30 6443 C 608.429 0.751738 2.21068 0
M  V30 6444 C 609.41 -0.269688 1.67948 0
M  V30 6445 O 610.595 -0.13819 1.93708 0
M  V30 6446 C 607.725 0.16935 3.46887 0
M  V30 6447 C 606.679 1.12007 4.13084 0
M  V30 6448 C 606.005 0.399483 5.33206 0
M  V30 6449 C 607.305 2.46168 4.6065 0
M  V30 6450 H 608.999 1.65024 2.49815 0
M  V30 6451 H 606.545 0.794905 1.20072 0
M  V30 6452 H 608.498 -0.0809824 4.21322 0
M  V30 6453 H 607.222 -0.764335 3.1753 0
M  V30 6454 H 605.881 1.35564 3.40614 0
M  V30 6455 H 605.529 -0.538277 5.00112 0
M  V30 6456 H 605.229 1.03337 5.78442 0
M  V30 6457 H 606.753 0.157403 6.10397 0
M  V30 6458 H 608.167 2.26829 5.26518 0
M  V30 6459 H 606.564 3.05326 5.1662 0
M  V30 6460 H 607.634 3.07076 3.75276 0
M  V30 6461 N 608.977 -1.30795 0.87923 0
M  V30 6462 C 610.254 -1.91145 0.415086 0
M  V30 6463 C 610.634 -1.7995 -1.10368 0
M  V30 6464 O 609.982 -1.21305 -1.93642 0
M  V30 6465 C 610.192 -3.37014 0.906778 0
M  V30 6466 C 611.54 -4.14101 0.938358 0
M  V30 6467 O 612.564 -3.45834 0.853053 0
M  V30 6468 O 611.423 -5.36054 1.06342 0
M  V30 6469 H 608.517 -0.81736 0.125905 0
M  V30 6470 H 611.063 -1.39401 0.967753 0
M  V30 6471 H 609.835 -3.3922 1.95053 0
M  V30 6472 H 609.458 -3.96204 0.332948 0
M  V30 6473 N 610.455 -0.639598 -1.44038 0
M  V30 6474 C 611.68 -0.153117 -2.06834 0
M  V30 6475 C 612.105 1.16676 -1.47541 0
M  V30 6476 O 611.463 1.71769 -0.580093 0
M  V30 6477 C 611.511 -0.0609169 -3.60549 0
M  V30 6478 O 610.615 0.98071 -4.00569 0
M  V30 6479 H 609.956 -0.0886402 -0.658057 0
M  V30 6480 H 612.486 -0.878674 -1.84771 0
M  V30 6481 H 612.496 0.126892 -4.07803 0
M  V30 6482 H 611.171 -1.0245 -4.03084 0
M  V30 6483 H 609.748 0.766789 -3.64931 0
M  V30 6484 N 611.933 1.52934 -0.380664 0
M  V30 6485 C 613.181 2.01069 0.203874 0
M  V30 6486 C 613.502 1.26922 1.4804 0
M  V30 6487 O 612.772 0.386787 1.92044 0
M  V30 6488 H 611.352 0.742882 0.0783279 0
M  V30 6489 H 614.014 1.88099 -0.510368 0
M  V30 6490 H 613.11 3.09258 0.42021 0
M  V30 6491 N 613.412 0.11024 1.57214 0
M  V30 6492 C 614.689 -0.592956 1.86396 0
M  V30 6493 C 615.069 -1.85379 1.00985 0
M  V30 6494 O 614.417 -2.28337 0.0863592 0
M  V30 6495 C 614.627 -0.893816 3.3736 0
M  V30 6496 C 615.975 -1.25069 4.05762 0
M  V30 6497 O 616.999 -0.984356 3.42329 0
M  V30 6498 O 615.858 -1.75017 5.17718 0
M  V30 6499 H 612.952 -0.29828 0.771335 0
M  V30 6500 H 615.498 0.144083 1.69087 0
M  V30 6501 H 614.27 2.6031e-05 3.913 0
M  V30 6502 H 613.893 -1.68631 3.60068 0
M  V30 6503 N 614.89 -1.56749 -0.16351 0
M  V30 6504 C 616.12 -1.86307 -0.892936 0
M  V30 6505 C 616.528 -0.6945 -1.75992 0
M  V30 6506 O 615.871 0.345384 -1.80424 0
M  V30 6507 C 615.933 -3.10372 -1.81409 0
M  V30 6508 C 615.597 -4.42913 -1.12593 0
M  V30 6509 C 616.594 -5.17608 -0.487661 0
M  V30 6510 C 614.279 -4.89646 -1.12035 0
M  V30 6511 C 616.273 -6.3723 0.14699 0
M  V30 6512 C 613.96 -6.09197 -0.481883 0
M  V30 6513 C 614.958 -6.82834 0.150678 0
M  V30 6514 O 614.646 -8.00116 0.779065 0
M  V30 6515 H 614.378 -0.622126 -0.264452 0
M  V30 6516 H 616.932 -2.04728 -0.166063 0
M  V30 6517 H 615.162 -2.87917 -2.58148 0
M  V30 6518 H 616.851 -3.26312 -2.41403 0
M  V30 6519 H 617.617 -4.8258 -0.483888 0
M  V30 6520 H 613.496 -4.32265 -1.60212 0
M  V30 6521 H 617.04 -6.94646 0.641325 0
M  V30 6522 H 612.937 -6.43688 -0.483266 0
M  V30 6523 H 613.705 -8.15678 0.679089 0
M  V30 6524 N 616.368 0.432326 -1.51554 0
M  V30 6525 C 617.616 1.17901 -1.64146 0
M  V30 6526 C 617.937 1.91604 -0.362367 0
M  V30 6527 O 617.207 1.85764 0.621968 0
M  V30 6528 H 615.787 0.438206 -0.604966 0
M  V30 6529 H 618.449 0.495172 -1.88505 0
M  V30 6530 H 617.545 1.90584 -2.47152 0
M  V30 6531 N 617.846 1.41785 0.688094 0
M  V30 6532 C 618.779 1.38643 1.81255 0
M  V30 6533 C 619.757 0.252583 1.60626 0
M  V30 6534 O 620.941 0.440691 1.83276 0
M  V30 6535 C 618.068 1.16449 3.18053 0
M  V30 6536 C 617.114 2.32651 3.57457 0
M  V30 6537 S 617.947 3.95152 3.61407 0
M  V30 6538 C 619.103 3.75275 5.00919 0
M  V30 6539 H 619.336 2.33799 1.83644 0
M  V30 6540 H 616.869 1.28398 0.857513 0
M  V30 6541 H 618.827 1.0433 3.97021 0
M  V30 6542 H 617.488 0.229002 3.13264 0
M  V30 6543 H 616.681 2.12835 4.56856 0
M  V30 6544 H 616.283 2.41215 2.85817 0
M  V30 6545 H 618.575 3.35443 5.88629 0
M  V30 6546 H 619.518 4.74302 5.25778 0
M  V30 6547 H 619.926 3.08401 4.7281 0
M  V30 6548 N 619.324 -0.923095 1.27737 0
M  V30 6549 C 620.572 -1.66797 1.14119 0
M  V30 6550 C 620.893 -1.92479 -0.312541 0
M  V30 6551 O 620.163 -1.53432 -1.218 0
M  V30 6552 H 618.743 -0.618196 0.419336 0
M  V30 6553 H 621.405 -1.10815 1.60331 0
M  V30 6554 H 620.501 -2.63424 1.67374 0
M  V30 6555 N 620.802 -1.09834 -1.13024 0
M  V30 6556 C 622.03 -0.858902 -1.8823 0
M  V30 6557 C 622.445 0.590164 -1.79339 0
M  V30 6558 O 621.802 1.4065 -1.16292 0
M  V30 6559 C 621.853 -1.29066 -3.37675 0
M  V30 6560 O 621.574 -2.6829 -3.46341 0
M  V30 6561 C 623.075 -1.08421 -4.29837 0
M  V30 6562 H 620.295 -0.308713 -0.595766 0
M  V30 6563 H 622.839 -1.4614 -1.4305 0
M  V30 6564 H 620.994 -0.731961 -3.80422 0
M  V30 6565 H 621.408 -2.86598 -4.39274 0
M  V30 6566 H 622.882 -1.43553 -5.33007 0
M  V30 6567 H 623.359 -0.0223315 -4.39194 0
M  V30 6568 H 623.965 -1.62907 -3.92863 0
M  V30 6569 N 622.28 1.30327 -0.886154 0
M  V30 6570 C 623.21 2.30549 -0.370028 0
M  V30 6571 C 624.191 1.61039 0.547751 0
M  V30 6572 O 625.376 1.8864 0.461353 0
M  V30 6573 C 622.506 3.44808 0.415275 0
M  V30 6574 C 621.46 4.26024 -0.41085 0
M  V30 6575 C 620.786 5.32347 0.501128 0
M  V30 6576 C 622.086 4.95433 -1.65359 0
M  V30 6577 H 623.78 2.73969 -1.20754 0
M  V30 6578 H 621.326 1.3171 -0.582097 0
M  V30 6579 H 623.279 4.13986 0.78699 0
M  V30 6580 H 622.003 3.00197 1.28644 0
M  V30 6581 H 620.662 3.58535 -0.764719 0
M  V30 6582 H 620.31 4.83982 1.37004 0
M  V30 6583 H 620.01 5.87581 -0.0478356 0
M  V30 6584 H 621.534 6.0438 0.869333 0
M  V30 6585 H 622.948 5.5712 -1.35239 0
M  V30 6586 H 621.345 5.60537 -2.14284 0
M  V30 6587 H 622.415 4.21493 -2.39733 0
M  V30 6588 N 623.758 0.647228 1.43697 0
M  V30 6589 C 624.986 0.16575 2.06235 0
M  V30 6590 C 625.401 -1.1662 1.48476 0
M  V30 6591 O 624.758 -1.7187 0.613762 0
M  V30 6592 C 624.809 0.0621651 3.61447 0
M  V30 6593 O 624.53 1.34146 4.17057 0
M  V30 6594 C 626.031 -0.446102 4.4105 0
M  V30 6595 H 623.251 0.0871158 0.665321 0
M  V30 6596 H 625.795 0.886183 1.84301 0
M  V30 6597 H 623.95 -0.608794 3.82587 0
M  V30 6598 H 624.364 1.19675 5.10664 0
M  V30 6599 H 625.838 -0.46755 5.50016 0
M  V30 6600 H 626.315 -1.47627 4.13646 0
M  V30 6601 H 626.921 0.192159 4.24866 0
M  V30 6602 N 625.236 -1.5273 0.388769 0
M  V30 6603 C 626.461 -2.0647 -0.19621 0
M  V30 6604 C 626.886 -1.25865 -1.39784 0
M  V30 6605 O 626.244 -0.283562 -1.79069 0
M  V30 6606 C 626.292 -3.56456 -0.5451 0
M  V30 6607 O 625.396 -3.78426 -1.63912 0
M  V30 6608 H 624.737 -0.663599 -0.023067 0
M  V30 6609 H 627.267 -1.96898 0.556084 0
M  V30 6610 H 627.277 -3.99888 -0.809557 0
M  V30 6611 H 625.952 -4.14561 0.333417 0
M  V30 6612 H 624.529 -3.46884 -1.36842 0
M  V30 6613 N 626.714 -0.118576 -1.57153 0
M  V30 6614 C 628.125 0.40687 -1.82213 0
M  V30 6615 C 628.476 1.66636 -1.03571 0
M  V30 6616 O 627.601 2.14682 -0.272171 0
M  V30 6617 C 628.196 0.744949 -3.30509 0
M  V30 6618 C 626.755 1.21503 -3.5625 0
M  V30 6619 C 625.902 0.223511 -2.76398 0
M  V30 6620 H 628.853 -0.343712 -1.54933 0
M  V30 6621 H 628.874 1.6024 -3.45114 0
M  V30 6622 H 628.386 -0.171911 -3.87719 0
M  V30 6623 H 626.487 2.1488 -3.04396 0
M  V30 6624 H 626.6 1.16065 -4.64829 0
M  V30 6625 H 624.964 0.71046 -2.44591 0
M  V30 6626 H 625.747 -0.686439 -3.36367 0
M  V30 6627 N 628.193 1.56834 0.155195 0
M  V30 6628 C 629.442 1.82088 0.867567 0
M  V30 6629 C 629.755 0.69849 1.82703 0
M  V30 6630 O 630.961 0.836407 2.58295 0
M  V30 6631 C 629.417 3.22707 1.59336 0
M  V30 6632 C 629.025 4.42859 0.676719 0
M  V30 6633 C 630.769 3.57242 2.293 0
M  V30 6634 C 628.676 5.74501 1.40367 0
M  V30 6635 H 627.606 0.679057 0.327715 0
M  V30 6636 H 630.257 1.83105 0.120351 0
M  V30 6637 H 628.639 3.16054 2.38591 0
M  V30 6638 H 629.813 4.60731 -0.0800196 0
M  V30 6639 H 628.128 4.16311 0.0859129 0
M  V30 6640 H 630.725 4.52847 2.84312 0
M  V30 6641 H 631.068 2.82901 3.05406 0
M  V30 6642 H 631.601 3.6552 1.56972 0
M  V30 6643 H 628.34 6.51915 0.684623 0
M  V30 6644 H 627.86 5.60579 2.13332 0
M  V30 6645 H 629.539 6.17016 1.94681 0
M  V30 6646 N 629.671 -0.424282 1.51781 0
M  V30 6647 C 630.634 -1.49848 1.73431 0
M  V30 6648 C 631.634 -1.49016 0.604225 0
M  V30 6649 O 632.824 -1.50808 0.871935 0
M  V30 6650 C 629.956 -2.89332 1.80277 0
M  V30 6651 H 631.149 -1.3195 2.69312 0
M  V30 6652 H 628.702 -0.653809 1.41968 0
M  V30 6653 H 629.437 -3.12618 0.862568 0
M  V30 6654 H 629.222 -2.9134 2.62419 0
M  V30 6655 H 630.712 -3.67233 1.98821 0
M  V30 6656 N 631.149 -1.42148 -0.680565 0
M  V30 6657 C 632.565 -1.24947 -0.992995 0
M  V30 6658 C 632.765 -0.149527 -2.00944 0
M  V30 6659 O 631.821 0.481145 -2.47873 0
M  V30 6660 C 633.134 -2.60426 -1.5033 0
M  V30 6661 C 634.682 -2.67733 -1.62137 0
M  V30 6662 C 635.157 -4.03564 -2.16565 0
M  V30 6663 N 636.648 -4.05488 -2.23905 0
M  V30 6664 C 637.383 -5.07401 -2.67081 0
M  V30 6665 N 636.879 -6.19698 -3.09751 0
M  V30 6666 N 638.672 -4.94758 -2.66778 0
M  V30 6667 H 630.823 -2.12399 -0.0074788 0
M  V30 6668 H 633.086 -0.94571 -0.0658529 0
M  V30 6669 H 632.792 -3.41743 -0.830947 0
M  V30 6670 H 632.666 -2.83949 -2.483 0
M  V30 6671 H 635.053 -1.86765 -2.2848 0
M  V30 6672 H 635.134 -2.48004 -0.626713 0
M  V30 6673 H 634.778 -4.84987 -1.50833 0
M  V30 6674 H 634.708 -4.20641 -3.1681 0
M  V30 6675 H 637.199 -3.24415 -1.93812 0
M  V30 6676 H 637.512 -6.93318 -3.41365 0
M  V30 6677 H 635.857 -6.23212 -3.07623 0
M  V30 6678 H 639.048 -4.06105 -2.32801 0
M  V30 6679 H 639.221 -5.74317 -3.00107 0
M  V30 6680 N 632.627 0.916307 -1.28225 0
M  V30 6681 C 633.875 1.6619 -1.15002 0
M  V30 6682 C 634.196 1.92642 0.302329 0
M  V30 6683 O 633.466 1.54076 1.20985 0
M  V30 6684 H 632.046 0.615964 -0.422608 0
M  V30 6685 H 634.708 1.09963 -1.60917 0
M  V30 6686 H 633.804 2.62533 -1.68769 0
M  V30 6687 N 634.105 1.10431 1.1244 0
M  V30 6688 C 635.052 0.753103 2.18167 0
M  V30 6689 C 636.022 -0.270549 1.63882 0
M  V30 6690 O 637.207 -0.149837 1.90211 0
M  V30 6691 C 634.347 0.191046 3.44571 0
M  V30 6692 C 633.46 1.26999 4.12911 0
M  V30 6693 C 632.595 0.669586 5.26963 0
M  V30 6694 C 631.634 1.72912 5.87169 0
M  V30 6695 N 630.771 1.14898 6.92635 0
M  V30 6696 H 635.611 1.65892 2.47556 0
M  V30 6697 H 633.148 0.828631 1.21541 0
M  V30 6698 H 635.106 -0.152712 4.1692 0
M  V30 6699 H 633.736 -0.677997 3.15599 0
M  V30 6700 H 632.788 1.73087 3.3874 0
M  V30 6701 H 634.1 2.07204 4.53727 0
M  V30 6702 H 633.254 0.275274 6.06075 0
M  V30 6703 H 631.993 -0.163895 4.87425 0
M  V30 6704 H 630.998 2.13286 5.06744 0
M  V30 6705 H 632.223 2.56544 6.28778 0
M  V30 6706 H 630.169 0.336956 6.55134 0
M  V30 6707 H 630.086 1.88786 7.32049 0
M  V30 6708 H 631.354 0.78121 7.75576 0
M  V30 6709 N 635.583 -1.29855 0.893053 0
M  V30 6710 C 636.86 -1.90694 0.435336 0
M  V30 6711 C 637.24 -1.8111 -1.08454 0
M  V30 6712 O 636.588 -1.23352 -1.92345 0
M  V30 6713 C 636.798 -3.36033 0.942472 0
M  V30 6714 C 638.146 -4.13083 0.982226 0
M  V30 6715 O 639.17 -3.4491 0.889686 0
M  V30 6716 O 638.029 -5.34896 1.12022 0
M  V30 6717 H 635.123 -0.815978 0.134567 0
M  V30 6718 H 637.669 -1.38367 0.982484 0
M  V30 6719 H 636.441 -3.37132 1.9864 0
M  V30 6720 H 636.064 -3.95828 0.374952 0
M  V30 6721 N 637.061 -0.65484 -1.43351 0
M  V30 6722 C 638.024 0.0263562 -2.29185 0
M  V30 6723 C 639.024 0.748951 -1.42293 0
M  V30 6724 O 640.214 0.589957 -1.63906 0
M  V30 6725 C 637.346 1.04806 -3.2439 0
M  V30 6726 H 638.539 -0.728883 -2.90908 0
M  V30 6727 H 636.092 -0.416149 -1.50658 0
M  V30 6728 H 636.827 1.83247 -2.67565 0
M  V30 6729 H 636.612 0.533554 -3.88453 0
M  V30 6730 H 638.102 1.52372 -3.88809 0
M  V30 6731 N 638.539 1.52521 -0.396863 0
M  V30 6732 C 639.95 1.86547 0.0754868 0
M  V30 6733 C 640.301 1.31621 1.45501 0
M  V30 6734 O 639.426 0.650563 2.0639 0
M  V30 6735 C 640.021 3.38495 0.143754 0
M  V30 6736 C 638.58 3.72205 0.560413 0
M  V30 6737 C 637.727 2.75954 -0.272856 0
M  V30 6738 H 640.678 1.46323 -0.614434 0
M  V30 6739 H 640.699 3.68153 0.961425 0
M  V30 6740 H 640.211 3.78442 -0.860415 0
M  V30 6741 H 638.312 3.3783 1.57167 0
M  V30 6742 H 638.425 4.78074 0.313314 0
M  V30 6743 H 636.789 2.53339 0.263 0
M  V30 6744 H 637.572 3.1874 -1.27515 0
M  V30 6745 N 640.017 0.126909 1.57088 0
M  V30 6746 C 641.242 -0.53997 2.00248 0
M  V30 6747 C 641.667 -1.58927 1.00618 0
M  V30 6748 O 641.025 -1.81288 -0.0210131 0
M  V30 6749 C 641.073 -1.13565 3.4225 0
M  V30 6750 O 640.177 -2.25103 3.45547 0
M  V30 6751 H 639.518 -0.13412 0.650314 0
M  V30 6752 H 642.048 0.217718 2.03438 0
M  V30 6753 H 642.058 -1.46925 3.80627 0
M  V30 6754 H 640.733 -0.367122 4.14277 0
M  V30 6755 H 639.31 -1.93123 3.18995 0
M  V30 6756 N 641.495 -1.56914 -0.146875 0
M  V30 6757 C 642.443 -1.99224 -1.20053 0
M  V30 6758 C 643.437 -0.884661 -1.44465 0
M  V30 6759 O 644.643 -1.06984 -1.44756 0
M  V30 6760 H 641.018 -0.634191 -0.404112 0
M  V30 6761 H 642.989 -2.86998 -0.816987 0
M  V30 6762 C 641.738 -2.38899 -2.52632 0
M  V30 6763 H 641.061 -3.23677 -2.34677 0
M  V30 6764 H 642.501 -2.72326 -3.24984 0
M  V30 6765 C 640.96 -1.2417 -3.13183 0
M  V30 6766 O 641.49 -0.542503 -3.9802 0
M  V30 6767 N 639.696 -1.00592 -2.72635 0
M  V30 6768 H 639.243 -1.57627 -2.03744 0
M  V30 6769 H 639.201 -0.240174 -3.13481 0
M  V30 6770 N 642.974 0.416227 -1.52004 0
M  V30 6771 C 643.937 1.48926 -1.74223 0
M  V30 6772 C 644.937 1.48693 -0.612119 0
M  V30 6773 O 646.127 1.50343 -0.879921 0
M  V30 6774 C 643.259 2.88372 -1.81809 0
M  V30 6775 H 644.452 1.3052 -2.70008 0
M  V30 6776 H 642.005 0.646271 -1.42313 0
M  V30 6777 H 642.74 3.12157 -0.879135 0
M  V30 6778 H 642.525 2.89944 -2.6396 0
M  V30 6779 H 644.015 3.66173 -2.00766 0
M  V30 6780 N 644.452 1.42507 0.673017 0
M  V30 6781 C 645.698 1.43284 1.43519 0
M  V30 6782 C 646.031 0.049668 1.94136 0
M  V30 6783 O 645.306 -0.926369 1.71022 0
M  V30 6784 C 645.589 2.45874 2.63093 0
M  V30 6785 C 645.442 3.93388 2.18096 0
M  V30 6786 C 646.761 2.45431 3.6531 0
M  V30 6787 H 643.88 0.521752 0.520522 0
M  V30 6788 H 646.522 1.73932 0.764701 0
M  V30 6789 H 644.672 2.19869 3.20296 0
M  V30 6790 H 646.344 4.30379 1.66046 0
M  V30 6791 H 644.587 4.07169 1.49652 0
M  V30 6792 H 645.258 4.60752 3.03993 0
M  V30 6793 H 647.734 2.68561 3.17827 0
M  V30 6794 H 646.61 3.19189 4.46553 0
M  V30 6795 H 646.871 1.48092 4.16559 0
M  V30 6796 N 645.93 -0.909495 1.28709 0
M  V30 6797 C 646.86 -2.0291 1.15542 0
M  V30 6798 C 647.841 -1.7002 0.0521017 0
M  V30 6799 O 649.026 -1.92835 0.229849 0
M  V30 6800 C 646.156 -3.37458 0.820935 0
M  V30 6801 C 645.11 -3.84524 1.87949 0
M  V30 6802 C 644.436 -5.16086 1.39854 0
M  V30 6803 C 645.736 -4.05918 3.28676 0
M  V30 6804 H 647.43 -2.14183 2.09203 0
M  V30 6805 H 644.976 -1.02913 1.00722 0
M  V30 6806 H 646.929 -4.1528 0.715571 0
M  V30 6807 H 645.653 -3.26249 -0.151374 0
M  V30 6808 H 644.312 -3.08911 1.97408 0
M  V30 6809 H 643.96 -5.01284 0.41518 0
M  V30 6810 H 643.66 -5.48547 2.1064 0
M  V30 6811 H 645.184 -5.96459 1.30649 0
M  V30 6812 H 646.598 -4.74252 3.22115 0
M  V30 6813 H 644.995 -4.49717 3.97334 0
M  V30 6814 H 646.065 -3.10583 3.72379 0
M  V30 6815 N 647.408 -1.11026 -1.11852 0
M  V30 6816 C 648.338 -0.786812 -2.19844 0
M  V30 6817 C 649.319 0.242935 -1.68356 0
M  V30 6818 O 650.504 0.107355 -1.93903 0
M  V30 6819 C 647.634 -0.224516 -3.46574 0
M  V30 6820 C 646.588 -1.18564 -4.1125 0
M  V30 6821 C 645.914 -0.484261 -5.32503 0
M  V30 6822 C 647.214 -2.53465 -4.56676 0
M  V30 6823 H 648.908 -1.68978 -2.47158 0
M  V30 6824 H 646.454 -0.813906 -1.18792 0
M  V30 6825 H 648.407 0.0139435 -4.21398 0
M  V30 6826 H 647.131 0.713722 -3.18706 0
M  V30 6827 H 645.79 -1.40966 -3.38414 0
M  V30 6828 H 645.438 0.458646 -5.00905 0
M  V30 6829 H 645.138 -1.12526 -5.76725 0
M  V30 6830 H 646.662 -0.254492 -6.10069 0
M  V30 6831 H 648.076 -2.35177 -5.22843 0
M  V30 6832 H 646.473 -3.13507 -5.11697 0
M  V30 6833 H 647.543 -3.13008 -3.70343 0
M  V30 6834 N 648.886 1.2938 -0.899927 0
M  V30 6835 C 649.834 2.29675 -0.367698 0
M  V30 6836 C 650.828 1.60787 0.533282 0
M  V30 6837 O 652.034 1.75126 0.416058 0
M  V30 6838 H 648.409 0.745284 -0.100279 0
M  V30 6839 H 650.38 2.72008 -1.22696 0
M  V30 6840 C 649.129 3.45512 0.389483 0
M  V30 6841 H 648.452 3.98713 -0.294575 0
M  V30 6842 H 649.892 4.17725 0.726744 0
M  V30 6843 C 648.351 2.969 1.59223 0
M  V30 6844 O 648.881 2.98195 2.69152 0
M  V30 6845 N 647.087 2.52728 1.43447 0
M  V30 6846 H 646.634 2.51873 0.540148 0
M  V30 6847 H 646.592 2.20561 2.24054 0
M  V30 6848 N 650.364 0.662433 1.43002 0
M  V30 6849 C 651.274 -0.0239199 2.34588 0
M  V30 6850 C 652.29 -0.802255 1.54402 0
M  V30 6851 O 653.466 -0.747401 1.87018 0
M  V30 6852 C 650.531 -0.972098 3.32793 0
M  V30 6853 C 649.592 -0.189673 4.28881 0
M  V30 6854 C 648.825 -1.09269 5.22395 0
M  V30 6855 O 649.048 -2.33209 5.20547 0
M  V30 6856 O 647.982 -0.560136 5.99288 0
M  V30 6857 H 651.808 0.730171 2.94792 0
M  V30 6858 H 649.393 0.422635 1.43297 0
M  V30 6859 H 651.275 -1.51676 3.93157 0
M  V30 6860 H 649.95 -1.70626 2.75079 0
M  V30 6861 H 648.857 0.398794 3.71968 0
M  V30 6862 H 650.19 0.50511 4.89601 0
M  V30 6863 N 651.842 -1.52309 0.404946 0
M  V30 6864 C 653.07 -2.06185 -0.171818 0
M  V30 6865 C 653.485 -1.27536 -1.39212 0
M  V30 6866 O 652.842 -0.326112 -1.79563 0
M  V30 6867 C 652.893 -3.57647 -0.526417 0
M  V30 6868 O 652.614 -4.3332 0.645417 0
M  V30 6869 C 654.115 -4.27925 -1.15736 0
M  V30 6870 H 651.335 -0.670632 -0.0222328 0
M  V30 6871 H 653.879 -1.96259 0.574692 0
M  V30 6872 H 652.034 -3.67595 -1.22282 0
M  V30 6873 H 652.448 -5.23328 0.35042 0
M  V30 6874 H 653.922 -5.35093 -1.35572 0
M  V30 6875 H 654.399 -3.84134 -2.12926 0
M  V30 6876 H 655.005 -4.22335 -0.501281 0
M  V30 6877 N 653.32 -0.135238 -1.57019 0
M  V30 6878 C 654.569 0.518694 -1.94917 0
M  V30 6879 C 654.882 1.66783 -1.0219 0
M  V30 6880 O 656.088 2.38561 -1.29619 0
M  V30 6881 C 654.544 0.974123 -3.46466 0
M  V30 6882 C 654.152 -0.147439 -4.47757 0
M  V30 6883 C 655.896 1.59851 -3.93253 0
M  V30 6884 C 653.803 0.325599 -5.90503 0
M  V30 6885 H 652.733 0.19754 -0.727663 0
M  V30 6886 H 655.384 -0.217698 -1.82204 0
M  V30 6887 H 653.766 1.76542 -3.5447 0
M  V30 6888 H 654.94 -0.924122 -4.51438 0
M  V30 6889 H 653.255 -0.679496 -4.10818 0
M  V30 6890 H 655.852 1.96385 -4.9733 0
M  V30 6891 H 656.195 2.48306 -3.3414 0
M  V30 6892 H 656.728 0.872323 -3.88118 0
M  V30 6893 H 653.467 -0.523295 -6.53408 0
M  V30 6894 H 652.987 1.06841 -5.90208 0
M  V30 6895 H 654.666 0.781498 -6.42263 0
M  V30 6896 N 654.798 1.5699 0.138552 0
M  V30 6897 C 655.761 1.97984 1.15478 0
M  V30 6898 C 656.761 0.867416 1.35398 0
M  V30 6899 O 657.951 1.13387 1.32246 0
M  V30 6900 C 655.083 2.3031 2.51337 0
M  V30 6901 H 656.276 2.88953 0.802896 0
M  V30 6902 H 653.829 1.51555 0.382189 0
M  V30 6903 H 654.564 1.42159 2.91481 0
M  V30 6904 H 654.349 3.11425 2.38237 0
M  V30 6905 H 655.839 2.62834 3.24512 0
M  V30 6906 N 656.276 -0.40816 1.52223 0
M  V30 6907 C 657.553 -1.16807 1.56893 0
M  V30 6908 C 657.933 -2.08169 0.350537 0
M  V30 6909 O 657.281 -2.18684 -0.662536 0
M  V30 6910 C 657.491 -1.94451 2.8981 0
M  V30 6911 C 658.839 -2.50484 3.42845 0
M  V30 6912 O 659.863 -2.0463 2.91556 0
M  V30 6913 O 658.722 -3.34192 4.3241 0
M  V30 6914 H 655.816 -0.533382 0.632007 0
M  V30 6915 H 658.362 -0.414862 1.64551 0
M  V30 6916 H 657.134 -1.27527 3.69936 0
M  V30 6917 H 656.757 -2.76775 2.85449 0
M  V30 6918 N 657.755 -1.42862 -0.66545 0
M  V30 6919 C 658.985 -1.47032 -1.45138 0
M  V30 6920 C 659.393 -0.0829977 -1.89018 0
M  V30 6921 O 658.736 0.914551 -1.59316 0
M  V30 6922 C 658.798 -2.34302 -2.72659 0
M  V30 6923 C 658.462 -3.82034 -2.50796 0
M  V30 6924 C 659.459 -4.73453 -2.14799 0
M  V30 6925 C 657.144 -4.26397 -2.655 0
M  V30 6926 C 659.138 -6.07228 -1.93785 0
M  V30 6927 C 656.825 -5.6023 -2.44103 0
M  V30 6928 C 657.823 -6.50462 -2.08299 0
M  V30 6929 O 657.511 -7.8182 -1.87116 0
M  V30 6930 H 657.243 -0.501969 -0.452772 0
M  V30 6931 H 659.797 -1.88137 -0.82423 0
M  V30 6932 H 658.027 -1.88063 -3.37889 0
M  V30 6933 H 659.716 -2.29818 -3.34572 0
M  V30 6934 H 660.482 -4.4046 -2.03026 0
M  V30 6935 H 656.361 -3.56448 -2.92345 0
M  V30 6936 H 659.905 -6.7762 -1.65763 0
M  V30 6937 H 655.802 -5.92793 -2.55475 0
M  V30 6938 H 656.57 -7.93274 -2.01639 0
M  V30 6939 N 659.233 0.902656 -1.29189 0
M  V30 6940 C 660.461 1.68639 -1.19869 0
M  V30 6941 C 660.876 1.87254 0.241121 0
M  V30 6942 O 660.233 1.40745 1.16177 0
M  V30 6943 C 660.284 3.07251 -1.90471 0
M  V30 6944 O 660.005 2.89488 -3.28829 0
M  V30 6945 C 661.506 4.01653 -1.8759 0
M  V30 6946 H 658.726 0.526802 -0.415596 0
M  V30 6947 H 661.27 1.12901 -1.7051 0
M  V30 6948 H 659.425 3.59774 -1.43672 0
M  V30 6949 H 659.839 3.77296 -3.64346 0
M  V30 6950 H 661.313 4.96339 -2.4156 0
M  V30 6951 H 661.79 4.30881 -0.850756 0
M  V30 6952 H 662.396 3.55061 -2.34119 0
M  V30 6953 N 660.711 1.11618 1.11262 0
M  V30 6954 C 661.959 0.864469 1.82678 0
M  V30 6955 C 662.28 -0.611564 1.85162 0
M  V30 6956 O 661.55 -1.44429 1.32352 0
M  V30 6957 H 660.13 0.316821 0.676486 0
M  V30 6958 H 662.792 1.40894 1.34666 0
M  V30 6959 H 661.888 1.23832 2.86482 0
M  V30 6960 N 662.189 -1.289 0.906776 0
M  V30 6961 C 663.435 -1.95558 0.53712 0
M  V30 6962 C 663.768 -1.71262 -0.915582 0
M  V30 6963 O 663.043 -1.02961 -1.65013 0
M  V30 6964 C 663.326 -3.50198 0.838645 0
M  V30 6965 C 663.179 -3.83923 2.34357 0
M  V30 6966 C 664.498 -4.38861 0.329988 0
M  V30 6967 H 661.617 -0.710289 0.196617 0
M  V30 6968 H 664.259 -1.52392 1.13475 0
M  V30 6969 H 662.409 -3.87096 0.330024 0
M  V30 6970 H 664.081 -3.56933 2.92227 0
M  V30 6971 H 662.324 -3.31215 2.80141 0
M  V30 6972 H 662.995 -4.91883 2.5051 0
M  V30 6973 H 665.471 -4.08996 0.765609 0
M  V30 6974 H 664.347 -5.45931 0.570105 0
M  V30 6975 H 664.608 -4.35352 -0.769511 0
M  V30 6976 N 663.667 -0.670007 -1.42649 0
M  V30 6977 C 665.078 -0.268118 -1.84765 0
M  V30 6978 C 665.429 1.18877 -1.56086 0
M  V30 6979 O 664.554 1.90947 -1.01825 0
M  V30 6980 C 665.149 -0.47984 -3.35385 0
M  V30 6981 C 663.708 -0.132116 -3.76168 0
M  V30 6982 C 662.855 -0.774611 -2.66261 0
M  V30 6983 H 665.806 -0.872509 -1.32563 0
M  V30 6984 H 665.827 0.269522 -3.79544 0
M  V30 6985 H 665.339 -1.54026 -3.56227 0
M  V30 6986 H 663.44 0.92505 -3.60934 0
M  V30 6987 H 663.553 -0.569294 -4.75706 0
M  V30 6988 H 661.917 -0.206353 -2.53863 0
M  V30 6989 H 662.7 -1.83839 -2.89928 0
M  V30 6990 N 665.145 1.52092 -0.413018 0
M  V30 6991 C 666.078 2.23613 0.455234 0
M  V30 6992 C 667.056 1.2459 1.04481 0
M  V30 6993 O 668.24 1.53653 1.09193 0
M  V30 6994 C 665.367 2.96775 1.63224 0
M  V30 6995 C 664.413 4.10261 1.16568 0
M  V30 6996 S 665.246 5.35348 0.127633 0
M  V30 6997 C 666.402 6.1204 1.30987 0
M  V30 6998 H 666.635 2.96911 -0.152042 0
M  V30 6999 H 664.168 1.53134 -0.197343 0
M  V30 7000 H 666.126 3.39532 2.30713 0
M  V30 7001 H 664.787 2.23113 2.21087 0
M  V30 7002 H 663.98 4.6064 2.04515 0
M  V30 7003 H 663.582 3.6964 0.569386 0
M  V30 7004 H 665.874 6.39651 2.23276 0
M  V30 7005 H 666.817 7.03022 0.846533 0
M  V30 7006 H 667.225 5.43161 1.53743 0
M  V30 7007 N 666.623 0.143563 1.56945 0
M  V30 7008 C 667.533 -0.810562 2.20152 0
M  V30 7009 C 668.549 -1.27431 1.1848 0
M  V30 7010 O 669.725 -1.33221 1.51044 0
M  V30 7011 C 666.79 -2.03353 2.80799 0
M  V30 7012 C 665.851 -1.61936 3.97587 0
M  V30 7013 C 665.084 -2.78403 4.55332 0
M  V30 7014 O 665.307 -3.94521 4.11958 0
M  V30 7015 O 664.241 -2.54073 5.45647 0
M  V30 7016 H 668.067 -0.30253 3.02189 0
M  V30 7017 H 665.652 -0.0832925 1.49168 0
M  V30 7018 H 667.534 -2.74932 3.19359 0
M  V30 7019 H 666.209 -2.53116 2.01777 0
M  V30 7020 H 665.116 -0.873904 3.6375 0
M  V30 7021 H 666.449 -1.16892 4.78118 0
M  V30 7022 N 668.101 -1.57061 -0.130224 0
M  V30 7023 C 669.35 -1.83446 -0.838488 0
M  V30 7024 C 669.663 -0.727468 -1.81569 0
M  V30 7025 O 670.869 -0.877394 -2.56932 0
M  V30 7026 C 669.325 -3.25201 -1.54182 0
M  V30 7027 C 668.933 -4.4388 -0.606178 0
M  V30 7028 C 670.677 -3.60844 -2.23588 0
M  V30 7029 C 668.584 -5.76661 -1.31209 0
M  V30 7030 H 667.514 -0.684185 -0.316871 0
M  V30 7031 H 670.165 -1.83273 -0.0912059 0
M  V30 7032 H 668.547 -3.1981 -2.33533 0
M  V30 7033 H 669.721 -4.60545 0.153308 0
M  V30 7034 H 668.036 -4.16395 -0.0196705 0
M  V30 7035 H 670.633 -4.57313 -2.77072 0
M  V30 7036 H 670.976 -2.87724 -3.00867 0
M  V30 7037 H 671.509 -3.67971 -1.51137 0
M  V30 7038 H 668.248 -6.52922 -0.580823 0
M  V30 7039 H 667.768 -5.63902 -2.04387 0
M  V30 7040 H 669.447 -6.20035 -1.8484 0
M  V30 7041 N 669.579 0.400081 -1.52437 0
M  V30 7042 C 670.99 0.97851 -1.59003 0
M  V30 7043 C 671.341 1.91293 -0.436068 0
M  V30 7044 O 670.466 2.1183 0.442365 0
M  V30 7045 C 671.061 1.78145 -2.88184 0
M  V30 7046 C 669.62 2.30976 -2.97199 0
M  V30 7047 C 668.767 1.11212 -2.54022 0
M  V30 7048 H 671.718 0.180002 -1.57676 0
M  V30 7049 H 671.739 2.63968 -2.74046 0
M  V30 7050 H 671.251 1.1011 -3.72152 0
M  V30 7051 H 669.352 3.02355 -2.17744 0
M  V30 7052 H 669.465 2.61221 -4.01622 0
M  V30 7053 H 667.829 1.46882 -2.08081 0
M  V30 7054 H 668.612 0.447307 -3.40373 0
M  V30 7055 N 671.057 1.43213 0.657864 0
M  V30 7056 C 672.473 1.26511 0.972992 0
M  V30 7057 C 672.673 0.181477 2.00681 0
M  V30 7058 O 671.729 -0.441649 2.48608 0
M  V30 7059 C 673.042 2.62784 1.46168 0
M  V30 7060 C 674.59 2.70278 1.57857 0
M  V30 7061 C 675.065 4.06958 2.10117 0
M  V30 7062 N 676.556 4.08999 2.17426 0
M  V30 7063 C 677.291 5.11585 2.58975 0
M  V30 7064 N 676.787 6.24548 2.99853 0
M  V30 7065 N 678.58 4.9894 2.58873 0
M  V30 7066 H 670.731 2.12384 -0.0263129 0
M  V30 7067 H 672.994 0.946638 0.0507992 0
M  V30 7068 H 672.7 3.43022 0.776474 0
M  V30 7069 H 672.574 2.87863 2.43751 0
M  V30 7070 H 674.961 1.90376 2.25479 0
M  V30 7071 H 675.042 2.4897 0.587179 0
M  V30 7072 H 674.686 4.87325 1.43098 0
M  V30 7073 H 674.616 4.25628 3.10078 0
M  V30 7074 H 677.107 3.27457 1.88627 0
M  V30 7075 H 677.42 6.98661 3.30292 0
M  V30 7076 H 675.765 6.28027 2.97669 0
M  V30 7077 H 678.956 4.09757 2.26311 0
M  V30 7078 H 679.129 5.79019 2.90932 0
M  V30 7079 N 672.536 -0.895792 1.29666 0
M  V30 7080 C 673.499 -1.98189 1.15124 0
M  V30 7081 C 674.499 -1.60572 0.0855717 0
M  V30 7082 O 675.689 -1.70991 0.332826 0
M  V30 7083 C 672.821 -3.32289 0.761372 0
M  V30 7084 H 674.014 -2.12518 2.11603 0
M  V30 7085 H 671.567 -1.0808 1.12908 0
M  V30 7086 H 672.302 -3.23662 -0.203393 0
M  V30 7087 H 672.087 -3.60958 1.53139 0
M  V30 7088 H 673.577 -4.1198 0.682792 0
M  V30 7089 N 674.014 -1.12206 -1.10668 0
M  V30 7090 C 675.263 -0.870595 -1.81944 0
M  V30 7091 C 675.576 0.605447 -1.85994 0
M  V30 7092 O 676.782 0.973433 -2.53449 0
M  V30 7093 C 675.238 -1.50783 -3.26791 0
M  V30 7094 C 674.846 -3.01849 -3.31046 0
M  V30 7095 C 676.59 -1.33653 -4.02911 0
M  V30 7096 C 674.497 -3.58518 -4.70339 0
M  V30 7097 H 673.427 -0.322043 -0.681765 0
M  V30 7098 H 676.078 -1.34827 -1.24475 0
M  V30 7099 H 674.46 -0.957825 -3.84242 0
M  V30 7100 H 675.634 -3.63321 -2.83433 0
M  V30 7101 H 673.949 -3.18346 -2.68411 0
M  V30 7102 H 676.546 -1.73416 -5.05797 0
M  V30 7103 H 676.889 -0.279949 -4.15358 0
M  V30 7104 H 677.422 -1.85562 -3.51868 0
M  V30 7105 H 674.161 -4.63925 -4.63091 0
M  V30 7106 H 673.681 -3.01819 -5.18329 0
M  V30 7107 H 675.36 -3.57434 -5.39305 0
M  V30 7108 N 675.492 1.28418 -0.913599 0
M  V30 7109 C 676.455 2.25564 -0.406624 0
M  V30 7110 C 677.455 1.5387 0.466965 0
M  V30 7111 O 678.645 1.72094 0.270042 0
M  V30 7112 C 675.777 3.38339 0.417053 0
M  V30 7113 H 676.97 2.71926 -1.26477 0
M  V30 7114 H 674.523 1.40098 -0.692986 0
M  V30 7115 H 675.258 2.97339 1.29461 0
M  V30 7116 H 675.043 3.91542 -0.209102 0
M  V30 7117 H 676.533 4.10578 0.762602 0
M  V30 7118 N 676.97 0.677563 1.42291 0
M  V30 7119 C 678.216 0.201272 2.01799 0
M  V30 7120 C 678.549 -1.19004 1.53465 0
M  V30 7121 O 677.824 -1.79953 0.738039 0
M  V30 7122 C 678.107 0.238968 3.59306 0
M  V30 7123 C 677.96 1.66594 4.17812 0
M  V30 7124 C 679.279 -0.411287 4.38174 0
M  V30 7125 H 676.398 0.0746114 0.733214 0
M  V30 7126 H 679.04 0.862872 1.69276 0
M  V30 7127 H 677.19 -0.324368 3.87144 0
M  V30 7128 H 678.862 2.28173 4.00917 0
M  V30 7129 H 677.105 2.20576 3.73536 0
M  V30 7130 H 677.776 1.64398 5.26951 0
M  V30 7131 H 680.252 0.0682804 4.16044 0
M  V30 7132 H 679.128 -0.354286 5.47755 0
M  V30 7133 H 679.389 -1.4893 4.1626 0
M  V30 7134 N 678.448 -1.51871 0.421078 0
M  V30 7135 C 679.695 -2.01938 -0.15079 0
M  V30 7136 C 680.023 -1.30611 -1.44121 0
M  V30 7137 O 679.278 -0.404631 -1.91471 0
M  V30 7138 C 679.577 -3.54764 -0.433292 0
M  V30 7139 C 679.243 -4.44288 0.76936 0
M  V30 7140 C 677.905 -4.68477 1.09921 0
M  V30 7141 C 680.257 -4.96915 1.57242 0
M  V30 7142 C 677.585 -5.4254 2.2331 0
M  V30 7143 C 679.937 -5.7222 2.69716 0
M  V30 7144 C 678.601 -5.94678 3.03174 0
M  V30 7145 H 677.871 -0.738943 -0.0551781 0
M  V30 7146 H 680.518 -1.82977 0.564945 0
M  V30 7147 H 678.823 -3.71968 -1.23074 0
M  V30 7148 H 680.52 -3.91023 -0.888922 0
M  V30 7149 H 677.11 -4.25646 0.502305 0
M  V30 7150 H 681.294 -4.78125 1.3308 0
M  V30 7151 H 676.55 -5.58146 2.49565 0
M  V30 7152 H 680.724 -6.11992 3.32323 0
M  V30 7153 H 678.351 -6.51848 3.9115 0
M  V30 7154 N 679.926 -0.151884 -1.56866 0
M  V30 7155 C 680.836 0.798876 -2.20579 0
M  V30 7156 C 681.852 1.268 -1.19154 0
M  V30 7157 O 683.028 1.32418 -1.51748 0
M  V30 7158 C 680.093 2.01861 -2.81874 0
M  V30 7159 C 679.154 1.59825 -3.9844 0
M  V30 7160 C 678.387 2.75984 -4.56802 0
M  V30 7161 O 678.61 3.92331 -4.14044 0
M  V30 7162 O 677.544 2.51175 -5.46987 0
M  V30 7163 H 681.37 0.2865 -3.02346 0
M  V30 7164 H 678.955 0.0753806 -1.4921 0
M  V30 7165 H 680.837 2.73235 -3.20813 0
M  V30 7166 H 679.512 2.52042 -2.03117 0
M  V30 7167 H 678.419 0.854601 -3.64208 0
M  V30 7168 H 679.752 1.14355 -4.78731 0
M  V30 7169 N 681.404 1.57128 0.121893 0
M  V30 7170 C 682.82 1.52357 0.47534 0
M  V30 7171 C 683.02 0.864417 1.82017 0
M  V30 7172 O 682.076 0.445529 2.48538 0
M  V30 7173 C 683.389 2.97122 0.4625 0
M  V30 7174 C 684.937 3.08196 0.546255 0
M  V30 7175 C 685.412 4.54516 0.563833 0
M  V30 7176 N 686.903 4.58959 0.625353 0
M  V30 7177 C 687.638 5.69585 0.660354 0
M  V30 7178 N 687.134 6.89714 0.653175 0
M  V30 7179 N 688.927 5.57685 0.703143 0
M  V30 7180 H 681.078 1.98364 -0.75931 0
M  V30 7181 H 683.341 0.905777 -0.279772 0
M  V30 7182 H 683.047 3.48706 -0.457943 0
M  V30 7183 H 682.921 3.54406 1.29136 0
M  V30 7184 H 685.308 2.56617 1.45712 0
M  V30 7185 H 685.389 2.53912 -0.310234 0
M  V30 7186 H 685.033 5.06741 -0.342974 0
M  V30 7187 H 684.963 5.06609 1.43716 0
M  V30 7188 H 687.454 3.72489 0.637182 0
M  V30 7189 H 687.767 7.69781 0.682425 0
M  V30 7190 H 686.112 6.92223 0.620646 0
M  V30 7191 H 689.303 4.62744 0.706095 0
M  V30 7192 H 689.476 6.43909 0.726952 0
M  V30 7193 N 682.882 -0.391992 1.52647 0
M  V30 7194 C 684.112 -1.15692 1.71169 0
M  V30 7195 C 684.52 -1.84285 0.428444 0
M  V30 7196 O 683.863 -1.73393 -0.606669 0
M  V30 7197 C 683.925 -2.25033 2.80357 0
M  V30 7198 C 683.589 -1.76433 4.21569 0
M  V30 7199 C 684.586 -1.2427 5.0483 0
M  V30 7200 C 682.271 -1.82746 4.67877 0
M  V30 7201 C 684.265 -0.790657 6.32477 0
M  V30 7202 C 681.952 -1.37153 5.9551 0
M  V30 7203 C 682.95 -0.853997 6.7764 0
M  V30 7204 O 682.638 -0.404708 8.02881 0
M  V30 7205 H 682.37 -0.35297 0.576531 0
M  V30 7206 H 684.924 -0.464994 2.00067 0
M  V30 7207 H 683.154 -2.97641 2.46874 0
M  V30 7208 H 684.843 -2.86718 2.87311 0
M  V30 7209 H 685.609 -1.18752 4.70237 0
M  V30 7210 H 681.488 -2.21971 4.04042 0
M  V30 7211 H 685.032 -0.386024 6.96531 0
M  V30 7212 H 680.929 -1.42356 6.29607 0
M  V30 7213 H 681.697 -0.526459 8.16805 0
M  V30 7214 N 684.36 -1.4356 -0.65026 0
M  V30 7215 C 685.323 -1.48615 -1.74489 0
M  V30 7216 C 686.323 -0.370483 -1.56474 0
M  V30 7217 O 687.513 -0.632351 -1.62317 0
M  V30 7218 C 684.645 -1.34161 -3.13391 0
M  V30 7219 H 685.838 -2.46103 -1.71387 0
M  V30 7220 H 683.391 -1.30369 -0.862186 0
M  V30 7221 H 684.126 -0.376918 -3.22102 0
M  V30 7222 H 683.911 -2.1504 -3.27872 0
M  V30 7223 H 685.401 -1.40637 -3.93206 0
M  V30 7224 N 685.838 0.888903 -1.30139 0
M  V30 7225 C 687.086 1.63713 -1.18501 0
M  V30 7226 C 687.407 1.9324 0.261399 0
M  V30 7227 O 686.677 1.56608 1.17689 0
M  V30 7228 H 685.257 0.606861 -0.435579 0
M  V30 7229 H 687.919 1.06525 -1.63213 0
M  V30 7230 H 687.015 2.58894 -1.743 0
M  V30 7231 N 687.317 1.12792 1.10072 0
M  V30 7232 C 688.728 0.899346 1.63611 0
M  V30 7233 C 689.079 -0.565547 1.87872 0
M  V30 7234 O 688.204 -1.43081 1.62348 0
M  V30 7235 C 688.799 1.62608 2.97227 0
M  V30 7236 C 687.358 1.44356 3.47618 0
M  V30 7237 C 686.505 1.65958 2.22156 0
M  V30 7238 H 689.456 1.28216 0.935223 0
M  V30 7239 H 689.477 1.0793 3.64872 0
M  V30 7240 H 688.989 2.69221 2.79538 0
M  V30 7241 H 687.09 0.400148 3.70445 0
M  V30 7242 H 687.203 2.20218 4.25489 0
M  V30 7243 H 685.567 1.08395 2.30484 0
M  V30 7244 H 686.35 2.73877 2.06993 0
M  V30 7245 N 688.795 -1.27931 0.920396 0
M  V30 7246 C 689.705 -2.30824 0.419212 0
M  V30 7247 C 690.721 -1.66767 -0.496461 0
M  V30 7248 O 691.897 -1.97763 -0.38104 0
M  V30 7249 C 688.962 -3.45158 -0.326601 0
M  V30 7250 C 688.023 -4.24754 0.623098 0
M  V30 7251 C 687.256 -5.33629 -0.0872172 0
M  V30 7252 O 687.479 -5.55204 -1.30784 0
M  V30 7253 O 686.413 -5.99091 0.580875 0
M  V30 7254 H 690.239 -2.75716 1.27337 0
M  V30 7255 H 687.824 -1.32747 0.685465 0
M  V30 7256 H 689.706 -4.14716 -0.747559 0
M  V30 7257 H 688.381 -3.02336 -1.15648 0
M  V30 7258 H 687.288 -3.57759 1.09359 0
M  V30 7259 H 688.621 -4.71272 1.41998 0
M  V30 7260 N 690.273 -0.685099 -1.4193 0
M  V30 7261 C 691.503 -0.220052 -2.05425 0
M  V30 7262 C 691.911 1.13185 -1.51611 0
M  V30 7263 O 691.254 1.71631 -0.654875 0
M  V30 7264 C 691.316 -0.0888364 -3.5939 0
M  V30 7265 C 690.98 -1.37109 -4.35947 0
M  V30 7266 C 691.977 -2.30675 -4.65924 0
M  V30 7267 C 689.662 -1.62155 -4.75406 0
M  V30 7268 C 691.656 -3.47556 -5.34306 0
M  V30 7269 C 689.343 -2.79324 -5.43527 0
M  V30 7270 C 690.341 -3.71848 -5.72903 0
M  V30 7271 O 690.029 -4.86966 -6.39624 0
M  V30 7272 H 689.761 -0.102165 -0.668235 0
M  V30 7273 H 692.315 -0.935194 -1.82875 0
M  V30 7274 H 690.545 0.681981 -3.80639 0
M  V30 7275 H 692.234 0.337669 -4.04493 0
M  V30 7276 H 693 -2.12579 -4.3593 0
M  V30 7277 H 688.879 -0.910053 -4.51928 0
M  V30 7278 H 692.423 -4.19794 -5.57153 0
M  V30 7279 H 688.32 -2.97342 -5.72938 0
M  V30 7280 H 689.088 -4.86644 -6.58118 0
M  V30 7281 N 691.751 1.51645 -0.429126 0
M  V30 7282 C 692.698 2.27542 0.386446 0
M  V30 7283 C 693.668 1.30786 1.02393 0
M  V30 7284 O 694.853 1.59678 1.0444 0
M  V30 7285 C 691.993 3.11457 1.48623 0
M  V30 7286 C 691.106 4.23196 0.867691 0
M  V30 7287 C 690.241 4.94435 1.94183 0
M  V30 7288 C 689.28 5.98108 1.30129 0
M  V30 7289 N 688.417 6.62786 2.31644 0
M  V30 7290 H 693.257 2.968 -0.267155 0
M  V30 7291 H 690.794 1.46397 -0.143591 0
M  V30 7292 H 692.752 3.58429 2.13506 0
M  V30 7293 H 691.382 2.44329 2.10957 0
M  V30 7294 H 690.434 3.80248 0.107373 0
M  V30 7295 H 691.746 4.97499 0.35997 0
M  V30 7296 H 690.9 5.44914 2.66747 0
M  V30 7297 H 689.639 4.19744 2.48326 0
M  V30 7298 H 688.644 5.4693 0.561082 0
M  V30 7299 H 689.869 6.74751 0.767303 0
M  V30 7300 H 687.815 5.90913 2.84883 0
M  V30 7301 H 687.732 7.32828 1.85741 0
M  V30 7302 H 689 7.17897 3.03717 0
M  V30 7303 N 693.229 0.160201 1.56784 0
M  V30 7304 C 694.179 -0.786461 2.14007 0
M  V30 7305 C 695.163 -1.20046 1.07134 0
M  V30 7306 O 696.355 -1.16468 1.33283 0
M  V30 7307 C 693.484 -2.02024 2.77563 0
M  V30 7308 C 692.57 -1.62874 3.91578 0
M  V30 7309 N 692.961 -0.946176 4.96871 0
M  V30 7310 C 691.259 -1.92054 4.02531 0
M  V30 7311 C 691.96 -0.755084 5.76778 0
M  V30 7312 N 690.936 -1.29307 5.27997 0
M  V30 7313 H 694.738 -0.255879 2.92784 0
M  V30 7314 H 692.252 -0.0408778 1.62349 0
M  V30 7315 H 694.249 -2.70855 3.16928 0
M  V30 7316 H 692.909 -2.55587 2.00263 0
M  V30 7317 H 693.92 -0.605455 5.14349 0
M  V30 7318 H 690.597 -2.47374 3.36322 0
M  V30 7319 H 691.987 -0.216138 6.71552 0
M  V30 7320 N 694.707 -1.5719 -0.113559 0
M  V30 7321 C 695.639 -1.97393 -1.16484 0
M  V30 7322 C 696.652 -0.873964 -1.37352 0
M  V30 7323 O 697.841 -1.15222 -1.36331 0
M  V30 7324 C 694.941 -2.26174 -2.52386 0
M  V30 7325 C 694.114 -3.57479 -2.52046 0
M  V30 7326 C 693.173 -3.74409 -3.69735 0
M  V30 7327 O 692.199 -4.46463 -3.53071 0
M  V30 7328 N 693.401 -3.13588 -4.88511 0
M  V30 7329 H 696.166 -2.88184 -0.822814 0
M  V30 7330 H 693.727 -1.59044 -0.302769 0
M  V30 7331 H 695.719 -2.3471 -3.29687 0
M  V30 7332 H 694.289 -1.41483 -2.7875 0
M  V30 7333 H 693.509 -3.60081 -1.60421 0
M  V30 7334 H 694.797 -4.43775 -2.48881 0
M  V30 7335 H 694.195 -2.55026 -5.04953 0
M  V30 7336 H 692.752 -3.27637 -5.63469 0
M  V30 7337 N 696.185 0.383891 -1.52853 0
M  V30 7338 C 697.095 1.49343 -1.80925 0
M  V30 7339 C 698.111 1.59458 -0.696348 0
M  V30 7340 O 699.287 1.75698 -0.984481 0
M  V30 7341 C 696.352 2.84819 -1.97684 0
M  V30 7342 C 695.413 2.84382 -3.21598 0
M  V30 7343 C 694.646 4.13397 -3.37548 0
M  V30 7344 O 694.869 5.08619 -2.58192 0
M  V30 7345 O 693.803 4.20325 -4.30826 0
M  V30 7346 H 697.629 1.2855 -2.75152 0
M  V30 7347 H 695.214 0.572229 -1.38007 0
M  V30 7348 H 697.096 3.65125 -2.10385 0
M  V30 7349 H 695.771 3.05627 -1.06647 0
M  V30 7350 H 694.678 2.0284 -3.14336 0
M  V30 7351 H 696.011 2.68526 -4.12498 0
M  V30 7352 N 697.663 1.43903 0.642637 0
M  V30 7353 C 698.596 1.44339 1.76753 0
M  V30 7354 C 699.574 0.303558 1.59741 0
M  V30 7355 O 700.758 0.498775 1.81781 0
M  V30 7356 C 697.885 1.26508 3.14187 0
M  V30 7357 C 696.931 2.43905 3.49875 0
M  V30 7358 S 697.764 4.0645 3.48653 0
M  V30 7359 C 698.92 3.91021 4.88726 0
M  V30 7360 H 699.153 2.39523 1.76113 0
M  V30 7361 H 696.686 1.31061 0.81623 0
M  V30 7362 H 698.644 1.16908 3.93501 0
M  V30 7363 H 697.305 0.328548 3.12377 0
M  V30 7364 H 696.498 2.27262 4.49853 0
M  V30 7365 H 696.1 2.50186 2.77998 0
M  V30 7366 H 698.392 3.54 5.77659 0
M  V30 7367 H 699.335 4.9079 5.10423 0
M  V30 7368 H 699.743 3.23287 4.62759 0
M  V30 7369 N 699.141 -0.881989 1.30609 0
M  V30 7370 C 700.389 -1.63082 1.19368 0
M  V30 7371 C 700.71 -1.93376 -0.251147 0
M  V30 7372 O 699.98 -1.5723 -1.16857 0
M  V30 7373 H 698.56 -0.604542 0.438791 0
M  V30 7374 H 701.222 -1.05658 1.63776 0
M  V30 7375 H 700.318 -2.57966 1.7567 0
M  V30 7376 N 700.619 -1.13374 -1.09472 0
M  V30 7377 C 701.551 -0.768466 -2.15933 0
M  V30 7378 C 702.564 0.209585 -1.61445 0
M  V30 7379 O 703.753 -0.010539 -1.78497 0
M  V30 7380 C 700.853 -0.118266 -3.38694 0
M  V30 7381 C 700.026 -1.12829 -4.22597 0
M  V30 7382 C 699.085 -0.503875 -5.23782 0
M  V30 7383 O 698.111 -1.16374 -5.57177 0
M  V30 7384 N 699.313 0.724288 -5.75964 0
M  V30 7385 H 702.078 -1.68457 -2.47876 0
M  V30 7386 H 699.639 -1.02668 -1.25183 0
M  V30 7387 H 701.631 0.311698 -4.03498 0
M  V30 7388 H 700.201 0.700769 -3.04644 0
M  V30 7389 H 699.421 -1.73556 -3.53938 0
M  V30 7390 H 700.709 -1.81095 -4.75481 0
M  V30 7391 H 700.107 1.27918 -5.51048 0
M  V30 7392 H 698.664 1.09692 -6.42504 0
M  V30 7393 N 702.098 1.27442 -0.927168 0
M  V30 7394 C 703.509 1.76385 -0.611979 0
M  V30 7395 C 703.86 1.75715 0.872853 0
M  V30 7396 O 702.985 1.3603 1.683 0
M  V30 7397 C 703.58 3.20303 -1.10414 0
M  V30 7398 C 702.139 3.66916 -0.839628 0
M  V30 7399 C 701.286 2.46859 -1.26317 0
M  V30 7400 H 704.237 1.13716 -1.107 0
M  V30 7401 H 704.258 3.77811 -0.451578 0
M  V30 7402 H 703.77 3.20759 -2.18484 0
M  V30 7403 H 701.871 3.71906 0.227292 0
M  V30 7404 H 701.984 4.56415 -1.45679 0
M  V30 7405 H 700.348 2.45407 -0.681723 0
M  V30 7406 H 701.131 2.50025 -2.3525 0
M  V30 7407 N 703.576 0.692616 1.41565 0
M  V30 7408 C 704.524 0.0139952 2.32596 0
M  V30 7409 C 705.518 -0.771691 1.50802 0
M  V30 7410 O 706.724 -0.677646 1.66757 0
M  V30 7411 H 703.099 -0.0142745 0.751865 0
M  V30 7412 H 705.07 0.798851 2.87508 0
M  V30 7413 C 703.819 -0.910602 3.35564 0
M  V30 7414 H 703.142 -0.315446 3.98554 0
M  V30 7415 H 704.582 -1.3538 4.01806 0
M  V30 7416 C 703.041 -2.02539 2.6922 0
M  V30 7417 O 703.571 -3.11386 2.53775 0
M  V30 7418 N 701.777 -1.80227 2.27962 0
M  V30 7419 H 701.324 -0.917054 2.40724 0
M  V30 7420 H 701.282 -2.55001 1.83907 0
M  V30 7421 N 705.054 -1.51416 0.437162 0
M  V30 7422 C 706.3 -2.02386 -0.129555 0
M  V30 7423 C 706.633 -1.32071 -1.42376 0
M  V30 7424 O 705.908 -0.43559 -1.8956 0
M  V30 7425 C 706.191 -3.5841 -0.348487 0
M  V30 7426 C 706.044 -4.39341 0.964352 0
M  V30 7427 C 707.363 -4.25654 -1.11834 0
M  V30 7428 H 704.482 -0.735587 -0.0456109 0
M  V30 7429 H 707.124 -1.81055 0.576124 0
M  V30 7430 H 705.274 -3.76716 -0.949592 0
M  V30 7431 H 706.946 -4.32685 1.59942 0
M  V30 7432 H 705.189 -4.04432 1.56898 0
M  V30 7433 H 705.86 -5.4667 0.765212 0
M  V30 7434 H 708.336 -4.11617 -0.609165 0
M  V30 7435 H 707.212 -5.34704 -1.24029 0
M  V30 7436 H 707.473 -3.86502 -2.14636 0
M  V30 7437 N 706.532 -0.168513 -1.56696 0
M  V30 7438 C 707.757 0.486688 -2.01609 0
M  V30 7439 C 708.182 1.56203 -1.04796 0
M  V30 7440 O 707.54 1.8128 -0.0270596 0
M  V30 7441 C 707.588 1.04451 -3.45141 0
M  V30 7442 O 706.692 2.15862 -3.51393 0
M  V30 7443 H 706.033 0.116831 -0.653641 0
M  V30 7444 H 708.563 -0.271579 -2.0279 0
M  V30 7445 H 708.573 1.36782 -3.84389 0
M  V30 7446 H 707.248 0.257155 -4.15104 0
M  V30 7447 H 705.825 1.84597 -3.24004 0
M  V30 7448 N 708.01 1.57248 0.105221 0
M  V30 7449 C 709.238 1.89768 0.82437 0
M  V30 7450 C 709.653 0.761192 1.72775 0
M  V30 7451 O 709.01 -0.267342 1.80531 0
M  V30 7452 C 709.061 3.2184 1.64625 0
M  V30 7453 O 708.782 4.31115 0.779217 0
M  V30 7454 C 710.283 3.68155 2.46935 0
M  V30 7455 H 707.503 0.628031 0.236259 0
M  V30 7456 H 710.047 2.04321 0.085485 0
M  V30 7457 H 708.202 3.08915 2.33775 0
M  V30 7458 H 708.616 5.06897 1.34745 0
M  V30 7459 H 710.09 4.6329 3.00111 0
M  V30 7460 H 710.567 2.95492 3.24932 0
M  V30 7461 H 711.173 3.83914 1.83002 0
M  V30 7462 N 709.488 -0.375779 1.53054 0
M  V30 7463 C 710.398 -1.48381 1.81715 0
M  V30 7464 C 711.414 -1.59087 0.704795 0
M  V30 7465 O 712.59 -1.75174 0.993785 0
M  V30 7466 C 709.655 -2.83767 1.99192 0
M  V30 7467 C 708.716 -2.82673 3.23102 0
M  V30 7468 C 707.949 -4.11601 3.39736 0
M  V30 7469 O 708.172 -5.07243 2.60885 0
M  V30 7470 O 707.106 -4.18034 4.33049 0
M  V30 7471 H 710.932 -1.27089 2.7583 0
M  V30 7472 H 708.517 -0.564902 1.38308 0
M  V30 7473 H 710.399 -3.64004 2.12318 0
M  V30 7474 H 709.074 -3.05057 1.08267 0
M  V30 7475 H 707.981 -2.0117 3.15407 0
M  V30 7476 H 709.314 -2.66335 4.13916 0
M  V30 7477 N 710.966 -1.44241 -0.634997 0
M  V30 7478 C 712.382 -1.28043 -0.952742 0
M  V30 7479 C 712.582 -0.21338 -2.00367 0
M  V30 7480 O 711.638 0.402042 -2.49279 0
M  V30 7481 C 712.951 -2.65076 -1.41968 0
M  V30 7482 C 714.499 -2.72755 -1.53537 0
M  V30 7483 C 714.974 -4.10249 -2.03616 0
M  V30 7484 N 716.465 -4.12406 -2.10892 0
M  V30 7485 C 717.2 -5.15641 -2.50803 0
M  V30 7486 N 716.696 -6.29239 -2.89879 0
M  V30 7487 N 718.489 -5.02995 -2.50903 0
M  V30 7488 H 710.64 -2.12315 0.060098 0
M  V30 7489 H 712.903 -0.947326 -0.0357325 0
M  V30 7490 H 712.609 -3.44213 -0.721804 0
M  V30 7491 H 712.483 -2.91704 -2.39141 0
M  V30 7492 H 714.87 -1.93939 -2.22422 0
M  V30 7493 H 714.951 -2.49872 -0.547496 0
M  V30 7494 H 714.595 -4.8954 -1.35327 0
M  V30 7495 H 714.525 -4.30507 -3.03268 0
M  V30 7496 H 717.016 -3.30417 -1.83393 0
M  V30 7497 H 717.329 -7.03827 -3.19135 0
M  V30 7498 H 715.674 -6.32683 -2.8764 0
M  V30 7499 H 718.865 -4.13306 -2.19763 0
M  V30 7500 H 719.038 -5.83574 -2.81683 0
M  V30 7501 N 712.444 0.87505 -1.31075 0
M  V30 7502 C 713.86 1.15997 -1.09622 0
M  V30 7503 C 714.06 2.01036 0.136611 0
M  V30 7504 O 713.116 2.38559 0.827397 0
M  V30 7505 C 714.429 1.85702 -2.36506 0
M  V30 7506 C 715.977 1.98425 -2.42067 0
M  V30 7507 C 716.452 2.71544 -3.68819 0
M  V30 7508 N 717.943 2.79084 -3.69684 0
M  V30 7509 C 718.678 3.36259 -4.64454 0
M  V30 7510 N 718.174 3.94406 -5.69575 0
M  V30 7511 N 719.967 3.34169 -4.51982 0
M  V30 7512 H 712.118 0.308258 -2.10151 0
M  V30 7513 H 714.381 0.199145 -0.926847 0
M  V30 7514 H 714.087 1.30663 -3.26527 0
M  V30 7515 H 713.961 2.86017 -2.45915 0
M  V30 7516 H 716.348 2.5263 -1.52518 0
M  V30 7517 H 716.429 0.971682 -2.36626 0
M  V30 7518 H 716.073 2.18008 -4.58732 0
M  V30 7519 H 716.003 3.73198 -3.71525 0
M  V30 7520 H 718.494 2.3781 -2.93691 0
M  V30 7521 H 718.807 4.36129 -6.37974 0
M  V30 7522 H 717.152 3.92797 -5.73355 0
M  V30 7523 H 720.343 2.87977 -3.69035 0
M  V30 7524 H 720.516 3.78431 -5.26017 0
M  V30 7525 N 713.922 1.13953 1.08869 0
M  V30 7526 C 714.832 0.835666 2.19212 0
M  V30 7527 C 715.848 -0.182005 1.73045 0
M  V30 7528 O 717.024 -0.0116661 2.01397 0
M  V30 7529 C 714.089 0.312325 3.4529 0
M  V30 7530 C 713.15 1.39196 4.06107 0
M  V30 7531 C 712.383 0.893496 5.26168 0
M  V30 7532 O 712.606 -0.266807 5.69776 0
M  V30 7533 O 711.54 1.67037 5.78258 0
M  V30 7534 H 715.366 1.75769 2.47667 0
M  V30 7535 H 712.951 0.917421 1.17914 0
M  V30 7536 H 714.833 0.0261582 4.21392 0
M  V30 7537 H 713.508 -0.582042 3.18424 0
M  V30 7538 H 712.415 1.73152 3.31616 0
M  V30 7539 H 713.748 2.26068 4.37212 0
M  V30 7540 N 715.4 -1.26948 0.933913 0
M  V30 7541 C 716.33 -2.29017 0.45534 0
M  V30 7542 C 717.311 -1.62961 -0.487605 0
M  V30 7543 O 718.496 -1.90223 -0.391022 0
M  V30 7544 C 715.626 -3.46112 -0.287015 0
M  V30 7545 C 714.58 -4.24205 0.568682 0
M  V30 7546 C 713.906 -5.3384 -0.303206 0
M  V30 7547 C 715.206 -4.88954 1.83633 0
M  V30 7548 H 716.9 -2.69298 1.30839 0
M  V30 7549 H 714.446 -1.29459 0.630579 0
M  V30 7550 H 716.399 -4.16622 -0.6328 0
M  V30 7551 H 715.123 -3.04765 -1.17414 0
M  V30 7552 H 713.782 -3.5545 0.897261 0
M  V30 7553 H 713.43 -4.88734 -1.18947 0
M  V30 7554 H 713.13 -5.86998 0.265879 0
M  V30 7555 H 714.654 -6.0719 -0.644423 0
M  V30 7556 H 716.068 -5.51717 1.55823 0
M  V30 7557 H 714.465 -5.52198 2.34941 0
M  V30 7558 H 715.535 -4.12305 2.55211 0
M  V30 7559 N 716.879 -0.700114 -1.41195 0
M  V30 7560 C 718.125 -0.233351 -2.01453 0
M  V30 7561 C 718.458 1.16548 -1.55339 0
M  V30 7562 O 717.733 1.78756 -0.766575 0
M  V30 7563 C 718.016 -0.2961 -3.58881 0
M  V30 7564 C 717.869 -1.7322 -4.15108 0
M  V30 7565 C 719.188 0.341525 -4.38773 0
M  V30 7566 H 716.307 -0.0862667 -0.731934 0
M  V30 7567 H 718.949 -0.889693 -1.67882 0
M  V30 7568 H 717.099 0.262736 -3.87611 0
M  V30 7569 H 718.771 -2.34523 -3.97236 0
M  V30 7570 H 717.014 -2.2649 -3.69979 0
M  V30 7571 H 717.685 -1.7276 -5.24269 0
M  V30 7572 H 720.161 -0.134461 -4.15883 0
M  V30 7573 H 719.037 0.267098 -5.4825 0
M  V30 7574 H 719.298 1.42289 -4.18577 0
M  V30 7575 N 718.357 1.51182 -0.445186 0
M  V30 7576 C 719.603 2.02452 0.11882 0
M  V30 7577 C 719.936 1.32824 1.41673 0
M  V30 7578 O 719.211 0.445637 1.89326 0
M  V30 7579 C 719.494 3.5859 0.329475 0
M  V30 7580 C 719.347 4.38823 -0.987638 0
M  V30 7581 C 720.666 4.26241 1.09575 0
M  V30 7582 H 717.785 0.735819 0.0417092 0
M  V30 7583 H 720.427 1.80747 -0.585718 0
M  V30 7584 H 718.577 3.77214 0.9296 0
M  V30 7585 H 720.249 4.3183 -1.62235 0
M  V30 7586 H 718.492 4.03594 -1.59041 0
M  V30 7587 H 719.163 5.46257 -0.794192 0
M  V30 7588 H 721.639 4.11934 0.587328 0
M  V30 7589 H 720.515 5.35354 1.21191 0
M  V30 7590 H 720.776 3.87635 2.12584 0
M  V30 7591 N 719.835 0.176821 1.56605 0
M  V30 7592 C 721.251 -0.179278 1.5859 0
M  V30 7593 C 721.451 -1.62433 1.19238 0
M  V30 7594 O 720.507 -2.35665 0.906552 0
M  V30 7595 C 721.82 0.106524 3.00511 0
M  V30 7596 C 723.368 0.0451731 3.12967 0
M  V30 7597 C 723.843 0.304038 4.5699 0
M  V30 7598 N 725.334 0.252008 4.62514 0
M  V30 7599 C 726.069 0.426404 5.71812 0
M  V30 7600 N 725.565 0.660155 6.89648 0
M  V30 7601 N 727.358 0.361926 5.60934 0
M  V30 7602 H 719.509 1.12001 1.8047 0
M  V30 7603 H 721.772 0.445679 0.836704 0
M  V30 7604 H 721.478 1.10778 3.33798 0
M  V30 7605 H 721.352 -0.599337 3.72408 0
M  V30 7606 H 723.739 -0.946662 2.79504 0
M  V30 7607 H 723.82 0.78383 2.43495 0
M  V30 7608 H 723.464 1.29311 4.91163 0
M  V30 7609 H 723.394 -0.455294 5.24628 0
M  V30 7610 H 725.885 0.0772102 3.77821 0
M  V30 7611 H 726.198 0.782529 7.68828 0
M  V30 7612 H 724.543 0.696835 6.91498 0
M  V30 7613 H 727.734 0.17986 4.67754 0
M  V30 7614 H 727.907 0.501263 6.46058 0
M  V30 7615 N 721.313 -1.57302 -0.09688 0
M  V30 7616 C 722.559 -1.87144 -0.796778 0
M  V30 7617 C 722.914 -0.767428 -1.76432 0
M  V30 7618 O 722.207 0.230728 -1.90206 0
M  V30 7619 C 722.401 -3.21272 -1.56586 0
M  V30 7620 C 722.23 -4.44616 -0.674295 0
M  V30 7621 C 721 -5.04281 -0.320705 0
M  V30 7622 C 723.198 -5.14297 0.0179445 0
M  V30 7623 N 721.18 -6.11162 0.579206 0
M  V30 7624 C 722.551 -6.15125 0.775992 0
M  V30 7625 C 724.606 -4.97815 0.0920521 0
M  V30 7626 C 723.309 -7.01251 1.60122 0
M  V30 7627 C 725.335 -5.84447 0.904175 0
M  V30 7628 C 724.697 -6.84794 1.65035 0
M  V30 7629 H 720.796 -0.734721 -0.267787 0
M  V30 7630 H 723.38 -1.94609 -0.0593955 0
M  V30 7631 H 721.551 -3.14862 -2.27413 0
M  V30 7632 H 723.283 -3.38846 -2.21281 0
M  V30 7633 H 720.038 -4.68866 -0.667961 0
M  V30 7634 H 720.462 -6.69247 1.02166 0
M  V30 7635 H 725.104 -4.20174 -0.470492 0
M  V30 7636 H 722.822 -7.78284 2.17484 0
M  V30 7637 H 726.408 -5.73755 0.964165 0
M  V30 7638 H 725.288 -7.50668 2.26864 0
M  V30 7639 N 722.791 0.367657 -1.53252 0
M  V30 7640 C 724.04 1.10782 -1.68554 0
M  V30 7641 C 724.353 1.90523 -0.442765 0
M  V30 7642 O 725.559 2.6729 -0.47629 0
M  V30 7643 C 724.015 2.01863 -2.97959 0
M  V30 7644 C 723.623 1.27443 -4.29491 0
M  V30 7645 C 725.367 2.75883 -3.22628 0
M  V30 7646 C 723.274 2.17414 -5.49987 0
M  V30 7647 H 722.204 0.417272 -0.628013 0
M  V30 7648 H 724.855 0.368971 -1.79752 0
M  V30 7649 H 723.237 2.7947 -2.80558 0
M  V30 7650 H 724.411 0.549138 -4.57516 0
M  V30 7651 H 722.726 0.652935 -4.11249 0
M  V30 7652 H 725.323 3.43421 -4.09837 0
M  V30 7653 H 725.666 3.41138 -2.38601 0
M  V30 7654 H 726.199 2.0536 -3.40693 0
M  V30 7655 H 722.938 1.5674 -6.36485 0
M  V30 7656 H 722.458 2.87799 -5.26243 0
M  V30 7657 H 724.137 2.77019 -5.84696 0
M  V30 7658 N 724.269 1.44576 0.627338 0
M  V30 7659 C 725.494 1.51271 1.41887 0
M  V30 7660 C 725.919 0.139814 1.8758 0
M  V30 7661 O 725.277 -0.871746 1.58966 0
M  V30 7662 C 725.325 2.48529 2.61277 0
M  V30 7663 O 724.429 1.98944 3.61241 0
M  V30 7664 H 723.77 0.510668 0.424399 0
M  V30 7665 H 726.3 1.89746 0.765356 0
M  V30 7666 H 726.31 2.66689 3.08773 0
M  V30 7667 H 724.985 3.48249 2.27366 0
M  V30 7668 H 723.562 1.90568 3.20528 0
M  V30 7669 N 725.747 -0.868086 1.31537 0
M  V30 7670 C 726.975 -1.65402 1.24298 0
M  V30 7671 C 727.39 -1.87827 -0.191389 0
M  V30 7672 O 726.747 -1.43776 -1.12404 0
M  V30 7673 C 726.798 -3.02093 1.9855 0
M  V30 7674 O 726.519 -2.80668 3.36388 0
M  V30 7675 C 728.02 -3.96538 1.98173 0
M  V30 7676 H 725.24 -0.515598 0.429417 0
M  V30 7677 H 727.784 -1.0834 1.73444 0
M  V30 7678 H 725.939 -3.55838 1.53161 0
M  V30 7679 H 726.353 -3.67504 3.74221 0
M  V30 7680 H 727.827 -4.8976 2.54635 0
M  V30 7681 H 728.304 -4.28474 0.964697 0
M  V30 7682 H 728.91 -3.48729 2.4345 0
M  V30 7683 N 727.225 -1.14528 -1.08264 0
M  V30 7684 C 728.471 -0.91576 -1.80947 0
M  V30 7685 C 728.804 0.55623 -1.86064 0
M  V30 7686 O 728.079 1.41207 -1.33756 0
M  V30 7687 C 728.362 -1.51917 -3.26486 0
M  V30 7688 C 728.215 -3.06111 -3.2957 0
M  V30 7689 C 729.534 -1.19724 -4.23502 0
M  V30 7690 H 726.653 -0.334113 -0.656915 0
M  V30 7691 H 729.295 -1.41547 -1.26746 0
M  V30 7692 H 727.445 -1.0942 -3.72773 0
M  V30 7693 H 729.117 -3.57448 -2.91597 0
M  V30 7694 H 727.36 -3.40483 -2.688 0
M  V30 7695 H 728.031 -3.43438 -4.32151 0
M  V30 7696 H 730.507 -1.56467 -3.85561 0
M  V30 7697 H 729.383 -1.64575 -5.23647 0
M  V30 7698 H 729.644 -0.112771 -4.41956 0
M  V30 7699 N 728.703 1.26451 -0.940633 0
M  V30 7700 C 729.951 1.93395 -0.586748 0
M  V30 7701 C 730.272 1.7417 0.876921 0
M  V30 7702 O 729.542 1.097 1.62304 0
M  V30 7703 H 728.122 0.715687 -0.214012 0
M  V30 7704 H 730.784 1.53902 -1.19584 0
M  V30 7705 H 729.88 3.01565 -0.804059 0
M  V30 7706 N 730.181 0.707592 1.40822 0
M  V30 7707 C 731.129 0.0386643 2.32568 0
M  V30 7708 C 732.123 -0.755653 1.51612 0
M  V30 7709 O 733.329 -0.659921 1.67467 0
M  V30 7710 H 729.704 -0.00629912 0.751974 0
M  V30 7711 H 731.675 0.8293 2.86645 0
M  V30 7712 C 730.424 -0.87496 3.36511 0
M  V30 7713 H 729.747 -0.273157 3.98866 0
M  V30 7714 H 731.187 -1.31111 4.03219 0
M  V30 7715 C 729.646 -1.99672 2.71353 0
M  V30 7716 O 730.176 -3.08676 2.57064 0
M  V30 7717 N 728.382 -1.77799 2.29861 0
M  V30 7718 H 727.929 -0.89147 2.41683 0
M  V30 7719 H 727.887 -2.53036 1.86601 0
M  V30 7720 N 731.66 -1.50943 0.453197 0
M  V30 7721 C 732.89 -2.06328 -0.105981 0
M  V30 7722 C 733.298 -1.31909 -1.35634 0
M  V30 7723 O 732.641 -0.376607 -1.79798 0
M  V30 7724 C 732.703 -3.5631 -0.477868 0
M  V30 7725 C 732.367 -4.52093 0.667925 0
M  V30 7726 C 733.364 -4.96421 1.54475 0
M  V30 7727 C 731.049 -4.95001 0.853168 0
M  V30 7728 C 733.043 -5.82346 2.59138 0
M  V30 7729 C 730.73 -5.80713 1.90305 0
M  V30 7730 C 731.728 -6.24284 2.77053 0
M  V30 7731 O 731.416 -7.08291 3.80236 0
M  V30 7732 H 731.148 -0.675986 -0.00427247 0
M  V30 7733 H 733.702 -1.95314 0.635738 0
M  V30 7734 H 731.932 -3.65163 -1.27252 0
M  V30 7735 H 733.621 -3.94138 -0.970039 0
M  V30 7736 H 734.387 -4.63953 1.41324 0
M  V30 7737 H 730.266 -4.60619 0.187482 0
M  V30 7738 H 733.81 -6.16276 3.2688 0
M  V30 7739 H 729.707 -6.12593 2.03469 0
M  V30 7740 H 730.475 -7.26504 3.77007 0
M  V30 7741 N 733.138 -0.185124 -1.56509 0
M  V30 7742 C 734.415 0.503348 -1.89013 0
M  V30 7743 C 734.795 1.80349 -1.09715 0
M  V30 7744 O 734.143 2.27665 -0.195203 0
M  V30 7745 C 734.353 0.731839 -3.41241 0
M  V30 7746 C 735.701 1.05568 -4.11267 0
M  V30 7747 O 736.725 0.819906 -3.46635 0
M  V30 7748 O 735.584 1.50116 -5.25478 0
M  V30 7749 H 732.678 0.261139 -0.784688 0
M  V30 7750 H 735.224 -0.224592 -1.68207 0
M  V30 7751 H 733.996 -0.18672 -3.90854 0
M  V30 7752 H 733.619 1.5126 -3.67704 0
M  V30 7753 N 734.616 1.57351 0.0885366 0
M  V30 7754 C 735.846 1.90355 0.80303 0
M  V30 7755 C 736.254 0.777678 1.72478 0
M  V30 7756 O 735.597 -0.258908 1.81866 0
M  V30 7757 C 735.659 3.18674 1.66395 0
M  V30 7758 C 735.323 4.4778 0.913327 0
M  V30 7759 C 736.32 5.19345 0.240148 0
M  V30 7760 C 734.005 4.94434 0.885462 0
M  V30 7761 C 735.999 6.35803 -0.450854 0
M  V30 7762 C 733.686 6.10802 0.190679 0
M  V30 7763 C 734.684 6.81337 -0.476295 0
M  V30 7764 O 734.372 7.95488 -1.15992 0
M  V30 7765 H 734.104 0.634035 0.234469 0
M  V30 7766 H 736.658 2.05287 0.0681959 0
M  V30 7767 H 734.888 2.99906 2.44117 0
M  V30 7768 H 736.577 3.37458 2.2556 0
M  V30 7769 H 737.343 4.84339 0.253092 0
M  V30 7770 H 733.222 4.39417 1.39406 0
M  V30 7771 H 736.766 6.90795 -0.972019 0
M  V30 7772 H 732.663 6.45261 0.175603 0
M  V30 7773 H 733.431 8.11509 -1.06749 0
M  V30 7774 N 736.094 -0.359525 1.53444 0
M  V30 7775 C 737.343 -1.09886 1.69139 0
M  V30 7776 C 737.656 -1.90285 0.452863 0
M  V30 7777 O 738.862 -2.67033 0.490459 0
M  V30 7778 C 737.318 -2.0028 2.99025 0
M  V30 7779 C 736.926 -1.25164 4.30161 0
M  V30 7780 C 738.67 -2.74168 3.24086 0
M  V30 7781 C 736.577 -2.14494 5.51132 0
M  V30 7782 H 735.507 -0.413936 0.630217 0
M  V30 7783 H 738.158 -0.359434 1.79945 0
M  V30 7784 H 736.54 -2.77978 2.82036 0
M  V30 7785 H 737.714 -0.524867 4.57801 0
M  V30 7786 H 736.029 -0.631116 4.11589 0
M  V30 7787 H 738.626 -3.41243 4.11652 0
M  V30 7788 H 738.969 -3.39868 2.40407 0
M  V30 7789 H 739.502 -2.0355 3.41778 0
M  V30 7790 H 736.241 -1.53362 6.37307 0
M  V30 7791 H 735.761 -2.85004 5.27762 0
M  V30 7792 H 737.44 -2.73914 5.86157 0
M  V30 7793 N 737.572 -1.44907 -0.619662 0
M  V30 7794 C 738.819 -1.48292 -1.37898 0
M  V30 7795 C 739.147 -0.119933 -1.9413 0
M  V30 7796 O 738.402 0.879834 -1.74807 0
M  V30 7797 C 738.701 -2.50002 -2.55409 0
M  V30 7798 C 738.367 -3.95031 -2.17397 0
M  V30 7799 C 737.029 -4.34524 -2.06743 0
M  V30 7800 C 739.381 -4.86287 -1.87548 0
M  V30 7801 C 736.709 -5.63183 -1.64445 0
M  V30 7802 C 739.061 -6.15346 -1.4674 0
M  V30 7803 C 737.725 -6.53781 -1.34636 0
M  V30 7804 H 736.995 -0.542638 -0.504603 0
M  V30 7805 H 739.642 -1.78186 -0.701581 0
M  V30 7806 H 737.947 -2.13634 -3.28433 0
M  V30 7807 H 739.644 -2.49864 -3.13639 0
M  V30 7808 H 736.234 -3.63793 -2.26611 0
M  V30 7809 H 740.418 -4.56522 -1.94682 0
M  V30 7810 H 735.674 -5.91769 -1.53687 0
M  V30 7811 H 739.848 -6.85508 -1.22685 0
M  V30 7812 H 737.475 -7.53375 -1.01634 0
M  V30 7813 N 739.05 0.861098 -1.31996 0
M  V30 7814 C 740.327 1.59788 -1.12814 0
M  V30 7815 C 740.707 2.08753 0.313882 0
M  V30 7816 O 740.055 1.87258 1.30946 0
M  V30 7817 C 740.265 2.74901 -2.15012 0
M  V30 7818 C 741.613 3.44643 -2.48004 0
M  V30 7819 O 742.637 2.85119 -2.13508 0
M  V30 7820 O 741.496 4.52044 -3.07113 0
M  V30 7821 H 738.59 0.703408 -0.434909 0
M  V30 7822 H 741.136 0.905788 -1.43505 0
M  V30 7823 H 739.908 2.36198 -3.11971 0
M  V30 7824 H 739.531 3.51792 -1.85279 0
M  V30 7825 N 740.528 1.15101 1.07655 0
M  V30 7826 C 741.774 0.935313 1.8062 0
M  V30 7827 C 742.129 -0.532052 1.84897 0
M  V30 7828 O 741.422 -1.3893 1.31943 0
M  V30 7829 C 741.616 1.47954 3.25337 0
M  V30 7830 C 741.445 2.99829 3.35161 0
M  V30 7831 C 740.215 3.68348 3.45902 0
M  V30 7832 C 742.413 3.97638 3.26173 0
M  V30 7833 N 740.395 5.08062 3.44596 0
M  V30 7834 C 741.766 5.23651 3.31949 0
M  V30 7835 C 743.821 3.89651 3.09962 0
M  V30 7836 C 742.524 6.42609 3.23182 0
M  V30 7837 C 744.55 5.08164 3.02528 0
M  V30 7838 C 743.912 6.3305 3.08913 0
M  V30 7839 H 740.011 0.395876 0.674393 0
M  V30 7840 H 742.595 1.4625 1.28526 0
M  V30 7841 H 740.766 0.979022 3.75859 0
M  V30 7842 H 742.498 1.20298 3.86407 0
M  V30 7843 H 739.253 3.18928 3.50117 0
M  V30 7844 H 739.677 5.81023 3.47479 0
M  V30 7845 H 744.319 2.93966 3.03881 0
M  V30 7846 H 742.037 7.38531 3.28022 0
M  V30 7847 H 745.623 5.03742 2.91093 0
M  V30 7848 H 744.503 7.23214 3.03201 0
M  V30 7849 N 742.006 -1.2595 0.947325 0
M  V30 7850 C 743.255 -1.92759 0.593887 0
M  V30 7851 C 743.568 -1.75083 -0.872093 0
M  V30 7852 O 744.774 -2.36401 -1.33518 0
M  V30 7853 C 743.23 -3.45395 1.01144 0
M  V30 7854 C 742.838 -3.71795 2.49946 0
M  V30 7855 C 744.582 -4.18173 0.730185 0
M  V30 7856 C 742.489 -5.17901 2.85539 0
M  V30 7857 H 741.419 -0.721676 0.218403 0
M  V30 7858 H 744.07 -1.4293 1.15079 0
M  V30 7859 H 742.452 -3.94143 0.383007 0
M  V30 7860 H 743.626 -3.33728 3.17746 0
M  V30 7861 H 741.941 -3.12263 2.75465 0
M  V30 7862 H 744.538 -5.25784 0.972367 0
M  V30 7863 H 744.881 -4.14964 -0.333223 0
M  V30 7864 H 745.414 -3.75309 1.31862 0
M  V30 7865 H 742.153 -5.26216 3.90867 0
M  V30 7866 H 741.673 -5.57042 2.22406 0
M  V30 7867 H 743.352 -5.8596 2.74336 0
M  V30 7868 N 743.484 -0.715051 -1.40445 0
M  V30 7869 C 744.731 -0.254328 -2.00897 0
M  V30 7870 C 745.059 1.15228 -1.56693 0
M  V30 7871 O 744.314 1.7958 -0.777786 0
M  V30 7872 C 744.613 -0.281791 -3.56287 0
M  V30 7873 C 744.279 -1.63862 -4.20071 0
M  V30 7874 C 742.941 -2.01003 -4.37208 0
M  V30 7875 C 745.293 -2.53039 -4.55654 0
M  V30 7876 C 742.621 -3.26869 -4.8721 0
M  V30 7877 C 744.973 -3.78256 -5.07055 0
M  V30 7878 C 743.637 -4.15515 -5.22401 0
M  V30 7879 H 742.907 -0.0930652 -0.735133 0
M  V30 7880 H 745.554 -0.917977 -1.68064 0
M  V30 7881 H 743.859 0.465428 -3.89026 0
M  V30 7882 H 745.556 0.0925158 -4.00893 0
M  V30 7883 H 742.146 -1.33979 -4.07121 0
M  V30 7884 H 746.33 -2.2562 -4.42051 0
M  V30 7885 H 741.586 -3.55706 -4.97276 0
M  V30 7886 H 745.76 -4.47528 -5.33565 0
M  V30 7887 H 743.387 -5.13114 -5.60909 0
M  V30 7888 N 744.962 1.50701 -0.461195 0
M  V30 7889 C 745.912 2.25195 0.35653 0
M  V30 7890 C 746.896 1.2838 0.96992 0
M  V30 7891 O 748.088 1.53338 0.884108 0
M  V30 7892 C 745.217 3.11471 1.44364 0
M  V30 7893 C 744.303 4.15729 0.83847 0
M  V30 7894 N 744.694 5.05788 -0.0353198 0
M  V30 7895 C 742.992 4.32133 1.1035 0
M  V30 7896 C 743.693 5.80472 -0.37774 0
M  V30 7897 N 742.669 5.43049 0.24463 0
M  V30 7898 H 746.471 2.92188 -0.316746 0
M  V30 7899 H 743.985 1.60059 -0.274725 0
M  V30 7900 H 745.982 3.63436 2.04255 0
M  V30 7901 H 744.642 2.46025 2.11901 0
M  V30 7902 H 745.653 5.16326 -0.403465 0
M  V30 7903 H 742.33 3.77908 1.77458 0
M  V30 7904 H 743.72 6.62996 -1.09024 0
M  V30 7905 N 746.441 0.193421 1.56409 0
M  V30 7906 C 747.351 -0.740112 2.2262 0
M  V30 7907 C 748.367 -1.23597 1.22474 0
M  V30 7908 O 749.543 -1.28348 1.55206 0
M  V30 7909 C 746.608 -1.94317 2.87127 0
M  V30 7910 C 745.669 -1.49205 4.02538 0
M  V30 7911 C 744.902 -2.63776 4.63959 0
M  V30 7912 O 745.125 -3.81215 4.24301 0
M  V30 7913 O 744.059 -2.36585 5.53454 0
M  V30 7914 H 747.885 -0.206238 3.02999 0
M  V30 7915 H 745.47 -0.0357938 1.49357 0
M  V30 7916 H 747.352 -2.64633 3.27944 0
M  V30 7917 H 746.027 -2.46568 2.09728 0
M  V30 7918 H 744.934 -0.757738 3.66346 0
M  V30 7919 H 746.267 -1.01622 4.81595 0
M  V30 7920 N 747.919 -1.57396 -0.0801906 0
M  V30 7921 C 748.867 -2.04136 -1.11495 0
M  V30 7922 C 749.861 -0.945137 -1.40583 0
M  V30 7923 O 751.067 -1.13028 -1.40088 0
M  V30 7924 H 747.442 -0.65076 -0.37685 0
M  V30 7925 H 749.413 -2.90205 -0.694526 0
M  V30 7926 C 748.162 -2.49399 -2.42272 0
M  V30 7927 H 747.485 -3.33339 -2.20737 0
M  V30 7928 H 748.925 -2.85864 -3.13142 0
M  V30 7929 C 747.384 -1.37341 -3.07635 0
M  V30 7930 O 747.914 -0.710829 -3.95361 0
M  V30 7931 N 746.12 -1.12064 -2.68123 0
M  V30 7932 H 745.667 -1.66126 -1.96875 0
M  V30 7933 H 745.625 -0.372916 -3.12181 0
M  V30 7934 N 749.397 0.351382 -1.53633 0
M  V30 7935 C 750.645 1.09034 -1.70165 0
M  V30 7936 C 750.966 1.89413 -0.463422 0
M  V30 7937 O 750.236 1.888 0.522624 0
M  V30 7938 H 748.816 0.405522 -0.627344 0
M  V30 7939 H 751.478 0.394554 -1.90865 0
M  V30 7940 H 750.574 1.77215 -2.56907 0
M  V30 7941 N 750.875 1.45233 0.611969 0
M  V30 7942 C 752.103 1.52539 1.39784 0
M  V30 7943 C 752.518 0.156533 1.8815 0
M  V30 7944 O 751.875 -0.84112 1.61961 0
M  V30 7945 C 751.926 2.50614 2.60528 0
M  V30 7946 O 751.647 3.8218 2.14173 0
M  V30 7947 C 753.148 2.67574 3.53439 0
M  V30 7948 H 750.368 0.51674 0.428043 0
M  V30 7949 H 752.912 1.90379 0.746727 0
M  V30 7950 H 751.067 2.15858 3.2169 0
M  V30 7951 H 751.481 4.35305 2.92592 0
M  V30 7952 H 752.955 3.40184 4.34717 0
M  V30 7953 H 753.432 1.73458 4.03496 0
M  V30 7954 H 754.038 3.0331 2.98133 0
M  V30 7955 N 752.353 -0.854086 1.3245 0
M  V30 7956 C 753.602 -1.60318 1.22397 0
M  V30 7957 C 753.915 -1.9444 -0.212664 0
M  V30 7958 O 755.121 -2.67991 -0.435066 0
M  V30 7959 C 753.577 -2.8909 2.1437 0
M  V30 7960 C 753.185 -2.62391 3.63119 0
M  V30 7961 C 754.929 -3.67104 2.13155 0
M  V30 7962 C 752.836 -3.87167 4.47052 0
M  V30 7963 H 751.766 -0.601586 0.454544 0
M  V30 7964 H 754.417 -0.943023 1.57415 0
M  V30 7965 H 752.799 -3.56567 1.72268 0
M  V30 7966 H 753.973 -2.03222 4.13567 0
M  V30 7967 H 752.288 -1.97706 3.66471 0
M  V30 7968 H 754.885 -4.59696 2.731 0
M  V30 7969 H 755.228 -4.00876 1.12268 0
M  V30 7970 H 755.761 -3.06533 2.5354 0
M  V30 7971 H 752.5 -3.58536 5.48755 0
M  V30 7972 H 752.02 -4.45729 4.01355 0
M  V30 7973 H 753.699 -4.549 4.60081 0
M  V30 7974 N 753.831 -1.1567 -1.07043 0
M  V30 7975 C 755.079 -0.931673 -1.79344 0
M  V30 7976 C 755.4 0.542421 -1.87304 0
M  V30 7977 O 754.67 1.39418 -1.37621 0
M  V30 7978 H 753.25 -0.34171 -0.664262 0
M  V30 7979 H 755.912 -1.45795 -1.29344 0
M  V30 7980 H 755.008 -1.34379 -2.81689 0
M  V30 7981 N 755.309 1.25446 -0.953992 0
M  V30 7982 C 756.558 1.92441 -0.604101 0
M  V30 7983 C 756.871 1.75543 0.862796 0
M  V30 7984 O 758.077 2.37106 1.32262 0
M  V30 7985 C 756.533 3.44854 -1.02974 0
M  V30 7986 C 756.141 3.70464 -2.51914 0
M  V30 7987 C 757.885 4.1778 -0.752352 0
M  V30 7988 C 755.792 5.1638 -2.88281 0
M  V30 7989 H 754.722 0.720508 -0.222227 0
M  V30 7990 H 757.373 1.42318 -1.15836 0
M  V30 7991 H 755.755 3.93935 -0.403904 0
M  V30 7992 H 756.929 3.32038 -3.19511 0
M  V30 7993 H 755.244 3.10797 -2.77117 0
M  V30 7994 H 757.841 5.25261 -1.00024 0
M  V30 7995 H 758.184 4.15135 0.311212 0
M  V30 7996 H 758.717 3.74605 -1.33851 0
M  V30 7997 H 755.456 5.24135 -3.93653 0
M  V30 7998 H 754.976 5.55855 -2.25357 0
M  V30 7999 H 756.655 5.84497 -2.77439 0
M  V30 8000 N 756.787 0.722489 1.40064 0
M  V30 8001 C 758.064 0.191829 1.94657 0
M  V30 8002 C 758.444 -1.30389 1.66018 0
M  V30 8003 O 757.792 -2.06342 0.981588 0
M  V30 8004 C 758.002 0.511978 3.45224 0
M  V30 8005 C 759.35 0.454426 4.22161 0
M  V30 8006 O 760.374 0.448438 3.53366 0
M  V30 8007 O 759.233 0.437986 5.44742 0
M  V30 8008 H 756.327 0.0307821 0.826427 0
M  V30 8009 H 758.873 0.800493 1.49634 0
M  V30 8010 H 757.645 1.54622 3.59455 0
M  V30 8011 H 757.268 -0.126296 3.97399 0
M  V30 8012 N 758.265 -1.50454 0.469181 0
M  V30 8013 C 759.228 -2.2703 -0.314643 0
M  V30 8014 C 760.228 -1.31734 -0.922111 0
M  V30 8015 O 761.418 -1.55176 -0.791588 0
M  V30 8016 C 758.55 -3.08616 -1.44806 0
M  V30 8017 H 759.743 -2.97769 0.356892 0
M  V30 8018 H 757.296 -1.54698 0.223191 0
M  V30 8019 H 758.031 -2.42369 -2.1547 0
M  V30 8020 H 757.816 -3.78647 -1.01829 0
M  V30 8021 H 759.306 -3.66536 -2.00103 0
M  V30 8022 N 759.743 -0.201713 -1.56304 0
M  V30 8023 C 760.991 0.434447 -1.97375 0
M  V30 8024 C 761.312 1.61692 -1.08998 0
M  V30 8025 O 760.582 1.95223 -0.162682 0
M  V30 8026 H 759.162 0.163497 -0.728888 0
M  V30 8027 H 761.824 -0.289988 -1.92731 0
M  V30 8028 H 760.92 0.774136 -3.02347 0
M  V30 8029 N 761.222 1.57436 0.0718424 0
M  V30 8030 C 762.185 2.02703 1.06977 0
M  V30 8031 C 763.185 0.924062 1.31597 0
M  V30 8032 O 764.375 1.18894 1.27318 0
M  V30 8033 C 761.507 2.40763 2.41342 0
M  V30 8034 H 762.7 2.92098 0.679619 0
M  V30 8035 H 760.253 1.5304 0.317565 0
M  V30 8036 H 760.988 1.54394 2.8519 0
M  V30 8037 H 760.773 3.21249 2.24814 0
M  V30 8038 H 762.263 2.76361 3.13073 0
M  V30 8039 N 762.7 -0.34323 1.53817 0
M  V30 8040 C 763.928 -1.10348 1.75017 0
M  V30 8041 C 764.343 -1.82345 0.489475 0
M  V30 8042 O 763.7 -1.74362 -0.538886 0
M  V30 8043 C 763.751 -2.11672 2.93048 0
M  V30 8044 O 763.472 -1.42603 4.14241 0
M  V30 8045 C 764.973 -3.0007 3.26301 0
M  V30 8046 H 762.193 -0.329056 0.584776 0
M  V30 8047 H 764.737 -0.395339 2.00642 0
M  V30 8048 H 762.892 -2.78051 2.69753 0
M  V30 8049 H 763.306 -2.10294 4.80496 0
M  V30 8050 H 764.78 -3.67101 4.12239 0
M  V30 8051 H 765.257 -3.66105 2.42618 0
M  V30 8052 H 765.863 -2.3928 3.51604 0
M  V30 8053 N 764.178 -1.45556 -0.604258 0
M  V30 8054 C 765.426 -1.4945 -1.36048 0
M  V30 8055 C 765.747 -0.138933 -1.94504 0
M  V30 8056 O 765.017 0.832097 -1.7735 0
M  V30 8057 H 763.597 -0.550381 -0.505064 0
M  V30 8058 H 766.259 -1.81535 -0.709308 0
M  V30 8059 H 765.355 -2.23519 -2.17821 0
M  V30 8060 N 765.656 0.84705 -1.32902 0
M  V30 8061 C 766.905 1.59667 -1.23245 0
M  V30 8062 C 767.218 1.94551 0.202349 0
M  V30 8063 O 768.424 2.68218 0.420847 0
M  V30 8064 C 766.88 2.8795 -2.15901 0
M  V30 8065 C 766.488 2.60461 -3.64505 0
M  V30 8066 C 768.232 3.65968 -2.15098 0
M  V30 8067 C 766.139 3.84791 -4.49099 0
M  V30 8068 H 765.069 0.599167 -0.457728 0
M  V30 8069 H 767.72 0.934662 -1.57912 0
M  V30 8070 H 766.102 3.55648 -1.74157 0
M  V30 8071 H 767.276 2.01026 -4.14639 0
M  V30 8072 H 765.591 1.9576 -3.67515 0
M  V30 8073 H 768.188 4.58241 -2.75534 0
M  V30 8074 H 768.531 4.00275 -1.14392 0
M  V30 8075 H 769.064 3.05184 -2.55162 0
M  V30 8076 H 765.803 3.55621 -5.50649 0
M  V30 8077 H 765.323 4.43594 -4.03713 0
M  V30 8078 H 767.002 4.52454 -4.62487 0
M  V30 8079 N 767.134 1.16236 1.06428 0
M  V30 8080 C 768.044 0.881976 2.1739 0
M  V30 8081 C 769.06 -0.145259 1.73393 0
M  V30 8082 O 770.236 0.0310558 2.01376 0
M  V30 8083 C 767.301 0.385496 3.4455 0
M  V30 8084 C 766.362 1.47779 4.03063 0
M  V30 8085 C 765.595 1.0049 5.24154 0
M  V30 8086 O 765.818 -0.145889 5.70213 0
M  V30 8087 O 764.752 1.79265 5.74585 0
M  V30 8088 H 768.578 1.80983 2.43883 0
M  V30 8089 H 766.163 0.942226 1.15942 0
M  V30 8090 H 768.045 0.115536 4.21242 0
M  V30 8091 H 766.72 -0.514369 3.19587 0
M  V30 8092 H 765.627 1.80147 3.27869 0
M  V30 8093 H 766.96 2.35291 4.32318 0
M  V30 8094 N 768.612 -1.24939 0.960631 0
M  V30 8095 C 769.575 -2.239 0.49006 0
M  V30 8096 C 770.575 -1.55497 -0.409535 0
M  V30 8097 O 771.765 -1.72978 -0.205984 0
M  V30 8098 C 768.897 -3.39654 -0.291193 0
M  V30 8099 H 770.09 -2.67044 1.36482 0
M  V30 8100 H 767.643 -1.37429 0.744505 0
M  V30 8101 H 768.378 -3.01939 -1.18336 0
M  V30 8102 H 768.163 -3.90496 0.354276 0
M  V30 8103 H 769.653 -4.13125 -0.609693 0
M  V30 8104 N 770.09 -0.729906 -1.39679 0
M  V30 8105 C 771.336 -0.27603 -2.00913 0
M  V30 8106 C 771.669 1.13227 -1.57776 0
M  V30 8107 O 770.944 1.7709 -0.804319 0
M  V30 8108 C 771.227 -0.372157 -3.58172 0
M  V30 8109 C 771.08 -1.81986 -4.11341 0
M  V30 8110 C 772.399 0.248378 -4.39399 0
M  V30 8111 H 769.518 -0.101773 -0.729939 0
M  V30 8112 H 772.16 -0.925104 -1.65957 0
M  V30 8113 H 770.31 0.180459 -3.88081 0
M  V30 8114 H 771.982 -2.42896 -3.92172 0
M  V30 8115 H 770.225 -2.34287 -3.65092 0
M  V30 8116 H 770.896 -1.83842 -5.20486 0
M  V30 8117 H 773.372 -0.222645 -4.15504 0
M  V30 8118 H 772.248 0.150746 -5.48693 0
M  V30 8119 H 772.509 1.33378 -4.21501 0
M  V30 8120 N 771.568 1.50203 -0.477153 0
M  V30 8121 C 772.515 2.28656 0.31386 0
M  V30 8122 C 773.485 1.33977 0.981802 0
M  V30 8123 O 774.67 1.62919 0.993072 0
M  V30 8124 C 771.81 3.16027 1.38639 0
M  V30 8125 C 770.923 4.25743 0.732615 0
M  V30 8126 C 770.058 5.00363 1.78355 0
M  V30 8127 C 769.097 6.01945 1.11035 0
M  V30 8128 N 768.234 6.6982 2.10441 0
M  V30 8129 H 773.074 2.958 -0.361445 0
M  V30 8130 H 770.611 1.45867 -0.190093 0
M  V30 8131 H 772.569 3.6504 2.01994 0
M  V30 8132 H 771.199 2.50917 2.03077 0
M  V30 8133 H 770.251 3.80398 -0.0136546 0
M  V30 8134 H 771.563 4.98393 0.201513 0
M  V30 8135 H 770.717 5.53124 2.49276 0
M  V30 8136 H 769.456 4.27432 2.34847 0
M  V30 8137 H 768.461 5.48438 0.386797 0
M  V30 8138 H 769.686 6.76851 0.552248 0
M  V30 8139 H 767.632 5.99677 2.65939 0
M  V30 8140 H 767.549 7.38366 1.62332 0
M  V30 8141 H 768.817 7.27196 2.80724 0
M  V30 8142 N 773.046 0.209999 1.56195 0
M  V30 8143 C 774.294 -0.423974 1.97603 0
M  V30 8144 C 774.615 -1.61112 1.09854 0
M  V30 8145 O 773.885 -1.95134 0.173032 0
M  V30 8146 H 772.465 -0.159629 0.729745 0
M  V30 8147 H 775.127 0.300205 1.92574 0
M  V30 8148 H 774.223 -0.75809 3.02753 0
M  V30 8149 N 774.524 -1.57472 -0.0634922 0
M  V30 8150 C 775.77 -1.87932 -0.762194 0
M  V30 8151 C 776.103 -0.803377 -1.76804 0
M  V30 8152 O 775.378 0.185468 -1.93614 0
M  V30 8153 C 775.661 -3.29053 -1.46275 0
M  V30 8154 C 775.514 -4.47309 -0.472755 0
M  V30 8155 C 776.833 -3.68537 -2.40558 0
M  V30 8156 H 773.952 -0.683521 -0.275624 0
M  V30 8157 H 776.594 -1.89983 -0.0252651 0
M  V30 8158 H 774.744 -3.27435 -2.0909 0
M  V30 8159 H 776.416 -4.61053 0.150828 0
M  V30 8160 H 774.659 -4.33286 0.211187 0
M  V30 8161 H 775.33 -5.42853 -1.00072 0
M  V30 8162 H 777.806 -3.71302 -1.87814 0
M  V30 8163 H 776.682 -4.68152 -2.86574 0
M  V30 8164 H 776.943 -2.98917 -3.25731 0
M  V30 8165 N 776.003 0.335068 -1.53997 0
M  V30 8166 C 776.95 1.41187 -1.82579 0
M  V30 8167 C 777.92 1.51897 -0.672061 0
M  V30 8168 O 779.105 1.673 -0.917346 0
M  V30 8169 C 776.245 2.77717 -2.0486 0
M  V30 8170 C 775.358 2.7573 -3.32561 0
M  V30 8171 C 774.493 4.04032 -3.44864 0
M  V30 8172 C 773.532 3.96308 -4.66483 0
M  V30 8173 N 772.669 5.16317 -4.75774 0
M  V30 8174 H 777.509 1.16113 -2.74448 0
M  V30 8175 H 775.046 0.562305 -1.35928 0
M  V30 8176 H 777.004 3.57071 -2.15768 0
M  V30 8177 H 775.634 3.01124 -1.16294 0
M  V30 8178 H 774.686 1.88432 -3.3045 0
M  V30 8179 H 775.998 2.65902 -4.22016 0
M  V30 8180 H 775.152 4.91814 -3.55251 0
M  V30 8181 H 773.891 4.16652 -2.53481 0
M  V30 8182 H 772.896 3.06911 -4.56164 0
M  V30 8183 H 774.121 3.85263 -5.5924 0
M  V30 8184 H 772.067 5.29464 -3.87303 0
M  V30 8185 H 771.984 5.08779 -5.59178 0
M  V30 8186 H 773.252 6.05846 -4.9048 0
M  V30 8187 N 777.481 1.45874 0.596531 0
M  V30 8188 C 778.444 1.54988 1.68853 0
M  V30 8189 C 779.444 0.428302 1.54991 0
M  V30 8190 O 780.634 0.692158 1.59859 0
M  V30 8191 C 777.766 1.457 3.08195 0
M  V30 8192 H 778.959 2.52294 1.62135 0
M  V30 8193 H 776.512 1.33479 0.813206 0
M  V30 8194 H 777.247 0.496204 3.20481 0
M  V30 8195 H 777.032 2.27061 3.19665 0
M  V30 8196 H 778.522 1.55133 3.87716 0
M  V30 8197 N 778.959 -0.83999 1.33349 0
M  V30 8198 C 779.906 -1.94972 1.23509 0
M  V30 8199 C 780.876 -1.65709 0.113967 0
M  V30 8200 O 782.061 -1.88552 0.292045 0
M  V30 8201 C 779.201 -3.30919 0.979105 0
M  V30 8202 C 778.314 -3.72587 2.18639 0
M  V30 8203 C 777.449 -4.97397 1.86465 0
M  V30 8204 C 776.488 -5.31597 3.03432 0
M  V30 8205 N 775.625 -6.47584 2.71254 0
M  V30 8206 H 780.465 -2.0272 2.18423 0
M  V30 8207 H 778.002 -0.992017 1.08616 0
M  V30 8208 H 779.96 -4.09239 0.811126 0
M  V30 8209 H 778.59 -3.22731 0.0667099 0
M  V30 8210 H 777.642 -2.89799 2.46416 0
M  V30 8211 H 778.954 -3.93844 3.06086 0
M  V30 8212 H 778.108 -5.83462 1.66305 0
M  V30 8213 H 776.847 -4.78107 0.96254 0
M  V30 8214 H 775.852 -4.44037 3.24208 0
M  V30 8215 H 777.077 -5.52836 3.94397 0
M  V30 8216 H 775.023 -6.29783 1.836 0
M  V30 8217 H 774.94 -6.68931 3.52231 0
M  V30 8218 H 776.208 -7.36764 2.54558 0
M  V30 8219 N 780.437 -1.16799 -1.0581 0
M  V30 8220 C 781.665 -0.97687 -1.82387 0
M  V30 8221 C 782.08 0.474917 -1.82729 0
M  V30 8222 O 781.437 1.3297 -1.25001 0
M  V30 8223 C 781.488 -1.50279 -3.28783 0
M  V30 8224 O 781.209 -2.89772 -3.28578 0
M  V30 8225 C 782.71 -1.35538 -4.22071 0
M  V30 8226 H 779.93 -0.345977 -0.574927 0
M  V30 8227 H 782.474 -1.54942 -1.33466 0
M  V30 8228 H 780.629 -0.972414 -3.74997 0
M  V30 8229 H 781.043 -3.13954 -4.20159 0
M  V30 8230 H 782.517 -1.7716 -5.22799 0
M  V30 8231 H 782.994 -0.301598 -4.38163 0
M  V30 8232 H 783.6 -1.87562 -3.81708 0
M  V30 8233 N 781.915 1.24427 -0.967243 0
M  V30 8234 C 782.848 2.23885 -0.441683 0
M  V30 8235 C 783.826 1.55231 0.483963 0
M  V30 8236 O 785.01 1.83865 0.415445 0
M  V30 8237 C 782.137 3.36755 0.362458 0
M  V30 8238 C 781.183 4.23495 -0.505407 0
M  V30 8239 S 782.016 4.98916 -1.94534 0
M  V30 8240 C 783.172 6.15245 -1.14997 0
M  V30 8241 H 783.405 2.68118 -1.28453 0
M  V30 8242 H 780.938 1.337 -0.772243 0
M  V30 8243 H 782.896 4.02218 0.820445 0
M  V30 8244 H 781.557 2.91081 1.18027 0
M  V30 8245 H 780.75 5.03876 0.111979 0
M  V30 8246 H 780.352 3.63032 -0.899104 0
M  V30 8247 H 782.644 6.7629 -0.404769 0
M  V30 8248 H 783.587 6.81343 -1.92814 0
M  V30 8249 H 783.995 5.60455 -0.674543 0
M  V30 8250 N 783.393 0.737304 1.3929 0
M  V30 8251 C 784.343 0.0748537 2.27877 0
M  V30 8252 C 785.327 -0.71022 1.44377 0
M  V30 8253 O 786.519 -0.578851 1.67267 0
M  V30 8254 C 783.648 -0.82991 3.33118 0
M  V30 8255 C 782.734 -0.0388619 4.24082 0
M  V30 8256 N 783.125 0.989182 4.96033 0
M  V30 8257 C 781.423 -0.268167 4.45193 0
M  V30 8258 C 782.124 1.46639 5.62914 0
M  V30 8259 N 781.1 0.784581 5.37908 0
M  V30 8260 H 784.902 0.862457 2.80961 0
M  V30 8261 H 782.416 0.571845 1.51999 0
M  V30 8262 H 784.413 -1.31999 3.95452 0
M  V30 8263 H 783.073 -1.61665 2.81593 0
M  V30 8264 H 784.084 1.3706 4.99435 0
M  V30 8265 H 780.761 -1.02953 4.04607 0
M  V30 8266 H 782.151 2.32182 6.30508 0
M  V30 8267 N 784.871 -1.49948 0.485112 0
M  V30 8268 C 786.148 -1.95186 -0.12726 0
M  V30 8269 C 786.528 -1.42605 -1.5565 0
M  V30 8270 O 785.876 -0.632986 -2.19558 0
M  V30 8271 C 786.086 -3.48955 -0.0562117 0
M  V30 8272 C 787.434 -4.23932 -0.238106 0
M  V30 8273 O 788.458 -3.55955 -0.132145 0
M  V30 8274 O 787.317 -5.44614 -0.453658 0
M  V30 8275 H 784.411 -0.820433 -0.104014 0
M  V30 8276 H 786.957 -1.60659 0.546517 0
M  V30 8277 H 785.729 -3.79814 0.941122 0
M  V30 8278 H 785.352 -3.90056 -0.770834 0
M  V30 8279 N 786.349 -0.21828 -1.56081 0
M  V30 8280 C 787.259 0.704602 -2.23769 0
M  V30 8281 C 788.275 1.21633 -1.24425 0
M  V30 8282 O 789.451 1.25862 -1.57228 0
M  V30 8283 C 786.516 1.89725 -2.90182 0
M  V30 8284 C 785.577 1.42782 -4.0486 0
M  V30 8285 C 784.81 2.56361 -4.68097 0
M  V30 8286 O 785.033 3.74417 -4.30312 0
M  V30 8287 O 783.967 2.2775 -5.57148 0
M  V30 8288 H 787.793 0.158007 -3.03289 0
M  V30 8289 H 785.378 0.0120279 -1.49395 0
M  V30 8290 H 787.26 2.59382 -3.32113 0
M  V30 8291 H 785.935 2.432 -2.13624 0
M  V30 8292 H 784.842 0.699359 -3.67505 0
M  V30 8293 H 786.175 0.939474 -4.83151 0
M  V30 8294 N 787.827 1.57504 0.0551401 0
M  V30 8295 C 789.055 1.92294 0.76358 0
M  V30 8296 C 789.47 0.815774 1.70266 0
M  V30 8297 O 788.827 -0.209772 1.8129 0
M  V30 8298 C 788.878 3.26914 1.54302 0
M  V30 8299 O 788.599 4.33375 0.641666 0
M  V30 8300 C 790.1 3.75825 2.35097 0
M  V30 8301 H 787.32 0.635229 0.216159 0
M  V30 8302 H 789.864 2.0449 0.0204385 0
M  V30 8303 H 788.019 3.16196 2.23828 0
M  V30 8304 H 788.433 5.10927 1.1855 0
M  V30 8305 H 789.907 4.72603 2.8522 0
M  V30 8306 H 790.384 3.0568 3.15367 0
M  V30 8307 H 790.99 3.89542 1.70696 0
M  V30 8308 N 789.305 -0.326896 1.54172 0
M  V30 8309 C 790.268 -1.38515 1.8261 0
M  V30 8310 C 791.268 -1.44872 0.697771 0
M  V30 8311 O 792.458 -1.44957 0.966078 0
M  V30 8312 C 789.59 -2.77281 1.98313 0
M  V30 8313 H 790.783 -1.14556 2.77159 0
M  V30 8314 H 788.336 -0.562199 1.45839 0
M  V30 8315 H 789.071 -3.065 1.05964 0
M  V30 8316 H 788.856 -2.74061 2.80416 0
M  V30 8317 H 790.346 -3.53845 2.21773 0
M  V30 8318 N 790.784 -1.46188 -0.588786 0
M  V30 8319 C 791.731 -1.56292 -1.69828 0
M  V30 8320 C 792.701 -0.407581 -1.61022 0
M  V30 8321 O 793.886 -0.623532 -1.80324 0
M  V30 8322 C 791.026 -1.55341 -3.08161 0
M  V30 8323 C 790.139 -2.81564 -3.27636 0
M  V30 8324 C 789.274 -2.72158 -4.56183 0
M  V30 8325 C 788.313 -3.93348 -4.68981 0
M  V30 8326 N 787.45 -3.82365 -5.88848 0
M  V30 8327 H 792.29 -2.51066 -1.6053 0
M  V30 8328 H 789.827 -1.24562 -0.782474 0
M  V30 8329 H 791.785 -1.52776 -3.88221 0
M  V30 8330 H 790.415 -0.641034 -3.16371 0
M  V30 8331 H 789.467 -2.94136 -2.41223 0
M  V30 8332 H 790.779 -3.714 -3.32962 0
M  V30 8333 H 789.933 -2.67665 -5.44464 0
M  V30 8334 H 788.672 -1.79953 -4.53286 0
M  V30 8335 H 787.677 -3.98181 -3.7912 0
M  V30 8336 H 788.902 -4.86643 -4.73662 0
M  V30 8337 H 786.848 -2.92942 -5.86959 0
M  V30 8338 H 786.765 -4.65851 -5.95415 0
M  V30 8339 H 788.033 -3.81836 -6.79575 0
M  V30 8340 N 792.262 0.832906 -1.33792 0
M  V30 8341 C 793.539 1.57359 -1.16178 0
M  V30 8342 C 793.919 2.09372 0.269532 0
M  V30 8343 O 793.267 1.89993 1.26944 0
M  V30 8344 C 793.477 2.70279 -2.20795 0
M  V30 8345 C 794.825 3.39305 -2.55259 0
M  V30 8346 O 795.849 2.80526 -2.19508 0
M  V30 8347 O 794.708 4.45428 -3.16632 0
M  V30 8348 H 791.802 0.694025 -0.449731 0
M  V30 8349 H 794.348 0.875144 -1.45394 0
M  V30 8350 H 793.12 2.29527 -3.16911 0
M  V30 8351 H 792.743 3.47782 -1.927 0
M  V30 8352 N 793.74 1.17359 1.05189 0
M  V30 8353 C 795.017 0.871914 1.75091 0
M  V30 8354 C 795.397 -0.627821 2.01548 0
M  V30 8355 O 794.745 -1.5791 1.65156 0
M  V30 8356 C 794.955 1.70687 3.04413 0
M  V30 8357 C 796.303 1.92684 3.78362 0
M  V30 8358 O 797.327 1.67645 3.14282 0
M  V30 8359 O 796.186 2.34765 4.93505 0
M  V30 8360 H 793.28 0.322831 0.761386 0
M  V30 8361 H 795.826 1.28054 1.11357 0
M  V30 8362 H 794.598 2.72405 2.80911 0
M  V30 8363 H 794.221 1.29602 3.75884 0
M  V30 8364 N 795.218 -1.23913 0.973828 0
M  V30 8365 C 796.446 -1.96195 0.656891 0
M  V30 8366 C 796.861 -1.72166 -0.774876 0
M  V30 8367 O 796.218 -1.0091 -1.52064 0
M  V30 8368 C 796.269 -3.49342 0.929638 0
M  V30 8369 O 795.99 -3.72553 2.30512 0
M  V30 8370 C 797.491 -4.38833 0.627739 0
M  V30 8371 H 794.711 -0.624841 0.244572 0
M  V30 8372 H 797.255 -1.57579 1.30343 0
M  V30 8373 H 795.41 -3.85999 0.329216 0
M  V30 8374 H 795.824 -4.66893 2.3898 0
M  V30 8375 H 797.298 -5.45117 0.868991 0
M  V30 8376 H 797.775 -4.37009 -0.438104 0
M  V30 8377 H 798.381 -4.07773 1.20834 0
M  V30 8378 N 796.696 -0.74468 -1.38897 0
M  V30 8379 C 798.112 -0.421302 -1.53939 0
M  V30 8380 C 798.312 1.06668 -1.70951 0
M  V30 8381 O 797.368 1.85278 -1.71547 0
M  V30 8382 C 798.681 -1.21278 -2.75159 0
M  V30 8383 C 800.229 -1.20196 -2.89001 0
M  V30 8384 C 800.704 -1.97621 -4.13171 0
M  V30 8385 N 802.195 -1.94836 -4.2023 0
M  V30 8386 C 802.93 -2.51545 -5.15279 0
M  V30 8387 N 802.426 -3.1693 -6.16058 0
M  V30 8388 N 804.219 -2.41524 -5.07565 0
M  V30 8389 H 796.37 -1.70914 -1.26103 0
M  V30 8390 H 798.633 -0.724058 -0.611919 0
M  V30 8391 H 798.339 -2.26609 -2.68963 0
M  V30 8392 H 798.213 -0.823677 -3.68097 0
M  V30 8393 H 800.6 -0.156742 -2.94683 0
M  V30 8394 H 800.681 -1.63051 -1.97099 0
M  V30 8395 H 800.325 -3.02149 -4.0825 0
M  V30 8396 H 800.255 -1.52166 -5.04136 0
M  V30 8397 H 802.746 -1.4721 -3.48048 0
M  V30 8398 H 803.059 -3.57644 -6.85062 0
M  V30 8399 H 801.404 -3.21023 -6.16417 0
M  V30 8400 H 804.595 -1.90077 -4.27771 0
M  V30 8401 H 804.768 -2.86016 -5.81462 0
M  V30 8402 N 798.174 1.49689 -0.493057 0
M  V30 8403 C 799.404 2.06536 0.0512397 0
M  V30 8404 C 799.812 1.35459 1.32089 0
M  V30 8405 O 799.155 0.424145 1.78736 0
M  V30 8406 C 799.217 3.57452 0.383231 0
M  V30 8407 C 798.881 4.50163 -0.787555 0
M  V30 8408 C 799.878 4.92151 -1.67582 0
M  V30 8409 C 797.563 4.92565 -0.984109 0
M  V30 8410 C 799.557 5.7527 -2.74487 0
M  V30 8411 C 797.244 5.75463 -2.05634 0
M  V30 8412 C 798.242 6.16719 -2.93507 0
M  V30 8413 O 797.93 6.97961 -3.98881 0
M  V30 8414 H 797.662 0.675862 -0.0136516 0
M  V30 8415 H 800.216 1.9356 -0.687298 0
M  V30 8416 H 798.446 3.68408 1.17526 0
M  V30 8417 H 800.135 3.96572 0.8652 0
M  V30 8418 H 800.901 4.60043 -1.53575 0
M  V30 8419 H 796.78 4.5996 -0.309541 0
M  V30 8420 H 800.324 6.07392 -3.43104 0
M  V30 8421 H 796.221 6.06983 -2.19639 0
M  V30 8422 H 796.989 7.16253 -3.96137 0
M  V30 8423 N 799.652 0.226554 1.55963 0
M  V30 8424 C 800.9 -0.402991 1.98041 0
M  V30 8425 C 801.221 -1.59938 1.11557 0
M  V30 8426 O 800.491 -1.9494 0.193719 0
M  V30 8427 H 799.071 -0.15188 0.731397 0
M  V30 8428 H 801.733 0.320613 1.92245 0
M  V30 8429 H 800.829 -0.725937 3.0354 0
M  V30 8430 N 801.13 -1.57531 -0.0467866 0
M  V30 8431 C 802.358 -1.92696 -0.753371 0
M  V30 8432 C 802.773 -0.824792 -1.69831 0
M  V30 8433 O 802.13 0.200155 -1.81399 0
M  V30 8434 C 802.181 -3.27728 -1.52566 0
M  V30 8435 O 801.902 -4.3371 -0.618674 0
M  V30 8436 C 803.403 -3.77066 -2.33101 0
M  V30 8437 H 800.623 -0.636367 -0.212788 0
M  V30 8438 H 803.167 -2.04498 -0.00959361 0
M  V30 8439 H 801.322 -3.17378 -2.22148 0
M  V30 8440 H 801.736 -5.11548 -1.15839 0
M  V30 8441 H 803.21 -4.74109 -2.82709 0
M  V30 8442 H 803.687 -3.07348 -3.13741 0
M  V30 8443 H 804.293 -3.90442 -1.68628 0
M  V30 8444 N 802.608 0.318715 -1.54344 0
M  V30 8445 C 803.538 1.39751 -1.87061 0
M  V30 8446 C 804.519 1.53741 -0.727848 0
M  V30 8447 O 805.704 1.67541 -0.982016 0
M  V30 8448 C 802.834 2.76446 -2.10226 0
M  V30 8449 C 801.788 2.77239 -3.26071 0
M  V30 8450 C 801.114 4.17056 -3.34617 0
M  V30 8451 C 802.414 2.40555 -4.63606 0
M  V30 8452 H 804.108 1.12619 -2.77412 0
M  V30 8453 H 801.654 0.540318 -1.33479 0
M  V30 8454 H 803.607 3.51985 -2.31699 0
M  V30 8455 H 802.331 3.05066 -1.16629 0
M  V30 8456 H 800.99 2.04155 -3.04493 0
M  V30 8457 H 800.638 4.42824 -2.3857 0
M  V30 8458 H 800.338 4.18492 -4.12478 0
M  V30 8459 H 801.862 4.94401 -3.5833 0
M  V30 8460 H 803.276 3.05808 -4.84927 0
M  V30 8461 H 801.673 2.53234 -5.44052 0
M  V30 8462 H 802.743 1.35698 -4.65526 0
M  V30 8463 N 804.086 1.46499 0.581025 0
M  V30 8464 C 805.335 1.51162 1.3354 0
M  V30 8465 C 805.648 0.168433 1.94873 0
M  V30 8466 O 806.854 0.092883 2.71341 0
M  V30 8467 C 805.31 2.66362 2.42032 0
M  V30 8468 C 804.918 4.07109 1.86994 0
M  V30 8469 C 806.662 2.80297 3.188 0
M  V30 8470 C 804.569 5.13645 2.93125 0
M  V30 8471 H 803.499 0.562576 0.502021 0
M  V30 8472 H 806.15 1.72713 0.619863 0
M  V30 8473 H 804.532 2.38143 3.16392 0
M  V30 8474 H 805.706 4.45125 1.19166 0
M  V30 8475 H 804.021 3.97854 1.22887 0
M  V30 8476 H 806.618 3.5706 3.9801 0
M  V30 8477 H 806.961 1.87875 3.71495 0
M  V30 8478 H 807.494 3.0817 2.51547 0
M  V30 8479 H 804.233 6.07866 2.45315 0
M  V30 8480 H 803.753 4.80172 3.59437 0
M  V30 8481 H 805.432 5.39562 3.57046 0
M  V30 8482 N 805.565 -0.825799 1.34232 0
M  V30 8483 C 806.842 -1.56741 1.17011 0
M  V30 8484 C 807.222 -2.09512 -0.258425 0
M  V30 8485 O 806.57 -1.90664 -1.25935 0
M  V30 8486 C 806.78 -2.69104 2.22225 0
M  V30 8487 C 808.128 -3.37947 2.57055 0
M  V30 8488 O 809.152 -2.79358 2.20992 0
M  V30 8489 O 808.011 -4.43743 3.1899 0
M  V30 8490 H 805.105 -0.69163 0.453405 0
M  V30 8491 H 807.651 -0.867422 1.45856 0
M  V30 8492 H 806.423 -2.27844 3.18124 0
M  V30 8493 H 806.046 -3.46756 1.94541 0
M  V30 8494 N 807.043 -1.17915 -1.04565 0
M  V30 8495 C 807.993 -0.869634 -2.10764 0
M  V30 8496 C 808.977 0.158502 -1.60117 0
M  V30 8497 O 810.169 -0.04483 -1.76943 0
M  V30 8498 C 807.298 -0.391642 -3.41059 0
M  V30 8499 C 806.384 -1.45156 -3.98485 0
M  V30 8500 N 806.775 -2.6667 -4.29792 0
M  V30 8501 C 805.073 -1.3109 -4.263 0
M  V30 8502 C 805.774 -3.34823 -4.75677 0
M  V30 8503 N 804.75 -2.62203 -4.76183 0
M  V30 8504 H 808.552 -1.79342 -2.32838 0
M  V30 8505 H 806.066 -1.0688 -1.22272 0
M  V30 8506 H 808.063 -0.151428 -4.16625 0
M  V30 8507 H 806.723 0.525862 -3.20413 0
M  V30 8508 H 807.734 -3.0358 -4.19594 0
M  V30 8509 H 804.411 -0.455545 -4.15007 0
M  V30 8510 H 805.801 -4.38645 -5.0896 0
M  V30 8511 N 808.521 1.23394 -0.980386 0
M  V30 8512 C 809.469 2.26872 -0.513018 0
M  V30 8513 C 810.463 1.63853 0.429948 0
M  V30 8514 O 811.669 1.77417 0.303842 0
M  V30 8515 H 808.044 0.737398 -0.147473 0
M  V30 8516 H 810.015 2.63654 -1.39746 0
M  V30 8517 C 808.764 3.47289 0.168962 0
M  V30 8518 H 808.087 3.96033 -0.547546 0
M  V30 8519 H 809.527 4.21502 0.459616 0
M  V30 8520 C 807.986 3.06425 1.40019 0
M  V30 8521 O 808.516 3.14708 2.49643 0
M  V30 8522 N 806.722 2.61339 1.27084 0
M  V30 8523 H 806.269 2.54799 0.378872 0
M  V30 8524 H 806.227 2.34364 2.09573 0
M  V30 8525 N 809.999 0.752036 1.385 0
M  V30 8526 C 811.248 0.304294 1.99391 0
M  V30 8527 C 811.561 -1.11982 1.60373 0
M  V30 8528 O 812.767 -1.66795 2.14223 0
M  V30 8529 C 811.223 0.493101 3.56506 0
M  V30 8530 C 810.831 1.9262 4.04477 0
M  V30 8531 C 812.575 0.107994 4.24363 0
M  V30 8532 C 810.482 2.06365 5.54227 0
M  V30 8533 H 809.412 0.110024 0.745929 0
M  V30 8534 H 812.063 0.928355 1.58284 0
M  V30 8535 H 810.445 -0.20012 3.95494 0
M  V30 8536 H 811.619 2.65276 3.76783 0
M  V30 8537 H 809.934 2.26608 3.49339 0
M  V30 8538 H 812.531 0.189474 5.34364 0
M  V30 8539 H 812.874 -0.939165 4.05568 0
M  V30 8540 H 813.407 0.753011 3.90608 0
M  V30 8541 H 810.146 3.0933 5.77923 0
M  V30 8542 H 809.666 1.38167 5.83669 0
M  V30 8543 H 811.345 1.85286 6.19902 0
M  V30 8544 N 811.477 -1.49425 0.500989 0
M  V30 8545 C 812.723 -2.02753 -0.0436 0
M  V30 8546 C 813.056 -1.37991 -1.36646 0
M  V30 8547 O 812.331 -0.515597 -1.87542 0
M  V30 8548 C 812.614 -3.59565 -0.19616 0
M  V30 8549 C 812.467 -4.34855 1.14982 0
M  V30 8550 C 813.786 -4.30014 -0.936795 0
M  V30 8551 H 810.905 -0.73686 -0.0143711 0
M  V30 8552 H 813.547 -1.78448 0.652397 0
M  V30 8553 H 811.697 -3.80405 -0.788959 0
M  V30 8554 H 813.369 -4.25512 1.7815 0
M  V30 8555 H 811.612 -3.97414 1.73911 0
M  V30 8556 H 812.283 -5.42933 0.996385 0
M  V30 8557 H 814.759 -4.1383 -0.434036 0
M  V30 8558 H 813.635 -5.39483 -1.01238 0
M  V30 8559 H 813.896 -3.95257 -1.9805 0
M  V30 8560 N 812.955 -0.234822 -1.55841 0
M  V30 8561 C 814.203 0.392483 -1.98252 0
M  V30 8562 C 814.524 1.59344 -1.12404 0
M  V30 8563 O 813.794 1.94834 -0.204055 0
M  V30 8564 H 812.374 0.147999 -0.732192 0
M  V30 8565 H 815.036 -0.330804 -1.92072 0
M  V30 8566 H 814.132 0.709829 -3.03921 0
M  V30 8567 N 814.433 1.57553 0.0384317 0
M  V30 8568 C 815.661 1.93093 0.743141 0
M  V30 8569 C 816.076 0.833787 1.69391 0
M  V30 8570 O 815.433 -0.190532 1.81503 0
M  V30 8571 C 815.484 3.28533 1.50826 0
M  V30 8572 O 815.205 4.34032 0.595665 0
M  V30 8573 C 816.706 3.78297 2.31098 0
M  V30 8574 H 813.926 0.637486 0.20941 0
M  V30 8575 H 816.47 2.045 -0.00125154 0
M  V30 8576 H 814.625 3.18552 2.20462 0
M  V30 8577 H 815.039 5.12155 1.13124 0
M  V30 8578 H 816.513 4.75602 2.80191 0
M  V30 8579 H 816.99 3.09008 3.12107 0
M  V30 8580 H 817.596 3.91331 1.66555 0
M  V30 8581 N 815.911 -0.310526 1.54511 0
M  V30 8582 C 817.139 -1.06611 1.77318 0
M  V30 8583 C 817.554 -1.81265 0.528043 0
M  V30 8584 O 816.911 -1.75466 -0.50178 0
M  V30 8585 C 816.962 -2.05409 2.97472 0
M  V30 8586 O 816.683 -1.33785 4.17173 0
M  V30 8587 C 818.184 -2.93082 3.32593 0
M  V30 8588 H 815.404 -0.316578 0.591624 0
M  V30 8589 H 817.948 -0.352691 2.01436 0
M  V30 8590 H 816.103 -2.72266 2.7559 0
M  V30 8591 H 816.517 -2.00055 4.84849 0
M  V30 8592 H 817.991 -3.58274 4.19933 0
M  V30 8593 H 818.468 -3.60877 2.50329 0
M  V30 8594 H 819.074 -2.31768 3.566 0
M  V30 8595 N 817.389 -1.46805 -0.573248 0
M  V30 8596 C 818.339 -1.54497 -1.67674 0
M  V30 8597 C 819.323 -0.405117 -1.55716 0
M  V30 8598 O 820.515 -0.654097 -1.64471 0
M  V30 8599 C 817.644 -1.54717 -3.0646 0
M  V30 8600 C 816.73 -2.7403 -3.2368 0
M  V30 8601 N 817.121 -3.98871 -3.11023 0
M  V30 8602 C 815.419 -2.70453 -3.54642 0
M  V30 8603 C 816.12 -4.78689 -3.30502 0
M  V30 8604 N 815.096 -4.10727 -3.56096 0
M  V30 8605 H 818.898 -2.48809 -1.56433 0
M  V30 8606 H 816.412 -1.42576 -0.777554 0
M  V30 8607 H 818.409 -1.58316 -3.8567 0
M  V30 8608 H 817.069 -0.614886 -3.18825 0
M  V30 8609 H 818.08 -4.29976 -2.88688 0
M  V30 8610 H 814.757 -1.86291 -3.73633 0
M  V30 8611 H 816.147 -5.87615 -3.2582 0
M  V30 8612 N 818.867 0.818669 -1.34668 0
M  V30 8613 C 819.799 1.93754 -1.22442 0
M  V30 8614 C 820.812 1.62103 -0.150501 0
M  V30 8615 O 822.001 1.73898 -0.402728 0
M  V30 8616 C 819.101 3.27806 -0.860031 0
M  V30 8617 C 818.274 3.8745 -2.02981 0
M  V30 8618 C 817.333 4.99887 -1.64314 0
M  V30 8619 O 816.359 5.17957 -2.36029 0
M  V30 8620 N 817.561 5.77795 -0.55976 0
M  V30 8621 H 820.326 2.04773 -2.18833 0
M  V30 8622 H 817.887 0.995472 -1.27679 0
M  V30 8623 H 819.879 4.00478 -0.583068 0
M  V30 8624 H 818.449 3.12597 0.0138253 0
M  V30 8625 H 817.669 3.07119 -2.47127 0
M  V30 8626 H 818.957 4.2403 -2.81204 0
M  V30 8627 H 818.355 5.65688 0.0363329 0
M  V30 8628 H 816.912 6.50899 -0.342541 0
M  V30 8629 N 820.346 1.18468 1.03938 0
M  V30 8630 C 821.296 0.880799 2.103 0
M  V30 8631 C 822.28 -0.150008 1.60199 0
M  V30 8632 O 823.472 0.054213 1.76917 0
M  V30 8633 C 820.601 0.409723 3.40846 0
M  V30 8634 C 819.687 1.47267 3.9771 0
M  V30 8635 N 820.078 2.68945 4.28371 0
M  V30 8636 C 818.376 1.33349 4.25598 0
M  V30 8637 C 819.077 3.37341 4.73894 0
M  V30 8638 N 818.053 2.64725 4.74786 0
M  V30 8639 H 821.855 1.80574 2.31884 0
M  V30 8640 H 819.369 1.07527 1.21703 0
M  V30 8641 H 821.366 0.17352 4.16539 0
M  V30 8642 H 820.026 -0.508862 3.20688 0
M  V30 8643 H 821.037 3.05801 4.17978 0
M  V30 8644 H 817.714 0.477548 4.1476 0
M  V30 8645 H 819.104 4.41338 5.06627 0
M  V30 8646 N 821.824 -1.22873 0.986916 0
M  V30 8647 C 823.073 -1.90772 0.654911 0
M  V30 8648 C 823.386 -1.77768 -0.81595 0
M  V30 8649 O 824.592 -2.40529 -1.25929 0
M  V30 8650 C 823.048 -3.42003 1.12081 0
M  V30 8651 C 822.656 -3.63655 2.61647 0
M  V30 8652 C 824.4 -4.15638 0.862854 0
M  V30 8653 C 822.307 -5.08555 3.01871 0
M  V30 8654 H 821.237 -0.714362 0.241252 0
M  V30 8655 H 823.888 -1.39196 1.19568 0
M  V30 8656 H 822.27 -3.92725 0.508207 0
M  V30 8657 H 823.444 -3.2345 3.28202 0
M  V30 8658 H 821.759 -3.03341 2.8526 0
M  V30 8659 H 824.356 -5.22425 1.13915 0
M  V30 8660 H 824.699 -4.15814 -0.201036 0
M  V30 8661 H 825.232 -3.70924 1.43736 0
M  V30 8662 H 821.971 -5.13514 4.07411 0
M  V30 8663 H 821.491 -5.49684 2.40015 0
M  V30 8664 H 823.17 -5.76936 2.92839 0
M  V30 8665 N 823.302 -0.75937 -1.38099 0
M  V30 8666 C 824.532 -0.328634 -2.0397 0
M  V30 8667 C 824.94 1.04989 -1.57398 0
M  V30 8668 O 824.283 1.67918 -0.744932 0
M  V30 8669 C 824.345 -0.279216 -3.58414 0
M  V30 8670 C 824.009 -1.60025 -4.28067 0
M  V30 8671 C 825.006 -2.55048 -4.53041 0
M  V30 8672 C 822.691 -1.87128 -4.66142 0
M  V30 8673 C 824.685 -3.7539 -5.15132 0
M  V30 8674 C 822.372 -3.07742 -5.27956 0
M  V30 8675 C 823.37 -4.01694 -5.52387 0
M  V30 8676 O 823.058 -5.20186 -6.12912 0
M  V30 8677 H 822.79 -0.137443 -0.66188 0
M  V30 8678 H 825.344 -1.03082 -1.77661 0
M  V30 8679 H 823.574 0.479254 -3.83719 0
M  V30 8680 H 825.263 0.122781 -4.05714 0
M  V30 8681 H 826.029 -2.35387 -4.24049 0
M  V30 8682 H 821.908 -1.14833 -4.46469 0
M  V30 8683 H 825.452 -4.48737 -5.34117 0
M  V30 8684 H 821.349 -3.27294 -5.56371 0
M  V30 8685 H 822.117 -5.20846 -6.31397 0
M  V30 8686 N 824.78 1.49157 -0.508906 0
M  V30 8687 C 825.728 2.30922 0.278906 0
M  V30 8688 C 826.722 1.39889 0.955382 0
M  V30 8689 O 827.928 1.56901 0.882169 0
M  V30 8690 H 824.303 0.744087 0.108805 0
M  V30 8691 H 826.274 2.95277 -0.430583 0
M  V30 8692 C 825.023 3.21432 1.32576 0
M  V30 8693 H 824.346 3.91413 0.814634 0
M  V30 8694 H 825.786 3.81568 1.84882 0
M  V30 8695 C 824.245 2.41583 2.34817 0
M  V30 8696 O 824.775 2.1256 3.40854 0
M  V30 8697 N 822.981 2.03462 2.07489 0
M  V30 8698 H 822.528 2.27265 1.21278 0
M  V30 8699 H 822.486 1.50345 2.76123 0
M  V30 8700 N 826.258 0.243083 1.55714 0
M  V30 8701 C 827.505 -0.38272 1.9885 0
M  V30 8702 C 827.833 -1.58225 1.13115 0
M  V30 8703 O 827.088 -1.94861 0.181067 0
M  V30 8704 C 827.387 -0.839621 3.47398 0
M  V30 8705 C 827.053 0.251737 4.50197 0
M  V30 8706 C 825.715 0.551487 4.78029 0
M  V30 8707 C 828.067 0.988728 5.11736 0
M  V30 8708 C 825.395 1.59237 5.64677 0
M  V30 8709 C 827.747 2.0191 5.99512 0
M  V30 8710 C 826.411 2.32554 6.2568 0
M  V30 8711 H 825.681 -0.140047 0.727645 0
M  V30 8712 H 828.328 0.35011 1.88272 0
M  V30 8713 H 826.633 -1.65159 3.55288 0
M  V30 8714 H 828.33 -1.33404 3.78159 0
M  V30 8715 H 824.92 0.00796741 4.28599 0
M  V30 8716 H 829.104 0.7704 4.90284 0
M  V30 8717 H 824.36 1.83517 5.83208 0
M  V30 8718 H 828.534 2.59511 6.46241 0
M  V30 8719 H 826.161 3.13349 6.92616 0
M  V30 8720 N 827.736 -1.57571 -0.0300757 0
M  V30 8721 C 829.152 -1.54869 -0.385703 0
M  V30 8722 C 829.352 -0.969068 -1.76667 0
M  V30 8723 O 828.408 -0.589676 -2.45518 0
M  V30 8724 C 829.721 -2.99313 -0.288482 0
M  V30 8725 C 831.269 -3.10857 -0.365638 0
M  V30 8726 C 831.744 -4.5703 -0.297878 0
M  V30 8727 N 833.235 -4.61825 -0.356703 0
M  V30 8728 C 833.97 -5.72466 -0.327146 0
M  V30 8729 N 833.466 -6.92349 -0.249941 0
M  V30 8730 N 835.259 -5.60836 -0.376801 0
M  V30 8731 H 827.41 -1.936 0.87367 0
M  V30 8732 H 829.673 -0.887924 0.332106 0
M  V30 8733 H 829.379 -3.45443 0.66047 0
M  V30 8734 H 829.253 -3.61332 -1.08253 0
M  V30 8735 H 831.64 -2.64676 -1.30502 0
M  V30 8736 H 831.721 -2.51671 0.457744 0
M  V30 8737 H 831.365 -5.03879 0.637835 0
M  V30 8738 H 831.295 -5.14127 -1.13935 0
M  V30 8739 H 833.786 -3.75571 -0.418926 0
M  V30 8740 H 834.099 -7.7245 -0.23246 0
M  V30 8741 H 832.444 -6.94664 -0.216004 0
M  V30 8742 H 835.635 -4.66073 -0.435101 0
M  V30 8743 H 835.808 -6.47052 -0.350298 0
M  V30 8744 N 829.214 0.302327 -1.54673 0
M  V30 8745 C 830.144 1.37759 -1.88533 0
M  V30 8746 C 831.125 1.52961 -0.744113 0
M  V30 8747 O 832.31 1.6649 -0.999731 0
M  V30 8748 C 829.44 2.74201 -2.13146 0
M  V30 8749 C 828.394 2.73765 -3.28993 0
M  V30 8750 C 827.72 4.13483 -3.39022 0
M  V30 8751 C 829.02 2.35624 -4.66132 0
M  V30 8752 H 830.714 1.0967 -2.78591 0
M  V30 8753 H 828.26 0.52613 -1.34044 0
M  V30 8754 H 830.213 3.49508 -2.35419 0
M  V30 8755 H 828.937 3.03812 -1.19858 0
M  V30 8756 H 827.596 2.00914 -3.06642 0
M  V30 8757 H 827.244 4.40269 -2.43253 0
M  V30 8758 H 826.944 4.14093 -4.16894 0
M  V30 8759 H 828.468 4.90572 -3.63553 0
M  V30 8760 H 829.882 3.00647 -4.88143 0
M  V30 8761 H 828.279 2.47449 -5.46707 0
M  V30 8762 H 829.349 1.30753 -4.66939 0
M  V30 8763 N 830.692 1.47107 0.565454 0
M  V30 8764 C 831.969 1.43787 1.32607 0
M  V30 8765 C 832.349 0.130428 2.10697 0
M  V30 8766 O 831.697 -0.888086 2.10536 0
M  V30 8767 C 831.907 2.67833 2.23755 0
M  V30 8768 C 833.255 3.14704 2.85037 0
M  V30 8769 O 834.279 2.68503 2.34061 0
M  V30 8770 O 833.138 3.95002 3.77671 0
M  V30 8771 H 830.232 0.572623 0.596684 0
M  V30 8772 H 832.778 1.59296 0.58504 0
M  V30 8773 H 831.55 3.54532 1.65597 0
M  V30 8774 H 831.173 2.54869 3.05168 0
M  V30 8775 N 832.17 -0.811516 1.35101 0
M  V30 8776 C 833.1 -1.9378 1.30275 0
M  V30 8777 C 834.081 -1.69165 0.178075 0
M  V30 8778 O 835.266 -1.90599 0.372256 0
M  V30 8779 C 832.396 -3.30439 1.06899 0
M  V30 8780 C 831.35 -3.69523 2.15955 0
M  V30 8781 C 830.676 -5.0429 1.77751 0
M  V30 8782 C 831.976 -3.80419 3.57881 0
M  V30 8783 H 833.67 -1.98075 2.24514 0
M  V30 8784 H 831.216 -0.951586 1.08078 0
M  V30 8785 H 833.169 -4.08828 1.02164 0
M  V30 8786 H 831.893 -3.26473 0.0910462 0
M  V30 8787 H 830.552 -2.93416 2.19778 0
M  V30 8788 H 830.2 -4.96823 0.785876 0
M  V30 8789 H 829.9 -5.31411 2.5075 0
M  V30 8790 H 831.424 -5.85125 1.74533 0
M  V30 8791 H 832.838 -4.49051 3.56407 0
M  V30 8792 H 831.235 -4.19005 4.29598 0
M  V30 8793 H 832.305 -2.82105 3.94391 0
M  V30 8794 N 833.648 -1.19017 -1.03309 0
M  V30 8795 C 834.925 -0.899659 -1.73682 0
M  V30 8796 C 835.305 0.595677 -2.02521 0
M  V30 8797 O 834.653 1.55263 -1.67648 0
M  V30 8798 C 834.863 -1.75508 -3.01659 0
M  V30 8799 C 836.211 -1.98679 -3.75249 0
M  V30 8800 O 837.235 -1.72624 -3.11576 0
M  V30 8801 O 836.094 -2.42587 -4.89708 0
M  V30 8802 H 833.188 -0.334903 -0.756154 0
M  V30 8803 H 835.734 -1.29809 -1.09305 0
M  V30 8804 H 834.506 -2.7684 -2.76542 0
M  V30 8805 H 834.129 -1.35565 -3.73775 0
M  V30 8806 N 835.127 1.22348 -0.993418 0
M  V30 8807 C 836.373 1.91393 -0.67056 0
M  V30 8808 C 836.706 1.77163 0.795428 0
M  V30 8809 O 835.981 1.14084 1.57528 0
M  V30 8810 C 836.264 3.43589 -1.0779 0
M  V30 8811 C 836.117 3.66867 -2.60248 0
M  V30 8812 C 837.436 4.35545 -0.631527 0
M  V30 8813 H 834.555 0.695057 -0.24508 0
M  V30 8814 H 837.197 1.44213 -1.23703 0
M  V30 8815 H 835.347 3.83903 -0.595902 0
M  V30 8816 H 837.019 3.35954 -3.16121 0
M  V30 8817 H 835.262 3.1113 -3.02293 0
M  V30 8818 H 835.933 4.73457 -2.838 0
M  V30 8819 H 838.409 4.0275 -1.04554 0
M  V30 8820 H 837.285 5.40707 -0.944831 0
M  V30 8821 H 837.546 4.39618 0.467779 0
M  V30 8822 N 836.605 0.766683 1.37694 0
M  V30 8823 C 837.882 0.25366 1.93948 0
M  V30 8824 C 838.262 -1.25041 1.70082 0
M  V30 8825 O 837.61 -2.03115 1.04674 0
M  V30 8826 C 837.82 0.621549 3.43421 0
M  V30 8827 C 839.168 0.588504 4.20502 0
M  V30 8828 O 840.192 0.560632 3.5176 0
M  V30 8829 O 839.051 0.61107 5.43073 0
M  V30 8830 H 836.145 0.0570586 0.825029 0
M  V30 8831 H 838.691 0.847693 1.47011 0
M  V30 8832 H 837.463 1.65979 3.54354 0
M  V30 8833 H 837.086 0.000197027 3.976 0
M  V30 8834 N 838.083 -1.48885 0.516809 0
M  V30 8835 C 839.331 -2.02088 -0.0220166 0
M  V30 8836 C 839.652 -1.39735 -1.36011 0
M  V30 8837 O 838.922 -0.558119 -1.87781 0
M  V30 8838 H 837.502 -0.746917 -0.0111255 0
M  V30 8839 H 840.164 -1.8274 0.677647 0
M  V30 8840 H 839.26 -3.11786 -0.140067 0
M  V30 8841 N 839.561 -0.251338 -1.55583 0
M  V30 8842 C 840.471 0.656978 -2.25213 0
M  V30 8843 C 841.487 1.18966 -1.26977 0
M  V30 8844 O 842.663 1.22499 -1.59862 0
M  V30 8845 C 839.728 1.83527 -2.94141 0
M  V30 8846 C 838.789 1.34162 -4.07798 0
M  V30 8847 C 838.022 2.46375 -4.73429 0
M  V30 8848 O 838.245 3.65205 -4.38157 0
M  V30 8849 O 837.179 2.15881 -5.61853 0
M  V30 8850 H 841.005 0.0936395 -3.03556 0
M  V30 8851 H 838.59 -0.0196638 -1.49387 0
M  V30 8852 H 840.472 2.52279 -3.3754 0
M  V30 8853 H 839.147 2.38614 -2.18735 0
M  V30 8854 H 838.054 0.621249 -3.68906 0
M  V30 8855 H 839.387 0.836779 -4.85035 0
M  V30 8856 N 841.039 1.57585 0.0217189 0
M  V30 8857 C 841.987 2.08134 1.03842 0
M  V30 8858 C 842.981 0.996662 1.36978 0
M  V30 8859 O 844.187 1.18149 1.35797 0
M  V30 8860 H 840.562 0.664298 0.352438 0
M  V30 8861 H 842.533 2.92583 0.58634 0
M  V30 8862 C 841.282 2.58218 2.32849 0
M  V30 8863 H 840.605 3.41302 2.08214 0
M  V30 8864 H 842.045 2.97289 3.02316 0
M  V30 8865 C 840.504 1.48664 3.02325 0
M  V30 8866 O 841.034 0.857075 3.9245 0
M  V30 8867 N 839.24 1.21938 2.63779 0
M  V30 8868 H 838.787 1.73319 1.90574 0
M  V30 8869 H 838.745 0.488523 3.10581 0
M  V30 8870 N 842.517 -0.29412 1.54831 0
M  V30 8871 C 843.465 -1.38296 1.87021 0
M  V30 8872 C 844.459 -1.5216 0.744557 0
M  V30 8873 O 845.665 -1.54196 0.92864 0
M  V30 8874 H 842.04 -0.462088 0.593278 0
M  V30 8875 H 844.011 -1.08386 2.7802 0
M  V30 8876 C 842.76 -2.74024 2.14023 0
M  V30 8877 H 842.083 -2.6414 3.00117 0
M  V30 8878 H 843.523 -3.49205 2.40482 0
M  V30 8879 C 841.982 -3.23492 0.940982 0
M  V30 8880 O 842.512 -4.01361 0.164937 0
M  V30 8881 N 840.718 -2.80902 0.744467 0
M  V30 8882 H 840.265 -2.17694 1.37721 0
M  V30 8883 H 840.223 -3.14349 -0.0563652 0
M  V30 8884 N 843.995 -1.47404 -0.557645 0
M  V30 8885 C 845.22 -1.57868 -1.34508 0
M  V30 8886 C 845.645 -0.229151 -1.86699 0
M  V30 8887 O 845.003 0.794908 -1.62944 0
M  V30 8888 C 845.051 -2.60712 -2.49122 0
M  V30 8889 O 844.155 -2.15952 -3.51338 0
M  V30 8890 H 843.496 -0.530335 -0.399551 0
M  V30 8891 H 846.026 -1.93181 -0.673954 0
M  V30 8892 H 846.036 -2.81118 -2.95697 0
M  V30 8893 H 844.711 -3.58701 -2.10491 0
M  V30 8894 H 843.288 -2.05644 -3.11071 0
M  V30 8895 N 845.473 0.80434 -1.35529 0
M  V30 8896 C 846.403 1.93086 -1.31301 0
M  V30 8897 C 847.384 1.69068 -0.187044 0
M  V30 8898 O 848.569 1.90399 -0.382359 0
M  V30 8899 C 845.699 3.29867 -1.0865 0
M  V30 8900 C 844.653 3.68373 -2.17911 0
M  V30 8901 C 843.979 5.0334 -1.80423 0
M  V30 8902 C 845.279 3.78516 -3.59893 0
M  V30 8903 H 846.973 1.96882 -2.25561 0
M  V30 8904 H 844.519 0.945841 -1.08581 0
M  V30 8905 H 846.472 4.08281 -1.04331 0
M  V30 8906 H 845.196 3.2642 -0.108359 0
M  V30 8907 H 843.855 2.92247 -2.21331 0
M  V30 8908 H 843.503 4.96399 -0.812213 0
M  V30 8909 H 843.203 5.30074 -2.53565 0
M  V30 8910 H 844.727 5.84191 -1.77633 0
M  V30 8911 H 846.141 4.47155 -3.58783 0
M  V30 8912 H 844.538 4.16721 -4.31814 0
M  V30 8913 H 845.608 2.8001 -3.95882 0
M  V30 8914 N 846.951 1.19563 1.02676 0
M  V30 8915 C 848.197 1.00105 1.76371 0
M  V30 8916 C 848.53 -0.466823 1.88506 0
M  V30 8917 O 847.805 -1.34665 1.40341 0
M  V30 8918 C 848.088 1.67321 3.18866 0
M  V30 8919 C 847.941 3.21486 3.1459 0
M  V30 8920 C 849.26 1.39794 4.17308 0
M  V30 8921 H 846.379 0.365075 0.640226 0
M  V30 8922 H 849.021 1.47433 1.19848 0
M  V30 8923 H 847.171 1.27081 3.67128 0
M  V30 8924 H 848.843 3.70953 2.7421 0
M  V30 8925 H 847.086 3.5292 2.52249 0
M  V30 8926 H 847.757 3.63665 4.15273 0
M  V30 8927 H 850.233 1.74685 3.77657 0
M  V30 8928 H 849.109 1.89371 5.15199 0
M  V30 8929 H 849.37 0.323505 4.40915 0
M  V30 8930 N 848.429 -1.21819 0.999893 0
M  V30 8931 C 849.392 -2.22227 0.561044 0
M  V30 8932 C 850.392 -1.56722 -0.359858 0
M  V30 8933 O 851.582 -1.73546 -0.150848 0
M  V30 8934 C 848.714 -3.40409 -0.182987 0
M  V30 8935 H 849.907 -2.62567 1.44909 0
M  V30 8936 H 847.46 -1.34991 0.78785 0
M  V30 8937 H 848.195 -3.05551 -1.08671 0
M  V30 8938 H 847.98 -3.89171 0.47833 0
M  V30 8939 H 849.47 -4.14856 -0.477952 0
M  V30 8940 N 849.908 -0.773975 -1.37286 0
M  V30 8941 C 850.841 -0.108019 -2.27944 0
M  V30 8942 C 851.819 0.706737 -1.46438 0
M  V30 8943 O 853.003 0.681025 -1.75768 0
M  V30 8944 C 850.13 0.853199 -3.27778 0
M  V30 8945 C 849.176 0.122164 -4.26325 0
M  V30 8946 S 850.009 -1.19136 -5.22079 0
M  V30 8947 C 851.165 -0.233737 -6.25463 0
M  V30 8948 H 851.398 -0.876743 -2.84078 0
M  V30 8949 H 848.931 -0.567468 -1.43594 0
M  V30 8950 H 850.889 1.40238 -3.85803 0
M  V30 8951 H 849.55 1.59505 -2.70586 0
M  V30 8952 H 848.743 0.850926 -4.96765 0
M  V30 8953 H 848.345 -0.356079 -3.72301 0
M  V30 8954 H 850.637 0.59305 -6.74899 0
M  V30 8955 H 851.58 -0.906373 -7.02275 0
M  V30 8956 H 851.988 0.156048 -5.64284 0
M  V30 8957 N 851.386 1.48609 -0.524698 0
M  V30 8958 C 852.663 1.95454 0.075465 0
M  V30 8959 C 853.043 1.46682 1.51814 0
M  V30 8960 O 852.391 0.690975 2.17802 0
M  V30 8961 C 852.601 3.48981 -0.0363273 0
M  V30 8962 C 853.949 4.24414 0.125624 0
M  V30 8963 O 854.973 3.5618 0.0377239 0
M  V30 8964 O 853.832 5.45625 0.309104 0
M  V30 8965 H 850.926 0.822902 0.0822256 0
M  V30 8966 H 853.472 1.59153 -0.588921 0
M  V30 8967 H 852.244 3.77185 -1.04149 0
M  V30 8968 H 851.867 3.91963 0.667146 0
M  V30 8969 N 852.864 0.259585 1.55447 0
M  V30 8970 C 854.275 -0.241165 1.85136 0
M  V30 8971 C 854.626 -1.56634 1.18153 0
M  V30 8972 O 853.751 -2.11359 0.464351 0
M  V30 8973 C 854.346 -0.444355 3.35873 0
M  V30 8974 C 852.905 -0.889354 3.65742 0
M  V30 8975 C 852.052 0.0262474 2.77288 0
M  V30 8976 H 855.003 0.481808 1.51209 0
M  V30 8977 H 855.024 -1.28517 3.58139 0
M  V30 8978 H 854.536 0.520289 3.84597 0
M  V30 8979 H 852.637 -1.86602 3.22507 0
M  V30 8980 H 852.75 -0.737432 4.73391 0
M  V30 8981 H 851.114 -0.487361 2.49994 0
M  V30 8982 H 851.897 0.986494 3.28821 0
M  V30 8983 N 854.342 -1.57594 -0.0133615 0
M  V30 8984 C 855.588 -1.90262 -0.702019 0
M  V30 8985 C 855.921 -0.859219 -1.74158 0
M  V30 8986 O 855.196 0.123778 -1.94106 0
M  V30 8987 C 855.479 -3.3354 -1.35732 0
M  V30 8988 C 855.332 -4.48586 -0.330208 0
M  V30 8989 C 856.651 -3.76004 -2.28712 0
M  V30 8990 H 853.77 -0.691943 -0.253739 0
M  V30 8991 H 856.412 -1.89967 0.0351894 0
M  V30 8992 H 854.562 -3.33921 -1.98567 0
M  V30 8993 H 856.234 -4.6034 0.297433 0
M  V30 8994 H 854.477 -4.32394 0.348926 0
M  V30 8995 H 855.148 -5.45762 -0.827508 0
M  V30 8996 H 857.624 -3.77089 -1.75906 0
M  V30 8997 H 856.5 -4.77032 -2.71535 0
M  V30 8998 H 856.761 -3.09129 -3.16056 0
M  V30 8999 N 855.82 0.285905 -1.54985 0
M  V30 9000 C 857.066 1.02071 -1.75241 0
M  V30 9001 C 857.399 1.864 -0.544842 0
M  V30 9002 O 856.674 1.89034 0.457844 0
M  V30 9003 C 856.957 1.91409 -3.05016 0
M  V30 9004 C 856.81 1.10158 -4.36102 0
M  V30 9005 C 858.129 2.90335 -3.30747 0
M  V30 9006 H 855.248 0.369663 -0.637588 0
M  V30 9007 H 857.89 0.294114 -1.8771 0
M  V30 9008 H 856.04 2.53362 -2.94517 0
M  V30 9009 H 857.712 0.503756 -4.58541 0
M  V30 9010 H 855.955 0.404675 -4.31908 0
M  V30 9011 H 856.626 1.75956 -5.23205 0
M  V30 9012 H 859.102 2.38514 -3.40955 0
M  V30 9013 H 857.978 3.49997 -4.2284 0
M  V30 9014 H 858.239 3.64787 -2.49765 0
M  V30 9015 N 857.298 1.47698 0.54982 0
M  V30 9016 C 858.245 1.60739 1.65625 0
M  V30 9017 C 859.215 0.450129 1.59884 0
M  V30 9018 O 860.4 0.671123 1.78607 0
M  V30 9019 C 857.54 1.63457 3.03934 0
M  V30 9020 C 856.653 2.90152 3.20056 0
M  V30 9021 C 855.788 2.84157 4.48807 0
M  V30 9022 C 854.827 4.05644 4.58387 0
M  V30 9023 N 853.964 3.97843 5.78503 0
M  V30 9024 H 858.804 2.55234 1.53817 0
M  V30 9025 H 856.341 1.26593 0.749173 0
M  V30 9026 H 858.299 1.63015 3.84034 0
M  V30 9027 H 856.929 0.724689 3.1456 0
M  V30 9028 H 855.981 3.00428 2.33339 0
M  V30 9029 H 857.293 3.80097 3.22998 0
M  V30 9030 H 856.447 2.82006 5.37175 0
M  V30 9031 H 855.186 1.91908 4.48356 0
M  V30 9032 H 854.191 4.08092 3.6843 0
M  V30 9033 H 855.416 4.9903 4.60593 0
M  V30 9034 H 853.362 3.08401 5.78986 0
M  V30 9035 H 853.279 4.81473 5.82855 0
M  V30 9036 H 854.547 3.99719 6.69212 0
M  V30 9037 N 858.776 -0.797141 1.35954 0
M  V30 9038 C 860.187 -1.37179 1.26644 0
M  V30 9039 C 860.538 -1.9596 -0.0971046 0
M  V30 9040 O 859.663 -1.91994 -0.998355 0
M  V30 9041 C 860.258 -2.49395 2.2932 0
M  V30 9042 C 858.817 -3.02697 2.23722 0
M  V30 9043 C 857.964 -1.75721 2.14517 0
M  V30 9044 H 860.915 -0.599407 1.46945 0
M  V30 9045 H 860.936 -3.28204 1.92515 0
M  V30 9046 H 860.448 -2.06584 3.2855 0
M  V30 9047 H 858.549 -3.49948 1.27934 0
M  V30 9048 H 858.662 -3.60036 3.16087 0
M  V30 9049 H 857.026 -1.97649 1.60646 0
M  V30 9050 H 857.809 -1.35049 3.15621 0
M  V30 9051 N 860.254 -1.20106 -1.0204 0
M  V30 9052 C 861.202 -0.943231 -2.12617 0
M  V30 9053 C 862.196 0.104042 -1.6908 0
M  V30 9054 O 863.402 -0.0459732 -1.79941 0
M  V30 9055 H 859.777 -0.28767 -0.694802 0
M  V30 9056 H 861.748 -1.88221 -2.3155 0
M  V30 9057 C 860.497 -0.50771 -3.43973 0
M  V30 9058 H 859.82 -1.30514 -3.77897 0
M  V30 9059 H 861.26 -0.366486 -4.22413 0
M  V30 9060 C 859.719 0.77939 -3.27761 0
M  V30 9061 O 860.249 1.83876 -3.57145 0
M  V30 9062 N 858.455 0.739931 -2.81022 0
M  V30 9063 H 858.002 -0.122426 -2.57309 0
M  V30 9064 H 857.96 1.60147 -2.70556 0
M  V30 9065 N 861.732 1.21287 -1.00634 0
M  V30 9066 C 862.96 1.94385 -0.708678 0
M  V30 9067 C 863.375 1.7416 0.728957 0
M  V30 9068 O 862.732 1.04906 1.49335 0
M  V30 9069 C 862.783 3.46755 -1.02193 0
M  V30 9070 O 862.504 3.6631 -2.40309 0
M  V30 9071 C 864.005 4.37014 -0.743867 0
M  V30 9072 H 861.225 0.618136 -0.261052 0
M  V30 9073 H 863.769 1.54067 -1.34475 0
M  V30 9074 H 861.924 3.8499 -0.431441 0
M  V30 9075 H 862.338 4.60393 -2.51274 0
M  V30 9076 H 863.812 5.42621 -1.01321 0
M  V30 9077 H 864.289 4.38017 0.322084 0
M  V30 9078 H 864.895 4.04426 -1.31603 0
M  V30 9079 N 863.21 0.781244 1.36873 0
M  V30 9080 C 864.173 0.180094 2.28491 0
M  V30 9081 C 865.173 -0.617798 1.48458 0
M  V30 9082 O 866.363 -0.439991 1.68552 0
M  V30 9083 C 863.495 -0.751741 3.32508 0
M  V30 9084 H 864.688 0.987837 2.83164 0
M  V30 9085 H 862.241 0.550102 1.463 0
M  V30 9086 H 862.976 -1.58413 2.82977 0
M  V30 9087 H 862.761 -0.181649 3.91679 0
M  V30 9088 H 864.251 -1.16748 4.00949 0
M  V30 9089 N 864.689 -1.48329 0.532571 0
M  V30 9090 C 865.937 -2.021 -0.000581206 0
M  V30 9091 C 866.258 -1.4117 -1.34522 0
M  V30 9092 O 865.528 -0.578005 -1.87179 0
M  V30 9093 H 864.108 -0.746993 -0.00320281 0
M  V30 9094 H 866.77 -1.82011 0.696991 0
M  V30 9095 H 865.866 -3.11917 -0.106991 0
M  V30 9096 N 866.167 -0.267825 -1.55308 0
M  V30 9097 C 867.415 0.350343 -1.9904 0
M  V30 9098 C 867.736 1.56924 -1.15758 0
M  V30 9099 O 867.006 1.94358 -0.245336 0
M  V30 9100 H 865.586 0.132435 -0.735167 0
M  V30 9101 H 868.248 -0.371471 -1.91327 0
M  V30 9102 H 867.344 0.645203 -3.05358 0
M  V30 9103 N 867.645 1.57599 0.00500368 0
M  V30 9104 C 869.056 1.78462 0.54848 0
M  V30 9105 C 869.407 0.901869 1.74243 0
M  V30 9106 O 868.532 0.103014 2.16155 0
M  V30 9107 C 869.127 3.2365 1.00179 0
M  V30 9108 C 867.686 3.45627 1.49061 0
M  V30 9109 C 866.833 2.73794 0.439531 0
M  V30 9110 H 869.784 1.57151 -0.22118 0
M  V30 9111 H 869.805 3.31488 1.86805 0
M  V30 9112 H 869.317 3.87873 0.132607 0
M  V30 9113 H 867.418 2.86612 2.38085 0
M  V30 9114 H 867.531 4.54298 1.52152 0
M  V30 9115 H 865.895 2.38267 0.900043 0
M  V30 9116 H 866.678 3.40714 -0.420599 0
M  V30 9117 N 869.123 -0.277682 1.55134 0
M  V30 9118 C 870.539 -0.624625 1.46869 0
M  V30 9119 C 870.739 -1.89717 0.678958 0
M  V30 9120 O 869.795 -2.51739 0.195939 0
M  V30 9121 C 871.108 -0.755937 2.91043 0
M  V30 9122 C 872.656 -0.850299 3.01229 0
M  V30 9123 C 873.131 -1.01343 4.46647 0
M  V30 9124 N 874.622 -1.07906 4.50456 0
M  V30 9125 C 875.357 -1.224 5.60184 0
M  V30 9126 N 874.853 -1.33642 6.79788 0
M  V30 9127 N 876.646 -1.25473 5.47917 0
M  V30 9128 H 868.797 0.558102 2.04937 0
M  V30 9129 H 871.06 0.188228 0.929125 0
M  V30 9130 H 870.766 0.108593 3.51532 0
M  V30 9131 H 870.64 -1.6377 3.39793 0
M  V30 9132 H 873.027 -1.7053 2.40839 0
M  V30 9133 H 873.108 0.0559681 2.55739 0
M  V30 9134 H 872.752 -0.163102 5.07638 0
M  V30 9135 H 872.682 -1.93427 4.89789 0
M  V30 9136 H 875.173 -1.00477 3.64298 0
M  V30 9137 H 875.486 -1.44522 7.59166 0
M  V30 9138 H 873.831 -1.30655 6.82608 0
M  V30 9139 H 877.022 -1.16317 4.53418 0
M  V30 9140 H 877.195 -1.36424 6.33476 0
M  V30 9141 N 870.601 -1.47988 -0.541979 0
M  V30 9142 C 871.829 -1.59034 -1.32347 0
M  V30 9143 C 872.244 -0.246123 -1.87189 0
M  V30 9144 O 871.601 0.762889 -1.6579 0
M  V30 9145 C 871.652 -2.62759 -2.48274 0
M  V30 9146 O 871.373 -3.91963 -1.95695 0
M  V30 9147 C 872.874 -2.84133 -3.4027 0
M  V30 9148 H 870.094 -0.536574 -0.402901 0
M  V30 9149 H 872.638 -1.93725 -0.655045 0
M  V30 9150 H 870.793 -2.3096 -3.11025 0
M  V30 9151 H 871.207 -4.48769 -2.7149 0
M  V30 9152 H 872.681 -3.60538 -4.17991 0
M  V30 9153 H 873.158 -1.92512 -3.9476 0
M  V30 9154 H 873.764 -3.17188 -2.83322 0
M  V30 9155 N 872.079 0.78992 -1.36375 0
M  V30 9156 C 873.304 1.58389 -1.33895 0
M  V30 9157 C 873.729 1.8794 0.0774934 0
M  V30 9158 O 873.087 1.4785 1.0493 0
M  V30 9159 C 873.135 2.88201 -2.16732 0
M  V30 9160 O 872.239 3.81778 -1.55946 0
M  V30 9161 H 871.58 0.480471 -0.458305 0
M  V30 9162 H 874.11 0.979119 -1.79651 0
M  V30 9163 H 874.12 3.37475 -2.29292 0
M  V30 9164 H 872.795 2.66019 -3.19698 0
M  V30 9165 H 871.372 3.40371 -1.52323 0
M  V30 9166 N 873.557 1.20646 1.01402 0
M  V30 9167 C 874.785 1.04389 1.78635 0
M  V30 9168 C 875.2 -0.406771 1.84366 0
M  V30 9169 O 874.557 -1.28239 1.2985 0
M  V30 9170 C 874.608 1.62378 3.22979 0
M  V30 9171 O 874.329 3.01768 3.17597 0
M  V30 9172 C 875.83 1.5111 4.1675 0
M  V30 9173 H 873.05 0.367077 0.56169 0
M  V30 9174 H 875.594 1.59789 1.27624 0
M  V30 9175 H 873.749 1.11092 3.7113 0
M  V30 9176 H 874.163 3.29331 4.08217 0
M  V30 9177 H 875.637 1.96441 5.15863 0
M  V30 9178 H 876.114 0.464011 4.36742 0
M  V30 9179 H 876.72 2.01599 3.74483 0
M  V30 9180 N 875.035 -1.20752 1.01276 0
M  V30 9181 C 875.968 -2.22091 0.524472 0
M  V30 9182 C 876.946 -1.5692 -0.426017 0
M  V30 9183 O 878.13 -1.8528 -0.346919 0
M  V30 9184 C 875.257 -3.37868 -0.237224 0
M  V30 9185 C 874.303 -4.21327 0.662236 0
M  V30 9186 S 875.136 -4.91352 2.12916 0
M  V30 9187 C 876.292 -6.10553 1.37752 0
M  V30 9188 H 876.525 -2.63166 1.38315 0
M  V30 9189 H 874.058 -1.30742 0.821332 0
M  V30 9190 H 876.016 -4.04985 -0.670599 0
M  V30 9191 H 874.677 -2.95261 -1.07143 0
M  V30 9192 H 873.87 -5.03944 0.0751085 0
M  V30 9193 H 873.472 -3.59445 1.03322 0
M  V30 9194 H 875.764 -6.74322 0.655491 0
M  V30 9195 H 876.707 -6.73717 2.17969 0
M  V30 9196 H 877.115 -5.57566 0.882088 0
M  V30 9197 N 876.513 -0.788492 -1.36457 0
M  V30 9198 C 877.445 -0.144208 -2.28746 0
M  V30 9199 C 878.458 0.646009 -1.49434 0
M  V30 9200 O 879.647 0.481344 -1.71888 0
M  V30 9201 C 876.747 0.818869 -3.28858 0
M  V30 9202 C 875.92 0.0789055 -4.37329 0
M  V30 9203 C 874.979 0.957791 -5.1741 0
M  V30 9204 O 874.005 0.415378 -5.67682 0
M  V30 9205 N 875.207 2.28216 -5.33758 0
M  V30 9206 H 877.972 -0.936949 -2.84678 0
M  V30 9207 H 875.533 -0.642317 -1.48613 0
M  V30 9208 H 877.525 1.41065 -3.79319 0
M  V30 9209 H 876.095 1.51249 -2.73573 0
M  V30 9210 H 875.315 -0.693939 -3.88044 0
M  V30 9211 H 876.603 -0.431753 -5.06965 0
M  V30 9212 H 876.001 2.747 -4.94527 0
M  V30 9213 H 874.558 2.8236 -5.87466 0
M  V30 9214 N 877.991 1.48044 -0.54043 0
M  V30 9215 C 879.237 2.02797 -0.0101718 0
M  V30 9216 C 879.57 1.41565 1.32939 0
M  V30 9217 O 878.845 0.565139 1.86109 0
M  V30 9218 C 879.128 3.59959 0.100758 0
M  V30 9219 C 878.981 4.31654 -1.26471 0
M  V30 9220 C 880.3 4.32347 0.822455 0
M  V30 9221 H 877.419 0.736982 -0.00517052 0
M  V30 9222 H 880.061 1.76656 -0.69948 0
M  V30 9223 H 878.211 3.82363 0.687824 0
M  V30 9224 H 879.883 4.20639 -1.89369 0
M  V30 9225 H 878.126 3.92663 -1.84386 0
M  V30 9226 H 878.797 5.401 -1.13998 0
M  V30 9227 H 881.273 4.14835 0.324164 0
M  V30 9228 H 880.149 5.41978 0.868993 0
M  V30 9229 H 880.41 4.00369 1.87501 0
M  V30 9230 N 879.47 0.276058 1.55163 0
M  V30 9231 C 880.418 -0.626978 2.2399 0
M  V30 9232 C 881.412 -1.15708 1.23725 0
M  V30 9233 O 882.618 -1.1106 1.41653 0
M  V30 9234 H 878.993 -0.220742 0.718872 0
M  V30 9235 H 880.964 -0.0236569 2.98391 0
M  V30 9236 C 879.713 -1.79935 2.97521 0
M  V30 9237 H 879.036 -1.40064 3.74463 0
M  V30 9238 H 880.476 -2.40781 3.48999 0
M  V30 9239 C 878.935 -2.68838 2.03046 0
M  V30 9240 O 879.465 -3.69224 1.58229 0
M  V30 9241 N 877.671 -2.36028 1.69527 0
M  V30 9242 H 877.218 -1.54442 2.06169 0
M  V30 9243 H 877.176 -2.95782 1.06586 0
M  V30 9244 N 880.948 -1.576 0.00335426 0
M  V30 9245 C 881.88 -2.0549 -1.01521 0
M  V30 9246 C 882.893 -0.973441 -1.30491 0
M  V30 9247 O 884.082 -1.25017 -1.27409 0
M  V30 9248 C 881.182 -2.44272 -2.34914 0
M  V30 9249 C 880.355 -3.75191 -2.24835 0
M  V30 9250 C 879.414 -4.00804 -3.40944 0
M  V30 9251 O 878.44 -4.71423 -3.18981 0
M  V30 9252 N 879.642 -3.48961 -4.63904 0
M  V30 9253 H 882.407 -2.93493 -0.60678 0
M  V30 9254 H 879.968 -1.60851 -0.18396 0
M  V30 9255 H 881.96 -2.58518 -3.11369 0
M  V30 9256 H 880.53 -1.6177 -2.67487 0
M  V30 9257 H 879.75 -3.70989 -1.3327 0
M  V30 9258 H 881.038 -4.61013 -2.15277 0
M  V30 9259 H 880.436 -2.9178 -4.84645 0
M  V30 9260 H 878.993 -3.68531 -5.37613 0
M  V30 9261 N 882.426 0.269451 -1.5528 0
M  V30 9262 C 883.656 1.01724 -1.79821 0
M  V30 9263 C 884.064 1.80298 -0.573532 0
M  V30 9264 O 883.407 1.77666 0.466963 0
M  V30 9265 C 883.469 2.02043 -2.97353 0
M  V30 9266 C 883.133 1.42375 -4.34256 0
M  V30 9267 C 884.13 0.837611 -5.13108 0
M  V30 9268 C 881.815 1.44988 -4.8092 0
M  V30 9269 C 883.809 0.285557 -6.3676 0
M  V30 9270 C 881.496 0.893969 -6.04526 0
M  V30 9271 C 882.494 0.312809 -6.82283 0
M  V30 9272 O 882.182 -0.234582 -8.03558 0
M  V30 9273 H 881.914 0.30604 -0.602757 0
M  V30 9274 H 884.468 0.30454 -2.0313 0
M  V30 9275 H 882.698 2.77082 -2.69745 0
M  V30 9276 H 884.387 2.6298 -3.09187 0
M  V30 9277 H 885.153 0.81009 -4.78187 0
M  V30 9278 H 881.032 1.89162 -4.20403 0
M  V30 9279 H 884.576 -0.168696 -6.97396 0
M  V30 9280 H 880.473 0.918742 -6.38928 0
M  V30 9281 H 881.241 -0.124282 -8.18406 0
M  V30 9282 N 883.904 1.48273 0.534124 0
M  V30 9283 C 884.852 1.62926 1.66005 0
M  V30 9284 C 885.846 0.495814 1.61982 0
M  V30 9285 O 887.052 0.6744 1.66889 0
M  V30 9286 H 883.427 0.513163 0.549698 0
M  V30 9287 H 885.398 2.57498 1.50789 0
M  V30 9288 C 884.147 1.68231 3.04292 0
M  V30 9289 H 883.47 2.54807 3.0808 0
M  V30 9290 H 884.91 1.82528 3.827 0
M  V30 9291 C 883.369 0.420154 3.3427 0
M  V30 9292 O 883.899 -0.468769 3.98955 0
M  V30 9293 N 882.105 0.293115 2.89118 0
M  V30 9294 H 881.652 1.01745 2.36655 0
M  V30 9295 H 881.61 -0.550376 3.09545 0
M  V30 9296 N 885.382 -0.782676 1.36792 0
M  V30 9297 C 886.631 -1.53605 1.30723 0
M  V30 9298 C 886.944 -1.95294 -0.109296 0
M  V30 9299 O 888.15 -2.69921 -0.292398 0
M  V30 9300 C 886.606 -2.77321 2.29393 0
M  V30 9301 C 886.214 -2.42774 3.76517 0
M  V30 9302 C 887.958 -3.55289 2.32314 0
M  V30 9303 C 885.865 -3.62926 4.66947 0
M  V30 9304 H 884.795 -0.576646 0.485794 0
M  V30 9305 H 887.446 -0.858255 1.62192 0
M  V30 9306 H 885.828 -3.46934 1.90927 0
M  V30 9307 H 887.002 -1.81014 4.23758 0
M  V30 9308 H 885.317 -1.78002 3.76436 0
M  V30 9309 H 887.914 -4.44573 2.97083 0
M  V30 9310 H 888.257 -3.94361 1.3336 0
M  V30 9311 H 888.79 -2.92662 2.69432 0
M  V30 9312 H 885.529 -3.28944 5.66989 0
M  V30 9313 H 885.049 -4.23828 4.24418 0
M  V30 9314 H 886.728 -4.29873 4.83548 0
M  V30 9315 N 886.86 -1.21182 -1.00761 0
M  V30 9316 C 888.108 -1.02543 -1.74153 0
M  V30 9317 C 888.429 0.442372 -1.89916 0
M  V30 9318 O 887.699 1.31927 -1.44818 0
M  V30 9319 H 886.279 -0.37644 -0.645214 0
M  V30 9320 H 888.941 -1.52446 -1.21434 0
M  V30 9321 H 888.037 -1.49122 -2.7417 0
M  V30 9322 N 888.338 1.20213 -1.01915 0
M  V30 9323 C 889.286 2.25125 -0.584936 0
M  V30 9324 C 890.28 1.65138 0.377602 0
M  V30 9325 O 891.486 1.78294 0.247245 0
M  V30 9326 H 887.861 0.732333 -0.170858 0
M  V30 9327 H 889.832 2.59075 -1.48063 0
M  V30 9328 C 888.581 3.47651 0.058389 0
M  V30 9329 H 887.904 3.9409 -0.673263 0
M  V30 9330 H 889.344 4.2275 0.325285 0
M  V30 9331 C 887.803 3.10725 1.30199 0
M  V30 9332 O 888.333 3.22491 2.39505 0
M  V30 9333 N 886.539 2.6525 1.18706 0
M  V30 9334 H 886.086 2.55875 0.297618 0
M  V30 9335 H 886.044 2.40913 2.02011 0
M  V30 9336 N 889.816 0.795718 1.36037 0
M  V30 9337 C 890.726 0.199784 2.33748 0
M  V30 9338 C 891.742 -0.651436 1.61345 0
M  V30 9339 O 892.918 -0.565743 1.93291 0
M  V30 9340 C 889.983 -0.650475 3.40543 0
M  V30 9341 C 889.044 0.219974 4.28736 0
M  V30 9342 C 888.277 -0.589798 5.30431 0
M  V30 9343 O 888.5 -1.82532 5.40406 0
M  V30 9344 O 887.434 0.0136187 6.01898 0
M  V30 9345 H 891.26 1.00782 2.8649 0
M  V30 9346 H 888.845 0.557293 1.38617 0
M  V30 9347 H 890.727 -1.13512 4.05824 0
M  V30 9348 H 889.402 -1.4363 2.9009 0
M  V30 9349 H 888.309 0.751516 3.66474 0
M  V30 9350 H 889.642 0.969468 4.82558 0
M  V30 9351 N 891.294 -1.47756 0.548274 0
M  V30 9352 C 892.226 -2.27921 -0.24177 0
M  V30 9353 C 893.239 -1.36471 -0.887658 0
M  V30 9354 O 894.428 -1.6137 -0.763016 0
M  V30 9355 C 891.528 -3.10449 -1.35922 0
M  V30 9356 C 890.701 -4.298 -0.811808 0
M  V30 9357 C 889.76 -4.93994 -1.81264 0
M  V30 9358 O 888.786 -5.52657 -1.3623 0
M  V30 9359 N 889.988 -4.87882 -3.14566 0
M  V30 9360 H 892.753 -2.96365 0.445848 0
M  V30 9361 H 890.314 -1.57286 0.383769 0
M  V30 9362 H 892.306 -3.50261 -2.02729 0
M  V30 9363 H 890.876 -2.44306 -1.95021 0
M  V30 9364 H 890.096 -3.94186 0.0327929 0
M  V30 9365 H 891.384 -5.0702 -0.425272 0
M  V30 9366 H 890.782 -4.41405 -3.53805 0
M  V30 9367 H 889.339 -5.3174 -3.76956 0
M  V30 9368 N 892.772 -0.284283 -1.55015 0
M  V30 9369 C 894.049 0.382125 -1.91831 0
M  V30 9370 C 894.429 1.73007 -1.20962 0
M  V30 9371 O 893.777 2.25962 -0.339594 0
M  V30 9372 C 893.987 0.513341 -3.45204 0
M  V30 9373 C 895.335 0.791989 -4.17148 0
M  V30 9374 O 896.359 0.597799 -3.51148 0
M  V30 9375 O 895.218 1.16394 -5.33961 0
M  V30 9376 H 892.312 0.210707 -0.799707 0
M  V30 9377 H 894.858 -0.331111 -1.66438 0
M  V30 9378 H 893.63 -0.434911 -3.88876 0
M  V30 9379 H 893.253 1.27569 -3.76579 0
M  V30 9380 N 894.251 1.57596 -0.0117121 0
M  V30 9381 C 895.214 2.08089 0.960816 0
M  V30 9382 C 896.214 0.992519 1.26514 0
M  V30 9383 O 897.404 1.25475 1.20837 0
M  V30 9384 C 894.536 2.53217 2.28241 0
M  V30 9385 H 895.729 2.9529 0.523829 0
M  V30 9386 H 893.282 1.54508 0.235995 0
M  V30 9387 H 894.017 1.69294 2.76604 0
M  V30 9388 H 893.802 3.32714 2.0747 0
M  V30 9389 H 895.292 2.92568 2.97983 0
M  V30 9390 N 895.729 -0.261212 1.5542 0
M  V30 9391 C 896.692 -1.30645 1.8832 0
M  V30 9392 C 897.692 -1.41782 0.758588 0
M  V30 9393 O 898.882 -1.40729 1.02669 0
M  V30 9394 C 896.014 -2.6862 2.09895 0
M  V30 9395 H 897.207 -1.02698 2.81768 0
M  V30 9396 H 894.76 -0.499838 1.48092 0
M  V30 9397 H 895.495 -3.0173 1.18868 0
M  V30 9398 H 895.28 -2.61921 2.91787 0
M  V30 9399 H 896.77 -3.44121 2.36581 0
M  V30 9400 N 897.207 -1.48554 -0.526253 0
M  V30 9401 C 898.139 -1.59446 -1.6465 0
M  V30 9402 C 899.152 -0.478525 -1.55608 0
M  V30 9403 O 900.341 -0.74953 -1.62001 0
M  V30 9404 C 897.441 -1.51164 -3.03319 0
M  V30 9405 C 896.614 -2.77861 -3.37805 0
M  V30 9406 C 895.673 -2.62982 -4.5577 0
M  V30 9407 O 894.699 -3.36876 -4.58806 0
M  V30 9408 N 895.901 -1.72847 -5.5417 0
M  V30 9409 H 898.666 -2.56055 -1.55743 0
M  V30 9410 H 896.227 -1.45325 -0.713606 0
M  V30 9411 H 898.219 -1.389 -3.80117 0
M  V30 9412 H 896.789 -0.625147 -3.06285 0
M  V30 9413 H 896.009 -3.04663 -2.50149 0
M  V30 9414 H 897.297 -3.61908 -3.57632 0
M  V30 9415 H 896.695 -1.12022 -5.54498 0
M  V30 9416 H 895.252 -1.6652 -6.3017 0
M  V30 9417 N 898.685 0.775411 -1.37205 0
M  V30 9418 C 899.632 1.88857 -1.32671 0
M  V30 9419 C 900.602 1.64976 -0.192899 0
M  V30 9420 O 901.787 1.86944 -0.381673 0
M  V30 9421 C 898.927 3.25871 -1.13588 0
M  V30 9422 C 898.04 3.61731 -2.36167 0
M  V30 9423 C 897.175 4.87934 -2.09985 0
M  V30 9424 C 896.214 5.16514 -3.2845 0
M  V30 9425 N 895.351 6.33905 -3.01842 0
M  V30 9426 H 900.191 1.92068 -2.27846 0
M  V30 9427 H 897.728 0.939066 -1.13225 0
M  V30 9428 H 899.686 4.04903 -1.00546 0
M  V30 9429 H 898.316 3.22045 -0.220613 0
M  V30 9430 H 897.368 2.77712 -2.59962 0
M  V30 9431 H 898.68 3.78792 -3.24528 0
M  V30 9432 H 897.834 5.74863 -1.93953 0
M  V30 9433 H 896.573 4.7297 -1.18956 0
M  V30 9434 H 895.578 4.28063 -3.45025 0
M  V30 9435 H 896.803 5.33389 -4.20325 0
M  V30 9436 H 894.749 6.20306 -2.13439 0
M  V30 9437 H 894.666 6.51364 -3.83746 0
M  V30 9438 H 895.934 7.23779 -2.8942 0
M  V30 9439 N 900.163 1.21714 1.00117 0
M  V30 9440 C 901.41 1.0367 1.73951 0
M  V30 9441 C 901.738 -0.429289 1.89703 0
M  V30 9442 O 900.993 -1.33475 1.43119 0
M  V30 9443 C 901.292 1.68345 3.15269 0
M  V30 9444 C 900.958 3.18214 3.19454 0
M  V30 9445 C 899.62 3.59109 3.20303 0
M  V30 9446 C 901.972 4.14179 3.16394 0
M  V30 9447 C 899.3 4.94467 3.15783 0
M  V30 9448 C 901.652 5.49502 3.13416 0
M  V30 9449 C 900.316 5.8979 3.12577 0
M  V30 9450 H 899.586 0.379355 0.63653 0
M  V30 9451 H 902.233 1.51361 1.17312 0
M  V30 9452 H 900.538 1.12957 3.75164 0
M  V30 9453 H 902.235 1.51882 3.71124 0
M  V30 9454 H 898.825 2.85646 3.19538 0
M  V30 9455 H 903.009 3.83607 3.14895 0
M  V30 9456 H 898.265 5.24923 3.13473 0
M  V30 9457 H 902.439 6.23595 3.10003 0
M  V30 9458 H 900.066 6.94643 3.08829 0
M  V30 9459 N 901.641 -1.19671 1.02551 0
M  V30 9460 C 902.918 -1.85014 0.634771 0
M  V30 9461 C 903.298 -1.91574 -0.886706 0
M  V30 9462 O 902.646 -1.43022 -1.78205 0
M  V30 9463 C 902.856 -3.24167 1.29292 0
M  V30 9464 C 904.204 -4.00363 1.41402 0
M  V30 9465 O 905.228 -3.33553 1.24983 0
M  V30 9466 O 904.087 -5.2003 1.6802 0
M  V30 9467 H 901.181 -0.797147 0.220196 0
M  V30 9468 H 903.727 -1.27188 1.12345 0
M  V30 9469 H 902.499 -3.14208 2.33215 0
M  V30 9470 H 902.122 -3.89634 0.791895 0
M  V30 9471 N 903.119 -0.802921 -1.35613 0
M  V30 9472 C 904.53 -0.443004 -1.81368 0
M  V30 9473 C 904.881 1.03459 -1.66706 0
M  V30 9474 O 904.006 1.80372 -1.19561 0
M  V30 9475 C 904.601 -0.797324 -3.29284 0
M  V30 9476 C 903.16 -0.490055 -3.73196 0
M  V30 9477 C 902.307 -1.02487 -2.57666 0
M  V30 9478 H 905.258 -0.994888 -1.23643 0
M  V30 9479 H 905.279 -0.0934638 -3.80385 0
M  V30 9480 H 904.791 -1.87278 -3.39924 0
M  V30 9481 H 902.892 0.576818 -3.68108 0
M  V30 9482 H 903.005 -1.02012 -4.68114 0
M  V30 9483 H 901.369 -0.44738 -2.5074 0
M  V30 9484 H 902.152 -2.10636 -2.71085 0
M  V30 9485 N 904.597 1.47463 -0.556102 0
M  V30 9486 C 905.845 2.02075 -0.0315712 0
M  V30 9487 C 906.166 1.43292 1.32259 0
M  V30 9488 O 905.436 0.60771 1.86236 0
M  V30 9489 H 904.016 0.74695 -0.0086816 0
M  V30 9490 H 906.678 1.80879 -0.725859 0
M  V30 9491 H 905.774 3.12047 0.0573538 0
M  V30 9492 N 906.075 0.2925 1.54862 0
M  V30 9493 C 907.303 -0.322113 2.04377 0
M  V30 9494 C 907.718 -1.48164 1.17016 0
M  V30 9495 O 907.075 -1.81466 0.19395 0
M  V30 9496 C 907.126 -0.786506 3.5284 0
M  V30 9497 O 906.847 0.326863 4.36879 0
M  V30 9498 C 908.348 -1.46715 4.18318 0
M  V30 9499 H 905.568 -0.0712074 0.667211 0
M  V30 9500 H 908.112 0.429657 1.99935 0
M  V30 9501 H 906.267 -1.48832 3.5767 0
M  V30 9502 H 906.681 -0.0331558 5.2449 0
M  V30 9503 H 908.155 -1.74333 5.23748 0
M  V30 9504 H 908.632 -2.40443 3.67538 0
M  V30 9505 H 909.238 -0.808735 4.1754 0
M  V30 9506 N 907.553 -1.57587 0.0200696 0
M  V30 9507 C 908.802 -1.90602 -0.659822 0
M  V30 9508 C 909.115 -0.897216 -1.73808 0
M  V30 9509 O 910.321 -1.11829 -2.47399 0
M  V30 9510 C 908.777 -3.38416 -1.22484 0
M  V30 9511 C 908.385 -4.47637 -0.180339 0
M  V30 9512 C 910.129 -3.80513 -1.88176 0
M  V30 9513 C 908.036 -5.86542 -0.756482 0
M  V30 9514 H 906.966 -0.711272 -0.250216 0
M  V30 9515 H 909.617 -1.83308 0.0838942 0
M  V30 9516 H 907.999 -3.40613 -2.01987 0
M  V30 9517 H 909.173 -4.56987 0.591573 0
M  V30 9518 H 907.488 -4.14687 0.377302 0
M  V30 9519 H 910.085 -4.8164 -2.32222 0
M  V30 9520 H 910.428 -3.15091 -2.72073 0
M  V30 9521 H 910.961 -3.80701 -1.15377 0
M  V30 9522 H 907.7 -6.55485 0.0441468 0
M  V30 9523 H 907.22 -5.80816 -1.49709 0
M  V30 9524 H 908.899 -6.3483 -1.249 0
M  V30 9525 N 909.032 0.252966 -1.55557 0
M  V30 9526 C 910.448 0.60118 -1.47844 0
M  V30 9527 C 910.648 1.88612 -0.709055 0
M  V30 9528 O 909.704 2.51395 -0.235964 0
M  V30 9529 C 911.017 0.709539 -2.92209 0
M  V30 9530 C 912.565 0.802269 -3.02544 0
M  V30 9531 C 913.04 0.94224 -4.48203 0
M  V30 9532 N 914.531 1.00726 -4.52116 0
M  V30 9533 C 915.266 1.13472 -5.6206 0
M  V30 9534 N 914.762 1.22811 -6.81828 0
M  V30 9535 N 916.555 1.1674 -5.49844 0
M  V30 9536 H 908.706 -0.590635 -2.04023 0
M  V30 9537 H 910.969 -0.202986 -0.926013 0
M  V30 9538 H 910.675 -0.164505 -3.51315 0
M  V30 9539 H 910.549 1.58343 -3.42356 0
M  V30 9540 H 912.936 1.66677 -2.43522 0
M  V30 9541 H 913.017 -0.0966469 -2.55617 0
M  V30 9542 H 912.661 0.0823209 -5.07833 0
M  V30 9543 H 912.591 1.85611 -4.92805 0
M  V30 9544 H 915.082 0.946684 -3.6585 0
M  V30 9545 H 915.395 1.32426 -7.61369 0
M  V30 9546 H 913.74 1.19779 -6.84601 0
M  V30 9547 H 916.931 1.09089 -4.55211 0
M  V30 9548 H 917.104 1.26329 -6.35567 0
M  V30 9549 N 910.51 1.48831 0.518367 0
M  V30 9550 C 911.44 1.67119 1.63075 0
M  V30 9551 C 912.421 0.519948 1.61958 0
M  V30 9552 O 913.606 0.753824 1.78972 0
M  V30 9553 C 910.736 1.72158 3.01627 0
M  V30 9554 C 909.69 2.86898 3.17606 0
M  V30 9555 C 909.016 2.77035 4.57335 0
M  V30 9556 C 910.316 4.28057 2.99274 0
M  V30 9557 H 912.01 2.60248 1.48025 0
M  V30 9558 H 909.556 1.2524 0.710694 0
M  V30 9559 H 911.509 1.83539 3.7933 0
M  V30 9560 H 910.233 0.756157 3.17726 0
M  V30 9561 H 908.892 2.75091 2.42323 0
M  V30 9562 H 908.54 1.78438 4.70286 0
M  V30 9563 H 908.24 3.54036 4.6897 0
M  V30 9564 H 909.764 2.904 5.37122 0
M  V30 9565 H 911.178 4.40636 3.6676 0
M  V30 9566 H 909.575 5.06145 3.22393 0
M  V30 9567 H 910.645 4.4371 1.95574 0
M  V30 9568 N 911.988 -0.768124 1.37614 0
M  V30 9569 C 912.918 -1.89537 1.36374 0
M  V30 9570 C 913.899 -1.68513 0.231803 0
M  V30 9571 O 915.084 -1.89318 0.432705 0
M  V30 9572 C 912.214 -3.26871 1.17358 0
M  V30 9573 C 911.168 -3.62466 2.27602 0
M  V30 9574 C 910.494 -4.9838 1.93705 0
M  V30 9575 C 911.794 -3.68841 3.69802 0
M  V30 9576 H 913.488 -1.90832 2.30702 0
M  V30 9577 H 911.034 -0.91672 1.11051 0
M  V30 9578 H 912.987 -4.05371 1.15119 0
M  V30 9579 H 911.711 -3.26018 0.194865 0
M  V30 9580 H 910.37 -2.86276 2.29002 0
M  V30 9581 H 910.018 -4.94071 0.943539 0
M  V30 9582 H 909.718 -5.23165 2.6753 0
M  V30 9583 H 911.242 -5.79276 1.93059 0
M  V30 9584 H 912.656 -4.37485 3.70513 0
M  V30 9585 H 911.053 -4.05126 4.42711 0
M  V30 9586 H 912.123 -2.69415 4.03167 0
M  V30 9587 N 913.466 -1.22244 -0.994698 0
M  V30 9588 C 914.691 -1.07299 -1.77487 0
M  V30 9589 C 915.116 0.372302 -1.84379 0
M  V30 9590 O 914.474 1.2689 -1.29494 0
M  V30 9591 C 914.522 -1.68675 -3.18718 0
M  V30 9592 O 913.626 -0.939202 -4.01563 0
M  V30 9593 H 912.967 -0.376979 -0.546611 0
M  V30 9594 H 915.497 -1.62003 -1.24965 0
M  V30 9595 H 915.507 -1.73324 -3.69354 0
M  V30 9596 H 914.182 -2.73849 -3.13017 0
M  V30 9597 H 912.759 -0.968583 -3.60101 0
M  V30 9598 N 914.944 1.19125 -1.03184 0
M  V30 9599 C 915.892 2.24492 -0.608781 0
M  V30 9600 C 916.886 1.65529 0.360065 0
M  V30 9601 O 918.092 1.78546 0.22832 0
M  V30 9602 H 914.467 0.73048 -0.178616 0
M  V30 9603 H 916.438 2.5749 -1.50803 0
M  V30 9604 C 915.187 3.47693 0.0215126 0
M  V30 9605 H 914.51 3.93354 -0.715024 0
M  V30 9606 H 915.95 4.23072 0.280429 0
M  V30 9607 C 914.409 3.12088 1.26896 0
M  V30 9608 O 914.939 3.25013 2.36071 0
M  V30 9609 N 913.145 2.66494 1.15886 0
M  V30 9610 H 912.692 2.56176 0.270463 0
M  V30 9611 H 912.65 2.43042 1.99444 0
M  V30 9612 N 916.422 0.810101 1.35185 0
M  V30 9613 C 917.833 0.452616 1.81131 0
M  V30 9614 C 918.184 -1.02573 1.67252 0
M  V30 9615 O 917.309 -1.79735 1.20516 0
M  V30 9616 C 917.904 0.814775 3.28857 0
M  V30 9617 C 916.463 0.509839 3.72931 0
M  V30 9618 C 915.61 1.03852 2.57119 0
M  V30 9619 H 918.561 1.00143 1.23114 0
M  V30 9620 H 918.582 0.113635 3.8033 0
M  V30 9621 H 918.094 1.89078 3.38926 0
M  V30 9622 H 916.195 -0.557289 3.68409 0
M  V30 9623 H 916.308 1.04493 4.67566 0
M  V30 9624 H 914.672 0.460671 2.50499 0
M  V30 9625 H 915.455 2.12071 2.69964 0
M  V30 9626 N 917.9 -1.47166 0.563914 0
M  V30 9627 C 918.848 -2.31798 -0.193009 0
M  V30 9628 C 919.842 -1.43338 -0.902805 0
M  V30 9629 O 921.048 -1.60067 -0.823328 0
M  V30 9630 H 917.423 -0.747613 -0.0811139 0
M  V30 9631 H 919.394 -2.93476 0.539876 0
M  V30 9632 C 918.143 -3.26131 -1.20555 0
M  V30 9633 H 917.466 -3.94166 -0.668803 0
M  V30 9634 H 918.906 -3.88167 -1.70593 0
M  V30 9635 C 917.365 -2.50132 -2.25689 0
M  V30 9636 O 917.895 -2.25064 -3.3273 0
M  V30 9637 N 916.101 -2.11022 -1.99795 0
M  V30 9638 H 915.648 -2.3161 -1.1276 0
M  V30 9639 H 915.606 -1.60489 -2.70353 0
M  V30 9640 N 919.378 -0.300708 -1.54705 0
M  V30 9641 C 920.325 0.57552 -2.23509 0
M  V30 9642 C 921.295 1.12979 -1.21758 0
M  V30 9643 O 922.48 1.17437 -1.50377 0
M  V30 9644 C 919.62 1.74167 -2.97926 0
M  V30 9645 C 918.733 1.21882 -4.1445 0
M  V30 9646 C 917.868 2.34881 -4.7645 0
M  V30 9647 C 916.907 1.79729 -5.85119 0
M  V30 9648 N 916.044 2.863 -6.41075 0
M  V30 9649 H 920.884 -0.0178257 -2.97995 0
M  V30 9650 H 918.421 -0.0205666 -1.47086 0
M  V30 9651 H 920.379 2.42753 -3.39303 0
M  V30 9652 H 919.009 2.30665 -2.25817 0
M  V30 9653 H 918.061 0.425227 -3.78016 0
M  V30 9654 H 919.373 0.775065 -4.92741 0
M  V30 9655 H 918.527 3.11415 -5.20678 0
M  V30 9656 H 917.266 2.82584 -3.97489 0
M  V30 9657 H 916.271 1.01684 -5.40315 0
M  V30 9658 H 917.496 1.32931 -6.65963 0
M  V30 9659 H 915.442 3.33337 -5.64998 0
M  V30 9660 H 915.359 2.46419 -7.14712 0
M  V30 9661 H 916.627 3.62732 -6.89961 0
M  V30 9662 N 920.856 1.57574 -0.0284266 0
M  V30 9663 C 921.766 2.13637 0.96936 0
M  V30 9664 C 922.782 1.08845 1.35752 0
M  V30 9665 O 923.958 1.40899 1.43908 0
M  V30 9666 C 921.023 2.65179 2.2334 0
M  V30 9667 C 920.084 3.84683 1.90572 0
M  V30 9668 C 919.317 4.33758 3.1095 0
M  V30 9669 O 919.54 3.82009 4.23586 0
M  V30 9670 O 918.474 5.2561 2.93288 0
M  V30 9671 H 922.3 2.99169 0.52267 0
M  V30 9672 H 919.885 1.48159 0.192135 0
M  V30 9673 H 921.767 2.98402 2.97547 0
M  V30 9674 H 920.442 1.82731 2.67191 0
M  V30 9675 H 919.349 3.56386 1.13753 0
M  V30 9676 H 920.682 4.68292 1.51538 0
M  V30 9677 N 922.334 -0.244713 1.55689 0
M  V30 9678 C 923.282 -1.32276 1.91326 0
M  V30 9679 C 924.276 -1.49714 0.792589 0
M  V30 9680 O 925.482 -1.51163 0.977227 0
M  V30 9681 H 921.857 -0.442979 0.607679 0
M  V30 9682 H 923.828 -0.99486 2.81327 0
M  V30 9683 C 922.577 -2.67077 2.22633 0
M  V30 9684 H 921.9 -2.54458 3.08368 0
M  V30 9685 H 923.34 -3.41378 2.5147 0
M  V30 9686 C 921.799 -3.20335 1.04342 0
M  V30 9687 O 922.329 -4.00633 0.292543 0
M  V30 9688 N 920.535 -2.78392 0.833457 0
M  V30 9689 H 920.082 -2.13202 1.44577 0
M  V30 9690 H 920.04 -3.1437 0.0436713 0
M  V30 9691 N 923.813 -1.49104 -0.510467 0
M  V30 9692 C 925.229 -1.35657 -0.840797 0
M  V30 9693 C 925.429 -0.382425 -1.97838 0
M  V30 9694 O 924.485 0.189331 -2.51789 0
M  V30 9695 C 925.798 -2.76155 -1.18992 0
M  V30 9696 C 927.346 -2.84786 -1.29868 0
M  V30 9697 C 927.821 -4.2603 -1.68115 0
M  V30 9698 N 929.312 -4.28796 -1.75181 0
M  V30 9699 C 930.047 -5.35041 -2.062 0
M  V30 9700 N 929.543 -6.51543 -2.35508 0
M  V30 9701 N 931.336 -5.2245 -2.07371 0
M  V30 9702 H 923.487 -2.11042 0.23982 0
M  V30 9703 H 925.75 -0.946946 0.0446824 0
M  V30 9704 H 925.456 -3.49092 -0.427484 0
M  V30 9705 H 925.33 -3.10922 -2.13558 0
M  V30 9706 H 927.717 -2.12092 -2.05186 0
M  V30 9707 H 927.798 -2.53613 -0.333758 0
M  V30 9708 H 927.442 -4.99247 -0.933512 0
M  V30 9709 H 927.372 -4.5466 -2.65691 0
M  V30 9710 H 929.863 -3.44771 -1.5473 0
M  V30 9711 H 930.176 -7.28342 -2.58337 0
M  V30 9712 H 928.521 -6.54785 -2.32985 0
M  V30 9713 H 931.712 -4.30444 -1.83945 0
M  V30 9714 H 931.885 -6.05347 -2.31212 0
M  V30 9715 N 925.291 0.760815 -1.38019 0
M  V30 9716 C 926.224 1.88212 -1.2904 0
M  V30 9717 C 927.202 1.61721 -0.168805 0
M  V30 9718 O 928.386 1.85318 -0.344893 0
M  V30 9719 C 925.513 3.23672 -0.997702 0
M  V30 9720 C 924.559 3.6906 -2.13769 0
M  V30 9721 S 925.392 3.81445 -3.75845 0
M  V30 9722 C 926.548 5.19736 -3.48748 0
M  V30 9723 H 926.781 1.95541 -2.23944 0
M  V30 9724 H 924.314 0.923051 -1.2377 0
M  V30 9725 H 926.272 4.01904 -0.835657 0
M  V30 9726 H 924.933 3.14031 -0.065967 0
M  V30 9727 H 924.126 4.67295 -1.88816 0
M  V30 9728 H 923.728 2.97961 -2.26043 0
M  V30 9729 H 926.02 6.05259 -3.04414 0
M  V30 9730 H 926.963 5.49706 -4.46351 0
M  V30 9731 H 927.371 4.88191 -2.83425 0
M  V30 9732 N 926.769 1.22769 0.988202 0
M  V30 9733 C 928.017 1.05301 1.725 0
M  V30 9734 C 928.338 -0.412103 1.90596 0
M  V30 9735 O 927.608 -1.29606 1.46898 0
M  V30 9736 H 926.188 0.386658 0.639144 0
M  V30 9737 H 928.85 1.54359 1.18993 0
M  V30 9738 H 927.946 1.53465 2.71763 0
M  V30 9739 N 928.247 -1.18576 1.03814 0
M  V30 9740 C 929.195 -2.24166 0.620678 0
M  V30 9741 C 930.189 -1.65718 -0.351282 0
M  V30 9742 O 931.395 -1.78665 -0.218848 0
M  V30 9743 H 927.77 -0.729522 0.182487 0
M  V30 9744 H 929.741 -2.56686 1.52166 0
M  V30 9745 C 928.49 -3.477 -0.00307331 0
M  V30 9746 H 927.813 -3.92969 0.735874 0
M  V30 9747 H 929.253 -4.23214 -0.257988 0
M  V30 9748 C 927.712 -3.12757 -1.2524 0
M  V30 9749 O 928.242 -3.26261 -2.34344 0
M  V30 9750 N 926.448 -2.67104 -1.14471 0
M  V30 9751 H 925.995 -2.56316 -0.256873 0
M  V30 9752 H 925.953 -2.44096 -1.98153 0
M  V30 9753 N 929.725 -0.817259 -1.34754 0
M  V30 9754 C 931.136 -0.462215 -1.80888 0
M  V30 9755 C 931.487 1.01685 -1.67794 0
M  V30 9756 O 930.612 1.79094 -1.21468 0
M  V30 9757 C 931.207 -0.832204 -3.2842 0
M  V30 9758 C 929.766 -0.52961 -3.72655 0
M  V30 9759 C 928.913 -1.05214 -2.56564 0
M  V30 9760 H 931.864 -1.00795 -1.22581 0
M  V30 9761 H 931.885 -0.133804 -3.80265 0
M  V30 9762 H 931.397 -1.90873 -3.37919 0
M  V30 9763 H 929.498 0.537743 -3.68699 0
M  V30 9764 H 929.611 -1.06971 -4.67005 0
M  V30 9765 H 927.975 -0.473949 -2.50251 0
M  V30 9766 H 928.758 -2.135 -2.68836 0
M  V30 9767 N 931.203 1.46865 -0.571711 0
M  V30 9768 C 932.449 2.0273 -0.0531858 0
M  V30 9769 C 932.782 1.44353 1.29907 0
M  V30 9770 O 932.057 0.604488 1.84868 0
M  V30 9771 C 932.34 3.60092 0.0243831 0
M  V30 9772 C 932.193 4.28874 -1.35599 0
M  V30 9773 C 933.512 4.33994 0.730563 0
M  V30 9774 H 930.631 0.736706 -0.0208018 0
M  V30 9775 H 933.273 1.75132 -0.736794 0
M  V30 9776 H 931.423 3.83736 0.606565 0
M  V30 9777 H 933.095 4.16527 -1.98249 0
M  V30 9778 H 931.338 3.88664 -1.92674 0
M  V30 9779 H 932.009 5.37561 -1.25429 0
M  V30 9780 H 934.485 4.1543 0.236098 0
M  V30 9781 H 933.361 5.43699 0.753836 0
M  V30 9782 H 933.622 4.04257 1.78967 0
M  V30 9783 N 932.681 0.308908 1.54543 0
M  V30 9784 C 933.906 -0.303196 2.05172 0
M  V30 9785 C 934.331 -1.46133 1.18434 0
M  V30 9786 O 933.689 -1.803 0.190162 0
M  V30 9787 C 933.737 -0.729526 3.53143 0
M  V30 9788 O 932.841 -1.83348 3.69401 0
M  V30 9789 H 932.182 -0.0575066 0.661505 0
M  V30 9790 H 934.712 0.453055 1.99521 0
M  V30 9791 H 934.722 -1.01619 3.95143 0
M  V30 9792 H 933.397 0.117622 4.15734 0
M  V30 9793 H 931.974 -1.54676 3.39308 0
M  V30 9794 N 934.159 -1.57557 0.0367827 0
M  V30 9795 C 935.389 -1.96134 -0.649225 0
M  V30 9796 C 935.797 -0.912279 -1.65753 0
M  V30 9797 O 935.14 0.113569 -1.83349 0
M  V30 9798 C 935.202 -3.30889 -1.40545 0
M  V30 9799 C 934.866 -4.53622 -0.554609 0
M  V30 9800 C 935.863 -5.19611 0.17331 0
M  V30 9801 C 933.548 -4.99907 -0.48976 0
M  V30 9802 C 935.542 -6.3021 0.95467 0
M  V30 9803 C 933.229 -6.10386 0.295299 0
M  V30 9804 C 934.227 -6.75398 1.01621 0
M  V30 9805 O 933.915 -7.83755 1.78839 0
M  V30 9806 H 933.647 -0.650662 -0.183344 0
M  V30 9807 H 936.201 -2.05179 0.0951512 0
M  V30 9808 H 934.431 -3.18356 -2.19513 0
M  V30 9809 H 936.12 -3.54315 -1.9803 0
M  V30 9810 H 936.886 -4.84819 0.132589 0
M  V30 9811 H 932.765 -4.49105 -1.04046 0
M  V30 9812 H 936.309 -6.80886 1.51789 0
M  V30 9813 H 932.206 -6.44616 0.33771 0
M  V30 9814 H 932.974 -8.0046 1.70898 0
M  V30 9815 N 935.637 0.236453 -1.55816 0
M  V30 9816 C 936.569 1.31602 -1.87653 0
M  V30 9817 C 937.582 1.43782 -0.763584 0
M  V30 9818 O 938.771 1.44945 -1.04178 0
M  V30 9819 C 935.871 2.69342 -2.05689 0
M  V30 9820 C 935.044 2.79298 -3.36617 0
M  V30 9821 C 934.103 3.97952 -3.44268 0
M  V30 9822 O 933.129 3.86989 -4.17406 0
M  V30 9823 N 934.331 5.11594 -2.74321 0
M  V30 9824 H 937.096 1.04623 -2.80845 0
M  V30 9825 H 934.657 0.426534 -1.5618 0
M  V30 9826 H 936.649 3.47074 -2.08138 0
M  V30 9827 H 935.219 2.88984 -1.19192 0
M  V30 9828 H 934.439 1.8816 -3.46395 0
M  V30 9829 H 935.727 2.82908 -4.22895 0
M  V30 9830 H 935.125 5.23394 -2.14651 0
M  V30 9831 H 933.682 5.87422 -2.8245 0
M  V30 9832 N 937.115 1.49373 0.502552 0
M  V30 9833 C 938.364 1.58028 1.25339 0
M  V30 9834 C 938.677 0.271494 1.93707 0
M  V30 9835 O 939.883 0.236584 2.70467 0
M  V30 9836 C 938.339 2.78817 2.27572 0
M  V30 9837 C 937.947 4.16448 1.65151 0
M  V30 9838 C 939.691 2.96802 3.03494 0
M  V30 9839 C 937.598 5.28461 2.65486 0
M  V30 9840 H 936.528 0.588396 0.471494 0
M  V30 9841 H 939.179 1.75756 0.52744 0
M  V30 9842 H 937.561 2.5458 3.03323 0
M  V30 9843 H 938.735 4.50816 0.954029 0
M  V30 9844 H 937.05 4.03809 1.01625 0
M  V30 9845 H 939.647 3.77656 3.78524 0
M  V30 9846 H 939.99 2.07303 3.61014 0
M  V30 9847 H 940.523 3.21071 2.34858 0
M  V30 9848 H 937.262 6.20015 2.12749 0
M  V30 9849 H 936.782 4.9855 3.33479 0
M  V30 9850 H 938.461 5.5773 3.27943 0
M  V30 9851 N 938.594 -0.753485 1.38421 0
M  V30 9852 C 939.843 -1.50797 1.33952 0
M  V30 9853 C 940.156 -1.95482 -0.0678464 0
M  V30 9854 O 941.362 -2.7048 -0.235078 0
M  V30 9855 C 939.818 -2.72393 2.35224 0
M  V30 9856 C 939.426 -2.34733 3.81582 0
M  V30 9857 C 941.17 -3.50281 2.39798 0
M  V30 9858 C 939.077 -3.52939 4.7454 0
M  V30 9859 H 938.007 -0.566211 0.497916 0
M  V30 9860 H 940.658 -0.823659 1.63976 0
M  V30 9861 H 939.04 -3.42806 1.98243 0
M  V30 9862 H 940.214 -1.71985 4.27502 0
M  V30 9863 H 938.529 -1.69978 3.80127 0
M  V30 9864 H 941.126 -4.38172 3.06447 0
M  V30 9865 H 941.469 -3.91444 1.41695 0
M  V30 9866 H 942.002 -2.86881 2.75579 0
M  V30 9867 H 938.741 -3.16843 5.73839 0
M  V30 9868 H 938.261 -4.1473 4.33312 0
M  V30 9869 H 939.94 -4.19519 4.92557 0
M  V30 9870 N 940.072 -1.23292 -0.981677 0
M  V30 9871 C 941.483 -1.05936 -1.53735 0
M  V30 9872 C 941.834 0.373695 -1.92608 0
M  V30 9873 O 940.959 1.26024 -1.75917 0
M  V30 9874 C 941.554 -1.91682 -2.79363 0
M  V30 9875 C 940.113 -1.78591 -3.31334 0
M  V30 9876 C 939.26 -1.87463 -2.04335 0
M  V30 9877 H 942.211 -1.36973 -0.801505 0
M  V30 9878 H 942.232 -1.44085 -3.52164 0
M  V30 9879 H 941.744 -2.95975 -2.51039 0
M  V30 9880 H 939.845 -0.770755 -3.64541 0
M  V30 9881 H 939.958 -2.61902 -4.01179 0
M  V30 9882 H 938.322 -1.3103 -2.18411 0
M  V30 9883 H 939.105 -2.9331 -1.78394 0
M  V30 9884 N 941.55 1.18024 -1.04442 0
M  V30 9885 C 942.78 1.91753 -0.769044 0
M  V30 9886 C 943.188 1.76629 0.678141 0
M  V30 9887 O 942.531 1.09589 1.47431 0
M  V30 9888 C 942.593 3.43505 -1.0604 0
M  V30 9889 C 942.257 3.82409 -2.50225 0
M  V30 9890 C 943.254 3.8588 -3.48414 0
M  V30 9891 C 940.939 4.13594 -2.85036 0
M  V30 9892 C 942.933 4.19993 -4.79463 0
M  V30 9893 C 940.62 4.47377 -4.1629 0
M  V30 9894 C 941.618 4.50553 -5.13314 0
M  V30 9895 O 941.306 4.83546 -6.42214 0
M  V30 9896 H 941.038 0.615466 -0.279603 0
M  V30 9897 H 943.592 1.5065 -1.3962 0
M  V30 9898 H 941.822 3.84866 -0.376125 0
M  V30 9899 H 943.511 3.98486 -0.772235 0
M  V30 9900 H 944.277 3.6192 -3.2286 0
M  V30 9901 H 940.156 4.10297 -2.10185 0
M  V30 9902 H 943.7 4.22387 -5.55189 0
M  V30 9903 H 939.597 4.70798 -4.4161 0
M  V30 9904 H 940.365 5.01433 -6.46921 0
M  V30 9905 N 943.028 0.824394 1.34319 0
M  V30 9906 C 943.991 0.252696 2.27803 0
M  V30 9907 C 944.991 -0.570254 1.50349 0
M  V30 9908 O 946.181 -0.386145 1.69866 0
M  V30 9909 C 943.313 -0.645575 3.34731 0
M  V30 9910 H 944.506 1.07742 2.79878 0
M  V30 9911 H 942.059 0.596367 1.44475 0
M  V30 9912 H 942.794 -1.4933 2.87873 0
M  V30 9913 H 942.579 -0.0569478 3.92059 0
M  V30 9914 H 944.069 -1.03933 4.0446 0
M  V30 9915 N 944.506 -1.46559 0.579492 0
M  V30 9916 C 945.754 -2.02 0.0637157 0
M  V30 9917 C 946.075 -1.45378 -1.29962 0
M  V30 9918 O 945.345 -0.637262 -1.85245 0
M  V30 9919 H 943.925 -0.746717 0.0205638 0
M  V30 9920 H 946.587 -1.79702 0.754544 0
M  V30 9921 H 945.683 -3.12099 -0.00770254 0
M  V30 9922 N 945.984 -0.3171 -1.54377 0
M  V30 9923 C 947.232 0.286842 -2.00054 0
M  V30 9924 C 947.553 1.53161 -1.20692 0
M  V30 9925 O 946.823 1.93479 -0.307045 0
M  V30 9926 H 945.403 0.108979 -0.739008 0
M  V30 9927 H 948.065 -0.432152 -1.90049 0
M  V30 9928 H 947.161 0.547729 -3.07256 0
M  V30 9929 N 947.462 1.57535 -0.0451378 0
M  V30 9930 C 948.69 1.96761 0.639742 0
M  V30 9931 C 949.105 0.922405 1.64734 0
M  V30 9932 O 948.462 -0.0940535 1.82257 0
M  V30 9933 C 948.513 3.36066 1.33199 0
M  V30 9934 O 948.234 4.36579 0.364757 0
M  V30 9935 C 949.735 3.90015 2.1072 0
M  V30 9936 H 946.955 0.64769 0.175324 0
M  V30 9937 H 949.499 2.04206 -0.109651 0
M  V30 9938 H 947.654 3.2979 2.03266 0
M  V30 9939 H 948.068 5.17432 0.858168 0
M  V30 9940 H 949.542 4.89785 2.54586 0
M  V30 9941 H 950.019 3.25117 2.95288 0
M  V30 9942 H 950.625 3.99609 1.45577 0
M  V30 9943 N 948.94 -0.228186 1.55939 0
M  V30 9944 C 949.89 -1.28607 1.88267 0
M  V30 9945 C 950.874 -1.42606 0.745139 0
M  V30 9946 O 952.066 -1.45533 1.00743 0
M  V30 9947 C 949.195 -2.63783 2.19712 0
M  V30 9948 C 948.281 -2.53712 3.3984 0
M  V30 9949 N 948.672 -2.13287 4.58631 0
M  V30 9950 C 946.97 -2.84686 3.43322 0
M  V30 9951 C 947.671 -2.14305 5.40785 0
M  V30 9952 N 946.647 -2.54536 4.80325 0
M  V30 9953 H 950.449 -0.964307 2.7763 0
M  V30 9954 H 947.963 -0.436769 1.56416 0
M  V30 9955 H 949.96 -3.40152 2.41044 0
M  V30 9956 H 948.62 -2.9681 1.31657 0
M  V30 9957 H 949.631 -1.84525 4.83912 0
M  V30 9958 H 946.308 -3.22129 2.65592 0
M  V30 9959 H 947.698 -1.85231 6.45863 0
M  V30 9960 N 950.418 -1.49637 -0.494624 0
M  V30 9961 C 951.829 -1.52573 -1.07603 0
M  V30 9962 C 952.18 -0.315591 -1.93645 0
M  V30 9963 O 951.305 0.573966 -2.08649 0
M  V30 9964 C 951.9 -2.7648 -1.95817 0
M  V30 9965 C 950.459 -2.82173 -2.49109 0
M  V30 9966 C 949.606 -2.4657 -1.2688 0
M  V30 9967 H 952.557 -1.56242 -0.278251 0
M  V30 9968 H 952.578 -2.57003 -2.80588 0
M  V30 9969 H 952.09 -3.64538 -1.33167 0
M  V30 9970 H 950.191 -1.9841 -3.15379 0
M  V30 9971 H 950.304 -3.84501 -2.85825 0
M  V30 9972 H 948.668 -1.98489 -1.59607 0
M  V30 9973 H 949.451 -3.3691 -0.659281 0
M  V30 9974 N 951.896 0.746133 -1.38819 0
M  V30 9975 C 953.142 1.50768 -1.35635 0
M  V30 9976 C 953.475 1.94132 0.0512435 0
M  V30 9977 O 952.75 1.65979 1.01396 0
M  V30 9978 C 953.033 2.7551 -2.31875 0
M  V30 9979 C 952.886 2.38236 -3.81528 0
M  V30 9980 C 954.205 3.77566 -2.26124 0
M  V30 9981 H 951.324 0.546922 -0.494009 0
M  V30 9982 H 953.966 0.854017 -1.69725 0
M  V30 9983 H 952.116 3.31285 -2.02935 0
M  V30 9984 H 953.788 1.88178 -4.21173 0
M  V30 9985 H 952.031 1.70601 -3.98846 0
M  V30 9986 H 952.702 3.27517 -4.44339 0
M  V30 9987 H 955.178 3.31349 -2.51689 0
M  V30 9988 H 954.054 4.62531 -2.95561 0
M  V30 9989 H 954.315 4.23689 -1.26254 0
M  V30 9990 N 953.375 1.23811 0.975125 0
M  V30 9991 C 954.338 1.02505 2.05001 0
M  V30 9992 C 955.338 -0.0150084 1.60793 0
M  V30 9993 O 956.528 0.225246 1.72738 0
M  V30 9994 C 953.66 0.552087 3.364 0
M  V30 9995 H 954.853 1.979 2.25335 0
M  V30 9996 H 952.406 1.05929 1.1493 0
M  V30 9997 H 953.141 -0.405394 3.21756 0
M  V30 9998 H 952.926 1.30267 3.69828 0
M  V30 9999 H 954.416 0.423828 4.15444 0
M  V30 10000 N 954.853 -1.17469 1.05066 0
M  V30 10001 C 955.8 -2.21443 0.650512 0
M  V30 10002 C 956.77 -1.62441 -0.346702 0
M  V30 10003 O 957.955 -1.89305 -0.238404 0
M  V30 10004 C 955.095 -3.45087 0.0301014 0
M  V30 10005 C 954.208 -4.18385 1.07599 0
M  V30 10006 C 953.343 -5.29513 0.423038 0
M  V30 10007 C 952.382 -5.94596 1.45333 0
M  V30 10008 N 951.519 -6.97241 0.824623 0
M  V30 10009 H 956.359 -2.55025 1.54163 0
M  V30 10010 H 953.896 -1.25274 0.771032 0
M  V30 10011 H 955.854 -4.15754 -0.347032 0
M  V30 10012 H 954.484 -3.12093 -0.824481 0
M  V30 10013 H 953.536 -3.46446 1.57097 0
M  V30 10014 H 954.848 -4.62899 1.85813 0
M  V30 10015 H 954.002 -6.067 -0.00774975 0
M  V30 10016 H 952.741 -4.86129 -0.391092 0
M  V30 10017 H 951.746 -5.16142 1.89415 0
M  V30 10018 H 952.971 -6.40061 2.26934 0
M  V30 10019 H 950.917 -6.55993 0.0309804 0
M  V30 10020 H 950.834 -7.40059 1.54432 0
M  V30 10021 H 952.102 -7.78375 0.418567 0
M  V30 10022 N 956.331 -0.831506 -1.3388 0
M  V30 10023 C 957.579 -0.422837 -1.97627 0
M  V30 10024 C 957.9 1.01961 -1.6622 0
M  V30 10025 O 957.17 1.70916 -0.957323 0
M  V30 10026 H 955.75 -0.153365 -0.731087 0
M  V30 10027 H 958.412 -1.06284 -1.6337 0
M  V30 10028 H 957.508 -0.548858 -3.07236 0
M  V30 10029 N 957.809 1.4625 -0.587256 0
M  V30 10030 C 958.772 2.28812 0.133238 0
M  V30 10031 C 959.772 1.38645 0.814513 0
M  V30 10032 O 960.962 1.60975 0.665774 0
M  V30 10033 C 958.094 3.19147 1.19824 0
M  V30 10034 H 959.287 2.93991 -0.592386 0
M  V30 10035 H 956.84 1.52435 -0.345416 0
M  V30 10036 H 957.575 2.58725 1.95529 0
M  V30 10037 H 957.36 3.85541 0.71418 0
M  V30 10038 H 958.85 3.81278 1.70344 0
M  V30 10039 N 959.287 0.325282 1.54207 0
M  V30 10040 C 960.219 -0.57395 2.21897 0
M  V30 10041 C 961.232 -1.0785 1.21952 0
M  V30 10042 O 962.421 -0.991782 1.48411 0
M  V30 10043 C 959.521 -1.8005 2.87115 0
M  V30 10044 C 958.694 -1.43435 4.13213 0
M  V30 10045 C 957.753 -2.51862 4.62009 0
M  V30 10046 O 956.779 -2.15934 5.26651 0
M  V30 10047 N 957.981 -3.8282 4.36382 0
M  V30 10048 H 960.746 0.00566918 2.99699 0
M  V30 10049 H 958.307 0.148563 1.61217 0
M  V30 10050 H 960.299 -2.51981 3.16682 0
M  V30 10051 H 958.869 -2.28792 2.13009 0
M  V30 10052 H 958.089 -0.546598 3.90392 0
M  V30 10053 H 959.377 -1.16544 4.95273 0
M  V30 10054 H 958.775 -4.14807 3.84645 0
M  V30 10055 H 957.332 -4.50976 4.70599 0
M  V30 10056 N 960.765 -1.57509 0.0534917 0
M  V30 10057 C 962.012 -1.92782 -0.619772 0
M  V30 10058 C 962.34 -0.932046 -1.70714 0
M  V30 10059 O 961.595 0.0552891 -1.95622 0
M  V30 10060 C 961.894 -3.34734 -1.25251 0
M  V30 10061 C 961.56 -4.49946 -0.293113 0
M  V30 10062 C 960.222 -4.81191 -0.0291223 0
M  V30 10063 C 962.574 -5.19925 0.364271 0
M  V30 10064 C 959.902 -5.79761 0.899649 0
M  V30 10065 C 962.254 -6.19489 1.28125 0
M  V30 10066 C 960.918 -6.49161 1.55389 0
M  V30 10067 H 960.188 -0.705441 -0.226791 0
M  V30 10068 H 962.835 -1.91121 0.120466 0
M  V30 10069 H 961.14 -3.32774 -2.06807 0
M  V30 10070 H 962.837 -3.59308 -1.78042 0
M  V30 10071 H 959.427 -4.25566 -0.509053 0
M  V30 10072 H 963.611 -4.95997 0.173411 0
M  V30 10073 H 958.867 -6.01085 1.11833 0
M  V30 10074 H 963.041 -6.72824 1.79669 0
M  V30 10075 H 960.668 -7.25354 2.2752 0
M  V30 10076 N 962.243 0.219913 -1.56058 0
M  V30 10077 C 963.206 1.25606 -1.91718 0
M  V30 10078 C 964.206 1.39721 -0.795912 0
M  V30 10079 O 965.396 1.37958 -1.06364 0
M  V30 10080 C 962.528 2.62961 -2.16943 0
M  V30 10081 H 963.721 0.951909 -2.84392 0
M  V30 10082 H 961.274 0.460398 -1.49365 0
M  V30 10083 H 962.009 2.98472 -1.26826 0
M  V30 10084 H 961.794 2.54093 -2.98629 0
M  V30 10085 H 963.284 3.37727 -2.45622 0
M  V30 10086 N 963.721 1.49897 0.486681 0
M  V30 10087 C 965.132 1.53142 1.06792 0
M  V30 10088 C 965.483 0.325856 1.93475 0
M  V30 10089 O 964.608 -0.562893 2.08951 0
M  V30 10090 C 965.203 2.77514 1.94348 0
M  V30 10091 C 963.762 2.83491 2.47609 0
M  V30 10092 C 962.909 2.47239 1.2557 0
M  V30 10093 H 965.86 1.56387 0.269962 0
M  V30 10094 H 965.881 2.58487 2.79221 0
M  V30 10095 H 965.393 3.65239 1.31232 0
M  V30 10096 H 963.494 2.0008 3.14323 0
M  V30 10097 H 963.607 3.86011 2.83782 0
M  V30 10098 H 961.971 1.99332 1.58552 0
M  V30 10099 H 962.754 3.37255 0.641404 0
M  V30 10100 N 965.199 -0.738761 1.39212 0
M  V30 10101 C 966.476 -1.48982 1.26742 0
M  V30 10102 C 966.856 -2.10732 -0.12466 0
M  V30 10103 O 966.204 -1.98287 -1.13554 0
M  V30 10104 C 966.414 -2.54427 2.38889 0
M  V30 10105 C 967.762 -3.20915 2.78027 0
M  V30 10106 O 968.786 -2.64738 2.38311 0
M  V30 10107 O 967.645 -4.22558 3.46565 0
M  V30 10108 H 964.739 -0.661395 0.496473 0
M  V30 10109 H 967.285 -0.772907 1.51077 0
M  V30 10110 H 966.057 -2.07151 3.3197 0
M  V30 10111 H 965.68 -3.33682 2.162 0
M  V30 10112 N 966.677 -1.24326 -0.968545 0
M  V30 10113 C 967.587 -1.05194 -2.09694 0
M  V30 10114 C 968.603 0.00701291 -1.73999 0
M  V30 10115 O 969.779 -0.190981 -2.00492 0
M  V30 10116 C 966.844 -0.658075 -3.40397 0
M  V30 10117 C 965.905 -1.79341 -3.90045 0
M  V30 10118 C 965.138 -1.41824 -5.14511 0
M  V30 10119 O 965.361 -0.307693 -5.69569 0
M  V30 10120 O 964.295 -2.24358 -5.58522 0
M  V30 10121 H 968.121 -1.99791 -2.2873 0
M  V30 10122 H 965.706 -1.03138 -1.08088 0
M  V30 10123 H 967.588 -0.449911 -4.18991 0
M  V30 10124 H 966.263 0.258782 -3.22664 0
M  V30 10125 H 965.17 -2.05632 -3.12516 0
M  V30 10126 H 966.503 -2.68901 -4.12254 0
M  V30 10127 N 968.156 1.1691 -1.05688 0
M  V30 10128 C 969.402 1.87814 -0.780871 0
M  V30 10129 C 969.757 1.79796 0.684926 0
M  V30 10130 O 969.05 1.19853 1.49485 0
M  V30 10131 C 969.244 3.36578 -1.20207 0
M  V30 10132 C 969.073 3.59078 -2.70727 0
M  V30 10133 C 967.843 3.75515 -3.38107 0
M  V30 10134 C 970.041 3.58307 -3.68946 0
M  V30 10135 N 968.023 3.85906 -4.77441 0
M  V30 10136 C 969.394 3.74608 -4.94033 0
M  V30 10137 C 971.449 3.41484 -3.62343 0
M  V30 10138 C 970.152 3.75828 -6.13307 0
M  V30 10139 C 972.178 3.43995 -4.81063 0
M  V30 10140 C 971.54 3.60809 -6.04976 0
M  V30 10141 H 967.639 0.705158 -0.338047 0
M  V30 10142 H 970.223 1.40315 -1.34981 0
M  V30 10143 H 968.394 3.82734 -0.661031 0
M  V30 10144 H 970.126 3.95119 -0.875377 0
M  V30 10145 H 966.881 3.7558 -2.88508 0
M  V30 10146 H 967.305 3.94886 -5.49904 0
M  V30 10147 H 971.947 3.27417 -2.67503 0
M  V30 10148 H 969.665 3.88679 -7.08487 0
M  V30 10149 H 973.251 3.3223 -4.77613 0
M  V30 10150 H 972.131 3.62663 -6.95302 0
M  V30 10151 N 969.634 0.838594 1.33437 0
M  V30 10152 C 970.883 0.430484 1.97053 0
M  V30 10153 C 971.196 -1.01556 1.6717 0
M  V30 10154 O 972.402 -1.52834 2.24397 0
M  V30 10155 C 970.858 0.718828 3.52648 0
M  V30 10156 C 970.466 2.17953 3.91408 0
M  V30 10157 C 972.21 0.377654 4.22817 0
M  V30 10158 C 970.117 2.41194 5.39981 0
M  V30 10159 H 969.047 0.157239 0.737422 0
M  V30 10160 H 971.698 1.02714 1.5206 0
M  V30 10161 H 970.08 0.0518042 3.95966 0
M  V30 10162 H 971.254 2.88701 3.59149 0
M  V30 10163 H 969.569 2.48366 3.34221 0
M  V30 10164 H 972.166 0.528926 5.32077 0
M  V30 10165 H 972.509 -0.679338 4.1072 0
M  V30 10166 H 973.042 0.999899 3.85028 0
M  V30 10167 H 969.781 3.45457 5.57081 0
M  V30 10168 H 969.301 1.75007 5.73701 0
M  V30 10169 H 970.98 2.24334 6.06863 0
M  V30 10170 N 971.112 -1.45937 0.595003 0
M  V30 10171 C 972.342 -2.06399 0.0911607 0
M  V30 10172 C 972.75 -1.44236 -1.22444 0
M  V30 10173 O 972.093 -0.546265 -1.7539 0
M  V30 10174 C 972.155 -3.59242 -0.136079 0
M  V30 10175 C 971.819 -4.43668 1.09579 0
M  V30 10176 C 972.816 -4.79437 2.01088 0
M  V30 10177 C 970.501 -4.84616 1.32109 0
M  V30 10178 C 972.495 -5.54995 3.13464 0
M  V30 10179 C 970.182 -5.5993 2.44788 0
M  V30 10180 C 971.18 -5.95035 3.35294 0
M  V30 10181 O 970.868 -6.68825 4.46014 0
M  V30 10182 H 970.6 -0.673316 0.0601779 0
M  V30 10183 H 973.154 -1.88365 0.819005 0
M  V30 10184 H 971.384 -3.75629 -0.918676 0
M  V30 10185 H 973.073 -4.0159 -0.589954 0
M  V30 10186 H 973.839 -4.48371 1.84902 0
M  V30 10187 H 969.718 -4.56735 0.625662 0
M  V30 10188 H 973.262 -5.82314 3.84131 0
M  V30 10189 H 969.159 -5.90411 2.60931 0
M  V30 10190 H 969.927 -6.87262 4.44537 0
M  V30 10191 N 972.59 -0.333456 -1.54032 0
M  V30 10192 C 973.54 0.543745 -2.21421 0
M  V30 10193 C 974.524 1.07396 -1.19812 0
M  V30 10194 O 975.716 1.00934 -1.45401 0
M  V30 10195 C 972.845 1.69925 -2.98296 0
M  V30 10196 C 971.931 1.18345 -4.07253 0
M  V30 10197 N 972.322 0.388098 -5.04309 0
M  V30 10198 C 970.62 1.46128 -4.21382 0
M  V30 10199 C 971.321 0.109383 -5.81597 0
M  V30 10200 N 970.297 0.69825 -5.39097 0
M  V30 10201 H 974.099 -0.0711018 -2.93814 0
M  V30 10202 H 971.613 -0.139807 -1.61797 0
M  V30 10203 H 973.61 2.33954 -3.45067 0
M  V30 10204 H 972.27 2.31747 -2.27428 0
M  V30 10205 H 973.281 0.0300645 -5.17891 0
M  V30 10206 H 969.958 2.08463 -3.61731 0
M  V30 10207 H 971.348 -0.531554 -6.69794 0
M  V30 10208 N 974.068 1.57479 -0.061844 0
M  V30 10209 C 975.484 1.56855 0.294753 0
M  V30 10210 C 975.684 1.07042 1.70717 0
M  V30 10211 O 974.74 0.731817 2.41662 0
M  V30 10212 C 976.053 3.00486 0.113484 0
M  V30 10213 C 977.601 3.1246 0.183778 0
M  V30 10214 C 978.076 4.5799 0.0309092 0
M  V30 10215 N 979.567 4.63119 0.0868393 0
M  V30 10216 C 980.302 5.734 -0.00717446 0
M  V30 10217 N 979.798 6.92628 -0.154144 0
M  V30 10218 N 981.591 5.62078 0.0491763 0
M  V30 10219 H 973.742 1.88176 -0.985058 0
M  V30 10220 H 976.005 0.867051 -0.383309 0
M  V30 10221 H 975.711 3.41004 -0.86075 0
M  V30 10222 H 975.585 3.67029 0.870023 0
M  V30 10223 H 977.972 2.71834 1.14849 0
M  V30 10224 H 978.053 2.48574 -0.603697 0
M  V30 10225 H 977.697 4.99303 -0.930526 0
M  V30 10226 H 977.627 5.19895 0.837664 0
M  V30 10227 H 980.118 3.77374 0.199245 0
M  V30 10228 H 980.431 7.72492 -0.218296 0
M  V30 10229 H 978.776 6.94742 -0.189372 0
M  V30 10230 H 981.967 4.67817 0.162626 0
M  V30 10231 H 982.14 6.47994 -0.0275478 0
M  V30 10232 N 975.546 -0.211634 1.56173 0
M  V30 10233 C 976.476 -1.26533 1.96244 0
M  V30 10234 C 977.457 -1.48362 0.832028 0
M  V30 10235 O 978.642 -1.60378 1.0951 0
M  V30 10236 C 975.772 -2.61307 2.2877 0
M  V30 10237 C 974.726 -2.54119 3.44395 0
M  V30 10238 C 974.052 -3.93014 3.62552 0
M  V30 10239 C 975.352 -2.08046 4.79076 0
M  V30 10240 H 977.046 -0.932407 2.84511 0
M  V30 10241 H 974.592 -0.447084 1.36884 0
M  V30 10242 H 976.545 -3.35188 2.55396 0
M  V30 10243 H 975.269 -2.96307 1.37367 0
M  V30 10244 H 973.928 -1.82694 3.17834 0
M  V30 10245 H 973.576 -4.25338 2.68508 0
M  V30 10246 H 973.276 -3.89083 4.40327 0
M  V30 10247 H 974.8 -4.68542 3.91537 0
M  V30 10248 H 976.214 -2.71676 5.04842 0
M  V30 10249 H 974.611 -2.15154 5.60204 0
M  V30 10250 H 975.681 -1.03306 4.73768 0
M  V30 10251 N 977.024 -1.50153 -0.478725 0
M  V30 10252 C 978.249 -1.64776 -1.2595 0
M  V30 10253 C 978.674 -0.327794 -1.85222 0
M  V30 10254 O 978.032 0.707418 -1.66929 0
M  V30 10255 C 978.08 -2.73551 -2.34952 0
M  V30 10256 O 977.184 -2.34273 -3.39397 0
M  V30 10257 H 976.525 -0.550769 -0.370877 0
M  V30 10258 H 979.055 -1.96482 -0.570605 0
M  V30 10259 H 979.065 -2.96397 -2.8038 0
M  V30 10260 H 977.74 -3.69354 -1.91181 0
M  V30 10261 H 976.317 -2.21844 -2.99733 0
M  V30 10262 N 978.502 0.731368 -1.39602 0
M  V30 10263 C 979.749 1.491 -1.37024 0
M  V30 10264 C 980.077 1.94473 0.0326423 0
M  V30 10265 O 979.332 1.6737 1.01418 0
M  V30 10266 C 979.631 2.74224 -2.29208 0
M  V30 10267 C 979.297 2.477 -3.7677 0
M  V30 10268 C 977.959 2.40175 -4.16976 0
M  V30 10269 C 980.311 2.25098 -4.70086 0
M  V30 10270 C 977.639 2.08095 -5.48556 0
M  V30 10271 C 979.991 1.94534 -6.01946 0
M  V30 10272 C 978.655 1.85481 -6.41212 0
M  V30 10273 H 977.925 0.545595 -0.501405 0
M  V30 10274 H 980.572 0.839127 -1.72136 0
M  V30 10275 H 978.877 3.44171 -1.87225 0
M  V30 10276 H 980.574 3.32264 -2.24504 0
M  V30 10277 H 977.164 2.54436 -3.44906 0
M  V30 10278 H 981.348 2.29876 -4.39853 0
M  V30 10279 H 976.604 1.99611 -5.77897 0
M  V30 10280 H 980.778 1.76054 -6.73779 0
M  V30 10281 H 978.405 1.60389 -7.43088 0
M  V30 10282 N 979.98 1.24838 0.961938 0
M  V30 10283 C 980.913 0.989041 2.05653 0
M  V30 10284 C 981.891 -0.079199 1.62407 0
M  V30 10285 O 983.075 0.0589397 1.88408 0
M  V30 10286 C 980.202 0.493661 3.35083 0
M  V30 10287 C 979.248 1.55132 3.97286 0
M  V30 10288 S 980.081 3.13438 4.34185 0
M  V30 10289 C 981.237 2.65617 5.66744 0
M  V30 10290 H 981.47 1.91588 2.27335 0
M  V30 10291 H 979.003 1.08287 1.10061 0
M  V30 10292 H 980.961 0.214482 4.09939 0
M  V30 10293 H 979.622 -0.412559 3.11379 0
M  V30 10294 H 978.815 1.15525 4.90581 0
M  V30 10295 H 978.417 1.78081 3.28882 0
M  V30 10296 H 980.709 2.08788 6.44526 0
M  V30 10297 H 981.652 3.57524 6.11214 0
M  V30 10298 H 982.06 2.05853 5.25628 0
M  V30 10299 N 981.458 -1.16348 1.06306 0
M  V30 10300 C 982.735 -1.829 0.69331 0
M  V30 10301 C 983.115 -1.94298 -0.82531 0
M  V30 10302 O 982.463 -1.48619 -1.73565 0
M  V30 10303 C 982.673 -3.1989 1.3954 0
M  V30 10304 C 984.021 -3.95662 1.54068 0
M  V30 10305 O 985.045 -3.29408 1.35532 0
M  V30 10306 O 983.904 -5.14422 1.84479 0
M  V30 10307 H 980.998 -0.789738 0.245445 0
M  V30 10308 H 983.544 -1.23549 1.16334 0
M  V30 10309 H 982.316 -3.06629 2.43093 0
M  V30 10310 H 981.939 -3.86918 0.915453 0
M  V30 10311 N 982.937 -0.845659 -1.3299 0
M  V30 10312 C 983.884 -0.281761 -2.29074 0
M  V30 10313 C 984.854 0.606237 -1.54641 0
M  V30 10314 O 986.039 0.543063 -1.82908 0
M  V30 10315 C 983.179 0.531451 -3.40983 0
M  V30 10316 C 982.292 -0.381328 -4.30314 0
M  V30 10317 C 981.427 0.443643 -5.29344 0
M  V30 10318 C 980.466 -0.467101 -6.10315 0
M  V30 10319 N 979.603 0.320148 -7.0137 0
M  V30 10320 H 984.443 -1.10641 -2.76699 0
M  V30 10321 H 981.98 -0.55706 -1.36144 0
M  V30 10322 H 983.938 1.01848 -4.04577 0
M  V30 10323 H 982.568 1.32101 -2.94532 0
M  V30 10324 H 981.62 -0.986701 -3.6738 0
M  V30 10325 H 982.932 -1.08067 -4.86953 0
M  V30 10326 H 982.086 0.994212 -5.98498 0
M  V30 10327 H 980.825 1.17639 -4.73299 0
M  V30 10328 H 979.83 -1.02963 -5.40073 0
M  V30 10329 H 981.055 -1.19832 -6.68444 0
M  V30 10330 H 979.001 1.03615 -6.47765 0
M  V30 10331 H 978.918 -0.320338 -7.55321 0
M  V30 10332 H 980.186 0.852735 -7.74822 0
M  V30 10333 N 984.415 1.45619 -0.602734 0
M  V30 10334 C 985.347 2.28662 0.157012 0
M  V30 10335 C 986.36 1.39672 0.836396 0
M  V30 10336 O 987.549 1.64091 0.702599 0
M  V30 10337 C 984.649 3.1528 1.24306 0
M  V30 10338 C 983.822 4.32517 0.651731 0
M  V30 10339 C 982.881 5.00381 1.62804 0
M  V30 10340 O 981.907 5.57333 1.15624 0
M  V30 10341 N 983.109 4.99221 2.96241 0
M  V30 10342 H 985.874 2.94506 -0.555535 0
M  V30 10343 H 983.435 1.55753 -0.441881 0
M  V30 10344 H 985.427 3.57544 1.8959 0
M  V30 10345 H 983.997 2.51376 1.85819 0
M  V30 10346 H 983.217 3.93793 -0.17907 0
M  V30 10347 H 984.505 5.08249 0.236802 0
M  V30 10348 H 983.903 4.54232 3.37179 0
M  V30 10349 H 982.46 5.45364 3.56961 0
M  V30 10350 N 985.893 0.34162 1.53853 0
M  V30 10351 C 986.823 -0.508431 2.27897 0
M  V30 10352 C 987.804 -1.10425 1.29384 0
M  V30 10353 O 988.989 -1.126 1.58224 0
M  V30 10354 C 986.119 -1.66048 3.05034 0
M  V30 10355 C 985.073 -1.19309 4.11035 0
M  V30 10356 C 984.399 -2.4335 4.76114 0
M  V30 10357 C 985.699 -0.294952 5.21467 0
M  V30 10358 H 987.393 0.109251 2.99201 0
M  V30 10359 H 984.939 0.0539847 1.43899 0
M  V30 10360 H 986.892 -2.26158 3.5557 0
M  V30 10361 H 985.616 -2.30503 2.31379 0
M  V30 10362 H 984.275 -0.614809 3.61408 0
M  V30 10363 H 983.923 -3.06208 3.99056 0
M  V30 10364 H 983.623 -2.1276 5.47729 0
M  V30 10365 H 985.147 -3.0419 5.29434 0
M  V30 10366 H 986.561 -0.80285 5.67651 0
M  V30 10367 H 984.958 -0.0810221 6.00045 0
M  V30 10368 H 986.028 0.669433 4.80257 0
M  V30 10369 N 987.371 -1.57444 0.0701946 0
M  V30 10370 C 988.617 -1.94528 -0.594177 0
M  V30 10371 C 988.972 -0.949898 -1.67316 0
M  V30 10372 O 988.265 0.0280668 -1.91579 0
M  V30 10373 C 988.459 -3.36044 -1.21694 0
M  V30 10374 C 988.288 -4.49256 -0.199806 0
M  V30 10375 C 987.058 -5.04843 0.214963 0
M  V30 10376 C 989.256 -5.11217 0.562312 0
M  V30 10377 N 987.238 -6.01595 1.22297 0
M  V30 10378 C 988.609 -6.03453 1.42284 0
M  V30 10379 C 990.664 -4.94043 0.618555 0
M  V30 10380 C 989.367 -6.80359 2.33461 0
M  V30 10381 C 991.393 -5.71591 1.51783 0
M  V30 10382 C 990.755 -6.63474 2.36604 0
M  V30 10383 H 986.854 -0.758941 -0.1885 0
M  V30 10384 H 989.438 -1.94145 0.146965 0
M  V30 10385 H 987.609 -3.37168 -1.92801 0
M  V30 10386 H 989.341 -3.60368 -1.84165 0
M  V30 10387 H 986.096 -4.73303 -0.167835 0
M  V30 10388 H 986.52 -6.5467 1.72443 0
M  V30 10389 H 991.162 -4.22794 -0.0230235 0
M  V30 10390 H 988.88 -7.50886 2.98656 0
M  V30 10391 H 992.466 -5.60324 1.56616 0
M  V30 10392 H 991.346 -7.22432 3.0506 0
M  V30 10393 N 988.849 0.203349 -1.56283 0
M  V30 10394 C 990.095 0.926381 -1.80405 0
M  V30 10395 C 990.428 1.8325 -0.642883 0
M  V30 10396 O 989.703 1.91196 0.356998 0
M  V30 10397 C 989.986 1.74972 -3.14733 0
M  V30 10398 C 989.839 0.868866 -4.41328 0
M  V30 10399 C 991.158 2.72394 -3.45672 0
M  V30 10400 H 988.277 0.335346 -0.656286 0
M  V30 10401 H 990.919 0.1942 -1.89005 0
M  V30 10402 H 989.069 2.37394 -3.07533 0
M  V30 10403 H 990.741 0.259986 -4.60567 0
M  V30 10404 H 988.984 0.175161 -4.33446 0
M  V30 10405 H 989.655 1.47975 -5.31796 0
M  V30 10406 H 992.131 2.20105 -3.53119 0
M  V30 10407 H 991.007 3.27091 -4.40798 0
M  V30 10408 H 991.268 3.51035 -2.6875 0
M  V30 10409 N 990.327 1.50405 0.470755 0
M  V30 10410 C 991.555 1.65168 1.24608 0
M  V30 10411 C 991.97 0.335153 1.85801 0
M  V30 10412 O 991.327 -0.682919 1.69241 0
M  V30 10413 C 991.378 2.74305 2.35455 0
M  V30 10414 O 991.099 4.00854 1.76771 0
M  V30 10415 C 992.6 3.00044 3.26326 0
M  V30 10416 H 989.82 0.555186 0.376842 0
M  V30 10417 H 992.364 1.9663 0.56187 0
M  V30 10418 H 990.519 2.45536 2.99651 0
M  V30 10419 H 990.933 4.61211 2.49769 0
M  V30 10420 H 992.407 3.8007 4.00313 0
M  V30 10421 H 992.884 2.11128 3.85126 0
M  V30 10422 H 993.49 3.30345 2.67866 0
M  V30 10423 N 991.805 -0.723954 1.39988 0
M  V30 10424 C 993.221 -1.03095 1.21834 0
M  V30 10425 C 993.421 -2.01309 0.0876647 0
M  V30 10426 O 992.477 -2.46277 -0.55714 0
M  V30 10427 C 993.79 -1.58267 2.5568 0
M  V30 10428 C 995.338 -1.70293 2.6262 0
M  V30 10429 C 995.813 -2.28872 3.96713 0
M  V30 10430 N 997.304 -2.36269 3.98411 0
M  V30 10431 C 998.039 -2.82557 4.98948 0
M  V30 10432 N 997.535 -3.28661 6.0988 0
M  V30 10433 N 999.328 -2.81866 4.86321 0
M  V30 10434 H 991.479 -0.0727891 2.12275 0
M  V30 10435 H 993.742 -0.0949029 0.943238 0
M  V30 10436 H 993.448 -0.935642 3.39026 0
M  V30 10437 H 993.322 -2.56914 2.76179 0
M  V30 10438 H 995.709 -2.34115 1.7965 0
M  V30 10439 H 995.79 -0.70268 2.45959 0
M  V30 10440 H 995.434 -1.65675 4.80119 0
M  V30 10441 H 995.364 -3.29595 4.107 0
M  V30 10442 H 997.855 -2.03697 3.18302 0
M  V30 10443 H 998.168 -3.62524 6.82493 0
M  V30 10444 H 996.513 -3.26641 6.13458 0
M  V30 10445 H 999.704 -2.45179 3.98754 0
M  V30 10446 H 999.877 -3.17626 5.64817 0
M  V30 10447 N 993.283 -1.25346 -0.955304 0
M  V30 10448 C 994.513 -1.12629 -1.732 0
M  V30 10449 C 994.921 0.322748 -1.86427 0
M  V30 10450 O 994.264 1.23381 -1.36099 0
M  V30 10451 C 994.326 -1.7064 -3.16421 0
M  V30 10452 C 993.99 -3.19632 -3.26626 0
M  V30 10453 C 994.987 -4.1663 -3.10991 0
M  V30 10454 C 992.672 -3.59829 -3.50468 0
M  V30 10455 C 994.666 -5.51806 -3.19043 0
M  V30 10456 C 992.353 -4.95143 -3.58157 0
M  V30 10457 C 993.351 -5.90941 -3.42459 0
M  V30 10458 O 993.039 -7.23792 -3.49828 0
M  V30 10459 H 992.771 -0.393646 -0.549562 0
M  V30 10460 H 995.325 -1.66184 -1.20715 0
M  V30 10461 H 993.555 -1.11532 -3.70267 0
M  V30 10462 H 995.244 -1.53032 -3.75947 0
M  V30 10463 H 996.01 -3.86915 -2.92441 0
M  V30 10464 H 991.889 -2.8576 -3.61749 0
M  V30 10465 H 995.433 -6.26559 -3.06707 0
M  V30 10466 H 991.33 -5.24525 -3.76224 0
M  V30 10467 H 992.098 -7.31879 -3.66463 0
M  V30 10468 N 994.761 1.15782 -1.06922 0
M  V30 10469 C 995.711 2.18373 -0.655537 0
M  V30 10470 C 996.695 1.57745 0.317084 0
M  V30 10471 O 997.887 1.76511 0.131509 0
M  V30 10472 C 995.016 3.43263 -0.0502314 0
M  V30 10473 C 994.102 4.10954 -1.04773 0
M  V30 10474 N 994.493 4.542 -2.22567 0
M  V30 10475 C 992.791 4.3723 -0.880087 0
M  V30 10476 C 993.492 5.06641 -2.85815 0
M  V30 10477 N 992.468 4.99917 -2.13505 0
M  V30 10478 H 996.27 2.49533 -1.55276 0
M  V30 10479 H 993.784 1.32303 -0.941793 0
M  V30 10480 H 995.781 4.16063 0.264003 0
M  V30 10481 H 994.441 3.13588 0.842167 0
M  V30 10482 H 995.452 4.47727 -2.60309 0
M  V30 10483 H 992.129 4.17481 -0.0402148 0
M  V30 10484 H 993.519 5.50092 -3.85808 0
M  V30 10485 N 996.239 0.8527 1.3254 0
M  V30 10486 C 997.65 0.510012 1.79599 0
M  V30 10487 C 998.001 -0.972002 1.70431 0
M  V30 10488 O 997.126 -1.7581 1.26173 0
M  V30 10489 C 997.721 0.918986 3.26098 0
M  V30 10490 C 996.28 0.628227 3.7112 0
M  V30 10491 C 995.427 1.11979 2.53685 0
M  V30 10492 H 998.378 1.04009 1.19866 0
M  V30 10493 H 998.399 0.234577 3.79776 0
M  V30 10494 H 997.911 1.99765 3.32739 0
M  V30 10495 H 996.012 -0.4398 3.69995 0
M  V30 10496 H 996.125 1.19315 4.64005 0
M  V30 10497 H 994.489 0.540133 2.48907 0
M  V30 10498 H 995.272 2.20552 2.63081 0
M  V30 10499 N 997.718 -1.45297 0.610449 0
M  V30 10500 C 998.966 -2.01819 0.106548 0
M  V30 10501 C 999.287 -1.48102 -1.26849 0
M  V30 10502 O 998.557 -0.676411 -1.83852 0
M  V30 10503 H 997.137 -0.746113 0.0363982 0
M  V30 10504 H 999.799 -1.78061 0.792491 0
M  V30 10505 H 998.895 -3.12045 0.0585 0
M  V30 10506 N 999.196 -0.349774 -1.5367 0
M  V30 10507 C 1000.11 0.512421 -2.28935 0
M  V30 10508 C 1001.12 1.1065 -1.34286 0
M  V30 10509 O 1002.3 1.12084 -1.67329 0
M  V30 10510 C 999.363 1.64449 -3.05217 0
M  V30 10511 C 998.424 1.07956 -4.15505 0
M  V30 10512 C 997.657 2.15768 -4.88139 0
M  V30 10513 O 997.88 3.366 -4.60496 0
M  V30 10514 O 996.814 1.79712 -5.74445 0
M  V30 10515 H 1000.64 -0.0996001 -3.03537 0
M  V30 10516 H 998.225 -0.114629 -1.4896 0
M  V30 10517 H 1000.11 2.30302 -3.52901 0
M  V30 10518 H 998.782 2.24221 -2.33467 0
M  V30 10519 H 997.689 0.385381 -3.7211 0
M  V30 10520 H 999.022 0.526621 -4.89375 0
M  V30 10521 N 1000.67 1.57404 -0.0785433 0
M  V30 10522 C 1002.09 1.57158 0.2781 0
M  V30 10523 C 1002.29 1.08847 1.69572 0
M  V30 10524 O 1001.35 0.757407 2.40873 0
M  V30 10525 C 1002.66 3.00589 0.0816067 0
M  V30 10526 C 1004.21 3.12637 0.150627 0
M  V30 10527 C 1004.68 4.57997 -0.0176685 0
M  V30 10528 N 1006.17 4.63185 0.0377145 0
M  V30 10529 C 1006.91 5.7336 -0.0679907 0
M  V30 10530 N 1006.4 6.92426 -0.227598 0
M  V30 10531 N 1008.2 5.62099 -0.0104424 0
M  V30 10532 H 1000.35 1.87121 -1.00496 0
M  V30 10533 H 1002.61 0.862937 -0.392484 0
M  V30 10534 H 1002.32 3.40072 -0.896869 0
M  V30 10535 H 1002.19 3.67931 0.831046 0
M  V30 10536 H 1004.58 2.73037 1.11959 0
M  V30 10537 H 1004.66 2.4792 -0.630028 0
M  V30 10538 H 1004.3 4.98288 -0.983431 0
M  V30 10539 H 1004.23 5.20754 0.782475 0
M  V30 10540 H 1006.72 3.77564 0.159208 0
M  V30 10541 H 1007.04 7.72217 -0.300217 0
M  V30 10542 H 1005.38 6.94502 -0.263049 0
M  V30 10543 H 1008.57 4.67964 0.112999 0
M  V30 10544 H 1008.75 6.47928 -0.0962747 0
M  V30 10545 N 1002.15 -0.195058 1.56388 0
M  V30 10546 C 1003.4 -0.915444 1.80626 0
M  V30 10547 C 1003.73 -1.83255 0.651768 0
M  V30 10548 O 1002.98 -1.92314 -0.362464 0
M  V30 10549 C 1003.28 -1.7637 3.10851 0
M  V30 10550 C 1002.95 -0.997572 4.39726 0
M  V30 10551 C 1001.61 -0.786043 4.74737 0
M  V30 10552 C 1003.96 -0.45851 5.19179 0
M  V30 10553 C 1001.29 -0.023972 5.86695 0
M  V30 10554 C 1003.64 0.29035 6.31933 0
M  V30 10555 C 1002.3 0.512895 6.65527 0
M  V30 10556 H 1001.57 -0.334985 0.660959 0
M  V30 10557 H 1004.22 -0.181815 1.90635 0
M  V30 10558 H 1002.53 -2.566 2.9608 0
M  V30 10559 H 1004.22 -2.3237 3.26811 0
M  V30 10560 H 1000.81 -1.17245 4.12252 0
M  V30 10561 H 1005 -0.609334 4.92545 0
M  V30 10562 H 1000.25 0.158421 6.11195 0
M  V30 10563 H 1004.43 0.715429 6.92715 0
M  V30 10564 H 1002.05 1.10531 7.52122 0
M  V30 10565 N 1003.63 -1.50653 -0.462772 0
M  V30 10566 C 1005.04 -1.54821 -1.04342 0
M  V30 10567 C 1005.39 -0.356595 -1.92932 0
M  V30 10568 O 1004.52 0.529579 -2.0982 0
M  V30 10569 C 1005.11 -2.80571 -1.89909 0
M  V30 10570 C 1003.67 -2.87394 -2.43067 0
M  V30 10571 C 1002.82 -2.49206 -1.21621 0
M  V30 10572 H 1005.77 -1.56797 -0.245048 0
M  V30 10573 H 1005.79 -2.62897 -2.75074 0
M  V30 10574 H 1005.3 -3.67281 -1.25405 0
M  V30 10575 H 1003.4 -2.05055 -3.111 0
M  V30 10576 H 1003.52 -3.90477 -2.77605 0
M  V30 10577 H 1001.88 -2.01829 -1.55361 0
M  V30 10578 H 1002.66 -3.38233 -0.587669 0
M  V30 10579 N 1005.11 0.71652 -1.4037 0
M  V30 10580 C 1006.02 1.86074 -1.42876 0
M  V30 10581 C 1007.03 1.71005 -0.321475 0
M  V30 10582 O 1008.21 1.93286 -0.565909 0
M  V30 10583 C 1005.28 3.21862 -1.28863 0
M  V30 10584 C 1004.34 3.49193 -2.49726 0
M  V30 10585 C 1003.57 4.78502 -2.36372 0
M  V30 10586 O 1003.79 5.53529 -1.37703 0
M  V30 10587 O 1002.73 5.06147 -3.25728 0
M  V30 10588 H 1006.55 1.86916 -2.39366 0
M  V30 10589 H 1004.14 0.866818 -1.21683 0
M  V30 10590 H 1006.02 4.02972 -1.23253 0
M  V30 10591 H 1004.69 3.2175 -0.354783 0
M  V30 10592 H 1003.6 2.68095 -2.60913 0
M  V30 10593 H 1004.93 3.54101 -3.41868 0
M  V30 10594 N 1006.59 1.25851 0.948643 0
M  V30 10595 C 1007.83 1.10735 1.69062 0
M  V30 10596 C 1008.16 -0.351257 1.9181 0
M  V30 10597 O 1007.43 -1.24867 1.50947 0
M  V30 10598 H 1006.01 0.406796 0.626519 0
M  V30 10599 H 1008.67 1.58066 1.14022 0
M  V30 10600 H 1007.76 1.62033 2.66743 0
M  V30 10601 N 1008.06 -1.15214 1.07534 0
M  V30 10602 C 1009.01 -2.20013 0.697337 0
M  V30 10603 C 1009.98 -1.6314 -0.312168 0
M  V30 10604 O 1011.17 -1.89768 -0.198196 0
M  V30 10605 C 1008.31 -3.44945 0.103293 0
M  V30 10606 C 1007.42 -4.16009 1.1645 0
M  V30 10607 C 1006.55 -5.28496 0.535261 0
M  V30 10608 C 1005.59 -5.9138 1.57912 0
M  V30 10609 N 1004.73 -6.95335 0.972332 0
M  V30 10610 H 1009.57 -2.51698 1.59538 0
M  V30 10611 H 1007.11 -1.2361 0.797431 0
M  V30 10612 H 1009.07 -4.16397 -0.258766 0
M  V30 10613 H 1007.7 -3.13772 -0.758096 0
M  V30 10614 H 1006.75 -3.43035 1.64411 0
M  V30 10615 H 1008.06 -4.58853 1.9559 0
M  V30 10616 H 1007.21 -6.06579 0.120942 0
M  V30 10617 H 1005.95 -4.8685 -0.287889 0
M  V30 10618 H 1004.96 -5.12008 2.0032 0
M  V30 10619 H 1006.18 -6.35103 2.40459 0
M  V30 10620 H 1004.13 -6.55779 0.170119 0
M  V30 10621 H 1004.05 -7.36616 1.70095 0
M  V30 10622 H 1005.31 -7.77312 0.583577 0
M  V30 10623 N 1009.54 -0.859717 -1.32086 0
M  V30 10624 C 1010.77 -0.479028 -2.0097 0
M  V30 10625 C 1011.18 0.930242 -1.64752 0
M  V30 10626 O 1010.52 1.6193 -0.867437 0
M  V30 10627 C 1010.59 -0.54431 -3.55355 0
M  V30 10628 C 1010.25 -1.91337 -4.15017 0
M  V30 10629 C 1011.25 -2.87951 -4.32874 0
M  V30 10630 C 1008.93 -2.21189 -4.50977 0
M  V30 10631 C 1010.93 -4.12567 -4.85867 0
M  V30 10632 C 1008.61 -3.46057 -5.03674 0
M  V30 10633 C 1009.61 -4.41562 -5.21068 0
M  V30 10634 O 1009.3 -5.64218 -5.72637 0
M  V30 10635 H 1009.03 -0.186161 -0.649861 0
M  V30 10636 H 1011.58 -1.15976 -1.69525 0
M  V30 10637 H 1009.81 0.1933 -3.86217 0
M  V30 10638 H 1011.5 -0.178506 -4.05507 0
M  V30 10639 H 1012.27 -2.66194 -4.05421 0
M  V30 10640 H 1008.15 -1.47635 -4.36721 0
M  V30 10641 H 1011.69 -4.8712 -4.99359 0
M  V30 10642 H 1007.59 -3.67662 -5.30561 0
M  V30 10643 H 1008.36 -5.66246 -5.91023 0
M  V30 10644 N 1011.02 1.44971 -0.618145 0
M  V30 10645 C 1012.43 1.85611 -0.201334 0
M  V30 10646 C 1012.78 1.51698 1.24427 0
M  V30 10647 O 1011.91 0.94875 1.94493 0
M  V30 10648 C 1012.5 3.36897 -0.358619 0
M  V30 10649 C 1011.06 3.764 0.00358196 0
M  V30 10650 C 1010.21 2.68881 -0.678118 0
M  V30 10651 H 1013.16 1.35622 -0.824152 0
M  V30 10652 H 1013.18 3.78326 0.406176 0
M  V30 10653 H 1012.69 3.61548 -1.41084 0
M  V30 10654 H 1010.79 3.57365 1.05457 0
M  V30 10655 H 1010.91 4.77449 -0.397427 0
M  V30 10656 H 1009.27 2.54442 -0.114699 0
M  V30 10657 H 1010.05 2.96367 -1.73268 0
M  V30 10658 N 1012.5 0.357919 1.53482 0
M  V30 10659 C 1013.45 -0.507364 2.26999 0
M  V30 10660 C 1014.44 -1.08987 1.29685 0
M  V30 10661 O 1015.65 -1.03396 1.47341 0
M  V30 10662 H 1012.02 -0.182326 0.729562 0
M  V30 10663 H 1013.99 0.134547 2.98097 0
M  V30 10664 C 1012.74 -1.63911 3.06641 0
M  V30 10665 H 1012.06 -1.20017 3.81361 0
M  V30 10666 H 1013.5 -2.21943 3.61272 0
M  V30 10667 C 1011.96 -2.57697 2.17011 0
M  V30 10668 O 1012.49 -3.60318 1.77578 0
M  V30 10669 N 1010.7 -2.2671 1.818 0
M  V30 10670 H 1010.25 -1.43296 2.14065 0
M  V30 10671 H 1010.2 -2.89716 1.22115 0
M  V30 10672 N 1013.98 -1.5736 0.0868897 0
M  V30 10673 C 1015.39 -1.57304 -0.269762 0
M  V30 10674 C 1015.59 -1.09745 -1.68992 0
M  V30 10675 O 1014.65 -0.77017 -2.40468 0
M  V30 10676 C 1015.96 -3.00628 -0.0656646 0
M  V30 10677 C 1017.51 -3.12713 -0.134045 0
M  V30 10678 C 1017.98 -4.57981 0.0419569 0
M  V30 10679 N 1019.48 -4.63198 -0.0131501 0
M  V30 10680 C 1020.21 -5.73316 0.0983964 0
M  V30 10681 N 1019.71 -6.92296 0.264315 0
M  V30 10682 N 1021.5 -5.62086 0.0402517 0
M  V30 10683 H 1013.65 -1.86585 1.01487 0
M  V30 10684 H 1015.91 -0.860843 0.397055 0
M  V30 10685 H 1015.62 -3.39592 0.914891 0
M  V30 10686 H 1015.49 -3.68367 -0.811522 0
M  V30 10687 H 1017.88 -2.73627 -1.1051 0
M  V30 10688 H 1017.96 -2.47582 0.643167 0
M  V30 10689 H 1017.61 -4.9776 1.00984 0
M  V30 10690 H 1017.54 -5.21162 -0.754847 0
M  V30 10691 H 1020.03 -3.77644 -0.139183 0
M  V30 10692 H 1020.34 -7.72047 0.341165 0
M  V30 10693 H 1018.68 -6.94353 0.299876 0
M  V30 10694 H 1021.88 -4.68017 -0.0881801 0
M  V30 10695 H 1022.05 -6.47868 0.130635 0
M  V30 10696 N 1015.45 0.186762 -1.56489 0
M  V30 10697 C 1016.68 0.925916 -1.85584 0
M  V30 10698 C 1017.1 1.75708 -0.671446 0
M  V30 10699 O 1016.46 1.7728 0.379687 0
M  V30 10700 C 1016.51 1.79107 -3.12975 0
M  V30 10701 O 1015.61 2.89088 -2.94112 0
M  V30 10702 H 1014.96 0.260275 -0.610863 0
M  V30 10703 H 1017.49 0.189561 -2.0372 0
M  V30 10704 H 1017.5 2.19408 -3.43983 0
M  V30 10705 H 1016.17 1.18044 -3.98796 0
M  V30 10706 H 1014.75 2.52482 -2.74422 0
M  V30 10707 N 1016.93 1.50896 0.454776 0
M  V30 10708 C 1018.16 1.6648 1.22849 0
M  V30 10709 C 1018.58 0.354841 1.85435 0
M  V30 10710 O 1017.93 -0.664931 1.69956 0
M  V30 10711 C 1017.98 2.76787 2.32532 0
M  V30 10712 O 1017.7 4.02706 1.72509 0
M  V30 10713 C 1019.21 3.03488 3.23125 0
M  V30 10714 H 1016.43 0.559152 0.370932 0
M  V30 10715 H 1018.97 1.97215 0.540983 0
M  V30 10716 H 1017.12 2.48701 2.9703 0
M  V30 10717 H 1017.54 4.63834 2.44863 0
M  V30 10718 H 1019.01 3.84294 3.9626 0
M  V30 10719 H 1019.49 2.152 3.82865 0
M  V30 10720 H 1020.1 3.33167 2.64347 0
M  V30 10721 N 1018.41 -0.709066 1.40748 0
M  V30 10722 C 1019.36 -1.8149 1.38005 0
M  V30 10723 C 1020.34 -1.58842 0.256544 0
M  V30 10724 O 1021.54 -1.69904 0.496164 0
M  V30 10725 C 1018.67 -3.19678 1.25143 0
M  V30 10726 C 1017.75 -3.48067 2.42301 0
M  V30 10727 N 1018.14 -3.47234 3.6778 0
M  V30 10728 C 1016.44 -3.78555 2.35822 0
M  V30 10729 C 1017.14 -3.74149 4.45407 0
M  V30 10730 N 1016.12 -3.93224 3.75335 0
M  V30 10731 H 1019.92 -1.79188 2.32957 0
M  V30 10732 H 1017.43 -0.908477 1.34612 0
M  V30 10733 H 1019.43 -3.98875 1.2126 0
M  V30 10734 H 1018.09 -3.23201 0.311642 0
M  V30 10735 H 1019.1 -3.2793 4.00852 0
M  V30 10736 H 1015.78 -3.89529 1.50245 0
M  V30 10737 H 1017.17 -3.79755 5.54289 0
M  V30 10738 N 1019.89 -1.26353 -0.941956 0
M  V30 10739 C 1021.17 -1.02601 -1.6653 0
M  V30 10740 C 1021.55 0.44381 -2.06382 0
M  V30 10741 O 1020.89 1.42399 -1.78703 0
M  V30 10742 C 1021.1 -1.97401 -2.87809 0
M  V30 10743 C 1022.45 -2.25967 -3.59478 0
M  V30 10744 O 1023.48 -1.95261 -2.97912 0
M  V30 10745 O 1022.34 -2.78244 -4.70364 0
M  V30 10746 H 1019.43 -0.39007 -0.729228 0
M  V30 10747 H 1021.98 -1.37559 -0.993754 0
M  V30 10748 H 1020.75 -2.9659 -2.55245 0
M  V30 10749 H 1020.37 -1.62918 -3.62689 0
M  V30 10750 N 1021.37 1.14642 -1.08144 0
M  V30 10751 C 1022.6 1.89484 -0.830864 0
M  V30 10752 C 1023.01 1.78443 0.616722 0
M  V30 10753 O 1022.37 1.14191 1.42361 0
M  V30 10754 C 1022.42 3.39554 -1.24039 0
M  V30 10755 O 1022.14 3.50286 -2.63119 0
M  V30 10756 C 1023.64 4.31399 -1.02029 0
M  V30 10757 H 1020.86 0.600283 -0.299835 0
M  V30 10758 H 1023.4 1.45204 -1.44001 0
M  V30 10759 H 1021.56 3.81467 -0.675407 0
M  V30 10760 H 1021.97 4.43481 -2.80045 0
M  V30 10761 H 1023.45 5.35079 -1.35625 0
M  V30 10762 H 1023.92 4.39179 0.0428697 0
M  V30 10763 H 1024.53 3.95238 -1.57057 0
M  V30 10764 N 1022.85 0.866709 1.31628 0
M  V30 10765 C 1024.09 0.475086 1.96437 0
M  V30 10766 C 1024.41 -0.975179 1.68865 0
M  V30 10767 O 1023.68 -1.68317 1.0023 0
M  V30 10768 H 1022.26 0.172695 0.726764 0
M  V30 10769 H 1024.93 1.10578 1.60494 0
M  V30 10770 H 1024.02 0.630123 3.05673 0
M  V30 10771 N 1024.32 -1.44642 0.625825 0
M  V30 10772 C 1025.25 -2.33397 -0.0692188 0
M  V30 10773 C 1026.23 -1.47898 -0.840241 0
M  V30 10774 O 1027.42 -1.7663 -0.807176 0
M  V30 10775 C 1024.55 -3.30888 -1.055 0
M  V30 10776 C 1023.5 -4.26164 -0.395968 0
M  V30 10777 C 1022.83 -5.13483 -1.49128 0
M  V30 10778 C 1024.13 -5.17663 0.694433 0
M  V30 10779 H 1025.82 -2.91763 0.671925 0
M  V30 10780 H 1023.37 -1.40294 0.324573 0
M  V30 10781 H 1025.32 -3.91861 -1.54993 0
M  V30 10782 H 1024.05 -2.7072 -1.82696 0
M  V30 10783 H 1022.71 -3.66516 0.0782691 0
M  V30 10784 H 1022.35 -4.49672 -2.25399 0
M  V30 10785 H 1022.05 -5.78038 -1.05573 0
M  V30 10786 H 1023.58 -5.77327 -1.98813 0
M  V30 10787 H 1024.99 -5.72602 0.282818 0
M  V30 10788 H 1023.39 -5.90793 1.05281 0
M  V30 10789 H 1024.46 -4.58994 1.56372 0
M  V30 10790 N 1025.8 -0.366053 -1.5329 0
M  V30 10791 C 1027.05 0.223051 -2.00865 0
M  V30 10792 C 1027.37 1.49244 -1.25504 0
M  V30 10793 O 1026.64 1.92404 -0.368444 0
M  V30 10794 H 1025.22 0.085413 -0.742101 0
M  V30 10795 H 1027.88 -0.492396 -1.88578 0
M  V30 10796 H 1026.98 0.449701 -3.08843 0
M  V30 10797 N 1027.28 1.57312 -0.0952337 0
M  V30 10798 C 1028.21 2.11059 0.893678 0
M  V30 10799 C 1029.22 1.04787 1.24594 0
M  V30 10800 O 1030.41 1.32233 1.19903 0
M  V30 10801 C 1027.51 2.57552 2.20272 0
M  V30 10802 C 1026.69 3.87661 2.02578 0
M  V30 10803 C 1025.75 4.2 3.16996 0
M  V30 10804 O 1024.77 4.89219 2.90953 0
M  V30 10805 N 1025.97 3.75414 4.42769 0
M  V30 10806 H 1028.74 2.96532 0.434632 0
M  V30 10807 H 1026.3 1.6165 0.0898661 0
M  V30 10808 H 1028.29 2.76232 2.95766 0
M  V30 10809 H 1026.86 1.7709 2.576 0
M  V30 10810 H 1026.08 3.78128 1.11413 0
M  V30 10811 H 1027.37 4.7278 1.88032 0
M  V30 10812 H 1026.77 3.1954 4.66809 0
M  V30 10813 H 1025.32 3.99249 5.15212 0
M  V30 10814 N 1028.76 -0.17846 1.56586 0
M  V30 10815 C 1029.99 -0.910674 1.85446 0
M  V30 10816 C 1030.4 -1.76647 0.677675 0
M  V30 10817 O 1029.74 -1.80086 -0.362584 0
M  V30 10818 C 1029.8 -1.84363 3.08627 0
M  V30 10819 C 1029.46 -1.16814 4.41818 0
M  V30 10820 C 1030.46 -0.53703 5.17119 0
M  V30 10821 C 1028.15 -1.16703 4.88555 0
M  V30 10822 C 1030.14 0.0861778 6.37342 0
M  V30 10823 C 1027.83 -0.539992 6.0871 0
M  V30 10824 C 1028.83 0.0855135 6.82946 0
M  V30 10825 O 1028.51 0.70268 8.00823 0
M  V30 10826 H 1028.25 -0.270377 0.619574 0
M  V30 10827 H 1030.8 -0.185591 2.0456 0
M  V30 10828 H 1029.03 -2.60884 2.85441 0
M  V30 10829 H 1030.72 -2.44506 3.23993 0
M  V30 10830 H 1031.48 -0.529915 4.82096 0
M  V30 10831 H 1027.36 -1.64329 4.30717 0
M  V30 10832 H 1030.91 0.575011 6.95226 0
M  V30 10833 H 1026.8 -0.544666 6.43198 0
M  V30 10834 H 1027.57 0.601224 8.16289 0
M  V30 10835 N 1030.24 -1.51135 -0.446768 0
M  V30 10836 C 1031.46 -1.67411 -1.22427 0
M  V30 10837 C 1031.89 -0.367009 -1.84485 0
M  V30 10838 O 1031.24 0.67185 -1.68392 0
M  V30 10839 C 1031.29 -2.78473 -2.29096 0
M  V30 10840 O 1030.4 -2.41419 -3.34351 0
M  V30 10841 H 1029.74 -0.558512 -0.359111 0
M  V30 10842 H 1032.27 -1.97648 -0.5288 0
M  V30 10843 H 1032.28 -3.02277 -2.7403 0
M  V30 10844 H 1030.95 -3.73326 -1.83304 0
M  V30 10845 H 1029.53 -2.28152 -2.9496 0
M  V30 10846 N 1031.71 0.701592 -1.41122 0
M  V30 10847 C 1032.66 1.81559 -1.42495 0
M  V30 10848 C 1033.63 1.63722 -0.280078 0
M  V30 10849 O 1034.82 1.84658 -0.480231 0
M  V30 10850 C 1031.96 3.19392 -1.30702 0
M  V30 10851 C 1031.07 3.48704 -2.55009 0
M  V30 10852 C 1030.2 4.76118 -2.35554 0
M  V30 10853 C 1029.24 4.98378 -3.55367 0
M  V30 10854 N 1028.38 6.17014 -3.3502 0
M  V30 10855 H 1033.22 1.7972 -2.37707 0
M  V30 10856 H 1030.76 0.877727 -1.18044 0
M  V30 10857 H 1032.71 3.99004 -1.21867 0
M  V30 10858 H 1031.34 3.20423 -0.391012 0
M  V30 10859 H 1030.4 2.63542 -2.74317 0
M  V30 10860 H 1031.71 3.61057 -3.44151 0
M  V30 10861 H 1030.86 5.63774 -2.24152 0
M  V30 10862 H 1029.6 4.66 -1.43859 0
M  V30 10863 H 1028.61 4.09172 -3.6723 0
M  V30 10864 H 1029.83 5.10359 -4.48007 0
M  V30 10865 H 1027.78 6.0812 -2.4602 0
M  V30 10866 H 1027.69 6.30107 -4.17733 0
M  V30 10867 H 1028.96 7.0742 -3.27379 0
M  V30 10868 N 1033.19 1.2685 0.935242 0
M  V30 10869 C 1034.47 1.03483 1.65984 0
M  V30 10870 C 1034.85 -0.432859 2.06614 0
M  V30 10871 O 1034.2 -1.4145 1.79455 0
M  V30 10872 C 1034.41 1.98924 2.86758 0
M  V30 10873 C 1035.75 2.2787 3.58274 0
M  V30 10874 O 1036.78 1.96838 2.96873 0
M  V30 10875 O 1035.64 2.80734 4.68882 0
M  V30 10876 H 1032.73 0.393932 0.72715 0
M  V30 10877 H 1035.28 1.38085 0.986445 0
M  V30 10878 H 1034.05 2.9794 2.53668 0
M  V30 10879 H 1033.67 1.64839 3.6182 0
M  V30 10880 N 1034.67 -1.14067 1.0875 0
M  V30 10881 C 1035.62 -2.21332 0.715195 0
M  V30 10882 C 1036.61 -1.67059 -0.280679 0
M  V30 10883 O 1037.82 -1.79432 -0.142874 0
M  V30 10884 H 1034.19 -0.721126 0.213264 0
M  V30 10885 H 1036.16 -2.50002 1.62916 0
M  V30 10886 C 1034.91 -3.474 0.144401 0
M  V30 10887 H 1034.24 -3.89495 0.901884 0
M  V30 10888 H 1035.68 -4.23928 -0.0782564 0
M  V30 10889 C 1034.14 -3.17787 -1.11862 0
M  V30 10890 O 1034.67 -3.35906 -2.20295 0
M  V30 10891 N 1032.87 -2.71719 -1.03039 0
M  V30 10892 H 1032.42 -2.57175 -0.14793 0
M  V30 10893 H 1032.38 -2.52281 -1.87621 0
M  V30 10894 N 1036.15 -0.873678 -1.31166 0
M  V30 10895 C 1037.06 -0.335726 -2.32185 0
M  V30 10896 C 1038.07 0.556259 -1.64869 0
M  V30 10897 O 1039.25 0.452087 -1.9626 0
M  V30 10898 C 1036.32 0.450822 -3.43756 0
M  V30 10899 C 1035.38 -0.469565 -4.26724 0
M  V30 10900 C 1034.61 0.279538 -5.32967 0
M  V30 10901 O 1034.83 1.50715 -5.50128 0
M  V30 10902 O 1033.77 -0.36452 -6.00795 0
M  V30 10903 H 1037.59 -1.17314 -2.80127 0
M  V30 10904 H 1035.18 -0.637163 -1.35132 0
M  V30 10905 H 1037.06 0.896582 -4.11752 0
M  V30 10906 H 1035.73 1.26472 -2.9797 0
M  V30 10907 H 1034.64 -0.963902 -3.61469 0
M  V30 10908 H 1035.97 -1.24916 -4.76085 0
M  V30 10909 N 1037.63 1.44308 -0.633487 0
M  V30 10910 C 1038.85 2.06897 -0.144347 0
M  V30 10911 C 1039.28 1.47045 1.173 0
M  V30 10912 O 1038.63 0.572806 1.72013 0
M  V30 10913 C 1038.68 3.60571 -0.0456324 0
M  V30 10914 O 1037.79 4.0015 0.997682 0
M  V30 10915 H 1037.13 0.658427 -0.0858499 0
M  V30 10916 H 1039.66 1.85142 -0.870833 0
M  V30 10917 H 1039.67 4.07745 0.144178 0
M  V30 10918 H 1038.34 4.03515 -1.0074 0
M  V30 10919 H 1036.92 3.64603 0.782252 0
M  V30 10920 N 1039.1 0.374177 1.53094 0
M  V30 10921 C 1040.03 -0.459976 2.28925 0
M  V30 10922 C 1041.02 -1.07656 1.31698 0
M  V30 10923 O 1042.2 -1.09219 1.60577 0
M  V30 10924 C 1039.33 -1.5954 3.08487 0
M  V30 10925 C 1038.28 -1.10563 4.13473 0
M  V30 10926 C 1037.61 -2.33196 4.81169 0
M  V30 10927 C 1038.91 -0.184275 5.21975 0
M  V30 10928 H 1040.6 0.172692 2.98902 0
M  V30 10929 H 1038.15 0.0844956 1.43752 0
M  V30 10930 H 1040.1 -2.18565 3.60288 0
M  V30 10931 H 1038.83 -2.25543 2.36216 0
M  V30 10932 H 1037.49 -0.53801 3.62631 0
M  V30 10933 H 1037.13 -2.97675 4.05461 0
M  V30 10934 H 1036.83 -2.01094 5.52119 0
M  V30 10935 H 1038.36 -2.92892 5.35767 0
M  V30 10936 H 1039.77 -0.682262 5.69226 0
M  V30 10937 H 1038.17 0.0462746 6.00082 0
M  V30 10938 H 1039.24 0.771152 4.78729 0
M  V30 10939 N 1040.58 -1.57259 0.103575 0
M  V30 10940 C 1041.86 -1.86143 -0.600852 0
M  V30 10941 C 1042.24 -1.00198 -1.85805 0
M  V30 10942 O 1041.59 -0.0766791 -2.28371 0
M  V30 10943 C 1041.8 -3.36978 -0.908108 0
M  V30 10944 C 1043.15 -4.05228 -1.26788 0
M  V30 10945 O 1044.17 -3.41908 -0.998859 0
M  V30 10946 O 1043.03 -5.16971 -1.7721 0
M  V30 10947 H 1040.12 -0.770064 -0.301547 0
M  V30 10948 H 1042.67 -1.69147 0.136914 0
M  V30 10949 H 1041.44 -3.91296 -0.0165615 0
M  V30 10950 H 1041.06 -3.5935 -1.70156 0
M  V30 10951 N 1042.06 0.170153 -1.56679 0
M  V30 10952 C 1043.01 1.22997 -1.9742 0
M  V30 10953 C 1044 1.45762 -0.863117 0
M  V30 10954 O 1045.21 1.46328 -1.04824 0
M  V30 10955 H 1041.58 0.413482 -0.628122 0
M  V30 10956 H 1043.55 0.859502 -2.85754 0
M  V30 10957 C 1042.3 2.5615 -2.35122 0
M  V30 10958 H 1041.63 2.39456 -3.20158 0
M  V30 10959 H 1043.07 3.28991 -2.67471 0
M  V30 10960 C 1041.53 3.14992 -1.19507 0
M  V30 10961 O 1042.06 3.98781 -0.483357 0
M  V30 10962 N 1040.26 2.74098 -0.965332 0
M  V30 10963 H 1039.81 2.06062 -1.54585 0
M  V30 10964 H 1039.77 3.13803 -0.193611 0
M  V30 10965 N 1043.54 1.5137 0.438746 0
M  V30 10966 C 1044.77 1.67774 1.21077 0
M  V30 10967 C 1045.18 0.374489 1.85049 0
M  V30 10968 O 1044.54 -0.646867 1.70651 0
M  V30 10969 C 1044.59 2.79238 2.29584 0
M  V30 10970 O 1044.31 4.04513 1.68228 0
M  V30 10971 C 1045.81 3.06898 3.19888 0
M  V30 10972 H 1043.03 0.563054 0.364981 0
M  V30 10973 H 1045.58 1.97777 0.520035 0
M  V30 10974 H 1043.73 2.51837 2.94375 0
M  V30 10975 H 1044.14 4.66405 2.3993 0
M  V30 10976 H 1045.62 3.88476 3.92162 0
M  V30 10977 H 1046.1 2.19249 3.80561 0
M  V30 10978 H 1046.7 3.35952 2.60799 0
M  V30 10979 N 1045.02 -0.694098 1.41492 0
M  V30 10980 C 1046.29 -1.44875 1.31418 0
M  V30 10981 C 1046.67 -2.11022 -0.0575538 0
M  V30 10982 O 1046.02 -2.01799 -1.07188 0
M  V30 10983 C 1046.23 -2.46698 2.46863 0
M  V30 10984 C 1047.58 -3.11907 2.88095 0
M  V30 10985 O 1048.6 -2.57022 2.46613 0
M  V30 10986 O 1047.46 -4.11318 3.59833 0
M  V30 10987 H 1044.56 -0.645266 0.517263 0
M  V30 10988 H 1047.1 -0.724452 1.53459 0
M  V30 10989 H 1045.87 -1.96485 3.38392 0
M  V30 10990 H 1045.5 -3.26634 2.26706 0
M  V30 10991 N 1046.49 -1.27344 -0.928501 0
M  V30 10992 C 1047.46 -1.10043 -2.01055 0
M  V30 10993 C 1048.46 -0.0446793 -1.60738 0
M  V30 10994 O 1049.65 -0.289202 -1.71783 0
M  V30 10995 C 1046.78 -0.676559 -3.34119 0
M  V30 10996 H 1047.97 -2.06126 -2.17835 0
M  V30 10997 H 1045.53 -1.10121 -1.10919 0
M  V30 10998 H 1046.26 0.285697 -3.23039 0
M  V30 10999 H 1046.05 -1.43903 -3.64739 0
M  V30 11000 H 1047.54 -0.577725 -4.13584 0
M  V30 11001 N 1047.97 1.13488 -1.09353 0
M  V30 11002 C 1049.22 1.85022 -0.830354 0
M  V30 11003 C 1049.55 1.83266 0.64242 0
M  V30 11004 O 1048.83 1.27024 1.47293 0
M  V30 11005 C 1049.11 3.33218 -1.36521 0
M  V30 11006 C 1048.96 3.43491 -2.90404 0
M  V30 11007 C 1050.28 4.28626 -0.998381 0
M  V30 11008 H 1047.4 0.671786 -0.303105 0
M  V30 11009 H 1050.04 1.33211 -1.3548 0
M  V30 11010 H 1048.19 3.77471 -0.919117 0
M  V30 11011 H 1049.86 3.07954 -3.43456 0
M  V30 11012 H 1048.11 2.84391 -3.27573 0
M  V30 11013 H 1048.78 4.47702 -3.22905 0
M  V30 11014 H 1051.25 3.9244 -1.38311 0
M  V30 11015 H 1050.13 5.30754 -1.39968 0
M  V30 11016 H 1050.39 4.42001 0.093517 0
M  V30 11017 N 1049.45 0.880621 1.30701 0
M  V30 11018 C 1050.7 0.497611 1.966 0
M  V30 11019 C 1051.03 -0.949901 1.69383 0
M  V30 11020 O 1050.31 -1.67054 0.996152 0
M  V30 11021 C 1050.59 0.767919 3.51817 0
M  V30 11022 C 1050.44 2.26574 3.88567 0
M  V30 11023 C 1051.76 0.241502 4.39437 0
M  V30 11024 H 1048.88 0.182267 0.714106 0
M  V30 11025 H 1051.52 1.10382 1.54648 0
M  V30 11026 H 1049.67 0.251967 3.87682 0
M  V30 11027 H 1051.34 2.84977 3.62748 0
M  V30 11028 H 1049.59 2.73411 3.36792 0
M  V30 11029 H 1050.26 2.40549 4.9683 0
M  V30 11030 H 1052.73 0.683051 4.10455 0
M  V30 11031 H 1051.61 0.459997 5.46969 0
M  V30 11032 H 1051.87 -0.857068 4.33713 0
M  V30 11033 N 1050.93 -1.4397 0.641131 0
M  V30 11034 C 1052.18 -2.02782 0.158406 0
M  V30 11035 C 1052.53 -1.496 -1.20986 0
M  V30 11036 O 1051.82 -0.674517 -1.79334 0
M  V30 11037 C 1052.02 -3.5727 0.0963368 0
M  V30 11038 C 1051.85 -4.25441 1.45704 0
M  V30 11039 C 1050.62 -4.62008 2.04637 0
M  V30 11040 C 1052.81 -4.55238 2.39297 0
M  V30 11041 N 1050.8 -5.15194 3.33839 0
M  V30 11042 C 1052.17 -5.09613 3.53121 0
M  V30 11043 C 1054.22 -4.37197 2.38251 0
M  V30 11044 C 1052.93 -5.47847 4.66108 0
M  V30 11045 C 1054.95 -4.76485 3.50309 0
M  V30 11046 C 1054.31 -5.30982 4.62858 0
M  V30 11047 H 1050.41 -0.775304 0.102117 0
M  V30 11048 H 1053 -1.75321 0.846805 0
M  V30 11049 H 1051.17 -3.84322 -0.561369 0
M  V30 11050 H 1052.9 -4.02757 -0.39614 0
M  V30 11051 H 1049.65 -4.46653 1.57474 0
M  V30 11052 H 1050.08 -5.46253 3.99921 0
M  V30 11053 H 1054.72 -3.94347 1.5248 0
M  V30 11054 H 1052.44 -5.89646 5.52579 0
M  V30 11055 H 1056.02 -4.6423 3.50687 0
M  V30 11056 H 1054.9 -5.6082 5.48133 0
M  V30 11057 N 1052.41 -0.382291 -1.52893 0
M  V30 11058 C 1053.34 0.500194 -2.22651 0
M  V30 11059 C 1054.32 1.06969 -1.22459 0
M  V30 11060 O 1055.5 1.12267 -1.51422 0
M  V30 11061 C 1052.63 1.6917 -2.93427 0
M  V30 11062 C 1051.68 1.24811 -4.07829 0
M  V30 11063 S 1052.51 0.235466 -5.34982 0
M  V30 11064 C 1053.66 1.43292 -6.09277 0
M  V30 11065 H 1053.9 -0.0921913 -2.97157 0
M  V30 11066 H 1051.43 -0.16645 -1.535 0
M  V30 11067 H 1053.39 2.37507 -3.34815 0
M  V30 11068 H 1052.05 2.25537 -2.18613 0
M  V30 11069 H 1051.24 2.13754 -4.56426 0
M  V30 11070 H 1050.84 0.643744 -3.68418 0
M  V30 11071 H 1053.14 2.36118 -6.35023 0
M  V30 11072 H 1054.08 0.988003 -7.01173 0
M  V30 11073 H 1054.49 1.64655 -5.39953 0
M  V30 11074 N 1053.89 1.57202 -0.111913 0
M  V30 11075 C 1055.11 1.99297 0.555713 0
M  V30 11076 C 1055.53 0.991444 1.60673 0
M  V30 11077 O 1054.89 -0.0166672 1.82492 0
M  V30 11078 C 1054.94 3.41413 1.18826 0
M  V30 11079 O 1054.66 4.37733 0.179261 0
M  V30 11080 C 1056.16 3.98602 1.93989 0
M  V30 11081 H 1053.38 0.654543 0.147695 0
M  V30 11082 H 1055.92 2.03557 -0.196163 0
M  V30 11083 H 1054.08 3.38115 1.89096 0
M  V30 11084 H 1054.49 5.20606 0.637935 0
M  V30 11085 H 1055.97 5.00143 2.33584 0
M  V30 11086 H 1056.44 3.37349 2.81233 0
M  V30 11087 H 1057.05 4.05424 1.28497 0
M  V30 11088 N 1055.36 -0.161842 1.56767 0
M  V30 11089 C 1056.59 -0.892247 1.86672 0
M  V30 11090 C 1057.01 -1.75407 0.69841 0
M  V30 11091 O 1056.36 -1.7945 -0.332251 0
M  V30 11092 C 1056.41 -1.7612 3.15696 0
M  V30 11093 O 1056.14 -0.934131 4.28025 0
M  V30 11094 C 1057.64 -2.60046 3.59014 0
M  V30 11095 H 1054.86 -0.258747 0.619105 0
M  V30 11096 H 1057.4 -0.159089 2.0388 0
M  V30 11097 H 1055.56 -2.44759 3.00286 0
M  V30 11098 H 1055.97 -1.52931 5.01709 0
M  V30 11099 H 1057.44 -3.16618 4.5217 0
M  V30 11100 H 1057.92 -3.35374 2.83586 0
M  V30 11101 H 1058.53 -1.96724 3.77067 0
M  V30 11102 N 1056.84 -1.516 -0.430713 0
M  V30 11103 C 1058.09 -1.64271 -1.17726 0
M  V30 11104 C 1058.41 -0.364406 -1.91565 0
M  V30 11105 O 1057.68 0.619991 -1.8583 0
M  V30 11106 H 1056.26 -0.605432 -0.437562 0
M  V30 11107 H 1058.92 -1.88557 -0.493166 0
M  V30 11108 H 1058.02 -2.47355 -1.90321 0
M  V30 11109 N 1058.32 0.686584 -1.41858 0
M  V30 11110 C 1059.55 1.47519 -1.45072 0
M  V30 11111 C 1059.96 1.88709 -0.0585868 0
M  V30 11112 O 1059.32 1.57373 0.924116 0
M  V30 11113 C 1059.37 2.73195 -2.36742 0
M  V30 11114 O 1059.09 2.33736 -3.70539 0
M  V30 11115 C 1060.59 3.66861 -2.48854 0
M  V30 11116 H 1057.81 0.454307 -0.493808 0
M  V30 11117 H 1060.36 0.844612 -1.86243 0
M  V30 11118 H 1058.51 3.32468 -1.98856 0
M  V30 11119 H 1058.93 3.14809 -4.19518 0
M  V30 11120 H 1060.4 4.51801 -3.17143 0
M  V30 11121 H 1060.88 4.11961 -1.52265 0
M  V30 11122 H 1061.48 3.13486 -2.87414 0
M  V30 11123 N 1059.8 1.27835 0.921735 0
M  V30 11124 C 1061.03 1.17352 1.704 0
M  V30 11125 C 1061.44 -0.268892 1.86875 0
M  V30 11126 O 1060.8 -1.18253 1.39005 0
M  V30 11127 C 1060.85 1.85889 3.10045 0
M  V30 11128 O 1060.57 3.24495 2.94338 0
M  V30 11129 C 1062.07 1.81607 4.04393 0
M  V30 11130 H 1059.29 0.40773 0.532914 0
M  V30 11131 H 1061.83 1.68815 1.15419 0
M  V30 11132 H 1059.99 1.38316 3.61867 0
M  V30 11133 H 1060.4 3.58705 3.82663 0
M  V30 11134 H 1061.88 2.34165 4.99871 0
M  V30 11135 H 1062.35 0.786697 4.32097 0
M  V30 11136 H 1062.96 2.28822 3.58498 0
M  V30 11137 N 1061.28 -1.12907 1.09954 0
M  V30 11138 C 1062.23 -2.16558 0.713204 0
M  V30 11139 C 1063.21 -1.5853 -0.27515 0
M  V30 11140 O 1064.4 -1.76797 -0.0846643 0
M  V30 11141 C 1061.53 -3.43009 0.141224 0
M  V30 11142 C 1060.62 -4.08032 1.15632 0
M  V30 11143 N 1061.01 -4.48139 2.34531 0
M  V30 11144 C 1059.31 -4.34743 0.995701 0
M  V30 11145 C 1060.01 -4.98885 2.99147 0
M  V30 11146 N 1058.98 -4.9408 2.26684 0
M  V30 11147 H 1062.78 -2.45328 1.61838 0
M  V30 11148 H 1060.3 -1.29759 0.976539 0
M  V30 11149 H 1062.3 -4.16617 -0.153598 0
M  V30 11150 H 1060.96 -3.15711 -0.758729 0
M  V30 11151 H 1061.97 -4.40668 2.72089 0
M  V30 11152 H 1058.64 -4.17227 0.150888 0
M  V30 11153 H 1060.03 -5.3967 4.00257 0
M  V30 11154 N 1062.75 -0.88754 -1.30232 0
M  V30 11155 C 1064 -0.508031 -1.96334 0
M  V30 11156 C 1064.33 0.940905 -1.69884 0
M  V30 11157 O 1063.61 1.66523 -1.005 0
M  V30 11158 C 1063.89 -0.786566 -3.51405 0
M  V30 11159 C 1063.74 -2.28632 -3.8736 0
M  V30 11160 C 1065.06 -0.264803 -4.39303 0
M  V30 11161 H 1062.18 -0.186051 -0.71313 0
M  V30 11162 H 1064.82 -1.112 -1.5406 0
M  V30 11163 H 1062.97 -0.272523 -3.87543 0
M  V30 11164 H 1064.65 -2.86896 -3.61231 0
M  V30 11165 H 1062.89 -2.75194 -3.35337 0
M  V30 11166 H 1063.56 -2.43181 -4.95547 0
M  V30 11167 H 1066.04 -0.704809 -4.10087 0
M  V30 11168 H 1064.91 -0.488998 -5.46717 0
M  V30 11169 H 1065.17 0.834055 -4.34161 0
M  V30 11170 N 1064.23 1.43628 -0.648757 0
M  V30 11171 C 1065.2 2.29172 0.0360713 0
M  V30 11172 C 1066.2 1.41974 0.754976 0
M  V30 11173 O 1067.39 1.63654 0.5969 0
M  V30 11174 C 1064.52 3.23942 1.0618 0
M  V30 11175 H 1065.71 2.91214 -0.716544 0
M  V30 11176 H 1063.26 1.50833 -0.409759 0
M  V30 11177 H 1064 2.66786 1.8438 0
M  V30 11178 H 1063.78 3.88223 0.550016 0
M  V30 11179 H 1065.27 3.8816 1.54019 0
M  V30 11180 N 1065.71 0.390394 1.52688 0
M  V30 11181 C 1067.13 0.0404028 1.59549 0
M  V30 11182 C 1067.33 -1.44503 1.40432 0
M  V30 11183 O 1066.38 -2.20968 1.22187 0
M  V30 11184 C 1067.7 0.518561 2.96195 0
M  V30 11185 C 1069.24 0.474913 3.09376 0
M  V30 11186 C 1069.72 0.929278 4.48473 0
M  V30 11187 N 1071.21 0.885335 4.5466 0
M  V30 11188 C 1071.94 1.2083 5.60524 0
M  V30 11189 N 1071.44 1.6018 6.74028 0
M  V30 11190 N 1073.23 1.12949 5.50635 0
M  V30 11191 H 1065.38 1.35743 1.63363 0
M  V30 11192 H 1067.65 0.556453 0.767505 0
M  V30 11193 H 1067.35 1.55606 3.15404 0
M  V30 11194 H 1067.23 -0.081779 3.77111 0
M  V30 11195 H 1069.61 -0.553503 2.89863 0
M  V30 11196 H 1069.7 1.11107 2.3041 0
M  V30 11197 H 1069.34 1.95593 4.68728 0
M  V30 11198 H 1069.27 0.270121 5.25907 0
M  V30 11199 H 1071.76 0.595787 3.73174 0
M  V30 11200 H 1072.07 1.83184 7.50775 0
M  V30 11201 H 1070.42 1.64067 6.75357 0
M  V30 11202 H 1073.61 0.821074 4.60843 0
M  V30 11203 H 1073.78 1.3845 6.33037 0
M  V30 11204 N 1067.19 -1.57141 0.120249 0
M  V30 11205 C 1068.15 -2.14213 -0.815185 0
M  V30 11206 C 1069.15 -1.07731 -1.19376 0
M  V30 11207 O 1070.34 -1.33502 -1.11906 0
M  V30 11208 C 1067.47 -2.68339 -2.10255 0
M  V30 11209 H 1068.67 -2.98197 -0.319166 0
M  V30 11210 H 1066.22 -1.55767 -0.128997 0
M  V30 11211 H 1066.95 -1.87946 -2.64285 0
M  V30 11212 H 1066.74 -3.46216 -1.84057 0
M  V30 11213 H 1068.23 -3.124 -2.77121 0
M  V30 11214 N 1068.67 0.153526 -1.5685 0
M  V30 11215 C 1069.58 1.20932 -2.01029 0
M  V30 11216 C 1070.59 1.47401 -0.924598 0
M  V30 11217 O 1071.77 1.592 -1.23359 0
M  V30 11218 C 1068.83 2.52438 -2.37647 0
M  V30 11219 C 1067.89 2.33673 -3.60132 0
M  V30 11220 C 1067.13 3.58909 -3.94994 0
M  V30 11221 O 1067.35 4.64823 -3.30599 0
M  V30 11222 O 1066.28 3.5196 -4.8827 0
M  V30 11223 H 1070.11 0.864273 -2.91143 0
M  V30 11224 H 1067.7 0.361755 -1.44954 0
M  V30 11225 H 1069.58 3.29981 -2.62088 0
M  V30 11226 H 1068.25 2.86486 -1.5069 0
M  V30 11227 H 1067.16 1.54102 -3.40886 0
M  V30 11228 H 1068.49 2.04544 -4.47686 0
M  V30 11229 N 1070.14 1.51827 0.422667 0
M  V30 11230 C 1071.05 1.77066 1.53899 0
M  V30 11231 C 1072.07 0.655541 1.61179 0
M  V30 11232 O 1073.25 0.939448 1.78147 0
M  V30 11233 C 1070.31 1.90372 2.89758 0
M  V30 11234 C 1069.37 3.14256 2.92475 0
M  V30 11235 C 1068.61 3.26918 4.21853 0
M  V30 11236 O 1068.83 2.45164 5.15025 0
M  V30 11237 O 1067.76 4.19989 4.31153 0
M  V30 11238 H 1071.59 2.71791 1.35511 0
M  V30 11239 H 1069.17 1.36506 0.607165 0
M  V30 11240 H 1071.06 2.01024 3.70361 0
M  V30 11241 H 1069.73 0.988347 3.08242 0
M  V30 11242 H 1068.64 3.09072 2.10773 0
M  V30 11243 H 1069.97 4.0553 2.78937 0
M  V30 11244 N 1071.62 -0.679052 1.4222 0
M  V30 11245 C 1072.87 -1.43978 1.43673 0
M  V30 11246 C 1073.22 -1.92333 0.0506711 0
M  V30 11247 O 1072.52 -1.67715 -0.926406 0
M  V30 11248 C 1072.71 -2.65528 2.39227 0
M  V30 11249 C 1072.54 -2.29065 3.86987 0
M  V30 11250 C 1071.31 -2.1863 4.55553 0
M  V30 11251 C 1073.51 -1.90983 4.77525 0
M  V30 11252 N 1071.49 -1.75227 5.88361 0
M  V30 11253 C 1072.86 -1.58465 5.99407 0
M  V30 11254 C 1074.92 -1.77938 4.65019 0
M  V30 11255 C 1073.62 -1.14212 7.10175 0
M  V30 11256 C 1075.64 -1.35089 5.75765 0
M  V30 11257 C 1075.01 -1.03493 6.96756 0
M  V30 11258 H 1071.11 -0.523503 0.58092 0
M  V30 11259 H 1073.69 -0.784043 1.78216 0
M  V30 11260 H 1071.86 -3.28797 2.06753 0
M  V30 11261 H 1073.59 -3.32096 2.31288 0
M  V30 11262 H 1070.35 -2.37562 4.09709 0
M  V30 11263 H 1070.77 -1.5596 6.58791 0
M  V30 11264 H 1075.41 -2.01013 3.71959 0
M  V30 11265 H 1073.13 -0.89882 8.03086 0
M  V30 11266 H 1076.72 -1.25522 5.68098 0
M  V30 11267 H 1075.6 -0.708396 7.80994 0
M  V30 11268 N 1073.1 -1.28322 -0.914942 0
M  V30 11269 C 1074.51 -1.13937 -1.47903 0
M  V30 11270 C 1074.86 0.271072 -1.94318 0
M  V30 11271 O 1073.99 1.16522 -1.8235 0
M  V30 11272 C 1074.58 -2.06221 -2.68809 0
M  V30 11273 C 1073.14 -1.95903 -3.21402 0
M  V30 11274 C 1072.29 -1.98031 -1.94111 0
M  V30 11275 H 1075.24 -1.41029 -0.727772 0
M  V30 11276 H 1075.26 -1.6255 -3.44031 0
M  V30 11277 H 1074.77 -3.08866 -2.34997 0
M  V30 11278 H 1072.87 -0.962907 -3.59943 0
M  V30 11279 H 1072.99 -2.82799 -3.86732 0
M  V30 11280 H 1071.35 -1.42423 -2.11158 0
M  V30 11281 H 1072.13 -3.02354 -1.62595 0
M  V30 11282 N 1074.58 1.12322 -1.10551 0
M  V30 11283 C 1075.83 1.83216 -0.84349 0
M  V30 11284 C 1076.14 1.85075 0.632992 0
M  V30 11285 O 1077.35 2.51976 1.01095 0
M  V30 11286 C 1075.8 3.28994 -1.45915 0
M  V30 11287 C 1075.41 3.3549 -2.96901 0
M  V30 11288 C 1077.15 4.0485 -1.27657 0
M  V30 11289 C 1075.06 4.7561 -3.51496 0
M  V30 11290 H 1073.99 0.686471 -0.311887 0
M  V30 11291 H 1076.64 1.26463 -1.32964 0
M  V30 11292 H 1075.02 3.85621 -0.900678 0
M  V30 11293 H 1076.2 2.88795 -3.59074 0
M  V30 11294 H 1074.51 2.73107 -3.14327 0
M  V30 11295 H 1077.11 5.08316 -1.65889 0
M  V30 11296 H 1077.45 4.15727 -0.218258 0
M  V30 11297 H 1077.99 3.54584 -1.80318 0
M  V30 11298 H 1074.73 4.69927 -4.56999 0
M  V30 11299 H 1074.25 5.22753 -2.94091 0
M  V30 11300 H 1075.92 5.44552 -3.49388 0
M  V30 11301 N 1076.06 0.894434 1.2976 0
M  V30 11302 C 1076.99 0.312806 2.26046 0
M  V30 11303 C 1077.97 -0.572024 1.52206 0
M  V30 11304 O 1079.15 -0.520009 1.81185 0
M  V30 11305 C 1076.28 -0.554624 3.34128 0
M  V30 11306 C 1075.32 0.262168 4.25693 0
M  V30 11307 S 1076.16 1.65656 5.09233 0
M  V30 11308 C 1077.31 0.795914 6.20819 0
M  V30 11309 H 1077.55 1.12895 2.75031 0
M  V30 11310 H 1075.08 0.694446 1.37901 0
M  V30 11311 H 1077.04 -1.04933 3.96862 0
M  V30 11312 H 1075.7 -1.34495 2.83848 0
M  V30 11313 H 1074.89 -0.400216 5.02408 0
M  V30 11314 H 1074.49 0.689829 3.67583 0
M  V30 11315 H 1076.79 0.0169942 6.77498 0
M  V30 11316 H 1077.73 1.53497 6.91263 0
M  V30 11317 H 1078.14 0.35263 5.63398 0
M  V30 11318 N 1077.53 -1.43282 0.656365 0
M  V30 11319 C 1078.95 -1.85012 0.250475 0
M  V30 11320 C 1079.3 -1.54944 -1.20361 0
M  V30 11321 O 1078.42 -0.999983 -1.9191 0
M  V30 11322 C 1079.02 -3.35827 0.447815 0
M  V30 11323 C 1077.58 -3.76277 0.0962151 0
M  V30 11324 C 1076.72 -2.66988 0.749168 0
M  V30 11325 H 1079.67 -1.3339 0.85982 0
M  V30 11326 H 1079.69 -3.7927 -0.305726 0
M  V30 11327 H 1079.21 -3.5768 1.5062 0
M  V30 11328 H 1077.31 -3.60035 -0.959449 0
M  V30 11329 H 1077.42 -4.76227 0.523875 0
M  V30 11330 H 1075.78 -2.54048 0.18212 0
M  V30 11331 H 1076.57 -2.91669 1.81064 0
M  V30 11332 N 1079.01 -0.398486 -1.52479 0
M  V30 11333 C 1080.24 0.180557 -2.06111 0
M  V30 11334 C 1080.66 1.39751 -1.26945 0
M  V30 11335 O 1080.01 1.79699 -0.318497 0
M  V30 11336 C 1080.06 0.541573 -3.5742 0
M  V30 11337 O 1079.79 -0.627043 -4.33589 0
M  V30 11338 C 1081.29 1.17549 -4.27431 0
M  V30 11339 H 1078.51 0.0250754 -0.670531 0
M  V30 11340 H 1081.05 -0.566368 -1.96501 0
M  V30 11341 H 1079.21 1.23839 -3.67073 0
M  V30 11342 H 1079.62 -0.328233 -5.23472 0
M  V30 11343 H 1081.09 1.37839 -5.34513 0
M  V30 11344 H 1081.57 2.14553 -3.83228 0
M  V30 11345 H 1082.18 0.51918 -4.22119 0
M  V30 11346 N 1080.49 1.57075 -0.12858 0
M  V30 11347 C 1081.4 2.19369 0.831533 0
M  V30 11348 C 1082.42 1.17258 1.28555 0
M  V30 11349 O 1083.59 1.49766 1.34656 0
M  V30 11350 C 1080.66 2.78846 2.06024 0
M  V30 11351 C 1079.72 3.96024 1.65722 0
M  V30 11352 C 1078.95 4.52655 2.82735 0
M  V30 11353 O 1079.18 4.08175 3.98434 0
M  V30 11354 O 1078.11 5.43198 2.59268 0
M  V30 11355 H 1081.94 3.01887 0.331352 0
M  V30 11356 H 1079.52 1.49081 0.0975226 0
M  V30 11357 H 1081.4 3.16721 2.77967 0
M  V30 11358 H 1080.08 1.99353 2.5503 0
M  V30 11359 H 1078.98 3.62899 0.908574 0
M  V30 11360 H 1080.32 4.76981 1.21449 0
M  V30 11361 N 1081.97 -0.145205 1.5693 0
M  V30 11362 C 1083.22 -0.85395 1.84606 0
M  V30 11363 C 1083.57 -1.78709 0.712811 0
M  V30 11364 O 1082.86 -1.89406 -0.289108 0
M  V30 11365 C 1083.06 -1.66391 3.16305 0
M  V30 11366 C 1082.89 -0.810698 4.42332 0
M  V30 11367 C 1081.66 -0.475623 5.03057 0
M  V30 11368 C 1083.85 -0.140213 5.14109 0
M  V30 11369 N 1081.84 0.390996 6.12654 0
M  V30 11370 C 1083.21 0.586471 6.1722 0
M  V30 11371 C 1085.26 -0.0610725 4.97863 0
M  V30 11372 C 1083.97 1.38483 7.05844 0
M  V30 11373 C 1085.99 0.724026 5.86951 0
M  V30 11374 C 1085.35 1.43899 6.89545 0
M  V30 11375 H 1081.45 -0.290253 0.726138 0
M  V30 11376 H 1084.04 -0.119211 1.94335 0
M  V30 11377 H 1082.21 -2.36987 3.0772 0
M  V30 11378 H 1083.94 -2.31596 3.31882 0
M  V30 11379 H 1080.69 -0.811824 4.6659 0
M  V30 11380 H 1081.12 0.815383 6.72072 0
M  V30 11381 H 1085.76 -0.599475 4.18529 0
M  V30 11382 H 1083.48 1.93448 7.84604 0
M  V30 11383 H 1087.06 0.787276 5.76449 0
M  V30 11384 H 1085.94 2.03674 7.57289 0
M  V30 11385 N 1083.45 -1.52049 -0.414609 0
M  V30 11386 C 1084.69 -1.66084 -1.16379 0
M  V30 11387 C 1085.03 -0.386932 -1.90306 0
M  V30 11388 O 1084.3 0.614441 -1.8454 0
M  V30 11389 C 1084.58 -2.87927 -2.16264 0
M  V30 11390 C 1084.44 -4.25353 -1.46269 0
M  V30 11391 C 1085.76 -3.05289 -3.16996 0
M  V30 11392 H 1082.88 -0.604414 -0.421726 0
M  V30 11393 H 1085.52 -1.8459 -0.450177 0
M  V30 11394 H 1083.67 -2.7228 -2.77121 0
M  V30 11395 H 1085.34 -4.52717 -0.885743 0
M  V30 11396 H 1083.58 -4.27006 -0.76472 0
M  V30 11397 H 1084.25 -5.06644 -2.19126 0
M  V30 11398 H 1086.73 -3.19798 -2.66212 0
M  V30 11399 H 1085.61 -3.92065 -3.84156 0
M  V30 11400 H 1085.87 -2.1836 -3.84411 0
M  V30 11401 N 1084.93 0.6715 -1.42579 0
M  V30 11402 C 1085.88 1.77767 -1.42769 0
M  V30 11403 C 1086.86 1.58106 -0.298568 0
M  V30 11404 O 1088.05 1.68528 -0.541037 0
M  V30 11405 C 1085.18 3.16248 -1.33574 0
M  V30 11406 C 1084.27 3.41521 -2.51445 0
M  V30 11407 N 1084.66 3.37361 -3.76857 0
M  V30 11408 C 1082.96 3.7217 -2.45776 0
M  V30 11409 C 1083.66 3.62209 -4.5517 0
M  V30 11410 N 1082.63 3.83134 -3.85628 0
M  V30 11411 H 1086.43 1.72949 -2.37626 0
M  V30 11412 H 1083.95 0.872467 -1.36974 0
M  V30 11413 H 1085.95 3.9552 -1.31793 0
M  V30 11414 H 1084.61 3.22261 -0.397223 0
M  V30 11415 H 1085.62 3.17187 -4.09406 0
M  V30 11416 H 1082.29 3.85408 -1.6052 0
M  V30 11417 H 1083.68 3.64925 -5.64162 0
M  V30 11418 N 1086.4 1.28806 0.908124 0
M  V30 11419 C 1087.63 1.19153 1.69146 0
M  V30 11420 C 1088.05 -0.249056 1.8715 0
M  V30 11421 O 1087.4 -1.16772 1.40251 0
M  V30 11422 C 1087.45 1.89167 3.08055 0
M  V30 11423 O 1087.18 3.27599 2.90879 0
M  V30 11424 C 1088.68 1.85886 4.02444 0
M  V30 11425 H 1085.9 0.413359 0.528559 0
M  V30 11426 H 1088.44 1.7003 1.13622 0
M  V30 11427 H 1086.6 1.42146 3.60379 0
M  V30 11428 H 1087.01 3.62743 3.78837 0
M  V30 11429 H 1088.48 2.39454 4.97359 0
M  V30 11430 H 1088.96 0.832483 4.31238 0
M  V30 11431 H 1089.57 2.32612 3.5605 0
M  V30 11432 N 1087.88 -1.11734 1.11145 0
M  V30 11433 C 1088.81 -2.1976 0.789152 0
M  V30 11434 C 1089.79 -1.68382 -0.241143 0
M  V30 11435 O 1090.98 -1.93914 -0.105292 0
M  V30 11436 C 1088.11 -3.46549 0.228204 0
M  V30 11437 C 1087.06 -4.11123 1.19002 0
M  V30 11438 C 1086.39 -5.32451 0.489928 0
M  V30 11439 C 1087.69 -4.56406 2.53951 0
M  V30 11440 H 1089.38 -2.46978 1.69241 0
M  V30 11441 H 1086.93 -1.18705 0.81517 0
M  V30 11442 H 1088.88 -4.21399 -0.00945908 0
M  V30 11443 H 1087.6 -3.18782 -0.71033 0
M  V30 11444 H 1086.26 -3.38264 1.41326 0
M  V30 11445 H 1085.91 -5.00953 -0.453315 0
M  V30 11446 H 1085.61 -5.76605 1.1314 0
M  V30 11447 H 1087.14 -6.10042 0.260984 0
M  V30 11448 H 1088.55 -5.22592 2.35733 0
M  V30 11449 H 1086.95 -5.11363 3.14051 0
M  V30 11450 H 1088.02 -3.7001 3.13402 0
M  V30 11451 N 1089.36 -0.901303 -1.29284 0
M  V30 11452 C 1090.29 -0.396909 -2.30102 0
M  V30 11453 C 1091.27 0.528919 -1.61668 0
M  V30 11454 O 1092.46 0.439306 -1.89166 0
M  V30 11455 C 1089.59 0.375006 -3.45269 0
M  V30 11456 C 1088.54 -0.46054 -4.25515 0
M  V30 11457 C 1087.87 0.438967 -5.32895 0
M  V30 11458 C 1089.17 -1.7113 -4.93469 0
M  V30 11459 H 1090.86 -1.23943 -2.72541 0
M  V30 11460 H 1088.41 -0.597428 -1.31022 0
M  V30 11461 H 1090.36 0.738622 -4.14876 0
M  V30 11462 H 1089.08 1.25132 -3.01678 0
M  V30 11463 H 1087.74 -0.80651 -3.57618 0
M  V30 11464 H 1087.39 1.31346 -4.85548 0
M  V30 11465 H 1087.09 -0.116406 -5.87485 0
M  V30 11466 H 1088.61 0.79874 -6.05353 0
M  V30 11467 H 1090.03 -1.41732 -5.55504 0
M  V30 11468 H 1088.42 -2.20811 -5.57999 0
M  V30 11469 H 1089.49 -2.44636 -4.18666 0
M  V30 11470 N 1090.84 1.42931 -0.663954 0
M  V30 11471 C 1091.78 2.3079 0.0210764 0
M  V30 11472 C 1092.75 1.45356 0.803796 0
M  V30 11473 O 1093.94 1.74207 0.778237 0
M  V30 11474 C 1091.08 3.31069 0.974023 0
M  V30 11475 C 1090.19 4.31598 0.186273 0
M  V30 11476 C 1089.33 5.18955 1.13399 0
M  V30 11477 C 1088.37 6.1117 0.337292 0
M  V30 11478 N 1087.5 6.91114 1.23715 0
M  V30 11479 H 1092.34 2.88819 -0.733995 0
M  V30 11480 H 1089.88 1.42274 -0.373711 0
M  V30 11481 H 1091.84 3.87727 1.54024 0
M  V30 11482 H 1090.47 2.74665 1.69585 0
M  V30 11483 H 1089.52 3.77147 -0.496402 0
M  V30 11484 H 1090.83 4.96919 -0.432753 0
M  V30 11485 H 1089.99 5.80292 1.77049 0
M  V30 11486 H 1088.73 4.53785 1.78691 0
M  V30 11487 H 1087.73 5.48911 -0.312492 0
M  V30 11488 H 1088.96 6.78386 -0.31138 0
M  V30 11489 H 1086.9 6.28583 1.87668 0
M  V30 11490 H 1086.82 7.52999 0.672946 0
M  V30 11491 H 1088.09 7.56948 1.86146 0
M  V30 11492 N 1092.32 0.406567 1.52266 0
M  V30 11493 C 1093.73 -0.063607 1.86592 0
M  V30 11494 C 1094.08 -1.4466 1.32544 0
M  V30 11495 O 1093.2 -2.05971 0.663692 0
M  V30 11496 C 1093.8 -0.122198 3.3858 0
M  V30 11497 C 1092.36 -0.536701 3.72554 0
M  V30 11498 C 1091.5 0.290422 2.75775 0
M  V30 11499 H 1094.45 0.623738 1.45929 0
M  V30 11500 H 1094.48 -0.937964 3.68758 0
M  V30 11501 H 1093.99 0.884495 3.77887 0
M  V30 11502 H 1092.09 -1.55013 3.38824 0
M  V30 11503 H 1092.2 -0.282867 4.78264 0
M  V30 11504 H 1090.57 -0.246864 2.53501 0
M  V30 11505 H 1091.35 1.29541 3.17921 0
M  V30 11506 N 1093.79 -1.57004 0.136909 0
M  V30 11507 C 1095.04 -1.96873 -0.511137 0
M  V30 11508 C 1095.4 -1.02001 -1.63137 0
M  V30 11509 O 1094.69 -0.0532138 -1.91526 0
M  V30 11510 C 1094.88 -3.40903 -1.07331 0
M  V30 11511 C 1094.71 -4.49699 -0.00908112 0
M  V30 11512 C 1093.48 -5.03477 0.42889 0
M  V30 11513 C 1095.68 -5.08372 0.778631 0
M  V30 11514 N 1093.66 -5.95867 1.47702 0
M  V30 11515 C 1095.03 -5.96875 1.67751 0
M  V30 11516 C 1097.09 -4.90975 0.827538 0
M  V30 11517 C 1095.79 -6.69845 2.62108 0
M  V30 11518 C 1097.82 -5.64639 1.75889 0
M  V30 11519 C 1097.18 -6.52842 2.64531 0
M  V30 11520 H 1093.28 -0.766253 -0.156141 0
M  V30 11521 H 1095.86 -1.93347 0.229176 0
M  V30 11522 H 1094.03 -3.45042 -1.78327 0
M  V30 11523 H 1095.76 -3.67855 -1.68715 0
M  V30 11524 H 1092.52 -4.73588 0.03306 0
M  V30 11525 H 1092.94 -6.46767 2.00055 0
M  V30 11526 H 1097.59 -4.22511 0.156318 0
M  V30 11527 H 1095.3 -7.37544 3.30235 0
M  V30 11528 H 1098.89 -5.53177 1.80241 0
M  V30 11529 H 1097.77 -7.08843 3.35426 0
M  V30 11530 N 1095.27 0.136881 -1.57004 0
M  V30 11531 C 1096.22 1.18782 -1.99984 0
M  V30 11532 C 1097.21 1.43899 -0.893841 0
M  V30 11533 O 1098.42 1.44072 -1.07904 0
M  V30 11534 H 1094.8 0.400065 -0.636751 0
M  V30 11535 H 1096.77 0.798696 -2.87512 0
M  V30 11536 C 1095.52 2.51105 -2.40502 0
M  V30 11537 H 1094.84 2.32611 -3.25165 0
M  V30 11538 H 1096.28 3.23244 -2.74389 0
M  V30 11539 C 1094.74 3.12386 -1.26161 0
M  V30 11540 O 1095.27 3.97666 -0.567836 0
M  V30 11541 N 1093.47 2.71989 -1.02326 0
M  V30 11542 H 1093.02 2.02736 -1.58921 0
M  V30 11543 H 1092.98 3.13322 -0.26013 0
M  V30 11544 N 1096.75 1.52266 0.40654 0
M  V30 11545 C 1098 1.66452 1.15325 0
M  V30 11546 C 1098.33 0.395728 1.90432 0
M  V30 11547 O 1097.58 -0.621382 1.85573 0
M  V30 11548 C 1097.88 2.8389 2.1712 0
M  V30 11549 C 1097.55 4.22011 1.58801 0
M  V30 11550 C 1096.21 4.59579 1.42621 0
M  V30 11551 C 1098.56 5.08074 1.16236 0
M  V30 11552 C 1095.89 5.80885 0.823967 0
M  V30 11553 C 1098.24 6.29988 0.574284 0
M  V30 11554 C 1096.9 6.66303 0.399638 0
M  V30 11555 H 1096.17 0.609092 0.422005 0
M  V30 11556 H 1098.82 1.86374 0.440131 0
M  V30 11557 H 1097.13 2.58314 2.94586 0
M  V30 11558 H 1098.82 2.92063 2.74774 0
M  V30 11559 H 1095.41 3.92408 1.72378 0
M  V30 11560 H 1099.6 4.79631 1.27544 0
M  V30 11561 H 1094.85 6.07644 0.676694 0
M  V30 11562 H 1099.03 6.96 0.236081 0
M  V30 11563 H 1096.65 7.60169 -0.0691262 0
M  V30 11564 N 1098.23 -0.663929 1.42933 0
M  V30 11565 C 1099.48 -1.42393 1.43981 0
M  V30 11566 C 1099.8 -1.94407 0.0601802 0
M  V30 11567 O 1099.06 -1.72019 -0.933172 0
M  V30 11568 C 1099.36 -2.62976 2.4203 0
M  V30 11569 C 1099.02 -2.29441 3.88159 0
M  V30 11570 C 1097.69 -2.20007 4.27961 0
M  V30 11571 C 1100.04 -2.02413 4.8029 0
M  V30 11572 C 1097.37 -1.81686 5.57859 0
M  V30 11573 C 1099.72 -1.65592 6.10542 0
M  V30 11574 C 1098.38 -1.54676 6.49332 0
M  V30 11575 H 1097.65 -0.521051 0.526865 0
M  V30 11576 H 1100.3 -0.756042 1.75944 0
M  V30 11577 H 1098.6 -3.34847 2.03433 0
M  V30 11578 H 1100.3 -3.21174 2.40101 0
M  V30 11579 H 1096.89 -2.3769 3.56653 0
M  V30 11580 H 1101.07 -2.08628 4.5032 0
M  V30 11581 H 1096.33 -1.71812 5.86763 0
M  V30 11582 H 1100.5 -1.43707 6.81411 0
M  V30 11583 H 1098.13 -1.24752 7.49894 0
M  V30 11584 N 1099.71 -1.29285 -0.901281 0
M  V30 11585 C 1100.98 -1.07847 -1.63182 0
M  V30 11586 C 1101.36 0.377927 -2.07689 0
M  V30 11587 O 1100.71 1.36642 -1.83143 0
M  V30 11588 C 1100.92 -2.06457 -2.81383 0
M  V30 11589 C 1102.27 -2.37289 -3.52107 0
M  V30 11590 O 1103.29 -2.0464 -2.91549 0
M  V30 11591 O 1102.15 -2.93067 -4.61274 0
M  V30 11592 H 1099.25 -0.413073 -0.71645 0
M  V30 11593 H 1101.79 -1.40651 -0.949488 0
M  V30 11594 H 1100.56 -3.04561 -2.4568 0
M  V30 11595 H 1100.19 -1.74374 -3.57323 0
M  V30 11596 N 1101.18 1.11143 -1.11736 0
M  V30 11597 C 1102.09 2.20851 -0.791331 0
M  V30 11598 C 1103.11 1.72644 0.216833 0
M  V30 11599 O 1104.29 2.01332 0.0522401 0
M  V30 11600 C 1101.35 3.4585 -0.242694 0
M  V30 11601 C 1100.41 4.08829 -1.30986 0
M  V30 11602 C 1099.65 5.27861 -0.787305 0
M  V30 11603 O 1099.87 5.69122 0.381549 0
M  V30 11604 O 1098.8 5.81506 -1.55352 0
M  V30 11605 H 1102.63 2.51158 -1.70744 0
M  V30 11606 H 1100.21 1.19739 -0.893478 0
M  V30 11607 H 1102.1 4.21359 0.0587472 0
M  V30 11608 H 1100.77 3.17187 0.646079 0
M  V30 11609 H 1099.68 3.35037 -1.66436 0
M  V30 11610 H 1101.01 4.41678 -2.17213 0
M  V30 11611 N 1102.66 0.908147 1.28804 0
M  V30 11612 C 1103.89 0.55409 1.99343 0
M  V30 11613 C 1104.31 -0.863262 1.67908 0
M  V30 11614 O 1103.66 -1.571 0.92875 0
M  V30 11615 C 1103.71 0.746916 3.537 0
M  V30 11616 O 1103.43 2.10849 3.84024 0
M  V30 11617 C 1104.94 0.398939 4.41501 0
M  V30 11618 H 1102.16 0.211784 0.636701 0
M  V30 11619 H 1104.7 1.21981 1.64137 0
M  V30 11620 H 1102.85 0.128264 3.87188 0
M  V30 11621 H 1103.27 2.14404 4.78676 0
M  V30 11622 H 1104.74 0.584656 5.48895 0
M  V30 11623 H 1105.22 -0.664517 4.34144 0
M  V30 11624 H 1105.83 0.994892 4.135 0
M  V30 11625 N 1104.14 -1.42577 0.671525 0
M  V30 11626 C 1105.55 -1.84736 0.270084 0
M  V30 11627 C 1105.9 -1.56212 -1.18711 0
M  V30 11628 O 1105.03 -1.02028 -1.90838 0
M  V30 11629 C 1105.62 -3.35334 0.483409 0
M  V30 11630 C 1104.18 -3.76154 0.136119 0
M  V30 11631 C 1103.33 -2.66179 0.777444 0
M  V30 11632 H 1106.28 -1.3247 0.873919 0
M  V30 11633 H 1106.3 -3.79573 -0.265483 0
M  V30 11634 H 1105.81 -3.56063 1.54405 0
M  V30 11635 H 1103.91 -3.61033 -0.921209 0
M  V30 11636 H 1104.03 -4.75645 0.574356 0
M  V30 11637 H 1102.39 -2.53841 0.209055 0
M  V30 11638 H 1103.17 -2.89732 1.84148 0
M  V30 11639 N 1105.62 -0.414636 -1.52048 0
M  V30 11640 C 1106.85 0.158686 -2.06291 0
M  V30 11641 C 1107.26 1.38397 -1.2842 0
M  V30 11642 O 1106.62 1.79351 -0.337539 0
M  V30 11643 C 1106.67 0.503634 -3.57975 0
M  V30 11644 O 1106.39 -0.672996 -4.329 0
M  V30 11645 C 1107.89 1.13009 -4.28653 0
M  V30 11646 H 1105.11 0.0179622 -0.67076 0
M  V30 11647 H 1107.66 -0.587177 -1.95889 0
M  V30 11648 H 1105.81 1.19939 -3.68366 0
M  V30 11649 H 1106.22 -0.383735 -5.23094 0
M  V30 11650 H 1107.7 1.32162 -5.35945 0
M  V30 11651 H 1108.18 2.10476 -3.85482 0
M  V30 11652 H 1108.78 0.474379 -4.22646 0
M  V30 11653 N 1107.1 1.56929 -0.145233 0
M  V30 11654 C 1108.03 2.19685 0.791263 0
M  V30 11655 C 1109.01 1.14455 1.25833 0
M  V30 11656 O 1110.19 1.42791 1.31622 0
M  V30 11657 C 1107.32 2.81705 2.03124 0
M  V30 11658 C 1106.28 3.92746 1.70101 0
M  V30 11659 C 1105.6 4.41694 3.01347 0
M  V30 11660 C 1106.9 5.13606 0.949025 0
M  V30 11661 H 1108.6 2.98196 0.26825 0
M  V30 11662 H 1106.14 1.43434 0.127584 0
M  V30 11663 H 1108.1 3.24273 2.69119 0
M  V30 11664 H 1106.82 2.00523 2.57795 0
M  V30 11665 H 1105.48 3.50794 1.06486 0
M  V30 11666 H 1105.13 3.57336 3.54006 0
M  V30 11667 H 1104.83 5.1659 2.80016 0
M  V30 11668 H 1106.35 4.86931 3.68416 0
M  V30 11669 H 1107.76 5.53029 1.51102 0
M  V30 11670 H 1106.16 5.94252 0.835711 0
M  V30 11671 H 1107.23 4.84863 -0.0595631 0
M  V30 11672 N 1108.58 -0.128553 1.57075 0
M  V30 11673 C 1109.82 -0.836355 1.83982 0
M  V30 11674 C 1110.14 -1.80862 0.728971 0
M  V30 11675 O 1109.41 -1.94326 -0.247859 0
M  V30 11676 H 1107.99 -0.31185 0.678792 0
M  V30 11677 H 1110.66 -0.118153 1.94542 0
M  V30 11678 H 1109.75 -1.38741 2.79567 0
M  V30 11679 N 1110.05 -1.5248 -0.398459 0
M  V30 11680 C 1111.02 -1.75949 -1.46883 0
M  V30 11681 C 1112.02 -0.629431 -1.47969 0
M  V30 11682 O 1113.21 -0.897407 -1.49306 0
M  V30 11683 C 1110.34 -1.85162 -2.8623 0
M  V30 11684 H 1111.53 -2.71513 -1.2736 0
M  V30 11685 H 1109.08 -1.43058 -0.629619 0
M  V30 11686 H 1109.82 -0.915505 -3.11109 0
M  V30 11687 H 1109.6 -2.67326 -2.86844 0
M  V30 11688 H 1111.09 -2.05025 -3.63805 0
M  V30 11689 N 1111.53 0.65634 -1.43283 0
M  V30 11690 C 1112.46 1.78101 -1.51004 0
M  V30 11691 C 1113.44 1.66138 -0.36498 0
M  V30 11692 O 1114.63 1.85281 -0.581778 0
M  V30 11693 C 1111.76 3.16511 -1.42961 0
M  V30 11694 C 1110.71 3.43233 -2.55685 0
M  V30 11695 C 1110.04 4.81411 -2.32696 0
M  V30 11696 C 1111.34 3.38288 -3.97943 0
M  V30 11697 H 1113.03 1.71896 -2.45137 0
M  V30 11698 H 1110.58 0.825575 -1.17984 0
M  V30 11699 H 1112.53 3.94941 -1.46968 0
M  V30 11700 H 1111.25 3.23439 -0.45332 0
M  V30 11701 H 1109.91 2.67173 -2.51026 0
M  V30 11702 H 1109.56 4.85011 -1.33317 0
M  V30 11703 H 1109.26 5.00251 -3.08257 0
M  V30 11704 H 1110.79 5.62102 -2.38481 0
M  V30 11705 H 1112.2 4.06659 -4.04106 0
M  V30 11706 H 1110.6 3.68664 -4.73505 0
M  V30 11707 H 1111.67 2.36525 -4.23301 0
M  V30 11708 N 1113.01 1.29761 0.894412 0
M  V30 11709 C 1113.96 1.15341 1.99912 0
M  V30 11710 C 1114.93 0.0453488 1.66038 0
M  V30 11711 O 1116.11 0.213829 1.89598 0
M  V30 11712 C 1113.25 0.841432 3.34685 0
M  V30 11713 C 1112.36 2.03046 3.81309 0
M  V30 11714 C 1111.5 1.65739 5.04682 0
M  V30 11715 C 1110.54 2.81191 5.43689 0
M  V30 11716 N 1109.68 2.44244 6.58247 0
M  V30 11717 H 1114.52 2.09854 2.11578 0
M  V30 11718 H 1112.05 1.04421 1.03608 0
M  V30 11719 H 1114.01 0.641211 4.12243 0
M  V30 11720 H 1112.64 -0.066797 3.22731 0
M  V30 11721 H 1111.69 2.34222 2.9974 0
M  V30 11722 H 1113 2.89538 4.06164 0
M  V30 11723 H 1112.16 1.42036 5.8984 0
M  V30 11724 H 1110.9 0.764019 4.81678 0
M  V30 11725 H 1109.9 3.0557 4.57064 0
M  V30 11726 H 1111.13 3.712 5.68672 0
M  V30 11727 H 1109.07 1.57402 6.36837 0
M  V30 11728 H 1108.99 3.24269 6.82924 0
M  V30 11729 H 1110.26 2.23875 7.46659 0
M  V30 11730 N 1114.49 -1.10549 1.12324 0
M  V30 11731 C 1115.43 -2.16858 0.790024 0
M  V30 11732 C 1116.4 -1.64317 -0.242694 0
M  V30 11733 O 1117.59 -1.90438 -0.117531 0
M  V30 11734 C 1114.73 -3.44197 0.249503 0
M  V30 11735 C 1113.84 -4.10696 1.33989 0
M  V30 11736 C 1112.98 -5.25751 0.758932 0
M  V30 11737 C 1112.02 -5.8415 1.82853 0
M  V30 11738 N 1111.15 -6.90585 1.26637 0
M  V30 11739 H 1115.99 -2.44705 1.7007 0
M  V30 11740 H 1113.53 -1.20117 0.849141 0
M  V30 11741 H 1115.49 -4.1712 -0.0819251 0
M  V30 11742 H 1114.12 -3.16705 -0.624332 0
M  V30 11743 H 1113.17 -3.35754 1.78812 0
M  V30 11744 H 1114.48 -4.50144 2.14875 0
M  V30 11745 H 1113.64 -6.05521 0.378104 0
M  V30 11746 H 1112.38 -4.87632 -0.0811405 0
M  V30 11747 H 1111.38 -5.03051 2.21856 0
M  V30 11748 H 1112.61 -6.24333 2.6718 0
M  V30 11749 H 1110.55 -6.54468 0.448105 0
M  V30 11750 H 1110.47 -7.28739 2.01184 0
M  V30 11751 H 1111.74 -7.74138 0.912737 0
M  V30 11752 N 1115.97 -0.914965 -1.28321 0
M  V30 11753 C 1117.24 -0.46764 -1.89928 0
M  V30 11754 C 1117.62 1.05364 -1.82925 0
M  V30 11755 O 1116.97 1.90223 -1.26599 0
M  V30 11756 C 1117.18 -0.999372 -3.34385 0
M  V30 11757 C 1118.53 -1.0522 -4.11356 0
M  V30 11758 O 1119.55 -0.9481 -3.4335 0
M  V30 11759 O 1118.41 -1.21085 -5.32917 0
M  V30 11760 H 1115.51 -0.148398 -0.813577 0
M  V30 11761 H 1118.05 -1.00583 -1.36679 0
M  V30 11762 H 1116.82 -2.04333 -3.33712 0
M  V30 11763 H 1116.45 -0.442083 -3.95135 0
M  V30 11764 N 1117.44 1.42219 -0.679077 0
M  V30 11765 C 1118.39 2.308 -0.00340316 0
M  V30 11766 C 1119.36 1.462 0.788334 0
M  V30 11767 O 1120.55 1.75023 0.759716 0
M  V30 11768 C 1117.69 3.32084 0.938854 0
M  V30 11769 C 1116.8 4.31772 0.140485 0
M  V30 11770 C 1115.93 5.20128 1.07888 0
M  V30 11771 C 1114.97 6.11493 0.27245 0
M  V30 11772 N 1114.11 6.92388 1.16378 0
M  V30 11773 H 1118.95 2.88024 -0.764587 0
M  V30 11774 H 1116.49 1.41869 -0.38878 0
M  V30 11775 H 1118.44 3.89339 1.49903 0
M  V30 11776 H 1117.07 2.76448 1.66662 0
M  V30 11777 H 1116.13 3.76599 -0.536376 0
M  V30 11778 H 1117.44 4.96432 -0.485433 0
M  V30 11779 H 1116.59 5.82137 1.70884 0
M  V30 11780 H 1115.33 4.55655 1.73868 0
M  V30 11781 H 1114.34 5.48549 -0.370693 0
M  V30 11782 H 1115.56 6.78017 -0.383315 0
M  V30 11783 H 1113.51 6.30538 1.8099 0
M  V30 11784 H 1113.42 7.5367 0.593043 0
M  V30 11785 H 1114.69 7.58879 1.78107 0
M  V30 11786 O 1118.96 0.564796 1.51302 0
M  V30 11787 H 1119.65 0.0644337 1.93593 0
M  V30 END ATOM
M  V30 BEGIN BOND
M  V30 END BOND
M  V30 END CTAB
M  END
$$$$
