drugbank_target|Q12851 Mitogen-activated protein kinase kinase kinase kinase 2 (DB12010)
 OpenBabel12092121163D

  0  0  0     0  0            999 V3000
M  V30 BEGIN CTAB
M  V30 COUNTS 12889 13055 0 0 0
M  V30 BEGIN ATOM
M  V30 1 H -0.908 1.98254 -0.117106 0
M  V30 2 N 0 1.576 0 0
M  V30 3 C 0.933 2.03868 1.02534 0
M  V30 4 C 1.911 0.928543 1.3348 0
M  V30 5 O 3.095 1.19667 1.45644 0
M  V30 6 C 0.222 2.43627 2.35294 0
M  V30 7 C -0.732 3.65373 2.2001 0
M  V30 8 S 0.101 5.13292 1.52614 0
M  V30 9 C 1.257 5.56322 2.86805 0
M  V30 10 H 1.49 2.90518 0.631377 0
M  V30 11 H -0.977 1.52953 0.210867 0
M  V30 12 H 0.981 2.67203 3.11629 0
M  V30 13 H -0.358 1.57376 2.7183 0
M  V30 14 H -1.165 3.90944 3.18086 0
M  V30 15 H -1.563 3.418 1.51819 0
M  V30 16 H 0.729 5.58782 3.83104 0
M  V30 17 H 1.672 6.56266 2.65933 0
M  V30 18 H 2.08 4.83886 2.90714 0
M  V30 19 N 1.4781 -0.272755 1.55222 0
M  V30 20 C 2.4411 -1.32041 1.87344 0
M  V30 21 C 3.4411 -1.42342 0.74803 0
M  V30 22 O 4.6311 -1.41488 1.0162 0
M  V30 23 C 1.7631 -2.70173 2.07893 0
M  V30 24 H 2.9561 -1.04789 2.80997 0
M  V30 25 H 0.5091 -0.51083 1.47717 0
M  V30 26 H 1.2441 -3.02605 1.16622 0
M  V30 27 H 1.0291 -2.64082 2.89833 0
M  V30 28 H 2.5191 -3.45869 2.34017 0
M  V30 29 N 2.9562 -1.48159 -0.537278 0
M  V30 30 C 3.8862 -1.65029 -1.6519 0
M  V30 31 C 4.8672 -0.499281 -1.62607 0
M  V30 32 O 6.0522 -0.730972 -1.79918 0
M  V30 33 C 3.1822 -1.68303 -3.03795 0
M  V30 34 C 2.1362 -2.8283 -3.21234 0
M  V30 35 C 1.4622 -2.71189 -4.60826 0
M  V30 36 C 2.7622 -4.24211 -3.04701 0
M  V30 37 H 4.4562 -2.58341 -1.51328 0
M  V30 38 H 2.0022 -1.24325 -0.726585 0
M  V30 39 H 3.9552 -1.78693 -3.81637 0
M  V30 40 H 2.6792 -0.715635 -3.18663 0
M  V30 41 H 1.3382 -2.71983 -2.45807 0
M  V30 42 H 0.9862 -1.72435 -4.7252 0
M  V30 43 H 0.6862 -3.48035 -4.7344 0
M  V30 44 H 2.2102 -2.83537 -5.40777 0
M  V30 45 H 3.6242 -4.3593 -3.72341 0
M  V30 46 H 2.0212 -5.01998 -3.28813 0
M  V30 47 H 3.0912 -4.41184 -2.01209 0
M  V30 48 N 4.4343 0.785586 -1.36625 0
M  V30 49 C 5.3643 1.91259 -1.33949 0
M  V30 50 C 6.3453 1.68795 -0.210325 0
M  V30 51 O 7.5303 1.89854 -0.408561 0
M  V30 52 C 4.6603 3.28339 -1.13186 0
M  V30 53 C 3.6143 3.65335 -2.22967 0
M  V30 54 C 2.9403 5.00806 -1.87342 0
M  V30 55 C 4.2403 3.7352 -3.65075 0
M  V30 56 H 5.9343 1.93755 -2.28253 0
M  V30 57 H 3.4803 0.930788 -1.09874 0
M  V30 58 H 5.4333 4.06804 -1.09948 0
M  V30 59 H 4.1573 3.2624 -0.153332 0
M  V30 60 H 2.8163 2.89169 -2.25337 0
M  V30 61 H 2.4643 4.95233 -0.880545 0
M  V30 62 H 2.1643 5.26529 -2.60846 0
M  V30 63 H 3.6883 5.81687 -1.85667 0
M  V30 64 H 5.1023 4.42168 -3.64911 0
M  V30 65 H 3.4993 4.10731 -4.37516 0
M  V30 66 H 4.5693 2.74527 -3.99703 0
M  V30 67 N 5.9124 1.20967 1.01018 0
M  V30 68 C 7.3284 0.965905 1.27053 0
M  V30 69 C 7.5284 -0.350785 1.98423 0
M  V30 70 O 6.5844 -1.07773 2.28344 0
M  V30 71 C 7.8974 2.15294 2.09926 0
M  V30 72 C 9.4454 2.19463 2.23171 0
M  V30 73 C 9.9204 3.3767 3.09424 0
M  V30 74 N 11.4114 3.37724 3.17012 0
M  V30 75 C 12.1464 4.25837 3.83993 0
M  V30 76 N 11.6424 5.24138 4.53047 0
M  V30 77 N 13.4354 4.1366 3.80581 0
M  V30 78 H 5.5864 2.0565 0.531194 0
M  V30 79 H 7.8494 0.90024 0.297106 0
M  V30 80 H 7.5554 3.10684 1.64828 0
M  V30 81 H 7.4294 2.13923 3.10672 0
M  V30 82 H 9.8164 1.24632 2.6749 0
M  V30 83 H 9.8974 2.2488 1.21912 0
M  V30 84 H 9.5414 4.32791 2.65808 0
M  V30 85 H 9.4714 3.29491 4.10784 0
M  V30 86 H 11.9624 2.6658 2.6785 0
M  V30 87 H 12.2754 5.87684 5.01844 0
M  V30 88 H 10.6204 5.28068 4.5185 0
M  V30 89 H 13.8114 3.36127 3.25785 0
M  V30 90 H 13.9844 4.82538 4.32505 0
M  V30 91 N 7.3905 -1.2043 1.01659 0
M  V30 92 C 8.6675 -1.8548 0.621004 0
M  V30 93 C 9.0475 -1.9091 -0.900919 0
M  V30 94 O 8.3955 -1.41694 -1.79263 0
M  V30 95 C 8.6055 -3.25119 1.2688 0
M  V30 96 C 9.9535 -4.01403 1.38423 0
M  V30 97 O 10.9775 -3.34473 1.22501 0
M  V30 98 O 9.8365 -5.21265 1.64151 0
M  V30 99 H 6.9305 -0.798761 0.214266 0
M  V30 100 H 9.4765 -1.28019 1.11396 0
M  V30 101 H 8.2485 -3.15932 2.30873 0
M  V30 102 H 7.8715 -3.90212 0.762917 0
M  V30 103 N 8.8686 -0.792821 -1.36206 0
M  V30 104 C 10.1146 -0.36733 -1.99446 0
M  V30 105 C 10.4476 1.05917 -1.62774 0
M  V30 106 O 9.7226 1.7324 -0.88421 0
M  V30 107 C 10.0056 -0.535044 -3.56103 0
M  V30 108 C 9.8586 -2.00548 -4.02617 0
M  V30 109 C 11.1776 0.0478191 -4.40074 0
M  V30 110 H 8.2966 -0.134941 -0.724541 0
M  V30 111 H 10.9386 -0.999794 -1.61568 0
M  V30 112 H 9.0886 0.00336329 -3.885 0
M  V30 113 H 10.7606 -2.60521 -3.80692 0
M  V30 114 H 9.0036 -2.50686 -3.54032 0
M  V30 115 H 9.6746 -2.07377 -5.11565 0
M  V30 116 H 12.1506 -0.411822 -4.14057 0
M  V30 117 H 11.0266 -0.0995336 -5.4881 0
M  V30 118 H 11.2876 1.14025 -4.27142 0
M  V30 119 N 10.3467 1.47872 -0.545128 0
M  V30 120 C 11.5717 2.07391 -0.0190611 0
M  V30 121 C 11.9967 1.39688 1.25971 0
M  V30 122 O 11.3547 0.467816 1.7516 0
M  V30 123 C 11.4027 3.60188 0.172335 0
M  V30 124 O 10.5067 3.9339 1.23766 0
M  V30 125 H 9.8477 0.662411 -0.0459059 0
M  V30 126 H 12.3777 1.90066 -0.757365 0
M  V30 127 H 12.3877 4.06129 0.390305 0
M  V30 128 H 11.0627 4.08865 -0.761725 0
M  V30 129 H 9.6397 3.5921 1.00114 0
M  V30 130 N 11.8248 0.280983 1.55075 0
M  V30 131 C 12.7548 -0.597469 2.25727 0
M  V30 132 C 13.7358 -1.15417 1.24952 0
M  V30 133 O 14.9208 -1.18722 1.53684 0
M  V30 134 C 12.0508 -1.7789 2.98283 0
M  V30 135 C 11.0048 -1.35347 4.06036 0
M  V30 136 C 10.3308 -2.61846 4.66198 0
M  V30 137 C 11.6308 -0.499354 5.19907 0
M  V30 138 H 13.3248 -0.00824265 2.99399 0
M  V30 139 H 10.8708 -0.0025244 1.44 0
M  V30 140 H 12.8238 -2.39937 3.46422 0
M  V30 141 H 11.5478 -2.39405 2.22155 0
M  V30 142 H 10.2068 -0.756156 3.58717 0
M  V30 143 H 9.8548 -3.21632 3.86732 0
M  V30 144 H 9.5548 -2.3409 5.38958 0
M  V30 145 H 11.0788 -3.24732 5.1709 0
M  V30 146 H 12.4928 -1.02498 5.64063 0
M  V30 147 H 10.8898 -0.316424 5.99265 0
M  V30 148 H 11.9598 0.480459 4.82514 0
M  V30 149 N 13.3029 -1.57598 0.00835791 0
M  V30 150 C 14.2349 -2.05811 -1.00868 0
M  V30 151 C 15.2479 -0.977579 -1.30182 0
M  V30 152 O 16.4369 -1.25421 -1.27011 0
M  V30 153 C 13.5369 -2.45016 -2.34137 0
M  V30 154 C 12.7099 -3.75903 -2.23643 0
M  V30 155 C 11.7689 -4.01884 -3.3967 0
M  V30 156 O 10.7949 -4.72433 -3.17483 0
M  V30 157 N 11.9969 -3.50432 -4.62793 0
M  V30 158 H 14.7619 -2.93684 -0.597458 0
M  V30 159 H 12.3229 -1.60909 -0.178852 0
M  V30 160 H 14.3149 -2.59506 -3.10546 0
M  V30 161 H 12.8849 -1.62618 -2.66972 0
M  V30 162 H 12.1049 -3.7141 -1.32091 0
M  V30 163 H 13.3929 -4.61695 -2.13812 0
M  V30 164 H 12.7909 -2.93317 -4.83716 0
M  V30 165 H 11.3479 -3.70236 -5.3644 0
M  V30 166 N 14.781 0.264519 -1.55364 0
M  V30 167 C 16.058 1.01677 -1.67096 0
M  V30 168 C 16.438 2.03996 -0.543015 0
M  V30 169 O 15.786 2.23907 0.45585 0
M  V30 170 C 15.996 1.66596 -3.0667 0
M  V30 171 C 17.344 2.17442 -3.64697 0
M  V30 172 O 18.368 1.76568 -3.09358 0
M  V30 173 O 17.227 2.92439 -4.61673 0
M  V30 174 H 14.321 0.472161 -0.678965 0
M  V30 175 H 16.867 0.259703 -1.67701 0
M  V30 176 H 15.639 0.924962 -3.80211 0
M  V30 177 H 15.262 2.48968 -3.10001 0
M  V30 178 N 16.2591 1.48442 0.529413 0
M  V30 179 C 17.6701 1.5002 1.11134 0
M  V30 180 C 18.0211 0.27031 1.94329 0
M  V30 181 O 17.1461 -0.622507 2.07253 0
M  V30 182 C 17.7411 2.71834 2.02217 0
M  V30 183 C 16.3001 2.76283 2.55627 0
M  V30 184 C 15.4471 2.43542 1.326 0
M  V30 185 H 18.3981 1.5555 0.314641 0
M  V30 186 H 18.4191 2.50384 2.8651 0
M  V30 187 H 17.9311 3.61331 1.41639 0
M  V30 188 H 16.0321 1.90995 3.19924 0
M  V30 189 H 16.1451 3.77725 2.94721 0
M  V30 190 H 14.5091 1.94709 1.64196 0
M  V30 191 H 15.2921 3.3528 0.737734 0
M  V30 192 N 17.7372 -0.778329 1.37039 0
M  V30 193 C 19.1532 -1.07796 1.17695 0
M  V30 194 C 19.3532 -2.01498 0.00860115 0
M  V30 195 O 18.4092 -2.43901 -0.653352 0
M  V30 196 C 19.7222 -1.68178 2.49272 0
M  V30 197 C 21.2702 -1.80467 2.55735 0
M  V30 198 C 21.7452 -2.44263 3.87427 0
M  V30 199 N 23.2362 -2.51721 3.88833 0
M  V30 200 C 23.9712 -3.01919 4.87476 0
M  V30 201 N 23.4672 -3.5234 5.96513 0
M  V30 202 N 25.2602 -3.00733 4.74885 0
M  V30 203 H 17.4112 -0.156032 2.11826 0
M  V30 204 H 19.6742 -0.131844 0.938787 0
M  V30 205 H 19.3802 -1.06796 3.35093 0
M  V30 206 H 19.2542 -2.67554 2.65885 0
M  V30 207 H 21.6412 -2.40984 1.70325 0
M  V30 208 H 21.7222 -0.798656 2.43013 0
M  V30 209 H 21.3662 -1.84388 4.73248 0
M  V30 210 H 21.2962 -3.45458 3.9745 0
M  V30 211 H 23.7872 -2.1603 3.10063 0
M  V30 212 H 24.1002 -3.89027 6.67741 0
M  V30 213 H 22.4452 -3.50462 6.00168 0
M  V30 214 H 25.6362 -2.60638 3.88826 0
M  V30 215 H 25.8092 -3.39545 5.51918 0
M  V30 216 N 19.2153 -1.21501 -1.00376 0
M  V30 217 C 20.4923 -0.941745 -1.71437 0
M  V30 218 C 20.8723 0.546114 -2.03914 0
M  V30 219 O 20.2203 1.51128 -1.71384 0
M  V30 220 C 20.4303 -1.82812 -2.97289 0
M  V30 221 C 21.7783 -2.07771 -3.70292 0
M  V30 222 O 22.8023 -1.80171 -3.07273 0
M  V30 223 O 21.6613 -2.54456 -4.83647 0
M  V30 224 H 18.7553 -0.353243 -0.747762 0
M  V30 225 H 21.3013 -1.32436 -1.06108 0
M  V30 226 H 20.0733 -2.83501 -2.69709 0
M  V30 227 H 19.6963 -1.4464 -3.70358 0
M  V30 228 N 20.6934 1.19889 -1.02296 0
M  V30 229 C 22.1094 1.41462 -0.738954 0
M  V30 230 C 22.3094 1.89721 0.678846 0
M  V30 231 O 21.3654 2.07016 1.4457 0
M  V30 232 C 22.6784 2.43083 -1.77005 0
M  V30 233 C 24.2264 2.5684 -1.78892 0
M  V30 234 C 24.7014 3.61709 -2.80945 0
M  V30 235 N 26.1924 3.69199 -2.79725 0
M  V30 236 C 26.9274 4.50019 -3.55345 0
M  V30 237 N 26.4234 5.34592 -4.40662 0
M  V30 238 N 28.2164 4.44612 -3.43914 0
M  V30 239 H 20.3674 0.868827 -1.93817 0
M  V30 240 H 22.6304 0.44399 -0.837602 0
M  V30 241 H 22.3364 2.14636 -2.78612 0
M  V30 242 H 22.2104 3.4217 -1.58744 0
M  V30 243 H 24.5974 2.84614 -0.779674 0
M  V30 244 H 24.6784 1.57927 -2.01228 0
M  V30 245 H 24.3224 3.34678 -3.82038 0
M  V30 246 H 24.2524 4.60259 -2.5587 0
M  V30 247 H 26.7434 3.08794 -2.17842 0
M  V30 248 H 27.0564 5.93363 -4.95116 0
M  V30 249 H 25.4014 5.34073 -4.44737 0
M  V30 250 H 28.5924 3.7758 -2.76679 0
M  V30 251 H 28.7654 5.0736 -4.031 0
M  V30 252 N 22.1715 0.800033 1.35784 0
M  V30 253 C 23.4185 0.377342 1.98953 0
M  V30 254 C 23.7465 -1.05378 1.6348 0
M  V30 255 O 23.0015 -1.74459 0.886707 0
M  V30 256 C 23.3005 0.500276 3.53881 0
M  V30 257 C 22.9665 1.89375 4.09204 0
M  V30 258 C 21.6285 2.27499 4.24025 0
M  V30 259 C 23.9805 2.8057 4.39238 0
M  V30 260 C 21.3085 3.562 4.66195 0
M  V30 261 C 23.6605 4.0871 4.82844 0
M  V30 262 C 22.3245 4.46843 4.95871 0
M  V30 263 H 21.5945 0.138079 0.728021 0
M  V30 264 H 24.2415 1.01955 1.62103 0
M  V30 265 H 22.5465 -0.225405 3.91151 0
M  V30 266 H 24.2435 0.154097 4.00704 0
M  V30 267 H 20.8335 1.58753 3.98115 0
M  V30 268 H 25.0175 2.52367 4.27346 0
M  V30 269 H 20.2735 3.85602 4.74469 0
M  V30 270 H 24.4475 4.79481 5.05046 0
M  V30 271 H 22.0745 5.46623 5.28306 0
M  V30 272 N 23.6496 -1.47581 0.552962 0
M  V30 273 C 24.5596 -2.33743 -0.200353 0
M  V30 274 C 25.5756 -1.47928 -0.916151 0
M  V30 275 O 26.7516 -1.80865 -0.885993 0
M  V30 276 C 23.8166 -3.24536 -1.21973 0
M  V30 277 C 22.8776 -4.26238 -0.511819 0
M  V30 278 C 22.1106 -5.12693 -1.48263 0
M  V30 279 O 22.3336 -5.01525 -2.71714 0
M  V30 280 O 21.2676 -5.93375 -1.00945 0
M  V30 281 H 25.0936 -2.9945 0.506304 0
M  V30 282 H 22.6786 -1.46071 0.313622 0
M  V30 283 H 24.5606 -3.80631 -1.80827 0
M  V30 284 H 23.2356 -2.61462 -1.90839 0
M  V30 285 H 22.1426 -3.73914 0.117799 0
M  V30 286 H 23.4756 -4.92014 0.135308 0
M  V30 287 N 25.1277 -0.289203 -1.54924 0
M  V30 288 C 26.0577 0.58549 -2.2604 0
M  V30 289 C 27.0387 1.14753 -1.25562 0
M  V30 290 O 28.2237 1.17906 -1.54311 0
M  V30 291 C 25.3537 1.76305 -2.99222 0
M  V30 292 C 24.3077 1.33191 -4.06748 0
M  V30 293 C 23.6337 2.5937 -4.6758 0
M  V30 294 C 24.9337 0.471775 -5.20165 0
M  V30 295 H 26.6277 -0.00763532 -2.99399 0
M  V30 296 H 24.1737 -0.00511229 -1.43999 0
M  V30 297 H 26.1267 2.38097 -3.47689 0
M  V30 298 H 24.8507 2.38223 -2.23422 0
M  V30 299 H 23.5097 0.737121 -3.59113 0
M  V30 300 H 23.1577 3.19576 -3.88433 0
M  V30 301 H 22.8577 2.31228 -5.40192 0
M  V30 302 H 24.3817 3.21985 -5.18804 0
M  V30 303 H 25.7957 0.995056 -5.64599 0
M  V30 304 H 24.1927 0.284639 -5.99425 0
M  V30 305 H 25.2627 -0.506041 -4.82252 0
M  V30 306 N 26.6058 1.57591 -0.0167156 0
M  V30 307 C 27.5358 2.12496 0.967858 0
M  V30 308 C 28.5168 1.03807 1.34752 0
M  V30 309 O 29.7018 1.31577 1.42833 0
M  V30 310 C 26.8318 2.64194 2.25431 0
M  V30 311 C 25.7858 3.77559 2.01576 0
M  V30 312 C 25.1118 4.15636 3.36379 0
M  V30 313 C 26.4118 5.04151 1.36489 0
M  V30 314 H 28.1058 2.95013 0.510643 0
M  V30 315 H 25.6518 1.41915 0.244181 0
M  V30 316 H 27.6048 3.01236 2.94678 0
M  V30 317 H 26.3288 1.78821 2.73296 0
M  V30 318 H 24.9878 3.40937 1.34751 0
M  V30 319 H 24.6358 3.27263 3.81979 0
M  V30 320 H 24.3358 4.92022 3.21229 0
M  V30 321 H 25.8598 4.5525 4.06915 0
M  V30 322 H 27.2738 5.38857 1.95718 0
M  V30 323 H 25.6708 5.85453 1.31776 0
M  V30 324 H 26.7408 4.83733 0.336219 0
M  V30 325 N 28.0839 -0.256276 1.55502 0
M  V30 326 C 29.0159 -1.33981 1.85962 0
M  V30 327 C 30.0289 -1.44743 0.745212 0
M  V30 328 O 31.2179 -1.4626 1.02324 0
M  V30 329 C 28.3179 -2.7194 2.02242 0
M  V30 330 C 27.4909 -2.83562 3.33033 0
M  V30 331 C 26.5499 -4.02304 3.39172 0
M  V30 332 O 25.5759 -3.92273 4.12444 0
M  V30 333 N 26.7779 -5.15045 2.67784 0
M  V30 334 H 29.5429 -1.08191 2.7949 0
M  V30 335 H 27.1039 -0.446388 1.55624 0
M  V30 336 H 29.0959 -3.49697 2.03701 0
M  V30 337 H 27.6659 -2.90479 1.15502 0
M  V30 338 H 26.8859 -1.92555 3.43971 0
M  V30 339 H 28.1739 -2.88271 4.19258 0
M  V30 340 H 27.5719 -5.26085 2.07968 0
M  V30 341 H 26.1289 -5.90972 2.74947 0
M  V30 342 N 29.562 -1.4872 -0.521534 0
M  V30 343 C 30.978 -1.35028 -0.850855 0
M  V30 344 C 31.178 -0.367712 -1.98116 0
M  V30 345 O 30.234 0.208037 -2.51642 0
M  V30 346 C 31.547 -2.75263 -1.21041 0
M  V30 347 C 33.095 -2.83813 -1.31981 0
M  V30 348 C 33.57 -4.24769 -1.71276 0
M  V30 349 N 35.061 -4.27482 -1.78363 0
M  V30 350 C 35.796 -5.33494 -2.1017 0
M  V30 351 N 35.292 -6.49775 -2.40343 0
M  V30 352 N 37.085 -5.20894 -2.11248 0
M  V30 353 H 29.236 -2.11214 0.22413 0
M  V30 354 H 31.499 -0.947252 0.0376439 0
M  V30 355 H 31.205 -3.48765 -0.453415 0
M  V30 356 H 31.079 -3.09327 -2.15863 0
M  V30 357 H 33.466 -2.10561 -2.06756 0
M  V30 358 H 33.547 -2.53358 -0.352596 0
M  V30 359 H 33.191 -4.9854 -0.970588 0
M  V30 360 H 33.121 -4.52673 -2.69062 0
M  V30 361 H 35.612 -3.43611 -1.57288 0
M  V30 362 H 35.925 -7.26402 -2.63743 0
M  V30 363 H 34.27 -6.53035 -2.37844 0
M  V30 364 H 37.461 -4.29065 -1.87139 0
M  V30 365 H 37.634 -6.03612 -2.35704 0
M  V30 366 N 31.0401 0.771051 -1.3745 0
M  V30 367 C 32.2861 1.5319 -1.32894 0
M  V30 368 C 32.6191 1.94008 0.0862511 0
M  V30 369 O 31.8941 1.64124 1.04373 0
M  V30 370 C 32.1771 2.79648 -2.26868 0
M  V30 371 C 32.0301 2.45079 -3.77169 0
M  V30 372 C 33.3491 3.81583 -2.19277 0
M  V30 373 H 30.4681 0.555744 -0.484064 0
M  V30 374 H 33.1101 0.884492 -1.68157 0
M  V30 375 H 31.2601 3.34891 -1.96926 0
M  V30 376 H 32.9321 1.95745 -4.1771 0
M  V30 377 H 31.1751 1.77767 -3.95704 0
M  V30 378 H 31.8461 3.35478 -4.38359 0
M  V30 379 H 34.3221 3.35835 -2.45671 0
M  V30 380 H 33.1981 4.67787 -2.87171 0
M  V30 381 H 33.4591 4.25897 -1.18592 0
M  V30 382 N 32.5182 1.22032 0.997298 0
M  V30 383 C 33.7662 1.04016 1.73278 0
M  V30 384 C 34.0872 -0.426255 1.90284 0
M  V30 385 O 33.3572 -1.30694 1.45931 0
M  V30 386 H 31.9372 0.381897 0.642 0
M  V30 387 H 34.5992 1.5347 1.20137 0
M  V30 388 H 33.6952 1.51441 2.72896 0
M  V30 389 N 33.9963 -1.19345 1.0293 0
M  V30 390 C 34.9593 -2.20793 0.615069 0
M  V30 391 C 35.9593 -1.57553 -0.321533 0
M  V30 392 O 37.1493 -1.73862 -0.108483 0
M  V30 393 C 34.2813 -3.40754 -0.0999222 0
M  V30 394 H 35.4743 -2.58955 1.51269 0
M  V30 395 H 33.0273 -1.3303 0.820534 0
M  V30 396 H 33.7623 -3.0811 -1.01187 0
M  V30 397 H 33.5473 -3.87889 0.57309 0
M  V30 398 H 35.0373 -4.15898 -0.376645 0
M  V30 399 N 35.4744 -0.807222 -1.35358 0
M  V30 400 C 36.7224 -0.387122 -1.98358 0
M  V30 401 C 37.0434 1.04942 -1.64354 0
M  V30 402 O 36.3134 1.72615 -0.926339 0
M  V30 403 H 34.8934 -0.140154 -0.733734 0
M  V30 404 H 37.5554 -1.0332 -1.6526 0
M  V30 405 H 36.6514 -0.493352 -3.08176 0
M  V30 406 N 36.9525 1.47285 -0.560781 0
M  V30 407 C 38.1805 2.06855 -0.0430262 0
M  V30 408 C 38.5955 1.41291 1.25229 0
M  V30 409 O 37.9525 0.510648 1.7521 0
M  V30 410 C 38.0035 3.61178 0.152518 0
M  V30 411 O 37.7245 4.24285 -1.0915 0
M  V30 412 C 39.2255 4.37624 0.707145 0
M  V30 413 H 36.4455 0.669319 -0.0474652 0
M  V30 414 H 38.9895 1.89237 -0.77521 0
M  V30 415 H 37.1445 3.78298 0.834843 0
M  V30 416 H 37.5585 5.16868 -0.891482 0
M  V30 417 H 39.0325 5.46271 0.793244 0
M  V30 418 H 39.5095 4.04152 1.71923 0
M  V30 419 H 40.1155 4.25257 0.0604027 0
M  V30 420 N 38.4306 0.297415 1.54768 0
M  V30 421 C 39.6606 -0.315165 2.04182 0
M  V30 422 C 40.0686 -1.4834 1.17439 0
M  V30 423 O 39.4116 -1.82695 0.191891 0
M  V30 424 C 39.4736 -0.837583 3.49607 0
M  V30 425 C 39.1376 0.204912 4.5654 0
M  V30 426 C 40.1346 1.03214 5.09552 0
M  V30 427 C 37.8196 0.345578 5.0111 0
M  V30 428 C 39.8136 1.986 6.05671 0
M  V30 429 C 37.5006 1.30289 5.97049 0
M  V30 430 C 38.4986 2.12159 6.49213 0
M  V30 431 O 38.1866 3.06268 7.43273 0
M  V30 432 H 37.9186 -0.0729646 0.672051 0
M  V30 433 H 40.4726 0.433907 2.00765 0
M  V30 434 H 38.7026 -1.63712 3.50336 0
M  V30 435 H 40.3916 -1.36566 3.82236 0
M  V30 436 H 41.1576 0.934312 4.75916 0
M  V30 437 H 37.0366 -0.28171 4.60138 0
M  V30 438 H 40.5806 2.62542 6.46311 0
M  V30 439 H 36.4776 1.40145 6.30103 0
M  V30 440 H 37.2456 3.01205 7.61064 0
M  V30 441 N 39.9087 -1.5758 0.0250728 0
M  V30 442 C 41.1567 -1.91255 -0.653151 0
M  V30 443 C 41.4777 -0.901691 -1.729 0
M  V30 444 O 40.7477 0.0573785 -1.95816 0
M  V30 445 H 39.3277 -0.705942 -0.244243 0
M  V30 446 H 41.9897 -1.94767 0.0719209 0
M  V30 447 H 41.0857 -2.91752 -1.10847 0
M  V30 448 N 41.3868 0.248026 -1.55636 0
M  V30 449 C 42.6638 0.998988 -1.68165 0
M  V30 450 C 43.0438 2.03409 -0.564621 0
M  V30 451 O 42.3918 2.24378 0.432076 0
M  V30 452 C 42.6018 1.63334 -3.0842 0
M  V30 453 C 43.9498 2.13562 -3.66983 0
M  V30 454 O 44.9738 1.73277 -3.11213 0
M  V30 455 O 43.8328 2.87526 -4.64749 0
M  V30 456 H 40.9268 0.464933 -0.683935 0
M  V30 457 H 43.4728 0.241902 -1.67967 0
M  V30 458 H 42.2448 0.884583 -3.8117 0
M  V30 459 H 41.8678 2.45666 -3.12624 0
M  V30 460 N 42.8649 1.48995 0.513639 0
M  V30 461 C 44.1109 1.58076 1.27042 0
M  V30 462 C 44.4439 0.261026 1.92438 0
M  V30 463 O 43.7189 -0.734393 1.80103 0
M  V30 464 C 44.0019 2.73091 2.34719 0
M  V30 465 C 43.8549 4.14821 1.73907 0
M  V30 466 C 45.1739 2.83796 3.36375 0
M  V30 467 H 42.2929 0.575391 0.460536 0
M  V30 468 H 44.9349 1.81232 0.570516 0
M  V30 469 H 43.0849 2.53479 2.94416 0
M  V30 470 H 44.7569 4.45917 1.18135 0
M  V30 471 H 42.9999 4.21058 1.0437 0
M  V30 472 H 43.6709 4.91147 2.51949 0
M  V30 473 H 46.1469 3.01611 2.86653 0
M  V30 474 H 45.0229 3.65971 4.09093 0
M  V30 475 H 45.2839 1.92624 3.9793 0
M  V30 476 N 44.343 -0.763751 1.37857 0
M  V30 477 C 45.573 -1.55067 1.3652 0
M  V30 478 C 45.981 -1.89135 -0.0494227 0
M  V30 479 O 45.324 -1.52529 -1.02375 0
M  V30 480 C 45.386 -2.8838 2.14656 0
M  V30 481 C 45.05 -2.76905 3.63555 0
M  V30 482 C 46.047 -2.4739 4.57268 0
M  V30 483 C 43.732 -2.94676 4.06781 0
M  V30 484 C 45.726 -2.35786 5.92186 0
M  V30 485 C 43.413 -2.82692 5.41782 0
M  V30 486 C 44.411 -2.53289 6.34298 0
M  V30 487 O 44.099 -2.41345 7.66817 0
M  V30 488 H 43.831 -0.486776 0.469069 0
M  V30 489 H 46.385 -0.953812 1.81911 0
M  V30 490 H 44.615 -3.50217 1.63967 0
M  V30 491 H 46.304 -3.49828 2.05852 0
M  V30 492 H 47.07 -2.33339 4.2518 0
M  V30 493 H 42.949 -3.16563 3.35126 0
M  V30 494 H 46.493 -2.12757 6.64365 0
M  V30 495 H 42.39 -2.96314 5.7347 0
M  V30 496 H 43.158 -2.56634 7.77226 0
M  V30 497 N 45.8211 -1.22559 -0.990812 0
M  V30 498 C 46.7681 -0.997519 -2.0813 0
M  V30 499 C 47.7381 0.0814702 -1.659 0
M  V30 500 O 48.9231 -0.0685424 -1.90677 0
M  V30 501 C 46.0631 -0.583615 -3.40129 0
M  V30 502 C 45.1761 -1.7336 -3.9569 0
M  V30 503 C 44.3111 -1.26748 -5.15857 0
M  V30 504 C 43.3501 -2.38888 -5.63559 0
M  V30 505 N 42.4871 -1.93308 -6.74964 0
M  V30 506 H 47.3271 -1.93099 -2.26973 0
M  V30 507 H 44.8641 -0.962114 -1.11273 0
M  V30 508 H 46.8221 -0.324801 -4.15934 0
M  V30 509 H 45.4521 0.312845 -3.2128 0
M  V30 510 H 44.5041 -2.10669 -3.16738 0
M  V30 511 H 45.8161 -2.57704 -4.27071 0
M  V30 512 H 44.9701 -0.966173 -5.98957 0
M  V30 513 H 43.7091 -0.394272 -4.86104 0
M  V30 514 H 42.7141 -2.69805 -4.79046 0
M  V30 515 H 43.9391 -3.26728 -5.95336 0
M  V30 516 H 41.8851 -1.08352 -6.4699 0
M  V30 517 H 41.8021 -2.71217 -7.05675 0
M  V30 518 H 43.0701 -1.66252 -7.61564 0
M  V30 519 N 47.2992 1.18797 -1.03562 0
M  V30 520 C 48.2622 2.20464 -0.626769 0
M  V30 521 C 49.2622 1.57721 0.313173 0
M  V30 522 O 50.4522 1.73917 0.0992615 0
M  V30 523 C 47.5842 3.40802 0.0818498 0
M  V30 524 H 48.7772 2.58149 -1.5264 0
M  V30 525 H 46.3302 1.32593 -0.827578 0
M  V30 526 H 47.0652 3.08642 0.995518 0
M  V30 527 H 46.8502 3.8758 -0.593652 0
M  V30 528 H 48.3402 4.16092 0.354584 0
M  V30 529 N 48.7773 0.814389 1.34928 0
M  V30 530 C 50.1933 0.499084 1.51596 0
M  V30 531 C 50.3933 -0.978319 1.76157 0
M  V30 532 O 49.4493 -1.76309 1.80752 0
M  V30 533 C 50.7623 1.35121 2.68631 0
M  V30 534 C 52.3103 1.34746 2.82511 0
M  V30 535 C 52.7853 2.18388 4.0258 0
M  V30 536 N 54.2763 2.15966 4.09772 0
M  V30 537 C 55.0113 2.77437 5.01813 0
M  V30 538 N 54.5073 3.47866 5.99134 0
M  V30 539 N 56.3003 2.67037 4.94619 0
M  V30 540 H 48.4513 1.7711 1.17243 0
M  V30 541 H 50.7143 0.754256 0.574284 0
M  V30 542 H 50.4203 2.40001 2.57085 0
M  V30 543 H 50.2943 1.00991 3.63429 0
M  V30 544 H 52.6813 0.30648 2.93504 0
M  V30 545 H 52.7623 1.72869 1.88547 0
M  V30 546 H 52.4063 3.2253 3.92347 0
M  V30 547 H 52.3363 1.77621 4.9574 0
M  V30 548 H 54.8273 1.64729 3.40107 0
M  V30 549 H 55.1403 3.92038 6.65977 0
M  V30 550 H 53.4853 3.51972 5.99284 0
M  V30 551 H 56.6763 2.11597 4.17546 0
M  V30 552 H 56.8493 3.15232 5.66156 0
M  V30 553 N 50.2554 -1.46986 0.568584 0
M  V30 554 C 51.5324 -1.95592 -0.0174074 0
M  V30 555 C 51.9124 -1.51124 -1.47393 0
M  V30 556 O 51.2604 -0.755329 -2.15655 0
M  V30 557 C 51.4704 -3.48719 0.139913 0
M  V30 558 C 52.8184 -4.246 0.000426376 0
M  V30 559 O 53.8424 -3.56135 0.0680316 0
M  V30 560 O 52.7014 -5.46302 -0.146988 0
M  V30 561 H 49.7954 -0.82498 -0.0577599 0
M  V30 562 H 52.3414 -1.57335 0.635909 0
M  V30 563 H 51.1134 -3.73927 1.15301 0
M  V30 564 H 50.7364 -3.93771 -0.550491 0
M  V30 565 N 51.7335 -0.305618 -1.54608 0
M  V30 566 C 52.9615 0.304775 -2.04643 0
M  V30 567 C 53.3765 1.47167 -1.18268 0
M  V30 568 O 52.7335 1.81296 -0.209328 0
M  V30 569 C 52.7845 0.756564 -3.53495 0
M  V30 570 O 52.5055 -0.36389 -4.36586 0
M  V30 571 C 54.0065 1.43163 -4.19546 0
M  V30 572 H 51.2265 0.0655481 -0.667791 0
M  V30 573 H 53.7705 -0.446592 -1.99564 0
M  V30 574 H 51.9255 1.45794 -3.58919 0
M  V30 575 H 52.3395 -0.0113121 -5.24499 0
M  V30 576 H 53.8135 1.69886 -5.25207 0
M  V30 577 H 54.2905 2.37318 -3.69563 0
M  V30 578 H 54.8965 0.773307 -4.18211 0
M  V30 579 N 53.2116 1.57565 -0.0334293 0
M  V30 580 C 54.4576 1.92262 0.645226 0
M  V30 581 C 54.7906 0.910543 1.71531 0
M  V30 582 O 54.0656 -0.066099 1.94388 0
M  V30 583 C 54.3486 3.37422 1.2577 0
M  V30 584 C 54.2016 4.49369 0.196891 0
M  V30 585 C 55.5206 3.82628 2.17449 0
M  V30 586 H 52.6396 0.699171 0.233085 0
M  V30 587 H 55.2816 1.89779 -0.0915694 0
M  V30 588 H 53.4316 3.39669 1.88566 0
M  V30 589 H 55.1036 4.59254 -0.433962 0
M  V30 590 H 53.3466 4.31168 -0.477137 0
M  V30 591 H 54.0176 5.47978 0.665124 0
M  V30 592 H 56.4936 3.82145 1.64634 0
M  V30 593 H 55.3696 4.84883 2.57254 0
M  V30 594 H 55.6306 3.18376 3.0674 0
M  V30 595 N 54.6897 -0.239769 1.55765 0
M  V30 596 C 55.9177 -0.98417 1.81994 0
M  V30 597 C 56.3327 -1.7867 0.610124 0
M  V30 598 O 55.6897 -1.77571 -0.421271 0
M  V30 599 C 55.7407 -1.91635 3.06526 0
M  V30 600 O 55.4617 -1.14629 4.22838 0
M  V30 601 C 56.9627 -2.77616 3.45607 0
M  V30 602 H 54.1827 -0.28928 0.605441 0
M  V30 603 H 56.7267 -0.260499 2.02834 0
M  V30 604 H 54.8817 -2.5942 2.87715 0
M  V30 605 H 55.2957 -1.77745 4.93464 0
M  V30 606 H 56.7697 -3.38759 4.35828 0
M  V30 607 H 57.2467 -3.4909 2.6652 0
M  V30 608 H 57.8527 -2.15271 3.66795 0
M  V30 609 N 56.1678 -1.49265 -0.50573 0
M  V30 610 C 57.3928 -1.62478 -1.28902 0
M  V30 611 C 57.8178 -0.294332 -1.85783 0
M  V30 612 O 57.1758 0.737412 -1.65626 0
M  V30 613 C 57.2238 -2.69268 -2.39848 0
M  V30 614 O 56.3278 -2.28113 -3.43567 0
M  V30 615 H 55.6688 -0.54399 -0.380751 0
M  V30 616 H 58.1988 -1.95421 -0.605952 0
M  V30 617 H 58.2088 -2.91291 -2.85681 0
M  V30 618 H 56.8838 -3.65846 -1.97812 0
M  V30 619 H 55.4608 -2.16401 -3.03685 0
M  V30 620 N 57.6459 0.756429 -1.3826 0
M  V30 621 C 58.5559 1.9009 -1.37488 0
M  V30 622 C 59.5719 1.71855 -0.272366 0
M  V30 623 O 60.7479 1.94827 -0.510318 0
M  V30 624 C 57.8129 3.25421 -1.19592 0
M  V30 625 C 56.8739 3.56202 -2.39622 0
M  V30 626 C 56.1069 4.85075 -2.2257 0
M  V30 627 O 56.3299 5.57246 -1.21793 0
M  V30 628 O 55.2639 5.15269 -3.11098 0
M  V30 629 H 59.0899 1.93695 -2.33914 0
M  V30 630 H 56.6749 0.901313 -1.1915 0
M  V30 631 H 58.5569 4.06337 -1.11661 0
M  V30 632 H 57.2319 3.22634 -0.262486 0
M  V30 633 H 56.1389 2.75458 -2.53128 0
M  V30 634 H 57.4719 3.63747 -3.31586 0
M  V30 635 N 59.124 1.23083 0.984299 0
M  V30 636 C 60.054 1.03292 2.09411 0
M  V30 637 C 61.035 -0.048923 1.7003 0
M  V30 638 O 62.22 0.114967 1.93859 0
M  V30 639 C 59.35 0.619155 3.41736 0
M  V30 640 C 58.304 1.64791 3.95004 0
M  V30 641 C 57.63 1.0897 5.23478 0
M  V30 642 C 58.93 3.03999 4.24714 0
M  V30 643 H 60.624 1.96119 2.26225 0
M  V30 644 H 58.17 0.944344 1.08711 0
M  V30 645 H 60.123 0.467777 4.18796 0
M  V30 646 H 58.847 -0.344786 3.24775 0
M  V30 647 H 57.506 1.78721 3.20085 0
M  V30 648 H 57.154 0.11686 5.02864 0
M  V30 649 H 56.854 1.77704 5.60085 0
M  V30 650 H 58.378 0.950093 6.03163 0
M  V30 651 H 59.792 2.93393 4.92538 0
M  V30 652 H 58.189 3.69936 4.72512 0
M  V30 653 H 59.259 3.53285 3.32142 0
M  V30 654 N 60.6021 -1.18246 1.0419 0
M  V30 655 C 61.5651 -2.20128 0.638452 0
M  V30 656 C 62.5651 -1.57885 -0.304805 0
M  V30 657 O 63.7551 -1.73967 -0.0900369 0
M  V30 658 C 60.8871 -3.4084 -0.0637751 0
M  V30 659 H 62.0801 -2.57336 1.54007 0
M  V30 660 H 59.6331 -1.32152 0.834598 0
M  V30 661 H 60.3681 -3.09166 -0.979136 0
M  V30 662 H 60.1531 -3.8726 0.614198 0
M  V30 663 H 61.6431 -4.16274 -0.332512 0
M  V30 664 N 62.0802 -0.821533 -1.34494 0
M  V30 665 C 63.0432 -0.247847 -2.27856 0
M  V30 666 C 64.0432 0.573453 -1.50227 0
M  V30 667 O 65.2332 0.389759 -1.69784 0
M  V30 668 C 62.3652 0.652698 -3.34593 0
M  V30 669 H 63.5582 -1.07146 -2.80107 0
M  V30 670 H 61.1112 -0.593291 -1.44602 0
M  V30 671 H 61.8462 1.49943 -2.87555 0
M  V30 672 H 61.6312 0.065292 -3.92046 0
M  V30 673 H 63.1212 1.04793 -4.04238 0
M  V30 674 N 63.5583 1.46682 -0.576371 0
M  V30 675 C 64.8043 2.02712 -0.0596221 0
M  V30 676 C 65.1373 1.44765 1.29448 0
M  V30 677 O 64.4123 0.610355 1.84675 0
M  V30 678 C 64.6953 3.60098 0.0129503 0
M  V30 679 C 64.5483 4.28441 -1.3696 0
M  V30 680 C 65.8673 4.34224 0.71678 0
M  V30 681 H 62.9863 0.736637 -0.0231407 0
M  V30 682 H 65.6283 1.74898 -0.742351 0
M  V30 683 H 63.7783 3.83926 0.594378 0
M  V30 684 H 65.4503 4.15896 -1.9957 0
M  V30 685 H 63.6933 3.8805 -1.93907 0
M  V30 686 H 64.3643 5.3716 -1.27135 0
M  V30 687 H 66.8403 4.15503 0.222908 0
M  V30 688 H 65.7163 5.43936 0.73657 0
M  V30 689 H 65.9773 4.04823 1.77682 0
M  V30 690 N 65.0364 0.313813 1.54444 0
M  V30 691 C 65.9834 -0.55655 2.23989 0
M  V30 692 C 66.9534 -1.11943 1.22711 0
M  V30 693 O 68.1384 -1.16158 1.51367 0
M  V30 694 C 65.2784 -1.71635 2.99392 0
M  V30 695 C 64.3914 -1.18364 4.15468 0
M  V30 696 C 63.5264 -2.30834 4.78424 0
M  V30 697 C 62.5654 -1.74762 5.86622 0
M  V30 698 N 61.7024 -2.80855 6.43479 0
M  V30 699 H 66.5424 0.0430893 2.97969 0
M  V30 700 H 64.0794 0.0330359 1.47063 0
M  V30 701 H 66.0374 -2.39868 3.41349 0
M  V30 702 H 64.6674 -2.28742 2.27765 0
M  V30 703 H 63.7194 -0.393163 3.78363 0
M  V30 704 H 65.0314 -0.733262 4.93381 0
M  V30 705 H 64.1854 -3.0699 5.23299 0
M  V30 706 H 62.9244 -2.79204 3.99871 0
M  V30 707 H 61.9294 -0.970995 5.41158 0
M  V30 708 H 63.1544 -1.2728 6.67066 0
M  V30 709 H 61.1004 -3.28535 5.67804 0
M  V30 710 H 61.0174 -2.40351 7.16776 0
M  V30 711 H 62.2854 -3.5687 6.93011 0
M  V30 712 N 66.5145 -1.57545 0.0417849 0
M  V30 713 C 67.7635 -1.91494 -0.633492 0
M  V30 714 C 68.0765 -0.921084 -1.72556 0
M  V30 715 O 69.2825 -1.15228 -2.45835 0
M  V30 716 C 67.7385 -3.40072 -1.17808 0
M  V30 717 C 67.3465 -4.47843 -0.118633 0
M  V30 718 C 69.0905 -3.8307 -1.82915 0
M  V30 719 C 66.9975 -5.87529 -0.675578 0
M  V30 720 H 65.9275 -0.714653 -0.24039 0
M  V30 721 H 68.5785 -1.83175 0.109148 0
M  V30 722 H 66.9605 -3.43364 -1.97274 0
M  V30 723 H 68.1345 -4.56128 0.654494 0
M  V30 724 H 66.4495 -4.14128 0.434414 0
M  V30 725 H 69.0465 -4.84794 -2.25563 0
M  V30 726 H 69.3895 -3.1881 -2.67705 0
M  V30 727 H 69.9225 -3.82255 -1.10119 0
M  V30 728 H 66.6615 -6.55362 0.134475 0
M  V30 729 H 66.1815 -5.82824 -1.4169 0
M  V30 730 H 67.8605 -6.36491 -1.1614 0
M  V30 731 N 67.9926 0.231505 -1.5589 0
M  V30 732 C 69.2386 0.95877 -1.78705 0
M  V30 733 C 69.5716 1.8438 -0.609725 0
M  V30 734 O 68.8466 1.90521 0.391426 0
M  V30 735 C 69.1296 1.8062 -3.11526 0
M  V30 736 C 68.9826 0.948328 -4.39689 0
M  V30 737 C 70.3016 2.78585 -3.40703 0
M  V30 738 H 67.4206 0.347129 -0.650131 0
M  V30 739 H 70.0626 0.228259 -1.88624 0
M  V30 740 H 68.2126 2.42902 -3.03201 0
M  V30 741 H 69.8846 0.343016 -4.60023 0
M  V30 742 H 68.1276 0.253314 -4.3306 0
M  V30 743 H 68.7986 1.57543 -5.29041 0
M  V30 744 H 71.2746 2.26439 -3.49091 0
M  V30 745 H 70.1506 3.34988 -4.34826 0
M  V30 746 H 70.4116 3.55825 -2.62375 0
M  V30 747 N 69.4707 1.49531 0.497807 0
M  V30 748 C 70.4177 1.66436 1.59899 0
M  V30 749 C 71.3877 0.505793 1.58212 0
M  V30 750 O 72.5727 0.733202 1.7615 0
M  V30 751 C 69.7127 1.7399 2.98029 0
M  V30 752 C 68.8257 3.01172 3.09708 0
M  V30 753 C 67.9607 2.99686 4.38591 0
M  V30 754 C 66.9997 4.21434 4.43914 0
M  V30 755 N 66.1367 4.1784 5.64229 0
M  V30 756 H 70.9767 2.60459 1.44793 0
M  V30 757 H 68.5137 1.29137 0.704423 0
M  V30 758 H 70.4717 1.76352 3.78095 0
M  V30 759 H 69.1017 0.834301 3.11832 0
M  V30 760 H 68.1537 3.08408 2.22685 0
M  V30 761 H 69.4657 3.91165 3.09502 0
M  V30 762 H 68.6197 3.00628 5.2698 0
M  V30 763 H 67.3587 2.07477 4.41367 0
M  V30 764 H 66.3637 4.20733 3.53926 0
M  V30 765 H 67.5887 5.14839 4.42851 0
M  V30 766 H 65.5347 3.28469 5.67841 0
M  V30 767 H 65.4517 5.01571 5.65652 0
M  V30 768 H 66.7197 4.22889 6.54817 0
M  V30 769 N 70.9488 -0.749086 1.3866 0
M  V30 770 C 71.8788 -1.8764 1.38973 0
M  V30 771 C 72.8598 -1.68178 0.255004 0
M  V30 772 O 74.0448 -1.88704 0.458754 0
M  V30 773 C 71.1748 -3.25222 1.21851 0
M  V30 774 C 70.1288 -3.59295 2.32575 0
M  V30 775 C 69.4548 -4.95663 2.00555 0
M  V30 776 C 70.7548 -3.63709 3.7485 0
M  V30 777 H 72.4488 -1.87635 2.3331 0
M  V30 778 H 69.9948 -0.901329 1.12303 0
M  V30 779 H 71.9478 -4.03746 1.20695 0
M  V30 780 H 70.6718 -3.25719 0.239775 0
M  V30 781 H 69.3308 -2.83093 2.32925 0
M  V30 782 H 68.9788 -4.92724 1.01154 0
M  V30 783 H 68.6788 -5.19429 2.74714 0
M  V30 784 H 70.2028 -5.7656 2.01024 0
M  V30 785 H 71.6168 -4.32338 3.76506 0
M  V30 786 H 70.0138 -3.98986 4.48252 0
M  V30 787 H 71.0838 -2.63834 4.06841 0
M  V30 788 N 72.4269 -1.23603 -0.977757 0
M  V30 789 C 73.7039 -0.977897 -1.69401 0
M  V30 790 C 74.0839 0.502738 -2.05026 0
M  V30 791 O 73.4319 1.47459 -1.74551 0
M  V30 792 C 73.6419 -1.89077 -2.93345 0
M  V30 793 C 74.9899 -2.15579 -3.65802 0
M  V30 794 O 76.0139 -1.86648 -3.03383 0
M  V30 795 O 74.8729 -2.64658 -4.78141 0
M  V30 796 H 71.9669 -0.369025 -0.740101 0
M  V30 797 H 74.5129 -1.34657 -1.03274 0
M  V30 798 H 73.2849 -2.89158 -2.63634 0
M  V30 799 H 72.9079 -1.52463 -3.67207 0
M  V30 800 N 73.905 1.17692 -1.04816 0
M  V30 801 C 75.316 1.69501 -0.782698 0
M  V30 802 C 75.667 1.83456 0.695577 0
M  V30 803 O 74.792 1.51942 1.54086 0
M  V30 804 C 75.387 3.07874 -1.41419 0
M  V30 805 C 73.946 3.56864 -1.19686 0
M  V30 806 C 73.093 2.3322 -1.50012 0
M  V30 807 H 76.044 1.02262 -1.2136 0
M  V30 808 H 76.065 3.71528 -0.821428 0
M  V30 809 H 75.577 2.97685 -2.49009 0
M  V30 810 H 73.678 3.72337 -0.140043 0
M  V30 811 H 73.791 4.39851 -1.89916 0
M  V30 812 H 72.155 2.37501 -0.920071 0
M  V30 813 H 72.938 2.25644 -2.58727 0
M  V30 814 N 75.3831 0.828654 1.34056 0
M  V30 815 C 76.6311 0.41863 1.97717 0
M  V30 816 C 76.9521 -1.02314 1.66002 0
M  V30 817 O 76.2221 -1.71119 0.953683 0
M  V30 818 H 74.8021 0.151809 0.731412 0
M  V30 819 H 77.4641 1.05936 1.63596 0
M  V30 820 H 76.5601 0.542318 3.07352 0
M  V30 821 N 76.8612 -1.46375 0.584142 0
M  V30 822 C 78.1382 -1.956 0.0033388 0
M  V30 823 C 78.5182 -1.52679 -1.45782 0
M  V30 824 O 77.8662 -0.77816 -2.14842 0
M  V30 825 C 78.0762 -3.48551 0.176891 0
M  V30 826 C 79.4242 -4.24576 0.0454609 0
M  V30 827 O 80.4482 -3.56043 0.105801 0
M  V30 828 O 79.3072 -5.46427 -0.0890376 0
M  V30 829 H 76.4012 -0.825547 -0.0490066 0
M  V30 830 H 78.9472 -1.56652 0.65256 0
M  V30 831 H 77.7192 -3.72683 1.1926 0
M  V30 832 H 77.3422 -3.94332 -0.508695 0
M  V30 833 N 78.3393 -0.321999 -1.54275 0
M  V30 834 C 79.6163 0.335232 -1.92706 0
M  V30 835 C 79.9963 1.70006 -1.25145 0
M  V30 836 O 79.3443 2.25067 -0.394596 0
M  V30 837 C 79.5543 0.429008 -3.46353 0
M  V30 838 C 80.9023 0.690029 -4.18956 0
M  V30 839 O 81.9263 0.511992 -3.52501 0
M  V30 840 O 80.7853 1.03338 -5.36641 0
M  V30 841 H 77.8793 0.191143 -0.804608 0
M  V30 842 H 80.4253 -0.3716 -1.65581 0
M  V30 843 H 79.1973 -0.529611 -3.87699 0
M  V30 844 H 78.8203 1.18348 -3.79578 0
M  V30 845 N 79.8174 1.5752 -0.0501392 0
M  V30 846 C 81.0664 1.91827 0.623328 0
M  V30 847 C 81.3794 0.930222 1.72065 0
M  V30 848 O 82.5854 1.1653 2.4522 0
M  V30 849 C 81.0414 3.40692 1.16003 0
M  V30 850 C 80.6494 4.479 0.0948811 0
M  V30 851 C 82.3934 3.84034 1.80881 0
M  V30 852 C 80.3004 5.87879 0.644411 0
M  V30 853 H 79.2304 0.715918 0.236596 0
M  V30 854 H 81.8814 1.83115 -0.118861 0
M  V30 855 H 80.2634 3.44405 1.9545 0
M  V30 856 H 81.4374 4.55775 -0.678675 0
M  V30 857 H 79.7524 4.13892 -0.45637 0
M  V30 858 H 82.3494 4.85984 2.22988 0
M  V30 859 H 82.6924 3.20225 2.6601 0
M  V30 860 H 83.2254 3.82833 1.0809 0
M  V30 861 H 79.9644 6.55282 -0.169229 0
M  V30 862 H 79.4844 5.83567 1.38598 0
M  V30 863 H 81.1634 6.37098 1.12763 0
M  V30 864 N 81.2955 -0.223234 1.56011 0
M  V30 865 C 82.5205 -0.968978 1.83373 0
M  V30 866 C 82.9455 -1.77227 0.630254 0
M  V30 867 O 82.3035 -1.76345 -0.420959 0
M  V30 868 C 82.3515 -1.86363 3.08709 0
M  V30 869 O 81.4555 -2.95873 2.87285 0
M  V30 870 H 80.7965 -0.274461 0.604622 0
M  V30 871 H 83.3265 -0.237056 2.03222 0
M  V30 872 H 83.3365 -2.27376 3.38768 0
M  V30 873 H 82.0115 -1.27319 3.95933 0
M  V30 874 H 80.5885 -2.58818 2.68454 0
M  V30 875 N 82.7736 -1.49793 -0.48987 0
M  V30 876 C 83.9986 -1.63836 -1.27172 0
M  V30 877 C 84.4236 -0.31402 -1.8546 0
M  V30 878 O 83.7816 0.719803 -1.66399 0
M  V30 879 C 83.8296 -2.71797 -2.36978 0
M  V30 880 O 82.9336 -2.31744 -3.41128 0
M  V30 881 H 82.2746 -0.547997 -0.37496 0
M  V30 882 H 84.8046 -1.96053 -0.585191 0
M  V30 883 H 84.8146 -2.94305 -2.82575 0
M  V30 884 H 83.4896 -3.67923 -1.93921 0
M  V30 885 H 82.0666 -2.1961 -3.01373 0
M  V30 886 N 84.2517 0.741722 -1.39055 0
M  V30 887 C 85.1817 1.869 -1.39966 0
M  V30 888 C 86.1627 1.6804 -0.26392 0
M  V30 889 O 87.3477 1.88458 -0.468755 0
M  V30 890 C 84.4777 3.24572 -1.23574 0
M  V30 891 C 83.4317 3.58056 -2.34477 0
M  V30 892 C 82.7577 4.94593 -2.0318 0
M  V30 893 C 84.0577 3.61716 -3.76774 0
M  V30 894 H 85.7517 1.86395 -2.34302 0
M  V30 895 H 83.2977 0.895361 -1.1278 0
M  V30 896 H 85.2507 4.031 -1.22834 0
M  V30 897 H 83.9747 3.25587 -0.257045 0
M  V30 898 H 82.6337 2.81854 -2.34423 0
M  V30 899 H 82.2817 4.92181 -1.03765 0
M  V30 900 H 81.9817 5.17964 -2.77465 0
M  V30 901 H 83.5057 5.75486 -2.04079 0
M  V30 902 H 84.9197 4.30335 -3.78794 0
M  V30 903 H 83.3167 3.96603 -4.50362 0
M  V30 904 H 84.3867 2.61672 -4.08235 0
M  V30 905 N 85.7298 1.2412 0.971189 0
M  V30 906 C 86.6618 0.988349 2.06795 0
M  V30 907 C 87.6748 -0.0409541 1.62748 0
M  V30 908 O 88.8638 0.195673 1.77424 0
M  V30 909 C 85.9638 0.469023 3.35639 0
M  V30 910 C 85.1368 1.56065 4.08611 0
M  V30 911 C 84.1958 1.04458 5.15728 0
M  V30 912 O 83.2218 1.73553 5.42096 0
M  V30 913 N 84.4238 -0.122817 5.8037 0
M  V30 914 H 87.1888 1.93265 2.29061 0
M  V30 915 H 84.7498 1.15102 1.13856 0
M  V30 916 H 86.7418 0.108613 4.04554 0
M  V30 917 H 85.3118 -0.380919 3.1027 0
M  V30 918 H 84.5318 2.09341 3.34021 0
M  V30 919 H 85.8198 2.29449 4.54126 0
M  V30 920 H 85.2178 -0.700563 5.61345 0
M  V30 921 H 83.7748 -0.424404 6.50417 0
M  V30 922 N 87.2079 -1.17134 1.05439 0
M  V30 923 C 88.1399 -2.2078 0.615539 0
M  V30 924 C 89.1529 -1.59584 -0.322001 0
M  V30 925 O 90.3419 -1.78133 -0.114344 0
M  V30 926 C 87.4419 -3.38691 -0.118938 0
M  V30 927 C 86.6149 -4.29454 0.829924 0
M  V30 928 C 85.6739 -5.26024 0.136258 0
M  V30 929 O 84.6999 -5.63952 0.77115 0
M  V30 930 N 85.9019 -5.69487 -1.1254 0
M  V30 931 H 88.6669 -2.59052 1.50705 0
M  V30 932 H 86.2279 -1.32058 0.936603 0
M  V30 933 H 88.2199 -4.00329 -0.593179 0
M  V30 934 H 86.7899 -2.98996 -0.91215 0
M  V30 935 H 86.0099 -3.65211 1.48373 0
M  V30 936 H 87.2979 -4.86984 1.47392 0
M  V30 937 H 86.6959 -5.4075 -1.6615 0
M  V30 938 H 85.2529 -6.33257 -1.54366 0
M  V30 939 N 88.686 -0.835752 -1.33615 0
M  V30 940 C 89.596 -0.269088 -2.33052 0
M  V30 941 C 90.612 0.603251 -1.63208 0
M  V30 942 O 91.788 0.508112 -1.94885 0
M  V30 943 C 88.853 0.549091 -3.42324 0
M  V30 944 C 87.914 -0.347156 -4.27894 0
M  V30 945 C 87.147 0.43207 -5.31948 0
M  V30 946 O 87.37 1.66409 -5.45586 0
M  V30 947 O 86.304 -0.192298 -6.01593 0
M  V30 948 H 90.13 -1.09243 -2.83372 0
M  V30 949 H 87.715 -0.598198 -1.36901 0
M  V30 950 H 89.597 1.01414 -4.09015 0
M  V30 951 H 88.272 1.34955 -2.94226 0
M  V30 952 H 87.179 -0.859979 -3.64081 0
M  V30 953 H 88.512 -1.1123 -4.79467 0
M  V30 954 N 90.1641 1.46063 -0.591896 0
M  V30 955 C 91.4131 2.01547 -0.0786637 0
M  V30 956 C 91.7261 1.46796 1.29268 0
M  V30 957 O 92.9321 1.94157 1.89777 0
M  V30 958 C 91.3881 3.59787 -0.0900024 0
M  V30 959 C 90.9961 4.23534 -1.46023 0
M  V30 960 C 92.7401 4.22895 0.368806 0
M  V30 961 C 90.6471 5.73881 -1.4288 0
M  V30 962 H 89.5771 0.753564 -0.0256388 0
M  V30 963 H 92.2281 1.677 -0.744905 0
M  V30 964 H 90.6101 3.90752 0.642586 0
M  V30 965 H 91.7841 4.04167 -2.21328 0
M  V30 966 H 90.0991 3.72558 -1.85982 0
M  V30 967 H 92.6961 5.33116 0.411258 0
M  V30 968 H 93.0391 3.9247 1.38827 0
M  V30 969 H 93.5721 3.9659 -0.31001 0
M  V30 970 H 90.3111 6.0898 -2.42536 0
M  V30 971 H 89.8311 5.95486 -0.718095 0
M  V30 972 H 91.5101 6.36776 -1.14565 0
M  V30 973 N 91.6422 0.330177 1.54103 0
M  V30 974 C 92.8702 -0.272179 2.05102 0
M  V30 975 C 93.2852 -1.45267 1.20595 0
M  V30 976 O 92.6422 -1.8094 0.238144 0
M  V30 977 C 92.6932 -0.70023 3.54653 0
M  V30 978 O 92.4142 0.433301 4.35952 0
M  V30 979 C 93.9152 -1.3647 4.21771 0
M  V30 980 H 91.1352 -0.0549159 0.668749 0
M  V30 981 H 93.6792 0.478285 1.98828 0
M  V30 982 H 91.8342 -1.40066 3.61193 0
M  V30 983 H 92.2482 0.0947539 5.24414 0
M  V30 984 H 93.7222 -1.61509 5.27843 0
M  V30 985 H 94.1992 -2.31409 3.73292 0
M  V30 986 H 94.8052 -0.706675 4.19388 0
M  V30 987 N 93.1203 -1.57491 0.0584922 0
M  V30 988 C 94.3693 -1.92155 -0.613146 0
M  V30 989 C 94.6823 -0.939334 -1.71569 0
M  V30 990 O 95.8883 -1.17829 -2.44599 0
M  V30 991 C 94.3443 -3.41303 -1.14195 0
M  V30 992 C 93.9523 -4.47944 -0.0711265 0
M  V30 993 C 95.6963 -3.84988 -1.78841 0
M  V30 994 C 93.6033 -5.88212 -0.613225 0
M  V30 995 H 92.5333 -0.717162 -0.232796 0
M  V30 996 H 95.1843 -1.83049 0.12857 0
M  V30 997 H 93.5663 -3.45437 -1.93621 0
M  V30 998 H 94.7403 -4.55408 0.702836 0
M  V30 999 H 93.0553 -4.13644 0.478313 0
M  V30 1000 H 95.6523 -4.87159 -2.20408 0
M  V30 1001 H 95.9953 -3.21632 -2.64308 0
M  V30 1002 H 96.5283 -3.83401 -1.06059 0
M  V30 1003 H 93.2673 -6.55183 0.203978 0
M  V30 1004 H 92.7873 -5.84294 -1.35501 0
M  V30 1005 H 94.4663 -6.37687 -1.09383 0
M  V30 1006 N 94.5984 0.214957 -1.56127 0
M  V30 1007 C 95.5284 1.2695 -1.95974 0
M  V30 1008 C 96.5094 1.48539 -0.828868 0
M  V30 1009 O 97.6944 1.60611 -1.09168 0
M  V30 1010 C 94.8244 2.61794 -2.28214 0
M  V30 1011 C 93.7784 2.54851 -3.43853 0
M  V30 1012 C 93.1044 3.93785 -3.61715 0
M  V30 1013 C 94.4044 2.09065 -4.78632 0
M  V30 1014 H 96.0984 0.93846 -2.84312 0
M  V30 1015 H 93.6444 0.449996 -1.36788 0
M  V30 1016 H 95.5974 3.35731 -2.54682 0
M  V30 1017 H 94.3214 2.96599 -1.36736 0
M  V30 1018 H 92.9804 1.8337 -3.17444 0
M  V30 1019 H 92.6284 4.25908 -2.67602 0
M  V30 1020 H 92.3284 3.90019 -4.39498 0
M  V30 1021 H 93.8524 4.69374 -3.90539 0
M  V30 1022 H 95.2664 2.7275 -5.04262 0
M  V30 1023 H 93.6634 2.16346 -5.59745 0
M  V30 1024 H 94.7334 1.04315 -4.73547 0
M  V30 1025 N 96.0765 1.50051 0.48192 0
M  V30 1026 C 97.4925 1.37237 0.814756 0
M  V30 1027 C 97.6925 0.420109 1.97072 0
M  V30 1028 O 96.7485 -0.141246 2.52105 0
M  V30 1029 C 98.0615 2.78375 1.13701 0
M  V30 1030 C 99.6095 2.87213 1.2441 0
M  V30 1031 C 100.084 4.29161 1.59954 0
M  V30 1032 N 101.575 4.32061 1.66967 0
M  V30 1033 C 102.31 5.38879 1.95952 0
M  V30 1034 N 101.806 6.55918 2.23031 0
M  V30 1035 N 103.599 5.26312 1.97363 0
M  V30 1036 H 95.7505 2.10546 -0.28005 0
M  V30 1037 H 98.0135 0.945921 -0.0627454 0
M  V30 1038 H 97.7195 3.49845 0.360787 0
M  V30 1039 H 97.5935 3.14941 2.07586 0
M  V30 1040 H 99.9805 2.15969 2.01101 0
M  V30 1041 H 100.061 2.54204 0.285299 0
M  V30 1042 H 99.7055 5.00938 0.838067 0
M  V30 1043 H 99.6355 4.59648 2.56966 0
M  V30 1044 H 102.126 3.47661 1.48123 0
M  V30 1045 H 102.439 7.33139 2.44391 0
M  V30 1046 H 100.784 6.59112 2.20447 0
M  V30 1047 H 103.975 4.33876 1.75697 0
M  V30 1048 H 104.148 6.09649 2.19618 0
M  V30 1049 N 97.5546 -0.734337 1.39446 0
M  V30 1050 C 98.4646 -1.87879 1.40495 0
M  V30 1051 C 99.4806 -1.714 0.299672 0
M  V30 1052 O 100.657 -1.93991 0.541249 0
M  V30 1053 C 97.7216 -3.23477 1.24754 0
M  V30 1054 C 96.7826 -3.52344 2.45259 0
M  V30 1055 C 96.0156 -4.81473 2.30259 0
M  V30 1056 O 96.2386 -5.55237 1.30643 0
M  V30 1057 O 95.1726 -5.10254 3.19256 0
M  V30 1058 H 98.9986 -1.89949 2.36966 0
M  V30 1059 H 96.5836 -0.882243 1.20569 0
M  V30 1060 H 98.4656 -4.04509 1.18111 0
M  V30 1061 H 97.1406 -3.22176 0.313781 0
M  V30 1062 H 96.0476 -2.71396 2.57478 0
M  V30 1063 H 97.3806 -3.58426 3.37331 0
M  V30 1064 N 99.0327 -1.24633 -0.964593 0
M  V30 1065 C 100.273 -1.09981 -1.72289 0
M  V30 1066 C 100.637 0.354792 -1.88693 0
M  V30 1067 O 101.838 0.62289 -2.61483 0
M  V30 1068 C 100.109 -1.82262 -3.07434 0
M  V30 1069 S 101.668 -1.83379 -3.98645 0
M  V30 1070 H 98.4857 -0.393292 -0.59232 0
M  V30 1071 H 101.088 -1.58009 -1.15123 0
M  V30 1072 H 99.7917 -2.87206 -2.93157 0
M  V30 1073 H 99.3227 -1.3458 -3.69664 0
M  V30 1074 H 101.338 -0.903691 -4.87901 0
M  V30 1075 N 100.511 1.16574 -1.06058 0
M  V30 1076 C 101.927 1.3904 -0.783585 0
M  V30 1077 C 102.127 1.91784 0.618145 0
M  V30 1078 O 101.183 2.11511 1.37911 0
M  V30 1079 C 102.496 2.37329 -1.84649 0
M  V30 1080 C 104.044 2.51018 -1.86973 0
M  V30 1081 C 104.519 3.52588 -2.92311 0
M  V30 1082 N 106.01 3.60113 -2.91329 0
M  V30 1083 C 106.745 4.38486 -3.69482 0
M  V30 1084 N 106.241 5.20302 -4.57447 0
M  V30 1085 N 108.034 4.33446 -3.57885 0
M  V30 1086 H 100.185 0.806725 -1.96483 0
M  V30 1087 H 102.448 0.417117 -0.851303 0
M  V30 1088 H 102.154 2.05663 -2.85299 0
M  V30 1089 H 102.028 3.36946 -1.6955 0
M  V30 1090 H 104.415 2.81989 -0.869827 0
M  V30 1091 H 104.496 1.51445 -2.0615 0
M  V30 1092 H 104.14 3.22354 -3.92492 0
M  V30 1093 H 104.07 4.51886 -2.70383 0
M  V30 1094 H 106.561 3.01707 -2.27555 0
M  V30 1095 H 106.874 5.77311 -5.13743 0
M  V30 1096 H 105.219 5.19653 -4.61503 0
M  V30 1097 H 108.41 3.68586 -2.88551 0
M  V30 1098 H 108.583 4.94279 -4.19037 0
M  V30 1099 N 101.989 0.842826 1.3317 0
M  V30 1100 C 102.939 0.250877 2.26616 0
M  V30 1101 C 103.923 -0.596427 1.49437 0
M  V30 1102 O 105.115 -0.447747 1.71243 0
M  V30 1103 C 102.244 -0.569779 3.38539 0
M  V30 1104 C 101.33 0.289254 4.23112 0
M  V30 1105 N 101.721 1.36987 4.86897 0
M  V30 1106 C 100.019 0.0769631 4.45934 0
M  V30 1107 C 100.72 1.89737 5.49886 0
M  V30 1108 N 99.6959 1.19827 5.30229 0
M  V30 1109 H 103.498 1.07718 2.73448 0
M  V30 1110 H 101.012 0.687693 1.47121 0
M  V30 1111 H 103.009 -1.01018 4.04476 0
M  V30 1112 H 101.669 -1.39401 2.93253 0
M  V30 1113 H 102.68 1.75277 4.87338 0
M  V30 1114 H 99.3569 -0.713507 4.11358 0
M  V30 1115 H 100.747 2.80253 6.10662 0
M  V30 1116 N 103.467 -1.45747 0.599634 0
M  V30 1117 C 104.878 -1.85853 0.177681 0
M  V30 1118 C 105.229 -1.50102 -1.26348 0
M  V30 1119 O 104.354 -0.923905 -1.95686 0
M  V30 1120 C 104.949 -3.37326 0.315688 0
M  V30 1121 C 103.508 -3.76365 -0.0515144 0
M  V30 1122 C 102.655 -2.69722 0.643822 0
M  V30 1123 H 105.606 -1.36661 0.806814 0
M  V30 1124 H 105.627 -3.77778 -0.454321 0
M  V30 1125 H 105.139 -3.63315 1.36468 0
M  V30 1126 H 103.24 -3.55993 -1.09999 0
M  V30 1127 H 103.353 -4.77916 0.336594 0
M  V30 1128 H 101.717 -2.54567 0.0822881 0
M  V30 1129 H 102.5 -2.98549 1.6948 0
M  V30 1130 N 104.945 -0.338344 -1.53925 0
M  V30 1131 C 105.893 0.536231 -2.26335 0
M  V30 1132 C 106.887 1.1063 -1.28286 0
M  V30 1133 O 108.093 1.05264 -1.46012 0
M  V30 1134 H 104.468 0.191602 -0.727181 0
M  V30 1135 H 106.439 -0.0965747 -2.98244 0
M  V30 1136 C 105.188 1.67803 -3.04528 0
M  V30 1137 H 104.511 1.24864 -3.79801 0
M  V30 1138 H 105.951 2.26526 -3.58416 0
M  V30 1139 C 104.41 2.60439 -2.13712 0
M  V30 1140 O 104.94 3.6255 -1.72975 0
M  V30 1141 N 103.146 2.29006 -1.78898 0
M  V30 1142 H 102.693 1.46011 -2.12223 0
M  V30 1143 H 102.651 2.91248 -1.18416 0
M  V30 1144 N 106.423 1.57458 -0.0668435 0
M  V30 1145 C 107.669 1.93587 0.6043 0
M  V30 1146 C 108.002 0.946722 1.69561 0
M  V30 1147 O 107.277 -0.0248516 1.94484 0
M  V30 1148 C 107.56 3.40014 1.18585 0
M  V30 1149 C 107.413 4.49685 0.101529 0
M  V30 1150 C 108.732 3.87154 2.09284 0
M  V30 1151 H 105.851 0.703958 0.218202 0
M  V30 1152 H 108.493 1.89542 -0.131804 0
M  V30 1153 H 106.643 3.43592 1.81319 0
M  V30 1154 H 108.315 4.5823 -0.531279 0
M  V30 1155 H 106.558 4.30059 -0.568487 0
M  V30 1156 H 107.229 5.49266 0.54874 0
M  V30 1157 H 109.705 3.85551 1.56491 0
M  V30 1158 H 108.581 4.90231 2.46911 0
M  V30 1159 H 108.842 3.2481 2.99918 0
M  V30 1160 N 107.901 -0.206675 1.56239 0
M  V30 1161 C 109.147 -0.930218 1.80208 0
M  V30 1162 C 109.48 -1.83387 0.638981 0
M  V30 1163 O 108.755 -1.91119 -0.361066 0
M  V30 1164 C 109.038 -1.75641 3.1436 0
M  V30 1165 C 108.891 -0.878257 4.41142 0
M  V30 1166 C 110.21 -2.73129 3.45092 0
M  V30 1167 H 107.329 -0.336742 0.655571 0
M  V30 1168 H 109.971 -0.198222 1.88963 0
M  V30 1169 H 108.121 -2.38048 3.07027 0
M  V30 1170 H 109.793 -0.269787 4.6051 0
M  V30 1171 H 108.036 -0.184385 4.33408 0
M  V30 1172 H 108.707 -1.49106 5.3148 0
M  V30 1173 H 111.183 -2.20856 3.52649 0
M  V30 1174 H 110.059 -3.28028 4.40101 0
M  V30 1175 H 110.32 -3.51606 2.68003 0
M  V30 1176 N 109.379 -1.50304 -0.473955 0
M  V30 1177 C 110.342 -1.6841 -1.55469 0
M  V30 1178 C 111.342 -0.554905 -1.50922 0
M  V30 1179 O 112.532 -0.821882 -1.53593 0
M  V30 1180 C 109.664 -1.70667 -2.95102 0
M  V30 1181 H 110.857 -2.64828 -1.40733 0
M  V30 1182 H 108.41 -1.39742 -0.700132 0
M  V30 1183 H 109.145 -0.75932 -3.15285 0
M  V30 1184 H 108.93 -2.52698 -2.9981 0
M  V30 1185 H 110.42 -1.8664 -3.73571 0
M  V30 1186 N 110.857 0.726932 -1.39834 0
M  V30 1187 C 112.087 1.51393 -1.40583 0
M  V30 1188 C 112.495 1.892 -0.000740625 0
M  V30 1189 O 111.838 1.55189 0.982951 0
M  V30 1190 C 111.9 2.82588 -2.22226 0
M  V30 1191 C 111.564 2.67169 -3.70769 0
M  V30 1192 C 112.561 2.3518 -4.63666 0
M  V30 1193 C 110.246 2.83788 -4.14451 0
M  V30 1194 C 112.24 2.20002 -5.98229 0
M  V30 1195 C 109.927 2.68229 -5.49087 0
M  V30 1196 C 110.925 2.36382 -6.4079 0
M  V30 1197 O 110.613 2.2093 -7.72946 0
M  V30 1198 H 110.345 0.474168 -0.48181 0
M  V30 1199 H 112.899 0.905247 -1.84376 0
M  V30 1200 H 111.129 3.45746 -1.73195 0
M  V30 1201 H 112.818 3.44247 -2.15055 0
M  V30 1202 H 113.584 2.21984 -4.31217 0
M  V30 1203 H 109.463 3.07566 -3.43401 0
M  V30 1204 H 113.007 1.95067 -6.69772 0
M  V30 1205 H 108.904 2.81006 -5.81125 0
M  V30 1206 H 109.672 2.35937 -7.83757 0
M  V30 1207 N 112.336 1.25143 0.95797 0
M  V30 1208 C 113.585 1.0909 1.69654 0
M  V30 1209 C 113.898 -0.368548 1.92097 0
M  V30 1210 O 115.104 -0.649455 2.63618 0
M  V30 1211 C 113.56 1.90395 3.05414 0
M  V30 1212 C 113.168 3.4081 2.90779 0
M  V30 1213 C 114.912 1.82901 3.83076 0
M  V30 1214 C 112.819 4.14423 4.21909 0
M  V30 1215 H 111.749 0.404625 0.636235 0
M  V30 1216 H 114.4 1.4931 1.06672 0
M  V30 1217 H 112.782 1.42996 3.69281 0
M  V30 1218 H 113.956 3.95859 2.35865 0
M  V30 1219 H 112.271 3.49361 2.26575 0
M  V30 1220 H 114.868 2.35196 4.80195 0
M  V30 1221 H 115.211 0.796224 4.08615 0
M  V30 1222 H 115.744 2.28033 3.25954 0
M  V30 1223 H 112.483 5.18102 4.01561 0
M  V30 1224 H 112.003 3.64159 4.76601 0
M  V30 1225 H 113.682 4.21956 4.90471 0
M  V30 1226 N 113.814 -1.1601 1.06675 0
M  V30 1227 C 115.062 -1.86264 0.784229 0
M  V30 1228 C 115.383 -1.82328 -0.691488 0
M  V30 1229 O 114.653 -1.25947 -1.50047 0
M  V30 1230 H 113.233 -0.689621 0.28711 0
M  V30 1231 H 115.895 -1.40664 1.34906 0
M  V30 1232 H 114.991 -2.91595 1.11259 0
M  V30 1233 N 115.292 -0.849877 -1.32721 0
M  V30 1234 C 116.517 -0.463856 -2.02146 0
M  V30 1235 C 116.942 0.930449 -1.63476 0
M  V30 1236 O 116.3 1.61033 -0.832952 0
M  V30 1237 C 116.348 -0.604955 -3.55489 0
M  V30 1238 O 115.452 0.36425 -4.10788 0
M  V30 1239 H 114.793 -0.187046 -0.637111 0
M  V30 1240 H 117.323 -1.14775 -1.69375 0
M  V30 1241 H 117.333 -0.490696 -4.05038 0
M  V30 1242 H 116.008 -1.62174 -3.82978 0
M  V30 1243 H 114.585 0.206628 -3.72327 0
M  V30 1244 N 116.77 1.45427 -0.607355 0
M  V30 1245 C 118 2.06314 -0.108656 0
M  V30 1246 C 118.408 1.45269 1.21217 0
M  V30 1247 O 117.751 0.561115 1.74921 0
M  V30 1248 C 117.813 3.59345 0.105618 0
M  V30 1249 C 117.477 4.42723 -1.13337 0
M  V30 1250 C 118.474 4.77715 -2.05145 0
M  V30 1251 C 116.159 4.83478 -1.36213 0
M  V30 1252 C 118.153 5.52317 -3.18158 0
M  V30 1253 C 115.84 5.57835 -2.49527 0
M  V30 1254 C 116.838 5.92171 -3.40327 0
M  V30 1255 O 116.526 6.65019 -4.51669 0
M  V30 1256 H 116.258 0.672782 -0.0658842 0
M  V30 1257 H 118.812 1.87664 -0.834945 0
M  V30 1258 H 117.042 3.76394 0.886796 0
M  V30 1259 H 118.731 4.02076 0.555886 0
M  V30 1260 H 119.497 4.46787 -1.88697 0
M  V30 1261 H 115.376 4.56188 -0.664362 0
M  V30 1262 H 118.92 5.79036 -3.89054 0
M  V30 1263 H 114.817 5.88177 -2.65928 0
M  V30 1264 H 115.585 6.83469 -4.50348 0
M  V30 1265 N 118.248 0.346503 1.53744 0
M  V30 1266 C 119.178 -0.501193 2.28058 0
M  V30 1267 C 120.159 -1.10014 1.29734 0
M  V30 1268 O 121.344 -1.12097 1.58581 0
M  V30 1269 C 118.474 -1.65078 3.05559 0
M  V30 1270 C 117.428 -1.18003 4.11411 0
M  V30 1271 C 116.754 -2.41837 4.76884 0
M  V30 1272 C 118.054 -0.278394 5.21558 0
M  V30 1273 H 119.748 0.11875 2.99164 0
M  V30 1274 H 117.294 0.0585531 1.43881 0
M  V30 1275 H 119.247 -2.25028 3.56287 0
M  V30 1276 H 117.971 -2.29767 2.32109 0
M  V30 1277 H 116.63 -0.603331 3.61601 0
M  V30 1278 H 116.278 -3.0494 4.00026 0
M  V30 1279 H 115.978 -2.1102 5.48402 0
M  V30 1280 H 117.502 -3.02508 5.30397 0
M  V30 1281 H 118.916 -0.784823 5.67903 0
M  V30 1282 H 117.313 -0.0619707 6.00068 0
M  V30 1283 H 118.383 0.684677 4.80042 0
M  V30 1284 N 119.726 -1.57421 0.075193 0
M  V30 1285 C 121.142 -1.57099 -0.281444 0
M  V30 1286 C 121.342 -1.08486 -1.69803 0
M  V30 1287 O 120.398 -0.752279 -2.41033 0
M  V30 1288 C 121.711 -3.00571 -0.0880041 0
M  V30 1289 C 123.259 -3.12605 -0.157281 0
M  V30 1290 C 123.734 -4.57999 0.0079207 0
M  V30 1291 N 125.225 -4.63176 -0.0475725 0
M  V30 1292 C 125.96 -5.73373 0.0557876 0
M  V30 1293 N 125.456 -6.92473 0.21286 0
M  V30 1294 N 127.249 -5.621 -0.00152098 0
M  V30 1295 H 119.4 -1.87335 1.00098 0
M  V30 1296 H 121.663 -0.86377 0.390646 0
M  V30 1297 H 121.369 -3.40262 0.889629 0
M  V30 1298 H 121.243 -3.67754 -0.838875 0
M  V30 1299 H 123.63 -2.72798 -1.1254 0
M  V30 1300 H 123.711 -2.48053 0.62475 0
M  V30 1301 H 123.355 -4.98496 0.972824 0
M  V30 1302 H 123.285 -5.20586 -0.793556 0
M  V30 1303 H 125.776 -3.7753 -0.167244 0
M  V30 1304 H 126.089 -7.72279 0.283781 0
M  V30 1305 H 124.434 -6.94556 0.248267 0
M  V30 1306 H 127.625 -4.67938 -0.122958 0
M  V30 1307 H 127.798 -6.47948 0.0824844 0
M  V30 1308 N 121.204 0.198386 -1.56346 0
M  V30 1309 C 122.152 1.26538 -1.95169 0
M  V30 1310 C 123.146 1.47295 -0.836685 0
M  V30 1311 O 124.352 1.48195 -1.02167 0
M  V30 1312 H 120.727 0.424744 -0.620561 0
M  V30 1313 H 122.698 0.910904 -2.84157 0
M  V30 1314 C 121.447 2.6035 -2.30463 0
M  V30 1315 H 120.77 2.45192 -3.15786 0
M  V30 1316 H 122.21 3.33762 -2.61494 0
M  V30 1317 C 120.669 3.17096 -1.13806 0
M  V30 1318 O 121.199 3.99588 -0.41135 0
M  V30 1319 N 119.405 2.75795 -0.915736 0
M  V30 1320 H 118.952 2.08816 -1.50843 0
M  V30 1321 H 118.91 3.14101 -0.136979 0
M  V30 1322 N 122.682 1.50554 0.465978 0
M  V30 1323 C 123.959 1.5232 1.22712 0
M  V30 1324 C 124.339 0.270807 2.09356 0
M  V30 1325 O 123.687 -0.745541 2.15995 0
M  V30 1326 C 123.897 2.82175 2.05374 0
M  V30 1327 C 125.245 3.33033 2.6339 0
M  V30 1328 O 126.269 2.83531 2.15612 0
M  V30 1329 O 125.128 4.19336 3.50456 0
M  V30 1330 H 122.222 0.611183 0.557122 0
M  V30 1331 H 124.768 1.62847 0.477381 0
M  V30 1332 H 123.54 3.64797 1.41558 0
M  V30 1333 H 123.163 2.74675 2.87471 0
M  V30 1334 N 124.16 -0.719506 1.40217 0
M  V30 1335 C 125.576 -1.02707 1.22161 0
M  V30 1336 C 125.776 -2.0128 0.0940557 0
M  V30 1337 O 124.832 -2.46452 -0.549318 0
M  V30 1338 C 126.145 -1.57454 2.56181 0
M  V30 1339 C 127.693 -1.69458 2.63159 0
M  V30 1340 C 128.168 -2.27611 3.97438 0
M  V30 1341 N 129.659 -2.35002 3.99159 0
M  V30 1342 C 130.394 -2.80972 4.99842 0
M  V30 1343 N 129.89 -3.26723 6.10921 0
M  V30 1344 N 131.683 -2.80321 4.87213 0
M  V30 1345 H 123.834 -0.0660492 2.12297 0
M  V30 1346 H 126.097 -0.0919077 0.943534 0
M  V30 1347 H 125.803 -0.924873 3.39321 0
M  V30 1348 H 125.677 -2.56036 2.76993 0
M  V30 1349 H 128.064 -2.33543 1.80393 0
M  V30 1350 H 128.145 -0.694867 2.46181 0
M  V30 1351 H 127.789 -1.6415 4.80643 0
M  V30 1352 H 127.719 -3.2829 4.11744 0
M  V30 1353 H 130.21 -2.02685 3.18947 0
M  V30 1354 H 130.523 -3.60355 6.8364 0
M  V30 1355 H 128.868 -3.24692 6.14492 0
M  V30 1356 H 132.059 -2.43912 3.9953 0
M  V30 1357 H 132.232 -3.15831 5.65822 0
M  V30 1358 N 125.638 -1.25649 -0.95132 0
M  V30 1359 C 126.568 -1.08808 -2.06599 0
M  V30 1360 C 127.549 0.00382547 -1.701 0
M  V30 1361 O 128.734 -0.166325 -1.93486 0
M  V30 1362 C 125.864 -0.709542 -3.39975 0
M  V30 1363 C 124.818 -1.75206 -3.90496 0
M  V30 1364 C 124.144 -1.22811 -5.20405 0
M  V30 1365 C 125.444 -3.15153 -4.16504 0
M  V30 1366 H 127.138 -2.02048 -2.20946 0
M  V30 1367 H 124.684 -0.972835 -1.06169 0
M  V30 1368 H 126.637 -0.578649 -4.17408 0
M  V30 1369 H 125.361 0.258556 -3.25575 0
M  V30 1370 H 124.02 -1.87145 -3.15234 0
M  V30 1371 H 123.668 -0.250145 -5.02378 0
M  V30 1372 H 123.368 -1.92492 -5.55176 0
M  V30 1373 H 124.892 -1.10968 -6.00432 0
M  V30 1374 H 126.306 -3.06349 -4.84586 0
M  V30 1375 H 124.703 -3.82333 -4.62538 0
M  V30 1376 H 125.773 -3.61966 -3.22658 0
M  V30 1377 N 127.117 1.15442 -1.07289 0
M  V30 1378 C 128.363 1.8672 -0.806679 0
M  V30 1379 C 128.718 1.80723 0.660084 0
M  V30 1380 O 128.011 1.21902 1.47819 0
M  V30 1381 C 128.205 3.3489 -1.24834 0
M  V30 1382 C 128.034 3.55313 -2.7565 0
M  V30 1383 C 126.804 3.7082 -3.4325 0
M  V30 1384 C 129.002 3.53188 -3.73848 0
M  V30 1385 N 126.984 3.7929 -4.82713 0
M  V30 1386 C 128.355 3.67765 -4.99149 0
M  V30 1387 C 130.41 3.36459 -3.67015 0
M  V30 1388 C 129.113 3.6734 -6.18428 0
M  V30 1389 C 131.139 3.37333 -4.85758 0
M  V30 1390 C 130.501 3.52438 -6.09891 0
M  V30 1391 H 126.6 0.700433 -0.347733 0
M  V30 1392 H 129.184 1.38441 -1.36902 0
M  V30 1393 H 127.355 3.81786 -0.713713 0
M  V30 1394 H 129.087 3.93875 -0.929745 0
M  V30 1395 H 125.842 3.71568 -2.93656 0
M  V30 1396 H 126.266 3.8727 -5.55294 0
M  V30 1397 H 130.908 3.237 -2.71989 0
M  V30 1398 H 128.626 3.78878 -7.13777 0
M  V30 1399 H 132.212 3.25617 -4.82146 0
M  V30 1400 H 131.092 3.53047 -7.00234 0
M  V30 1401 N 128.595 0.856903 1.32268 0
M  V30 1402 C 129.844 0.457599 1.96441 0
M  V30 1403 C 130.157 -0.992426 1.68553 0
M  V30 1404 O 131.363 -1.49727 2.26482 0
M  V30 1405 C 129.819 0.767358 3.51624 0
M  V30 1406 C 129.427 2.23326 3.88367 0
M  V30 1407 C 131.171 0.435887 4.22256 0
M  V30 1408 C 129.078 2.48613 5.36606 0
M  V30 1409 H 128.008 0.167387 0.735185 0
M  V30 1410 H 130.659 1.048 1.5063 0
M  V30 1411 H 129.041 0.106367 3.95857 0
M  V30 1412 H 130.215 2.93623 3.55137 0
M  V30 1413 H 128.53 2.52948 3.30766 0
M  V30 1414 H 131.127 0.602202 5.31298 0
M  V30 1415 H 131.47 -0.622672 4.11617 0
M  V30 1416 H 132.003 1.05286 3.83614 0
M  V30 1417 H 128.742 3.53101 5.52268 0
M  V30 1418 H 128.262 1.82896 5.71235 0
M  V30 1419 H 129.941 2.32676 6.03714 0
M  V30 1420 N 130.073 -1.45103 0.615059 0
M  V30 1421 C 131.313 -2.04069 0.116282 0
M  V30 1422 C 131.677 -1.4721 -1.2326 0
M  V30 1423 O 132.878 -1.97577 -1.82255 0
M  V30 1424 C 131.149 -3.57298 0.085482 0
M  V30 1425 S 132.708 -4.37394 -0.351015 0
M  V30 1426 H 129.526 -0.709006 0.0532183 0
M  V30 1427 H 132.128 -1.77709 0.81484 0
M  V30 1428 H 130.832 -3.9619 1.0706 0
M  V30 1429 H 130.363 -3.88244 -0.634835 0
M  V30 1430 H 132.378 -4.69734 -1.59889 0
M  V30 1431 N 131.551 -0.354651 -1.53558 0
M  V30 1432 C 132.484 0.540273 -2.21712 0
M  V30 1433 C 133.462 1.09161 -1.2051 0
M  V30 1434 O 134.646 1.14979 -1.49372 0
M  V30 1435 C 131.773 1.74435 -2.90328 0
M  V30 1436 C 130.819 1.32146 -4.05512 0
M  V30 1437 S 131.652 0.331924 -5.3447 0
M  V30 1438 C 132.808 1.54258 -6.06593 0
M  V30 1439 H 133.041 -0.0385776 -2.97275 0
M  V30 1440 H 130.574 -0.138736 -1.53775 0
M  V30 1441 H 132.532 2.43507 -3.30476 0
M  V30 1442 H 131.193 2.29444 -2.1451 0
M  V30 1443 H 130.386 2.21952 -4.52497 0
M  V30 1444 H 129.988 0.710091 -3.67197 0
M  V30 1445 H 132.28 2.47534 -6.30661 0
M  V30 1446 H 133.223 1.11431 -6.99277 0
M  V30 1447 H 133.631 1.74367 -5.36895 0
M  V30 1448 N 133.029 1.57378 -0.0835403 0
M  V30 1449 C 133.939 2.16897 0.894021 0
M  V30 1450 C 134.955 1.13528 1.31861 0
M  V30 1451 O 136.131 1.45848 1.3889 0
M  V30 1452 C 133.196 2.72831 2.13925 0
M  V30 1453 C 132.257 3.91115 1.76997 0
M  V30 1454 C 131.49 4.44371 2.95584 0
M  V30 1455 O 131.713 3.96596 4.09961 0
M  V30 1456 O 130.647 5.35549 2.74719 0
M  V30 1457 H 134.473 3.00814 0.417679 0
M  V30 1458 H 132.058 1.48741 0.140181 0
M  V30 1459 H 133.94 3.0863 2.86924 0
M  V30 1460 H 132.615 1.91967 2.60635 0
M  V30 1461 H 131.522 3.60148 1.01214 0
M  V30 1462 H 132.855 4.73307 1.3506 0
M  V30 1463 N 134.507 -0.190092 1.56449 0
M  V30 1464 C 135.754 -0.909705 1.80916 0
M  V30 1465 C 136.082 -1.83047 0.657583 0
M  V30 1466 O 135.337 -1.92428 -0.356356 0
M  V30 1467 C 135.636 -1.75382 3.1141 0
M  V30 1468 C 135.302 -0.983606 4.40041 0
M  V30 1469 C 133.964 -0.770967 4.74984 0
M  V30 1470 C 136.316 -0.442024 5.19322 0
M  V30 1471 C 133.644 -0.0053448 5.867 0
M  V30 1472 C 135.996 0.310412 6.31838 0
M  V30 1473 C 134.66 0.534023 6.6536 0
M  V30 1474 H 133.93 -0.332885 0.662019 0
M  V30 1475 H 136.577 -0.175762 1.90692 0
M  V30 1476 H 134.882 -2.55659 2.96893 0
M  V30 1477 H 136.579 -2.31331 3.27547 0
M  V30 1478 H 133.169 -1.15936 4.12622 0
M  V30 1479 H 137.353 -0.593693 4.92736 0
M  V30 1480 H 132.609 0.177825 6.11141 0
M  V30 1481 H 136.783 0.737419 6.92485 0
M  V30 1482 H 134.41 1.12918 7.51767 0
M  V30 1483 N 135.985 -1.50799 -0.457987 0
M  V30 1484 C 137.225 -1.64088 -1.21879 0
M  V30 1485 C 137.589 -0.339848 -1.88968 0
M  V30 1486 O 138.79 -0.348301 -2.66534 0
M  V30 1487 C 137.061 -2.79726 -2.2246 0
M  V30 1488 S 138.62 -3.13225 -3.07303 0
M  V30 1489 H 135.438 -0.578314 -0.41361 0
M  V30 1490 H 138.04 -1.88632 -0.513645 0
M  V30 1491 H 136.744 -3.72722 -1.71775 0
M  V30 1492 H 136.275 -2.57308 -2.97584 0
M  V30 1493 H 138.29 -2.58062 -4.23814 0
M  V30 1494 N 137.463 0.71206 -1.40597 0
M  V30 1495 C 138.711 1.46907 -1.38791 0
M  V30 1496 C 139.032 1.94998 0.00780391 0
M  V30 1497 O 138.302 1.70587 0.963174 0
M  V30 1498 H 136.882 0.545043 -0.51082 0
M  V30 1499 H 139.544 0.843882 -1.75683 0
M  V30 1500 H 138.64 2.34021 -2.06496 0
M  V30 1501 N 138.941 1.26152 0.944643 0
M  V30 1502 C 140.189 1.11271 1.6871 0
M  V30 1503 C 140.51 -0.345166 1.91921 0
M  V30 1504 O 139.78 -1.24387 1.51343 0
M  V30 1505 H 138.36 0.408783 0.625224 0
M  V30 1506 H 141.022 1.58427 1.1352 0
M  V30 1507 H 140.118 1.62879 2.66227 0
M  V30 1508 N 140.419 -1.14872 1.07899 0
M  V30 1509 C 141.667 -1.85422 0.803941 0
M  V30 1510 C 141.988 -1.83051 -0.67211 0
M  V30 1511 O 141.258 -1.27532 -1.48703 0
M  V30 1512 H 139.838 -0.686537 0.294408 0
M  V30 1513 H 142.5 -1.39226 1.3639 0
M  V30 1514 H 141.596 -2.90399 1.14346 0
M  V30 1515 N 141.898 -0.863906 -1.31812 0
M  V30 1516 C 143.123 -0.48527 -2.01643 0
M  V30 1517 C 143.548 0.913058 -1.64453 0
M  V30 1518 O 142.906 1.6014 -0.849985 0
M  V30 1519 C 142.954 -0.642625 -3.54828 0
M  V30 1520 O 142.058 0.320659 -4.11151 0
M  V30 1521 H 141.399 -0.193793 -0.635091 0
M  V30 1522 H 143.929 -1.16565 -1.68148 0
M  V30 1523 H 143.939 -0.533628 -4.04495 0
M  V30 1524 H 142.614 -1.66227 -3.81237 0
M  V30 1525 H 141.191 0.167126 -3.72525 0
M  V30 1526 N 143.376 1.44774 -0.622745 0
M  V30 1527 C 144.306 2.33382 0.0741861 0
M  V30 1528 C 145.287 1.47719 0.843387 0
M  V30 1529 O 146.472 1.76458 0.810934 0
M  V30 1530 C 143.602 3.30663 1.06204 0
M  V30 1531 C 142.556 4.26079 0.405037 0
M  V30 1532 C 141.882 5.13165 1.5022 0
M  V30 1533 C 143.182 5.1781 -0.683414 0
M  V30 1534 H 144.876 2.91905 -0.665713 0
M  V30 1535 H 142.422 1.40363 -0.321587 0
M  V30 1536 H 144.375 3.9153 1.55827 0
M  V30 1537 H 143.099 2.70331 1.83272 0
M  V30 1538 H 141.758 3.66532 -0.0704683 0
M  V30 1539 H 141.406 4.49191 2.26355 0
M  V30 1540 H 141.106 5.77812 1.06803 0
M  V30 1541 H 142.63 5.76902 2.00041 0
M  V30 1542 H 144.044 5.72661 -0.270631 0
M  V30 1543 H 142.441 5.91015 -1.04023 0
M  V30 1544 H 143.511 4.59326 -1.55395 0
M  V30 1545 N 144.854 0.36279 1.53368 0
M  V30 1546 C 145.786 -0.519668 2.23231 0
M  V30 1547 C 146.799 -1.04844 1.24546 0
M  V30 1548 O 147.988 -0.955296 1.50786 0
M  V30 1549 C 145.088 -1.72995 2.9142 0
M  V30 1550 C 144.261 -1.33316 4.16588 0
M  V30 1551 C 143.32 -2.40521 4.68013 0
M  V30 1552 O 142.346 -2.03027 5.3176 0
M  V30 1553 N 143.548 -3.72065 4.45587 0
M  V30 1554 H 146.313 0.078751 2.99597 0
M  V30 1555 H 143.874 0.187833 1.60807 0
M  V30 1556 H 145.866 -2.44184 3.22733 0
M  V30 1557 H 144.436 -2.2353 2.18525 0
M  V30 1558 H 143.656 -0.451236 3.91609 0
M  V30 1559 H 144.944 -1.04432 4.97967 0
M  V30 1560 H 144.342 -4.05304 3.94646 0
M  V30 1561 H 142.899 -4.39366 4.81457 0
M  V30 1562 N 146.332 -1.57332 0.0918853 0
M  V30 1563 C 147.242 -2.17368 -0.882505 0
M  V30 1564 C 148.258 -1.14226 -1.31257 0
M  V30 1565 O 149.434 -1.46582 -1.38115 0
M  V30 1566 C 146.499 -2.73962 -2.12476 0
M  V30 1567 C 145.56 -3.92048 -1.7492 0
M  V30 1568 C 144.793 -4.45933 -2.93223 0
M  V30 1569 O 145.016 -3.98764 -4.07852 0
M  V30 1570 O 143.95 -5.36999 -2.71875 0
M  V30 1571 H 147.776 -3.01031 -0.40172 0
M  V30 1572 H 145.361 -1.48813 -0.132291 0
M  V30 1573 H 147.243 -3.10147 -2.85283 0
M  V30 1574 H 145.918 -1.93347 -2.59613 0
M  V30 1575 H 144.825 -3.6068 -0.993025 0
M  V30 1576 H 146.158 -4.74017 -1.32548 0
M  V30 1577 N 147.81 0.181792 -1.56548 0
M  V30 1578 C 149.059 0.898348 -1.8059 0
M  V30 1579 C 149.372 1.83862 -0.667379 0
M  V30 1580 O 150.578 2.59678 -0.792446 0
M  V30 1581 C 149.034 1.64791 -3.19956 0
M  V30 1582 C 148.642 0.751789 -4.41647 0
M  V30 1583 C 150.386 2.35331 -3.53298 0
M  V30 1584 C 148.293 1.50098 -5.72035 0
M  V30 1585 H 147.223 0.339194 -0.673397 0
M  V30 1586 H 149.874 0.151413 -1.82874 0
M  V30 1587 H 148.256 2.43921 -3.11959 0
M  V30 1588 H 149.43 -0.0018076 -4.608 0
M  V30 1589 H 147.745 0.156562 -4.16106 0
M  V30 1590 H 150.342 2.91958 -4.47956 0
M  V30 1591 H 150.685 3.10164 -2.77676 0
M  V30 1592 H 151.218 1.63154 -3.62803 0
M  V30 1593 H 147.957 0.795175 -6.50659 0
M  V30 1594 H 147.477 2.22817 -5.56878 0
M  V30 1595 H 149.156 2.05125 -6.13622 0
M  V30 1596 N 149.288 1.51039 0.449983 0
M  V30 1597 C 150.518 1.66627 1.22143 0
M  V30 1598 C 150.926 0.357776 1.85786 0
M  V30 1599 O 150.269 -0.672424 1.70951 0
M  V30 1600 C 150.331 2.71562 2.35573 0
M  V30 1601 C 149.995 4.14526 1.92399 0
M  V30 1602 C 150.992 4.99717 1.43453 0
M  V30 1603 C 148.677 4.60559 2.00475 0
M  V30 1604 C 150.671 6.28998 1.03155 0
M  V30 1605 C 148.358 5.8984 1.59788 0
M  V30 1606 C 149.356 6.73886 1.11208 0
M  V30 1607 O 149.044 8.0075 0.710935 0
M  V30 1608 H 148.776 0.562635 0.374724 0
M  V30 1609 H 151.33 1.98146 0.541036 0
M  V30 1610 H 149.56 2.3533 3.06849 0
M  V30 1611 H 151.249 2.76156 2.97478 0
M  V30 1612 H 152.015 4.65361 1.36618 0
M  V30 1613 H 147.894 3.95273 2.37235 0
M  V30 1614 H 151.438 6.9455 0.651663 0
M  V30 1615 H 147.335 6.23713 1.66289 0
M  V30 1616 H 148.103 8.142 0.837913 0
M  V30 1617 N 150.766 -0.704594 1.40972 0
M  V30 1618 C 151.716 -1.81051 1.38581 0
M  V30 1619 C 152.7 -1.58759 0.261585 0
M  V30 1620 O 153.892 -1.69745 0.501556 0
M  V30 1621 C 151.021 -3.19279 1.26157 0
M  V30 1622 C 150.107 -3.47296 2.43405 0
M  V30 1623 N 150.498 -3.46064 3.68881 0
M  V30 1624 C 148.796 -3.77804 2.37023 0
M  V30 1625 C 149.497 -3.72733 4.46592 0
M  V30 1626 N 148.473 -3.9203 3.76581 0
M  V30 1627 H 152.275 -1.78448 2.33525 0
M  V30 1628 H 149.789 -0.904198 1.349 0
M  V30 1629 H 151.786 -3.98488 1.22526 0
M  V30 1630 H 150.446 -3.231 0.321902 0
M  V30 1631 H 151.457 -3.26656 4.01891 0
M  V30 1632 H 148.134 -3.8905 1.51481 0
M  V30 1633 H 149.524 -3.77993 5.55492 0
M  V30 1634 N 152.244 -1.26651 -0.937939 0
M  V30 1635 C 153.207 -1.08546 -2.01867 0
M  V30 1636 C 154.207 -0.0327327 -1.60767 0
M  V30 1637 O 155.397 -0.276427 -1.71993 0
M  V30 1638 C 152.529 -0.651711 -3.34613 0
M  V30 1639 H 153.722 -2.04502 -2.1936 0
M  V30 1640 H 151.275 -1.09294 -1.11734 0
M  V30 1641 H 152.01 0.309696 -3.22818 0
M  V30 1642 H 151.795 -1.41189 -3.65798 0
M  V30 1643 H 153.285 -0.546973 -4.14002 0
M  V30 1644 N 153.722 1.14298 -1.08507 0
M  V30 1645 C 154.95 1.89219 -0.836876 0
M  V30 1646 C 155.365 1.78638 0.611054 0
M  V30 1647 O 154.722 1.14643 1.41998 0
M  V30 1648 C 154.773 3.39158 -1.25116 0
M  V30 1649 O 154.494 3.49449 -2.64229 0
M  V30 1650 C 155.995 4.31073 -1.03398 0
M  V30 1651 H 153.215 0.599328 -0.301739 0
M  V30 1652 H 155.759 1.44746 -1.44461 0
M  V30 1653 H 153.914 3.81251 -0.687514 0
M  V30 1654 H 154.328 4.42589 -2.81452 0
M  V30 1655 H 155.802 5.34646 -1.37323 0
M  V30 1656 H 156.279 4.3919 0.0289259 0
M  V30 1657 H 156.885 3.94738 -1.58311 0
M  V30 1658 N 155.201 0.870884 1.31352 0
M  V30 1659 C 156.449 0.48132 1.96285 0
M  V30 1660 C 156.77 -0.969813 1.69173 0
M  V30 1661 O 156.04 -1.67998 1.00764 0
M  V30 1662 H 154.62 0.175002 0.726212 0
M  V30 1663 H 157.282 1.11087 1.60143 0
M  V30 1664 H 156.378 0.639825 3.05471 0
M  V30 1665 N 156.679 -1.44442 0.630414 0
M  V30 1666 C 158.09 -1.85434 0.217063 0
M  V30 1667 C 158.441 -1.52748 -1.23136 0
M  V30 1668 O 157.566 -0.965205 -1.93682 0
M  V30 1669 C 158.161 -3.36581 0.387168 0
M  V30 1670 C 156.72 -3.76389 0.0283297 0
M  V30 1671 C 155.867 -2.68296 0.700889 0
M  V30 1672 H 158.818 -1.34919 0.83562 0
M  V30 1673 H 158.839 -3.78657 -0.374086 0
M  V30 1674 H 158.351 -3.60339 1.44144 0
M  V30 1675 H 156.452 -3.58246 -1.02423 0
M  V30 1676 H 156.565 -4.77095 0.437892 0
M  V30 1677 H 154.929 -2.54335 0.136267 0
M  V30 1678 H 155.712 -2.94887 1.75774 0
M  V30 1679 N 158.157 -0.370918 -1.53173 0
M  V30 1680 C 159.087 0.464847 -2.28826 0
M  V30 1681 C 160.068 1.07936 -1.31468 0
M  V30 1682 O 161.253 1.0956 -1.60344 0
M  V30 1683 C 158.383 1.60196 -3.08147 0
M  V30 1684 C 157.337 1.11443 -4.13237 0
M  V30 1685 C 156.663 2.3422 -4.80672 0
M  V30 1686 C 157.963 0.195384 -5.21934 0
M  V30 1687 H 159.657 -0.166329 -2.98938 0
M  V30 1688 H 157.203 -0.0814359 -1.4377 0
M  V30 1689 H 159.156 2.19332 -3.59822 0
M  V30 1690 H 157.88 2.26045 -2.35735 0
M  V30 1691 H 156.539 0.545727 -3.62515 0
M  V30 1692 H 156.187 2.98537 -4.04827 0
M  V30 1693 H 155.887 2.02269 -5.51689 0
M  V30 1694 H 157.411 2.94032 -5.35143 0
M  V30 1695 H 158.825 0.694375 -5.69079 0
M  V30 1696 H 157.222 -0.0335027 -6.00091 0
M  V30 1697 H 158.292 -0.760961 -4.78892 0
M  V30 1698 N 159.635 1.57281 -0.100228 0
M  V30 1699 C 160.545 2.17833 0.870965 0
M  V30 1700 C 161.561 1.14921 1.30649 0
M  V30 1701 O 162.737 1.47313 1.37335 0
M  V30 1702 C 159.802 2.75085 2.1102 0
M  V30 1703 C 158.863 3.9297 1.72838 0
M  V30 1704 C 158.096 4.47482 2.90854 0
M  V30 1705 O 158.319 4.00922 4.05731 0
M  V30 1706 O 157.253 5.38433 2.69023 0
M  V30 1707 H 161.079 3.0124 0.38575 0
M  V30 1708 H 158.664 1.48881 0.124397 0
M  V30 1709 H 160.546 3.11656 2.83634 0
M  V30 1710 H 159.221 1.94721 2.58584 0
M  V30 1711 H 158.128 3.61201 0.973883 0
M  V30 1712 H 159.461 4.74713 1.30033 0
M  V30 1713 N 161.113 -0.173488 1.56642 0
M  V30 1714 C 162.023 -1.23482 1.99473 0
M  V30 1715 C 163.039 -1.48567 0.905752 0
M  V30 1716 O 164.215 -1.60758 1.21321 0
M  V30 1717 C 161.28 -2.55444 2.34413 0
M  V30 1718 C 160.341 -2.38241 3.57127 0
M  V30 1719 C 159.574 -3.63909 3.90392 0
M  V30 1720 O 159.797 -4.68996 3.24653 0
M  V30 1721 O 158.731 -3.58149 4.83749 0
M  V30 1722 H 162.557 -0.901279 2.90018 0
M  V30 1723 H 160.142 -0.380185 1.44482 0
M  V30 1724 H 162.024 -3.33292 2.57865 0
M  V30 1725 H 160.699 -2.88382 1.4703 0
M  V30 1726 H 159.606 -1.58431 3.38896 0
M  V30 1727 H 160.939 -2.10228 4.45045 0
M  V30 1728 N 162.591 -1.51276 -0.441967 0
M  V30 1729 C 164.007 -1.39349 -0.778083 0
M  V30 1730 C 164.207 -0.472212 -1.95889 0
M  V30 1731 O 163.263 0.0743551 -2.5239 0
M  V30 1732 C 164.576 -2.81292 -1.0628 0
M  V30 1733 C 166.124 -2.9041 -1.16751 0
M  V30 1734 C 166.599 -4.33251 -1.48519 0
M  V30 1735 N 168.09 -4.36336 -1.55453 0
M  V30 1736 C 168.825 -5.43885 -1.81596 0
M  V30 1737 N 168.321 -6.61601 -2.05562 0
M  V30 1738 N 170.114 -5.3136 -1.8334 0
M  V30 1739 H 162.265 -2.09729 0.335774 0
M  V30 1740 H 164.528 -0.943925 0.0878028 0
M  V30 1741 H 164.234 -3.50678 -0.267905 0
M  V30 1742 H 164.108 -3.20334 -1.99163 0
M  V30 1743 H 166.495 -2.21225 -1.95304 0
M  V30 1744 H 166.576 -2.54871 -0.217801 0
M  V30 1745 H 166.22 -5.02984 -0.704958 0
M  V30 1746 H 166.15 -4.66299 -2.44689 0
M  V30 1747 H 168.641 -3.51466 -1.38853 0
M  V30 1748 H 168.954 -7.39361 -2.24867 0
M  V30 1749 H 167.299 -6.64725 -2.02894 0
M  V30 1750 H 170.49 -4.38382 -1.64132 0
M  V30 1751 H 170.663 -6.15258 -2.03377 0
M  V30 1752 N 164.069 0.697108 -1.41344 0
M  V30 1753 C 165.001 1.8224 -1.39001 0
M  V30 1754 C 166.014 1.60152 -0.292428 0
M  V30 1755 O 167.203 1.69684 -0.554048 0
M  V30 1756 C 164.303 3.18976 -1.14489 0
M  V30 1757 C 163.476 3.68105 -2.36258 0
M  V30 1758 C 162.535 4.83506 -2.07625 0
M  V30 1759 O 161.561 4.95201 -2.8065 0
M  V30 1760 N 162.763 5.70637 -1.06555 0
M  V30 1761 H 165.528 1.84742 -2.35988 0
M  V30 1762 H 163.089 0.87937 -1.35936 0
M  V30 1763 H 165.081 3.93801 -0.932885 0
M  V30 1764 H 163.651 3.11508 -0.261043 0
M  V30 1765 H 162.871 2.84204 -2.7317 0
M  V30 1766 H 164.159 3.97667 -3.17393 0
M  V30 1767 H 163.557 5.63817 -0.461125 0
M  V30 1768 H 162.114 6.45368 -0.913444 0
M  V30 1769 N 165.547 1.27147 0.931209 0
M  V30 1770 C 166.796 1.12664 1.67302 0
M  V30 1771 C 167.109 -0.327718 1.92835 0
M  V30 1772 O 168.315 -0.593392 2.64936 0
M  V30 1773 C 166.771 1.9683 3.01307 0
M  V30 1774 C 166.379 3.46901 2.83485 0
M  V30 1775 C 168.123 1.90985 3.79111 0
M  V30 1776 C 166.03 4.23279 4.13024 0
M  V30 1777 H 164.96 0.41803 0.627509 0
M  V30 1778 H 167.611 1.51539 1.03481 0
M  V30 1779 H 165.993 1.50797 3.66164 0
M  V30 1780 H 167.167 4.00773 2.27415 0
M  V30 1781 H 165.482 3.54088 2.19113 0
M  V30 1782 H 168.079 2.45328 4.75098 0
M  V30 1783 H 168.422 0.882718 4.06834 0
M  V30 1784 H 168.955 2.34895 3.21044 0
M  V30 1785 H 165.694 5.26503 3.90481 0
M  V30 1786 H 165.214 3.74186 4.6877 0
M  V30 1787 H 166.893 4.32265 4.81411 0
M  V30 1788 N 167.025 -1.13721 1.09112 0
M  V30 1789 C 167.988 -2.17222 0.731241 0
M  V30 1790 C 168.988 -1.59035 -0.237566 0
M  V30 1791 O 170.178 -1.74192 -0.0161704 0
M  V30 1792 C 167.31 -3.40804 0.0808443 0
M  V30 1793 H 168.503 -2.50573 1.64783 0
M  V30 1794 H 166.056 -1.28493 0.889897 0
M  V30 1795 H 166.791 -3.1304 -0.847127 0
M  V30 1796 H 166.576 -3.84306 0.777896 0
M  V30 1797 H 168.066 -4.1731 -0.155657 0
M  V30 1798 N 168.503 -0.877838 -1.30888 0
M  V30 1799 C 169.733 -0.506678 -2.00291 0
M  V30 1800 C 170.141 0.907449 -1.66018 0
M  V30 1801 O 169.484 1.60719 -0.88967 0
M  V30 1802 C 169.546 -0.59323 -3.54572 0
M  V30 1803 C 169.21 -1.97038 -4.12341 0
M  V30 1804 C 170.207 -2.93889 -4.28865 0
M  V30 1805 C 167.892 -2.27383 -4.47886 0
M  V30 1806 C 169.886 -4.19224 -4.80136 0
M  V30 1807 C 167.573 -3.52965 -4.98857 0
M  V30 1808 C 168.571 -4.48701 -5.14934 0
M  V30 1809 O 168.259 -5.72056 -5.64808 0
M  V30 1810 H 167.991 -0.1951 -0.647234 0
M  V30 1811 H 170.545 -1.18301 -1.6791 0
M  V30 1812 H 168.775 0.140057 -3.86446 0
M  V30 1813 H 170.464 -0.234372 -4.05223 0
M  V30 1814 H 171.23 -2.71756 -4.01714 0
M  V30 1815 H 167.109 -1.53639 -4.34645 0
M  V30 1816 H 170.653 -4.93956 -4.92599 0
M  V30 1817 H 166.55 -3.74939 -5.25443 0
M  V30 1818 H 167.318 -5.74337 -5.83163 0
M  V30 1819 N 169.982 1.44106 -0.638065 0
M  V30 1820 C 171.228 2.02277 -0.145546 0
M  V30 1821 C 171.561 1.50125 1.23191 0
M  V30 1822 O 170.836 0.688133 1.8192 0
M  V30 1823 C 171.119 3.59829 -0.139791 0
M  V30 1824 C 170.972 4.22247 -1.55008 0
M  V30 1825 C 172.291 4.36873 0.531966 0
M  V30 1826 H 169.41 0.734992 -0.0543632 0
M  V30 1827 H 172.052 1.71592 -0.815863 0
M  V30 1828 H 170.202 3.86102 0.431007 0
M  V30 1829 H 171.874 4.07057 -2.1703 0
M  V30 1830 H 170.117 3.79476 -2.10191 0
M  V30 1831 H 170.788 5.31284 -1.49804 0
M  V30 1832 H 173.264 4.16074 0.0464781 0
M  V30 1833 H 172.14 5.4657 0.505206 0
M  V30 1834 H 172.401 4.11995 1.60352 0
M  V30 1835 N 171.46 0.379036 1.52974 0
M  V30 1836 C 172.7 -0.206325 2.03356 0
M  V30 1837 C 173.064 -1.44892 1.25977 0
M  V30 1838 O 174.265 -2.11078 1.66432 0
M  V30 1839 C 172.536 -0.477887 3.54191 0
M  V30 1840 S 174.095 -1.035 4.26419 0
M  V30 1841 H 170.913 -0.0590259 0.708546 0
M  V30 1842 H 173.515 0.525013 1.88319 0
M  V30 1843 H 172.219 0.433745 4.08101 0
M  V30 1844 H 171.75 -1.23793 3.73415 0
M  V30 1845 H 173.765 -2.31821 4.38718 0
M  V30 1846 N 172.938 -1.57226 0.108567 0
M  V30 1847 C 174.354 -1.5766 -0.248058 0
M  V30 1848 C 174.554 -1.12063 -1.67464 0
M  V30 1849 O 173.61 -0.803236 -2.39383 0
M  V30 1850 C 174.923 -3.0069 -0.0242287 0
M  V30 1851 C 176.471 -3.12868 -0.0909372 0
M  V30 1852 C 176.946 -4.57879 0.105067 0
M  V30 1853 N 178.437 -4.63172 0.0506846 0
M  V30 1854 C 179.172 -5.73126 0.177396 0
M  V30 1855 N 178.668 -6.91866 0.359696 0
M  V30 1856 N 180.461 -5.61977 0.117709 0
M  V30 1857 H 172.612 -1.85169 1.04049 0
M  V30 1858 H 174.875 -0.85529 0.40888 0
M  V30 1859 H 174.581 -3.38299 0.961604 0
M  V30 1860 H 174.455 -3.6945 -0.76068 0
M  V30 1861 H 176.842 -2.75124 -1.06729 0
M  V30 1862 H 176.923 -2.46672 0.677225 0
M  V30 1863 H 176.567 -4.96321 1.07834 0
M  V30 1864 H 176.497 -5.22153 -0.682954 0
M  V30 1865 H 178.988 -3.778 -0.0871266 0
M  V30 1866 H 179.301 -7.71503 0.447529 0
M  V30 1867 H 177.646 -6.93874 0.395536 0
M  V30 1868 H 180.837 -4.68094 -0.0236741 0
M  V30 1869 H 181.01 -6.47627 0.219905 0
M  V30 1870 N 174.416 0.165178 -1.56732 0
M  V30 1871 C 175.326 1.22423 -2.00125 0
M  V30 1872 C 176.342 1.48084 -0.913619 0
M  V30 1873 O 177.518 1.60112 -1.22172 0
M  V30 1874 C 174.583 2.54197 -2.35764 0
M  V30 1875 C 173.644 2.36343 -3.58386 0
M  V30 1876 C 172.877 3.61834 -3.92316 0
M  V30 1877 O 173.1 4.67267 -3.27135 0
M  V30 1878 O 172.034 3.55579 -4.85641 0
M  V30 1879 H 175.86 0.885886 -2.90492 0
M  V30 1880 H 173.445 0.372518 -1.44681 0
M  V30 1881 H 175.327 3.3192 -2.59629 0
M  V30 1882 H 174.002 2.87598 -1.48557 0
M  V30 1883 H 172.909 1.56632 -3.39731 0
M  V30 1884 H 174.242 2.07865 -4.46154 0
M  V30 1885 N 175.894 1.51508 0.433938 0
M  V30 1886 C 176.857 1.72473 1.50949 0
M  V30 1887 C 177.857 0.594725 1.49398 0
M  V30 1888 O 179.047 0.862315 1.5136 0
M  V30 1889 C 176.179 1.78431 2.90474 0
M  V30 1890 H 177.372 2.68467 1.33662 0
M  V30 1891 H 174.925 1.41549 0.662836 0
M  V30 1892 H 175.66 0.842645 3.13161 0
M  V30 1893 H 175.445 2.60558 2.93005 0
M  V30 1894 H 176.935 1.96479 3.68491 0
M  V30 1895 N 177.372 -0.689602 1.41712 0
M  V30 1896 C 178.302 -1.81577 1.46806 0
M  V30 1897 C 179.283 -1.66945 0.326105 0
M  V30 1898 O 180.468 -1.86588 0.538377 0
M  V30 1899 C 177.598 -3.19762 1.35535 0
M  V30 1900 C 176.552 -3.49107 2.47605 0
M  V30 1901 C 175.878 -4.86711 2.21397 0
M  V30 1902 C 177.178 -3.47483 3.89939 0
M  V30 1903 H 178.872 -1.7757 2.41058 0
M  V30 1904 H 176.418 -0.852887 1.16025 0
M  V30 1905 H 178.371 -3.98263 1.3771 0
M  V30 1906 H 177.095 -3.24409 0.377708 0
M  V30 1907 H 175.754 -2.72959 2.44722 0
M  V30 1908 H 175.402 -4.8799 1.21961 0
M  V30 1909 H 175.102 -5.0731 2.96497 0
M  V30 1910 H 176.626 -5.67515 2.25297 0
M  V30 1911 H 178.04 -4.1598 3.94505 0
M  V30 1912 H 176.437 -3.79615 4.64771 0
M  V30 1913 H 177.507 -2.46341 4.17665 0
M  V30 1914 N 178.85 -1.27639 -0.924453 0
M  V30 1915 C 179.797 -1.10644 -2.0255 0
M  V30 1916 C 180.767 -0.00658438 -1.66099 0
M  V30 1917 O 181.952 -0.16952 -1.90045 0
M  V30 1918 C 179.092 -0.76309 -3.36557 0
M  V30 1919 C 178.205 -1.94091 -3.85944 0
M  V30 1920 C 177.34 -1.53914 -5.08413 0
M  V30 1921 C 176.379 -2.68425 -5.50104 0
M  V30 1922 N 175.516 -2.28815 -6.63768 0
M  V30 1923 H 180.356 -2.04858 -2.16419 0
M  V30 1924 H 177.893 -1.01974 -1.06017 0
M  V30 1925 H 179.851 -0.544822 -4.13627 0
M  V30 1926 H 178.481 0.142102 -3.22487 0
M  V30 1927 H 177.533 -2.27162 -3.05125 0
M  V30 1928 H 178.845 -2.7998 -4.12811 0
M  V30 1929 H 177.999 -1.28231 -5.92994 0
M  V30 1930 H 176.738 -0.651391 -4.8333 0
M  V30 1931 H 175.743 -2.94819 -4.64071 0
M  V30 1932 H 176.968 -3.57826 -5.7718 0
M  V30 1933 H 174.914 -1.42495 -6.40337 0
M  V30 1934 H 174.831 -3.08242 -6.90306 0
M  V30 1935 H 176.099 -2.06387 -7.51681 0
M  V30 1936 N 180.328 1.1314 -1.09713 0
M  V30 1937 C 181.576 1.84119 -0.833338 0
M  V30 1938 C 181.897 1.84097 0.642904 0
M  V30 1939 O 181.167 1.29881 1.46655 0
M  V30 1940 H 179.747 0.681766 -0.305293 0
M  V30 1941 H 182.409 1.37038 -1.38588 0
M  V30 1942 H 181.505 2.88543 -1.18951 0
M  V30 1943 N 181.806 0.884767 1.30421 0
M  V30 1944 C 182.736 0.367574 2.30589 0
M  V30 1945 C 183.717 -0.549464 1.60981 0
M  V30 1946 O 184.902 -0.46336 1.88591 0
M  V30 1947 C 182.032 -0.418944 3.44764 0
M  V30 1948 C 180.986 0.406316 4.26067 0
M  V30 1949 C 180.312 -0.506793 5.32293 0
M  V30 1950 C 181.612 1.64832 4.95608 0
M  V30 1951 H 183.306 1.20462 2.74097 0
M  V30 1952 H 180.852 0.580695 1.31772 0
M  V30 1953 H 182.805 -0.791395 4.13902 0
M  V30 1954 H 181.529 -1.28964 3.0006 0
M  V30 1955 H 180.188 0.760903 3.58617 0
M  V30 1956 H 179.836 -1.37519 4.83836 0
M  V30 1957 H 179.536 0.0415828 5.87585 0
M  V30 1958 H 181.06 -0.875764 6.04287 0
M  V30 1959 H 182.474 1.34646 5.57264 0
M  V30 1960 H 180.871 2.13688 5.60765 0
M  V30 1961 H 181.941 2.39284 4.21748 0
M  V30 1962 N 183.284 -1.43765 0.645699 0
M  V30 1963 C 184.234 -2.27884 -0.0726442 0
M  V30 1964 C 185.218 -1.39483 -0.802086 0
M  V30 1965 O 186.41 -1.63174 -0.685791 0
M  V30 1966 C 183.539 -3.27055 -1.04356 0
M  V30 1967 C 182.625 -4.22944 -0.312985 0
M  V30 1968 N 183.016 -5.01391 0.666386 0
M  V30 1969 C 181.314 -4.42528 -0.55546 0
M  V30 1970 C 182.015 -5.71217 1.09935 0
M  V30 1971 N 180.991 -5.41856 0.435137 0
M  V30 1972 H 184.793 -2.85949 0.678988 0
M  V30 1973 H 182.307 -1.55378 0.472368 0
M  V30 1974 H 184.304 -3.86089 -1.57292 0
M  V30 1975 H 182.964 -2.70551 -1.79534 0
M  V30 1976 H 183.975 -5.07252 1.04481 0
M  V30 1977 H 180.652 -3.97104 -1.28899 0
M  V30 1978 H 182.042 -6.44202 1.90929 0
M  V30 1979 N 184.763 -0.387143 -1.52771 0
M  V30 1980 C 185.713 0.465942 -2.23188 0
M  V30 1981 C 186.697 1.03138 -1.23496 0
M  V30 1982 O 187.889 0.957845 -1.48843 0
M  V30 1983 C 185.018 1.59384 -3.04059 0
M  V30 1984 C 184.104 1.04024 -4.11144 0
M  V30 1985 N 184.495 0.211416 -5.05358 0
M  V30 1986 C 182.793 1.31295 -4.26237 0
M  V30 1987 C 183.494 -0.0941698 -5.81624 0
M  V30 1988 N 182.47 0.509207 -5.4121 0
M  V30 1989 H 186.272 -0.173856 -2.93385 0
M  V30 1990 H 183.786 -0.19633 -1.61209 0
M  V30 1991 H 185.783 2.21738 -3.53041 0
M  V30 1992 H 184.443 2.23648 -2.35397 0
M  V30 1993 H 185.454 -0.151151 -5.17679 0
M  V30 1994 H 182.131 1.95679 -3.68803 0
M  V30 1995 H 183.521 -0.765572 -6.67524 0
M  V30 1996 N 186.241 1.57166 -0.116904 0
M  V30 1997 C 187.171 2.18222 0.830759 0
M  V30 1998 C 188.152 1.12167 1.27877 0
M  V30 1999 O 189.337 1.40394 1.34176 0
M  V30 2000 C 186.467 2.77996 2.08172 0
M  V30 2001 C 185.421 3.89614 1.77157 0
M  V30 2002 C 184.747 4.36187 3.09265 0
M  V30 2003 C 186.047 5.1181 1.04151 0
M  V30 2004 H 187.741 2.97664 0.321992 0
M  V30 2005 H 185.287 1.4318 0.153434 0
M  V30 2006 H 187.24 3.19366 2.74924 0
M  V30 2007 H 185.964 1.9584 2.6137 0
M  V30 2008 H 184.623 3.48816 1.12796 0
M  V30 2009 H 184.271 3.50893 3.60393 0
M  V30 2010 H 183.971 5.11455 2.89288 0
M  V30 2011 H 185.495 4.80207 3.77139 0
M  V30 2012 H 186.909 5.50214 1.61052 0
M  V30 2013 H 185.306 5.92648 0.942762 0
M  V30 2014 H 186.376 4.84892 0.0279022 0
M  V30 2015 N 187.719 -0.156864 1.56817 0
M  V30 2016 C 188.669 -1.19891 1.93934 0
M  V30 2017 C 189.653 -1.39061 0.809372 0
M  V30 2018 O 190.845 -1.40789 1.07273 0
M  V30 2019 C 187.974 -2.53493 2.31508 0
M  V30 2020 C 187.06 -2.37957 3.51052 0
M  V30 2021 N 187.451 -1.92158 4.67877 0
M  V30 2022 C 185.749 -2.68739 3.55943 0
M  V30 2023 C 186.45 -1.8943 5.49992 0
M  V30 2024 N 185.426 -2.32375 4.91429 0
M  V30 2025 H 189.228 -0.836746 2.81737 0
M  V30 2026 H 186.742 -0.365012 1.58245 0
M  V30 2027 H 188.739 -3.28811 2.56299 0
M  V30 2028 H 187.399 -2.905 1.45051 0
M  V30 2029 H 188.41 -1.62274 4.91821 0
M  V30 2030 H 185.087 -3.09687 2.80001 0
M  V30 2031 H 186.477 -1.55596 6.53636 0
M  V30 2032 N 189.197 -1.51736 -0.425897 0
M  V30 2033 C 190.422 -1.69082 -1.20108 0
M  V30 2034 C 190.847 -0.392398 -1.83962 0
M  V30 2035 O 190.205 0.64858 -1.69302 0
M  V30 2036 C 190.253 -2.81604 -2.25237 0
M  V30 2037 O 189.357 -2.46004 -3.30992 0
M  V30 2038 H 188.698 -0.563408 -0.35138 0
M  V30 2039 H 191.228 -1.98358 -0.501512 0
M  V30 2040 H 191.238 -3.06025 -2.69838 0
M  V30 2041 H 189.913 -3.75817 -1.78142 0
M  V30 2042 H 188.49 -2.32195 -2.91787 0
M  V30 2043 N 190.675 0.682077 -1.42076 0
M  V30 2044 C 191.607 1.80755 -1.40926 0
M  V30 2045 C 192.62 1.59833 -0.309398 0
M  V30 2046 O 193.809 1.69087 -0.572014 0
M  V30 2047 C 190.909 3.17744 -1.17865 0
M  V30 2048 C 190.082 3.65578 -2.40149 0
M  V30 2049 C 189.141 4.81277 -2.12742 0
M  V30 2050 O 188.167 4.92197 -2.85887 0
M  V30 2051 N 189.369 5.69474 -1.12602 0
M  V30 2052 H 192.134 1.82229 -2.37935 0
M  V30 2053 H 189.695 0.864903 -1.36861 0
M  V30 2054 H 191.687 3.9279 -0.9746 0
M  V30 2055 H 190.257 3.11214 -0.294068 0
M  V30 2056 H 189.477 2.81291 -2.76169 0
M  V30 2057 H 190.765 3.94278 -3.21593 0
M  V30 2058 H 190.163 5.63297 -0.520899 0
M  V30 2059 H 188.72 6.44363 -0.981842 0
M  V30 2060 N 192.153 1.28127 0.917671 0
M  V30 2061 C 193.401 1.14825 1.66312 0
M  V30 2062 C 193.722 -0.304379 1.9261 0
M  V30 2063 O 192.992 -1.21149 1.53947 0
M  V30 2064 H 191.572 0.421953 0.616413 0
M  V30 2065 H 194.234 1.608 1.10134 0
M  V30 2066 H 193.33 1.68489 2.62712 0
M  V30 2067 N 193.631 -1.12557 1.10312 0
M  V30 2068 C 194.578 -2.18247 0.750781 0
M  V30 2069 C 195.548 -1.63853 -0.272293 0
M  V30 2070 O 196.733 -1.90195 -0.151862 0
M  V30 2071 C 193.873 -3.44591 0.187379 0
M  V30 2072 C 192.986 -4.13046 1.2656 0
M  V30 2073 C 192.121 -5.27034 0.663978 0
M  V30 2074 C 191.16 -5.87353 1.72287 0
M  V30 2075 N 190.297 -6.92757 1.1416 0
M  V30 2076 H 195.137 -2.47732 1.65628 0
M  V30 2077 H 192.674 -1.21629 0.827337 0
M  V30 2078 H 194.632 -4.16904 -0.157148 0
M  V30 2079 H 193.262 -3.15527 -0.681355 0
M  V30 2080 H 192.314 -3.38924 1.72727 0
M  V30 2081 H 193.626 -4.53947 2.06721 0
M  V30 2082 H 192.78 -6.06104 0.268824 0
M  V30 2083 H 191.519 -4.87407 -0.169082 0
M  V30 2084 H 190.524 -5.06971 2.12746 0
M  V30 2085 H 191.749 -6.29051 2.55875 0
M  V30 2086 H 189.695 -6.5517 0.329984 0
M  V30 2087 H 189.612 -7.3225 1.88007 0
M  V30 2088 H 190.88 -7.75658 0.772956 0
M  V30 2089 N 195.109 -0.891671 -1.2995 0
M  V30 2090 C 196.358 -0.509521 -1.95158 0
M  V30 2091 C 196.671 0.947388 -1.71125 0
M  V30 2092 O 197.877 1.43669 -2.30372 0
M  V30 2093 C 196.333 -0.860315 -3.49466 0
M  V30 2094 C 195.941 -2.33545 -3.8231 0
M  V30 2095 C 197.685 -0.547687 -4.20952 0
M  V30 2096 C 195.592 -2.62752 -5.29826 0
M  V30 2097 H 194.522 -0.18682 -0.730489 0
M  V30 2098 H 197.173 -1.08756 -1.47798 0
M  V30 2099 H 195.555 -0.211285 -3.95436 0
M  V30 2100 H 196.729 -3.02936 -3.47227 0
M  V30 2101 H 195.044 -2.61629 -3.23944 0
M  V30 2102 H 197.641 -0.742854 -5.29515 0
M  V30 2103 H 197.984 0.51332 -4.13123 0
M  V30 2104 H 198.517 -1.1542 -3.80688 0
M  V30 2105 H 195.256 -3.6762 -5.42712 0
M  V30 2106 H 194.776 -1.97977 -5.66185 0
M  V30 2107 H 196.455 -2.48601 -5.97333 0
M  V30 2108 N 196.587 1.43421 -0.653314 0
M  V30 2109 C 197.537 2.2792 0.060558 0
M  V30 2110 C 198.521 1.39906 0.794677 0
M  V30 2111 O 199.713 1.63536 0.677128 0
M  V30 2112 C 196.842 3.27603 1.0262 0
M  V30 2113 C 195.928 4.23104 0.290551 0
M  V30 2114 N 196.319 5.01031 -0.692967 0
M  V30 2115 C 194.617 4.42816 0.531984 0
M  V30 2116 C 195.318 5.70626 -1.12963 0
M  V30 2117 N 194.294 5.41617 -0.463867 0
M  V30 2118 H 198.096 2.85585 -0.694143 0
M  V30 2119 H 195.61 1.55126 -0.480602 0
M  V30 2120 H 197.607 3.86918 1.55242 0
M  V30 2121 H 196.267 2.71499 1.78096 0
M  V30 2122 H 197.278 5.0669 -1.07169 0
M  V30 2123 H 193.955 3.97782 1.26791 0
M  V30 2124 H 195.345 6.4318 -1.94343 0
M  V30 2125 N 198.065 0.39524 1.52563 0
M  V30 2126 C 199.481 0.0454682 1.59535 0
M  V30 2127 C 199.681 -1.44056 1.4089 0
M  V30 2128 O 198.737 -2.20579 1.22888 0
M  V30 2129 C 200.05 0.527963 2.96029 0
M  V30 2130 C 201.598 0.484733 3.09224 0
M  V30 2131 C 202.073 0.943512 4.48176 0
M  V30 2132 N 203.564 0.899765 4.54377 0
M  V30 2133 C 204.299 1.22609 5.60138 0
M  V30 2134 N 203.795 1.62319 6.73516 0
M  V30 2135 N 205.588 1.14696 5.50274 0
M  V30 2136 H 197.739 1.36261 1.62931 0
M  V30 2137 H 200.002 0.558887 0.765735 0
M  V30 2138 H 199.708 1.56607 3.14908 0
M  V30 2139 H 199.582 -0.0698056 3.77135 0
M  V30 2140 H 201.969 -0.544298 2.90037 0
M  V30 2141 H 202.05 1.11838 2.30056 0
M  V30 2142 H 201.694 1.9708 4.68104 0
M  V30 2143 H 201.624 0.286817 5.25818 0
M  V30 2144 H 204.115 0.607632 3.72983 0
M  V30 2145 H 204.428 1.85567 7.5019 0
M  V30 2146 H 202.773 1.66211 6.74833 0
M  V30 2147 H 205.964 0.835701 4.6058 0
M  V30 2148 H 206.137 1.40459 6.32594 0
M  V30 2149 N 199.544 -1.57102 0.125237 0
M  V30 2150 C 200.821 -1.86953 -0.575142 0
M  V30 2151 C 201.201 -1.02749 -1.84407 0
M  V30 2152 O 200.549 -0.108144 -2.28244 0
M  V30 2153 C 200.759 -3.38198 -0.861583 0
M  V30 2154 C 202.107 -4.06937 -1.21192 0
M  V30 2155 O 203.131 -3.43252 -0.951645 0
M  V30 2156 O 201.99 -5.19364 -1.70068 0
M  V30 2157 H 199.084 -0.774147 -0.290906 0
M  V30 2158 H 201.63 -1.68942 0.160211 0
M  V30 2159 H 200.402 -3.91282 0.0373647 0
M  V30 2160 H 200.025 -3.61661 -1.65188 0
M  V30 2161 N 201.022 0.148545 -1.56898 0
M  V30 2162 C 202.271 0.85984 -1.82454 0
M  V30 2163 C 202.584 1.82406 -0.706229 0
M  V30 2164 O 203.79 2.57938 -0.847349 0
M  V30 2165 C 202.246 1.57967 -3.2338 0
M  V30 2166 C 201.854 0.65794 -4.43142 0
M  V30 2167 C 203.598 2.27784 -3.58211 0
M  V30 2168 C 201.505 1.3793 -5.75091 0
M  V30 2169 H 200.435 0.324834 -0.68044 0
M  V30 2170 H 203.086 0.112588 -1.83154 0
M  V30 2171 H 201.468 2.37249 -3.17063 0
M  V30 2172 H 202.642 -0.0995497 -4.60692 0
M  V30 2173 H 200.957 0.0682643 -4.16344 0
M  V30 2174 H 203.554 2.8239 -4.54048 0
M  V30 2175 H 203.897 3.04204 -2.84193 0
M  V30 2176 H 204.43 1.55421 -3.66182 0
M  V30 2177 H 201.169 0.656982 -6.52199 0
M  V30 2178 H 200.689 2.10954 -5.61479 0
M  V30 2179 H 202.368 1.92063 -6.17835 0
M  V30 2180 N 202.5 1.5196 0.417844 0
M  V30 2181 C 203.447 1.74678 1.50852 0
M  V30 2182 C 204.417 0.588947 1.55308 0
M  V30 2183 O 205.602 0.825544 1.72016 0
M  V30 2184 C 202.742 1.89544 2.88387 0
M  V30 2185 C 201.855 3.17166 2.93309 0
M  V30 2186 C 200.99 3.22513 4.22088 0
M  V30 2187 C 200.029 4.44372 4.20951 0
M  V30 2188 N 199.166 4.47161 5.41287 0
M  V30 2189 H 204.006 2.67768 1.30783 0
M  V30 2190 H 201.543 1.32689 0.63498 0
M  V30 2191 H 203.501 1.96146 3.68216 0
M  V30 2192 H 202.131 0.998424 3.06971 0
M  V30 2193 H 201.183 3.19778 2.06024 0
M  V30 2194 H 202.495 4.07021 2.88332 0
M  V30 2195 H 201.649 3.28139 5.10303 0
M  V30 2196 H 200.388 2.30581 4.29748 0
M  V30 2197 H 199.393 4.38902 3.31127 0
M  V30 2198 H 200.618 5.3759 4.14938 0
M  V30 2199 H 198.564 3.58108 5.49632 0
M  V30 2200 H 198.481 5.3085 5.3827 0
M  V30 2201 H 199.749 4.57005 6.3148 0
M  V30 2202 N 203.978 -0.674533 1.42435 0
M  V30 2203 C 205.226 -1.43175 1.42637 0
M  V30 2204 C 205.547 -1.94951 0.0438992 0
M  V30 2205 O 204.817 -1.7308 -0.917607 0
M  V30 2206 H 203.397 -0.531307 0.525092 0
M  V30 2207 H 206.059 -0.797006 1.77859 0
M  V30 2208 H 205.155 -2.28463 2.12629 0
M  V30 2209 N 205.456 -1.28612 -0.910864 0
M  V30 2210 C 206.419 -1.12803 -1.9952 0
M  V30 2211 C 207.419 -0.0668264 -1.60661 0
M  V30 2212 O 208.609 -0.312847 -1.71368 0
M  V30 2213 C 205.741 -0.72254 -3.33155 0
M  V30 2214 H 206.934 -2.09109 -2.14973 0
M  V30 2215 H 204.487 -1.11639 -1.09391 0
M  V30 2216 H 205.222 0.241152 -3.23402 0
M  V30 2217 H 205.007 -1.48916 -3.62721 0
M  V30 2218 H 206.497 -0.634666 -4.12749 0
M  V30 2219 N 206.934 1.1197 -1.10907 0
M  V30 2220 C 207.882 2.19927 -0.757303 0
M  V30 2221 C 208.876 1.67564 0.248747 0
M  V30 2222 O 210.082 1.79672 0.108605 0
M  V30 2223 H 206.457 0.716925 -0.226987 0
M  V30 2224 H 208.428 2.46847 -1.67658 0
M  V30 2225 C 207.177 3.47061 -0.210671 0
M  V30 2226 H 206.5 3.87703 -0.976049 0
M  V30 2227 H 207.94 4.24 -0.0026584 0
M  V30 2228 C 206.399 3.19864 1.05777 0
M  V30 2229 O 206.929 3.40049 2.13845 0
M  V30 2230 N 205.135 2.73636 0.978349 0
M  V30 2231 H 204.682 2.5741 0.0988246 0
M  V30 2232 H 204.64 2.55815 1.82773 0
M  V30 2233 N 208.412 0.89855 1.29475 0
M  V30 2234 C 209.342 0.39201 2.30186 0
M  V30 2235 C 210.323 -0.532359 1.61555 0
M  V30 2236 O 211.508 -0.443331 1.89072 0
M  V30 2237 C 208.638 -0.382353 3.45189 0
M  V30 2238 C 207.592 0.451483 4.25612 0
M  V30 2239 C 206.918 -0.450307 5.328 0
M  V30 2240 C 208.218 1.70079 4.93832 0
M  V30 2241 H 209.912 1.23362 2.72804 0
M  V30 2242 H 207.458 0.594638 1.31149 0
M  V30 2243 H 209.411 -0.747451 4.14718 0
M  V30 2244 H 208.135 -1.25774 3.01411 0
M  V30 2245 H 206.794 0.798897 3.57789 0
M  V30 2246 H 206.442 -1.32379 4.85268 0
M  V30 2247 H 206.142 0.103902 5.87508 0
M  V30 2248 H 207.666 -0.811623 6.05182 0
M  V30 2249 H 209.08 1.40549 5.55805 0
M  V30 2250 H 207.477 2.19623 5.58467 0
M  V30 2251 H 208.547 2.43744 4.19186 0
M  V30 2252 N 209.89 -1.43072 0.660911 0
M  V30 2253 C 210.82 -2.33497 -0.0122829 0
M  V30 2254 C 211.801 -1.49903 -0.803925 0
M  V30 2255 O 212.986 -1.78546 -0.763864 0
M  V30 2256 C 210.116 -3.33363 -0.973994 0
M  V30 2257 C 209.07 -4.27003 -0.291928 0
M  V30 2258 C 208.396 -5.16967 -1.36562 0
M  V30 2259 C 209.696 -5.15816 0.820462 0
M  V30 2260 H 211.39 -2.90038 0.742873 0
M  V30 2261 H 208.936 -1.39461 0.358688 0
M  V30 2262 H 210.889 -3.95524 -1.45392 0
M  V30 2263 H 209.613 -2.75095 -1.7604 0
M  V30 2264 H 208.272 -3.66217 0.167623 0
M  V30 2265 H 207.92 -4.55034 -2.14366 0
M  V30 2266 H 207.62 -5.80441 -0.914454 0
M  V30 2267 H 209.144 -5.82003 -1.84675 0
M  V30 2268 H 210.558 -5.71742 0.422366 0
M  V30 2269 H 208.955 -5.8805 1.19656 0
M  V30 2270 H 210.025 -4.55045 1.67518 0
M  V30 2271 N 211.368 -0.403325 -1.52352 0
M  V30 2272 C 212.298 0.416205 -2.29761 0
M  V30 2273 C 213.279 1.05123 -1.33728 0
M  V30 2274 O 214.464 1.06134 -1.62632 0
M  V30 2275 C 211.594 1.53624 -3.11475 0
M  V30 2276 C 210.548 1.02653 -4.15507 0
M  V30 2277 C 209.874 2.23971 -4.85532 0
M  V30 2278 C 211.174 0.08463 -5.22231 0
M  V30 2279 H 212.868 -0.229701 -2.98518 0
M  V30 2280 H 210.414 -0.111913 -1.43564 0
M  V30 2281 H 212.367 2.1165 -3.64393 0
M  V30 2282 H 211.091 2.20994 -2.40477 0
M  V30 2283 H 209.75 0.46871 -3.63591 0
M  V30 2284 H 209.398 2.89883 -4.11068 0
M  V30 2285 H 209.098 1.90521 -5.55856 0
M  V30 2286 H 210.622 2.82614 -5.41259 0
M  V30 2287 H 212.036 0.573509 -5.70424 0
M  V30 2288 H 210.433 -0.160783 -5.99885 0
M  V30 2289 H 211.503 -0.86237 -4.7717 0
M  V30 2290 N 212.846 1.57033 -0.133567 0
M  V30 2291 C 214.074 2.00044 0.528195 0
M  V30 2292 C 214.489 1.01349 1.59291 0
M  V30 2293 O 213.846 0.00848369 1.82498 0
M  V30 2294 C 213.897 3.43018 1.1411 0
M  V30 2295 O 213.618 4.37939 0.11892 0
M  V30 2296 C 215.119 4.01237 1.88477 0
M  V30 2297 H 212.339 0.656517 0.138661 0
M  V30 2298 H 214.883 2.03267 -0.224196 0
M  V30 2299 H 213.038 3.40688 1.84418 0
M  V30 2300 H 213.452 5.21436 0.56613 0
M  V30 2301 H 214.926 5.03314 2.26669 0
M  V30 2302 H 215.403 3.41193 2.76558 0
M  V30 2303 H 216.009 4.07156 1.22898 0
M  V30 2304 N 214.325 -0.140222 1.56975 0
M  V30 2305 C 215.255 -1.17456 2.01808 0
M  V30 2306 C 216.236 -1.44415 0.898794 0
M  V30 2307 O 217.421 -1.5522 1.16707 0
M  V30 2308 C 214.551 -2.50607 2.40444 0
M  V30 2309 C 213.505 -2.38155 3.55621 0
M  V30 2310 C 212.831 -3.76078 3.80091 0
M  V30 2311 C 214.131 -1.85991 4.88062 0
M  V30 2312 H 215.825 -0.801743 2.88466 0
M  V30 2313 H 213.371 -0.38422 1.38779 0
M  V30 2314 H 215.324 -3.23197 2.7041 0
M  V30 2315 H 214.048 -2.89737 1.50732 0
M  V30 2316 H 212.707 -1.68016 3.25832 0
M  V30 2317 H 212.355 -4.12656 2.87618 0
M  V30 2318 H 212.055 -3.68606 4.57606 0
M  V30 2319 H 213.579 -4.50206 4.12488 0
M  V30 2320 H 214.993 -2.4838 5.16701 0
M  V30 2321 H 213.39 -1.89393 5.6943 0
M  V30 2322 H 214.46 -0.816023 4.77984 0
M  V30 2323 N 215.803 -1.52179 -0.40978 0
M  V30 2324 C 216.735 -1.71703 -1.51825 0
M  V30 2325 C 217.748 -0.597445 -1.51441 0
M  V30 2326 O 218.937 -0.872582 -1.55719 0
M  V30 2327 C 216.037 -1.74171 -2.90719 0
M  V30 2328 C 215.21 -3.03156 -3.15302 0
M  V30 2329 C 214.269 -2.97445 -4.34065 0
M  V30 2330 O 213.295 -3.71352 -4.31377 0
M  V30 2331 N 214.497 -2.15191 -5.39141 0
M  V30 2332 H 217.262 -2.67334 -1.35472 0
M  V30 2333 H 214.823 -1.50409 -0.599069 0
M  V30 2334 H 216.815 -1.67884 -3.68235 0
M  V30 2335 H 215.385 -0.860166 -3.00533 0
M  V30 2336 H 214.605 -3.23097 -2.25836 0
M  V30 2337 H 215.893 -3.88484 -3.28569 0
M  V30 2338 H 215.291 -1.54573 -5.44173 0
M  V30 2339 H 213.848 -2.1476 -6.15403 0
M  V30 2340 N 217.281 0.66697 -1.42791 0
M  V30 2341 C 218.529 1.42417 -1.43394 0
M  V30 2342 C 218.85 1.94925 -0.0542373 0
M  V30 2343 O 218.12 1.73564 0.908415 0
M  V30 2344 H 216.7 0.528515 -0.527902 0
M  V30 2345 H 219.362 0.787562 -1.78279 0
M  V30 2346 H 218.458 2.27333 -2.13837 0
M  V30 2347 N 218.759 1.29093 0.90403 0
M  V30 2348 C 220.036 1.075 1.63411 0
M  V30 2349 C 220.416 -0.382346 2.07609 0
M  V30 2350 O 219.764 -1.37031 1.82851 0
M  V30 2351 C 219.974 2.05858 2.81822 0
M  V30 2352 C 221.322 2.36539 3.52611 0
M  V30 2353 O 222.346 2.04019 2.91984 0
M  V30 2354 O 221.205 2.92085 4.61897 0
M  V30 2355 H 218.299 0.411547 0.717327 0
M  V30 2356 H 220.845 1.40449 0.952479 0
M  V30 2357 H 219.617 3.04037 2.46327 0
M  V30 2358 H 219.24 1.73613 3.57693 0
M  V30 2359 N 220.237 -1.11381 1.11499 0
M  V30 2360 C 221.483 -1.83403 0.865512 0
M  V30 2361 C 221.816 -1.84459 -0.607329 0
M  V30 2362 O 221.091 -1.29811 -1.44842 0
M  V30 2363 C 221.374 -3.30552 1.42855 0
M  V30 2364 C 221.227 -3.37886 2.96906 0
M  V30 2365 C 222.546 -4.26643 1.08 0
M  V30 2366 H 219.665 -0.665879 0.31587 0
M  V30 2367 H 222.307 -1.30601 1.37998 0
M  V30 2368 H 220.457 -3.75648 0.990985 0
M  V30 2369 H 222.129 -3.01343 3.49271 0
M  V30 2370 H 220.372 -2.78088 3.32941 0
M  V30 2371 H 221.043 -4.41458 3.31389 0
M  V30 2372 H 223.519 -3.89729 1.45775 0
M  V30 2373 H 222.395 -5.27986 1.50072 0
M  V30 2374 H 222.656 -4.42099 -0.00915037 0
M  V30 2375 N 221.715 -0.905404 -1.28997 0
M  V30 2376 C 222.662 -0.385892 -2.27551 0
M  V30 2377 C 223.632 0.535113 -1.57244 0
M  V30 2378 O 224.817 0.459119 -1.85194 0
M  V30 2379 C 221.957 0.375461 -3.43051 0
M  V30 2380 C 221.07 -0.577092 -4.28128 0
M  V30 2381 C 220.205 0.201879 -5.30816 0
M  V30 2382 C 219.244 -0.744829 -6.07551 0
M  V30 2383 N 218.381 9.42587e-05 -7.021 0
M  V30 2384 H 223.221 -1.23139 -2.71368 0
M  V30 2385 H 220.758 -0.618542 -1.33463 0
M  V30 2386 H 222.716 0.832992 -4.088 0
M  V30 2387 H 221.346 1.18537 -3.00248 0
M  V30 2388 H 220.398 -1.15315 -3.62501 0
M  V30 2389 H 221.71 -1.30152 -4.8152 0
M  V30 2390 H 220.864 0.720351 -6.02408 0
M  V30 2391 H 219.603 0.959413 -4.7817 0
M  V30 2392 H 218.608 -1.27475 -5.34818 0
M  V30 2393 H 219.833 -1.50178 -6.62286 0
M  V30 2394 H 217.779 0.739791 -6.51815 0
M  V30 2395 H 217.696 -0.664321 -7.53076 0
M  V30 2396 H 218.964 0.498644 -7.77903 0
M  V30 2397 N 223.193 1.4272 -0.668489 0
M  V30 2398 C 224.123 2.335 -0.000100175 0
M  V30 2399 C 225.104 1.50328 0.795964 0
M  V30 2400 O 226.289 1.78949 0.754385 0
M  V30 2401 C 223.419 3.33874 0.956302 0
M  V30 2402 C 222.373 4.27152 0.269278 0
M  V30 2403 C 221.699 5.17684 1.33818 0
M  V30 2404 C 222.999 5.15373 -0.847805 0
M  V30 2405 H 224.693 2.89639 -0.758244 0
M  V30 2406 H 222.239 1.39269 -0.366079 0
M  V30 2407 H 224.192 3.9629 1.43292 0
M  V30 2408 H 222.916 2.76025 1.74579 0
M  V30 2409 H 221.575 3.66123 -0.187042 0
M  V30 2410 H 221.223 4.56165 2.1195 0
M  V30 2411 H 220.923 5.80918 0.883659 0
M  V30 2412 H 222.447 5.82974 1.81586 0
M  V30 2413 H 223.861 5.7151 -0.452681 0
M  V30 2414 H 222.258 5.87407 -1.22773 0
M  V30 2415 H 223.328 4.5415 -1.69929 0
M  V30 2416 N 224.671 0.411399 1.52136 0
M  V30 2417 C 225.634 -0.401089 2.25663 0
M  V30 2418 C 226.634 -0.971732 1.28117 0
M  V30 2419 O 227.824 -0.850254 1.52041 0
M  V30 2420 C 224.956 -1.56483 3.02863 0
M  V30 2421 H 226.149 0.24295 2.98914 0
M  V30 2422 H 223.702 0.163968 1.55438 0
M  V30 2423 H 224.437 -2.24567 2.33967 0
M  V30 2424 H 224.222 -1.16211 3.74483 0
M  V30 2425 H 225.712 -2.13951 3.58629 0
M  V30 2426 N 226.149 -1.5696 0.141893 0
M  V30 2427 C 227.426 -1.87553 -0.555281 0
M  V30 2428 C 227.806 -1.04699 -1.83306 0
M  V30 2429 O 227.154 -0.132346 -2.28116 0
M  V30 2430 C 227.364 -3.39093 -0.825664 0
M  V30 2431 C 228.712 -4.08199 -1.16869 0
M  V30 2432 O 229.736 -3.44242 -0.915185 0
M  V30 2433 O 228.595 -5.21139 -1.6455 0
M  V30 2434 H 225.689 -0.777188 -0.282679 0
M  V30 2435 H 228.235 -1.68763 0.17812 0
M  V30 2436 H 227.007 -3.91221 0.0788633 0
M  V30 2437 H 226.63 -3.63393 -1.61343 0
M  V30 2438 N 227.627 0.131896 -1.57047 0
M  V30 2439 C 228.874 0.841932 -1.84168 0
M  V30 2440 C 229.202 1.8048 -0.725066 0
M  V30 2441 O 228.457 1.93618 0.284692 0
M  V30 2442 C 228.756 1.63703 -3.17704 0
M  V30 2443 C 228.422 0.81961 -4.43388 0
M  V30 2444 C 227.084 0.594148 -4.77518 0
M  V30 2445 C 229.436 0.248977 -5.20605 0
M  V30 2446 C 226.764 -0.212409 -5.86315 0
M  V30 2447 C 229.116 -0.544701 -6.30251 0
M  V30 2448 C 227.78 -0.780599 -6.6292 0
M  V30 2449 H 227.05 0.308085 -0.673917 0
M  V30 2450 H 229.697 0.104867 -1.91213 0
M  V30 2451 H 228.002 2.44464 -3.06177 0
M  V30 2452 H 229.699 2.19015 -3.35907 0
M  V30 2453 H 226.289 1.00542 -4.16641 0
M  V30 2454 H 230.473 0.410408 -4.946 0
M  V30 2455 H 225.729 -0.404524 -6.1006 0
M  V30 2456 H 229.903 -0.993922 -6.89271 0
M  V30 2457 H 227.53 -1.40742 -7.47058 0
M  V30 2458 N 229.106 1.52395 0.401703 0
M  V30 2459 C 230.354 1.66488 1.14569 0
M  V30 2460 C 230.675 0.400897 1.90835 0
M  V30 2461 O 229.945 -0.584415 1.8698 0
M  V30 2462 H 228.525 0.613672 0.425929 0
M  V30 2463 H 231.187 1.89464 0.457093 0
M  V30 2464 H 230.283 2.50942 1.85566 0
M  V30 2465 N 230.584 -0.659388 1.43143 0
M  V30 2466 C 231.83 -1.42145 1.44647 0
M  V30 2467 C 232.163 -1.9408 0.0681907 0
M  V30 2468 O 231.438 -1.71899 -0.910007 0
M  V30 2469 C 231.721 -2.60735 2.48373 0
M  V30 2470 C 231.574 -2.14332 3.95451 0
M  V30 2471 C 232.893 -3.62951 2.48906 0
M  V30 2472 H 230.012 -0.51552 0.526696 0
M  V30 2473 H 232.654 -0.748069 1.74654 0
M  V30 2474 H 230.804 -3.18184 2.22916 0
M  V30 2475 H 232.476 -1.61932 4.31944 0
M  V30 2476 H 230.719 -1.4576 4.08578 0
M  V30 2477 H 231.39 -2.99583 4.63631 0
M  V30 2478 H 233.866 -3.1525 2.71582 0
M  V30 2479 H 232.742 -4.43487 3.23435 0
M  V30 2480 H 233.003 -4.15126 1.52061 0
M  V30 2481 N 232.062 -1.29571 -0.897171 0
M  V30 2482 C 233.287 -1.20705 -1.68656 0
M  V30 2483 C 233.712 0.228582 -1.86706 0
M  V30 2484 O 233.07 1.16494 -1.3892 0
M  V30 2485 C 233.118 -1.9282 -3.04717 0
M  V30 2486 O 232.222 -1.24697 -3.93096 0
M  V30 2487 H 231.563 -0.418126 -0.515816 0
M  V30 2488 H 234.093 -1.71183 -1.12061 0
M  V30 2489 H 234.103 -2.01372 -3.54843 0
M  V30 2490 H 232.778 -2.97239 -2.90899 0
M  V30 2491 H 231.355 -1.2442 -3.51531 0
M  V30 2492 N 233.54 1.10788 -1.12088 0
M  V30 2493 C 234.788 1.8231 -0.872205 0
M  V30 2494 C 235.109 1.85419 0.603709 0
M  V30 2495 O 234.379 1.32963 1.43867 0
M  V30 2496 H 232.959 0.675137 -0.319686 0
M  V30 2497 H 235.621 1.34068 -1.41463 0
M  V30 2498 H 234.717 2.85955 -1.25045 0
M  V30 2499 N 235.018 0.912232 1.28515 0
M  V30 2500 C 235.928 0.404506 2.31086 0
M  V30 2501 C 236.944 -0.50707 1.66448 0
M  V30 2502 O 238.12 -0.393624 1.97516 0
M  V30 2503 C 235.185 -0.348572 3.44943 0
M  V30 2504 C 234.246 0.59604 4.25142 0
M  V30 2505 C 233.479 -0.121194 5.33562 0
M  V30 2506 O 233.702 -1.34317 5.5436 0
M  V30 2507 O 232.636 0.542716 5.99448 0
M  V30 2508 H 236.462 1.25579 2.76521 0
M  V30 2509 H 234.047 0.676998 1.33181 0
M  V30 2510 H 235.929 -0.77395 4.14232 0
M  V30 2511 H 234.604 -1.17571 3.01594 0
M  V30 2512 H 233.511 1.07079 3.58448 0
M  V30 2513 H 234.844 1.38995 4.72167 0
M  V30 2514 N 236.496 -1.42363 0.676048 0
M  V30 2515 C 237.426 -2.33497 0.0124832 0
M  V30 2516 C 238.407 -1.50748 -0.787981 0
M  V30 2517 O 239.592 -1.79346 -0.744884 0
M  V30 2518 C 236.722 -3.34377 -0.938582 0
M  V30 2519 C 235.676 -4.27289 -0.246622 0
M  V30 2520 C 235.002 -5.18386 -1.31071 0
M  V30 2521 C 236.302 -5.14916 0.875125 0
M  V30 2522 H 237.996 -2.89233 0.773593 0
M  V30 2523 H 235.542 -1.39073 0.37346 0
M  V30 2524 H 237.495 -3.97044 -1.41188 0
M  V30 2525 H 236.219 -2.76947 -1.73113 0
M  V30 2526 H 234.878 -3.66018 0.206456 0
M  V30 2527 H 234.526 -4.57282 -2.09528 0
M  V30 2528 H 234.226 -5.81378 -0.852839 0
M  V30 2529 H 235.75 -5.83929 -1.78492 0
M  V30 2530 H 237.164 -5.71262 0.482983 0
M  V30 2531 H 235.561 -5.86747 1.25887 0
M  V30 2532 H 236.631 -4.53242 1.72335 0
M  V30 2533 N 237.974 -0.419461 -1.51915 0
M  V30 2534 C 239.202 0.152136 -2.0634 0
M  V30 2535 C 239.617 1.37988 -1.28859 0
M  V30 2536 O 238.974 1.79243 -0.343232 0
M  V30 2537 C 239.025 0.492266 -3.58133 0
M  V30 2538 O 238.746 -0.686736 -4.32684 0
M  V30 2539 C 240.247 1.11648 -4.2901 0
M  V30 2540 H 237.467 0.0158325 -0.670813 0
M  V30 2541 H 240.011 -0.593394 -1.95702 0
M  V30 2542 H 238.166 1.18769 -3.68745 0
M  V30 2543 H 238.58 -0.400341 -5.2297 0
M  V30 2544 H 240.054 1.3046 -5.36362 0
M  V30 2545 H 240.531 2.09251 -3.86148 0
M  V30 2546 H 241.137 0.460958 -4.22795 0
M  V30 2547 N 239.452 1.56882 -0.150215 0
M  V30 2548 C 240.415 2.1573 0.774157 0
M  V30 2549 C 241.415 1.0999 1.17298 0
M  V30 2550 O 242.605 1.35613 1.09338 0
M  V30 2551 C 239.737 2.72302 2.05096 0
M  V30 2552 H 240.93 2.98752 0.262201 0
M  V30 2553 H 238.483 1.55985 0.099248 0
M  V30 2554 H 239.218 1.92956 2.6065 0
M  V30 2555 H 239.003 3.49665 1.77416 0
M  V30 2556 H 240.493 3.17632 2.71109 0
M  V30 2557 N 240.93 -0.123565 1.57115 0
M  V30 2558 C 242.155 -0.850398 1.89164 0
M  V30 2559 C 242.58 -1.7286 0.741688 0
M  V30 2560 O 241.938 -1.78665 -0.307958 0
M  V30 2561 C 241.986 -1.66353 3.19936 0
M  V30 2562 O 241.09 -2.77004 3.0552 0
M  V30 2563 H 240.431 -0.235454 0.620852 0
M  V30 2564 H 242.961 -0.107335 2.04318 0
M  V30 2565 H 242.971 -2.05372 3.52543 0
M  V30 2566 H 241.646 -1.01881 4.03228 0
M  V30 2567 H 240.223 -2.41221 2.84371 0
M  V30 2568 N 242.408 -1.52605 -0.393616 0
M  V30 2569 C 243.654 -1.67672 -1.14079 0
M  V30 2570 C 243.987 -0.413121 -1.89755 0
M  V30 2571 O 243.262 0.588952 -1.85369 0
M  V30 2572 C 243.545 -2.9088 -2.12276 0
M  V30 2573 C 243.398 -4.27329 -1.40394 0
M  V30 2574 C 244.717 -3.09628 -3.12759 0
M  V30 2575 H 241.836 -0.610168 -0.413356 0
M  V30 2576 H 244.478 -1.85193 -0.424696 0
M  V30 2577 H 242.628 -2.76073 -2.73342 0
M  V30 2578 H 244.3 -4.53894 -0.82327 0
M  V30 2579 H 242.543 -4.2802 -0.705801 0
M  V30 2580 H 243.214 -5.09615 -2.12123 0
M  V30 2581 H 245.69 -3.23436 -2.61779 0
M  V30 2582 H 244.566 -3.97322 -3.78717 0
M  V30 2583 H 244.827 -2.23637 -3.81365 0
M  V30 2584 N 243.887 0.651787 -1.4349 0
M  V30 2585 C 244.85 1.74647 -1.48429 0
M  V30 2586 C 245.85 1.56513 -0.368817 0
M  V30 2587 O 247.04 1.62385 -0.630623 0
M  V30 2588 C 244.172 3.13533 -1.33827 0
M  V30 2589 H 245.365 1.71649 -2.4592 0
M  V30 2590 H 242.918 0.863573 -1.30277 0
M  V30 2591 H 243.653 3.22142 -0.37349 0
M  V30 2592 H 243.438 3.28101 -2.14691 0
M  V30 2593 H 244.928 3.93356 -1.40218 0
M  V30 2594 N 245.365 1.30045 0.890287 0
M  V30 2595 C 246.312 1.15976 1.99545 0
M  V30 2596 C 247.282 0.0506202 1.66023 0
M  V30 2597 O 248.467 0.219847 1.89529 0
M  V30 2598 C 245.607 0.852054 3.34416 0
M  V30 2599 C 244.72 2.04255 3.80662 0
M  V30 2600 C 243.855 1.6734 5.04154 0
M  V30 2601 C 242.894 2.82916 5.42794 0
M  V30 2602 N 242.031 2.46333 6.57468 0
M  V30 2603 H 246.871 2.10524 2.10911 0
M  V30 2604 H 244.408 1.04749 1.03276 0
M  V30 2605 H 246.366 0.654296 4.12037 0
M  V30 2606 H 244.996 -0.0565502 3.2275 0
M  V30 2607 H 244.048 2.35172 2.98995 0
M  V30 2608 H 245.36 2.90826 4.05242 0
M  V30 2609 H 244.514 1.43908 5.89386 0
M  V30 2610 H 243.253 0.779308 4.81433 0
M  V30 2611 H 242.258 3.0702 4.56091 0
M  V30 2612 H 243.483 3.73004 5.6749 0
M  V30 2613 H 241.429 1.59423 6.36334 0
M  V30 2614 H 241.346 3.26436 6.81891 0
M  V30 2615 H 242.614 2.26244 7.45945 0
M  V30 2616 N 246.843 -1.10192 1.12674 0
M  V30 2617 C 248.259 -1.34235 0.863317 0
M  V30 2618 C 248.459 -1.95062 -0.505277 0
M  V30 2619 O 247.515 -2.19192 -1.25345 0
M  V30 2620 C 248.828 -2.2616 1.98172 0
M  V30 2621 C 250.376 -2.3969 2.0129 0
M  V30 2622 C 250.851 -3.34946 3.1237 0
M  V30 2623 N 252.342 -3.42515 3.11829 0
M  V30 2624 C 253.077 -4.16199 3.94419 0
M  V30 2625 N 252.573 -4.92747 4.87004 0
M  V30 2626 N 254.366 -4.11843 3.82547 0
M  V30 2627 H 246.517 -0.690798 2.00853 0
M  V30 2628 H 248.78 -0.366774 0.874174 0
M  V30 2629 H 248.486 -1.8868 2.96804 0
M  V30 2630 H 248.36 -3.26488 1.88906 0
M  V30 2631 H 250.747 -2.76438 1.03276 0
M  V30 2632 H 250.828 -1.39169 2.14629 0
M  V30 2633 H 250.472 -2.98923 4.10619 0
M  V30 2634 H 250.402 -4.35353 2.96269 0
M  V30 2635 H 252.893 -2.87926 2.44759 0
M  V30 2636 H 253.206 -5.46376 5.46528 0
M  V30 2637 H 251.551 -4.91862 4.91016 0
M  V30 2638 H 254.742 -3.51136 3.0955 0
M  V30 2639 H 254.915 -4.69007 4.47142 0
M  V30 2640 N 248.321 -0.919034 -1.28029 0
M  V30 2641 C 249.737 -0.617972 -1.4715 0
M  V30 2642 C 249.937 0.835242 -1.83374 0
M  V30 2643 O 248.993 1.61388 -1.94191 0
M  V30 2644 C 250.306 -1.56041 -2.57044 0
M  V30 2645 C 251.854 -1.56769 -2.7091 0
M  V30 2646 C 252.329 -2.49688 -3.83953 0
M  V30 2647 N 253.82 -2.47845 -3.91314 0
M  V30 2648 C 254.555 -3.16437 -4.78179 0
M  V30 2649 N 254.051 -3.94376 -5.69596 0
M  V30 2650 N 255.844 -3.05498 -4.71834 0
M  V30 2651 H 247.995 -1.85866 -1.02798 0
M  V30 2652 H 250.258 -0.797506 -0.512531 0
M  V30 2653 H 249.964 -2.59671 -2.372 0
M  V30 2654 H 249.838 -1.29551 -3.54255 0
M  V30 2655 H 252.225 -0.538745 -2.90141 0
M  V30 2656 H 252.306 -1.87305 -1.74214 0
M  V30 2657 H 251.95 -3.52688 -3.65477 0
M  V30 2658 H 251.88 -2.16453 -4.80058 0
M  V30 2659 H 254.371 -1.91234 -3.25941 0
M  V30 2660 H 254.684 -4.43721 -6.32718 0
M  V30 2661 H 253.029 -3.98481 -5.69419 0
M  V30 2662 H 256.22 -2.44108 -3.99411 0
M  V30 2663 H 256.393 -3.59225 -5.39316 0
M  V30 2664 N 249.799 1.42003 -0.683588 0
M  V30 2665 C 251.024 2.06265 -0.216647 0
M  V30 2666 C 251.449 1.51059 1.12083 0
M  V30 2667 O 250.807 0.632638 1.69904 0
M  V30 2668 C 250.855 3.60191 -0.171759 0
M  V30 2669 O 249.959 4.03396 0.857069 0
M  V30 2670 H 249.3 0.65502 -0.108834 0
M  V30 2671 H 251.83 1.81982 -0.935077 0
M  V30 2672 H 251.84 4.08 0.0014303 0
M  V30 2673 H 250.515 3.99743 -1.14796 0
M  V30 2674 H 249.092 3.67117 0.654208 0
M  V30 2675 N 251.277 0.427512 1.51691 0
M  V30 2676 C 252.524 -0.142229 2.02 0
M  V30 2677 C 252.852 -1.43566 1.31221 0
M  V30 2678 O 252.107 -1.91298 0.412744 0
M  V30 2679 C 252.406 -0.418249 3.54944 0
M  V30 2680 C 252.072 0.788187 4.43958 0
M  V30 2681 C 250.734 1.11906 4.68007 0
M  V30 2682 C 253.086 1.59347 4.96244 0
M  V30 2683 C 250.414 2.25608 5.41588 0
M  V30 2684 C 252.766 2.7214 5.71072 0
M  V30 2685 C 251.43 3.05692 5.93387 0
M  V30 2686 H 250.7 -0.0520451 0.73917 0
M  V30 2687 H 253.347 0.572697 1.82736 0
M  V30 2688 H 251.652 -1.21496 3.72486 0
M  V30 2689 H 253.349 -0.872339 3.91397 0
M  V30 2690 H 249.939 0.520344 4.2543 0
M  V30 2691 H 254.123 1.35106 4.77556 0
M  V30 2692 H 249.379 2.51929 5.57083 0
M  V30 2693 H 253.553 3.34914 6.10578 0
M  V30 2694 H 251.18 3.9391 6.50184 0
M  V30 2695 N 252.755 -1.56801 0.158532 0
M  V30 2696 C 254.004 -1.95665 -0.489702 0
M  V30 2697 C 254.317 -1.04654 -1.65248 0
M  V30 2698 O 255.523 -1.33146 -2.3661 0
M  V30 2699 C 253.979 -3.47874 -0.922582 0
M  V30 2700 C 253.587 -4.47489 0.213893 0
M  V30 2701 C 255.331 -3.95583 -1.53996 0
M  V30 2702 C 253.238 -5.90921 -0.237903 0
M  V30 2703 H 252.168 -0.730516 -0.186716 0
M  V30 2704 H 254.819 -1.81861 0.244722 0
M  V30 2705 H 253.201 -3.57051 -1.71261 0
M  V30 2706 H 254.375 -4.50017 0.991036 0
M  V30 2707 H 252.69 -4.09764 0.740407 0
M  V30 2708 H 255.287 -5.0019 -1.8898 0
M  V30 2709 H 255.63 -3.37789 -2.43319 0
M  V30 2710 H 256.163 -3.8937 -0.814611 0
M  V30 2711 H 252.902 -6.52559 0.620236 0
M  V30 2712 H 252.422 -5.91729 -0.980676 0
M  V30 2713 H 254.101 -6.43352 -0.686067 0
M  V30 2714 N 254.233 0.115231 -1.57178 0
M  V30 2715 C 255.481 0.820727 -1.84685 0
M  V30 2716 C 255.802 1.80237 -0.744279 0
M  V30 2717 O 255.072 1.94529 0.231375 0
M  V30 2718 H 253.652 0.306084 -0.681411 0
M  V30 2719 H 256.314 0.101656 -1.94635 0
M  V30 2720 H 255.41 1.36366 -2.80733 0
M  V30 2721 N 255.711 1.52812 0.385517 0
M  V30 2722 C 256.939 1.71907 1.15133 0
M  V30 2723 C 257.354 0.439004 1.83625 0
M  V30 2724 O 256.711 -0.586765 1.7281 0
M  V30 2725 C 256.762 2.87099 2.19673 0
M  V30 2726 O 256.483 4.10151 1.53973 0
M  V30 2727 C 257.984 3.17902 3.08955 0
M  V30 2728 H 255.204 0.575479 0.345057 0
M  V30 2729 H 257.748 1.99476 0.45052 0
M  V30 2730 H 255.903 2.61982 2.85384 0
M  V30 2731 H 256.317 4.74514 2.23465 0
M  V30 2732 H 257.791 4.01959 3.7833 0
M  V30 2733 H 258.268 2.3243 3.72657 0
M  V30 2734 H 258.874 3.44871 2.48885 0
M  V30 2735 N 257.189 -0.644168 1.43834 0
M  V30 2736 C 258.6 -1.22554 1.40845 0
M  V30 2737 C 258.951 -1.9585 0.117115 0
M  V30 2738 O 258.076 -2.01734 -0.783086 0
M  V30 2739 C 258.671 -2.22907 2.55143 0
M  V30 2740 C 257.23 -2.76501 2.5539 0
M  V30 2741 C 256.377 -1.51287 2.32396 0
M  V30 2742 H 259.328 -0.43563 1.52604 0
M  V30 2743 H 259.349 -3.05259 2.2715 0
M  V30 2744 H 258.861 -1.69533 3.49114 0
M  V30 2745 H 256.962 -3.33914 1.65324 0
M  V30 2746 H 257.075 -3.23429 3.53455 0
M  V30 2747 H 255.439 -1.78957 1.81236 0
M  V30 2748 H 256.222 -0.998336 3.28463 0
M  V30 2749 N 258.668 -1.30515 -0.883378 0
M  V30 2750 C 259.898 -1.22182 -1.66599 0
M  V30 2751 C 260.306 0.217507 -1.87946 0
M  V30 2752 O 259.649 1.1554 -1.42815 0
M  V30 2753 C 259.711 -1.88146 -3.06335 0
M  V30 2754 C 259.375 -3.37476 -3.08154 0
M  V30 2755 C 260.372 -4.33443 -2.87094 0
M  V30 2756 C 258.057 -3.7895 -3.29701 0
M  V30 2757 C 260.051 -5.68858 -2.8754 0
M  V30 2758 C 257.738 -5.14482 -3.29776 0
M  V30 2759 C 258.736 -6.09246 -3.0872 0
M  V30 2760 O 258.424 -7.42302 -3.08615 0
M  V30 2761 H 258.156 -0.423898 -0.52658 0
M  V30 2762 H 260.71 -1.72703 -1.11188 0
M  V30 2763 H 258.94 -1.32157 -3.63416 0
M  V30 2764 H 260.629 -1.7391 -3.66756 0
M  V30 2765 H 261.395 -4.02733 -2.70243 0
M  V30 2766 H 257.274 -3.05631 -3.45124 0
M  V30 2767 H 260.818 -6.428 -2.71024 0
M  V30 2768 H 256.715 -5.44832 -3.46163 0
M  V30 2769 H 257.483 -7.5131 -3.24769 0
M  V30 2770 N 260.146 1.09593 -1.13257 0
M  V30 2771 C 261.392 1.82181 -0.904521 0
M  V30 2772 C 261.747 1.83967 0.563358 0
M  V30 2773 O 261.04 1.29566 1.41149 0
M  V30 2774 C 261.234 3.27802 -1.42411 0
M  V30 2775 C 261.063 3.40201 -2.94097 0
M  V30 2776 C 259.833 3.52104 -3.62424 0
M  V30 2777 C 262.031 3.32875 -3.92044 0
M  V30 2778 N 260.013 3.53169 -5.0214 0
M  V30 2779 C 261.384 3.40789 -5.17941 0
M  V30 2780 C 263.439 3.16531 -3.84334 0
M  V30 2781 C 262.142 3.34042 -6.37031 0
M  V30 2782 C 264.168 3.11109 -5.02956 0
M  V30 2783 C 263.53 3.19614 -6.27715 0
M  V30 2784 H 259.629 0.681015 -0.384373 0
M  V30 2785 H 262.213 1.3099 -1.44048 0
M  V30 2786 H 260.384 3.77466 -0.915086 0
M  V30 2787 H 262.116 3.88393 -1.13722 0
M  V30 2788 H 258.871 3.5548 -3.12939 0
M  V30 2789 H 259.295 3.57291 -5.75041 0
M  V30 2790 H 263.937 3.08827 -2.88766 0
M  V30 2791 H 261.655 3.4051 -7.32857 0
M  V30 2792 H 265.241 2.99601 -4.98729 0
M  V30 2793 H 264.121 3.15432 -7.17964 0
M  V30 2794 N 261.624 0.925811 1.2754 0
M  V30 2795 C 262.557 0.367836 2.25216 0
M  V30 2796 C 263.535 -0.534738 1.53556 0
M  V30 2797 O 264.719 -0.475672 1.824 0
M  V30 2798 C 261.846 -0.47298 3.35381 0
M  V30 2799 C 260.892 0.365898 4.24928 0
M  V30 2800 S 261.725 1.78025 5.05042 0
M  V30 2801 C 262.881 0.947068 6.18693 0
M  V30 2802 H 263.114 1.19568 2.72196 0
M  V30 2803 H 260.647 0.727867 1.36167 0
M  V30 2804 H 262.605 -0.952242 3.99303 0
M  V30 2805 H 261.266 -1.27533 2.87044 0
M  V30 2806 H 260.459 -0.277582 5.03235 0
M  V30 2807 H 260.061 0.779261 3.65792 0
M  V30 2808 H 262.353 0.182201 6.77255 0
M  V30 2809 H 263.296 1.70309 6.87314 0
M  V30 2810 H 263.704 0.489913 5.6237 0
M  V30 2811 N 263.102 -1.41638 0.69111 0
M  V30 2812 C 264.065 -2.29178 0.0319786 0
M  V30 2813 C 265.065 -1.44153 -0.712496 0
M  V30 2814 O 266.255 -1.65354 -0.548053 0
M  V30 2815 C 263.387 -3.26952 -0.965161 0
M  V30 2816 H 264.58 -2.88959 0.802681 0
M  V30 2817 H 262.133 -1.4955 0.454356 0
M  V30 2818 H 262.868 -2.72142 -1.76378 0
M  V30 2819 H 262.653 -3.89685 -0.434522 0
M  V30 2820 H 264.143 -3.92561 -1.42428 0
M  V30 2821 N 264.58 -0.43555 -1.51462 0
M  V30 2822 C 265.991 0.0279871 -1.86679 0
M  V30 2823 C 266.342 1.42104 -1.35281 0
M  V30 2824 O 265.467 2.04667 -0.702878 0
M  V30 2825 C 266.062 0.0575626 -3.38751 0
M  V30 2826 C 264.621 0.465507 -3.7351 0
M  V30 2827 C 263.768 -0.342996 -2.75171 0
M  V30 2828 H 266.719 -0.651473 -1.44712 0
M  V30 2829 H 266.74 0.867421 -3.70481 0
M  V30 2830 H 266.252 -0.956448 -3.7613 0
M  V30 2831 H 264.353 1.48519 -3.41721 0
M  V30 2832 H 264.466 0.191546 -4.78717 0
M  V30 2833 H 262.83 0.198442 -2.53926 0
M  V30 2834 H 263.613 -1.35585 -3.15391 0
M  V30 2835 N 266.058 1.56714 -0.166846 0
M  V30 2836 C 266.968 2.21331 0.777791 0
M  V30 2837 C 267.984 1.20358 1.25658 0
M  V30 2838 O 269.16 1.53005 1.30964 0
M  V30 2839 C 266.225 2.83787 1.99163 0
M  V30 2840 C 265.286 3.99947 1.56016 0
M  V30 2841 C 264.519 4.59415 2.71613 0
M  V30 2842 O 264.742 4.17769 3.88362 0
M  V30 2843 O 263.676 5.49359 2.45945 0
M  V30 2844 H 267.502 3.02605 0.257636 0
M  V30 2845 H 265.087 1.49275 0.0611393 0
M  V30 2846 H 266.969 3.23405 2.70161 0
M  V30 2847 H 265.644 2.05513 2.50092 0
M  V30 2848 H 264.551 3.65007 0.819809 0
M  V30 2849 H 265.884 4.79801 1.09782 0
M  V30 2850 N 267.536 -0.106894 1.57237 0
M  V30 2851 C 268.782 -0.81373 1.85759 0
M  V30 2852 C 269.115 -1.78952 0.754315 0
M  V30 2853 O 268.39 -1.93029 -0.23879 0
M  V30 2854 C 268.673 -1.55293 3.24894 0
M  V30 2855 C 268.526 -0.595929 4.45835 0
M  V30 2856 C 269.845 -2.5063 3.61763 0
M  V30 2857 H 266.964 -0.294369 0.67566 0
M  V30 2858 H 269.606 -0.0776472 1.89841 0
M  V30 2859 H 267.756 -2.1804 3.21544 0
M  V30 2860 H 269.428 0.0236262 4.61294 0
M  V30 2861 H 267.671 0.0916191 4.33703 0
M  V30 2862 H 268.342 -1.15004 5.39887 0
M  V30 2863 H 270.818 -1.97982 3.65981 0
M  V30 2864 H 269.694 -2.99376 4.60071 0
M  V30 2865 H 269.955 -3.3385 2.89821 0
M  V30 2866 N 269.014 -1.53014 -0.377408 0
M  V30 2867 C 269.977 -1.77957 -1.44444 0
M  V30 2868 C 270.977 -0.649763 -1.47087 0
M  V30 2869 O 272.167 -0.917897 -1.48055 0
M  V30 2870 C 269.299 -1.89089 -2.83651 0
M  V30 2871 H 270.492 -2.73243 -1.23606 0
M  V30 2872 H 268.045 -1.43912 -0.609844 0
M  V30 2873 H 268.78 -0.958293 -3.09818 0
M  V30 2874 H 268.565 -2.71254 -2.83132 0
M  V30 2875 H 270.055 -2.1002 -3.60945 0
M  V30 2876 N 270.492 0.636531 -1.44174 0
M  V30 2877 C 271.455 1.73063 -1.50273 0
M  V30 2878 C 272.455 1.56113 -0.385397 0
M  V30 2879 O 273.645 1.61707 -0.64781 0
M  V30 2880 C 270.777 3.12096 -1.37145 0
M  V30 2881 H 271.97 1.69031 -2.47727 0
M  V30 2882 H 269.523 0.849706 -1.31186 0
M  V30 2883 H 270.258 3.21728 -0.407636 0
M  V30 2884 H 270.043 3.25805 -2.18159 0
M  V30 2885 H 271.533 3.91846 -1.44382 0
M  V30 2886 N 271.97 1.30982 0.876444 0
M  V30 2887 C 273.216 1.20474 1.63138 0
M  V30 2888 C 273.549 -0.238096 1.92735 0
M  V30 2889 O 272.824 -1.1692 1.55435 0
M  V30 2890 C 273.107 2.04244 2.96574 0
M  V30 2891 C 272.96 3.56793 2.73896 0
M  V30 2892 C 274.279 1.88684 3.97601 0
M  V30 2893 H 271.398 0.439001 0.591985 0
M  V30 2894 H 274.04 1.60704 1.01361 0
M  V30 2895 H 272.19 1.70063 3.493 0
M  V30 2896 H 273.862 4.01077 2.27892 0
M  V30 2897 H 272.105 3.80548 2.08245 0
M  V30 2898 H 272.776 4.10706 3.68815 0
M  V30 2899 H 275.252 2.18584 3.54062 0
M  V30 2900 H 274.128 2.4961 4.88862 0
M  V30 2901 H 274.389 0.848343 4.33884 0
M  V30 2902 N 273.449 -1.08991 1.13837 0
M  V30 2903 C 274.359 -2.19301 0.833333 0
M  V30 2904 C 275.375 -1.73026 -0.183847 0
M  V30 2905 O 276.551 -2.01395 -0.0138092 0
M  V30 2906 C 273.616 -3.45323 0.308651 0
M  V30 2907 C 272.677 -4.06255 1.38764 0
M  V30 2908 C 271.91 -5.26262 0.887896 0
M  V30 2909 O 272.133 -5.69747 -0.27287 0
M  V30 2910 O 271.067 -5.78435 1.66421 0
M  V30 2911 H 274.893 -2.47854 1.75506 0
M  V30 2912 H 272.478 -1.18012 0.916166 0
M  V30 2913 H 274.36 -4.21394 0.0216739 0
M  V30 2914 H 273.035 -3.18362 -0.585431 0
M  V30 2915 H 271.942 -3.318 1.72799 0
M  V30 2916 H 273.275 -4.37452 2.25602 0
M  V30 2917 N 274.927 -0.932562 -1.27047 0
M  V30 2918 C 276.343 -0.633544 -1.46487 0
M  V30 2919 C 276.543 0.815746 -1.84249 0
M  V30 2920 O 275.599 1.59319 -1.95892 0
M  V30 2921 C 276.912 -1.58758 -2.55375 0
M  V30 2922 C 278.46 -1.59634 -2.69232 0
M  V30 2923 C 278.935 -2.53747 -3.81283 0
M  V30 2924 N 280.426 -2.51982 -3.88664 0
M  V30 2925 C 281.161 -3.21491 -4.74796 0
M  V30 2926 N 280.657 -4.00395 -5.65381 0
M  V30 2927 N 282.45 -3.10485 -4.68568 0
M  V30 2928 H 274.601 -1.86946 -1.00821 0
M  V30 2929 H 276.864 -0.802897 -0.504044 0
M  V30 2930 H 276.57 -2.62172 -2.34432 0
M  V30 2931 H 276.444 -1.33301 -3.52861 0
M  V30 2932 H 278.831 -0.569488 -2.89553 0
M  V30 2933 H 278.912 -1.89142 -1.72218 0
M  V30 2934 H 278.556 -3.56545 -3.61715 0
M  V30 2935 H 278.486 -2.21532 -4.77735 0
M  V30 2936 H 280.977 -1.94681 -3.23895 0
M  V30 2937 H 281.29 -4.50406 -6.27976 0
M  V30 2938 H 279.635 -4.04498 -5.65161 0
M  V30 2939 H 282.826 -2.48331 -3.96799 0
M  V30 2940 H 282.999 -3.64925 -5.35475 0
M  V30 2941 N 276.405 1.4127 -0.698611 0
M  V30 2942 C 277.352 2.30773 -0.0352094 0
M  V30 2943 C 278.322 1.47273 0.768111 0
M  V30 2944 O 279.507 1.76053 0.735524 0
M  V30 2945 C 276.647 3.33346 0.893 0
M  V30 2946 C 275.76 4.31924 0.0809695 0
M  V30 2947 C 274.895 5.21566 1.0071 0
M  V30 2948 C 273.934 6.11811 0.188155 0
M  V30 2949 N 273.071 6.93926 1.06825 0
M  V30 2950 H 277.911 2.86943 -0.804207 0
M  V30 2951 H 275.448 1.4132 -0.408294 0
M  V30 2952 H 277.406 3.91368 1.44523 0
M  V30 2953 H 276.036 2.78719 1.62836 0
M  V30 2954 H 275.088 3.75825 -0.588224 0
M  V30 2955 H 276.4 4.95716 -0.553801 0
M  V30 2956 H 275.554 5.84437 1.62845 0
M  V30 2957 H 274.293 4.58008 1.67572 0
M  V30 2958 H 273.298 5.47986 -0.446254 0
M  V30 2959 H 274.523 6.77425 -0.476716 0
M  V30 2960 H 272.469 6.32973 1.72283 0
M  V30 2961 H 272.386 7.54416 0.489123 0
M  V30 2962 H 273.654 7.61262 1.67632 0
M  V30 2963 N 277.883 0.443576 1.51229 0
M  V30 2964 C 279.131 -0.120557 2.0174 0
M  V30 2965 C 279.452 -1.42665 1.32935 0
M  V30 2966 O 278.722 -1.9028 0.465866 0
M  V30 2967 H 277.302 -0.0475426 0.745486 0
M  V30 2968 H 279.964 0.587711 1.85828 0
M  V30 2969 H 279.06 -0.291972 3.10731 0
M  V30 2970 N 279.361 -1.56624 0.175154 0
M  V30 2971 C 280.609 -1.96609 -0.467885 0
M  V30 2972 C 280.93 -1.06238 -1.63519 0
M  V30 2973 O 280.2 -0.129523 -1.95471 0
M  V30 2974 H 278.78 -0.726008 -0.175845 0
M  V30 2975 H 281.442 -1.93195 0.257234 0
M  V30 2976 H 280.538 -3.00989 -0.825342 0
M  V30 2977 N 280.839 0.0985539 -1.57292 0
M  V30 2978 C 282.069 0.815135 -1.8984 0
M  V30 2979 C 282.477 1.7297 -0.766679 0
M  V30 2980 O 281.82 1.81698 0.270483 0
M  V30 2981 C 281.882 1.6842 -3.17608 0
M  V30 2982 C 281.546 0.94182 -4.4719 0
M  V30 2983 C 282.543 0.273212 -5.19182 0
M  V30 2984 C 280.228 0.916927 -4.9386 0
M  V30 2985 C 282.222 -0.410361 -6.36078 0
M  V30 2986 C 279.909 0.229567 -6.10669 0
M  V30 2987 C 280.907 -0.432902 -6.81627 0
M  V30 2988 O 280.595 -1.10925 -7.9621 0
M  V30 2989 H 280.327 0.238501 -0.632529 0
M  V30 2990 H 282.881 0.0812659 -2.05239 0
M  V30 2991 H 281.111 2.46022 -2.98345 0
M  V30 2992 H 282.8 2.27704 -3.36015 0
M  V30 2993 H 283.566 0.283927 -4.84168 0
M  V30 2994 H 279.445 1.42201 -4.3852 0
M  V30 2995 H 282.989 -0.928013 -6.914 0
M  V30 2996 H 278.886 0.216686 -6.45136 0
M  V30 2997 H 279.654 -1.01579 -8.12172 0
M  V30 2998 N 282.317 1.53212 0.369288 0
M  V30 2999 C 283.265 1.80054 1.47253 0
M  V30 3000 C 284.259 0.669456 1.55611 0
M  V30 3001 O 285.465 0.852328 1.58541 0
M  V30 3002 H 281.84 0.570034 0.490475 0
M  V30 3003 H 283.811 2.72403 1.21817 0
M  V30 3004 C 282.56 2.00403 2.84137 0
M  V30 3005 H 281.883 2.86876 2.78464 0
M  V30 3006 H 283.323 2.23164 3.60519 0
M  V30 3007 C 281.782 0.782081 3.27697 0
M  V30 3008 O 282.312 -0.0310205 4.01688 0
M  V30 3009 N 280.518 0.606573 2.84199 0
M  V30 3010 H 280.065 1.26939 2.24152 0
M  V30 3011 H 280.023 -0.20962 3.137 0
M  V30 3012 N 283.795 -0.628877 1.44509 0
M  V30 3013 C 284.705 -1.7694 1.54044 0
M  V30 3014 C 285.721 -1.68705 0.425987 0
M  V30 3015 O 286.897 -1.89442 0.683656 0
M  V30 3016 C 283.962 -3.13332 1.48405 0
M  V30 3017 C 283.023 -3.33181 2.70719 0
M  V30 3018 C 282.256 -4.63067 2.6534 0
M  V30 3019 O 282.479 -5.44017 1.71469 0
M  V30 3020 O 281.413 -4.85167 3.56226 0
M  V30 3021 H 285.239 -1.71848 2.50403 0
M  V30 3022 H 282.824 -0.790378 1.26781 0
M  V30 3023 H 284.706 -3.94634 1.47791 0
M  V30 3024 H 283.381 -3.1896 0.551898 0
M  V30 3025 H 282.288 -2.51549 2.769 0
M  V30 3026 H 283.621 -3.32416 3.62988 0
M  V30 3027 N 285.273 -1.31445 -0.869486 0
M  V30 3028 C 286.203 -1.21727 -1.99261 0
M  V30 3029 C 287.184 -0.104359 -1.6978 0
M  V30 3030 O 288.369 -0.289038 -1.92037 0
M  V30 3031 C 285.499 -0.924317 -3.34774 0
M  V30 3032 C 284.453 -1.99685 -3.78563 0
M  V30 3033 C 283.779 -1.55658 -5.11541 0
M  V30 3034 C 285.079 -3.41003 -3.95619 0
M  V30 3035 H 286.773 -2.1569 -2.07649 0
M  V30 3036 H 284.319 -1.03839 -0.997675 0
M  V30 3037 H 286.272 -0.842934 -4.12883 0
M  V30 3038 H 284.996 0.0509793 -3.2656 0
M  V30 3039 H 283.655 -2.06813 -3.02694 0
M  V30 3040 H 283.303 -0.569132 -4.9977 0
M  V30 3041 H 283.003 -2.27409 -5.41811 0
M  V30 3042 H 284.527 -1.48928 -5.92159 0
M  V30 3043 H 285.941 -3.36547 -4.64122 0
M  V30 3044 H 284.338 -4.10975 -4.37286 0
M  V30 3045 H 285.408 -3.81754 -2.98985 0
M  V30 3046 N 286.751 1.08385 -1.14413 0
M  V30 3047 C 287.991 1.8238 -0.922868 0
M  V30 3048 C 288.355 1.84225 0.540842 0
M  V30 3049 O 289.556 2.53985 0.880058 0
M  V30 3050 C 287.827 3.24048 -1.50757 0
M  V30 3051 S 289.386 4.14917 -1.4279 0
M  V30 3052 H 286.204 0.628524 -0.332384 0
M  V30 3053 H 288.806 1.30278 -1.45766 0
M  V30 3054 H 287.51 3.20288 -2.56601 0
M  V30 3055 H 287.041 3.81224 -0.971178 0
M  V30 3056 H 289.056 4.94473 -0.413582 0
M  V30 3057 N 288.23 0.939286 1.26551 0
M  V30 3058 C 289.507 0.5038 1.89001 0
M  V30 3059 C 289.887 -1.01854 1.84903 0
M  V30 3060 O 289.235 -1.87773 1.30206 0
M  V30 3061 C 289.445 1.063 3.32417 0
M  V30 3062 C 290.793 1.13051 4.09273 0
M  V30 3063 O 291.817 1.01345 3.41479 0
M  V30 3064 O 290.676 1.31233 5.30509 0
M  V30 3065 H 287.77 0.163897 0.810597 0
M  V30 3066 H 290.316 1.03173 1.34735 0
M  V30 3067 H 289.088 2.10665 3.29752 0
M  V30 3068 H 288.711 0.517408 3.94219 0
M  V30 3069 N 289.708 -1.40897 0.706093 0
M  V30 3070 C 290.954 -2.01352 0.241889 0
M  V30 3071 C 291.287 -1.55832 -1.15888 0
M  V30 3072 O 290.562 -0.774145 -1.7843 0
M  V30 3073 C 290.845 -3.58752 0.311311 0
M  V30 3074 C 290.698 -4.1437 1.74978 0
M  V30 3075 C 292.017 -4.38914 -0.322922 0
M  V30 3076 H 289.136 -0.731562 0.0893687 0
M  V30 3077 H 291.778 -1.67504 0.896802 0
M  V30 3078 H 289.928 -3.87718 -0.246302 0
M  V30 3079 H 291.6 -3.96239 2.36205 0
M  V30 3080 H 289.843 -3.69016 2.28057 0
M  V30 3081 H 290.514 -5.23532 1.74981 0
M  V30 3082 H 292.99 -4.15822 0.152089 0
M  V30 3083 H 291.866 -5.48358 -0.243855 0
M  V30 3084 H 292.127 -4.19176 -1.40513 0
M  V30 3085 N 291.186 -0.45159 -1.50991 0
M  V30 3086 C 292.432 0.102439 -2.03142 0
M  V30 3087 C 292.787 1.39138 -1.32884 0
M  V30 3088 O 292.08 1.86493 -0.439438 0
M  V30 3089 C 292.274 0.361728 -3.55565 0
M  V30 3090 C 292.103 -0.900535 -4.40591 0
M  V30 3091 C 290.873 -1.43821 -4.844 0
M  V30 3092 C 293.071 -1.79063 -4.82121 0
M  V30 3093 N 291.053 -2.65153 -5.53685 0
M  V30 3094 C 292.424 -2.84991 -5.50618 0
M  V30 3095 C 294.479 -1.80334 -4.64095 0
M  V30 3096 C 293.182 -3.92155 -6.02998 0
M  V30 3097 C 295.208 -2.86442 -5.17402 0
M  V30 3098 C 294.57 -3.9109 -5.85857 0
M  V30 3099 H 290.669 -0.00204537 -0.781997 0
M  V30 3100 H 293.253 -0.615446 -1.84717 0
M  V30 3101 H 291.424 1.04865 -3.73976 0
M  V30 3102 H 293.156 0.908372 -3.94374 0
M  V30 3103 H 289.911 -0.990117 -4.63135 0
M  V30 3104 H 290.335 -3.26717 -5.92946 0
M  V30 3105 H 294.977 -1.00753 -4.1062 0
M  V30 3106 H 292.695 -4.72565 -6.55521 0
M  V30 3107 H 296.281 -2.88386 -5.05297 0
M  V30 3108 H 295.161 -4.71845 -6.26364 0
M  V30 3109 N 292.664 1.56529 -0.183458 0
M  V30 3110 C 293.627 2.17324 0.728223 0
M  V30 3111 C 294.627 1.12453 1.14939 0
M  V30 3112 O 295.817 1.37902 1.06437 0
M  V30 3113 C 292.949 2.76591 1.99274 0
M  V30 3114 H 294.142 2.99241 0.198772 0
M  V30 3115 H 291.695 1.5616 0.0661391 0
M  V30 3116 H 292.43 1.98441 2.56499 0
M  V30 3117 H 292.215 3.5335 1.69959 0
M  V30 3118 H 293.705 3.23311 2.6431 0
M  V30 3119 N 294.142 -0.090211 1.57342 0
M  V30 3120 C 295.072 -1.10976 2.05443 0
M  V30 3121 C 296.053 -1.41482 0.944284 0
M  V30 3122 O 297.238 -1.51428 1.21586 0
M  V30 3123 C 294.368 -2.42831 2.48295 0
M  V30 3124 C 293.322 -2.26721 3.63018 0
M  V30 3125 C 292.648 -3.63796 3.91863 0
M  V30 3126 C 293.948 -1.7037 4.93732 0
M  V30 3127 H 295.642 -0.709564 2.9087 0
M  V30 3128 H 293.188 -0.339874 1.39932 0
M  V30 3129 H 295.141 -3.14431 2.80555 0
M  V30 3130 H 293.865 -2.84795 1.59873 0
M  V30 3131 H 292.524 -1.57565 3.31012 0
M  V30 3132 H 292.172 -4.03297 3.00601 0
M  V30 3133 H 291.872 -3.53861 4.69101 0
M  V30 3134 H 293.396 -4.36855 4.26603 0
M  V30 3135 H 294.81 -2.31816 5.24342 0
M  V30 3136 H 293.207 -1.71181 5.75167 0
M  V30 3137 H 294.277 -0.663542 4.80339 0
M  V30 3138 N 295.62 -1.53406 -0.361157 0
M  V30 3139 C 296.868 -1.69467 -1.10115 0
M  V30 3140 C 297.189 -0.451352 -1.89705 0
M  V30 3141 O 296.459 0.534636 -1.88463 0
M  V30 3142 H 295.039 -0.624749 -0.409508 0
M  V30 3143 H 297.701 -1.90609 -0.406699 0
M  V30 3144 H 296.797 -2.55774 -1.78847 0
M  V30 3145 N 297.098 0.621204 -1.44841 0
M  V30 3146 C 298.347 1.37658 -1.47422 0
M  V30 3147 C 298.66 1.95264 -0.114629 0
M  V30 3148 O 299.866 2.71494 -0.0180199 0
M  V30 3149 C 298.322 2.49285 -2.59586 0
M  V30 3150 C 297.93 1.98149 -4.01797 0
M  V30 3151 C 299.674 3.26409 -2.71399 0
M  V30 3152 C 297.581 3.07178 -5.05367 0
M  V30 3153 H 296.511 0.517344 -0.548517 0
M  V30 3154 H 299.162 0.667257 -1.70938 0
M  V30 3155 H 297.544 3.22839 -2.29328 0
M  V30 3156 H 298.718 1.31395 -4.41669 0
M  V30 3157 H 297.033 1.33812 -3.94314 0
M  V30 3158 H 299.63 4.07706 -3.45948 0
M  V30 3159 H 299.973 3.76535 -1.77559 0
M  V30 3160 H 300.506 2.5995 -3.01116 0
M  V30 3161 H 297.245 2.61985 -6.00869 0
M  V30 3162 H 296.765 3.72542 -4.70077 0
M  V30 3163 H 298.444 3.71789 -5.29511 0
M  V30 3164 N 298.576 1.31904 0.862503 0
M  V30 3165 C 299.804 1.24998 1.64873 0
M  V30 3166 C 300.219 -0.183425 1.87907 0
M  V30 3167 O 299.576 -1.11794 1.44251 0
M  V30 3168 C 299.627 1.99829 3.01248 0
M  V30 3169 O 299.348 3.37575 2.79239 0
M  V30 3170 C 300.849 1.99852 3.95694 0
M  V30 3171 H 298.069 0.431599 0.513773 0
M  V30 3172 H 300.613 1.73901 1.07604 0
M  V30 3173 H 298.768 1.54668 3.55185 0
M  V30 3174 H 299.182 3.75776 3.65914 0
M  V30 3175 H 300.656 2.56709 4.88676 0
M  V30 3176 H 301.133 0.982852 4.28062 0
M  V30 3177 H 301.739 2.44926 3.47694 0
M  V30 3178 N 300.054 -1.07777 1.14986 0
M  V30 3179 C 301.017 -2.13041 0.845358 0
M  V30 3180 C 302.017 -1.60071 -0.152931 0
M  V30 3181 O 303.207 -1.74033 0.0761879 0
M  V30 3182 C 300.339 -3.39896 0.261383 0
M  V30 3183 H 301.532 -2.41485 1.77834 0
M  V30 3184 H 299.085 -1.23595 0.956757 0
M  V30 3185 H 299.82 -3.17091 -0.68 0
M  V30 3186 H 299.605 -3.79642 0.980514 0
M  V30 3187 H 301.095 -4.17548 0.0657687 0
M  V30 3188 N 301.532 -0.945985 -1.26051 0
M  V30 3189 C 302.781 -0.591836 -1.92822 0
M  V30 3190 C 303.094 0.873956 -1.7499 0
M  V30 3191 O 304.3 1.33769 -2.36259 0
M  V30 3192 C 302.756 -1.00776 -3.45503 0
M  V30 3193 C 302.364 -2.4955 -3.7206 0
M  V30 3194 C 304.108 -0.725735 -4.1825 0
M  V30 3195 C 302.015 -2.84988 -5.18205 0
M  V30 3196 H 300.945 -0.217635 -0.721908 0
M  V30 3197 H 303.596 -1.14927 -1.43052 0
M  V30 3198 H 301.978 -0.378812 -3.94184 0
M  V30 3199 H 303.152 -3.1739 -3.34066 0
M  V30 3200 H 301.467 -2.75133 -3.12555 0
M  V30 3201 H 304.064 -0.966771 -5.25887 0
M  V30 3202 H 304.407 0.337639 -4.14929 0
M  V30 3203 H 304.94 -1.31463 -3.7545 0
M  V30 3204 H 301.679 -3.90307 -5.26631 0
M  V30 3205 H 301.199 -2.21813 -5.57278 0
M  V30 3206 H 302.878 -2.73712 -5.86252 0
M  V30 3207 N 303.011 1.40521 -0.713556 0
M  V30 3208 C 303.921 2.34522 -0.0606667 0
M  V30 3209 C 304.937 1.57193 0.74607 0
M  V30 3210 O 306.113 1.89591 0.679493 0
M  V30 3211 C 303.178 3.36081 0.851491 0
M  V30 3212 C 302.239 4.29286 0.0349339 0
M  V30 3213 C 301.472 5.25994 0.903649 0
M  V30 3214 O 301.695 5.28616 2.14292 0
M  V30 3215 O 300.629 6.00918 0.343723 0
M  V30 3216 H 304.455 2.91968 -0.835972 0
M  V30 3217 H 302.04 1.41681 -0.47402 0
M  V30 3218 H 303.922 3.98369 1.37404 0
M  V30 3219 H 302.597 2.81052 1.60598 0
M  V30 3220 H 301.504 3.70289 -0.532633 0
M  V30 3221 H 302.837 4.87462 -0.681287 0
M  V30 3222 N 304.489 0.459591 1.5075 0
M  V30 3223 C 305.419 -0.330644 2.31147 0
M  V30 3224 C 306.4 -1.00087 1.37538 0
M  V30 3225 O 307.585 -1.00025 1.66459 0
M  V30 3226 C 304.715 -1.41958 3.16962 0
M  V30 3227 C 303.669 -0.871608 4.19031 0
M  V30 3228 C 302.995 -2.05797 4.9351 0
M  V30 3229 C 304.295 0.109251 5.22186 0
M  V30 3230 H 305.989 0.340336 2.97459 0
M  V30 3231 H 303.535 0.165119 1.4305 0
M  V30 3232 H 305.488 -1.9798 3.71997 0
M  V30 3233 H 304.212 -2.11917 2.48513 0
M  V30 3234 H 302.871 -0.333442 3.6508 0
M  V30 3235 H 302.519 -2.74427 4.21544 0
M  V30 3236 H 302.219 -1.6976 5.62544 0
M  V30 3237 H 303.743 -2.62331 5.51375 0
M  V30 3238 H 305.157 -0.361405 5.7216 0
M  V30 3239 H 303.554 0.383316 5.98875 0
M  V30 3240 H 304.624 1.03887 4.73641 0
M  V30 3241 N 305.967 -1.56429 0.191757 0
M  V30 3242 C 307.215 -1.97095 -0.447006 0
M  V30 3243 C 307.536 -1.07967 -1.62383 0
M  V30 3244 O 306.806 -0.150248 -1.95323 0
M  V30 3245 H 305.386 -0.727832 -0.168135 0
M  V30 3246 H 308.048 -1.92911 0.27771 0
M  V30 3247 H 307.144 -3.01848 -0.793371 0
M  V30 3248 N 307.445 0.0818655 -1.57387 0
M  V30 3249 C 308.355 1.11642 -2.06333 0
M  V30 3250 C 309.371 1.43033 -0.99083 0
M  V30 3251 O 310.547 1.53411 -1.30488 0
M  V30 3252 C 307.612 2.41342 -2.48907 0
M  V30 3253 C 306.673 2.17014 -3.7041 0
M  V30 3254 C 305.906 3.4053 -4.10944 0
M  V30 3255 O 306.129 4.4927 -3.51444 0
M  V30 3256 O 305.063 3.29336 -5.03807 0
M  V30 3257 H 308.889 0.730657 -2.9478 0
M  V30 3258 H 306.474 0.295301 -1.46452 0
M  V30 3259 H 308.356 3.17691 -2.76858 0
M  V30 3260 H 307.031 2.79319 -1.63593 0
M  V30 3261 H 305.938 1.38403 -3.47556 0
M  V30 3262 H 307.271 1.83923 -4.56545 0
M  V30 3263 N 308.923 1.53595 0.353017 0
M  V30 3264 C 309.853 1.83902 1.43883 0
M  V30 3265 C 310.834 0.693421 1.55324 0
M  V30 3266 O 312.019 0.944452 1.69687 0
M  V30 3267 C 309.149 2.04016 2.8106 0
M  V30 3268 C 308.103 3.19814 2.84434 0
M  V30 3269 C 307.429 3.25244 4.24406 0
M  V30 3270 C 308.729 4.58133 2.50822 0
M  V30 3271 H 310.423 2.74835 1.1877 0
M  V30 3272 H 307.969 1.32242 0.569917 0
M  V30 3273 H 309.922 2.238 3.57059 0
M  V30 3274 H 308.646 1.09804 3.07588 0
M  V30 3275 H 307.305 2.9987 2.10887 0
M  V30 3276 H 306.953 2.28646 4.48029 0
M  V30 3277 H 306.653 4.03054 4.27576 0
M  V30 3278 H 308.177 3.47228 5.0226 0
M  V30 3279 H 309.591 4.77995 3.16534 0
M  V30 3280 H 307.988 5.38276 2.6529 0
M  V30 3281 H 309.058 4.62387 1.46034 0
M  V30 3282 N 310.401 -0.613514 1.45168 0
M  V30 3283 C 311.333 -1.73825 1.4939 0
M  V30 3284 C 312.346 -1.58175 0.385304 0
M  V30 3285 O 313.535 -1.66165 0.652036 0
M  V30 3286 C 310.635 -3.11758 1.32891 0
M  V30 3287 C 309.808 -3.53704 2.57317 0
M  V30 3288 C 308.867 -4.70579 2.35462 0
M  V30 3289 O 307.893 -4.77996 3.09044 0
M  V30 3290 N 309.095 -5.63454 1.39644 0
M  V30 3291 H 311.86 -1.70669 2.46358 0
M  V30 3292 H 309.421 -0.79862 1.40832 0
M  V30 3293 H 311.413 -3.87692 1.1609 0
M  V30 3294 H 309.983 -3.09456 0.442218 0
M  V30 3295 H 309.203 -2.67794 2.89275 0
M  V30 3296 H 310.491 -3.78486 3.40038 0
M  V30 3297 H 309.889 -5.6017 0.789062 0
M  V30 3298 H 308.446 -6.38944 1.28816 0
M  V30 3299 N 311.879 -1.3236 -0.855495 0
M  V30 3300 C 313.29 -1.2056 -1.42556 0
M  V30 3301 C 313.641 0.182209 -1.95352 0
M  V30 3302 O 312.766 1.08088 -1.87472 0
M  V30 3303 C 313.361 -2.1826 -2.59129 0
M  V30 3304 C 311.92 -2.10351 -3.12137 0
M  V30 3305 C 311.067 -2.06674 -1.84882 0
M  V30 3306 H 314.018 -1.442 -0.662727 0
M  V30 3307 H 314.039 -1.78064 -3.36264 0
M  V30 3308 H 313.551 -3.19257 -2.20673 0
M  V30 3309 H 311.652 -1.12599 -3.55179 0
M  V30 3310 H 311.765 -3.00135 -3.73438 0
M  V30 3311 H 310.129 -1.51901 -2.04446 0
M  V30 3312 H 310.912 -3.09451 -1.48643 0
M  V30 3313 N 313.357 1.07166 -1.15556 0
M  V30 3314 C 314.768 1.6127 -0.940693 0
M  V30 3315 C 315.119 1.89251 0.517551 0
M  V30 3316 O 314.244 1.65937 1.38903 0
M  V30 3317 C 314.839 2.92993 -1.7012 0
M  V30 3318 C 313.398 3.43832 -1.53156 0
M  V30 3319 C 312.545 2.1786 -1.71558 0
M  V30 3320 H 315.496 0.90229 -1.30554 0
M  V30 3321 H 315.517 3.62007 -1.17181 0
M  V30 3322 H 315.029 2.72596 -2.76248 0
M  V30 3323 H 313.13 3.69307 -0.494294 0
M  V30 3324 H 313.243 4.19747 -2.30975 0
M  V30 3325 H 311.607 2.2765 -1.14225 0
M  V30 3326 H 312.39 1.99956 -2.79056 0
M  V30 3327 N 314.835 0.952656 1.25548 0
M  V30 3328 C 315.765 0.489287 2.28316 0
M  V30 3329 C 316.746 -0.463359 1.63667 0
M  V30 3330 O 317.931 -0.36274 1.90782 0
M  V30 3331 C 315.061 -0.235603 3.465 0
M  V30 3332 C 314.015 0.631593 4.23314 0
M  V30 3333 C 313.341 -0.223923 5.34231 0
M  V30 3334 C 314.641 1.90871 4.86174 0
M  V30 3335 H 316.335 1.34822 2.67326 0
M  V30 3336 H 313.881 0.649728 1.28509 0
M  V30 3337 H 315.834 -0.570882 4.17515 0
M  V30 3338 H 314.558 -1.12877 3.06474 0
M  V30 3339 H 313.217 0.949929 3.54079 0
M  V30 3340 H 312.865 -1.11678 4.90446 0
M  V30 3341 H 312.565 0.35299 5.86539 0
M  V30 3342 H 314.089 -0.554214 6.0808 0
M  V30 3343 H 315.503 1.63997 5.49343 0
M  V30 3344 H 313.9 2.43112 5.4865 0
M  V30 3345 H 314.97 2.61304 4.08471 0
M  V30 3346 N 316.313 -1.40141 0.720998 0
M  V30 3347 C 317.56 -2.00787 0.262842 0
M  V30 3348 C 317.888 -1.5718 -1.14563 0
M  V30 3349 O 317.143 -0.785391 -1.79249 0
M  V30 3350 C 317.442 -3.56165 0.296892 0
M  V30 3351 C 317.108 -4.19373 1.65641 0
M  V30 3352 C 315.77 -4.36352 2.02855 0
M  V30 3353 C 318.122 -4.54578 2.54968 0
M  V30 3354 C 315.45 -4.8582 3.28931 0
M  V30 3355 C 317.802 -5.05447 3.80402 0
M  V30 3356 C 316.466 -5.20635 4.17726 0
M  V30 3357 H 315.736 -0.734731 0.0961807 0
M  V30 3358 H 318.383 -1.67673 0.925093 0
M  V30 3359 H 316.688 -3.8922 -0.448932 0
M  V30 3360 H 318.385 -4.00929 -0.0755208 0
M  V30 3361 H 314.975 -4.06549 1.35704 0
M  V30 3362 H 319.159 -4.41091 2.27491 0
M  V30 3363 H 314.415 -4.95764 3.57811 0
M  V30 3364 H 318.589 -5.31663 4.49786 0
M  V30 3365 H 316.216 -5.58728 5.15487 0
M  V30 3366 N 317.792 -0.46758 -1.50504 0
M  V30 3367 C 318.742 0.34698 -2.25344 0
M  V30 3368 C 319.726 0.964469 -1.2879 0
M  V30 3369 O 320.918 0.8776 -1.53711 0
M  V30 3370 C 318.047 1.43042 -3.1208 0
M  V30 3371 C 317.133 0.82084 -4.16081 0
M  V30 3372 N 317.524 -0.0567602 -5.05768 0
M  V30 3373 C 315.822 1.08517 -4.32597 0
M  V30 3374 C 316.523 -0.402343 -5.80307 0
M  V30 3375 N 315.499 0.221607 -5.43148 0
M  V30 3376 H 319.301 -0.329129 -2.92051 0
M  V30 3377 H 316.815 -0.281508 -1.59942 0
M  V30 3378 H 318.812 2.02712 -3.64299 0
M  V30 3379 H 317.472 2.10856 -2.46921 0
M  V30 3380 H 318.483 -0.425349 -5.1615 0
M  V30 3381 H 315.16 1.75855 -3.78657 0
M  V30 3382 H 316.55 -1.11834 -6.62528 0
M  V30 3383 N 319.27 1.56325 -0.20005 0
M  V30 3384 C 320.2 2.22318 0.713916 0
M  V30 3385 C 321.181 1.18788 1.21752 0
M  V30 3386 O 322.366 1.47309 1.26545 0
M  V30 3387 C 319.496 2.88639 1.93144 0
M  V30 3388 C 318.45 3.98457 1.56255 0
M  V30 3389 C 317.776 4.51967 2.85709 0
M  V30 3390 C 319.076 5.16612 0.768747 0
M  V30 3391 H 320.77 2.98952 0.163755 0
M  V30 3392 H 318.316 1.43792 0.0773219 0
M  V30 3393 H 320.269 3.33491 2.57608 0
M  V30 3394 H 318.993 2.09419 2.50621 0
M  V30 3395 H 317.652 3.54305 0.941471 0
M  V30 3396 H 317.3 3.69503 3.41287 0
M  V30 3397 H 317 5.26071 2.6177 0
M  V30 3398 H 318.524 4.99523 3.51154 0
M  V30 3399 H 319.938 5.57977 1.3166 0
M  V30 3400 H 318.335 5.96812 0.627286 0
M  V30 3401 H 319.405 4.84358 -0.229168 0
M  V30 3402 N 320.748 -0.0735177 1.57428 0
M  V30 3403 C 321.698 -1.09442 2.00016 0
M  V30 3404 C 322.682 -1.34575 0.881947 0
M  V30 3405 O 323.874 -1.34905 1.14585 0
M  V30 3406 C 321.003 -2.40865 2.4462 0
M  V30 3407 C 320.089 -2.19014 3.63172 0
M  V30 3408 N 320.48 -1.67087 4.77405 0
M  V30 3409 C 318.778 -2.49494 3.69688 0
M  V30 3410 C 319.479 -1.6001 5.5926 0
M  V30 3411 N 318.455 -2.05999 5.03056 0
M  V30 3412 H 322.257 -0.686227 2.85776 0
M  V30 3413 H 319.771 -0.280617 1.59957 0
M  V30 3414 H 321.768 -3.14763 2.73368 0
M  V30 3415 H 320.428 -2.82403 1.60246 0
M  V30 3416 H 321.439 -1.35975 4.99731 0
M  V30 3417 H 318.116 -2.94409 2.96023 0
M  V30 3418 H 319.506 -1.2073 6.60964 0
M  V30 3419 N 322.226 -1.5378 -0.344866 0
M  V30 3420 C 323.637 -1.62428 -0.920552 0
M  V30 3421 C 323.988 -0.504747 -1.89596 0
M  V30 3422 O 323.113 0.365711 -2.13287 0
M  V30 3423 C 323.708 -2.94419 -1.67639 0
M  V30 3424 C 322.267 -3.05333 -2.20111 0
M  V30 3425 C 321.414 -2.57866 -1.01982 0
M  V30 3426 H 324.365 -1.58222 -0.123042 0
M  V30 3427 H 324.386 -2.83384 -2.53917 0
M  V30 3428 H 323.898 -3.7588 -0.966224 0
M  V30 3429 H 321.999 -2.28502 -2.94308 0
M  V30 3430 H 322.112 -4.10778 -2.46573 0
M  V30 3431 H 320.476 -2.13241 -1.39285 0
M  V30 3432 H 321.259 -3.41765 -0.324308 0
M  V30 3433 N 323.704 0.605807 -1.45491 0
M  V30 3434 C 324.637 1.73022 -1.48791 0
M  V30 3435 C 325.615 1.58917 -0.344112 0
M  V30 3436 O 326.799 1.80453 -0.544876 0
M  V30 3437 C 323.926 3.10865 -1.34463 0
M  V30 3438 C 322.972 3.43554 -2.5273 0
M  V30 3439 S 323.805 3.38196 -4.15191 0
M  V30 3440 C 324.961 4.78616 -4.03333 0
M  V30 3441 H 325.194 1.69961 -2.43928 0
M  V30 3442 H 322.727 0.782611 -1.33096 0
M  V30 3443 H 324.685 3.90398 -1.26884 0
M  V30 3444 H 323.346 3.1144 -0.40794 0
M  V30 3445 H 322.539 4.43924 -2.38637 0
M  V30 3446 H 322.141 2.71541 -2.5718 0
M  V30 3447 H 324.433 5.68463 -3.68587 0
M  V30 3448 H 325.376 4.97767 -5.03621 0
M  V30 3449 H 325.784 4.54381 -3.34959 0
M  V30 3450 N 325.182 1.32811 0.848464 0
M  V30 3451 C 326.598 1.11937 1.13764 0
M  V30 3452 C 326.798 -0.0960789 2.01271 0
M  V30 3453 O 325.854 -0.779165 2.40178 0
M  V30 3454 C 327.167 2.402 1.809 0
M  V30 3455 C 328.715 2.46016 1.93508 0
M  V30 3456 C 329.19 3.74215 2.64059 0
M  V30 3457 N 330.681 3.75232 2.71579 0
M  V30 3458 C 331.416 4.71134 3.26833 0
M  V30 3459 N 330.912 5.77406 3.8285 0
M  V30 3460 N 332.705 4.58623 3.24995 0
M  V30 3461 H 324.856 2.1073 0.265855 0
M  V30 3462 H 327.119 0.930671 0.180431 0
M  V30 3463 H 326.825 3.29093 1.24058 0
M  V30 3464 H 326.699 2.51628 2.81004 0
M  V30 3465 H 329.086 1.57577 2.49506 0
M  V30 3466 H 329.167 2.38536 0.923811 0
M  V30 3467 H 328.811 4.63031 2.08722 0
M  V30 3468 H 328.741 3.78968 3.65637 0
M  V30 3469 H 331.232 2.98423 2.31845 0
M  V30 3470 H 331.545 6.46632 4.23187 0
M  V30 3471 H 329.89 5.81152 3.81165 0
M  V30 3472 H 333.081 3.74762 2.80484 0
M  V30 3473 H 333.254 5.33535 3.67756 0
M  V30 3474 N 326.66 -1.06551 1.16123 0
M  V30 3475 C 327.623 -2.12132 0.867906 0
M  V30 3476 C 328.623 -1.60224 -0.135944 0
M  V30 3477 O 329.813 -1.73943 0.0946422 0
M  V30 3478 C 326.945 -3.396 0.297419 0
M  V30 3479 H 328.138 -2.39586 1.80385 0
M  V30 3480 H 325.691 -1.22574 0.969812 0
M  V30 3481 H 326.426 -3.17794 -0.64633 0
M  V30 3482 H 326.211 -3.78581 1.02073 0
M  V30 3483 H 327.701 -4.17455 0.110052 0
M  V30 3484 N 328.138 -0.959301 -1.25041 0
M  V30 3485 C 329.068 -0.501388 -2.28053 0
M  V30 3486 C 330.049 0.454673 -1.63911 0
M  V30 3487 O 331.234 0.352618 -1.90972 0
M  V30 3488 C 328.364 0.217224 -3.4662 0
M  V30 3489 C 327.318 -0.654034 -4.22973 0
M  V30 3490 C 326.644 0.195589 -5.34342 0
M  V30 3491 C 327.944 -1.93447 -4.85155 0
M  V30 3492 H 329.638 -1.36238 -2.66608 0
M  V30 3493 H 327.184 -0.656534 -1.28163 0
M  V30 3494 H 329.137 0.548732 -4.17812 0
M  V30 3495 H 327.861 1.1125 -3.07068 0
M  V30 3496 H 326.52 -0.968693 -3.5357 0
M  V30 3497 H 326.168 1.09076 -4.91031 0
M  V30 3498 H 325.868 -0.384091 -5.86343 0
M  V30 3499 H 327.392 0.521958 -6.08365 0
M  V30 3500 H 328.806 -1.66908 -5.48466 0
M  V30 3501 H 327.203 -2.46018 -5.47353 0
M  V30 3502 H 328.273 -2.63466 -4.07079 0
M  V30 3503 N 329.616 1.39756 -0.72842 0
M  V30 3504 C 330.549 2.28176 -0.0330172 0
M  V30 3505 C 331.527 1.44035 0.754501 0
M  V30 3506 O 332.711 1.73434 0.738445 0
M  V30 3507 C 329.838 3.24795 0.960504 0
M  V30 3508 C 328.884 4.25693 0.262264 0
M  V30 3509 S 329.717 5.25714 -1.01906 0
M  V30 3510 C 330.873 6.25894 -0.0279717 0
M  V30 3511 H 331.106 2.86807 -0.78287 0
M  V30 3512 H 328.639 1.45382 -0.519951 0
M  V30 3513 H 330.597 3.80983 1.52846 0
M  V30 3514 H 329.258 2.65196 1.68315 0
M  V30 3515 H 328.451 4.93699 1.01379 0
M  V30 3516 H 328.053 3.7327 -0.233482 0
M  V30 3517 H 330.345 6.72585 0.814621 0
M  V30 3518 H 331.288 7.04876 -0.67499 0
M  V30 3519 H 331.696 5.63466 0.341489 0
M  V30 3520 N 331.094 0.475555 1.50254 0
M  V30 3521 C 332.024 -0.30611 2.31485 0
M  V30 3522 C 333.005 -0.986228 1.38591 0
M  V30 3523 O 334.19 -0.982541 1.67511 0
M  V30 3524 C 331.32 -1.38588 3.1845 0
M  V30 3525 C 330.274 -0.827115 4.19932 0
M  V30 3526 C 329.6 -2.00551 4.95665 0
M  V30 3527 C 330.9 0.16463 5.2204 0
M  V30 3528 H 332.594 0.371866 2.97082 0
M  V30 3529 H 330.14 0.180282 1.42867 0
M  V30 3530 H 332.093 -1.94023 3.74076 0
M  V30 3531 H 330.817 -2.09269 2.50747 0
M  V30 3532 H 329.476 -0.294702 3.65414 0
M  V30 3533 H 329.124 -2.6994 4.2443 0
M  V30 3534 H 328.824 -1.63784 5.64313 0
M  V30 3535 H 330.348 -2.56468 5.54127 0
M  V30 3536 H 331.762 -0.300699 5.72511 0
M  V30 3537 H 330.159 0.446813 5.98434 0
M  V30 3538 H 331.229 1.08905 4.72512 0
M  V30 3539 N 332.573 -1.56217 0.208337 0
M  V30 3540 C 333.506 -2.15633 -0.746842 0
M  V30 3541 C 334.484 -1.09685 -1.20034 0
M  V30 3542 O 335.668 -1.3787 -1.28547 0
M  V30 3543 C 332.795 -2.72594 -2.01023 0
M  V30 3544 C 331.841 -3.91251 -1.69779 0
M  V30 3545 S 332.674 -5.28962 -0.834209 0
M  V30 3546 C 333.83 -5.89353 -2.10745 0
M  V30 3547 H 334.063 -2.96315 -0.241789 0
M  V30 3548 H 331.596 -1.54398 -0.00682183 0
M  V30 3549 H 333.554 -3.06053 -2.73572 0
M  V30 3550 H 332.215 -1.91929 -2.48641 0
M  V30 3551 H 331.408 -4.29562 -2.63614 0
M  V30 3552 H 331.01 -3.58869 -1.05303 0
M  V30 3553 H 333.302 -6.04522 -3.05875 0
M  V30 3554 H 334.245 -6.85661 -1.76845 0
M  V30 3555 H 334.653 -5.1807 -2.24196 0
M  V30 3556 N 334.051 0.0651679 -1.57465 0
M  V30 3557 C 335.276 0.779605 -1.9219 0
M  V30 3558 C 335.701 1.69988 -0.805333 0
M  V30 3559 O 335.059 1.79685 0.241435 0
M  V30 3560 C 335.107 1.54364 -3.2589 0
M  V30 3561 O 334.211 2.65474 -3.1559 0
M  V30 3562 H 333.552 0.212249 -0.629163 0
M  V30 3563 H 336.082 0.0314294 -2.04576 0
M  V30 3564 H 336.092 1.92146 -3.59922 0
M  V30 3565 H 334.767 0.868457 -4.06732 0
M  V30 3566 H 333.344 2.30501 -2.93128 0
M  V30 3567 N 335.529 1.53961 0.336706 0
M  V30 3568 C 336.476 1.82428 1.41381 0
M  V30 3569 C 337.446 0.670444 1.51968 0
M  V30 3570 O 338.631 0.915565 1.67398 0
M  V30 3571 C 335.771 2.04564 2.77934 0
M  V30 3572 C 334.884 3.32267 2.76084 0
M  V30 3573 C 334.019 3.44434 4.04399 0
M  V30 3574 C 333.058 4.66061 3.96804 0
M  V30 3575 N 332.195 4.75224 5.16823 0
M  V30 3576 H 337.035 2.74324 1.16405 0
M  V30 3577 H 334.572 1.35869 0.563752 0
M  V30 3578 H 336.53 2.15388 3.57301 0
M  V30 3579 H 335.16 1.15974 3.01247 0
M  V30 3580 H 334.212 3.3025 1.88784 0
M  V30 3581 H 335.524 4.21733 2.66351 0
M  V30 3582 H 334.678 3.54728 4.92192 0
M  V30 3583 H 333.417 2.53037 4.16921 0
M  V30 3584 H 332.422 4.55838 3.07396 0
M  V30 3585 H 333.647 5.58829 3.85858 0
M  V30 3586 H 331.593 3.86739 5.29876 0
M  V30 3587 H 331.51 5.58636 5.09374 0
M  V30 3588 H 332.778 4.89835 6.06367 0
M  V30 3589 N 337.007 -0.598083 1.45811 0
M  V30 3590 C 338.232 -1.3881 1.54099 0
M  V30 3591 C 338.657 -1.8726 0.177578 0
M  V30 3592 O 338.015 -1.6069 -0.839541 0
M  V30 3593 C 338.063 -2.56217 2.53743 0
M  V30 3594 O 337.167 -3.5716 2.06182 0
M  V30 3595 H 336.508 -0.414024 0.519115 0
M  V30 3596 H 339.038 -0.726971 1.91249 0
M  V30 3597 H 339.048 -3.03337 2.72856 0
M  V30 3598 H 337.723 -2.20303 3.5276 0
M  V30 3599 H 336.3 -3.16624 1.96987 0
M  V30 3600 N 338.485 -1.33259 -0.841409 0
M  V30 3601 C 339.71 -1.2775 -1.63385 0
M  V30 3602 C 340.135 0.149188 -1.87507 0
M  V30 3603 O 339.493 1.10498 -1.43736 0
M  V30 3604 C 339.541 -2.05571 -2.96265 0
M  V30 3605 O 338.645 -1.41257 -3.87453 0
M  V30 3606 H 337.986 -0.439627 -0.497618 0
M  V30 3607 H 340.516 -1.75782 -1.04699 0
M  V30 3608 H 340.526 -2.16241 -3.45982 0
M  V30 3609 H 339.201 -3.09309 -2.7803 0
M  V30 3610 H 337.778 -1.39217 -3.45938 0
M  V30 3611 N 339.963 1.05934 -1.16686 0
M  V30 3612 C 341.21 1.788 -0.950622 0
M  V30 3613 C 341.538 1.87384 0.521305 0
M  V30 3614 O 340.793 1.36438 1.40297 0
M  V30 3615 C 341.092 3.23105 -1.52767 0
M  V30 3616 C 340.758 3.34594 -3.02254 0
M  V30 3617 C 339.42 3.37437 -3.43059 0
M  V30 3618 C 341.772 3.36219 -3.98254 0
M  V30 3619 C 339.1 3.39525 -4.78477 0
M  V30 3620 C 341.452 3.39845 -5.33562 0
M  V30 3621 C 340.116 3.40971 -5.73842 0
M  V30 3622 H 339.386 0.654275 -0.347857 0
M  V30 3623 H 342.033 1.24555 -1.45459 0
M  V30 3624 H 340.338 3.80227 -0.94524 0
M  V30 3625 H 342.035 3.7809 -1.336 0
M  V30 3626 H 338.625 3.3309 -2.6972 0
M  V30 3627 H 342.809 3.33231 -3.67792 0
M  V30 3628 H 338.065 3.38703 -5.09009 0
M  V30 3629 H 342.239 3.4005 -6.07733 0
M  V30 3630 H 339.866 3.42342 -6.78753 0
M  V30 3631 N 341.441 0.965919 1.2453 0
M  V30 3632 C 342.373 0.452465 2.2469 0
M  V30 3633 C 343.386 -0.437821 1.56802 0
M  V30 3634 O 344.575 -0.244283 1.76821 0
M  V30 3635 C 341.675 -0.366258 3.36915 0
M  V30 3636 C 340.848 0.513701 4.34373 0
M  V30 3637 C 339.907 -0.248716 5.25612 0
M  V30 3638 O 338.933 0.356745 5.68081 0
M  V30 3639 N 340.135 -1.53877 5.59734 0
M  V30 3640 H 342.9 1.31361 2.69378 0
M  V30 3641 H 340.461 0.837541 1.38553 0
M  V30 3642 H 342.453 -0.884297 3.94921 0
M  V30 3643 H 341.023 -1.12832 2.91526 0
M  V30 3644 H 340.243 1.21273 3.75082 0
M  V30 3645 H 341.531 1.11391 4.96457 0
M  V30 3646 H 340.929 -2.05243 5.27154 0
M  V30 3647 H 339.486 -2.00254 6.20275 0
M  V30 3648 N 342.919 -1.39368 0.735821 0
M  V30 3649 C 344.33 -1.83313 0.354015 0
M  V30 3650 C 344.681 -1.61461 -1.11466 0
M  V30 3651 O 343.806 -1.10621 -1.85989 0
M  V30 3652 C 344.401 -3.32781 0.635769 0
M  V30 3653 C 342.96 -3.75142 0.307448 0
M  V30 3654 C 342.107 -2.62358 0.897974 0
M  V30 3655 H 345.058 -1.28349 0.933398 0
M  V30 3656 H 345.079 -3.80388 -0.0921773 0
M  V30 3657 H 344.591 -3.48654 1.70476 0
M  V30 3658 H 342.692 -3.64857 -0.755674 0
M  V30 3659 H 342.805 -4.72532 0.790583 0
M  V30 3660 H 341.169 -2.52624 0.324551 0
M  V30 3661 H 341.952 -2.81036 1.97164 0
M  V30 3662 N 344.397 -0.483516 -1.5 0
M  V30 3663 C 345.808 -0.0314176 -1.86674 0
M  V30 3664 C 346.159 1.37728 -1.39733 0
M  V30 3665 O 345.284 2.02327 -0.767635 0
M  V30 3666 C 345.879 -0.0502376 -3.38763 0
M  V30 3667 C 344.438 0.346442 -3.74802 0
M  V30 3668 C 343.585 -0.430366 -2.7394 0
M  V30 3669 H 346.536 -0.697182 -1.42566 0
M  V30 3670 H 346.557 0.749116 -3.73053 0
M  V30 3671 H 346.069 -1.07563 -3.72897 0
M  V30 3672 H 344.17 1.37572 -3.46273 0
M  V30 3673 H 344.283 0.0391486 -4.79084 0
M  V30 3674 H 342.647 0.117557 -2.54429 0
M  V30 3675 H 343.43 -1.4555 -3.10918 0
M  V30 3676 N 345.875 1.56104 -0.216619 0
M  V30 3677 C 346.822 2.2007 0.695531 0
M  V30 3678 C 347.792 1.15471 1.19397 0
M  V30 3679 O 348.977 1.43807 1.25396 0
M  V30 3680 C 346.117 2.88073 1.90021 0
M  V30 3681 C 345.23 4.07253 1.44113 0
M  V30 3682 C 344.365 4.63052 2.603 0
M  V30 3683 C 343.404 5.74545 2.11103 0
M  V30 3684 N 342.541 6.24656 3.20545 0
M  V30 3685 H 347.381 2.97655 0.143327 0
M  V30 3686 H 344.918 1.46982 0.0589934 0
M  V30 3687 H 346.876 3.25681 2.60745 0
M  V30 3688 H 345.506 2.13015 2.42538 0
M  V30 3689 H 344.558 3.75164 0.628999 0
M  V30 3690 H 345.87 4.8783 1.04036 0
M  V30 3691 H 345.024 5.03078 3.39113 0
M  V30 3692 H 343.763 3.81628 3.03663 0
M  V30 3693 H 342.768 5.34027 1.3075 0
M  V30 3694 H 343.993 6.57801 1.68746 0
M  V30 3695 H 341.939 5.46148 3.63399 0
M  V30 3696 H 341.856 7.00343 2.84704 0
M  V30 3697 H 343.124 6.69338 3.99508 0
M  V30 3698 N 347.353 -0.0568162 1.57498 0
M  V30 3699 C 348.283 -1.06593 2.0775 0
M  V30 3700 C 349.264 -1.39448 0.974082 0
M  V30 3701 O 350.449 -1.48815 1.24771 0
M  V30 3702 C 347.579 -2.37509 2.5339 0
M  V30 3703 C 346.533 -2.1897 3.67745 0
M  V30 3704 C 345.859 -3.55402 3.99492 0
M  V30 3705 C 347.159 -1.59859 4.97235 0
M  V30 3706 H 348.853 -0.647706 2.9231 0
M  V30 3707 H 346.399 -0.310116 1.40621 0
M  V30 3708 H 348.352 -3.08409 2.87162 0
M  V30 3709 H 347.076 -2.8134 1.65878 0
M  V30 3710 H 345.735 -1.50508 3.3428 0
M  V30 3711 H 345.383 -3.9683 3.09088 0
M  V30 3712 H 345.083 -3.43831 4.76502 0
M  V30 3713 H 346.607 -4.27708 4.35773 0
M  V30 3714 H 348.021 -2.20642 5.29141 0
M  V30 3715 H 346.418 -1.58942 5.78669 0
M  V30 3716 H 347.488 -0.561506 4.81638 0
M  V30 3717 N 348.832 -1.54138 -0.328536 0
M  V30 3718 C 350.248 -1.44736 -0.672574 0
M  V30 3719 C 350.448 -0.616217 -1.91846 0
M  V30 3720 O 349.504 -0.113067 -2.52247 0
M  V30 3721 C 350.817 -2.884 -0.851217 0
M  V30 3722 C 352.365 -2.98271 -0.948877 0
M  V30 3723 C 352.84 -4.43074 -1.15973 0
M  V30 3724 N 354.331 -4.46665 -1.22658 0
M  V30 3725 C 355.066 -5.55857 -1.40751 0
M  V30 3726 N 354.562 -6.75026 -1.5592 0
M  V30 3727 N 356.355 -5.43495 -1.4342 0
M  V30 3728 H 348.506 -2.06661 0.490421 0
M  V30 3729 H 350.769 -0.934812 0.157579 0
M  V30 3730 H 350.475 -3.51699 -0.00704236 0
M  V30 3731 H 350.349 -3.34225 -1.74853 0
M  V30 3732 H 352.736 -2.35102 -1.78356 0
M  V30 3733 H 352.817 -2.55785 -0.0281435 0
M  V30 3734 H 352.461 -5.06827 -0.329915 0
M  V30 3735 H 352.391 -4.83165 -2.09426 0
M  V30 3736 H 354.882 -3.60797 -1.124 0
M  V30 3737 H 355.195 -7.54004 -1.69404 0
M  V30 3738 H 353.54 -6.77944 -1.53027 0
M  V30 3739 H 356.731 -4.49349 -1.31162 0
M  V30 3740 H 356.904 -6.28649 -1.57178 0
M  V30 3741 N 350.31 0.590341 -1.46126 0
M  V30 3742 C 351.587 1.35029 -1.41515 0
M  V30 3743 C 351.967 2.10888 -0.0946472 0
M  V30 3744 O 351.315 2.08998 0.923693 0
M  V30 3745 C 351.525 2.28269 -2.63997 0
M  V30 3746 C 352.873 2.90338 -3.09821 0
M  V30 3747 O 353.897 2.38585 -2.64492 0
M  V30 3748 O 352.756 3.84321 -3.88535 0
M  V30 3749 H 349.85 0.606317 -0.562413 0
M  V30 3750 H 352.396 0.611994 -1.58281 0
M  V30 3751 H 351.168 1.71591 -3.51671 0
M  V30 3752 H 350.791 3.0945 -2.49652 0
M  V30 3753 N 351.788 1.33704 0.83433 0
M  V30 3754 C 352.735 1.24335 1.94447 0
M  V30 3755 C 353.705 0.120991 1.65659 0
M  V30 3756 O 354.89 0.300035 1.88426 0
M  V30 3757 C 352.03 0.993124 3.30501 0
M  V30 3758 C 351.143 2.20217 3.71657 0
M  V30 3759 C 350.278 1.88572 4.96602 0
M  V30 3760 C 349.317 3.05683 5.30306 0
M  V30 3761 N 348.454 2.73997 6.46429 0
M  V30 3762 H 353.294 2.1928 2.01792 0
M  V30 3763 H 350.831 1.09035 0.987404 0
M  V30 3764 H 352.789 0.828467 4.08892 0
M  V30 3765 H 351.419 0.0803902 3.227 0
M  V30 3766 H 350.471 2.47642 2.88752 0
M  V30 3767 H 351.783 3.07752 3.92543 0
M  V30 3768 H 350.937 1.68776 5.82752 0
M  V30 3769 H 349.676 0.982799 4.77695 0
M  V30 3770 H 348.681 3.26088 4.42659 0
M  V30 3771 H 349.906 3.96737 5.51159 0
M  V30 3772 H 347.852 1.86268 6.28999 0
M  V30 3773 H 347.769 3.55064 6.67432 0
M  V30 3774 H 349.037 2.57679 7.35678 0
M  V30 3775 N 353.266 -1.05314 1.17247 0
M  V30 3776 C 354.494 -1.81971 0.984593 0
M  V30 3777 C 354.909 -1.82929 -0.467166 0
M  V30 3778 O 354.266 -1.25564 -1.32438 0
M  V30 3779 C 354.317 -3.28143 1.51672 0
M  V30 3780 O 354.038 -3.27347 2.91163 0
M  V30 3781 C 355.539 -4.21493 1.37326 0
M  V30 3782 H 352.759 -0.573455 0.348411 0
M  V30 3783 H 355.303 -1.32808 1.55506 0
M  V30 3784 H 353.458 -3.74582 0.988302 0
M  V30 3785 H 353.872 -4.18824 3.15732 0
M  V30 3786 H 355.346 -5.22043 1.79375 0
M  V30 3787 H 355.823 -4.38031 0.320169 0
M  V30 3788 H 356.429 -3.80909 1.89178 0
M  V30 3789 N 354.744 -0.972509 -1.24016 0
M  V30 3790 C 356.16 -0.679827 -1.44397 0
M  V30 3791 C 356.36 0.756716 -1.86751 0
M  V30 3792 O 355.416 1.53007 -2.00861 0
M  V30 3793 C 356.729 -1.66803 -2.50195 0
M  V30 3794 C 358.277 -1.68119 -2.64017 0
M  V30 3795 C 358.752 -2.65748 -3.73017 0
M  V30 3796 N 360.243 -2.64219 -3.8045 0
M  V30 3797 C 360.978 -3.36433 -4.64328 0
M  V30 3798 N 360.474 -4.1818 -5.52356 0
M  V30 3799 N 362.267 -3.25235 -4.58453 0
M  V30 3800 H 354.418 -1.90059 -0.948228 0
M  V30 3801 H 356.681 -0.818527 -0.478245 0
M  V30 3802 H 356.387 -2.69498 -2.25973 0
M  V30 3803 H 356.261 -1.4446 -3.48441 0
M  V30 3804 H 358.648 -0.661319 -2.87594 0
M  V30 3805 H 358.729 -1.94525 -1.66113 0
M  V30 3806 H 358.373 -3.67872 -3.50189 0
M  V30 3807 H 358.303 -2.36619 -4.70446 0
M  V30 3808 H 360.794 -2.04887 -3.17537 0
M  V30 3809 H 361.107 -4.70157 -6.13329 0
M  V30 3810 H 359.452 -4.22273 -5.52006 0
M  V30 3811 H 362.643 -2.60829 -3.88698 0
M  V30 3812 H 362.816 -3.81776 -5.23594 0
M  V30 3813 N 356.222 1.38976 -0.743202 0
M  V30 3814 C 357.468 2.01114 -0.304109 0
M  V30 3815 C 357.823 1.57929 1.09892 0
M  V30 3816 O 357.116 0.801983 1.74008 0
M  V30 3817 C 357.31 3.55647 -0.353517 0
M  V30 3818 C 357.139 4.13837 -1.75981 0
M  V30 3819 C 355.909 4.46062 -2.37395 0
M  V30 3820 C 358.107 4.36812 -2.71477 0
M  V30 3821 N 356.089 4.898 -3.70093 0
M  V30 3822 C 357.46 4.82844 -3.88923 0
M  V30 3823 C 359.515 4.18893 -2.69134 0
M  V30 3824 C 358.218 5.12837 -5.04371 0
M  V30 3825 C 360.244 4.50005 -3.83731 0
M  V30 3826 C 359.606 4.96251 -4.99914 0
M  V30 3827 H 355.705 0.765931 -0.157716 0
M  V30 3828 H 358.289 1.68763 -0.970931 0
M  V30 3829 H 356.46 3.87368 0.282987 0
M  V30 3830 H 358.192 4.04564 0.104904 0
M  V30 3831 H 354.947 4.34145 -1.89248 0
M  V30 3832 H 355.371 5.16016 -4.38242 0
M  V30 3833 H 360.013 3.82335 -1.80499 0
M  V30 3834 H 357.731 5.48297 -5.9363 0
M  V30 3835 H 361.317 4.37755 -3.83225 0
M  V30 3836 H 360.197 5.19867 -5.87118 0
M  V30 3837 N 357.7 0.491464 1.49741 0
M  V30 3838 C 358.928 -0.0535151 2.06831 0
M  V30 3839 C 359.343 -1.31683 1.35296 0
M  V30 3840 O 358.7 -1.77402 0.42836 0
M  V30 3841 C 358.751 -0.320835 3.60073 0
M  V30 3842 O 358.472 0.892394 4.28915 0
M  V30 3843 C 359.973 -0.910519 4.33848 0
M  V30 3844 H 357.193 0.0161909 0.670805 0
M  V30 3845 H 359.737 0.68609 1.92647 0
M  V30 3846 H 357.892 -1.0104 3.73991 0
M  V30 3847 H 358.306 0.649401 5.20464 0
M  V30 3848 H 359.78 -1.04721 5.41976 0
M  V30 3849 H 360.257 -1.90589 3.95692 0
M  V30 3850 H 360.863 -0.258712 4.24512 0
M  V30 3851 N 359.178 -1.55987 0.224894 0
M  V30 3852 C 360.11 -2.17722 -0.716224 0
M  V30 3853 C 361.123 -1.14723 -1.15509 0
M  V30 3854 O 362.312 -1.41688 -1.08567 0
M  V30 3855 C 359.412 -2.74873 -1.98238 0
M  V30 3856 C 358.585 -4.03074 -1.69853 0
M  V30 3857 C 357.644 -4.44757 -2.81208 0
M  V30 3858 O 356.67 -5.11587 -2.49534 0
M  V30 3859 N 357.872 -4.10716 -4.10235 0
M  V30 3860 H 360.637 -2.99109 -0.188123 0
M  V30 3861 H 358.198 -1.6184 0.0440123 0
M  V30 3862 H 360.19 -2.99727 -2.7193 0
M  V30 3863 H 358.76 -1.9777 -2.42086 0
M  V30 3864 H 357.98 -3.86041 -0.797875 0
M  V30 3865 H 359.268 -4.86701 -1.48324 0
M  V30 3866 H 358.666 -3.57019 -4.38809 0
M  V30 3867 H 357.223 -4.40455 -4.80461 0
M  V30 3868 N 360.656 0.0484629 -1.57525 0
M  V30 3869 C 361.604 1.07359 -2.06341 0
M  V30 3870 C 362.598 1.3865 -0.973269 0
M  V30 3871 O 363.804 1.37783 -1.15827 0
M  V30 3872 H 360.179 0.363662 -0.65822 0
M  V30 3873 H 362.15 0.635916 -2.91545 0
M  V30 3874 C 360.899 2.37198 -2.54229 0
M  V30 3875 H 360.222 2.13977 -3.37719 0
M  V30 3876 H 361.662 3.07319 -2.92115 0
M  V30 3877 C 360.121 3.04805 -1.43511 0
M  V30 3878 O 360.651 3.93848 -0.79034 0
M  V30 3879 N 358.857 2.65811 -1.17444 0
M  V30 3880 H 358.404 1.93488 -1.70059 0
M  V30 3881 H 358.362 3.11366 -0.435737 0
M  V30 3882 N 362.134 1.5431 0.320358 0
M  V30 3883 C 363.381 1.72668 1.05792 0
M  V30 3884 C 363.709 0.502084 1.87908 0
M  V30 3885 O 362.964 -0.516149 1.88771 0
M  V30 3886 C 363.263 2.95639 2.00828 0
M  V30 3887 C 362.929 4.30265 1.34843 0
M  V30 3888 C 361.591 4.66865 1.16578 0
M  V30 3889 C 363.943 5.13801 0.875095 0
M  V30 3890 C 361.271 5.84597 0.496336 0
M  V30 3891 C 363.623 6.32219 0.219463 0
M  V30 3892 C 362.287 6.67495 0.0246915 0
M  V30 3893 H 361.557 0.631837 0.387121 0
M  V30 3894 H 364.204 1.88552 0.334735 0
M  V30 3895 H 362.509 2.74456 2.79609 0
M  V30 3896 H 364.206 3.07038 2.57932 0
M  V30 3897 H 360.796 4.01472 1.50061 0
M  V30 3898 H 364.98 4.86039 1.00398 0
M  V30 3899 H 360.236 6.10486 0.334264 0
M  V30 3900 H 364.41 6.96227 -0.155291 0
M  V30 3901 H 362.037 7.5858 -0.496065 0
M  V30 3902 N 363.613 -0.582584 1.46437 0
M  V30 3903 C 364.563 -1.68654 1.53426 0
M  V30 3904 C 365.547 -1.55971 0.395194 0
M  V30 3905 O 366.739 -1.64884 0.643612 0
M  V30 3906 C 363.868 -3.07439 1.52762 0
M  V30 3907 C 362.954 -3.25418 2.71963 0
M  V30 3908 N 363.345 -3.13556 3.96883 0
M  V30 3909 C 361.643 -3.56357 2.68189 0
M  V30 3910 C 362.344 -3.33543 4.76575 0
M  V30 3911 N 361.32 -3.58704 4.08451 0
M  V30 3912 H 365.122 -1.58014 2.47808 0
M  V30 3913 H 362.636 -0.786617 1.42078 0
M  V30 3914 H 364.633 -3.86671 1.55857 0
M  V30 3915 H 363.293 -3.1921 0.594573 0
M  V30 3916 H 364.304 -2.9142 4.28129 0
M  V30 3917 H 360.981 -3.74812 1.83908 0
M  V30 3918 H 362.371 -3.29555 5.85528 0
M  V30 3919 N 365.091 -1.34144 -0.827227 0
M  V30 3920 C 366.041 -1.21923 -1.92663 0
M  V30 3921 C 367.025 -0.119294 -1.60457 0
M  V30 3922 O 368.217 -0.348539 -1.73534 0
M  V30 3923 C 365.346 -0.972492 -3.29238 0
M  V30 3924 C 364.432 -2.1154 -3.67576 0
M  V30 3925 N 364.823 -3.36627 -3.77512 0
M  V30 3926 C 363.121 -2.02468 -3.97395 0
M  V30 3927 C 363.822 -4.11658 -4.1099 0
M  V30 3928 N 362.798 -3.40207 -4.23981 0
M  V30 3929 H 366.6 -2.16721 -1.98517 0
M  V30 3930 H 364.114 -1.2632 -1.02064 0
M  V30 3931 H 366.111 -0.865847 -4.0781 0
M  V30 3932 H 364.771 -0.0331509 -3.24683 0
M  V30 3933 H 365.782 -3.71234 -3.61118 0
M  V30 3934 H 362.459 -1.16265 -4.00985 0
M  V30 3935 H 363.849 -5.19657 -4.25918 0
M  V30 3936 N 366.569 1.04691 -1.17803 0
M  V30 3937 C 367.816 1.77782 -0.969532 0
M  V30 3938 C 368.144 1.87926 0.501401 0
M  V30 3939 O 367.399 1.37918 1.38842 0
M  V30 3940 C 367.698 3.21467 -1.56186 0
M  V30 3941 C 367.364 3.3137 -3.05786 0
M  V30 3942 C 366.026 3.3378 -3.46619 0
M  V30 3943 C 368.378 3.31976 -4.01797 0
M  V30 3944 C 365.706 3.34431 -4.82051 0
M  V30 3945 C 368.058 3.34167 -5.37136 0
M  V30 3946 C 366.722 3.34866 -5.77426 0
M  V30 3947 H 365.992 0.650549 -0.354777 0
M  V30 3948 H 368.639 1.23006 -1.46772 0
M  V30 3949 H 366.944 3.79203 -0.985515 0
M  V30 3950 H 368.641 3.76652 -1.37602 0
M  V30 3951 H 365.231 3.3021 -2.73238 0
M  V30 3952 H 369.415 3.29311 -3.71306 0
M  V30 3953 H 364.671 3.33285 -5.12573 0
M  V30 3954 H 368.845 3.33585 -6.11305 0
M  V30 3955 H 366.472 3.35124 -6.82346 0
M  V30 3956 N 368.047 0.979072 1.23499 0
M  V30 3957 C 368.977 0.537606 2.27227 0
M  V30 3958 C 369.958 -0.428539 1.64613 0
M  V30 3959 O 371.143 -0.322191 1.91509 0
M  V30 3960 C 368.273 -0.162052 3.46922 0
M  V30 3961 C 367.227 0.721242 4.21879 0
M  V30 3962 C 366.553 -0.110555 5.34586 0
M  V30 3963 C 367.853 2.01141 4.82016 0
M  V30 3964 H 369.547 1.40462 2.64406 0
M  V30 3965 H 367.093 0.67684 1.27102 0
M  V30 3966 H 369.046 -0.482192 4.18632 0
M  V30 3967 H 367.77 -1.06351 3.08799 0
M  V30 3968 H 366.429 1.02482 3.51984 0
M  V30 3969 H 366.077 -1.0125 4.92704 0
M  V30 3970 H 365.777 0.477325 5.85658 0
M  V30 3971 H 367.301 -0.425107 6.09118 0
M  V30 3972 H 368.715 1.75612 5.45741 0
M  V30 3973 H 367.112 2.54695 5.43369 0
M  V30 3974 H 368.182 2.69909 4.02836 0
M  V30 3975 N 369.525 -1.3858 0.750561 0
M  V30 3976 C 370.472 -2.30483 0.120835 0
M  V30 3977 C 371.442 -1.50022 -0.712923 0
M  V30 3978 O 372.627 -1.78662 -0.669676 0
M  V30 3979 C 369.767 -3.36431 -0.768666 0
M  V30 3980 C 368.88 -4.31927 0.0793922 0
M  V30 3981 C 368.015 -5.24944 -0.81283 0
M  V30 3982 C 367.054 -6.12088 0.0390447 0
M  V30 3983 N 366.191 -6.97412 -0.809969 0
M  V30 3984 H 371.031 -2.83761 0.91015 0
M  V30 3985 H 368.568 -1.39707 0.460463 0
M  V30 3986 H 370.526 -3.96462 -1.29898 0
M  V30 3987 H 369.156 -2.8457 -1.5238 0
M  V30 3988 H 368.208 -3.73382 0.727303 0
M  V30 3989 H 369.52 -4.93319 0.737401 0
M  V30 3990 H 368.674 -5.90078 -1.41042 0
M  V30 3991 H 367.413 -4.63911 -1.50458 0
M  V30 3992 H 366.418 -5.45952 0.649328 0
M  V30 3993 H 367.643 -6.75189 0.727809 0
M  V30 3994 H 365.589 -6.38931 -1.48672 0
M  V30 3995 H 365.506 -7.55712 -0.208789 0
M  V30 3996 H 366.774 -7.66959 -1.39263 0
M  V30 3997 N 371.003 -0.499398 -1.49478 0
M  V30 3998 C 371.933 0.269244 -2.31943 0
M  V30 3999 C 372.914 0.964054 -1.40143 0
M  V30 4000 O 374.099 0.955767 -1.69052 0
M  V30 4001 C 371.229 1.33504 -3.20615 0
M  V30 4002 C 370.183 0.760202 -4.21195 0
M  V30 4003 C 369.509 1.9264 -4.98792 0
M  V30 4004 C 370.809 -0.247661 -5.21712 0
M  V30 4005 H 372.503 -0.419082 -2.96452 0
M  V30 4006 H 370.049 -0.202988 -1.42562 0
M  V30 4007 H 372.002 1.88048 -3.77115 0
M  V30 4008 H 370.726 2.05253 -2.54045 0
M  V30 4009 H 369.385 0.23653 -3.65836 0
M  V30 4010 H 369.033 2.63154 -4.28671 0
M  V30 4011 H 368.733 1.54785 -5.66847 0
M  V30 4012 H 370.257 2.4762 -5.58137 0
M  V30 4013 H 371.671 0.209579 -5.72917 0
M  V30 4014 H 370.068 -0.541962 -5.97648 0
M  V30 4015 H 371.138 -1.16409 -4.7072 0
M  V30 4016 N 372.481 1.55866 -0.233164 0
M  V30 4017 C 373.444 2.1953 0.658715 0
M  V30 4018 C 374.444 1.16053 1.11303 0
M  V30 4019 O 375.634 1.41218 1.01996 0
M  V30 4020 C 372.766 2.82791 1.90373 0
M  V30 4021 H 373.959 2.99721 0.10347 0
M  V30 4022 H 371.512 1.56291 0.0164245 0
M  V30 4023 H 372.247 2.06501 2.50056 0
M  V30 4024 H 372.032 3.58578 1.58632 0
M  V30 4025 H 373.522 3.31556 2.53891 0
M  V30 4026 N 373.959 -0.0401083 1.57549 0
M  V30 4027 C 374.889 -1.04384 2.08869 0
M  V30 4028 C 375.87 -1.38407 0.988817 0
M  V30 4029 O 377.055 -1.47483 1.26342 0
M  V30 4030 C 374.185 -2.34808 2.55895 0
M  V30 4031 C 373.139 -2.15057 3.70047 0
M  V30 4032 C 372.465 -3.51145 4.03239 0
M  V30 4033 C 373.765 -1.54576 4.98902 0
M  V30 4034 H 375.459 -0.616666 2.92981 0
M  V30 4035 H 373.005 -0.295184 1.40942 0
M  V30 4036 H 374.958 -3.05346 2.90417 0
M  V30 4037 H 373.682 -2.79565 1.68853 0
M  V30 4038 H 372.341 -1.46954 3.35857 0
M  V30 4039 H 371.989 -3.93529 3.13279 0
M  V30 4040 H 371.689 -3.38758 4.80122 0
M  V30 4041 H 373.213 -4.23062 4.40285 0
M  V30 4042 H 374.627 -2.15017 5.31451 0
M  V30 4043 H 373.024 -1.52796 5.80322 0
M  V30 4044 H 374.094 -0.51039 4.82206 0
M  V30 4045 N 375.437 -1.54477 -0.31217 0
M  V30 4046 C 376.665 -1.77205 -1.068 0
M  V30 4047 C 377.08 -0.526114 -1.81321 0
M  V30 4048 O 376.437 0.503647 -1.75413 0
M  V30 4049 C 376.488 -2.97253 -2.05725 0
M  V30 4050 O 376.209 -4.1703 -1.34228 0
M  V30 4051 C 377.71 -3.32281 -2.93435 0
M  V30 4052 H 374.93 -0.591287 -0.317208 0
M  V30 4053 H 377.474 -2.01398 -0.354834 0
M  V30 4054 H 375.629 -2.753 -2.72559 0
M  V30 4055 H 376.043 -4.84636 -2.00571 0
M  V30 4056 H 377.517 -4.19551 -3.58721 0
M  V30 4057 H 377.994 -2.49945 -3.61143 0
M  V30 4058 H 378.6 -3.56353 -2.32147 0
M  V30 4059 N 376.915 0.57481 -1.46744 0
M  V30 4060 C 377.862 1.68329 -1.57905 0
M  V30 4061 C 378.832 1.60625 -0.422927 0
M  V30 4062 O 380.017 1.79721 -0.640711 0
M  V30 4063 C 377.157 3.06665 -1.58274 0
M  V30 4064 C 376.27 3.24935 -2.84678 0
M  V30 4065 C 375.405 4.53566 -2.76499 0
M  V30 4066 C 374.444 4.65207 -3.97806 0
M  V30 4067 N 373.581 5.85172 -3.87967 0
M  V30 4068 H 378.421 1.58127 -2.52587 0
M  V30 4069 H 375.958 0.770552 -1.25303 0
M  V30 4070 H 377.916 3.86745 -1.56473 0
M  V30 4071 H 376.546 3.15745 -0.671194 0
M  V30 4072 H 375.598 2.38405 -2.96424 0
M  V30 4073 H 376.91 3.29403 -3.7456 0
M  V30 4074 H 376.064 5.41885 -2.72848 0
M  V30 4075 H 374.803 4.51548 -1.8427 0
M  V30 4076 H 373.808 3.75304 -4.0178 0
M  V30 4077 H 375.033 4.68997 -4.9114 0
M  V30 4078 H 372.979 5.84137 -2.98529 0
M  V30 4079 H 372.896 5.90943 -4.71511 0
M  V30 4080 H 374.164 6.759 -3.88303 0
M  V30 4081 N 378.394 1.34581 0.820102 0
M  V30 4082 C 379.342 1.26401 1.95258 0
M  V30 4083 C 380.336 0.161553 1.68628 0
M  V30 4084 O 381.542 0.326703 1.7701 0
M  V30 4085 H 377.917 0.392749 0.64129 0
M  V30 4086 H 379.888 2.22105 1.99279 0
M  V30 4087 C 378.637 1.03919 3.31807 0
M  V30 4088 H 377.96 1.87984 3.52848 0
M  V30 4089 H 379.4 1.02232 4.11491 0
M  V30 4090 C 377.859 -0.257433 3.35915 0
M  V30 4091 O 378.389 -1.25784 3.81499 0
M  V30 4092 N 376.595 -0.291524 2.89134 0
M  V30 4093 H 376.142 0.523161 2.52232 0
M  V30 4094 H 376.1 -1.15883 2.92264 0
M  V30 4095 N 379.872 -1.04064 1.18357 0
M  V30 4096 C 381.283 -1.58719 0.98312 0
M  V30 4097 C 381.634 -1.90556 -0.467193 0
M  V30 4098 O 380.759 -1.69561 -1.34454 0
M  V30 4099 C 381.354 -2.88379 1.77828 0
M  V30 4100 C 379.913 -3.3965 1.62218 0
M  V30 4101 C 379.06 -2.13235 1.77274 0
M  V30 4102 H 382.011 -0.867359 1.32901 0
M  V30 4103 H 382.032 -3.58773 1.26737 0
M  V30 4104 H 381.544 -2.65176 2.83379 0
M  V30 4105 H 379.645 -3.67866 0.592036 0
M  V30 4106 H 379.758 -4.13475 2.42023 0
M  V30 4107 H 378.122 -2.24542 1.20221 0
M  V30 4108 H 378.905 -1.92487 2.8426 0
M  V30 4109 N 381.35 -0.985608 -1.22978 0
M  V30 4110 C 382.297 -0.529825 -2.24636 0
M  V30 4111 C 383.267 0.434028 -1.60329 0
M  V30 4112 O 384.452 0.340414 -1.87739 0
M  V30 4113 C 381.592 0.156533 -3.44745 0
M  V30 4114 C 380.705 -0.848197 -4.23591 0
M  V30 4115 C 379.84 -0.136109 -5.31026 0
M  V30 4116 C 378.879 -1.1297 -6.01585 0
M  V30 4117 N 378.016 -0.446415 -7.00679 0
M  V30 4118 H 382.856 -1.40148 -2.62988 0
M  V30 4119 H 380.393 -0.702168 -1.29259 0
M  V30 4120 H 382.351 0.571324 -4.1327 0
M  V30 4121 H 380.981 0.992025 -3.07179 0
M  V30 4122 H 380.033 -1.38135 -3.54433 0
M  V30 4123 H 381.345 -1.60512 -4.72268 0
M  V30 4124 H 380.499 0.335784 -6.0577 0
M  V30 4125 H 379.238 0.653373 -4.83304 0
M  V30 4126 H 378.243 -1.6123 -5.25628 0
M  V30 4127 H 379.468 -1.91993 -6.51395 0
M  V30 4128 H 377.414 0.323763 -6.55201 0
M  V30 4129 H 377.331 -1.1419 -7.47326 0
M  V30 4130 H 378.599 0.00291697 -7.795 0
M  V30 4131 N 382.828 1.3818 -0.7579 0
M  V30 4132 C 383.775 2.30416 -0.133057 0
M  V30 4133 C 384.745 1.50398 0.704957 0
M  V30 4134 O 385.93 1.79014 0.660192 0
M  V30 4135 C 383.07 3.36834 0.750813 0
M  V30 4136 C 382.183 4.31879 -0.102297 0
M  V30 4137 C 381.318 5.25368 0.784979 0
M  V30 4138 C 380.357 6.12058 -0.0715046 0
M  V30 4139 N 379.494 6.97832 0.772972 0
M  V30 4140 H 384.334 2.83274 -0.925186 0
M  V30 4141 H 381.871 1.39461 -0.467866 0
M  V30 4142 H 383.829 3.97145 1.27794 0
M  V30 4143 H 382.459 2.85374 1.50868 0
M  V30 4144 H 381.511 3.72991 -0.747095 0
M  V30 4145 H 382.823 4.92921 -0.763552 0
M  V30 4146 H 381.977 5.90818 1.37911 0
M  V30 4147 H 380.716 4.64703 1.47996 0
M  V30 4148 H 379.721 5.456 -0.678272 0
M  V30 4149 H 380.946 6.74793 -0.763606 0
M  V30 4150 H 378.892 6.3971 1.45282 0
M  V30 4151 H 378.809 7.55812 0.168709 0
M  V30 4152 H 380.077 7.67687 1.35194 0
M  V30 4153 N 384.306 0.507319 1.49211 0
M  V30 4154 C 385.722 0.163682 1.58758 0
M  V30 4155 C 385.922 -1.33208 1.51188 0
M  V30 4156 O 384.978 -2.10855 1.38911 0
M  V30 4157 C 386.291 0.746095 2.91297 0
M  V30 4158 C 387.839 0.712773 3.04776 0
M  V30 4159 C 388.314 1.27336 4.39943 0
M  V30 4160 N 389.805 1.23433 4.46451 0
M  V30 4161 C 390.54 1.63821 5.495 0
M  V30 4162 N 390.036 2.11832 6.5962 0
M  V30 4163 N 391.829 1.55198 5.4025 0
M  V30 4164 H 383.98 1.47972 1.52375 0
M  V30 4165 H 386.243 0.614147 0.722168 0
M  V30 4166 H 385.949 1.79534 3.02424 0
M  V30 4167 H 385.823 0.210137 3.76614 0
M  V30 4168 H 388.21 -0.327656 2.93275 0
M  V30 4169 H 388.291 1.28595 2.21127 0
M  V30 4170 H 387.935 2.3126 4.52196 0
M  V30 4171 H 387.865 0.676066 5.22242 0
M  V30 4172 H 390.356 0.882627 3.67448 0
M  V30 4173 H 390.669 2.40703 7.34358 0
M  V30 4174 H 389.014 2.1581 6.60644 0
M  V30 4175 H 392.205 1.17505 4.53112 0
M  V30 4176 H 392.378 1.86997 6.20432 0
M  V30 4177 N 385.784 -1.5574 0.241426 0
M  V30 4178 C 387.195 -1.84842 -0.262755 0
M  V30 4179 C 387.546 -1.16317 -1.58003 0
M  V30 4180 O 386.671 -0.439653 -2.11887 0
M  V30 4181 C 387.266 -3.35332 -0.483523 0
M  V30 4182 C 385.825 -3.6468 -0.931977 0
M  V30 4183 C 384.972 -2.77299 -0.0061151 0
M  V30 4184 H 387.923 -1.51761 0.464129 0
M  V30 4185 H 387.944 -3.56615 -1.32688 0
M  V30 4186 H 387.456 -3.85178 0.47537 0
M  V30 4187 H 385.557 -3.20307 -1.90353 0
M  V30 4188 H 385.67 -4.72498 -0.792628 0
M  V30 4189 H 384.034 -2.49408 -0.516503 0
M  V30 4190 H 384.817 -3.2995 0.948052 0
M  V30 4191 N 387.262 0.0317525 -1.57568 0
M  V30 4192 C 388.49 0.734949 -1.93407 0
M  V30 4193 C 388.905 1.69036 -0.84096 0
M  V30 4194 O 388.262 1.81582 0.182836 0
M  V30 4195 C 388.313 1.49432 -3.29169 0
M  V30 4196 O 388.034 0.577261 -4.3428 0
M  V30 4197 C 389.535 2.29492 -3.79273 0
M  V30 4198 H 386.755 0.206706 -0.638368 0
M  V30 4199 H 389.299 -0.00992046 -2.04498 0
M  V30 4200 H 387.454 2.1911 -3.19483 0
M  V30 4201 H 387.868 1.10952 -5.1263 0
M  V30 4202 H 389.342 2.78172 -4.76785 0
M  V30 4203 H 389.819 3.10794 -3.10328 0
M  V30 4204 H 390.425 1.64894 -3.92033 0
M  V30 4205 N 388.74 1.54641 0.303973 0
M  V30 4206 C 389.703 1.84646 1.35789 0
M  V30 4207 C 390.703 0.7192 1.4382 0
M  V30 4208 O 391.893 0.987491 1.43507 0
M  V30 4209 C 389.025 2.02407 2.74307 0
M  V30 4210 H 390.218 2.78829 1.10429 0
M  V30 4211 H 387.771 1.46658 0.540487 0
M  V30 4212 H 388.506 1.10502 3.04893 0
M  V30 4213 H 388.291 2.84453 2.69868 0
M  V30 4214 H 389.781 2.27002 3.50514 0
M  V30 4215 N 390.218 -0.567019 1.47046 0
M  V30 4216 C 391.128 -1.70247 1.6141 0
M  V30 4217 C 392.144 -1.66746 0.497157 0
M  V30 4218 O 393.32 -1.86371 0.763389 0
M  V30 4219 C 390.385 -3.06756 1.61561 0
M  V30 4220 C 389.446 -3.21399 2.84607 0
M  V30 4221 C 388.679 -4.51396 2.84741 0
M  V30 4222 O 388.902 -5.36255 1.94388 0
M  V30 4223 O 387.836 -4.69621 3.76483 0
M  V30 4224 H 391.662 -1.61073 2.57467 0
M  V30 4225 H 389.247 -0.735894 1.30019 0
M  V30 4226 H 391.129 -3.8801 1.64396 0
M  V30 4227 H 389.804 -3.16333 0.686684 0
M  V30 4228 H 388.711 -2.39579 2.8732 0
M  V30 4229 H 390.044 -3.16721 3.76761 0
M  V30 4230 N 391.696 -1.35014 -0.812953 0
M  V30 4231 C 392.643 -1.27412 -1.92444 0
M  V30 4232 C 393.613 -0.14733 -1.65445 0
M  V30 4233 O 394.798 -0.329974 -1.87925 0
M  V30 4234 C 391.938 -1.04558 -3.28879 0
M  V30 4235 C 391.051 -2.26101 -3.68106 0
M  V30 4236 C 390.186 -1.96449 -4.9354 0
M  V30 4237 C 389.225 -3.14081 -5.25376 0
M  V30 4238 N 388.362 -2.84246 -6.41988 0
M  V30 4239 H 393.202 -2.22463 -1.98278 0
M  V30 4240 H 390.739 -1.10593 -0.969933 0
M  V30 4241 H 392.697 -0.893413 -4.07522 0
M  V30 4242 H 391.327 -0.131719 -3.22531 0
M  V30 4243 H 390.379 -2.52204 -2.84775 0
M  V30 4244 H 391.691 -3.13959 -3.87597 0
M  V30 4245 H 390.845 -1.78026 -5.79993 0
M  V30 4246 H 389.584 -1.05867 -4.76071 0
M  V30 4247 H 388.589 -3.33089 -4.37415 0
M  V30 4248 H 389.814 -4.05455 -5.44778 0
M  V30 4249 H 387.76 -1.96252 -6.25956 0
M  V30 4250 H 387.677 -3.65637 -6.61699 0
M  V30 4251 H 388.945 -2.6935 -7.31485 0
M  V30 4252 N 393.175 1.03435 -1.18907 0
M  V30 4253 C 394.105 2.13503 -0.945448 0
M  V30 4254 C 395.086 1.69682 0.119189 0
M  V30 4255 O 396.271 1.94169 -0.034707 0
M  V30 4256 C 393.401 3.44004 -0.477316 0
M  V30 4257 C 392.355 4.0148 -1.48316 0
M  V30 4258 C 391.681 5.27537 -0.872311 0
M  V30 4259 C 392.981 4.36921 -2.86177 0
M  V30 4260 H 394.675 2.34141 -1.86597 0
M  V30 4261 H 392.221 1.12523 -0.898584 0
M  V30 4262 H 394.174 4.20372 -0.294204 0
M  V30 4263 H 392.898 3.23072 0.478786 0
M  V30 4264 H 391.557 3.27201 -1.65332 0
M  V30 4265 H 391.205 5.02917 0.0911752 0
M  V30 4266 H 390.905 5.66954 -1.54393 0
M  V30 4267 H 392.429 6.06576 -0.699871 0
M  V30 4268 H 393.843 5.04248 -2.72776 0
M  V30 4269 H 392.24 4.87405 -3.50081 0
M  V30 4270 H 393.31 3.46466 -3.39248 0
M  V30 4271 N 394.653 0.992116 1.22453 0
M  V30 4272 C 395.583 0.561677 2.26644 0
M  V30 4273 C 396.564 -0.411055 1.65059 0
M  V30 4274 O 397.749 -0.301861 1.9184 0
M  V30 4275 C 394.879 -0.125247 3.47074 0
M  V30 4276 C 393.833 0.765948 4.21091 0
M  V30 4277 C 393.159 -0.0538484 5.34673 0
M  V30 4278 C 394.459 2.06242 4.79856 0
M  V30 4279 H 396.153 1.43259 2.62902 0
M  V30 4280 H 393.699 0.690283 1.26377 0
M  V30 4281 H 395.652 -0.437764 4.1912 0
M  V30 4282 H 394.376 -1.03069 3.0991 0
M  V30 4283 H 393.035 1.0621 3.50878 0
M  V30 4284 H 392.683 -0.960188 4.9375 0
M  V30 4285 H 392.383 0.539415 5.85119 0
M  V30 4286 H 393.907 -0.360477 6.09535 0
M  V30 4287 H 395.321 1.8139 5.43848 0
M  V30 4288 H 393.718 2.60444 5.40638 0
M  V30 4289 H 394.788 2.74167 3.99951 0
M  V30 4290 N 396.131 -1.37776 0.765217 0
M  V30 4291 C 397.063 -2.28958 0.105361 0
M  V30 4292 C 398.076 -1.48316 -0.67128 0
M  V30 4293 O 399.265 -1.71046 -0.51045 0
M  V30 4294 C 396.365 -3.27421 -0.874569 0
M  V30 4295 C 395.538 -4.37132 -0.153123 0
M  V30 4296 C 394.597 -5.1571 -1.04547 0
M  V30 4297 O 393.623 -5.66896 -0.511672 0
M  V30 4298 N 394.825 -5.29808 -2.37243 0
M  V30 4299 H 397.59 -2.86227 0.888495 0
M  V30 4300 H 395.151 -1.49682 0.617 0
M  V30 4301 H 397.143 -3.7687 -1.47483 0
M  V30 4302 H 395.713 -2.70967 -1.55871 0
M  V30 4303 H 394.933 -3.89166 0.627975 0
M  V30 4304 H 396.221 -5.07625 0.345643 0
M  V30 4305 H 395.619 -4.89793 -2.83054 0
M  V30 4306 H 394.176 -5.82589 -2.9229 0
M  V30 4307 N 397.609 -0.515225 -1.4894 0
M  V30 4308 C 398.559 0.275113 -2.26334 0
M  V30 4309 C 399.543 0.923007 -1.31793 0
M  V30 4310 O 400.735 0.828254 -1.56426 0
M  V30 4311 C 397.864 1.33041 -3.16473 0
M  V30 4312 C 396.95 0.688051 -4.18481 0
M  V30 4313 N 397.341 -0.217638 -5.05332 0
M  V30 4314 C 395.639 0.94699 -4.3583 0
M  V30 4315 C 396.34 -0.58676 -5.78733 0
M  V30 4316 N 395.316 0.0486966 -5.43578 0
M  V30 4317 H 399.118 -0.421876 -2.90856 0
M  V30 4318 H 396.632 -0.332249 -1.58965 0
M  V30 4319 H 398.629 1.9102 -3.70563 0
M  V30 4320 H 397.289 2.02894 -2.53504 0
M  V30 4321 H 398.3 -0.589343 -5.14536 0
M  V30 4322 H 394.977 1.63719 -3.8406 0
M  V30 4323 H 396.367 -1.32855 -6.58634 0
M  V30 4324 N 399.087 1.5561 -0.249682 0
M  V30 4325 C 400.498 1.84979 0.252949 0
M  V30 4326 C 400.849 1.17153 1.57384 0
M  V30 4327 O 399.974 0.450884 2.11651 0
M  V30 4328 C 400.569 3.35584 0.465732 0
M  V30 4329 C 399.128 3.65169 0.912624 0
M  V30 4330 C 398.275 2.77299 -0.00859085 0
M  V30 4331 H 401.226 1.51513 -0.47217 0
M  V30 4332 H 401.247 3.57313 1.30795 0
M  V30 4333 H 400.759 3.8492 -0.49579 0
M  V30 4334 H 398.86 3.21312 1.88652 0
M  V30 4335 H 398.973 4.72912 0.767559 0
M  V30 4336 H 397.337 2.49678 0.50327 0
M  V30 4337 H 398.12 3.29442 -0.965537 0
M  V30 4338 N 400.565 -0.0233959 1.57583 0
M  V30 4339 C 401.812 -0.713063 1.8953 0
M  V30 4340 C 402.14 -1.75056 0.847673 0
M  V30 4341 O 401.395 -1.95119 -0.150636 0
M  V30 4342 C 401.694 -1.41428 3.28227 0
M  V30 4343 C 401.36 -0.512222 4.47981 0
M  V30 4344 C 400.022 -0.263785 4.80476 0
M  V30 4345 C 402.374 0.110248 5.21083 0
M  V30 4346 C 399.702 0.615804 5.83459 0
M  V30 4347 C 402.054 0.977573 6.25001 0
M  V30 4348 C 400.718 1.23542 6.55968 0
M  V30 4349 H 399.988 -0.260928 0.69354 0
M  V30 4350 H 402.635 0.0271047 1.91481 0
M  V30 4351 H 400.94 -2.22791 3.22291 0
M  V30 4352 H 402.637 -1.95355 3.50196 0
M  V30 4353 H 399.227 -0.716013 4.22577 0
M  V30 4354 H 403.411 -0.0687137 4.96252 0
M  V30 4355 H 398.667 0.82382 6.05824 0
M  V30 4356 H 402.841 1.46638 6.80786 0
M  V30 4357 H 400.468 1.91871 7.35588 0
M  V30 4358 N 402.043 -1.548 -0.295768 0
M  V30 4359 C 403.271 -1.78327 -1.04914 0
M  V30 4360 C 403.686 -0.545316 -1.80753 0
M  V30 4361 O 403.043 0.485013 -1.75937 0
M  V30 4362 C 403.094 -2.99418 -2.02561 0
M  V30 4363 O 402.815 -4.18431 -1.29798 0
M  V30 4364 C 404.316 -3.35375 -2.89895 0
M  V30 4365 H 401.536 -0.594618 -0.310918 0
M  V30 4366 H 404.08 -2.01763 -0.333454 0
M  V30 4367 H 402.235 -2.78175 -2.69624 0
M  V30 4368 H 402.649 -4.86736 -1.95419 0
M  V30 4369 H 404.123 -4.23332 -3.54251 0
M  V30 4370 H 404.6 -2.53761 -3.58472 0
M  V30 4371 H 405.206 -3.58796 -2.28355 0
M  V30 4372 N 403.521 0.559213 -1.47345 0
M  V30 4373 C 404.749 1.34194 -1.57479 0
M  V30 4374 C 405.164 1.87463 -0.224261 0
M  V30 4375 O 404.521 1.64888 0.782185 0
M  V30 4376 C 404.572 2.51324 -2.59843 0
M  V30 4377 O 404.293 2.00256 -3.89653 0
M  V30 4378 C 405.794 3.43563 -2.80142 0
M  V30 4379 H 403.014 0.409136 -0.531835 0
M  V30 4380 H 405.558 0.677609 -1.92947 0
M  V30 4381 H 403.713 3.13699 -2.27314 0
M  V30 4382 H 404.127 2.76708 -4.4557 0
M  V30 4383 H 405.601 4.2217 -3.55635 0
M  V30 4384 H 406.078 3.9698 -1.87892 0
M  V30 4385 H 406.684 2.87005 -3.1386 0
M  V30 4386 N 404.999 1.35443 0.805782 0
M  V30 4387 C 405.931 1.24285 1.92577 0
M  V30 4388 C 406.944 0.165962 1.61952 0
M  V30 4389 O 408.133 0.419303 1.73505 0
M  V30 4390 C 405.233 0.891272 3.2697 0
M  V30 4391 C 404.406 2.06669 3.85495 0
M  V30 4392 C 403.465 1.69077 4.98297 0
M  V30 4393 O 402.491 2.4096 5.15681 0
M  V30 4394 N 403.693 0.614869 5.77234 0
M  V30 4395 H 406.458 2.20777 2.02676 0
M  V30 4396 H 404.019 1.28623 0.983243 0
M  V30 4397 H 406.011 0.621256 3.99903 0
M  V30 4398 H 404.581 0.016004 3.12596 0
M  V30 4399 H 403.801 2.50046 3.04747 0
M  V30 4400 H 405.089 2.85237 4.21328 0
M  V30 4401 H 404.487 0.017648 5.65697 0
M  V30 4402 H 403.044 0.404636 6.50543 0
M  V30 4403 N 406.477 -1.02803 1.19454 0
M  V30 4404 C 407.409 -2.11181 0.890807 0
M  V30 4405 C 408.422 -1.6238 -0.116829 0
M  V30 4406 O 409.611 -1.78144 0.112694 0
M  V30 4407 C 406.711 -3.37461 0.311942 0
M  V30 4408 C 405.884 -4.15446 1.36834 0
M  V30 4409 C 404.943 -5.20039 0.802864 0
M  V30 4410 O 403.969 -5.49602 1.48077 0
M  V30 4411 N 405.171 -5.79165 -0.393417 0
M  V30 4412 H 407.936 -2.37827 1.82369 0
M  V30 4413 H 405.497 -1.19101 1.09666 0
M  V30 4414 H 407.489 -4.0462 -0.0802225 0
M  V30 4415 H 406.059 -3.08156 -0.52524 0
M  V30 4416 H 405.279 -3.43423 1.93531 0
M  V30 4417 H 406.567 -4.64335 2.08015 0
M  V30 4418 H 405.965 -5.57466 -0.961658 0
M  V30 4419 H 404.522 -6.47729 -0.727351 0
M  V30 4420 N 407.956 -0.998596 -1.21925 0
M  V30 4421 C 408.886 -0.573688 -2.26343 0
M  V30 4422 C 409.867 0.402296 -1.65274 0
M  V30 4423 O 411.052 0.291683 -1.91997 0
M  V30 4424 C 408.182 0.106839 -3.47136 0
M  V30 4425 C 407.136 -0.788269 -4.20678 0
M  V30 4426 C 406.462 0.0254927 -5.34694 0
M  V30 4427 C 407.762 -2.08784 -4.78755 0
M  V30 4428 H 409.456 -1.44651 -2.62138 0
M  V30 4429 H 407.002 -0.696975 -1.26009 0
M  V30 4430 H 408.955 0.415531 -4.19346 0
M  V30 4431 H 407.679 1.01424 -3.10452 0
M  V30 4432 H 406.338 -1.08069 -3.50309 0
M  V30 4433 H 405.986 0.933989 -4.94253 0
M  V30 4434 H 405.686 -0.570437 -5.84825 0
M  V30 4435 H 407.21 0.328147 -6.09718 0
M  V30 4436 H 408.624 -1.84272 -5.42878 0
M  V30 4437 H 407.021 -2.63307 -5.39249 0
M  V30 4438 H 408.091 -2.76284 -3.98491 0
M  V30 4439 N 409.434 1.37368 -0.772513 0
M  V30 4440 C 410.845 1.8231 -0.402493 0
M  V30 4441 C 411.196 1.6436 1.07146 0
M  V30 4442 O 410.321 1.15514 1.82991 0
M  V30 4443 C 410.916 3.30979 -0.723776 0
M  V30 4444 C 409.475 3.74195 -0.406802 0
M  V30 4445 C 408.622 2.59885 -0.967218 0
M  V30 4446 H 411.573 1.25829 -0.967099 0
M  V30 4447 H 411.594 3.80499 -0.00870832 0
M  V30 4448 H 411.106 3.44011 -1.7966 0
M  V30 4449 H 409.207 3.66732 0.658673 0
M  V30 4450 H 409.32 4.7027 -0.915588 0
M  V30 4451 H 407.684 2.51674 -0.391416 0
M  V30 4452 H 408.467 2.7571 -2.04546 0
M  V30 4453 N 410.912 0.523116 1.48665 0
M  V30 4454 C 412.328 0.180511 1.58576 0
M  V30 4455 C 412.528 -1.31597 1.52592 0
M  V30 4456 O 411.584 -2.0937 1.4114 0
M  V30 4457 C 412.897 0.776949 2.90489 0
M  V30 4458 C 414.445 0.745058 3.04003 0
M  V30 4459 C 414.92 1.31995 4.38567 0
M  V30 4460 N 416.411 1.28162 4.45117 0
M  V30 4461 C 417.146 1.6964 5.47731 0
M  V30 4462 N 416.642 2.18816 6.57337 0
M  V30 4463 N 418.435 1.6092 5.38573 0
M  V30 4464 H 410.586 1.4958 1.50797 0
M  V30 4465 H 412.849 0.621772 0.715614 0
M  V30 4466 H 412.555 1.82732 3.00503 0
M  V30 4467 H 412.429 0.25007 3.7637 0
M  V30 4468 H 414.816 -0.296532 2.93606 0
M  V30 4469 H 414.897 1.30933 2.1975 0
M  V30 4470 H 414.541 2.36043 4.49718 0
M  V30 4471 H 414.471 0.731418 5.21496 0
M  V30 4472 H 416.962 0.92155 3.66491 0
M  V30 4473 H 417.275 2.48478 7.31764 0
M  V30 4474 H 415.62 2.22805 6.58318 0
M  V30 4475 H 418.811 1.22304 4.5184 0
M  V30 4476 H 418.984 1.93567 6.18414 0
M  V30 4477 N 412.39 -1.55475 0.257931 0
M  V30 4478 C 413.353 -2.20551 -0.623706 0
M  V30 4479 C 414.353 -1.17809 -1.09443 0
M  V30 4480 O 415.543 -1.42823 -0.997362 0
M  V30 4481 C 412.675 -2.85784 -1.8585 0
M  V30 4482 H 413.868 -2.99848 -0.0557743 0
M  V30 4483 H 411.421 -1.56298 0.0084422 0
M  V30 4484 H 412.156 -2.10453 -2.46739 0
M  V30 4485 H 411.941 -3.61057 -1.52907 0
M  V30 4486 H 413.431 -3.35553 -2.48584 0
M  V30 4487 N 413.868 0.0150385 -1.57593 0
M  V30 4488 C 414.798 1.01047 -2.10503 0
M  V30 4489 C 415.779 1.36816 -1.01071 0
M  V30 4490 O 416.964 1.45455 -1.28672 0
M  V30 4491 C 414.094 2.30708 -2.59598 0
M  V30 4492 C 413.048 2.09142 -3.73421 0
M  V30 4493 C 412.374 3.44685 -4.08774 0
M  V30 4494 C 413.674 1.46619 -5.01298 0
M  V30 4495 H 415.368 0.569978 -2.93925 0
M  V30 4496 H 412.914 0.272724 -1.41394 0
M  V30 4497 H 414.867 3.00687 -2.95238 0
M  V30 4498 H 413.591 2.76843 -1.73279 0
M  V30 4499 H 412.25 1.41592 -3.38153 0
M  V30 4500 H 411.898 3.88495 -3.195 0
M  V30 4501 H 411.598 3.31077 -4.8545 0
M  V30 4502 H 413.122 4.16004 -4.4696 0
M  V30 4503 H 414.536 2.06535 -5.34805 0
M  V30 4504 H 412.933 1.43544 -5.82679 0
M  V30 4505 H 414.003 0.433611 -4.82957 0
M  V30 4506 N 415.346 1.54954 0.287554 0
M  V30 4507 C 416.276 1.89839 1.35954 0
M  V30 4508 C 417.257 0.758675 1.52244 0
M  V30 4509 O 418.442 1.01557 1.65529 0
M  V30 4510 C 415.572 2.15753 2.72154 0
M  V30 4511 C 414.526 3.3159 2.70614 0
M  V30 4512 C 413.852 3.42952 4.10229 0
M  V30 4513 C 415.152 4.68359 2.31165 0
M  V30 4514 H 416.846 2.79625 1.07007 0
M  V30 4515 H 414.392 1.3454 0.513316 0
M  V30 4516 H 416.345 2.38743 3.47246 0
M  V30 4517 H 415.069 1.22752 3.02654 0
M  V30 4518 H 413.728 3.08545 1.97979 0
M  V30 4519 H 413.376 2.47443 4.37928 0
M  V30 4520 H 413.076 4.20826 4.10097 0
M  V30 4521 H 414.6 3.68218 4.87081 0
M  V30 4522 H 416.014 4.9099 2.95976 0
M  V30 4523 H 414.411 5.49044 2.42221 0
M  V30 4524 H 415.481 4.68165 1.26291 0
M  V30 4525 N 416.824 -0.551391 1.4764 0
M  V30 4526 C 418.052 -1.33357 1.58189 0
M  V30 4527 C 418.467 -1.87342 0.234199 0
M  V30 4528 O 417.824 -1.65301 -0.77343 0
M  V30 4529 C 417.875 -2.49942 2.61173 0
M  V30 4530 O 417.596 -1.98187 3.90709 0
M  V30 4531 C 419.097 -3.42072 2.8196 0
M  V30 4532 H 416.317 -0.40631 0.533998 0
M  V30 4533 H 418.861 -0.667367 1.93304 0
M  V30 4534 H 417.016 -3.12489 2.28975 0
M  V30 4535 H 417.43 -2.74342 4.47031 0
M  V30 4536 H 418.904 -4.20278 3.57869 0
M  V30 4537 H 419.381 -3.95978 1.89995 0
M  V30 4538 H 419.987 -2.85336 3.15378 0
M  V30 4539 N 418.302 -1.35869 -0.798587 0
M  V30 4540 C 419.234 -1.25305 -1.91915 0
M  V30 4541 C 420.247 -0.174548 -1.61862 0
M  V30 4542 O 421.436 -0.428499 -1.73281 0
M  V30 4543 C 418.536 -0.9086 -3.26493 0
M  V30 4544 C 417.709 -2.08711 -3.84394 0
M  V30 4545 C 416.768 -1.71717 -4.97393 0
M  V30 4546 O 415.794 -2.43692 -5.14396 0
M  V30 4547 N 416.996 -0.645473 -5.769 0
M  V30 4548 H 419.761 -2.21849 -2.01502 0
M  V30 4549 H 417.322 -1.29143 -0.976408 0
M  V30 4550 H 419.314 -0.642455 -3.99568 0
M  V30 4551 H 417.884 -0.0325815 -3.12583 0
M  V30 4552 H 417.104 -2.51659 -3.03416 0
M  V30 4553 H 418.392 -2.87468 -4.19809 0
M  V30 4554 H 417.79 -0.047648 -5.6568 0
M  V30 4555 H 416.347 -0.43913 -6.50319 0
M  V30 4556 N 419.78 1.02168 -1.19998 0
M  V30 4557 C 420.71 2.12488 -0.96804 0
M  V30 4558 C 421.691 1.69799 0.101185 0
M  V30 4559 O 422.876 1.94121 -0.0552993 0
M  V30 4560 C 420.006 3.43479 -0.513776 0
M  V30 4561 C 418.96 3.99884 -1.52566 0
M  V30 4562 C 418.286 5.26582 -0.928214 0
M  V30 4563 C 419.586 4.33861 -2.90795 0
M  V30 4564 H 421.28 2.32149 -1.89069 0
M  V30 4565 H 418.826 1.11564 -0.910468 0
M  V30 4566 H 420.779 4.20036 -0.338774 0
M  V30 4567 H 419.503 3.23561 0.444493 0
M  V30 4568 H 418.162 3.25429 -1.68794 0
M  V30 4569 H 417.81 5.02986 0.0378289 0
M  V30 4570 H 417.51 5.65284 -1.60397 0
M  V30 4571 H 419.034 6.05799 -0.764167 0
M  V30 4572 H 420.448 5.01327 -2.78109 0
M  V30 4573 H 418.845 4.83664 -3.55231 0
M  V30 4574 H 419.915 3.42848 -3.42904 0
M  V30 4575 N 421.258 1.00505 1.21394 0
M  V30 4576 C 422.188 0.585684 2.26035 0
M  V30 4577 C 423.169 -0.393525 1.65485 0
M  V30 4578 O 424.354 -0.281497 1.92149 0
M  V30 4579 C 421.484 -0.0884283 3.47187 0
M  V30 4580 C 420.438 0.810567 4.20254 0
M  V30 4581 C 419.764 0.00286382 5.347 0
M  V30 4582 C 421.064 2.1132 4.77641 0
M  V30 4583 H 422.758 1.46039 2.61368 0
M  V30 4584 H 420.304 0.703648 1.25638 0
M  V30 4585 H 422.257 -0.393286 4.19561 0
M  V30 4586 H 420.981 -0.997766 3.10986 0
M  V30 4587 H 419.64 1.09925 3.49731 0
M  V30 4588 H 419.288 -0.907765 4.94741 0
M  V30 4589 H 418.988 0.601444 5.84514 0
M  V30 4590 H 420.512 -0.295808 6.09883 0
M  V30 4591 H 421.926 1.87148 5.41893 0
M  V30 4592 H 420.323 2.66164 5.37845 0
M  V30 4593 H 421.393 2.78393 3.9702 0
M  V30 4594 N 422.737 -1.36956 0.779787 0
M  V30 4595 C 424.014 -1.93697 0.272156 0
M  V30 4596 C 424.394 -1.71267 -1.23413 0
M  V30 4597 O 423.742 -1.06607 -2.02107 0
M  V30 4598 C 423.952 -3.42812 0.654291 0
M  V30 4599 C 425.3 -4.19921 0.628602 0
M  V30 4600 O 426.324 -3.51209 0.594172 0
M  V30 4601 O 425.183 -5.42465 0.662864 0
M  V30 4602 H 422.277 -0.824447 0.0649286 0
M  V30 4603 H 424.823 -1.46196 0.861682 0
M  V30 4604 H 423.595 -3.52754 1.69353 0
M  V30 4605 H 423.218 -3.97582 0.0381369 0
M  V30 4606 N 424.215 -0.530993 -1.48385 0
M  V30 4607 C 425.162 0.231223 -2.29639 0
M  V30 4608 C 426.132 0.932864 -1.37429 0
M  V30 4609 O 427.317 0.933692 -1.66394 0
M  V30 4610 C 424.457 1.27155 -3.2082 0
M  V30 4611 C 423.57 0.578655 -4.28107 0
M  V30 4612 C 422.705 1.602 -5.06467 0
M  V30 4613 C 421.744 0.892625 -6.05556 0
M  V30 4614 N 420.881 1.86157 -6.76971 0
M  V30 4615 H 425.721 -0.467848 -2.94305 0
M  V30 4616 H 423.258 -0.242556 -1.45086 0
M  V30 4617 H 425.216 1.88703 -3.72085 0
M  V30 4618 H 423.846 1.939 -2.58075 0
M  V30 4619 H 422.898 -0.150782 -3.80101 0
M  V30 4620 H 424.21 0.0217065 -4.98795 0
M  V30 4621 H 423.364 2.29173 -5.61751 0
M  V30 4622 H 422.103 2.19285 -4.35621 0
M  V30 4623 H 421.108 0.188829 -5.49476 0
M  V30 4624 H 422.333 0.307878 -6.78402 0
M  V30 4625 H 420.279 2.44147 -6.08875 0
M  V30 4626 H 420.196 1.35608 -7.43738 0
M  V30 4627 H 421.464 2.54325 -7.36844 0
M  V30 4628 N 425.693 1.55336 -0.266172 0
M  V30 4629 C 426.656 2.20878 0.612001 0
M  V30 4630 C 427.656 1.18388 1.08816 0
M  V30 4631 O 428.846 1.4335 0.989774 0
M  V30 4632 C 425.978 2.86765 1.84332 0
M  V30 4633 H 427.171 2.99873 0.0398718 0
M  V30 4634 H 424.724 1.56291 -0.0167309 0
M  V30 4635 H 425.459 2.11759 2.45619 0
M  V30 4636 H 425.244 3.61862 1.5099 0
M  V30 4637 H 426.734 3.36867 2.46801 0
M  V30 4638 N 427.171 -0.0066808 1.57599 0
M  V30 4639 C 428.396 -0.707738 1.94951 0
M  V30 4640 C 428.821 -1.66882 0.867868 0
M  V30 4641 O 428.179 -1.80457 -0.17458 0
M  V30 4642 C 428.227 -1.42162 3.31394 0
M  V30 4643 O 427.331 -2.53578 3.25226 0
M  V30 4644 H 426.672 -0.188752 0.636607 0
M  V30 4645 H 429.202 0.0445193 2.04552 0
M  V30 4646 H 429.212 -1.78655 3.66806 0
M  V30 4647 H 427.887 -0.716903 4.09675 0
M  V30 4648 H 426.464 -2.19463 3.01481 0
M  V30 4649 N 428.649 -1.55105 -0.279332 0
M  V30 4650 C 429.926 -1.66119 -1.03267 0
M  V30 4651 C 430.306 -0.523525 -2.04505 0
M  V30 4652 O 429.654 0.477194 -2.23462 0
M  V30 4653 C 429.864 -3.05067 -1.69515 0
M  V30 4654 C 431.212 -3.62606 -2.20912 0
M  V30 4655 O 432.236 -3.07659 -1.79512 0
M  V30 4656 O 431.095 -4.58861 -2.96831 0
M  V30 4657 H 428.189 -0.674429 -0.478618 0
M  V30 4658 H 430.735 -1.67446 -0.275694 0
M  V30 4659 H 429.507 -3.79311 -0.9612 0
M  V30 4660 H 429.13 -3.07611 -2.51915 0
M  V30 4661 N 430.127 0.543554 -1.4793 0
M  V30 4662 C 431.538 1.12561 -1.48953 0
M  V30 4663 C 431.889 1.94578 -0.251754 0
M  V30 4664 O 431.014 2.0665 0.642255 0
M  V30 4665 C 431.609 2.04801 -2.69892 0
M  V30 4666 C 430.168 2.58251 -2.73831 0
M  V30 4667 C 429.315 1.34918 -2.42265 0
M  V30 4668 H 432.266 0.32947 -1.55242 0
M  V30 4669 H 432.287 2.88886 -2.47639 0
M  V30 4670 H 431.799 1.4508 -3.59963 0
M  V30 4671 H 429.9 3.21732 -1.87934 0
M  V30 4672 H 430.013 2.98312 -3.74895 0
M  V30 4673 H 428.377 1.66046 -1.93134 0
M  V30 4674 H 429.16 0.769693 -3.3456 0
M  V30 4675 N 431.605 1.3629 0.791371 0
M  V30 4676 C 432.555 1.26988 1.89362 0
M  V30 4677 C 433.539 0.161795 1.60084 0
M  V30 4678 O 434.731 0.394426 1.72549 0
M  V30 4679 C 431.86 1.05944 3.26544 0
M  V30 4680 C 430.946 2.21211 3.61838 0
M  V30 4681 N 431.337 3.46518 3.68455 0
M  V30 4682 C 429.635 2.12933 3.91887 0
M  V30 4683 C 430.336 4.2241 3.99931 0
M  V30 4684 N 429.312 3.51329 4.14812 0
M  V30 4685 H 433.114 2.21908 1.92702 0
M  V30 4686 H 430.628 1.28982 0.986787 0
M  V30 4687 H 432.625 0.973666 4.05371 0
M  V30 4688 H 431.285 0.119223 3.24481 0
M  V30 4689 H 432.296 3.80677 3.51148 0
M  V30 4690 H 428.973 1.26855 3.97761 0
M  V30 4691 H 430.363 5.30767 4.1199 0
M  V30 4692 N 433.083 -1.0153 1.20538 0
M  V30 4693 C 434.013 -2.11972 0.979295 0
M  V30 4694 C 434.994 -1.6985 -0.0921787 0
M  V30 4695 O 436.179 -1.94089 0.0655932 0
M  V30 4696 C 433.309 -3.43201 0.531984 0
M  V30 4697 C 432.263 -3.9907 1.54685 0
M  V30 4698 C 431.589 -5.26082 0.956127 0
M  V30 4699 C 432.889 -4.32313 2.93092 0
M  V30 4700 H 434.583 -2.31143 1.90298 0
M  V30 4701 H 432.129 -1.11079 0.916372 0
M  V30 4702 H 434.082 -4.1985 0.361044 0
M  V30 4703 H 432.806 -3.23792 -0.427327 0
M  V30 4704 H 431.465 -3.2453 1.70517 0
M  V30 4705 H 431.113 -5.02999 -0.0111538 0
M  V30 4706 H 430.813 -5.64426 1.63393 0
M  V30 4707 H 432.337 -6.05386 0.796284 0
M  V30 4708 H 433.751 -4.99845 2.80763 0
M  V30 4709 H 432.148 -4.81774 3.57791 0
M  V30 4710 H 433.218 -3.41025 3.44717 0
M  V30 4711 N 434.561 -1.01147 -1.20859 0
M  V30 4712 C 435.809 -0.696486 -1.89719 0
M  V30 4713 C 436.13 0.775788 -1.78904 0
M  V30 4714 O 435.4 1.55759 -1.18811 0
M  V30 4715 H 433.98 -0.254628 -0.702263 0
M  V30 4716 H 436.642 -1.28197 -1.46804 0
M  V30 4717 H 435.738 -0.975357 -2.96468 0
M  V30 4718 N 436.039 1.36541 -0.78704 0
M  V30 4719 C 437.267 2.03561 -0.370199 0
M  V30 4720 C 437.682 1.59347 1.01263 0
M  V30 4721 O 437.039 0.781781 1.64907 0
M  V30 4722 C 437.09 3.59033 -0.421614 0
M  V30 4723 O 436.811 4.01634 -1.7499 0
M  V30 4724 C 438.312 4.433 0.00489763 0
M  V30 4725 H 435.532 0.653346 -0.152904 0
M  V30 4726 H 438.076 1.74566 -1.06522 0
M  V30 4727 H 436.231 3.86746 0.224971 0
M  V30 4728 H 436.645 4.96217 -1.69909 0
M  V30 4729 H 438.119 5.51939 -0.0822184 0
M  V30 4730 H 438.596 4.26285 1.05723 0
M  V30 4731 H 439.202 4.20843 -0.614085 0
M  V30 4732 N 437.518 0.538854 1.48102 0
M  V30 4733 C 438.929 0.100679 1.86428 0
M  V30 4734 C 439.28 -1.32447 1.44749 0
M  V30 4735 O 438.405 -1.99339 0.842199 0
M  V30 4736 C 439 0.175933 3.38343 0
M  V30 4737 C 437.559 -0.207098 3.7583 0
M  V30 4738 C 436.706 0.531741 2.72154 0
M  V30 4739 H 439.657 0.749614 1.3988 0
M  V30 4740 H 439.678 -0.610144 3.75576 0
M  V30 4741 H 439.19 1.21328 3.68648 0
M  V30 4742 H 437.291 -1.24626 3.5114 0
M  V30 4743 H 437.404 0.138687 4.78899 0
M  V30 4744 H 435.768 -0.0230462 2.5469 0
M  V30 4745 H 436.551 1.56989 3.05302 0
M  V30 4746 N 438.996 -1.55193 0.274407 0
M  V30 4747 C 440.221 -2.04446 -0.348824 0
M  V30 4748 C 440.646 -1.15149 -1.48735 0
M  V30 4749 O 440.004 -0.149952 -1.80679 0
M  V30 4750 C 440.052 -3.51431 -0.808009 0
M  V30 4751 O 439.156 -3.65225 -1.91531 0
M  V30 4752 H 438.497 -0.66006 -0.0722276 0
M  V30 4753 H 441.027 -2.00481 0.408498 0
M  V30 4754 H 441.037 -3.92781 -1.10395 0
M  V30 4755 H 439.712 -4.15892 0.0249865 0
M  V30 4756 H 438.289 -3.35778 -1.62196 0
M  V30 4757 N 440.474 -0.00167713 -1.576 0
M  V30 4758 C 441.885 0.54091 -1.78693 0
M  V30 4759 C 442.236 1.7386 -0.909247 0
M  V30 4760 O 441.361 2.16109 -0.112176 0
M  V30 4761 C 441.956 0.98806 -3.24072 0
M  V30 4762 C 440.515 1.47594 -3.46256 0
M  V30 4763 C 439.662 0.42792 -2.73978 0
M  V30 4764 H 442.613 -0.22784 -1.57056 0
M  V30 4765 H 442.634 1.85398 -3.32277 0
M  V30 4766 H 442.146 0.116164 -3.87926 0
M  V30 4767 H 440.247 2.36868 -2.87618 0
M  V30 4768 H 440.36 1.50225 -4.54939 0
M  V30 4769 H 438.724 0.889934 -2.38647 0
M  V30 4770 H 439.507 -0.435038 -3.40532 0
M  V30 4771 N 441.952 1.55251 0.271103 0
M  V30 4772 C 442.862 1.9136 1.35714 0
M  V30 4773 C 443.878 0.811075 1.5394 0
M  V30 4774 O 445.054 1.11031 1.6803 0
M  V30 4775 C 442.119 2.1798 2.69603 0
M  V30 4776 C 441.18 3.4153 2.60107 0
M  V30 4777 C 440.413 3.66871 3.8761 0
M  V30 4778 O 440.636 2.94689 4.8838 0
M  V30 4779 O 439.57 4.60405 3.87699 0
M  V30 4780 H 443.396 2.83815 1.08088 0
M  V30 4781 H 440.981 1.41821 0.469792 0
M  V30 4782 H 442.863 2.36518 3.48765 0
M  V30 4783 H 441.538 1.28708 2.97012 0
M  V30 4784 H 440.445 3.28325 1.79314 0
M  V30 4785 H 441.778 4.31027 2.37647 0
M  V30 4786 N 443.43 -0.535701 1.48216 0
M  V30 4787 C 444.707 -1.29683 1.46429 0
M  V30 4788 C 445.087 -2.10391 0.172852 0
M  V30 4789 O 444.435 -2.12282 -0.845488 0
M  V30 4790 C 444.645 -2.18313 2.72287 0
M  V30 4791 C 445.993 -2.78639 3.20383 0
M  V30 4792 O 447.017 -2.28604 2.73164 0
M  V30 4793 O 445.876 -3.69636 4.02531 0
M  V30 4794 H 442.97 -0.585026 0.584529 0
M  V30 4795 H 445.516 -0.552827 1.60443 0
M  V30 4796 H 444.288 -1.58421 3.57797 0
M  V30 4797 H 443.911 -2.99971 2.60966 0
M  V30 4798 N 444.908 -1.36708 -0.784132 0
M  V30 4799 C 446.148 -1.32618 -1.55537 0
M  V30 4800 C 446.512 0.0920681 -1.91779 0
M  V30 4801 O 447.713 0.257573 -2.67563 0
M  V30 4802 C 445.984 -2.22788 -2.79464 0
M  V30 4803 S 447.543 -2.36432 -3.69656 0
M  V30 4804 H 444.361 -0.470973 -0.53264 0
M  V30 4805 H 446.963 -1.72333 -0.92312 0
M  V30 4806 H 445.667 -3.24774 -2.50899 0
M  V30 4807 H 445.198 -1.84112 -3.47658 0
M  V30 4808 H 447.213 -1.56573 -4.7085 0
M  V30 4809 N 446.386 1.0089 -1.21074 0
M  V30 4810 C 447.296 2.13039 -0.982425 0
M  V30 4811 C 448.312 1.73881 0.0642161 0
M  V30 4812 O 449.488 2.01012 -0.12496 0
M  V30 4813 C 446.553 3.42377 -0.545803 0
M  V30 4814 C 445.614 3.95731 -1.6642 0
M  V30 4815 C 444.847 5.18896 -1.24832 0
M  V30 4816 O 445.07 5.70273 -0.120265 0
M  V30 4817 O 444.004 5.65597 -2.05873 0
M  V30 4818 H 447.83 2.35175 -1.92163 0
M  V30 4819 H 445.415 1.1142 -0.995285 0
M  V30 4820 H 447.297 4.20244 -0.311912 0
M  V30 4821 H 445.972 3.21639 0.364727 0
M  V30 4822 H 444.879 3.19108 -1.95246 0
M  V30 4823 H 446.212 4.20872 -2.55201 0
M  V30 4824 N 447.864 1.01787 1.20321 0
M  V30 4825 C 448.794 0.609625 2.25401 0
M  V30 4826 C 449.775 -0.375951 1.65893 0
M  V30 4827 O 450.96 -0.261101 1.92437 0
M  V30 4828 C 448.09 -0.0515995 3.47262 0
M  V30 4829 C 447.044 0.855095 4.19371 0
M  V30 4830 C 446.37 0.0595757 5.34667 0
M  V30 4831 C 447.67 2.16374 4.75373 0
M  V30 4832 H 449.364 1.48803 2.59804 0
M  V30 4833 H 446.91 0.716934 1.24884 0
M  V30 4834 H 448.863 -0.348764 4.19954 0
M  V30 4835 H 447.587 -0.964726 3.12027 0
M  V30 4836 H 446.246 1.13628 3.48546 0
M  V30 4837 H 445.894 -0.85524 4.95676 0
M  V30 4838 H 445.594 0.663406 5.83843 0
M  V30 4839 H 447.118 -0.231105 6.10162 0
M  V30 4840 H 448.532 1.92885 5.39878 0
M  V30 4841 H 446.929 2.71853 5.34991 0
M  V30 4842 H 447.999 2.82589 3.94045 0
M  V30 4843 N 449.342 -1.36122 0.79427 0
M  V30 4844 C 450.252 -2.33769 0.197296 0
M  V30 4845 C 451.268 -1.61276 -0.653153 0
M  V30 4846 O 452.444 -1.9323 -0.5678 0
M  V30 4847 C 449.509 -3.40474 -0.654098 0
M  V30 4848 C 448.57 -4.28759 0.215411 0
M  V30 4849 C 447.803 -5.30368 -0.595443 0
M  V30 4850 O 448.026 -5.40211 -1.83107 0
M  V30 4851 O 446.96 -6.019 0.00721351 0
M  V30 4852 H 450.786 -2.86597 1.00478 0
M  V30 4853 H 448.371 -1.38676 0.555818 0
M  V30 4854 H 450.253 -4.05703 -1.13944 0
M  V30 4855 H 448.928 -2.89937 -1.43938 0
M  V30 4856 H 447.835 -3.66554 0.747615 0
M  V30 4857 H 449.168 -4.82661 0.964332 0
M  V30 4858 N 450.82 -0.546701 -1.47814 0
M  V30 4859 C 452.048 -0.0232857 -2.06887 0
M  V30 4860 C 452.463 1.26571 -1.4009 0
M  V30 4861 O 451.82 1.7569 -0.493906 0
M  V30 4862 C 451.871 0.186975 -3.61016 0
M  V30 4863 O 451.592 -1.05097 -4.25307 0
M  V30 4864 C 453.093 0.748872 -4.36929 0
M  V30 4865 H 450.313 -0.0410763 -0.669742 0
M  V30 4866 H 452.857 -0.757117 -1.89968 0
M  V30 4867 H 451.012 0.870903 -3.77484 0
M  V30 4868 H 451.426 -0.842121 -5.17695 0
M  V30 4869 H 452.9 0.845334 -5.45489 0
M  V30 4870 H 453.377 1.75772 -4.02493 0
M  V30 4871 H 453.983 0.100979 -4.2518 0
M  V30 4872 N 452.299 1.55045 -0.282633 0
M  V30 4873 C 453.529 2.03872 0.334635 0
M  V30 4874 C 453.937 1.16018 1.49454 0
M  V30 4875 O 453.28 0.174449 1.8287 0
M  V30 4876 C 453.342 3.48791 0.870905 0
M  V30 4877 C 453.006 4.56715 -0.161338 0
M  V30 4878 C 454.003 5.10513 -0.983466 0
M  V30 4879 C 451.688 5.01417 -0.297745 0
M  V30 4880 C 453.682 6.07538 -1.92811 0
M  V30 4881 C 451.369 5.98265 -1.24586 0
M  V30 4882 C 452.367 6.51208 -2.05954 0
M  V30 4883 O 452.055 7.46162 -2.99162 0
M  V30 4884 H 451.787 0.671324 0.0793742 0
M  V30 4885 H 454.341 2.01169 -0.41473 0
M  V30 4886 H 452.571 3.48758 1.67047 0
M  V30 4887 H 454.26 3.80916 1.40207 0
M  V30 4888 H 455.026 4.76785 -0.888856 0
M  V30 4889 H 450.905 4.59849 0.325604 0
M  V30 4890 H 454.449 6.48787 -2.56363 0
M  V30 4891 H 450.346 6.31412 -1.34126 0
M  V30 4892 H 451.114 7.63903 -2.93929 0
M  V30 4893 N 453.777 0.010035 1.57597 0
M  V30 4894 C 455.054 -0.710296 1.82248 0
M  V30 4895 C 455.434 -1.91426 0.889911 0
M  V30 4896 O 454.782 -2.28424 -0.0590292 0
M  V30 4897 C 454.992 -1.10655 3.30993 0
M  V30 4898 C 456.34 -1.50621 3.96987 0
M  V30 4899 O 457.364 -1.20007 3.35375 0
M  V30 4900 O 456.223 -2.07587 5.05539 0
M  V30 4901 H 453.317 -0.34673 0.750804 0
M  V30 4902 H 455.863 0.0362578 1.69661 0
M  V30 4903 H 454.635 -0.248826 3.90508 0
M  V30 4904 H 454.258 -1.91189 3.48615 0
M  V30 4905 N 455.255 -1.55392 -0.262866 0
M  V30 4906 C 456.188 -1.8391 -1.35101 0
M  V30 4907 C 457.166 -0.692901 -1.47097 0
M  V30 4908 O 458.35 -0.936979 -1.63563 0
M  V30 4909 C 455.477 -2.00969 -2.72634 0
M  V30 4910 C 454.523 -3.23559 -2.7787 0
M  V30 4911 S 455.356 -4.80647 -2.3609 0
M  V30 4912 C 456.512 -5.00692 -3.75578 0
M  V30 4913 H 456.745 -2.75918 -1.1071 0
M  V30 4914 H 454.278 -1.47294 -0.463029 0
M  V30 4915 H 456.236 -2.11482 -3.51832 0
M  V30 4916 H 454.897 -1.09832 -2.94272 0
M  V30 4917 H 454.09 -3.32413 -3.78837 0
M  V30 4918 H 453.692 -3.11689 -2.06702 0
M  V30 4919 H 455.984 -4.87055 -4.70939 0
M  V30 4920 H 456.927 -6.02717 -3.71669 0
M  V30 4921 H 457.335 -4.28619 -3.6735 0
M  V30 4922 N 456.733 0.527833 -1.48498 0
M  V30 4923 C 457.98 1.28354 -1.56625 0
M  V30 4924 C 458.308 1.93 -0.241096 0
M  V30 4925 O 457.563 1.79967 0.768798 0
M  V30 4926 C 457.862 2.39275 -2.65485 0
M  V30 4927 C 457.528 1.92268 -4.07853 0
M  V30 4928 C 456.19 1.79166 -4.46602 0
M  V30 4929 C 458.542 1.56771 -4.97064 0
M  V30 4930 C 455.87 1.28905 -5.72364 0
M  V30 4931 C 458.222 1.07972 -6.23318 0
M  V30 4932 C 456.886 0.934887 -6.60921 0
M  V30 4933 H 456.156 0.469682 -0.573131 0
M  V30 4934 H 458.803 0.588781 -1.82224 0
M  V30 4935 H 457.108 3.1443 -2.33754 0
M  V30 4936 H 458.805 2.974 -2.68988 0
M  V30 4937 H 455.395 2.03417 -3.77252 0
M  V30 4938 H 459.579 1.65753 -4.67803 0
M  V30 4939 H 454.835 1.16381 -6.00221 0
M  V30 4940 H 459.009 0.795775 -6.91838 0
M  V30 4941 H 456.636 0.543231 -7.58257 0
M  V30 4942 N 458.211 1.37122 0.776871 0
M  V30 4943 C 459.622 1.28667 1.35284 0
M  V30 4944 C 459.973 -0.0680035 1.96082 0
M  V30 4945 O 459.098 -0.969743 1.93455 0
M  V30 4946 C 459.693 2.32997 2.45963 0
M  V30 4947 C 458.252 2.28191 2.99342 0
M  V30 4948 C 457.399 2.17101 1.72517 0
M  V30 4949 H 460.35 1.47819 0.577527 0
M  V30 4950 H 460.371 1.97366 3.2531 0
M  V30 4951 H 459.883 3.3158 2.01684 0
M  V30 4952 H 457.984 1.33115 3.4801 0
M  V30 4953 H 458.097 3.21397 3.55304 0
M  V30 4954 H 456.461 1.63562 1.95242 0
M  V30 4955 H 457.244 3.17591 1.30348 0
M  V30 4956 N 459.689 -1.00246 1.21608 0
M  V30 4957 C 460.966 -1.71336 0.943568 0
M  V30 4958 C 461.346 -2.03972 -0.543943 0
M  V30 4959 O 460.694 -1.71545 -1.50946 0
M  V30 4960 C 460.904 -2.97094 1.83128 0
M  V30 4961 C 462.252 -3.70071 2.08165 0
M  V30 4962 O 463.276 -3.07081 1.80498 0
M  V30 4963 O 462.135 -4.83376 2.54971 0
M  V30 4964 H 459.229 -0.747386 0.354039 0
M  V30 4965 H 461.775 -1.05967 1.32549 0
M  V30 4966 H 460.547 -2.69407 2.83788 0
M  V30 4967 H 460.17 -3.70204 1.45034 0
M  V30 4968 N 461.167 -1.02423 -1.1978 0
M  V30 4969 C 462.395 -0.737456 -1.93311 0
M  V30 4970 C 462.81 0.703023 -1.75223 0
M  V30 4971 O 462.167 1.47761 -1.07112 0
M  V30 4972 C 462.218 -1.0733 -3.45199 0
M  V30 4973 O 461.939 -2.4572 -3.62702 0
M  V30 4974 C 463.44 -0.80866 -4.35862 0
M  V30 4975 H 460.66 -0.2702 -0.614193 0
M  V30 4976 H 463.204 -1.36747 -1.52054 0
M  V30 4977 H 461.359 -0.488545 -3.84307 0
M  V30 4978 H 461.773 -2.58081 -4.56612 0
M  V30 4979 H 463.247 -1.09365 -5.41057 0
M  V30 4980 H 463.724 0.257025 -4.38447 0
M  V30 4981 H 464.33 -1.37592 -4.02428 0
M  V30 4982 N 462.645 1.35699 -0.801477 0
M  V30 4983 C 463.894 1.98165 -0.375979 0
M  V30 4984 C 464.207 1.64306 1.06127 0
M  V30 4985 O 465.413 2.20097 1.58964 0
M  V30 4986 C 463.869 3.54497 -0.621305 0
M  V30 4987 C 463.477 3.9727 -2.07076 0
M  V30 4988 C 465.221 4.23697 -0.26091 0
M  V30 4989 C 463.128 5.46427 -2.26211 0
M  V30 4990 H 462.058 0.741478 -0.136844 0
M  V30 4991 H 464.709 1.54834 -0.984814 0
M  V30 4992 H 463.091 3.95958 0.0574112 0
M  V30 4993 H 464.265 3.66974 -2.78687 0
M  V30 4994 H 462.58 3.40943 -2.39054 0
M  V30 4995 H 465.177 5.33334 -0.381994 0
M  V30 4996 H 465.52 4.0869 0.792344 0
M  V30 4997 H 466.053 3.87639 -0.893339 0
M  V30 4998 H 462.792 5.66396 -3.29963 0
M  V30 4999 H 462.312 5.78309 -1.59119 0
M  V30 5000 H 463.991 6.12819 -2.07513 0
M  V30 5001 N 464.123 0.554532 1.47522 0
M  V30 5002 C 465.073 -0.215008 2.26984 0
M  V30 5003 C 466.057 -0.88774 1.34194 0
M  V30 5004 O 467.249 -0.786489 1.58567 0
M  V30 5005 C 464.378 -1.24604 3.19889 0
M  V30 5006 C 463.464 -0.576857 4.20159 0
M  V30 5007 N 463.855 0.351541 5.04577 0
M  V30 5008 C 462.153 -0.831104 4.38188 0
M  V30 5009 C 462.854 0.739995 5.76974 0
M  V30 5010 N 461.83 0.0954407 5.43516 0
M  V30 5011 H 465.632 0.498843 2.89636 0
M  V30 5012 H 463.146 0.374279 1.58028 0
M  V30 5013 H 465.143 -1.81128 3.75498 0
M  V30 5014 H 463.803 -1.96101 2.58794 0
M  V30 5015 H 464.814 0.725556 5.12792 0
M  V30 5016 H 461.491 -1.53479 3.88266 0
M  V30 5017 H 462.881 1.50271 6.5488 0
M  V30 5018 N 465.601 -1.54893 0.290851 0
M  V30 5019 C 466.826 -2.04804 -0.32712 0
M  V30 5020 C 467.251 -1.16721 -1.47506 0
M  V30 5021 O 466.609 -0.169107 -1.8051 0
M  V30 5022 C 466.657 -3.52268 -0.770689 0
M  V30 5023 O 465.761 -3.67236 -1.87647 0
M  V30 5024 H 465.102 -0.660789 -0.0652227 0
M  V30 5025 H 467.632 -2.00036 0.429739 0
M  V30 5026 H 467.642 -3.9393 -1.06223 0
M  V30 5027 H 466.317 -4.15843 0.069096 0
M  V30 5028 H 464.894 -3.37479 -1.58626 0
M  V30 5029 N 467.08 -0.0183926 -1.57589 0
M  V30 5030 C 468.496 0.337897 -1.55982 0
M  V30 5031 C 468.696 1.73604 -1.02294 0
M  V30 5032 O 467.752 2.43589 -0.664895 0
M  V30 5033 C 469.065 0.196305 -3.00059 0
M  V30 5034 C 470.613 0.269875 -3.11834 0
M  V30 5035 C 471.088 0.157197 -4.5773 0
M  V30 5036 N 472.579 0.214521 -4.62703 0
M  V30 5037 C 473.314 0.150955 -5.73201 0
M  V30 5038 N 472.81 0.0369212 -6.9279 0
M  V30 5039 N 474.603 0.204162 -5.61729 0
M  V30 5040 H 466.754 -0.93279 -1.90821 0
M  V30 5041 H 469.017 -0.359253 -0.877292 0
M  V30 5042 H 468.723 -0.766383 -3.43248 0
M  V30 5043 H 468.597 0.970908 -3.6449 0
M  V30 5044 H 470.984 1.22302 -2.68563 0
M  V30 5045 H 471.065 -0.534918 -2.50144 0
M  V30 5046 H 470.709 -0.792479 -5.01679 0
M  V30 5047 H 470.639 0.980717 -5.17387 0
M  V30 5048 H 473.13 0.303238 -3.76681 0
M  V30 5049 H 473.443 -0.00518321 -7.728 0
M  V30 5050 H 471.788 0.0022886 -6.95 0
M  V30 5051 H 474.979 0.291575 -4.67191 0
M  V30 5052 H 475.152 0.15116 -6.47824 0
M  V30 5053 N 468.558 1.5553 0.254621 0
M  V30 5054 C 469.806 1.7665 0.981793 0
M  V30 5055 C 470.127 0.580963 1.86145 0
M  V30 5056 O 469.397 -0.403537 1.91699 0
M  V30 5057 H 467.977 0.651475 0.365498 0
M  V30 5058 H 470.639 1.92958 0.274426 0
M  V30 5059 H 469.735 2.67486 1.60802 0
M  V30 5060 N 470.036 -0.519951 1.48776 0
M  V30 5061 C 470.968 -1.63973 1.60142 0
M  V30 5062 C 471.981 -1.55404 0.485117 0
M  V30 5063 O 473.17 -1.61682 0.756391 0
M  V30 5064 C 470.27 -3.02676 1.52449 0
M  V30 5065 C 469.443 -3.36624 2.79291 0
M  V30 5066 C 468.502 -4.54652 2.64912 0
M  V30 5067 O 467.528 -4.57374 3.38818 0
M  V30 5068 N 468.73 -5.53432 1.75195 0
M  V30 5069 H 471.495 -1.54656 2.56713 0
M  V30 5070 H 469.056 -0.707439 1.45626 0
M  V30 5071 H 471.048 -3.79525 1.4051 0
M  V30 5072 H 469.618 -3.06018 0.638125 0
M  V30 5073 H 468.838 -2.48855 3.0572 0
M  V30 5074 H 470.126 -3.56094 3.6342 0
M  V30 5075 H 469.524 -5.54018 1.14371 0
M  V30 5076 H 468.081 -6.29459 1.69189 0
M  V30 5077 N 471.514 -1.37532 -0.769588 0
M  V30 5078 C 472.464 -1.29984 -1.87318 0
M  V30 5079 C 473.448 -0.187242 -1.59807 0
M  V30 5080 O 474.64 -0.421827 -1.719 0
M  V30 5081 C 471.769 -1.11126 -3.24817 0
M  V30 5082 C 470.855 -2.26939 -3.58273 0
M  V30 5083 N 471.246 -3.52336 -3.62895 0
M  V30 5084 C 469.544 -2.19141 -3.8845 0
M  V30 5085 C 470.245 -4.28719 -3.9316 0
M  V30 5086 N 469.221 -3.57884 -4.0917 0
M  V30 5087 H 473.023 -2.24946 -1.89147 0
M  V30 5088 H 470.537 -1.30535 -0.966143 0
M  V30 5089 H 472.534 -1.03803 -4.0377 0
M  V30 5090 H 471.194 -0.17083 -3.2425 0
M  V30 5091 H 472.205 -3.86216 -3.45048 0
M  V30 5092 H 468.882 -1.33167 -3.95693 0
M  V30 5093 H 470.272 -5.37254 -4.03494 0
M  V30 5094 N 472.992 0.995999 -1.22138 0
M  V30 5095 C 474.24 1.73167 -1.042 0
M  V30 5096 C 474.561 1.90329 0.42423 0
M  V30 5097 O 473.831 1.4607 1.30539 0
M  V30 5098 H 472.411 0.641593 -0.38258 0
M  V30 5099 H 475.073 1.19974 -1.53598 0
M  V30 5100 H 474.169 2.72734 -1.51731 0
M  V30 5101 N 474.47 1.03057 1.19235 0
M  V30 5102 C 475.881 0.757449 1.70645 0
M  V30 5103 C 476.232 -0.722735 1.82403 0
M  V30 5104 O 475.357 -1.56325 1.49638 0
M  V30 5105 C 475.952 1.36833 3.09939 0
M  V30 5106 C 474.511 1.14375 3.58602 0
M  V30 5107 C 473.658 1.46533 2.35422 0
M  V30 5108 H 476.609 1.19828 1.04052 0
M  V30 5109 H 476.63 0.766184 3.72706 0
M  V30 5110 H 476.142 2.44562 3.01349 0
M  V30 5111 H 474.243 0.0847542 3.72504 0
M  V30 5112 H 474.356 1.83366 4.42622 0
M  V30 5113 H 472.72 0.884712 2.38841 0
M  V30 5114 H 473.503 2.55349 2.2946 0
M  V30 5115 N 475.948 -1.35272 0.808662 0
M  V30 5116 C 476.911 -2.28082 0.226093 0
M  V30 5117 C 477.911 -1.49673 -0.587762 0
M  V30 5118 O 479.101 -1.69404 -0.405943 0
M  V30 5119 C 476.233 -3.33955 -0.684596 0
M  V30 5120 H 477.426 -2.81116 1.04469 0
M  V30 5121 H 474.979 -1.45162 0.579466 0
M  V30 5122 H 475.714 -2.86111 -1.5268 0
M  V30 5123 H 475.499 -3.91965 -0.102699 0
M  V30 5124 H 476.989 -4.03219 -1.08646 0
M  V30 5125 N 477.426 -0.562348 -1.47226 0
M  V30 5126 C 478.336 0.185466 -2.33866 0
M  V30 5127 C 479.352 0.906713 -1.48508 0
M  V30 5128 O 480.528 0.874458 -1.81425 0
M  V30 5129 C 477.593 1.19904 -3.25306 0
M  V30 5130 C 476.654 0.484669 -4.26555 0
M  V30 5131 C 475.887 1.44996 -5.13626 0
M  V30 5132 O 476.11 2.68515 -5.03245 0
M  V30 5133 O 475.044 0.971642 -5.94006 0
M  V30 5134 H 478.87 -0.525361 -2.99121 0
M  V30 5135 H 476.455 -0.322916 -1.45868 0
M  V30 5136 H 478.337 1.78399 -3.81774 0
M  V30 5137 H 477.012 1.8917 -2.62672 0
M  V30 5138 H 475.919 -0.141605 -3.73832 0
M  V30 5139 H 477.252 -0.166634 -4.91918 0
M  V30 5140 N 478.904 1.54736 -0.299062 0
M  V30 5141 C 480.32 1.59507 0.0543849 0
M  V30 5142 C 480.52 1.31606 1.52585 0
M  V30 5143 O 479.576 1.08853 2.27832 0
M  V30 5144 C 480.889 2.98751 -0.34181 0
M  V30 5145 C 482.437 3.1165 -0.290414 0
M  V30 5146 C 482.912 4.53199 -0.661402 0
M  V30 5147 N 484.403 4.59114 -0.613863 0
M  V30 5148 C 485.138 5.66709 -0.873417 0
M  V30 5149 N 484.634 6.82349 -1.19884 0
M  V30 5150 N 486.427 5.56369 -0.800608 0
M  V30 5151 H 478.578 1.71133 -1.25806 0
M  V30 5152 H 480.841 0.799186 -0.509908 0
M  V30 5153 H 480.547 3.24085 -1.36608 0
M  V30 5154 H 480.421 3.75961 0.305508 0
M  V30 5155 H 482.808 2.86066 0.724605 0
M  V30 5156 H 482.889 2.366 -0.972327 0
M  V30 5157 H 482.533 4.79513 -1.67422 0
M  V30 5158 H 482.463 5.26583 0.0425612 0
M  V30 5159 H 484.954 3.76053 -0.3732 0
M  V30 5160 H 485.267 7.60326 -1.38291 0
M  V30 5161 H 483.612 6.83906 -1.23685 0
M  V30 5162 H 486.803 4.64904 -0.546045 0
M  V30 5163 H 486.976 6.40139 -1.00626 0
M  V30 5164 N 480.382 0.0267497 1.57577 0
M  V30 5165 C 481.61 -0.662661 1.96001 0
M  V30 5166 C 482.025 -1.65799 0.903117 0
M  V30 5167 O 481.382 -1.82135 -0.115317 0
M  V30 5168 C 481.433 -1.37112 3.34488 0
M  V30 5169 O 481.154 -0.415683 4.36123 0
M  V30 5170 C 482.655 -2.15257 3.8753 0
M  V30 5171 H 479.875 -0.18287 0.6456 0
M  V30 5172 H 482.419 0.0858116 2.0432 0
M  V30 5173 H 480.574 -2.07101 3.27395 0
M  V30 5174 H 480.988 -0.918496 5.16395 0
M  V30 5175 H 482.462 -2.60285 4.86781 0
M  V30 5176 H 482.939 -2.99063 3.21649 0
M  V30 5177 H 483.545 -1.50231 3.97883 0
M  V30 5178 N 481.861 -1.55662 -0.24637 0
M  V30 5179 C 483.272 -1.67953 -0.81539 0
M  V30 5180 C 483.623 -0.624302 -1.86002 0
M  V30 5181 O 482.748 0.229328 -2.15181 0
M  V30 5182 C 483.343 -3.04484 -1.48576 0
M  V30 5183 C 481.902 -3.18713 -2.00248 0
M  V30 5184 C 481.049 -2.6383 -0.853766 0
M  V30 5185 H 484 -1.58685 -0.0221692 0
M  V30 5186 H 484.021 -2.98959 -2.3538 0
M  V30 5187 H 483.533 -3.81264 -0.725222 0
M  V30 5188 H 481.634 -2.46757 -2.79181 0
M  V30 5189 H 481.747 -4.25628 -2.1995 0
M  V30 5190 H 480.111 -2.21667 -1.25442 0
M  V30 5191 H 480.894 -3.43135 -0.106302 0
M  V30 5192 N 483.339 0.512053 -1.4905 0
M  V30 5193 C 484.564 1.2959 -1.6193 0
M  V30 5194 C 484.989 1.85906 -0.286454 0
M  V30 5195 O 484.347 1.65312 0.744426 0
M  V30 5196 C 484.395 2.40987 -2.68249 0
M  V30 5197 O 483.499 3.44531 -2.26654 0
M  V30 5198 H 482.84 0.383053 -0.542371 0
M  V30 5199 H 485.37 0.614231 -1.95162 0
M  V30 5200 H 485.38 2.86913 -2.90078 0
M  V30 5201 H 484.055 1.99361 -3.65004 0
M  V30 5202 H 482.632 3.046 -2.15112 0
M  V30 5203 N 484.817 1.37938 0.762283 0
M  V30 5204 C 485.727 1.36681 1.90671 0
M  V30 5205 C 486.743 0.265078 1.71969 0
M  V30 5206 O 487.919 0.502055 1.95042 0
M  V30 5207 C 484.984 1.18211 3.25925 0
M  V30 5208 C 484.045 2.3811 3.57214 0
M  V30 5209 C 483.278 2.20512 4.86014 0
M  V30 5210 O 483.501 1.19429 5.57757 0
M  V30 5211 O 482.435 3.08911 5.16583 0
M  V30 5212 H 486.261 2.33091 1.94685 0
M  V30 5213 H 483.846 1.18767 0.906356 0
M  V30 5214 H 485.728 1.09937 4.06807 0
M  V30 5215 H 484.403 0.248807 3.22742 0
M  V30 5216 H 483.31 2.51958 2.76529 0
M  V30 5217 H 484.643 3.30041 3.65149 0
M  V30 5218 N 486.295 -0.989507 1.22664 0
M  V30 5219 C 487.544 -1.72375 1.04737 0
M  V30 5220 C 487.857 -1.91096 -0.417316 0
M  V30 5221 O 489.063 -2.6188 -0.716334 0
M  V30 5222 C 487.519 -3.10161 1.82561 0
M  V30 5223 C 487.127 -2.99358 3.333 0
M  V30 5224 C 488.871 -3.87607 1.73093 0
M  V30 5225 C 486.778 -4.32319 4.03552 0
M  V30 5226 H 485.708 -0.646326 0.388302 0
M  V30 5227 H 488.359 -1.10437 1.46546 0
M  V30 5228 H 486.741 -3.728 1.33552 0
M  V30 5229 H 487.915 -2.45863 3.89728 0
M  V30 5230 H 486.23 -2.35392 3.43481 0
M  V30 5231 H 488.827 -4.86025 2.22899 0
M  V30 5232 H 489.17 -4.10509 0.691976 0
M  V30 5233 H 489.703 -3.31652 2.19663 0
M  V30 5234 H 486.442 -4.14616 5.07714 0
M  V30 5235 H 485.962 -4.85714 3.51911 0
M  V30 5236 H 487.641 -5.01051 4.09337 0
M  V30 5237 N 487.773 -1.03688 -1.18687 0
M  V30 5238 C 488.705 -0.582696 -2.21669 0
M  V30 5239 C 489.718 0.345656 -1.59088 0
M  V30 5240 O 490.907 0.140776 -1.77944 0
M  V30 5241 C 488.007 0.169204 -3.38477 0
M  V30 5242 C 487.18 -0.766079 -4.30639 0
M  V30 5243 C 486.239 -0.0581541 -5.26168 0
M  V30 5244 O 485.265 -0.687346 -5.65035 0
M  V30 5245 N 486.467 1.20981 -5.67753 0
M  V30 5246 H 489.232 -1.46843 -2.61261 0
M  V30 5247 H 486.793 -0.916896 -1.33434 0
M  V30 5248 H 488.785 0.652543 -3.99405 0
M  V30 5249 H 487.355 0.956435 -2.97609 0
M  V30 5250 H 486.575 -1.42935 -3.67373 0
M  V30 5251 H 487.863 -1.40146 -4.89118 0
M  V30 5252 H 487.261 1.74159 -5.38224 0
M  V30 5253 H 485.818 1.6375 -6.30896 0
M  V30 5254 N 489.251 1.34841 -0.815825 0
M  V30 5255 C 490.498 1.98499 -0.400535 0
M  V30 5256 C 490.826 1.64699 1.03463 0
M  V30 5257 O 490.081 0.907006 1.73412 0
M  V30 5258 C 490.38 3.53273 -0.541541 0
M  V30 5259 C 490.046 4.06966 -1.94138 0
M  V30 5260 C 488.708 4.21341 -2.32433 0
M  V30 5261 C 491.06 4.35933 -2.85677 0
M  V30 5262 C 488.388 4.62007 -3.61617 0
M  V30 5263 C 490.74 4.78042 -4.14317 0
M  V30 5264 C 489.404 4.90622 -4.52599 0
M  V30 5265 H 488.674 0.72636 -0.146566 0
M  V30 5266 H 491.321 1.60902 -1.0384 0
M  V30 5267 H 489.626 3.91387 0.179741 0
M  V30 5268 H 491.323 4.00497 -0.20085 0
M  V30 5269 H 487.913 3.96235 -1.63388 0
M  V30 5270 H 492.097 4.24372 -2.57337 0
M  V30 5271 H 487.353 4.69937 -3.91113 0
M  V30 5272 H 491.527 4.99415 -4.85342 0
M  V30 5273 H 489.154 5.2189 -5.52752 0
M  V30 5274 N 490.729 0.570148 1.46925 0
M  V30 5275 C 491.679 -0.190921 2.27199 0
M  V30 5276 C 492.663 -0.873457 1.35128 0
M  V30 5277 O 493.855 -0.769627 1.59392 0
M  V30 5278 C 490.984 -1.21204 3.21192 0
M  V30 5279 C 490.07 -0.532261 4.20747 0
M  V30 5280 N 490.461 0.405038 5.04176 0
M  V30 5281 C 488.759 -0.784582 4.39045 0
M  V30 5282 C 489.46 0.801149 5.76157 0
M  V30 5283 N 488.436 0.153082 5.43384 0
M  V30 5284 H 492.238 0.529535 2.8909 0
M  V30 5285 H 489.752 0.391019 1.57622 0
M  V30 5286 H 491.749 -1.77135 3.77398 0
M  V30 5287 H 490.409 -1.93345 2.6086 0
M  V30 5288 H 491.42 0.779903 5.11994 0
M  V30 5289 H 488.097 -1.49352 3.89872 0
M  V30 5290 H 489.487 1.57208 6.5325 0
M  V30 5291 N 492.207 -1.54576 0.307264 0
M  V30 5292 C 493.139 -2.21212 -0.599807 0
M  V30 5293 C 494.152 -1.20685 -1.09266 0
M  V30 5294 O 495.341 -1.47244 -1.00903 0
M  V30 5295 C 492.441 -2.84994 -1.83389 0
M  V30 5296 C 491.614 -4.11511 -1.48248 0
M  V30 5297 C 490.673 -4.59038 -2.57237 0
M  V30 5298 O 489.699 -5.24095 -2.22065 0
M  V30 5299 N 490.901 -4.31884 -3.87887 0
M  V30 5300 H 493.666 -2.99686 -0.0293075 0
M  V30 5301 H 491.227 -1.61379 0.129738 0
M  V30 5302 H 493.219 -3.1372 -2.5566 0
M  V30 5303 H 491.789 -2.10324 -2.31263 0
M  V30 5304 H 491.009 -3.89728 -0.592122 0
M  V30 5305 H 492.297 -4.93879 -1.22316 0
M  V30 5306 H 491.695 -3.79778 -4.19268 0
M  V30 5307 H 490.252 -4.65304 -4.56438 0
M  V30 5308 N 493.685 -0.035106 -1.57561 0
M  V30 5309 C 494.931 0.64318 -1.92331 0
M  V30 5310 C 495.264 1.71434 -0.912368 0
M  V30 5311 O 494.539 1.94395 0.0640303 0
M  V30 5312 C 494.822 1.25411 -3.37556 0
M  V30 5313 C 494.675 0.192109 -4.4939 0
M  V30 5314 C 495.994 2.17041 -3.82859 0
M  V30 5315 H 493.113 0.232341 -0.699419 0
M  V30 5316 H 495.755 -0.0935889 -1.89769 0
M  V30 5317 H 493.905 1.88205 -3.39869 0
M  V30 5318 H 495.577 -0.438849 -4.59208 0
M  V30 5319 H 493.82 -0.481725 -4.31117 0
M  V30 5320 H 494.491 0.659292 -5.48049 0
M  V30 5321 H 496.967 1.64228 -3.8232 0
M  V30 5322 H 495.843 2.56738 -4.85157 0
M  V30 5323 H 496.104 3.06401 -3.18702 0
M  V30 5324 N 495.163 1.55791 0.238111 0
M  V30 5325 C 496.11 1.9105 1.29493 0
M  V30 5326 C 497.08 0.765733 1.47397 0
M  V30 5327 O 498.265 1.02017 1.61236 0
M  V30 5328 C 495.405 2.21826 2.64362 0
M  V30 5329 C 494.518 3.49153 2.54394 0
M  V30 5330 C 493.653 3.69455 3.81676 0
M  V30 5331 C 492.692 4.90353 3.66361 0
M  V30 5332 N 491.829 5.07131 4.85554 0
M  V30 5333 H 496.669 2.81172 0.987233 0
M  V30 5334 H 494.206 1.39179 0.476203 0
M  V30 5335 H 496.164 2.37675 3.4288 0
M  V30 5336 H 494.794 1.34897 2.93262 0
M  V30 5337 H 493.846 3.41587 1.67399 0
M  V30 5338 H 495.158 4.37818 2.38991 0
M  V30 5339 H 494.312 3.85311 4.68636 0
M  V30 5340 H 493.051 2.7904 3.99985 0
M  V30 5341 H 492.056 4.74464 2.77784 0
M  V30 5342 H 493.281 5.82237 3.49538 0
M  V30 5343 H 491.227 4.19654 5.04209 0
M  V30 5344 H 491.144 5.89899 4.72816 0
M  V30 5345 H 492.412 5.27407 5.73988 0
M  V30 5346 N 496.642 -0.504142 1.49319 0
M  V30 5347 C 497.889 -1.25846 1.58647 0
M  V30 5348 C 498.217 -1.92592 0.27177 0
M  V30 5349 O 497.472 -1.81167 -0.74007 0
M  V30 5350 C 497.771 -2.35021 2.69258 0
M  V30 5351 C 497.437 -1.85755 4.1086 0
M  V30 5352 C 496.099 -1.72038 4.49395 0
M  V30 5353 C 498.451 -1.48844 4.99495 0
M  V30 5354 C 495.779 -1.19783 5.74342 0
M  V30 5355 C 498.131 -0.980422 6.24956 0
M  V30 5356 C 496.795 -0.829622 6.62324 0
M  V30 5357 H 496.065 -0.460505 0.580531 0
M  V30 5358 H 498.712 -0.559716 1.83138 0
M  V30 5359 H 497.017 -3.10672 2.38726 0
M  V30 5360 H 498.714 -2.93083 2.73685 0
M  V30 5361 H 495.304 -1.9739 3.80441 0
M  V30 5362 H 499.488 -1.5829 4.70381 0
M  V30 5363 H 494.744 -1.06817 6.01997 0
M  V30 5364 H 498.918 -0.685608 6.93017 0
M  V30 5365 H 496.545 -0.42253 7.59025 0
M  V30 5366 N 498.12 -1.38341 -0.754957 0
M  V30 5367 C 499.368 -1.34208 -1.51105 0
M  V30 5368 C 499.689 0.0677634 -1.94882 0
M  V30 5369 O 498.959 1.01517 -1.67544 0
M  V30 5370 H 497.539 -0.493819 -0.560493 0
M  V30 5371 H 500.201 -1.73005 -0.897507 0
M  V30 5372 H 499.297 -1.99203 -2.4026 0
M  V30 5373 N 499.598 0.982988 -1.23187 0
M  V30 5374 C 500.561 2.05649 -1.01198 0
M  V30 5375 C 501.561 1.6078 0.0252464 0
M  V30 5376 O 502.751 1.72878 -0.214243 0
M  V30 5377 C 499.883 3.36744 -0.530656 0
M  V30 5378 H 501.076 2.2659 -1.96461 0
M  V30 5379 H 498.629 1.15602 -1.05195 0
M  V30 5380 H 499.364 3.21492 0.425873 0
M  V30 5381 H 499.149 3.7065 -1.2791 0
M  V30 5382 H 500.639 4.15705 -0.397366 0
M  V30 5383 N 501.076 1.04316 1.18135 0
M  V30 5384 C 502.487 0.775505 1.69832 0
M  V30 5385 C 502.838 -0.703348 1.8316 0
M  V30 5386 O 501.963 -1.54729 1.51287 0
M  V30 5387 C 502.558 1.40112 3.0847 0
M  V30 5388 C 501.117 1.18172 3.57368 0
M  V30 5389 C 500.264 1.49022 2.33854 0
M  V30 5390 H 503.215 1.20925 1.02775 0
M  V30 5391 H 503.236 0.805672 3.71873 0
M  V30 5392 H 502.748 2.47744 2.98738 0
M  V30 5393 H 500.849 0.124258 3.72393 0
M  V30 5394 H 500.962 1.8805 4.40652 0
M  V30 5395 H 499.326 0.909995 2.37889 0
M  V30 5396 H 500.109 2.57768 2.26738 0
M  V30 5397 N 502.554 -1.34406 0.822964 0
M  V30 5398 C 503.97 -1.51275 0.508727 0
M  V30 5399 C 504.17 -1.76776 -0.967083 0
M  V30 5400 O 503.226 -1.81871 -1.75155 0
M  V30 5401 C 504.539 -2.67765 1.36829 0
M  V30 5402 C 506.087 -2.81647 1.36542 0
M  V30 5403 C 506.562 -4.01181 2.20947 0
M  V30 5404 N 508.053 -4.08388 2.18571 0
M  V30 5405 C 508.788 -5.00036 2.80627 0
M  V30 5406 N 508.284 -5.96906 3.51674 0
M  V30 5407 N 510.077 -4.92908 2.70181 0
M  V30 5408 H 502.228 -1.16113 1.77852 0
M  V30 5409 H 504.491 -0.56947 0.757897 0
M  V30 5410 H 504.197 -2.55551 2.41633 0
M  V30 5411 H 504.071 -3.62779 1.03303 0
M  V30 5412 H 506.458 -2.93303 0.325163 0
M  V30 5413 H 506.539 -1.87443 1.74066 0
M  V30 5414 H 506.183 -3.90286 3.25022 0
M  V30 5415 H 506.113 -4.94599 1.80774 0
M  V30 5416 H 508.604 -3.39051 1.66891 0
M  V30 5417 H 508.917 -6.63468 3.96271 0
M  V30 5418 H 507.262 -5.9703 3.5578 0
M  V30 5419 H 510.453 -4.1619 2.14251 0
M  V30 5420 H 510.626 -5.64137 3.18831 0
M  V30 5421 N 504.032 -0.577932 -1.46621 0
M  V30 5422 C 505.448 -0.239242 -1.57797 0
M  V30 5423 C 505.648 1.25843 -1.57371 0
M  V30 5424 O 504.704 2.03988 -1.48813 0
M  V30 5425 C 506.017 -0.884227 -2.87405 0
M  V30 5426 C 507.565 -0.857373 -3.01028 0
M  V30 5427 C 508.04 -1.48181 -4.33366 0
M  V30 5428 N 509.531 -1.44593 -4.40053 0
M  V30 5429 C 510.266 -1.89852 -5.41058 0
M  V30 5430 N 509.762 -2.43062 -6.48762 0
M  V30 5431 N 511.555 -1.80797 -5.3223 0
M  V30 5432 H 503.706 -1.55073 -1.45142 0
M  V30 5433 H 505.969 -0.647903 -0.692044 0
M  V30 5434 H 505.675 -1.93759 -2.93514 0
M  V30 5435 H 505.549 -0.389585 -3.75183 0
M  V30 5436 H 507.936 0.187357 -2.94505 0
M  V30 5437 H 508.017 -1.38999 -2.14739 0
M  V30 5438 H 507.661 -2.52572 -4.40647 0
M  V30 5439 H 507.591 -0.924464 -5.18422 0
M  V30 5440 H 510.082 -1.05694 -3.62819 0
M  V30 5441 H 510.395 -2.75466 -7.22038 0
M  V30 5442 H 508.74 -2.47085 -6.49595 0
M  V30 5443 H 511.931 -1.38989 -4.46989 0
M  V30 5444 H 512.104 -2.16385 -6.10804 0
M  V30 5445 N 505.51 1.54411 -0.315457 0
M  V30 5446 C 506.457 2.24048 0.554166 0
M  V30 5447 C 507.427 1.2283 1.11812 0
M  V30 5448 O 508.612 1.51491 1.15997 0
M  V30 5449 C 505.752 2.99574 1.71316 0
M  V30 5450 C 504.865 4.15594 1.17922 0
M  V30 5451 C 504 4.78669 2.30324 0
M  V30 5452 C 503.039 5.86807 1.74137 0
M  V30 5453 N 502.176 6.43777 2.8017 0
M  V30 5454 H 507.016 2.97964 -0.0462602 0
M  V30 5455 H 504.553 1.47059 -0.0346009 0
M  V30 5456 H 506.511 3.41604 2.39505 0
M  V30 5457 H 505.141 2.28008 2.285 0
M  V30 5458 H 504.193 3.78404 0.389136 0
M  V30 5459 H 505.505 4.93459 0.728012 0
M  V30 5460 H 504.659 5.23626 3.06433 0
M  V30 5461 H 503.398 4.00168 2.78778 0
M  V30 5462 H 502.403 5.41261 0.965236 0
M  V30 5463 H 503.628 6.67201 1.2657 0
M  V30 5464 H 501.574 5.68153 3.2793 0
M  V30 5465 H 501.491 7.17031 2.39588 0
M  V30 5466 H 502.759 6.9339 3.56132 0
M  V30 5467 N 506.988 0.0434614 1.5754 0
M  V30 5468 C 507.898 -0.94893 2.14552 0
M  V30 5469 C 508.914 -1.34707 1.10136 0
M  V30 5470 O 510.09 -1.42557 1.42266 0
M  V30 5471 C 507.155 -2.208 2.67298 0
M  V30 5472 C 506.216 -1.86893 3.86484 0
M  V30 5473 C 505.449 -3.06797 4.36705 0
M  V30 5474 O 505.672 -4.19921 3.86034 0
M  V30 5475 O 504.606 -2.8826 5.28384 0
M  V30 5476 H 508.432 -0.494099 2.99654 0
M  V30 5477 H 506.017 -0.177989 1.48336 0
M  V30 5478 H 507.899 -2.94686 3.01228 0
M  V30 5479 H 506.574 -2.65436 1.85272 0
M  V30 5480 H 505.481 -1.10347 3.57455 0
M  V30 5481 H 506.814 -1.47062 4.69716 0
M  V30 5482 N 508.466 -1.55915 -0.229846 0
M  V30 5483 C 509.694 -1.82617 -0.972562 0
M  V30 5484 C 510.109 -0.621488 -1.78278 0
M  V30 5485 O 509.466 0.409956 -1.77836 0
M  V30 5486 C 509.517 -3.0774 -1.89679 0
M  V30 5487 O 509.238 -4.23559 -1.11934 0
M  V30 5488 C 510.739 -3.47368 -2.75409 0
M  V30 5489 H 507.959 -0.60727 -0.285419 0
M  V30 5490 H 510.503 -2.02996 -0.247579 0
M  V30 5491 H 508.658 -2.89361 -2.57583 0
M  V30 5492 H 509.072 -4.94586 -1.74599 0
M  V30 5493 H 510.546 -4.37977 -3.35977 0
M  V30 5494 H 511.023 -2.68737 -3.47386 0
M  V30 5495 H 511.629 -3.68158 -2.12931 0
M  V30 5496 N 509.944 0.496216 -1.49584 0
M  V30 5497 C 511.221 1.25755 -1.49816 0
M  V30 5498 C 511.601 2.09859 -0.228572 0
M  V30 5499 O 510.949 2.14449 0.788908 0
M  V30 5500 C 511.159 2.11017 -2.7798 0
M  V30 5501 C 512.507 2.70047 -3.27658 0
M  V30 5502 O 513.531 2.21281 -2.79129 0
M  V30 5503 O 512.39 3.58834 -4.1219 0
M  V30 5504 H 509.484 0.569322 -0.599834 0
M  V30 5505 H 512.03 0.510094 -1.61852 0
M  V30 5506 H 510.802 1.48879 -3.61871 0
M  V30 5507 H 510.425 2.92947 -2.68827 0
M  V30 5508 N 511.423 1.38739 0.74761 0
M  V30 5509 C 512.834 1.31507 1.32524 0
M  V30 5510 C 513.185 -0.0263963 1.96182 0
M  V30 5511 O 512.31 -0.92849 1.95469 0
M  V30 5512 C 512.905 2.38162 2.40966 0
M  V30 5513 C 511.464 2.34489 2.94434 0
M  V30 5514 C 510.611 2.20712 1.67873 0
M  V30 5515 H 513.562 1.4901 0.546043 0
M  V30 5516 H 513.583 2.04222 3.21051 0
M  V30 5517 H 513.095 3.35783 1.94605 0
M  V30 5518 H 511.196 1.40467 3.45108 0
M  V30 5519 H 511.309 3.28861 3.48407 0
M  V30 5520 H 509.673 1.67667 1.91729 0
M  V30 5521 H 510.456 3.20285 1.23582 0
M  V30 5522 N 512.901 -0.976442 1.23707 0
M  V30 5523 C 513.831 -2.08749 1.04624 0
M  V30 5524 C 514.812 -1.70057 -0.0380956 0
M  V30 5525 O 515.997 -1.93782 0.127308 0
M  V30 5526 C 513.127 -3.41335 0.640902 0
M  V30 5527 C 512.081 -3.93947 1.67302 0
M  V30 5528 C 511.407 -5.22774 1.12301 0
M  V30 5529 C 512.707 -4.22769 3.06697 0
M  V30 5530 H 514.401 -2.24972 1.97555 0
M  V30 5531 H 511.947 -1.08108 0.951247 0
M  V30 5532 H 513.9 -4.18489 0.494434 0
M  V30 5533 H 512.624 -3.24988 -0.324099 0
M  V30 5534 H 511.283 -3.18941 1.80755 0
M  V30 5535 H 510.931 -5.0278 0.148877 0
M  V30 5536 H 510.631 -5.58942 1.81267 0
M  V30 5537 H 512.155 -6.02546 0.988479 0
M  V30 5538 H 513.569 -4.90659 2.96524 0
M  V30 5539 H 511.966 -4.70147 3.72937 0
M  V30 5540 H 513.036 -3.29885 3.55392 0
M  V30 5541 N 514.379 -1.04941 -1.1758 0
M  V30 5542 C 515.327 -0.64204 -2.23563 0
M  V30 5543 C 516.321 0.335453 -1.66045 0
M  V30 5544 O 517.527 0.20179 -1.78865 0
M  V30 5545 H 513.902 -0.18944 -0.727748 0
M  V30 5546 H 515.873 -1.54609 -2.55223 0
M  V30 5547 C 514.622 -0.0301051 -3.47687 0
M  V30 5548 H 513.945 -0.773339 -3.92249 0
M  V30 5549 H 515.385 0.217592 -4.23441 0
M  V30 5550 C 513.844 1.2225 -3.13937 0
M  V30 5551 O 514.374 2.3122 -3.28482 0
M  V30 5552 N 512.58 1.11917 -2.68185 0
M  V30 5553 H 512.127 0.232403 -2.5655 0
M  V30 5554 H 512.085 1.95814 -2.45976 0
M  V30 5555 N 515.857 1.33968 -0.830081 0
M  V30 5556 C 516.767 2.33164 -0.259207 0
M  V30 5557 C 517.783 1.62951 0.610164 0
M  V30 5558 O 518.959 1.94668 0.516369 0
M  V30 5559 C 516.024 3.42088 0.563598 0
M  V30 5560 C 515.085 4.28037 -0.329014 0
M  V30 5561 C 514.318 5.3176 0.454616 0
M  V30 5562 O 514.541 5.44876 1.6872 0
M  V30 5563 O 513.475 6.01669 -0.166794 0
M  V30 5564 H 517.301 2.83832 -1.08041 0
M  V30 5565 H 514.886 1.37154 -0.59239 0
M  V30 5566 H 516.768 4.08581 1.03147 0
M  V30 5567 H 515.443 2.93651 1.36201 0
M  V30 5568 H 514.35 3.64443 -0.844538 0
M  V30 5569 H 515.683 4.79934 -1.09196 0
M  V30 5570 N 517.335 0.585699 1.46312 0
M  V30 5571 C 518.746 0.159938 1.86014 0
M  V30 5572 C 519.097 -1.27775 1.48889 0
M  V30 5573 O 518.222 -1.96559 0.90519 0
M  V30 5574 C 518.817 0.283485 3.37612 0
M  V30 5575 C 517.376 -0.0874256 3.76298 0
M  V30 5576 C 516.523 0.618055 2.70325 0
M  V30 5577 H 519.474 0.793737 1.37425 0
M  V30 5578 H 519.495 -0.490348 3.77327 0
M  V30 5579 H 519.007 1.32995 3.64601 0
M  V30 5580 H 517.108 -1.13391 3.54927 0
M  V30 5581 H 517.221 0.290975 4.78216 0
M  V30 5582 H 515.585 0.057993 2.54634 0
M  V30 5583 H 516.368 1.66623 3.00153 0
M  V30 5584 N 518.813 -1.54241 0.323641 0
M  V30 5585 C 520.059 -2.01572 -0.272089 0
M  V30 5586 C 520.414 -1.20774 -1.49771 0
M  V30 5587 O 519.707 -0.281821 -1.89516 0
M  V30 5588 C 519.901 -3.5129 -0.658031 0
M  V30 5589 C 519.73 -4.46582 0.528645 0
M  V30 5590 C 518.5 -4.94737 1.02777 0
M  V30 5591 C 520.698 -4.95416 1.38086 0
M  V30 5592 N 518.68 -5.73933 2.17885 0
M  V30 5593 C 520.051 -5.72537 2.3791 0
M  V30 5594 C 522.106 -4.77559 1.40861 0
M  V30 5595 C 520.809 -6.33702 3.40314 0
M  V30 5596 C 522.835 -5.39559 2.42136 0
M  V30 5597 C 522.197 -6.16532 3.40688 0
M  V30 5598 H 518.296 -0.779425 -0.0634072 0
M  V30 5599 H 520.88 -1.8922 0.458697 0
M  V30 5600 H 519.051 -3.63888 -1.35795 0
M  V30 5601 H 520.783 -3.85388 -1.23524 0
M  V30 5602 H 517.538 -4.69796 0.599046 0
M  V30 5603 H 517.962 -6.18209 2.75947 0
M  V30 5604 H 522.604 -4.17611 0.660352 0
M  V30 5605 H 520.322 -6.9277 4.16047 0
M  V30 5606 H 523.908 -5.27659 2.45086 0
M  V30 5607 H 522.788 -6.63655 4.1777 0
M  V30 5608 N 520.291 -0.0518155 -1.57515 0
M  V30 5609 C 521.201 0.937539 -2.15052 0
M  V30 5610 C 522.217 1.34121 -1.10849 0
M  V30 5611 O 523.393 1.418 -1.4302 0
M  V30 5612 C 520.458 2.19379 -2.68466 0
M  V30 5613 C 519.519 1.84841 -3.87469 0
M  V30 5614 C 518.752 3.04477 -4.38326 0
M  V30 5615 O 518.975 4.17868 -3.88256 0
M  V30 5616 O 517.909 2.85453 -5.29906 0
M  V30 5617 H 521.735 0.478201 -2.99912 0
M  V30 5618 H 519.32 0.17012 -1.48428 0
M  V30 5619 H 521.202 2.93084 -3.02787 0
M  V30 5620 H 519.877 2.64449 -1.86677 0
M  V30 5621 H 518.784 1.08449 -3.58036 0
M  V30 5622 H 520.117 1.44569 -4.7049 0
M  V30 5623 N 521.769 1.56035 0.221574 0
M  V30 5624 C 522.679 1.95581 1.29558 0
M  V30 5625 C 523.695 0.859639 1.51282 0
M  V30 5626 O 524.871 1.16321 1.64413 0
M  V30 5627 C 521.936 2.26447 2.62531 0
M  V30 5628 C 520.997 3.49632 2.4911 0
M  V30 5629 C 520.23 3.79017 3.75742 0
M  V30 5630 O 520.453 3.10077 4.78757 0
M  V30 5631 O 519.387 4.72507 3.72855 0
M  V30 5632 H 523.213 2.8711 0.990035 0
M  V30 5633 H 520.798 1.43244 0.424434 0
M  V30 5634 H 522.68 2.47494 3.41064 0
M  V30 5635 H 521.355 1.38092 2.92766 0
M  V30 5636 H 520.262 3.33864 1.68777 0
M  V30 5637 H 521.595 4.3837 2.23814 0
M  V30 5638 N 523.247 -0.488276 1.49845 0
M  V30 5639 C 524.157 -1.61451 1.70207 0
M  V30 5640 C 525.173 -1.63877 0.584846 0
M  V30 5641 O 526.349 -1.82063 0.861107 0
M  V30 5642 C 523.414 -2.9776 1.77594 0
M  V30 5643 C 522.475 -3.05861 3.01243 0
M  V30 5644 C 521.708 -4.35668 3.08268 0
M  V30 5645 O 521.931 -5.25197 2.22541 0
M  V30 5646 O 520.865 -4.49005 4.00847 0
M  V30 5647 H 524.691 -1.47199 2.65643 0
M  V30 5648 H 522.276 -0.665939 1.33737 0
M  V30 5649 H 524.158 -3.7875 1.84732 0
M  V30 5650 H 522.833 -3.12248 0.8534 0
M  V30 5651 H 521.74 -2.24012 2.99616 0
M  V30 5652 H 523.073 -2.96304 3.9302 0
M  V30 5653 N 524.725 -1.39134 -0.740242 0
M  V30 5654 C 525.971 -1.37278 -1.50088 0
M  V30 5655 C 526.326 0.0329967 -1.92372 0
M  V30 5656 O 525.619 0.998447 -1.63529 0
M  V30 5657 C 525.813 -2.27457 -2.75678 0
M  V30 5658 C 525.642 -3.76662 -2.45674 0
M  V30 5659 C 524.412 -4.45617 -2.38229 0
M  V30 5660 C 526.61 -4.6877 -2.11563 0
M  V30 5661 N 524.592 -5.80187 -2.00641 0
M  V30 5662 C 525.963 -5.91951 -1.84376 0
M  V30 5663 C 528.018 -4.56843 -1.97987 0
M  V30 5664 C 526.721 -7.04538 -1.4498 0
M  V30 5665 C 528.747 -5.69347 -1.59994 0
M  V30 5666 C 528.109 -6.91597 -1.33687 0
M  V30 5667 H 524.208 -0.557611 -0.548265 0
M  V30 5668 H 526.792 -1.74638 -0.860784 0
M  V30 5669 H 524.963 -1.92263 -3.37475 0
M  V30 5670 H 526.695 -2.16631 -3.41838 0
M  V30 5671 H 523.45 -3.98993 -2.5515 0
M  V30 5672 H 523.874 -6.51387 -1.84454 0
M  V30 5673 H 528.516 -3.62868 -2.16995 0
M  V30 5674 H 526.234 -7.98419 -1.24712 0
M  V30 5675 H 529.82 -5.62104 -1.50102 0
M  V30 5676 H 528.7 -7.77176 -1.04728 0
M  V30 5677 N 526.204 0.969867 -1.24223 0
M  V30 5678 C 527.432 1.74756 -1.10761 0
M  V30 5679 C 527.847 1.85713 0.340041 0
M  V30 5680 O 527.204 1.34389 1.23474 0
M  V30 5681 C 527.255 3.16915 -1.73917 0
M  V30 5682 O 526.976 3.06511 -3.13021 0
M  V30 5683 C 528.477 4.11032 -1.66036 0
M  V30 5684 H 525.697 0.548092 -0.387087 0
M  V30 5685 H 528.241 1.2178 -1.64286 0
M  V30 5686 H 526.396 3.66884 -1.244 0
M  V30 5687 H 526.81 3.96079 -3.43834 0
M  V30 5688 H 528.284 5.08446 -2.14911 0
M  V30 5689 H 528.761 4.34785 -0.621159 0
M  V30 5690 H 529.367 3.66972 -2.14969 0
M  V30 5691 N 527.682 1.05563 1.17022 0
M  V30 5692 C 528.612 0.681026 2.23348 0
M  V30 5693 C 529.593 -0.322983 1.67005 0
M  V30 5694 O 530.778 -0.199746 1.9317 0
M  V30 5695 C 527.908 0.0589053 3.4725 0
M  V30 5696 C 526.862 0.988082 4.16438 0
M  V30 5697 C 526.188 0.229646 5.34207 0
M  V30 5698 C 527.488 2.31388 4.68249 0
M  V30 5699 H 529.182 1.56993 2.54938 0
M  V30 5700 H 526.728 0.756302 1.2254 0
M  V30 5701 H 528.681 -0.214982 4.20851 0
M  V30 5702 H 527.405 -0.864968 3.14938 0
M  V30 5703 H 526.064 1.24659 3.44754 0
M  V30 5704 H 525.712 -0.697111 4.98146 0
M  V30 5705 H 525.412 0.848815 5.81437 0
M  V30 5706 H 526.936 -0.0368694 6.10589 0
M  V30 5707 H 528.35 2.09964 5.33468 0
M  V30 5708 H 526.747 2.88736 5.26072 0
M  V30 5709 H 527.817 2.94982 3.84855 0
M  V30 5710 N 529.16 -1.33526 0.837174 0
M  V30 5711 C 530.09 -2.31764 0.284206 0
M  V30 5712 C 531.071 -1.58896 -0.607142 0
M  V30 5713 O 532.256 -1.86798 -0.531047 0
M  V30 5714 C 529.386 -3.43029 -0.542962 0
M  V30 5715 C 528.34 -4.27255 0.252451 0
M  V30 5716 C 527.666 -5.3012 -0.69836 0
M  V30 5717 C 528.966 -5.01229 1.46858 0
M  V30 5718 H 530.66 -2.78262 1.10502 0
M  V30 5719 H 528.206 -1.3378 0.532812 0
M  V30 5720 H 530.159 -4.1078 -0.940096 0
M  V30 5721 H 528.883 -2.95216 -1.39697 0
M  V30 5722 H 527.542 -3.61127 0.631124 0
M  V30 5723 H 527.19 -4.78564 -1.54872 0
M  V30 5724 H 526.89 -5.87353 -0.170274 0
M  V30 5725 H 528.414 -6.00737 -1.09305 0
M  V30 5726 H 529.828 -5.61756 1.14469 0
M  V30 5727 H 528.225 -5.68104 1.93333 0
M  V30 5728 H 529.295 -4.301 2.23924 0
M  V30 5729 N 530.638 -0.59345 -1.46 0
M  V30 5730 C 531.886 -0.082988 -2.0193 0
M  V30 5731 C 532.207 1.28569 -1.46612 0
M  V30 5732 O 531.477 1.84629 -0.654909 0
M  V30 5733 H 530.057 -0.0276882 -0.746487 0
M  V30 5734 H 532.719 -0.771657 -1.78973 0
M  V30 5735 H 531.815 -0.022079 -3.12092 0
M  V30 5736 N 532.116 1.54067 -0.331816 0
M  V30 5737 C 533.063 2.24623 0.530372 0
M  V30 5738 C 534.033 1.24009 1.10503 0
M  V30 5739 O 535.218 1.52712 1.14384 0
M  V30 5740 C 532.358 3.01374 1.68129 0
M  V30 5741 C 531.471 4.16821 1.13507 0
M  V30 5742 C 530.606 4.81085 2.25234 0
M  V30 5743 C 529.645 5.88621 1.67903 0
M  V30 5744 N 528.782 6.46713 2.73326 0
M  V30 5745 H 533.622 2.97898 -0.0778607 0
M  V30 5746 H 531.159 1.47014 -0.0501965 0
M  V30 5747 H 533.117 3.44125 2.35868 0
M  V30 5748 H 531.747 2.30419 2.26069 0
M  V30 5749 H 530.799 3.78796 0.348979 0
M  V30 5750 H 532.111 4.94203 0.675633 0
M  V30 5751 H 531.265 5.26846 3.00862 0
M  V30 5752 H 530.004 4.03102 2.74518 0
M  V30 5753 H 529.009 5.42254 0.907773 0
M  V30 5754 H 530.234 6.68506 1.19487 0
M  V30 5755 H 528.18 5.71599 3.21886 0
M  V30 5756 H 528.097 7.19532 2.3197 0
M  V30 5757 H 529.365 6.97129 3.48758 0
M  V30 5758 N 533.594 0.0601682 1.57485 0
M  V30 5759 C 534.504 -0.926121 2.15546 0
M  V30 5760 C 535.52 -1.33532 1.11558 0
M  V30 5761 O 536.696 -1.4104 1.4377 0
M  V30 5762 C 533.761 -2.17952 2.69625 0
M  V30 5763 C 532.822 -1.82783 3.88444 0
M  V30 5764 C 532.055 -3.02148 4.39935 0
M  V30 5765 O 532.278 -4.15803 3.90466 0
M  V30 5766 O 531.212 -2.82639 5.31412 0
M  V30 5767 H 535.038 -0.462289 3.00161 0
M  V30 5768 H 532.623 -0.162246 1.48516 0
M  V30 5769 H 534.505 -2.91474 3.04337 0
M  V30 5770 H 533.18 -2.63456 1.88077 0
M  V30 5771 H 532.087 -1.06549 3.58606 0
M  V30 5772 H 533.42 -1.42072 4.7125 0
M  V30 5773 N 535.072 -1.5615 -0.213296 0
M  V30 5774 C 535.982 -1.96265 -1.28519 0
M  V30 5775 C 536.998 -0.86765 -1.50824 0
M  V30 5776 O 538.174 -1.17191 -1.63793 0
M  V30 5777 C 535.239 -2.27836 -2.61327 0
M  V30 5778 C 534.3 -3.50949 -2.47252 0
M  V30 5779 C 533.533 -3.81004 -3.73727 0
M  V30 5780 O 533.756 -3.12612 -4.77106 0
M  V30 5781 O 532.69 -4.74477 -3.70344 0
M  V30 5782 H 536.516 -2.87631 -0.974795 0
M  V30 5783 H 534.101 -1.43467 -0.416832 0
M  V30 5784 H 535.983 -2.49299 -3.39747 0
M  V30 5785 H 534.658 -1.39643 -2.9203 0
M  V30 5786 H 533.565 -3.34754 -1.67004 0
M  V30 5787 H 534.898 -4.39551 -2.21486 0
M  V30 5788 N 536.55 0.480323 -1.50102 0
M  V30 5789 C 537.48 1.58769 -1.71215 0
M  V30 5790 C 538.461 1.60583 -0.560997 0
M  V30 5791 O 539.646 1.76996 -0.799127 0
M  V30 5792 C 536.776 2.97148 -1.79778 0
M  V30 5793 C 535.73 3.10201 -2.94888 0
M  V30 5794 C 535.056 4.50137 -2.88584 0
M  V30 5795 C 536.356 2.88283 -4.35534 0
M  V30 5796 H 538.05 1.41354 -2.6393 0
M  V30 5797 H 535.596 0.678591 -1.27008 0
M  V30 5798 H 537.549 3.74536 -1.93133 0
M  V30 5799 H 536.273 3.15699 -0.836772 0
M  V30 5800 H 534.932 2.35244 -2.81169 0
M  V30 5801 H 534.58 4.65593 -1.90349 0
M  V30 5802 H 534.28 4.59808 -3.65856 0
M  V30 5803 H 535.804 5.29558 -3.03976 0
M  V30 5804 H 537.218 3.55427 -4.49827 0
M  V30 5805 H 535.615 3.09408 -5.14186 0
M  V30 5806 H 536.685 1.84219 -4.48544 0
M  V30 5807 N 538.028 1.39524 0.732853 0
M  V30 5808 C 539.253 1.40329 1.52717 0
M  V30 5809 C 539.678 0.000286574 1.881 0
M  V30 5810 O 539.036 -0.987262 1.52062 0
M  V30 5811 C 539.084 2.28464 2.78992 0
M  V30 5812 O 538.188 1.716 3.75003 0
M  V30 5813 H 537.529 0.47778 0.461109 0
M  V30 5814 H 540.059 1.83546 0.903996 0
M  V30 5815 H 540.069 2.43051 3.27705 0
M  V30 5816 H 538.744 3.30425 2.52572 0
M  V30 5817 H 537.321 1.66267 3.33781 0
M  V30 5818 N 539.506 -0.963266 1.24736 0
M  V30 5819 C 540.754 -1.70343 1.08755 0
M  V30 5820 C 541.075 -1.91387 -0.373619 0
M  V30 5821 O 540.345 -1.4948 -1.2662 0
M  V30 5822 H 538.925 -0.631224 0.399456 0
M  V30 5823 H 541.587 -1.15859 1.56725 0
M  V30 5824 H 540.683 -2.68616 1.58909 0
M  V30 5825 N 540.985 -1.06182 -1.16461 0
M  V30 5826 C 542.21 -0.798599 -1.91408 0
M  V30 5827 C 542.635 0.640987 -1.76842 0
M  V30 5828 O 541.993 1.44652 -1.09296 0
M  V30 5829 C 542.041 -1.19665 -3.40165 0
M  V30 5830 O 541.145 -0.334768 -4.11039 0
M  V30 5831 H 540.486 -0.291961 -0.596368 0
M  V30 5832 H 543.016 -1.41732 -1.47557 0
M  V30 5833 H 543.026 -1.16772 -3.90933 0
M  V30 5834 H 541.701 -2.24526 -3.50087 0
M  V30 5835 H 540.278 -0.425168 -3.70468 0
M  V30 5836 N 542.463 1.3308 -0.844243 0
M  V30 5837 C 543.393 2.3161 -0.296493 0
M  V30 5838 C 544.374 1.59215 0.598707 0
M  V30 5839 O 545.559 1.87077 0.521134 0
M  V30 5840 C 542.689 3.43313 0.524762 0
M  V30 5841 C 541.643 4.27115 -0.275106 0
M  V30 5842 C 540.969 5.30483 0.670236 0
M  V30 5843 C 542.269 5.00443 -1.49514 0
M  V30 5844 H 543.963 2.77672 -1.11976 0
M  V30 5845 H 541.509 1.33496 -0.539899 0
M  V30 5846 H 543.462 4.11273 0.918298 0
M  V30 5847 H 542.186 2.95952 1.3813 0
M  V30 5848 H 540.845 3.60787 -0.650267 0
M  V30 5849 H 540.493 4.79379 1.52332 0
M  V30 5850 H 540.193 5.87435 0.139123 0
M  V30 5851 H 541.717 6.01308 1.06117 0
M  V30 5852 H 543.131 5.61141 -1.17447 0
M  V30 5853 H 541.528 5.67071 -1.96343 0
M  V30 5854 H 542.598 4.28906 -2.26202 0
M  V30 5855 N 543.941 0.601185 1.45683 0
M  V30 5856 C 544.871 -0.108824 2.33246 0
M  V30 5857 C 545.852 -0.865223 1.46451 0
M  V30 5858 O 547.037 -0.83704 1.75235 0
M  V30 5859 C 544.167 -1.11101 3.2905 0
M  V30 5860 C 543.121 -0.468244 4.25431 0
M  V30 5861 C 542.447 -1.57822 5.10878 0
M  V30 5862 C 543.747 0.606469 5.18767 0
M  V30 5863 H 545.441 0.622306 2.92861 0
M  V30 5864 H 542.987 0.300714 1.40825 0
M  V30 5865 H 544.94 -1.61622 3.89174 0
M  V30 5866 H 543.664 -1.87265 2.67581 0
M  V30 5867 H 542.323 0.0160484 3.66596 0
M  V30 5868 H 541.971 -2.32998 4.45781 0
M  V30 5869 H 541.671 -1.15369 5.76163 0
M  V30 5870 H 543.195 -2.08583 5.73869 0
M  V30 5871 H 544.609 0.185589 5.73 0
M  V30 5872 H 543.006 0.952381 5.92494 0
M  V30 5873 H 544.076 1.48559 4.61582 0
M  V30 5874 N 545.419 -1.53889 0.339982 0
M  V30 5875 C 546.351 -2.22435 -0.55275 0
M  V30 5876 C 547.364 -1.22975 -1.06681 0
M  V30 5877 O 548.553 -1.49351 -0.977575 0
M  V30 5878 C 545.653 -2.8882 -1.77302 0
M  V30 5879 C 544.826 -4.14563 -1.39486 0
M  V30 5880 C 543.885 -4.64391 -2.47442 0
M  V30 5881 O 542.911 -5.28687 -2.10899 0
M  V30 5882 N 544.113 -4.40015 -3.78639 0
M  V30 5883 H 546.878 -2.9968 0.0342669 0
M  V30 5884 H 544.439 -1.61068 0.16394 0
M  V30 5885 H 546.431 -3.19072 -2.48948 0
M  V30 5886 H 545.001 -2.15182 -2.26749 0
M  V30 5887 H 544.221 -3.90896 -0.509321 0
M  V30 5888 H 545.509 -4.96362 -1.11813 0
M  V30 5889 H 544.907 -3.88586 -4.11118 0
M  V30 5890 H 543.464 -4.74881 -4.46465 0
M  V30 5891 N 546.897 -0.0685191 -1.57451 0
M  V30 5892 C 548.122 0.613919 -1.98106 0
M  V30 5893 C 548.547 1.62551 -0.946501 0
M  V30 5894 O 547.905 1.81085 0.0882824 0
M  V30 5895 C 547.953 1.26189 -3.378 0
M  V30 5896 O 547.057 2.37773 -3.36954 0
M  V30 5897 H 546.398 0.158163 -0.644888 0
M  V30 5898 H 548.928 -0.142063 -2.04106 0
M  V30 5899 H 548.938 1.60951 -3.74912 0
M  V30 5900 H 547.613 0.520625 -4.12629 0
M  V30 5901 H 546.19 2.04829 -3.11608 0
M  V30 5902 N 548.375 1.56261 0.205012 0
M  V30 5903 C 549.621 1.80306 0.9283 0
M  V30 5904 C 549.954 0.640932 1.83319 0
M  V30 5905 O 549.229 -0.359032 1.91158 0
M  V30 5906 C 549.512 3.14547 1.75306 0
M  V30 5907 C 549.365 4.41236 0.873562 0
M  V30 5908 C 550.684 3.45382 2.72762 0
M  V30 5909 H 547.803 0.655929 0.336044 0
M  V30 5910 H 550.445 1.88984 0.196211 0
M  V30 5911 H 548.595 3.0728 2.37721 0
M  V30 5912 H 550.267 4.60539 0.264887 0
M  V30 5913 H 548.51 4.33427 0.179773 0
M  V30 5914 H 549.181 5.31639 1.48541 0
M  V30 5915 H 551.657 3.52884 2.20481 0
M  V30 5916 H 550.533 4.40449 3.2756 0
M  V30 5917 H 550.794 2.68377 3.51321 0
M  V30 5918 N 549.853 -0.472356 1.50355 0
M  V30 5919 C 550.785 -1.58795 1.65278 0
M  V30 5920 C 551.798 -1.53782 0.534313 0
M  V30 5921 O 552.987 -1.59193 0.807446 0
M  V30 5922 C 550.087 -2.97672 1.62001 0
M  V30 5923 C 549.26 -3.27568 2.89859 0
M  V30 5924 C 548.319 -4.45993 2.79242 0
M  V30 5925 O 547.345 -4.46364 3.53197 0
M  V30 5926 N 548.547 -5.47578 1.92713 0
M  V30 5927 H 551.312 -1.46411 2.61503 0
M  V30 5928 H 548.873 -0.660751 1.47803 0
M  V30 5929 H 550.865 -3.74862 1.52513 0
M  V30 5930 H 549.435 -3.03832 0.735159 0
M  V30 5931 H 548.655 -2.39003 3.13483 0
M  V30 5932 H 549.943 -3.44352 3.74565 0
M  V30 5933 H 549.341 -5.50099 1.31939 0
M  V30 5934 H 547.898 -6.23757 1.8913 0
M  V30 5935 N 551.331 -1.39911 -0.725443 0
M  V30 5936 C 552.241 -1.41688 -1.8698 0
M  V30 5937 C 553.257 -0.310579 -1.71206 0
M  V30 5938 O 554.433 -0.55359 -1.93642 0
M  V30 5939 C 551.498 -1.26811 -3.22676 0
M  V30 5940 C 550.559 -2.47497 -3.50776 0
M  V30 5941 C 549.792 -2.3332 -4.79997 0
M  V30 5942 O 550.015 -1.34175 -5.54394 0
M  V30 5943 O 548.949 -3.22498 -5.08211 0
M  V30 5944 H 552.775 -2.38171 -1.88436 0
M  V30 5945 H 550.36 -1.21128 -0.874548 0
M  V30 5946 H 552.242 -1.20684 -4.03749 0
M  V30 5947 H 550.917 -0.334289 -3.21969 0
M  V30 5948 H 549.824 -2.59201 -2.69751 0
M  V30 5949 H 551.157 -3.39606 -3.5627 0
M  V30 5950 N 552.809 0.956637 -1.25245 0
M  V30 5951 C 553.772 2.03457 -1.05537 0
M  V30 5952 C 554.772 1.60798 -0.00886317 0
M  V30 5953 O 555.962 1.72384 -0.250865 0
M  V30 5954 C 553.094 3.35543 -0.601965 0
M  V30 5955 H 554.287 2.22372 -2.01223 0
M  V30 5956 H 551.84 1.13344 -1.07623 0
M  V30 5957 H 552.575 3.22323 0.357584 0
M  V30 5958 H 552.36 3.67854 -1.35743 0
M  V30 5959 H 553.85 4.14769 -0.485454 0
M  V30 5960 N 554.287 1.06798 1.15896 0
M  V30 5961 C 555.217 0.704677 2.22613 0
M  V30 5962 C 556.198 -0.305252 1.67339 0
M  V30 5963 O 557.383 -0.179247 1.93371 0
M  V30 5964 C 554.513 0.0957325 3.47168 0
M  V30 5965 C 553.467 1.0322 4.15367 0
M  V30 5966 C 552.793 0.286293 5.33933 0
M  V30 5967 C 554.093 2.36341 4.65768 0
M  V30 5968 H 555.787 1.59688 2.53259 0
M  V30 5969 H 553.333 0.769257 1.21731 0
M  V30 5970 H 555.286 -0.170333 4.21056 0
M  V30 5971 H 554.01 -0.831516 3.15838 0
M  V30 5972 H 552.669 1.28309 3.43413 0
M  V30 5973 H 552.317 -0.644237 4.98857 0
M  V30 5974 H 552.017 0.910436 5.80504 0
M  V30 5975 H 553.541 0.0278938 6.10594 0
M  V30 5976 H 554.955 2.1561 5.31211 0
M  V30 5977 H 553.352 2.94299 5.2298 0
M  V30 5978 H 554.422 2.99047 3.81705 0
M  V30 5979 N 555.766 -1.3263 0.851289 0
M  V30 5980 C 556.676 -2.32722 0.296268 0
M  V30 5981 C 557.692 -1.63901 -0.584162 0
M  V30 5982 O 558.868 -1.95465 -0.485334 0
M  V30 5983 C 555.933 -3.42942 -0.509103 0
M  V30 5984 C 554.994 -4.2746 0.397069 0
M  V30 5985 C 554.227 -5.32416 -0.36996 0
M  V30 5986 O 554.45 -5.47491 -1.6003 0
M  V30 5987 O 553.384 -6.01327 0.262493 0
M  V30 5988 H 557.21 -2.82078 1.12543 0
M  V30 5989 H 554.795 -1.36194 0.614135 0
M  V30 5990 H 556.677 -4.1017 -0.96634 0
M  V30 5991 H 555.352 -2.95781 -1.31512 0
M  V30 5992 H 554.259 -3.63053 0.902411 0
M  V30 5993 H 555.592 -4.78136 1.16818 0
M  V30 5994 N 557.244 -0.608902 -1.45362 0
M  V30 5995 C 558.154 0.110969 -2.34337 0
M  V30 5996 C 559.17 0.859007 -1.51318 0
M  V30 5997 O 560.346 0.816296 -1.84116 0
M  V30 5998 C 557.411 1.09494 -3.28956 0
M  V30 5999 C 556.472 0.348718 -4.27881 0
M  V30 6000 C 555.705 1.28582 -5.17979 0
M  V30 6001 O 555.928 2.52369 -5.11533 0
M  V30 6002 O 554.862 0.782172 -5.96796 0
M  V30 6003 H 558.688 -0.620258 -2.97299 0
M  V30 6004 H 556.273 -0.36916 -1.44767 0
M  V30 6005 H 558.155 1.66163 -3.87257 0
M  V30 6006 H 556.83 1.80717 -2.68557 0
M  V30 6007 H 555.737 -0.260465 -3.73192 0
M  V30 6008 H 557.07 -0.323049 -4.91139 0
M  V30 6009 N 558.722 1.53707 -0.348139 0
M  V30 6010 C 560.138 1.596 0.00361134 0
M  V30 6011 C 560.338 1.36394 1.4832 0
M  V30 6012 O 559.394 1.16046 2.24253 0
M  V30 6013 C 560.707 2.97512 -0.436682 0
M  V30 6014 C 562.255 3.10568 -0.389416 0
M  V30 6015 C 562.73 4.50866 -0.805249 0
M  V30 6016 N 564.221 4.56929 -0.759616 0
M  V30 6017 C 564.956 5.63643 -1.05327 0
M  V30 6018 N 564.452 6.78189 -1.41531 0
M  V30 6019 N 566.245 5.5354 -0.977207 0
M  V30 6020 H 558.396 1.67044 -1.31187 0
M  V30 6021 H 560.659 0.782559 -0.535075 0
M  V30 6022 H 560.365 3.19575 -1.46849 0
M  V30 6023 H 560.239 3.76742 0.185744 0
M  V30 6024 H 562.626 2.88226 0.633228 0
M  V30 6025 H 562.707 2.33387 -1.04711 0
M  V30 6026 H 562.351 4.73943 -1.82593 0
M  V30 6027 H 562.281 5.26452 -0.124989 0
M  V30 6028 H 564.772 3.74675 -0.49265 0
M  V30 6029 H 565.085 7.55541 -1.62411 0
M  V30 6030 H 563.43 6.79624 -1.45381 0
M  V30 6031 H 566.621 4.62932 -0.693675 0
M  V30 6032 H 566.794 6.36614 -1.2094 0
M  V30 6033 N 560.2 0.0768682 1.57412 0
M  V30 6034 C 561.425 -0.603404 1.98428 0
M  V30 6035 C 561.85 -1.62047 0.955108 0
M  V30 6036 O 561.208 -1.81129 -0.0786778 0
M  V30 6037 C 561.256 -1.24396 3.38464 0
M  V30 6038 O 560.36 -2.35982 3.3821 0
M  V30 6039 H 559.701 -0.154741 0.645718 0
M  V30 6040 H 562.231 0.152885 2.04028 0
M  V30 6041 H 562.241 -1.5896 3.7576 0
M  V30 6042 H 560.916 -0.498735 4.12899 0
M  V30 6043 H 559.493 -2.03173 3.1269 0
M  V30 6044 N 561.678 -1.56367 -0.196722 0
M  V30 6045 C 562.608 -1.97442 -1.24655 0
M  V30 6046 C 563.589 -0.846147 -1.47561 0
M  V30 6047 O 564.774 -1.11035 -1.59326 0
M  V30 6048 C 561.904 -2.31253 -2.59112 0
M  V30 6049 C 560.858 -3.46804 -2.50821 0
M  V30 6050 C 560.184 -3.66286 -3.89536 0
M  V30 6051 C 561.484 -4.8104 -2.03465 0
M  V30 6052 H 563.178 -2.85388 -0.905216 0
M  V30 6053 H 560.724 -1.37304 -0.434002 0
M  V30 6054 H 562.677 -2.58583 -3.32736 0
M  V30 6055 H 561.401 -1.40188 -2.94983 0
M  V30 6056 H 560.06 -3.19563 -1.79653 0
M  V30 6057 H 559.708 -2.72555 -4.22756 0
M  V30 6058 H 559.408 -4.4402 -3.84864 0
M  V30 6059 H 560.932 -3.9599 -4.64784 0
M  V30 6060 H 562.346 -5.07411 -2.66846 0
M  V30 6061 H 560.743 -5.62232 -2.09798 0
M  V30 6062 H 561.813 -4.74732 -0.98781 0
M  V30 6063 N 563.156 0.464375 -1.50603 0
M  V30 6064 C 564.384 1.23907 -1.65695 0
M  V30 6065 C 564.799 1.85658 -0.343027 0
M  V30 6066 O 564.156 1.69529 0.675739 0
M  V30 6067 C 564.207 2.3429 -2.75301 0
M  V30 6068 O 563.928 1.7507 -4.01599 0
M  V30 6069 C 565.429 3.25051 -3.01424 0
M  V30 6070 H 562.649 0.374485 -0.556778 0
M  V30 6071 H 565.193 0.55353 -1.96866 0
M  V30 6072 H 563.348 2.98607 -2.46804 0
M  V30 6073 H 563.762 2.47812 -4.62266 0
M  V30 6074 H 565.236 3.98699 -3.81763 0
M  V30 6075 H 565.713 3.84227 -2.12758 0
M  V30 6076 H 566.319 2.66463 -3.31477 0
M  V30 6077 N 564.634 1.40294 0.718013 0
M  V30 6078 C 565.883 1.37746 1.4734 0
M  V30 6079 C 566.196 -0.0180754 1.95592 0
M  V30 6080 O 567.402 -0.166166 2.70991 0
M  V30 6081 C 565.858 2.4208 2.66318 0
M  V30 6082 C 565.466 3.87432 2.24945 0
M  V30 6083 C 567.21 2.48635 3.44065 0
M  V30 6084 C 565.117 4.83368 3.40748 0
M  V30 6085 H 564.047 0.512165 0.553356 0
M  V30 6086 H 566.698 1.66019 0.781661 0
M  V30 6087 H 565.08 2.06903 3.3765 0
M  V30 6088 H 566.254 4.3174 1.6105 0
M  V30 6089 H 564.569 3.8433 1.60249 0
M  V30 6090 H 567.166 3.17499 4.30231 0
M  V30 6091 H 567.509 1.51611 3.87711 0
M  V30 6092 H 568.042 2.82791 2.79775 0
M  V30 6093 H 564.781 5.81716 3.02136 0
M  V30 6094 H 564.301 4.43726 4.03568 0
M  V30 6095 H 565.98 5.03074 4.06848 0
M  V30 6096 N 566.112 -0.949982 1.2575 0
M  V30 6097 C 567.528 -1.22191 1.02672 0
M  V30 6098 C 567.728 -1.99898 -0.253588 0
M  V30 6099 O 566.784 -2.33329 -0.965076 0
M  V30 6100 C 568.097 -1.99175 2.25277 0
M  V30 6101 C 569.645 -2.12201 2.30087 0
M  V30 6102 C 570.12 -2.92586 3.5236 0
M  V30 6103 N 571.611 -3.00163 3.52784 0
M  V30 6104 C 572.346 -3.62766 4.44059 0
M  V30 6105 N 571.842 -4.26943 5.45611 0
M  V30 6106 N 573.635 -3.59953 4.3173 0
M  V30 6107 H 565.786 -0.430258 2.07996 0
M  V30 6108 H 568.049 -0.252844 0.91366 0
M  V30 6109 H 567.755 -1.49479 3.18354 0
M  V30 6110 H 567.629 -2.99868 2.28821 0
M  V30 6111 H 570.016 -2.61093 1.3753 0
M  V30 6112 H 570.097 -1.10799 2.30559 0
M  V30 6113 H 569.741 -2.44383 4.45241 0
M  V30 6114 H 569.671 -3.94224 3.49134 0
M  V30 6115 H 572.162 -2.54529 2.79327 0
M  V30 6116 H 572.475 -4.72583 6.11461 0
M  V30 6117 H 570.82 -4.25557 5.49478 0
M  V30 6118 H 574.011 -3.09003 3.51617 0
M  V30 6119 H 574.184 -4.08455 5.03059 0
M  V30 6120 N 567.59 -1.07411 -1.15328 0
M  V30 6121 C 568.815 -0.818856 -1.90551 0
M  V30 6122 C 569.24 0.622194 -1.77512 0
M  V30 6123 O 568.598 1.43484 -1.10824 0
M  V30 6124 C 568.646 -1.23267 -3.38877 0
M  V30 6125 O 567.75 -0.378345 -4.10661 0
M  V30 6126 H 567.091 -0.29827 -0.593238 0
M  V30 6127 H 569.621 -1.43289 -1.46046 0
M  V30 6128 H 569.631 -1.20912 -3.89672 0
M  V30 6129 H 568.306 -2.28226 -3.47686 0
M  V30 6130 H 566.883 -0.464437 -3.69996 0
M  V30 6131 N 569.068 1.32177 -0.85831 0
M  V30 6132 C 570.031 2.27086 -0.310588 0
M  V30 6133 C 571.031 1.51751 0.531806 0
M  V30 6134 O 572.221 1.70794 0.34279 0
M  V30 6135 C 569.353 3.36266 0.560179 0
M  V30 6136 H 570.546 2.77045 -1.1483 0
M  V30 6137 H 568.099 1.42911 -0.632942 0
M  V30 6138 H 568.834 2.9158 1.41956 0
M  V30 6139 H 568.619 3.92077 -0.0428473 0
M  V30 6140 H 570.109 4.06974 0.936056 0
M  V30 6141 N 570.547 0.616602 1.45037 0
M  V30 6142 C 571.772 0.120192 2.07051 0
M  V30 6143 C 572.197 -1.19008 1.45666 0
M  V30 6144 O 571.555 -1.7267 0.552692 0
M  V30 6145 C 571.603 0.00354901 3.606 0
M  V30 6146 O 570.707 -1.04431 3.98958 0
M  V30 6147 H 570.048 0.0781599 0.659384 0
M  V30 6148 H 572.578 0.849167 1.86146 0
M  V30 6149 H 572.588 -0.191754 4.07549 0
M  V30 6150 H 571.263 0.960239 4.04663 0
M  V30 6151 H 569.84 -0.824749 3.63665 0
M  V30 6152 N 572.025 -1.5352 0.356285 0
M  V30 6153 C 572.935 -2.29151 -0.502712 0
M  V30 6154 C 573.951 -1.34753 -1.1008 0
M  V30 6155 O 575.127 -1.67803 -1.11374 0
M  V30 6156 C 572.192 -3.05911 -1.63154 0
M  V30 6157 C 571.253 -4.15958 -1.06194 0
M  V30 6158 C 570.486 -4.8905 -2.13696 0
M  V30 6159 O 570.709 -4.61919 -3.34645 0
M  V30 6160 O 569.643 -5.75202 -1.77275 0
M  V30 6161 H 573.469 -3.03492 0.112466 0
M  V30 6162 H 571.054 -1.4891 0.120942 0
M  V30 6163 H 572.936 -3.53874 -2.28804 0
M  V30 6164 H 571.611 -2.34415 -2.23229 0
M  V30 6165 H 570.518 -3.7227 -0.369603 0
M  V30 6166 H 571.851 -4.89593 -0.505872 0
M  V30 6167 N 573.503 -0.0852151 -1.57369 0
M  V30 6168 C 574.75 0.580806 -1.93992 0
M  V30 6169 C 575.078 1.68801 -0.966252 0
M  V30 6170 O 574.333 1.95694 0.0158649 0
M  V30 6171 C 574.632 1.18482 -3.3719 0
M  V30 6172 C 574.298 0.2024 -4.50446 0
M  V30 6173 C 572.96 -0.0678318 -4.81152 0
M  V30 6174 C 575.312 -0.46895 -5.19086 0
M  V30 6175 C 572.64 -1.01627 -5.77831 0
M  V30 6176 C 574.992 -1.4058 -6.16782 0
M  V30 6177 C 573.656 -1.68436 -6.45899 0
M  V30 6178 H 572.926 0.212532 -0.709867 0
M  V30 6179 H 575.573 -0.158947 -1.90839 0
M  V30 6180 H 573.878 2.0006 -3.36873 0
M  V30 6181 H 575.575 1.70767 -3.62822 0
M  V30 6182 H 572.165 0.423208 -4.26505 0
M  V30 6183 H 576.349 -0.273307 -4.95547 0
M  V30 6184 H 571.605 -1.2392 -5.9871 0
M  V30 6185 H 575.779 -1.93188 -6.69068 0
M  V30 6186 H 573.406 -2.42088 -7.20623 0
M  V30 6187 N 574.981 1.5647 0.188427 0
M  V30 6188 C 575.913 1.91611 1.25769 0
M  V30 6189 C 576.926 0.807436 1.41366 0
M  V30 6190 O 578.115 1.08586 1.41673 0
M  V30 6191 C 575.215 2.13874 2.6289 0
M  V30 6192 C 574.388 3.45047 2.68815 0
M  V30 6193 C 573.447 3.56342 3.87178 0
M  V30 6194 O 572.473 4.29109 3.73971 0
M  V30 6195 N 573.675 2.89924 5.02916 0
M  V30 6196 H 576.44 2.8393 0.959373 0
M  V30 6197 H 574.001 1.57418 0.378306 0
M  V30 6198 H 575.993 2.18713 3.4051 0
M  V30 6199 H 574.563 1.28022 2.85183 0
M  V30 6200 H 573.783 3.52017 1.77419 0
M  V30 6201 H 575.071 4.31395 2.6977 0
M  V30 6202 H 574.469 2.30644 5.16546 0
M  V30 6203 H 573.026 3.0038 5.78459 0
M  V30 6204 N 576.459 -0.456382 1.50847 0
M  V30 6205 C 577.369 -1.57805 1.73594 0
M  V30 6206 C 578.385 -1.62599 0.619476 0
M  V30 6207 O 579.561 -1.80195 0.899532 0
M  V30 6208 C 576.626 -2.93926 1.8387 0
M  V30 6209 C 575.687 -2.99402 3.07663 0
M  V30 6210 C 574.92 -4.29031 3.1744 0
M  V30 6211 O 575.143 -5.20358 2.33631 0
M  V30 6212 O 574.077 -4.40401 4.10281 0
M  V30 6213 H 577.903 -1.41531 2.68705 0
M  V30 6214 H 575.488 -0.637422 1.3512 0
M  V30 6215 H 577.37 -3.74747 1.92725 0
M  V30 6216 H 576.045 -3.10368 0.91944 0
M  V30 6217 H 574.952 -2.17606 3.043 0
M  V30 6218 H 576.285 -2.87901 3.99216 0
M  V30 6219 N 577.937 -1.40673 -0.710563 0
M  V30 6220 C 578.867 -1.44095 -1.83736 0
M  V30 6221 C 579.848 -0.301286 -1.67411 0
M  V30 6222 O 581.033 -0.510618 -1.87367 0
M  V30 6223 C 578.163 -1.30773 -3.21738 0
M  V30 6224 C 577.117 -2.42395 -3.52745 0
M  V30 6225 C 576.443 -2.14147 -4.89944 0
M  V30 6226 C 577.743 -3.84738 -3.53234 0
M  V30 6227 H 579.437 -2.38396 -1.81129 0
M  V30 6228 H 576.983 -1.14746 -0.870017 0
M  V30 6229 H 578.936 -1.31783 -4.00264 0
M  V30 6230 H 577.66 -0.329507 -3.24934 0
M  V30 6231 H 576.319 -2.40643 -2.76562 0
M  V30 6232 H 575.967 -1.14703 -4.89747 0
M  V30 6233 H 575.667 -2.88934 -5.11655 0
M  V30 6234 H 577.191 -2.16848 -5.70797 0
M  V30 6235 H 578.605 -3.88286 -4.2179 0
M  V30 6236 H 577.002 -4.59085 -3.86473 0
M  V30 6237 H 578.072 -4.13962 -2.52514 0
M  V30 6238 N 579.415 0.9433 -1.26252 0
M  V30 6239 C 580.692 1.66639 -1.02424 0
M  V30 6240 C 581.072 2.06335 0.446006 0
M  V30 6241 O 580.42 1.78551 1.42589 0
M  V30 6242 C 580.63 2.88019 -1.97094 0
M  V30 6243 C 581.978 3.59718 -2.25584 0
M  V30 6244 O 583.002 2.9812 -1.94943 0
M  V30 6245 O 581.861 4.7066 -2.77743 0
M  V30 6246 H 578.955 0.729643 -0.389294 0
M  V30 6247 H 581.501 0.995218 -1.37454 0
M  V30 6248 H 580.273 2.5556 -2.96319 0
M  V30 6249 H 579.896 3.62863 -1.62532 0
M  V30 6250 N 580.893 1.08022 1.14757 0
M  V30 6251 C 582.118 0.82895 1.90114 0
M  V30 6252 C 582.543 -0.612772 1.77839 0
M  V30 6253 O 581.901 -1.42895 1.11583 0
M  V30 6254 C 581.949 1.25062 3.38219 0
M  V30 6255 O 581.053 0.400119 4.10454 0
M  V30 6256 H 580.394 0.301412 0.591648 0
M  V30 6257 H 582.924 1.44062 1.45284 0
M  V30 6258 H 582.934 1.22977 3.89025 0
M  V30 6259 H 581.609 2.30067 3.46471 0
M  V30 6260 H 580.186 0.484052 3.69745 0
M  V30 6261 N 582.371 -1.3172 0.865308 0
M  V30 6262 C 583.782 -1.79104 0.527126 0
M  V30 6263 C 584.133 -1.7135 -0.955695 0
M  V30 6264 O 583.258 -1.27845 -1.74598 0
M  V30 6265 C 583.853 -3.25207 0.950061 0
M  V30 6266 C 582.412 -3.70504 0.663611 0
M  V30 6267 C 581.559 -2.52605 1.14395 0
M  V30 6268 H 584.51 -1.18868 1.05148 0
M  V30 6269 H 584.531 -3.79535 0.270805 0
M  V30 6270 H 584.043 -3.30818 2.02931 0
M  V30 6271 H 582.144 -3.70398 -0.404474 0
M  V30 6272 H 582.257 -4.62845 1.23737 0
M  V30 6273 H 580.621 -2.4838 0.563859 0
M  V30 6274 H 581.404 -2.60964 2.23053 0
M  V30 6275 N 583.85 -0.624285 -1.44708 0
M  V30 6276 C 585.127 -0.0572781 -1.95516 0
M  V30 6277 C 585.507 1.41516 -1.56641 0
M  V30 6278 O 584.855 2.12614 -0.837111 0
M  V30 6279 C 585.065 -0.272944 -3.47931 0
M  V30 6280 C 586.413 -0.162529 -4.24289 0
M  V30 6281 O 587.437 -0.203946 -3.55616 0
M  V30 6282 O 586.296 -0.0616847 -5.46465 0
M  V30 6283 H 583.389 0.0262219 -0.826584 0
M  V30 6284 H 585.936 -0.695512 -1.54793 0
M  V30 6285 H 584.707 -1.29492 -3.69253 0
M  V30 6286 H 584.331 0.399756 -3.95585 0
M  V30 6287 N 585.328 1.53329 -0.364422 0
M  V30 6288 C 586.605 1.93557 0.281962 0
M  V30 6289 C 586.985 1.29786 1.6649 0
M  V30 6290 O 586.333 0.456512 2.23893 0
M  V30 6291 C 586.543 3.47405 0.333331 0
M  V30 6292 C 587.891 4.20699 0.574231 0
M  V30 6293 O 588.915 3.53779 0.414588 0
M  V30 6294 O 587.774 5.39287 0.885002 0
M  V30 6295 H 584.868 0.809573 0.168881 0
M  V30 6296 H 587.414 1.64494 -0.417121 0
M  V30 6297 H 586.186 3.86091 -0.636326 0
M  V30 6298 H 585.809 3.82697 1.07836 0
M  V30 6299 N 586.806 0.0935595 1.57322 0
M  V30 6300 C 588.034 -0.578934 1.98635 0
M  V30 6301 C 588.449 -1.61819 0.972626 0
M  V30 6302 O 587.806 -1.82461 -0.0379638 0
M  V30 6303 C 587.857 -1.22802 3.40003 0
M  V30 6304 O 587.578 -0.230334 4.37494 0
M  V30 6305 C 589.079 -1.98627 3.96311 0
M  V30 6306 H 586.299 -0.155324 0.652775 0
M  V30 6307 H 588.843 0.172393 2.03772 0
M  V30 6308 H 586.998 -1.93029 3.35885 0
M  V30 6309 H 587.412 -0.698649 5.19826 0
M  V30 6310 H 588.886 -2.39405 4.97382 0
M  V30 6311 H 589.363 -2.85151 3.34044 0
M  V30 6312 H 589.969 -1.3322 4.03897 0
M  V30 6313 N 588.284 -1.56567 -0.180126 0
M  V30 6314 C 589.217 -1.90813 -1.25163 0
M  V30 6315 C 590.195 -0.7699 -1.43218 0
M  V30 6316 O 591.379 -1.02236 -1.58367 0
M  V30 6317 C 588.506 -2.15138 -2.61597 0
M  V30 6318 C 587.552 -3.37834 -2.60328 0
M  V30 6319 S 588.385 -4.92486 -2.1028 0
M  V30 6320 C 589.541 -5.19896 -3.48509 0
M  V30 6321 H 589.774 -2.81398 -0.959283 0
M  V30 6322 H 587.307 -1.49541 -0.3843 0
M  V30 6323 H 589.265 -2.29835 -3.40127 0
M  V30 6324 H 587.926 -1.25276 -2.88036 0
M  V30 6325 H 587.119 -3.52027 -3.60684 0
M  V30 6326 H 586.721 -3.22208 -1.8989 0
M  V30 6327 H 589.013 -5.11334 -4.44459 0
M  V30 6328 H 589.956 -6.21571 -3.39198 0
M  V30 6329 H 590.364 -4.47489 -3.44114 0
M  V30 6330 N 589.762 0.448376 -1.51087 0
M  V30 6331 C 591.01 1.19635 -1.62886 0
M  V30 6332 C 591.331 1.91977 -0.342024 0
M  V30 6333 O 590.601 1.85094 0.641636 0
M  V30 6334 H 589.181 0.444598 -0.600285 0
M  V30 6335 H 591.843 0.515138 -1.87969 0
M  V30 6336 H 590.939 1.93194 -2.45117 0
M  V30 6337 N 591.24 1.41047 0.703093 0
M  V30 6338 C 592.468 1.4334 1.49202 0
M  V30 6339 C 592.883 0.0365596 1.88765 0
M  V30 6340 O 592.24 -0.942419 1.56284 0
M  V30 6341 C 592.291 2.33538 2.75939 0
M  V30 6342 O 592.012 3.67786 2.38045 0
M  V30 6343 C 593.513 2.44555 3.6974 0
M  V30 6344 H 590.733 0.488472 0.460039 0
M  V30 6345 H 593.277 1.85245 0.86629 0
M  V30 6346 H 591.432 1.94962 3.34766 0
M  V30 6347 H 591.846 4.15816 3.19683 0
M  V30 6348 H 593.32 3.11849 4.55471 0
M  V30 6349 H 593.797 1.47447 4.1371 0
M  V30 6350 H 594.403 2.83735 3.16819 0
M  V30 6351 N 592.718 -0.936591 1.26751 0
M  V30 6352 C 593.967 -1.67778 1.11953 0
M  V30 6353 C 594.28 -1.92694 -0.33589 0
M  V30 6354 O 595.486 -2.64682 -0.604618 0
M  V30 6355 C 593.942 -3.02138 1.95551 0
M  V30 6356 C 593.55 -2.84953 3.45696 0
M  V30 6357 C 595.294 -3.79917 1.89377 0
M  V30 6358 C 593.201 -4.14814 4.21525 0
M  V30 6359 H 592.131 -0.629275 0.415366 0
M  V30 6360 H 594.782 -1.04122 1.51099 0
M  V30 6361 H 593.164 -3.668 1.49243 0
M  V30 6362 H 594.338 -2.29112 3.99805 0
M  V30 6363 H 592.653 -2.20612 3.53156 0
M  V30 6364 H 595.25 -4.76134 2.43312 0
M  V30 6365 H 595.593 -4.07204 0.865464 0
M  V30 6366 H 596.126 -3.22037 2.33532 0
M  V30 6367 H 592.865 -3.92709 5.24843 0
M  V30 6368 H 592.385 -4.70352 3.72195 0
M  V30 6369 H 594.064 -4.83239 4.3022 0
M  V30 6370 N 594.196 -1.08629 -1.14182 0
M  V30 6371 C 595.143 -0.718299 -2.19338 0
M  V30 6372 C 596.113 0.296587 -1.63431 0
M  V30 6373 O 597.298 0.180079 -1.89948 0
M  V30 6374 C 594.438 -0.136203 -3.44831 0
M  V30 6375 C 593.551 -1.20414 -4.14879 0
M  V30 6376 C 592.686 -0.585666 -5.27962 0
M  V30 6377 C 591.725 -1.63548 -5.89846 0
M  V30 6378 N 590.862 -1.03864 -6.94375 0
M  V30 6379 H 595.702 -1.61932 -2.50164 0
M  V30 6380 H 593.239 -0.80919 -1.22844 0
M  V30 6381 H 595.197 0.219021 -4.16625 0
M  V30 6382 H 593.827 0.728121 -3.14481 0
M  V30 6383 H 592.879 -1.67676 -3.41451 0
M  V30 6384 H 594.191 -1.99959 -4.56966 0
M  V30 6385 H 593.345 -0.178818 -6.06436 0
M  V30 6386 H 592.084 0.24142 -4.87102 0
M  V30 6387 H 591.089 -2.05197 -5.10073 0
M  V30 6388 H 592.314 -2.46509 -6.3278 0
M  V30 6389 H 590.26 -0.232687 -6.55587 0
M  V30 6390 H 590.177 -1.77116 -7.3496 0
M  V30 6391 H 591.445 -0.657724 -7.7672 0
M  V30 6392 N 595.674 1.31259 -0.872281 0
M  V30 6393 C 597.09 1.49283 -0.564521 0
M  V30 6394 C 597.29 1.80243 0.900807 0
M  V30 6395 O 596.346 1.88246 1.68284 0
M  V30 6396 C 597.659 2.62503 -1.46673 0
M  V30 6397 C 599.207 2.76386 -1.46901 0
M  V30 6398 C 599.682 3.92705 -2.35684 0
M  V30 6399 N 601.173 3.99995 -2.33577 0
M  V30 6400 C 601.908 4.89276 -2.98992 0
M  V30 6401 N 601.404 5.83443 -3.73585 0
M  V30 6402 N 603.197 4.82541 -2.88289 0
M  V30 6403 H 595.348 1.09432 -1.82039 0
M  V30 6404 H 597.611 0.540949 -0.77851 0
M  V30 6405 H 597.317 2.46407 -2.50951 0
M  V30 6406 H 597.191 3.58695 -1.16696 0
M  V30 6407 H 599.578 2.91894 -0.433796 0
M  V30 6408 H 599.659 1.80853 -1.80903 0
M  V30 6409 H 599.303 3.77954 -3.39283 0
M  V30 6410 H 599.233 4.87549 -1.99006 0
M  V30 6411 H 601.724 3.32624 -1.7936 0
M  V30 6412 H 602.037 6.48303 -4.20622 0
M  V30 6413 H 600.382 5.83415 -3.77694 0
M  V30 6414 H 603.573 4.07951 -2.2955 0
M  V30 6415 H 603.746 5.51916 -3.39549 0
M  V30 6416 N 597.152 0.631951 1.44375 0
M  V30 6417 C 598.115 -0.0628142 2.29114 0
M  V30 6418 C 599.115 -0.771494 1.41084 0
M  V30 6419 O 600.305 -0.615959 1.62947 0
M  V30 6420 C 597.437 -1.09953 3.22681 0
M  V30 6421 H 598.63 0.682509 2.92031 0
M  V30 6422 H 596.183 0.392128 1.51301 0
M  V30 6423 H 596.918 -1.87481 2.64616 0
M  V30 6424 H 596.703 -0.595286 3.87555 0
M  V30 6425 H 598.193 -1.58538 3.86336 0
M  V30 6426 N 598.631 -1.53133 0.372548 0
M  V30 6427 C 600.042 -1.86404 -0.105155 0
M  V30 6428 C 600.393 -1.29289 -1.47576 0
M  V30 6429 O 599.518 -0.617646 -2.07398 0
M  V30 6430 C 600.113 -3.38223 -0.197588 0
M  V30 6431 C 598.672 -3.71266 -0.619556 0
M  V30 6432 C 597.819 -2.76353 0.228919 0
M  V30 6433 H 600.77 -1.47282 0.591077 0
M  V30 6434 H 600.791 -3.66577 -1.01987 0
M  V30 6435 H 600.303 -3.79763 0.800099 0
M  V30 6436 H 598.404 -3.35287 -1.62522 0
M  V30 6437 H 598.517 -4.77515 -0.389332 0
M  V30 6438 H 596.881 -2.52888 -0.303271 0
M  V30 6439 H 597.664 -3.20728 1.22428 0
M  V30 6440 N 600.109 -0.101901 -1.5727 0
M  V30 6441 C 601.356 0.560197 -1.94597 0
M  V30 6442 C 601.684 1.67767 -0.984101 0
M  V30 6443 O 600.939 1.95699 -0.00489193 0
M  V30 6444 C 601.238 1.14898 -3.38427 0
M  V30 6445 C 600.904 0.154613 -4.50635 0
M  V30 6446 C 599.566 -0.118861 -4.81053 0
M  V30 6447 C 601.918 -0.523979 -5.18559 0
M  V30 6448 C 599.246 -1.0775 -5.76721 0
M  V30 6449 C 601.598 -1.47114 -6.15256 0
M  V30 6450 C 600.262 -1.75278 -6.44076 0
M  V30 6451 H 599.532 0.204991 -0.712081 0
M  V30 6452 H 602.179 -0.17918 -1.9066 0
M  V30 6453 H 600.484 1.96476 -3.38976 0
M  V30 6454 H 602.181 1.66909 -3.64613 0
M  V30 6455 H 598.771 0.377948 -4.2693 0
M  V30 6456 H 602.955 -0.325851 -4.95229 0
M  V30 6457 H 598.211 -1.30263 -5.97362 0
M  V30 6458 H 602.385 -2.00274 -6.66981 0
M  V30 6459 H 600.012 -2.49717 -7.18015 0
M  V30 6460 N 601.587 1.56661 0.17182 0
M  V30 6461 C 602.517 1.99401 1.21498 0
M  V30 6462 C 603.498 0.869516 1.46197 0
M  V30 6463 O 604.683 1.13556 1.57539 0
M  V30 6464 C 601.813 2.35346 2.55401 0
M  V30 6465 C 600.767 3.5075 2.45272 0
M  V30 6466 C 600.093 3.72437 3.8366 0
M  V30 6467 C 601.393 4.84216 1.95787 0
M  V30 6468 H 603.087 2.86792 0.859699 0
M  V30 6469 H 600.633 1.37977 0.412103 0
M  V30 6470 H 602.586 2.63843 3.2858 0
M  V30 6471 H 601.31 1.44864 2.92715 0
M  V30 6472 H 599.969 3.2238 1.74547 0
M  V30 6473 H 599.617 2.79246 4.18367 0
M  V30 6474 H 599.317 4.50087 3.77751 0
M  V30 6475 H 600.841 4.03334 4.58426 0
M  V30 6476 H 602.255 5.11592 2.5874 0
M  V30 6477 H 600.652 5.65498 2.00827 0
M  V30 6478 H 601.722 4.76243 0.912159 0
M  V30 6479 N 603.065 -0.440357 1.51323 0
M  V30 6480 C 604.313 -1.18769 1.63518 0
M  V30 6481 C 604.634 -1.91793 0.352201 0
M  V30 6482 O 603.904 -1.85432 -0.631811 0
M  V30 6483 H 602.484 -0.441408 0.602634 0
M  V30 6484 H 605.146 -0.505162 1.8824 0
M  V30 6485 H 604.242 -1.91892 2.46138 0
M  V30 6486 N 604.543 -1.41418 -0.695603 0
M  V30 6487 C 605.954 -1.36335 -1.27552 0
M  V30 6488 C 606.305 -0.0464336 -1.96145 0
M  V30 6489 O 605.43 0.855304 -1.9878 0
M  V30 6490 C 606.025 -2.46941 -2.3196 0
M  V30 6491 C 604.584 -2.45256 -2.85529 0
M  V30 6492 C 603.731 -2.2679 -1.59566 0
M  V30 6493 H 606.682 -1.50934 -0.490362 0
M  V30 6494 H 606.703 -2.15997 -3.1325 0
M  V30 6495 H 606.215 -3.42775 -1.82008 0
M  V30 6496 H 604.316 -1.53179 -3.39657 0
M  V30 6497 H 604.429 -3.41565 -3.35961 0
M  V30 6498 H 602.793 -1.74667 -1.85374 0
M  V30 6499 H 603.576 -3.24651 -1.1161 0
M  V30 6500 N 606.021 0.929856 -1.27246 0
M  V30 6501 C 606.951 2.04722 -1.12299 0
M  V30 6502 C 607.932 1.70082 -0.0250464 0
M  V30 6503 O 609.117 1.93176 -0.199141 0
M  V30 6504 C 606.247 3.38721 -0.767145 0
M  V30 6505 C 605.201 3.87466 -1.81808 0
M  V30 6506 C 604.527 5.18246 -1.31626 0
M  V30 6507 C 605.827 4.11095 -3.22177 0
M  V30 6508 H 607.521 2.17485 -2.05769 0
M  V30 6509 H 605.067 1.04503 -0.990715 0
M  V30 6510 H 607.02 4.16366 -0.649413 0
M  V30 6511 H 605.744 3.25967 0.203259 0
M  V30 6512 H 604.403 3.12012 -1.92468 0
M  V30 6513 H 604.051 5.01881 -0.335378 0
M  V30 6514 H 603.751 5.51829 -2.01887 0
M  V30 6515 H 605.275 5.98462 -1.21143 0
M  V30 6516 H 606.689 4.79316 -3.1453 0
M  V30 6517 H 605.086 4.55982 -3.90129 0
M  V30 6518 H 606.156 3.16468 -3.67391 0
M  V30 6519 N 607.499 1.09233 1.13605 0
M  V30 6520 C 608.91 0.846839 1.6639 0
M  V30 6521 C 609.261 -0.625031 1.85978 0
M  V30 6522 O 608.386 -1.48173 1.57714 0
M  V30 6523 C 608.981 1.5307 3.0225 0
M  V30 6524 C 607.54 1.33223 3.52035 0
M  V30 6525 C 606.687 1.58806 2.27323 0
M  V30 6526 H 609.638 1.25175 0.975541 0
M  V30 6527 H 609.659 0.96267 3.68121 0
M  V30 6528 H 609.171 2.60192 2.87961 0
M  V30 6529 H 607.272 0.282091 3.71531 0
M  V30 6530 H 607.385 2.0657 4.32279 0
M  V30 6531 H 605.749 1.01007 2.33815 0
M  V30 6532 H 606.532 2.67153 2.15602 0
M  V30 6533 N 608.977 -1.30795 0.87923 0
M  V30 6534 C 610.205 -2.00527 0.509548 0
M  V30 6535 C 610.62 -1.65944 -0.90045 0
M  V30 6536 O 609.977 -0.893525 -1.5913 0
M  V30 6537 C 610.028 -3.55276 0.667943 0
M  V30 6538 O 609.749 -3.88625 2.02242 0
M  V30 6539 C 611.25 -4.4228 0.300494 0
M  V30 6540 H 608.47 -0.641261 0.197549 0
M  V30 6541 H 611.014 -1.66813 1.18295 0
M  V30 6542 H 609.169 -3.87377 0.0419843 0
M  V30 6543 H 609.583 -4.83334 2.03688 0
M  V30 6544 H 611.057 -5.50061 0.462242 0
M  V30 6545 H 611.534 -4.32556 -0.76106 0
M  V30 6546 H 612.14 -4.15613 0.902536 0
M  V30 6547 N 610.455 -0.639598 -1.44038 0
M  V30 6548 C 611.732 -0.078012 -1.95444 0
M  V30 6549 C 612.112 1.39847 -1.58133 0
M  V30 6550 O 611.46 2.11714 -0.859614 0
M  V30 6551 C 611.67 -0.309832 -3.47622 0
M  V30 6552 C 613.018 -0.207521 -4.24093 0
M  V30 6553 O 614.042 -0.241653 -3.55379 0
M  V30 6554 O 612.901 -0.119641 -5.46369 0
M  V30 6555 H 609.995 0.0174534 -0.826816 0
M  V30 6556 H 612.541 -0.711891 -1.54046 0
M  V30 6557 H 611.313 -1.33401 -3.67858 0
M  V30 6558 H 610.936 0.357777 -3.95987 0
M  V30 6559 N 611.933 1.52934 -0.380664 0
M  V30 6560 C 613.344 1.86457 0.0952684 0
M  V30 6561 C 613.695 1.3007 1.46889 0
M  V30 6562 O 612.82 0.628636 2.07068 0
M  V30 6563 C 613.415 3.38323 0.179648 0
M  V30 6564 C 611.974 3.71589 0.599858 0
M  V30 6565 C 611.121 2.76228 -0.243572 0
M  V30 6566 H 614.072 1.46966 -0.59888 0
M  V30 6567 H 614.093 3.67113 1.00042 0
M  V30 6568 H 613.605 3.79333 -0.820228 0
M  V30 6569 H 611.706 3.36144 1.60742 0
M  V30 6570 H 611.819 4.77715 0.364003 0
M  V30 6571 H 610.183 2.53045 0.289855 0
M  V30 6572 H 610.966 3.20074 -1.24127 0
M  V30 6573 N 613.412 0.11024 1.57214 0
M  V30 6574 C 614.823 -0.416527 1.81994 0
M  V30 6575 C 615.174 -1.67183 1.02686 0
M  V30 6576 O 614.299 -2.14823 0.260782 0
M  V30 6577 C 614.894 -0.762466 3.30109 0
M  V30 6578 C 613.453 -1.23391 3.556 0
M  V30 6579 C 612.6 -0.238166 2.76275 0
M  V30 6580 H 615.551 0.335491 1.55113 0
M  V30 6581 H 615.572 -1.62068 3.44259 0
M  V30 6582 H 615.084 0.151346 3.87805 0
M  V30 6583 H 613.185 -2.16492 3.03253 0
M  V30 6584 H 613.298 -1.18528 4.64207 0
M  V30 6585 H 611.662 -0.723421 2.4421 0
M  V30 6586 H 612.445 0.668591 3.36727 0
M  V30 6587 N 614.89 -1.56749 -0.16351 0
M  V30 6588 C 615.853 -1.96121 -1.18613 0
M  V30 6589 C 616.853 -0.845765 -1.36761 0
M  V30 6590 O 618.043 -1.11268 -1.34033 0
M  V30 6591 C 615.175 -2.26282 -2.54969 0
M  V30 6592 H 616.368 -2.87639 -0.848764 0
M  V30 6593 H 613.921 -1.50928 -0.406251 0
M  V30 6594 H 614.656 -1.37504 -2.93706 0
M  V30 6595 H 614.441 -3.07595 -2.43162 0
M  V30 6596 H 615.931 -2.57638 -3.28653 0
M  V30 6597 N 616.368 0.432326 -1.51554 0
M  V30 6598 C 617.278 1.55023 -1.76082 0
M  V30 6599 C 618.294 1.61593 -0.645265 0
M  V30 6600 O 619.47 1.78742 -0.928086 0
M  V30 6601 C 616.535 2.90964 -1.88523 0
M  V30 6602 C 615.596 2.9447 -3.12388 0
M  V30 6603 C 614.829 4.23926 -3.24225 0
M  V30 6604 O 615.052 5.16576 -2.4188 0
M  V30 6605 O 613.986 4.33818 -4.17235 0
M  V30 6606 H 617.812 1.37238 -2.70923 0
M  V30 6607 H 615.397 0.615845 -1.36117 0
M  V30 6608 H 617.279 3.71633 -1.98662 0
M  V30 6609 H 615.954 3.08865 -0.9687 0
M  V30 6610 H 614.861 2.12737 -3.07723 0
M  V30 6611 H 616.194 2.81514 -4.03746 0
M  V30 6612 N 617.846 1.41785 0.688094 0
M  V30 6613 C 618.756 1.46596 1.83158 0
M  V30 6614 C 619.772 0.355862 1.70322 0
M  V30 6615 O 620.948 0.604737 1.92106 0
M  V30 6616 C 618.013 1.35322 3.192 0
M  V30 6617 C 617.074 2.56711 3.4409 0
M  V30 6618 C 616.307 2.45965 4.73642 0
M  V30 6619 O 616.53 1.48827 5.50642 0
M  V30 6620 O 615.464 3.35859 4.99482 0
M  V30 6621 H 619.29 2.43083 1.82056 0
M  V30 6622 H 616.875 1.23404 0.842126 0
M  V30 6623 H 618.757 1.31347 4.00407 0
M  V30 6624 H 617.432 0.419536 3.2097 0
M  V30 6625 H 616.339 2.66262 2.62784 0
M  V30 6626 H 617.672 3.48933 3.47141 0
M  V30 6627 N 619.324 -0.923095 1.27737 0
M  V30 6628 C 620.735 -1.48626 1.12993 0
M  V30 6629 C 621.086 -1.94142 -0.283439 0
M  V30 6630 O 620.211 -1.81605 -1.17681 0
M  V30 6631 C 620.806 -2.70117 2.04505 0
M  V30 6632 C 619.365 -3.22642 1.93853 0
M  V30 6633 C 618.512 -1.95368 1.96791 0
M  V30 6634 H 621.463 -0.736737 1.40563 0
M  V30 6635 H 621.484 -3.4506 1.60356 0
M  V30 6636 H 620.996 -2.36959 3.07363 0
M  V30 6637 H 619.097 -3.60549 0.939968 0
M  V30 6638 H 619.21 -3.88525 2.80331 0
M  V30 6639 H 617.574 -2.12061 1.41076 0
M  V30 6640 H 618.357 -1.64517 3.01312 0
M  V30 6641 N 620.802 -1.09834 -1.13024 0
M  V30 6642 C 621.732 -0.763451 -2.20666 0
M  V30 6643 C 622.713 0.260778 -1.68089 0
M  V30 6644 O 623.898 0.127915 -1.93778 0
M  V30 6645 C 621.028 -0.187744 -3.46792 0
M  V30 6646 C 619.982 -1.14196 -4.12484 0
M  V30 6647 C 619.308 -0.427755 -5.32986 0
M  V30 6648 C 620.608 -2.48607 -4.59338 0
M  V30 6649 H 622.302 -1.66347 -2.48936 0
M  V30 6650 H 619.848 -0.801261 -1.19649 0
M  V30 6651 H 621.801 0.0586375 -4.21359 0
M  V30 6652 H 620.525 0.747485 -3.17931 0
M  V30 6653 H 619.184 -1.37369 -3.3989 0
M  V30 6654 H 618.832 0.511747 -5.0039 0
M  V30 6655 H 618.532 -1.06403 -5.77886 0
M  V30 6656 H 620.056 -0.189772 -6.10305 0
M  V30 6657 H 621.47 -2.29618 -5.25308 0
M  V30 6658 H 619.867 -3.08062 -5.14993 0
M  V30 6659 H 620.937 -3.09062 -3.73642 0
M  V30 6660 N 622.28 1.30327 -0.886154 0
M  V30 6661 C 623.505 2.0079 -0.519425 0
M  V30 6662 C 623.93 1.65979 0.885013 0
M  V30 6663 O 623.288 0.877043 1.58675 0
M  V30 6664 C 623.336 3.53686 -0.702758 0
M  V30 6665 O 622.44 4.11637 0.250828 0
M  V30 6666 H 621.781 0.63171 -0.204544 0
M  V30 6667 H 624.311 1.66145 -1.19402 0
M  V30 6668 H 624.321 4.03531 -0.602207 0
M  V30 6669 H 622.996 3.78361 -1.72673 0
M  V30 6670 H 621.573 3.72755 0.103873 0
M  V30 6671 N 623.758 0.647228 1.43697 0
M  V30 6672 C 624.983 0.164083 2.0675 0
M  V30 6673 C 625.408 -1.15892 1.48158 0
M  V30 6674 O 624.766 -1.71459 0.589194 0
M  V30 6675 C 624.814 0.0800368 3.60511 0
M  V30 6676 O 623.918 -0.959453 4.01084 0
M  V30 6677 H 623.259 0.0921288 0.657578 0
M  V30 6678 H 625.789 0.88846 1.84303 0
M  V30 6679 H 625.799 -0.105263 4.07864 0
M  V30 6680 H 624.474 1.04586 4.02535 0
M  V30 6681 H 623.051 -0.747425 3.65333 0
M  V30 6682 N 625.236 -1.5273 0.388769 0
M  V30 6683 C 626.647 -1.86505 -0.0853788 0
M  V30 6684 C 626.998 -1.30847 -1.46197 0
M  V30 6685 O 626.123 -0.639609 -2.06732 0
M  V30 6686 C 626.718 -3.38414 -0.161703 0
M  V30 6687 C 625.277 -3.71902 -0.580144 0
M  V30 6688 C 624.424 -2.76095 0.258218 0
M  V30 6689 H 627.375 -1.46647 0.606665 0
M  V30 6690 H 627.396 -3.67638 -0.980936 0
M  V30 6691 H 626.908 -3.78893 0.840333 0
M  V30 6692 H 625.009 -3.36992 -1.58957 0
M  V30 6693 H 625.122 -4.77902 -0.338663 0
M  V30 6694 H 623.486 -2.53195 -0.276432 0
M  V30 6695 H 624.269 -3.19411 1.25822 0
M  V30 6696 N 626.714 -0.118576 -1.57153 0
M  V30 6697 C 628.125 0.40687 -1.82213 0
M  V30 6698 C 628.476 1.66636 -1.03571 0
M  V30 6699 O 627.601 2.14682 -0.272171 0
M  V30 6700 C 628.196 0.744949 -3.30509 0
M  V30 6701 C 626.755 1.21503 -3.5625 0
M  V30 6702 C 625.902 0.223511 -2.76398 0
M  V30 6703 H 628.853 -0.343712 -1.54933 0
M  V30 6704 H 628.874 1.6024 -3.45114 0
M  V30 6705 H 628.386 -0.171911 -3.87719 0
M  V30 6706 H 626.487 2.1488 -3.04396 0
M  V30 6707 H 626.6 1.16065 -4.64829 0
M  V30 6708 H 624.964 0.71046 -2.44591 0
M  V30 6709 H 625.747 -0.686439 -3.36367 0
M  V30 6710 N 628.193 1.56834 0.155195 0
M  V30 6711 C 629.441 1.82536 0.867462 0
M  V30 6712 C 629.762 0.698168 1.82073 0
M  V30 6713 O 629.032 -0.280807 1.93877 0
M  V30 6714 H 627.612 0.673401 0.323327 0
M  V30 6715 H 630.274 1.94313 0.151156 0
M  V30 6716 H 629.37 2.77171 1.43466 0
M  V30 6717 N 629.671 -0.424282 1.51781 0
M  V30 6718 C 630.899 -1.1947 1.68921 0
M  V30 6719 C 631.314 -1.84683 0.39213 0
M  V30 6720 O 630.671 -1.71261 -0.630554 0
M  V30 6721 C 630.722 -2.26909 2.81416 0
M  V30 6722 O 630.443 -1.64361 4.061 0
M  V30 6723 C 631.944 -3.16945 3.09937 0
M  V30 6724 H 629.164 -0.359591 0.566511 0
M  V30 6725 H 631.708 -0.501139 1.98265 0
M  V30 6726 H 629.863 -2.91959 2.54635 0
M  V30 6727 H 630.277 -2.35468 4.68674 0
M  V30 6728 H 631.751 -3.88437 3.922 0
M  V30 6729 H 632.228 -3.78451 2.22871 0
M  V30 6730 H 632.834 -2.57581 3.38426 0
M  V30 6731 N 631.149 -1.42148 -0.680565 0
M  V30 6732 C 632.079 -1.4796 -1.80638 0
M  V30 6733 C 633.06 -0.336728 -1.66734 0
M  V30 6734 O 634.245 -0.550247 -1.86242 0
M  V30 6735 C 631.375 -1.37569 -3.18892 0
M  V30 6736 C 630.329 -2.49823 -3.47524 0
M  V30 6737 C 629.655 -2.24491 -4.85291 0
M  V30 6738 C 630.955 -3.92144 -3.44994 0
M  V30 6739 H 632.649 -2.42184 -1.76032 0
M  V30 6740 H 630.195 -1.16566 -0.845481 0
M  V30 6741 H 632.148 -1.40243 -3.97379 0
M  V30 6742 H 630.872 -0.398357 -3.24162 0
M  V30 6743 H 629.531 -2.46455 -2.71395 0
M  V30 6744 H 629.179 -1.25066 -4.87204 0
M  V30 6745 H 628.879 -2.99722 -5.05411 0
M  V30 6746 H 630.403 -2.28906 -5.66069 0
M  V30 6747 H 631.817 -3.97145 -4.13459 0
M  V30 6748 H 630.214 -4.67179 -3.76648 0
M  V30 6749 H 631.284 -4.19225 -2.43676 0
M  V30 6750 N 632.627 0.916307 -1.28225 0
M  V30 6751 C 634.038 1.48024 -1.13779 0
M  V30 6752 C 634.389 1.94289 0.273139 0
M  V30 6753 O 633.514 1.82226 1.16716 0
M  V30 6754 C 634.109 2.69029 -2.05935 0
M  V30 6755 C 632.668 3.2161 -1.95561 0
M  V30 6756 C 631.815 1.94321 -1.97825 0
M  V30 6757 H 634.766 0.729272 -1.40951 0
M  V30 6758 H 634.787 3.44204 -1.62184 0
M  V30 6759 H 634.299 2.35325 -3.08616 0
M  V30 6760 H 632.4 3.60045 -0.959076 0
M  V30 6761 H 632.513 3.87032 -2.82388 0
M  V30 6762 H 630.877 2.1131 -1.42198 0
M  V30 6763 H 631.66 1.62917 -3.0218 0
M  V30 6764 N 634.105 1.10431 1.1244 0
M  V30 6765 C 635.516 0.864439 1.65482 0
M  V30 6766 C 635.867 -0.60527 1.8663 0
M  V30 6767 O 634.992 -1.46492 1.59276 0
M  V30 6768 C 635.587 1.56267 3.0061 0
M  V30 6769 C 634.146 1.3695 3.50602 0
M  V30 6770 C 633.293 1.61209 2.25626 0
M  V30 6771 H 636.244 1.26203 0.962209 0
M  V30 6772 H 636.265 1.00166 3.67079 0
M  V30 6773 H 635.777 2.63231 2.85186 0
M  V30 6774 H 633.878 0.321481 3.71211 0
M  V30 6775 H 633.991 2.11143 4.30064 0
M  V30 6776 H 632.355 1.03482 2.32731 0
M  V30 6777 H 633.138 2.69425 2.12756 0
M  V30 6778 N 635.583 -1.29855 0.893053 0
M  V30 6779 C 636.994 -1.77946 0.564998 0
M  V30 6780 C 637.345 -1.73339 -0.919134 0
M  V30 6781 O 636.47 -1.3152 -1.71847 0
M  V30 6782 C 637.065 -3.23118 1.01883 0
M  V30 6783 C 635.624 -3.69013 0.742051 0
M  V30 6784 C 634.771 -2.50121 1.19727 0
M  V30 6785 H 637.722 -1.16611 1.07646 0
M  V30 6786 H 637.743 -3.78875 0.351249 0
M  V30 6787 H 637.255 -3.26439 2.09903 0
M  V30 6788 H 635.356 -3.71173 -0.325816 0
M  V30 6789 H 635.469 -4.60117 1.33527 0
M  V30 6790 H 633.833 -2.47128 0.616418 0
M  V30 6791 H 634.616 -2.56174 2.28538 0
M  V30 6792 N 637.061 -0.65484 -1.43351 0
M  V30 6793 C 638.472 -0.248506 -1.85039 0
M  V30 6794 C 638.823 1.20526 -1.54816 0
M  V30 6795 O 637.948 1.92016 -0.99794 0
M  V30 6796 C 638.543 -0.444241 -3.35875 0
M  V30 6797 C 637.102 -0.0922108 -3.76287 0
M  V30 6798 C 636.249 -0.746327 -2.67068 0
M  V30 6799 H 639.2 -0.8584 -1.33481 0
M  V30 6800 H 639.221 0.309762 -3.79237 0
M  V30 6801 H 638.733 -1.50239 -3.5784 0
M  V30 6802 H 636.834 0.96328 -3.59933 0
M  V30 6803 H 636.947 -0.518807 -4.76283 0
M  V30 6804 H 635.311 -0.179416 -2.54067 0
M  V30 6805 H 636.094 -1.80754 -2.91861 0
M  V30 6806 N 638.539 1.52521 -0.396863 0
M  V30 6807 C 639.764 2.06571 0.185258 0
M  V30 6808 C 640.189 1.26605 1.39115 0
M  V30 6809 O 639.547 0.293055 1.78916 0
M  V30 6810 C 639.595 3.5674 0.526189 0
M  V30 6811 O 638.699 3.7929 1.61903 0
M  V30 6812 H 638.04 0.663712 0.0195474 0
M  V30 6813 H 640.57 1.966 -0.566519 0
M  V30 6814 H 640.58 4.00311 0.788338 0
M  V30 6815 H 639.255 4.14379 -0.355397 0
M  V30 6816 H 637.832 3.47605 1.35 0
M  V30 6817 N 640.017 0.126909 1.57088 0
M  V30 6818 C 641.265 -0.528123 1.95078 0
M  V30 6819 C 641.586 -1.66708 1.0116 0
M  V30 6820 O 640.856 -1.95777 0.0693527 0
M  V30 6821 H 639.436 -0.198087 0.720257 0
M  V30 6822 H 642.098 0.197703 1.93895 0
M  V30 6823 H 641.194 -0.917507 2.98309 0
M  V30 6824 N 641.495 -1.56914 -0.146875 0
M  V30 6825 C 642.906 -1.72799 -0.706928 0
M  V30 6826 C 643.257 -0.741329 -1.81656 0
M  V30 6827 O 642.382 0.0920162 -2.16204 0
M  V30 6828 C 642.977 -3.13317 -1.28911 0
M  V30 6829 C 641.536 -3.30803 -1.79573 0
M  V30 6830 C 640.683 -2.68725 -0.684252 0
M  V30 6831 H 643.634 -1.58504 0.0787931 0
M  V30 6832 H 643.655 -3.13323 -2.15891 0
M  V30 6833 H 643.167 -3.85104 -0.481284 0
M  V30 6834 H 641.268 -2.64012 -2.62923 0
M  V30 6835 H 641.381 -4.38754 -1.92436 0
M  V30 6836 H 639.745 -2.29196 -1.11091 0
M  V30 6837 H 640.528 -3.43117 0.112134 0
M  V30 6838 N 642.974 0.416227 -1.52004 0
M  V30 6839 C 643.922 1.5272 -1.7544 0
M  V30 6840 C 644.916 1.57596 -0.621289 0
M  V30 6841 O 646.122 1.61087 -0.803172 0
M  V30 6842 H 642.497 0.507772 -0.554682 0
M  V30 6843 H 644.468 1.30136 -2.68528 0
M  V30 6844 C 643.217 2.90165 -1.91571 0
M  V30 6845 H 642.54 2.87154 -2.78178 0
M  V30 6846 H 643.98 3.67211 -2.11972 0
M  V30 6847 C 642.439 3.29947 -0.680942 0
M  V30 6848 O 642.969 4.01403 0.154527 0
M  V30 6849 N 641.175 2.8593 -0.518894 0
M  V30 6850 H 640.722 2.2795 -1.19986 0
M  V30 6851 H 640.68 3.12907 0.305985 0
M  V30 6852 N 644.452 1.42507 0.673017 0
M  V30 6853 C 645.677 1.4668 1.46627 0
M  V30 6854 C 646.102 0.080066 1.8793 0
M  V30 6855 O 645.46 -0.921879 1.56112 0
M  V30 6856 C 645.508 2.40091 2.69051 0
M  V30 6857 O 644.612 1.8735 3.67387 0
M  V30 6858 H 643.953 0.496908 0.44043 0
M  V30 6859 H 646.483 1.87215 0.825334 0
M  V30 6860 H 646.493 2.56731 3.17101 0
M  V30 6861 H 645.168 3.4084 2.3833 0
M  V30 6862 H 643.745 1.80274 3.26429 0
M  V30 6863 N 645.93 -0.909495 1.28709 0
M  V30 6864 C 647.155 -1.69801 1.1909 0
M  V30 6865 C 647.58 -1.86479 -0.246388 0
M  V30 6866 O 646.938 -1.37802 -1.17815 0
M  V30 6867 C 646.986 -3.06543 1.89904 0
M  V30 6868 O 646.09 -3.94268 1.2094 0
M  V30 6869 H 645.431 -0.519783 0.413185 0
M  V30 6870 H 647.961 -1.13689 1.70106 0
M  V30 6871 H 647.971 -3.56748 1.97977 0
M  V30 6872 H 646.646 -2.93722 2.94449 0
M  V30 6873 H 645.223 -3.52702 1.2106 0
M  V30 6874 N 647.408 -1.11026 -1.11852 0
M  V30 6875 C 648.819 -0.873203 -1.65021 0
M  V30 6876 C 649.17 0.595364 -1.86949 0
M  V30 6877 O 648.295 1.45645 -1.60051 0
M  V30 6878 C 648.89 -1.57859 -2.99777 0
M  V30 6879 C 647.449 -1.38807 -3.49871 0
M  V30 6880 C 646.596 -1.62403 -2.24768 0
M  V30 6881 H 649.547 -1.26712 -0.955503 0
M  V30 6882 H 649.568 -1.02111 -3.66543 0
M  V30 6883 H 649.08 -2.6474 -2.83786 0
M  V30 6884 H 647.181 -0.341163 -3.71035 0
M  V30 6885 H 647.294 -2.13421 -4.28938 0
M  V30 6886 H 645.658 -1.04714 -2.32179 0
M  V30 6887 H 646.441 -2.70549 -2.11324 0
M  V30 6888 N 648.886 1.2938 -0.899927 0
M  V30 6889 C 649.816 2.30144 -0.39446 0
M  V30 6890 C 650.797 1.61611 0.530639 0
M  V30 6891 O 651.982 1.89119 0.441319 0
M  V30 6892 C 649.112 3.45229 0.37868 0
M  V30 6893 C 648.066 4.25564 -0.456012 0
M  V30 6894 C 647.392 5.32848 0.444637 0
M  V30 6895 C 648.692 4.93651 -1.70605 0
M  V30 6896 H 650.386 2.72673 -1.23653 0
M  V30 6897 H 647.932 1.31086 -0.596034 0
M  V30 6898 H 649.885 4.14797 0.743037 0
M  V30 6899 H 648.609 3.01545 1.25453 0
M  V30 6900 H 647.268 3.57704 -0.802704 0
M  V30 6901 H 646.916 4.85408 1.31863 0
M  V30 6902 H 646.616 5.87497 -0.110154 0
M  V30 6903 H 648.14 6.05268 0.805182 0
M  V30 6904 H 649.554 5.55655 -1.41141 0
M  V30 6905 H 647.951 5.58233 -2.20217 0
M  V30 6906 H 649.021 4.18926 -2.4419 0
M  V30 6907 N 650.364 0.662433 1.43002 0
M  V30 6908 C 651.294 -0.00979809 2.33498 0
M  V30 6909 C 652.275 -0.802329 1.49989 0
M  V30 6910 O 653.46 -0.761964 1.78627 0
M  V30 6911 C 650.59 -0.970446 3.33466 0
M  V30 6912 C 649.544 -0.287383 4.27034 0
M  V30 6913 C 648.87 -1.36012 5.17112 0
M  V30 6914 C 650.17 0.82595 5.15728 0
M  V30 6915 H 651.864 0.745959 2.89958 0
M  V30 6916 H 649.41 0.360172 1.39423 0
M  V30 6917 H 651.363 -1.44971 3.95679 0
M  V30 6918 H 650.087 -1.75748 2.75282 0
M  V30 6919 H 648.746 0.17152 3.66199 0
M  V30 6920 H 648.394 -2.13882 4.55262 0
M  V30 6921 H 648.094 -0.908276 5.80538 0
M  V30 6922 H 649.618 -1.84056 5.82199 0
M  V30 6923 H 651.032 0.42845 5.71697 0
M  V30 6924 H 649.429 1.20282 5.87922 0
M  V30 6925 H 650.499 1.68003 4.54866 0
M  V30 6926 N 651.842 -1.52309 0.404946 0
M  V30 6927 C 653.253 -1.86585 -0.0655926 0
M  V30 6928 C 653.604 -1.3239 -1.44801 0
M  V30 6929 O 652.729 -0.6615 -2.06042 0
M  V30 6930 C 653.324 -3.38566 -0.125801 0
M  V30 6931 C 651.883 -3.72497 -0.540666 0
M  V30 6932 C 651.03 -2.75806 0.287487 0
M  V30 6933 H 653.981 -1.45995 0.622185 0
M  V30 6934 H 654.002 -3.68658 -0.941888 0
M  V30 6935 H 653.514 -3.77981 0.880473 0
M  V30 6936 H 651.615 -3.38659 -1.55373 0
M  V30 6937 H 651.728 -4.78234 -0.287956 0
M  V30 6938 H 650.092 -2.53474 -0.249561 0
M  V30 6939 H 650.875 -3.18059 1.29203 0
M  V30 6940 N 653.32 -0.135238 -1.57019 0
M  V30 6941 C 654.548 0.526066 -2.001 0
M  V30 6942 C 654.963 1.59184 -1.01519 0
M  V30 6943 O 654.32 1.82497 -0.0104258 0
M  V30 6944 C 654.371 1.13744 -3.43139 0
M  V30 6945 O 654.092 0.114259 -4.37951 0
M  V30 6946 C 655.593 1.8805 -4.01438 0
M  V30 6947 H 652.813 0.137962 -0.656664 0
M  V30 6948 H 655.357 -0.226359 -2.03243 0
M  V30 6949 H 653.512 1.84056 -3.40885 0
M  V30 6950 H 653.926 0.56058 -5.21496 0
M  V30 6951 H 655.4 2.26133 -5.03555 0
M  V30 6952 H 655.877 2.76194 -3.41487 0
M  V30 6953 H 656.483 1.22464 -4.07287 0
M  V30 6954 N 654.798 1.5699 0.138552 0
M  V30 6955 C 655.761 1.97984 1.15478 0
M  V30 6956 C 656.761 0.867416 1.35398 0
M  V30 6957 O 657.951 1.13387 1.32246 0
M  V30 6958 C 655.083 2.3031 2.51337 0
M  V30 6959 H 656.276 2.88953 0.802896 0
M  V30 6960 H 653.829 1.51555 0.382189 0
M  V30 6961 H 654.564 1.42159 2.91481 0
M  V30 6962 H 654.349 3.11425 2.38237 0
M  V30 6963 H 655.839 2.62834 3.24512 0
M  V30 6964 N 656.276 -0.40816 1.52223 0
M  V30 6965 C 657.522 -1.15347 1.67531 0
M  V30 6966 C 657.877 -1.8818 0.400748 0
M  V30 6967 O 657.17 -1.81803 -0.604845 0
M  V30 6968 C 657.364 -2.17422 2.83659 0
M  V30 6969 C 657.193 -1.54611 4.22286 0
M  V30 6970 C 655.963 -1.31841 4.87797 0
M  V30 6971 C 658.161 -1.00648 5.04355 0
M  V30 6972 N 656.143 -0.649338 6.10456 0
M  V30 6973 C 657.514 -0.464384 6.18258 0
M  V30 6974 C 659.569 -0.901041 4.89679 0
M  V30 6975 C 658.272 0.172825 7.19092 0
M  V30 6976 C 660.298 -0.277684 5.90748 0
M  V30 6977 C 659.66 0.253734 7.03943 0
M  V30 6978 H 655.759 -0.408722 0.666686 0
M  V30 6979 H 658.343 -0.445713 1.8953 0
M  V30 6980 H 656.514 -2.85554 2.63274 0
M  V30 6981 H 658.246 -2.84321 2.87999 0
M  V30 6982 H 655.001 -1.58819 4.46176 0
M  V30 6983 H 655.425 -0.3314 6.76188 0
M  V30 6984 H 660.067 -1.29772 4.02392 0
M  V30 6985 H 657.785 0.581564 8.06005 0
M  V30 6986 H 661.371 -0.197605 5.81464 0
M  V30 6987 H 660.251 0.728482 7.80809 0
M  V30 6988 N 657.755 -1.42862 -0.66545 0
M  V30 6989 C 658.718 -1.46756 -1.76055 0
M  V30 6990 C 659.718 -0.353866 -1.56858 0
M  V30 6991 O 660.908 -0.615099 -1.62979 0
M  V30 6992 C 658.04 -1.30829 -3.14796 0
M  V30 6993 H 659.233 -2.44271 -1.73987 0
M  V30 6994 H 656.786 -1.29447 -0.875965 0
M  V30 6995 H 657.521 -0.342733 -3.22484 0
M  V30 6996 H 657.306 -2.11551 -3.30134 0
M  V30 6997 H 658.796 -1.36458 -3.94676 0
M  V30 6998 N 659.233 0.902656 -1.29189 0
M  V30 6999 C 660.461 1.68639 -1.19869 0
M  V30 7000 C 660.876 1.87254 0.241121 0
M  V30 7001 O 660.233 1.40745 1.16177 0
M  V30 7002 C 660.284 3.07251 -1.90471 0
M  V30 7003 O 660.005 2.89488 -3.28829 0
M  V30 7004 C 661.506 4.01653 -1.8759 0
M  V30 7005 H 658.726 0.526802 -0.415596 0
M  V30 7006 H 661.27 1.12901 -1.7051 0
M  V30 7007 H 659.425 3.59774 -1.43672 0
M  V30 7008 H 659.839 3.77296 -3.64346 0
M  V30 7009 H 661.313 4.96339 -2.4156 0
M  V30 7010 H 661.79 4.30881 -0.850756 0
M  V30 7011 H 662.396 3.55061 -2.34119 0
M  V30 7012 N 660.711 1.11618 1.11262 0
M  V30 7013 C 661.644 0.719995 2.16544 0
M  V30 7014 C 662.622 -0.28471 1.60088 0
M  V30 7015 O 663.806 -0.180693 1.87632 0
M  V30 7016 C 660.933 0.0643302 3.38639 0
M  V30 7017 C 659.979 1.03448 4.13764 0
M  V30 7018 S 660.812 2.55789 4.70459 0
M  V30 7019 C 661.968 1.91529 5.95875 0
M  V30 7020 H 662.201 1.61181 2.49816 0
M  V30 7021 H 659.734 0.934401 1.22916 0
M  V30 7022 H 661.692 -0.307609 4.09346 0
M  V30 7023 H 660.353 -0.804471 3.03623 0
M  V30 7024 H 659.546 0.523188 5.01277 0
M  V30 7025 H 659.148 1.34893 3.48826 0
M  V30 7026 H 661.44 1.25286 6.65815 0
M  V30 7027 H 662.383 2.77047 6.51652 0
M  V30 7028 H 662.791 1.37468 5.47506 0
M  V30 7029 N 662.189 -1.289 0.906776 0
M  V30 7030 C 663.136 -2.2751 0.388313 0
M  V30 7031 C 664.106 -1.57301 -0.533439 0
M  V30 7032 O 665.291 -1.85243 -0.457148 0
M  V30 7033 C 662.431 -3.43091 -0.37181 0
M  V30 7034 C 661.544 -4.28066 0.581647 0
M  V30 7035 C 660.679 -5.30837 -0.19623 0
M  V30 7036 C 659.718 -6.07472 0.751294 0
M  V30 7037 N 658.855 -7.021 0.00737727 0
M  V30 7038 H 663.695 -2.71237 1.23428 0
M  V30 7039 H 661.232 -1.33397 0.619962 0
M  V30 7040 H 663.19 -4.08888 -0.828641 0
M  V30 7041 H 661.82 -3.00374 -1.18218 0
M  V30 7042 H 660.872 -3.62378 1.157 0
M  V30 7043 H 662.184 -4.81382 1.30665 0
M  V30 7044 H 661.338 -6.02485 -0.71394 0
M  V30 7045 H 660.077 -4.78272 -0.954324 0
M  V30 7046 H 659.082 -5.34682 1.28044 0
M  V30 7047 H 660.307 -6.62126 1.50883 0
M  V30 7048 H 658.253 -6.51894 -0.732854 0
M  V30 7049 H 658.17 -7.53004 0.672334 0
M  V30 7050 H 659.438 -7.77956 -0.490365 0
M  V30 7051 N 663.667 -0.670007 -1.42649 0
M  V30 7052 C 664.599 0.0501746 -2.29145 0
M  V30 7053 C 665.612 0.770331 -1.43422 0
M  V30 7054 O 666.801 0.625288 -1.6719 0
M  V30 7055 C 663.901 1.09463 -3.20735 0
M  V30 7056 C 663.074 0.44926 -4.35087 0
M  V30 7057 C 662.133 1.39285 -5.07431 0
M  V30 7058 O 661.159 0.894997 -5.6212 0
M  V30 7059 N 662.361 2.72631 -5.12496 0
M  V30 7060 H 665.126 -0.692312 -2.91594 0
M  V30 7061 H 662.687 -0.514056 -1.53522 0
M  V30 7062 H 664.679 1.72705 -3.65999 0
M  V30 7063 H 663.249 1.73891 -2.59771 0
M  V30 7064 H 662.469 -0.362573 -3.92529 0
M  V30 7065 H 663.757 -0.000544776 -5.088 0
M  V30 7066 H 663.155 3.15623 -4.69467 0
M  V30 7067 H 661.712 3.31132 -5.61422 0
M  V30 7068 N 665.145 1.52092 -0.413018 0
M  V30 7069 C 666.561 1.59471 -0.0640836 0
M  V30 7070 C 666.761 1.42562 1.42402 0
M  V30 7071 O 665.817 1.25453 2.19129 0
M  V30 7072 C 667.13 2.95392 -0.562474 0
M  V30 7073 C 668.678 3.08637 -0.520788 0
M  V30 7074 C 669.153 4.47044 -0.995752 0
M  V30 7075 N 670.644 4.53296 -0.952732 0
M  V30 7076 C 671.379 5.58669 -1.29138 0
M  V30 7077 N 670.875 6.71576 -1.70168 0
M  V30 7078 N 672.668 5.48898 -1.2111 0
M  V30 7079 H 664.819 1.6133 -1.38153 0
M  V30 7080 H 667.082 0.75916 -0.567785 0
M  V30 7081 H 666.788 3.13059 -1.60271 0
M  V30 7082 H 666.662 3.77191 0.0257875 0
M  V30 7083 H 669.049 2.90652 0.510412 0
M  V30 7084 H 669.13 2.28735 -1.14515 0
M  V30 7085 H 668.774 4.65773 -2.0253 0
M  V30 7086 H 668.704 5.25448 -0.348162 0
M  V30 7087 H 671.195 3.72248 -0.651119 0
M  V30 7088 H 671.508 7.47973 -1.9431 0
M  V30 7089 H 669.853 6.72847 -1.74075 0
M  V30 7090 H 673.044 4.59573 -0.889396 0
M  V30 7091 H 673.217 6.30912 -1.47833 0
M  V30 7092 N 666.623 0.143563 1.56945 0
M  V30 7093 C 667.533 -0.810562 2.20152 0
M  V30 7094 C 668.549 -1.27431 1.1848 0
M  V30 7095 O 669.725 -1.33221 1.51044 0
M  V30 7096 C 666.79 -2.03353 2.80799 0
M  V30 7097 C 665.851 -1.61936 3.97587 0
M  V30 7098 C 665.084 -2.78403 4.55332 0
M  V30 7099 O 665.307 -3.94521 4.11958 0
M  V30 7100 O 664.241 -2.54073 5.45647 0
M  V30 7101 H 668.067 -0.30253 3.02189 0
M  V30 7102 H 665.652 -0.0832925 1.49168 0
M  V30 7103 H 667.534 -2.74932 3.19359 0
M  V30 7104 H 666.209 -2.53116 2.01777 0
M  V30 7105 H 665.116 -0.873904 3.6375 0
M  V30 7106 H 666.449 -1.16892 4.78118 0
M  V30 7107 N 668.101 -1.57061 -0.130224 0
M  V30 7108 C 669.378 -1.75205 -0.869631 0
M  V30 7109 C 669.758 -0.716063 -1.98584 0
M  V30 7110 O 669.106 0.262032 -2.26993 0
M  V30 7111 C 669.316 -3.19835 -1.39666 0
M  V30 7112 C 670.664 -3.82011 -1.85345 0
M  V30 7113 O 671.688 -3.23368 -1.49371 0
M  V30 7114 O 670.547 -4.85064 -2.51744 0
M  V30 7115 H 667.641 -0.716977 -0.412157 0
M  V30 7116 H 670.187 -1.69311 -0.11484 0
M  V30 7117 H 668.959 -3.86745 -0.595288 0
M  V30 7118 H 668.582 -3.30222 -2.21448 0
M  V30 7119 N 669.579 0.400081 -1.52437 0
M  V30 7120 C 670.99 0.97851 -1.59003 0
M  V30 7121 C 671.341 1.91293 -0.436068 0
M  V30 7122 O 670.466 2.1183 0.442365 0
M  V30 7123 C 671.061 1.78145 -2.88184 0
M  V30 7124 C 669.62 2.30976 -2.97199 0
M  V30 7125 C 668.767 1.11212 -2.54022 0
M  V30 7126 H 671.718 0.180002 -1.57676 0
M  V30 7127 H 671.739 2.63968 -2.74046 0
M  V30 7128 H 671.251 1.1011 -3.72152 0
M  V30 7129 H 669.352 3.02355 -2.17744 0
M  V30 7130 H 669.465 2.61221 -4.01622 0
M  V30 7131 H 667.829 1.46882 -2.08081 0
M  V30 7132 H 668.612 0.447307 -3.40373 0
M  V30 7133 N 671.057 1.43213 0.657864 0
M  V30 7134 C 671.967 1.50448 1.80007 0
M  V30 7135 C 672.983 0.39191 1.69529 0
M  V30 7136 O 674.159 0.645349 1.90781 0
M  V30 7137 C 671.224 1.42062 3.16258 0
M  V30 7138 C 670.285 2.63951 3.38568 0
M  V30 7139 C 669.518 2.55956 4.68318 0
M  V30 7140 O 669.741 1.60473 5.47361 0
M  V30 7141 O 668.675 3.46378 4.92245 0
M  V30 7142 H 672.501 2.4689 1.76858 0
M  V30 7143 H 670.086 1.25163 0.81576 0
M  V30 7144 H 671.968 1.3981 3.97531 0
M  V30 7145 H 670.643 0.487524 3.20008 0
M  V30 7146 H 669.55 2.71776 2.57077 0
M  V30 7147 H 670.883 3.56217 3.39662 0
M  V30 7148 N 672.536 -0.895792 1.29666 0
M  V30 7149 C 673.952 -1.17726 1.07763 0
M  V30 7150 C 674.152 -2.00794 -0.168576 0
M  V30 7151 O 673.208 -2.37213 -0.865244 0
M  V30 7152 C 674.521 -1.89441 2.33522 0
M  V30 7153 C 676.069 -2.02251 2.3888 0
M  V30 7154 C 676.544 -2.77378 3.64452 0
M  V30 7155 N 678.035 -2.8493 3.65198 0
M  V30 7156 C 678.77 -3.43606 4.59045 0
M  V30 7157 N 678.266 -4.03417 5.63228 0
M  V30 7158 N 680.059 -3.41317 4.46608 0
M  V30 7159 H 672.21 -0.341652 2.09634 0
M  V30 7160 H 674.473 -0.213865 0.923561 0
M  V30 7161 H 674.179 -1.35842 3.24407 0
M  V30 7162 H 674.053 -2.89893 2.41334 0
M  V30 7163 H 676.44 -2.55025 1.4848 0
M  V30 7164 H 676.521 -1.0092 2.3505 0
M  V30 7165 H 676.165 -2.25279 4.55205 0
M  V30 7166 H 676.095 -3.79062 3.65541 0
M  V30 7167 H 678.586 -2.42453 2.89871 0
M  V30 7168 H 678.899 -4.46224 6.30955 0
M  V30 7169 H 677.244 -4.01868 5.67033 0
M  V30 7170 H 680.435 -2.93812 3.64407 0
M  V30 7171 H 680.608 -3.86751 5.1993 0
M  V30 7172 N 674.014 -1.12206 -1.10668 0
M  V30 7173 C 675.239 -0.898938 -1.86906 0
M  V30 7174 C 675.664 0.546346 -1.79991 0
M  V30 7175 O 675.022 1.38655 -1.1681 0
M  V30 7176 C 675.07 -1.37529 -3.33344 0
M  V30 7177 O 674.174 -0.55218 -4.08687 0
M  V30 7178 H 673.515 -0.323163 -0.580053 0
M  V30 7179 H 676.045 -1.49355 -1.39837 0
M  V30 7180 H 676.055 -1.3733 -3.84193 0
M  V30 7181 H 674.73 -2.42767 -3.37693 0
M  V30 7182 H 673.307 -0.620947 -3.67694 0
M  V30 7183 N 675.492 1.28418 -0.913599 0
M  V30 7184 C 676.717 1.99643 -0.561899 0
M  V30 7185 C 677.142 1.67819 0.849608 0
M  V30 7186 O 676.5 0.910503 1.56779 0
M  V30 7187 C 676.548 3.52116 -0.777622 0
M  V30 7188 O 675.652 4.12076 0.163457 0
M  V30 7189 H 674.993 0.627229 -0.217898 0
M  V30 7190 H 677.523 1.63575 -1.229 0
M  V30 7191 H 677.533 4.02163 -0.687666 0
M  V30 7192 H 676.208 3.74613 -1.8066 0
M  V30 7193 H 674.785 3.72892 0.0247827 0
M  V30 7194 N 676.97 0.677563 1.42291 0
M  V30 7195 C 678.21 0.204894 2.0337 0
M  V30 7196 C 678.574 -1.16744 1.5243 0
M  V30 7197 O 679.775 -1.73492 2.05314 0
M  V30 7198 C 678.046 0.240742 3.56588 0
M  V30 7199 S 679.605 -0.16052 4.38506 0
M  V30 7200 H 676.423 0.0839932 0.706021 0
M  V30 7201 H 679.025 0.891332 1.73999 0
M  V30 7202 H 677.729 1.24184 3.91161 0
M  V30 7203 H 677.26 -0.465439 3.90637 0
M  V30 7204 H 679.275 -1.39315 4.76241 0
M  V30 7205 N 678.448 -1.51871 0.421078 0
M  V30 7206 C 679.398 -2.24171 -0.416111 0
M  V30 7207 C 680.382 -1.25763 -1.00362 0
M  V30 7208 O 681.574 -1.5094 -0.924452 0
M  V30 7209 C 678.703 -3.07533 -1.52571 0
M  V30 7210 C 677.789 -4.1336 -0.948399 0
M  V30 7211 N 678.18 -5.05704 -0.0987933 0
M  V30 7212 C 676.478 -4.29055 -1.21768 0
M  V30 7213 C 677.179 -5.8127 0.223705 0
M  V30 7214 N 676.155 -5.4221 -0.388524 0
M  V30 7215 H 679.957 -2.92925 0.239166 0
M  V30 7216 H 677.471 -1.60732 0.232191 0
M  V30 7217 H 679.468 -3.57893 -2.13819 0
M  V30 7218 H 678.128 -2.4032 -2.18349 0
M  V30 7219 H 679.139 -5.17214 0.266428 0
M  V30 7220 H 675.816 -3.73071 -1.87416 0
M  V30 7221 H 677.206 -6.65653 0.914076 0
M  V30 7222 N 679.926 -0.151884 -1.56866 0
M  V30 7223 C 681.174 0.497021 -1.95893 0
M  V30 7224 C 681.495 1.65078 -1.03799 0
M  V30 7225 O 680.765 1.95642 -0.10049 0
M  V30 7226 H 679.345 0.186603 -0.723318 0
M  V30 7227 H 682.007 -0.228525 -1.93556 0
M  V30 7228 H 681.103 0.869933 -2.99731 0
M  V30 7229 N 681.404 1.57128 0.121893 0
M  V30 7230 C 682.334 2.03165 1.15092 0
M  V30 7231 C 683.315 0.915587 1.43356 0
M  V30 7232 O 684.5 1.1851 1.53847 0
M  V30 7233 C 681.63 2.43352 2.47784 0
M  V30 7234 C 680.584 3.58376 2.33989 0
M  V30 7235 C 679.91 3.84454 3.71617 0
M  V30 7236 C 681.21 4.90199 1.80283 0
M  V30 7237 H 682.904 2.89382 0.768023 0
M  V30 7238 H 680.45 1.39218 0.367998 0
M  V30 7239 H 682.403 2.74163 3.20019 0
M  V30 7240 H 681.127 1.54103 2.87958 0
M  V30 7241 H 679.786 3.2777 1.64202 0
M  V30 7242 H 679.434 2.92414 4.09271 0
M  V30 7243 H 679.134 4.61877 3.6324 0
M  V30 7244 H 680.658 4.17714 4.45362 0
M  V30 7245 H 682.072 5.19565 2.42333 0
M  V30 7246 H 680.469 5.71601 1.82735 0
M  V30 7247 H 681.539 4.78904 0.760184 0
M  V30 7248 N 682.882 -0.391992 1.52647 0
M  V30 7249 C 684.293 -0.970064 1.5952 0
M  V30 7250 C 684.644 -1.91059 0.446207 0
M  V30 7251 O 683.769 -2.12062 -0.431125 0
M  V30 7252 C 684.364 -1.76614 2.89125 0
M  V30 7253 C 682.923 -2.29396 2.9842 0
M  V30 7254 C 682.07 -1.09864 2.54608 0
M  V30 7255 H 685.021 -0.171638 1.57769 0
M  V30 7256 H 685.042 -2.62511 2.75442 0
M  V30 7257 H 684.554 -1.08135 3.72731 0
M  V30 7258 H 682.655 -3.01196 2.19344 0
M  V30 7259 H 682.768 -2.59088 4.03002 0
M  V30 7260 H 681.132 -1.45777 2.08857 0
M  V30 7261 H 681.915 -0.429249 3.40606 0
M  V30 7262 N 684.36 -1.4356 -0.65026 0
M  V30 7263 C 685.771 -1.40324 -1.2315 0
M  V30 7264 C 686.122 -0.108812 -1.95898 0
M  V30 7265 O 685.247 0.79163 -2.01401 0
M  V30 7266 C 685.842 -2.54195 -2.23987 0
M  V30 7267 C 684.401 -2.54215 -2.77582 0
M  V30 7268 C 683.548 -2.31752 -1.5227 0
M  V30 7269 H 686.499 -1.52418 -0.442095 0
M  V30 7270 H 686.52 -2.25854 -3.0622 0
M  V30 7271 H 686.032 -3.48392 -1.71011 0
M  V30 7272 H 684.133 -1.63907 -3.34612 0
M  V30 7273 H 684.246 -3.52081 -3.24925 0
M  V30 7274 H 682.61 -1.80476 -1.79723 0
M  V30 7275 H 683.393 -3.28037 -1.01225 0
M  V30 7276 N 685.838 0.888903 -1.30139 0
M  V30 7277 C 687.066 1.67358 -1.21651 0
M  V30 7278 C 687.481 1.87499 0.221246 0
M  V30 7279 O 686.838 1.41969 1.14677 0
M  V30 7280 C 686.889 3.05213 -1.93719 0
M  V30 7281 O 686.61 2.85984 -3.31881 0
M  V30 7282 C 688.111 3.9964 -1.9184 0
M  V30 7283 H 685.331 0.522365 -0.42116 0
M  V30 7284 H 687.875 1.11086 -1.71698 0
M  V30 7285 H 686.03 3.5823 -1.4748 0
M  V30 7286 H 686.444 3.73411 -3.68327 0
M  V30 7287 H 687.918 4.93749 -2.46811 0
M  V30 7288 H 688.395 4.29955 -0.896409 0
M  V30 7289 H 689.001 3.52558 -2.37872 0
M  V30 7290 N 687.317 1.12792 1.10072 0
M  V30 7291 C 688.728 0.899346 1.63611 0
M  V30 7292 C 689.079 -0.565547 1.87872 0
M  V30 7293 O 688.204 -1.43081 1.62348 0
M  V30 7294 C 688.799 1.62608 2.97227 0
M  V30 7295 C 687.358 1.44356 3.47618 0
M  V30 7296 C 686.505 1.65958 2.22156 0
M  V30 7297 H 689.456 1.28216 0.935223 0
M  V30 7298 H 689.477 1.0793 3.64872 0
M  V30 7299 H 688.989 2.69221 2.79538 0
M  V30 7300 H 687.09 0.400148 3.70445 0
M  V30 7301 H 687.203 2.20218 4.25489 0
M  V30 7302 H 685.567 1.08395 2.30484 0
M  V30 7303 H 686.35 2.73877 2.06993 0
M  V30 7304 N 688.795 -1.27931 0.920396 0
M  V30 7305 C 689.742 -2.27085 0.412422 0
M  V30 7306 C 690.712 -1.57858 -0.516725 0
M  V30 7307 O 691.897 -1.85717 -0.437475 0
M  V30 7308 C 689.037 -3.43466 -0.335399 0
M  V30 7309 C 688.15 -4.27425 0.627017 0
M  V30 7310 C 687.285 -5.31016 -0.139916 0
M  V30 7311 C 686.324 -6.06641 0.815683 0
M  V30 7312 N 685.461 -7.02052 0.0818439 0
M  V30 7313 H 690.301 -2.69913 1.26298 0
M  V30 7314 H 687.838 -1.32732 0.634076 0
M  V30 7315 H 689.796 -4.09744 -0.785226 0
M  V30 7316 H 688.426 -3.01611 -1.15025 0
M  V30 7317 H 687.478 -3.6113 1.19537 0
M  V30 7318 H 688.79 -4.79969 1.35763 0
M  V30 7319 H 687.944 -6.03208 -0.649998 0
M  V30 7320 H 686.683 -4.79257 -0.903543 0
M  V30 7321 H 685.688 -5.33294 1.33708 0
M  V30 7322 H 686.913 -6.60489 1.57897 0
M  V30 7323 H 684.859 -6.52634 -0.663671 0
M  V30 7324 H 684.776 -7.52249 0.752163 0
M  V30 7325 H 686.044 -7.78432 -0.407825 0
M  V30 7326 N 690.273 -0.685099 -1.4193 0
M  V30 7327 C 691.519 -0.211971 -2.01689 0
M  V30 7328 C 691.852 1.18189 -1.54094 0
M  V30 7329 O 691.127 1.79559 -0.747572 0
M  V30 7330 C 691.41 -0.258019 -3.59174 0
M  V30 7331 C 691.263 -1.68807 -4.16922 0
M  V30 7332 C 692.582 0.388044 -4.38386 0
M  V30 7333 H 689.701 -0.0784987 -0.732808 0
M  V30 7334 H 692.343 -0.871837 -1.68816 0
M  V30 7335 H 690.493 0.303832 -3.8731 0
M  V30 7336 H 692.165 -2.30296 -3.99702 0
M  V30 7337 H 690.408 -2.22553 -3.72361 0
M  V30 7338 H 691.079 -1.6719 -5.26072 0
M  V30 7339 H 693.555 -0.0903432 -4.16002 0
M  V30 7340 H 692.431 0.325232 -5.47936 0
M  V30 7341 H 692.692 1.4672 -4.17044 0
M  V30 7342 N 691.751 1.51645 -0.429126 0
M  V30 7343 C 692.701 2.24388 0.404217 0
M  V30 7344 C 693.685 1.26294 0.996933 0
M  V30 7345 O 694.877 1.51428 0.916434 0
M  V30 7346 C 692.006 3.08338 1.50938 0
M  V30 7347 C 691.092 4.13857 0.926464 0
M  V30 7348 N 691.483 5.05749 0.0719732 0
M  V30 7349 C 689.781 4.29695 1.19491 0
M  V30 7350 C 690.482 5.81143 -0.254528 0
M  V30 7351 N 689.458 5.42408 0.359763 0
M  V30 7352 H 693.26 2.92794 -0.254697 0
M  V30 7353 H 690.774 1.60606 -0.240712 0
M  V30 7354 H 692.771 3.59022 2.11918 0
M  V30 7355 H 691.431 2.41475 2.17072 0
M  V30 7356 H 692.442 5.17066 -0.293854 0
M  V30 7357 H 689.119 3.74059 1.85434 0
M  V30 7358 H 690.509 6.65159 -0.949365 0
M  V30 7359 N 693.229 0.160201 1.56784 0
M  V30 7360 C 694.162 -0.812797 2.13234 0
M  V30 7361 C 695.14 -1.2335 1.05942 0
M  V30 7362 O 696.324 -1.32725 1.33852 0
M  V30 7363 C 693.451 -2.09311 2.66283 0
M  V30 7364 C 692.497 -1.8173 3.85845 0
M  V30 7365 S 693.33 -0.996473 5.26147 0
M  V30 7366 C 694.486 -2.28769 5.82594 0
M  V30 7367 H 694.719 -0.332794 2.95432 0
M  V30 7368 H 692.252 -0.0542971 1.54304 0
M  V30 7369 H 694.21 -2.82854 2.97496 0
M  V30 7370 H 692.871 -2.54425 1.84192 0
M  V30 7371 H 692.064 -2.76699 4.21253 0
M  V30 7372 H 691.666 -1.16289 3.55462 0
M  V30 7373 H 693.958 -3.24319 5.9483 0
M  V30 7374 H 694.901 -1.97846 6.79899 0
M  V30 7375 H 695.309 -2.40021 5.10931 0
M  V30 7376 N 694.707 -1.5719 -0.113559 0
M  V30 7377 C 695.955 -1.84772 -0.818761 0
M  V30 7378 C 696.276 -0.746196 -1.80158 0
M  V30 7379 O 695.546 0.229305 -1.94553 0
M  V30 7380 H 694.126 -0.681737 -0.305359 0
M  V30 7381 H 696.788 -1.94645 -0.0995845 0
M  V30 7382 H 695.884 -2.80878 -1.36067 0
M  V30 7383 N 696.185 0.383891 -1.52853 0
M  V30 7384 C 697.148 1.45197 -1.77343 0
M  V30 7385 C 698.148 1.47362 -0.643522 0
M  V30 7386 O 699.338 1.48443 -0.911613 0
M  V30 7387 C 696.47 2.8445 -1.87885 0
M  V30 7388 H 697.663 1.24764 -2.72716 0
M  V30 7389 H 695.216 0.615939 -1.43652 0
M  V30 7390 H 695.951 3.10222 -0.94515 0
M  V30 7391 H 695.736 2.8428 -2.70051 0
M  V30 7392 H 697.226 3.61832 -2.08488 0
M  V30 7393 N 697.663 1.43903 0.642637 0
M  V30 7394 C 698.903 1.47591 1.41408 0
M  V30 7395 C 699.267 0.101313 1.91733 0
M  V30 7396 O 700.468 0.0128797 2.68797 0
M  V30 7397 C 698.739 2.4977 2.55636 0
M  V30 7398 S 700.298 2.72417 3.43998 0
M  V30 7399 H 697.116 0.522163 0.482563 0
M  V30 7400 H 699.718 1.80745 0.745085 0
M  V30 7401 H 698.422 3.48365 2.16956 0
M  V30 7402 H 697.953 2.1815 3.27375 0
M  V30 7403 H 699.968 2.03142 4.52712 0
M  V30 7404 N 699.141 -0.881989 1.30609 0
M  V30 7405 C 700.388 -1.63405 1.19604 0
M  V30 7406 C 700.716 -1.92905 -0.248574 0
M  V30 7407 O 699.971 -1.55062 -1.19391 0
M  V30 7408 C 700.27 -2.97999 1.97311 0
M  V30 7409 C 699.936 -2.88039 3.46907 0
M  V30 7410 C 698.598 -2.85029 3.877 0
M  V30 7411 C 700.95 -2.75948 4.42156 0
M  V30 7412 C 698.278 -2.67772 5.2203 0
M  V30 7413 C 700.63 -2.60228 5.76597 0
M  V30 7414 C 699.294 -2.55595 6.16626 0
M  V30 7415 H 698.564 -0.597941 0.437662 0
M  V30 7416 H 701.211 -1.02524 1.61744 0
M  V30 7417 H 699.516 -3.62847 1.47815 0
M  V30 7418 H 701.213 -3.55156 1.86186 0
M  V30 7419 H 697.803 -2.91192 3.14492 0
M  V30 7420 H 701.987 -2.77337 4.1158 0
M  V30 7421 H 697.243 -2.62601 5.52133 0
M  V30 7422 H 701.417 -2.49847 6.50038 0
M  V30 7423 H 699.044 -2.41981 7.20659 0
M  V30 7424 N 700.619 -1.13374 -1.09472 0
M  V30 7425 C 701.844 -0.918711 -1.85942 0
M  V30 7426 C 702.269 0.527225 -1.8056 0
M  V30 7427 O 701.627 1.37408 -1.18274 0
M  V30 7428 C 701.675 -1.41056 -3.31867 0
M  V30 7429 O 700.779 -0.595496 -4.08078 0
M  V30 7430 H 700.12 -0.329297 -0.576593 0
M  V30 7431 H 702.65 -1.50829 -1.38245 0
M  V30 7432 H 702.66 -1.41398 -3.82715 0
M  V30 7433 H 701.335 -2.46335 -3.35099 0
M  V30 7434 H 699.912 -0.659911 -3.67014 0
M  V30 7435 N 702.098 1.27442 -0.927168 0
M  V30 7436 C 703.045 2.26863 -0.424459 0
M  V30 7437 C 704.015 1.5813 0.508346 0
M  V30 7438 O 705.2 1.85946 0.42762 0
M  V30 7439 C 702.34 3.43639 0.31718 0
M  V30 7440 C 701.453 4.27087 -0.649675 0
M  V30 7441 C 700.588 5.31082 0.111753 0
M  V30 7442 C 699.627 6.062 -0.847843 0
M  V30 7443 N 698.764 7.01999 -0.119074 0
M  V30 7444 H 703.604 2.69239 -1.27728 0
M  V30 7445 H 701.141 1.32394 -0.641106 0
M  V30 7446 H 703.099 4.10155 0.763486 0
M  V30 7447 H 701.729 3.02217 1.13424 0
M  V30 7448 H 700.781 3.60491 -1.21451 0
M  V30 7449 H 702.093 4.79242 -1.38307 0
M  V30 7450 H 701.247 6.03544 0.618 0
M  V30 7451 H 699.986 4.7973 0.878114 0
M  V30 7452 H 698.991 5.32577 -1.36534 0
M  V30 7453 H 700.216 6.59642 -1.61398 0
M  V30 7454 H 698.162 6.52977 0.629051 0
M  V30 7455 H 698.079 7.5184 -0.792046 0
M  V30 7456 H 699.347 7.78638 0.366537 0
M  V30 7457 N 703.576 0.692616 1.41565 0
M  V30 7458 C 704.822 0.222664 2.01574 0
M  V30 7459 C 705.155 -1.1737 1.54719 0
M  V30 7460 O 704.43 -1.79161 0.757084 0
M  V30 7461 C 704.713 0.277064 3.59033 0
M  V30 7462 C 704.566 1.71016 4.16021 0
M  V30 7463 C 705.885 -0.36479 4.38586 0
M  V30 7464 H 703.004 0.0823839 0.732381 0
M  V30 7465 H 705.646 0.880778 1.68352 0
M  V30 7466 H 703.796 -0.283288 3.87466 0
M  V30 7467 H 705.468 2.32413 3.98475 0
M  V30 7468 H 703.711 2.24525 3.71175 0
M  V30 7469 H 704.382 1.69978 5.25178 0
M  V30 7470 H 706.858 0.112404 4.15948 0
M  V30 7471 H 705.734 -0.296169 5.481 0
M  V30 7472 H 705.995 -1.44506 4.17816 0
M  V30 7473 N 705.054 -1.51416 0.437162 0
M  V30 7474 C 706.301 -2.02086 -0.129364 0
M  V30 7475 C 706.629 -1.32133 -1.42728 0
M  V30 7476 O 705.884 -0.424916 -1.91031 0
M  V30 7477 C 706.183 -3.55203 -0.39564 0
M  V30 7478 C 705.849 -4.43447 0.81644 0
M  V30 7479 C 704.511 -4.67285 1.14884 0
M  V30 7480 C 706.863 -4.95219 1.62503 0
M  V30 7481 C 704.191 -5.40141 2.29052 0
M  V30 7482 C 706.543 -5.69327 2.7577 0
M  V30 7483 C 705.207 -5.91429 3.09464 0
M  V30 7484 H 704.477 -0.739486 -0.0473375 0
M  V30 7485 H 707.124 -1.82368 0.584321 0
M  V30 7486 H 705.429 -3.73252 -1.19121 0
M  V30 7487 H 707.126 -3.91944 -0.847399 0
M  V30 7488 H 703.716 -4.2509 0.547422 0
M  V30 7489 H 707.9 -4.76686 1.38144 0
M  V30 7490 H 703.156 -5.55468 2.55471 0
M  V30 7491 H 707.33 -6.08433 3.38795 0
M  V30 7492 H 704.957 -6.47662 3.98042 0
M  V30 7493 N 706.532 -0.168513 -1.56696 0
M  V30 7494 C 707.48 0.779791 -2.19139 0
M  V30 7495 C 708.474 1.23957 -1.1546 0
M  V30 7496 O 709.68 1.20555 -1.33666 0
M  V30 7497 H 706.055 0.269739 -0.701958 0
M  V30 7498 H 708.026 0.229156 -2.97519 0
M  V30 7499 C 706.775 2.00003 -2.84419 0
M  V30 7500 H 706.098 1.65527 -3.63924 0
M  V30 7501 H 707.538 2.64251 -3.31583 0
M  V30 7502 C 705.997 2.82187 -1.84044 0
M  V30 7503 O 706.527 3.79247 -1.32418 0
M  V30 7504 N 704.733 2.47145 -1.52864 0
M  V30 7505 H 704.28 1.68277 -1.9504 0
M  V30 7506 H 704.238 3.02422 -0.859569 0
M  V30 7507 N 708.01 1.57248 0.105221 0
M  V30 7508 C 709.258 1.85204 0.808951 0
M  V30 7509 C 709.579 0.75574 1.7976 0
M  V30 7510 O 708.849 -0.218984 1.94672 0
M  V30 7511 H 707.429 0.683346 0.301739 0
M  V30 7512 H 710.091 1.94695 0.0892605 0
M  V30 7513 H 709.187 2.81595 1.34575 0
M  V30 7514 N 709.488 -0.375779 1.53054 0
M  V30 7515 C 710.728 -1.12828 1.70438 0
M  V30 7516 C 711.092 -1.86854 0.441527 0
M  V30 7517 O 712.293 -2.64261 0.491908 0
M  V30 7518 C 710.564 -2.07009 2.91345 0
M  V30 7519 S 712.123 -2.89917 3.29383 0
M  V30 7520 H 708.941 -0.381736 0.599832 0
M  V30 7521 H 711.543 -0.4109 1.91133 0
M  V30 7522 H 710.247 -1.51371 3.81464 0
M  V30 7523 H 709.778 -2.83236 2.73022 0
M  V30 7524 H 711.793 -4.0924 2.80601 0
M  V30 7525 N 710.966 -1.44241 -0.634997 0
M  V30 7526 C 712.377 -1.41622 -1.21655 0
M  V30 7527 C 712.728 -0.129584 -1.95772 0
M  V30 7528 O 711.853 0.770225 -2.02229 0
M  V30 7529 C 712.448 -2.56557 -2.21278 0
M  V30 7530 C 711.007 -2.57145 -2.7487 0
M  V30 7531 C 710.154 -2.33354 -1.49804 0
M  V30 7532 H 713.105 -1.52878 -0.425905 0
M  V30 7533 H 713.126 -2.29089 -3.03807 0
M  V30 7534 H 712.638 -3.50186 -1.67306 0
M  V30 7535 H 710.739 -1.67447 -3.32855 0
M  V30 7536 H 710.852 -3.55507 -3.21172 0
M  V30 7537 H 709.216 -1.82372 -1.77799 0
M  V30 7538 H 709.999 -3.29092 -0.977402 0
M  V30 7539 N 712.444 0.87505 -1.31075 0
M  V30 7540 C 713.374 1.99775 -1.20881 0
M  V30 7541 C 714.355 1.69822 -0.0971612 0
M  V30 7542 O 715.54 1.92158 -0.280895 0
M  V30 7543 C 712.67 3.35163 -0.910118 0
M  V30 7544 C 711.624 3.79406 -1.98078 0
M  V30 7545 C 710.95 5.12197 -1.53488 0
M  V30 7546 C 712.25 3.97061 -3.39323 0
M  V30 7547 H 713.944 2.08562 -2.14808 0
M  V30 7548 H 711.49 1.00207 -1.03415 0
M  V30 7549 H 713.443 4.13237 -0.825423 0
M  V30 7550 H 712.167 3.26536 0.064822 0
M  V30 7551 H 710.826 3.03568 -2.05528 0
M  V30 7552 H 710.474 5.00007 -0.547941 0
M  V30 7553 H 710.174 5.4277 -2.2511 0
M  V30 7554 H 711.698 5.92785 -1.46417 0
M  V30 7555 H 713.112 4.65545 -3.34576 0
M  V30 7556 H 711.509 4.39025 -4.09118 0
M  V30 7557 H 712.579 3.00601 -3.80483 0
M  V30 7558 N 713.922 1.13953 1.08869 0
M  V30 7559 C 715.338 0.878924 1.33218 0
M  V30 7560 C 715.538 -0.482478 1.95638 0
M  V30 7561 O 714.594 -1.22778 2.2064 0
M  V30 7562 C 715.907 2.00798 2.23832 0
M  V30 7563 C 717.455 2.04073 2.37325 0
M  V30 7564 C 717.93 3.16258 3.31278 0
M  V30 7565 N 719.421 3.15805 3.38853 0
M  V30 7566 C 720.156 3.99249 4.11567 0
M  V30 7567 N 719.652 4.92721 4.87029 0
M  V30 7568 N 721.445 3.87327 4.0735 0
M  V30 7569 H 713.596 2.01645 0.66731 0
M  V30 7570 H 715.859 0.878395 0.356547 0
M  V30 7571 H 715.565 2.98986 1.85203 0
M  V30 7572 H 715.439 1.92704 3.24261 0
M  V30 7573 H 717.826 1.06495 2.75214 0
M  V30 7574 H 717.907 2.16239 1.36654 0
M  V30 7575 H 717.551 4.14079 2.9411 0
M  V30 7576 H 717.481 3.0133 4.31866 0
M  V30 7577 H 719.972 2.48102 2.8505 0
M  V30 7578 H 720.285 5.52867 5.39961 0
M  V30 7579 H 718.63 4.96723 4.86098 0
M  V30 7580 H 721.821 3.13627 3.475 0
M  V30 7581 H 721.994 4.52585 4.63757 0
M  V30 7582 N 715.4 -1.26948 0.933913 0
M  V30 7583 C 716.649 -1.93378 0.573409 0
M  V30 7584 C 716.962 -1.74148 -0.890614 0
M  V30 7585 O 718.168 -2.34971 -1.36017 0
M  V30 7586 C 716.624 -3.46449 0.974747 0
M  V30 7587 C 716.232 -3.74425 2.45988 0
M  V30 7588 C 717.976 -4.18924 0.685791 0
M  V30 7589 C 715.883 -5.209 2.8003 0
M  V30 7590 H 714.813 -0.723952 0.210736 0
M  V30 7591 H 717.464 -1.44143 1.13557 0
M  V30 7592 H 715.846 -3.94528 0.341181 0
M  V30 7593 H 717.02 -3.37079 3.14188 0
M  V30 7594 H 715.335 -3.15167 2.72138 0
M  V30 7595 H 717.932 -5.26786 0.916546 0
M  V30 7596 H 718.275 -4.14587 -0.377217 0
M  V30 7597 H 718.808 -3.76687 1.27874 0
M  V30 7598 H 715.547 -5.30332 3.85264 0
M  V30 7599 H 715.067 -5.59369 2.16485 0
M  V30 7600 H 716.746 -5.88837 2.68105 0
M  V30 7601 N 716.879 -0.700114 -1.41195 0
M  V30 7602 C 717.829 -0.0144098 -2.27995 0
M  V30 7603 C 718.813 0.748249 -1.42443 0
M  V30 7604 O 720.005 0.622995 -1.65674 0
M  V30 7605 C 717.134 0.917938 -3.308 0
M  V30 7606 C 716.22 0.151286 -4.2383 0
M  V30 7607 N 716.611 -0.85732 -4.98481 0
M  V30 7608 C 714.909 0.386108 -4.44326 0
M  V30 7609 C 715.61 -1.31663 -5.66604 0
M  V30 7610 N 714.586 -0.641689 -5.39799 0
M  V30 7611 H 718.388 -0.787662 -2.83149 0
M  V30 7612 H 715.902 -0.531344 -1.53462 0
M  V30 7613 H 717.899 1.42437 -3.91813 0
M  V30 7614 H 716.559 1.69074 -2.77208 0
M  V30 7615 H 717.57 -1.2377 -5.02893 0
M  V30 7616 H 714.247 1.13644 -4.01735 0
M  V30 7617 H 715.637 -2.15384 -6.36443 0
M  V30 7618 N 718.357 1.51182 -0.445186 0
M  V30 7619 C 719.32 2.26501 0.350722 0
M  V30 7620 C 720.32 1.3025 0.942952 0
M  V30 7621 O 721.51 1.53897 0.816175 0
M  V30 7622 C 718.642 3.06274 1.49697 0
M  V30 7623 H 719.835 2.98299 -0.309474 0
M  V30 7624 H 717.388 1.55034 -0.198551 0
M  V30 7625 H 718.123 2.38911 2.19299 0
M  V30 7626 H 717.908 3.76979 1.0784 0
M  V30 7627 H 719.398 3.63306 2.05909 0
M  V30 7628 N 719.835 0.176821 1.56605 0
M  V30 7629 C 720.798 -0.737429 2.17013 0
M  V30 7630 C 721.798 -1.15414 1.11965 0
M  V30 7631 O 722.988 -1.0702 1.37449 0
M  V30 7632 C 720.12 -2.00445 2.75744 0
M  V30 7633 H 721.313 -0.211455 2.99154 0
M  V30 7634 H 718.866 -0.0727582 1.56131 0
M  V30 7635 H 719.601 -2.57338 1.97352 0
M  V30 7636 H 719.386 -1.71456 3.52626 0
M  V30 7637 H 720.876 -2.65679 3.22187 0
M  V30 7638 N 721.313 -1.57302 -0.09688 0
M  V30 7639 C 722.559 -1.86273 -0.801885 0
M  V30 7640 C 722.892 -0.765694 -1.78468 0
M  V30 7641 O 722.167 0.226495 -1.93177 0
M  V30 7642 C 722.45 -3.25876 -1.53221 0
M  V30 7643 C 722.303 -4.46205 -0.567529 0
M  V30 7644 C 723.622 -3.63352 -2.48321 0
M  V30 7645 H 720.741 -0.67752 -0.29006 0
M  V30 7646 H 723.383 -1.89887 -0.0655577 0
M  V30 7647 H 721.533 -3.22926 -2.15988 0
M  V30 7648 H 723.205 -4.6127 0.0529982 0
M  V30 7649 H 721.448 -4.33636 0.119233 0
M  V30 7650 H 722.119 -5.40608 -1.11564 0
M  V30 7651 H 724.595 -3.67234 -1.95648 0
M  V30 7652 H 723.471 -4.61968 -2.9644 0
M  V30 7653 H 723.732 -2.91941 -3.31998 0
M  V30 7654 N 722.791 0.367657 -1.53252 0
M  V30 7655 C 724.019 1.13119 -1.73239 0
M  V30 7656 C 724.434 1.831 -0.460404 0
M  V30 7657 O 723.791 1.73483 0.566557 0
M  V30 7658 C 723.842 2.16308 -2.89643 0
M  V30 7659 O 723.563 1.49175 -4.1192 0
M  V30 7660 C 725.064 3.05224 -3.21486 0
M  V30 7661 H 722.284 0.338318 -0.579467 0
M  V30 7662 H 724.828 0.42721 -1.99988 0
M  V30 7663 H 722.983 2.82307 -2.65295 0
M  V30 7664 H 723.397 2.17912 -4.7709 0
M  V30 7665 H 724.871 3.73613 -4.06346 0
M  V30 7666 H 725.348 3.69919 -2.36763 0
M  V30 7667 H 725.954 2.44843 -3.47753 0
M  V30 7668 N 724.269 1.44576 0.627338 0
M  V30 7669 C 725.515 1.4877 1.38705 0
M  V30 7670 C 725.87 0.119976 1.92026 0
M  V30 7671 O 725.163 -0.865341 1.70946 0
M  V30 7672 C 725.357 2.48644 2.56731 0
M  V30 7673 C 725.186 3.94994 2.14965 0
M  V30 7674 C 723.956 4.63139 2.02065 0
M  V30 7675 C 726.154 4.841 1.73643 0
M  V30 7676 N 724.136 5.94296 1.53902 0
M  V30 7677 C 725.507 6.0473 1.36753 0
M  V30 7678 C 727.562 4.71131 1.61058 0
M  V30 7679 C 726.265 7.13831 0.885353 0
M  V30 7680 C 728.291 5.8026 1.14244 0
M  V30 7681 C 727.653 7.00034 0.783067 0
M  V30 7682 H 723.752 0.599415 0.50222 0
M  V30 7683 H 726.336 1.80926 0.719285 0
M  V30 7684 H 724.507 2.18472 3.2113 0
M  V30 7685 H 726.239 2.4311 3.23542 0
M  V30 7686 H 722.994 4.18007 2.22637 0
M  V30 7687 H 723.418 6.63985 1.32108 0
M  V30 7688 H 728.06 3.78964 1.87473 0
M  V30 7689 H 725.778 8.05804 0.608716 0
M  V30 7690 H 729.364 5.72254 1.0496 0
M  V30 7691 H 728.244 7.8304 0.426381 0
M  V30 7692 N 725.747 -0.868086 1.31537 0
M  V30 7693 C 726.996 -1.61607 1.20689 0
M  V30 7694 C 727.309 -1.94204 -0.233275 0
M  V30 7695 O 728.515 -2.67515 -0.463465 0
M  V30 7696 C 726.971 -2.91348 2.11292 0
M  V30 7697 C 726.579 -2.66227 3.60315 0
M  V30 7698 C 728.323 -3.69344 2.09249 0
M  V30 7699 C 726.23 -3.91887 4.42921 0
M  V30 7700 H 725.16 -0.606373 0.448138 0
M  V30 7701 H 727.811 -0.959666 1.56405 0
M  V30 7702 H 726.193 -3.58374 1.68477 0
M  V30 7703 H 727.367 -2.07597 4.11388 0
M  V30 7704 H 725.682 -2.01582 3.64354 0
M  V30 7705 H 728.279 -4.62567 2.68209 0
M  V30 7706 H 728.622 -4.02044 1.0801 0
M  V30 7707 H 729.155 -3.09205 2.50274 0
M  V30 7708 H 725.894 -3.64336 5.44922 0
M  V30 7709 H 725.414 -4.49961 3.96605 0
M  V30 7710 H 727.093 -4.59754 4.55231 0
M  V30 7711 N 727.225 -1.14528 -1.08264 0
M  V30 7712 C 728.175 -0.802141 -2.13424 0
M  V30 7713 C 729.159 0.209362 -1.59532 0
M  V30 7714 O 730.351 0.0114859 -1.76996 0
M  V30 7715 C 727.48 -0.282938 -3.42132 0
M  V30 7716 C 726.566 -1.32405 -4.02902 0
M  V30 7717 N 726.957 -2.52861 -4.38058 0
M  V30 7718 C 725.255 -1.17462 -4.30254 0
M  V30 7719 C 725.956 -3.1952 -4.86088 0
M  V30 7720 N 724.932 -2.46921 -4.84284 0
M  V30 7721 H 728.734 -1.71843 -2.38426 0
M  V30 7722 H 726.248 -1.02936 -1.2561 0
M  V30 7723 H 728.245 -0.0188053 -4.16896 0
M  V30 7724 H 726.905 0.627533 -3.18578 0
M  V30 7725 H 727.916 -2.90078 -4.2904 0
M  V30 7726 H 724.593 -0.323283 -4.16246 0
M  V30 7727 H 725.983 -4.2223 -5.22658 0
M  V30 7728 N 728.703 1.26451 -0.940633 0
M  V30 7729 C 730.114 1.75726 -0.630653 0
M  V30 7730 C 730.465 1.76631 0.854167 0
M  V30 7731 O 729.59 1.37807 1.66848 0
M  V30 7732 C 730.185 3.19114 -1.13805 0
M  V30 7733 C 728.744 3.66005 -0.878497 0
M  V30 7734 C 727.891 2.45505 -1.28928 0
M  V30 7735 H 730.842 1.12535 -1.119 0
M  V30 7736 H 730.863 3.77311 -0.491625 0
M  V30 7737 H 730.375 3.18424 -2.21874 0
M  V30 7738 H 728.476 3.72126 0.187833 0
M  V30 7739 H 728.589 4.54844 -1.50512 0
M  V30 7740 H 726.953 2.4467 -0.707713 0
M  V30 7741 H 727.736 2.47516 -2.37888 0
M  V30 7742 N 730.181 0.707592 1.40822 0
M  V30 7743 C 731.427 0.244031 2.01326 0
M  V30 7744 C 731.76 -1.15722 1.55955 0
M  V30 7745 O 731.035 -1.78347 0.776044 0
M  V30 7746 C 731.318 0.315128 3.58718 0
M  V30 7747 C 731.171 1.75419 4.14184 0
M  V30 7748 C 732.49 -0.318251 4.38948 0
M  V30 7749 H 729.609 0.0901471 0.731466 0
M  V30 7750 H 732.251 0.898584 1.67408 0
M  V30 7751 H 730.401 -0.242176 3.87744 0
M  V30 7752 H 732.073 2.36626 3.95987 0
M  V30 7753 H 730.316 2.28449 3.68773 0
M  V30 7754 H 730.987 1.75538 5.23345 0
M  V30 7755 H 733.463 0.156514 4.15806 0
M  V30 7756 H 732.339 -0.238019 5.48384 0
M  V30 7757 H 732.6 -1.40067 4.19325 0
M  V30 7758 N 731.66 -1.50943 0.453197 0
M  V30 7759 C 732.888 -2.06628 -0.106135 0
M  V30 7760 C 733.303 -1.31901 -1.35084 0
M  V30 7761 O 732.66 -0.383074 -1.78434 0
M  V30 7762 C 732.711 -3.5914 -0.412368 0
M  V30 7763 O 732.432 -4.31047 0.782948 0
M  V30 7764 C 733.933 -4.31391 -1.02064 0
M  V30 7765 H 731.153 -0.670999 -0.000885896 0
M  V30 7766 H 733.697 -1.94331 0.63684 0
M  V30 7767 H 731.852 -3.71299 -1.10526 0
M  V30 7768 H 732.266 -5.21948 0.516736 0
M  V30 7769 H 733.74 -5.39135 -1.1848 0
M  V30 7770 H 734.217 -3.90714 -2.00598 0
M  V30 7771 H 734.823 -4.23716 -0.366664 0
M  V30 7772 N 733.138 -0.185124 -1.56509 0
M  V30 7773 C 734.554 0.170865 -1.58683 0
M  V30 7774 C 734.754 1.61799 -1.20098 0
M  V30 7775 O 733.81 2.35181 -0.919038 0
M  V30 7776 C 735.123 -0.122459 -3.00451 0
M  V30 7777 C 736.671 -0.0617699 -3.12939 0
M  V30 7778 C 737.146 -0.328269 -4.56822 0
M  V30 7779 N 738.637 -0.276533 -4.62374 0
M  V30 7780 C 739.372 -0.456722 -5.71578 0
M  V30 7781 N 738.868 -0.69672 -6.89288 0
M  V30 7782 N 740.661 -0.391669 -5.60734 0
M  V30 7783 H 732.812 -1.12956 -1.79874 0
M  V30 7784 H 735.075 -0.45011 -0.834329 0
M  V30 7785 H 734.781 -1.12546 -3.33206 0
M  V30 7786 H 734.655 0.579578 -3.72721 0
M  V30 7787 H 737.042 0.931826 -2.80002 0
M  V30 7788 H 737.123 -0.796732 -2.43076 0
M  V30 7789 H 736.767 -1.31914 -4.9047 0
M  V30 7790 H 736.697 0.427465 -5.24862 0
M  V30 7791 H 739.188 -0.0972458 -3.77775 0
M  V30 7792 H 739.501 -0.823291 -7.68402 0
M  V30 7793 H 737.846 -0.733497 -6.91119 0
M  V30 7794 H 741.037 -0.204663 -4.67652 0
M  V30 7795 H 741.21 -0.535518 -6.45783 0
M  V30 7796 N 734.616 1.57351 0.0885366 0
M  V30 7797 C 735.893 1.77449 0.822873 0
M  V30 7798 C 736.273 0.768463 1.96616 0
M  V30 7799 O 735.621 -0.201757 2.27608 0
M  V30 7800 C 735.831 3.23425 1.31137 0
M  V30 7801 C 737.179 3.86791 1.75152 0
M  V30 7802 O 738.203 3.27215 1.40745 0
M  V30 7803 O 737.062 4.91568 2.38794 0
M  V30 7804 H 734.156 0.727653 0.393002 0
M  V30 7805 H 736.702 1.69556 0.0699095 0
M  V30 7806 H 735.474 3.88188 0.49254 0
M  V30 7807 H 735.097 3.35977 2.12615 0
M  V30 7808 N 736.094 -0.359525 1.53444 0
M  V30 7809 C 737.026 -1.46098 1.76602 0
M  V30 7810 C 738.039 -1.49395 0.646912 0
M  V30 7811 O 739.228 -1.52765 0.923307 0
M  V30 7812 C 736.328 -2.84836 1.83635 0
M  V30 7813 C 735.501 -3.05164 3.13358 0
M  V30 7814 C 734.56 -4.24051 3.11556 0
M  V30 7815 O 733.586 -4.18935 3.85334 0
M  V30 7816 N 734.788 -5.31775 2.328 0
M  V30 7817 H 737.553 -1.2661 2.71643 0
M  V30 7818 H 735.114 -0.549294 1.52297 0
M  V30 7819 H 737.106 -3.62516 1.799 0
M  V30 7820 H 735.676 -2.97542 0.958509 0
M  V30 7821 H 734.896 -2.15091 3.30348 0
M  V30 7822 H 736.184 -3.15619 3.99076 0
M  V30 7823 H 735.582 -5.38796 1.7238 0
M  V30 7824 H 734.139 -6.0801 2.34877 0
M  V30 7825 N 737.572 -1.44907 -0.619662 0
M  V30 7826 C 738.819 -1.48292 -1.37898 0
M  V30 7827 C 739.147 -0.119933 -1.9413 0
M  V30 7828 O 738.402 0.879834 -1.74807 0
M  V30 7829 C 738.701 -2.50002 -2.55409 0
M  V30 7830 C 738.367 -3.95031 -2.17397 0
M  V30 7831 C 737.029 -4.34524 -2.06743 0
M  V30 7832 C 739.381 -4.86287 -1.87548 0
M  V30 7833 C 736.709 -5.63183 -1.64445 0
M  V30 7834 C 739.061 -6.15346 -1.4674 0
M  V30 7835 C 737.725 -6.53781 -1.34636 0
M  V30 7836 H 736.995 -0.542638 -0.504603 0
M  V30 7837 H 739.642 -1.78186 -0.701581 0
M  V30 7838 H 737.947 -2.13634 -3.28433 0
M  V30 7839 H 739.644 -2.49864 -3.13639 0
M  V30 7840 H 736.234 -3.63793 -2.26611 0
M  V30 7841 H 740.418 -4.56522 -1.94682 0
M  V30 7842 H 735.674 -5.91769 -1.53687 0
M  V30 7843 H 739.848 -6.85508 -1.22685 0
M  V30 7844 H 737.475 -7.53375 -1.01634 0
M  V30 7845 N 739.05 0.861098 -1.31996 0
M  V30 7846 C 739.98 1.98482 -1.22993 0
M  V30 7847 C 740.961 1.6971 -0.115168 0
M  V30 7848 O 742.146 1.91849 -0.30126 0
M  V30 7849 C 739.276 3.34179 -0.945615 0
M  V30 7850 C 738.23 3.77284 -2.02091 0
M  V30 7851 C 737.556 5.1054 -1.58912 0
M  V30 7852 C 738.856 3.93439 -3.43515 0
M  V30 7853 H 740.55 2.06271 -2.17008 0
M  V30 7854 H 738.096 0.991043 -1.04472 0
M  V30 7855 H 740.049 4.12338 -0.869206 0
M  V30 7856 H 738.773 3.26586 0.0301849 0
M  V30 7857 H 737.432 3.01371 -2.08737 0
M  V30 7858 H 737.08 4.99397 -0.600942 0
M  V30 7859 H 736.78 5.40352 -2.30854 0
M  V30 7860 H 738.304 5.91199 -1.52696 0
M  V30 7861 H 739.718 4.6197 -3.39495 0
M  V30 7862 H 738.115 4.34661 -4.13751 0
M  V30 7863 H 739.185 2.96548 -3.8365 0
M  V30 7864 N 740.528 1.15101 1.07655 0
M  V30 7865 C 741.774 0.925343 1.80458 0
M  V30 7866 C 742.107 -0.546354 1.86356 0
M  V30 7867 O 741.382 -1.40496 1.34503 0
M  V30 7868 C 741.665 1.53646 3.25676 0
M  V30 7869 C 741.518 3.07854 3.27942 0
M  V30 7870 C 742.837 1.21968 4.22861 0
M  V30 7871 H 739.956 0.337592 0.655134 0
M  V30 7872 H 742.598 1.42217 1.25993 0
M  V30 7873 H 740.748 1.11395 3.72187 0
M  V30 7874 H 742.42 3.58989 2.89697 0
M  V30 7875 H 740.663 3.41904 2.66991 0
M  V30 7876 H 741.334 3.45725 4.30324 0
M  V30 7877 H 743.81 1.5851 3.84726 0
M  V30 7878 H 742.686 1.67349 5.22767 0
M  V30 7879 H 742.947 0.136207 4.4189 0
M  V30 7880 N 742.006 -1.2595 0.947325 0
M  V30 7881 C 743.252 -1.9375 0.599064 0
M  V30 7882 C 743.585 -1.74088 -0.860632 0
M  V30 7883 O 742.86 -1.08158 -1.61654 0
M  V30 7884 C 743.143 -3.47353 0.949634 0
M  V30 7885 C 742.996 -3.76273 2.46452 0
M  V30 7886 C 744.315 -4.37589 0.469442 0
M  V30 7887 H 741.434 -0.703674 0.219115 0
M  V30 7888 H 744.076 -1.48705 1.18266 0
M  V30 7889 H 742.226 -3.8585 0.453008 0
M  V30 7890 H 743.898 -3.47455 3.03435 0
M  V30 7891 H 742.141 -3.22135 2.90537 0
M  V30 7892 H 742.812 -4.83664 2.66032 0
M  V30 7893 H 745.288 -4.06353 0.89534 0
M  V30 7894 H 744.164 -5.43841 0.7435 0
M  V30 7895 H 744.425 -4.37579 -0.630618 0
M  V30 7896 N 743.484 -0.715051 -1.40445 0
M  V30 7897 C 744.732 -0.253826 -2.005 0
M  V30 7898 C 745.053 1.15681 -1.5698 0
M  V30 7899 O 744.323 1.78414 -0.809027 0
M  V30 7900 H 742.903 -0.0908537 -0.741454 0
M  V30 7901 H 745.565 -0.920561 -1.7179 0
M  V30 7902 H 744.661 -0.286499 -3.10782 0
M  V30 7903 N 744.962 1.50701 -0.461195 0
M  V30 7904 C 745.925 2.2686 0.326679 0
M  V30 7905 C 746.925 1.31243 0.929085 0
M  V30 7906 O 748.115 1.54754 0.799807 0
M  V30 7907 C 745.247 3.07844 1.46441 0
M  V30 7908 H 746.44 2.97954 -0.341095 0
M  V30 7909 H 743.993 1.54814 -0.214984 0
M  V30 7910 H 744.728 2.41223 2.16753 0
M  V30 7911 H 744.513 3.78101 1.03836 0
M  V30 7912 H 746.003 3.65469 2.02044 0
M  V30 7913 N 746.441 0.193421 1.56409 0
M  V30 7914 C 747.351 -0.740112 2.2262 0
M  V30 7915 C 748.367 -1.23597 1.22474 0
M  V30 7916 O 749.543 -1.28348 1.55206 0
M  V30 7917 C 746.608 -1.94317 2.87127 0
M  V30 7918 C 745.669 -1.49205 4.02538 0
M  V30 7919 C 744.902 -2.63776 4.63959 0
M  V30 7920 O 745.125 -3.81215 4.24301 0
M  V30 7921 O 744.059 -2.36585 5.53454 0
M  V30 7922 H 747.885 -0.206238 3.02999 0
M  V30 7923 H 745.47 -0.0357938 1.49357 0
M  V30 7924 H 747.352 -2.64633 3.27944 0
M  V30 7925 H 746.027 -2.46568 2.09728 0
M  V30 7926 H 744.934 -0.757738 3.66346 0
M  V30 7927 H 746.267 -1.01622 4.81595 0
M  V30 7928 N 747.919 -1.57396 -0.0801906 0
M  V30 7929 C 748.829 -2.06451 -1.11423 0
M  V30 7930 C 749.845 -0.992352 -1.42928 0
M  V30 7931 O 751.021 -1.30651 -1.53272 0
M  V30 7932 C 748.086 -2.49164 -2.41077 0
M  V30 7933 C 747.147 -3.70641 -2.16619 0
M  V30 7934 C 746.38 -4.11307 -3.40092 0
M  V30 7935 O 746.603 -3.51922 -4.48895 0
M  V30 7936 O 745.537 -5.04157 -3.288 0
M  V30 7937 H 749.363 -2.94857 -0.727519 0
M  V30 7938 H 746.948 -1.46484 -0.293743 0
M  V30 7939 H 748.83 -2.77196 -3.17396 0
M  V30 7940 H 747.505 -1.6389 -2.79145 0
M  V30 7941 H 746.412 -3.47703 -1.38033 0
M  V30 7942 H 747.745 -4.5674 -1.83437 0
M  V30 7943 N 749.397 0.351382 -1.53633 0
M  V30 7944 C 750.645 1.09034 -1.70165 0
M  V30 7945 C 750.966 1.89413 -0.463422 0
M  V30 7946 O 750.236 1.888 0.522624 0
M  V30 7947 H 748.816 0.405522 -0.627344 0
M  V30 7948 H 751.478 0.394554 -1.90865 0
M  V30 7949 H 750.574 1.77215 -2.56907 0
M  V30 7950 N 750.875 1.45233 0.611969 0
M  V30 7951 C 752.124 1.48296 1.36716 0
M  V30 7952 C 752.437 0.12706 1.95187 0
M  V30 7953 O 753.643 0.0353066 2.71477 0
M  V30 7954 C 752.099 2.61168 2.47627 0
M  V30 7955 C 751.707 4.03051 1.95587 0
M  V30 7956 C 753.451 2.73472 3.24674 0
M  V30 7957 C 751.358 5.07312 3.03954 0
M  V30 7958 H 750.288 0.5518 0.513841 0
M  V30 7959 H 752.939 1.7136 0.656359 0
M  V30 7960 H 751.321 2.31379 3.21372 0
M  V30 7961 H 752.495 4.42497 1.2858 0
M  V30 7962 H 750.81 3.95158 1.31298 0
M  V30 7963 H 753.407 3.48537 4.05494 0
M  V30 7964 H 753.75 1.79953 3.75397 0
M  V30 7965 H 754.283 3.02765 2.58028 0
M  V30 7966 H 751.022 6.02525 2.58154 0
M  V30 7967 H 750.542 4.7244 3.69541 0
M  V30 7968 H 752.221 5.31867 3.6841 0
M  V30 7969 N 752.353 -0.854086 1.3245 0
M  V30 7970 C 753.583 -1.63836 1.25862 0
M  V30 7971 C 753.991 -1.88383 -0.175588 0
M  V30 7972 O 753.334 -1.45353 -1.1233 0
M  V30 7973 C 753.396 -3.02068 1.94923 0
M  V30 7974 C 753.06 -3.0056 3.44257 0
M  V30 7975 C 754.057 -2.77368 4.39731 0
M  V30 7976 C 751.742 -3.21177 3.862 0
M  V30 7977 C 753.736 -2.74797 5.75122 0
M  V30 7978 C 751.423 -3.18234 5.217 0
M  V30 7979 C 752.421 -2.95072 6.15972 0
M  V30 7980 O 752.109 -2.92003 7.48992 0
M  V30 7981 H 751.841 -0.517007 0.435523 0
M  V30 7982 H 754.395 -1.07314 1.75137 0
M  V30 7983 H 752.625 -3.60382 1.40219 0
M  V30 7984 H 754.314 -3.62791 1.82037 0
M  V30 7985 H 755.08 -2.61205 4.08653 0
M  V30 7986 H 750.959 -3.38231 3.13243 0
M  V30 7987 H 754.503 -2.56638 6.48678 0
M  V30 7988 H 750.4 -3.33941 5.52407 0
M  V30 7989 H 751.168 -3.07953 7.58358 0
M  V30 7990 N 753.831 -1.1567 -1.07043 0
M  V30 7991 C 755.059 -0.957471 -1.83412 0
M  V30 7992 C 755.474 0.494271 -1.82215 0
M  V30 7993 O 754.831 1.34288 -1.23584 0
M  V30 7994 C 754.882 -1.46784 -3.30359 0
M  V30 7995 O 754.603 -2.86271 -3.31633 0
M  V30 7996 C 756.104 -1.31054 -4.23485 0
M  V30 7997 H 753.324 -0.33986 -0.578564 0
M  V30 7998 H 755.868 -1.53518 -1.35102 0
M  V30 7999 H 754.023 -0.932586 -3.76007 0
M  V30 8000 H 754.437 -3.0948 -4.23465 0
M  V30 8001 H 755.911 -1.71605 -5.24648 0
M  V30 8002 H 756.388 -0.255107 -4.38458 0
M  V30 8003 H 756.994 -1.83503 -3.83676 0
M  V30 8004 N 755.309 1.25446 -0.953992 0
M  V30 8005 C 756.239 2.28264 -0.491717 0
M  V30 8006 C 757.22 1.63717 0.461617 0
M  V30 8007 O 758.405 1.90821 0.36071 0
M  V30 8008 C 755.535 3.46525 0.231915 0
M  V30 8009 C 754.489 4.23247 -0.636098 0
M  V30 8010 C 753.815 5.34254 0.218238 0
M  V30 8011 C 755.115 4.85971 -1.91389 0
M  V30 8012 H 756.809 2.67183 -1.35106 0
M  V30 8013 H 754.355 1.2844 -0.651095 0
M  V30 8014 H 756.308 4.17576 0.566439 0
M  V30 8015 H 755.032 3.06594 1.12551 0
M  V30 8016 H 753.691 3.53978 -0.953696 0
M  V30 8017 H 753.339 4.90564 1.11156 0
M  V30 8018 H 753.039 5.86501 -0.359232 0
M  V30 8019 H 754.563 6.08138 0.547743 0
M  V30 8020 H 755.977 5.49168 -1.64581 0
M  V30 8021 H 754.374 5.48391 -2.43696 0
M  V30 8022 H 755.444 4.08192 -2.61738 0
M  V30 8023 N 756.787 0.722489 1.40064 0
M  V30 8024 C 757.735 0.063329 2.32514 0
M  V30 8025 C 758.729 -0.73953 1.52405 0
M  V30 8026 O 759.935 -0.642122 1.68157 0
M  V30 8027 H 756.31 0.00167692 0.751998 0
M  V30 8028 H 758.281 0.859656 2.85749 0
M  V30 8029 C 757.03 -0.839219 3.3742 0
M  V30 8030 H 756.353 -0.230836 3.99133 0
M  V30 8031 H 757.793 -1.26827 4.04587 0
M  V30 8032 C 756.252 -1.96783 2.73456 0
M  V30 8033 O 756.782 -3.05933 2.60323 0
M  V30 8034 N 754.988 -1.75351 2.31734 0
M  V30 8035 H 754.535 -0.865787 2.42615 0
M  V30 8036 H 754.493 -2.51043 1.89275 0
M  V30 8037 N 758.265 -1.50454 0.469181 0
M  V30 8038 C 759.195 -2.31353 -0.31592 0
M  V30 8039 C 760.176 -1.38172 -0.992094 0
M  V30 8040 O 761.361 -1.67093 -0.989633 0
M  V30 8041 C 758.491 -3.1786 -1.39937 0
M  V30 8042 C 757.445 -4.19578 -0.844909 0
M  V30 8043 C 756.771 -4.9481 -2.0265 0
M  V30 8044 C 758.071 -5.22106 0.142499 0
M  V30 8045 H 759.765 -2.97237 0.359269 0
M  V30 8046 H 757.311 -1.42942 0.174224 0
M  V30 8047 H 759.264 -3.7325 -1.95607 0
M  V30 8048 H 757.988 -2.49858 -2.1033 0
M  V30 8049 H 756.647 -3.65285 -0.310189 0
M  V30 8050 H 756.295 -4.23282 -2.71737 0
M  V30 8051 H 755.995 -5.63613 -1.66174 0
M  V30 8052 H 757.519 -5.53035 -2.58815 0
M  V30 8053 H 758.933 -5.72378 -0.324966 0
M  V30 8054 H 757.33 -5.98618 0.421441 0
M  V30 8055 H 758.4 -4.7297 1.06901 0
M  V30 8056 N 759.743 -0.201713 -1.56304 0
M  V30 8057 C 760.693 0.729444 -2.16016 0
M  V30 8058 C 761.677 1.17164 -1.10279 0
M  V30 8059 O 762.869 1.12893 -1.36324 0
M  V30 8060 C 759.998 1.94594 -2.82822 0
M  V30 8061 C 759.084 1.52434 -3.95758 0
M  V30 8062 N 759.475 0.814106 -4.99205 0
M  V30 8063 C 757.773 1.81314 -4.07481 0
M  V30 8064 C 758.474 0.601896 -5.78578 0
M  V30 8065 N 757.45 1.15263 -5.3124 0
M  V30 8066 H 761.252 0.178163 -2.93359 0
M  V30 8067 H 758.766 -0.00218038 -1.624 0
M  V30 8068 H 760.763 2.62357 -3.23998 0
M  V30 8069 H 759.423 2.50188 -2.06969 0
M  V30 8070 H 760.434 0.468872 -5.15773 0
M  V30 8071 H 757.111 2.3837 -3.42762 0
M  V30 8072 H 758.501 0.0380119 -6.71889 0
M  V30 8073 N 761.222 1.57436 0.0718424 0
M  V30 8074 C 762.132 2.07039 1.10326 0
M  V30 8075 C 763.148 0.999918 1.424 0
M  V30 8076 O 764.324 1.31462 1.52577 0
M  V30 8077 C 761.389 2.50439 2.39752 0
M  V30 8078 C 760.45 3.71784 2.14651 0
M  V30 8079 C 759.683 4.13104 3.37906 0
M  V30 8080 O 759.906 3.54298 4.47023 0
M  V30 8081 O 758.84 5.05894 3.26121 0
M  V30 8082 H 762.666 2.95239 0.711872 0
M  V30 8083 H 760.251 1.46638 0.28597 0
M  V30 8084 H 762.133 2.78876 3.15921 0
M  V30 8085 H 760.808 1.65368 2.78271 0
M  V30 8086 H 759.715 3.48431 1.36187 0
M  V30 8087 H 761.048 4.57707 1.81012 0
M  V30 8088 N 762.7 -0.34323 1.53817 0
M  V30 8089 C 763.63 -1.42709 1.84814 0
M  V30 8090 C 764.611 -1.5488 0.703297 0
M  V30 8091 O 765.796 -1.69082 0.955237 0
M  V30 8092 C 762.926 -2.79756 2.05801 0
M  V30 8093 C 761.88 -2.82392 3.21619 0
M  V30 8094 C 761.206 -4.22326 3.2794 0
M  V30 8095 C 762.506 -2.479 4.59721 0
M  V30 8096 H 764.2 -1.17018 2.75585 0
M  V30 8097 H 761.746 -0.561485 1.32602 0
M  V30 8098 H 763.699 -3.55627 2.26069 0
M  V30 8099 H 762.423 -3.06883 1.11761 0
M  V30 8100 H 761.082 -2.08974 3.01207 0
M  V30 8101 H 760.73 -4.46564 2.31494 0
M  V30 8102 H 760.43 -4.25001 4.05768 0
M  V30 8103 H 761.954 -5.00039 3.50419 0
M  V30 8104 H 763.368 -3.13484 4.80001 0
M  V30 8105 H 761.765 -2.61857 5.39954 0
M  V30 8106 H 762.835 -1.43087 4.63308 0
M  V30 8107 N 764.178 -1.45556 -0.604258 0
M  V30 8108 C 765.128 -1.50906 -1.70913 0
M  V30 8109 C 766.112 -0.371996 -1.56541 0
M  V30 8110 O 767.304 -0.619064 -1.65821 0
M  V30 8111 C 764.433 -1.48181 -3.09673 0
M  V30 8112 C 763.519 -2.67102 -3.2942 0
M  V30 8113 N 763.91 -3.92184 -3.19414 0
M  V30 8114 C 762.208 -2.6287 -3.60299 0
M  V30 8115 C 762.909 -4.71571 -3.40581 0
M  V30 8116 N 761.885 -4.03081 -3.64728 0
M  V30 8117 H 765.687 -2.45435 -1.61675 0
M  V30 8118 H 763.201 -1.40894 -0.807622 0
M  V30 8119 H 765.198 -1.501 -3.88942 0
M  V30 8120 H 763.858 -0.54712 -3.20057 0
M  V30 8121 H 764.869 -4.23756 -2.97743 0
M  V30 8122 H 761.546 -1.78324 -3.77501 0
M  V30 8123 H 762.936 -5.80571 -3.38211 0
M  V30 8124 N 765.656 0.84705 -1.32902 0
M  V30 8125 C 766.566 1.98845 -1.2449 0
M  V30 8126 C 767.582 1.7329 -0.15702 0
M  V30 8127 O 768.758 1.978 -0.379104 0
M  V30 8128 C 765.823 3.32679 -0.975985 0
M  V30 8129 C 764.884 3.71405 -2.15306 0
M  V30 8130 C 764.117 4.98853 -1.89688 0
M  V30 8131 O 764.34 5.64134 -0.843168 0
M  V30 8132 O 763.274 5.34889 -2.76002 0
M  V30 8133 H 767.1 2.0888 -2.2046 0
M  V30 8134 H 764.685 0.978852 -1.12867 0
M  V30 8135 H 766.567 4.12885 -0.842826 0
M  V30 8136 H 765.242 3.23667 -0.0464954 0
M  V30 8137 H 764.149 2.91743 -2.34172 0
M  V30 8138 H 765.482 3.85073 -3.06561 0
M  V30 8139 N 767.134 1.16236 1.06428 0
M  V30 8140 C 768.411 0.853294 1.76006 0
M  V30 8141 C 768.791 -0.649162 2.00871 0
M  V30 8142 O 768.139 -1.59653 1.63472 0
M  V30 8143 C 768.349 1.67448 3.06206 0
M  V30 8144 C 769.697 1.8866 3.80385 0
M  V30 8145 O 770.721 1.64303 3.16043 0
M  V30 8146 O 769.58 2.29518 4.95968 0
M  V30 8147 H 766.674 0.314737 0.764767 0
M  V30 8148 H 769.22 1.26865 1.12709 0
M  V30 8149 H 767.992 2.69411 2.83784 0
M  V30 8150 H 767.615 1.25608 3.77238 0
M  V30 8151 N 768.612 -1.24939 0.960631 0
M  V30 8152 C 769.84 -1.96881 0.636045 0
M  V30 8153 C 770.255 -1.71334 -0.793093 0
M  V30 8154 O 769.612 -0.992917 -1.53125 0
M  V30 8155 C 769.663 -3.50309 0.892533 0
M  V30 8156 O 769.384 -3.74977 2.26548 0
M  V30 8157 C 770.885 -4.39474 0.581159 0
M  V30 8158 H 768.105 -0.627399 0.237931 0
M  V30 8159 H 770.649 -1.58952 1.28664 0
M  V30 8160 H 768.804 -3.86326 0.288257 0
M  V30 8161 H 769.218 -4.69401 2.34014 0
M  V30 8162 H 770.692 -5.46008 0.811125 0
M  V30 8163 H 771.169 -4.3652 -0.48443 0
M  V30 8164 H 771.775 -4.09032 1.16502 0
M  V30 8165 N 770.09 -0.729906 -1.39679 0
M  V30 8166 C 771.02 -0.101618 -2.33279 0
M  V30 8167 C 772.001 0.729854 -1.53646 0
M  V30 8168 O 773.186 0.67587 -1.82059 0
M  V30 8169 C 770.316 0.81024 -3.37716 0
M  V30 8170 C 769.27 0.0833126 -4.27919 0
M  V30 8171 C 768.596 1.11185 -5.23012 0
M  V30 8172 C 769.896 -1.07107 -5.112 0
M  V30 8173 H 771.59 -0.883452 -2.86069 0
M  V30 8174 H 769.136 -0.426283 -1.37546 0
M  V30 8175 H 771.089 1.25927 -4.02145 0
M  V30 8176 H 769.813 1.62413 -2.83354 0
M  V30 8177 H 768.472 -0.346043 -3.64963 0
M  V30 8178 H 768.12 1.91917 -4.64948 0
M  V30 8179 H 767.82 0.63026 -5.8421 0
M  V30 8180 H 769.344 1.56068 -5.90318 0
M  V30 8181 H 770.758 -0.700726 -5.69002 0
M  V30 8182 H 769.155 -1.48196 -5.81514 0
M  V30 8183 H 770.225 -1.89513 -4.46332 0
M  V30 8184 N 771.568 1.50203 -0.477153 0
M  V30 8185 C 772.478 2.32421 0.319027 0
M  V30 8186 C 773.494 1.43075 0.990233 0
M  V30 8187 O 774.67 1.76123 0.976873 0
M  V30 8188 C 771.735 3.17909 1.38328 0
M  V30 8189 C 770.796 4.23082 0.728036 0
M  V30 8190 C 770.029 5.04484 1.74158 0
M  V30 8191 O 770.252 4.8705 2.96881 0
M  V30 8192 O 769.186 5.8747 1.31006 0
M  V30 8193 H 773.012 3.01638 -0.353281 0
M  V30 8194 H 770.597 1.47478 -0.238891 0
M  V30 8195 H 772.479 3.70937 1.9996 0
M  V30 8196 H 771.154 2.51413 2.03895 0
M  V30 8197 H 770.061 3.7403 0.07261 0
M  V30 8198 H 771.394 4.92065 0.115216 0
M  V30 8199 N 773.046 0.209999 1.56195 0
M  V30 8200 C 773.993 -0.704854 2.19774 0
M  V30 8201 C 774.963 -1.19886 1.14964 0
M  V30 8202 O 776.148 -1.26005 1.43274 0
M  V30 8203 C 773.288 -1.91241 2.87265 0
M  V30 8204 C 772.401 -1.45838 4.06639 0
M  V30 8205 C 771.536 -2.6226 4.61945 0
M  V30 8206 C 770.575 -2.13537 5.73645 0
M  V30 8207 N 769.712 -3.2319 6.23292 0
M  V30 8208 H 774.552 -0.155944 2.97592 0
M  V30 8209 H 772.089 -0.0652235 1.46955 0
M  V30 8210 H 774.047 -2.62123 3.24573 0
M  V30 8211 H 772.677 -2.43439 2.11985 0
M  V30 8212 H 771.729 -0.644897 3.74894 0
M  V30 8213 H 773.041 -1.06103 4.87384 0
M  V30 8214 H 772.195 -3.41243 5.01636 0
M  V30 8215 H 770.934 -3.05278 3.80338 0
M  V30 8216 H 769.939 -1.33013 5.33468 0
M  V30 8217 H 771.164 -1.71533 6.57079 0
M  V30 8218 H 769.11 -3.65711 5.44602 0
M  V30 8219 H 769.027 -2.8767 6.99129 0
M  V30 8220 H 770.295 -4.02342 6.67639 0
M  V30 8221 N 774.524 -1.57472 -0.0634922 0
M  V30 8222 C 775.454 -2.07297 -1.07473 0
M  V30 8223 C 776.435 -0.968162 -1.39859 0
M  V30 8224 O 777.62 -1.24139 -1.49343 0
M  V30 8225 C 774.75 -2.52381 -2.38581 0
M  V30 8226 C 773.704 -3.66813 -2.20526 0
M  V30 8227 C 773.03 -3.97982 -3.57092 0
M  V30 8228 C 774.33 -4.96553 -1.61965 0
M  V30 8229 H 776.024 -2.92033 -0.660092 0
M  V30 8230 H 773.57 -1.40488 -0.316074 0
M  V30 8231 H 775.523 -2.85852 -3.09624 0
M  V30 8232 H 774.247 -1.64684 -2.8204 0
M  V30 8233 H 772.906 -3.33639 -1.51924 0
M  V30 8234 H 772.554 -3.07403 -3.98136 0
M  V30 8235 H 772.254 -4.7504 -3.45848 0
M  V30 8236 H 773.778 -4.33956 -4.29552 0
M  V30 8237 H 775.192 -5.28201 -2.22883 0
M  V30 8238 H 773.589 -5.7799 -1.61394 0
M  V30 8239 H 774.659 -4.81396 -0.581918 0
M  V30 8240 N 776.003 0.335068 -1.53997 0
M  V30 8241 C 777.252 1.07182 -1.70865 0
M  V30 8242 C 777.565 1.89541 -0.483078 0
M  V30 8243 O 778.771 2.66219 -0.532879 0
M  V30 8244 C 777.227 1.95497 -3.02174 0
M  V30 8245 C 776.835 1.18304 -4.32097 0
M  V30 8246 C 778.579 2.68978 -3.28407 0
M  V30 8247 C 776.486 2.05699 -5.54474 0
M  V30 8248 H 775.416 0.403857 -0.636722 0
M  V30 8249 H 778.067 0.33076 -1.80494 0
M  V30 8250 H 776.449 2.73456 -2.86423 0
M  V30 8251 H 777.623 0.451969 -4.58578 0
M  V30 8252 H 775.938 0.565556 -4.12541 0
M  V30 8253 H 778.535 3.34651 -4.17029 0
M  V30 8254 H 778.878 3.36 -2.45784 0
M  V30 8255 H 779.411 1.98087 -3.44973 0
M  V30 8256 H 776.15 1.43204 -6.39666 0
M  V30 8257 H 775.67 2.76572 -5.32229 0
M  V30 8258 H 777.349 2.64554 -5.90441 0
M  V30 8259 N 777.481 1.45874 0.596531 0
M  V30 8260 C 778.706 1.54247 1.38646 0
M  V30 8261 C 779.131 0.179571 1.87241 0
M  V30 8262 O 778.489 -0.837831 1.6078 0
M  V30 8263 C 778.537 2.54015 2.55946 0
M  V30 8264 O 777.641 2.06561 3.5694 0
M  V30 8265 H 776.982 0.519555 0.413471 0
M  V30 8266 H 779.512 1.91327 0.724936 0
M  V30 8267 H 779.522 2.73179 3.03047 0
M  V30 8268 H 778.197 3.52994 2.19928 0
M  V30 8269 H 776.774 1.97324 3.16414 0
M  V30 8270 N 778.959 -0.83999 1.33349 0
M  V30 8271 C 779.909 -1.93817 1.20079 0
M  V30 8272 C 780.893 -1.60564 0.103978 0
M  V30 8273 O 782.085 -1.73859 0.331964 0
M  V30 8274 C 779.214 -3.30151 0.941031 0
M  V30 8275 C 778.3 -3.69577 2.08023 0
M  V30 8276 N 778.691 -3.80707 3.3301 0
M  V30 8277 C 776.989 -3.99309 1.98667 0
M  V30 8278 C 777.69 -4.14899 4.07717 0
M  V30 8279 N 776.666 -4.27208 3.36146 0
M  V30 8280 H 780.468 -2.00576 2.14817 0
M  V30 8281 H 777.982 -1.03264 1.2534 0
M  V30 8282 H 779.979 -4.08617 0.826894 0
M  V30 8283 H 778.639 -3.247 0.00216738 0
M  V30 8284 H 779.65 -3.64644 3.67771 0
M  V30 8285 H 776.327 -4.02076 1.12433 0
M  V30 8286 H 777.717 -4.30857 5.15569 0
M  V30 8287 N 780.437 -1.16799 -1.0581 0
M  V30 8288 C 781.853 -0.913935 -1.30841 0
M  V30 8289 C 782.053 0.430439 -1.96849 0
M  V30 8290 O 781.109 1.16885 -2.23817 0
M  V30 8291 C 782.422 -2.06662 -2.18429 0
M  V30 8292 C 783.97 -2.10294 -2.31831 0
M  V30 8293 C 784.445 -3.2493 -3.22776 0
M  V30 8294 N 785.936 -3.24678 -3.30361 0
M  V30 8295 C 786.671 -4.10021 -4.00837 0
M  V30 8296 N 786.167 -5.05461 -4.73795 0
M  V30 8297 N 787.96 -3.97991 -3.96937 0
M  V30 8298 H 780.111 -2.03343 -0.613613 0
M  V30 8299 H 782.374 -0.88754 -0.333133 0
M  V30 8300 H 782.08 -3.03791 -1.77211 0
M  V30 8301 H 781.954 -2.01233 -3.19038 0
M  V30 8302 H 784.341 -1.13754 -2.72294 0
M  V30 8303 H 784.422 -2.19786 -1.30873 0
M  V30 8304 H 784.066 -4.21731 -2.83028 0
M  V30 8305 H 783.996 -3.12674 -4.23725 0
M  V30 8306 H 786.487 -2.55573 -2.78372 0
M  V30 8307 H 786.8 -5.66989 -5.25113 0
M  V30 8308 H 785.145 -5.09436 -4.72758 0
M  V30 8309 H 788.336 -3.2273 -3.39062 0
M  V30 8310 H 788.509 -4.64722 -4.51594 0
M  V30 8311 N 781.915 1.24427 -0.967243 0
M  V30 8312 C 783.155 1.9423 -0.636723 0
M  V30 8313 C 783.519 1.73939 0.812971 0
M  V30 8314 O 784.72 2.37773 1.25369 0
M  V30 8315 C 782.991 3.43105 -1.00067 0
M  V30 8316 S 784.55 4.31728 -0.784633 0
M  V30 8317 H 781.368 0.671527 -0.233607 0
M  V30 8318 H 783.97 1.50806 -1.2441 0
M  V30 8319 H 782.674 3.5538 -2.05264 0
M  V30 8320 H 782.205 3.91521 -0.384054 0
M  V30 8321 H 784.22 4.95046 0.338244 0
M  V30 8322 N 783.393 0.737304 1.3929 0
M  V30 8323 C 784.618 0.295237 2.05288 0
M  V30 8324 C 785.043 -1.06235 1.55228 0
M  V30 8325 O 784.401 -1.67365 0.697043 0
M  V30 8326 C 784.449 0.309146 3.59272 0
M  V30 8327 O 783.553 -0.702437 4.06374 0
M  V30 8328 H 782.894 0.133762 0.650387 0
M  V30 8329 H 785.424 1.00387 1.78279 0
M  V30 8330 H 785.434 0.154336 4.07708 0
M  V30 8331 H 784.109 1.29974 3.95069 0
M  V30 8332 H 782.686 -0.513574 3.69346 0
M  V30 8333 N 784.871 -1.49948 0.485112 0
M  V30 8334 C 786.117 -2.0332 -0.0571625 0
M  V30 8335 C 786.472 -1.35951 -1.36144 0
M  V30 8336 O 785.765 -0.480871 -1.85467 0
M  V30 8337 C 785.959 -3.56282 -0.282434 0
M  V30 8338 C 785.788 -4.38476 0.998455 0
M  V30 8339 C 784.558 -4.81076 1.54576 0
M  V30 8340 C 786.756 -4.78013 1.89758 0
M  V30 8341 N 784.738 -5.47641 2.77421 0
M  V30 8342 C 786.109 -5.44133 2.97186 0
M  V30 8343 C 788.164 -4.59963 1.90627 0
M  V30 8344 C 786.867 -5.94113 4.0549 0
M  V30 8345 C 788.893 -5.10893 2.97897 0
M  V30 8346 C 788.255 -5.77 4.04043 0
M  V30 8347 H 784.354 -0.781758 0.0194642 0
M  V30 8348 H 786.938 -1.833 0.65644 0
M  V30 8349 H 785.109 -3.76219 -0.965083 0
M  V30 8350 H 786.841 -3.96299 -0.820298 0
M  V30 8351 H 783.596 -4.60814 1.09304 0
M  V30 8352 H 784.02 -5.85521 3.39844 0
M  V30 8353 H 788.662 -4.08274 1.09875 0
M  V30 8354 H 786.38 -6.44832 4.8705 0
M  V30 8355 H 789.966 -4.98748 2.9957 0
M  V30 8356 H 788.846 -6.15698 4.85681 0
M  V30 8357 N 786.349 -0.21828 -1.56081 0
M  V30 8358 C 787.279 0.687922 -2.23136 0
M  V30 8359 C 788.26 1.20357 -1.202 0
M  V30 8360 O 789.445 1.24817 -1.48776 0
M  V30 8361 C 786.575 1.89762 -2.90874 0
M  V30 8362 C 785.529 1.51595 -4.00254 0
M  V30 8363 C 784.855 2.80415 -4.55271 0
M  V30 8364 C 786.155 0.708404 -5.17474 0
M  V30 8365 H 787.849 0.128854 -2.99123 0
M  V30 8366 H 785.395 0.0605354 -1.43873 0
M  V30 8367 H 787.348 2.53699 -3.36474 0
M  V30 8368 H 786.072 2.4816 -2.1233 0
M  V30 8369 H 784.731 0.900058 -3.55379 0
M  V30 8370 H 784.379 3.36951 -3.73461 0
M  V30 8371 H 784.079 2.55613 -5.2909 0
M  V30 8372 H 785.603 3.453 -5.03587 0
M  V30 8373 H 787.017 1.2514 -5.59476 0
M  V30 8374 H 785.414 0.557593 -5.97504 0
M  V30 8375 H 786.484 -0.285679 -4.84058 0
M  V30 8376 N 787.827 1.57504 0.0551401 0
M  V30 8377 C 789.057 1.92015 0.762472 0
M  V30 8378 C 789.465 0.814088 1.7079 0
M  V30 8379 O 788.808 -0.220273 1.82375 0
M  V30 8380 C 788.87 3.22132 1.59598 0
M  V30 8381 C 788.534 4.49617 0.818141 0
M  V30 8382 C 789.531 5.19738 0.129933 0
M  V30 8383 C 787.216 4.96201 0.780387 0
M  V30 8384 C 789.21 6.34704 -0.585616 0
M  V30 8385 C 786.897 6.11069 0.0610756 0
M  V30 8386 C 787.895 6.80174 -0.62071 0
M  V30 8387 O 787.583 7.92849 -1.3284 0
M  V30 8388 H 787.315 0.638866 0.220967 0
M  V30 8389 H 789.869 2.05385 0.0246362 0
M  V30 8390 H 788.099 3.05016 2.37701 0
M  V30 8391 H 789.788 3.42166 2.18351 0
M  V30 8392 H 790.554 4.84767 0.150299 0
M  V30 8393 H 786.433 4.42275 1.30054 0
M  V30 8394 H 789.977 6.88578 -1.11833 0
M  V30 8395 H 785.874 6.45488 0.0386945 0
M  V30 8396 H 786.642 8.09062 -1.23938 0
M  V30 8397 N 789.305 -0.326896 1.54172 0
M  V30 8398 C 790.545 -1.07349 1.73941 0
M  V30 8399 C 790.909 -1.85355 0.50075 0
M  V30 8400 O 792.11 -2.62562 0.575731 0
M  V30 8401 C 790.381 -1.97636 2.97783 0
M  V30 8402 S 791.94 -2.79292 3.3844 0
M  V30 8403 H 788.758 -0.362459 0.611673 0
M  V30 8404 H 791.36 -0.349884 1.92344 0
M  V30 8405 H 790.064 -1.39158 3.86087 0
M  V30 8406 H 789.595 -2.74406 2.81895 0
M  V30 8407 H 791.61 -4.00106 2.93478 0
M  V30 8408 N 790.784 -1.46188 -0.588786 0
M  V30 8409 C 792.03 -1.51407 -1.34921 0
M  V30 8410 C 792.363 -0.162771 -1.93517 0
M  V30 8411 O 791.638 0.825082 -1.76132 0
M  V30 8412 C 791.921 -2.60795 -2.48311 0
M  V30 8413 C 791.774 -4.05435 -1.94789 0
M  V30 8414 C 793.093 -2.66313 -3.50379 0
M  V30 8415 H 790.212 -0.551213 -0.489217 0
M  V30 8416 H 792.854 -1.78095 -0.661993 0
M  V30 8417 H 791.004 -2.3817 -3.06932 0
M  V30 8418 H 792.676 -4.39328 -1.40672 0
M  V30 8419 H 790.919 -4.15202 -1.25659 0
M  V30 8420 H 791.59 -4.77691 -2.76613 0
M  V30 8421 H 794.066 -2.86634 -3.01629 0
M  V30 8422 H 792.942 -3.44681 -4.27184 0
M  V30 8423 H 793.203 -1.72127 -4.07216 0
M  V30 8424 N 792.262 0.832906 -1.33792 0
M  V30 8425 C 793.21 1.96455 -1.24532 0
M  V30 8426 C 794.204 1.68774 -0.145455 0
M  V30 8427 O 795.41 1.77314 -0.309797 0
M  V30 8428 H 791.785 0.645008 -0.386611 0
M  V30 8429 H 793.756 2.01389 -2.20193 0
M  V30 8430 C 792.505 3.32784 -1.00748 0
M  V30 8431 H 791.828 3.54626 -1.84609 0
M  V30 8432 H 793.268 4.12447 -0.98301 0
M  V30 8433 C 791.727 3.35654 0.289475 0
M  V30 8434 O 792.257 3.80281 1.29419 0
M  V30 8435 N 790.463 2.88843 0.3191 0
M  V30 8436 H 790.01 2.52719 -0.499069 0
M  V30 8437 H 789.968 2.91145 1.18667 0
M  V30 8438 N 793.74 1.17359 1.05189 0
M  V30 8439 C 794.688 0.886527 2.15043 0
M  V30 8440 C 795.682 -0.148834 1.68745 0
M  V30 8441 O 796.888 -0.00175123 1.8 0
M  V30 8442 H 793.263 0.269147 0.702185 0
M  V30 8443 H 795.234 1.82016 2.36459 0
M  V30 8444 C 793.983 0.416333 3.45198 0
M  V30 8445 H 793.306 1.20449 3.81225 0
M  V30 8446 H 794.746 0.254362 4.23236 0
M  V30 8447 C 793.205 -0.866016 3.25579 0
M  V30 8448 O 793.735 -1.9328 3.52144 0
M  V30 8449 N 791.941 -0.814179 2.78961 0
M  V30 8450 H 791.488 0.0541618 2.57543 0
M  V30 8451 H 791.446 -1.67264 2.66214 0
M  V30 8452 N 795.218 -1.23913 0.973828 0
M  V30 8453 C 796.464 -1.92436 0.640026 0
M  V30 8454 C 796.797 -1.75875 -0.823512 0
M  V30 8455 O 796.072 -1.11563 -1.59323 0
M  V30 8456 C 796.355 -3.4526 1.0231 0
M  V30 8457 C 796.208 -3.70961 2.54378 0
M  V30 8458 C 797.527 -4.36495 0.562155 0
M  V30 8459 H 794.646 -0.698868 0.233992 0
M  V30 8460 H 797.288 -1.46163 1.21393 0
M  V30 8461 H 795.438 -3.84802 0.534751 0
M  V30 8462 H 797.11 -3.40941 3.10737 0
M  V30 8463 H 795.353 -3.15899 2.97305 0
M  V30 8464 H 796.024 -4.77912 2.76232 0
M  V30 8465 H 798.5 -4.04363 0.981333 0
M  V30 8466 H 797.376 -5.42142 0.858689 0
M  V30 8467 H 797.637 -4.38818 -0.537659 0
M  V30 8468 N 796.696 -0.74468 -1.38897 0
M  V30 8469 C 797.626 -0.126355 -2.33158 0
M  V30 8470 C 798.607 0.713517 -1.54412 0
M  V30 8471 O 799.792 0.656523 -1.82766 0
M  V30 8472 C 796.922 0.774375 -3.38557 0
M  V30 8473 C 795.876 0.0379214 -4.27983 0
M  V30 8474 C 795.202 1.05631 -5.24162 0
M  V30 8475 C 796.502 -1.12523 -5.10035 0
M  V30 8476 H 798.196 -0.913744 -2.85116 0
M  V30 8477 H 795.742 -0.440847 -1.37086 0
M  V30 8478 H 797.695 1.21655 -4.03458 0
M  V30 8479 H 796.419 1.59399 -2.85061 0
M  V30 8480 H 795.078 -0.384733 -3.64576 0
M  V30 8481 H 794.726 1.86975 -4.66958 0
M  V30 8482 H 794.426 0.568261 -5.84846 0
M  V30 8483 H 795.95 1.49799 -5.9194 0
M  V30 8484 H 797.364 -0.761037 -5.68226 0
M  V30 8485 H 795.761 -1.54355 -5.79909 0
M  V30 8486 H 796.831 -1.94237 -4.44297 0
M  V30 8487 N 798.174 1.49689 -0.493057 0
M  V30 8488 C 799.104 2.31826 0.279073 0
M  V30 8489 C 800.085 1.39733 0.969987 0
M  V30 8490 O 801.27 1.68646 0.962925 0
M  V30 8491 C 798.4 3.20046 1.34862 0
M  V30 8492 C 797.354 4.20869 0.77805 0
M  V30 8493 C 796.68 4.97971 1.94753 0
M  V30 8494 C 797.98 5.21813 -0.225543 0
M  V30 8495 H 799.674 2.96627 -0.406512 0
M  V30 8496 H 797.22 1.42647 -0.196943 0
M  V30 8497 H 799.173 3.76315 1.89645 0
M  V30 8498 H 797.897 2.53172 2.06328 0
M  V30 8499 H 796.556 3.65733 0.252036 0
M  V30 8500 H 796.204 4.27552 2.64969 0
M  V30 8501 H 795.904 5.66186 1.57187 0
M  V30 8502 H 797.428 5.57082 2.49984 0
M  V30 8503 H 798.842 5.72823 0.233864 0
M  V30 8504 H 797.239 5.97872 -0.516622 0
M  V30 8505 H 798.309 4.71209 -1.14412 0
M  V30 8506 N 799.652 0.226554 1.55963 0
M  V30 8507 C 800.877 -0.411527 2.03276 0
M  V30 8508 C 801.302 -1.52206 1.10521 0
M  V30 8509 O 800.66 -1.81054 0.0943217 0
M  V30 8510 C 800.708 -0.915694 3.4878 0
M  V30 8511 O 799.812 -2.02672 3.59163 0
M  V30 8512 H 799.153 -0.0924907 0.657527 0
M  V30 8513 H 801.683 0.346656 2.01642 0
M  V30 8514 H 801.693 -1.22421 3.892 0
M  V30 8515 H 800.368 -0.102915 4.15773 0
M  V30 8516 H 798.945 -1.72445 3.30632 0
M  V30 8517 N 801.13 -1.57531 -0.0467866 0
M  V30 8518 C 802.06 -2.08425 -1.05268 0
M  V30 8519 C 803.041 -0.982941 -1.38825 0
M  V30 8520 O 804.226 -1.25716 -1.48018 0
M  V30 8521 C 801.356 -2.54897 -2.35891 0
M  V30 8522 C 800.31 -3.69132 -2.16623 0
M  V30 8523 C 799.636 -4.01747 -3.52851 0
M  V30 8524 C 800.936 -4.98243 -1.56689 0
M  V30 8525 H 802.63 -2.92716 -0.62908 0
M  V30 8526 H 800.176 -1.40816 -0.301156 0
M  V30 8527 H 802.129 -2.8912 -3.06574 0
M  V30 8528 H 800.853 -1.67666 -2.80278 0
M  V30 8529 H 799.512 -3.35231 -1.48377 0
M  V30 8530 H 799.16 -3.11608 -3.94853 0
M  V30 8531 H 798.86 -4.78681 -3.4079 0
M  V30 8532 H 800.384 -4.38487 -4.24925 0
M  V30 8533 H 801.798 -5.30535 -2.17268 0
M  V30 8534 H 800.195 -5.79669 -1.55255 0
M  V30 8535 H 801.265 -4.81986 -0.530827 0
M  V30 8536 N 802.608 0.318715 -1.54344 0
M  V30 8537 C 803.833 1.07987 -1.77069 0
M  V30 8538 C 804.258 1.80766 -0.520117 0
M  V30 8539 O 803.616 1.73424 0.528566 0
M  V30 8540 C 803.664 2.04987 -2.96669 0
M  V30 8541 O 802.768 3.12974 -2.68554 0
M  V30 8542 H 802.109 0.311109 -0.586606 0
M  V30 8543 H 804.639 0.361533 -2.0138 0
M  V30 8544 H 804.649 2.47771 -3.2415 0
M  V30 8545 H 803.324 1.51417 -3.87357 0
M  V30 8546 H 801.901 2.74831 -2.52037 0
M  V30 8547 N 804.086 1.46499 0.581025 0
M  V30 8548 C 805.334 1.51596 1.33653 0
M  V30 8549 C 805.655 0.169859 1.94259 0
M  V30 8550 O 804.925 -0.803776 1.78651 0
M  V30 8551 H 803.505 0.558346 0.496244 0
M  V30 8552 H 806.167 1.8264 0.680338 0
M  V30 8553 H 805.263 2.26956 2.14237 0
M  V30 8554 N 805.565 -0.825799 1.34232 0
M  V30 8555 C 806.512 -1.93651 1.2557 0
M  V30 8556 C 807.482 -1.65578 0.131536 0
M  V30 8557 O 808.667 -1.88231 0.312027 0
M  V30 8558 C 805.807 -3.29862 1.01415 0
M  V30 8559 C 804.92 -3.70247 2.22579 0
M  V30 8560 C 804.055 -4.95392 1.91731 0
M  V30 8561 C 803.094 -5.28349 3.09053 0
M  V30 8562 N 802.231 -6.44671 2.78107 0
M  V30 8563 H 807.071 -2.00392 2.20561 0
M  V30 8564 H 804.608 -0.980441 1.09662 0
M  V30 8565 H 806.566 -4.08356 0.854485 0
M  V30 8566 H 805.196 -3.22642 0.100936 0
M  V30 8567 H 804.248 -2.87169 2.49476 0
M  V30 8568 H 805.56 -3.90575 3.10246 0
M  V30 8569 H 804.714 -5.81665 1.72484 0
M  V30 8570 H 803.453 -4.77059 1.0132 0
M  V30 8571 H 802.458 -4.40574 3.289 0
M  V30 8572 H 803.683 -5.48622 4.00239 0
M  V30 8573 H 801.629 -6.278 1.9027 0
M  V30 8574 H 801.546 -6.65158 3.59306 0
M  V30 8575 H 802.814 -7.34022 2.62358 0
M  V30 8576 N 807.043 -1.17915 -1.04565 0
M  V30 8577 C 808.268 -0.996749 -1.81878 0
M  V30 8578 C 808.693 0.450169 -1.82634 0
M  V30 8579 O 808.051 1.32268 -1.23995 0
M  V30 8580 C 808.099 -1.55005 -3.25585 0
M  V30 8581 O 807.203 -0.76804 -4.05185 0
M  V30 8582 H 806.544 -0.353456 -0.562108 0
M  V30 8583 H 809.074 -1.56557 -1.31723 0
M  V30 8584 H 809.084 -1.57503 -3.76373 0
M  V30 8585 H 807.759 -2.60327 -3.2435 0
M  V30 8586 H 806.336 -0.81498 -3.63885 0
M  V30 8587 N 808.521 1.23394 -0.980386 0
M  V30 8588 C 809.749 1.95844 -0.667286 0
M  V30 8589 C 810.164 1.72574 0.765735 0
M  V30 8590 O 809.521 1.01715 1.51526 0
M  V30 8591 C 809.572 3.48844 -0.948151 0
M  V30 8592 O 809.293 3.71325 -2.32485 0
M  V30 8593 C 810.794 4.38494 -0.651002 0
M  V30 8594 H 808.014 0.623535 -0.247882 0
M  V30 8595 H 810.558 1.56885 -1.31176 0
M  V30 8596 H 808.713 3.85819 -0.349681 0
M  V30 8597 H 809.127 4.65619 -2.41452 0
M  V30 8598 H 810.601 5.44648 -0.897887 0
M  V30 8599 H 811.078 4.37236 0.414922 0
M  V30 8600 H 811.684 4.07127 -1.22995 0
M  V30 8601 N 809.999 0.752036 1.385 0
M  V30 8602 C 810.949 0.0990189 2.27785 0
M  V30 8603 C 811.933 -0.694867 1.45122 0
M  V30 8604 O 813.125 -0.561077 1.67872 0
M  V30 8605 C 810.254 -0.794531 3.33979 0
M  V30 8606 C 809.34 0.00611984 4.241 0
M  V30 8607 N 809.731 1.04174 4.94956 0
M  V30 8608 C 808.029 -0.220934 4.45452 0
M  V30 8609 C 808.73 1.52601 5.61327 0
M  V30 8610 N 807.706 0.84159 5.37046 0
M  V30 8611 H 811.508 0.892208 2.8003 0
M  V30 8612 H 809.022 0.587934 1.51384 0
M  V30 8613 H 811.019 -1.27797 3.96829 0
M  V30 8614 H 809.679 -1.58669 2.83292 0
M  V30 8615 H 810.69 1.42349 4.97953 0
M  V30 8616 H 807.367 -0.986556 4.05676 0
M  V30 8617 H 808.757 2.38857 6.2801 0
M  V30 8618 N 811.477 -1.49425 0.500989 0
M  V30 8619 C 812.726 -2.01649 -0.04538 0
M  V30 8620 C 813.039 -1.38572 -1.38047 0
M  V30 8621 O 814.245 -1.82124 -2.01353 0
M  V30 8622 C 812.701 -3.5966 -0.131337 0
M  V30 8623 C 812.309 -4.3171 1.19711 0
M  V30 8624 C 814.053 -4.19828 -0.628071 0
M  V30 8625 C 811.96 -5.81579 1.07332 0
M  V30 8626 H 810.89 -0.753715 -0.0207329 0
M  V30 8627 H 813.541 -1.71962 0.640407 0
M  V30 8628 H 811.923 -3.86063 -0.881574 0
M  V30 8629 H 813.097 -4.17008 1.96064 0
M  V30 8630 H 811.412 -3.83286 1.62729 0
M  V30 8631 H 814.009 -5.2958 -0.738198 0
M  V30 8632 H 814.352 -3.83194 -1.6269 0
M  V30 8633 H 814.885 -3.97746 0.0656314 0
M  V30 8634 H 811.624 -6.22738 2.04642 0
M  V30 8635 H 811.144 -5.98774 0.350679 0
M  V30 8636 H 812.823 -6.42614 0.752047 0
M  V30 8637 N 812.955 -0.234822 -1.55841 0
M  V30 8638 C 814.201 0.387023 -1.99684 0
M  V30 8639 C 814.556 1.56439 -1.12003 0
M  V30 8640 O 813.849 1.90818 -0.172879 0
M  V30 8641 C 814.043 0.858032 -3.46947 0
M  V30 8642 C 813.872 -0.272152 -4.48876 0
M  V30 8643 C 812.642 -0.742896 -4.99809 0
M  V30 8644 C 814.84 -1.09501 -5.02508 0
M  V30 8645 N 812.822 -1.84675 -5.85464 0
M  V30 8646 C 814.193 -2.04748 -5.85217 0
M  V30 8647 C 816.248 -1.13295 -4.84839 0
M  V30 8648 C 814.951 -3.03483 -6.52143 0
M  V30 8649 C 816.977 -2.10854 -5.52535 0
M  V30 8650 C 816.339 -3.04838 -6.35022 0
M  V30 8651 H 812.438 0.107918 -0.774518 0
M  V30 8652 H 815.022 -0.349635 -1.91535 0
M  V30 8653 H 813.193 1.56401 -3.55518 0
M  V30 8654 H 814.925 1.45381 -3.77686 0
M  V30 8655 H 811.68 -0.32915 -4.72455 0
M  V30 8656 H 812.104 -2.40108 -6.32991 0
M  V30 8657 H 816.746 -0.420226 -4.20706 0
M  V30 8658 H 814.464 -3.7571 -7.15449 0
M  V30 8659 H 818.05 -2.1448 -5.40823 0
M  V30 8660 H 816.93 -3.79097 -6.8648 0
M  V30 8661 N 814.433 1.57553 0.0384317 0
M  V30 8662 C 815.396 2.04927 1.02653 0
M  V30 8663 C 816.396 0.951768 1.29607 0
M  V30 8664 O 817.586 1.21568 1.24768 0
M  V30 8665 C 814.718 2.45828 2.36181 0
M  V30 8666 H 815.911 2.93474 0.617508 0
M  V30 8667 H 813.464 1.53679 0.285031 0
M  V30 8668 H 814.199 1.60408 2.8185 0
M  V30 8669 H 813.984 3.25945 2.1795 0
M  V30 8670 H 815.474 2.82939 3.0714 0
M  V30 8671 N 815.911 -0.310526 1.54511 0
M  V30 8672 C 816.861 -1.38405 1.81185 0
M  V30 8673 C 817.845 -1.46355 0.668499 0
M  V30 8674 O 819.037 -1.50668 0.928873 0
M  V30 8675 C 816.166 -2.75059 2.0542 0
M  V30 8676 C 815.252 -2.7137 3.25913 0
M  V30 8677 N 815.643 -2.37298 4.4668 0
M  V30 8678 C 813.941 -3.02484 3.27749 0
M  V30 8679 C 814.642 -2.42669 5.28665 0
M  V30 8680 N 813.618 -2.79639 4.66158 0
M  V30 8681 H 817.42 -1.11012 2.72128 0
M  V30 8682 H 814.934 -0.519068 1.53881 0
M  V30 8683 H 816.931 -3.52451 2.22674 0
M  V30 8684 H 815.591 -3.03372 1.15739 0
M  V30 8685 H 816.602 -2.09917 4.73451 0
M  V30 8686 H 813.279 -3.35754 2.48144 0
M  V30 8687 H 814.669 -2.19206 6.35136 0
M  V30 8688 N 817.389 -1.46805 -0.573248 0
M  V30 8689 C 818.666 -1.43082 -1.33368 0
M  V30 8690 C 819.046 -0.119252 -2.10763 0
M  V30 8691 O 818.394 0.899239 -2.10062 0
M  V30 8692 C 818.604 -2.66643 -2.25172 0
M  V30 8693 C 819.952 -3.13188 -2.86702 0
M  V30 8694 O 820.976 -2.67258 -2.35482 0
M  V30 8695 O 819.835 -3.92994 -3.79761 0
M  V30 8696 H 816.929 -0.569451 -0.599712 0
M  V30 8697 H 819.475 -1.58984 -0.59348 0
M  V30 8698 H 818.247 -3.53649 -1.67475 0
M  V30 8699 H 817.87 -2.53247 -3.06516 0
M  V30 8700 N 818.867 0.818669 -1.34668 0
M  V30 8701 C 819.797 1.94468 -1.29245 0
M  V30 8702 C 820.778 1.69257 -0.169101 0
M  V30 8703 O 821.963 1.90794 -0.362143 0
M  V30 8704 C 819.093 3.31001 -1.05145 0
M  V30 8705 C 818.047 3.70663 -2.13992 0
M  V30 8706 C 817.373 5.05226 -1.75074 0
M  V30 8707 C 818.673 3.82312 -3.55858 0
M  V30 8708 H 820.367 1.99263 -2.2346 0
M  V30 8709 H 817.913 0.957304 -1.07572 0
M  V30 8710 H 819.866 4.09364 -0.999949 0
M  V30 8711 H 818.59 3.26517 -0.0737312 0
M  V30 8712 H 817.249 2.94578 -2.18219 0
M  V30 8713 H 816.897 4.97233 -0.759518 0
M  V30 8714 H 816.597 5.32734 -2.47928 0
M  V30 8715 H 818.121 5.86042 -1.71427 0
M  V30 8716 H 819.535 4.50935 -3.5402 0
M  V30 8717 H 817.932 4.21278 -4.2737 0
M  V30 8718 H 819.002 2.84193 -3.9289 0
M  V30 8719 N 820.346 1.18468 1.03938 0
M  V30 8720 C 821.757 0.984808 1.58614 0
M  V30 8721 C 822.108 -0.465165 1.90606 0
M  V30 8722 O 821.233 -1.34274 1.69704 0
M  V30 8723 C 821.828 1.78135 2.8819 0
M  V30 8724 C 820.387 1.62579 3.39478 0
M  V30 8725 C 819.534 1.77501 2.13046 0
M  V30 8726 H 822.485 1.32993 0.865944 0
M  V30 8727 H 822.506 1.27119 3.58638 0
M  V30 8728 H 822.018 2.83661 2.64874 0
M  V30 8729 H 820.119 0.59595 3.67803 0
M  V30 8730 H 820.232 2.42463 4.13217 0
M  V30 8731 H 818.596 1.2046 2.24414 0
M  V30 8732 H 819.379 2.84464 1.92185 0
M  V30 8733 N 821.824 -1.22873 0.986916 0
M  V30 8734 C 823.072 -1.91084 0.658121 0
M  V30 8735 C 823.393 -1.77304 -0.811675 0
M  V30 8736 O 822.663 -1.15649 -1.58121 0
M  V30 8737 H 821.243 -0.707251 0.240427 0
M  V30 8738 H 823.905 -1.49357 1.25213 0
M  V30 8739 H 823.001 -2.98373 0.915428 0
M  V30 8740 N 823.302 -0.75937 -1.38099 0
M  V30 8741 C 824.232 -0.151077 -2.33011 0
M  V30 8742 C 825.213 0.697099 -1.5516 0
M  V30 8743 O 826.398 0.637101 -1.83452 0
M  V30 8744 C 823.528 0.738423 -3.39359 0
M  V30 8745 C 822.482 -0.0074741 -4.27999 0
M  V30 8746 C 821.808 1.00066 -5.25253 0
M  V30 8747 C 823.108 -1.17926 -5.08813 0
M  V30 8748 H 824.802 -0.943933 -2.84131 0
M  V30 8749 H 822.348 -0.455362 -1.36611 0
M  V30 8750 H 824.301 1.17369 -4.04725 0
M  V30 8751 H 823.025 1.56366 -2.86735 0
M  V30 8752 H 821.684 -0.423379 -3.64147 0
M  V30 8753 H 821.332 1.82012 -4.68914 0
M  V30 8754 H 821.032 0.506199 -5.85416 0
M  V30 8755 H 822.556 1.43512 -5.93495 0
M  V30 8756 H 823.97 -0.821262 -5.67387 0
M  V30 8757 H 822.367 -1.60497 -5.78239 0
M  V30 8758 H 823.437 -1.98938 -4.42212 0
M  V30 8759 N 824.78 1.49157 -0.508906 0
M  V30 8760 C 826.027 2.02473 0.0327983 0
M  V30 8761 C 826.355 1.38792 1.36261 0
M  V30 8762 O 825.61 0.515576 1.88786 0
M  V30 8763 C 825.909 3.56687 0.225717 0
M  V30 8764 C 825.575 4.39046 -1.02708 0
M  V30 8765 C 824.237 4.61271 -1.37048 0
M  V30 8766 C 826.589 4.86902 -1.85946 0
M  V30 8767 C 823.917 5.28598 -2.54562 0
M  V30 8768 C 826.269 5.55521 -3.0262 0
M  V30 8769 C 824.933 5.7599 -3.3733 0
M  V30 8770 H 824.203 0.740903 0.0120017 0
M  V30 8771 H 826.85 1.79372 -0.670665 0
M  V30 8772 H 825.155 3.78511 1.01177 0
M  V30 8773 H 826.852 3.95541 0.659433 0
M  V30 8774 H 823.442 4.21994 -0.749615 0
M  V30 8775 H 827.626 4.69553 -1.6073 0
M  V30 8776 H 822.882 5.42646 -2.81682 0
M  V30 8777 H 827.056 5.91576 -3.67438 0
M  V30 8778 H 824.683 6.27934 -4.2849 0
M  V30 8779 N 826.258 0.243083 1.55714 0
M  V30 8780 C 827.168 -0.668913 2.24862 0
M  V30 8781 C 828.184 -1.19638 1.26344 0
M  V30 8782 O 829.36 -1.23345 1.5921 0
M  V30 8783 C 826.425 -1.85084 2.93163 0
M  V30 8784 C 825.486 -1.36323 4.07081 0
M  V30 8785 C 824.719 -2.48882 4.72116 0
M  V30 8786 O 824.942 -3.67523 4.36214 0
M  V30 8787 O 823.876 -2.18857 5.60701 0
M  V30 8788 H 827.702 -0.109737 3.03502 0
M  V30 8789 H 825.287 0.0117411 1.49395 0
M  V30 8790 H 827.169 -2.54065 3.36197 0
M  V30 8791 H 825.844 -2.39771 2.17466 0
M  V30 8792 H 824.751 -0.640804 3.68571 0
M  V30 8793 H 826.084 -0.86249 4.84584 0
M  V30 8794 N 827.736 -1.57571 -0.0300757 0
M  V30 8795 C 828.668 -2.0329 -1.05857 0
M  V30 8796 C 829.681 -0.945543 -1.32527 0
M  V30 8797 O 830.87 -1.22287 -1.30032 0
M  V30 8798 C 827.97 -2.39234 -2.40042 0
M  V30 8799 C 827.143 -3.70337 -2.32743 0
M  V30 8800 C 826.202 -3.93482 -3.49369 0
M  V30 8801 O 825.228 -4.64551 -3.28909 0
M  V30 8802 N 826.43 -3.39042 -4.71201 0
M  V30 8803 H 829.195 -2.9214 -0.668897 0
M  V30 8804 H 826.756 -1.60425 -0.218038 0
M  V30 8805 H 828.748 -2.51856 -3.16782 0
M  V30 8806 H 827.318 -1.5606 -2.70858 0
M  V30 8807 H 826.538 -3.68079 -1.41109 0
M  V30 8808 H 827.826 -4.56343 -2.25007 0
M  V30 8809 H 827.224 -2.81434 -4.90725 0
M  V30 8810 H 825.781 -3.57045 -5.45309 0
M  V30 8811 N 829.214 0.302327 -1.54673 0
M  V30 8812 C 830.63 0.647911 -1.45857 0
M  V30 8813 C 830.83 1.90773 -0.64869 0
M  V30 8814 O 829.886 2.52018 -0.155865 0
M  V30 8815 C 831.199 0.802144 -2.89804 0
M  V30 8816 C 832.747 0.898114 -2.99838 0
M  V30 8817 C 833.222 1.08436 -4.44978 0
M  V30 8818 N 834.713 1.15059 -4.48682 0
M  V30 8819 C 835.448 1.31296 -5.58166 0
M  V30 8820 N 834.944 1.4444 -6.77576 0
M  V30 8821 N 836.737 1.34174 -5.45851 0
M  V30 8822 H 828.888 -0.525428 -2.05798 0
M  V30 8823 H 831.151 -0.173423 -0.932002 0
M  V30 8824 H 830.857 -0.0526531 -3.51661 0
M  V30 8825 H 830.731 1.69155 -3.37145 0
M  V30 8826 H 833.118 1.7434 -2.38096 0
M  V30 8827 H 833.199 -0.0152752 -2.55795 0
M  V30 8828 H 832.843 0.243843 -5.07314 0
M  V30 8829 H 832.773 2.01195 -4.8665 0
M  V30 8830 H 835.264 1.0626 -3.62653 0
M  V30 8831 H 835.577 1.56582 -7.56771 0
M  V30 8832 H 833.922 1.41499 -6.80443 0
M  V30 8833 H 837.113 1.23516 -4.5151 0
M  V30 8834 H 837.286 1.46485 -6.31226 0
M  V30 8835 N 830.692 1.47107 0.565454 0
M  V30 8836 C 832.108 1.32443 0.890566 0
M  V30 8837 C 832.308 0.308735 1.99121 0
M  V30 8838 O 831.364 -0.28265 2.50913 0
M  V30 8839 C 832.677 2.71548 1.2916 0
M  V30 8840 C 834.225 2.7977 1.40349 0
M  V30 8841 C 834.7 4.19497 1.83811 0
M  V30 8842 N 836.191 4.21998 1.90975 0
M  V30 8843 C 836.926 5.2702 2.25916 0
M  V30 8844 N 836.422 6.42353 2.59527 0
M  V30 8845 N 838.215 5.14393 2.26619 0
M  V30 8846 H 830.366 2.11786 -0.161328 0
M  V30 8847 H 832.629 0.947952 -0.00950631 0
M  V30 8848 H 832.335 3.47265 0.556753 0
M  V30 8849 H 832.209 3.02782 2.24951 0
M  V30 8850 H 834.596 2.0433 2.12916 0
M  V30 8851 H 834.677 2.522 0.427655 0
M  V30 8852 H 834.321 4.95439 1.11816 0
M  V30 8853 H 834.251 4.44486 2.82382 0
M  V30 8854 H 836.742 3.38791 1.6742 0
M  V30 8855 H 837.055 7.18252 2.85191 0
M  V30 8856 H 835.4 6.45687 2.57126 0
M  V30 8857 H 838.591 4.2332 1.99794 0
M  V30 8858 H 838.764 5.96349 2.5352 0
M  V30 8859 N 832.17 -0.811516 1.35101 0
M  V30 8860 C 833.1 -1.9378 1.30275 0
M  V30 8861 C 834.081 -1.69165 0.178075 0
M  V30 8862 O 835.266 -1.90599 0.372256 0
M  V30 8863 C 832.396 -3.30439 1.06899 0
M  V30 8864 C 831.35 -3.69523 2.15955 0
M  V30 8865 C 830.676 -5.0429 1.77751 0
M  V30 8866 C 831.976 -3.80419 3.57881 0
M  V30 8867 H 833.67 -1.98075 2.24514 0
M  V30 8868 H 831.216 -0.951586 1.08078 0
M  V30 8869 H 833.169 -4.08828 1.02164 0
M  V30 8870 H 831.893 -3.26473 0.0910462 0
M  V30 8871 H 830.552 -2.93416 2.19778 0
M  V30 8872 H 830.2 -4.96823 0.785876 0
M  V30 8873 H 829.9 -5.31411 2.5075 0
M  V30 8874 H 831.424 -5.85125 1.74533 0
M  V30 8875 H 832.838 -4.49051 3.56407 0
M  V30 8876 H 831.235 -4.19005 4.29598 0
M  V30 8877 H 832.305 -2.82105 3.94391 0
M  V30 8878 N 833.648 -1.19017 -1.03309 0
M  V30 8879 C 834.58 -0.881847 -2.11556 0
M  V30 8880 C 835.593 0.123711 -1.62329 0
M  V30 8881 O 836.782 -0.105141 -1.7819 0
M  V30 8882 C 833.882 -0.297634 -3.37591 0
M  V30 8883 C 833.055 -1.35072 -4.16022 0
M  V30 8884 C 832.114 -0.780812 -5.20375 0
M  V30 8885 O 831.14 -1.45745 -5.50224 0
M  V30 8886 N 832.342 0.417964 -5.78993 0
M  V30 8887 H 835.107 -1.81359 -2.38598 0
M  V30 8888 H 832.668 -1.0916 -1.19565 0
M  V30 8889 H 834.66 0.097374 -4.04583 0
M  V30 8890 H 833.23 0.538299 -3.0793 0
M  V30 8891 H 832.45 -1.92074 -3.4424 0
M  V30 8892 H 833.738 -2.06044 -4.65213 0
M  V30 8893 H 833.136 0.985281 -5.57054 0
M  V30 8894 H 831.693 0.754802 -6.47415 0
M  V30 8895 N 835.127 1.22348 -0.993418 0
M  V30 8896 C 836.059 2.23626 -0.502404 0
M  V30 8897 C 837.072 1.57739 0.402784 0
M  V30 8898 O 838.261 1.77321 0.204835 0
M  V30 8899 C 835.361 3.37647 0.291118 0
M  V30 8900 C 834.534 4.33121 -0.610332 0
M  V30 8901 C 833.593 5.26035 0.131572 0
M  V30 8902 O 832.619 5.67145 -0.483199 0
M  V30 8903 N 833.821 5.63023 1.41371 0
M  V30 8904 H 836.586 2.66385 -1.37329 0
M  V30 8905 H 834.147 1.36653 -0.868196 0
M  V30 8906 H 836.139 3.96792 0.796107 0
M  V30 8907 H 834.709 2.93967 1.0631 0
M  V30 8908 H 833.929 3.72287 -1.29598 0
M  V30 8909 H 835.217 4.93853 -1.22422 0
M  V30 8910 H 834.615 5.31596 1.93449 0
M  V30 8911 H 833.172 6.24582 1.86388 0
M  V30 8912 N 836.605 0.766683 1.37694 0
M  V30 8913 C 837.537 0.107798 2.28946 0
M  V30 8914 C 838.55 -0.669701 1.48387 0
M  V30 8915 O 839.739 -0.508629 1.711 0
M  V30 8916 C 836.839 -0.871084 3.27514 0
M  V30 8917 C 836.012 -0.148471 4.37148 0
M  V30 8918 C 835.071 -1.03998 5.1582 0
M  V30 8919 O 834.097 -0.505639 5.6695 0
M  V30 8920 N 835.299 -2.36679 5.3006 0
M  V30 8921 H 838.064 0.89154 2.86132 0
M  V30 8922 H 835.625 0.618593 1.49616 0
M  V30 8923 H 837.617 -1.47081 3.77027 0
M  V30 8924 H 836.187 -1.55582 2.71133 0
M  V30 8925 H 835.407 0.632117 3.89099 0
M  V30 8926 H 836.695 0.351045 5.07588 0
M  V30 8927 H 836.093 -2.82532 4.90094 0
M  V30 8928 H 834.65 -2.9167 5.82899 0
M  V30 8929 N 838.083 -1.48885 0.516809 0
M  V30 8930 C 839.329 -2.02788 -0.0220928 0
M  V30 8931 C 839.662 -1.39433 -1.35175 0
M  V30 8932 O 838.937 -0.535459 -1.86984 0
M  V30 8933 C 839.22 -3.59753 -0.158012 0
M  V30 8934 C 839.073 -4.33611 1.19588 0
M  V30 8935 C 840.392 -4.30984 -0.891133 0
M  V30 8936 H 837.511 -0.736971 -0.00655488 0
M  V30 8937 H 840.153 -1.77746 0.671287 0
M  V30 8938 H 838.303 -3.8122 -0.748568 0
M  V30 8939 H 839.975 -4.23598 1.82653 0
M  V30 8940 H 838.218 -3.95547 1.78116 0
M  V30 8941 H 838.889 -5.41846 1.05391 0
M  V30 8942 H 841.365 -4.14267 -0.39012 0
M  V30 8943 H 840.241 -5.40527 -0.955107 0
M  V30 8944 H 840.502 -3.97336 -1.93847 0
M  V30 8945 N 839.561 -0.251338 -1.55583 0
M  V30 8946 C 840.972 0.25098 -1.85005 0
M  V30 8947 C 841.323 1.57259 -1.17321 0
M  V30 8948 O 840.448 2.11603 -0.453136 0
M  V30 8949 C 841.043 0.462161 -3.35633 0
M  V30 8950 C 839.602 0.908737 -3.65266 0
M  V30 8951 C 838.749 -0.0115418 -2.77298 0
M  V30 8952 H 841.7 -0.473782 -1.51463 0
M  V30 8953 H 841.721 1.30415 -3.57452 0
M  V30 8954 H 841.233 -0.499886 -3.84867 0
M  V30 8955 H 839.334 1.8831 -3.21512 0
M  V30 8956 H 839.447 0.762526 -4.72993 0
M  V30 8957 H 837.811 0.500612 -2.49732 0
M  V30 8958 H 838.594 -0.969042 -3.29339 0
M  V30 8959 N 841.039 1.57585 0.0217189 0
M  V30 8960 C 841.969 2.10073 1.01939 0
M  V30 8961 C 842.95 1.0049 1.37243 0
M  V30 8962 O 844.135 1.28055 1.45999 0
M  V30 8963 C 841.265 2.58618 2.31806 0
M  V30 8964 C 840.219 3.72531 2.10724 0
M  V30 8965 C 839.545 4.07309 3.46415 0
M  V30 8966 C 840.845 5.00672 1.48743 0
M  V30 8967 H 842.539 2.9368 0.582432 0
M  V30 8968 H 840.085 1.41277 0.278715 0
M  V30 8969 H 842.038 2.9396 3.01936 0
M  V30 8970 H 840.762 1.72104 2.77575 0
M  V30 8971 H 839.421 3.37549 1.43025 0
M  V30 8972 H 839.069 3.17851 3.89846 0
M  V30 8973 H 838.769 4.84042 3.33132 0
M  V30 8974 H 840.293 4.45192 4.17895 0
M  V30 8975 H 841.707 5.33925 2.088 0
M  V30 8976 H 840.104 5.82065 1.46013 0
M  V30 8977 H 841.174 4.82769 0.45408 0
M  V30 8978 N 842.517 -0.29412 1.54831 0
M  V30 8979 C 843.742 -1.05156 1.78765 0
M  V30 8980 C 844.167 -1.79916 0.548809 0
M  V30 8981 O 843.525 -1.74243 -0.500909 0
M  V30 8982 C 843.573 -2.00242 2.99893 0
M  V30 8983 O 842.677 -3.08662 2.73499 0
M  V30 8984 H 842.018 -0.301737 0.591482 0
M  V30 8985 H 844.548 -0.329449 2.0193 0
M  V30 8986 H 844.558 -2.42583 3.28051 0
M  V30 8987 H 843.233 -1.45235 3.89717 0
M  V30 8988 H 841.81 -2.70786 2.56377 0
M  V30 8989 N 843.995 -1.47404 -0.557645 0
M  V30 8990 C 845.244 -1.53268 -1.31118 0
M  V30 8991 C 845.557 -0.199414 -1.94581 0
M  V30 8992 O 846.763 -0.136039 -2.71159 0
M  V30 8993 C 845.219 -2.70178 -2.37764 0
M  V30 8994 C 844.827 -4.10032 -1.80493 0
M  V30 8995 C 846.571 -2.85334 -3.14301 0
M  V30 8996 C 844.478 -5.18244 -2.84916 0
M  V30 8997 H 843.408 -0.570491 -0.493007 0
M  V30 8998 H 846.059 -1.73678 -0.592308 0
M  V30 8999 H 844.441 -2.43147 -3.12563 0
M  V30 9000 H 845.615 -4.46964 -1.12069 0
M  V30 9001 H 843.93 -3.99759 -1.16542 0
M  V30 9002 H 846.527 -3.63347 -3.92279 0
M  V30 9003 H 846.87 -1.93761 -3.68459 0
M  V30 9004 H 847.403 -3.12133 -2.46613 0
M  V30 9005 H 844.142 -6.11691 -2.35614 0
M  V30 9006 H 843.662 -4.85829 -3.51753 0
M  V30 9007 H 845.341 -5.45174 -3.48417 0
M  V30 9008 N 845.473 0.80434 -1.35529 0
M  V30 9009 C 846.884 1.37849 -1.25915 0
M  V30 9010 C 847.235 1.95905 0.107495 0
M  V30 9011 O 846.36 1.91462 1.00852 0
M  V30 9012 C 846.955 2.50608 -2.27994 0
M  V30 9013 C 845.514 3.03879 -2.22114 0
M  V30 9014 C 844.661 1.76856 -2.13582 0
M  V30 9015 H 847.612 0.607192 -1.46625 0
M  V30 9016 H 847.633 3.29221 -1.90772 0
M  V30 9017 H 847.145 2.08323 -3.27449 0
M  V30 9018 H 845.246 3.50622 -1.26077 0
M  V30 9019 H 845.359 3.61707 -3.14173 0
M  V30 9020 H 843.723 1.98498 -1.59595 0
M  V30 9021 H 844.506 1.36721 -3.14901 0
M  V30 9022 N 846.951 1.19563 1.02676 0
M  V30 9023 C 848.179 1.02488 1.79732 0
M  V30 9024 C 848.594 -0.426302 1.83924 0
M  V30 9025 O 847.951 -1.29609 1.28483 0
M  V30 9026 C 848.002 1.58944 3.24683 0
M  V30 9027 O 847.723 2.98382 3.2078 0
M  V30 9028 C 849.224 1.46681 4.1833 0
M  V30 9029 H 846.444 0.361098 0.565552 0
M  V30 9030 H 848.988 1.58426 1.29311 0
M  V30 9031 H 847.143 1.0715 3.72287 0
M  V30 9032 H 847.557 3.24983 4.11687 0
M  V30 9033 H 849.031 1.90959 5.17918 0
M  V30 9034 H 849.508 0.417663 4.3721 0
M  V30 9035 H 850.114 1.97616 3.76601 0
M  V30 9036 N 848.429 -1.21819 0.999893 0
M  V30 9037 C 849.377 -2.26027 0.549047 0
M  V30 9038 C 850.371 -1.64516 -0.403826 0
M  V30 9039 O 851.577 -1.77878 -0.275578 0
M  V30 9040 H 847.952 -0.734958 0.159185 0
M  V30 9041 H 849.923 -2.61398 1.43923 0
M  V30 9042 C 848.672 -3.47514 -0.11369 0
M  V30 9043 H 847.995 -3.95112 0.610482 0
M  V30 9044 H 849.435 -4.22179 -0.3925 0
M  V30 9045 C 847.894 -3.08614 -1.35126 0
M  V30 9046 O 848.424 -3.1864 -2.44605 0
M  V30 9047 N 846.63 -2.63327 -1.22911 0
M  V30 9048 H 846.177 -2.55369 -0.338288 0
M  V30 9049 H 846.135 -2.37668 -2.05818 0
M  V30 9050 N 849.908 -0.773975 -1.37286 0
M  V30 9051 C 851.324 -0.45386 -1.53011 0
M  V30 9052 C 851.524 1.03018 -1.73175 0
M  V30 9053 O 850.58 1.81597 -1.75438 0
M  V30 9054 C 851.893 -1.27087 -2.72524 0
M  V30 9055 C 853.441 -1.26299 -2.86387 0
M  V30 9056 C 853.916 -2.0634 -4.08886 0
M  V30 9057 N 855.407 -2.03706 -4.16003 0
M  V30 9058 C 856.142 -2.62418 -5.09828 0
M  V30 9059 N 855.638 -3.29926 -6.09197 0
M  V30 9060 N 857.431 -2.52236 -5.02328 0
M  V30 9061 H 849.582 -1.73551 -1.22449 0
M  V30 9062 H 851.845 -0.736874 -0.596423 0
M  V30 9063 H 851.551 -2.32263 -2.64096 0
M  V30 9064 H 851.425 -0.90157 -3.66267 0
M  V30 9065 H 853.812 -0.219213 -2.94285 0
M  V30 9066 H 853.893 -1.67195 -1.93596 0
M  V30 9067 H 853.537 -3.10741 -4.01749 0
M  V30 9068 H 853.467 -1.62825 -5.00795 0
M  V30 9069 H 855.958 -1.54559 -3.44848 0
M  V30 9070 H 856.271 -3.72095 -6.77322 0
M  V30 9071 H 854.616 -3.34026 -6.09469 0
M  V30 9072 H 857.807 -1.99108 -4.23643 0
M  V30 9073 H 857.98 -2.98286 -5.75265 0
M  V30 9074 N 851.386 1.48609 -0.524698 0
M  V30 9075 C 852.316 2.32366 0.229837 0
M  V30 9076 C 853.297 1.41759 0.940129 0
M  V30 9077 O 854.482 1.7065 0.926936 0
M  V30 9078 C 851.612 3.22835 1.28043 0
M  V30 9079 C 850.566 4.22424 0.688603 0
M  V30 9080 C 849.892 5.0199 1.84146 0
M  V30 9081 C 851.192 5.21217 -0.336176 0
M  V30 9082 H 852.886 2.95698 -0.469339 0
M  V30 9083 H 850.432 1.42197 -0.227156 0
M  V30 9084 H 852.385 3.80253 1.8162 0
M  V30 9085 H 851.109 2.57492 2.00912 0
M  V30 9086 H 849.768 3.66185 0.174402 0
M  V30 9087 H 849.416 4.33076 2.5584 0
M  V30 9088 H 849.116 5.69392 1.45142 0
M  V30 9089 H 850.64 5.62259 2.38111 0
M  V30 9090 H 852.054 5.7319 0.112307 0
M  V30 9091 H 850.451 5.96642 -0.643324 0
M  V30 9092 H 851.521 4.68676 -1.24381 0
M  V30 9093 N 852.864 0.259585 1.55447 0
M  V30 9094 C 854.092 -0.365392 2.03648 0
M  V30 9095 C 854.507 -1.50613 1.13847 0
M  V30 9096 O 853.864 -1.81837 0.155414 0
M  V30 9097 C 853.915 -0.861172 3.51093 0
M  V30 9098 O 853.636 0.234121 4.37474 0
M  V30 9099 C 855.137 -1.55555 4.15111 0
M  V30 9100 H 852.357 -0.0853439 0.66555 0
M  V30 9101 H 854.901 0.387151 2.00802 0
M  V30 9102 H 853.056 -1.56385 3.54433 0
M  V30 9103 H 853.47 -0.1444 5.24301 0
M  V30 9104 H 854.944 -1.85403 5.19932 0
M  V30 9105 H 855.421 -2.48185 3.62355 0
M  V30 9106 H 856.027 -0.89712 4.15731 0
M  V30 9107 N 854.342 -1.57594 -0.0133615 0
M  V30 9108 C 855.274 -2.04402 -1.03695 0
M  V30 9109 C 856.287 -0.959546 -1.31516 0
M  V30 9110 O 857.476 -1.23659 -1.28727 0
M  V30 9111 C 854.576 -2.41766 -2.37491 0
M  V30 9112 C 853.749 -3.72785 -2.28802 0
M  V30 9113 C 852.808 -3.97165 -3.45176 0
M  V30 9114 O 851.834 -4.68013 -3.23963 0
M  V30 9115 N 853.036 -3.44021 -4.67579 0
M  V30 9116 H 855.801 -2.92833 -0.637874 0
M  V30 9117 H 853.362 -1.60647 -0.20101 0
M  V30 9118 H 855.354 -2.55201 -3.14093 0
M  V30 9119 H 853.924 -1.58924 -2.69188 0
M  V30 9120 H 853.144 -3.69555 -1.37197 0
M  V30 9121 H 854.432 -4.58704 -2.20154 0
M  V30 9122 H 853.83 -2.86623 -4.87713 0
M  V30 9123 H 852.387 -3.62808 -5.41492 0
M  V30 9124 N 855.82 0.285905 -1.54985 0
M  V30 9125 C 857.236 0.632405 -1.46536 0
M  V30 9126 C 857.436 1.90074 -0.668888 0
M  V30 9127 O 856.492 2.51839 -0.182586 0
M  V30 9128 C 857.805 0.771361 -2.90638 0
M  V30 9129 C 859.353 0.866262 -3.00774 0
M  V30 9130 C 859.828 1.0371 -4.46103 0
M  V30 9131 N 861.319 1.10294 -4.49877 0
M  V30 9132 C 862.054 1.25369 -5.59527 0
M  V30 9133 N 861.55 1.37246 -6.7907 0
M  V30 9134 N 863.343 1.28377 -5.47244 0
M  V30 9135 H 855.494 -0.547226 -2.0523 0
M  V30 9136 H 857.757 -0.183298 -0.930111 0
M  V30 9137 H 857.463 -0.0899485 -3.51585 0
M  V30 9138 H 857.337 1.65569 -3.3892 0
M  V30 9139 H 859.724 1.71805 -2.39931 0
M  V30 9140 H 859.805 -0.0424049 -2.55765 0
M  V30 9141 H 859.449 0.190021 -5.07544 0
M  V30 9142 H 859.379 1.96022 -4.88757 0
M  V30 9143 H 861.87 1.02407 -3.6376 0
M  V30 9144 H 862.183 1.48546 -7.58389 0
M  V30 9145 H 860.528 1.34274 -6.81906 0
M  V30 9146 H 863.719 1.1872 -4.52795 0
M  V30 9147 H 863.892 1.39782 -6.32744 0
M  V30 9148 N 857.298 1.47698 0.54982 0
M  V30 9149 C 858.547 1.53961 1.30303 0
M  V30 9150 C 858.86 0.209731 1.94472 0
M  V30 9151 O 860.066 0.150418 2.71083 0
M  V30 9152 C 858.522 2.71436 2.36328 0
M  V30 9153 C 858.13 4.10983 1.78316 0
M  V30 9154 C 859.874 2.86996 3.12783 0
M  V30 9155 C 857.781 5.19747 2.82164 0
M  V30 9156 H 856.711 0.573098 0.489975 0
M  V30 9157 H 859.362 1.73989 0.583089 0
M  V30 9158 H 857.744 2.44801 3.11269 0
M  V30 9159 H 858.918 4.47552 1.09697 0
M  V30 9160 H 857.233 4.00371 1.1442 0
M  V30 9161 H 859.83 3.65422 3.90347 0
M  V30 9162 H 860.173 1.95712 3.67427 0
M  V30 9163 H 860.706 3.13436 2.44954 0
M  V30 9164 H 857.445 6.12932 2.32366 0
M  V30 9165 H 856.965 4.87688 3.49171 0
M  V30 9166 H 858.644 5.47014 3.4552 0
M  V30 9167 N 858.776 -0.797141 1.35954 0
M  V30 9168 C 860.025 -1.54983 1.29086 0
M  V30 9169 C 860.338 -1.95167 -0.130003 0
M  V30 9170 O 861.544 -2.69596 -0.32101 0
M  V30 9171 C 860 -2.79738 2.26439 0
M  V30 9172 C 859.608 -2.46753 3.73921 0
M  V30 9173 C 861.352 -3.57733 2.28533 0
M  V30 9174 C 859.259 -3.67858 4.63071 0
M  V30 9175 H 858.189 -0.581766 0.479651 0
M  V30 9176 H 860.84 -0.87541 1.61273 0
M  V30 9177 H 859.222 -3.48939 1.87236 0
M  V30 9178 H 860.396 -1.85499 4.21814 0
M  V30 9179 H 858.711 -1.81985 3.74527 0
M  V30 9180 H 861.308 -4.47699 2.92351 0
M  V30 9181 H 861.651 -3.95754 1.29169 0
M  V30 9182 H 862.184 -2.95504 2.66313 0
M  V30 9183 H 858.923 -3.34939 5.63468 0
M  V30 9184 H 858.443 -4.28305 4.19898 0
M  V30 9185 H 860.122 -4.34977 4.78961 0
M  V30 9186 N 860.254 -1.20106 -1.0204 0
M  V30 9187 C 861.665 -1.00992 -1.57027 0
M  V30 9188 C 862.016 0.434782 -1.91322 0
M  V30 9189 O 861.141 1.31557 -1.71819 0
M  V30 9190 C 861.736 -1.82697 -2.85319 0
M  V30 9191 C 860.295 -1.67959 -3.36848 0
M  V30 9192 C 859.442 -1.80868 -2.10195 0
M  V30 9193 H 862.393 -1.34354 -0.844676 0
M  V30 9194 H 862.414 -1.32809 -3.5657 0
M  V30 9195 H 861.926 -2.87839 -2.60328 0
M  V30 9196 H 860.027 -0.654389 -3.66809 0
M  V30 9197 H 860.14 -2.49006 -4.09308 0
M  V30 9198 H 858.504 -1.24015 -2.22469 0
M  V30 9199 H 859.287 -2.87486 -1.87635 0
M  V30 9200 N 861.732 1.21287 -1.00634 0
M  V30 9201 C 863.148 1.42467 -0.719389 0
M  V30 9202 C 863.348 1.88767 0.704927 0
M  V30 9203 O 862.404 2.05004 1.47409 0
M  V30 9204 C 863.717 2.455 -1.73639 0
M  V30 9205 C 865.265 2.59281 -1.75335 0
M  V30 9206 C 865.74 3.65547 -2.75934 0
M  V30 9207 N 867.231 3.73019 -2.74611 0
M  V30 9208 C 867.966 4.54873 -3.4911 0
M  V30 9209 N 867.462 5.40614 -4.33253 0
M  V30 9210 N 869.255 4.49309 -3.37754 0
M  V30 9211 H 861.406 0.895454 -1.92602 0
M  V30 9212 H 863.669 0.455491 -0.831404 0
M  V30 9213 H 863.375 2.18455 -2.75627 0
M  V30 9214 H 863.249 3.44325 -1.54014 0
M  V30 9215 H 865.636 2.85661 -0.740377 0
M  V30 9216 H 865.717 1.60685 -1.99032 0
M  V30 9217 H 865.361 3.39911 -3.77389 0
M  V30 9218 H 865.291 4.63741 -2.49503 0
M  V30 9219 H 867.782 3.11766 -2.13565 0
M  V30 9220 H 868.095 6.0013 -4.86892 0
M  V30 9221 H 866.44 5.40151 -4.37335 0
M  V30 9222 H 869.631 3.81357 -2.71449 0
M  V30 9223 H 869.804 5.12867 -3.9607 0
M  V30 9224 N 863.21 0.781244 1.36873 0
M  V30 9225 C 864.626 0.461968 1.52768 0
M  V30 9226 C 864.826 -1.02099 1.73719 0
M  V30 9227 O 863.882 -1.80665 1.76399 0
M  V30 9228 C 865.195 1.2853 2.71846 0
M  V30 9229 C 866.743 1.27817 2.85713 0
M  V30 9230 C 867.218 2.08506 4.07786 0
M  V30 9231 N 868.709 2.05909 4.14917 0
M  V30 9232 C 869.444 2.65118 5.08429 0
M  V30 9233 N 868.94 3.33152 6.07438 0
M  V30 9234 N 870.733 2.54896 5.00983 0
M  V30 9235 H 862.884 1.74198 1.21527 0
M  V30 9236 H 865.147 0.740027 0.592506 0
M  V30 9237 H 864.853 2.3366 2.62861 0
M  V30 9238 H 864.727 0.920981 3.65784 0
M  V30 9239 H 867.114 0.234817 2.94164 0
M  V30 9240 H 867.195 1.68219 1.92707 0
M  V30 9241 H 866.839 3.12867 4.00096 0
M  V30 9242 H 866.769 1.65479 4.99924 0
M  V30 9243 H 869.26 1.56386 3.44023 0
M  V30 9244 H 869.573 3.75681 6.75339 0
M  V30 9245 H 867.918 3.37253 6.07689 0
M  V30 9246 H 871.109 2.01352 4.22581 0
M  V30 9247 H 871.282 3.01332 5.73675 0
M  V30 9248 N 864.689 -1.48329 0.532571 0
M  V30 9249 C 865.936 -2.025 -0.000582356 0
M  V30 9250 C 866.264 -1.40942 -1.34036 0
M  V30 9251 O 865.519 -0.545545 -1.87942 0
M  V30 9252 C 865.818 -3.57 -0.168943 0
M  V30 9253 C 865.484 -4.37357 1.0968 0
M  V30 9254 C 864.146 -4.59033 1.44369 0
M  V30 9255 C 866.498 -4.83882 1.93669 0
M  V30 9256 C 863.826 -5.24481 2.62939 0
M  V30 9257 C 866.178 -5.50637 3.11419 0
M  V30 9258 C 864.842 -5.70551 3.46451 0
M  V30 9259 H 864.112 -0.741 -0.000213099 0
M  V30 9260 H 866.759 -1.78282 0.699117 0
M  V30 9261 H 865.064 -3.80072 -0.951429 0
M  V30 9262 H 866.761 -3.9654 -0.596422 0
M  V30 9263 H 863.351 -4.20748 0.816655 0
M  V30 9264 H 867.535 -4.66936 1.6818 0
M  V30 9265 H 862.791 -5.38096 2.9028 0
M  V30 9266 H 866.965 -5.85655 3.76803 0
M  V30 9267 H 864.592 -6.21037 4.38425 0
M  V30 9268 N 866.167 -0.267825 -1.55308 0
M  V30 9269 C 867.13 0.60965 -2.20943 0
M  V30 9270 C 868.13 1.0869 -1.18504 0
M  V30 9271 O 869.32 0.988248 -1.43455 0
M  V30 9272 C 866.452 1.84027 -2.86961 0
M  V30 9273 H 867.645 0.0366806 -2.99878 0
M  V30 9274 H 865.198 -0.0183941 -1.56289 0
M  V30 9275 H 865.933 2.45394 -2.1202 0
M  V30 9276 H 865.718 1.50605 -3.62023 0
M  V30 9277 H 867.208 2.46442 -3.37129 0
M  V30 9278 N 867.645 1.57599 0.00500368 0
M  V30 9279 C 868.575 2.11143 0.99705 0
M  V30 9280 C 869.556 1.0194 1.3617 0
M  V30 9281 O 870.741 1.29596 1.44632 0
M  V30 9282 C 867.871 2.61062 2.2905 0
M  V30 9283 C 866.825 3.74745 2.0676 0
M  V30 9284 C 866.151 4.10961 3.42075 0
M  V30 9285 C 867.451 5.02222 1.43424 0
M  V30 9286 H 869.145 2.94281 0.551251 0
M  V30 9287 H 866.691 1.41565 0.263715 0
M  V30 9288 H 868.644 2.97146 2.98801 0
M  V30 9289 H 867.368 1.75038 2.75734 0
M  V30 9290 H 866.027 3.39047 1.39436 0
M  V30 9291 H 865.675 3.21968 3.86453 0
M  V30 9292 H 865.375 4.87549 3.27979 0
M  V30 9293 H 866.899 4.49599 4.1315 0
M  V30 9294 H 868.313 5.36109 2.03125 0
M  V30 9295 H 866.71 5.83581 1.39831 0
M  V30 9296 H 867.78 4.83224 0.40285 0
M  V30 9297 N 869.123 -0.277682 1.55134 0
M  V30 9298 C 870.348 -1.03254 1.7987 0
M  V30 9299 C 870.773 -1.79324 0.567861 0
M  V30 9300 O 870.131 -1.74764 -0.4824 0
M  V30 9301 C 870.179 -1.9705 3.02 0
M  V30 9302 O 869.283 -3.05744 2.76757 0
M  V30 9303 H 868.624 -0.295447 0.594649 0
M  V30 9304 H 871.154 -0.308013 2.02268 0
M  V30 9305 H 871.164 -2.3909 3.30606 0
M  V30 9306 H 869.839 -1.41094 3.91236 0
M  V30 9307 H 868.416 -2.68052 2.59235 0
M  V30 9308 N 870.601 -1.47988 -0.541979 0
M  V30 9309 C 871.829 -1.59034 -1.32347 0
M  V30 9310 C 872.244 -0.246123 -1.87189 0
M  V30 9311 O 871.601 0.762889 -1.6579 0
M  V30 9312 C 871.652 -2.62759 -2.48274 0
M  V30 9313 O 871.373 -3.91963 -1.95695 0
M  V30 9314 C 872.874 -2.84133 -3.4027 0
M  V30 9315 H 870.094 -0.536574 -0.402901 0
M  V30 9316 H 872.638 -1.93725 -0.655045 0
M  V30 9317 H 870.793 -2.3096 -3.11025 0
M  V30 9318 H 871.207 -4.48769 -2.7149 0
M  V30 9319 H 872.681 -3.60538 -4.17991 0
M  V30 9320 H 873.158 -1.92512 -3.9476 0
M  V30 9321 H 873.764 -3.17188 -2.83322 0
M  V30 9322 N 872.079 0.78992 -1.36375 0
M  V30 9323 C 873.026 1.90254 -1.3066 0
M  V30 9324 C 873.996 1.65171 -0.17539 0
M  V30 9325 O 875.181 1.87338 -0.361824 0
M  V30 9326 C 872.321 3.27057 -1.10125 0
M  V30 9327 C 871.434 3.64215 -2.32317 0
M  V30 9328 C 870.569 4.90134 -2.04798 0
M  V30 9329 C 869.608 5.19969 -3.22953 0
M  V30 9330 N 868.745 6.37071 -2.95102 0
M  V30 9331 H 873.585 1.94474 -2.25796 0
M  V30 9332 H 871.122 0.951022 -1.12223 0
M  V30 9333 H 873.08 4.05947 -0.962453 0
M  V30 9334 H 871.71 3.22261 -0.186444 0
M  V30 9335 H 870.762 2.80454 -2.57002 0
M  V30 9336 H 872.074 3.82212 -3.20492 0
M  V30 9337 H 871.228 5.76888 -1.87845 0
M  V30 9338 H 869.967 4.74205 -1.13932 0
M  V30 9339 H 868.972 4.31699 -3.40465 0
M  V30 9340 H 870.197 5.37817 -4.14644 0
M  V30 9341 H 868.143 6.22535 -2.06848 0
M  V30 9342 H 868.06 6.55398 -3.76815 0
M  V30 9343 H 869.328 7.26808 -2.81727 0
M  V30 9344 N 873.557 1.20646 1.01402 0
M  V30 9345 C 874.806 1.01242 1.7445 0
M  V30 9346 C 875.119 -0.455732 1.90217 0
M  V30 9347 O 876.325 -0.768951 2.60383 0
M  V30 9348 C 874.781 1.76275 3.13776 0
M  V30 9349 C 874.389 3.27201 3.06013 0
M  V30 9350 C 876.133 1.65248 3.91016 0
M  V30 9351 C 874.04 3.9476 4.40362 0
M  V30 9352 H 872.97 0.375202 0.654018 0
M  V30 9353 H 875.621 1.44292 1.13367 0
M  V30 9354 H 874.003 1.26013 3.75415 0
M  V30 9355 H 875.177 3.84695 2.53665 0
M  V30 9356 H 873.492 3.38669 2.42265 0
M  V30 9357 H 876.089 2.13061 4.90417 0
M  V30 9358 H 876.432 0.609128 4.1182 0
M  V30 9359 H 876.965 2.12937 3.3601 0
M  V30 9360 H 873.704 4.99258 4.24761 0
M  V30 9361 H 873.224 3.42054 4.92706 0
M  V30 9362 H 874.903 3.99159 5.09196 0
M  V30 9363 N 875.035 -1.20752 1.01276 0
M  V30 9364 C 876.446 -1.7175 0.732033 0
M  V30 9365 C 876.797 -1.8131 -0.749733 0
M  V30 9366 O 875.922 -1.47301 -1.58529 0
M  V30 9367 C 876.517 -3.11936 1.32217 0
M  V30 9368 C 875.076 -3.6026 1.09039 0
M  V30 9369 C 874.223 -2.37571 1.43022 0
M  V30 9370 H 877.174 -1.0582 1.1827 0
M  V30 9371 H 877.195 -3.73802 0.710771 0
M  V30 9372 H 876.707 -3.04946 2.40061 0
M  V30 9373 H 874.808 -3.72588 0.0294464 0
M  V30 9374 H 874.921 -4.45295 1.76775 0
M  V30 9375 H 873.285 -2.40128 0.849159 0
M  V30 9376 H 874.068 -2.33225 2.51915 0
M  V30 9377 N 876.513 -0.788492 -1.36457 0
M  V30 9378 C 877.79 -0.284484 -1.9352 0
M  V30 9379 C 878.17 1.2232 -1.7205 0
M  V30 9380 O 877.518 2.01424 -1.07892 0
M  V30 9381 C 877.728 -0.676106 -3.42388 0
M  V30 9382 C 879.076 -0.655327 -4.19512 0
M  V30 9383 O 880.1 -0.616523 -3.50824 0
M  V30 9384 O 878.959 -0.697391 -5.42032 0
M  V30 9385 H 876.053 -0.0701769 -0.824017 0
M  V30 9386 H 878.599 -0.870974 -1.45644 0
M  V30 9387 H 877.371 -1.71596 -3.51668 0
M  V30 9388 H 876.994 -0.0634517 -3.97549 0
M  V30 9389 N 877.991 1.48044 -0.54043 0
M  V30 9390 C 879.219 2.06895 -0.0145153 0
M  V30 9391 C 879.634 1.39552 1.27164 0
M  V30 9392 O 878.991 0.486454 1.75897 0
M  V30 9393 C 879.042 3.60934 0.202278 0
M  V30 9394 O 878.763 4.25749 -1.03293 0
M  V30 9395 C 880.264 4.36607 0.767387 0
M  V30 9396 H 877.484 0.66991 -0.0382368 0
M  V30 9397 H 880.028 1.90288 -0.749057 0
M  V30 9398 H 878.183 3.77111 0.886897 0
M  V30 9399 H 878.597 5.18048 -0.820167 0
M  V30 9400 H 880.071 5.45126 0.86845 0
M  V30 9401 H 880.548 4.01745 1.77477 0
M  V30 9402 H 881.154 4.25133 0.119002 0
M  V30 9403 N 879.47 0.276058 1.55163 0
M  V30 9404 C 880.417 -0.611006 2.22565 0
M  V30 9405 C 881.387 -1.14902 1.19945 0
M  V30 9406 O 882.572 -1.19815 1.48489 0
M  V30 9407 C 879.712 -1.78885 2.95117 0
M  V30 9408 C 878.825 -1.2846 4.12458 0
M  V30 9409 C 877.96 -2.42432 4.72652 0
M  V30 9410 C 876.999 -1.89015 5.82185 0
M  V30 9411 N 876.136 -2.96463 6.36439 0
M  V30 9412 H 880.976 -0.0295849 2.97985 0
M  V30 9413 H 878.513 -0.00283607 1.471 0
M  V30 9414 H 880.471 -2.48121 3.35398 0
M  V30 9415 H 879.101 -2.34229 2.22119 0
M  V30 9416 H 878.153 -0.485312 3.77292 0
M  V30 9417 H 879.465 -0.853358 4.91446 0
M  V30 9418 H 878.619 -3.19659 5.15658 0
M  V30 9419 H 877.358 -2.88872 3.92943 0
M  V30 9420 H 876.363 -1.10267 5.38629 0
M  V30 9421 H 877.588 -1.43509 6.63763 0
M  V30 9422 H 875.534 -3.42283 5.59623 0
M  V30 9423 H 875.451 -2.57759 7.10701 0
M  V30 9424 H 876.719 -3.73663 6.84103 0
M  V30 9425 N 880.948 -1.576 0.00335426 0
M  V30 9426 C 882.196 -1.90336 -0.679446 0
M  V30 9427 C 882.517 -0.877777 -1.74127 0
M  V30 9428 O 881.787 0.0843585 -1.95718 0
M  V30 9429 H 880.367 -0.702509 -0.253948 0
M  V30 9430 H 883.029 -1.94848 0.0450731 0
M  V30 9431 H 882.125 -2.90197 -1.14857 0
M  V30 9432 N 882.426 0.269451 -1.5528 0
M  V30 9433 C 883.666 1.00819 -1.77806 0
M  V30 9434 C 884.03 1.83369 -0.569198 0
M  V30 9435 O 885.231 2.60244 -0.672783 0
M  V30 9436 C 883.502 1.86447 -3.04913 0
M  V30 9437 S 885.061 2.66538 -3.48573 0
M  V30 9438 H 881.879 0.339508 -0.624704 0
M  V30 9439 H 884.481 0.278256 -1.9351 0
M  V30 9440 H 883.185 1.24733 -3.90986 0
M  V30 9441 H 882.716 2.63755 -2.91885 0
M  V30 9442 H 884.731 3.88938 -3.08126 0
M  V30 9443 N 883.904 1.48273 0.534124 0
M  V30 9444 C 884.834 1.6538 1.64839 0
M  V30 9445 C 885.815 0.502741 1.62501 0
M  V30 9446 O 887 0.734799 1.79762 0
M  V30 9447 C 884.13 1.68949 3.03436 0
M  V30 9448 C 883.084 2.83513 3.20631 0
M  V30 9449 C 882.41 2.72169 4.60248 0
M  V30 9450 C 883.71 4.24858 3.03797 0
M  V30 9451 H 885.404 2.58663 1.50777 0
M  V30 9452 H 882.95 1.24479 0.723937 0
M  V30 9453 H 884.903 1.79505 3.81256 0
M  V30 9454 H 883.627 0.722415 3.1851 0
M  V30 9455 H 882.286 2.72505 2.45227 0
M  V30 9456 H 881.934 1.7344 4.72152 0
M  V30 9457 H 881.634 3.49042 4.72698 0
M  V30 9458 H 883.158 2.84687 5.40172 0
M  V30 9459 H 884.572 4.36721 3.71413 0
M  V30 9460 H 882.969 5.02697 3.27743 0
M  V30 9461 H 884.039 4.41611 2.0027 0
M  V30 9462 N 885.382 -0.782676 1.36792 0
M  V30 9463 C 886.314 -1.9044 1.27536 0
M  V30 9464 C 887.327 -1.61647 0.193426 0
M  V30 9465 O 888.516 -1.72769 0.448692 0
M  V30 9466 C 885.616 -3.2541 0.946641 0
M  V30 9467 C 884.789 -3.81932 2.13183 0
M  V30 9468 C 883.848 -4.95355 1.7751 0
M  V30 9469 O 882.874 -5.11517 2.49678 0
M  V30 9470 N 884.076 -5.76108 0.712755 0
M  V30 9471 H 886.841 -1.98899 2.24186 0
M  V30 9472 H 884.402 -0.96127 1.30274 0
M  V30 9473 H 886.394 -3.98791 0.689043 0
M  V30 9474 H 884.964 -3.12524 0.0690591 0
M  V30 9475 H 884.184 -3.00459 2.55183 0
M  V30 9476 H 885.472 -4.16426 2.92347 0
M  V30 9477 H 884.87 -5.65586 0.113662 0
M  V30 9478 H 883.427 -6.49762 0.514995 0
M  V30 9479 N 886.86 -1.21182 -1.00761 0
M  V30 9480 C 888.1 -1.03886 -1.76031 0
M  V30 9481 C 888.464 0.420593 -1.87337 0
M  V30 9482 O 889.665 0.713994 -2.59144 0
M  V30 9483 C 887.936 -1.71394 -3.13622 0
M  V30 9484 S 889.495 -1.69319 -4.04816 0
M  V30 9485 H 886.313 -0.372327 -0.605717 0
M  V30 9486 H 888.915 -1.53885 -1.20581 0
M  V30 9487 H 887.619 -2.76773 -3.03026 0
M  V30 9488 H 887.15 -1.21564 -3.74147 0
M  V30 9489 H 889.165 -0.732434 -4.90765 0
M  V30 9490 N 888.338 1.20213 -1.01915 0
M  V30 9491 C 889.754 1.41696 -0.734459 0
M  V30 9492 C 889.954 1.89504 0.684867 0
M  V30 9493 O 889.01 2.06556 1.45227 0
M  V30 9494 C 890.323 2.43644 -1.76233 0
M  V30 9495 C 891.871 2.57406 -1.78076 0
M  V30 9496 C 892.346 3.626 -2.79796 0
M  V30 9497 N 893.837 3.70086 -2.78551 0
M  V30 9498 C 894.572 4.51145 -3.53915 0
M  V30 9499 N 894.068 5.35988 -4.38963 0
M  V30 9500 N 895.861 4.45702 -3.425 0
M  V30 9501 H 888.012 0.874976 -1.93541 0
M  V30 9502 H 890.275 0.446647 -0.836188 0
M  V30 9503 H 889.981 2.15519 -2.77929 0
M  V30 9504 H 889.855 3.42672 -1.57657 0
M  V30 9505 H 892.242 2.8486 -0.770634 0
M  V30 9506 H 892.323 1.58565 -2.00725 0
M  V30 9507 H 891.967 3.35889 -3.80973 0
M  V30 9508 H 891.897 4.61069 -2.54407 0
M  V30 9509 H 894.388 3.09484 -2.1686 0
M  V30 9510 H 894.701 5.94932 -4.9323 0
M  V30 9511 H 893.046 5.35482 -4.4304 0
M  V30 9512 H 896.237 3.78456 -2.75478 0
M  V30 9513 H 896.41 5.08637 -4.01487 0
M  V30 9514 N 889.816 0.795718 1.36037 0
M  V30 9515 C 891.062 0.371574 1.99367 0
M  V30 9516 C 891.395 -1.0557 1.62999 0
M  V30 9517 O 890.67 -1.73051 0.887895 0
M  V30 9518 C 890.953 0.542622 3.55988 0
M  V30 9519 C 890.806 2.01404 4.0219 0
M  V30 9520 C 892.125 -0.0384527 4.40083 0
M  V30 9521 H 889.244 0.136483 0.724252 0
M  V30 9522 H 891.886 1.00323 1.61355 0
M  V30 9523 H 890.036 0.0049053 3.885 0
M  V30 9524 H 891.708 2.6133 3.80137 0
M  V30 9525 H 889.951 2.51439 3.53498 0
M  V30 9526 H 890.622 2.08466 5.11122 0
M  V30 9527 H 893.098 0.420634 4.13968 0
M  V30 9528 H 891.974 0.111214 5.48787 0
M  V30 9529 H 892.235 -1.13116 4.27384 0
M  V30 9530 N 891.294 -1.47756 0.548274 0
M  V30 9531 C 892.54 -2.02789 0.0209265 0
M  V30 9532 C 892.873 -1.42268 -1.32187 0
M  V30 9533 O 892.148 -0.575001 -1.85806 0
M  V30 9534 C 892.431 -3.60007 -0.0816674 0
M  V30 9535 C 892.284 -4.30977 1.28759 0
M  V30 9536 C 893.603 -4.32777 -0.799515 0
M  V30 9537 H 890.722 -0.736944 0.00907884 0
M  V30 9538 H 893.364 -1.76282 0.708839 0
M  V30 9539 H 891.514 -3.82722 -0.667537 0
M  V30 9540 H 893.186 -4.19629 1.91597 0
M  V30 9541 H 891.429 -3.9168 1.86466 0
M  V30 9542 H 892.1 -5.39488 1.16861 0
M  V30 9543 H 894.576 -4.15001 -0.30216 0
M  V30 9544 H 893.452 -5.42431 -0.840239 0
M  V30 9545 H 893.713 -4.01358 -1.85375 0
M  V30 9546 N 892.772 -0.284283 -1.55015 0
M  V30 9547 C 894.188 0.069603 -1.59448 0
M  V30 9548 C 894.388 1.53833 -1.30144 0
M  V30 9549 O 893.444 2.2886 -1.06674 0
M  V30 9550 C 894.757 -0.313287 -2.99064 0
M  V30 9551 C 896.305 -0.260662 -3.11913 0
M  V30 9552 C 896.78 -0.618127 -4.5381 0
M  V30 9553 N 898.271 -0.570026 -4.59679 0
M  V30 9554 C 899.006 -0.8193 -5.67517 0
M  V30 9555 N 898.502 -1.13367 -6.83462 0
M  V30 9556 N 900.295 -0.747482 -5.57108 0
M  V30 9557 H 892.446 -1.24167 -1.72326 0
M  V30 9558 H 894.709 -0.502259 -0.804015 0
M  V30 9559 H 894.415 -1.33509 -3.25374 0
M  V30 9560 H 894.289 0.341369 -3.75652 0
M  V30 9561 H 896.676 0.751869 -2.85361 0
M  V30 9562 H 896.757 -0.949706 -2.37517 0
M  V30 9563 H 896.401 -1.62839 -4.81088 0
M  V30 9564 H 896.331 0.092807 -5.26518 0
M  V30 9565 H 898.822 -0.3373 -3.76392 0
M  V30 9566 H 899.135 -1.3103 -7.61611 0
M  V30 9567 H 897.48 -1.17154 -6.85055 0
M  V30 9568 H 900.671 -0.501658 -4.65404 0
M  V30 9569 H 900.844 -0.945128 -6.4107 0
M  V30 9570 N 894.251 1.57596 -0.0117121 0
M  V30 9571 C 895.199 2.1029 0.994035 0
M  V30 9572 C 896.193 1.02549 1.34833 0
M  V30 9573 O 897.399 1.21003 1.3326 0
M  V30 9574 H 893.774 0.671624 0.338268 0
M  V30 9575 H 895.745 2.93761 0.524147 0
M  V30 9576 C 894.494 2.63099 2.27319 0
M  V30 9577 H 893.817 3.45642 2.00927 0
M  V30 9578 H 895.257 3.03635 2.95942 0
M  V30 9579 C 893.716 1.55044 2.99104 0
M  V30 9580 O 894.246 0.940127 3.90544 0
M  V30 9581 N 892.452 1.27506 2.61133 0
M  V30 9582 H 891.999 1.77322 1.86855 0
M  V30 9583 H 891.957 0.554292 3.09475 0
M  V30 9584 N 895.729 -0.261212 1.5542 0
M  V30 9585 C 897.14 -0.83138 1.67167 0
M  V30 9586 C 897.491 -1.8659 0.606525 0
M  V30 9587 O 896.616 -2.14953 -0.24985 0
M  V30 9588 C 897.211 -1.51475 3.03052 0
M  V30 9589 C 895.77 -2.0328 3.16787 0
M  V30 9590 C 894.917 -0.878903 2.63003 0
M  V30 9591 H 897.868 -0.0373102 1.58656 0
M  V30 9592 H 897.889 -2.38222 2.96699 0
M  V30 9593 H 897.401 -0.76157 3.80554 0
M  V30 9594 H 895.502 -2.81523 2.44082 0
M  V30 9595 H 895.615 -2.24001 4.2351 0
M  V30 9596 H 893.979 -1.27551 2.2046 0
M  V30 9597 H 894.762 -0.13904 3.43018 0
M  V30 9598 N 897.207 -1.48554 -0.526253 0
M  V30 9599 C 898.437 -1.60197 -1.30463 0
M  V30 9600 C 898.845 -0.26278 -1.87366 0
M  V30 9601 O 898.188 0.758537 -1.67308 0
M  V30 9602 C 898.25 -2.59223 -2.49085 0
M  V30 9603 C 897.914 -4.04199 -2.13241 0
M  V30 9604 C 898.911 -4.91771 -1.68694 0
M  V30 9605 C 896.596 -4.49762 -2.2365 0
M  V30 9606 C 898.59 -6.22934 -1.35026 0
M  V30 9607 C 896.277 -5.80945 -1.89594 0
M  V30 9608 C 897.275 -6.67354 -1.45353 0
M  V30 9609 O 896.963 -7.96096 -1.11745 0
M  V30 9610 H 896.695 -0.54284 -0.402866 0
M  V30 9611 H 899.249 -1.95137 -0.641157 0
M  V30 9612 H 897.479 -2.19412 -3.18426 0
M  V30 9613 H 899.168 -2.60661 -3.11144 0
M  V30 9614 H 899.934 -4.57806 -1.6012 0
M  V30 9615 H 895.813 -3.8269 -2.5704 0
M  V30 9616 H 899.357 -6.90334 -1.00422 0
M  V30 9617 H 895.254 -6.14444 -1.9781 0
M  V30 9618 H 896.022 -8.08882 -1.25111 0
M  V30 9619 N 898.685 0.775411 -1.37205 0
M  V30 9620 C 899.913 1.56446 -1.35397 0
M  V30 9621 C 900.328 1.887 0.0615437 0
M  V30 9622 O 899.685 1.51178 1.02233 0
M  V30 9623 C 899.736 2.87697 -2.18889 0
M  V30 9624 O 899.457 2.56828 -3.54924 0
M  V30 9625 C 900.958 3.81944 -2.25019 0
M  V30 9626 H 898.178 0.484792 -0.463916 0
M  V30 9627 H 900.722 0.961346 -1.80495 0
M  V30 9628 H 898.877 3.44442 -1.7731 0
M  V30 9629 H 899.291 3.40851 -3.98649 0
M  V30 9630 H 900.765 4.71055 -2.87769 0
M  V30 9631 H 901.242 4.20811 -1.25757 0
M  V30 9632 H 901.848 3.3113 -2.66895 0
M  V30 9633 N 900.163 1.21714 1.00117 0
M  V30 9634 C 901.411 1.03465 1.73607 0
M  V30 9635 C 901.732 -0.432295 1.90148 0
M  V30 9636 O 901.002 -1.31157 1.45515 0
M  V30 9637 H 899.582 0.379857 0.643209 0
M  V30 9638 H 902.244 1.53088 1.20624 0
M  V30 9639 H 901.34 1.50574 2.73375 0
M  V30 9640 N 901.641 -1.19671 1.02551 0
M  V30 9641 C 902.604 -2.20987 0.608055 0
M  V30 9642 C 903.604 -1.5745 -0.326534 0
M  V30 9643 O 904.794 -1.73827 -0.114003 0
M  V30 9644 C 901.926 -3.4072 -0.11074 0
M  V30 9645 H 903.119 -2.59434 1.50446 0
M  V30 9646 H 900.672 -1.3329 0.816307 0
M  V30 9647 H 901.407 -3.07787 -1.02165 0
M  V30 9648 H 901.192 -3.88069 0.560772 0
M  V30 9649 H 902.682 -4.15776 -0.389848 0
M  V30 9650 N 903.119 -0.802921 -1.35613 0
M  V30 9651 C 904.347 -0.39393 -2.03115 0
M  V30 9652 C 904.762 0.993961 -1.60517 0
M  V30 9653 O 904.119 1.63984 -0.800973 0
M  V30 9654 C 904.17 -0.463486 -3.58516 0
M  V30 9655 O 903.891 -1.79666 -3.99565 0
M  V30 9656 C 905.392 -0.0468377 -4.43275 0
M  V30 9657 H 902.612 -0.160519 -0.651517 0
M  V30 9658 H 905.156 -1.08552 -1.73311 0
M  V30 9659 H 903.311 0.179821 -3.86982 0
M  V30 9660 H 903.725 -1.75688 -4.942 0
M  V30 9661 H 905.199 -0.146626 -5.51805 0
M  V30 9662 H 905.676 1.00741 -4.2749 0
M  V30 9663 H 906.282 -0.663158 -4.20098 0
M  V30 9664 N 904.597 1.47463 -0.556102 0
M  V30 9665 C 905.844 2.02475 -0.0316337 0
M  V30 9666 C 906.172 1.43057 1.31777 0
M  V30 9667 O 905.427 0.575376 1.87051 0
M  V30 9668 C 905.726 3.57224 0.112126 0
M  V30 9669 C 905.392 4.35557 -1.16624 0
M  V30 9670 C 904.054 4.56678 -1.51654 0
M  V30 9671 C 906.406 4.8074 -2.01342 0
M  V30 9672 C 903.734 5.20231 -2.7125 0
M  V30 9673 C 906.086 5.45613 -3.2014 0
M  V30 9674 C 904.75 5.64967 -3.55484 0
M  V30 9675 H 904.02 0.74091 -0.0115756 0
M  V30 9676 H 906.667 1.77148 -0.727392 0
M  V30 9677 H 904.972 3.81538 0.890842 0
M  V30 9678 H 906.669 3.97438 0.533261 0
M  V30 9679 H 903.259 4.19395 -0.883489 0
M  V30 9680 H 907.443 4.64201 -1.75587 0
M  V30 9681 H 902.699 5.3341 -2.98804 0
M  V30 9682 H 906.873 5.79587 -3.86073 0
M  V30 9683 H 904.5 6.13984 -4.4825 0
M  V30 9684 N 906.075 0.2925 1.54862 0
M  V30 9685 C 907.005 -0.580677 2.26165 0
M  V30 9686 C 907.986 -1.14485 1.25806 0
M  V30 9687 O 909.171 -1.17577 1.54562 0
M  V30 9688 C 906.301 -1.75668 2.99596 0
M  V30 9689 C 905.255 -1.32325 4.07031 0
M  V30 9690 C 904.581 -2.58374 4.68131 0
M  V30 9691 C 905.881 -0.460703 5.20264 0
M  V30 9692 H 907.575 0.0140075 2.99397 0
M  V30 9693 H 905.121 0.00817706 1.43998 0
M  V30 9694 H 907.074 -2.37356 3.48195 0
M  V30 9695 H 905.798 -2.37747 2.23928 0
M  V30 9696 H 904.457 -0.729477 3.59269 0
M  V30 9697 H 904.105 -3.18749 3.89112 0
M  V30 9698 H 903.805 -2.30078 5.40683 0
M  V30 9699 H 905.329 -3.2088 5.19489 0
M  V30 9700 H 906.743 -0.983037 5.64809 0
M  V30 9701 H 905.14 -0.271881 5.99484 0
M  V30 9702 H 906.21 0.516304 4.82143 0
M  V30 9703 N 907.553 -1.57587 0.0200696 0
M  V30 9704 C 908.483 -2.12702 -0.963333 0
M  V30 9705 C 909.464 -1.04094 -1.34531 0
M  V30 9706 O 910.649 -1.31881 -1.42552 0
M  V30 9707 C 907.779 -2.64673 -2.24868 0
M  V30 9708 C 906.733 -3.77987 -2.00772 0
M  V30 9709 C 906.059 -4.16351 -3.35494 0
M  V30 9710 C 907.359 -5.0444 -1.35416 0
M  V30 9711 H 909.053 -2.95121 -0.504363 0
M  V30 9712 H 906.599 -1.41966 -0.24116 0
M  V30 9713 H 908.552 -3.01862 -2.94036 0
M  V30 9714 H 907.276 -1.79403 -2.72914 0
M  V30 9715 H 905.935 -3.41223 -1.34025 0
M  V30 9716 H 905.583 -3.28075 -3.81282 0
M  V30 9717 H 905.283 -4.92705 -3.20181 0
M  V30 9718 H 906.807 -4.56115 -4.05945 0
M  V30 9719 H 908.221 -5.39273 -1.94571 0
M  V30 9720 H 906.618 -5.85732 -1.30529 0
M  V30 9721 H 907.688 -4.83803 -0.325923 0
M  V30 9722 N 909.032 0.252966 -1.55557 0
M  V30 9723 C 909.995 1.29645 -1.8901 0
M  V30 9724 C 910.995 1.41378 -0.766096 0
M  V30 9725 O 912.185 1.40183 -1.03414 0
M  V30 9726 C 909.317 2.67504 -2.11316 0
M  V30 9727 H 910.51 1.01202 -2.82309 0
M  V30 9728 H 908.063 0.491977 -1.48355 0
M  V30 9729 H 908.798 3.01095 -1.20466 0
M  V30 9730 H 908.583 2.6037 -2.93172 0
M  V30 9731 H 910.073 3.42861 -2.38403 0
M  V30 9732 N 910.51 1.48831 0.518367 0
M  V30 9733 C 911.473 1.63721 1.604 0
M  V30 9734 C 912.473 0.509857 1.52503 0
M  V30 9735 O 913.663 0.775922 1.55965 0
M  V30 9736 C 910.795 1.61831 3.00039 0
M  V30 9737 H 911.988 2.60534 1.48533 0
M  V30 9738 H 909.541 1.37602 0.741309 0
M  V30 9739 H 910.276 0.665387 3.17401 0
M  V30 9740 H 910.061 2.43686 3.0718 0
M  V30 9741 H 911.551 1.75467 3.78947 0
M  V30 9742 N 911.988 -0.768124 1.37614 0
M  V30 9743 C 912.918 -1.89537 1.36374 0
M  V30 9744 C 913.899 -1.68513 0.231803 0
M  V30 9745 O 915.084 -1.89318 0.432705 0
M  V30 9746 C 912.214 -3.26871 1.17358 0
M  V30 9747 C 911.168 -3.62466 2.27602 0
M  V30 9748 C 910.494 -4.9838 1.93705 0
M  V30 9749 C 911.794 -3.68841 3.69802 0
M  V30 9750 H 913.488 -1.90832 2.30702 0
M  V30 9751 H 911.034 -0.91672 1.11051 0
M  V30 9752 H 912.987 -4.05371 1.15119 0
M  V30 9753 H 911.711 -3.26018 0.194865 0
M  V30 9754 H 910.37 -2.86276 2.29002 0
M  V30 9755 H 910.018 -4.94071 0.943539 0
M  V30 9756 H 909.718 -5.23165 2.6753 0
M  V30 9757 H 911.242 -5.79276 1.93059 0
M  V30 9758 H 912.656 -4.37485 3.70513 0
M  V30 9759 H 911.053 -4.05126 4.42711 0
M  V30 9760 H 912.123 -2.69415 4.03167 0
M  V30 9761 N 913.466 -1.22244 -0.994698 0
M  V30 9762 C 914.877 -1.043 -1.5485 0
M  V30 9763 C 915.228 0.394102 -1.92201 0
M  V30 9764 O 914.353 1.27883 -1.74571 0
M  V30 9765 C 914.948 -1.88708 -2.8138 0
M  V30 9766 C 913.507 -1.75067 -3.3321 0
M  V30 9767 C 912.654 -1.85286 -2.06312 0
M  V30 9768 H 915.605 -1.36115 -0.815988 0
M  V30 9769 H 915.626 -1.40342 -3.53673 0
M  V30 9770 H 915.138 -2.93296 -2.54164 0
M  V30 9771 H 913.239 -0.732047 -3.65338 0
M  V30 9772 H 913.352 -2.57632 -4.03934 0
M  V30 9773 H 911.716 -1.28706 -2.19788 0
M  V30 9774 H 912.499 -2.91401 -1.81494 0
M  V30 9775 N 914.944 1.19125 -1.03184 0
M  V30 9776 C 916.172 1.92838 -0.74975 0
M  V30 9777 C 916.587 1.75667 0.691851 0
M  V30 9778 O 915.944 1.0805 1.47076 0
M  V30 9779 C 915.995 3.44509 -1.09525 0
M  V30 9780 O 915.716 3.6113 -2.48025 0
M  V30 9781 C 917.217 4.35338 -0.836397 0
M  V30 9782 H 914.437 0.61246 -0.274105 0
M  V30 9783 H 916.981 1.5118 -1.37712 0
M  V30 9784 H 915.136 3.83988 -0.513006 0
M  V30 9785 H 915.55 4.54959 -2.60984 0
M  V30 9786 H 917.024 5.4035 -1.12808 0
M  V30 9787 H 917.501 4.38602 0.229102 0
M  V30 9788 H 918.107 4.01544 -1.40152 0
M  V30 9789 N 916.422 0.810101 1.35185 0
M  V30 9790 C 917.647 0.40364 2.03434 0
M  V30 9791 C 918.072 -0.97857 1.60641 0
M  V30 9792 O 917.43 -1.63435 0.784779 0
M  V30 9793 C 917.478 0.499154 3.57129 0
M  V30 9794 O 916.582 -0.486039 4.09526 0
M  V30 9795 H 915.923 0.168049 0.642383 0
M  V30 9796 H 918.453 1.09696 1.72708 0
M  V30 9797 H 918.463 0.370236 4.06317 0
M  V30 9798 H 917.138 1.50733 3.87624 0
M  V30 9799 H 915.715 -0.31707 3.7155 0
M  V30 9800 N 917.9 -1.47166 0.563914 0
M  V30 9801 C 918.83 -2.32894 -0.168148 0
M  V30 9802 C 919.811 -1.44202 -0.902214 0
M  V30 9803 O 920.996 -1.73048 -0.881365 0
M  V30 9804 C 918.126 -3.26116 -1.19439 0
M  V30 9805 C 917.08 -4.24101 -0.576363 0
M  V30 9806 C 916.406 -5.06696 -1.70772 0
M  V30 9807 C 917.706 -5.20142 0.47425 0
M  V30 9808 H 919.4 -2.9435 0.547573 0
M  V30 9809 H 916.946 -1.41545 0.264778 0
M  V30 9810 H 918.899 -3.84935 -1.71474 0
M  V30 9811 H 917.623 -2.62728 -1.94014 0
M  V30 9812 H 916.282 -3.66519 -0.0772534 0
M  V30 9813 H 915.93 -4.39707 -2.44268 0
M  V30 9814 H 915.63 -5.7304 -1.29994 0
M  V30 9815 H 917.154 -5.68375 -2.2312 0
M  V30 9816 H 918.568 -5.73286 0.0397035 0
M  V30 9817 H 916.965 -5.94726 0.801287 0
M  V30 9818 H 918.035 -4.65214 1.36764 0
M  V30 9819 N 919.378 -0.300708 -1.54705 0
M  V30 9820 C 920.308 0.568675 -2.26469 0
M  V30 9821 C 921.289 1.13817 -1.26411 0
M  V30 9822 O 922.474 1.16756 -1.55183 0
M  V30 9823 C 919.604 1.74077 -3.00524 0
M  V30 9824 C 918.558 1.30165 -4.07727 0
M  V30 9825 C 917.884 2.55888 -4.69495 0
M  V30 9826 C 919.184 0.433106 -5.20501 0
M  V30 9827 H 920.878 -0.0298851 -2.99385 0
M  V30 9828 H 918.424 -0.0158135 -1.43991 0
M  V30 9829 H 920.377 2.35506 -3.49449 0
M  V30 9830 H 919.101 2.36556 -2.25186 0
M  V30 9831 H 917.76 0.710414 -3.59651 0
M  V30 9832 H 917.408 3.16681 -3.90797 0
M  V30 9833 H 917.108 2.27207 -5.41895 0
M  V30 9834 H 918.632 3.18121 -5.21183 0
M  V30 9835 H 920.046 0.95307 -5.65322 0
M  V30 9836 H 918.443 0.240085 -5.9962 0
M  V30 9837 H 919.513 -0.541866 -4.81863 0
M  V30 9838 N 920.856 1.57574 -0.0284266 0
M  V30 9839 C 921.786 2.1321 0.952039 0
M  V30 9840 C 922.767 1.04806 1.33977 0
M  V30 9841 O 923.952 1.32635 1.41851 0
M  V30 9842 C 921.082 2.65862 2.23461 0
M  V30 9843 C 920.036 3.79047 1.98765 0
M  V30 9844 C 919.362 4.18124 3.33281 0
M  V30 9845 C 920.662 5.05151 1.32739 0
M  V30 9846 H 922.356 2.95385 0.488705 0
M  V30 9847 H 919.902 1.42092 0.233628 0
M  V30 9848 H 921.855 3.03417 2.92431 0
M  V30 9849 H 920.579 1.80848 2.71959 0
M  V30 9850 H 919.238 3.41929 1.32213 0
M  V30 9851 H 918.886 3.30092 3.79537 0
M  V30 9852 H 918.586 4.94396 3.17563 0
M  V30 9853 H 920.11 4.58262 4.0352 0
M  V30 9854 H 921.524 5.40297 1.91708 0
M  V30 9855 H 919.921 5.86416 1.27421 0
M  V30 9856 H 920.991 4.83969 0.300261 0
M  V30 9857 N 922.334 -0.244713 1.55689 0
M  V30 9858 C 923.264 -1.30667 1.93516 0
M  V30 9859 C 924.245 -1.50094 0.800371 0
M  V30 9860 O 925.43 -1.62665 1.06083 0
M  V30 9861 C 922.56 -2.66101 2.23176 0
M  V30 9862 C 921.514 -2.61366 3.38927 0
M  V30 9863 C 920.84 -4.00616 3.54134 0
M  V30 9864 C 922.14 -2.18161 4.74555 0
M  V30 9865 H 923.834 -0.992546 2.82469 0
M  V30 9866 H 921.38 -0.476018 1.35905 0
M  V30 9867 H 923.333 -3.4053 2.48228 0
M  V30 9868 H 922.057 -2.99154 1.31051 0
M  V30 9869 H 920.716 -1.89395 3.13887 0
M  V30 9870 H 920.364 -4.30938 2.59426 0
M  V30 9871 H 920.064 -3.98335 4.31975 0
M  V30 9872 H 921.588 -4.76741 3.8151 0
M  V30 9873 H 923.002 -2.82323 4.98965 0
M  V30 9874 H 921.399 -2.26988 5.55515 0
M  V30 9875 H 922.469 -1.13333 4.7147 0
M  V30 9876 N 923.813 -1.49104 -0.510467 0
M  V30 9877 C 924.745 -1.61183 -1.6295 0
M  V30 9878 C 925.758 -0.495003 -1.55092 0
M  V30 9879 O 926.947 -0.766671 -1.61197 0
M  V30 9880 C 924.047 -1.54373 -3.01699 0
M  V30 9881 C 923.22 -2.81428 -3.34838 0
M  V30 9882 C 922.279 -2.67802 -4.52956 0
M  V30 9883 O 921.305 -3.41723 -4.55208 0
M  V30 9884 N 922.507 -1.78715 -5.52305 0
M  V30 9885 H 925.272 -2.57693 -1.53018 0
M  V30 9886 H 922.833 -1.46073 -0.698152 0
M  V30 9887 H 924.825 -1.42924 -3.78622 0
M  V30 9888 H 923.395 -0.657597 -3.05605 0
M  V30 9889 H 922.615 -3.07299 -2.46903 0
M  V30 9890 H 923.903 -3.6568 -3.53773 0
M  V30 9891 H 923.301 -1.17897 -5.53278 0
M  V30 9892 H 921.858 -1.73194 -6.28369 0
M  V30 9893 N 925.291 0.760815 -1.38019 0
M  V30 9894 C 926.537 1.52109 -1.35034 0
M  V30 9895 C 926.892 1.92302 0.0615509 0
M  V30 9896 O 926.185 1.62028 1.02261 0
M  V30 9897 C 926.379 2.79024 -2.23339 0
M  V30 9898 C 926.208 2.51238 -3.72974 0
M  V30 9899 C 924.978 2.44818 -4.42032 0
M  V30 9900 C 927.176 2.18499 -4.65578 0
M  V30 9901 N 925.158 2.09232 -5.77144 0
M  V30 9902 C 926.529 1.93143 -5.89148 0
M  V30 9903 C 928.584 2.04747 -4.53854 0
M  V30 9904 C 927.287 1.55423 -7.02308 0
M  V30 9905 C 929.313 1.68428 -5.66909 0
M  V30 9906 C 928.675 1.43939 -6.89537 0
M  V30 9907 H 924.774 0.556482 -0.54941 0
M  V30 9908 H 927.358 0.886614 -1.73341 0
M  V30 9909 H 925.529 3.40292 -1.87232 0
M  V30 9910 H 927.261 3.45016 -2.11533 0
M  V30 9911 H 924.016 2.61045 -3.95161 0
M  V30 9912 H 924.44 1.94104 -6.48577 0
M  V30 9913 H 929.082 2.22358 -3.59607 0
M  V30 9914 H 926.8 1.36551 -7.96479 0
M  V30 9915 H 930.386 1.5843 -5.59814 0
M  V30 9916 H 929.266 1.16253 -7.75535 0
M  V30 9917 N 926.769 1.22769 0.988202 0
M  V30 9918 C 927.999 1.07998 1.76125 0
M  V30 9919 C 928.407 -0.372062 1.85506 0
M  V30 9920 O 927.75 -1.26946 1.3278 0
M  V30 9921 C 927.812 1.6219 3.20834 0
M  V30 9922 C 927.476 3.1086 3.34986 0
M  V30 9923 C 928.473 4.08239 3.21927 0
M  V30 9924 C 926.158 3.50411 3.59886 0
M  V30 9925 C 928.152 5.43154 3.33561 0
M  V30 9926 C 925.839 4.85473 3.71159 0
M  V30 9927 C 926.837 5.81653 3.58006 0
M  V30 9928 O 926.525 7.14263 3.68895 0
M  V30 9929 H 926.257 0.378937 0.559806 0
M  V30 9930 H 928.811 1.62925 1.25078 0
M  V30 9931 H 927.041 1.01676 3.73094 0
M  V30 9932 H 928.73 1.43011 3.79872 0
M  V30 9933 H 929.496 3.79025 3.02597 0
M  V30 9934 H 925.375 2.76068 3.69198 0
M  V30 9935 H 928.919 6.18207 3.23211 0
M  V30 9936 H 924.816 5.14365 3.89998 0
M  V30 9937 H 925.584 7.21906 3.85739 0
M  V30 9938 N 928.247 -1.18576 1.03814 0
M  V30 9939 C 929.157 -2.25778 0.637311 0
M  V30 9940 C 930.173 -1.7074 -0.335248 0
M  V30 9941 O 931.349 -2.00494 -0.19081 0
M  V30 9942 C 928.414 -3.467 0.00386953 0
M  V30 9943 C 927.475 -4.16881 1.02511 0
M  V30 9944 C 926.708 -5.32031 0.421802 0
M  V30 9945 O 926.931 -5.65142 -0.772699 0
M  V30 9946 O 925.865 -5.90826 1.14925 0
M  V30 9947 H 929.691 -2.62323 1.53037 0
M  V30 9948 H 927.276 -1.25609 0.80887 0
M  V30 9949 H 929.158 -4.19953 -0.348873 0
M  V30 9950 H 927.833 -3.11983 -0.863047 0
M  V30 9951 H 926.74 -3.45707 1.4296 0
M  V30 9952 H 928.073 -4.55592 1.86271 0
M  V30 9953 N 929.725 -0.817259 -1.34754 0
M  V30 9954 C 931.136 -0.462215 -1.80888 0
M  V30 9955 C 931.487 1.01685 -1.67794 0
M  V30 9956 O 930.612 1.79094 -1.21468 0
M  V30 9957 C 931.207 -0.832204 -3.2842 0
M  V30 9958 C 929.766 -0.52961 -3.72655 0
M  V30 9959 C 928.913 -1.05214 -2.56564 0
M  V30 9960 H 931.864 -1.00795 -1.22581 0
M  V30 9961 H 931.885 -0.133804 -3.80265 0
M  V30 9962 H 931.397 -1.90873 -3.37919 0
M  V30 9963 H 929.498 0.537743 -3.68699 0
M  V30 9964 H 929.611 -1.06971 -4.67005 0
M  V30 9965 H 927.975 -0.473949 -2.50251 0
M  V30 9966 H 928.758 -2.135 -2.68836 0
M  V30 9967 N 931.203 1.46865 -0.571711 0
M  V30 9968 C 932.133 2.3298 0.155795 0
M  V30 9969 C 933.114 1.44678 0.894553 0
M  V30 9970 O 934.299 1.73513 0.872176 0
M  V30 9971 C 931.429 3.26745 1.17708 0
M  V30 9972 C 930.383 4.24401 0.553863 0
M  V30 9973 C 929.709 5.07595 1.68083 0
M  V30 9974 C 931.009 5.19884 -0.501827 0
M  V30 9975 H 932.703 2.94056 -0.563176 0
M  V30 9976 H 930.249 1.41402 -0.27228 0
M  V30 9977 H 932.202 3.85838 1.6943 0
M  V30 9978 H 930.926 2.63753 1.92618 0
M  V30 9979 H 929.585 3.66554 0.057815 0
M  V30 9980 H 929.233 4.40996 2.41933 0
M  V30 9981 H 928.933 5.73722 1.26953 0
M  V30 9982 H 930.457 5.6955 2.20103 0
M  V30 9983 H 931.871 5.73257 -0.0701057 0
M  V30 9984 H 930.268 5.94293 -0.832815 0
M  V30 9985 H 931.338 4.64482 -1.39229 0
M  V30 9986 N 932.681 0.308908 1.54543 0
M  V30 9987 C 933.613 -0.597453 2.21276 0
M  V30 9988 C 934.626 -1.09137 1.20801 0
M  V30 9989 O 935.815 -1.00747 1.47351 0
M  V30 9990 C 932.915 -1.83085 2.85189 0
M  V30 9991 C 932.088 -1.4781 4.11669 0
M  V30 9992 C 931.147 -2.56748 4.59311 0
M  V30 9993 O 930.173 -2.21507 5.24331 0
M  V30 9994 N 931.375 -3.87427 4.32297 0
M  V30 9995 H 934.14 -0.0261183 2.99689 0
M  V30 9996 H 931.701 0.131456 1.61365 0
M  V30 9997 H 933.693 -2.55326 3.13992 0
M  V30 9998 H 932.263 -2.31039 2.1057 0
M  V30 9999 H 931.483 -0.587974 3.8979 0
M  V30 10000 H 932.771 -1.2179 4.94009 0
M  V30 10001 H 932.169 -4.18863 3.80224 0
M  V30 10002 H 930.726 -4.55942 4.6579 0
M  V30 10003 N 934.159 -1.57557 0.0367827 0
M  V30 10004 C 935.106 -2.10679 -0.942499 0
M  V30 10005 C 936.076 -1.01068 -1.31812 0
M  V30 10006 O 937.261 -1.28533 -1.41011 0
M  V30 10007 C 934.401 -2.64467 -2.21701 0
M  V30 10008 C 933.514 -3.88114 -1.89715 0
M  V30 10009 C 932.649 -4.30268 -3.11518 0
M  V30 10010 C 931.688 -5.46652 -2.75387 0
M  V30 10011 N 930.825 -5.83927 -3.89838 0
M  V30 10012 H 935.665 -2.94066 -0.482588 0
M  V30 10013 H 933.202 -1.45344 -0.226597 0
M  V30 10014 H 935.16 -2.93745 -2.96259 0
M  V30 10015 H 933.79 -1.83898 -2.65295 0
M  V30 10016 H 932.842 -3.65516 -1.05366 0
M  V30 10017 H 934.154 -4.72743 -1.5911 0
M  V30 10018 H 933.308 -4.61023 -3.94389 0
M  V30 10019 H 932.047 -3.44421 -3.4529 0
M  V30 10020 H 931.052 -5.15583 -1.90929 0
M  V30 10021 H 932.277 -6.34204 -2.42822 0
M  V30 10022 H 930.223 -5.01035 -4.23438 0
M  V30 10023 H 930.14 -6.63214 -3.62883 0
M  V30 10024 H 931.408 -6.19291 -4.73391 0
M  V30 10025 N 935.637 0.236453 -1.55816 0
M  V30 10026 C 936.884 0.963012 -1.78136 0
M  V30 10027 C 937.212 1.84918 -0.602952 0
M  V30 10028 O 936.467 1.91285 0.413325 0
M  V30 10029 C 936.766 1.84549 -3.06066 0
M  V30 10030 C 936.432 1.11381 -4.36927 0
M  V30 10031 C 935.094 0.911635 -4.72486 0
M  V30 10032 C 937.446 0.596 -5.17781 0
M  V30 10033 C 934.774 0.179515 -5.86425 0
M  V30 10034 C 937.126 -0.122702 -6.32481 0
M  V30 10035 C 935.79 -0.336263 -6.66652 0
M  V30 10036 H 935.06 0.352391 -0.651845 0
M  V30 10037 H 937.707 0.232295 -1.90086 0
M  V30 10038 H 936.012 2.6436 -2.89173 0
M  V30 10039 H 937.709 2.40953 -3.20535 0
M  V30 10040 H 934.299 1.28134 -4.08998 0
M  V30 10041 H 938.483 0.73971 -4.90757 0
M  V30 10042 H 933.739 0.00368224 -6.114 0
M  V30 10043 H 937.913 -0.531516 -6.94369 0
M  V30 10044 H 935.54 -0.905507 -7.54788 0
M  V30 10045 N 937.115 1.49373 0.502552 0
M  V30 10046 C 938.045 1.68839 1.61294 0
M  V30 10047 C 939.026 0.537096 1.61398 0
M  V30 10048 O 940.211 0.772764 1.78163 0
M  V30 10049 C 937.341 1.75347 2.99784 0
M  V30 10050 C 936.295 2.90251 3.14545 0
M  V30 10051 C 935.621 2.8187 4.54371 0
M  V30 10052 C 936.921 4.31207 2.94717 0
M  V30 10053 H 938.615 2.61803 1.45257 0
M  V30 10054 H 936.161 1.25987 0.697371 0
M  V30 10055 H 938.114 1.87552 3.77362 0
M  V30 10056 H 936.838 0.789814 3.16906 0
M  V30 10057 H 935.497 2.77646 2.39392 0
M  V30 10058 H 935.145 1.83416 4.68367 0
M  V30 10059 H 934.845 3.5899 4.65188 0
M  V30 10060 H 936.369 2.96081 5.34012 0
M  V30 10061 H 937.783 4.44501 3.62065 0
M  V30 10062 H 936.18 5.09536 3.17007 0
M  V30 10063 H 937.25 4.45759 1.90857 0
M  V30 10064 N 938.594 -0.753485 1.38421 0
M  V30 10065 C 939.524 -1.8808 1.38377 0
M  V30 10066 C 940.505 -1.68258 0.249664 0
M  V30 10067 O 941.69 -1.88848 0.45276 0
M  V30 10068 C 938.82 -3.25608 1.20818 0
M  V30 10069 C 937.774 -3.60032 2.31433 0
M  V30 10070 C 937.1 -4.96297 1.9898 0
M  V30 10071 C 938.4 -3.64898 3.73694 0
M  V30 10072 H 940.094 -1.88375 2.32713 0
M  V30 10073 H 937.64 -0.90489 1.12017 0
M  V30 10074 H 939.593 -4.04127 1.19412 0
M  V30 10075 H 938.317 -3.25793 0.229433 0
M  V30 10076 H 936.976 -2.83831 2.32025 0
M  V30 10077 H 936.624 -4.93043 0.995889 0
M  V30 10078 H 936.324 -5.20298 2.73063 0
M  V30 10079 H 937.848 -5.77196 1.99193 0
M  V30 10080 H 939.262 -4.33531 3.75132 0
M  V30 10081 H 937.659 -4.00407 4.46983 0
M  V30 10082 H 938.729 -2.65124 4.06002 0
M  V30 10083 N 940.072 -1.23292 -0.981677 0
M  V30 10084 C 941.002 -1.03738 -2.09191 0
M  V30 10085 C 941.983 0.0453041 -1.7004 0
M  V30 10086 O 943.168 -0.119092 -1.93834 0
M  V30 10087 C 940.298 -0.626426 -3.41604 0
M  V30 10088 C 939.252 -1.65631 -3.94652 0
M  V30 10089 C 938.578 -1.10084 -5.23245 0
M  V30 10090 C 939.878 -3.04903 -4.24066 0
M  V30 10091 H 941.572 -1.966 -2.25807 0
M  V30 10092 H 939.118 -0.946656 -1.0851 0
M  V30 10093 H 941.071 -0.476689 -4.18695 0
M  V30 10094 H 939.795 0.337873 -3.24848 0
M  V30 10095 H 938.454 -1.79402 -3.19704 0
M  V30 10096 H 938.102 -0.127562 -5.02838 0
M  V30 10097 H 937.802 -1.78896 -5.59705 0
M  V30 10098 H 939.326 -0.962928 -6.02959 0
M  V30 10099 H 940.74 -2.94441 -4.91912 0
M  V30 10100 H 939.137 -3.70941 -4.71724 0
M  V30 10101 H 940.207 -3.53991 -3.31389 0
M  V30 10102 N 941.55 1.18024 -1.04442 0
M  V30 10103 C 942.497 2.21785 -0.638759 0
M  V30 10104 C 943.467 1.62255 0.355312 0
M  V30 10105 O 944.652 1.89176 0.24844 0
M  V30 10106 C 941.792 3.45098 -0.0118002 0
M  V30 10107 C 940.905 4.1895 -1.05379 0
M  V30 10108 C 940.04 5.2973 -0.394951 0
M  V30 10109 C 939.079 5.95359 -1.42178 0
M  V30 10110 N 938.216 6.97668 -0.787635 0
M  V30 10111 H 943.056 2.55839 -1.52808 0
M  V30 10112 H 940.593 1.25681 -0.764378 0
M  V30 10113 H 942.551 4.15564 0.369075 0
M  V30 10114 H 941.181 3.11652 0.84102 0
M  V30 10115 H 940.233 3.47274 -1.55258 0
M  V30 10116 H 941.545 4.63877 -1.83355 0
M  V30 10117 H 940.699 6.06687 0.0399244 0
M  V30 10118 H 939.438 4.85915 0.416867 0
M  V30 10119 H 938.443 5.17139 -1.86675 0
M  V30 10120 H 939.668 6.41255 -2.23536 0
M  V30 10121 H 937.614 6.56 0.00380893 0
M  V30 10122 H 937.531 7.40867 -1.50505 0
M  V30 10123 H 938.799 7.78586 -0.377282 0
M  V30 10124 N 943.028 0.824394 1.34319 0
M  V30 10125 C 943.976 0.235628 2.31403 0
M  V30 10126 C 944.97 -0.624443 1.57471 0
M  V30 10127 O 946.176 -0.515618 1.72457 0
M  V30 10128 H 942.551 0.0574537 0.749802 0
M  V30 10129 H 944.522 1.06925 2.78585 0
M  V30 10130 C 943.271 -0.586617 3.42716 0
M  V30 10131 H 942.594 0.0658669 3.99746 0
M  V30 10132 H 944.034 -0.964661 4.1288 0
M  V30 10133 C 942.493 -1.75957 2.87299 0
M  V30 10134 O 943.023 -2.8578 2.82299 0
M  V30 10135 N 941.229 -1.57678 2.44102 0
M  V30 10136 H 940.776 -0.683436 2.48369 0
M  V30 10137 H 940.734 -2.36311 2.07375 0
M  V30 10138 N 944.506 -1.46559 0.579492 0
M  V30 10139 C 945.753 -2.02399 0.0638418 0
M  V30 10140 C 946.081 -1.45135 -1.29484 0
M  V30 10141 O 945.336 -0.605061 -1.86112 0
M  V30 10142 C 945.635 -3.57357 -0.0552803 0
M  V30 10143 C 945.301 -4.33646 1.23539 0
M  V30 10144 C 943.963 -4.54207 1.589 0
M  V30 10145 C 946.315 -4.77476 2.08965 0
M  V30 10146 C 943.643 -5.1585 2.79492 0
M  V30 10147 C 945.995 -5.4045 3.2878 0
M  V30 10148 C 944.659 -5.5924 3.64427 0
M  V30 10149 H 943.929 -0.740632 0.0233614 0
M  V30 10150 H 946.576 -1.75968 0.755482 0
M  V30 10151 H 944.881 -3.82907 -0.83003 0
M  V30 10152 H 946.578 -3.98237 -0.469964 0
M  V30 10153 H 943.168 -4.17937 0.9501 0
M  V30 10154 H 947.352 -4.61349 1.8295 0
M  V30 10155 H 942.608 -5.28589 3.07252 0
M  V30 10156 H 946.782 -5.73371 3.95245 0
M  V30 10157 H 944.409 -6.06775 4.57961 0
M  V30 10158 N 945.984 -0.3171 -1.54377 0
M  V30 10159 C 947.209 0.292311 -2.0533 0
M  V30 10160 C 947.634 1.45503 -1.19207 0
M  V30 10161 O 946.992 1.80197 -0.199721 0
M  V30 10162 C 947.04 0.710787 -3.53525 0
M  V30 10163 O 946.144 1.81387 -3.70368 0
M  V30 10164 H 945.485 0.0539976 -0.661801 0
M  V30 10165 H 948.015 -0.463629 -1.99278 0
M  V30 10166 H 948.025 0.995216 -3.95676 0
M  V30 10167 H 946.7 -0.139668 -4.15665 0
M  V30 10168 H 945.277 1.52875 -3.40123 0
M  V30 10169 N 947.462 1.57535 -0.0451378 0
M  V30 10170 C 948.687 1.97172 0.64326 0
M  V30 10171 C 949.112 0.922266 1.63939 0
M  V30 10172 O 948.47 -0.115155 1.80934 0
M  V30 10173 C 948.518 3.35889 1.3119 0
M  V30 10174 O 947.622 3.33387 2.42748 0
M  V30 10175 H 946.963 0.642469 0.167719 0
M  V30 10176 H 949.493 2.04295 -0.111747 0
M  V30 10177 H 949.503 3.72481 1.66499 0
M  V30 10178 H 948.178 4.1181 0.581823 0
M  V30 10179 H 946.755 3.08533 2.09432 0
M  V30 10180 N 948.94 -0.228186 1.55939 0
M  V30 10181 C 950.351 -0.795734 1.68893 0
M  V30 10182 C 950.702 -1.85261 0.645967 0
M  V30 10183 O 949.827 -2.15434 -0.2042 0
M  V30 10184 C 950.422 -1.45013 3.06197 0
M  V30 10185 C 948.981 -1.96514 3.21028 0
M  V30 10186 C 948.128 -0.822918 2.64808 0
M  V30 10187 H 951.079 -0.0036485 1.587 0
M  V30 10188 H 951.1 -2.31875 3.01685 0
M  V30 10189 H 950.612 -0.680678 3.82084 0
M  V30 10190 H 948.713 -2.76282 2.49998 0
M  V30 10191 H 948.826 -2.14967 4.28166 0
M  V30 10192 H 947.19 -1.22846 2.23116 0
M  V30 10193 H 947.973 -0.0662493 3.43236 0
M  V30 10194 N 950.418 -1.49637 -0.494624 0
M  V30 10195 C 951.348 -1.69692 -1.60396 0
M  V30 10196 C 952.329 -0.545648 -1.61111 0
M  V30 10197 O 953.514 -0.782202 -1.77751 0
M  V30 10198 C 950.644 -1.76934 -2.9885 0
M  V30 10199 C 949.598 -2.91915 -3.13001 0
M  V30 10200 C 948.924 -2.84276 -4.5287 0
M  V30 10201 C 950.224 -4.32764 -2.92426 0
M  V30 10202 H 951.918 -2.6257 -1.43866 0
M  V30 10203 H 949.464 -1.26355 -0.690679 0
M  V30 10204 H 951.417 -1.8955 -3.76362 0
M  V30 10205 H 950.141 -0.806609 -3.16483 0
M  V30 10206 H 948.8 -2.78911 -2.37916 0
M  V30 10207 H 948.448 -1.85897 -4.67388 0
M  V30 10208 H 948.148 -3.61452 -4.63278 0
M  V30 10209 H 949.672 -2.98909 -5.32434 0
M  V30 10210 H 951.086 -4.46415 -3.59703 0
M  V30 10211 H 949.483 -5.1121 -3.143 0
M  V30 10212 H 950.553 -4.46765 -1.88491 0
M  V30 10213 N 951.896 0.746133 -1.38819 0
M  V30 10214 C 953.307 1.32384 -1.31648 0
M  V30 10215 C 953.658 1.96185 0.0243086 0
M  V30 10216 O 952.783 1.95567 0.92641 0
M  V30 10217 C 953.378 2.40712 -2.38418 0
M  V30 10218 C 951.937 2.94185 -2.34803 0
M  V30 10219 C 951.084 1.67639 -2.20891 0
M  V30 10220 H 954.035 0.544457 -1.49068 0
M  V30 10221 H 954.056 3.20833 -2.04564 0
M  V30 10222 H 953.568 1.94247 -3.3599 0
M  V30 10223 H 951.669 3.44959 -1.40834 0
M  V30 10224 H 951.782 3.48057 -3.29231 0
M  V30 10225 H 950.146 1.9155 -1.67871 0
M  V30 10226 H 950.929 1.23242 -3.20416 0
M  V30 10227 N 953.375 1.23811 0.975125 0
M  V30 10228 C 954.6 1.10109 1.75757 0
M  V30 10229 C 955.025 -0.342922 1.84948 0
M  V30 10230 O 954.383 -1.24814 1.31496 0
M  V30 10231 C 954.431 1.73724 3.15994 0
M  V30 10232 O 953.535 1.00297 4.00018 0
M  V30 10233 H 952.876 0.385627 0.540544 0
M  V30 10234 H 955.406 1.63971 1.22372 0
M  V30 10235 H 955.416 1.79178 3.6655 0
M  V30 10236 H 954.091 2.78794 3.0862 0
M  V30 10237 H 952.668 1.02575 3.58515 0
M  V30 10238 N 954.853 -1.17469 1.05066 0
M  V30 10239 C 956.264 -1.69334 0.786304 0
M  V30 10240 C 956.615 -1.83604 -0.691671 0
M  V30 10241 O 955.74 -1.52269 -1.53763 0
M  V30 10242 C 956.335 -3.07572 1.42074 0
M  V30 10243 C 954.894 -3.56609 1.20446 0
M  V30 10244 C 954.041 -2.329 1.50508 0
M  V30 10245 H 956.992 -1.02003 1.21577 0
M  V30 10246 H 957.013 -3.71352 0.829334 0
M  V30 10247 H 956.525 -2.97154 2.49642 0
M  V30 10248 H 954.626 -3.72306 0.147968 0
M  V30 10249 H 954.739 -4.39446 1.90852 0
M  V30 10250 H 953.103 -2.37305 0.925124 0
M  V30 10251 H 953.886 -2.25093 2.59207 0
M  V30 10252 N 956.331 -0.831506 -1.3388 0
M  V30 10253 C 957.294 -0.264773 -2.27666 0
M  V30 10254 C 958.294 0.562273 -1.50649 0
M  V30 10255 O 959.484 0.377131 -1.70069 0
M  V30 10256 C 956.616 0.627814 -3.35069 0
M  V30 10257 H 957.809 -1.09225 -2.79303 0
M  V30 10258 H 955.362 -0.604021 -1.44157 0
M  V30 10259 H 956.097 1.47802 -2.88661 0
M  V30 10260 H 955.882 0.0361552 -3.92083 0
M  V30 10261 H 957.372 1.01786 -4.05005 0
M  V30 10262 N 957.809 1.4625 -0.587256 0
M  V30 10263 C 959.057 2.01963 -0.0744273 0
M  V30 10264 C 959.378 1.46065 1.29189 0
M  V30 10265 O 958.648 0.647077 1.84905 0
M  V30 10266 H 957.228 0.746597 -0.0245236 0
M  V30 10267 H 959.89 1.79299 -0.764063 0
M  V30 10268 H 958.986 3.12099 -0.00884894 0
M  V30 10269 N 959.287 0.325282 1.54207 0
M  V30 10270 C 960.22 -0.582485 2.20641 0
M  V30 10271 C 961.198 -1.11441 1.18405 0
M  V30 10272 O 962.382 -1.17809 1.4715 0
M  V30 10273 C 959.509 -1.79944 2.86946 0
M  V30 10274 C 958.555 -1.39861 4.02916 0
M  V30 10275 S 959.388 -0.433859 5.3374 0
M  V30 10276 C 960.544 -1.65806 6.03539 0
M  V30 10277 H 960.777 -0.0181601 2.97294 0
M  V30 10278 H 958.31 0.109365 1.54012 0
M  V30 10279 H 960.268 -2.4977 3.25769 0
M  V30 10280 H 958.929 -2.33495 2.10092 0
M  V30 10281 H 958.122 -2.30547 4.48179 0
M  V30 10282 H 957.724 -0.780036 3.65775 0
M  V30 10283 H 960.016 -2.59524 6.25822 0
M  V30 10284 H 960.959 -1.24756 6.97023 0
M  V30 10285 H 961.367 -1.84581 5.3347 0
M  V30 10286 N 960.765 -1.57509 0.0534917 0
M  V30 10287 C 961.695 -2.14698 -0.917999 0
M  V30 10288 C 962.676 -1.06924 -1.32292 0
M  V30 10289 O 963.861 -1.34875 -1.39723 0
M  V30 10290 C 960.991 -2.69383 -2.19203 0
M  V30 10291 C 959.945 -3.82161 -1.9271 0
M  V30 10292 C 959.271 -4.23373 -3.26587 0
M  V30 10293 C 960.571 -5.07199 -1.24686 0
M  V30 10294 H 962.265 -2.96125 -0.44165 0
M  V30 10295 H 959.811 -1.42446 -0.210993 0
M  V30 10296 H 961.764 -3.08031 -2.87567 0
M  V30 10297 H 960.488 -1.85151 -2.69048 0
M  V30 10298 H 959.147 -3.43989 -1.26757 0
M  V30 10299 H 958.795 -3.36089 -3.74237 0
M  V30 10300 H 958.495 -4.99385 -3.09658 0
M  V30 10301 H 960.019 -4.64623 -3.96178 0
M  V30 10302 H 961.433 -5.43279 -1.83088 0
M  V30 10303 H 959.83 -5.88369 -1.18076 0
M  V30 10304 H 960.9 -4.84386 -0.223227 0
M  V30 10305 N 962.243 0.219913 -1.56058 0
M  V30 10306 C 963.153 1.29349 -1.95719 0
M  V30 10307 C 964.169 1.5119 -0.861248 0
M  V30 10308 O 965.345 1.64289 -1.16495 0
M  V30 10309 C 962.41 2.6229 -2.26726 0
M  V30 10310 C 961.471 2.48738 -3.49897 0
M  V30 10311 C 960.704 3.75339 -3.79416 0
M  V30 10312 O 960.927 4.78427 -3.10586 0
M  V30 10313 O 959.861 3.72352 -4.72903 0
M  V30 10314 H 963.687 0.986979 -2.87215 0
M  V30 10315 H 961.272 0.42291 -1.43289 0
M  V30 10316 H 963.154 3.408 -2.47857 0
M  V30 10317 H 961.829 2.92619 -1.38404 0
M  V30 10318 H 960.736 1.68422 -3.34043 0
M  V30 10319 H 962.069 2.23347 -4.38608 0
M  V30 10320 N 963.721 1.49897 0.486681 0
M  V30 10321 C 965.132 1.53142 1.06792 0
M  V30 10322 C 965.483 0.325856 1.93475 0
M  V30 10323 O 964.608 -0.562893 2.08951 0
M  V30 10324 C 965.203 2.77514 1.94348 0
M  V30 10325 C 963.762 2.83491 2.47609 0
M  V30 10326 C 962.909 2.47239 1.2557 0
M  V30 10327 H 965.86 1.56387 0.269962 0
M  V30 10328 H 965.881 2.58487 2.79221 0
M  V30 10329 H 965.393 3.65239 1.31232 0
M  V30 10330 H 963.494 2.0008 3.14323 0
M  V30 10331 H 963.607 3.86011 2.83782 0
M  V30 10332 H 961.971 1.99332 1.58552 0
M  V30 10333 H 962.754 3.37255 0.641404 0
M  V30 10334 N 965.199 -0.738761 1.39212 0
M  V30 10335 C 966.129 -1.86602 1.40364 0
M  V30 10336 C 967.11 -1.67984 0.267495 0
M  V30 10337 O 968.295 -1.88358 0.472765 0
M  V30 10338 C 965.425 -3.24308 1.24265 0
M  V30 10339 C 964.379 -3.57557 2.35239 0
M  V30 10340 C 963.705 -4.94159 2.04233 0
M  V30 10341 C 965.005 -3.60914 3.77543 0
M  V30 10342 H 966.699 -1.85896 2.34698 0
M  V30 10343 H 964.245 -0.892959 1.1297 0
M  V30 10344 H 966.198 -4.02838 1.23692 0
M  V30 10345 H 964.922 -3.25531 0.263974 0
M  V30 10346 H 963.581 -2.81354 2.35022 0
M  V30 10347 H 963.229 -4.91959 1.04813 0
M  V30 10348 H 962.929 -5.17373 2.78567 0
M  V30 10349 H 964.453 -5.7505 2.05303 0
M  V30 10350 H 965.867 -4.29528 3.79709 0
M  V30 10351 H 964.264 -3.95644 4.51205 0
M  V30 10352 H 965.334 -2.60803 4.08791 0
M  V30 10353 N 966.677 -1.24326 -0.968545 0
M  V30 10354 C 967.923 -1.08406 -1.71394 0
M  V30 10355 C 968.256 0.376353 -1.90518 0
M  V30 10356 O 967.531 1.27816 -1.46606 0
M  V30 10357 C 967.814 -1.82344 -3.1052 0
M  V30 10358 C 967.667 -3.3613 -2.98893 0
M  V30 10359 C 968.986 -1.59545 -4.10163 0
M  V30 10360 H 966.105 -0.395205 -0.622079 0
M  V30 10361 H 968.747 -1.52983 -1.12677 0
M  V30 10362 H 966.897 -1.44452 -3.60646 0
M  V30 10363 H 968.569 -3.83614 -2.56199 0
M  V30 10364 H 966.812 -3.64553 -2.35124 0
M  V30 10365 H 967.483 -3.83064 -3.97449 0
M  V30 10366 H 969.959 -1.92504 -3.68892 0
M  V30 10367 H 968.835 -2.13736 -5.05577 0
M  V30 10368 H 969.096 -0.533503 -4.38869 0
M  V30 10369 N 968.156 1.1691 -1.05688 0
M  V30 10370 C 969.086 2.23275 -0.683402 0
M  V30 10371 C 970.067 1.6704 0.321206 0
M  V30 10372 O 971.252 1.93191 0.197691 0
M  V30 10373 C 968.382 3.47244 -0.0626006 0
M  V30 10374 C 967.336 4.16333 -0.992513 0
M  V30 10375 C 966.662 5.34182 -0.23533 0
M  V30 10376 C 967.962 4.68002 -2.31886 0
M  V30 10377 H 969.656 2.54771 -1.57264 0
M  V30 10378 H 967.202 1.2246 -0.757606 0
M  V30 10379 H 969.155 4.20874 0.210503 0
M  V30 10380 H 967.879 3.1503 0.861616 0
M  V30 10381 H 966.538 3.44622 -1.25026 0
M  V30 10382 H 966.186 4.9822 0.69181 0
M  V30 10383 H 965.886 5.81346 -0.855002 0
M  V30 10384 H 967.41 6.10592 0.0303717 0
M  V30 10385 H 968.824 5.33244 -2.10531 0
M  V30 10386 H 967.221 5.25764 -2.89296 0
M  V30 10387 H 968.291 3.84541 -2.95391 0
M  V30 10388 N 969.634 0.838594 1.33437 0
M  V30 10389 C 970.911 0.356112 1.92331 0
M  V30 10390 C 971.291 -1.1585 1.76471 0
M  V30 10391 O 970.639 -1.97281 1.15293 0
M  V30 10392 C 970.849 0.802715 3.39643 0
M  V30 10393 C 972.197 0.810575 4.16791 0
M  V30 10394 O 973.221 0.746304 3.48294 0
M  V30 10395 O 972.08 0.898082 5.3907 0
M  V30 10396 H 969.174 0.100711 0.820845 0
M  V30 10397 H 971.72 0.924428 1.42311 0
M  V30 10398 H 970.492 1.84529 3.45057 0
M  V30 10399 H 970.115 0.210956 3.9704 0
M  V30 10400 N 971.112 -1.45937 0.595003 0
M  V30 10401 C 972.36 -2.01921 0.0851368 0
M  V30 10402 C 972.681 -1.46748 -1.28413 0
M  V30 10403 O 971.951 -0.656873 -1.84559 0
M  V30 10404 H 970.531 -0.746457 0.0284826 0
M  V30 10405 H 973.193 -1.78891 0.773561 0
M  V30 10406 H 972.289 -3.1209 0.0254002 0
M  V30 10407 N 972.59 -0.333456 -1.54032 0
M  V30 10408 C 973.537 0.527981 -2.2468 0
M  V30 10409 C 974.507 1.10371 -1.24127 0
M  V30 10410 O 975.692 1.14221 -1.52834 0
M  V30 10411 C 972.832 1.67808 -3.01553 0
M  V30 10412 C 971.945 1.13064 -4.16942 0
M  V30 10413 C 971.08 2.24722 -4.81325 0
M  V30 10414 C 970.119 1.67277 -5.88799 0
M  V30 10415 N 969.256 2.72638 -6.47003 0
M  V30 10416 H 974.096 -0.0810308 -2.9789 0
M  V30 10417 H 971.633 -0.051761 -1.47009 0
M  V30 10418 H 973.591 2.35502 -3.44376 0
M  V30 10419 H 972.221 2.25823 -2.30659 0
M  V30 10420 H 971.273 0.344948 -3.78833 0
M  V30 10421 H 972.585 0.670373 -4.94275 0
M  V30 10422 H 971.739 3.00301 -5.27166 0
M  V30 10423 H 970.478 2.74089 -4.03394 0
M  V30 10424 H 969.483 0.902002 -5.4235 0
M  V30 10425 H 970.708 1.18775 -6.68632 0
M  V30 10426 H 968.654 3.21277 -5.71941 0
M  V30 10427 H 968.571 2.31204 -7.19778 0
M  V30 10428 H 969.839 3.48015 -6.97499 0
M  V30 10429 N 974.068 1.57479 -0.061844 0
M  V30 10430 C 974.978 2.15645 0.923826 0
M  V30 10431 C 975.994 1.117 1.33413 0
M  V30 10432 O 977.17 1.4392 1.40887 0
M  V30 10433 C 974.235 2.69857 2.17665 0
M  V30 10434 C 973.296 3.88638 1.8237 0
M  V30 10435 C 972.529 4.40256 3.01679 0
M  V30 10436 O 972.752 3.90908 4.15388 0
M  V30 10437 O 971.686 5.31713 2.82073 0
M  V30 10438 H 975.512 3.0021 0.459094 0
M  V30 10439 H 973.097 1.48534 0.160665 0
M  V30 10440 H 974.979 3.04647 2.9115 0
M  V30 10441 H 973.654 1.88357 2.63255 0
M  V30 10442 H 972.561 3.58719 1.06167 0
M  V30 10443 H 973.894 4.71401 1.4157 0
M  V30 10444 N 975.546 -0.211634 1.56173 0
M  V30 10445 C 976.476 -1.26533 1.96244 0
M  V30 10446 C 977.457 -1.48362 0.832028 0
M  V30 10447 O 978.642 -1.60378 1.0951 0
M  V30 10448 C 975.772 -2.61307 2.2877 0
M  V30 10449 C 974.726 -2.54119 3.44395 0
M  V30 10450 C 974.052 -3.93014 3.62552 0
M  V30 10451 C 975.352 -2.08046 4.79076 0
M  V30 10452 H 977.046 -0.932407 2.84511 0
M  V30 10453 H 974.592 -0.447084 1.36884 0
M  V30 10454 H 976.545 -3.35188 2.55396 0
M  V30 10455 H 975.269 -2.96307 1.37367 0
M  V30 10456 H 973.928 -1.82694 3.17834 0
M  V30 10457 H 973.576 -4.25338 2.68508 0
M  V30 10458 H 973.276 -3.89083 4.40327 0
M  V30 10459 H 974.8 -4.68542 3.91537 0
M  V30 10460 H 976.214 -2.71676 5.04842 0
M  V30 10461 H 974.611 -2.15154 5.60204 0
M  V30 10462 H 975.681 -1.03306 4.73768 0
M  V30 10463 N 977.024 -1.50153 -0.478725 0
M  V30 10464 C 978.435 -1.53706 -1.05978 0
M  V30 10465 C 978.786 -0.336112 -1.933 0
M  V30 10466 O 977.911 0.551803 -2.09246 0
M  V30 10467 C 978.506 -2.78541 -1.92874 0
M  V30 10468 C 977.065 -2.848 -2.46102 0
M  V30 10469 C 976.212 -2.47902 -1.24257 0
M  V30 10470 H 979.163 -1.56528 -0.261664 0
M  V30 10471 H 979.184 -2.59964 -2.77847 0
M  V30 10472 H 978.696 -3.6593 -1.29293 0
M  V30 10473 H 976.797 -2.01744 -3.13257 0
M  V30 10474 H 976.91 -3.87511 -2.81731 0
M  V30 10475 H 975.274 -2.0017 -1.57493 0
M  V30 10476 H 976.057 -3.3759 -0.62351 0
M  V30 10477 N 978.502 0.731368 -1.39602 0
M  V30 10478 C 979.434 1.85575 -1.34516 0
M  V30 10479 C 980.447 1.60818 -0.253287 0
M  V30 10480 O 981.636 1.70984 -0.512505 0
M  V30 10481 C 978.736 3.21673 -1.06676 0
M  V30 10482 C 977.909 3.73757 -2.27211 0
M  V30 10483 C 976.968 4.88426 -1.95773 0
M  V30 10484 O 975.994 5.01898 -2.68491 0
M  V30 10485 N 977.196 5.73065 -0.926083 0
M  V30 10486 H 979.961 1.90442 -2.31413 0
M  V30 10487 H 977.522 0.912258 -1.33752 0
M  V30 10488 H 979.514 3.95959 -0.836577 0
M  V30 10489 H 978.084 3.12052 -0.185003 0
M  V30 10490 H 977.304 2.90781 -2.66158 0
M  V30 10491 H 978.592 4.05289 -3.07601 0
M  V30 10492 H 977.99 5.64774 -0.323497 0
M  V30 10493 H 976.547 6.47403 -0.755795 0
M  V30 10494 N 979.98 1.24838 0.961938 0
M  V30 10495 C 981.226 1.09313 1.70817 0
M  V30 10496 C 981.559 -0.366244 1.90715 0
M  V30 10497 O 980.834 -1.27036 1.47282 0
M  V30 10498 C 981.117 1.83988 3.09549 0
M  V30 10499 C 980.97 3.3771 2.97106 0
M  V30 10500 C 982.289 1.61718 4.09311 0
M  V30 10501 H 979.408 0.398498 0.619974 0
M  V30 10502 H 982.05 1.53579 1.11864 0
M  V30 10503 H 980.2 1.46363 3.59875 0
M  V30 10504 H 981.872 3.84967 2.54161 0
M  V30 10505 H 980.115 3.65795 2.33187 0
M  V30 10506 H 980.786 3.85166 3.95412 0
M  V30 10507 H 983.262 1.94458 3.67866 0
M  V30 10508 H 982.138 2.16415 5.04436 0
M  V30 10509 H 982.399 0.55677 4.3858 0
M  V30 10510 N 981.458 -1.16348 1.06306 0
M  V30 10511 C 982.698 -1.88556 0.789055 0
M  V30 10512 C 983.062 -1.79849 -0.672179 0
M  V30 10513 O 984.263 -2.46984 -1.06078 0
M  V30 10514 C 982.534 -3.34069 1.27016 0
M  V30 10515 S 984.093 -4.24128 1.12522 0
M  V30 10516 H 980.911 -0.65084 0.286232 0
M  V30 10517 H 983.513 -1.40443 1.36 0
M  V30 10518 H 982.217 -3.37944 2.32856 0
M  V30 10519 H 981.748 -3.87231 0.693963 0
M  V30 10520 H 983.763 -4.96168 0.0562142 0
M  V30 10521 N 982.937 -0.845659 -1.3299 0
M  V30 10522 C 984.183 -0.445311 -1.9785 0
M  V30 10523 C 984.516 0.994476 -1.66805 0
M  V30 10524 O 983.791 1.69636 -0.95151 0
M  V30 10525 C 984.074 -0.674371 -3.53729 0
M  V30 10526 C 983.927 -2.16192 -3.94437 0
M  V30 10527 C 985.246 -0.124908 -4.39923 0
M  V30 10528 H 982.365 -0.163269 -0.718688 0
M  V30 10529 H 985.007 -1.06242 -1.5752 0
M  V30 10530 H 983.157 -0.149091 -3.88214 0
M  V30 10531 H 984.829 -2.75259 -3.70176 0
M  V30 10532 H 983.072 -2.64386 -3.43922 0
M  V30 10533 H 983.743 -2.27292 -5.03033 0
M  V30 10534 H 986.219 -0.573986 -4.12122 0
M  V30 10535 H 985.095 -0.314816 -5.47996 0
M  V30 10536 H 985.356 0.971758 -4.31288 0
M  V30 10537 N 984.415 1.45619 -0.602734 0
M  V30 10538 C 985.663 2.01873 -0.095844 0
M  V30 10539 C 985.984 1.47427 1.27633 0
M  V30 10540 O 985.254 0.666652 1.84208 0
M  V30 10541 H 983.834 0.746295 -0.0324408 0
M  V30 10542 H 986.496 1.78478 -0.783037 0
M  V30 10543 H 985.592 3.12072 -0.0419507 0
M  V30 10544 N 985.893 0.34162 1.53853 0
M  V30 10545 C 986.856 -0.503541 2.236 0
M  V30 10546 C 987.856 -1.02912 1.23554 0
M  V30 10547 O 989.046 -0.918678 1.48007 0
M  V30 10548 C 986.178 -1.70126 2.95415 0
M  V30 10549 H 987.371 0.106437 2.99711 0
M  V30 10550 H 984.924 0.0929408 1.56023 0
M  V30 10551 H 985.659 -2.34999 2.23486 0
M  V30 10552 H 985.444 -1.33161 3.68796 0
M  V30 10553 H 986.934 -2.30077 3.48503 0
M  V30 10554 N 987.371 -1.57444 0.0701946 0
M  V30 10555 C 988.281 -2.16132 -0.912377 0
M  V30 10556 C 989.297 -1.12406 -1.32819 0
M  V30 10557 O 990.473 -1.44665 -1.40121 0
M  V30 10558 C 987.538 -2.71008 -2.16231 0
M  V30 10559 C 986.599 -3.896 -1.80306 0
M  V30 10560 C 985.832 -4.4185 -2.9934 0
M  V30 10561 O 986.055 -3.93106 -4.13309 0
M  V30 10562 O 984.989 -5.33201 -2.7925 0
M  V30 10563 H 988.815 -3.00449 -0.443167 0
M  V30 10564 H 986.4 -1.48617 -0.152786 0
M  V30 10565 H 988.282 -3.06186 -2.8953 0
M  V30 10566 H 986.957 -1.8975 -2.62253 0
M  V30 10567 H 985.864 -3.59277 -1.04264 0
M  V30 10568 H 987.197 -4.72145 -1.39068 0
M  V30 10569 N 988.849 0.203349 -1.56283 0
M  V30 10570 C 990.097 0.923183 -1.79782 0
M  V30 10571 C 990.418 1.84134 -0.64185 0
M  V30 10572 O 989.688 1.92922 0.340292 0
M  V30 10573 H 988.268 0.343881 -0.66314 0
M  V30 10574 H 990.93 0.210837 -1.93756 0
M  V30 10575 H 990.026 1.51921 -2.72629 0
M  V30 10576 N 990.327 1.50405 0.470755 0
M  V30 10577 C 991.738 1.54266 1.05162 0
M  V30 10578 C 992.089 0.346359 1.93119 0
M  V30 10579 O 991.214 -0.540699 2.09536 0
M  V30 10580 C 991.809 2.7956 1.91394 0
M  V30 10581 C 990.368 2.86101 2.44588 0
M  V30 10582 C 989.515 2.48557 1.22941 0
M  V30 10583 H 992.466 1.56665 0.253359 0
M  V30 10584 H 992.487 2.61434 2.76464 0
M  V30 10585 H 991.999 3.66611 1.27351 0
M  V30 10586 H 990.1 2.03403 3.12183 0
M  V30 10587 H 990.213 3.88999 2.79672 0
M  V30 10588 H 988.577 2.01003 1.56429 0
M  V30 10589 H 989.36 3.37916 0.605598 0
M  V30 10590 N 991.805 -0.723954 1.39988 0
M  V30 10591 C 992.715 -1.86829 1.41887 0
M  V30 10592 C 993.731 -1.71173 0.312401 0
M  V30 10593 O 994.907 -1.93583 0.555651 0
M  V30 10594 C 991.972 -3.22541 1.27154 0
M  V30 10595 C 991.033 -3.50512 2.47871 0
M  V30 10596 C 990.266 -4.79749 2.33831 0
M  V30 10597 O 990.489 -5.54251 1.34765 0
M  V30 10598 O 989.423 -5.07868 3.23039 0
M  V30 10599 H 993.249 -1.88183 2.38371 0
M  V30 10600 H 990.834 -0.873259 1.21221 0
M  V30 10601 H 992.716 -4.0362 1.21114 0
M  V30 10602 H 991.391 -3.21933 0.337715 0
M  V30 10603 H 990.298 -2.69475 2.59488 0
M  V30 10604 H 991.631 -3.55909 3.39985 0
M  V30 10605 N 993.283 -1.25346 -0.955304 0
M  V30 10606 C 994.531 -1.09837 -1.69647 0
M  V30 10607 C 994.852 0.361425 -1.91621 0
M  V30 10608 O 994.122 1.25666 -1.50283 0
M  V30 10609 H 992.702 -0.403467 -0.628668 0
M  V30 10610 H 995.364 -1.57459 -1.14859 0
M  V30 10611 H 994.46 -1.60616 -2.67598 0
M  V30 10612 N 994.761 1.15782 -1.06922 0
M  V30 10613 C 996.172 1.68062 -0.813144 0
M  V30 10614 C 996.523 1.84681 0.662374 0
M  V30 10615 O 995.648 1.54696 1.51321 0
M  V30 10616 C 996.243 3.05273 -1.46949 0
M  V30 10617 C 994.802 3.54647 -1.26104 0
M  V30 10618 C 993.949 2.30477 -1.54194 0
M  V30 10619 H 996.9 1.00056 -1.23185 0
M  V30 10620 H 996.921 3.69986 -0.888308 0
M  V30 10621 H 996.433 2.93145 -2.54337 0
M  V30 10622 H 994.534 3.72024 -0.20718 0
M  V30 10623 H 994.647 4.36354 -1.97819 0
M  V30 10624 H 993.011 2.35803 -0.96276 0
M  V30 10625 H 993.794 2.2094 -2.62755 0
M  V30 10626 N 996.239 0.8527 1.3254 0
M  V30 10627 C 997.487 0.454224 1.96929 0
M  V30 10628 C 997.808 -0.993034 1.67821 0
M  V30 10629 O 997.078 -1.69371 0.984393 0
M  V30 10630 H 995.658 0.164977 0.728554 0
M  V30 10631 H 998.32 1.0887 1.61658 0
M  V30 10632 H 997.416 0.597667 3.06324 0
M  V30 10633 N 997.718 -1.45297 0.610449 0
M  V30 10634 C 998.958 -2.04105 0.109802 0
M  V30 10635 C 999.322 -1.46818 -1.23727 0
M  V30 10636 O 1000.52 -1.96997 -1.82881 0
M  V30 10637 C 998.794 -3.57323 0.0741377 0
M  V30 10638 S 1000.35 -4.3728 -0.364901 0
M  V30 10639 H 997.171 -0.709171 0.050967 0
M  V30 10640 H 999.773 -1.77967 0.809194 0
M  V30 10641 H 998.477 -3.96528 1.05801 0
M  V30 10642 H 998.008 -3.8804 -0.647158 0
M  V30 10643 H 1000.02 -4.69224 -1.61379 0
M  V30 10644 N 999.196 -0.349774 -1.5367 0
M  V30 10645 C 1000.61 0.00191293 -1.596 0
M  V30 10646 C 1000.81 1.48175 -1.36552 0
M  V30 10647 O 999.868 2.24129 -1.16285 0
M  V30 10648 C 1001.18 -0.439848 -2.97466 0
M  V30 10649 C 1002.73 -0.392721 -3.10526 0
M  V30 10650 C 1003.2 -0.810047 -4.5078 0
M  V30 10651 N 1004.69 -0.764478 -4.56848 0
M  V30 10652 C 1005.43 -1.05927 -5.63531 0
M  V30 10653 N 1004.93 -1.42253 -6.78038 0
M  V30 10654 N 1006.72 -0.983098 -5.53436 0
M  V30 10655 H 998.87 -1.31364 -1.66905 0
M  V30 10656 H 1001.13 -0.535908 -0.781989 0
M  V30 10657 H 1000.84 -1.47189 -3.19419 0
M  V30 10658 H 1000.71 0.181735 -3.76762 0
M  V30 10659 H 1003.1 0.630161 -2.88293 0
M  V30 10660 H 1003.18 -1.04959 -2.33275 0
M  V30 10661 H 1002.82 -1.83097 -4.73749 0
M  V30 10662 H 1002.75 -0.130591 -5.26438 0
M  V30 10663 H 1005.25 -0.496637 -3.74622 0
M  V30 10664 H 1005.56 -1.63215 -7.55368 0
M  V30 10665 H 1003.9 -1.46104 -6.79469 0
M  V30 10666 H 1007.09 -0.698601 -4.62858 0
M  V30 10667 H 1007.27 -1.21618 -6.36485 0
M  V30 10668 N 1000.67 1.57404 -0.0785433 0
M  V30 10669 C 1001.92 1.94031 0.589896 0
M  V30 10670 C 1002.25 0.959297 1.68852 0
M  V30 10671 O 1001.53 -0.0103978 1.94497 0
M  V30 10672 C 1001.81 3.40886 1.16055 0
M  V30 10673 C 1001.66 4.49748 0.0681072 0
M  V30 10674 C 1002.98 3.88699 2.06401 0
M  V30 10675 H 1000.1 0.70556 0.212965 0
M  V30 10676 H 1002.74 1.89439 -0.145886 0
M  V30 10677 H 1000.89 3.4493 1.78761 0
M  V30 10678 H 1002.57 4.57823 -0.565318 0
M  V30 10679 H 1000.81 4.29625 -0.600431 0
M  V30 10680 H 1001.48 5.49658 0.507906 0
M  V30 10681 H 1003.96 3.86703 1.53622 0
M  V30 10682 H 1002.83 4.92052 2.43261 0
M  V30 10683 H 1003.09 3.2703 2.97496 0
M  V30 10684 N 1002.15 -0.195058 1.56388 0
M  V30 10685 C 1003.08 -1.24444 1.97575 0
M  V30 10686 C 1004.06 -1.47471 0.847717 0
M  V30 10687 O 1005.25 -1.59208 1.11205 0
M  V30 10688 C 1002.38 -2.58866 2.31529 0
M  V30 10689 C 1001.33 -2.50451 3.47071 0
M  V30 10690 C 1000.66 -3.89146 3.667 0
M  V30 10691 C 1001.96 -2.02953 4.81256 0
M  V30 10692 H 1003.65 -0.902178 2.85484 0
M  V30 10693 H 1001.2 -0.43254 1.3735 0
M  V30 10694 H 1003.15 -3.3246 2.58936 0
M  V30 10695 H 1001.87 -2.94833 1.40502 0
M  V30 10696 H 1000.53 -1.79313 3.19754 0
M  V30 10697 H 1000.18 -4.22466 2.73004 0
M  V30 10698 H 999.882 -3.84391 4.44429 0
M  V30 10699 H 1001.41 -4.64363 3.96484 0
M  V30 10700 H 1002.82 -2.66306 5.07695 0
M  V30 10701 H 1001.22 -2.092 5.62455 0
M  V30 10702 H 1002.29 -0.982757 4.74837 0
M  V30 10703 N 1003.63 -1.50653 -0.462772 0
M  V30 10704 C 1004.88 -1.62057 -1.21424 0
M  V30 10705 C 1005.2 -0.324778 -1.91769 0
M  V30 10706 O 1004.46 0.689828 -1.83139 0
M  V30 10707 C 1004.76 -2.75637 -2.27507 0
M  V30 10708 C 1004.42 -4.15826 -1.74354 0
M  V30 10709 C 1003.09 -4.53969 -1.5958 0
M  V30 10710 C 1005.44 -5.03409 -1.35012 0
M  V30 10711 C 1002.77 -5.77427 -1.03899 0
M  V30 10712 C 1005.12 -6.27422 -0.807704 0
M  V30 10713 C 1003.78 -6.6436 -0.646657 0
M  V30 10714 H 1003.05 -0.59301 -0.44432 0
M  V30 10715 H 1005.7 -1.84612 -0.508999 0
M  V30 10716 H 1004 -2.47203 -3.0397 0
M  V30 10717 H 1005.7 -2.81663 -2.85424 0
M  V30 10718 H 1002.29 -3.85739 -1.86823 0
M  V30 10719 H 1006.48 -4.74567 -1.45258 0
M  V30 10720 H 1001.73 -6.04713 -0.901751 0
M  V30 10721 H 1005.91 -6.94644 -0.494234 0
M  V30 10722 H 1003.53 -7.59901 -0.213053 0
M  V30 10723 N 1005.11 0.71652 -1.4037 0
M  V30 10724 C 1006.06 1.82219 -1.37041 0
M  V30 10725 C 1007.04 1.58975 -0.248116 0
M  V30 10726 O 1008.23 1.70164 -0.487147 0
M  V30 10727 C 1005.36 3.20337 -1.23446 0
M  V30 10728 C 1004.45 3.49347 -2.40452 0
M  V30 10729 N 1004.84 3.49179 -3.65934 0
M  V30 10730 C 1003.14 3.798 -2.33811 0
M  V30 10731 C 1003.84 3.76506 -4.43416 0
M  V30 10732 N 1002.82 3.95209 -3.73244 0
M  V30 10733 H 1006.62 1.80421 -2.32003 0
M  V30 10734 H 1004.13 0.915603 -1.34129 0
M  V30 10735 H 1006.13 3.99513 -1.19143 0
M  V30 10736 H 1004.79 3.23362 -0.294497 0
M  V30 10737 H 1005.8 3.30051 -3.99107 0
M  V30 10738 H 1002.48 3.9032 -1.48177 0
M  V30 10739 H 1003.87 3.82689 -5.52267 0
M  V30 10740 N 1006.59 1.25851 0.948643 0
M  V30 10741 C 1007.83 1.11119 1.69648 0
M  V30 10742 C 1008.17 -0.345995 1.91093 0
M  V30 10743 O 1007.44 -1.25467 1.48621 0
M  V30 10744 C 1007.72 1.87261 3.0758 0
M  V30 10745 C 1007.58 3.40842 2.93507 0
M  V30 10746 C 1008.9 1.6605 4.07573 0
M  V30 10747 H 1006.01 0.405052 0.615713 0
M  V30 10748 H 1008.66 1.54756 1.10229 0
M  V30 10749 H 1006.81 1.50172 3.58303 0
M  V30 10750 H 1008.48 3.87641 2.50064 0
M  V30 10751 H 1006.72 3.68248 2.29294 0
M  V30 10752 H 1007.39 3.89339 3.91305 0
M  V30 10753 H 1009.87 1.98348 3.65783 0
M  V30 10754 H 1008.74 2.21753 5.02113 0
M  V30 10755 H 1009.01 0.603256 4.37965 0
M  V30 10756 N 1008.06 -1.15214 1.07534 0
M  V30 10757 C 1008.99 -2.2216 0.718837 0
M  V30 10758 C 1009.98 -1.6753 -0.29459 0
M  V30 10759 O 1011.16 -1.93481 -0.166931 0
M  V30 10760 C 1008.29 -3.471 0.117836 0
M  V30 10761 C 1007.24 -4.14701 1.05862 0
M  V30 10762 C 1006.57 -5.3374 0.320284 0
M  V30 10763 C 1007.87 -4.64254 2.39302 0
M  V30 10764 H 1009.56 -2.52237 1.61297 0
M  V30 10765 H 1007.11 -1.21239 0.776992 0
M  V30 10766 H 1009.06 -4.21156 -0.143519 0
M  V30 10767 H 1007.79 -3.16361 -0.811389 0
M  V30 10768 H 1006.45 -3.42589 1.30493 0
M  V30 10769 H 1006.09 -4.99257 -0.61246 0
M  V30 10770 H 1005.79 -5.79912 0.947381 0
M  V30 10771 H 1007.32 -6.10563 0.0667721 0
M  V30 10772 H 1008.73 -5.29827 2.18988 0
M  V30 10773 H 1007.13 -5.21095 2.97623 0
M  V30 10774 H 1008.2 -3.79793 3.01472 0
M  V30 10775 N 1009.54 -0.859717 -1.32086 0
M  V30 10776 C 1010.95 -0.519529 -1.79326 0
M  V30 10777 C 1011.3 0.96295 -1.70944 0
M  V30 10778 O 1010.43 1.75139 -1.27104 0
M  V30 10779 C 1011.02 -0.936267 -3.25606 0
M  V30 10780 C 1009.58 -0.647899 -3.70782 0
M  V30 10781 C 1008.73 -1.13323 -2.53087 0
M  V30 10782 H 1011.68 -1.04643 -1.19312 0
M  V30 10783 H 1011.7 -0.254714 -3.79646 0
M  V30 10784 H 1011.21 -2.01527 -3.31675 0
M  V30 10785 H 1009.32 0.420172 -3.70223 0
M  V30 10786 H 1009.43 -1.21774 -4.63366 0
M  V30 10787 H 1007.79 -0.553325 -2.48617 0
M  V30 10788 H 1008.58 -2.21945 -2.61907 0
M  V30 10789 N 1011.02 1.44971 -0.618145 0
M  V30 10790 C 1011.95 2.33357 0.0815955 0
M  V30 10791 C 1012.93 1.47451 0.848072 0
M  V30 10792 O 1014.12 1.762 0.816532 0
M  V30 10793 C 1011.25 3.30324 1.07253 0
M  V30 10794 C 1010.2 4.25948 0.418563 0
M  V30 10795 C 1009.53 5.12685 1.51849 0
M  V30 10796 C 1010.83 5.18024 -0.66697 0
M  V30 10797 H 1012.52 2.92115 -0.656442 0
M  V30 10798 H 1010.07 1.40465 -0.317129 0
M  V30 10799 H 1012.02 3.91033 1.57069 0
M  V30 10800 H 1010.74 2.69748 1.8413 0
M  V30 10801 H 1009.4 3.66553 -0.0588308 0
M  V30 10802 H 1009.05 4.4847 2.2778 0
M  V30 10803 H 1008.75 5.7747 1.08637 0
M  V30 10804 H 1010.27 5.76264 2.01871 0
M  V30 10805 H 1011.69 5.72744 -0.252448 0
M  V30 10806 H 1010.09 5.91343 -1.02146 0
M  V30 10807 H 1011.16 4.59817 -1.53936 0
M  V30 10808 N 1012.5 0.357919 1.53482 0
M  V30 10809 C 1013.41 -0.500273 2.29204 0
M  V30 10810 C 1014.42 -1.09936 1.3487 0
M  V30 10811 O 1015.6 -1.11195 1.67921 0
M  V30 10812 C 1012.67 -1.62828 3.06085 0
M  V30 10813 C 1011.73 -1.05751 4.16071 0
M  V30 10814 C 1010.96 -2.13176 4.89277 0
M  V30 10815 O 1011.18 -3.34153 4.62274 0
M  V30 10816 O 1010.12 -1.76663 5.7539 0
M  V30 10817 H 1013.94 0.115696 3.0348 0
M  V30 10818 H 1011.53 0.122527 1.48897 0
M  V30 10819 H 1013.41 -2.28427 3.54117 0
M  V30 10820 H 1012.08 -2.22979 2.34653 0
M  V30 10821 H 1010.99 -0.365642 3.72309 0
M  V30 10822 H 1012.32 -0.500661 4.89647 0
M  V30 10823 N 1013.98 -1.5736 0.0868897 0
M  V30 10824 C 1014.94 -2.12436 -0.860439 0
M  V30 10825 C 1015.94 -1.05175 -1.21634 0
M  V30 10826 O 1017.13 -1.31098 -1.14713 0
M  V30 10827 C 1014.26 -2.63818 -2.159 0
M  V30 10828 H 1015.45 -2.97453 -0.382346 0
M  V30 10829 H 1013.01 -1.55458 -0.162009 0
M  V30 10830 H 1013.74 -1.82298 -2.68212 0
M  V30 10831 H 1013.53 -3.42234 -1.91359 0
M  V30 10832 H 1015.02 -3.06452 -2.83685 0
M  V30 10833 N 1015.45 0.186762 -1.56489 0
M  V30 10834 C 1016.7 0.904063 -1.80752 0
M  V30 10835 C 1017.02 1.83443 -0.661343 0
M  V30 10836 O 1016.29 1.93272 0.319811 0
M  V30 10837 H 1014.87 0.336828 -0.66675 0
M  V30 10838 H 1017.54 0.190275 -1.93969 0
M  V30 10839 H 1016.63 1.49021 -2.74225 0
M  V30 10840 N 1016.93 1.50896 0.454776 0
M  V30 10841 C 1017.86 1.73885 1.5584 0
M  V30 10842 C 1018.84 0.588172 1.59607 0
M  V30 10843 O 1020.03 0.829054 1.75614 0
M  V30 10844 C 1017.16 1.84796 2.94054 0
M  V30 10845 C 1016.11 3.00111 3.05152 0
M  V30 10846 C 1015.44 2.96183 4.45174 0
M  V30 10847 C 1016.74 4.40365 2.80849 0
M  V30 10848 H 1018.43 2.66292 1.36854 0
M  V30 10849 H 1015.98 1.28142 0.656936 0
M  V30 10850 H 1017.93 1.99462 3.71204 0
M  V30 10851 H 1016.66 0.890235 3.14233 0
M  V30 10852 H 1015.31 2.85121 2.30438 0
M  V30 10853 H 1014.96 1.98224 4.62295 0
M  V30 10854 H 1014.66 3.73608 4.53532 0
M  V30 10855 H 1016.19 3.1292 5.24322 0
M  V30 10856 H 1017.6 4.55795 3.47741 0
M  V30 10857 H 1016 5.19363 3.00636 0
M  V30 10858 H 1017.07 4.51606 1.76579 0
M  V30 10859 N 1018.41 -0.709066 1.40748 0
M  V30 10860 C 1019.64 -1.49808 1.42707 0
M  V30 10861 C 1020.05 -1.88778 0.0285574 0
M  V30 10862 O 1019.41 -1.55883 -0.949035 0
M  V30 10863 C 1019.46 -2.76926 2.32366 0
M  V30 10864 O 1019.18 -2.39602 3.66773 0
M  V30 10865 C 1020.68 -3.70773 2.42986 0
M  V30 10866 H 1017.9 -0.462106 0.486517 0
M  V30 10867 H 1020.45 -0.874135 1.84876 0
M  V30 10868 H 1018.6 -3.3559 1.93541 0
M  V30 10869 H 1019.02 -3.21443 4.14457 0
M  V30 10870 H 1020.49 -4.56789 3.09916 0
M  V30 10871 H 1020.97 -4.14332 1.45691 0
M  V30 10872 H 1021.57 -3.18019 2.8239 0
M  V30 10873 N 1019.89 -1.26353 -0.941956 0
M  V30 10874 C 1021.3 -1.10774 -1.50287 0
M  V30 10875 C 1021.65 0.312229 -1.937 0
M  V30 10876 O 1020.78 1.20364 -1.79838 0
M  V30 10877 C 1021.37 -2.00473 -2.73123 0
M  V30 10878 C 1019.93 -1.89042 -3.25485 0
M  V30 10879 C 1019.08 -1.93869 -1.98267 0
M  V30 10880 H 1022.03 -1.39454 -0.757523 0
M  V30 10881 H 1022.05 -1.55216 -3.47402 0
M  V30 10882 H 1021.56 -3.03812 -2.41495 0
M  V30 10883 H 1019.66 -0.886341 -3.61904 0
M  V30 10884 H 1019.78 -2.74533 -3.92643 0
M  V30 10885 H 1018.14 -1.37912 -2.14132 0
M  V30 10886 H 1018.92 -2.98837 -1.68972 0
M  V30 10887 N 1021.37 1.14642 -1.08144 0
M  V30 10888 C 1022.64 1.81774 -0.72232 0
M  V30 10889 C 1023.02 1.95587 0.794294 0
M  V30 10890 O 1022.37 1.51361 1.71178 0
M  V30 10891 C 1022.58 3.1763 -1.44611 0
M  V30 10892 C 1023.93 3.93161 -1.60343 0
M  V30 10893 O 1024.95 3.2721 -1.40755 0
M  V30 10894 O 1023.81 5.11422 -1.9264 0
M  V30 10895 H 1020.91 0.785733 -0.257978 0
M  V30 10896 H 1023.45 1.21683 -1.18285 0
M  V30 10897 H 1022.23 3.02723 -2.4794 0
M  V30 10898 H 1021.85 3.85412 -0.976892 0
M  V30 10899 N 1022.85 0.866709 1.31628 0
M  V30 10900 C 1024.09 0.472185 1.96095 0
M  V30 10901 C 1024.41 -0.979873 1.69286 0
M  V30 10902 O 1025.61 -1.48039 2.27589 0
M  V30 10903 C 1024.07 0.793468 3.51044 0
M  V30 10904 C 1023.68 2.26206 3.86697 0
M  V30 10905 C 1025.42 0.467255 4.21921 0
M  V30 10906 C 1023.33 2.52593 5.34743 0
M  V30 10907 H 1022.26 0.172846 0.733921 0
M  V30 10908 H 1024.91 1.05916 1.49847 0
M  V30 10909 H 1023.29 0.135783 3.95767 0
M  V30 10910 H 1024.47 2.96254 3.52945 0
M  V30 10911 H 1022.78 2.55399 3.28877 0
M  V30 10912 H 1025.38 0.641669 5.30836 0
M  V30 10913 H 1025.72 -0.592065 4.12068 0
M  V30 10914 H 1026.25 1.08134 3.82821 0
M  V30 10915 H 1022.99 3.57196 5.49628 0
M  V30 10916 H 1022.51 1.87136 5.6986 0
M  V30 10917 H 1024.19 2.37156 6.01968 0
M  V30 10918 N 1024.32 -1.44642 0.625825 0
M  V30 10919 C 1025.25 -2.33397 -0.0692188 0
M  V30 10920 C 1026.23 -1.47898 -0.840241 0
M  V30 10921 O 1027.42 -1.7663 -0.807176 0
M  V30 10922 C 1024.55 -3.30888 -1.055 0
M  V30 10923 C 1023.5 -4.26164 -0.395968 0
M  V30 10924 C 1022.83 -5.13483 -1.49128 0
M  V30 10925 C 1024.13 -5.17663 0.694433 0
M  V30 10926 H 1025.82 -2.91763 0.671925 0
M  V30 10927 H 1023.37 -1.40294 0.324573 0
M  V30 10928 H 1025.32 -3.91861 -1.54993 0
M  V30 10929 H 1024.05 -2.7072 -1.82696 0
M  V30 10930 H 1022.71 -3.66516 0.0782691 0
M  V30 10931 H 1022.35 -4.49672 -2.25399 0
M  V30 10932 H 1022.05 -5.78038 -1.05573 0
M  V30 10933 H 1023.58 -5.77327 -1.98813 0
M  V30 10934 H 1024.99 -5.72602 0.282818 0
M  V30 10935 H 1023.39 -5.90793 1.05281 0
M  V30 10936 H 1024.46 -4.58994 1.56372 0
M  V30 10937 N 1025.8 -0.366053 -1.5329 0
M  V30 10938 C 1027.05 0.224614 -2.00445 0
M  V30 10939 C 1027.36 1.49829 -1.2574 0
M  V30 10940 O 1028.57 2.16759 -1.63487 0
M  V30 10941 C 1027.03 0.450818 -3.57065 0
M  V30 10942 C 1026.63 -0.808257 -4.40649 0
M  V30 10943 C 1028.38 0.999116 -4.12575 0
M  V30 10944 C 1026.28 -0.551612 -5.88822 0
M  V30 10945 H 1025.21 0.0877114 -0.748881 0
M  V30 10946 H 1027.87 -0.484866 -1.76978 0
M  V30 10947 H 1026.25 1.22157 -3.76688 0
M  V30 10948 H 1027.42 -1.58184 -4.32798 0
M  V30 10949 H 1025.74 -1.27981 -3.96245 0
M  V30 10950 H 1028.33 1.20646 -5.20911 0
M  V30 10951 H 1028.68 1.96139 -3.67199 0
M  V30 10952 H 1029.21 0.288518 -3.96752 0
M  V30 10953 H 1025.95 -1.48423 -6.38475 0
M  V30 10954 H 1025.47 0.183462 -5.99519 0
M  V30 10955 H 1027.15 -0.177307 -6.46757 0
M  V30 10956 N 1027.28 1.57312 -0.0952337 0
M  V30 10957 C 1028.69 1.81589 0.433875 0
M  V30 10958 C 1029.04 1.01086 1.68155 0
M  V30 10959 O 1028.17 0.240272 2.15062 0
M  V30 10960 C 1028.76 3.29366 0.793931 0
M  V30 10961 C 1027.32 3.54407 1.26778 0
M  V30 10962 C 1026.47 2.76035 0.264518 0
M  V30 10963 H 1029.42 1.55426 -0.320675 0
M  V30 10964 H 1029.44 3.42697 1.65345 0
M  V30 10965 H 1028.95 3.87932 -0.114334 0
M  V30 10966 H 1027.05 3.01173 2.19376 0
M  V30 10967 H 1027.17 4.63055 1.22952 0
M  V30 10968 H 1025.53 2.43509 0.746691 0
M  V30 10969 H 1026.31 3.37349 -0.636429 0
M  V30 10970 N 1028.76 -0.17846 1.56586 0
M  V30 10971 C 1030.17 -0.741599 1.71339 0
M  V30 10972 C 1030.52 -1.83112 0.704579 0
M  V30 10973 O 1029.64 -2.15975 -0.135557 0
M  V30 10974 C 1030.24 -1.35198 3.10656 0
M  V30 10975 C 1028.8 -1.86202 3.27118 0
M  V30 10976 C 1027.95 -0.738255 2.67292 0
M  V30 10977 H 1030.9 0.0468424 1.58631 0
M  V30 10978 H 1030.92 -2.2216 3.0891 0
M  V30 10979 H 1030.43 -0.558776 3.84056 0
M  V30 10980 H 1028.53 -2.68188 2.58661 0
M  V30 10981 H 1028.64 -2.01237 4.34788 0
M  V30 10982 H 1027.01 -1.15686 2.26912 0
M  V30 10983 H 1027.79 0.0429821 3.43273 0
M  V30 10984 N 1030.24 -1.51135 -0.446768 0
M  V30 10985 C 1031.15 -1.74595 -1.56696 0
M  V30 10986 C 1032.16 -0.629816 -1.62201 0
M  V30 10987 O 1033.34 -0.910987 -1.79619 0
M  V30 10988 C 1030.4 -1.85738 -2.9275 0
M  V30 10989 C 1029.46 -3.09564 -2.97437 0
M  V30 10990 C 1028.7 -3.20165 -4.27001 0
M  V30 10991 O 1028.92 -2.36939 -5.1886 0
M  V30 10992 O 1027.85 -4.13077 -4.3778 0
M  V30 10993 H 1031.68 -2.69601 -1.39817 0
M  V30 10994 H 1029.26 -1.35523 -0.628805 0
M  V30 10995 H 1031.15 -1.95107 -3.73512 0
M  V30 10996 H 1029.82 -0.939184 -3.09776 0
M  V30 10997 H 1028.73 -3.05679 -2.15664 0
M  V30 10998 H 1030.06 -4.01041 -2.85353 0
M  V30 10999 N 1031.71 0.701592 -1.41122 0
M  V30 11000 C 1032.96 1.45871 -1.39879 0
M  V30 11001 C 1033.28 1.94999 -0.00668769 0
M  V30 11002 O 1032.55 1.71298 0.95047 0
M  V30 11003 H 1031.13 0.541231 -0.514857 0
M  V30 11004 H 1033.79 0.830803 -1.76306 0
M  V30 11005 H 1032.89 2.32479 -2.0823 0
M  V30 11006 N 1033.19 1.2685 0.935242 0
M  V30 11007 C 1034.44 1.12132 1.67658 0
M  V30 11008 C 1034.75 -0.333839 1.9273 0
M  V30 11009 O 1035.96 -0.601801 2.64746 0
M  V30 11010 C 1034.42 1.95873 3.0193 0
M  V30 11011 C 1034.02 3.46 2.84584 0
M  V30 11012 C 1035.77 1.89781 3.79715 0
M  V30 11013 C 1033.67 4.21966 4.14365 0
M  V30 11014 H 1032.6 0.416035 0.628833 0
M  V30 11015 H 1035.26 1.51209 1.03962 0
M  V30 11016 H 1033.64 1.49633 3.66641 0
M  V30 11017 H 1034.81 4.00049 2.28687 0
M  V30 11018 H 1033.13 3.53391 2.20236 0
M  V30 11019 H 1035.72 2.43819 4.75875 0
M  V30 11020 H 1036.07 0.869797 4.07112 0
M  V30 11021 H 1036.6 2.33875 3.21788 0
M  V30 11022 H 1033.34 5.2526 3.9215 0
M  V30 11023 H 1032.86 3.72696 4.69955 0
M  V30 11024 H 1034.54 4.30734 4.82781 0
M  V30 11025 N 1034.67 -1.14067 1.0875 0
M  V30 11026 C 1036.08 -1.66747 0.839778 0
M  V30 11027 C 1036.43 -1.85711 -0.632909 0
M  V30 11028 O 1035.56 -1.57084 -1.48841 0
M  V30 11029 C 1036.15 -3.02896 1.51787 0
M  V30 11030 C 1034.71 -3.52596 1.3173 0
M  V30 11031 C 1033.86 -2.27994 1.57841 0
M  V30 11032 H 1036.81 -0.980838 1.24761 0
M  V30 11033 H 1036.83 -3.68526 0.947057 0
M  V30 11034 H 1036.34 -2.89062 2.58969 0
M  V30 11035 H 1034.44 -3.71647 0.266339 0
M  V30 11036 H 1034.56 -4.33151 2.04736 0
M  V30 11037 H 1032.92 -2.34241 1.00015 0
M  V30 11038 H 1033.7 -2.16732 2.66237 0
M  V30 11039 N 1036.15 -0.873678 -1.31166 0
M  V30 11040 C 1037.4 -0.485497 -1.96182 0
M  V30 11041 C 1037.72 0.96621 -1.69379 0
M  V30 11042 O 1036.99 1.67783 -1.01121 0
M  V30 11043 H 1035.57 -0.176547 -0.725838 0
M  V30 11044 H 1038.23 -1.11428 -1.59906 0
M  V30 11045 H 1037.33 -0.646325 -3.05334 0
M  V30 11046 N 1037.63 1.44308 -0.633487 0
M  V30 11047 C 1038.85 2.06897 -0.144347 0
M  V30 11048 C 1039.28 1.47045 1.173 0
M  V30 11049 O 1038.63 0.572806 1.72013 0
M  V30 11050 C 1038.68 3.60571 -0.0456324 0
M  V30 11051 O 1037.79 4.0015 0.997682 0
M  V30 11052 H 1037.13 0.658427 -0.0858499 0
M  V30 11053 H 1039.66 1.85142 -0.870833 0
M  V30 11054 H 1039.67 4.07745 0.144178 0
M  V30 11055 H 1038.34 4.03515 -1.0074 0
M  V30 11056 H 1036.92 3.64603 0.782252 0
M  V30 11057 N 1039.1 0.374177 1.53094 0
M  V30 11058 C 1040.07 -0.455999 2.24618 0
M  V30 11059 C 1041.07 -1.00269 1.25709 0
M  V30 11060 O 1042.26 -0.887077 1.49922 0
M  V30 11061 C 1039.39 -1.63822 2.98957 0
M  V30 11062 H 1040.58 0.169986 2.99418 0
M  V30 11063 H 1038.14 0.126015 1.55791 0
M  V30 11064 H 1038.87 -2.30205 2.28421 0
M  V30 11065 H 1038.66 -1.25308 3.71538 0
M  V30 11066 H 1040.15 -2.22633 3.53305 0
M  V30 11067 N 1040.58 -1.57259 0.103575 0
M  V30 11068 C 1041.51 -2.1153 -0.882472 0
M  V30 11069 C 1042.53 -1.05446 -1.24036 0
M  V30 11070 O 1043.72 -1.32867 -1.192 0
M  V30 11071 C 1040.82 -2.58717 -2.18903 0
M  V30 11072 C 1039.99 -3.8873 -2.00519 0
M  V30 11073 C 1039.05 -4.21675 -3.14764 0
M  V30 11074 O 1038.07 -4.90755 -2.88355 0
M  V30 11075 N 1039.28 -3.77757 -4.40772 0
M  V30 11076 H 1042.04 -2.96758 -0.418901 0
M  V30 11077 H 1039.6 -1.61696 -0.0812921 0
M  V30 11078 H 1041.59 -2.77797 -2.94297 0
M  V30 11079 H 1040.16 -1.78454 -2.56657 0
M  V30 11080 H 1039.38 -3.78714 -1.09406 0
M  V30 11081 H 1040.67 -4.73771 -1.85522 0
M  V30 11082 H 1040.07 -3.22011 -4.65108 0
M  V30 11083 H 1038.63 -4.01975 -5.13088 0
M  V30 11084 N 1042.06 0.170153 -1.56679 0
M  V30 11085 C 1042.99 1.23525 -1.93066 0
M  V30 11086 C 1044.01 1.40414 -0.823879 0
M  V30 11087 O 1045.19 1.40396 -1.10232 0
M  V30 11088 C 1042.29 2.60376 -2.16928 0
M  V30 11089 C 1041.47 2.6477 -3.4816 0
M  V30 11090 C 1040.53 3.82993 -3.60837 0
M  V30 11091 O 1039.55 3.68937 -4.33444 0
M  V30 11092 N 1040.75 4.99498 -2.95773 0
M  V30 11093 H 1043.52 0.926172 -2.8503 0
M  V30 11094 H 1041.08 0.359909 -1.57849 0
M  V30 11095 H 1043.07 3.37934 -2.22672 0
M  V30 11096 H 1041.64 2.83669 -1.31342 0
M  V30 11097 H 1040.86 1.73298 -3.54064 0
M  V30 11098 H 1042.15 2.64717 -4.34514 0
M  V30 11099 H 1041.55 5.13819 -2.36657 0
M  V30 11100 H 1040.11 5.74914 -3.07111 0
M  V30 11101 N 1043.54 1.5137 0.438746 0
M  V30 11102 C 1044.78 1.64211 1.19006 0
M  V30 11103 C 1045.12 0.356607 1.90898 0
M  V30 11104 O 1044.39 -0.643722 1.83539 0
M  V30 11105 C 1044.68 2.8445 2.20817 0
M  V30 11106 C 1044.53 4.22972 1.53018 0
M  V30 11107 C 1045.85 3.00207 3.21813 0
M  V30 11108 H 1042.97 0.597628 0.431288 0
M  V30 11109 H 1045.61 1.8385 0.479487 0
M  V30 11110 H 1043.76 2.67836 2.81418 0
M  V30 11111 H 1045.43 4.5125 0.957654 0
M  V30 11112 H 1043.67 4.25736 0.832556 0
M  V30 11113 H 1044.34 5.03094 2.27158 0
M  V30 11114 H 1046.82 3.15522 2.71266 0
M  V30 11115 H 1045.7 3.85904 3.90345 0
M  V30 11116 H 1045.96 2.12216 3.87836 0
M  V30 11117 N 1045.02 -0.694098 1.41492 0
M  V30 11118 C 1046.27 -1.4498 1.40227 0
M  V30 11119 C 1046.58 -1.95594 0.0151253 0
M  V30 11120 O 1047.78 -2.71234 -0.120146 0
M  V30 11121 C 1046.24 -2.62171 2.46565 0
M  V30 11122 C 1045.85 -2.18337 3.91194 0
M  V30 11123 C 1047.59 -3.39796 2.54439 0
M  V30 11124 C 1045.5 -3.32495 4.89082 0
M  V30 11125 H 1044.43 -0.544584 0.521483 0
M  V30 11126 H 1047.08 -0.75337 1.67322 0
M  V30 11127 H 1045.46 -3.34089 2.12604 0
M  V30 11128 H 1046.64 -1.53698 4.34412 0
M  V30 11129 H 1044.95 -1.53702 3.86994 0
M  V30 11130 H 1047.55 -4.2478 3.24755 0
M  V30 11131 H 1047.89 -3.85082 1.5817 0
M  V30 11132 H 1048.42 -2.74935 2.87499 0
M  V30 11133 H 1045.16 -2.92219 5.86761 0
M  V30 11134 H 1044.68 -3.95978 4.50512 0
M  V30 11135 H 1046.36 -3.98251 5.09907 0
M  V30 11136 N 1046.49 -1.27344 -0.928501 0
M  V30 11137 C 1047.43 -1.05797 -2.03322 0
M  V30 11138 C 1048.44 -0.0143086 -1.62794 0
M  V30 11139 O 1049.63 -0.25578 -1.76658 0
M  V30 11140 C 1046.73 -0.582673 -3.33853 0
M  V30 11141 C 1045.9 -1.69844 -4.03078 0
M  V30 11142 C 1044.96 -1.21902 -5.11885 0
M  V30 11143 O 1043.99 -1.91853 -5.35893 0
M  V30 11144 N 1045.19 -0.0742392 -5.80453 0
M  V30 11145 H 1047.95 -2.00928 -2.22369 0
M  V30 11146 H 1045.51 -1.189 -1.09883 0
M  V30 11147 H 1047.51 -0.245862 -4.03952 0
M  V30 11148 H 1046.08 0.27539 -3.11385 0
M  V30 11149 H 1045.3 -2.20557 -3.26723 0
M  V30 11150 H 1046.58 -2.4473 -4.46077 0
M  V30 11151 H 1045.98 0.509631 -5.634 0
M  V30 11152 H 1044.54 0.203399 -6.51483 0
M  V30 11153 N 1047.97 1.13488 -1.09353 0
M  V30 11154 C 1049.22 1.85022 -0.830354 0
M  V30 11155 C 1049.55 1.83266 0.64242 0
M  V30 11156 O 1048.83 1.27024 1.47293 0
M  V30 11157 C 1049.11 3.33218 -1.36521 0
M  V30 11158 C 1048.96 3.43491 -2.90404 0
M  V30 11159 C 1050.28 4.28626 -0.998381 0
M  V30 11160 H 1047.4 0.671786 -0.303105 0
M  V30 11161 H 1050.04 1.33211 -1.3548 0
M  V30 11162 H 1048.19 3.77471 -0.919117 0
M  V30 11163 H 1049.86 3.07954 -3.43456 0
M  V30 11164 H 1048.11 2.84391 -3.27573 0
M  V30 11165 H 1048.78 4.47702 -3.22905 0
M  V30 11166 H 1051.25 3.9244 -1.38311 0
M  V30 11167 H 1050.13 5.30754 -1.39968 0
M  V30 11168 H 1050.39 4.42001 0.093517 0
M  V30 11169 N 1049.45 0.880621 1.30701 0
M  V30 11170 C 1050.73 0.41712 1.91101 0
M  V30 11171 C 1051.11 -1.10177 1.80067 0
M  V30 11172 O 1050.46 -1.93513 1.21511 0
M  V30 11173 C 1050.67 0.910364 3.36917 0
M  V30 11174 C 1052.01 0.942764 4.14001 0
M  V30 11175 O 1053.04 0.856733 3.45743 0
M  V30 11176 O 1051.9 1.06913 5.3594 0
M  V30 11177 H 1048.99 0.126775 0.817225 0
M  V30 11178 H 1051.54 0.969236 1.39298 0
M  V30 11179 H 1050.31 1.95414 3.39012 0
M  V30 11180 H 1049.93 0.337164 3.96168 0
M  V30 11181 N 1050.93 -1.4397 0.641131 0
M  V30 11182 C 1052.35 -1.56607 0.30762 0
M  V30 11183 C 1052.55 -1.62694 -1.18882 0
M  V30 11184 O 1051.6 -1.57541 -1.97325 0
M  V30 11185 C 1052.91 -2.83289 1.00834 0
M  V30 11186 C 1054.46 -2.97016 0.98744 0
M  V30 11187 C 1054.94 -4.26514 1.66882 0
M  V30 11188 N 1056.43 -4.33351 1.63589 0
M  V30 11189 C 1057.16 -5.32292 2.13196 0
M  V30 11190 N 1056.66 -6.37582 2.71038 0
M  V30 11191 N 1058.45 -5.23866 2.03766 0
M  V30 11192 H 1050.6 -1.38262 1.61237 0
M  V30 11193 H 1052.87 -0.663221 0.677378 0
M  V30 11194 H 1052.57 -2.84812 2.06337 0
M  V30 11195 H 1052.45 -3.73134 0.552333 0
M  V30 11196 H 1054.83 -2.95041 -0.0591395 0
M  V30 11197 H 1054.91 -2.08493 1.48203 0
M  V30 11198 H 1054.56 -4.2925 2.71491 0
M  V30 11199 H 1054.49 -5.13912 1.14898 0
M  V30 11200 H 1056.98 -3.5788 1.21368 0
M  V30 11201 H 1057.29 -7.09378 3.06597 0
M  V30 11202 H 1055.64 -6.38239 2.75093 0
M  V30 11203 H 1058.83 -4.40524 1.58291 0
M  V30 11204 H 1059 -6.00819 2.42737 0
M  V30 11205 N 1052.41 -0.382291 -1.52893 0
M  V30 11206 C 1053.68 0.259354 -1.93873 0
M  V30 11207 C 1054.06 1.64964 -1.3172 0
M  V30 11208 O 1053.41 2.23345 -0.482611 0
M  V30 11209 C 1053.62 0.292765 -3.4777 0
M  V30 11210 C 1054.97 0.525095 -4.21341 0
M  V30 11211 O 1055.99 0.373272 -3.54239 0
M  V30 11212 O 1054.85 0.822004 -5.40283 0
M  V30 11213 H 1051.95 0.159422 -0.811489 0
M  V30 11214 H 1054.49 -0.436289 -1.63996 0
M  V30 11215 H 1053.27 -0.681341 -3.85323 0
M  V30 11216 H 1052.89 1.03362 -3.8393 0
M  V30 11217 N 1053.89 1.57202 -0.111913 0
M  V30 11218 C 1055.11 1.99297 0.555713 0
M  V30 11219 C 1055.53 0.991444 1.60673 0
M  V30 11220 O 1054.89 -0.0166672 1.82492 0
M  V30 11221 C 1054.94 3.41413 1.18826 0
M  V30 11222 O 1054.66 4.37733 0.179261 0
M  V30 11223 C 1056.16 3.98602 1.93989 0
M  V30 11224 H 1053.38 0.654543 0.147695 0
M  V30 11225 H 1055.92 2.03557 -0.196163 0
M  V30 11226 H 1054.08 3.38115 1.89096 0
M  V30 11227 H 1054.49 5.20606 0.637935 0
M  V30 11228 H 1055.97 5.00143 2.33584 0
M  V30 11229 H 1056.44 3.37349 2.81233 0
M  V30 11230 H 1057.05 4.05424 1.28497 0
M  V30 11231 N 1055.36 -0.161842 1.56767 0
M  V30 11232 C 1056.61 -0.875278 1.81719 0
M  V30 11233 C 1056.93 -1.82998 0.690739 0
M  V30 11234 O 1058.13 -2.58648 0.82545 0
M  V30 11235 C 1056.59 -1.60703 3.22029 0
M  V30 11236 C 1056.2 -0.695486 4.42569 0
M  V30 11237 C 1057.94 -2.30813 3.56266 0
M  V30 11238 C 1055.85 -1.42801 5.73901 0
M  V30 11239 H 1054.78 -0.330591 0.677662 0
M  V30 11240 H 1057.43 -0.128112 1.83052 0
M  V30 11241 H 1055.81 -2.39929 3.1504 0
M  V30 11242 H 1056.98 0.0604882 4.6076 0
M  V30 11243 H 1055.3 -0.10356 4.16271 0
M  V30 11244 H 1057.9 -2.86229 4.51638 0
M  V30 11245 H 1058.24 -3.06603 2.81604 0
M  V30 11246 H 1058.77 -1.5852 3.64851 0
M  V30 11247 H 1055.51 -0.712253 6.51619 0
M  V30 11248 H 1055.03 -2.15707 5.5967 0
M  V30 11249 H 1056.71 -1.97295 6.16185 0
M  V30 11250 N 1056.84 -1.516 -0.430713 0
M  V30 11251 C 1057.77 -1.76342 -1.53054 0
M  V30 11252 C 1058.75 -0.61349 -1.58652 0
M  V30 11253 O 1059.94 -0.856888 -1.74273 0
M  V30 11254 C 1057.07 -1.8945 -2.91077 0
M  V30 11255 C 1056.02 -3.04928 -3.00339 0
M  V30 11256 C 1055.35 -3.03228 -4.40405 0
M  V30 11257 C 1056.65 -4.44777 -2.73808 0
M  V30 11258 H 1058.34 -2.68435 -1.326 0
M  V30 11259 H 1055.89 -1.29171 -0.636466 0
M  V30 11260 H 1057.84 -2.05343 -3.67984 0
M  V30 11261 H 1056.56 -0.940114 -3.12777 0
M  V30 11262 H 1055.22 -2.88751 -2.25872 0
M  V30 11263 H 1054.87 -2.05553 -4.59083 0
M  V30 11264 H 1054.57 -3.80776 -4.47531 0
M  V30 11265 H 1056.1 -3.21222 -5.19277 0
M  V30 11266 H 1057.51 -4.6127 -3.40445 0
M  V30 11267 H 1055.91 -5.2408 -2.92335 0
M  V30 11268 H 1056.98 -4.54358 -1.69372 0
M  V30 11269 N 1058.32 0.686584 -1.41858 0
M  V30 11270 C 1059.57 1.44879 -1.41908 0
M  V30 11271 C 1059.9 1.94175 -0.0311408 0
M  V30 11272 O 1059.17 1.70131 0.942646 0
M  V30 11273 C 1059.46 2.65428 -2.43352 0
M  V30 11274 C 1059.31 2.2184 -3.91289 0
M  V30 11275 C 1060.63 3.67635 -2.41934 0
M  V30 11276 H 1057.75 0.525477 -0.516762 0
M  V30 11277 H 1060.39 0.781263 -1.73194 0
M  V30 11278 H 1058.54 3.2238 -2.16803 0
M  V30 11279 H 1060.21 1.70146 -4.28775 0
M  V30 11280 H 1058.45 1.53531 -4.05722 0
M  V30 11281 H 1059.13 3.08376 -4.5783 0
M  V30 11282 H 1061.6 3.20376 -2.65516 0
M  V30 11283 H 1060.48 4.49579 -3.14913 0
M  V30 11284 H 1060.74 4.17953 -1.44111 0
M  V30 11285 N 1059.8 1.27835 0.921735 0
M  V30 11286 C 1061.02 1.17465 1.70929 0
M  V30 11287 C 1061.45 -0.264171 1.86236 0
M  V30 11288 O 1060.81 -1.19124 1.36671 0
M  V30 11289 C 1060.85 1.8697 3.08342 0
M  V30 11290 O 1059.96 1.17173 3.95404 0
M  V30 11291 H 1059.3 0.408206 0.523702 0
M  V30 11292 H 1061.83 1.69013 1.15307 0
M  V30 11293 H 1061.84 1.94564 3.58621 0
M  V30 11294 H 1060.51 2.91633 2.96518 0
M  V30 11295 H 1059.09 1.17688 3.53842 0
M  V30 11296 N 1061.28 -1.12907 1.09954 0
M  V30 11297 C 1062.52 -1.84306 0.838912 0
M  V30 11298 C 1062.85 -1.83825 -0.635508 0
M  V30 11299 O 1062.11 -1.27556 -1.48418 0
M  V30 11300 C 1062.4 -3.31885 1.32616 0
M  V30 11301 C 1062.07 -3.52542 2.81114 0
M  V30 11302 C 1060.73 -3.57888 3.21667 0
M  V30 11303 C 1063.08 -3.60065 3.76833 0
M  V30 11304 C 1060.41 -3.68296 4.567 0
M  V30 11305 C 1062.76 -3.72001 5.11662 0
M  V30 11306 C 1061.43 -3.75602 5.51797 0
M  V30 11307 H 1060.7 -0.674422 0.30698 0
M  V30 11308 H 1063.35 -1.33261 1.37527 0
M  V30 11309 H 1061.65 -3.85318 0.709719 0
M  V30 11310 H 1063.35 -3.85588 1.10105 0
M  V30 11311 H 1059.94 -3.4904 2.48735 0
M  V30 11312 H 1064.12 -3.55209 3.46612 0
M  V30 11313 H 1059.38 -3.69352 4.87226 0
M  V30 11314 H 1063.55 -3.76765 5.8568 0
M  V30 11315 H 1061.18 -3.83419 6.56425 0
M  V30 11316 N 1062.75 -0.88754 -1.30232 0
M  V30 11317 C 1063.66 -0.360333 -2.31816 0
M  V30 11318 C 1064.68 0.538741 -1.6545 0
M  V30 11319 O 1065.86 0.431246 -1.96729 0
M  V30 11320 C 1062.92 0.414336 -3.44215 0
M  V30 11321 C 1061.98 -0.514799 -4.26202 0
M  V30 11322 C 1061.21 0.222994 -5.33234 0
M  V30 11323 O 1061.44 1.44871 -5.51696 0
M  V30 11324 O 1060.37 -0.428221 -6.00375 0
M  V30 11325 H 1064.2 -1.20279 -2.78867 0
M  V30 11326 H 1061.78 -0.651459 -1.34448 0
M  V30 11327 H 1063.66 0.852859 -4.12679 0
M  V30 11328 H 1062.34 1.23305 -2.99295 0
M  V30 11329 H 1061.25 -1.00219 -3.60426 0
M  V30 11330 H 1062.58 -1.29959 -4.74733 0
M  V30 11331 N 1064.23 1.43628 -0.648757 0
M  V30 11332 C 1065.65 1.56442 -0.315921 0
M  V30 11333 C 1065.85 1.63322 1.18018 0
M  V30 11334 O 1064.9 1.58585 1.96487 0
M  V30 11335 C 1066.22 2.82751 -1.02335 0
M  V30 11336 C 1067.77 2.96488 -1.00318 0
M  V30 11337 C 1068.24 4.25623 -1.69142 0
M  V30 11338 N 1069.73 4.32477 -1.65885 0
M  V30 11339 C 1070.47 5.31154 -2.16016 0
M  V30 11340 N 1069.96 6.36135 -2.74415 0
M  V30 11341 N 1071.76 5.22778 -2.06541 0
M  V30 11342 H 1063.91 1.37405 -1.61968 0
M  V30 11343 H 1066.17 0.65962 -0.680886 0
M  V30 11344 H 1065.88 2.83714 -2.07844 0
M  V30 11345 H 1065.75 3.72836 -0.572114 0
M  V30 11346 H 1068.14 2.95068 0.0434919 0
M  V30 11347 H 1068.22 2.07704 -1.49307 0
M  V30 11348 H 1067.86 4.27804 -2.73763 0
M  V30 11349 H 1067.79 5.13296 -1.17622 0
M  V30 11350 H 1070.28 3.57232 -1.23264 0
M  V30 11351 H 1070.6 7.07743 -3.10355 0
M  V30 11352 H 1068.94 6.36771 -2.78474 0
M  V30 11353 H 1072.13 4.39678 -1.60625 0
M  V30 11354 H 1072.3 5.99523 -2.45919 0
M  V30 11355 N 1065.71 0.390394 1.52688 0
M  V30 11356 C 1066.95 -0.191207 2.03504 0
M  V30 11357 C 1067.31 -1.43952 1.27051 0
M  V30 11358 O 1068.52 -2.09835 1.67996 0
M  V30 11359 C 1066.79 -0.451552 3.54536 0
M  V30 11360 S 1068.35 -1.00328 4.27176 0
M  V30 11361 H 1065.16 -0.0537587 0.708965 0
M  V30 11362 H 1067.77 0.538993 1.87923 0
M  V30 11363 H 1066.47 0.464061 4.07768 0
M  V30 11364 H 1066 -1.21015 3.74325 0
M  V30 11365 H 1068.02 -2.28555 4.40428 0
M  V30 11366 N 1067.19 -1.57141 0.120249 0
M  V30 11367 C 1068.43 -1.95527 -0.538245 0
M  V30 11368 C 1068.77 -1.00373 -1.6625 0
M  V30 11369 O 1068.04 -0.0411734 -1.94456 0
M  V30 11370 C 1068.33 -3.43843 -1.06976 0
M  V30 11371 C 1068.18 -4.49771 0.0511596 0
M  V30 11372 C 1069.5 -3.94035 -1.96022 0
M  V30 11373 H 1066.62 -0.710958 -0.194183 0
M  V30 11374 H 1069.26 -1.88986 0.196061 0
M  V30 11375 H 1067.41 -3.49548 -1.69553 0
M  V30 11376 H 1069.08 -4.56163 0.686503 0
M  V30 11377 H 1067.32 -4.27882 0.714127 0
M  V30 11378 H 1067.99 -5.50812 -0.361995 0
M  V30 11379 H 1070.47 -3.9064 -1.43315 0
M  V30 11380 H 1069.35 -4.98329 -2.3013 0
M  V30 11381 H 1069.61 -3.34803 -2.8872 0
M  V30 11382 N 1068.67 0.153526 -1.5685 0
M  V30 11383 C 1070.08 0.505939 -1.51368 0
M  V30 11384 C 1070.28 1.83721 -0.82757 0
M  V30 11385 O 1069.34 2.49385 -0.395364 0
M  V30 11386 C 1070.65 0.522269 -2.9613 0
M  V30 11387 C 1072.2 0.608238 -3.07033 0
M  V30 11388 C 1072.67 0.655292 -4.53288 0
M  V30 11389 N 1074.17 0.717695 -4.57606 0
M  V30 11390 C 1074.9 0.774977 -5.68139 0
M  V30 11391 N 1074.4 0.792003 -6.88258 0
M  V30 11392 N 1076.19 0.81536 -5.56155 0
M  V30 11393 H 1068.34 -0.71919 -1.99853 0
M  V30 11394 H 1070.6 -0.261466 -0.91123 0
M  V30 11395 H 1070.31 -0.387595 -3.49558 0
M  V30 11396 H 1070.18 1.3625 -3.51733 0
M  V30 11397 H 1072.57 1.50852 -2.53629 0
M  V30 11398 H 1072.65 -0.259014 -2.54485 0
M  V30 11399 H 1072.3 -0.240809 -5.07329 0
M  V30 11400 H 1072.23 1.53894 -5.03611 0
M  V30 11401 H 1074.72 0.7121 -3.7113 0
M  V30 11402 H 1075.03 0.837378 -7.6825 0
M  V30 11403 H 1073.37 0.759986 -6.90832 0
M  V30 11404 H 1076.57 0.799183 -4.61227 0
M  V30 11405 H 1076.74 0.856537 -6.42314 0
M  V30 11406 N 1070.14 1.51827 0.422667 0
M  V30 11407 C 1071.39 1.6445 1.16786 0
M  V30 11408 C 1071.71 0.373792 1.91995 0
M  V30 11409 O 1072.91 0.379621 2.68833 0
M  V30 11410 C 1071.37 2.90488 2.12473 0
M  V30 11411 C 1070.98 4.24617 1.42844 0
M  V30 11412 C 1072.72 3.12472 2.87335 0
M  V30 11413 C 1070.63 5.41791 2.371 0
M  V30 11414 H 1069.56 0.612561 0.439641 0
M  V30 11415 H 1072.21 1.78305 0.433534 0
M  V30 11416 H 1070.59 2.703 2.89402 0
M  V30 11417 H 1071.76 4.55239 0.71372 0
M  V30 11418 H 1070.08 4.08628 0.800769 0
M  V30 11419 H 1072.68 3.9719 3.57973 0
M  V30 11420 H 1073.02 2.26148 3.49518 0
M  V30 11421 H 1073.55 3.33069 2.17509 0
M  V30 11422 H 1070.29 6.3042 1.79584 0
M  V30 11423 H 1069.81 5.15526 3.06583 0
M  V30 11424 H 1071.49 5.74329 2.97918 0
M  V30 11425 N 1071.62 -0.679052 1.4222 0
M  V30 11426 C 1072.87 -1.44125 1.42674 0
M  V30 11427 C 1073.2 -1.94156 0.041438 0
M  V30 11428 O 1072.48 -1.70628 -0.93361 0
M  V30 11429 C 1072.76 -2.64133 2.44756 0
M  V30 11430 C 1072.61 -2.19761 3.9246 0
M  V30 11431 C 1073.93 -3.66347 2.43881 0
M  V30 11432 H 1071.05 -0.522729 0.519541 0
M  V30 11433 H 1073.69 -0.772067 1.73606 0
M  V30 11434 H 1071.84 -3.21225 2.1851 0
M  V30 11435 H 1073.51 -1.67869 4.29671 0
M  V30 11436 H 1071.76 -1.51377 4.06531 0
M  V30 11437 H 1072.43 -3.05944 4.59459 0
M  V30 11438 H 1074.9 -3.18963 2.67211 0
M  V30 11439 H 1073.78 -4.47902 3.17293 0
M  V30 11440 H 1074.04 -4.17183 1.46325 0
M  V30 11441 N 1073.1 -1.28322 -0.914942 0
M  V30 11442 C 1074.05 -1.12003 -2.03858 0
M  V30 11443 C 1075.04 -0.0396287 -1.69354 0
M  V30 11444 O 1076.25 -0.198309 -1.78904 0
M  V30 11445 H 1072.62 -0.34552 -0.667922 0
M  V30 11446 H 1074.59 -2.07168 -2.14765 0
M  V30 11447 C 1073.34 -0.797402 -3.38433 0
M  V30 11448 H 1072.67 -1.62071 -3.65476 0
M  V30 11449 H 1074.11 -0.723165 -4.17787 0
M  V30 11450 C 1072.57 0.498807 -3.33187 0
M  V30 11451 O 1073.1 1.52946 -3.71444 0
M  V30 11452 N 1071.3 0.499101 -2.86282 0
M  V30 11453 H 1070.85 -0.340056 -2.55346 0
M  V30 11454 H 1070.81 1.36641 -2.83155 0
M  V30 11455 N 1074.58 1.12322 -1.10551 0
M  V30 11456 C 1075.51 2.17221 -0.699299 0
M  V30 11457 C 1076.49 1.59809 0.299973 0
M  V30 11458 O 1077.67 1.87451 0.198589 0
M  V30 11459 C 1074.8 3.38685 -0.0320136 0
M  V30 11460 C 1073.85 4.14732 -0.99495 0
M  V30 11461 S 1074.68 4.72879 -2.51288 0
M  V30 11462 C 1075.84 5.97676 -1.85834 0
M  V30 11463 H 1076.07 2.51342 -1.5879 0
M  V30 11464 H 1073.6 1.23802 -0.92263 0
M  V30 11465 H 1075.56 4.09034 0.346656 0
M  V30 11466 H 1074.22 3.02842 0.833407 0
M  V30 11467 H 1073.41 5.01754 -0.475331 0
M  V30 11468 H 1073.02 3.50098 -1.31559 0
M  V30 11469 H 1075.31 6.6698 -1.18927 0
M  V30 11470 H 1076.25 6.54266 -2.70817 0
M  V30 11471 H 1076.66 5.48793 -1.32237 0
M  V30 11472 N 1076.06 0.894434 1.2976 0
M  V30 11473 C 1076.99 0.325525 2.26877 0
M  V30 11474 C 1078 -0.525218 1.54095 0
M  V30 11475 O 1079.19 -0.343231 1.75169 0
M  V30 11476 C 1076.29 -0.554952 3.34325 0
M  V30 11477 C 1075.46 0.268868 4.36573 0
M  V30 11478 C 1074.52 -0.543601 5.23385 0
M  V30 11479 O 1073.55 0.0370454 5.69188 0
M  V30 11480 N 1074.75 -1.85079 5.50205 0
M  V30 11481 H 1077.52 1.16021 2.76332 0
M  V30 11482 H 1075.08 0.758382 1.43039 0
M  V30 11483 H 1077.07 -1.10476 3.89329 0
M  V30 11484 H 1075.64 -1.29031 2.84727 0
M  V30 11485 H 1074.86 1.0001 3.81302 0
M  V30 11486 H 1076.15 0.833248 5.01931 0
M  V30 11487 H 1075.54 -2.34533 5.14792 0
M  V30 11488 H 1074.1 -2.34784 6.08046 0
M  V30 11489 N 1077.53 -1.43282 0.656365 0
M  V30 11490 C 1078.78 -2.01378 0.170702 0
M  V30 11491 C 1079.1 -1.52063 -1.22073 0
M  V30 11492 O 1078.37 -0.73456 -1.81607 0
M  V30 11493 H 1076.95 -0.744577 0.0601168 0
M  V30 11494 H 1079.62 -1.75449 0.848739 0
M  V30 11495 H 1078.71 -3.11701 0.157745 0
M  V30 11496 N 1079.01 -0.398486 -1.52479 0
M  V30 11497 C 1079.92 0.439328 -2.3045 0
M  V30 11498 C 1080.94 1.06322 -1.37738 0
M  V30 11499 O 1082.12 1.06704 -1.7081 0
M  V30 11500 C 1079.18 1.54655 -3.10294 0
M  V30 11501 C 1078.24 0.946824 -4.18729 0
M  V30 11502 C 1077.47 2.00129 -4.94757 0
M  V30 11503 O 1077.7 3.2178 -4.70971 0
M  V30 11504 O 1076.63 1.61345 -5.79872 0
M  V30 11505 H 1080.46 -0.196118 -3.03066 0
M  V30 11506 H 1078.04 -0.161961 -1.4852 0
M  V30 11507 H 1079.92 2.18958 -3.60049 0
M  V30 11508 H 1078.6 2.1668 -2.40482 0
M  V30 11509 H 1077.51 0.266802 -3.73147 0
M  V30 11510 H 1078.84 0.370664 -4.90802 0
M  V30 11511 N 1080.49 1.57075 -0.12858 0
M  V30 11512 C 1081.9 1.82468 0.39526 0
M  V30 11513 C 1082.25 1.0463 1.65973 0
M  V30 11514 O 1081.38 0.285835 2.14504 0
M  V30 11515 C 1081.97 3.30976 0.723889 0
M  V30 11516 C 1080.53 3.57016 1.19232 0
M  V30 11517 C 1079.68 2.76534 0.205907 0
M  V30 11518 H 1082.63 1.54711 -0.353571 0
M  V30 11519 H 1082.65 3.46127 1.58039 0
M  V30 11520 H 1082.16 3.87602 -0.196595 0
M  V30 11521 H 1080.26 3.05758 2.12938 0
M  V30 11522 H 1080.38 4.65558 1.13103 0
M  V30 11523 H 1078.74 2.45038 0.694872 0
M  V30 11524 H 1079.52 3.35923 -0.707842 0
M  V30 11525 N 1081.97 -0.145205 1.5693 0
M  V30 11526 C 1083.2 -0.872398 1.87608 0
M  V30 11527 C 1083.61 -1.74657 0.716975 0
M  V30 11528 O 1082.97 -1.79792 -0.3132 0
M  V30 11529 C 1083.02 -1.72762 3.17546 0
M  V30 11530 O 1082.74 -0.888681 4.28992 0
M  V30 11531 C 1084.24 -2.56224 3.61751 0
M  V30 11532 H 1081.46 -0.252166 0.621815 0
M  V30 11533 H 1084.01 -0.137456 2.04038 0
M  V30 11534 H 1082.16 -2.41561 3.02865 0
M  V30 11535 H 1082.58 -1.47601 5.03303 0
M  V30 11536 H 1084.05 -3.11804 4.55502 0
M  V30 11537 H 1084.53 -3.32347 2.87127 0
M  V30 11538 H 1085.13 -1.92714 3.79133 0
M  V30 11539 N 1083.45 -1.52049 -0.414609 0
M  V30 11540 C 1084.41 -1.74382 -1.4874 0
M  V30 11541 C 1085.41 -0.613701 -1.48628 0
M  V30 11542 O 1086.6 -0.88152 -1.50249 0
M  V30 11543 C 1083.73 -1.82116 -2.88178 0
M  V30 11544 H 1084.93 -2.70147 -1.30233 0
M  V30 11545 H 1082.48 -1.42382 -0.644756 0
M  V30 11546 H 1083.21 -0.882457 -3.12063 0
M  V30 11547 H 1083 -2.64268 -2.89663 0
M  V30 11548 H 1084.49 -2.01155 -3.65959 0
M  V30 11549 N 1084.93 0.6715 -1.42579 0
M  V30 11550 C 1086.15 1.45972 -1.46628 0
M  V30 11551 C 1086.57 1.88636 -0.0785986 0
M  V30 11552 O 1085.93 1.58345 0.907372 0
M  V30 11553 C 1085.98 2.70668 -2.39627 0
M  V30 11554 O 1085.7 2.29793 -3.72997 0
M  V30 11555 C 1087.2 3.64201 -2.52731 0
M  V30 11556 H 1084.42 0.449044 -0.498598 0
M  V30 11557 H 1086.96 0.824811 -1.87129 0
M  V30 11558 H 1085.12 3.3034 -2.02371 0
M  V30 11559 H 1085.53 3.10341 -4.22834 0
M  V30 11560 H 1087.01 4.48412 -3.21918 0
M  V30 11561 H 1087.48 4.10323 -1.56626 0
M  V30 11562 H 1088.09 3.1042 -2.90722 0
M  V30 11563 N 1086.4 1.28806 0.908124 0
M  V30 11564 C 1087.33 1.15758 2.02787 0
M  V30 11565 C 1088.31 0.053911 1.70015 0
M  V30 11566 O 1089.5 0.231901 1.9281 0
M  V30 11567 C 1086.63 0.824526 3.37371 0
M  V30 11568 C 1085.58 1.88359 3.84324 0
M  V30 11569 C 1084.91 1.40404 5.15937 0
M  V30 11570 C 1086.21 3.29108 4.05568 0
M  V30 11571 H 1087.9 2.09431 2.13961 0
M  V30 11572 H 1085.45 1.00831 1.02806 0
M  V30 11573 H 1087.4 0.71999 4.15204 0
M  V30 11574 H 1086.13 -0.147902 3.26265 0
M  V30 11575 H 1084.79 1.97736 3.087 0
M  V30 11576 H 1084.43 0.420515 5.01239 0
M  V30 11577 H 1084.13 2.11224 5.48323 0
M  V30 11578 H 1085.66 1.31283 5.9632 0
M  V30 11579 H 1087.07 3.2262 4.73909 0
M  V30 11580 H 1085.47 3.97812 4.49294 0
M  V30 11581 H 1086.54 3.72709 3.10187 0
M  V30 11582 N 1087.88 -1.11734 1.11145 0
M  V30 11583 C 1088.84 -2.15868 0.770303 0
M  V30 11584 C 1089.84 -1.59438 -0.208842 0
M  V30 11585 O 1091.03 -1.74193 0.0152516 0
M  V30 11586 C 1088.17 -3.40603 0.142303 0
M  V30 11587 H 1089.36 -2.4756 1.69276 0
M  V30 11588 H 1086.91 -1.26867 0.912929 0
M  V30 11589 H 1087.65 -3.14517 -0.790526 0
M  V30 11590 H 1087.43 -3.8284 0.847087 0
M  V30 11591 H 1088.92 -4.17523 -0.0803608 0
M  V30 11592 N 1089.36 -0.901303 -1.29284 0
M  V30 11593 C 1090.77 -0.576317 -1.77582 0
M  V30 11594 C 1091.12 0.908078 -1.73921 0
M  V30 11595 O 1090.25 1.71006 -1.32611 0
M  V30 11596 C 1090.84 -1.03938 -3.22463 0
M  V30 11597 C 1089.4 -0.765533 -3.68533 0
M  V30 11598 C 1088.55 -1.21318 -2.49354 0
M  V30 11599 H 1091.5 -1.08386 -1.15923 0
M  V30 11600 H 1091.52 -0.375367 -3.78644 0
M  V30 11601 H 1091.03 -2.11977 -3.25096 0
M  V30 11602 H 1089.13 0.302176 -3.71373 0
M  V30 11603 H 1089.25 -1.36454 -4.59257 0
M  V30 11604 H 1087.61 -0.632141 -2.46731 0
M  V30 11605 H 1088.39 -2.30165 -2.54714 0
M  V30 11606 N 1090.84 1.42931 -0.663954 0
M  V30 11607 C 1091.75 2.3459 0.0214234 0
M  V30 11608 C 1092.76 1.54487 0.800611 0
M  V30 11609 O 1093.94 1.87098 0.74541 0
M  V30 11610 C 1091 3.32896 0.968556 0
M  V30 11611 C 1090.07 4.28901 0.185108 0
M  V30 11612 C 1089.3 5.2251 1.08713 0
M  V30 11613 O 1089.52 5.20795 2.32655 0
M  V30 11614 O 1088.46 5.99347 0.553758 0
M  V30 11615 H 1092.28 2.94714 -0.733308 0
M  V30 11616 H 1089.87 1.43252 -0.424159 0
M  V30 11617 H 1091.75 3.93318 1.51257 0
M  V30 11618 H 1090.42 2.75261 1.70333 0
M  V30 11619 H 1089.33 3.71926 -0.402752 0
M  V30 11620 H 1090.66 4.89547 -0.510319 0
M  V30 11621 N 1092.32 0.406567 1.52266 0
M  V30 11622 C 1093.25 -0.411314 2.29849 0
M  V30 11623 C 1094.23 -1.04838 1.33952 0
M  V30 11624 O 1095.41 -1.05788 1.62857 0
M  V30 11625 C 1092.54 -1.52961 3.11802 0
M  V30 11626 C 1091.5 -1.01768 4.15725 0
M  V30 11627 C 1090.82 -2.22938 4.86007 0
M  V30 11628 C 1092.12 -0.073515 5.22248 0
M  V30 11629 H 1093.82 0.236054 2.98468 0
M  V30 11630 H 1091.36 0.114968 1.4354 0
M  V30 11631 H 1093.31 -2.10874 3.64843 0
M  V30 11632 H 1092.04 -2.20482 2.40947 0
M  V30 11633 H 1090.7 -0.46097 3.6369 0
M  V30 11634 H 1090.35 -2.89007 4.11684 0
M  V30 11635 H 1090.05 -1.89338 5.5626 0
M  V30 11636 H 1091.57 -2.81462 5.41859 0
M  V30 11637 H 1092.98 -0.561367 5.70545 0
M  V30 11638 H 1091.38 0.173551 5.99849 0
M  V30 11639 H 1092.45 0.872524 4.76985 0
M  V30 11640 N 1093.79 -1.57004 0.136909 0
M  V30 11641 C 1095.02 -2.00156 -0.523936 0
M  V30 11642 C 1095.44 -1.01688 -1.59075 0
M  V30 11643 O 1094.79 -0.0123678 -1.82496 0
M  V30 11644 C 1094.85 -3.4326 -1.13379 0
M  V30 11645 O 1094.57 -4.37963 -0.109598 0
M  V30 11646 C 1096.07 -4.01637 -1.87623 0
M  V30 11647 H 1093.29 -0.65681 -0.137263 0
M  V30 11648 H 1095.83 -2.03219 0.228522 0
M  V30 11649 H 1093.99 -3.4108 -1.83693 0
M  V30 11650 H 1094.4 -5.21555 -0.55503 0
M  V30 11651 H 1095.87 -5.03795 -2.25597 0
M  V30 11652 H 1096.35 -3.41781 -2.75831 0
M  V30 11653 H 1096.96 -4.07417 -1.22031 0
M  V30 11654 N 1095.27 0.136881 -1.57004 0
M  V30 11655 C 1096.52 0.847775 -1.83899 0
M  V30 11656 C 1096.85 1.80709 -0.719332 0
M  V30 11657 O 1096.1 1.93527 0.290838 0
M  V30 11658 C 1096.4 1.64711 -3.17183 0
M  V30 11659 C 1096.07 0.833683 -4.43126 0
M  V30 11660 C 1094.73 0.609306 -4.77327 0
M  V30 11661 C 1097.08 0.265504 -5.20523 0
M  V30 11662 C 1094.41 -0.193793 -5.8638 0
M  V30 11663 C 1096.76 -0.524688 -6.3042 0
M  V30 11664 C 1095.43 -0.759548 -6.63164 0
M  V30 11665 H 1094.7 0.310223 -0.672936 0
M  V30 11666 H 1097.34 0.110937 -1.91178 0
M  V30 11667 H 1095.65 2.45435 -3.054 0
M  V30 11668 H 1097.34 2.20081 -3.3521 0
M  V30 11669 H 1093.93 1.01864 -4.16319 0
M  V30 11670 H 1098.12 0.426109 -4.94467 0
M  V30 11671 H 1093.37 -0.385153 -6.10186 0
M  V30 11672 H 1097.55 -0.972033 -6.89583 0
M  V30 11673 H 1095.18 -1.38369 -7.47501 0
M  V30 11674 N 1096.75 1.52266 0.40654 0
M  V30 11675 C 1098.03 1.57018 1.1664 0
M  V30 11676 C 1098.41 0.352752 2.08132 0
M  V30 11677 O 1097.76 -0.660208 2.18754 0
M  V30 11678 C 1097.97 2.90016 1.94143 0
M  V30 11679 C 1099.31 3.43112 2.50119 0
M  V30 11680 O 1100.34 2.91773 2.0432 0
M  V30 11681 O 1099.2 4.32765 3.33731 0
M  V30 11682 H 1096.29 0.632574 0.532709 0
M  V30 11683 H 1098.84 1.64595 0.413111 0
M  V30 11684 H 1097.61 3.70071 1.27134 0
M  V30 11685 H 1097.23 2.85744 2.76471 0
M  V30 11686 N 1098.23 -0.663929 1.42933 0
M  V30 11687 C 1099.48 -1.42393 1.43981 0
M  V30 11688 C 1099.8 -1.94407 0.0601802 0
M  V30 11689 O 1099.06 -1.72019 -0.933172 0
M  V30 11690 C 1099.36 -2.62976 2.4203 0
M  V30 11691 C 1099.02 -2.29441 3.88159 0
M  V30 11692 C 1097.69 -2.20007 4.27961 0
M  V30 11693 C 1100.04 -2.02413 4.8029 0
M  V30 11694 C 1097.37 -1.81686 5.57859 0
M  V30 11695 C 1099.72 -1.65592 6.10542 0
M  V30 11696 C 1098.38 -1.54676 6.49332 0
M  V30 11697 H 1097.65 -0.521051 0.526865 0
M  V30 11698 H 1100.3 -0.756042 1.75944 0
M  V30 11699 H 1098.6 -3.34847 2.03433 0
M  V30 11700 H 1100.3 -3.21174 2.40101 0
M  V30 11701 H 1096.89 -2.3769 3.56653 0
M  V30 11702 H 1101.07 -2.08628 4.5032 0
M  V30 11703 H 1096.33 -1.71812 5.86763 0
M  V30 11704 H 1100.5 -1.43707 6.81411 0
M  V30 11705 H 1098.13 -1.24752 7.49894 0
M  V30 11706 N 1099.71 -1.29285 -0.901281 0
M  V30 11707 C 1101.12 -1.15499 -1.46686 0
M  V30 11708 C 1101.47 0.250446 -1.94595 0
M  V30 11709 O 1100.59 1.14581 -1.83576 0
M  V30 11710 C 1101.19 -2.0906 -2.66607 0
M  V30 11711 C 1099.75 -1.99301 -3.19306 0
M  V30 11712 C 1098.89 -2.00079 -1.91999 0
M  V30 11713 H 1101.85 -1.41793 -0.712773 0
M  V30 11714 H 1101.87 -1.6619 -3.42288 0
M  V30 11715 H 1101.38 -3.11341 -2.31707 0
M  V30 11716 H 1099.48 -1.00103 -3.58901 0
M  V30 11717 H 1099.59 -2.86885 -3.8371 0
M  V30 11718 H 1097.96 -1.44655 -2.09636 0
M  V30 11719 H 1098.74 -3.04061 -1.59379 0
M  V30 11720 N 1101.18 1.11143 -1.11736 0
M  V30 11721 C 1102.43 1.82311 -0.862875 0
M  V30 11722 C 1102.75 1.85735 0.613326 0
M  V30 11723 O 1103.95 2.53034 0.984168 0
M  V30 11724 C 1102.41 3.27427 -1.49396 0
M  V30 11725 C 1102.02 3.32323 -3.00443 0
M  V30 11726 C 1103.76 4.03474 -1.31944 0
M  V30 11727 C 1101.67 4.71855 -3.56521 0
M  V30 11728 H 1100.6 0.683124 -0.31915 0
M  V30 11729 H 1103.25 1.25045 -1.34298 0
M  V30 11730 H 1101.63 3.84644 -0.941528 0
M  V30 11731 H 1102.8 2.84971 -3.62117 0
M  V30 11732 H 1101.12 2.69758 -3.17206 0
M  V30 11733 H 1103.72 5.06528 -1.71271 0
M  V30 11734 H 1104.06 4.15473 -0.262339 0
M  V30 11735 H 1104.59 3.52652 -1.84069 0
M  V30 11736 H 1101.33 4.65054 -4.61958 0
M  V30 11737 H 1100.85 5.19604 -2.99619 0
M  V30 11738 H 1102.53 5.40816 -3.55144 0
M  V30 11739 N 1102.66 0.908147 1.28804 0
M  V30 11740 C 1103.57 0.397167 2.31214 0
M  V30 11741 C 1104.59 -0.512352 1.66286 0
M  V30 11742 O 1105.76 -0.399893 1.9739 0
M  V30 11743 C 1102.83 -0.359522 3.44831 0
M  V30 11744 C 1101.89 0.582539 4.25329 0
M  V30 11745 C 1101.12 -0.138133 5.33521 0
M  V30 11746 O 1101.35 -1.36076 5.53931 0
M  V30 11747 O 1100.28 0.523682 5.99618 0
M  V30 11748 H 1104.11 1.247 2.76918 0
M  V30 11749 H 1101.69 0.672766 1.33395 0
M  V30 11750 H 1103.57 -0.787098 4.13984 0
M  V30 11751 H 1102.25 -1.18528 3.01219 0
M  V30 11752 H 1101.16 1.0594 3.58786 0
M  V30 11753 H 1102.49 1.37495 4.72605 0
M  V30 11754 N 1104.14 -1.42577 0.671525 0
M  V30 11755 C 1105.37 -2.05924 0.200731 0
M  V30 11756 C 1105.78 -1.50434 -1.14083 0
M  V30 11757 O 1105.14 -0.642845 -1.70803 0
M  V30 11758 C 1105.19 -3.61289 0.123505 0
M  V30 11759 O 1104.91 -4.1472 1.41205 0
M  V30 11760 C 1106.41 -4.41743 -0.371178 0
M  V30 11761 H 1103.63 -0.663746 0.0983958 0
M  V30 11762 H 1106.18 -1.82771 0.917338 0
M  V30 11763 H 1104.33 -3.83565 -0.543769 0
M  V30 11764 H 1104.75 -5.0856 1.28325 0
M  V30 11765 H 1106.22 -5.50731 -0.374128 0
M  V30 11766 H 1106.7 -4.16092 -1.40585 0
M  V30 11767 H 1107.3 -4.24478 0.264244 0
M  V30 11768 N 1105.62 -0.414636 -1.52048 0
M  V30 11769 C 1106.86 0.159585 -2.02171 0
M  V30 11770 C 1107.2 1.44321 -1.29943 0
M  V30 11771 O 1106.47 1.90185 -0.407402 0
M  V30 11772 C 1106.76 0.401655 -3.57853 0
M  V30 11773 C 1106.61 -0.899026 -4.40724 0
M  V30 11774 C 1107.93 1.1814 -4.23947 0
M  V30 11775 H 1105.05 0.0565257 -0.734829 0
M  V30 11776 H 1107.69 -0.549183 -1.8189 0
M  V30 11777 H 1105.84 1.00541 -3.75265 0
M  V30 11778 H 1107.51 -1.53502 -4.35011 0
M  V30 11779 H 1105.75 -1.50877 -4.06717 0
M  V30 11780 H 1106.42 -0.683974 -5.47746 0
M  V30 11781 H 1108.9 0.670203 -4.10667 0
M  V30 11782 H 1107.78 1.31953 -5.32804 0
M  V30 11783 H 1108.04 2.2035 -3.83273 0
M  V30 11784 N 1107.1 1.56929 -0.145233 0
M  V30 11785 C 1108.34 1.96358 0.50707 0
M  V30 11786 C 1108.68 1.03005 1.64632 0
M  V30 11787 O 1107.95 0.0721045 1.94366 0
M  V30 11788 C 1108.23 3.45502 1.01492 0
M  V30 11789 C 1108.09 4.49633 -0.122708 0
M  V30 11790 C 1109.41 3.97103 1.89729 0
M  V30 11791 H 1106.52 0.713958 0.182848 0
M  V30 11792 H 1109.17 1.8865 -0.226102 0
M  V30 11793 H 1107.32 3.52202 1.6397 0
M  V30 11794 H 1108.99 4.55013 -0.758988 0
M  V30 11795 H 1107.23 4.26691 -0.782109 0
M  V30 11796 H 1107.9 5.51318 0.27432 0
M  V30 11797 H 1110.38 3.92871 1.37082 0
M  V30 11798 H 1109.25 5.01927 2.22173 0
M  V30 11799 H 1109.52 3.39354 2.83357 0
M  V30 11800 N 1108.58 -0.128553 1.57075 0
M  V30 11801 C 1109.82 -0.844012 1.86161 0
M  V30 11802 C 1110.18 -1.77499 0.73198 0
M  V30 11803 O 1111.38 -2.5313 0.904357 0
M  V30 11804 C 1109.65 -1.58238 3.20462 0
M  V30 11805 S 1111.21 -2.34073 3.71154 0
M  V30 11806 H 1108.03 -0.281884 0.652734 0
M  V30 11807 H 1110.63 -0.102902 1.95229 0
M  V30 11808 H 1109.33 -0.890246 4.00628 0
M  V30 11809 H 1108.87 -2.36404 3.14446 0
M  V30 11810 H 1110.88 -3.59617 3.41892 0
M  V30 11811 N 1110.05 -1.5248 -0.398459 0
M  V30 11812 C 1110.98 -1.79549 -1.49279 0
M  V30 11813 C 1111.96 -0.647004 -1.57315 0
M  V30 11814 O 1113.15 -0.893661 -1.72416 0
M  V30 11815 C 1110.28 -1.95582 -2.86993 0
M  V30 11816 C 1109.23 -3.1123 -2.93803 0
M  V30 11817 C 1108.56 -3.12501 -4.33874 0
M  V30 11818 C 1109.86 -4.50485 -2.64312 0
M  V30 11819 H 1111.55 -2.71187 -1.26877 0
M  V30 11820 H 1109.1 -1.30492 -0.608924 0
M  V30 11821 H 1111.05 -2.13102 -3.63546 0
M  V30 11822 H 1109.78 -1.00625 -3.10712 0
M  V30 11823 H 1108.44 -2.93477 -2.19697 0
M  V30 11824 H 1108.08 -2.15245 -4.54619 0
M  V30 11825 H 1107.78 -3.90183 -4.39353 0
M  V30 11826 H 1109.31 -3.32164 -5.12347 0
M  V30 11827 H 1110.72 -4.68387 -3.30585 0
M  V30 11828 H 1109.12 -5.30163 -2.81153 0
M  V30 11829 H 1110.19 -4.57848 -1.59696 0
M  V30 11830 N 1111.53 0.65634 -1.43283 0
M  V30 11831 C 1112.46 1.78184 -1.44164 0
M  V30 11832 C 1113.48 1.59249 -0.338177 0
M  V30 11833 O 1114.67 1.68027 -0.60242 0
M  V30 11834 C 1111.77 3.15566 -1.23577 0
M  V30 11835 C 1110.94 3.61187 -2.46704 0
M  V30 11836 C 1110 4.77361 -2.21388 0
M  V30 11837 O 1109.02 4.8696 -2.94718 0
M  V30 11838 N 1110.23 5.67351 -1.22855 0
M  V30 11839 H 1112.99 1.77907 -2.41183 0
M  V30 11840 H 1110.55 0.840076 -1.38399 0
M  V30 11841 H 1112.54 3.90968 -1.04529 0
M  V30 11842 H 1111.11 3.10633 -0.350155 0
M  V30 11843 H 1110.33 2.76263 -2.81198 0
M  V30 11844 H 1111.62 3.88413 -3.28652 0
M  V30 11845 H 1111.02 5.62265 -0.622417 0
M  V30 11846 H 1109.58 6.42487 -1.09791 0
M  V30 11847 N 1113.01 1.29761 0.894412 0
M  V30 11848 C 1114.29 1.08711 1.62608 0
M  V30 11849 C 1114.67 -0.366907 2.07887 0
M  V30 11850 O 1114.01 -1.35669 1.83865 0
M  V30 11851 C 1114.22 2.07947 2.80284 0
M  V30 11852 C 1115.57 2.39153 3.50843 0
M  V30 11853 O 1116.6 2.06183 2.9046 0
M  V30 11854 O 1115.46 2.95509 4.59713 0
M  V30 11855 H 1112.55 0.416866 0.714249 0
M  V30 11856 H 1115.1 1.41153 0.942015 0
M  V30 11857 H 1113.87 3.05859 2.44061 0
M  V30 11858 H 1113.49 1.76266 3.56393 0
M  V30 11859 N 1114.49 -1.10549 1.12324 0
M  V30 11860 C 1115.71 -1.8681 0.900927 0
M  V30 11861 C 1116.14 -1.80049 -0.54443 0
M  V30 11862 O 1115.5 -1.16957 -1.38531 0
M  V30 11863 C 1115.54 -3.33197 1.37883 0
M  V30 11864 O 1114.65 -4.08628 0.556529 0
M  V30 11865 H 1113.99 -0.579709 0.32378 0
M  V30 11866 H 1116.52 -1.39678 1.49503 0
M  V30 11867 H 1116.53 -3.84047 1.37739 0
M  V30 11868 H 1115.2 -3.37435 2.43127 0
M  V30 11869 H 1113.78 -3.67627 0.62486 0
M  V30 11870 N 1115.97 -0.914965 -1.28321 0
M  V30 11871 C 1117.21 -0.549562 -1.95212 0
M  V30 11872 C 1117.54 0.904658 -1.71842 0
M  V30 11873 O 1116.82 1.64354 -1.04009 0
M  V30 11874 C 1117.1 -0.860927 -3.49657 0
M  V30 11875 C 1116.96 -2.36797 -3.82423 0
M  V30 11876 C 1118.27 -0.357926 -4.38642 0
M  V30 11877 H 1115.39 -0.201136 -0.709023 0
M  V30 11878 H 1118.04 -1.14443 -1.51667 0
M  V30 11879 H 1116.19 -0.354665 -3.86878 0
M  V30 11880 H 1117.86 -2.94494 -3.55065 0
M  V30 11881 H 1116.1 -2.82245 -3.29424 0
M  V30 11882 H 1116.77 -2.53637 -4.90278 0
M  V30 11883 H 1119.25 -0.791636 -4.085 0
M  V30 11884 H 1118.12 -0.604855 -5.45557 0
M  V30 11885 H 1118.38 0.741775 -4.35833 0
M  V30 11886 N 1117.44 1.42219 -0.679077 0
M  V30 11887 C 1118.37 2.33493 -0.0174528 0
M  V30 11888 C 1119.35 1.50915 0.78477 0
M  V30 11889 O 1120.54 1.79504 0.741065 0
M  V30 11890 C 1117.67 3.34576 0.931463 0
M  V30 11891 C 1116.62 4.2734 0.237527 0
M  V30 11892 C 1115.95 5.18664 1.29967 0
M  V30 11893 C 1117.25 5.14729 -0.886082 0
M  V30 11894 H 1118.94 2.89068 -0.779748 0
M  V30 11895 H 1116.49 1.38993 -0.376419 0
M  V30 11896 H 1118.44 3.97343 1.40343 0
M  V30 11897 H 1117.17 2.77315 1.72523 0
M  V30 11898 H 1115.83 3.65973 -0.214245 0
M  V30 11899 H 1115.47 4.57727 2.08554 0
M  V30 11900 H 1115.17 5.81558 0.840463 0
M  V30 11901 H 1116.7 5.84308 1.77249 0
M  V30 11902 H 1118.11 5.71158 -0.495141 0
M  V30 11903 H 1116.51 5.86478 -1.27135 0
M  V30 11904 H 1117.58 4.52874 -1.733 0
M  V30 11905 N 1118.92 0.422693 1.51826 0
M  V30 11906 C 1119.88 -0.384307 2.25955 0
M  V30 11907 C 1120.88 -0.962184 1.28836 0
M  V30 11908 O 1122.07 -0.838931 1.52668 0
M  V30 11909 C 1119.21 -1.54228 3.04018 0
M  V30 11910 H 1120.4 0.265157 2.98726 0
M  V30 11911 H 1117.95 0.175515 1.55311 0
M  V30 11912 H 1118.69 -2.22822 2.35629 0
M  V30 11913 H 1118.47 -1.13425 3.75336 0
M  V30 11914 H 1119.96 -2.1128 3.60209 0
M  V30 11915 N 1120.4 -1.5685 0.153553 0
M  V30 11916 C 1121.65 -1.96334 -0.495915 0
M  V30 11917 C 1121.97 -1.03873 -1.64441 0
M  V30 11918 O 1121.23 -0.069231 -1.95578 0
M  V30 11919 C 1121.53 -3.42022 -1.0371 0
M  V30 11920 C 1121.19 -4.509 -0.00637049 0
M  V30 11921 C 1119.86 -4.80402 0.276956 0
M  V30 11922 C 1122.21 -5.16556 0.694187 0
M  V30 11923 C 1119.54 -5.72866 1.26653 0
M  V30 11924 C 1121.89 -6.10087 1.67263 0
M  V30 11925 C 1120.55 -6.37965 1.96359 0
M  V30 11926 H 1119.82 -0.718436 -0.181468 0
M  V30 11927 H 1122.47 -1.89968 0.241768 0
M  V30 11928 H 1120.77 -3.45252 -1.85225 0
M  V30 11929 H 1122.47 -3.69903 -1.54831 0
M  V30 11930 H 1119.06 -4.27942 -0.237378 0
M  V30 11931 H 1123.25 -4.9389 0.488496 0
M  V30 11932 H 1118.5 -5.92756 1.49833 0
M  V30 11933 H 1122.68 -6.60036 2.22094 0
M  V30 11934 H 1120.3 -7.09416 2.73189 0
M  V30 11935 N 1121.88 0.120221 -1.57141 0
M  V30 11936 C 1123.12 0.824472 -1.85941 0
M  V30 11937 C 1123.48 1.77552 -0.741152 0
M  V30 11938 O 1122.77 1.89842 0.258939 0
M  V30 11939 C 1122.97 1.61338 -3.18912 0
M  V30 11940 C 1122.79 0.740224 -4.43566 0
M  V30 11941 C 1121.56 0.39553 -5.0375 0
M  V30 11942 C 1123.76 0.0584053 -5.14267 0
M  V30 11943 N 1121.74 -0.488415 -6.11954 0
M  V30 11944 C 1123.12 -0.684591 -6.16209 0
M  V30 11945 C 1125.17 -0.0181409 -4.97897 0
M  V30 11946 C 1123.87 -1.49694 -7.03551 0
M  V30 11947 C 1125.9 -0.817313 -5.85725 0
M  V30 11948 C 1125.26 -1.54851 -6.87169 0
M  V30 11949 H 1121.36 0.278664 -0.730664 0
M  V30 11950 H 1123.94 0.0882789 -1.945 0
M  V30 11951 H 1122.12 2.32062 -3.11451 0
M  V30 11952 H 1123.85 2.26287 -3.35524 0
M  V30 11953 H 1120.6 0.737491 -4.67823 0
M  V30 11954 H 1121.03 -0.9222 -6.7069 0
M  V30 11955 H 1125.67 0.532815 -4.19429 0
M  V30 11956 H 1123.39 -2.05906 -7.81427 0
M  V30 11957 H 1126.97 -0.878884 -5.75123 0
M  V30 11958 H 1125.85 -2.15696 -7.53953 0
M  V30 11959 N 1123.36 1.52689 0.390367 0
M  V30 11960 C 1124.58 1.71839 1.16129 0
M  V30 11961 C 1125.01 0.435226 1.82996 0
M  V30 11962 O 1124.36 -0.60889 1.70769 0
M  V30 11963 C 1124.41 2.86784 2.18603 0
M  V30 11964 O 1123.52 2.53662 3.25161 0
M  V30 11965 H 1122.86 0.571455 0.338135 0
M  V30 11966 H 1125.39 1.99475 0.45508 0
M  V30 11967 H 1125.4 3.12239 2.62622 0
M  V30 11968 H 1124.07 3.79872 1.69322 0
M  V30 11969 H 1122.65 2.38942 2.86289 0
M  V30 11970 N 1124.83 -0.648732 1.43629 0
M  V30 11971 C 1125.78 -1.75473 1.45579 0
M  V30 11972 C 1126.77 -1.57611 0.323683 0
M  V30 11973 O 1127.96 -1.67646 0.56778 0
M  V30 11974 C 1125.09 -3.14083 1.38589 0
M  V30 11975 C 1124.18 -3.37477 2.56846 0
M  V30 11976 N 1124.57 -3.31322 3.82177 0
M  V30 11977 C 1122.86 -3.68212 2.51666 0
M  V30 11978 C 1123.57 -3.54921 4.60875 0
M  V30 11979 N 1122.54 -3.76951 3.91675 0
M  V30 11980 H 1126.34 -1.69146 2.40347 0
M  V30 11981 H 1123.86 -0.850566 1.38344 0
M  V30 11982 H 1125.85 -3.93374 1.38068 0
M  V30 11983 H 1124.51 -3.21588 0.448442 0
M  V30 11984 H 1125.53 -3.10633 4.144 0
M  V30 11985 H 1122.2 -3.82806 1.66631 0
M  V30 11986 H 1123.59 -3.55904 5.69897 0
M  V30 11987 N 1126.31 -1.30234 -0.887518 0
M  V30 11988 C 1127.56 -1.18675 -1.63587 0
M  V30 11989 C 1127.88 0.259342 -1.93268 0
M  V30 11990 O 1127.15 1.17523 -1.56733 0
M  V30 11991 H 1125.73 -0.436224 -0.606397 0
M  V30 11992 H 1128.39 -1.63326 -1.06351 0
M  V30 11993 H 1127.49 -1.74575 -2.58708 0
M  V30 11994 N 1127.79 1.09952 -1.12909 0
M  V30 11995 C 1128.72 2.15689 -0.745217 0
M  V30 11996 C 1129.7 1.60409 0.266007 0
M  V30 11997 O 1130.89 1.8783 0.158783 0
M  V30 11998 C 1128.01 3.38541 -0.103846 0
M  V30 11999 C 1127.06 4.12529 -1.0827 0
M  V30 12000 S 1127.89 4.67442 -2.61262 0
M  V30 12001 C 1129.05 5.936 -1.9847 0
M  V30 12002 H 1129.28 2.47918 -1.64086 0
M  V30 12003 H 1126.81 1.21817 -0.948682 0
M  V30 12004 H 1128.77 4.09677 0.259816 0
M  V30 12005 H 1127.43 3.04541 0.768982 0
M  V30 12006 H 1126.63 5.00632 -0.581653 0
M  V30 12007 H 1126.23 3.47228 -1.38955 0
M  V30 12008 H 1128.52 6.64308 -1.33048 0
M  V30 12009 H 1129.46 6.48374 -2.84634 0
M  V30 12010 H 1129.87 5.45864 -1.43848 0
M  V30 12011 N 1129.27 0.921757 1.27833 0
M  V30 12012 C 1130.2 0.373575 2.26135 0
M  V30 12013 C 1131.21 -0.492414 1.55174 0
M  V30 12014 O 1132.4 -0.305998 1.75858 0
M  V30 12015 C 1129.5 -0.483911 3.35427 0
M  V30 12016 C 1128.68 0.361411 4.35904 0
M  V30 12017 C 1127.73 -0.432461 5.2442 0
M  V30 12018 O 1126.76 0.15777 5.68981 0
M  V30 12019 N 1127.96 -1.73367 5.54007 0
M  V30 12020 H 1130.73 1.21856 2.73809 0
M  V30 12021 H 1128.29 0.788552 1.41398 0
M  V30 12022 H 1130.28 -1.02193 3.91585 0
M  V30 12023 H 1128.85 -1.22963 2.874 0
M  V30 12024 H 1128.07 1.08076 3.79095 0
M  V30 12025 H 1129.36 0.939528 5.0005 0
M  V30 12026 H 1128.76 -2.23561 5.19651 0
M  V30 12027 H 1127.31 -2.21834 6.12889 0
M  V30 12028 N 1130.75 -1.41857 0.686609 0
M  V30 12029 C 1131.99 -2.0097 0.213378 0
M  V30 12030 C 1132.32 -1.54618 -1.1882 0
M  V30 12031 O 1131.59 -0.772916 -1.80008 0
M  V30 12032 H 1130.17 -0.743134 0.0758968 0
M  V30 12033 H 1132.83 -1.73609 0.885763 0
M  V30 12034 H 1131.92 -3.11296 0.223826 0
M  V30 12035 N 1132.22 -0.430739 -1.51599 0
M  V30 12036 C 1133.64 -0.0826902 -1.59386 0
M  V30 12037 C 1133.84 1.40729 -1.44214 0
M  V30 12038 O 1132.9 2.1765 -1.28002 0
M  V30 12039 C 1134.21 -0.59691 -2.94716 0
M  V30 12040 C 1135.76 -0.556772 -3.08008 0
M  V30 12041 C 1136.23 -1.04786 -4.45852 0
M  V30 12042 N 1137.72 -1.00557 -4.52153 0
M  V30 12043 C 1138.46 -1.35649 -5.57124 0
M  V30 12044 N 1137.95 -1.77994 -6.69545 0
M  V30 12045 N 1139.75 -1.27508 -5.47447 0
M  V30 12046 H 1131.9 -1.40027 -1.59707 0
M  V30 12047 H 1134.16 -0.576606 -0.752482 0
M  V30 12048 H 1133.87 -1.63914 -3.11167 0
M  V30 12049 H 1133.74 -0.0182342 -3.77196 0
M  V30 12050 H 1136.13 0.476457 -2.91228 0
M  V30 12051 H 1136.21 -1.17177 -2.27383 0
M  V30 12052 H 1135.85 -2.07952 -4.63377 0
M  V30 12053 H 1135.78 -0.409461 -5.25006 0
M  V30 12054 H 1138.27 -0.694518 -3.71463 0
M  V30 12055 H 1138.59 -2.03026 -7.45654 0
M  V30 12056 H 1136.93 -1.81916 -6.70769 0
M  V30 12057 H 1140.12 -0.942969 -4.58504 0
M  V30 12058 H 1140.3 -1.55185 -6.29143 0
M  V30 12059 N 1133.7 1.56767 -0.161869 0
M  V30 12060 C 1134.93 2.01401 0.49523 0
M  V30 12061 C 1135.35 1.04133 1.56646 0
M  V30 12062 O 1134.71 0.0193747 1.8129 0
M  V30 12063 C 1134.76 3.44695 1.05913 0
M  V30 12064 O 1133.86 3.50475 2.1735 0
M  V30 12065 H 1133.2 0.65314 0.1196 0
M  V30 12066 H 1135.73 2.02903 -0.26298 0
M  V30 12067 H 1135.74 3.83805 1.3841 0
M  V30 12068 H 1134.42 4.14991 0.274749 0
M  V30 12069 H 1133 3.23218 1.85969 0
M  V30 12070 N 1135.18 -0.111886 1.57202 0
M  V30 12071 C 1136.11 -1.13796 2.03894 0
M  V30 12072 C 1137.09 -1.4277 0.924696 0
M  V30 12073 O 1138.28 -1.53089 1.19488 0
M  V30 12074 C 1135.41 -2.46229 2.44925 0
M  V30 12075 C 1134.36 -2.31702 3.59859 0
M  V30 12076 C 1133.69 -3.69161 3.86813 0
M  V30 12077 C 1134.99 -1.77158 4.91337 0
M  V30 12078 H 1136.68 -0.749581 2.89865 0
M  V30 12079 H 1134.23 -0.359126 1.3945 0
M  V30 12080 H 1136.18 -3.18267 2.76195 0
M  V30 12081 H 1134.9 -2.86971 1.55933 0
M  V30 12082 H 1133.56 -1.62112 3.28809 0
M  V30 12083 H 1133.21 -4.07401 2.95015 0
M  V30 12084 H 1132.91 -3.60292 4.6418 0
M  V30 12085 H 1134.43 -4.42693 4.20542 0
M  V30 12086 H 1135.85 -2.3902 5.21097 0
M  V30 12087 H 1134.25 -1.79091 5.72753 0
M  V30 12088 H 1135.32 -0.729675 4.79379 0
M  V30 12089 N 1136.66 -1.52894 -0.382264 0
M  V30 12090 C 1137.94 -1.58853 -1.14127 0
M  V30 12091 C 1138.32 -0.38582 -2.07544 0
M  V30 12092 O 1137.66 0.625323 -2.19777 0
M  V30 12093 C 1137.87 -2.93068 -1.89504 0
M  V30 12094 C 1139.22 -3.47048 -2.44629 0
M  V30 12095 O 1140.25 -2.94987 -1.99652 0
M  V30 12096 O 1139.1 -4.3802 -3.26804 0
M  V30 12097 H 1136.2 -0.640969 -0.522578 0
M  V30 12098 H 1138.74 -1.65231 -0.386873 0
M  V30 12099 H 1137.52 -3.72047 -1.2123 0
M  V30 12100 H 1137.14 -2.90106 -2.7189 0
M  V30 12101 N 1138.14 0.641106 -1.43971 0
M  V30 12102 C 1139.37 1.42829 -1.49692 0
M  V30 12103 C 1139.78 1.88427 -0.118594 0
M  V30 12104 O 1139.14 1.60234 0.873581 0
M  V30 12105 C 1139.19 2.65524 -2.45314 0
M  V30 12106 O 1138.91 2.2183 -3.77787 0
M  V30 12107 C 1140.41 3.58758 -2.60399 0
M  V30 12108 H 1137.63 0.438367 -0.508011 0
M  V30 12109 H 1140.17 0.784933 -1.88836 0
M  V30 12110 H 1138.33 3.25973 -2.09332 0
M  V30 12111 H 1138.74 3.01303 -4.29321 0
M  V30 12112 H 1140.22 4.41483 -3.31357 0
M  V30 12113 H 1140.69 4.06909 -1.65294 0
M  V30 12114 H 1141.3 3.04184 -2.97241 0
M  V30 12115 N 1139.62 1.30703 0.880598 0
M  V30 12116 C 1140.56 1.17369 2.00817 0
M  V30 12117 C 1141.56 0.0845159 1.69189 0
M  V30 12118 O 1142.76 0.245673 1.78316 0
M  V30 12119 H 1139.14 0.363107 0.658527 0
M  V30 12120 H 1141.11 2.12789 2.09197 0
M  V30 12121 C 1139.86 0.886851 3.362 0
M  V30 12122 H 1139.18 1.71704 3.61051 0
M  V30 12123 H 1140.62 0.83368 4.15723 0
M  V30 12124 C 1139.08 -0.410293 3.34392 0
M  V30 12125 O 1139.61 -1.43044 3.75368 0
M  V30 12126 N 1137.82 -0.423023 2.87505 0
M  V30 12127 H 1137.36 0.407637 2.54354 0
M  V30 12128 H 1137.32 -1.29086 2.86678 0
M  V30 12129 N 1141.09 -1.09351 1.1349 0
M  V30 12130 C 1142 -2.19564 0.826366 0
M  V30 12131 C 1143.02 -1.72967 -0.189339 0
M  V30 12132 O 1144.2 -2.0139 -0.0202033 0
M  V30 12133 C 1141.26 -3.4542 0.297685 0
M  V30 12134 C 1140.32 -4.06694 1.37473 0
M  V30 12135 C 1139.55 -5.26542 0.871183 0
M  V30 12136 O 1139.78 -5.69657 -0.290958 0
M  V30 12137 O 1138.71 -5.78961 1.64584 0
M  V30 12138 H 1142.54 -2.4841 1.74718 0
M  V30 12139 H 1140.12 -1.18302 0.912414 0
M  V30 12140 H 1142 -4.21399 0.00829479 0
M  V30 12141 H 1140.68 -3.18175 -0.595536 0
M  V30 12142 H 1139.59 -3.32347 1.71745 0
M  V30 12143 H 1140.92 -4.38166 2.24212 0
M  V30 12144 N 1142.57 -0.928524 -1.27343 0
M  V30 12145 C 1143.82 -0.570235 -1.94618 0
M  V30 12146 C 1144.15 0.886381 -1.72792 0
M  V30 12147 O 1143.43 1.63242 -1.05747 0
M  V30 12148 C 1143.71 -0.897964 -3.48724 0
M  V30 12149 C 1143.56 -2.40839 -3.7989 0
M  V30 12150 C 1144.88 -0.404429 -4.38238 0
M  V30 12151 H 1142 -0.208645 -0.70685 0
M  V30 12152 H 1144.64 -1.16045 -1.50444 0
M  V30 12153 H 1142.79 -0.395679 -3.8648 0
M  V30 12154 H 1144.46 -2.98243 -3.51921 0
M  V30 12155 H 1142.71 -2.85723 -3.26412 0
M  V30 12156 H 1143.38 -2.58823 -4.8756 0
M  V30 12157 H 1145.85 -0.834918 -4.07637 0
M  V30 12158 H 1144.73 -0.662684 -5.44885 0
M  V30 12159 H 1144.99 0.695507 -4.36595 0
M  V30 12160 N 1144.05 1.41491 -0.694123 0
M  V30 12161 C 1145.28 2.05579 -0.233466 0
M  V30 12162 C 1145.69 1.5223 1.11675 0
M  V30 12163 O 1145.05 0.669937 1.69759 0
M  V30 12164 C 1145.1 3.61047 -0.180967 0
M  V30 12165 O 1144.82 4.12421 -1.47785 0
M  V30 12166 C 1146.32 4.42278 0.300853 0
M  V30 12167 H 1143.54 0.662097 -0.108943 0
M  V30 12168 H 1146.09 1.81288 -0.946299 0
M  V30 12169 H 1144.24 3.84381 0.482678 0
M  V30 12170 H 1144.66 5.06454 -1.364 0
M  V30 12171 H 1146.13 5.51256 0.286464 0
M  V30 12172 H 1146.61 4.18276 1.33948 0
M  V30 12173 H 1147.21 4.24004 -0.331741 0
M  V30 12174 N 1145.53 0.438773 1.51369 0
M  V30 12175 C 1146.46 -0.407771 2.25543 0
M  V30 12176 C 1147.47 -0.985065 1.29616 0
M  V30 12177 O 1148.66 -0.878961 1.55359 0
M  V30 12178 C 1145.76 -1.58257 2.9968 0
M  V30 12179 C 1144.93 -1.12389 4.22714 0
M  V30 12180 C 1143.99 -2.16897 4.79418 0
M  V30 12181 O 1143.02 -1.76273 5.41218 0
M  V30 12182 N 1144.22 -3.49396 4.63576 0
M  V30 12183 H 1146.99 0.227963 2.98832 0
M  V30 12184 H 1144.55 0.267741 1.59671 0
M  V30 12185 H 1146.54 -2.27796 3.34501 0
M  V30 12186 H 1145.11 -2.12362 2.29393 0
M  V30 12187 H 1144.33 -0.255509 3.93371 0
M  V30 12188 H 1145.62 -0.794848 5.02553 0
M  V30 12189 H 1145.02 -3.85132 4.14355 0
M  V30 12190 H 1143.57 -4.14826 5.02755 0
M  V30 12191 N 1147.01 -1.56678 0.170181 0
M  V30 12192 C 1147.92 -2.21496 -0.773079 0
M  V30 12193 C 1148.93 -1.20626 -1.25401 0
M  V30 12194 O 1150.11 -1.53283 -1.30638 0
M  V30 12195 C 1147.17 -2.8421 -1.98558 0
M  V30 12196 C 1146.23 -4.00278 -1.55164 0
M  V30 12197 C 1145.47 -4.59992 -2.70634 0
M  V30 12198 O 1145.69 -4.18595 -3.87472 0
M  V30 12199 O 1144.62 -5.49881 -2.44775 0
M  V30 12200 H 1148.45 -3.02659 -0.251195 0
M  V30 12201 H 1146.03 -1.49288 -0.0579621 0
M  V30 12202 H 1147.92 -3.2398 -2.69472 0
M  V30 12203 H 1146.59 -2.06045 -2.49654 0
M  V30 12204 H 1145.5 -3.6518 -0.812038 0
M  V30 12205 H 1146.83 -4.80033 -1.0876 0
M  V30 12206 N 1148.48 0.103547 -1.57259 0
M  V30 12207 C 1149.73 0.807231 -1.84842 0
M  V30 12208 C 1150.05 1.80308 -0.758181 0
M  V30 12209 O 1151.25 2.55406 -0.920877 0
M  V30 12210 C 1149.71 1.4864 -3.27771 0
M  V30 12211 C 1149.32 0.53075 -4.44845 0
M  V30 12212 C 1151.06 2.17431 -3.64587 0
M  V30 12213 C 1148.97 1.21403 -5.78805 0
M  V30 12214 H 1147.9 0.305212 -0.689465 0
M  V30 12215 H 1150.55 0.0600855 -1.83402 0
M  V30 12216 H 1148.93 2.28071 -3.23728 0
M  V30 12217 H 1150.1 -0.231455 -4.60218 0
M  V30 12218 H 1148.42 -0.0510078 -4.16369 0
M  V30 12219 H 1151.02 2.6927 -4.6195 0
M  V30 12220 H 1151.36 2.9594 -2.92789 0
M  V30 12221 H 1151.89 1.4487 -3.70483 0
M  V30 12222 H 1148.63 0.469918 -6.53813 0
M  V30 12223 H 1148.15 1.94787 -5.6729 0
M  V30 12224 H 1149.83 1.74289 -6.23083 0
M  V30 12225 N 1149.96 1.53094 0.37415 0
M  V30 12226 C 1151.19 1.72758 1.13852 0
M  V30 12227 C 1151.6 0.452638 1.83294 0
M  V30 12228 O 1150.96 -0.573906 1.73241 0
M  V30 12229 C 1151.01 2.88724 2.17534 0
M  V30 12230 O 1150.73 4.11284 1.5092 0
M  V30 12231 C 1152.23 3.2019 3.06584 0
M  V30 12232 H 1149.45 0.578028 0.340771 0
M  V30 12233 H 1152 1.99805 0.435683 0
M  V30 12234 H 1150.15 2.64096 2.83429 0
M  V30 12235 H 1150.57 4.76162 2.19932 0
M  V30 12236 H 1152.04 4.04759 3.75332 0
M  V30 12237 H 1152.52 2.35193 3.70919 0
M  V30 12238 H 1153.12 3.46712 2.46315 0
M  V30 12239 N 1151.44 -0.633461 1.44309 0
M  V30 12240 C 1152.72 -1.3917 1.37444 0
M  V30 12241 C 1153.1 -2.11076 0.0319994 0
M  V30 12242 O 1152.44 -2.06164 -0.98533 0
M  V30 12243 C 1152.65 -2.36005 2.57104 0
M  V30 12244 C 1154 -2.99407 3.01065 0
M  V30 12245 O 1155.03 -2.46331 2.57292 0
M  V30 12246 O 1153.89 -3.95686 3.76954 0
M  V30 12247 H 1150.98 -0.622746 0.544166 0
M  V30 12248 H 1153.53 -0.658712 1.56394 0
M  V30 12249 H 1152.3 -1.81955 3.46422 0
M  V30 12250 H 1151.92 -3.16725 2.40356 0
M  V30 12251 N 1152.92 -1.31168 -0.873655 0
M  V30 12252 C 1153.83 -1.20458 -2.01313 0
M  V30 12253 C 1154.84 -0.122074 -1.73571 0
M  V30 12254 O 1156.02 -0.339176 -1.98523 0
M  V30 12255 C 1153.09 -0.90876 -3.34578 0
M  V30 12256 C 1152.15 -2.07779 -3.75668 0
M  V30 12257 C 1151.38 -1.79599 -5.02573 0
M  V30 12258 O 1151.6 -0.729338 -5.65718 0
M  V30 12259 O 1150.54 -2.65169 -5.40341 0
M  V30 12260 H 1154.36 -2.16207 -2.13279 0
M  V30 12261 H 1151.95 -1.10871 -1.00139 0
M  V30 12262 H 1153.83 -0.759469 -4.145 0
M  V30 12263 H 1152.5 0.0187249 -3.23695 0
M  V30 12264 H 1151.41 -2.28247 -2.96402 0
M  V30 12265 H 1152.74 -2.9874 -3.91172 0
M  V30 12266 N 1154.4 1.08748 -1.14068 0
M  V30 12267 C 1155.62 1.84814 -0.930138 0
M  V30 12268 C 1156.04 1.81461 0.521267 0
M  V30 12269 O 1155.4 1.21577 1.36108 0
M  V30 12270 C 1155.45 3.32501 -1.41863 0
M  V30 12271 O 1155.17 3.35846 -2.81317 0
M  V30 12272 C 1156.67 4.25384 -1.24753 0
M  V30 12273 H 1153.89 0.583546 -0.331233 0
M  V30 12274 H 1156.43 1.37366 -1.51495 0
M  V30 12275 H 1154.59 3.7735 -0.876664 0
M  V30 12276 H 1155 4.28013 -3.03159 0
M  V30 12277 H 1156.48 5.27138 -1.63798 0
M  V30 12278 H 1156.95 4.38789 -0.18999 0
M  V30 12279 H 1157.56 3.86357 -1.77787 0
M  V30 12280 N 1155.87 0.935264 1.26849 0
M  V30 12281 C 1157.29 0.636661 1.46352 0
M  V30 12282 C 1157.49 -0.811823 1.84423 0
M  V30 12283 O 1156.55 -1.58902 1.9623 0
M  V30 12284 C 1157.86 1.59301 2.55036 0
M  V30 12285 C 1159.41 1.60207 2.68892 0
M  V30 12286 C 1159.88 2.54558 3.80742 0
M  V30 12287 N 1161.37 2.52809 3.88126 0
M  V30 12288 C 1162.11 3.225 4.74111 0
M  V30 12289 N 1161.6 4.01598 5.64527 0
M  V30 12290 N 1163.4 3.11481 4.67906 0
M  V30 12291 H 1155.55 1.8716 1.00423 0
M  V30 12292 H 1157.81 0.803968 0.502334 0
M  V30 12293 H 1157.52 2.62671 2.33874 0
M  V30 12294 H 1157.39 1.34052 3.52576 0
M  V30 12295 H 1159.78 0.575649 2.89431 0
M  V30 12296 H 1159.86 1.89508 1.71815 0
M  V30 12297 H 1159.5 3.57314 3.60956 0
M  V30 12298 H 1159.43 2.22549 4.77263 0
M  V30 12299 H 1161.92 1.9537 3.2348 0
M  V30 12300 H 1162.24 4.51742 6.27016 0
M  V30 12301 H 1160.58 4.057 5.64298 0
M  V30 12302 H 1163.77 2.49175 3.9627 0
M  V30 12303 H 1163.95 3.66064 5.34697 0
M  V30 12304 N 1157.35 -1.41121 0.701616 0
M  V30 12305 C 1158.6 -2.00359 0.232214 0
M  V30 12306 C 1158.91 -1.56231 -1.17691 0
M  V30 12307 O 1160.12 -2.08071 -1.74409 0
M  V30 12308 C 1158.58 -3.58052 0.364257 0
M  V30 12309 C 1158.18 -4.11158 1.77913 0
M  V30 12310 C 1159.93 -4.24476 -0.0450628 0
M  V30 12311 C 1157.84 -5.61306 1.8625 0
M  V30 12312 H 1156.77 -0.749411 0.0830609 0
M  V30 12313 H 1159.42 -1.61528 0.870689 0
M  V30 12314 H 1157.8 -3.94515 -0.342569 0
M  V30 12315 H 1158.97 -3.86101 2.5152 0
M  V30 12316 H 1157.29 -3.57282 2.13866 0
M  V30 12317 H 1159.88 -5.347 -0.00329209 0
M  V30 12318 H 1160.23 -4.01919 -1.08477 0
M  V30 12319 H 1160.76 -3.93069 0.611704 0
M  V30 12320 H 1157.5 -5.88699 2.88294 0
M  V30 12321 H 1157.02 -5.88271 1.17036 0
M  V30 12322 H 1158.7 -6.26179 1.62817 0
M  V30 12323 N 1158.83 -0.446794 -1.51134 0
M  V30 12324 C 1160.08 0.116493 -2.02165 0
M  V30 12325 C 1160.41 1.41884 -1.33039 0
M  V30 12326 O 1159.66 1.90757 -0.437071 0
M  V30 12327 C 1159.96 0.373015 -3.55448 0
M  V30 12328 C 1159.63 -0.844659 -4.42918 0
M  V30 12329 C 1158.29 -1.17857 -4.66544 0
M  V30 12330 C 1160.64 -1.65653 -4.94174 0
M  V30 12331 C 1157.97 -2.32486 -5.38672 0
M  V30 12332 C 1160.32 -2.7939 -5.6756 0
M  V30 12333 C 1158.98 -3.13224 -5.89446 0
M  V30 12334 H 1158.25 0.0426279 -0.739773 0
M  V30 12335 H 1160.9 -0.595921 -1.81992 0
M  V30 12336 H 1159.21 1.16742 -3.74003 0
M  V30 12337 H 1160.9 0.822425 -3.92476 0
M  V30 12338 H 1157.49 -0.574478 -4.24733 0
M  V30 12339 H 1161.68 -1.41176 -4.75797 0
M  V30 12340 H 1156.93 -2.59003 -5.5383 0
M  V30 12341 H 1161.11 -3.42662 -6.06264 0
M  V30 12342 H 1158.73 -4.02158 -6.45115 0
M  V30 12343 N 1160.31 1.56586 -0.178487 0
M  V30 12344 C 1161.72 1.58609 0.17759 0
M  V30 12345 C 1161.92 1.19411 1.62306 0
M  V30 12346 O 1160.98 0.90906 2.35568 0
M  V30 12347 C 1162.29 3.005 -0.109722 0
M  V30 12348 C 1163.84 3.12962 -0.0485036 0
M  V30 12349 C 1164.32 4.56957 -0.308901 0
M  V30 12350 N 1165.81 4.62487 -0.25693 0
M  V30 12351 C 1166.54 5.71767 -0.432488 0
M  V30 12352 N 1166.04 6.89577 -0.667494 0
M  V30 12353 N 1167.83 5.60895 -0.367895 0
M  V30 12354 H 1159.98 1.80351 -1.12193 0
M  V30 12355 H 1162.25 0.83623 -0.446569 0
M  V30 12356 H 1161.95 3.3368 -1.11133 0
M  V30 12357 H 1161.83 3.72472 0.595373 0
M  V30 12358 H 1164.21 2.79604 0.943687 0
M  V30 12359 H 1164.29 2.43411 -0.78642 0
M  V30 12360 H 1163.94 4.91025 -1.29833 0
M  V30 12361 H 1163.87 5.24676 0.449711 0
M  V30 12362 H 1166.36 3.77813 -0.0812308 0
M  V30 12363 H 1166.67 7.68744 -0.79071 0
M  V30 12364 H 1165.02 6.91423 -0.704193 0
M  V30 12365 H 1168.21 4.67735 -0.184837 0
M  V30 12366 H 1168.38 6.46005 -0.508138 0
M  V30 12367 N 1161.79 -0.095206 1.57312 0
M  V30 12368 C 1163.03 -0.799903 1.86358 0
M  V30 12369 C 1163.37 -1.78386 0.767593 0
M  V30 12370 O 1162.64 -1.93201 -0.224439 0
M  V30 12371 C 1162.92 -1.52875 3.26039 0
M  V30 12372 C 1162.78 -0.562781 4.46265 0
M  V30 12373 C 1164.1 -2.47935 3.63616 0
M  V30 12374 H 1161.21 -0.289339 0.677829 0
M  V30 12375 H 1163.86 -0.0635369 1.89894 0
M  V30 12376 H 1162.01 -2.15645 3.23156 0
M  V30 12377 H 1163.68 0.0579068 4.61264 0
M  V30 12378 H 1161.92 0.123847 4.33623 0
M  V30 12379 H 1162.59 -1.10989 5.40727 0
M  V30 12380 H 1165.07 -1.95257 3.67442 0
M  V30 12381 H 1163.94 -2.95948 4.62283 0
M  V30 12382 H 1164.21 -3.31687 2.92294 0
M  V30 12383 N 1163.26 -1.53291 -0.366026 0
M  V30 12384 C 1164.19 -1.82675 -1.45437 0
M  V30 12385 C 1165.18 -0.680227 -1.55907 0
M  V30 12386 O 1166.36 -0.930032 -1.70482 0
M  V30 12387 C 1163.49 -2.01626 -2.8278 0
M  V30 12388 C 1162.44 -3.17391 -2.87135 0
M  V30 12389 C 1161.77 -3.21634 -4.27148 0
M  V30 12390 C 1163.07 -4.5599 -2.54697 0
M  V30 12391 H 1164.76 -2.73818 -1.21096 0
M  V30 12392 H 1162.31 -1.31754 -0.581108 0
M  V30 12393 H 1164.26 -2.20765 -3.58944 0
M  V30 12394 H 1162.99 -1.07193 -3.08508 0
M  V30 12395 H 1161.65 -2.98071 -2.13422 0
M  V30 12396 H 1161.29 -2.2484 -4.49951 0
M  V30 12397 H 1160.99 -3.99414 -4.30978 0
M  V30 12398 H 1162.52 -3.42957 -5.05186 0
M  V30 12399 H 1163.93 -4.75294 -3.20575 0
M  V30 12400 H 1162.33 -5.36008 -2.69844 0
M  V30 12401 H 1163.4 -4.61133 -1.49949 0
M  V30 12402 N 1164.74 0.6258 -1.44643 0
M  V30 12403 C 1165.99 1.38251 -1.47414 0
M  V30 12404 C 1166.31 1.94689 -0.110043 0
M  V30 12405 O 1165.58 1.76095 0.858333 0
M  V30 12406 H 1164.16 0.513179 -0.542823 0
M  V30 12407 H 1166.82 0.736179 -1.80462 0
M  V30 12408 H 1165.92 2.21115 -2.2026 0
M  V30 12409 N 1166.22 1.31629 0.866686 0
M  V30 12410 C 1167.18 1.1951 1.95576 0
M  V30 12411 C 1168.18 0.121319 1.60342 0
M  V30 12412 O 1169.37 0.370832 1.70207 0
M  V30 12413 C 1166.51 0.835201 3.30511 0
M  V30 12414 H 1167.7 2.16285 2.07752 0
M  V30 12415 H 1165.25 1.15288 1.05539 0
M  V30 12416 H 1165.99 -0.131245 3.24034 0
M  V30 12417 H 1165.77 1.61142 3.57457 0
M  V30 12418 H 1167.26 0.774393 4.10357 0
M  V30 12419 N 1167.7 -1.08142 1.14644 0
M  V30 12420 C 1168.65 -2.13338 0.804412 0
M  V30 12421 C 1169.63 -1.59554 -0.207664 0
M  V30 12422 O 1170.83 -1.76997 -0.00960233 0
M  V30 12423 C 1167.95 -3.42102 0.286579 0
M  V30 12424 C 1167.04 -4.0276 1.32834 0
M  V30 12425 N 1167.43 -4.37789 2.53327 0
M  V30 12426 C 1165.73 -4.30129 1.17919 0
M  V30 12427 C 1166.43 -4.85748 3.20037 0
M  V30 12428 N 1165.41 -4.84021 2.47436 0
M  V30 12429 H 1169.21 -2.38243 1.72097 0
M  V30 12430 H 1166.72 -1.25501 1.0307 0
M  V30 12431 H 1168.72 -4.16894 0.0232417 0
M  V30 12432 H 1167.38 -3.18645 -0.624142 0
M  V30 12433 H 1168.39 -4.28731 2.90534 0
M  V30 12434 H 1165.07 -4.16212 0.327713 0
M  V30 12435 H 1166.46 -5.22208 4.22786 0
M  V30 12436 N 1169.18 -0.941978 -1.26351 0
M  V30 12437 C 1170.59 -0.644413 -1.46012 0
M  V30 12438 C 1170.79 0.802031 -1.84851 0
M  V30 12439 O 1169.85 1.57859 -1.9707 0
M  V30 12440 C 1171.16 -1.60652 -2.54188 0
M  V30 12441 C 1172.71 -1.6163 -2.68038 0
M  V30 12442 C 1173.19 -2.56573 -3.79387 0
M  V30 12443 N 1174.68 -2.54863 -3.8678 0
M  V30 12444 C 1175.41 -3.2501 -4.72394 0
M  V30 12445 N 1174.91 -4.04586 -5.6239 0
M  V30 12446 N 1176.7 -3.13958 -4.66247 0
M  V30 12447 H 1168.85 -1.8769 -0.994293 0
M  V30 12448 H 1171.11 -0.806621 -0.498063 0
M  V30 12449 H 1170.82 -2.63907 -2.32478 0
M  V30 12450 H 1170.69 -1.3592 -3.5186 0
M  V30 12451 H 1173.08 -0.59099 -2.89122 0
M  V30 12452 H 1173.16 -1.90417 -1.70807 0
M  V30 12453 H 1172.81 -3.59223 -3.59056 0
M  V30 12454 H 1172.74 -2.25077 -4.76076 0
M  V30 12455 H 1175.23 -1.97082 -3.22439 0
M  V30 12456 H 1175.54 -4.55061 -6.24612 0
M  V30 12457 H 1173.89 -4.08687 -5.62139 0
M  V30 12458 H 1177.08 -2.51273 -3.94943 0
M  V30 12459 H 1177.25 -3.68894 -5.32749 0
M  V30 12460 N 1170.66 1.40747 -0.709091 0
M  V30 12461 C 1171.93 1.94831 -0.173246 0
M  V30 12462 C 1172.31 1.64766 1.31967 0
M  V30 12463 O 1171.66 0.961853 2.07269 0
M  V30 12464 C 1171.87 3.45697 -0.479013 0
M  V30 12465 C 1173.22 4.22576 -0.414122 0
M  V30 12466 O 1174.24 3.53778 -0.414699 0
M  V30 12467 O 1173.1 5.45135 -0.385986 0
M  V30 12468 H 1170.2 0.826683 -0.0228947 0
M  V30 12469 H 1172.74 1.50391 -0.786178 0
M  V30 12470 H 1171.51 3.60914 -1.51185 0
M  V30 12471 H 1171.14 3.97261 0.164211 0
M  V30 12472 N 1172.13 0.454803 1.50895 0
M  V30 12473 C 1173.38 -0.107367 2.01414 0
M  V30 12474 C 1173.7 -1.42243 1.34262 0
M  V30 12475 O 1174.9 -2.06858 1.75846 0
M  V30 12476 C 1173.36 -0.241872 3.59086 0
M  V30 12477 C 1172.97 1.06379 4.35187 0
M  V30 12478 C 1174.71 -0.756873 4.17698 0
M  V30 12479 C 1172.62 0.893973 5.84604 0
M  V30 12480 H 1171.55 -0.0439003 0.752721 0
M  V30 12481 H 1174.2 0.587225 1.7385 0
M  V30 12482 H 1172.58 -0.999873 3.83169 0
M  V30 12483 H 1173.75 1.83148 4.2284 0
M  V30 12484 H 1172.07 1.50865 3.88109 0
M  V30 12485 H 1174.67 -0.900697 5.27059 0
M  V30 12486 H 1175.01 -1.74397 3.7801 0
M  V30 12487 H 1175.54 -0.0567088 3.9776 0
M  V30 12488 H 1172.28 1.85395 6.28736 0
M  V30 12489 H 1171.8 0.166387 5.99569 0
M  V30 12490 H 1173.48 0.554084 6.44623 0
M  V30 12491 N 1173.61 -1.56489 0.186789 0
M  V30 12492 C 1174.86 -1.96517 -0.45433 0
M  V30 12493 C 1175.17 -1.07618 -1.63333 0
M  V30 12494 O 1176.38 -1.37392 -2.3417 0
M  V30 12495 C 1174.84 -3.49482 -0.859685 0
M  V30 12496 C 1174.44 -4.47031 0.294572 0
M  V30 12497 C 1176.19 -3.98296 -1.46835 0
M  V30 12498 C 1174.09 -5.91254 -0.131279 0
M  V30 12499 H 1173.02 -0.733765 -0.17351 0
M  V30 12500 H 1175.68 -1.8139 0.277485 0
M  V30 12501 H 1174.06 -3.60082 -1.64793 0
M  V30 12502 H 1175.23 -4.48156 1.07205 0
M  V30 12503 H 1173.55 -4.08362 0.814197 0
M  V30 12504 H 1176.14 -5.03518 -1.79928 0
M  V30 12505 H 1176.49 -3.42123 -2.37186 0
M  V30 12506 H 1177.02 -3.90776 -0.744247 0
M  V30 12507 H 1173.76 -6.51334 0.737839 0
M  V30 12508 H 1173.28 -5.93401 -0.873786 0
M  V30 12509 H 1174.96 -6.44485 -0.569913 0
M  V30 12510 N 1175.09 0.086862 -1.5736 0
M  V30 12511 C 1176.02 1.10538 -2.05678 0
M  V30 12512 C 1177 1.41281 -0.947293 0
M  V30 12513 O 1178.19 1.51169 -1.21908 0
M  V30 12514 C 1175.32 2.42302 -2.48812 0
M  V30 12515 C 1174.27 2.25948 -3.63499 0
M  V30 12516 C 1173.6 3.62961 -3.92637 0
M  V30 12517 C 1174.9 1.69319 -4.94094 0
M  V30 12518 H 1176.59 0.703371 -2.91021 0
M  V30 12519 H 1174.14 0.336895 -1.40004 0
M  V30 12520 H 1176.09 3.13833 -2.81224 0
M  V30 12521 H 1174.81 2.84454 -1.60479 0
M  V30 12522 H 1173.47 1.5686 -3.31347 0
M  V30 12523 H 1173.12 4.02656 -3.01459 0
M  V30 12524 H 1172.82 3.52862 -4.69853 0
M  V30 12525 H 1174.34 4.35946 -4.27531 0
M  V30 12526 H 1175.76 2.30699 -5.24834 0
M  V30 12527 H 1174.15 1.69957 -5.7553 0
M  V30 12528 H 1175.22 0.653318 -4.80479 0
M  V30 12529 N 1176.57 1.53483 0.357892 0
M  V30 12530 C 1177.48 1.83434 1.4625 0
M  V30 12531 C 1178.49 0.723313 1.58254 0
M  V30 12532 O 1179.67 1.01416 1.74002 0
M  V30 12533 C 1176.73 2.0249 2.81423 0
M  V30 12534 C 1175.8 3.26378 2.78883 0
M  V30 12535 C 1175.03 3.44516 4.07608 0
M  V30 12536 O 1175.25 2.66787 5.04163 0
M  V30 12537 O 1174.19 4.37898 4.12952 0
M  V30 12538 H 1178.01 2.77294 1.23861 0
M  V30 12539 H 1175.6 1.38958 0.548722 0
M  V30 12540 H 1177.48 2.16552 3.61501 0
M  V30 12541 H 1176.15 1.11819 3.03773 0
M  V30 12542 H 1175.06 3.17733 1.97475 0
M  V30 12543 H 1176.39 4.16996 2.61486 0
M  V30 12544 N 1178.05 -0.61812 1.44973 0
M  V30 12545 C 1179.27 -1.40921 1.52171 0
M  V30 12546 C 1179.7 -1.87487 0.151755 0
M  V30 12547 O 1179.05 -1.59518 -0.861606 0
M  V30 12548 C 1179.1 -2.59689 2.50188 0
M  V30 12549 O 1178.21 -3.59967 2.0124 0
M  V30 12550 H 1177.55 -0.421138 0.51336 0
M  V30 12551 H 1180.08 -0.753258 1.90229 0
M  V30 12552 H 1180.09 -3.07069 2.6865 0
M  V30 12553 H 1178.76 -2.25144 3.4969 0
M  V30 12554 H 1177.34 -3.19308 1.92605 0
M  V30 12555 N 1179.52 -1.32087 -0.859693 0
M  V30 12556 C 1180.77 -1.21716 -1.60836 0
M  V30 12557 C 1181.09 0.220904 -1.94349 0
M  V30 12558 O 1182.29 0.446422 -2.67805 0
M  V30 12559 C 1180.75 -2.13143 -2.89997 0
M  V30 12560 C 1180.36 -3.62003 -2.63928 0
M  V30 12561 C 1182.1 -2.11596 -3.68004 0
M  V30 12562 C 1180.01 -4.45407 -3.89059 0
M  V30 12563 H 1178.94 -0.45199 -0.603507 0
M  V30 12564 H 1181.59 -1.57013 -0.949687 0
M  V30 12565 H 1179.97 -1.70755 -3.57294 0
M  V30 12566 H 1181.14 -4.12701 -2.04974 0
M  V30 12567 H 1179.46 -3.6563 -1.99258 0
M  V30 12568 H 1182.06 -2.71149 -4.6085 0
M  V30 12569 H 1182.4 -1.10568 -4.01348 0
M  V30 12570 H 1182.93 -2.52238 -3.07605 0
M  V30 12571 H 1179.67 -5.4723 -3.60859 0
M  V30 12572 H 1179.19 -3.99462 -4.47427 0
M  V30 12573 H 1180.87 -4.58149 -4.56846 0
M  V30 12574 N 1181 1.07532 -1.15215 0
M  V30 12575 C 1182.41 1.61567 -0.935568 0
M  V30 12576 C 1182.76 1.89085 0.523557 0
M  V30 12577 O 1181.89 1.65495 1.39429 0
M  V30 12578 C 1182.48 2.93531 -1.69189 0
M  V30 12579 C 1181.04 3.44316 -1.52063 0
M  V30 12580 C 1180.19 2.18404 -1.70866 0
M  V30 12581 H 1183.14 0.906431 -1.30267 0
M  V30 12582 H 1183.16 3.62377 -1.16031 0
M  V30 12583 H 1182.67 2.73471 -2.75381 0
M  V30 12584 H 1180.77 3.69462 -0.482567 0
M  V30 12585 H 1180.89 4.20478 -2.29642 0
M  V30 12586 H 1179.25 2.28012 -1.13502 0
M  V30 12587 H 1180.03 2.00841 -2.7842 0
M  V30 12588 N 1182.48 0.948665 1.2585 0
M  V30 12589 C 1183.71 0.617229 1.97479 0
M  V30 12590 C 1184.12 -0.809406 1.7057 0
M  V30 12591 O 1183.48 -1.54066 0.97826 0
M  V30 12592 C 1183.53 0.859065 3.51144 0
M  V30 12593 O 1183.25 2.2296 3.77121 0
M  V30 12594 C 1184.75 0.539197 4.40009 0
M  V30 12595 H 1181.97 0.231933 0.629641 0
M  V30 12596 H 1184.52 1.27141 1.60173 0
M  V30 12597 H 1182.67 0.25138 3.86584 0
M  V30 12598 H 1183.09 2.29524 4.71613 0
M  V30 12599 H 1184.56 0.758986 5.46757 0
M  V30 12600 H 1185.04 -0.526062 4.36038 0
M  V30 12601 H 1185.64 1.12594 4.10125 0
M  V30 12602 N 1183.96 -1.40369 0.716545 0
M  V30 12603 C 1185.24 -1.94737 0.183576 0
M  V30 12604 C 1185.62 -1.65464 -1.31092 0
M  V30 12605 O 1184.96 -0.972832 -2.06756 0
M  V30 12606 C 1185.17 -3.45438 0.497339 0
M  V30 12607 C 1186.52 -4.2235 0.436526 0
M  V30 12608 O 1187.55 -3.53553 0.433454 0
M  V30 12609 O 1186.4 -5.44923 0.41489 0
M  V30 12610 H 1183.5 -0.82655 0.0272785 0
M  V30 12611 H 1186.04 -1.49972 0.794143 0
M  V30 12612 H 1184.82 -3.60107 1.53097 0
M  V30 12613 H 1184.44 -3.97342 -0.143141 0
M  V30 12614 N 1185.44 -0.462799 -1.50652 0
M  V30 12615 C 1186.38 0.349784 -2.29955 0
M  V30 12616 C 1187.38 0.997947 -1.36885 0
M  V30 12617 O 1188.58 0.93 -1.54114 0
M  V30 12618 H 1184.96 0.131635 -0.740389 0
M  V30 12619 H 1186.93 -0.33958 -2.96461 0
M  V30 12620 C 1185.68 1.42398 -3.17204 0
M  V30 12621 H 1185 0.934611 -3.88722 0
M  V30 12622 H 1186.44 1.96528 -3.75703 0
M  V30 12623 C 1184.9 2.42135 -2.34248 0
M  V30 12624 O 1185.43 3.47229 -2.01978 0
M  V30 12625 N 1183.64 2.13647 -1.96985 0
M  V30 12626 H 1183.18 1.28209 -2.23428 0
M  V30 12627 H 1183.14 2.80615 -1.41783 0
M  V30 12628 N 1186.91 1.56388 -0.195085 0
M  V30 12629 C 1188.33 1.8398 0.317513 0
M  V30 12630 C 1188.68 1.11575 1.61386 0
M  V30 12631 O 1187.8 0.376557 2.13099 0
M  V30 12632 C 1188.4 3.33749 0.582859 0
M  V30 12633 C 1186.96 3.61752 1.03983 0
M  V30 12634 C 1186.1 2.77159 0.088434 0
M  V30 12635 H 1189.05 1.53072 -0.418871 0
M  V30 12636 H 1189.07 3.52519 1.43216 0
M  V30 12637 H 1188.59 3.86419 -0.360813 0
M  V30 12638 H 1186.69 3.14515 1.99778 0
M  V30 12639 H 1186.8 4.69937 0.932549 0
M  V30 12640 H 1185.16 2.47765 0.590317 0
M  V30 12641 H 1185.95 3.32619 -0.849682 0
M  V30 12642 N 1188.39 -0.0785156 1.57404 0
M  V30 12643 C 1189.3 -1.11203 2.0657 0
M  V30 12644 C 1190.32 -1.42822 0.993872 0
M  V30 12645 O 1191.49 -1.53133 1.30814 0
M  V30 12646 C 1188.56 -2.40812 2.4942 0
M  V30 12647 C 1187.62 -2.16225 3.70871 0
M  V30 12648 C 1186.85 -3.39654 4.11668 0
M  V30 12649 O 1187.08 -4.48521 3.524 0
M  V30 12650 O 1186.01 -3.28263 5.04507 0
M  V30 12651 H 1189.84 -0.724381 2.94935 0
M  V30 12652 H 1187.42 -0.292184 1.46515 0
M  V30 12653 H 1189.3 -3.17101 2.77534 0
M  V30 12654 H 1187.98 -2.7897 1.64187 0
M  V30 12655 H 1186.89 -1.37663 3.4785 0
M  V30 12656 H 1188.22 -1.82951 4.56935 0
M  V30 12657 N 1189.87 -1.5367 -0.349747 0
M  V30 12658 C 1190.83 -1.80533 -1.41211 0
M  V30 12659 C 1191.83 -0.676188 -1.45892 0
M  V30 12660 O 1193.02 -0.944453 -1.46375 0
M  V30 12661 C 1190.16 -1.94175 -2.80195 0
M  V30 12662 H 1191.35 -2.75428 -1.18658 0
M  V30 12663 H 1188.9 -1.44988 -0.583787 0
M  V30 12664 H 1189.64 -1.01402 -3.08039 0
M  V30 12665 H 1189.42 -2.76316 -2.78194 0
M  V30 12666 H 1190.91 -2.16496 -3.57098 0
M  V30 12667 N 1191.35 0.610423 -1.45298 0
M  V30 12668 C 1192.3 1.71552 -1.5018 0
M  V30 12669 C 1193.28 1.56697 -0.365357 0
M  V30 12670 O 1194.47 1.66082 -0.612029 0
M  V30 12671 C 1191.6 3.10298 -1.46867 0
M  V30 12672 C 1190.69 3.30549 -2.65703 0
M  V30 12673 N 1191.08 3.21073 -3.90827 0
M  V30 12674 C 1189.38 3.6141 -2.6134 0
M  V30 12675 C 1190.08 3.42577 -4.70123 0
M  V30 12676 N 1189.06 3.66434 -4.01531 0
M  V30 12677 H 1192.86 1.62714 -2.44747 0
M  V30 12678 H 1190.37 0.813587 -1.40551 0
M  V30 12679 H 1192.37 3.89575 -1.48449 0
M  V30 12680 H 1191.03 3.20286 -0.533548 0
M  V30 12681 H 1192.04 2.99537 -4.2249 0
M  V30 12682 H 1188.72 3.78253 -1.76722 0
M  V30 12683 H 1190.11 3.40669 -5.79132 0
M  V30 12684 N 1192.83 1.32541 0.852676 0
M  V30 12685 C 1194.05 1.2636 1.64462 0
M  V30 12686 C 1194.48 -0.16508 1.87374 0
M  V30 12687 O 1193.83 -1.11712 1.42794 0
M  V30 12688 C 1193.88 2.03052 2.97997 0
M  V30 12689 O 1192.99 1.37967 3.88637 0
M  V30 12690 H 1192.33 0.435393 0.501327 0
M  V30 12691 H 1194.86 1.74888 1.06186 0
M  V30 12692 H 1194.87 2.133 3.47803 0
M  V30 12693 H 1193.54 3.06941 2.80642 0
M  V30 12694 H 1192.12 1.36279 3.47106 0
M  V30 12695 N 1194.3 -1.0692 1.15784 0
M  V30 12696 C 1195.25 -2.16335 0.854506 0
M  V30 12697 C 1196.25 -1.68505 -0.173868 0
M  V30 12698 O 1197.45 -1.79977 -0.0284722 0
M  V30 12699 H 1193.83 -0.706103 0.258694 0
M  V30 12700 H 1195.8 -2.39135 1.78486 0
M  V30 12701 C 1194.55 -3.45778 0.365042 0
M  V30 12702 H 1193.87 -3.82971 1.14776 0
M  V30 12703 H 1195.31 -4.23567 0.191504 0
M  V30 12704 C 1193.77 -3.24258 -0.914253 0
M  V30 12705 O 1194.3 -3.49236 -1.98487 0
M  V30 12706 N 1192.51 -2.77722 -0.855501 0
M  V30 12707 H 1192.05 -2.57595 0.0159233 0
M  V30 12708 H 1192.01 -2.63702 -1.71198 0
M  V30 12709 N 1195.78 -0.955326 -1.25345 0
M  V30 12710 C 1196.71 -0.494145 -2.28211 0
M  V30 12711 C 1197.69 0.459875 -1.63766 0
M  V30 12712 O 1198.88 0.358679 -1.90859 0
M  V30 12713 C 1196.01 0.228228 -3.46549 0
M  V30 12714 C 1194.96 -0.640601 -4.23179 0
M  V30 12715 C 1194.29 0.212553 -5.34277 0
M  V30 12716 C 1195.59 -1.91906 -4.85767 0
M  V30 12717 H 1197.28 -1.35391 -2.67039 0
M  V30 12718 H 1194.83 -0.652462 -1.2837 0
M  V30 12719 H 1196.78 0.561995 -4.17636 0
M  V30 12720 H 1195.51 1.12224 -3.06714 0
M  V30 12721 H 1194.16 -0.957462 -3.53876 0
M  V30 12722 H 1193.81 1.10634 -4.90682 0
M  V30 12723 H 1193.51 -0.365473 -5.86462 0
M  V30 12724 H 1195.04 0.541271 -6.08196 0
M  V30 12725 H 1196.45 -1.65165 -5.48993 0
M  V30 12726 H 1194.85 -2.44279 -5.48131 0
M  V30 12727 H 1195.92 -2.62173 -4.07914 0
M  V30 12728 N 1197.26 1.39987 -0.723979 0
M  V30 12729 C 1198.49 2.0474 -0.276618 0
M  V30 12730 C 1198.9 1.54675 1.0896 0
M  V30 12731 O 1198.24 0.701956 1.69759 0
M  V30 12732 C 1198.3 3.59009 -0.187912 0
M  V30 12733 C 1197.97 4.32 -1.49079 0
M  V30 12734 C 1198.97 4.59385 -2.43436 0
M  V30 12735 C 1196.65 4.70753 -1.75204 0
M  V30 12736 C 1198.64 5.24519 -3.62159 0
M  V30 12737 C 1196.33 5.35617 -2.94206 0
M  V30 12738 C 1197.33 5.62431 -3.87506 0
M  V30 12739 O 1197.02 6.25952 -5.0442 0
M  V30 12740 H 1196.75 0.665164 -0.120554 0
M  V30 12741 H 1199.3 1.80226 -0.98527 0
M  V30 12742 H 1197.53 3.82375 0.576753 0
M  V30 12743 H 1199.22 4.0527 0.225993 0
M  V30 12744 H 1199.99 4.29902 -2.24519 0
M  V30 12745 H 1195.87 4.49247 -1.03433 0
M  V30 12746 H 1199.41 5.45364 -4.34999 0
M  V30 12747 H 1195.31 5.64521 -3.13029 0
M  V30 12748 H 1196.08 6.44448 -5.04608 0
M  V30 12749 N 1198.74 0.470782 1.50404 0
M  V30 12750 C 1199.99 -0.0859981 2.01517 0
M  V30 12751 C 1200.3 -1.40811 1.35763 0
M  V30 12752 O 1201.51 -2.04982 1.7803 0
M  V30 12753 C 1199.96 -0.203773 3.59323 0
M  V30 12754 C 1199.57 1.10989 4.34034 0
M  V30 12755 C 1201.32 -0.712528 4.18477 0
M  V30 12756 C 1199.22 0.955928 5.83623 0
M  V30 12757 H 1198.15 -0.0359142 0.753144 0
M  V30 12758 H 1200.8 0.605631 1.73218 0
M  V30 12759 H 1199.19 -0.959177 3.84208 0
M  V30 12760 H 1200.36 1.87623 4.20873 0
M  V30 12761 H 1198.67 1.54973 3.86487 0
M  V30 12762 H 1201.27 -0.844745 5.27985 0
M  V30 12763 H 1201.61 -1.70377 3.79838 0
M  V30 12764 H 1202.15 -0.0145179 3.97797 0
M  V30 12765 H 1198.89 1.92054 6.26734 0
M  V30 12766 H 1198.41 0.22997 5.99359 0
M  V30 12767 H 1200.09 0.622423 6.43999 0
M  V30 12768 N 1200.22 -1.56282 0.203376 0
M  V30 12769 C 1201.15 -2.2247 -0.709183 0
M  V30 12770 C 1202.13 -1.19046 -1.21499 0
M  V30 12771 O 1203.31 -1.47578 -1.26231 0
M  V30 12772 C 1200.44 -2.8905 -1.92529 0
M  V30 12773 C 1199.4 -3.98789 -1.55407 0
M  V30 12774 C 1198.72 -4.52574 -2.84747 0
M  V30 12775 C 1200.02 -5.16774 -0.75775 0
M  V30 12776 H 1201.72 -2.98986 -0.157392 0
M  V30 12777 H 1199.26 -1.43808 -0.0742613 0
M  V30 12778 H 1201.22 -3.34038 -2.56898 0
M  V30 12779 H 1199.94 -2.09952 -2.50175 0
M  V30 12780 H 1198.6 -3.54504 -0.933928 0
M  V30 12781 H 1198.25 -3.70229 -3.40499 0
M  V30 12782 H 1197.95 -5.26627 -2.6065 0
M  V30 12783 H 1199.47 -5.00269 -3.5009 0
M  V30 12784 H 1200.89 -5.58256 -1.30472 0
M  V30 12785 H 1199.28 -5.96945 -0.614583 0
M  V30 12786 H 1200.35 -4.84308 0.239476 0
M  V30 12787 N 1201.7 0.070167 -1.57444 0
M  V30 12788 C 1202.92 0.781894 -1.91557 0
M  V30 12789 C 1203.34 1.71037 -0.799489 0
M  V30 12790 O 1202.7 1.81082 0.227062 0
M  V30 12791 C 1202.75 1.57415 -3.25427 0
M  V30 12792 O 1202.47 0.682991 -4.32743 0
M  V30 12793 C 1203.97 2.38673 -3.73564 0
M  V30 12794 H 1201.19 0.222211 -0.633138 0
M  V30 12795 H 1203.73 0.0399504 -2.04461 0
M  V30 12796 H 1201.89 2.26835 -3.14045 0
M  V30 12797 H 1202.3 1.2342 -5.09772 0
M  V30 12798 H 1203.78 2.89716 -4.6986 0
M  V30 12799 H 1204.25 3.18269 -3.02657 0
M  V30 12800 H 1204.86 1.74405 -3.87896 0
M  V30 12801 N 1203.17 1.53854 0.341593 0
M  V30 12802 C 1204.42 1.70856 1.07948 0
M  V30 12803 C 1204.74 0.475474 1.89114 0
M  V30 12804 O 1204.01 -0.510592 1.89129 0
M  V30 12805 H 1202.59 0.629914 0.401519 0
M  V30 12806 H 1205.25 1.91112 0.382393 0
M  V30 12807 H 1204.35 2.5803 1.75575 0
M  V30 12808 N 1204.65 -0.602709 1.4562 0
M  V30 12809 C 1205.6 -1.70753 1.51088 0
M  V30 12810 C 1206.59 -1.56501 0.373662 0
M  V30 12811 O 1207.78 -1.65755 0.620828 0
M  V30 12812 C 1204.91 -3.09515 1.48511 0
M  V30 12813 C 1203.99 -3.29135 2.67453 0
M  V30 12814 N 1204.38 -3.18996 3.92524 0
M  V30 12815 C 1202.68 -3.60019 2.63253 0
M  V30 12816 C 1203.38 -3.40079 4.71933 0
M  V30 12817 N 1202.36 -3.64299 4.03469 0
M  V30 12818 H 1206.16 -1.61414 2.45607 0
M  V30 12819 H 1203.67 -0.806122 1.4098 0
M  V30 12820 H 1205.67 -3.88782 1.50513 0
M  V30 12821 H 1204.33 -3.19999 0.550526 0
M  V30 12822 H 1205.34 -2.97292 4.24073 0
M  V30 12823 H 1202.02 -3.77311 1.78725 0
M  V30 12824 H 1203.41 -3.37593 5.80931 0
M  V30 12825 N 1206.13 -1.32992 -0.845635 0
M  V30 12826 C 1207.06 -1.18513 -1.96182 0
M  V30 12827 C 1208.07 -0.11781 -1.62373 0
M  V30 12828 O 1209.26 -0.36761 -1.74674 0
M  V30 12829 C 1206.36 -0.793812 -3.29472 0
M  V30 12830 C 1205.54 -1.95134 -3.91461 0
M  V30 12831 C 1204.6 -1.54209 -5.03096 0
M  V30 12832 O 1203.62 -2.25545 -5.22607 0
M  V30 12833 N 1204.82 -0.443235 -5.78805 0
M  V30 12834 H 1207.59 -2.14663 -2.09141 0
M  V30 12835 H 1205.15 -1.25648 -1.02099 0
M  V30 12836 H 1207.14 -0.502263 -4.01571 0
M  V30 12837 H 1205.71 0.0768031 -3.12506 0
M  V30 12838 H 1204.93 -2.40889 -3.12035 0
M  V30 12839 H 1206.22 -2.72604 -4.2961 0
M  V30 12840 H 1205.62 0.150298 -5.655 0
M  V30 12841 H 1204.17 -0.211331 -6.51457 0
M  V30 12842 N 1207.61 1.06304 -1.1635 0
M  V30 12843 C 1208.83 1.83338 -0.969639 0
M  V30 12844 C 1209.26 1.81945 0.477231 0
M  V30 12845 O 1208.62 1.22018 1.34094 0
M  V30 12846 C 1208.66 3.2785 -1.50155 0
M  V30 12847 O 1207.77 4.06281 -0.707805 0
M  V30 12848 H 1207.11 0.567293 -0.345072 0
M  V30 12849 H 1209.64 1.34033 -1.54584 0
M  V30 12850 H 1209.65 3.7867 -1.51898 0
M  V30 12851 H 1208.32 3.28179 -2.55483 0
M  V30 12852 H 1206.9 3.65055 -0.760872 0
M  V30 12853 N 1209.09 0.96196 1.24836 0
M  V30 12854 C 1210.31 0.63814 1.96813 0
M  V30 12855 C 1210.73 -0.79127 1.71419 0
M  V30 12856 O 1210.09 -1.5302 0.994546 0
M  V30 12857 C 1210.14 0.89626 3.50213 0
M  V30 12858 O 1209.86 2.26947 3.74735 0
M  V30 12859 C 1211.36 0.585836 4.39412 0
M  V30 12860 H 1208.58 0.238598 0.627146 0
M  V30 12861 H 1211.12 1.28833 1.58815 0
M  V30 12862 H 1209.28 0.292368 3.86295 0
M  V30 12863 H 1209.69 2.34514 4.69152 0
M  V30 12864 H 1211.17 0.816935 5.45921 0
M  V30 12865 H 1211.64 -0.479784 4.36572 0
M  V30 12866 H 1212.25 1.16938 4.08908 0
M  V30 12867 N 1210.56 -1.39601 0.731392 0
M  V30 12868 C 1211.79 -2.0459 0.287472 0
M  V30 12869 C 1212.2 -1.5525 -1.08139 0
M  V30 12870 O 1211.54 -0.710949 -1.69385 0
M  V30 12871 C 1211.61 -3.58904 0.206948 0
M  V30 12872 C 1211.27 -4.31204 1.51368 0
M  V30 12873 C 1212.27 -4.58088 2.45869 0
M  V30 12874 C 1209.95 -4.69818 1.77698 0
M  V30 12875 C 1211.95 -5.22591 3.64935 0
M  V30 12876 C 1209.63 -5.34049 2.97043 0
M  V30 12877 C 1210.63 -5.60368 3.90483 0
M  V30 12878 O 1210.32 -6.23268 5.07732 0
M  V30 12879 H 1210.05 -0.664515 0.12408 0
M  V30 12880 H 1212.61 -1.79701 0.994814 0
M  V30 12881 H 1210.84 -3.82675 -0.556466 0
M  V30 12882 H 1212.52 -4.05385 -0.204498 0
M  V30 12883 H 1213.29 -4.28706 2.26796 0
M  V30 12884 H 1209.17 -4.48692 1.05815 0
M  V30 12885 H 1212.71 -5.43049 4.37885 0
M  V30 12886 H 1208.61 -5.62852 3.16018 0
M  V30 12887 H 1209.38 -6.41763 5.08019 0
M  V30 12888 O 1212.08 -0.620561 -1.49102 0
M  V30 12889 H 1212.77 -0.13624 -1.9322 0
M  V30 END ATOM
M  V30 BEGIN BOND
M  V30 END BOND
M  V30 END CTAB
M  END
$$$$
