drugbank_target|P52700 Metallo-beta-lactamase L1 (DB02032; DB02365; DB04740; DB07939; DB08069; DB08199; DB08702)
 OpenBabel12092120303D

  0  0  0     0  0            999 V3000
M  V30 BEGIN CTAB
M  V30 COUNTS 4313 4366 0 0 0
M  V30 BEGIN ATOM
M  V30 1 H -0.908 1.98254 -0.117106 0
M  V30 2 N 0 1.576 0 0
M  V30 3 C 0.933 2.03868 1.02534 0
M  V30 4 C 1.911 0.928543 1.3348 0
M  V30 5 O 3.095 1.19667 1.45644 0
M  V30 6 C 0.222 2.43627 2.35294 0
M  V30 7 C -0.732 3.65373 2.2001 0
M  V30 8 S 0.101 5.13292 1.52614 0
M  V30 9 C 1.257 5.56322 2.86805 0
M  V30 10 H 1.49 2.90518 0.631377 0
M  V30 11 H -0.977 1.52953 0.210867 0
M  V30 12 H 0.981 2.67203 3.11629 0
M  V30 13 H -0.358 1.57376 2.7183 0
M  V30 14 H -1.165 3.90944 3.18086 0
M  V30 15 H -1.563 3.418 1.51819 0
M  V30 16 H 0.729 5.58782 3.83104 0
M  V30 17 H 1.672 6.56266 2.65933 0
M  V30 18 H 2.08 4.83886 2.90714 0
M  V30 19 N 1.4781 -0.272755 1.55222 0
M  V30 20 C 2.8941 -0.619959 1.47067 0
M  V30 21 C 3.0941 -1.895 0.684978 0
M  V30 22 O 2.1501 -2.51675 0.203931 0
M  V30 23 C 3.4631 -0.746693 2.91282 0
M  V30 24 C 5.0111 -0.840731 3.01497 0
M  V30 25 C 5.4861 -0.99924 4.46967 0
M  V30 26 N 6.9771 -1.06476 4.50796 0
M  V30 27 C 7.7121 -1.20621 5.6057 0
M  V30 28 N 7.2081 -1.31483 6.80209 0
M  V30 29 N 9.0011 -1.23733 5.48312 0
M  V30 30 H 1.1521 0.564606 2.04758 0
M  V30 31 H 3.4151 0.191177 0.928523 0
M  V30 32 H 3.1211 0.119753 3.51496 0
M  V30 33 H 2.9951 -1.6269 3.40311 0
M  V30 34 H 5.3821 -1.69764 2.41379 0
M  V30 35 H 5.4631 0.0640874 2.5572 0
M  V30 36 H 5.1071 -0.146984 5.07687 0
M  V30 37 H 5.0371 -1.91871 4.90401 0
M  V30 38 H 7.5281 -0.993196 3.64615 0
M  V30 39 H 7.8411 -1.42111 7.59621 0
M  V30 40 H 6.1861 -1.28487 6.8302 0
M  V30 41 H 9.3771 -1.14877 4.53785 0
M  V30 42 H 9.5501 -1.34412 6.33906 0
M  V30 43 N 2.9562 -1.48159 -0.537278 0
M  V30 44 C 4.1812 -1.59707 -1.32319 0
M  V30 45 C 4.6062 -0.254859 -1.86365 0
M  V30 46 O 3.9642 0.772378 -1.64024 0
M  V30 47 C 4.0122 -2.6412 -2.45505 0
M  V30 48 O 3.1162 -2.20774 -3.48328 0
M  V30 49 H 2.4572 -0.535791 -0.392204 0
M  V30 50 H 4.9872 -1.94092 -0.647268 0
M  V30 51 H 4.9972 -2.85166 -2.91795 0
M  V30 52 H 3.6722 -3.61567 -2.05528 0
M  V30 53 H 2.2492 -2.09911 -3.08207 0
M  V30 54 N 4.4343 0.785586 -1.36625 0
M  V30 55 C 5.6623 1.57448 -1.3423 0
M  V30 56 C 6.0773 1.88649 0.0755653 0
M  V30 57 O 5.4343 1.50414 1.03354 0
M  V30 58 C 5.4853 2.89316 -2.16745 0
M  V30 59 O 5.2063 2.59459 -3.53005 0
M  V30 60 C 6.7073 3.83606 -2.22174 0
M  V30 61 H 3.9273 0.488226 -0.4603 0
M  V30 62 H 6.4713 0.974733 -1.79775 0
M  V30 63 H 4.6263 3.4575 -1.74745 0
M  V30 64 H 5.0403 3.43804 -3.96105 0
M  V30 65 H 6.5143 4.73181 -2.8426 0
M  V30 66 H 6.9913 4.21734 -1.22627 0
M  V30 67 H 7.5973 3.33104 -2.64427 0
M  V30 68 N 5.9124 1.20967 1.01018 0
M  V30 69 C 6.8424 0.988272 2.11555 0
M  V30 70 C 7.8234 -0.0849778 1.69888 0
M  V30 71 O 9.0084 0.0738202 1.9406 0
M  V30 72 C 6.1384 0.546528 3.42973 0
M  V30 73 C 5.0924 1.56375 3.9841 0
M  V30 74 C 4.4184 0.97842 5.25672 0
M  V30 75 C 5.7184 2.94922 4.31066 0
M  V30 76 H 7.4124 1.91276 2.30334 0
M  V30 77 H 4.9584 0.921073 1.1069 0
M  V30 78 H 6.9114 0.378839 4.19694 0
M  V30 79 H 5.6354 -0.413598 3.23971 0
M  V30 80 H 4.2944 1.71891 3.23804 0
M  V30 81 H 3.9424 0.0101688 5.02999 0
M  V30 82 H 3.6424 1.65784 5.63728 0
M  V30 83 H 5.1664 0.821939 6.05043 0
M  V30 84 H 6.5804 2.8288 4.9865 0
M  V30 85 H 4.9774 3.5983 4.80253 0
M  V30 86 H 6.0474 3.4616 3.39561 0
M  V30 87 N 7.3905 -1.2043 1.01659 0
M  V30 88 C 8.3205 -2.25466 0.607226 0
M  V30 89 C 9.3015 -1.65853 -0.377716 0
M  V30 90 O 10.4865 -1.92409 -0.263149 0
M  V30 91 C 7.6165 -3.47256 -0.0552949 0
M  V30 92 C 6.5705 -4.19462 0.850632 0
M  V30 93 C 5.8965 -5.34673 0.0538859 0
M  V30 94 C 7.1965 -4.75603 2.15868 0
M  V30 95 H 8.8905 -2.59962 1.48526 0
M  V30 96 H 6.4365 -1.2496 0.715605 0
M  V30 97 H 8.3895 -4.19917 -0.353233 0
M  V30 98 H 7.1135 -3.11924 -0.968045 0
M  V30 99 H 5.7725 -3.48667 1.13257 0
M  V30 100 H 5.4205 -4.95585 -0.860514 0
M  V30 101 H 5.1205 -5.83913 0.657192 0
M  V30 102 H 6.6445 -6.10138 -0.237598 0
M  V30 103 H 8.0585 -5.40083 1.92311 0
M  V30 104 H 6.4555 -5.3528 2.71284 0
M  V30 105 H 7.5255 -3.94346 2.82169 0
M  V30 106 N 8.8686 -0.792821 -1.36206 0
M  V30 107 C 9.8316 -0.199459 -2.2833 0
M  V30 108 C 10.8316 0.605189 -1.48977 0
M  V30 109 O 12.0216 0.425685 -1.68919 0
M  V30 110 C 9.1536 0.723523 -3.33134 0
M  V30 111 H 10.3466 -1.01181 -2.82316 0
M  V30 112 H 7.8996 -0.562485 -1.45828 0
M  V30 113 H 8.6346 1.56008 -2.84309 0
M  V30 114 H 8.4196 0.148436 -3.91819 0
M  V30 115 H 9.9096 1.13344 -4.01924 0
M  V30 116 N 10.3467 1.47872 -0.545128 0
M  V30 117 C 11.5937 2.02493 -0.0165858 0
M  V30 118 C 11.9217 1.42073 1.32836 0
M  V30 119 O 11.1767 0.561459 1.87473 0
M  V30 120 C 11.4757 3.57131 0.13867 0
M  V30 121 C 11.1417 4.36411 -1.13384 0
M  V30 122 C 9.8037 4.57792 -1.48256 0
M  V30 123 C 12.1557 4.82223 -1.97764 0
M  V30 124 C 9.4837 5.22233 -2.67376 0
M  V30 125 C 11.8357 5.47977 -3.16076 0
M  V30 126 C 10.4997 5.67593 -3.51275 0
M  V30 127 H 9.7697 0.740975 -0.00606918 0
M  V30 128 H 12.4167 1.77683 -0.714207 0
M  V30 129 H 10.7217 3.80865 0.919172 0
M  V30 130 H 12.4187 3.97031 0.562782 0
M  V30 131 H 9.0087 4.2004 -0.852297 0
M  V30 132 H 13.1927 4.65493 -1.72132 0
M  V30 133 H 8.4487 5.35616 -2.94831 0
M  V30 134 H 12.6227 5.8244 -3.81755 0
M  V30 135 H 10.2497 6.17298 -4.43675 0
M  V30 136 N 11.8248 0.280983 1.55075 0
M  V30 137 C 12.7878 -0.590896 2.21452 0
M  V30 138 C 13.7878 -1.07682 1.19421 0
M  V30 139 O 14.9778 -0.97605 1.44288 0
M  V30 140 C 12.1098 -1.81587 2.88511 0
M  V30 141 H 13.3028 -0.0112554 2.99898 0
M  V30 142 H 10.8558 0.0316438 1.56268 0
M  V30 143 H 11.5908 -2.43587 2.14093 0
M  V30 144 H 11.3758 -1.4753 3.63287 0
M  V30 145 H 12.8658 -2.43575 3.39206 0
M  V30 146 N 13.3029 -1.57598 0.00835791 0
M  V30 147 C 14.2329 -2.1198 -0.979113 0
M  V30 148 C 15.2139 -1.03091 -1.35301 0
M  V30 149 O 16.3989 -1.30818 -1.43528 0
M  V30 150 C 13.5289 -2.62995 -2.26828 0
M  V30 151 C 12.4829 -3.76485 -2.03576 0
M  V30 152 C 11.8089 -4.13846 -3.38579 0
M  V30 153 C 13.1089 -5.0342 -1.39161 0
M  V30 154 H 14.8029 -2.94738 -0.526281 0
M  V30 155 H 12.3489 -1.41783 -0.251704 0
M  V30 156 H 14.3019 -2.99669 -2.96271 0
M  V30 157 H 13.0259 -1.7737 -2.7424 0
M  V30 158 H 11.6849 -3.40217 -1.36557 0
M  V30 159 H 11.3329 -3.25232 -3.83709 0
M  V30 160 H 11.0329 -4.90312 -3.23834 0
M  V30 161 H 12.5569 -4.53086 -4.09323 0
M  V30 162 H 13.9709 -5.37812 -1.98573 0
M  V30 163 H 12.3679 -5.84746 -1.34878 0
M  V30 164 H 13.4379 -4.83548 -0.361868 0
M  V30 165 N 14.781 0.264519 -1.55364 0
M  V30 166 C 15.744 1.31046 -1.88042 0
M  V30 167 C 16.744 1.41943 -0.755569 0
M  V30 168 O 17.934 1.40947 -1.02369 0
M  V30 169 C 15.066 2.69067 -2.09323 0
M  V30 170 H 16.259 1.03297 -2.81549 0
M  V30 171 H 13.812 0.502989 -1.47986 0
M  V30 172 H 14.547 3.01982 -1.18226 0
M  V30 173 H 14.332 2.62542 -2.91229 0
M  V30 174 H 15.822 3.44623 -2.35848 0
M  V30 175 N 16.2591 1.48442 0.529413 0
M  V30 176 C 17.5051 1.5672 1.28711 0
M  V30 177 C 17.8381 0.2406 1.92704 0
M  V30 178 O 17.1131 -0.753454 1.79313 0
M  V30 179 C 17.3961 2.70587 2.37603 0
M  V30 180 C 17.2491 4.12953 1.78297 0
M  V30 181 C 18.5681 2.80212 3.39366 0
M  V30 182 H 15.6871 0.570474 0.466613 0
M  V30 183 H 18.3291 1.80617 0.589706 0
M  V30 184 H 16.4791 2.50342 2.97088 0
M  V30 185 H 18.1511 4.44639 1.22858 0
M  V30 186 H 16.3941 4.19927 1.0883 0
M  V30 187 H 17.0651 4.88448 2.57144 0
M  V30 188 H 19.5411 2.98553 2.89836 0
M  V30 189 H 18.4171 3.61611 4.12951 0
M  V30 190 H 18.6781 1.88393 3.99951 0
M  V30 191 N 17.7372 -0.778329 1.37039 0
M  V30 192 C 18.7002 -1.87301 1.32102 0
M  V30 193 C 19.7002 -1.59198 0.226405 0
M  V30 194 O 20.8902 -1.67403 0.481861 0
M  V30 195 C 18.0222 -3.24309 1.05055 0
M  V30 196 H 19.2152 -1.93093 2.29467 0
M  V30 197 H 16.7682 -0.977358 1.21973 0
M  V30 198 H 17.5032 -3.24196 0.0819373 0
M  V30 199 H 17.2882 -3.46098 1.84279 0
M  V30 200 H 18.7782 -4.04382 1.04234 0
M  V30 201 N 19.2153 -1.21501 -1.00376 0
M  V30 202 C 20.1453 -0.999478 -2.11028 0
M  V30 203 C 21.1263 0.0759671 -1.6993 0
M  V30 204 O 22.3113 -0.0841106 -1.94018 0
M  V30 205 C 19.4413 -0.564709 -3.42678 0
M  V30 206 C 18.3953 -1.58486 -3.97576 0
M  V30 207 C 17.7213 -1.00628 -5.25146 0
M  V30 208 C 19.0213 -2.97204 -4.29496 0
M  V30 209 H 20.7153 -1.92495 -2.29317 0
M  V30 210 H 18.2613 -0.92693 -1.102 0
M  V30 211 H 20.2143 -0.401091 -4.19487 0
M  V30 212 H 18.9383 0.396411 -3.24185 0
M  V30 213 H 17.5973 -1.73606 -3.22888 0
M  V30 214 H 17.2453 -0.0368439 -5.02987 0
M  V30 215 H 16.9453 -1.68771 -5.62841 0
M  V30 216 H 18.4693 -0.854015 -6.04598 0
M  V30 217 H 19.8833 -2.8552 -4.97143 0
M  V30 218 H 18.2803 -3.62372 -4.78338 0
M  V30 219 H 19.3503 -3.47956 -3.3772 0
M  V30 220 N 20.6934 1.19889 -1.02296 0
M  V30 221 C 22.1044 1.71124 -0.746568 0
M  V30 222 C 22.4554 1.81939 0.734335 0
M  V30 223 O 21.5804 1.48639 1.57275 0
M  V30 224 C 22.1754 3.10804 -1.34857 0
M  V30 225 C 20.7344 3.59323 -1.1209 0
M  V30 226 C 19.8814 2.3635 -1.45031 0
M  V30 227 H 22.8324 1.04813 -1.19163 0
M  V30 228 H 22.8534 3.73186 -0.742437 0
M  V30 229 H 22.3654 3.029 -2.42638 0
M  V30 230 H 20.4664 3.7255 -0.0610337 0
M  V30 231 H 20.5794 4.4378 -1.80544 0
M  V30 232 H 18.9434 2.39399 -0.869487 0
M  V30 233 H 19.7264 2.31081 -2.53883 0
M  V30 234 N 22.1715 0.800033 1.35784 0
M  V30 235 C 23.1345 0.211565 2.28221 0
M  V30 236 C 24.1345 -0.59728 1.49296 0
M  V30 237 O 25.3245 -0.416721 1.69142 0
M  V30 238 C 22.4565 -0.705846 3.33513 0
M  V30 239 H 23.6495 1.02677 2.81776 0
M  V30 240 H 21.2025 0.570211 1.45528 0
M  V30 241 H 21.9375 -1.54498 2.85133 0
M  V30 242 H 21.7225 -0.127655 3.91892 0
M  V30 243 H 23.2125 -1.11211 4.02519 0
M  V30 244 N 23.6496 -1.47581 0.552962 0
M  V30 245 C 24.6126 -2.28439 -0.186605 0
M  V30 246 C 25.6126 -1.36706 -0.84665 0
M  V30 247 O 26.8026 -1.59378 -0.703164 0
M  V30 248 C 23.9346 -3.16264 -1.2724 0
M  V30 249 H 25.1276 -2.95294 0.523609 0
M  V30 250 H 22.6806 -1.532 0.309745 0
M  V30 251 H 23.4156 -2.54091 -2.01514 0
M  V30 252 H 23.2006 -3.83769 -0.803968 0
M  V30 253 H 24.6906 -3.77198 -1.79196 0
M  V30 254 N 25.1277 -0.289203 -1.54924 0
M  V30 255 C 26.0777 0.606939 -2.19773 0
M  V30 256 C 27.0617 1.10783 -1.16687 0
M  V30 257 O 28.2537 1.05057 -1.4245 0
M  V30 258 C 25.3827 1.78398 -2.93307 0
M  V30 259 C 24.4687 1.29961 -4.03697 0
M  V30 260 N 24.8597 0.532377 -5.0299 0
M  V30 261 C 23.1577 1.58136 -4.17024 0
M  V30 262 C 23.8587 0.275912 -5.81045 0
M  V30 263 N 22.8347 0.852365 -5.36876 0
M  V30 264 H 26.6367 0.0130779 -2.93897 0
M  V30 265 H 24.1507 -0.09341 -1.62131 0
M  V30 266 H 26.1477 2.43741 -3.38225 0
M  V30 267 H 24.8077 2.38166 -2.20697 0
M  V30 268 H 25.8187 0.17838 -5.17593 0
M  V30 269 H 22.4957 2.18738 -3.55612 0
M  V30 270 H 23.8857 -0.339502 -6.71042 0
M  V30 271 N 26.6058 1.57591 -0.0167156 0
M  V30 272 C 27.8338 1.95575 0.675128 0
M  V30 273 C 28.2488 0.892542 1.6637 0
M  V30 274 O 27.6058 -0.126912 1.82058 0
M  V30 275 C 27.6568 3.33608 1.39239 0
M  V30 276 O 27.3778 4.3585 0.443444 0
M  V30 277 C 28.8788 3.86151 2.17721 0
M  V30 278 H 26.0988 0.644423 0.186978 0
M  V30 279 H 28.6428 2.0437 -0.0728 0
M  V30 280 H 26.7978 3.2607 2.09182 0
M  V30 281 H 27.2118 5.158 0.951358 0
M  V30 282 H 28.6858 4.85114 2.63379 0
M  V30 283 H 29.1628 3.19738 3.01105 0
M  V30 284 H 29.7688 3.96918 1.52761 0
M  V30 285 N 28.0839 -0.256276 1.55502 0
M  V30 286 C 29.3089 -1.00766 1.81276 0
M  V30 287 C 29.7339 -1.78524 0.59252 0
M  V30 288 O 29.0919 -1.75413 -0.45827 0
M  V30 289 C 29.1399 -1.92869 3.04687 0
M  V30 290 O 28.2439 -3.019 2.80945 0
M  V30 291 H 27.5849 -0.287224 0.598664 0
M  V30 292 H 30.1149 -0.280109 2.02674 0
M  V30 293 H 30.1249 -2.34511 3.33869 0
M  V30 294 H 28.7999 -1.35689 3.93143 0
M  V30 295 H 27.3769 -2.64454 2.62904 0
M  V30 296 N 29.562 -1.4872 -0.521534 0
M  V30 297 C 30.525 -1.63379 -1.60748 0
M  V30 298 C 31.525 -0.50661 -1.52611 0
M  V30 299 O 32.715 -0.772601 -1.5613 0
M  V30 300 C 29.847 -1.61192 -3.00383 0
M  V30 301 H 31.04 -2.60217 -1.49087 0
M  V30 302 H 28.593 -1.37444 -0.744235 0
M  V30 303 H 29.328 -0.65863 -3.17541 0
M  V30 304 H 29.113 -2.43032 -3.07698 0
M  V30 305 H 30.603 -1.7466 -3.7932 0
M  V30 306 N 31.0401 0.771051 -1.3745 0
M  V30 307 C 32.0031 1.86598 -1.33093 0
M  V30 308 C 33.0031 1.59076 -0.234845 0
M  V30 309 O 34.1931 1.67145 -0.490732 0
M  V30 310 C 31.3251 3.23747 -1.06773 0
M  V30 311 H 32.5181 1.91873 -2.30488 0
M  V30 312 H 30.0711 0.970876 -1.2249 0
M  V30 313 H 30.8061 3.24148 -0.099129 0
M  V30 314 H 30.5911 3.45115 -1.86112 0
M  V30 315 H 32.0811 4.03824 -1.06377 0
M  V30 316 N 32.5182 1.22032 0.997298 0
M  V30 317 C 33.4282 1.00271 2.12092 0
M  V30 318 C 34.4442 -0.047621 1.73935 0
M  V30 319 O 35.6202 0.144136 2.00884 0
M  V30 320 C 32.6852 0.578449 3.4184 0
M  V30 321 C 31.7462 1.70189 3.94125 0
M  V30 322 C 30.9792 1.29778 5.17681 0
M  V30 323 O 31.2022 0.174676 5.70132 0
M  V30 324 O 30.1362 2.11261 5.63607 0
M  V30 325 H 33.9622 1.94398 2.3333 0
M  V30 326 H 31.5472 1.00587 1.10465 0
M  V30 327 H 33.4292 0.351998 4.19927 0
M  V30 328 H 32.1042 -0.334019 3.21972 0
M  V30 329 H 31.0112 1.98282 3.1723 0
M  V30 330 H 32.3442 2.59206 4.18417 0
M  V30 331 N 33.9963 -1.19345 1.0293 0
M  V30 332 C 35.2423 -1.89318 0.727083 0
M  V30 333 C 35.5753 -1.79446 -0.742483 0
M  V30 334 O 34.8503 -1.1871 -1.54072 0
M  V30 335 C 35.1333 -3.40238 1.17942 0
M  V30 336 C 34.9863 -3.58979 2.71024 0
M  V30 337 C 36.3053 -4.33479 0.760548 0
M  V30 338 H 33.4243 -0.687475 0.265606 0
M  V30 339 H 36.0663 -1.40477 1.2793 0
M  V30 340 H 34.2163 -3.81964 0.709608 0
M  V30 341 H 35.8883 -3.26421 3.25955 0
M  V30 342 H 34.1313 -3.02018 3.11396 0
M  V30 343 H 34.8023 -4.64823 2.9773 0
M  V30 344 H 37.2783 -3.99469 1.16464 0
M  V30 345 H 36.1543 -5.37664 1.10493 0
M  V30 346 H 36.4153 -4.40813 -0.337063 0
M  V30 347 N 35.4744 -0.807222 -1.35358 0
M  V30 348 C 36.8854 -0.44876 -1.81226 0
M  V30 349 C 37.2364 1.02929 -1.67033 0
M  V30 350 O 36.3614 1.79991 -1.20133 0
M  V30 351 C 36.9564 -0.807774 -3.2903 0
M  V30 352 C 35.5154 -0.501901 -3.73039 0
M  V30 353 C 34.6624 -1.03304 -2.57339 0
M  V30 354 H 37.6134 -0.998808 -1.23327 0
M  V30 355 H 37.6344 -0.10554 -3.80354 0
M  V30 356 H 37.1464 -1.88357 -3.39328 0
M  V30 357 H 35.2474 0.565128 -3.68289 0
M  V30 358 H 35.3604 -1.03497 -4.67787 0
M  V30 359 H 33.7244 -0.455339 -2.50597 0
M  V30 360 H 34.5074 -2.11496 -2.70415 0
M  V30 361 N 36.9525 1.47285 -0.560781 0
M  V30 362 C 37.8825 2.32857 0.173105 0
M  V30 363 C 38.8635 1.44009 0.905281 0
M  V30 364 O 40.0485 1.7286 0.885046 0
M  V30 365 C 37.1785 3.25861 1.20133 0
M  V30 366 C 36.1325 4.23978 0.585388 0
M  V30 367 C 35.4585 5.06332 1.7185 0
M  V30 368 C 36.7585 5.20242 -0.463178 0
M  V30 369 H 38.4525 2.94466 -0.541307 0
M  V30 370 H 35.9985 1.41601 -0.261764 0
M  V30 371 H 37.9515 3.84569 1.72293 0
M  V30 372 H 36.6755 2.62315 1.94573 0
M  V30 373 H 35.3345 3.66501 0.085054 0
M  V30 374 H 34.9825 4.39186 2.45203 0
M  V30 375 H 34.6825 5.72762 1.31213 0
M  V30 376 H 36.2065 5.67899 2.24329 0
M  V30 377 H 37.6205 5.73293 -0.027502 0
M  V30 378 H 36.0175 5.94896 -0.788627 0
M  V30 379 H 37.0875 4.65504 -1.35773 0
M  V30 380 N 38.4306 0.297415 1.54768 0
M  V30 381 C 39.8416 -0.195947 1.85669 0
M  V30 382 C 40.1926 -1.53707 1.21937 0
M  V30 383 O 39.3176 -2.10164 0.515754 0
M  V30 384 C 39.9126 -0.362318 3.36857 0
M  V30 385 C 38.4716 -0.799901 3.67802 0
M  V30 386 C 37.6186 0.0938578 2.77141 0
M  V30 387 H 40.5696 0.518538 1.4999 0
M  V30 388 H 40.5906 -1.19745 3.61167 0
M  V30 389 H 40.1026 0.613921 3.83214 0
M  V30 390 H 38.2036 -1.78682 3.26961 0
M  V30 391 H 38.3166 -0.621773 4.75048 0
M  V30 392 H 36.6806 -0.426254 2.51108 0
M  V30 393 H 37.4636 1.06639 3.26318 0
M  V30 394 N 39.9087 -1.5758 0.0250728 0
M  V30 395 C 40.8407 -2.06869 -0.986796 0
M  V30 396 C 41.8537 -0.991332 -1.29137 0
M  V30 397 O 43.0427 -1.26761 -1.25674 0
M  V30 398 C 40.1427 -2.47486 -2.31525 0
M  V30 399 C 39.3157 -3.78253 -2.19643 0
M  V30 400 C 38.3747 -4.05464 -3.35388 0
M  V30 401 O 37.4007 -4.75774 -3.12454 0
M  V30 402 N 38.6027 -3.55321 -4.59051 0
M  V30 403 H 41.3677 -2.94302 -0.566276 0
M  V30 404 H 38.9287 -1.6109 -0.161776 0
M  V30 405 H 40.9207 -2.62785 -3.07776 0
M  V30 406 H 39.4907 -1.65441 -2.65232 0
M  V30 407 H 38.7107 -3.7279 -1.28144 0
M  V30 408 H 39.9987 -4.63936 -2.08903 0
M  V30 409 H 39.3967 -2.98431 -4.80578 0
M  V30 410 H 37.9537 -3.75905 -5.32483 0
M  V30 411 N 41.3868 0.248026 -1.55636 0
M  V30 412 C 42.3168 1.31079 -1.93237 0
M  V30 413 C 43.2978 1.50264 -0.797174 0
M  V30 414 O 44.4828 1.62891 -1.05737 0
M  V30 415 C 41.6128 2.66575 -2.22609 0
M  V30 416 C 40.5668 2.62087 -3.3837 0
M  V30 417 C 39.8928 4.01369 -3.53281 0
M  V30 418 C 41.1928 2.19171 -4.7409 0
M  V30 419 H 42.8868 0.998556 -2.82257 0
M  V30 420 H 40.4328 0.47891 -1.35803 0
M  V30 421 H 42.3858 3.41057 -2.47503 0
M  V30 422 H 41.1098 2.99432 -1.30414 0
M  V30 423 H 39.7688 1.90063 -3.13483 0
M  V30 424 H 39.4168 4.31489 -2.58508 0
M  V30 425 H 39.1168 3.99254 -4.31127 0
M  V30 426 H 40.6408 4.77552 -3.80495 0
M  V30 427 H 42.0548 2.83384 -4.98363 0
M  V30 428 H 40.4518 2.2817 -5.5503 0
M  V30 429 H 41.5218 1.14336 -4.71227 0
M  V30 430 N 42.8649 1.48995 0.513639 0
M  V30 431 C 44.2809 1.35478 0.843682 0
M  V30 432 C 44.4809 0.378213 1.97919 0
M  V30 433 O 43.5369 -0.194689 2.51748 0
M  V30 434 C 44.8499 2.75901 1.1958 0
M  V30 435 C 46.3979 2.84509 1.30474 0
M  V30 436 C 46.8729 4.25671 1.69021 0
M  V30 437 N 48.3639 4.28422 1.76094 0
M  V30 438 C 49.0989 5.34601 2.07338 0
M  V30 439 N 48.5949 6.5104 2.36894 0
M  V30 440 N 50.3879 5.22007 2.08483 0
M  V30 441 H 42.5389 2.11092 -0.235328 0
M  V30 442 H 44.8019 0.947039 -0.0426669 0
M  V30 443 H 44.5079 3.49001 0.434913 0
M  V30 444 H 44.3819 3.10467 2.1422 0
M  V30 445 H 46.7689 2.11655 2.05637 0
M  V30 446 H 46.8499 2.53542 0.339155 0
M  V30 447 H 46.4939 4.99048 0.944135 0
M  V30 448 H 46.4239 4.54094 2.66658 0
M  V30 449 H 48.9149 3.44441 1.55464 0
M  V30 450 H 49.2279 7.2779 2.59887 0
M  V30 451 H 47.5729 6.54287 2.34378 0
M  V30 452 H 50.7639 4.30051 1.84861 0
M  V30 453 H 50.9369 6.04854 2.325 0
M  V30 454 N 44.343 -0.763751 1.37857 0
M  V30 455 C 45.306 -1.85889 1.34081 0
M  V30 456 C 46.306 -1.58949 0.243277 0
M  V30 457 O 47.496 -1.66882 0.499589 0
M  V30 458 C 44.628 -3.23176 1.08489 0
M  V30 459 H 45.821 -1.90648 2.31502 0
M  V30 460 H 43.374 -0.964367 1.23003 0
M  V30 461 H 44.109 -3.24091 0.116318 0
M  V30 462 H 43.894 -3.44124 1.8794 0
M  V30 463 H 45.384 -4.03254 1.08517 0
M  V30 464 N 45.8211 -1.22559 -0.990812 0
M  V30 465 C 47.0511 -1.07623 -1.76355 0
M  V30 466 C 47.4591 0.37601 -1.85426 0
M  V30 467 O 46.8021 1.27228 -1.32509 0
M  V30 468 C 46.8641 -1.61507 -3.21179 0
M  V30 469 C 46.5281 -3.10146 -3.35646 0
M  V30 470 C 47.5251 -4.07553 -3.22796 0
M  V30 471 C 45.2101 -3.49644 -3.60631 0
M  V30 472 C 47.2041 -5.42442 -3.34716 0
M  V30 473 C 44.8911 -4.84682 -3.72192 0
M  V30 474 C 45.8891 -5.8089 -3.59243 0
M  V30 475 O 45.5771 -7.13476 -3.70415 0
M  V30 476 H 45.3091 -0.377745 -0.560611 0
M  V30 477 H 47.8631 -1.62658 -1.25425 0
M  V30 478 H 46.0931 -1.00881 -3.73309 0
M  V30 479 H 47.7821 -1.42202 -3.80175 0
M  V30 480 H 48.5481 -3.78381 -3.03403 0
M  V30 481 H 44.4271 -2.75282 -3.69785 0
M  V30 482 H 47.9711 -6.17518 -3.24526 0
M  V30 483 H 43.8681 -5.13534 -3.91092 0
M  V30 484 H 44.6361 -7.21083 -3.87275 0
M  V30 485 N 47.2992 1.18797 -1.03562 0
M  V30 486 C 48.5272 1.92599 -0.755869 0
M  V30 487 C 48.9422 1.75886 0.686271 0
M  V30 488 O 48.2992 1.08517 1.46732 0
M  V30 489 C 48.3502 3.44159 -1.10619 0
M  V30 490 O 48.0712 3.60341 -2.4917 0
M  V30 491 C 49.5722 4.3507 -0.850214 0
M  V30 492 H 46.7922 0.611587 -0.276048 0
M  V30 493 H 49.3362 1.50742 -1.38192 0
M  V30 494 H 47.4912 3.83823 -0.525194 0
M  V30 495 H 47.9052 4.54128 -2.62427 0
M  V30 496 H 49.3792 5.39989 -1.14523 0
M  V30 497 H 49.8562 4.38673 0.215176 0
M  V30 498 H 50.4622 4.01097 -1.41426 0
M  V30 499 N 48.7773 0.814389 1.34928 0
M  V30 500 C 50.0233 0.399013 1.98836 0
M  V30 501 C 50.3563 -1.03314 1.64438 0
M  V30 502 O 49.6313 -1.71811 0.911659 0
M  V30 503 C 49.9143 0.591629 3.55207 0
M  V30 504 C 49.7673 2.06928 3.99376 0
M  V30 505 C 51.0863 0.022199 4.40094 0
M  V30 506 H 48.2053 0.146451 0.722303 0
M  V30 507 H 50.8473 1.02537 1.59957 0
M  V30 508 H 48.9973 0.0584441 3.88456 0
M  V30 509 H 50.6693 2.66544 3.76499 0
M  V30 510 H 48.9123 2.56287 3.49999 0
M  V30 511 H 49.5833 2.1549 5.08201 0
M  V30 512 H 52.0593 0.477643 4.13349 0
M  V30 513 H 50.9353 0.186832 5.48582 0
M  V30 514 H 51.1963 -1.07215 4.28902 0
M  V30 515 N 50.2554 -1.46986 0.568584 0
M  V30 516 C 51.5324 -1.95592 -0.0174074 0
M  V30 517 C 51.9124 -1.51124 -1.47393 0
M  V30 518 O 51.2604 -0.755329 -2.15655 0
M  V30 519 C 51.4704 -3.48719 0.139913 0
M  V30 520 C 52.8184 -4.246 0.000426376 0
M  V30 521 O 53.8424 -3.56135 0.0680316 0
M  V30 522 O 52.7014 -5.46302 -0.146988 0
M  V30 523 H 49.7954 -0.82498 -0.0577599 0
M  V30 524 H 52.3414 -1.57335 0.635909 0
M  V30 525 H 51.1134 -3.73927 1.15301 0
M  V30 526 H 50.7364 -3.93771 -0.550491 0
M  V30 527 N 51.7335 -0.305618 -1.54608 0
M  V30 528 C 52.6965 0.555591 -2.22364 0
M  V30 529 C 53.6965 1.05768 -1.21119 0
M  V30 530 O 54.8865 0.952972 -1.45822 0
M  V30 531 C 52.0185 1.76974 -2.91364 0
M  V30 532 H 53.2115 -0.0364572 -2.99878 0
M  V30 533 H 50.7645 -0.0565007 -1.56198 0
M  V30 534 H 51.4995 2.40151 -2.17941 0
M  V30 535 H 51.2845 1.41732 -3.65588 0
M  V30 536 H 52.7745 2.38148 -3.43038 0
M  V30 537 N 53.2116 1.57565 -0.0334293 0
M  V30 538 C 54.4366 1.96689 0.657895 0
M  V30 539 C 54.8616 0.910057 1.64619 0
M  V30 540 O 54.2196 -0.128598 1.80843 0
M  V30 541 C 54.2676 3.34905 1.33683 0
M  V30 542 O 53.3716 3.31574 2.45219 0
M  V30 543 H 52.7126 0.641205 0.172489 0
M  V30 544 H 55.2426 2.04372 -0.0965621 0
M  V30 545 H 55.2526 3.71234 1.69262 0
M  V30 546 H 53.9276 4.11366 0.612411 0
M  V30 547 H 52.5046 3.06968 2.11719 0
M  V30 548 N 54.6897 -0.239769 1.55765 0
M  V30 549 C 55.9357 -0.963942 1.79108 0
M  V30 550 C 56.2907 -1.82689 0.60352 0
M  V30 551 O 55.5837 -1.87313 -0.403033 0
M  V30 552 C 55.7777 -1.852 3.05672 0
M  V30 553 C 55.6067 -1.07651 4.36625 0
M  V30 554 C 54.3767 -0.778738 4.99263 0
M  V30 555 C 56.5747 -0.45062 5.12322 0
M  V30 556 N 54.5567 0.0200708 6.13897 0
M  V30 557 C 55.9277 0.212429 6.19636 0
M  V30 558 C 57.9827 -0.361806 4.96584 0
M  V30 559 C 56.6857 0.955772 7.12922 0
M  V30 560 C 58.7117 0.368023 5.90254 0
M  V30 561 C 58.0737 1.01968 6.96981 0
M  V30 562 H 54.1727 -0.333601 0.707272 0
M  V30 563 H 56.7567 -0.236425 1.93259 0
M  V30 564 H 54.9277 -2.55149 2.92837 0
M  V30 565 H 56.6597 -2.51228 3.1728 0
M  V30 566 H 53.4147 -1.09229 4.60832 0
M  V30 567 H 53.8387 0.407777 6.75771 0
M  V30 568 H 58.4807 -0.851286 4.14141 0
M  V30 569 H 56.1987 1.45683 7.9486 0
M  V30 570 H 59.7847 0.437504 5.80153 0
M  V30 571 H 58.6647 1.5754 7.68213 0
M  V30 572 N 56.1678 -1.49265 -0.50573 0
M  V30 573 C 57.0978 -1.68495 -1.61653 0
M  V30 574 C 58.0788 -0.53366 -1.61512 0
M  V30 575 O 59.2638 -0.76897 -1.78327 0
M  V30 576 C 56.3938 -1.74709 -3.00157 0
M  V30 577 C 55.3478 -2.89581 -3.15162 0
M  V30 578 C 54.6738 -2.80903 -4.5497 0
M  V30 579 C 55.9738 -4.30578 -2.95634 0
M  V30 580 H 57.6678 -2.61493 -1.45814 0
M  V30 581 H 55.2138 -1.25838 -0.70005 0
M  V30 582 H 57.1668 -1.86748 -3.77761 0
M  V30 583 H 55.8908 -0.783067 -3.17074 0
M  V30 584 H 54.5498 -2.77136 -2.39982 0
M  V30 585 H 54.1978 -1.82419 -4.68756 0
M  V30 586 H 53.8978 -3.57999 -4.65951 0
M  V30 587 H 55.4218 -2.94944 -5.34641 0
M  V30 588 H 56.8358 -4.4373 -3.63011 0
M  V30 589 H 55.2328 -5.0886 -3.18091 0
M  V30 590 H 56.3028 -4.45352 -1.91806 0
M  V30 591 N 57.6459 0.756429 -1.3826 0
M  V30 592 C 58.5779 1.87971 -1.31147 0
M  V30 593 C 59.5909 1.61248 -0.224239 0
M  V30 594 O 60.7799 1.71881 -0.481581 0
M  V30 595 C 57.8799 3.23545 -1.00857 0
M  V30 596 C 57.0529 3.77794 -2.20432 0
M  V30 597 C 56.1119 4.91877 -1.86931 0
M  V30 598 O 55.1379 5.06659 -2.59395 0
M  V30 599 N 56.3399 5.74643 -0.822568 0
M  V30 600 H 59.1049 1.94585 -2.2794 0
M  V30 601 H 56.6659 0.936234 -1.32084 0
M  V30 602 H 58.6579 3.97403 -0.765021 0
M  V30 603 H 57.2279 3.12335 -0.128687 0
M  V30 604 H 56.4479 2.95534 -2.6087 0
M  V30 605 H 57.7359 4.10771 -3.00241 0
M  V30 606 H 57.1339 5.65266 -0.221575 0
M  V30 607 H 55.6909 6.48661 -0.638899 0
M  V30 608 N 59.124 1.23083 0.984299 0
M  V30 609 C 60.535 1.05609 1.5396 0
M  V30 610 C 60.886 -0.377793 1.92528 0
M  V30 611 O 60.011 -1.26398 1.75649 0
M  V30 612 C 60.606 1.91087 2.7977 0
M  V30 613 C 59.165 1.77885 3.31713 0
M  V30 614 C 58.312 1.87028 2.04733 0
M  V30 615 H 61.263 1.36802 0.804419 0
M  V30 616 H 61.284 1.43336 3.5247 0
M  V30 617 H 60.796 2.9544 2.51668 0
M  V30 618 H 58.897 0.762995 3.64704 0
M  V30 619 H 59.01 2.61047 4.01735 0
M  V30 620 H 57.374 1.30565 2.18689 0
M  V30 621 H 58.157 2.92929 1.79017 0
M  V30 622 N 60.6021 -1.18246 1.0419 0
M  V30 623 C 61.5351 -2.20746 0.578474 0
M  V30 624 C 62.5131 -1.57912 -0.387624 0
M  V30 625 O 63.6971 -1.86071 -0.301634 0
M  V30 626 C 60.8241 -3.38346 -0.154762 0
M  V30 627 C 59.8701 -4.19587 0.764782 0
M  V30 628 S 60.7031 -4.86014 2.24835 0
M  V30 629 C 61.8591 -6.07012 1.526 0
M  V30 630 H 62.0921 -2.59715 1.44691 0
M  V30 631 H 59.6251 -1.287 0.85297 0
M  V30 632 H 61.5831 -4.065 -0.571641 0
M  V30 633 H 60.2441 -2.97786 -0.999105 0
M  V30 634 H 59.4371 -5.03611 0.197976 0
M  V30 635 H 59.0391 -3.56818 1.12057 0
M  V30 636 H 61.3311 -6.72523 0.819733 0
M  V30 637 H 62.2741 -6.68202 2.34333 0
M  V30 638 H 62.6821 -5.55249 1.01779 0
M  V30 639 N 62.0802 -0.821533 -1.34494 0
M  V30 640 C 63.0432 -0.247847 -2.27856 0
M  V30 641 C 64.0432 0.573453 -1.50227 0
M  V30 642 O 65.2332 0.389759 -1.69784 0
M  V30 643 C 62.3652 0.652698 -3.34593 0
M  V30 644 H 63.5582 -1.07146 -2.80107 0
M  V30 645 H 61.1112 -0.593291 -1.44602 0
M  V30 646 H 61.8462 1.49943 -2.87555 0
M  V30 647 H 61.6312 0.065292 -3.92046 0
M  V30 648 H 63.1212 1.04793 -4.04238 0
M  V30 649 N 63.5583 1.46682 -0.576371 0
M  V30 650 C 64.9693 1.86112 -0.148091 0
M  V30 651 C 65.3203 1.48073 1.2872 0
M  V30 652 O 64.4453 0.892656 1.97131 0
M  V30 653 C 65.0403 3.37786 -0.261982 0
M  V30 654 C 63.5993 3.76235 0.111384 0
M  V30 655 C 62.7463 2.70713 -0.60083 0
M  V30 656 H 65.6973 1.37927 -0.78497 0
M  V30 657 H 65.7183 3.77007 0.514364 0
M  V30 658 H 65.2303 3.6544 -1.30671 0
M  V30 659 H 63.3313 3.54198 1.15649 0
M  V30 660 H 63.4443 4.78391 -0.26052 0
M  V30 661 H 61.8083 2.54666 -0.0417783 0
M  V30 662 H 62.5913 3.01208 -1.64708 0
M  V30 663 N 65.0364 0.313813 1.54444 0
M  V30 664 C 65.9664 -0.549454 2.26943 0
M  V30 665 C 66.9474 -1.12741 1.27372 0
M  V30 666 O 68.1324 -1.15436 1.56167 0
M  V30 667 C 65.2624 -1.71523 3.01989 0
M  V30 668 C 64.2164 -1.26703 4.08816 0
M  V30 669 C 63.5424 -2.51898 4.71647 0
M  V30 670 C 64.8424 -0.388962 5.2085 0
M  V30 671 H 66.5364 0.0552661 2.99349 0
M  V30 672 H 64.0824 0.0280207 1.43973 0
M  V30 673 H 66.0354 -2.32535 3.51433 0
M  V30 674 H 64.7594 -2.34639 2.27183 0
M  V30 675 H 63.4184 -0.679896 3.6024 0
M  V30 676 H 63.0664 -3.13356 3.93468 0
M  V30 677 H 62.7664 -2.22605 5.43802 0
M  V30 678 H 64.2904 -3.1369 5.23861 0
M  V30 679 H 65.7044 -0.905107 5.6611 0
M  V30 680 H 64.1014 -0.18924 5.99802 0
M  V30 681 H 65.1714 0.582699 4.81386 0
M  V30 682 N 66.5145 -1.57545 0.0417849 0
M  V30 683 C 67.4465 -2.07904 -0.964799 0
M  V30 684 C 68.4595 -1.00497 -1.28079 0
M  V30 685 O 69.6485 -1.28087 -1.24322 0
M  V30 686 C 66.7485 -2.49928 -2.28887 0
M  V30 687 C 65.9215 -3.80562 -2.15619 0
M  V30 688 C 64.9805 -4.08999 -3.31069 0
M  V30 689 O 64.0065 -4.79061 -3.0739 0
M  V30 690 N 65.2085 -3.6017 -4.55256 0
M  V30 691 H 67.9735 -2.94886 -0.535029 0
M  V30 692 H 65.5345 -1.61252 -0.144681 0
M  V30 693 H 67.5265 -2.66034 -3.04972 0
M  V30 694 H 66.0965 -1.68245 -2.63463 0
M  V30 695 H 65.3165 -3.74129 -1.24183 0
M  V30 696 H 66.6045 -4.66126 -2.03971 0
M  V30 697 H 66.0025 -3.03512 -4.77386 0
M  V30 698 H 64.5595 -3.81532 -5.28466 0
M  V30 699 N 67.9926 0.231505 -1.5589 0
M  V30 700 C 69.2416 0.955346 -1.7764 0
M  V30 701 C 69.5546 1.85893 -0.608546 0
M  V30 702 O 70.7606 2.62067 -0.70943 0
M  V30 703 C 69.2166 1.74886 -3.14552 0
M  V30 704 C 68.8246 0.891915 -4.39032 0
M  V30 705 C 70.5686 2.46452 -3.45633 0
M  V30 706 C 68.4756 1.68221 -5.66971 0
M  V30 707 H 67.4056 0.360446 -0.662265 0
M  V30 708 H 70.0566 0.209516 -1.823 0
M  V30 709 H 68.4386 2.53723 -3.04041 0
M  V30 710 H 69.6126 0.144793 -4.60572 0
M  V30 711 H 67.9276 0.288863 -4.15397 0
M  V30 712 H 70.5246 3.06061 -4.38441 0
M  V30 713 H 70.8676 3.18841 -2.67668 0
M  V30 714 H 71.4006 1.74613 -3.57428 0
M  V30 715 H 68.1396 1.00178 -6.478 0
M  V30 716 H 67.6596 2.4042 -5.49507 0
M  V30 717 H 69.3386 2.24544 -6.06786 0
M  V30 718 N 69.4707 1.49531 0.497807 0
M  V30 719 C 70.4337 1.65916 1.58128 0
M  V30 720 C 71.4337 0.530825 1.51786 0
M  V30 721 O 72.6237 0.797342 1.54881 0
M  V30 722 C 69.7557 1.65951 2.9778 0
M  V30 723 H 70.9487 2.62556 1.44929 0
M  V30 724 H 68.5017 1.38611 0.722275 0
M  V30 725 H 69.2367 0.709065 3.16453 0
M  V30 726 H 69.0217 2.47897 3.03792 0
M  V30 727 H 70.5117 1.80673 3.76493 0
M  V30 728 N 70.9488 -0.749086 1.3866 0
M  V30 729 C 72.2258 -1.4992 1.25632 0
M  V30 730 C 72.6058 -2.10633 -0.140317 0
M  V30 731 O 71.9538 -1.97437 -1.15025 0
M  V30 732 C 72.1638 -2.56195 2.36992 0
M  V30 733 C 73.5118 -3.22972 2.75634 0
M  V30 734 O 74.5358 -2.66502 2.36337 0
M  V30 735 O 73.3948 -4.25122 3.43415 0
M  V30 736 H 70.4888 -0.665067 0.491544 0
M  V30 737 H 73.0348 -0.784113 1.50498 0
M  V30 738 H 71.8068 -2.09612 3.30422 0
M  V30 739 H 71.4298 -3.35279 2.13714 0
M  V30 740 N 72.4269 -1.23603 -0.977757 0
M  V30 741 C 73.3769 -0.986664 -2.05545 0
M  V30 742 C 74.3609 0.0683009 -1.60755 0
M  V30 743 O 75.5529 -0.144162 -1.76412 0
M  V30 744 C 72.6819 -0.582623 -3.3832 0
M  V30 745 C 71.7679 -1.67313 -3.89701 0
M  V30 746 N 72.1589 -2.90394 -4.14132 0
M  V30 747 C 70.4569 -1.54832 -4.18262 0
M  V30 748 C 71.1579 -3.61017 -4.56116 0
M  V30 749 N 70.1339 -2.8854 -4.60701 0
M  V30 750 H 73.9359 -1.92139 -2.22396 0
M  V30 751 H 71.4499 -1.1358 -1.16074 0
M  V30 752 H 73.4469 -0.38524 -4.15116 0
M  V30 753 H 72.1069 0.34503 -3.22862 0
M  V30 754 H 73.1179 -3.26673 -4.01877 0
M  V30 755 H 69.7949 -0.687969 -4.11793 0
M  V30 756 H 71.1849 -4.66544 -4.83514 0
M  V30 757 N 73.905 1.17692 -1.04816 0
M  V30 758 C 75.133 1.91786 -0.776254 0
M  V30 759 C 75.548 1.76604 0.667577 0
M  V30 760 O 74.905 1.10067 1.45573 0
M  V30 761 C 74.956 3.42967 -1.14263 0
M  V30 762 O 74.677 3.57678 -2.52978 0
M  V30 763 C 76.178 4.34144 -0.896311 0
M  V30 764 H 73.398 0.608624 -0.282519 0
M  V30 765 H 75.942 1.49268 -1.39783 0
M  V30 766 H 74.097 3.83245 -0.565874 0
M  V30 767 H 74.511 4.51319 -2.67229 0
M  V30 768 H 75.985 5.38744 -1.20244 0
M  V30 769 H 76.462 4.38876 0.168636 0
M  V30 770 H 77.068 3.99574 -1.45672 0
M  V30 771 N 75.3831 0.828654 1.34056 0
M  V30 772 C 76.6291 0.429279 1.98818 0
M  V30 773 C 76.9841 -0.998011 1.64492 0
M  V30 774 O 76.2771 -1.68652 0.909228 0
M  V30 775 C 76.4711 0.575226 3.52741 0
M  V30 776 C 76.3001 2.01515 4.02022 0
M  V30 777 C 75.0701 2.64825 4.30344 0
M  V30 778 C 77.2681 2.98261 4.18981 0
M  V30 779 N 75.2501 3.99998 4.65698 0
M  V30 780 C 76.6211 4.18356 4.57578 0
M  V30 781 C 78.6761 2.94802 4.01243 0
M  V30 782 C 77.3791 5.35454 4.80293 0
M  V30 783 C 79.4051 4.11121 4.25128 0
M  V30 784 C 78.7671 5.29969 4.64018 0
M  V30 785 H 74.8661 0.205304 0.754569 0
M  V30 786 H 77.4501 1.07457 1.62361 0
M  V30 787 H 75.6211 -0.0401962 3.88379 0
M  V30 788 H 77.3531 0.148292 4.04428 0
M  V30 789 H 74.1081 2.16027 4.21461 0
M  V30 790 H 74.5321 4.69653 4.87601 0
M  V30 791 H 79.1741 2.04054 3.70299 0
M  V30 792 H 76.8921 6.26755 5.10102 0
M  V30 793 H 80.4781 4.0985 4.12934 0
M  V30 794 H 79.3581 6.18479 4.82134 0
M  V30 795 N 76.8612 -1.46375 0.584142 0
M  V30 796 C 77.7932 -2.28443 -0.186119 0
M  V30 797 C 78.8062 -1.38596 -0.854115 0
M  V30 798 O 79.9952 -1.63183 -0.723438 0
M  V30 799 C 77.0952 -3.13671 -1.28311 0
M  V30 800 C 76.2682 -4.31652 -0.706758 0
M  V30 801 C 75.3272 -4.98267 -1.69163 0
M  V30 802 O 74.3532 -5.55815 -1.22712 0
M  V30 803 N 75.5552 -4.95408 -3.02575 0
M  V30 804 H 78.3202 -2.9519 0.517986 0
M  V30 805 H 75.8812 -1.56303 0.42201 0
M  V30 806 H 77.8732 -3.55101 -1.94128 0
M  V30 807 H 76.4432 -2.48989 -1.89005 0
M  V30 808 H 75.6632 -3.93989 0.128908 0
M  V30 809 H 76.9512 -5.07906 -0.301506 0
M  V30 810 H 76.3492 -4.49902 -3.42936 0
M  V30 811 H 74.9062 -5.40774 -3.63877 0
M  V30 812 N 78.3393 -0.321999 -1.54275 0
M  V30 813 C 79.5883 0.281931 -1.9972 0
M  V30 814 C 79.9013 1.53369 -1.21397 0
M  V30 815 O 81.1073 2.21352 -1.57211 0
M  V30 816 C 79.5633 0.5529 -3.55628 0
M  V30 817 C 79.1713 -0.681721 -4.42783 0
M  V30 818 C 80.9153 1.11687 -4.09544 0
M  V30 819 C 78.8223 -0.382742 -5.9016 0
M  V30 820 H 77.7523 0.109124 -0.746062 0
M  V30 821 H 80.4033 -0.43398 -1.78294 0
M  V30 822 H 78.7853 1.32896 -3.73035 0
M  V30 823 H 79.9593 -1.45723 -4.37151 0
M  V30 824 H 78.2743 -1.1658 -3.99748 0
M  V30 825 H 80.8713 1.35515 -5.17242 0
M  V30 826 H 81.2143 2.06575 -3.61431 0
M  V30 827 H 81.7473 0.402032 -3.95763 0
M  V30 828 H 78.4863 -1.30076 -6.42464 0
M  V30 829 H 78.0063 0.355094 -5.98748 0
M  V30 830 H 79.6853 0.00800157 -6.47 0
M  V30 831 N 79.8174 1.5752 -0.0501392 0
M  V30 832 C 81.0654 1.9227 0.622642 0
M  V30 833 C 81.3864 0.929083 1.71444 0
M  V30 834 O 80.6564 -0.0262186 1.95882 0
M  V30 835 H 79.2364 0.709739 0.232981 0
M  V30 836 H 81.8984 1.94628 -0.102898 0
M  V30 837 H 80.9944 2.93479 1.06191 0
M  V30 838 N 81.2955 -0.223234 1.56011 0
M  V30 839 C 82.5235 -0.964812 1.83027 0
M  V30 840 C 82.9385 -1.78013 0.62904 0
M  V30 841 O 82.2955 -1.78008 -0.402414 0
M  V30 842 C 82.3465 -1.88373 3.08542 0
M  V30 843 O 82.0675 -1.10137 4.2403 0
M  V30 844 C 83.5685 -2.73934 3.48533 0
M  V30 845 H 80.7885 -0.282842 0.608475 0
M  V30 846 H 83.3325 -0.238971 2.03099 0
M  V30 847 H 81.4875 -2.56354 2.9045 0
M  V30 848 H 81.9015 -1.72501 4.95322 0
M  V30 849 H 83.3755 -3.34117 4.39397 0
M  V30 850 H 83.8525 -3.46244 2.70207 0
M  V30 851 H 84.4585 -2.11369 3.69057 0
M  V30 852 N 82.7736 -1.49793 -0.48987 0
M  V30 853 C 83.6836 -1.70036 -1.61632 0
M  V30 854 C 84.6996 -0.583102 -1.63939 0
M  V30 855 O 85.8756 -0.859169 -1.82154 0
M  V30 856 C 82.9406 -1.77277 -2.97949 0
M  V30 857 C 82.0016 -3.00918 -3.06181 0
M  V30 858 C 81.2346 -3.07804 -4.35996 0
M  V30 859 O 81.4576 -2.21982 -5.25433 0
M  V30 860 O 80.3916 -4.00369 -4.49431 0
M  V30 861 H 84.2176 -2.65486 -1.47482 0
M  V30 862 H 81.8026 -1.33666 -0.667362 0
M  V30 863 H 83.6846 -1.84329 -3.78947 0
M  V30 864 H 82.3596 -0.850076 -3.12339 0
M  V30 865 H 81.2666 -2.99377 -2.2433 0
M  V30 866 H 82.5996 -3.92704 -2.96723 0
M  V30 867 N 84.2517 0.741722 -1.39055 0
M  V30 868 C 85.5287 1.49252 -1.26425 0
M  V30 869 C 85.9087 2.10705 0.129144 0
M  V30 870 O 85.2567 1.98045 1.13976 0
M  V30 871 C 85.4667 2.54934 -2.38347 0
M  V30 872 C 86.8147 3.21506 -2.77343 0
M  V30 873 O 87.8387 2.65245 -2.37747 0
M  V30 874 O 86.6977 4.23294 -3.45665 0
M  V30 875 H 83.7917 0.662451 -0.495064 0
M  V30 876 H 86.3377 0.776121 -1.50912 0
M  V30 877 H 85.1097 2.07857 -3.31529 0
M  V30 878 H 84.7327 3.34141 -2.15489 0
M  V30 879 N 85.7298 1.2412 0.971189 0
M  V30 880 C 86.6598 1.05508 2.08304 0
M  V30 881 C 87.6408 -0.0308864 1.70072 0
M  V30 882 O 88.8258 0.135521 1.93727 0
M  V30 883 C 85.9558 0.655365 3.4106 0
M  V30 884 C 84.9098 1.68971 3.93234 0
M  V30 885 C 84.2358 1.14516 5.22293 0
M  V30 886 C 85.5358 3.08487 4.21465 0
M  V30 887 H 87.2298 1.98507 2.24132 0
M  V30 888 H 84.7758 0.955821 1.07704 0
M  V30 889 H 86.7288 0.51217 4.18276 0
M  V30 890 H 85.4528 -0.31032 3.25122 0
M  V30 891 H 84.1118 1.82106 3.18171 0
M  V30 892 H 83.7598 0.170189 5.02712 0
M  V30 893 H 83.4598 1.83635 5.58168 0
M  V30 894 H 84.9838 1.01401 6.02121 0
M  V30 895 H 86.3978 2.98601 4.89398 0
M  V30 896 H 84.7948 3.74926 4.68562 0
M  V30 897 H 85.8648 3.56787 3.28376 0
M  V30 898 N 87.2079 -1.17134 1.05439 0
M  V30 899 C 88.4359 -1.91372 0.786414 0
M  V30 900 C 88.8509 -1.76955 -0.658202 0
M  V30 901 O 88.2079 -1.10838 -1.44987 0
M  V30 902 C 88.2589 -3.42356 1.1608 0
M  V30 903 O 87.9799 -3.56332 2.54871 0
M  V30 904 C 89.4809 -4.33663 0.919322 0
M  V30 905 H 86.7009 -0.607118 0.285743 0
M  V30 906 H 89.2449 -1.48525 1.40572 0
M  V30 907 H 87.3999 -3.82939 0.586191 0
M  V30 908 H 87.8139 -4.49896 2.69618 0
M  V30 909 H 89.2879 -5.38099 1.231 0
M  V30 910 H 89.7649 -4.38959 -0.145359 0
M  V30 911 H 90.3709 -3.98796 1.47789 0
M  V30 912 N 88.686 -0.835752 -1.33615 0
M  V30 913 C 89.649 -0.272 -2.2758 0
M  V30 914 C 90.649 0.557487 -1.50827 0
M  V30 915 O 91.839 0.37173 -1.70188 0
M  V30 916 C 88.971 0.617173 -3.35267 0
M  V30 917 H 90.164 -1.10111 -2.78954 0
M  V30 918 H 87.717 -0.608594 -1.43965 0
M  V30 919 H 88.452 1.46884 -2.89129 0
M  V30 920 H 88.237 0.0237066 -3.92093 0
M  V30 921 H 89.727 1.005 -4.05326 0
M  V30 922 N 90.1641 1.46063 -0.591896 0
M  V30 923 C 91.0941 2.33172 0.123673 0
M  V30 924 C 92.0751 1.45897 0.87453 0
M  V30 925 O 93.2601 1.74698 0.848181 0
M  V30 926 C 90.3901 3.28336 1.13194 0
M  V30 927 C 89.3441 4.25124 0.495324 0
M  V30 928 C 88.6701 5.09863 1.61071 0
M  V30 929 C 89.9701 5.19143 -0.573425 0
M  V30 930 H 91.6641 2.93252 -0.603646 0
M  V30 931 H 89.2101 1.41014 -0.291741 0
M  V30 932 H 91.1631 3.88137 1.64097 0
M  V30 933 H 89.8871 2.66383 1.88965 0
M  V30 934 H 88.5461 3.66599 0.00729452 0
M  V30 935 H 88.1941 4.44288 2.35832 0
M  V30 936 H 87.8941 5.75417 1.19035 0
M  V30 937 H 89.4181 5.72529 2.12233 0
M  V30 938 H 90.8321 5.73106 -0.1491 0
M  V30 939 H 89.2291 5.93089 -0.914636 0
M  V30 940 H 90.2991 4.62519 -1.45617 0
M  V30 941 N 91.6422 0.330177 1.54103 0
M  V30 942 C 92.5722 -0.525353 2.27513 0
M  V30 943 C 93.5532 -1.11383 1.2856 0
M  V30 944 O 94.7382 -1.13773 1.57383 0
M  V30 945 C 91.8682 -1.6831 3.03791 0
M  V30 946 C 90.8222 -1.2236 4.10137 0
M  V30 947 C 90.1482 -2.46882 4.74293 0
M  V30 948 C 91.4482 -0.333697 5.21233 0
M  V30 949 H 93.1422 0.087013 2.99274 0
M  V30 950 H 90.6882 0.0432893 1.43935 0
M  V30 951 H 92.6412 -2.28795 3.5388 0
M  V30 952 H 91.3652 -2.32216 2.29659 0
M  V30 953 H 90.0242 -0.64165 3.60941 0
M  V30 954 H 89.6722 -3.09165 3.96769 0
M  V30 955 H 89.3722 -2.16825 5.46133 0
M  V30 956 H 90.8962 -3.08117 5.27159 0
M  V30 957 H 92.3102 -0.845013 5.67038 0
M  V30 958 H 90.7072 -0.125612 5.99969 0
M  V30 959 H 91.7772 0.633724 4.80741 0
M  V30 960 N 93.1203 -1.57491 0.0584922 0
M  V30 961 C 94.3663 -1.93264 -0.614558 0
M  V30 962 C 94.6993 -0.937717 -1.7006 0
M  V30 963 O 93.9743 0.0351652 -1.94468 0
M  V30 964 C 94.2573 -3.3938 -1.20386 0
M  V30 965 C 94.1103 -4.49625 -0.125375 0
M  V30 966 C 95.4293 -3.86039 -2.11334 0
M  V30 967 H 92.5483 -0.702791 -0.221933 0
M  V30 968 H 95.1903 -1.8961 0.12175 0
M  V30 969 H 93.3403 -3.42626 -1.83139 0
M  V30 970 H 95.0123 -4.58506 0.506971 0
M  V30 971 H 93.2553 -4.30354 0.545672 0
M  V30 972 H 93.9263 -5.48967 -0.577861 0
M  V30 973 H 96.4023 -3.84716 -1.58534 0
M  V30 974 H 95.2783 -4.88914 -2.49507 0
M  V30 975 H 95.5393 -3.23215 -3.01636 0
M  V30 976 N 94.5984 0.214957 -1.56127 0
M  V30 977 C 95.5304 1.29004 -1.89448 0
M  V30 978 C 96.5434 1.42716 -0.783326 0
M  V30 979 O 97.7324 1.43496 -1.06166 0
M  V30 980 C 94.8324 2.66482 -2.09381 0
M  V30 981 C 94.0054 2.74633 -3.40434 0
M  V30 982 C 93.0644 3.9317 -3.49719 0
M  V30 983 O 92.0904 3.812 -4.227 0
M  V30 984 N 93.2924 5.07765 -2.81346 0
M  V30 985 H 96.0574 1.00743 -2.82261 0
M  V30 986 H 93.6184 0.40497 -1.56753 0
M  V30 987 H 95.6104 3.44173 -2.12901 0
M  V30 988 H 94.1804 2.87314 -1.23163 0
M  V30 989 H 93.4004 1.83368 -3.48955 0
M  V30 990 H 94.6884 2.77054 -4.26754 0
M  V30 991 H 94.0864 5.20386 -2.21843 0
M  V30 992 H 92.6434 5.83474 -2.90519 0
M  V30 993 N 96.0765 1.50051 0.48192 0
M  V30 994 C 97.3045 1.64237 1.25832 0
M  V30 995 C 97.7195 0.321336 1.86045 0
M  V30 996 O 97.0765 -0.695478 1.68729 0
M  V30 997 C 97.1275 2.72548 2.37487 0
M  V30 998 O 96.8485 3.99529 1.79745 0
M  V30 999 C 98.3495 2.9761 3.28547 0
M  V30 1000 H 95.5695 0.55237 0.380957 0
M  V30 1001 H 98.1135 1.96207 0.576467 0
M  V30 1002 H 96.2685 2.43303 3.01467 0
M  V30 1003 H 96.6825 4.59342 2.5319 0
M  V30 1004 H 98.1565 3.77084 4.03127 0
M  V30 1005 H 98.6335 2.0826 3.86684 0
M  V30 1006 H 99.2395 3.28345 2.70314 0
M  V30 1007 N 97.5546 -0.734337 1.39446 0
M  V30 1008 C 98.9656 -1.31264 1.32766 0
M  V30 1009 C 99.3166 -1.96198 -0.00767497 0
M  V30 1010 O 98.4416 -1.96346 -0.909796 0
M  V30 1011 C 99.0366 -2.38682 2.4045 0
M  V30 1012 C 97.5956 -2.92184 2.37288 0
M  V30 1013 C 96.7426 -1.6576 2.22304 0
M  V30 1014 H 99.6936 -0.531799 1.49525 0
M  V30 1015 H 99.7146 -3.19087 2.07276 0
M  V30 1016 H 99.2266 -1.91392 3.37625 0
M  V30 1017 H 97.3276 -3.43752 1.43754 0
M  V30 1018 H 97.4406 -3.45253 3.3217 0
M  V30 1019 H 95.8046 -1.9012 1.69489 0
M  V30 1020 H 96.5876 -1.20521 3.21449 0
M  V30 1021 N 99.0327 -1.24633 -0.964593 0
M  V30 1022 C 100.31 -0.995809 -1.68354 0
M  V30 1023 C 100.69 0.480964 -2.05548 0
M  V30 1024 O 100.038 1.45599 -1.76105 0
M  V30 1025 C 100.248 -1.92177 -2.91323 0
M  V30 1026 C 101.596 -2.19446 -3.63495 0
M  V30 1027 O 102.62 -1.89855 -3.01386 0
M  V30 1028 O 101.479 -2.69714 -4.75307 0
M  V30 1029 H 98.5727 -0.376854 -0.736146 0
M  V30 1030 H 101.119 -1.35745 -1.0184 0
M  V30 1031 H 99.8907 -2.91938 -2.60553 0
M  V30 1032 H 99.5137 -1.56349 -3.65569 0
M  V30 1033 N 100.511 1.16574 -1.06058 0
M  V30 1034 C 101.759 1.86677 -0.77434 0
M  V30 1035 C 102.08 1.81959 0.701147 0
M  V30 1036 O 101.35 1.2515 1.50713 0
M  V30 1037 H 99.9298 0.691134 -0.283449 0
M  V30 1038 H 102.592 1.41378 -1.34158 0
M  V30 1039 H 101.688 2.92181 -1.09711 0
M  V30 1040 N 101.989 0.842826 1.3317 0
M  V30 1041 C 102.952 0.284065 2.27433 0
M  V30 1042 C 103.952 -0.54948 1.5112 0
M  V30 1043 O 105.142 -0.362699 1.70382 0
M  V30 1044 C 102.274 -0.599384 3.35589 0
M  V30 1045 H 103.467 1.11589 2.78366 0
M  V30 1046 H 101.02 0.616221 1.4364 0
M  V30 1047 H 101.755 -1.45349 2.89904 0
M  V30 1048 H 101.54 -0.00291266 3.921 0
M  V30 1049 H 103.03 -0.983488 4.05854 0
M  V30 1050 N 103.467 -1.45747 0.599634 0
M  V30 1051 C 104.713 -2.02592 0.0918643 0
M  V30 1052 C 105.046 -1.46806 -1.27128 0
M  V30 1053 O 104.321 -0.639658 -1.83681 0
M  V30 1054 C 104.604 -3.60073 0.0443398 0
M  V30 1055 C 104.457 -4.26208 1.43759 0
M  V30 1056 C 105.776 -4.35309 -0.647608 0
M  V30 1057 H 102.895 -0.736175 0.034857 0
M  V30 1058 H 105.537 -1.73694 0.770081 0
M  V30 1059 H 103.687 -3.84823 -0.533224 0
M  V30 1060 H 105.359 -4.12668 2.06162 0
M  V30 1061 H 103.602 -3.84916 2.00056 0
M  V30 1062 H 104.273 -5.35069 1.35665 0
M  V30 1063 H 106.749 -4.15805 -0.156776 0
M  V30 1064 H 105.625 -5.45038 -0.649942 0
M  V30 1065 H 105.886 -4.07598 -1.71219 0
M  V30 1066 N 104.945 -0.338344 -1.53925 0
M  V30 1067 C 105.875 0.51328 -2.27789 0
M  V30 1068 C 106.856 1.107 -1.29149 0
M  V30 1069 O 108.041 1.12937 -1.57984 0
M  V30 1070 C 105.171 1.66697 -3.04679 0
M  V30 1071 C 104.125 1.20183 -4.1078 0
M  V30 1072 C 103.451 2.44363 -4.75595 0
M  V30 1073 C 104.751 0.30605 -5.21403 0
M  V30 1074 H 106.445 -0.102883 -2.99223 0
M  V30 1075 H 103.991 -0.0509219 -1.4391 0
M  V30 1076 H 105.944 2.26915 -3.55088 0
M  V30 1077 H 104.668 2.30995 -2.30887 0
M  V30 1078 H 103.327 0.622499 -3.61276 0
M  V30 1079 H 102.975 3.07057 -3.98403 0
M  V30 1080 H 102.675 2.13925 -5.47275 0
M  V30 1081 H 104.199 3.05317 -5.28786 0
M  V30 1082 H 105.613 0.814929 -5.67478 0
M  V30 1083 H 104.01 0.0937929 -6.00027 0
M  V30 1084 H 105.08 -0.65921 -4.80398 0
M  V30 1085 N 106.423 1.57458 -0.0668435 0
M  V30 1086 C 107.353 2.15468 0.899764 0
M  V30 1087 C 108.334 1.08042 1.31381 0
M  V30 1088 O 109.519 1.36054 1.38574 0
M  V30 1089 C 106.649 2.71232 2.16911 0
M  V30 1090 C 105.603 3.83781 1.89463 0
M  V30 1091 C 104.929 4.26127 3.22986 0
M  V30 1092 C 106.229 5.08238 1.20381 0
M  V30 1093 H 107.923 2.96488 0.416529 0
M  V30 1094 H 105.469 1.4262 0.198908 0
M  V30 1095 H 107.422 3.10458 2.84945 0
M  V30 1096 H 106.146 1.87426 2.67468 0
M  V30 1097 H 104.805 3.45051 1.23836 0
M  V30 1098 H 104.453 3.39249 3.71374 0
M  V30 1099 H 104.153 5.01993 3.05413 0
M  V30 1100 H 105.677 4.67966 3.92225 0
M  V30 1101 H 107.091 5.44811 1.78475 0
M  V30 1102 H 105.488 5.89349 1.13083 0
M  V30 1103 H 106.558 4.84558 0.182153 0
M  V30 1104 N 107.901 -0.206675 1.56239 0
M  V30 1105 C 109.178 -0.954051 1.70755 0
M  V30 1106 C 109.558 -2.01841 0.618353 0
M  V30 1107 O 108.906 -2.25444 -0.372434 0
M  V30 1108 C 109.116 -1.551 3.12642 0
M  V30 1109 C 110.464 -2.03757 3.72516 0
M  V30 1110 O 111.488 -1.64965 3.15698 0
M  V30 1111 O 110.347 -2.75103 4.72208 0
M  V30 1112 H 107.441 -0.446636 0.696021 0
M  V30 1113 H 109.987 -0.197283 1.68549 0
M  V30 1114 H 108.759 -0.783212 3.83382 0
M  V30 1115 H 108.382 -2.37291 3.19028 0
M  V30 1116 N 109.379 -1.50304 -0.473955 0
M  V30 1117 C 110.627 -1.60832 -1.22382 0
M  V30 1118 C 110.948 -0.30939 -1.9253 0
M  V30 1119 O 110.218 0.67296 -1.83978 0
M  V30 1120 H 108.798 -0.592652 -0.454723 0
M  V30 1121 H 111.46 -1.87068 -0.546968 0
M  V30 1122 H 110.556 -2.41803 -1.97327 0
M  V30 1123 N 110.857 0.726932 -1.39834 0
M  V30 1124 C 112.105 1.4837 -1.37225 0
M  V30 1125 C 112.426 1.94979 0.0284857 0
M  V30 1126 O 111.696 1.69555 0.981213 0
M  V30 1127 H 110.276 0.55043 -0.505011 0
M  V30 1128 H 112.938 0.862468 -1.74778 0
M  V30 1129 H 112.034 2.36198 -2.04003 0
M  V30 1130 N 112.336 1.25143 0.95797 0
M  V30 1131 C 113.269 0.995565 2.05338 0
M  V30 1132 C 114.247 -0.0740423 1.62431 0
M  V30 1133 O 115.431 0.0649212 1.88388 0
M  V30 1134 C 112.558 0.504298 3.34925 0
M  V30 1135 C 111.604 1.56393 3.96792 0
M  V30 1136 S 112.437 3.14815 4.33188 0
M  V30 1137 C 113.593 2.67415 5.65898 0
M  V30 1138 H 113.826 1.92309 2.26726 0
M  V30 1139 H 111.359 1.08635 1.09716 0
M  V30 1140 H 113.317 0.227497 4.09869 0
M  V30 1141 H 111.978 -0.402671 3.11508 0
M  V30 1142 H 111.171 1.17082 4.90212 0
M  V30 1143 H 110.773 1.79124 3.28315 0
M  V30 1144 H 113.065 2.10833 6.4386 0
M  V30 1145 H 114.008 3.59463 6.10076 0
M  V30 1146 H 114.416 2.07521 5.24972 0
M  V30 1147 N 113.814 -1.1601 1.06675 0
M  V30 1148 C 115.225 -1.68235 0.809565 0
M  V30 1149 C 115.576 -1.8454 -0.666303 0
M  V30 1150 O 114.701 -1.54374 -1.5165 0
M  V30 1151 C 115.296 -3.05585 1.46299 0
M  V30 1152 C 113.855 -3.54915 1.25349 0
M  V30 1153 C 113.002 -2.30804 1.53703 0
M  V30 1154 H 115.953 -1.00318 1.22971 0
M  V30 1155 H 115.974 -3.70174 0.880431 0
M  V30 1156 H 115.486 -2.93686 2.53713 0
M  V30 1157 H 113.587 -3.72067 0.199261 0
M  V30 1158 H 113.7 -4.36774 1.9689 0
M  V30 1159 H 112.064 -2.36007 0.957739 0
M  V30 1160 H 112.847 -2.21499 2.62284 0
M  V30 1161 N 115.292 -0.849877 -1.32721 0
M  V30 1162 C 116.224 -0.248332 -2.27851 0
M  V30 1163 C 117.237 0.577218 -1.52224 0
M  V30 1164 O 118.426 0.402489 -1.73903 0
M  V30 1165 C 115.526 0.668107 -3.32249 0
M  V30 1166 C 114.699 -0.120534 -4.37234 0
M  V30 1167 C 113.758 0.720932 -5.21238 0
M  V30 1168 O 112.784 0.156166 -5.68986 0
M  V30 1169 N 113.986 2.03647 -5.43607 0
M  V30 1170 H 116.751 -1.06575 -2.80111 0
M  V30 1171 H 114.312 -0.709395 -1.45531 0
M  V30 1172 H 116.304 1.23627 -3.85355 0
M  V30 1173 H 114.874 1.38621 -2.80184 0
M  V30 1174 H 114.094 -0.870108 -3.84477 0
M  V30 1175 H 115.382 -0.662406 -5.0447 0
M  V30 1176 H 114.78 2.51871 -5.06535 0
M  V30 1177 H 113.337 2.55287 -5.99727 0
M  V30 1178 N 116.77 1.45427 -0.607355 0
M  V30 1179 C 117.703 2.27635 0.160482 0
M  V30 1180 C 118.681 1.37122 0.873857 0
M  V30 1181 O 119.865 1.66551 0.882775 0
M  V30 1182 C 116.992 3.15486 1.23231 0
M  V30 1183 C 116.038 4.21939 0.622097 0
M  V30 1184 S 116.871 5.32459 -0.569852 0
M  V30 1185 C 118.027 6.23879 0.502577 0
M  V30 1186 H 118.26 2.9241 -0.536983 0
M  V30 1187 H 115.793 1.49265 -0.394868 0
M  V30 1188 H 117.751 3.66659 1.84585 0
M  V30 1189 H 116.412 2.49977 1.90185 0
M  V30 1190 H 115.605 4.8333 1.42856 0
M  V30 1191 H 115.207 3.73906 0.0837063 0
M  V30 1192 H 117.499 6.63261 1.38171 0
M  V30 1193 H 118.442 7.0806 -0.0751759 0
M  V30 1194 H 118.85 5.58545 0.8178 0
M  V30 1195 N 118.248 0.346503 1.53744 0
M  V30 1196 C 119.211 -0.496439 2.23759 0
M  V30 1197 C 120.211 -1.0252 1.2388 0
M  V30 1198 O 121.401 -0.913974 1.48297 0
M  V30 1199 C 118.533 -1.69187 2.95954 0
M  V30 1200 H 119.726 0.115952 2.99676 0
M  V30 1201 H 117.279 0.0978939 1.55993 0
M  V30 1202 H 118.014 -2.34288 2.24231 0
M  V30 1203 H 117.799 -1.31989 3.69217 0
M  V30 1204 H 119.289 -2.28969 3.49232 0
M  V30 1205 N 119.726 -1.57421 0.075193 0
M  V30 1206 C 120.951 -1.98364 -0.605515 0
M  V30 1207 C 121.376 -0.953383 -1.62149 0
M  V30 1208 O 120.734 0.0806053 -1.81121 0
M  V30 1209 C 120.782 -3.38332 -1.24756 0
M  V30 1210 O 119.886 -3.37959 -2.36342 0
M  V30 1211 H 119.227 -0.645553 -0.155428 0
M  V30 1212 H 121.757 -2.04044 0.150714 0
M  V30 1213 H 121.767 -3.75591 -1.5936 0
M  V30 1214 H 120.442 -4.12846 -0.503129 0
M  V30 1215 H 119.019 -3.12474 -2.03506 0
M  V30 1216 N 121.204 0.198386 -1.56346 0
M  V30 1217 C 122.154 1.2499 -1.90687 0
M  V30 1218 C 123.138 1.41158 -0.772217 0
M  V30 1219 O 124.33 1.43584 -1.03502 0
M  V30 1220 C 121.459 2.59542 -2.24706 0
M  V30 1221 C 120.545 2.47181 -3.44619 0
M  V30 1222 N 120.936 2.04495 -4.62618 0
M  V30 1223 C 119.234 2.78082 -3.48692 0
M  V30 1224 C 119.935 2.03945 -5.44776 0
M  V30 1225 N 118.911 2.45323 -4.85095 0
M  V30 1226 H 122.713 0.911149 -2.7942 0
M  V30 1227 H 120.227 0.40684 -1.57221 0
M  V30 1228 H 122.224 3.3549 -2.47491 0
M  V30 1229 H 120.884 2.94244 -1.37298 0
M  V30 1230 H 121.895 1.75256 -4.87345 0
M  V30 1231 H 118.572 3.17002 -2.71691 0
M  V30 1232 H 119.962 1.72872 -6.4928 0
M  V30 1233 N 122.682 1.50554 0.465978 0
M  V30 1234 C 123.612 1.72722 1.57128 0
M  V30 1235 C 124.593 0.576294 1.6004 0
M  V30 1236 O 125.778 0.81598 1.76225 0
M  V30 1237 C 122.908 1.82605 2.95419 0
M  V30 1238 C 121.862 2.97835 3.07373 0
M  V30 1239 C 121.188 2.92867 4.47363 0
M  V30 1240 C 122.488 4.38265 2.84114 0
M  V30 1241 H 124.182 2.65267 1.38829 0
M  V30 1242 H 121.728 1.2765 0.666441 0
M  V30 1243 H 123.681 1.96698 3.72677 0
M  V30 1244 H 122.405 0.866858 3.14886 0
M  V30 1245 H 121.064 2.83401 2.3255 0
M  V30 1246 H 120.712 1.94783 4.63755 0
M  V30 1247 H 120.412 3.70227 4.56296 0
M  V30 1248 H 121.936 3.09015 5.26633 0
M  V30 1249 H 123.35 4.53198 3.51118 0
M  V30 1250 H 121.747 5.17115 3.04487 0
M  V30 1251 H 122.817 4.50281 1.7993 0
M  V30 1252 N 124.16 -0.719506 1.40217 0
M  V30 1253 C 125.09 -1.8465 1.42922 0
M  V30 1254 C 126.071 -1.67599 0.29062 0
M  V30 1255 O 127.256 -1.87688 0.498677 0
M  V30 1256 C 124.386 -3.22565 1.28722 0
M  V30 1257 C 123.34 -3.54281 2.40144 0
M  V30 1258 C 122.666 -4.91298 2.11023 0
M  V30 1259 C 123.966 -3.55676 3.82481 0
M  V30 1260 H 125.66 -1.82644 2.37237 0
M  V30 1261 H 123.206 -0.877305 1.1419 0
M  V30 1262 H 125.159 -4.01095 1.29232 0
M  V30 1263 H 123.883 -3.25137 0.308811 0
M  V30 1264 H 122.542 -2.78088 2.38877 0
M  V30 1265 H 122.19 -4.90468 1.11582 0
M  V30 1266 H 121.89 -5.13485 2.8567 0
M  V30 1267 H 123.414 -5.72166 2.13209 0
M  V30 1268 H 124.828 -4.24254 3.85592 0
M  V30 1269 H 123.225 -3.89388 4.56614 0
M  V30 1270 H 124.295 -2.55144 4.12346 0
M  V30 1271 N 125.638 -1.25649 -0.95132 0
M  V30 1272 C 126.915 -1.01361 -1.67288 0
M  V30 1273 C 127.295 0.459135 -2.06046 0
M  V30 1274 O 126.643 1.43723 -1.7764 0
M  V30 1275 C 126.853 -1.95256 -2.89268 0
M  V30 1276 C 128.201 -2.23289 -3.61147 0
M  V30 1277 O 129.225 -1.93041 -2.99355 0
M  V30 1278 O 128.084 -2.74741 -4.72419 0
M  V30 1279 H 125.178 -0.38464 -0.732107 0
M  V30 1280 H 127.724 -1.36817 -1.00395 0
M  V30 1281 H 126.496 -2.94685 -2.57442 0
M  V30 1282 H 126.119 -1.60218 -3.6389 0
M  V30 1283 N 127.117 1.15442 -1.07289 0
M  V30 1284 C 128.065 2.22225 -0.686952 0
M  V30 1285 C 129.059 1.66688 0.30193 0
M  V30 1286 O 130.265 1.79236 0.165712 0
M  V30 1287 H 126.64 0.723783 -0.204064 0
M  V30 1288 H 128.611 2.52056 -1.5972 0
M  V30 1289 C 127.36 3.47556 -0.100149 0
M  V30 1290 H 126.683 3.90612 -0.852211 0
M  V30 1291 H 128.123 4.23794 0.132235 0
M  V30 1292 C 126.582 3.16337 1.159 0
M  V30 1293 O 127.112 3.33074 2.24555 0
M  V30 1294 N 125.318 2.70385 1.06491 0
M  V30 1295 H 124.865 2.56966 0.180668 0
M  V30 1296 H 124.823 2.49871 1.90819 0
M  V30 1297 N 128.595 0.856903 1.32268 0
M  V30 1298 C 129.528 0.247937 2.26849 0
M  V30 1299 C 130.506 -0.615382 1.50505 0
M  V30 1300 O 131.69 -0.571689 1.79622 0
M  V30 1301 C 128.817 -0.650093 3.32403 0
M  V30 1302 C 127.863 0.140138 4.2627 0
M  V30 1303 S 128.696 1.51004 5.13769 0
M  V30 1304 C 129.852 0.61778 6.22844 0
M  V30 1305 H 130.085 1.04971 2.78152 0
M  V30 1306 H 127.618 0.654665 1.39834 0
M  V30 1307 H 129.576 -1.16256 3.93694 0
M  V30 1308 H 128.237 -1.4257 2.7988 0
M  V30 1309 H 127.43 -0.543945 5.01056 0
M  V30 1310 H 127.032 0.584267 3.69408 0
M  V30 1311 H 129.324 -0.177053 6.77269 0
M  V30 1312 H 130.267 1.33636 6.95375 0
M  V30 1313 H 130.675 0.191124 5.64176 0
M  V30 1314 N 130.073 -1.45103 0.615059 0
M  V30 1315 C 131.02 -2.30586 -0.0993978 0
M  V30 1316 C 131.99 -1.42544 -0.852669 0
M  V30 1317 O 133.175 -1.71465 -0.836917 0
M  V30 1318 C 130.315 -3.27572 -1.08583 0
M  V30 1319 C 129.428 -4.30717 -0.332656 0
M  V30 1320 C 128.563 -5.14807 -1.30947 0
M  V30 1321 C 127.602 -6.09673 -0.544538 0
M  V30 1322 N 126.739 -6.86517 -1.47101 0
M  V30 1323 H 131.579 -2.91144 0.635542 0
M  V30 1324 H 129.116 -1.4346 0.325206 0
M  V30 1325 H 131.074 -3.82276 -1.67095 0
M  V30 1326 H 129.704 -2.68751 -1.78809 0
M  V30 1327 H 128.756 -3.78615 0.368107 0
M  V30 1328 H 130.068 -4.98102 0.263842 0
M  V30 1329 H 129.222 -5.73948 -1.96643 0
M  V30 1330 H 127.961 -4.47458 -1.9399 0
M  V30 1331 H 126.966 -5.49656 0.126003 0
M  V30 1332 H 128.191 -6.79052 0.080947 0
M  V30 1333 H 126.137 -6.21851 -2.08895 0
M  V30 1334 H 126.054 -7.50281 -0.928137 0
M  V30 1335 H 127.322 -7.50194 -2.11731 0
M  V30 1336 N 131.551 -0.354651 -1.53558 0
M  V30 1337 C 132.514 0.484566 -2.24019 0
M  V30 1338 C 133.514 1.01861 -1.24422 0
M  V30 1339 O 134.704 0.906097 -1.4878 0
M  V30 1340 C 131.836 1.67615 -2.96847 0
M  V30 1341 H 133.029 -0.131843 -2.9961 0
M  V30 1342 H 130.582 -0.106165 -1.55939 0
M  V30 1343 H 131.317 2.33095 -2.25471 0
M  V30 1344 H 131.102 1.30029 -3.69912 0
M  V30 1345 H 132.592 2.27114 -3.50441 0
M  V30 1346 N 133.029 1.57378 -0.0835403 0
M  V30 1347 C 134.445 1.57246 0.273109 0
M  V30 1348 C 134.645 1.09385 1.69225 0
M  V30 1349 O 133.701 0.765051 2.40631 0
M  V30 1350 C 135.014 3.00614 0.0720628 0
M  V30 1351 C 136.562 3.12684 0.1407 0
M  V30 1352 C 137.037 4.57989 -0.0322094 0
M  V30 1353 N 138.528 4.63194 0.0230085 0
M  V30 1354 C 139.263 5.73335 -0.0861941 0
M  V30 1355 N 138.759 6.9235 -0.24958 0
M  V30 1356 N 140.552 5.62093 -0.0282886 0
M  V30 1357 H 132.703 1.86801 -1.0109 0
M  V30 1358 H 134.966 0.861687 -0.395222 0
M  V30 1359 H 134.672 3.39786 -0.907662 0
M  V30 1360 H 134.546 3.68193 0.81936 0
M  V30 1361 H 136.933 2.73391 1.11092 0
M  V30 1362 H 137.014 2.47719 -0.637896 0
M  V30 1363 H 136.658 4.97973 -0.999247 0
M  V30 1364 H 136.588 5.21 0.765937 0
M  V30 1365 H 139.079 3.77613 0.14722 0
M  V30 1366 H 139.392 7.72117 -0.324733 0
M  V30 1367 H 137.737 6.94415 -0.285097 0
M  V30 1368 H 140.928 4.67997 0.0981408 0
M  V30 1369 H 141.101 6.47895 -0.116845 0
M  V30 1370 N 134.507 -0.190092 1.56449 0
M  V30 1371 C 135.755 -0.907908 1.80559 0
M  V30 1372 C 136.076 -1.83583 0.657438 0
M  V30 1373 O 135.346 -1.93203 -0.323924 0
M  V30 1374 H 133.926 -0.338247 0.666032 0
M  V30 1375 H 136.588 -0.194403 1.93928 0
M  V30 1376 H 135.684 -1.49604 2.73907 0
M  V30 1377 N 135.985 -1.50799 -0.457987 0
M  V30 1378 C 137.231 -1.62683 -1.21088 0
M  V30 1379 C 137.564 -0.332268 -1.91336 0
M  V30 1380 O 136.839 0.667043 -1.82704 0
M  V30 1381 C 137.122 -2.81615 -2.24422 0
M  V30 1382 C 136.975 -4.20989 -1.58392 0
M  V30 1383 C 138.294 -2.96085 -3.2561 0
M  V30 1384 H 135.413 -0.592087 -0.438864 0
M  V30 1385 H 138.055 -1.83225 -0.50286 0
M  V30 1386 H 136.205 -2.64231 -2.84806 0
M  V30 1387 H 137.877 -4.49994 -1.01504 0
M  V30 1388 H 136.12 -4.24641 -0.886704 0
M  V30 1389 H 136.791 -5.0016 -2.33547 0
M  V30 1390 H 139.267 -3.12042 -2.75262 0
M  V30 1391 H 138.143 -3.80902 -3.95228 0
M  V30 1392 H 138.404 -2.0726 -3.90507 0
M  V30 1393 N 137.463 0.71206 -1.40597 0
M  V30 1394 C 138.691 1.50111 -1.42388 0
M  V30 1395 C 139.106 1.88784 -0.0245395 0
M  V30 1396 O 138.463 1.55681 0.952351 0
M  V30 1397 C 138.514 2.7742 -2.31776 0
M  V30 1398 O 138.235 2.40382 -3.66262 0
M  V30 1399 C 139.736 3.7129 -2.42196 0
M  V30 1400 H 136.956 0.46314 -0.485533 0
M  V30 1401 H 139.5 0.878068 -1.8469 0
M  V30 1402 H 137.655 3.36001 -1.92827 0
M  V30 1403 H 138.069 3.22324 -4.13772 0
M  V30 1404 H 139.543 4.57448 -3.08943 0
M  V30 1405 H 140.02 4.14641 -1.44809 0
M  V30 1406 H 140.626 3.18619 -2.81712 0
M  V30 1407 N 138.941 1.26152 0.944643 0
M  V30 1408 C 140.352 1.10454 1.50522 0
M  V30 1409 C 140.703 -0.31635 1.93633 0
M  V30 1410 O 139.828 -1.20746 1.79581 0
M  V30 1411 C 140.423 1.99891 2.73549 0
M  V30 1412 C 138.982 1.88348 3.25886 0
M  V30 1413 C 138.129 1.93447 1.9868 0
M  V30 1414 H 141.08 1.39292 0.760489 0
M  V30 1415 H 141.101 1.54477 3.47732 0
M  V30 1416 H 140.613 3.03297 2.42141 0
M  V30 1417 H 138.714 0.878636 3.62092 0
M  V30 1418 H 138.827 2.73696 3.93227 0
M  V30 1419 H 137.191 1.37456 2.14425 0
M  V30 1420 H 137.974 2.98476 1.69607 0
M  V30 1421 N 140.419 -1.14872 1.07899 0
M  V30 1422 C 141.835 -1.37776 0.805606 0
M  V30 1423 C 142.035 -1.92743 -0.587555 0
M  V30 1424 O 141.091 -2.13678 -1.34528 0
M  V30 1425 C 142.404 -2.34361 1.88402 0
M  V30 1426 C 143.952 -2.48012 1.90942 0
M  V30 1427 C 144.427 -3.47893 2.97883 0
M  V30 1428 N 145.918 -3.55433 2.97021 0
M  V30 1429 C 146.653 -4.32553 3.76412 0
M  V30 1430 N 146.149 -5.12959 4.65666 0
M  V30 1431 N 147.942 -4.27697 3.64735 0
M  V30 1432 H 140.093 -0.775365 1.97742 0
M  V30 1433 H 142.356 -0.403521 0.857831 0
M  V30 1434 H 142.062 -2.01098 2.88535 0
M  V30 1435 H 141.936 -3.34206 1.74889 0
M  V30 1436 H 144.323 -2.8057 0.914579 0
M  V30 1437 H 144.404 -1.48147 2.08534 0
M  V30 1438 H 144.048 -3.16069 3.97571 0
M  V30 1439 H 143.978 -4.47527 2.77538 0
M  V30 1440 H 146.469 -2.98048 2.32326 0
M  V30 1441 H 146.782 -5.69065 5.22862 0
M  V30 1442 H 145.127 -5.12245 4.69712 0
M  V30 1443 H 148.318 -3.63949 2.94378 0
M  V30 1444 H 148.491 -4.8755 4.26848 0
M  V30 1445 N 141.898 -0.863906 -1.31812 0
M  V30 1446 C 143.175 -0.39275 -1.91616 0
M  V30 1447 C 143.555 1.12461 -1.7865 0
M  V30 1448 O 142.903 1.95045 -1.19037 0
M  V30 1449 C 143.113 -0.867385 -3.38049 0
M  V30 1450 C 144.461 -0.889966 -4.15168 0
M  V30 1451 O 145.485 -0.812635 -3.46806 0
M  V30 1452 O 144.344 -1.00079 -5.37258 0
M  V30 1453 H 141.438 -0.116358 -0.818773 0
M  V30 1454 H 143.984 -0.951418 -1.40521 0
M  V30 1455 H 142.756 -1.91081 -3.41473 0
M  V30 1456 H 142.379 -0.286687 -3.96565 0
M  V30 1457 N 143.376 1.44774 -0.622745 0
M  V30 1458 C 144.306 2.33382 0.0741861 0
M  V30 1459 C 145.287 1.47719 0.843387 0
M  V30 1460 O 146.472 1.76458 0.810934 0
M  V30 1461 C 143.602 3.30663 1.06204 0
M  V30 1462 C 142.556 4.26079 0.405037 0
M  V30 1463 C 141.882 5.13165 1.5022 0
M  V30 1464 C 143.182 5.1781 -0.683414 0
M  V30 1465 H 144.876 2.91905 -0.665713 0
M  V30 1466 H 142.422 1.40363 -0.321587 0
M  V30 1467 H 144.375 3.9153 1.55827 0
M  V30 1468 H 143.099 2.70331 1.83272 0
M  V30 1469 H 141.758 3.66532 -0.0704683 0
M  V30 1470 H 141.406 4.49191 2.26355 0
M  V30 1471 H 141.106 5.77812 1.06803 0
M  V30 1472 H 142.63 5.76902 2.00041 0
M  V30 1473 H 144.044 5.72661 -0.270631 0
M  V30 1474 H 142.441 5.91015 -1.04023 0
M  V30 1475 H 143.511 4.59326 -1.55395 0
M  V30 1476 N 144.854 0.36279 1.53368 0
M  V30 1477 C 146.27 0.0116182 1.59596 0
M  V30 1478 C 146.47 -1.47012 1.37803 0
M  V30 1479 O 145.526 -2.23136 1.18181 0
M  V30 1480 C 146.839 0.465052 2.97082 0
M  V30 1481 C 148.387 0.419033 3.10182 0
M  V30 1482 C 148.862 0.848235 4.50077 0
M  V30 1483 N 150.353 0.803183 4.56183 0
M  V30 1484 C 151.088 1.107 5.62613 0
M  V30 1485 N 150.584 1.47996 6.76808 0
M  V30 1486 N 152.377 1.02998 5.52583 0
M  V30 1487 H 144.528 1.32775 1.65785 0
M  V30 1488 H 146.791 0.542518 0.777417 0
M  V30 1489 H 146.497 1.49892 3.18159 0
M  V30 1490 H 146.371 -0.149786 3.76902 0
M  V30 1491 H 148.758 -0.605696 2.88817 0
M  V30 1492 H 148.839 1.06933 2.32377 0
M  V30 1493 H 148.483 1.87107 4.7218 0
M  V30 1494 H 148.413 0.175218 5.26308 0
M  V30 1495 H 150.904 0.52838 3.74188 0
M  V30 1496 H 151.217 1.69613 7.53957 0
M  V30 1497 H 149.562 1.51859 6.78206 0
M  V30 1498 H 152.753 0.737817 4.62249 0
M  V30 1499 H 152.926 1.2701 6.35431 0
M  V30 1500 N 146.332 -1.57332 0.0918853 0
M  V30 1501 C 147.262 -2.16872 -0.865371 0
M  V30 1502 C 148.243 -1.10118 -1.29646 0
M  V30 1503 O 149.428 -1.38242 -1.36392 0
M  V30 1504 C 146.558 -2.74649 -2.12569 0
M  V30 1505 C 145.512 -3.86747 -1.83333 0
M  V30 1506 C 144.838 -4.31212 -3.16166 0
M  V30 1507 C 146.138 -5.10089 -1.1228 0
M  V30 1508 H 147.832 -2.97114 -0.369307 0
M  V30 1509 H 145.378 -1.42918 -0.176194 0
M  V30 1510 H 147.331 -3.14952 -2.7997 0
M  V30 1511 H 146.055 -1.91657 -2.64452 0
M  V30 1512 H 144.714 -3.46978 -1.18331 0
M  V30 1513 H 144.362 -3.45115 -3.6593 0
M  V30 1514 H 144.062 -5.06788 -2.97388 0
M  V30 1515 H 145.586 -4.74146 -3.84731 0
M  V30 1516 H 147 -5.47582 -1.69785 0
M  V30 1517 H 145.397 -5.91073 -1.03693 0
M  V30 1518 H 146.467 -4.84786 -0.105041 0
M  V30 1519 N 147.81 0.181792 -1.56548 0
M  V30 1520 C 149.059 0.898348 -1.8059 0
M  V30 1521 C 149.372 1.83862 -0.667379 0
M  V30 1522 O 150.578 2.59678 -0.792446 0
M  V30 1523 C 149.034 1.64791 -3.19956 0
M  V30 1524 C 148.642 0.751789 -4.41647 0
M  V30 1525 C 150.386 2.35331 -3.53298 0
M  V30 1526 C 148.293 1.50098 -5.72035 0
M  V30 1527 H 147.223 0.339194 -0.673397 0
M  V30 1528 H 149.874 0.151413 -1.82874 0
M  V30 1529 H 148.256 2.43921 -3.11959 0
M  V30 1530 H 149.43 -0.0018076 -4.608 0
M  V30 1531 H 147.745 0.156562 -4.16106 0
M  V30 1532 H 150.342 2.91958 -4.47956 0
M  V30 1533 H 150.685 3.10164 -2.77676 0
M  V30 1534 H 151.218 1.63154 -3.62803 0
M  V30 1535 H 147.957 0.795175 -6.50659 0
M  V30 1536 H 147.477 2.22817 -5.56878 0
M  V30 1537 H 149.156 2.05125 -6.13622 0
M  V30 1538 N 149.288 1.51039 0.449983 0
M  V30 1539 C 150.218 1.74379 1.55288 0
M  V30 1540 C 151.199 0.593236 1.5942 0
M  V30 1541 O 152.384 0.834625 1.7535 0
M  V30 1542 C 149.514 1.85728 2.93466 0
M  V30 1543 C 148.468 3.01078 3.04197 0
M  V30 1544 C 147.794 2.97595 4.44231 0
M  V30 1545 C 149.094 4.41254 2.7945 0
M  V30 1546 H 150.788 2.66725 1.36008 0
M  V30 1547 H 148.334 1.2835 0.652864 0
M  V30 1548 H 150.287 2.0064 3.70569 0
M  V30 1549 H 149.011 0.900207 3.13949 0
M  V30 1550 H 147.67 2.85851 2.29531 0
M  V30 1551 H 147.318 1.99691 4.61663 0
M  V30 1552 H 147.018 3.75046 4.52343 0
M  V30 1553 H 148.542 3.14583 5.23326 0
M  V30 1554 H 149.956 4.56897 3.46292 0
M  V30 1555 H 148.353 5.20315 2.98985 0
M  V30 1556 H 149.423 4.52164 1.75144 0
M  V30 1557 N 150.766 -0.704594 1.40972 0
M  V30 1558 C 151.696 -1.83124 1.44872 0
M  V30 1559 C 152.677 -1.67281 0.30838 0
M  V30 1560 O 153.862 -1.87149 0.518556 0
M  V30 1561 C 150.992 -3.21181 1.32136 0
M  V30 1562 C 149.946 -3.51714 2.43888 0
M  V30 1563 C 149.272 -4.89032 2.16222 0
M  V30 1564 C 150.572 -3.516 3.86232 0
M  V30 1565 H 152.266 -1.80117 2.39161 0
M  V30 1566 H 149.812 -0.865145 1.15114 0
M  V30 1567 H 151.765 -3.99702 1.33479 0
M  V30 1568 H 150.489 -3.24791 0.343279 0
M  V30 1569 H 149.148 -2.75539 2.41813 0
M  V30 1570 H 148.796 -4.89256 1.16778 0
M  V30 1571 H 148.496 -5.10426 2.911 0
M  V30 1572 H 150.02 -5.69873 2.19265 0
M  V30 1573 H 151.434 -4.2014 3.9007 0
M  V30 1574 H 149.831 -3.84523 4.60719 0
M  V30 1575 H 150.901 -2.50757 4.15029 0
M  V30 1576 N 152.244 -1.26651 -0.937939 0
M  V30 1577 C 153.469 -1.15279 -1.72411 0
M  V30 1578 C 153.894 0.287866 -1.85884 0
M  V30 1579 O 153.252 1.20855 -1.35143 0
M  V30 1580 C 153.3 -1.83028 -3.10698 0
M  V30 1581 O 152.404 -1.12128 -3.96864 0
M  V30 1582 H 151.745 -0.401504 -0.528858 0
M  V30 1583 H 154.275 -1.67531 -1.1745 0
M  V30 1584 H 154.285 -1.89981 -3.6107 0
M  V30 1585 H 152.96 -2.87833 -3.00208 0
M  V30 1586 H 151.537 -1.13173 -3.55312 0
M  V30 1587 N 153.722 1.14298 -1.08507 0
M  V30 1588 C 154.672 2.17449 -0.685569 0
M  V30 1589 C 155.656 1.58167 0.295315 0
M  V30 1590 O 156.848 1.76675 0.107172 0
M  V30 1591 C 153.977 3.43161 -0.0975318 0
M  V30 1592 C 153.063 4.09471 -1.10426 0
M  V30 1593 N 153.454 4.51089 -2.28806 0
M  V30 1594 C 151.752 4.35976 -0.940258 0
M  V30 1595 C 152.453 5.02654 -2.9277 0
M  V30 1596 N 151.429 4.96927 -2.20374 0
M  V30 1597 H 155.231 2.47369 -1.587 0
M  V30 1598 H 152.745 1.30992 -0.959936 0
M  V30 1599 H 154.742 4.16388 0.20664 0
M  V30 1600 H 153.402 3.14719 0.798872 0
M  V30 1601 H 154.413 4.44097 -2.66455 0
M  V30 1602 H 151.09 4.17386 -0.0977441 0
M  V30 1603 H 152.48 5.44723 -3.93352 0
M  V30 1604 N 155.201 0.870884 1.31352 0
M  V30 1605 C 156.164 0.332243 2.26779 0
M  V30 1606 C 157.164 -0.517302 1.52252 0
M  V30 1607 O 158.354 -0.326477 1.71113 0
M  V30 1608 C 155.486 -0.528066 3.36785 0
M  V30 1609 H 156.679 1.17469 2.75937 0
M  V30 1610 H 154.232 0.64655 1.423 0
M  V30 1611 H 154.967 -1.39167 2.92922 0
M  V30 1612 H 154.752 0.0802582 3.92018 0
M  V30 1613 H 156.242 -0.897179 4.07849 0
M  V30 1614 N 156.679 -1.44442 0.630414 0
M  V30 1615 C 157.629 -2.27794 -0.0968103 0
M  V30 1616 C 158.613 -1.38624 -0.816834 0
M  V30 1617 O 159.805 -1.62438 -0.70306 0
M  V30 1618 C 156.934 -3.25929 -1.07819 0
M  V30 1619 C 156.02 -4.22588 -0.357826 0
M  V30 1620 N 156.411 -5.0207 0.613169 0
M  V30 1621 C 154.709 -4.41914 -0.602365 0
M  V30 1622 C 155.41 -5.72351 1.03871 0
M  V30 1623 N 154.386 -5.42287 0.377642 0
M  V30 1624 H 158.188 -2.86653 0.648621 0
M  V30 1625 H 155.702 -1.55871 0.455862 0
M  V30 1626 H 157.699 -3.84399 -1.61378 0
M  V30 1627 H 156.359 -2.68631 -1.82393 0
M  V30 1628 H 157.37 -5.08331 0.990947 0
M  V30 1629 H 154.047 -3.95714 -1.33103 0
M  V30 1630 H 155.437 -6.4619 1.84086 0
M  V30 1631 N 158.157 -0.370918 -1.53173 0
M  V30 1632 C 159.12 0.460778 -2.24521 0
M  V30 1633 C 160.12 1.00536 -1.25496 0
M  V30 1634 O 161.31 0.890266 -1.49733 0
M  V30 1635 C 158.442 1.64457 -2.98608 0
M  V30 1636 H 159.635 -0.163613 -2.99453 0
M  V30 1637 H 157.188 -0.122699 -1.55818 0
M  V30 1638 H 157.923 2.30691 -2.2793 0
M  V30 1639 H 157.708 1.26099 -3.7127 0
M  V30 1640 H 159.198 2.23384 -3.5283 0
M  V30 1641 N 159.635 1.57281 -0.100228 0
M  V30 1642 C 160.912 1.86014 0.604812 0
M  V30 1643 C 161.292 0.998025 1.86018 0
M  V30 1644 O 160.64 0.0718184 2.28387 0
M  V30 1645 C 160.85 3.36784 0.915278 0
M  V30 1646 C 162.198 4.04957 1.27651 0
M  V30 1647 O 163.222 3.41695 1.00613 0
M  V30 1648 O 162.081 5.16593 1.7831 0
M  V30 1649 H 159.175 0.76942 0.303185 0
M  V30 1650 H 161.721 1.69176 -0.133313 0
M  V30 1651 H 160.493 3.91292 0.0248896 0
M  V30 1652 H 160.116 3.58987 1.70921 0
M  V30 1653 N 161.113 -0.173488 1.56642 0
M  V30 1654 C 162.063 -1.21941 1.92651 0
M  V30 1655 C 163.047 -1.39912 0.794577 0
M  V30 1656 O 164.239 -1.41919 1.05773 0
M  V30 1657 C 161.368 -2.55935 2.28806 0
M  V30 1658 C 160.454 -2.41667 3.48508 0
M  V30 1659 N 160.845 -1.9711 4.65813 0
M  V30 1660 C 159.143 -2.72499 3.53072 0
M  V30 1661 C 159.844 -1.95253 5.47952 0
M  V30 1662 N 158.82 -2.37575 4.88937 0
M  V30 1663 H 162.622 -0.866581 2.80834 0
M  V30 1664 H 160.136 -0.381776 1.57849 0
M  V30 1665 H 162.133 -3.31511 2.52797 0
M  V30 1666 H 160.793 -2.92022 1.41961 0
M  V30 1667 H 161.804 -1.67481 4.90072 0
M  V30 1668 H 158.481 -3.12639 2.767 0
M  V30 1669 H 159.871 -1.6252 6.51948 0
M  V30 1670 N 162.591 -1.51276 -0.441967 0
M  V30 1671 C 163.554 -1.7167 -1.51862 0
M  V30 1672 C 164.554 -0.586793 -1.49711 0
M  V30 1673 O 165.744 -0.854276 -1.51815 0
M  V30 1674 C 162.876 -1.76889 -2.91416 0
M  V30 1675 H 164.069 -2.67754 -1.35084 0
M  V30 1676 H 161.622 -1.41196 -0.670333 0
M  V30 1677 H 162.357 -0.826026 -3.13604 0
M  V30 1678 H 162.142 -2.59001 -2.94382 0
M  V30 1679 H 163.632 -1.94522 -3.69528 0
M  V30 1680 N 164.069 0.697108 -1.41344 0
M  V30 1681 C 165.317 1.45426 -1.40341 0
M  V30 1682 C 165.638 1.94996 -0.0128787 0
M  V30 1683 O 164.908 1.71599 0.945027 0
M  V30 1684 H 163.488 0.539594 -0.516573 0
M  V30 1685 H 166.15 0.825201 -1.76569 0
M  V30 1686 H 165.246 2.31817 -2.08967 0
M  V30 1687 N 165.547 1.27147 0.931209 0
M  V30 1688 C 166.958 1.12044 1.49342 0
M  V30 1689 C 167.309 -0.295795 1.93957 0
M  V30 1690 O 166.434 -1.18835 1.80852 0
M  V30 1691 C 167.029 2.02781 2.71414 0
M  V30 1692 C 165.588 1.91794 3.2387 0
M  V30 1693 C 164.735 1.95543 1.96617 0
M  V30 1694 H 167.686 1.40091 0.745672 0
M  V30 1695 H 167.707 1.58156 3.46074 0
M  V30 1696 H 167.219 3.05848 2.38911 0
M  V30 1697 H 165.32 0.916992 3.6114 0
M  V30 1698 H 165.433 2.77852 3.90302 0
M  V30 1699 H 163.797 1.39722 2.12955 0
M  V30 1700 H 164.58 3.00259 1.66432 0
M  V30 1701 N 167.025 -1.13721 1.09112 0
M  V30 1702 C 168.271 -1.85198 0.826414 0
M  V30 1703 C 168.604 -1.83129 -0.646319 0
M  V30 1704 O 167.879 -1.2671 -1.47563 0
M  V30 1705 C 168.162 -3.33507 1.35812 0
M  V30 1706 C 168.015 -3.44108 2.89672 0
M  V30 1707 C 169.334 -4.28838 0.989256 0
M  V30 1708 H 166.453 -0.67243 0.301675 0
M  V30 1709 H 169.095 -1.33499 1.35197 0
M  V30 1710 H 167.245 -3.77666 0.911082 0
M  V30 1711 H 168.917 -3.08684 3.428 0
M  V30 1712 H 167.16 -2.85087 3.26967 0
M  V30 1713 H 167.831 -4.48388 3.21951 0
M  V30 1714 H 170.307 -3.92734 1.37475 0
M  V30 1715 H 169.183 -5.31051 1.38838 0
M  V30 1716 H 169.444 -4.4198 -0.102924 0
M  V30 1717 N 168.503 -0.877838 -1.30888 0
M  V30 1718 C 169.466 -0.344265 -2.266 0
M  V30 1719 C 170.466 0.50922 -1.52524 0
M  V30 1720 O 171.656 0.317398 -1.71284 0
M  V30 1721 C 168.788 0.510198 -3.37061 0
M  V30 1722 H 169.981 -1.1893 -2.7531 0
M  V30 1723 H 167.534 -0.654088 -1.41956 0
M  V30 1724 H 168.269 1.37612 -2.93655 0
M  V30 1725 H 168.054 -0.101047 -3.9197 0
M  V30 1726 H 169.544 0.875537 -4.08319 0
M  V30 1727 N 169.982 1.44106 -0.638065 0
M  V30 1728 C 170.892 2.34513 0.0637334 0
M  V30 1729 C 171.908 1.53018 0.828346 0
M  V30 1730 O 173.084 1.85723 0.779036 0
M  V30 1731 C 170.149 3.31095 1.02844 0
M  V30 1732 C 169.21 4.28497 0.26244 0
M  V30 1733 C 168.443 5.20465 1.1812 0
M  V30 1734 O 168.666 5.16514 2.42011 0
M  V30 1735 O 167.6 5.98251 0.661774 0
M  V30 1736 H 171.426 2.95989 -0.68003 0
M  V30 1737 H 169.011 1.43994 -0.398252 0
M  V30 1738 H 170.893 3.90526 1.58327 0
M  V30 1739 H 169.568 2.72144 1.7527 0
M  V30 1740 H 168.475 3.72592 -0.335602 0
M  V30 1741 H 169.808 4.90388 -0.421936 0
M  V30 1742 N 171.46 0.379036 1.52974 0
M  V30 1743 C 172.39 -0.452706 2.29069 0
M  V30 1744 C 173.371 -1.07237 1.32039 0
M  V30 1745 O 174.556 -1.08708 1.60923 0
M  V30 1746 C 171.686 -1.5856 3.08992 0
M  V30 1747 C 170.64 -1.0925 4.13822 0
M  V30 1748 C 169.966 -2.31668 4.81907 0
M  V30 1749 C 171.266 -0.167702 5.22031 0
M  V30 1750 H 172.96 0.182181 2.98845 0
M  V30 1751 H 170.506 0.0890592 1.43724 0
M  V30 1752 H 172.459 -2.1742 3.6098 0
M  V30 1753 H 171.183 -2.24792 2.36931 0
M  V30 1754 H 169.842 -0.526494 3.628 0
M  V30 1755 H 169.49 -2.96386 4.06404 0
M  V30 1756 H 169.19 -1.9934 5.52754 0
M  V30 1757 H 170.714 -2.91189 5.36695 0
M  V30 1758 H 172.128 -0.664186 5.6944 0
M  V30 1759 H 170.525 0.0653265 6.00064 0
M  V30 1760 H 171.595 0.786347 4.78482 0
M  V30 1761 N 172.938 -1.57226 0.108567 0
M  V30 1762 C 173.885 -2.14756 -0.845481 0
M  V30 1763 C 174.855 -1.06971 -1.27068 0
M  V30 1764 O 176.04 -1.34827 -1.35005 0
M  V30 1765 C 173.18 -2.74298 -2.09415 0
M  V30 1766 C 172.293 -3.96358 -1.71826 0
M  V30 1767 C 171.428 -4.44021 -2.9158 0
M  V30 1768 C 170.467 -5.58637 -2.50181 0
M  V30 1769 N 169.604 -6.01091 -3.62814 0
M  V30 1770 H 174.444 -2.95961 -0.348035 0
M  V30 1771 H 171.981 -1.46226 -0.160106 0
M  V30 1772 H 173.939 -3.06945 -2.82561 0
M  V30 1773 H 172.569 -1.95801 -2.56636 0
M  V30 1774 H 171.621 -3.69939 -0.885947 0
M  V30 1775 H 172.933 -4.79504 -1.37394 0
M  V30 1776 H 172.087 -4.78522 -3.72963 0
M  V30 1777 H 170.826 -3.59803 -3.29231 0
M  V30 1778 H 169.831 -5.23751 -1.67228 0
M  V30 1779 H 171.056 -6.44613 -2.13659 0
M  V30 1780 H 169.002 -5.19817 -4.00158 0
M  V30 1781 H 168.919 -6.79066 -3.32273 0
M  V30 1782 H 170.187 -6.40227 -4.44668 0
M  V30 1783 N 174.416 0.165178 -1.56732 0
M  V30 1784 C 175.832 0.517174 -1.50988 0
M  V30 1785 C 176.032 1.84331 -0.813894 0
M  V30 1786 O 175.088 2.49672 -0.37682 0
M  V30 1787 C 176.401 0.544261 -2.95733 0
M  V30 1788 C 177.949 0.631039 -3.06573 0
M  V30 1789 C 178.424 0.68896 -4.52788 0
M  V30 1790 N 179.915 0.751683 -4.5706 0
M  V30 1791 C 180.65 0.817177 -5.67547 0
M  V30 1792 N 180.146 0.843129 -6.8765 0
M  V30 1793 N 181.939 0.856668 -5.55534 0
M  V30 1794 H 174.09 -0.704318 -2.00382 0
M  V30 1795 H 176.353 -0.254687 -0.913148 0
M  V30 1796 H 176.059 -0.361607 -3.49836 0
M  V30 1797 H 175.933 1.3886 -3.5071 0
M  V30 1798 H 178.32 1.52733 -2.52501 0
M  V30 1799 H 178.401 -0.240095 -2.54671 0
M  V30 1800 H 178.045 -0.2031 -5.07494 0
M  V30 1801 H 177.975 1.57633 -5.02454 0
M  V30 1802 H 180.466 0.739661 -3.70591 0
M  V30 1803 H 180.779 0.894448 -7.67606 0
M  V30 1804 H 179.124 0.811304 -6.90248 0
M  V30 1805 H 182.315 0.833437 -4.60621 0
M  V30 1806 H 182.488 0.904247 -6.4166 0
M  V30 1807 N 175.894 1.51508 0.433938 0
M  V30 1808 C 177.31 1.39759 0.770682 0
M  V30 1809 C 177.51 0.482594 1.95636 0
M  V30 1810 O 176.566 -0.0609691 2.52426 0
M  V30 1811 C 177.879 2.81851 1.04787 0
M  V30 1812 C 179.427 2.91025 1.1521 0
M  V30 1813 C 179.902 4.34032 1.46219 0
M  V30 1814 N 181.393 4.37154 1.53136 0
M  V30 1815 C 182.128 5.4484 1.78709 0
M  V30 1816 N 181.624 6.62682 2.02051 0
M  V30 1817 N 183.417 5.32324 1.80519 0
M  V30 1818 H 175.568 2.09548 -0.346892 0
M  V30 1819 H 177.831 0.943446 -0.0928074 0
M  V30 1820 H 177.537 3.50815 0.249304 0
M  V30 1821 H 177.411 3.21386 1.97461 0
M  V30 1822 H 179.798 2.22257 1.94128 0
M  V30 1823 H 179.879 2.54983 0.204281 0
M  V30 1824 H 179.523 5.03351 0.678274 0
M  V30 1825 H 179.453 4.6759 2.42212 0
M  V30 1826 H 181.944 3.52197 1.36987 0
M  V30 1827 H 182.257 7.40543 2.20943 0
M  V30 1828 H 180.602 6.65791 1.99366 0
M  V30 1829 H 183.793 4.39246 1.61805 0
M  V30 1830 H 183.966 6.16328 2.00111 0
M  V30 1831 N 177.372 -0.689602 1.41712 0
M  V30 1832 C 178.6 -1.47827 1.44758 0
M  V30 1833 C 179.015 -1.88721 0.0545703 0
M  V30 1834 O 178.372 -1.57176 -0.927463 0
M  V30 1835 C 178.423 -2.73698 2.3616 0
M  V30 1836 O 178.144 -2.34524 3.7004 0
M  V30 1837 C 179.645 -3.67389 2.48072 0
M  V30 1838 H 176.865 -0.455357 0.49284 0
M  V30 1839 H 179.409 -0.848574 1.86063 0
M  V30 1840 H 177.564 -3.32891 1.98148 0
M  V30 1841 H 177.978 -3.15701 4.18847 0
M  V30 1842 H 179.452 -4.52475 3.16181 0
M  V30 1843 H 179.929 -4.12284 1.51388 0
M  V30 1844 H 180.535 -3.14097 2.86746 0
M  V30 1845 N 178.85 -1.27639 -0.924453 0
M  V30 1846 C 180.098 -1.13941 -1.66918 0
M  V30 1847 C 180.419 0.314589 -1.92446 0
M  V30 1848 O 179.689 1.21964 -1.53303 0
M  V30 1849 H 178.269 -0.418678 -0.618642 0
M  V30 1850 H 180.931 -1.60213 -1.10985 0
M  V30 1851 H 180.027 -1.67094 -2.63602 0
M  V30 1852 N 180.328 1.1314 -1.09713 0
M  V30 1853 C 181.291 2.16831 -0.742751 0
M  V30 1854 C 182.291 1.59159 0.229129 0
M  V30 1855 O 183.481 1.74199 0.00693237 0
M  V30 1856 C 180.613 3.40756 -0.0989168 0
M  V30 1857 H 181.806 2.49695 -1.66109 0
M  V30 1858 H 179.359 1.2802 -0.896699 0
M  V30 1859 H 180.094 3.13485 0.830514 0
M  V30 1860 H 179.879 3.83888 -0.798265 0
M  V30 1861 H 181.369 4.17386 0.133524 0
M  V30 1862 N 181.806 0.884767 1.30421 0
M  V30 1863 C 182.753 0.349642 2.28136 0
M  V30 1864 C 183.723 -0.560061 1.56373 0
M  V30 1865 O 184.908 -0.488524 1.8444 0
M  V30 1866 C 182.048 -0.42999 3.42411 0
M  V30 1867 C 181.161 0.508907 4.28992 0
M  V30 1868 C 180.296 -0.286301 5.30428 0
M  V30 1869 C 179.335 0.648079 6.08659 0
M  V30 1870 N 178.472 -0.111792 7.02011 0
M  V30 1871 H 183.312 1.18807 2.73293 0
M  V30 1872 H 180.849 0.597231 1.3443 0
M  V30 1873 H 182.807 -0.897923 4.07423 0
M  V30 1874 H 181.437 -1.23299 2.98324 0
M  V30 1875 H 180.489 1.09533 3.64289 0
M  V30 1876 H 181.801 1.22475 4.8353 0
M  V30 1877 H 180.955 -0.816098 6.01186 0
M  V30 1878 H 179.694 -1.03536 4.76583 0
M  V30 1879 H 178.699 1.18951 5.36778 0
M  V30 1880 H 179.924 1.39623 6.64592 0
M  V30 1881 H 177.87 -0.843395 6.50556 0
M  V30 1882 H 177.787 0.544429 7.54037 0
M  V30 1883 H 179.055 -0.622339 7.77012 0
M  V30 1884 N 183.284 -1.43765 0.645699 0
M  V30 1885 C 184.53 -2.02197 0.156271 0
M  V30 1886 C 184.863 -1.50776 -1.22393 0
M  V30 1887 O 184.138 -0.697771 -1.81553 0
M  V30 1888 C 184.421 -3.59749 0.158872 0
M  V30 1889 C 184.274 -4.21419 1.57245 0
M  V30 1890 C 185.593 -4.37149 -0.50879 0
M  V30 1891 H 182.712 -0.734694 0.0582602 0
M  V30 1892 H 185.354 -1.71157 0.824951 0
M  V30 1893 H 183.504 -3.86325 -0.410525 0
M  V30 1894 H 185.176 -4.059 2.19186 0
M  V30 1895 H 183.419 -3.78356 2.122 0
M  V30 1896 H 184.09 -5.30482 1.52619 0
M  V30 1897 H 186.566 -4.16093 -0.024412 0
M  V30 1898 H 185.442 -5.4683 -0.476213 0
M  V30 1899 H 185.703 -4.12839 -1.58165 0
M  V30 1900 N 184.763 -0.387143 -1.52771 0
M  V30 1901 C 185.726 0.436939 -2.24997 0
M  V30 1902 C 186.726 0.991991 -1.26555 0
M  V30 1903 O 187.916 0.874335 -1.50669 0
M  V30 1904 C 185.048 1.61281 -3.00335 0
M  V30 1905 H 186.241 -0.195365 -2.99263 0
M  V30 1906 H 183.794 -0.139218 -1.55679 0
M  V30 1907 H 184.529 2.2826 -2.30364 0
M  V30 1908 H 184.314 1.22154 -3.72587 0
M  V30 1909 H 185.804 2.19629 -3.5518 0
M  V30 1910 N 186.241 1.57166 -0.116904 0
M  V30 1911 C 187.204 2.14039 0.819742 0
M  V30 1912 C 188.204 1.07477 1.19605 0
M  V30 1913 O 189.394 1.33263 1.1219 0
M  V30 1914 C 186.526 2.67891 2.10826 0
M  V30 1915 H 187.719 2.98128 0.325511 0
M  V30 1916 H 185.272 1.55739 0.132312 0
M  V30 1917 H 186.007 1.87384 2.64685 0
M  V30 1918 H 185.792 3.45823 1.84793 0
M  V30 1919 H 187.282 3.11809 2.77785 0
M  V30 1920 N 187.719 -0.156864 1.56817 0
M  V30 1921 C 188.667 -1.21319 1.98455 0
M  V30 1922 C 189.661 -1.45025 0.875444 0
M  V30 1923 O 190.867 -1.45435 1.0606 0
M  V30 1924 H 187.242 -0.408142 0.631605 0
M  V30 1925 H 189.213 -0.835244 2.86472 0
M  V30 1926 C 187.962 -2.54148 2.37285 0
M  V30 1927 H 187.285 -2.36733 3.22176 0
M  V30 1928 H 188.725 -3.26712 2.70251 0
M  V30 1929 C 187.184 -3.13967 1.22173 0
M  V30 1930 O 187.714 -3.98357 0.517149 0
M  V30 1931 N 185.92 -2.7327 0.988536 0
M  V30 1932 H 185.467 -2.04744 1.56326 0
M  V30 1933 H 185.425 -3.13628 0.220209 0
M  V30 1934 N 189.197 -1.51736 -0.425897 0
M  V30 1935 C 190.16 -1.73271 -1.50032 0
M  V30 1936 C 191.16 -0.602639 -1.4908 0
M  V30 1937 O 192.35 -0.87033 -1.509 0
M  V30 1938 C 189.482 -1.79969 -2.89523 0
M  V30 1939 H 190.675 -2.69172 -1.32237 0
M  V30 1940 H 188.228 -1.41899 -0.65532 0
M  V30 1941 H 188.963 -0.859241 -3.1271 0
M  V30 1942 H 188.748 -2.62109 -2.91619 0
M  V30 1943 H 190.238 -1.9843 -3.67444 0
M  V30 1944 N 190.675 0.682077 -1.42076 0
M  V30 1945 C 191.585 1.82535 -1.47371 0
M  V30 1946 C 192.601 1.7017 -0.363079 0
M  V30 1947 O 193.777 1.91848 -0.612875 0
M  V30 1948 C 190.842 3.18624 -1.36674 0
M  V30 1949 C 189.903 3.42999 -2.58167 0
M  V30 1950 C 189.136 4.72595 -2.4797 0
M  V30 1951 O 189.359 5.50006 -1.5116 0
M  V30 1952 O 188.293 4.98054 -3.37974 0
M  V30 1953 H 192.119 1.81023 -2.43853 0
M  V30 1954 H 189.704 0.836887 -1.2376 0
M  V30 1955 H 191.586 3.99847 -1.33043 0
M  V30 1956 H 190.261 3.20789 -0.433138 0
M  V30 1957 H 189.168 2.61653 -2.67373 0
M  V30 1958 H 190.501 3.45659 -3.50401 0
M  V30 1959 N 192.153 1.28127 0.917671 0
M  V30 1960 C 193.378 1.18007 1.70555 0
M  V30 1961 C 193.803 -0.258257 1.86319 0
M  V30 1962 O 193.161 -1.1869 1.37049 0
M  V30 1963 C 193.209 1.87948 3.07746 0
M  V30 1964 O 192.313 1.18427 3.9503 0
M  V30 1965 H 191.654 0.409867 0.522403 0
M  V30 1966 H 194.184 1.69379 1.1477 0
M  V30 1967 H 194.194 1.95701 3.58001 0
M  V30 1968 H 192.869 2.92573 2.95591 0
M  V30 1969 H 191.446 1.18811 3.53466 0
M  V30 1970 N 193.631 -1.12557 1.10312 0
M  V30 1971 C 194.594 -2.16434 0.75424 0
M  V30 1972 C 195.594 -1.59278 -0.220685 0
M  V30 1973 O 196.784 -1.742 0.00230591 0
M  V30 1974 C 193.916 -3.40699 0.116987 0
M  V30 1975 H 195.109 -2.48811 1.67431 0
M  V30 1976 H 192.662 -1.27542 0.903475 0
M  V30 1977 H 193.397 -3.13921 -0.813877 0
M  V30 1978 H 193.182 -3.83459 0.818613 0
M  V30 1979 H 194.672 -4.17451 -0.111387 0
M  V30 1980 N 195.109 -0.891671 -1.2995 0
M  V30 1981 C 196.355 -0.514261 -1.96171 0
M  V30 1982 C 196.688 0.935506 -1.70182 0
M  V30 1983 O 195.963 1.66204 -1.01028 0
M  V30 1984 C 196.246 -0.797719 -3.51153 0
M  V30 1985 C 196.099 -2.2986 -3.86632 0
M  V30 1986 C 197.418 -0.278749 -4.39216 0
M  V30 1987 H 194.537 -0.188314 -0.712535 0
M  V30 1988 H 197.179 -1.11689 -1.53706 0
M  V30 1989 H 195.329 -0.284826 -3.87455 0
M  V30 1990 H 197.001 -2.88042 -3.60319 0
M  V30 1991 H 195.244 -2.76257 -3.34462 0
M  V30 1992 H 195.915 -2.44753 -4.94773 0
M  V30 1993 H 198.391 -0.717825 -4.09862 0
M  V30 1994 H 197.267 -0.506353 -5.46559 0
M  V30 1995 H 197.528 0.820266 -4.34424 0
M  V30 1996 N 196.587 1.43421 -0.653314 0
M  V30 1997 C 197.517 2.33487 0.0246656 0
M  V30 1998 C 198.498 1.49475 0.811863 0
M  V30 1999 O 199.683 1.78139 0.773322 0
M  V30 2000 C 196.813 3.32841 0.99166 0
M  V30 2001 C 195.767 4.26842 0.314568 0
M  V30 2002 C 195.093 5.16236 1.39302 0
M  V30 2003 C 196.393 5.16243 -0.793095 0
M  V30 2004 H 198.087 2.90427 -0.727481 0
M  V30 2005 H 195.633 1.39649 -0.351287 0
M  V30 2006 H 197.586 3.94747 1.47487 0
M  V30 2007 H 196.31 2.74158 1.77497 0
M  V30 2008 H 194.969 3.663 -0.148199 0
M  V30 2009 H 194.617 4.53891 2.16776 0
M  V30 2010 H 194.317 5.79948 0.945223 0
M  V30 2011 H 195.841 5.81015 1.87759 0
M  V30 2012 H 197.255 5.71958 -0.392039 0
M  V30 2013 H 195.652 5.88676 -1.16536 0
M  V30 2014 H 196.722 4.55927 -1.65103 0
M  V30 2015 N 198.065 0.39524 1.52563 0
M  V30 2016 C 198.995 -0.428384 2.29537 0
M  V30 2017 C 199.976 -1.05831 1.33169 0
M  V30 2018 O 201.161 -1.06995 1.62067 0
M  V30 2019 C 198.291 -1.55274 3.10656 0
M  V30 2020 C 197.245 -1.04855 4.14957 0
M  V30 2021 C 196.571 -2.26543 4.84337 0
M  V30 2022 C 197.871 -0.112324 5.22179 0
M  V30 2023 H 199.565 0.213867 2.98635 0
M  V30 2024 H 197.111 0.104298 1.43622 0
M  V30 2025 H 199.064 -2.1358 3.63265 0
M  V30 2026 H 197.788 -2.22266 2.39302 0
M  V30 2027 H 196.447 -0.487985 3.63338 0
M  V30 2028 H 196.095 -2.92059 4.09525 0
M  V30 2029 H 195.795 -1.93466 5.54837 0
M  V30 2030 H 197.319 -2.85481 5.39753 0
M  V30 2031 H 198.733 -0.603752 5.70112 0
M  V30 2032 H 197.13 0.128968 5.99961 0
M  V30 2033 H 198.2 0.837052 4.77621 0
M  V30 2034 N 199.544 -1.57102 0.125237 0
M  V30 2035 C 200.507 -2.14471 -0.80838 0
M  V30 2036 C 201.507 -1.0811 -1.19033 0
M  V30 2037 O 202.697 -1.33856 -1.11482 0
M  V30 2038 C 199.829 -2.69005 -2.09402 0
M  V30 2039 H 201.022 -2.98297 -0.309696 0
M  V30 2040 H 198.575 -1.55807 -0.124051 0
M  V30 2041 H 199.31 -1.88785 -2.63687 0
M  V30 2042 H 199.095 -3.46799 -1.82957 0
M  V30 2043 H 200.585 -3.13278 -2.76128 0
M  V30 2044 N 201.022 0.148545 -1.56898 0
M  V30 2045 C 202.438 0.501131 -1.51528 0
M  V30 2046 C 202.638 1.83458 -0.833399 0
M  V30 2047 O 201.694 2.49259 -0.40328 0
M  V30 2048 C 203.007 0.512864 -2.96294 0
M  V30 2049 C 204.555 0.598487 -3.07225 0
M  V30 2050 C 205.03 0.640897 -4.53494 0
M  V30 2051 N 206.521 0.703163 -4.57832 0
M  V30 2052 C 207.256 0.756935 -5.68382 0
M  V30 2053 N 206.752 0.770147 -6.88506 0
M  V30 2054 N 208.545 0.797698 -5.56411 0
M  V30 2055 H 200.696 -0.725532 -1.99624 0
M  V30 2056 H 202.959 -0.264358 -0.910395 0
M  V30 2057 H 202.665 -0.398691 -3.49433 0
M  V30 2058 H 202.539 1.35133 -3.52163 0
M  V30 2059 H 204.926 1.50046 -2.54106 0
M  V30 2060 H 205.007 -0.267093 -2.54402 0
M  V30 2061 H 204.651 -0.256915 -5.0725 0
M  V30 2062 H 204.581 1.52295 -5.04097 0
M  V30 2063 H 207.072 0.700314 -3.71354 0
M  V30 2064 H 207.385 0.812983 -7.68512 0
M  V30 2065 H 205.73 0.738049 -6.9107 0
M  V30 2066 H 208.921 0.784535 -4.61479 0
M  V30 2067 H 209.094 0.83614 -6.42583 0
M  V30 2068 N 202.5 1.5196 0.417844 0
M  V30 2069 C 203.748 1.65263 1.16329 0
M  V30 2070 C 204.069 0.380634 1.91249 0
M  V30 2071 O 203.339 -0.604214 1.86349 0
M  V30 2072 H 201.919 0.60912 0.432414 0
M  V30 2073 H 204.581 1.88969 0.477162 0
M  V30 2074 H 203.677 2.4896 1.88217 0
M  V30 2075 N 203.978 -0.674533 1.42435 0
M  V30 2076 C 205.226 -1.43175 1.42637 0
M  V30 2077 C 205.547 -1.94951 0.0438992 0
M  V30 2078 O 204.817 -1.7308 -0.917607 0
M  V30 2079 H 203.397 -0.531307 0.525092 0
M  V30 2080 H 206.059 -0.797006 1.77859 0
M  V30 2081 H 205.155 -2.28463 2.12629 0
M  V30 2082 N 205.456 -1.28612 -0.910864 0
M  V30 2083 C 206.681 -1.1891 -1.69927 0
M  V30 2084 C 207.106 0.248372 -1.86453 0
M  V30 2085 O 206.464 1.17961 -1.37676 0
M  V30 2086 C 206.512 -1.89578 -3.06745 0
M  V30 2087 O 205.616 -1.20521 -3.94396 0
M  V30 2088 H 204.957 -0.412632 -0.520222 0
M  V30 2089 H 207.487 -1.69985 -1.1387 0
M  V30 2090 H 207.497 -1.97597 -3.56958 0
M  V30 2091 H 206.172 -2.94136 -2.94035 0
M  V30 2092 H 204.749 -1.20684 -3.52831 0
M  V30 2093 N 206.934 1.1197 -1.10907 0
M  V30 2094 C 208.211 1.79959 -0.766432 0
M  V30 2095 C 208.591 1.97466 0.746363 0
M  V30 2096 O 207.939 1.55491 1.67436 0
M  V30 2097 C 208.149 3.14009 -1.52314 0
M  V30 2098 C 209.497 3.89134 -1.69883 0
M  V30 2099 O 210.521 3.2368 -1.48692 0
M  V30 2100 O 209.38 5.06572 -2.05054 0
M  V30 2101 H 206.474 0.779208 -0.277062 0
M  V30 2102 H 209.02 1.18762 -1.21217 0
M  V30 2103 H 207.792 2.96587 -2.55249 0
M  V30 2104 H 207.415 3.82915 -1.07059 0
M  V30 2105 N 208.412 0.89855 1.29475 0
M  V30 2106 C 209.689 0.443416 1.90508 0
M  V30 2107 C 210.069 -1.07685 1.81569 0
M  V30 2108 O 209.417 -1.9182 1.24166 0
M  V30 2109 C 209.627 0.956708 3.35631 0
M  V30 2110 C 210.975 0.999728 4.12663 0
M  V30 2111 O 211.999 0.904299 3.4453 0
M  V30 2112 O 210.858 1.14289 5.34416 0
M  V30 2113 H 207.952 0.138025 0.815401 0
M  V30 2114 H 210.498 0.98834 1.37949 0
M  V30 2115 H 209.27 2.00067 3.36287 0
M  V30 2116 H 208.893 0.391728 3.95666 0
M  V30 2117 N 209.89 -1.43072 0.660911 0
M  V30 2118 C 210.82 -2.33497 -0.0122829 0
M  V30 2119 C 211.801 -1.49903 -0.803925 0
M  V30 2120 O 212.986 -1.78546 -0.763864 0
M  V30 2121 C 210.116 -3.33363 -0.973994 0
M  V30 2122 C 209.07 -4.27003 -0.291928 0
M  V30 2123 C 208.396 -5.16967 -1.36562 0
M  V30 2124 C 209.696 -5.15816 0.820462 0
M  V30 2125 H 211.39 -2.90038 0.742873 0
M  V30 2126 H 208.936 -1.39461 0.358688 0
M  V30 2127 H 210.889 -3.95524 -1.45392 0
M  V30 2128 H 209.613 -2.75095 -1.7604 0
M  V30 2129 H 208.272 -3.66217 0.167623 0
M  V30 2130 H 207.92 -4.55034 -2.14366 0
M  V30 2131 H 207.62 -5.80441 -0.914454 0
M  V30 2132 H 209.144 -5.82003 -1.84675 0
M  V30 2133 H 210.558 -5.71742 0.422366 0
M  V30 2134 H 208.955 -5.8805 1.19656 0
M  V30 2135 H 210.025 -4.55045 1.67518 0
M  V30 2136 N 211.368 -0.403325 -1.52352 0
M  V30 2137 C 212.318 0.442244 -2.2367 0
M  V30 2138 C 213.302 1.01823 -1.24583 0
M  V30 2139 O 214.494 0.942005 -1.49851 0
M  V30 2140 C 211.623 1.5615 -3.05732 0
M  V30 2141 C 210.709 0.996575 -4.12225 0
M  V30 2142 N 211.1 0.157804 -5.05554 0
M  V30 2143 C 209.398 1.26767 -4.27605 0
M  V30 2144 C 210.099 -0.155853 -5.81491 0
M  V30 2145 N 209.075 0.451775 -5.41719 0
M  V30 2146 H 212.877 -0.204964 -2.93184 0
M  V30 2147 H 210.391 -0.213418 -1.60992 0
M  V30 2148 H 212.388 2.17981 -3.55373 0
M  V30 2149 H 211.048 2.21139 -2.37755 0
M  V30 2150 H 212.059 -0.206049 -5.1749 0
M  V30 2151 H 208.736 1.91757 -3.70858 0
M  V30 2152 H 210.126 -0.836329 -6.66675 0
M  V30 2153 N 212.846 1.57033 -0.133567 0
M  V30 2154 C 214.093 1.95686 0.520877 0
M  V30 2155 C 214.421 1.0177 1.6575 0
M  V30 2156 O 213.676 0.0443195 1.9565 0
M  V30 2157 C 213.975 3.40674 1.08057 0
M  V30 2158 C 213.641 4.50855 0.0637899 0
M  V30 2159 C 212.303 4.80716 -0.215757 0
M  V30 2160 C 214.655 5.17398 -0.62835 0
M  V30 2161 C 211.983 5.74433 -1.19348 0
M  V30 2162 C 214.335 6.12167 -1.5948 0
M  V30 2163 C 212.999 6.40414 -1.88218 0
M  V30 2164 H 212.269 0.716067 0.190602 0
M  V30 2165 H 214.916 1.9026 -0.217556 0
M  V30 2166 H 213.221 3.42865 1.89606 0
M  V30 2167 H 214.918 3.67902 1.59529 0
M  V30 2168 H 211.508 4.27605 0.291855 0
M  V30 2169 H 215.692 4.94472 -0.425562 0
M  V30 2170 H 210.948 5.94616 -1.42272 0
M  V30 2171 H 215.122 6.6281 -2.13671 0
M  V30 2172 H 212.749 7.12838 -2.64133 0
M  V30 2173 N 214.325 -0.140222 1.56975 0
M  V30 2174 C 215.573 -0.850005 1.83356 0
M  V30 2175 C 215.894 -1.81399 0.71551 0
M  V30 2176 O 215.164 -1.94136 -0.262294 0
M  V30 2177 H 213.744 -0.316886 0.676456 0
M  V30 2178 H 216.406 -0.132608 1.94448 0
M  V30 2179 H 215.502 -1.40814 2.78528 0
M  V30 2180 N 215.803 -1.52179 -0.40978 0
M  V30 2181 C 217.08 -1.56769 -1.16974 0
M  V30 2182 C 217.46 -0.348322 -2.08206 0
M  V30 2183 O 216.808 0.664862 -2.18613 0
M  V30 2184 C 217.018 -2.89603 -1.9476 0
M  V30 2185 C 218.366 -3.42579 -2.50849 0
M  V30 2186 O 219.39 -2.91338 -2.04941 0
M  V30 2187 O 218.249 -4.32054 -3.34652 0
M  V30 2188 H 215.343 -0.631439 -0.534054 0
M  V30 2189 H 217.889 -1.64507 -0.416613 0
M  V30 2190 H 216.661 -3.698 -1.27921 0
M  V30 2191 H 216.284 -2.85155 -2.77079 0
M  V30 2192 N 217.281 0.66697 -1.42791 0
M  V30 2193 C 218.529 1.42417 -1.43394 0
M  V30 2194 C 218.85 1.94925 -0.0542373 0
M  V30 2195 O 218.12 1.73564 0.908415 0
M  V30 2196 H 216.7 0.528515 -0.527902 0
M  V30 2197 H 219.362 0.787562 -1.78279 0
M  V30 2198 H 218.458 2.27333 -2.13837 0
M  V30 2199 N 218.759 1.29093 0.90403 0
M  V30 2200 C 220.008 1.16187 1.64874 0
M  V30 2201 C 220.321 -0.286742 1.93487 0
M  V30 2202 O 221.527 -0.537062 2.66135 0
M  V30 2203 C 219.983 2.03177 2.97064 0
M  V30 2204 C 219.591 3.52836 2.76062 0
M  V30 2205 C 221.335 1.98984 3.74974 0
M  V30 2206 C 219.242 4.31945 4.03952 0
M  V30 2207 H 218.172 0.431246 0.618501 0
M  V30 2208 H 220.823 1.53699 1.00243 0
M  V30 2209 H 219.205 1.5853 3.62883 0
M  V30 2210 H 220.379 4.05507 2.18863 0
M  V30 2211 H 218.694 3.58656 2.11553 0
M  V30 2212 H 221.291 2.55351 4.69787 0
M  V30 2213 H 221.634 0.968815 4.0487 0
M  V30 2214 H 222.167 2.41652 3.15989 0
M  V30 2215 H 218.906 5.34667 3.79225 0
M  V30 2216 H 218.426 3.84045 4.60727 0
M  V30 2217 H 220.105 4.42379 4.72133 0
M  V30 2218 N 220.237 -1.11381 1.11499 0
M  V30 2219 C 221.465 -1.86934 0.88675 0
M  V30 2220 C 221.88 -1.80195 -0.563476 0
M  V30 2221 O 221.237 -1.18367 -1.38908 0
M  V30 2222 C 221.288 -3.35722 1.34064 0
M  V30 2223 O 221.009 -3.4232 2.73401 0
M  V30 2224 C 222.51 -4.2818 1.14791 0
M  V30 2225 H 219.73 -0.591117 0.317523 0
M  V30 2226 H 222.274 -1.40865 1.48248 0
M  V30 2227 H 220.429 -3.79294 0.788355 0
M  V30 2228 H 220.843 -4.34971 2.93087 0
M  V30 2229 H 222.317 -5.30817 1.5145 0
M  V30 2230 H 222.794 -4.39113 0.0875279 0
M  V30 2231 H 223.4 -3.90402 1.68721 0
M  V30 2232 N 221.715 -0.905404 -1.28997 0
M  V30 2233 C 222.945 -0.549049 -1.99171 0
M  V30 2234 C 223.353 0.87203 -1.67906 0
M  V30 2235 O 222.696 1.58796 -0.923561 0
M  V30 2236 C 222.758 -0.668306 -3.53234 0
M  V30 2237 C 222.422 -2.0574 -4.08069 0
M  V30 2238 C 223.419 -3.0292 -4.22534 0
M  V30 2239 C 221.104 -2.36833 -4.42962 0
M  V30 2240 C 223.098 -4.29314 -4.71135 0
M  V30 2241 C 220.785 -3.63467 -4.91258 0
M  V30 2242 C 221.783 -4.59522 -5.053 0
M  V30 2243 O 221.471 -5.83907 -5.52546 0
M  V30 2244 H 221.203 -0.208784 -0.64295 0
M  V30 2245 H 223.757 -1.21836 -1.65363 0
M  V30 2246 H 221.987 0.0580547 -3.86656 0
M  V30 2247 H 223.676 -0.320273 -4.04634 0
M  V30 2248 H 224.442 -2.80216 -3.95859 0
M  V30 2249 H 220.321 -1.62824 -4.31288 0
M  V30 2250 H 223.865 -5.04293 -4.8201 0
M  V30 2251 H 219.762 -3.86 -5.17372 0
M  V30 2252 H 220.53 -5.86578 -5.70849 0
M  V30 2253 N 223.193 1.4272 -0.668489 0
M  V30 2254 C 224.604 1.84793 -0.266151 0
M  V30 2255 C 224.955 1.55959 1.19043 0
M  V30 2256 O 224.08 1.01622 1.91055 0
M  V30 2257 C 224.675 3.35436 -0.476271 0
M  V30 2258 C 223.234 3.76182 -0.128113 0
M  V30 2259 C 222.381 2.66344 -0.771777 0
M  V30 2260 H 225.332 1.32656 -0.871098 0
M  V30 2261 H 225.353 3.79515 0.273561 0
M  V30 2262 H 224.865 3.5639 -1.53647 0
M  V30 2263 H 222.966 3.60836 0.928891 0
M  V30 2264 H 223.079 4.75766 -0.564231 0
M  V30 2265 H 221.443 2.53885 -0.203652 0
M  V30 2266 H 222.226 2.90123 -1.83531 0
M  V30 2267 N 224.671 0.411399 1.52136 0
M  V30 2268 C 226.082 -0.0576826 1.86611 0
M  V30 2269 C 226.433 -1.44238 1.33003 0
M  V30 2270 O 225.558 -2.05759 0.670228 0
M  V30 2271 C 226.153 -0.111448 3.38617 0
M  V30 2272 C 224.712 -0.52487 3.72723 0
M  V30 2273 C 223.859 0.299176 2.75681 0
M  V30 2274 H 226.81 0.628368 1.4573 0
M  V30 2275 H 226.831 -0.926252 3.69054 0
M  V30 2276 H 226.343 0.896488 3.77604 0
M  V30 2277 H 224.444 -1.53936 3.39315 0
M  V30 2278 H 224.557 -0.267681 4.78352 0
M  V30 2279 H 222.921 -0.238814 2.53578 0
M  V30 2280 H 223.704 1.3055 3.17508 0
M  V30 2281 N 226.149 -1.5696 0.141893 0
M  V30 2282 C 227.112 -2.15316 -0.785587 0
M  V30 2283 C 228.112 -1.09366 -1.1788 0
M  V30 2284 O 229.302 -1.35031 -1.10056 0
M  V30 2285 C 226.434 -2.71211 -2.06537 0
M  V30 2286 H 227.627 -2.98608 -0.278041 0
M  V30 2287 H 225.18 -1.5593 -0.107519 0
M  V30 2288 H 225.915 -1.91571 -2.6167 0
M  V30 2289 H 225.7 -3.4872 -1.79268 0
M  V30 2290 H 227.19 -3.16189 -2.72789 0
M  V30 2291 N 227.627 0.131896 -1.57047 0
M  V30 2292 C 228.575 1.18146 -2.0036 0
M  V30 2293 C 229.569 1.43614 -0.898406 0
M  V30 2294 O 230.775 1.43729 -1.08361 0
M  V30 2295 H 227.15 0.398042 -0.638018 0
M  V30 2296 H 229.121 0.789564 -2.87765 0
M  V30 2297 C 227.87 2.50341 -2.41298 0
M  V30 2298 H 227.193 2.31578 -3.25902 0
M  V30 2299 H 228.633 3.22371 -2.75414 0
M  V30 2300 C 227.092 3.11984 -1.27153 0
M  V30 2301 O 227.622 3.97484 -0.580459 0
M  V30 2302 N 225.828 2.71662 -1.03189 0
M  V30 2303 H 225.375 2.02231 -1.59564 0
M  V30 2304 H 225.333 3.13238 -0.270077 0
M  V30 2305 N 229.106 1.52395 0.401703 0
M  V30 2306 C 230.069 1.75636 1.47257 0
M  V30 2307 C 231.069 0.62628 1.48103 0
M  V30 2308 O 232.259 0.894227 1.49497 0
M  V30 2309 C 229.391 1.84553 2.86624 0
M  V30 2310 H 230.584 2.71241 1.27938 0
M  V30 2311 H 228.137 1.42923 0.632662 0
M  V30 2312 H 228.872 0.908882 3.11303 0
M  V30 2313 H 228.657 2.66715 2.87412 0
M  V30 2314 H 230.147 2.04251 3.64241 0
M  V30 2315 N 230.584 -0.659388 1.43143 0
M  V30 2316 C 231.861 -1.41627 1.34912 0
M  V30 2317 C 232.241 -2.11099 -0.00607785 0
M  V30 2318 O 231.589 -2.04353 -1.02236 0
M  V30 2319 C 231.799 -2.40604 2.52805 0
M  V30 2320 C 233.147 -3.04789 2.95616 0
M  V30 2321 O 234.171 -2.50932 2.52807 0
M  V30 2322 O 233.03 -4.02421 3.69756 0
M  V30 2323 H 230.124 -0.63246 0.532844 0
M  V30 2324 H 232.67 -0.686814 1.5518 0
M  V30 2325 H 231.442 -1.88174 3.43083 0
M  V30 2326 H 231.065 -3.21009 2.34604 0
M  V30 2327 N 232.062 -1.29571 -0.897171 0
M  V30 2328 C 233.478 -1.07637 -1.17841 0
M  V30 2329 C 233.678 0.170713 -2.00776 0
M  V30 2330 O 232.734 0.867768 -2.3712 0
M  V30 2331 C 234.047 -2.3332 -1.8969 0
M  V30 2332 C 235.595 -2.38664 -2.02505 0
M  V30 2333 C 236.07 -3.64157 -2.77765 0
M  V30 2334 N 237.561 -3.64894 -2.85318 0
M  V30 2335 C 238.296 -4.58679 -3.44094 0
M  V30 2336 N 237.792 -5.62799 -4.04017 0
M  V30 2337 N 239.585 -4.46245 -3.41793 0
M  V30 2338 H 231.736 -2.09598 -0.343883 0
M  V30 2339 H 233.999 -0.923333 -0.214848 0
M  V30 2340 H 233.705 -3.24262 -1.36187 0
M  V30 2341 H 233.579 -2.41025 -2.9015 0
M  V30 2342 H 235.966 -1.48208 -2.55183 0
M  V30 2343 H 236.047 -2.34943 -1.01171 0
M  V30 2344 H 235.691 -4.54965 -2.25763 0
M  V30 2345 H 235.621 -3.65137 -3.7945 0
M  V30 2346 H 238.112 -2.89613 -2.42761 0
M  V30 2347 H 238.425 -6.3048 -4.46895 0
M  V30 2348 H 236.77 -5.66605 -4.02472 0
M  V30 2349 H 239.961 -3.64094 -2.94199 0
M  V30 2350 H 240.134 -5.19518 -3.87304 0
M  V30 2351 N 233.54 1.10788 -1.12088 0
M  V30 2352 C 234.789 1.82036 -0.868659 0
M  V30 2353 C 235.102 1.85929 0.607426 0
M  V30 2354 O 236.308 2.53346 0.97613 0
M  V30 2355 C 234.764 3.26951 -1.50435 0
M  V30 2356 C 234.372 3.31367 -3.01496 0
M  V30 2357 C 236.116 4.03053 -1.33225 0
M  V30 2358 C 234.023 4.7072 -3.58017 0
M  V30 2359 H 232.953 0.682108 -0.321318 0
M  V30 2360 H 235.604 1.24618 -1.34694 0
M  V30 2361 H 233.986 3.84343 -0.953735 0
M  V30 2362 H 235.16 2.83819 -3.6302 0
M  V30 2363 H 233.475 2.6875 -3.18061 0
M  V30 2364 H 236.072 5.05981 -1.72878 0
M  V30 2365 H 236.415 4.15387 -0.275529 0
M  V30 2366 H 236.948 3.52066 -1.85188 0
M  V30 2367 H 233.687 4.63585 -4.63432 0
M  V30 2368 H 233.207 5.1865 -3.01268 0
M  V30 2369 H 234.886 5.39685 -3.56859 0
M  V30 2370 N 235.018 0.912232 1.28515 0
M  V30 2371 C 236.264 0.545405 1.95328 0
M  V30 2372 C 236.597 -0.908313 1.71649 0
M  V30 2373 O 235.872 -1.64575 1.03659 0
M  V30 2374 C 236.155 0.853483 3.4984 0
M  V30 2375 C 236.008 2.35982 3.82926 0
M  V30 2376 C 237.327 0.348589 4.38717 0
M  V30 2377 H 234.446 0.199626 0.709449 0
M  V30 2378 H 237.088 1.1412 1.5191 0
M  V30 2379 H 235.238 0.34643 3.86952 0
M  V30 2380 H 236.91 2.93738 3.55691 0
M  V30 2381 H 235.153 2.81543 3.30024 0
M  V30 2382 H 235.824 2.52593 4.90816 0
M  V30 2383 H 238.3 0.78294 4.08668 0
M  V30 2384 H 237.176 0.593242 5.45685 0
M  V30 2385 H 237.437 -0.751049 4.35674 0
M  V30 2386 N 236.496 -1.42363 0.676048 0
M  V30 2387 C 237.429 -2.28141 -0.0516916 0
M  V30 2388 C 238.407 -1.41135 -0.807439 0
M  V30 2389 O 239.591 -1.70573 -0.802305 0
M  V30 2390 C 236.718 -3.21007 -1.08039 0
M  V30 2391 C 235.764 -4.24426 -0.420076 0
M  V30 2392 S 236.597 -5.29134 0.823246 0
M  V30 2393 C 237.753 -6.25566 -0.204344 0
M  V30 2394 H 237.986 -2.89515 0.675884 0
M  V30 2395 H 235.519 -1.47211 0.465635 0
M  V30 2396 H 237.477 -3.75048 -1.66881 0
M  V30 2397 H 236.138 -2.58766 -1.78042 0
M  V30 2398 H 235.331 -4.89596 -1.19633 0
M  V30 2399 H 234.933 -3.7388 0.0947845 0
M  V30 2400 H 237.225 -6.69098 -1.06369 0
M  V30 2401 H 238.168 -7.06895 0.412915 0
M  V30 2402 H 238.576 -5.61811 -0.55038 0
M  V30 2403 N 237.974 -0.419461 -1.51915 0
M  V30 2404 C 239.251 0.211999 -1.94448 0
M  V30 2405 C 239.631 1.61703 -1.35703 0
M  V30 2406 O 238.979 2.22102 -0.536931 0
M  V30 2407 C 239.189 0.207872 -3.4838 0
M  V30 2408 C 240.537 0.422192 -4.22496 0
M  V30 2409 O 241.561 0.286778 -3.55044 0
M  V30 2410 O 240.42 0.690009 -5.42126 0
M  V30 2411 H 237.514 0.139586 -0.815135 0
M  V30 2412 H 240.06 -0.476151 -1.62883 0
M  V30 2413 H 238.832 -0.775102 -3.83546 0
M  V30 2414 H 238.455 0.939688 -3.86336 0
M  V30 2415 N 239.452 1.56882 -0.150215 0
M  V30 2416 C 240.7 1.9584 0.499105 0
M  V30 2417 C 241.021 1.03623 1.65188 0
M  V30 2418 O 240.291 0.0984084 1.95653 0
M  V30 2419 H 238.871 0.723119 0.187373 0
M  V30 2420 H 241.533 1.9358 -0.226466 0
M  V30 2421 H 240.629 2.99638 0.873122 0
M  V30 2422 N 240.93 -0.123565 1.57115 0
M  V30 2423 C 241.84 -1.17074 2.033 0
M  V30 2424 C 242.856 -1.4561 0.952559 0
M  V30 2425 O 244.032 -1.56817 1.26374 0
M  V30 2426 C 241.097 -2.47857 2.42421 0
M  V30 2427 C 240.158 -2.26758 3.64526 0
M  V30 2428 C 239.391 -3.51305 4.01771 0
M  V30 2429 O 239.614 -4.5843 3.39409 0
M  V30 2430 O 238.548 -3.42578 4.94898 0
M  V30 2431 H 242.374 -0.808555 2.92739 0
M  V30 2432 H 239.959 -0.334027 1.45618 0
M  V30 2433 H 241.841 -3.2492 2.68338 0
M  V30 2434 H 240.516 -2.83558 1.5613 0
M  V30 2435 H 239.423 -1.47569 3.43765 0
M  V30 2436 H 240.756 -1.95963 4.51508 0
M  V30 2437 N 242.408 -1.52605 -0.393616 0
M  V30 2438 C 243.654 -1.67672 -1.14079 0
M  V30 2439 C 243.987 -0.413121 -1.89755 0
M  V30 2440 O 243.262 0.588952 -1.85369 0
M  V30 2441 C 243.545 -2.9088 -2.12276 0
M  V30 2442 C 243.398 -4.27329 -1.40394 0
M  V30 2443 C 244.717 -3.09628 -3.12759 0
M  V30 2444 H 241.836 -0.610168 -0.413356 0
M  V30 2445 H 244.478 -1.85193 -0.424696 0
M  V30 2446 H 242.628 -2.76073 -2.73342 0
M  V30 2447 H 244.3 -4.53894 -0.82327 0
M  V30 2448 H 242.543 -4.2802 -0.705801 0
M  V30 2449 H 243.214 -5.09615 -2.12123 0
M  V30 2450 H 245.69 -3.23436 -2.61779 0
M  V30 2451 H 244.566 -3.97322 -3.78717 0
M  V30 2452 H 244.827 -2.23637 -3.81365 0
M  V30 2453 N 243.887 0.651787 -1.4349 0
M  V30 2454 C 245.136 1.40754 -1.44469 0
M  V30 2455 C 245.449 1.95463 -0.0731845 0
M  V30 2456 O 246.655 2.71471 0.0395721 0
M  V30 2457 C 245.111 2.54735 -2.5424 0
M  V30 2458 C 244.719 2.06628 -3.97504 0
M  V30 2459 C 246.463 3.32092 -2.64414 0
M  V30 2460 C 244.37 3.17829 -4.98737 0
M  V30 2461 H 243.3 0.528862 -0.53742 0
M  V30 2462 H 245.951 0.703365 -1.69485 0
M  V30 2463 H 244.333 3.2763 -2.22428 0
M  V30 2464 H 245.507 1.40734 -4.38783 0
M  V30 2465 H 243.822 1.42146 -3.91387 0
M  V30 2466 H 246.419 4.14952 -3.37223 0
M  V30 2467 H 246.762 3.80217 -1.69532 0
M  V30 2468 H 247.295 2.66279 -2.95534 0
M  V30 2469 H 244.034 2.74671 -5.95177 0
M  V30 2470 H 243.554 3.82429 -4.62069 0
M  V30 2471 H 245.233 3.82937 -5.21505 0
M  V30 2472 N 245.365 1.30045 0.890287 0
M  V30 2473 C 246.593 1.21472 1.67487 0
M  V30 2474 C 247.008 -0.223241 1.87476 0
M  V30 2475 O 246.365 -1.14828 1.41847 0
M  V30 2476 C 246.416 1.93394 3.05419 0
M  V30 2477 O 246.137 3.31576 2.86337 0
M  V30 2478 C 247.638 1.91414 3.99844 0
M  V30 2479 H 244.858 0.420604 0.522813 0
M  V30 2480 H 247.402 1.7158 1.11268 0
M  V30 2481 H 245.557 1.47099 3.58386 0
M  V30 2482 H 245.971 3.67929 3.73802 0
M  V30 2483 H 247.445 2.46285 4.94012 0
M  V30 2484 H 247.922 0.891833 4.3005 0
M  V30 2485 H 248.528 2.37496 3.52811 0
M  V30 2486 N 246.843 -1.10192 1.12674 0
M  V30 2487 C 248.089 -1.82475 0.884915 0
M  V30 2488 C 248.422 -1.85093 -0.58773 0
M  V30 2489 O 247.697 -1.3134 -1.43457 0
M  V30 2490 C 247.98 -3.29018 1.46353 0
M  V30 2491 C 247.833 -3.34718 3.00473 0
M  V30 2492 C 249.152 -4.25473 1.12519 0
M  V30 2493 H 246.271 -0.662492 0.322915 0
M  V30 2494 H 248.913 -1.2913 1.39375 0
M  V30 2495 H 247.063 -3.74576 1.03077 0
M  V30 2496 H 248.735 -2.97622 3.52447 0
M  V30 2497 H 246.978 -2.74541 3.35872 0
M  V30 2498 H 247.649 -4.37918 3.36053 0
M  V30 2499 H 250.125 -3.88161 1.499 0
M  V30 2500 H 249.001 -5.26365 1.55663 0
M  V30 2501 H 249.262 -4.42084 0.0377407 0
M  V30 2502 N 248.321 -0.919034 -1.28029 0
M  V30 2503 C 249.569 -0.553838 -1.94363 0
M  V30 2504 C 249.89 0.906357 -1.72656 0
M  V30 2505 O 249.16 1.64143 -1.0693 0
M  V30 2506 H 247.74 -0.201834 -0.719216 0
M  V30 2507 H 250.402 -1.16954 -1.55909 0
M  V30 2508 H 249.498 -0.752758 -3.02886 0
M  V30 2509 N 249.799 1.42003 -0.683588 0
M  V30 2510 C 251.047 2.01015 -0.209101 0
M  V30 2511 C 251.368 1.54365 1.19149 0
M  V30 2512 O 250.638 0.769083 1.80172 0
M  V30 2513 H 249.218 0.743294 -0.074315 0
M  V30 2514 H 251.88 1.73798 -0.882066 0
M  V30 2515 H 250.976 3.11343 -0.2172 0
M  V30 2516 N 251.277 0.427512 1.51691 0
M  V30 2517 C 252.526 -0.143679 2.01188 0
M  V30 2518 C 252.839 -1.44642 1.31674 0
M  V30 2519 O 254.045 -2.09997 1.72086 0
M  V30 2520 C 252.501 -0.306602 3.58592 0
M  V30 2521 C 252.109 0.985125 4.37035 0
M  V30 2522 C 253.853 -0.832091 4.16265 0
M  V30 2523 C 251.76 0.788382 5.86122 0
M  V30 2524 H 250.69 -0.0574701 0.751807 0
M  V30 2525 H 253.341 0.555772 1.74881 0
M  V30 2526 H 251.723 -1.06882 3.81303 0
M  V30 2527 H 252.897 1.75492 4.26074 0
M  V30 2528 H 251.212 1.4384 3.90767 0
M  V30 2529 H 253.809 -0.995617 5.25349 0
M  V30 2530 H 254.152 -1.81186 3.74803 0
M  V30 2531 H 254.685 -0.128444 3.97593 0
M  V30 2532 H 251.424 1.74025 6.31978 0
M  V30 2533 H 250.944 0.0582143 5.99772 0
M  V30 2534 H 252.623 0.437722 6.45518 0
M  V30 2535 N 252.755 -1.56801 0.158532 0
M  V30 2536 C 254.001 -1.96781 -0.490405 0
M  V30 2537 C 254.334 -1.04397 -1.63753 0
M  V30 2538 O 253.609 -0.0885805 -1.94298 0
M  V30 2539 C 253.892 -3.4635 -0.985594 0
M  V30 2540 C 253.745 -4.49512 0.160824 0
M  V30 2541 C 255.064 -3.98697 -1.86355 0
M  V30 2542 H 252.183 -0.715482 -0.176788 0
M  V30 2543 H 254.825 -1.88451 0.242088 0
M  V30 2544 H 252.975 -3.53579 -1.60978 0
M  V30 2545 H 254.647 -4.54353 0.797537 0
M  V30 2546 H 252.89 -4.26013 0.818256 0
M  V30 2547 H 253.561 -5.51531 -0.227569 0
M  V30 2548 H 256.037 -3.94019 -1.33746 0
M  V30 2549 H 254.913 -5.03792 -2.17909 0
M  V30 2550 H 255.174 -3.41744 -2.8047 0
M  V30 2551 N 254.233 0.115231 -1.57178 0
M  V30 2552 C 255.48 0.822351 -1.8505 0
M  V30 2553 C 255.808 1.79701 -0.744168 0
M  V30 2554 O 255.063 1.93909 0.26414 0
M  V30 2555 C 255.362 1.60324 -3.19423 0
M  V30 2556 C 255.028 0.772536 -4.44233 0
M  V30 2557 C 253.69 0.543468 -4.78121 0
M  V30 2558 C 256.042 0.193746 -5.2084 0
M  V30 2559 C 253.37 -0.274583 -5.86057 0
M  V30 2560 C 255.722 -0.611517 -6.29637 0
M  V30 2561 C 254.386 -0.850867 -6.62055 0
M  V30 2562 H 253.656 0.30092 -0.677147 0
M  V30 2563 H 256.303 0.0845802 -1.91313 0
M  V30 2564 H 254.608 2.41203 -3.08753 0
M  V30 2565 H 256.305 2.1544 -3.38211 0
M  V30 2566 H 252.895 0.96117 -4.17683 0
M  V30 2567 H 257.079 0.357926 -4.95008 0
M  V30 2568 H 252.335 -0.469206 -6.09597 0
M  V30 2569 H 256.509 -1.06697 -6.88178 0
M  V30 2570 H 254.136 -1.48657 -7.45523 0
M  V30 2571 N 255.711 1.52812 0.385517 0
M  V30 2572 C 256.939 1.71907 1.15133 0
M  V30 2573 C 257.354 0.439004 1.83625 0
M  V30 2574 O 256.711 -0.586765 1.7281 0
M  V30 2575 C 256.762 2.87099 2.19673 0
M  V30 2576 O 256.483 4.10151 1.53973 0
M  V30 2577 C 257.984 3.17902 3.08955 0
M  V30 2578 H 255.204 0.575479 0.345057 0
M  V30 2579 H 257.748 1.99476 0.45052 0
M  V30 2580 H 255.903 2.61982 2.85384 0
M  V30 2581 H 256.317 4.74514 2.23465 0
M  V30 2582 H 257.791 4.01959 3.7833 0
M  V30 2583 H 258.268 2.3243 3.72657 0
M  V30 2584 H 258.874 3.44871 2.48885 0
M  V30 2585 N 257.189 -0.644168 1.43834 0
M  V30 2586 C 258.152 -1.73857 1.49353 0
M  V30 2587 C 259.152 -1.56315 0.377112 0
M  V30 2588 O 260.342 -1.62048 0.639226 0
M  V30 2589 C 257.474 -3.12819 1.35488 0
M  V30 2590 H 258.667 -1.70342 2.46827 0
M  V30 2591 H 256.22 -0.856652 1.30733 0
M  V30 2592 H 256.955 -3.2194 0.390569 0
M  V30 2593 H 256.74 -3.26958 2.16428 0
M  V30 2594 H 258.23 -3.92606 1.42302 0
M  V30 2595 N 258.668 -1.30515 -0.883378 0
M  V30 2596 C 259.618 -1.13641 -1.9766 0
M  V30 2597 C 260.602 -0.0511314 -1.60819 0
M  V30 2598 O 261.794 -0.274623 -1.74857 0
M  V30 2599 C 258.923 -0.831976 -3.33066 0
M  V30 2600 C 258.009 -1.95759 -3.76217 0
M  V30 2601 N 258.4 -3.20313 -3.9145 0
M  V30 2602 C 256.698 -1.85431 -4.05625 0
M  V30 2603 C 257.399 -3.93856 -4.2808 0
M  V30 2604 N 256.375 -3.21919 -4.38029 0
M  V30 2605 H 260.177 -2.08106 -2.07531 0
M  V30 2606 H 257.691 -1.21877 -1.0733 0
M  V30 2607 H 259.688 -0.692102 -4.11115 0
M  V30 2608 H 258.348 0.104588 -3.24532 0
M  V30 2609 H 259.359 -3.55583 -3.76538 0
M  V30 2610 H 256.036 -0.991531 -4.05555 0
M  V30 2611 H 257.426 -5.01125 -4.47575 0
M  V30 2612 N 260.146 1.09593 -1.13257 0
M  V30 2613 C 261.393 1.81734 -0.893257 0
M  V30 2614 C 261.721 1.8563 0.580656 0
M  V30 2615 O 260.976 1.31906 1.44566 0
M  V30 2616 C 261.275 3.27802 -1.42411 0
M  V30 2617 C 260.941 3.44041 -2.91456 0
M  V30 2618 C 259.603 3.48181 -3.3215 0
M  V30 2619 C 261.955 3.48719 -3.87356 0
M  V30 2620 C 259.283 3.54575 -4.67433 0
M  V30 2621 C 261.635 3.56648 -5.2248 0
M  V30 2622 C 260.299 3.59055 -5.62704 0
M  V30 2623 H 259.569 0.665011 -0.326866 0
M  V30 2624 H 262.216 1.2912 -1.41422 0
M  V30 2625 H 260.521 3.83042 -0.823795 0
M  V30 2626 H 262.218 3.82149 -1.21503 0
M  V30 2627 H 258.808 3.41502 -2.58987 0
M  V30 2628 H 262.992 3.44763 -3.57004 0
M  V30 2629 H 258.248 3.54725 -4.97976 0
M  V30 2630 H 262.422 3.59212 -5.96607 0
M  V30 2631 H 260.049 3.63763 -6.67518 0
M  V30 2632 N 261.624 0.925811 1.2754 0
M  V30 2633 C 262.557 0.367836 2.25216 0
M  V30 2634 C 263.535 -0.534738 1.53556 0
M  V30 2635 O 264.719 -0.475672 1.824 0
M  V30 2636 C 261.846 -0.47298 3.35381 0
M  V30 2637 C 260.892 0.365898 4.24928 0
M  V30 2638 S 261.725 1.78025 5.05042 0
M  V30 2639 C 262.881 0.947068 6.18693 0
M  V30 2640 H 263.114 1.19568 2.72196 0
M  V30 2641 H 260.647 0.727867 1.36167 0
M  V30 2642 H 262.605 -0.952242 3.99303 0
M  V30 2643 H 261.266 -1.27533 2.87044 0
M  V30 2644 H 260.459 -0.277582 5.03235 0
M  V30 2645 H 260.061 0.779261 3.65792 0
M  V30 2646 H 262.353 0.182201 6.77255 0
M  V30 2647 H 263.296 1.70309 6.87314 0
M  V30 2648 H 263.704 0.489913 5.6237 0
M  V30 2649 N 263.102 -1.41638 0.69111 0
M  V30 2650 C 264.065 -2.29178 0.0319786 0
M  V30 2651 C 265.065 -1.44153 -0.712496 0
M  V30 2652 O 266.255 -1.65354 -0.548053 0
M  V30 2653 C 263.387 -3.26952 -0.965161 0
M  V30 2654 H 264.58 -2.88959 0.802681 0
M  V30 2655 H 262.133 -1.4955 0.454356 0
M  V30 2656 H 262.868 -2.72142 -1.76378 0
M  V30 2657 H 262.653 -3.89685 -0.434522 0
M  V30 2658 H 264.143 -3.92561 -1.42428 0
M  V30 2659 N 264.58 -0.43555 -1.51462 0
M  V30 2660 C 265.828 0.131254 -2.01673 0
M  V30 2661 C 266.149 1.43368 -1.32177 0
M  V30 2662 O 265.419 1.90524 -0.455769 0
M  V30 2663 H 263.999 0.0514954 -0.745223 0
M  V30 2664 H 266.661 -0.577847 -1.86137 0
M  V30 2665 H 265.757 0.308446 -3.10572 0
M  V30 2666 N 266.058 1.56714 -0.166846 0
M  V30 2667 C 267.008 2.14338 0.777382 0
M  V30 2668 C 267.992 1.07642 1.19591 0
M  V30 2669 O 269.184 1.33775 1.15902 0
M  V30 2670 C 266.313 2.78417 2.00846 0
M  V30 2671 C 265.399 3.92264 1.61212 0
M  V30 2672 N 265.79 4.97268 0.925104 0
M  V30 2673 C 264.088 4.03342 1.90346 0
M  V30 2674 C 264.789 5.77093 0.730627 0
M  V30 2675 N 263.765 5.2854 1.27067 0
M  V30 2676 H 267.567 2.9289 0.243466 0
M  V30 2677 H 265.081 1.62364 0.0339954 0
M  V30 2678 H 267.078 3.18073 2.69509 0
M  V30 2679 H 265.738 2.01344 2.54736 0
M  V30 2680 H 266.749 5.14601 0.583646 0
M  V30 2681 H 263.426 3.37368 2.45946 0
M  V30 2682 H 264.816 6.71638 0.187668 0
M  V30 2683 N 267.536 -0.106894 1.57237 0
M  V30 2684 C 268.764 -0.826389 1.8968 0
M  V30 2685 C 269.179 -1.72856 0.759353 0
M  V30 2686 O 268.536 -1.80503 -0.269263 0
M  V30 2687 C 268.587 -1.64967 3.21665 0
M  V30 2688 O 268.308 -0.783804 4.31031 0
M  V30 2689 C 269.809 -2.47326 3.67892 0
M  V30 2690 H 267.029 -0.236927 0.627779 0
M  V30 2691 H 269.573 -0.0876593 2.04312 0
M  V30 2692 H 267.728 -2.34103 3.08666 0
M  V30 2693 H 268.142 -1.35284 5.06753 0
M  V30 2694 H 269.616 -3.00604 4.6297 0
M  V30 2695 H 270.093 -3.25247 2.95146 0
M  V30 2696 H 270.699 -1.83411 3.83719 0
M  V30 2697 N 269.014 -1.53014 -0.377408 0
M  V30 2698 C 270.425 -1.60438 -0.954798 0
M  V30 2699 C 270.776 -0.464418 -1.90624 0
M  V30 2700 O 269.901 0.41087 -2.12464 0
M  V30 2701 C 270.496 -2.90797 -1.73847 0
M  V30 2702 C 269.055 -3.00595 -2.26538 0
M  V30 2703 C 268.202 -2.55645 -1.07429 0
M  V30 2704 H 271.153 -1.57926 -0.156575 0
M  V30 2705 H 271.174 -2.77935 -2.5987 0
M  V30 2706 H 270.686 -3.73746 -1.04574 0
M  V30 2707 H 268.787 -2.22208 -2.99089 0
M  V30 2708 H 268.9 -4.05456 -2.5523 0
M  V30 2709 H 267.264 -2.10239 -1.43777 0
M  V30 2710 H 268.047 -3.41 -0.396728 0
M  V30 2711 N 270.492 0.636531 -1.44174 0
M  V30 2712 C 271.74 1.39343 -1.46383 0
M  V30 2713 C 272.061 1.94766 -0.0955715 0
M  V30 2714 O 271.331 1.75452 0.871395 0
M  V30 2715 H 269.911 0.517199 -0.538994 0
M  V30 2716 H 272.573 0.74957 -1.7991 0
M  V30 2717 H 271.669 2.22746 -2.18611 0
M  V30 2718 N 271.97 1.30982 0.876444 0
M  V30 2719 C 273.195 1.23373 1.66715 0
M  V30 2720 C 273.62 -0.19885 1.87046 0
M  V30 2721 O 272.978 -1.1427 1.40756 0
M  V30 2722 C 273.026 1.97644 3.01611 0
M  V30 2723 O 272.13 1.30935 3.91062 0
M  V30 2724 H 271.471 0.426279 0.509099 0
M  V30 2725 H 274.001 1.72944 1.09323 0
M  V30 2726 H 274.011 2.06992 3.51594 0
M  V30 2727 H 272.686 3.01829 2.86133 0
M  V30 2728 H 271.263 1.29996 3.49507 0
M  V30 2729 N 273.449 -1.08991 1.13837 0
M  V30 2730 C 274.677 -1.85011 0.926202 0
M  V30 2731 C 275.092 -1.8135 -0.525127 0
M  V30 2732 O 274.449 -1.21287 -1.36366 0
M  V30 2733 C 274.5 -3.32802 1.41155 0
M  V30 2734 O 274.221 -3.36444 2.80601 0
M  V30 2735 C 275.722 -4.25649 1.23847 0
M  V30 2736 H 272.942 -0.584249 0.32999 0
M  V30 2737 H 275.486 -1.37688 1.51202 0
M  V30 2738 H 273.641 -3.77536 0.868631 0
M  V30 2739 H 274.055 -4.28657 3.02248 0
M  V30 2740 H 275.529 -5.27485 1.62675 0
M  V30 2741 H 276.006 -4.38828 0.18065 0
M  V30 2742 H 276.612 -3.86735 1.76964 0
M  V30 2743 N 274.927 -0.932562 -1.27047 0
M  V30 2744 C 275.89 -0.440064 -2.24936 0
M  V30 2745 C 276.89 0.444071 -1.54547 0
M  V30 2746 O 278.08 0.244465 -1.72476 0
M  V30 2747 C 275.212 0.36678 -3.38921 0
M  V30 2748 H 276.405 -1.305 -2.70018 0
M  V30 2749 H 273.958 -0.713707 -1.39054 0
M  V30 2750 H 274.693 1.25033 -2.99228 0
M  V30 2751 H 274.478 -0.267204 -3.91188 0
M  V30 2752 H 275.968 0.701567 -4.11665 0
M  V30 2753 N 276.405 1.4127 -0.698611 0
M  V30 2754 C 277.651 2.01979 -0.239972 0
M  V30 2755 C 278.006 1.54353 1.14861 0
M  V30 2756 O 277.299 0.746218 1.76471 0
M  V30 2757 C 277.493 3.56592 -0.240192 0
M  V30 2758 C 277.322 4.19226 -1.62726 0
M  V30 2759 C 276.092 4.53389 -2.23084 0
M  V30 2760 C 278.29 4.45228 -2.57443 0
M  V30 2761 N 276.272 5.01327 -3.54323 0
M  V30 2762 C 277.643 4.94973 -3.73365 0
M  V30 2763 C 279.698 4.27243 -2.55671 0
M  V30 2764 C 278.401 5.28624 -4.878 0
M  V30 2765 C 280.427 4.61985 -3.69221 0
M  V30 2766 C 279.789 5.11904 -4.83873 0
M  V30 2767 H 275.888 0.770561 -0.133269 0
M  V30 2768 H 278.472 1.71767 -0.916748 0
M  V30 2769 H 276.643 3.86271 0.406082 0
M  V30 2770 H 278.375 4.04025 0.23356 0
M  V30 2771 H 275.13 4.39946 -1.75341 0
M  V30 2772 H 275.554 5.29697 -4.21604 0
M  V30 2773 H 280.196 3.87884 -1.68243 0
M  V30 2774 H 277.914 5.66905 -5.75885 0
M  V30 2775 H 281.5 4.49725 -3.69105 0
M  V30 2776 H 280.38 5.38282 -5.70282 0
M  V30 2777 N 277.883 0.443576 1.51229 0
M  V30 2778 C 279.111 -0.11929 2.06556 0
M  V30 2779 C 279.526 -1.35921 1.31038 0
M  V30 2780 O 278.883 -1.78675 0.371704 0
M  V30 2781 C 278.934 -0.435228 3.5887 0
M  V30 2782 O 278.655 0.755486 4.31537 0
M  V30 2783 C 280.156 -1.04808 4.30732 0
M  V30 2784 H 277.376 -0.0051584 0.67098 0
M  V30 2785 H 279.92 0.624453 1.94733 0
M  V30 2786 H 278.075 -1.12887 3.70588 0
M  V30 2787 H 278.489 0.483491 5.22267 0
M  V30 2788 H 279.963 -1.2191 5.3837 0
M  V30 2789 H 280.44 -2.03081 3.89429 0
M  V30 2790 H 281.046 -0.393637 4.23474 0
M  V30 2791 N 279.361 -1.56624 0.175154 0
M  V30 2792 C 280.607 -1.98061 -0.462976 0
M  V30 2793 C 280.962 -1.05949 -1.60601 0
M  V30 2794 O 280.255 -0.0999027 -1.91339 0
M  V30 2795 C 280.449 -3.43419 -0.989864 0
M  V30 2796 C 280.278 -4.49587 0.100583 0
M  V30 2797 C 279.048 -5.02281 0.551539 0
M  V30 2798 C 281.246 -5.06322 0.902369 0
M  V30 2799 N 279.228 -5.92088 1.62189 0
M  V30 2800 C 280.599 -5.92607 1.82256 0
M  V30 2801 C 282.654 -4.88811 0.947019 0
M  V30 2802 C 281.357 -6.63254 2.78364 0
M  V30 2803 C 283.383 -5.60182 1.89606 0
M  V30 2804 C 282.745 -6.46197 2.80372 0
M  V30 2805 H 278.844 -0.769833 -0.137409 0
M  V30 2806 H 281.428 -1.9273 0.276256 0
M  V30 2807 H 279.599 -3.49288 -1.6986 0
M  V30 2808 H 281.331 -3.7186 -1.59694 0
M  V30 2809 H 278.086 -4.73367 0.148537 0
M  V30 2810 H 278.51 -6.41696 2.15767 0
M  V30 2811 H 283.152 -4.22004 0.259304 0
M  V30 2812 H 280.87 -7.29271 3.48122 0
M  V30 2813 H 284.456 -5.48617 1.93676 0
M  V30 2814 H 283.336 -7.00453 3.52612 0
M  V30 2815 N 280.839 0.0985539 -1.57292 0
M  V30 2816 C 282.067 0.816318 -1.90115 0
M  V30 2817 C 282.482 1.72451 -0.768509 0
M  V30 2818 O 281.839 1.80643 0.259687 0
M  V30 2819 C 281.89 1.63259 -3.22535 0
M  V30 2820 O 281.611 0.760934 -4.31441 0
M  V30 2821 C 283.112 2.45372 -3.69199 0
M  V30 2822 H 280.332 0.233595 -0.629027 0
M  V30 2823 H 282.876 0.0768229 -2.04356 0
M  V30 2824 H 281.031 2.32463 -3.09903 0
M  V30 2825 H 281.445 1.32595 -5.07463 0
M  V30 2826 H 282.919 2.98144 -4.64558 0
M  V30 2827 H 283.396 3.23677 -2.96867 0
M  V30 2828 H 284.002 1.81373 -3.84687 0
M  V30 2829 N 282.317 1.53212 0.369288 0
M  V30 2830 C 283.594 1.59815 1.12776 0
M  V30 2831 C 283.974 0.403402 2.0721 0
M  V30 2832 O 283.322 -0.606667 2.20299 0
M  V30 2833 C 283.532 2.94664 1.87013 0
M  V30 2834 C 284.88 3.49109 2.41677 0
M  V30 2835 O 285.904 2.96669 1.97144 0
M  V30 2836 O 284.763 4.40775 3.23079 0
M  V30 2837 H 281.857 0.645376 0.517125 0
M  V30 2838 H 284.403 1.65553 0.37285 0
M  V30 2839 H 283.175 3.73061 1.18071 0
M  V30 2840 H 282.798 2.92401 2.69421 0
M  V30 2841 N 283.795 -0.628877 1.44509 0
M  V30 2842 C 285.023 -1.41554 1.50897 0
M  V30 2843 C 285.438 -1.8832 0.134564 0
M  V30 2844 O 284.795 -1.60969 -0.859965 0
M  V30 2845 C 284.846 -2.63435 2.47556 0
M  V30 2846 O 284.567 -2.18619 3.79654 0
M  V30 2847 C 286.068 -3.56537 2.63431 0
M  V30 2848 H 283.288 -0.434044 0.511709 0
M  V30 2849 H 285.832 -0.768895 1.89495 0
M  V30 2850 H 283.987 -3.24187 2.12089 0
M  V30 2851 H 284.401 -2.97652 4.31861 0
M  V30 2852 H 285.875 -4.38657 3.35088 0
M  V30 2853 H 286.352 -4.05493 1.68738 0
M  V30 2854 H 286.958 -3.01653 2.9981 0
M  V30 2855 N 285.273 -1.31445 -0.869486 0
M  V30 2856 C 286.689 -1.10113 -1.15531 0
M  V30 2857 C 286.889 0.128087 -2.01092 0
M  V30 2858 O 285.945 0.817276 -2.38908 0
M  V30 2859 C 287.258 -2.37291 -1.84698 0
M  V30 2860 C 288.806 -2.42906 -1.97397 0
M  V30 2861 C 289.281 -3.69967 -2.69979 0
M  V30 2862 N 290.772 -3.70864 -2.77514 0
M  V30 2863 C 291.507 -4.65875 -3.34287 0
M  V30 2864 N 291.003 -5.71242 -3.91988 0
M  V30 2865 N 292.796 -4.53394 -3.3225 0
M  V30 2866 H 284.947 -2.1028 -0.299347 0
M  V30 2867 H 287.21 -0.927683 -0.195214 0
M  V30 2868 H 286.916 -3.27078 -1.29278 0
M  V30 2869 H 286.79 -2.47125 -2.84972 0
M  V30 2870 H 289.177 -1.53588 -2.51982 0
M  V30 2871 H 289.258 -2.37036 -0.961643 0
M  V30 2872 H 288.902 -4.59652 -2.16062 0
M  V30 2873 H 288.832 -3.73103 -3.7162 0
M  V30 2874 H 291.323 -2.94697 -2.36563 0
M  V30 2875 H 291.636 -6.39817 -4.33421 0
M  V30 2876 H 289.981 -5.75015 -3.90362 0
M  V30 2877 H 293.172 -3.70252 -2.8641 0
M  V30 2878 H 293.345 -5.27617 -3.76197 0
M  V30 2879 N 286.751 1.08385 -1.14413 0
M  V30 2880 C 287.699 2.17406 -0.826888 0
M  V30 2881 C 288.693 1.6827 0.195312 0
M  V30 2882 O 289.899 1.79927 0.0513892 0
M  V30 2883 H 286.274 0.70934 -0.249681 0
M  V30 2884 H 288.245 2.41388 -1.75426 0
M  V30 2885 C 286.994 3.46215 -0.320979 0
M  V30 2886 H 286.317 3.84401 -1.0989 0
M  V30 2887 H 287.757 4.23777 -0.137549 0
M  V30 2888 C 286.216 3.23067 0.955472 0
M  V30 2889 O 286.746 3.4668 2.02918 0
M  V30 2890 N 284.952 2.7661 0.890798 0
M  V30 2891 H 284.499 2.57594 0.0168815 0
M  V30 2892 H 284.457 2.61501 1.74542 0
M  V30 2893 N 288.23 0.939286 1.26551 0
M  V30 2894 C 289.478 0.58469 1.93457 0
M  V30 2895 C 289.799 -0.878774 1.74076 0
M  V30 2896 O 289.069 -1.62421 1.09528 0
M  V30 2897 H 287.649 0.21325 0.715914 0
M  V30 2898 H 290.311 1.1942 1.54029 0
M  V30 2899 H 289.407 0.800849 3.0165 0
M  V30 2900 N 289.708 -1.40897 0.706093 0
M  V30 2901 C 290.655 -2.30751 0.0474474 0
M  V30 2902 C 291.625 -1.47678 -0.76029 0
M  V30 2903 O 292.81 -1.76441 -0.726177 0
M  V30 2904 C 289.95 -3.33815 -0.875309 0
M  V30 2905 C 289.063 -4.31961 -0.0580623 0
M  V30 2906 C 288.198 -5.22093 -0.979425 0
M  V30 2907 C 287.237 -6.11902 -0.155706 0
M  V30 2908 N 286.374 -6.94482 -1.03144 0
M  V30 2909 H 291.214 -2.86513 0.819413 0
M  V30 2910 H 288.751 -1.41102 0.415783 0
M  V30 2911 H 290.709 -3.92129 -1.42446 0
M  V30 2912 H 289.339 -2.79579 -1.61356 0
M  V30 2913 H 288.391 -3.75507 0.608147 0
M  V30 2914 H 289.703 -4.95415 0.580082 0
M  V30 2915 H 288.857 -5.85292 -1.59744 0
M  V30 2916 H 287.596 -4.5889 -1.65141 0
M  V30 2917 H 286.601 -5.47742 0.475309 0
M  V30 2918 H 287.826 -6.77162 0.512635 0
M  V30 2919 H 285.772 -6.33877 -1.68924 0
M  V30 2920 H 285.689 -7.54665 -0.449108 0
M  V30 2921 H 286.957 -7.6214 -1.63593 0
M  V30 2922 N 291.186 -0.45159 -1.50991 0
M  V30 2923 C 292.597 0.00818571 -1.86698 0
M  V30 2924 C 292.948 1.40661 -1.3678 0
M  V30 2925 O 292.073 2.0391 -0.724546 0
M  V30 2926 C 292.668 0.0216303 -3.38793 0
M  V30 2927 C 291.227 0.425865 -3.73983 0
M  V30 2928 C 290.374 -0.372163 -2.74791 0
M  V30 2929 H 293.325 -0.666785 -1.44013 0
M  V30 2930 H 293.346 0.828078 -3.7138 0
M  V30 2931 H 292.858 -0.996288 -3.75094 0
M  V30 2932 H 290.959 1.44886 -3.43277 0
M  V30 2933 H 291.072 0.140761 -4.78893 0
M  V30 2934 H 289.436 0.171498 -2.54122 0
M  V30 2935 H 290.219 -1.38922 -3.13935 0
M  V30 2936 N 292.664 1.56529 -0.183458 0
M  V30 2937 C 293.91 1.97537 0.459036 0
M  V30 2938 C 294.243 1.06989 1.62071 0
M  V30 2939 O 293.518 0.11948 1.94133 0
M  V30 2940 C 293.801 3.47874 0.930368 0
M  V30 2941 C 293.654 4.492 -0.232317 0
M  V30 2942 C 294.973 4.01612 1.79989 0
M  V30 2943 H 292.092 0.718204 0.165383 0
M  V30 2944 H 294.734 1.88042 -0.272038 0
M  V30 2945 H 292.884 3.56095 1.55333 0
M  V30 2946 H 294.556 4.53027 -0.86972 0
M  V30 2947 H 292.799 4.24657 -0.885928 0
M  V30 2948 H 293.47 5.51823 0.139796 0
M  V30 2949 H 295.946 3.96097 1.27461 0
M  V30 2950 H 294.822 5.07195 2.09867 0
M  V30 2951 H 295.083 3.46163 2.74998 0
M  V30 2952 N 294.142 -0.090211 1.57342 0
M  V30 2953 C 295.558 -0.444547 1.53284 0
M  V30 2954 C 295.758 -1.80238 0.900914 0
M  V30 2955 O 294.814 -2.4759 0.495513 0
M  V30 2956 C 296.127 -0.402543 2.97993 0
M  V30 2957 C 297.675 -0.48405 3.09234 0
M  V30 2958 C 298.15 -0.472144 4.5556 0
M  V30 2959 N 299.641 -0.532757 4.60126 0
M  V30 2960 C 300.376 -0.545462 5.708 0
M  V30 2961 N 299.872 -0.514082 6.9089 0
M  V30 2962 N 301.665 -0.59064 5.58988 0
M  V30 2963 H 293.816 0.799121 1.96794 0
M  V30 2964 H 296.079 0.297965 0.899956 0
M  V30 2965 H 295.785 0.528106 3.47712 0
M  V30 2966 H 295.659 -1.21969 3.56936 0
M  V30 2967 H 298.046 -1.40512 2.595 0
M  V30 2968 H 298.127 0.361328 2.53235 0
M  V30 2969 H 297.771 0.445 5.05947 0
M  V30 2970 H 297.701 -1.3348 5.09402 0
M  V30 2971 H 300.192 -0.562006 3.73698 0
M  V30 2972 H 300.505 -0.527195 7.71 0
M  V30 2973 H 298.85 -0.481054 6.93333 0
M  V30 2974 H 302.041 -0.61272 4.64073 0
M  V30 2975 H 302.214 -0.597073 6.45243 0
M  V30 2976 N 295.62 -1.53406 -0.361157 0
M  V30 2977 C 296.869 -1.69022 -1.10066 0
M  V30 2978 C 297.182 -0.450838 -1.90333 0
M  V30 2979 O 298.388 -0.487617 -2.67085 0
M  V30 2980 C 296.844 -2.98812 -2.00598 0
M  V30 2981 C 296.452 -4.30027 -1.25621 0
M  V30 2982 C 298.196 -3.23795 -2.74513 0
M  V30 2983 C 296.103 -5.50903 -2.1508 0
M  V30 2984 H 295.033 -0.629776 -0.414606 0
M  V30 2985 H 297.684 -1.79907 -0.361348 0
M  V30 2986 H 296.066 -2.8174 -2.78278 0
M  V30 2987 H 297.24 -4.57745 -0.529739 0
M  V30 2988 H 295.555 -4.11522 -0.635496 0
M  V30 2989 H 298.152 -4.11289 -3.41681 0
M  V30 2990 H 298.495 -2.40045 -3.40123 0
M  V30 2991 H 299.028 -3.41561 -2.03914 0
M  V30 2992 H 295.767 -6.37143 -1.54041 0
M  V30 2993 H 295.287 -5.27459 -2.85565 0
M  V30 2994 H 296.966 -5.85865 -2.74538 0
M  V30 2995 N 297.098 0.621204 -1.44841 0
M  V30 2996 C 298.061 1.71459 -1.521 0
M  V30 2997 C 299.061 1.55696 -0.401933 0
M  V30 2998 O 300.251 1.61011 -0.664925 0
M  V30 2999 C 297.383 3.10624 -1.40447 0
M  V30 3000 H 298.576 1.66394 -2.49506 0
M  V30 3001 H 296.129 0.835745 -1.3208 0
M  V30 3002 H 296.864 3.21277 -0.441737 0
M  V30 3003 H 296.649 3.23473 -2.21602 0
M  V30 3004 H 298.139 3.90293 -1.4853 0
M  V30 3005 N 298.576 1.31904 0.862503 0
M  V30 3006 C 299.806 1.24817 1.64634 0
M  V30 3007 C 300.214 -0.187579 1.88268 0
M  V30 3008 O 299.557 -1.13253 1.44635 0
M  V30 3009 C 299.619 1.92996 3.03303 0
M  V30 3010 C 299.283 3.42336 3.02746 0
M  V30 3011 C 300.28 4.37956 2.80162 0
M  V30 3012 C 297.965 3.84147 3.2363 0
M  V30 3013 C 299.959 5.73361 2.78453 0
M  V30 3014 C 297.646 5.19663 3.21549 0
M  V30 3015 C 298.644 6.14081 2.98988 0
M  V30 3016 O 298.332 7.47118 2.96766 0
M  V30 3017 H 298.064 0.432222 0.519769 0
M  V30 3018 H 300.618 1.7445 1.08427 0
M  V30 3019 H 298.848 1.37922 3.61268 0
M  V30 3020 H 300.537 1.79723 3.63943 0
M  V30 3021 H 301.303 4.06981 2.63802 0
M  V30 3022 H 297.182 3.11083 3.40218 0
M  V30 3023 H 300.726 6.4703 2.60763 0
M  V30 3024 H 296.623 5.5027 3.37451 0
M  V30 3025 H 297.391 7.56382 3.12775 0
M  V30 3026 N 300.054 -1.07777 1.14986 0
M  V30 3027 C 301.017 -2.13041 0.845358 0
M  V30 3028 C 302.017 -1.60071 -0.152931 0
M  V30 3029 O 303.207 -1.74033 0.0761879 0
M  V30 3030 C 300.339 -3.39896 0.261383 0
M  V30 3031 H 301.532 -2.41485 1.77834 0
M  V30 3032 H 299.085 -1.23595 0.956757 0
M  V30 3033 H 299.82 -3.17091 -0.68 0
M  V30 3034 H 299.605 -3.79642 0.980514 0
M  V30 3035 H 301.095 -4.17548 0.0657687 0
M  V30 3036 N 301.532 -0.945985 -1.26051 0
M  V30 3037 C 302.809 -0.513816 -1.88731 0
M  V30 3038 C 303.189 1.00872 -1.8544 0
M  V30 3039 O 302.537 1.8708 -1.312 0
M  V30 3040 C 302.747 -1.08062 -3.31849 0
M  V30 3041 C 304.095 -1.1522 -4.08668 0
M  V30 3042 O 305.119 -1.03155 -3.40936 0
M  V30 3043 O 303.978 -1.34044 -5.29806 0
M  V30 3044 H 301.072 -0.168193 -0.809716 0
M  V30 3045 H 303.618 -1.03886 -1.34186 0
M  V30 3046 H 302.39 -2.1241 -3.2863 0
M  V30 3047 H 302.013 -0.538307 -3.93939 0
M  V30 3048 N 303.011 1.40521 -0.713556 0
M  V30 3049 C 304.236 2.05759 -0.26035 0
M  V30 3050 C 304.661 1.53403 1.08854 0
M  V30 3051 O 304.019 0.668535 1.68524 0
M  V30 3052 C 304.067 3.59745 -0.248122 0
M  V30 3053 O 303.171 4.05123 0.77131 0
M  V30 3054 H 302.512 0.652564 -0.122703 0
M  V30 3055 H 305.042 1.79958 -0.973467 0
M  V30 3056 H 305.052 4.07911 -0.0851129 0
M  V30 3057 H 303.727 3.97218 -1.2325 0
M  V30 3058 H 302.304 3.68422 0.57619 0
M  V30 3059 N 304.489 0.459591 1.5075 0
M  V30 3060 C 305.419 -0.330644 2.31147 0
M  V30 3061 C 306.4 -1.00087 1.37538 0
M  V30 3062 O 307.585 -1.00025 1.66459 0
M  V30 3063 C 304.715 -1.41958 3.16962 0
M  V30 3064 C 303.669 -0.871608 4.19031 0
M  V30 3065 C 302.995 -2.05797 4.9351 0
M  V30 3066 C 304.295 0.109251 5.22186 0
M  V30 3067 H 305.989 0.340336 2.97459 0
M  V30 3068 H 303.535 0.165119 1.4305 0
M  V30 3069 H 305.488 -1.9798 3.71997 0
M  V30 3070 H 304.212 -2.11917 2.48513 0
M  V30 3071 H 302.871 -0.333442 3.6508 0
M  V30 3072 H 302.519 -2.74427 4.21544 0
M  V30 3073 H 302.219 -1.6976 5.62544 0
M  V30 3074 H 303.743 -2.62331 5.51375 0
M  V30 3075 H 305.157 -0.361405 5.7216 0
M  V30 3076 H 303.554 0.383316 5.98875 0
M  V30 3077 H 304.624 1.03887 4.73641 0
M  V30 3078 N 305.967 -1.56429 0.191757 0
M  V30 3079 C 307.192 -2.02309 -0.456706 0
M  V30 3080 C 307.617 -1.07103 -1.5463 0
M  V30 3081 O 306.975 -0.0539677 -1.8122 0
M  V30 3082 C 307.023 -3.46654 -0.993159 0
M  V30 3083 O 306.127 -3.54559 -2.10622 0
M  V30 3084 H 305.468 -0.655303 -0.107114 0
M  V30 3085 H 307.998 -2.02364 0.301653 0
M  V30 3086 H 308.008 -3.86377 -1.31061 0
M  V30 3087 H 306.683 -4.1544 -0.195504 0
M  V30 3088 H 305.26 -3.26708 -1.79767 0
M  V30 3089 N 307.445 0.0818655 -1.57387 0
M  V30 3090 C 308.408 1.08265 -2.02018 0
M  V30 3091 C 309.408 1.32183 -0.915664 0
M  V30 3092 O 310.598 1.28073 -1.18081 0
M  V30 3093 C 307.73 2.42871 -2.39221 0
M  V30 3094 H 308.923 0.698204 -2.91659 0
M  V30 3095 H 306.476 0.327303 -1.52835 0
M  V30 3096 H 307.211 2.86167 -1.52575 0
M  V30 3097 H 306.996 2.26855 -3.19811 0
M  V30 3098 H 308.486 3.14826 -2.74362 0
M  V30 3099 N 308.923 1.53595 0.353017 0
M  V30 3100 C 310.334 1.61937 0.929153 0
M  V30 3101 C 310.685 0.494686 1.89861 0
M  V30 3102 O 309.81 -0.377017 2.1309 0
M  V30 3103 C 310.405 2.93526 1.69199 0
M  V30 3104 C 308.964 3.04161 2.21727 0
M  V30 3105 C 308.111 2.57322 1.03348 0
M  V30 3106 H 311.062 1.58155 0.131431 0
M  V30 3107 H 311.083 2.82034 2.55416 0
M  V30 3108 H 310.595 3.75362 0.986144 0
M  V30 3109 H 308.696 2.26938 2.95516 0
M  V30 3110 H 308.809 4.09465 2.48748 0
M  V30 3111 H 307.173 2.12499 1.40414 0
M  V30 3112 H 307.956 3.41588 0.342428 0
M  V30 3113 N 310.401 -0.613514 1.45168 0
M  V30 3114 C 311.649 -1.36997 1.48581 0
M  V30 3115 C 311.97 -1.94589 0.126545 0
M  V30 3116 O 311.24 -1.76816 -0.843372 0
M  V30 3117 H 309.82 -0.508558 0.547154 0
M  V30 3118 H 312.482 -0.720853 1.81079 0
M  V30 3119 H 311.578 -2.1924 2.22127 0
M  V30 3120 N 311.879 -1.3236 -0.855495 0
M  V30 3121 C 313.109 -1.25688 -1.6397 0
M  V30 3122 C 313.517 0.177592 -1.88365 0
M  V30 3123 O 312.86 1.12485 -1.45234 0
M  V30 3124 C 312.922 -1.94602 -3.02275 0
M  V30 3125 C 312.586 -3.43937 -3.00926 0
M  V30 3126 C 313.583 -4.39435 -2.77835 0
M  V30 3127 C 311.268 -3.85858 -3.21588 0
M  V30 3128 C 313.262 -5.74829 -2.75409 0
M  V30 3129 C 310.949 -5.21361 -3.18789 0
M  V30 3130 C 311.947 -6.15658 -2.95727 0
M  V30 3131 O 311.635 -7.48681 -2.928 0
M  V30 3132 H 311.367 -0.434972 -0.51747 0
M  V30 3133 H 313.921 -1.75023 -1.075 0
M  V30 3134 H 312.151 -1.39836 -3.60531 0
M  V30 3135 H 313.84 -1.81651 -3.62985 0
M  V30 3136 H 314.606 -4.08374 -2.6164 0
M  V30 3137 H 310.485 -3.12883 -3.38564 0
M  V30 3138 H 314.029 -6.48404 -2.57328 0
M  V30 3139 H 309.926 -5.52052 -3.34528 0
M  V30 3140 H 310.694 -7.5803 -3.0876 0
M  V30 3141 N 313.357 1.07166 -1.15556 0
M  V30 3142 C 314.289 2.14341 -0.811815 0
M  V30 3143 C 315.302 1.61835 0.177015 0
M  V30 3144 O 316.491 1.78439 -0.0464996 0
M  V30 3145 C 313.591 3.38387 -0.186481 0
M  V30 3146 C 312.764 4.20238 -1.21321 0
M  V30 3147 C 311.823 5.2266 -0.609302 0
M  V30 3148 O 310.849 5.54719 -1.27576 0
M  V30 3149 N 312.051 5.77306 0.608099 0
M  V30 3150 H 314.816 2.44431 -1.73417 0
M  V30 3151 H 312.377 1.23089 -1.0517 0
M  V30 3152 H 314.369 4.04044 0.230339 0
M  V30 3153 H 312.939 3.05994 0.639249 0
M  V30 3154 H 312.159 3.50369 -1.80652 0
M  V30 3155 H 313.447 4.71736 -1.90638 0
M  V30 3156 H 312.845 5.53513 1.1679 0
M  V30 3157 H 311.402 6.44583 0.96725 0
M  V30 3158 N 314.835 0.952656 1.25548 0
M  V30 3159 C 315.765 0.489287 2.28316 0
M  V30 3160 C 316.746 -0.463359 1.63667 0
M  V30 3161 O 317.931 -0.36274 1.90782 0
M  V30 3162 C 315.061 -0.235603 3.465 0
M  V30 3163 C 314.015 0.631593 4.23314 0
M  V30 3164 C 313.341 -0.223923 5.34231 0
M  V30 3165 C 314.641 1.90871 4.86174 0
M  V30 3166 H 316.335 1.34822 2.67326 0
M  V30 3167 H 313.881 0.649728 1.28509 0
M  V30 3168 H 315.834 -0.570882 4.17515 0
M  V30 3169 H 314.558 -1.12877 3.06474 0
M  V30 3170 H 313.217 0.949929 3.54079 0
M  V30 3171 H 312.865 -1.11678 4.90446 0
M  V30 3172 H 312.565 0.35299 5.86539 0
M  V30 3173 H 314.089 -0.554214 6.0808 0
M  V30 3174 H 315.503 1.63997 5.49343 0
M  V30 3175 H 313.9 2.43112 5.4865 0
M  V30 3176 H 314.97 2.61304 4.08471 0
M  V30 3177 N 316.313 -1.40141 0.720998 0
M  V30 3178 C 317.245 -2.29177 0.0324669 0
M  V30 3179 C 318.258 -1.46105 -0.718126 0
M  V30 3180 O 319.447 -1.69335 -0.564608 0
M  V30 3181 C 316.547 -3.24473 -0.978292 0
M  V30 3182 C 315.72 -4.36423 -0.292115 0
M  V30 3183 C 314.779 -5.12122 -1.20901 0
M  V30 3184 O 313.805 -5.64981 -0.691766 0
M  V30 3185 N 315.007 -5.21992 -2.53978 0
M  V30 3186 H 317.772 -2.88909 0.796984 0
M  V30 3187 H 315.333 -1.51569 0.569068 0
M  V30 3188 H 317.325 -3.71987 -1.59398 0
M  V30 3189 H 315.895 -2.65871 -1.64413 0
M  V30 3190 H 315.115 -3.90967 0.503847 0
M  V30 3191 H 316.403 -5.08467 0.183971 0
M  V30 3192 H 315.801 -4.8054 -2.98493 0
M  V30 3193 H 314.358 -5.72995 -3.10677 0
M  V30 3194 N 317.792 -0.46758 -1.50504 0
M  V30 3195 C 319.04 0.0884469 -2.01906 0
M  V30 3196 C 319.361 1.40532 -1.35188 0
M  V30 3197 O 318.631 1.89515 -0.496079 0
M  V30 3198 H 317.211 0.0356765 -0.746148 0
M  V30 3199 H 319.873 -0.6172 -1.84869 0
M  V30 3200 H 318.969 0.2425 -3.11156 0
M  V30 3201 N 319.27 1.56325 -0.20005 0
M  V30 3202 C 320.218 2.20666 0.735482 0
M  V30 3203 C 321.212 1.17934 1.21605 0
M  V30 3204 O 322.418 1.36068 1.17837 0
M  V30 3205 H 318.793 0.70725 0.255542 0
M  V30 3206 H 320.764 2.9792 0.169166 0
M  V30 3207 C 319.513 2.88391 1.94232 0
M  V30 3208 H 318.836 3.67185 1.58161 0
M  V30 3209 H 320.276 3.3684 2.57517 0
M  V30 3210 C 318.735 1.89692 2.78421 0
M  V30 3211 O 319.265 1.40032 3.76502 0
M  V30 3212 N 317.471 1.57813 2.44015 0
M  V30 3213 H 317.018 1.9839 1.64314 0
M  V30 3214 H 316.976 0.920325 3.00628 0
M  V30 3215 N 320.748 -0.0735177 1.57428 0
M  V30 3216 C 322.159 -0.625551 1.75908 0
M  V30 3217 C 322.51 -1.78 0.825261 0
M  V30 3218 O 321.635 -2.16398 0.00893964 0
M  V30 3219 C 322.23 -1.14155 3.18989 0
M  V30 3220 C 320.789 -1.63946 3.38819 0
M  V30 3221 C 319.936 -0.558151 2.71625 0
M  V30 3222 H 322.887 0.152647 1.57964 0
M  V30 3223 H 322.908 -2.0104 3.23053 0
M  V30 3224 H 322.42 -0.301116 3.8693 0
M  V30 3225 H 320.521 -2.50321 2.7599 0
M  V30 3226 H 320.634 -1.71759 4.47253 0
M  V30 3227 H 318.998 -1.00278 2.34129 0
M  V30 3228 H 319.781 0.272071 3.4222 0
M  V30 3229 N 322.226 -1.5378 -0.344866 0
M  V30 3230 C 323.642 -1.44015 -0.687888 0
M  V30 3231 C 323.842 -0.595834 -1.92489 0
M  V30 3232 O 322.898 -0.0863064 -2.52352 0
M  V30 3233 C 324.211 -2.87481 -0.881758 0
M  V30 3234 C 325.759 -2.97247 -0.980459 0
M  V30 3235 C 326.234 -4.41819 -1.20665 0
M  V30 3236 N 327.725 -4.45339 -1.27389 0
M  V30 3237 C 328.46 -5.54333 -1.46639 0
M  V30 3238 N 327.956 -6.73335 -1.63071 0
M  V30 3239 N 329.749 -5.41944 -1.49176 0
M  V30 3240 H 321.9 -2.07169 0.468475 0
M  V30 3241 H 324.163 -0.93643 0.147655 0
M  V30 3242 H 323.869 -3.51672 -0.0443444 0
M  V30 3243 H 323.743 -3.32352 -1.78388 0
M  V30 3244 H 326.13 -2.33197 -1.8084 0
M  V30 3245 H 326.211 -2.5574 -0.0552713 0
M  V30 3246 H 325.855 -5.06449 -0.383652 0
M  V30 3247 H 325.785 -4.80917 -2.14539 0
M  V30 3248 H 328.276 -3.59585 -1.1622 0
M  V30 3249 H 328.589 -7.52165 -1.77391 0
M  V30 3250 H 326.934 -6.76282 -1.60209 0
M  V30 3251 H 330.125 -4.47932 -1.3592 0
M  V30 3252 H 330.298 -6.26946 -1.63837 0
M  V30 3253 N 323.704 0.605807 -1.45491 0
M  V30 3254 C 324.934 1.38934 -1.52908 0
M  V30 3255 C 325.342 1.88513 -0.161086 0
M  V30 3256 O 324.685 1.62962 0.847891 0
M  V30 3257 C 324.747 2.62737 -2.45376 0
M  V30 3258 C 324.411 2.34785 -3.92078 0
M  V30 3259 C 325.408 1.95038 -4.8193 0
M  V30 3260 C 323.093 2.47642 -4.37011 0
M  V30 3261 C 325.087 1.68511 -6.14722 0
M  V30 3262 C 322.774 2.20728 -5.69844 0
M  V30 3263 C 323.772 1.81225 -6.58519 0
M  V30 3264 O 323.46 1.54627 -7.88889 0
M  V30 3265 H 323.192 0.431629 -0.520262 0
M  V30 3266 H 325.746 0.74573 -1.91384 0
M  V30 3267 H 323.976 3.29824 -2.01874 0
M  V30 3268 H 325.665 3.24783 -2.43456 0
M  V30 3269 H 326.431 1.84639 -4.48479 0
M  V30 3270 H 322.31 2.77356 -3.68232 0
M  V30 3271 H 325.854 1.37602 -6.83894 0
M  V30 3272 H 321.751 2.30744 -6.02849 0
M  V30 3273 H 322.519 1.68665 -8.00933 0
M  V30 3274 N 325.182 1.32811 0.848464 0
M  V30 3275 C 326.593 1.21315 1.41914 0
M  V30 3276 C 326.944 -0.171847 1.95446 0
M  V30 3277 O 326.069 -1.07093 1.88043 0
M  V30 3278 C 326.664 2.19631 2.57968 0
M  V30 3279 C 325.223 2.12003 3.11017 0
M  V30 3280 C 324.37 2.07651 1.83783 0
M  V30 3281 H 327.321 1.44549 0.655071 0
M  V30 3282 H 327.342 1.79845 3.35315 0
M  V30 3283 H 326.854 3.20423 2.18976 0
M  V30 3284 H 324.955 1.14481 3.54577 0
M  V30 3285 H 325.068 3.02111 3.71841 0
M  V30 3286 H 323.432 1.52983 2.03638 0
M  V30 3287 H 324.215 3.10235 1.47 0
M  V30 3288 N 326.66 -1.06551 1.16123 0
M  V30 3289 C 327.61 -2.12209 0.833736 0
M  V30 3290 C 328.594 -1.59825 -0.185656 0
M  V30 3291 O 329.786 -1.76994 0.0147906 0
M  V30 3292 C 326.915 -3.41674 0.333697 0
M  V30 3293 C 326.001 -4.00892 1.38372 0
M  V30 3294 N 326.392 -4.34256 2.59337 0
M  V30 3295 C 324.69 -4.28463 1.23836 0
M  V30 3296 C 325.391 -4.81291 3.26701 0
M  V30 3297 N 324.367 -4.80565 2.54083 0
M  V30 3298 H 328.169 -2.35849 1.75364 0
M  V30 3299 H 325.683 -1.24068 1.04789 0
M  V30 3300 H 327.68 -4.16822 0.0806918 0
M  V30 3301 H 326.34 -3.19475 -0.58017 0
M  V30 3302 H 327.351 -4.24687 2.96415 0
M  V30 3303 H 324.028 -4.15721 0.38504 0
M  V30 3304 H 325.418 -5.16332 4.29943 0
M  V30 3305 N 328.138 -0.959301 -1.25041 0
M  V30 3306 C 329.068 -0.501388 -2.28053 0
M  V30 3307 C 330.049 0.454673 -1.63911 0
M  V30 3308 O 331.234 0.352618 -1.90972 0
M  V30 3309 C 328.364 0.217224 -3.4662 0
M  V30 3310 C 327.318 -0.654034 -4.22973 0
M  V30 3311 C 326.644 0.195589 -5.34342 0
M  V30 3312 C 327.944 -1.93447 -4.85155 0
M  V30 3313 H 329.638 -1.36238 -2.66608 0
M  V30 3314 H 327.184 -0.656534 -1.28163 0
M  V30 3315 H 329.137 0.548732 -4.17812 0
M  V30 3316 H 327.861 1.1125 -3.07068 0
M  V30 3317 H 326.52 -0.968693 -3.5357 0
M  V30 3318 H 326.168 1.09076 -4.91031 0
M  V30 3319 H 325.868 -0.384091 -5.86343 0
M  V30 3320 H 327.392 0.521958 -6.08365 0
M  V30 3321 H 328.806 -1.66908 -5.48466 0
M  V30 3322 H 327.203 -2.46018 -5.47353 0
M  V30 3323 H 328.273 -2.63466 -4.07079 0
M  V30 3324 N 329.616 1.39756 -0.72842 0
M  V30 3325 C 330.865 1.99879 -0.270407 0
M  V30 3326 C 331.178 1.58449 1.14688 0
M  V30 3327 O 332.384 2.11362 1.70407 0
M  V30 3328 C 330.84 3.57292 -0.43252 0
M  V30 3329 C 330.448 4.07688 -1.85727 0
M  V30 3330 C 332.192 4.24485 -0.0359507 0
M  V30 3331 C 330.099 5.5765 -1.96928 0
M  V30 3332 H 329.029 0.747689 -0.0973472 0
M  V30 3333 H 331.68 1.59837 -0.901355 0
M  V30 3334 H 330.062 3.95097 0.267219 0
M  V30 3335 H 331.236 3.81231 -2.58843 0
M  V30 3336 H 329.551 3.53135 -2.20646 0
M  V30 3337 H 332.148 5.34609 -0.0987484 0
M  V30 3338 H 332.491 4.03915 1.00787 0
M  V30 3339 H 333.024 3.9183 -0.686604 0
M  V30 3340 H 329.763 5.8309 -2.99476 0
M  V30 3341 H 329.283 5.8593 -1.28241 0
M  V30 3342 H 330.962 6.22957 -1.74737 0
M  V30 3343 N 331.094 0.475555 1.50254 0
M  V30 3344 C 332.004 -0.321501 2.32387 0
M  V30 3345 C 333.02 -0.991755 1.42969 0
M  V30 3346 O 334.196 -0.978747 1.76018 0
M  V30 3347 C 331.261 -1.38667 3.17762 0
M  V30 3348 C 330.322 -0.732538 4.23004 0
M  V30 3349 C 329.555 -1.74695 5.04299 0
M  V30 3350 O 329.778 -2.97399 4.86734 0
M  V30 3351 O 328.712 -1.31631 5.8733 0
M  V30 3352 H 332.538 0.350071 3.01676 0
M  V30 3353 H 330.123 0.237321 1.47503 0
M  V30 3354 H 332.005 -2.00354 3.70724 0
M  V30 3355 H 330.68 -2.04163 2.51196 0
M  V30 3356 H 329.587 -0.0765902 3.74022 0
M  V30 3357 H 330.92 -0.120452 4.92053 0
M  V30 3358 N 332.573 -1.56217 0.208337 0
M  V30 3359 C 333.85 -1.89739 -0.475234 0
M  V30 3360 C 334.23 -1.1238 -1.78701 0
M  V30 3361 O 333.578 -0.228979 -2.2735 0
M  V30 3362 C 333.788 -3.42289 -0.681101 0
M  V30 3363 C 335.136 -4.12789 -0.994507 0
M  V30 3364 O 336.16 -3.47814 -0.768357 0
M  V30 3365 O 335.019 -5.27649 -1.42299 0
M  V30 3366 H 332.113 -0.788478 -0.249461 0
M  V30 3367 H 334.659 -1.67855 0.249538 0
M  V30 3368 H 333.431 -3.90534 0.244722 0
M  V30 3369 H 333.054 -3.69909 -1.45785 0
M  V30 3370 N 334.051 0.0651679 -1.57465 0
M  V30 3371 C 335.281 0.774683 -1.91526 0
M  V30 3372 C 335.689 1.71305 -0.803196 0
M  V30 3373 O 335.032 1.82231 0.231881 0
M  V30 3374 C 335.094 1.61645 -3.21109 0
M  V30 3375 C 334.758 0.846753 -4.49087 0
M  V30 3376 C 335.755 0.163024 -5.19644 0
M  V30 3377 C 333.44 0.811966 -4.95694 0
M  V30 3378 C 335.434 -0.54519 -6.35064 0
M  V30 3379 C 333.121 0.0999836 -6.11018 0
M  V30 3380 C 334.119 -0.577388 -6.80555 0
M  V30 3381 O 333.807 -1.27789 -7.93678 0
M  V30 3382 H 333.539 0.225031 -0.637446 0
M  V30 3383 H 336.093 0.0377134 -2.05365 0
M  V30 3384 H 334.323 2.39638 -3.03497 0
M  V30 3385 H 336.012 2.20525 -3.40769 0
M  V30 3386 H 336.778 0.181163 -4.84662 0
M  V30 3387 H 332.657 1.32867 -4.41438 0
M  V30 3388 H 336.201 -1.07446 -6.89276 0
M  V30 3389 H 332.098 0.0797945 -6.45451 0
M  V30 3390 H 332.866 -1.18784 -8.09835 0
M  V30 3391 N 335.529 1.53961 0.336706 0
M  V30 3392 C 336.945 1.44378 0.680241 0
M  V30 3393 C 337.145 0.606034 1.9217 0
M  V30 3394 O 336.201 0.099688 2.52303 0
M  V30 3395 C 337.514 2.87945 0.8665 0
M  V30 3396 C 339.062 2.97763 0.964682 0
M  V30 3397 C 339.537 4.42453 1.18321 0
M  V30 3398 N 341.028 4.46008 1.25025 0
M  V30 3399 C 341.763 5.55102 1.43697 0
M  V30 3400 N 341.259 6.7419 1.59498 0
M  V30 3401 N 343.052 5.42727 1.463 0
M  V30 3402 H 335.203 2.06918 -0.479455 0
M  V30 3403 H 337.466 0.935634 -0.152619 0
M  V30 3404 H 337.172 3.51691 0.0256937 0
M  V30 3405 H 337.046 3.33293 1.76623 0
M  V30 3406 H 339.433 2.34153 1.796 0
M  V30 3407 H 339.514 2.55766 0.041708 0
M  V30 3408 H 339.158 5.06645 0.356788 0
M  V30 3409 H 339.088 4.82048 2.11985 0
M  V30 3410 H 341.579 3.60196 1.14312 0
M  V30 3411 H 341.892 7.53095 1.734 0
M  V30 3412 H 340.237 6.77123 1.56621 0
M  V30 3413 H 343.428 4.48647 1.33543 0
M  V30 3414 H 343.601 6.27806 1.6051 0
M  V30 3415 N 337.007 -0.598083 1.45811 0
M  V30 3416 C 338.423 -0.919847 1.30426 0
M  V30 3417 C 338.623 -1.99759 0.264303 0
M  V30 3418 O 337.679 -2.50221 -0.338472 0
M  V30 3419 C 338.992 -1.35176 2.68603 0
M  V30 3420 C 340.54 -1.46546 2.76574 0
M  V30 3421 C 341.015 -1.9311 4.15298 0
M  V30 3422 N 342.506 -2.00328 4.1764 0
M  V30 3423 C 343.241 -2.37599 5.21856 0
M  V30 3424 N 342.737 -2.73771 6.36413 0
M  V30 3425 N 344.53 -2.38021 5.09218 0
M  V30 3426 H 336.681 0.114111 2.12093 0
M  V30 3427 H 338.944 -0.0116121 0.947929 0
M  V30 3428 H 338.65 -0.633969 3.45939 0
M  V30 3429 H 338.524 -2.3164 2.97696 0
M  V30 3430 H 340.911 -2.17415 1.99537 0
M  V30 3431 H 340.992 -0.483727 2.51185 0
M  V30 3432 H 340.636 -1.22824 4.92825 0
M  V30 3433 H 340.566 -2.92213 4.38086 0
M  V30 3434 H 343.057 -1.74925 3.34977 0
M  V30 3435 H 343.37 -3.0112 7.11721 0
M  V30 3436 H 341.715 -2.71445 6.39799 0
M  V30 3437 H 344.906 -2.09174 4.18765 0
M  V30 3438 H 345.079 -2.66741 5.90554 0
M  V30 3439 N 338.485 -1.33259 -0.841409 0
M  V30 3440 C 339.71 -1.2775 -1.63385 0
M  V30 3441 C 340.135 0.149188 -1.87507 0
M  V30 3442 O 339.493 1.10498 -1.43736 0
M  V30 3443 C 339.541 -2.05571 -2.96265 0
M  V30 3444 O 338.645 -1.41257 -3.87453 0
M  V30 3445 H 337.986 -0.439627 -0.497618 0
M  V30 3446 H 340.516 -1.75782 -1.04699 0
M  V30 3447 H 340.526 -2.16241 -3.45982 0
M  V30 3448 H 339.201 -3.09309 -2.7803 0
M  V30 3449 H 337.778 -1.39217 -3.45938 0
M  V30 3450 N 339.963 1.05934 -1.16686 0
M  V30 3451 C 341.21 1.788 -0.950622 0
M  V30 3452 C 341.538 1.87384 0.521305 0
M  V30 3453 O 340.793 1.36438 1.40297 0
M  V30 3454 C 341.092 3.23105 -1.52767 0
M  V30 3455 C 340.758 3.34594 -3.02254 0
M  V30 3456 C 339.42 3.37437 -3.43059 0
M  V30 3457 C 341.772 3.36219 -3.98254 0
M  V30 3458 C 339.1 3.39525 -4.78477 0
M  V30 3459 C 341.452 3.39845 -5.33562 0
M  V30 3460 C 340.116 3.40971 -5.73842 0
M  V30 3461 H 339.386 0.654275 -0.347857 0
M  V30 3462 H 342.033 1.24555 -1.45459 0
M  V30 3463 H 340.338 3.80227 -0.94524 0
M  V30 3464 H 342.035 3.7809 -1.336 0
M  V30 3465 H 338.625 3.3309 -2.6972 0
M  V30 3466 H 342.809 3.33231 -3.67792 0
M  V30 3467 H 338.065 3.38703 -5.09009 0
M  V30 3468 H 342.239 3.4005 -6.07733 0
M  V30 3469 H 339.866 3.42342 -6.78753 0
M  V30 3470 N 341.441 0.965919 1.2453 0
M  V30 3471 C 342.404 0.499547 2.2369 0
M  V30 3472 C 343.404 -0.40294 1.5567 0
M  V30 3473 O 344.594 -0.19865 1.73064 0
M  V30 3474 C 341.726 -0.276792 3.39774 0
M  V30 3475 H 342.919 1.37613 2.66463 0
M  V30 3476 H 340.472 0.750324 1.37112 0
M  V30 3477 H 341.207 -1.17055 3.02438 0
M  V30 3478 H 340.992 0.370826 3.90343 0
M  V30 3479 H 342.482 -0.592175 4.1338 0
M  V30 3480 N 342.919 -1.39368 0.735821 0
M  V30 3481 C 344.147 -2.04795 0.294393 0
M  V30 3482 C 344.562 -1.55478 -1.07107 0
M  V30 3483 O 343.919 -0.720038 -1.67695 0
M  V30 3484 C 343.97 -3.6035 0.288071 0
M  V30 3485 O 343.691 -4.07852 1.59963 0
M  V30 3486 C 345.192 -4.42976 -0.169422 0
M  V30 3487 H 342.412 -0.658571 0.128551 0
M  V30 3488 H 344.956 -1.78399 0.999701 0
M  V30 3489 H 343.111 -3.85645 -0.368355 0
M  V30 3490 H 343.525 -5.02181 1.51375 0
M  V30 3491 H 344.999 -5.51864 -0.122687 0
M  V30 3492 H 345.476 -4.22068 -1.21472 0
M  V30 3493 H 346.082 -4.22832 0.457469 0
M  V30 3494 N 344.397 -0.483516 -1.5 0
M  V30 3495 C 345.643 0.0672592 -2.02688 0
M  V30 3496 C 345.976 1.38247 -1.36387 0
M  V30 3497 O 345.251 1.88131 -0.493675 0
M  V30 3498 C 345.534 0.238109 -3.59312 0
M  V30 3499 C 345.387 -1.099 -4.36168 0
M  V30 3500 C 346.706 0.986916 -4.28892 0
M  V30 3501 H 343.825 0.0229696 -0.736642 0
M  V30 3502 H 346.467 -0.631527 -1.79197 0
M  V30 3503 H 344.617 0.8333 -3.79458 0
M  V30 3504 H 346.289 -1.73172 -4.27562 0
M  V30 3505 H 344.532 -1.69261 -3.99416 0
M  V30 3506 H 345.203 -0.932954 -5.44059 0
M  V30 3507 H 347.679 0.482302 -4.13295 0
M  V30 3508 H 346.555 1.07527 -5.38265 0
M  V30 3509 H 346.816 2.0265 -3.92919 0
M  V30 3510 N 345.875 1.56104 -0.216619 0
M  V30 3511 C 347.291 1.58995 0.13886 0
M  V30 3512 C 347.491 1.23333 1.59346 0
M  V30 3513 O 346.547 0.966234 2.33281 0
M  V30 3514 C 347.86 3.00143 -0.182968 0
M  V30 3515 C 349.408 3.12751 -0.124807 0
M  V30 3516 C 349.883 4.56068 -0.420241 0
M  V30 3517 N 351.374 4.61723 -0.369634 0
M  V30 3518 C 352.109 5.70542 -0.571789 0
M  V30 3519 N 351.605 6.87744 -0.835453 0
M  V30 3520 N 353.398 5.59831 -0.504563 0
M  V30 3521 H 345.549 1.77562 -1.16557 0
M  V30 3522 H 347.812 0.825091 -0.466828 0
M  V30 3523 H 347.518 3.30871 -1.19237 0
M  V30 3524 H 347.392 3.73813 0.504367 0
M  V30 3525 H 349.779 2.81822 0.875223 0
M  V30 3526 H 349.86 2.41421 -0.845544 0
M  V30 3527 H 349.504 4.87713 -1.41769 0
M  V30 3528 H 349.434 5.25617 0.321631 0
M  V30 3529 H 351.925 3.77502 -0.173338 0
M  V30 3530 H 352.238 7.66587 -0.977938 0
M  V30 3531 H 350.583 6.895 -0.872592 0
M  V30 3532 H 353.774 4.67145 -0.298842 0
M  V30 3533 H 353.947 6.44573 -0.665519 0
M  V30 3534 N 347.353 -0.0568162 1.57498 0
M  V30 3535 C 348.316 -1.05038 2.03715 0
M  V30 3536 C 349.316 -1.30709 0.936577 0
M  V30 3537 O 350.506 -1.26178 1.20103 0
M  V30 3538 C 347.638 -2.39034 2.43055 0
M  V30 3539 H 348.831 -0.651715 2.92733 0
M  V30 3540 H 346.384 -0.302947 1.53336 0
M  V30 3541 H 347.119 -2.83703 1.57108 0
M  V30 3542 H 346.904 -2.21739 3.2338 0
M  V30 3543 H 348.394 -3.10421 2.79336 0
M  V30 3544 N 348.832 -1.54138 -0.328536 0
M  V30 3545 C 349.762 -1.86167 -1.40939 0
M  V30 3546 C 350.743 -0.718044 -1.54202 0
M  V30 3547 O 351.928 -0.971328 -1.68163 0
M  V30 3548 C 349.058 -2.08461 -2.77779 0
M  V30 3549 C 348.012 -3.24299 -2.7931 0
M  V30 3550 C 347.338 -3.31955 -4.19178 0
M  V30 3551 C 348.638 -4.62065 -2.43502 0
M  V30 3552 H 350.332 -2.76689 -1.14383 0
M  V30 3553 H 347.878 -1.33132 -0.548806 0
M  V30 3554 H 349.831 -2.29453 -3.53454 0
M  V30 3555 H 348.555 -1.14684 -3.05802 0
M  V30 3556 H 347.214 -3.03187 -2.0609 0
M  V30 3557 H 346.862 -2.35745 -4.44335 0
M  V30 3558 H 346.562 -4.09805 -4.2111 0
M  V30 3559 H 348.086 -3.55175 -4.96672 0
M  V30 3560 H 349.5 -4.8297 -3.08889 0
M  V30 3561 H 347.897 -5.42429 -2.56693 0
M  V30 3562 H 348.967 -4.64652 -1.38659 0
M  V30 3563 N 350.31 0.590341 -1.46126 0
M  V30 3564 C 351.721 1.17243 -1.45296 0
M  V30 3565 C 352.072 1.95281 -0.189723 0
M  V30 3566 O 351.197 2.04502 0.707674 0
M  V30 3567 C 351.792 2.13284 -2.6324 0
M  V30 3568 C 350.351 2.66832 -2.65476 0
M  V30 3569 C 349.498 1.42557 -2.3785 0
M  V30 3570 H 352.449 0.378692 -1.54116 0
M  V30 3571 H 352.47 2.96619 -2.38323 0
M  V30 3572 H 351.982 1.56459 -3.55165 0
M  V30 3573 H 350.083 3.27548 -1.77603 0
M  V30 3574 H 350.196 3.10088 -3.65215 0
M  V30 3575 H 348.56 1.72107 -1.87753 0
M  V30 3576 H 349.343 0.875741 -3.31942 0
M  V30 3577 N 351.788 1.33704 0.83433 0
M  V30 3578 C 353.028 1.26754 1.60352 0
M  V30 3579 C 353.392 -0.163182 1.91305 0
M  V30 3580 O 354.593 -0.3567 2.66423 0
M  V30 3581 C 352.864 2.12262 2.8754 0
M  V30 3582 S 354.423 2.22549 3.78176 0
M  V30 3583 H 351.241 0.450879 0.549753 0
M  V30 3584 H 353.843 1.68788 0.986444 0
M  V30 3585 H 352.547 3.15238 2.62779 0
M  V30 3586 H 352.078 1.71082 3.54252 0
M  V30 3587 H 354.093 1.3899 4.76336 0
M  V30 3588 N 353.266 -1.05314 1.17247 0
M  V30 3589 C 354.543 -1.75184 0.87005 0
M  V30 3590 C 354.923 -2.01481 -0.629965 0
M  V30 3591 O 354.271 -1.64988 -1.58086 0
M  V30 3592 C 354.481 -3.04594 1.70363 0
M  V30 3593 C 355.829 -3.78567 1.92281 0
M  V30 3594 O 356.853 -3.14461 1.67311 0
M  V30 3595 O 355.712 -4.93755 2.3424 0
M  V30 3596 H 352.806 -0.761729 0.322021 0
M  V30 3597 H 355.352 -1.11493 1.27935 0
M  V30 3598 H 354.124 -2.81201 2.72106 0
M  V30 3599 H 353.747 -3.76022 1.29202 0
M  V30 3600 N 354.744 -0.972509 -1.24016 0
M  V30 3601 C 355.99 -0.637978 -1.92504 0
M  V30 3602 C 356.323 0.825383 -1.75787 0
M  V30 3603 O 355.598 1.59442 -1.11393 0
M  V30 3604 C 355.881 -1.01942 -3.45369 0
M  V30 3605 C 355.734 -2.53983 -3.71231 0
M  V30 3606 C 357.053 -0.55751 -4.36555 0
M  V30 3607 H 354.172 -0.233248 -0.699117 0
M  V30 3608 H 356.814 -1.21238 -1.46292 0
M  V30 3609 H 354.964 -0.530656 -3.84859 0
M  V30 3610 H 356.636 -3.10374 -3.41271 0
M  V30 3611 H 354.879 -2.96968 -3.16216 0
M  V30 3612 H 355.55 -2.75723 -4.78206 0
M  V30 3613 H 358.026 -0.977029 -4.04467 0
M  V30 3614 H 356.902 -0.85292 -5.42233 0
M  V30 3615 H 357.163 0.542328 -4.38761 0
M  V30 3616 N 356.222 1.38976 -0.743202 0
M  V30 3617 C 357.152 2.33171 -0.123873 0
M  V30 3618 C 358.133 1.54336 0.71516 0
M  V30 3619 O 359.318 1.82696 0.658467 0
M  V30 3620 C 356.448 3.38474 0.777978 0
M  V30 3621 C 355.402 4.27979 0.0424758 0
M  V30 3622 C 354.728 5.2405 1.06189 0
M  V30 3623 C 356.028 5.10155 -1.1198 0
M  V30 3624 H 357.722 2.85213 -0.910709 0
M  V30 3625 H 355.268 1.37133 -0.439388 0
M  V30 3626 H 357.221 4.03328 1.22084 0
M  V30 3627 H 355.945 2.84891 1.59702 0
M  V30 3628 H 354.604 3.64616 -0.380853 0
M  V30 3629 H 354.252 4.66758 1.87472 0
M  V30 3630 H 353.952 5.84785 0.574485 0
M  V30 3631 H 355.476 5.9178 1.50428 0
M  V30 3632 H 356.89 5.68307 -0.75499 0
M  V30 3633 H 355.287 5.80073 -1.53738 0
M  V30 3634 H 356.357 4.44504 -1.93764 0
M  V30 3635 N 357.7 0.491464 1.49741 0
M  V30 3636 C 358.63 -0.28154 2.31796 0
M  V30 3637 C 359.611 -0.971473 1.3963 0
M  V30 3638 O 360.796 -0.964719 1.68543 0
M  V30 3639 C 357.926 -1.35203 3.19902 0
M  V30 3640 C 356.88 -0.782529 4.20786 0
M  V30 3641 C 356.206 -1.95283 4.97764 0
M  V30 3642 C 357.506 0.21999 5.21837 0
M  V30 3643 H 359.2 0.403355 2.96671 0
M  V30 3644 H 356.746 0.195425 1.42668 0
M  V30 3645 H 358.699 -1.90045 3.76113 0
M  V30 3646 H 357.423 -2.06598 2.52953 0
M  V30 3647 H 356.082 -0.255928 3.65706 0
M  V30 3648 H 355.73 -2.65423 4.2727 0
M  V30 3649 H 355.43 -1.57789 5.66018 0
M  V30 3650 H 356.954 -2.50577 5.56816 0
M  V30 3651 H 358.368 -0.23996 5.72798 0
M  V30 3652 H 356.765 0.51026 5.97927 0
M  V30 3653 H 357.835 1.13911 4.7133 0
M  V30 3654 N 359.178 -1.55987 0.224894 0
M  V30 3655 C 360.406 -2.02784 -0.410665 0
M  V30 3656 C 360.821 -1.10464 -1.53112 0
M  V30 3657 O 360.178 -0.114871 -1.82138 0
M  V30 3658 C 360.229 -3.49087 -0.939165 0
M  V30 3659 O 359.95 -4.37887 0.136614 0
M  V30 3660 C 361.451 -4.11543 -1.64763 0
M  V30 3661 H 358.671 -0.663484 -0.100148 0
M  V30 3662 H 361.215 -2.01614 0.342326 0
M  V30 3663 H 359.37 -3.50861 -1.64242 0
M  V30 3664 H 359.784 -5.23849 -0.261155 0
M  V30 3665 H 361.258 -5.15673 -1.96939 0
M  V30 3666 H 361.735 -3.56736 -2.56195 0
M  V30 3667 H 362.341 -4.13629 -0.989503 0
M  V30 3668 N 360.656 0.0484629 -1.57525 0
M  V30 3669 C 362.067 0.597486 -1.76881 0
M  V30 3670 C 362.418 1.76664 -0.853475 0
M  V30 3671 O 361.543 2.16357 -0.0433656 0
M  V30 3672 C 362.138 1.09066 -3.20765 0
M  V30 3673 C 360.697 1.58535 -3.41385 0
M  V30 3674 C 359.844 0.514868 -2.72478 0
M  V30 3675 H 362.795 -0.177758 -1.57701 0
M  V30 3676 H 362.816 1.95875 -3.2621 0
M  V30 3677 H 362.328 0.239521 -3.8736 0
M  V30 3678 H 360.429 2.45898 -2.79937 0
M  V30 3679 H 360.542 1.64622 -4.49929 0
M  V30 3680 H 358.906 0.965407 -2.35695 0
M  V30 3681 H 359.689 -0.32648 -3.41744 0
M  V30 3682 N 362.134 1.5431 0.320358 0
M  V30 3683 C 363.084 1.803 1.39556 0
M  V30 3684 C 364.068 0.659166 1.46778 0
M  V30 3685 O 365.26 0.91926 1.51257 0
M  V30 3686 C 362.389 2.03665 2.76361 0
M  V30 3687 C 361.475 3.24178 2.73439 0
M  V30 3688 N 361.866 4.4516 2.40137 0
M  V30 3689 C 360.164 3.25816 3.04565 0
M  V30 3690 C 360.865 5.27109 2.4603 0
M  V30 3691 N 359.841 4.64368 2.82601 0
M  V30 3692 H 363.643 2.71416 1.12742 0
M  V30 3693 H 361.157 1.53548 0.528856 0
M  V30 3694 H 363.154 2.20425 3.53862 0
M  V30 3695 H 361.814 1.13805 3.04103 0
M  V30 3696 H 362.825 4.72104 2.12927 0
M  V30 3697 H 359.502 2.46001 3.37328 0
M  V30 3698 H 360.892 6.33728 2.23246 0
M  V30 3699 N 363.613 -0.582584 1.46437 0
M  V30 3700 C 365.024 -1.1647 1.45916 0
M  V30 3701 C 365.375 -1.95177 0.200077 0
M  V30 3702 O 364.5 -2.04874 -0.696819 0
M  V30 3703 C 365.095 -2.11885 2.64367 0
M  V30 3704 C 363.654 -2.65421 2.66887 0
M  V30 3705 C 362.801 -1.41294 2.38603 0
M  V30 3706 H 365.752 -0.370514 1.54314 0
M  V30 3707 H 365.773 -2.9535 2.39892 0
M  V30 3708 H 365.285 -1.54573 3.5599 0
M  V30 3709 H 363.386 -3.26602 1.79338 0
M  V30 3710 H 363.499 -3.08147 3.66854 0
M  V30 3711 H 361.863 -1.71109 1.88663 0
M  V30 3712 H 362.646 -0.858125 3.32402 0
M  V30 3713 N 365.091 -1.34144 -0.827227 0
M  V30 3714 C 366.339 -1.26009 -1.58007 0
M  V30 3715 C 366.66 0.170971 -1.94249 0
M  V30 3716 O 365.93 1.10256 -1.61927 0
M  V30 3717 H 364.51 -0.463414 -0.585881 0
M  V30 3718 H 367.172 -1.68005 -0.987951 0
M  V30 3719 H 366.268 -1.86187 -2.50481 0
M  V30 3720 N 366.569 1.04691 -1.17803 0
M  V30 3721 C 367.532 2.10724 -0.901545 0
M  V30 3722 C 368.532 1.6042 0.110437 0
M  V30 3723 O 369.722 1.7377 -0.122303 0
M  V30 3724 C 366.854 3.39084 -0.351409 0
M  V30 3725 H 368.047 2.36686 -1.84174 0
M  V30 3726 H 365.6 1.21015 -0.98919 0
M  V30 3727 H 366.335 3.18782 0.59569 0
M  V30 3728 H 366.12 3.76909 -1.08083 0
M  V30 3729 H 367.61 4.17227 -0.176451 0
M  V30 3730 N 368.047 0.979072 1.23499 0
M  V30 3731 C 369.272 0.664845 1.96455 0
M  V30 3732 C 369.697 -0.761287 1.72006 0
M  V30 3733 O 369.055 -1.51837 0.990713 0
M  V30 3734 C 369.103 0.959479 3.47601 0
M  V30 3735 O 368.207 0.0508168 4.12369 0
M  V30 3736 H 367.548 0.250185 0.615064 0
M  V30 3737 H 370.078 1.31231 1.5697 0
M  V30 3738 H 370.088 0.895642 3.98048 0
M  V30 3739 H 368.763 1.99876 3.64723 0
M  V30 3740 H 367.34 0.16895 3.72517 0
M  V30 3741 N 369.525 -1.3858 0.750561 0
M  V30 3742 C 370.473 -2.32339 0.110162 0
M  V30 3743 C 371.467 -1.53864 -0.708674 0
M  V30 3744 O 372.673 -1.69417 -0.608112 0
M  V30 3745 H 369.048 -0.751812 0.0168275 0
M  V30 3746 H 371.019 -2.83959 0.917053 0
M  V30 3747 C 369.768 -3.39043 -0.771067 0
M  V30 3748 H 369.091 -3.99517 -0.150374 0
M  V30 3749 H 370.531 -4.07061 -1.1865 0
M  V30 3750 C 368.99 -2.77365 -1.91234 0
M  V30 3751 O 369.52 -2.66434 -3.00626 0
M  V30 3752 N 367.726 -2.35219 -1.70646 0
M  V30 3753 H 367.273 -2.4431 -0.81673 0
M  V30 3754 H 367.231 -1.94294 -2.47178 0
M  V30 3755 N 371.003 -0.499398 -1.49478 0
M  V30 3756 C 372.249 0.0377587 -2.03365 0
M  V30 3757 C 372.604 1.3484 -1.37244 0
M  V30 3758 O 371.897 1.85 -0.498547 0
M  V30 3759 C 372.091 0.248424 -3.56536 0
M  V30 3760 C 371.92 -1.04025 -4.37503 0
M  V30 3761 C 370.69 -1.59159 -4.79579 0
M  V30 3762 C 372.888 -1.9431 -4.76181 0
M  V30 3763 N 370.87 -2.82634 -5.44969 0
M  V30 3764 C 372.241 -3.02364 -5.41272 0
M  V30 3765 C 374.296 -1.95008 -4.58123 0
M  V30 3766 C 372.999 -4.1114 -5.90217 0
M  V30 3767 C 375.025 -3.02758 -5.08027 0
M  V30 3768 C 374.387 -4.09531 -5.73118 0
M  V30 3769 H 370.486 -0.026923 -0.781536 0
M  V30 3770 H 373.07 -0.673901 -1.82665 0
M  V30 3771 H 371.241 0.929139 -3.77123 0
M  V30 3772 H 372.973 0.782445 -3.97064 0
M  V30 3773 H 369.728 -1.13696 -4.5975 0
M  V30 3774 H 370.152 -3.45416 -5.82252 0
M  V30 3775 H 374.794 -1.13766 -4.07207 0
M  V30 3776 H 372.512 -4.93181 -6.40155 0
M  V30 3777 H 376.098 -3.04315 -4.95866 0
M  V30 3778 H 374.978 -4.91534 -6.11035 0
M  V30 3779 N 372.481 1.55866 -0.233164 0
M  V30 3780 C 373.758 1.90471 0.444988 0
M  V30 3781 C 374.138 1.15209 1.7689 0
M  V30 3782 O 373.486 0.265119 2.26957 0
M  V30 3783 C 373.696 3.4333 0.626559 0
M  V30 3784 C 375.044 4.14319 0.92871 0
M  V30 3785 O 376.068 3.48993 0.712926 0
M  V30 3786 O 374.927 5.29846 1.33887 0
M  V30 3787 H 372.021 0.792347 0.236885 0
M  V30 3788 H 374.567 1.67437 -0.276211 0
M  V30 3789 H 373.339 3.90095 -0.306822 0
M  V30 3790 H 372.962 3.72181 1.39881 0
M  V30 3791 N 373.959 -0.0401083 1.57549 0
M  V30 3792 C 375.189 -0.744115 1.92734 0
M  V30 3793 C 375.597 -1.70005 0.830348 0
M  V30 3794 O 374.94 -1.82576 -0.20286 0
M  V30 3795 C 375.002 -1.56516 3.2364 0
M  V30 3796 C 374.666 -0.7752 4.50377 0
M  V30 3797 C 375.663 -0.0803326 5.19838 0
M  V30 3798 C 373.348 -0.733002 4.96923 0
M  V30 3799 C 375.342 0.646154 6.34116 0
M  V30 3800 C 373.029 -0.00276321 6.111 0
M  V30 3801 C 374.027 0.685585 6.7955 0
M  V30 3802 O 373.715 1.40399 7.91545 0
M  V30 3803 H 373.447 -0.214861 0.640945 0
M  V30 3804 H 376.001 -0.00503675 2.05399 0
M  V30 3805 H 374.231 -2.3478 3.07271 0
M  V30 3806 H 375.92 -2.15076 3.44234 0
M  V30 3807 H 376.686 -0.104035 4.84888 0
M  V30 3808 H 372.565 -1.25827 4.43496 0
M  V30 3809 H 376.109 1.18398 6.87479 0
M  V30 3810 H 372.006 0.0229012 6.45496 0
M  V30 3811 H 372.774 1.31653 8.07843 0
M  V30 3812 N 375.437 -1.54477 -0.31217 0
M  V30 3813 C 376.4 -1.83923 -1.36766 0
M  V30 3814 C 377.4 -0.711563 -1.44199 0
M  V30 3815 O 378.59 -0.979866 -1.44029 0
M  V30 3816 C 375.722 -2.0095 -2.75376 0
M  V30 3817 H 376.915 -2.78239 -1.11906 0
M  V30 3818 H 374.468 -1.46369 -0.548257 0
M  V30 3819 H 375.203 -1.08883 -3.05475 0
M  V30 3820 H 374.988 -2.83018 -2.71373 0
M  V30 3821 H 376.478 -2.2514 -3.51713 0
M  V30 3822 N 376.915 0.57481 -1.46744 0
M  V30 3823 C 377.878 1.66533 -1.57478 0
M  V30 3824 C 378.878 1.54338 -0.451263 0
M  V30 3825 O 380.068 1.58814 -0.715813 0
M  V30 3826 C 377.2 3.05999 -1.50259 0
M  V30 3827 H 378.393 1.58372 -2.54673 0
M  V30 3828 H 375.946 0.793301 -1.34672 0
M  V30 3829 H 376.681 3.19709 -0.543725 0
M  V30 3830 H 376.466 3.16259 -2.31781 0
M  V30 3831 H 377.956 3.8537 -1.60872 0
M  V30 3832 N 378.394 1.34581 0.820102 0
M  V30 3833 C 379.642 1.26845 1.57336 0
M  V30 3834 C 379.963 -0.160667 1.94337 0
M  V30 3835 O 379.233 -1.09396 1.6251 0
M  V30 3836 H 377.813 0.466514 0.583415 0
M  V30 3837 H 380.475 1.68526 0.979027 0
M  V30 3838 H 379.571 1.87513 2.4949 0
M  V30 3839 N 379.872 -1.04064 1.18357 0
M  V30 3840 C 380.835 -2.10243 0.912707 0
M  V30 3841 C 381.835 -1.60477 -0.101928 0
M  V30 3842 O 383.025 -1.73703 0.131517 0
M  V30 3843 C 380.157 -3.38893 0.369387 0
M  V30 3844 H 381.35 -2.35706 1.85426 0
M  V30 3845 H 378.903 -1.20489 0.995594 0
M  V30 3846 H 379.638 -3.19094 -0.578776 0
M  V30 3847 H 379.423 -3.76331 1.1008 0
M  V30 3848 H 380.913 -4.17128 0.198575 0
M  V30 3849 N 381.35 -0.985608 -1.22978 0
M  V30 3850 C 382.766 -0.695104 -1.43668 0
M  V30 3851 C 382.966 0.736866 -1.87543 0
M  V30 3852 O 382.022 1.50868 -2.02473 0
M  V30 3853 C 383.335 -1.69447 -2.48412 0
M  V30 3854 C 384.883 -1.70909 -2.62219 0
M  V30 3855 C 385.358 -2.6969 -3.70178 0
M  V30 3856 N 386.849 -2.6824 -3.77626 0
M  V30 3857 C 387.584 -3.41339 -4.60733 0
M  V30 3858 N 387.08 -4.24015 -5.4789 0
M  V30 3859 N 388.873 -3.30079 -4.54977 0
M  V30 3860 H 381.024 -1.91054 -0.928016 0
M  V30 3861 H 383.287 -0.823553 -0.469536 0
M  V30 3862 H 382.993 -2.7188 -2.23102 0
M  V30 3863 H 382.867 -1.48147 -3.46889 0
M  V30 3864 H 385.254 -0.691785 -2.86877 0
M  V30 3865 H 385.335 -1.96276 -1.6404 0
M  V30 3866 H 384.979 -3.71566 -3.46268 0
M  V30 3867 H 384.909 -2.41595 -4.67909 0
M  V30 3868 H 387.4 -2.08243 -3.15346 0
M  V30 3869 H 387.713 -4.76636 -6.08308 0
M  V30 3870 H 386.058 -4.28104 -5.47496 0
M  V30 3871 H 389.249 -2.64937 -3.85909 0
M  V30 3872 H 389.422 -3.87308 -5.19516 0
M  V30 3873 N 382.828 1.3818 -0.7579 0
M  V30 3874 C 383.791 2.28764 -0.141286 0
M  V30 3875 C 384.791 1.47388 0.642907 0
M  V30 3876 O 385.981 1.67781 0.468536 0
M  V30 3877 C 383.113 3.31184 0.808069 0
M  V30 3878 H 384.306 2.848 -0.939633 0
M  V30 3879 H 381.859 1.47212 -0.525191 0
M  V30 3880 H 382.594 2.80247 1.63193 0
M  V30 3881 H 382.379 3.91314 0.248104 0
M  V30 3882 H 383.869 3.98909 1.23536 0
M  V30 3883 N 384.306 0.507319 1.49211 0
M  V30 3884 C 385.554 -0.0348839 2.0207 0
M  V30 3885 C 385.875 -1.36898 1.38866 0
M  V30 3886 O 385.145 -1.88133 0.546151 0
M  V30 3887 H 383.725 -0.0158812 0.746831 0
M  V30 3888 H 386.387 0.665998 1.83168 0
M  V30 3889 H 385.483 -0.159917 3.1169 0
M  V30 3890 N 385.784 -1.5574 0.241426 0
M  V30 3891 C 386.747 -2.19877 -0.647063 0
M  V30 3892 C 387.747 -1.16642 -1.10686 0
M  V30 3893 O 388.937 -1.41757 -1.01245 0
M  V30 3894 C 386.069 -2.83797 -1.88871 0
M  V30 3895 H 387.262 -2.99772 -0.087574 0
M  V30 3896 H 384.815 -1.56298 -0.00813574 0
M  V30 3897 H 385.55 -2.07824 -2.48957 0
M  V30 3898 H 385.335 -3.59414 -1.56728 0
M  V30 3899 H 386.825 -3.32898 -2.52129 0
M  V30 3900 N 387.262 0.0317525 -1.57568 0
M  V30 3901 C 388.209 1.0332 -2.06382 0
M  V30 3902 C 389.179 1.36082 -0.952414 0
M  V30 3903 O 390.364 1.46466 -1.2228 0
M  V30 3904 C 387.504 2.32989 -2.54578 0
M  V30 3905 C 386.617 2.0641 -3.79498 0
M  V30 3906 C 385.752 3.2993 -4.16317 0
M  V30 3907 C 384.791 2.98893 -5.34162 0
M  V30 3908 N 383.928 4.14857 -5.66426 0
M  V30 3909 H 388.768 0.609982 -2.9169 0
M  V30 3910 H 386.305 0.289573 -1.44222 0
M  V30 3911 H 388.263 3.0875 -2.80587 0
M  V30 3912 H 386.893 2.73039 -1.7219 0
M  V30 3913 H 385.945 1.21158 -3.6059 0
M  V30 3914 H 387.257 1.79513 -4.65378 0
M  V30 3915 H 386.411 4.1406 -4.4344 0
M  V30 3916 H 385.15 3.59938 -3.29083 0
M  V30 3917 H 384.155 2.13164 -5.06795 0
M  V30 3918 H 385.38 2.70165 -6.23047 0
M  V30 3919 H 383.326 4.44821 -4.82151 0
M  V30 3920 H 383.243 3.91374 -6.4681 0
M  V30 3921 H 384.511 4.99868 -5.98124 0
M  V30 3922 N 388.74 1.54641 0.303973 0
M  V30 3923 C 389.703 1.84646 1.35789 0
M  V30 3924 C 390.703 0.7192 1.4382 0
M  V30 3925 O 391.893 0.987491 1.43507 0
M  V30 3926 C 389.025 2.02407 2.74307 0
M  V30 3927 H 390.218 2.78829 1.10429 0
M  V30 3928 H 387.771 1.46658 0.540487 0
M  V30 3929 H 388.506 1.10502 3.04893 0
M  V30 3930 H 388.291 2.84453 2.69868 0
M  V30 3931 H 389.781 2.27002 3.50514 0
M  V30 3932 N 390.218 -0.567019 1.47046 0
M  V30 3933 C 391.148 -1.68482 1.61667 0
M  V30 3934 C 392.129 -1.6358 0.466418 0
M  V30 3935 O 393.314 -1.81354 0.694574 0
M  V30 3936 C 390.444 -3.07124 1.62148 0
M  V30 3937 C 389.398 -3.26867 2.76301 0
M  V30 3938 C 388.724 -4.66196 2.61849 0
M  V30 3939 C 390.024 -3.13186 4.17986 0
M  V30 3940 H 391.718 -1.56502 2.5524 0
M  V30 3941 H 389.264 -0.751486 1.22836 0
M  V30 3942 H 391.217 -3.8516 1.70968 0
M  V30 3943 H 389.941 -3.2004 0.651287 0
M  V30 3944 H 388.6 -2.51237 2.66975 0
M  V30 3945 H 388.248 -4.75898 1.62879 0
M  V30 3946 H 387.948 -4.80356 3.38425 0
M  V30 3947 H 389.472 -5.46379 2.72584 0
M  V30 3948 H 390.886 -3.81049 4.2834 0
M  V30 3949 H 389.283 -3.3886 4.95272 0
M  V30 3950 H 390.353 -2.10057 4.3704 0
M  V30 3951 N 391.696 -1.35014 -0.812953 0
M  V30 3952 C 392.924 -1.31031 -1.6012 0
M  V30 3953 C 393.339 0.113558 -1.88458 0
M  V30 3954 O 392.696 1.06363 -1.48301 0
M  V30 3955 C 392.747 -2.10872 -2.93624 0
M  V30 3956 O 392.468 -3.47706 -2.66518 0
M  V30 3957 C 393.969 -2.14401 -3.88004 0
M  V30 3958 H 391.189 -0.45037 -0.497401 0
M  V30 3959 H 393.733 -1.77775 -1.01076 0
M  V30 3960 H 391.888 -1.67744 -3.492 0
M  V30 3961 H 392.302 -3.89097 -3.51715 0
M  V30 3962 H 393.776 -2.74669 -4.78812 0
M  V30 3963 H 394.253 -1.14105 -4.24119 0
M  V30 3964 H 394.859 -2.57662 -3.38364 0
M  V30 3965 N 393.175 1.03435 -1.18907 0
M  V30 3966 C 394.415 1.78302 -0.999391 0
M  V30 3967 C 394.779 1.86353 0.462219 0
M  V30 3968 O 395.98 2.57489 0.771543 0
M  V30 3969 C 394.251 3.17362 -1.64365 0
M  V30 3970 S 395.81 4.08488 -1.6026 0
M  V30 3971 H 392.628 0.613861 -0.358742 0
M  V30 3972 H 395.23 1.23979 -1.51161 0
M  V30 3973 H 393.934 3.09116 -2.69955 0
M  V30 3974 H 393.465 3.76762 -1.13199 0
M  V30 3975 H 395.48 4.92274 -0.622932 0
M  V30 3976 N 394.653 0.992116 1.22453 0
M  V30 3977 C 395.6 0.541731 2.24352 0
M  V30 3978 C 396.57 -0.425519 1.60557 0
M  V30 3979 O 397.755 -0.330453 1.87917 0
M  V30 3980 C 394.895 -0.138248 3.44823 0
M  V30 3981 C 394.008 0.870649 4.23136 0
M  V30 3982 C 393.143 0.164269 5.30946 0
M  V30 3983 C 392.182 1.16159 6.00977 0
M  V30 3984 N 391.319 0.483568 7.00433 0
M  V30 3985 H 396.159 1.41541 2.62241 0
M  V30 3986 H 393.696 0.709013 1.28885 0
M  V30 3987 H 395.654 -0.5494 4.13567 0
M  V30 3988 H 394.284 -0.975721 3.077 0
M  V30 3989 H 393.336 1.40013 3.53696 0
M  V30 3990 H 394.648 1.63014 4.7141 0
M  V30 3991 H 393.802 -0.303653 6.0594 0
M  V30 3992 H 392.541 -0.627733 4.83643 0
M  V30 3993 H 391.546 1.64015 5.24766 0
M  V30 3994 H 392.771 1.95445 6.50368 0
M  V30 3995 H 390.717 -0.289012 6.55363 0
M  V30 3996 H 390.634 1.18152 7.4671 0
M  V30 3997 H 391.902 0.0384219 7.79491 0
M  V30 3998 N 396.131 -1.37776 0.765217 0
M  V30 3999 C 397.094 -2.28686 0.153416 0
M  V30 4000 C 398.094 -1.47727 -0.635081 0
M  V30 4001 O 399.284 -1.68027 -0.459632 0
M  V30 4002 C 396.416 -3.31608 -0.790495 0
M  V30 4003 H 397.609 -2.84297 0.954723 0
M  V30 4004 H 395.162 -1.46932 0.53299 0
M  V30 4005 H 395.897 -2.81109 -1.61705 0
M  V30 4006 H 395.682 -3.9144 -0.227348 0
M  V30 4007 H 397.172 -3.99559 -1.21419 0
M  V30 4008 N 397.609 -0.515225 -1.4894 0
M  V30 4009 C 398.839 0.0205735 -2.0659 0
M  V30 4010 C 399.247 1.30064 -1.37405 0
M  V30 4011 O 398.59 1.78087 -0.450632 0
M  V30 4012 C 398.652 0.330124 -3.57981 0
M  V30 4013 C 398.316 -0.854295 -4.48944 0
M  V30 4014 C 399.313 -1.7487 -4.89609 0
M  V30 4015 C 396.998 -1.05712 -4.9105 0
M  V30 4016 C 398.992 -2.82996 -5.71132 0
M  V30 4017 C 396.679 -2.14154 -5.72347 0
M  V30 4018 C 397.677 -3.0263 -6.12294 0
M  V30 4019 O 397.365 -4.09198 -6.91962 0
M  V30 4020 H 397.097 -0.0236833 -0.675585 0
M  V30 4021 H 399.651 -0.715956 -1.92518 0
M  V30 4022 H 397.881 1.12044 -3.70112 0
M  V30 4023 H 399.57 0.806233 -3.97812 0
M  V30 4024 H 400.336 -1.60388 -4.57712 0
M  V30 4025 H 396.215 -0.377788 -4.59449 0
M  V30 4026 H 399.759 -3.52083 -6.02232 0
M  V30 4027 H 395.656 -2.28626 -6.03656 0
M  V30 4028 H 396.424 -4.06726 -7.10293 0
M  V30 4029 N 399.087 1.5561 -0.249682 0
M  V30 4030 C 400.05 2.20217 0.635394 0
M  V30 4031 C 401.05 1.17227 1.10066 0
M  V30 4032 O 402.24 1.42292 1.00492 0
M  V30 4033 C 399.372 2.84794 1.87363 0
M  V30 4034 H 400.565 2.99814 0.0716752 0
M  V30 4035 H 398.118 1.563 -0.000153234 0
M  V30 4036 H 398.853 2.09142 2.47851 0
M  V30 4037 H 398.638 3.60241 1.5482 0
M  V30 4038 H 400.128 3.3423 2.5036 0
M  V30 4039 N 400.565 -0.0233959 1.57583 0
M  V30 4040 C 401.842 -0.748794 1.807 0
M  V30 4041 C 402.222 -1.9327 0.849106 0
M  V30 4042 O 401.57 -2.28247 -0.107468 0
M  V30 4043 C 401.78 -1.17651 3.28571 0
M  V30 4044 C 403.128 -1.59008 3.93702 0
M  V30 4045 O 404.152 -1.27094 3.32755 0
M  V30 4046 O 403.011 -2.18264 5.01022 0
M  V30 4047 H 400.105 -0.362578 0.743281 0
M  V30 4048 H 402.651 0.000261958 1.697 0
M  V30 4049 H 401.423 -0.331603 3.89892 0
M  V30 4050 H 401.046 -1.98541 3.44481 0
M  V30 4051 N 402.043 -1.548 -0.295768 0
M  V30 4052 C 403.006 -1.85363 -1.34808 0
M  V30 4053 C 404.006 -0.726817 -1.43436 0
M  V30 4054 O 405.196 -0.995088 -1.42981 0
M  V30 4055 C 402.328 -2.03859 -2.73229 0
M  V30 4056 H 403.521 -2.7941 -1.08949 0
M  V30 4057 H 401.074 -1.46942 -0.532702 0
M  V30 4058 H 401.809 -1.12117 -3.04303 0
M  V30 4059 H 401.594 -2.8588 -2.68356 0
M  V30 4060 H 403.084 -2.28857 -3.49305 0
M  V30 4061 N 403.521 0.559213 -1.47345 0
M  V30 4062 C 404.484 1.64854 -1.59235 0
M  V30 4063 C 405.484 1.53851 -0.467607 0
M  V30 4064 O 406.674 1.58045 -0.732617 0
M  V30 4065 C 403.806 3.04388 -1.53496 0
M  V30 4066 H 404.999 1.55662 -2.56339 0
M  V30 4067 H 402.552 0.778973 -1.35505 0
M  V30 4068 H 403.287 3.19115 -0.577604 0
M  V30 4069 H 403.072 3.13783 -2.35123 0
M  V30 4070 H 404.562 3.83642 -1.6495 0
M  V30 4071 N 404.999 1.35443 0.805782 0
M  V30 4072 C 405.909 1.30546 1.94923 0
M  V30 4073 C 406.925 0.210233 1.72725 0
M  V30 4074 O 408.101 0.43975 1.9654 0
M  V30 4075 C 405.166 1.07782 3.29521 0
M  V30 4076 C 404.227 2.26625 3.64609 0
M  V30 4077 C 403.46 2.04938 4.92784 0
M  V30 4078 O 403.683 1.01624 5.61274 0
M  V30 4079 O 402.617 2.9232 5.26149 0
M  V30 4080 H 406.443 2.26779 2.02002 0
M  V30 4081 H 404.028 1.15823 0.943682 0
M  V30 4082 H 405.91 0.969392 4.10098 0
M  V30 4083 H 404.585 0.146003 3.23371 0
M  V30 4084 H 403.492 2.43033 2.84404 0
M  V30 4085 H 404.825 3.18257 3.75464 0
M  V30 4086 N 406.477 -1.02803 1.19454 0
M  V30 4087 C 407.409 -2.11181 0.890807 0
M  V30 4088 C 408.422 -1.6238 -0.116829 0
M  V30 4089 O 409.611 -1.78144 0.112694 0
M  V30 4090 C 406.711 -3.37461 0.311942 0
M  V30 4091 C 405.884 -4.15446 1.36834 0
M  V30 4092 C 404.943 -5.20039 0.802864 0
M  V30 4093 O 403.969 -5.49602 1.48077 0
M  V30 4094 N 405.171 -5.79165 -0.393417 0
M  V30 4095 H 407.936 -2.37827 1.82369 0
M  V30 4096 H 405.497 -1.19101 1.09666 0
M  V30 4097 H 407.489 -4.0462 -0.0802225 0
M  V30 4098 H 406.059 -3.08156 -0.52524 0
M  V30 4099 H 405.279 -3.43423 1.93531 0
M  V30 4100 H 406.567 -4.64335 2.08015 0
M  V30 4101 H 405.965 -5.57466 -0.961658 0
M  V30 4102 H 404.522 -6.47729 -0.727351 0
M  V30 4103 N 407.956 -0.998596 -1.21925 0
M  V30 4104 C 408.903 -0.553621 -2.24062 0
M  V30 4105 C 409.873 0.416999 -1.6078 0
M  V30 4106 O 411.058 0.320482 -1.88089 0
M  V30 4107 C 408.198 0.119959 -3.44891 0
M  V30 4108 C 407.311 -0.893077 -4.22668 0
M  V30 4109 C 406.446 -0.192424 -5.30851 0
M  V30 4110 C 405.485 -1.19344 -6.00353 0
M  V30 4111 N 404.622 -0.520707 -7.00166 0
M  V30 4112 H 409.462 -1.4293 -2.61486 0
M  V30 4113 H 406.999 -0.715838 -1.28507 0
M  V30 4114 H 408.957 0.527459 -4.13852 0
M  V30 4115 H 407.587 0.959389 -3.08214 0
M  V30 4116 H 406.639 -1.41886 -3.52948 0
M  V30 4117 H 407.951 -1.65512 -4.70539 0
M  V30 4118 H 407.105 0.271515 -6.06092 0
M  V30 4119 H 405.844 0.602075 -4.83969 0
M  V30 4120 H 404.849 -1.66795 -5.23889 0
M  V30 4121 H 406.074 -1.98891 -6.49322 0
M  V30 4122 H 404.02 0.254252 -6.55507 0
M  V30 4123 H 403.937 -1.2211 -7.46073 0
M  V30 4124 H 405.205 -0.0797596 -7.79459 0
M  V30 4125 N 409.434 1.37368 -0.772513 0
M  V30 4126 C 410.681 1.99673 -0.337182 0
M  V30 4127 C 411.009 1.61324 1.0865 0
M  V30 4128 O 410.264 0.851377 1.7621 0
M  V30 4129 C 410.563 3.54817 -0.428876 0
M  V30 4130 C 410.229 4.12936 -1.81092 0
M  V30 4131 C 408.891 4.28523 -2.1891 0
M  V30 4132 C 411.243 4.44801 -2.71664 0
M  V30 4133 C 408.571 4.73277 -3.46735 0
M  V30 4134 C 410.923 4.90981 -3.98899 0
M  V30 4135 C 409.587 5.04773 -4.36761 0
M  V30 4136 H 408.857 0.730656 -0.123384 0
M  V30 4137 H 411.504 1.64124 -0.986686 0
M  V30 4138 H 409.809 3.90618 0.304167 0
M  V30 4139 H 411.506 4.00933 -0.0733334 0
M  V30 4140 H 408.096 4.01233 -1.50699 0
M  V30 4141 H 412.28 4.32344 -2.43706 0
M  V30 4142 H 407.536 4.82142 -3.75964 0
M  V30 4143 H 411.71 5.14603 -4.69208 0
M  V30 4144 H 409.337 5.39211 -5.35868 0
M  V30 4145 N 410.912 0.523116 1.48665 0
M  V30 4146 C 412.189 -0.0775449 1.95446 0
M  V30 4147 C 412.569 -1.5197 1.4652 0
M  V30 4148 O 411.917 -2.17876 0.688657 0
M  V30 4149 C 412.127 0.0326135 3.48985 0
M  V30 4150 C 413.475 -0.130141 4.24401 0
M  V30 4151 O 414.499 -0.0415142 3.56176 0
M  V30 4152 O 413.358 -0.31491 5.45592 0
M  V30 4153 H 410.452 -0.0831012 0.822814 0
M  V30 4154 H 412.998 0.587227 1.59216 0
M  V30 4155 H 411.77 1.03748 3.77296 0
M  V30 4156 H 411.393 -0.671317 3.91892 0
M  V30 4157 N 412.39 -1.55475 0.257931 0
M  V30 4158 C 413.638 -1.98813 -0.363009 0
M  V30 4159 C 413.959 -1.14757 -1.57657 0
M  V30 4160 O 413.229 -0.232956 -1.9451 0
M  V30 4161 H 411.809 -0.734308 -0.137113 0
M  V30 4162 H 414.471 -1.9156 0.359281 0
M  V30 4163 H 413.567 -3.04941 -0.664634 0
M  V30 4164 N 413.868 0.0150385 -1.57593 0
M  V30 4165 C 414.8 1.03912 -2.04291 0
M  V30 4166 C 415.813 1.31618 -0.958146 0
M  V30 4167 O 417.002 1.28859 -1.23522 0
M  V30 4168 C 414.102 2.37749 -2.41514 0
M  V30 4169 C 413.275 2.29198 -3.72541 0
M  V30 4170 C 412.334 3.45598 -3.96797 0
M  V30 4171 O 411.36 3.24461 -4.67668 0
M  V30 4172 N 412.562 4.67945 -3.43523 0
M  V30 4173 H 415.327 0.64099 -2.92765 0
M  V30 4174 H 412.888 0.20272 -1.60626 0
M  V30 4175 H 414.88 3.14364 -2.54867 0
M  V30 4176 H 413.45 2.69357 -1.58637 0
M  V30 4177 H 412.67 1.3759 -3.69408 0
M  V30 4178 H 413.958 2.20642 -4.5847 0
M  V30 4179 H 413.356 4.88017 -2.86104 0
M  V30 4180 H 411.913 5.41878 -3.62232 0
M  V30 4181 N 415.346 1.54954 0.287554 0
M  V30 4182 C 416.276 1.89839 1.35954 0
M  V30 4183 C 417.257 0.758675 1.52244 0
M  V30 4184 O 418.442 1.01557 1.65529 0
M  V30 4185 C 415.572 2.15753 2.72154 0
M  V30 4186 C 414.526 3.3159 2.70614 0
M  V30 4187 C 413.852 3.42952 4.10229 0
M  V30 4188 C 415.152 4.68359 2.31165 0
M  V30 4189 H 416.846 2.79625 1.07007 0
M  V30 4190 H 414.392 1.3454 0.513316 0
M  V30 4191 H 416.345 2.38743 3.47246 0
M  V30 4192 H 415.069 1.22752 3.02654 0
M  V30 4193 H 413.728 3.08545 1.97979 0
M  V30 4194 H 413.376 2.47443 4.37928 0
M  V30 4195 H 413.076 4.20826 4.10097 0
M  V30 4196 H 414.6 3.68218 4.87081 0
M  V30 4197 H 416.014 4.9099 2.95976 0
M  V30 4198 H 414.411 5.49044 2.42221 0
M  V30 4199 H 415.481 4.68165 1.26291 0
M  V30 4200 N 416.824 -0.551391 1.4764 0
M  V30 4201 C 417.787 -1.64007 1.60107 0
M  V30 4202 C 418.787 -1.53601 0.47576 0
M  V30 4203 O 419.977 -1.57655 0.740988 0
M  V30 4204 C 417.109 -3.03569 1.55108 0
M  V30 4205 H 418.302 -1.543 2.57161 0
M  V30 4206 H 415.855 -0.771776 1.35917 0
M  V30 4207 H 416.59 -3.18804 0.594519 0
M  V30 4208 H 416.375 -3.12532 2.36783 0
M  V30 4209 H 417.865 -3.82762 1.66982 0
M  V30 4210 N 418.302 -1.35869 -0.798587 0
M  V30 4211 C 419.249 -1.29446 -1.91082 0
M  V30 4212 C 420.219 -0.16487 -1.6528 0
M  V30 4213 O 421.404 -0.349888 -1.87564 0
M  V30 4214 C 418.544 -1.0804 -3.27752 0
M  V30 4215 C 417.657 -2.29993 -3.65687 0
M  V30 4216 C 416.792 -2.01673 -4.91428 0
M  V30 4217 C 415.831 -3.19636 -5.22015 0
M  V30 4218 N 414.968 -2.91039 -6.38937 0
M  V30 4219 H 419.808 -2.24553 -1.95907 0
M  V30 4220 H 417.345 -1.11615 -0.958148 0
M  V30 4221 H 419.303 -0.936586 -4.06551 0
M  V30 4222 H 417.933 -0.16592 -3.22373 0
M  V30 4223 H 416.985 -2.55211 -2.82085 0
M  V30 4224 H 418.297 -3.18052 -3.84245 0
M  V30 4225 H 417.451 -1.84168 -5.78072 0
M  V30 4226 H 416.19 -1.10911 -4.74921 0
M  V30 4227 H 415.195 -3.37709 -4.33858 0
M  V30 4228 H 416.42 -4.11211 -5.40447 0
M  V30 4229 H 414.366 -2.0288 -6.2384 0
M  V30 4230 H 414.283 -3.72635 -6.57784 0
M  V30 4231 H 415.551 -2.77093 -7.28587 0
M  V30 4232 N 419.78 1.02168 -1.19998 0
M  V30 4233 C 420.69 2.14069 -0.959774 0
M  V30 4234 C 421.706 1.73804 0.082655 0
M  V30 4235 O 422.882 2.01133 -0.103633 0
M  V30 4236 C 419.947 3.42936 -0.509459 0
M  V30 4237 C 419.008 3.97474 -1.62213 0
M  V30 4238 C 418.241 5.2019 -1.19321 0
M  V30 4239 O 418.464 5.70369 -0.0597726 0
M  V30 4240 O 417.398 5.67749 -1.99863 0
M  V30 4241 H 421.224 2.37199 -1.89658 0
M  V30 4242 H 418.809 1.12469 -0.983411 0
M  V30 4243 H 420.691 4.20551 -0.267322 0
M  V30 4244 H 419.366 3.21234 0.398821 0
M  V30 4245 H 418.273 3.21161 -1.9185 0
M  V30 4246 H 419.606 4.23555 -2.50723 0
M  V30 4247 N 421.258 1.00505 1.21394 0
M  V30 4248 C 422.486 0.706609 1.9446 0
M  V30 4249 C 422.901 -0.73081 1.74082 0
M  V30 4250 O 422.258 -1.49446 1.04747 0
M  V30 4251 C 422.309 1.01824 3.46863 0
M  V30 4252 O 422.03 2.39919 3.66566 0
M  V30 4253 C 423.531 0.739216 4.37093 0
M  V30 4254 H 420.751 0.260394 0.618414 0
M  V30 4255 H 423.295 1.34311 1.54211 0
M  V30 4256 H 421.45 0.427343 3.85036 0
M  V30 4257 H 421.864 2.50784 4.6066 0
M  V30 4258 H 423.338 1.00744 5.42729 0
M  V30 4259 H 423.815 -0.326746 4.37983 0
M  V30 4260 H 424.421 1.31173 4.04566 0
M  V30 4261 N 422.737 -1.36956 0.779787 0
M  V30 4262 C 423.7 -2.2851 0.177662 0
M  V30 4263 C 424.7 -1.48393 -0.619377 0
M  V30 4264 O 425.89 -1.68505 -0.441785 0
M  V30 4265 C 423.022 -3.32428 -0.755279 0
M  V30 4266 H 424.215 -2.83269 0.984823 0
M  V30 4267 H 421.768 -1.46358 0.548544 0
M  V30 4268 H 422.503 -2.82808 -1.58714 0
M  V30 4269 H 422.288 -3.91659 -0.185817 0
M  V30 4270 H 423.778 -4.00824 -1.17174 0
M  V30 4271 N 424.215 -0.530993 -1.48385 0
M  V30 4272 C 425.463 0.00273189 -2.021 0
M  V30 4273 C 425.784 1.34672 -1.41027 0
M  V30 4274 O 425.054 1.8724 -0.576012 0
M  V30 4275 H 423.634 0.00399774 -0.746989 0
M  V30 4276 H 426.296 -0.695054 -1.82085 0
M  V30 4277 H 425.392 0.11031 -3.11905 0
M  V30 4278 N 425.693 1.55336 -0.266172 0
M  V30 4279 C 426.656 2.20878 0.612001 0
M  V30 4280 C 427.656 1.18388 1.08816 0
M  V30 4281 O 428.846 1.4335 0.989774 0
M  V30 4282 C 425.978 2.86765 1.84332 0
M  V30 4283 H 427.171 2.99873 0.0398718 0
M  V30 4284 H 424.724 1.56291 -0.0167309 0
M  V30 4285 H 425.459 2.11759 2.45619 0
M  V30 4286 H 425.244 3.61862 1.5099 0
M  V30 4287 H 426.734 3.36867 2.46801 0
M  V30 4288 N 427.171 -0.0066808 1.57599 0
M  V30 4289 C 428.587 -0.36267 1.55425 0
M  V30 4290 C 428.787 -1.75209 0.995187 0
M  V30 4291 O 427.843 -2.44616 0.626058 0
M  V30 4292 C 429.156 -0.244017 2.99708 0
M  V30 4293 C 430.704 -0.319451 3.11366 0
M  V30 4294 C 431.179 -0.229998 4.57422 0
M  V30 4295 N 432.67 -0.288105 4.62303 0
M  V30 4296 C 433.405 -0.242127 5.72889 0
M  V30 4297 N 432.901 -0.147133 6.92644 0
M  V30 4298 N 434.694 -0.293502 5.61333 0
M  V30 4299 H 426.845 0.902314 1.92281 0
M  V30 4300 H 429.108 0.34525 0.882896 0
M  V30 4301 H 428.814 0.711678 3.44424 0
M  V30 4302 H 428.688 -1.02877 3.629 0
M  V30 4303 H 431.075 -1.26559 2.66584 0
M  V30 4304 H 431.156 0.495055 2.50964 0
M  V30 4305 H 430.8 0.712566 5.02877 0
M  V30 4306 H 430.73 -1.0629 5.15761 0
M  V30 4307 H 433.221 -0.363126 3.76151 0
M  V30 4308 H 433.534 -0.117763 7.7271 0
M  V30 4309 H 431.879 -0.112857 6.94908 0
M  V30 4310 H 435.07 -0.365864 4.66668 0
M  V30 4311 H 435.243 -0.254204 6.47501 0
M  V30 4312 O 428.688 -1.6081 -0.149083 0
M  V30 4313 H 429.379 -1.77145 -0.783536 0
M  V30 END ATOM
M  V30 BEGIN BOND
M  V30 END BOND
M  V30 END CTAB
M  END
$$$$
