drugbank_target|P39377 Isoaspartyl dipeptidase (DB02437; DB03801)
 OpenBabel12092120003D

  0  0  0     0  0            999 V3000
M  V30 BEGIN CTAB
M  V30 COUNTS 5798 5848 0 0 0
M  V30 BEGIN ATOM
M  V30 1 H -0.908 1.98254 -0.117106 0
M  V30 2 N 0 1.576 0 0
M  V30 3 C 0.933 2.03868 1.02534 0
M  V30 4 C 1.911 0.928543 1.3348 0
M  V30 5 O 3.095 1.19667 1.45644 0
M  V30 6 C 0.222 2.43627 2.35294 0
M  V30 7 C -0.732 3.65373 2.2001 0
M  V30 8 S 0.101 5.13292 1.52614 0
M  V30 9 C 1.257 5.56322 2.86805 0
M  V30 10 H 1.49 2.90518 0.631377 0
M  V30 11 H -0.977 1.52953 0.210867 0
M  V30 12 H 0.981 2.67203 3.11629 0
M  V30 13 H -0.358 1.57376 2.7183 0
M  V30 14 H -1.165 3.90944 3.18086 0
M  V30 15 H -1.563 3.418 1.51819 0
M  V30 16 H 0.729 5.58782 3.83104 0
M  V30 17 H 1.672 6.56266 2.65933 0
M  V30 18 H 2.08 4.83886 2.90714 0
M  V30 19 N 1.4781 -0.272755 1.55222 0
M  V30 20 C 2.7271 -1.00211 1.75045 0
M  V30 21 C 3.0401 -1.87441 0.559046 0
M  V30 22 O 4.2461 -2.63856 0.639698 0
M  V30 23 C 2.7021 -1.83165 3.09804 0
M  V30 24 C 2.3101 -1.008 4.36513 0
M  V30 25 C 4.0541 -2.55529 3.38977 0
M  V30 26 C 1.9611 -1.83194 5.62311 0
M  V30 27 H 0.8911 -0.377878 0.652476 0
M  V30 28 H 3.5421 -0.257776 1.8168 0
M  V30 29 H 1.9241 -2.61694 2.97207 0
M  V30 30 H 3.0981 -0.266855 4.60027 0
M  V30 31 H 1.4131 -0.398897 4.14485 0
M  V30 32 H 4.0101 -3.17578 4.30172 0
M  V30 33 H 4.3531 -3.25825 2.59121 0
M  V30 34 H 4.8861 -1.84029 3.52673 0
M  V30 35 H 1.6251 -1.17318 6.44916 0
M  V30 36 H 1.1451 -2.54905 5.4294 0
M  V30 37 H 2.8241 -2.40552 6.00619 0
M  V30 38 N 2.9562 -1.48159 -0.537278 0
M  V30 39 C 4.2332 -1.46291 -1.29839 0
M  V30 40 C 4.6132 -0.170613 -2.10409 0
M  V30 41 O 3.9612 0.847746 -2.12192 0
M  V30 42 C 4.1712 -2.72055 -2.18603 0
M  V30 43 C 5.5192 -3.20087 -2.7898 0
M  V30 44 O 6.5432 -2.72921 -2.28894 0
M  V30 45 O 5.4022 -4.02138 -3.70064 0
M  V30 46 H 2.4962 -0.583906 -0.585647 0
M  V30 47 H 5.0422 -1.60384 -0.554534 0
M  V30 48 H 3.8142 -3.57628 -1.58801 0
M  V30 49 H 3.4372 -2.60646 -3.00249 0
M  V30 50 N 4.4343 0.785586 -1.36625 0
M  V30 51 C 5.6643 1.5722 -1.34036 0
M  V30 52 C 6.0723 1.89033 0.0795062 0
M  V30 53 O 5.4153 1.50881 1.04789 0
M  V30 54 C 5.4773 2.91759 -2.10041 0
M  V30 55 C 5.1413 2.82654 -3.59104 0
M  V30 56 C 6.1383 2.54634 -4.53274 0
M  V30 57 C 3.8233 3.01111 -4.02042 0
M  V30 58 C 5.8173 2.45177 -5.88359 0
M  V30 59 C 3.5043 2.91276 -5.37216 0
M  V30 60 C 4.5023 2.63348 -6.30188 0
M  V30 61 O 4.1903 2.53514 -7.6288 0
M  V30 62 H 3.9223 0.494177 -0.461265 0
M  V30 63 H 6.4763 0.982632 -1.8037 0
M  V30 64 H 4.7063 3.52781 -1.58375 0
M  V30 65 H 6.3953 3.53059 -2.00261 0
M  V30 66 H 7.1613 2.40073 -4.21414 0
M  V30 67 H 3.0403 3.21854 -3.30047 0
M  V30 68 H 6.5843 2.23299 -6.60896 0
M  V30 69 H 2.4813 3.054 -5.68684 0
M  V30 70 H 3.2493 2.68967 -7.73045 0
M  V30 71 N 5.9124 1.20967 1.01018 0
M  V30 72 C 7.1404 1.04956 1.78303 0
M  V30 73 C 7.5554 -0.400915 1.84494 0
M  V30 74 O 6.9124 -1.27826 1.30257 0
M  V30 75 C 6.9634 1.63403 3.22462 0
M  V30 76 O 6.6844 3.02775 3.16637 0
M  V30 77 C 8.1854 1.52432 4.16268 0
M  V30 78 H 5.4054 0.368858 0.560522 0
M  V30 79 H 7.9494 1.60193 1.27116 0
M  V30 80 H 6.1044 1.1227 3.70775 0
M  V30 81 H 6.5184 3.30626 4.07169 0
M  V30 82 H 7.9924 1.98078 5.15237 0
M  V30 83 H 8.4694 0.477875 4.36592 0
M  V30 84 H 9.0754 2.02787 3.73841 0
M  V30 85 N 7.3905 -1.2043 1.01659 0
M  V30 86 C 8.3535 -2.21433 0.591616 0
M  V30 87 C 9.3535 -1.57203 -0.338226 0
M  V30 88 O 10.5435 -1.73737 -0.126918 0
M  V30 89 C 7.6755 -3.40628 -0.136058 0
M  V30 90 H 8.8685 -2.60545 1.48514 0
M  V30 91 H 6.4215 -1.33893 0.806379 0
M  V30 92 H 7.1565 -3.07019 -1.04449 0
M  V30 93 H 6.9415 -3.88475 0.531917 0
M  V30 94 H 8.4315 -4.15475 -0.420735 0
M  V30 95 N 8.8686 -0.792821 -1.36206 0
M  V30 96 C 9.8316 -0.199459 -2.2833 0
M  V30 97 C 10.8316 0.605189 -1.48977 0
M  V30 98 O 12.0216 0.425685 -1.68919 0
M  V30 99 C 9.1536 0.723523 -3.33134 0
M  V30 100 H 10.3466 -1.01181 -2.82316 0
M  V30 101 H 7.8996 -0.562485 -1.45828 0
M  V30 102 H 8.6346 1.56008 -2.84309 0
M  V30 103 H 8.4196 0.148436 -3.91819 0
M  V30 104 H 9.9096 1.13344 -4.01924 0
M  V30 105 N 10.3467 1.47872 -0.545128 0
M  V30 106 C 11.5947 2.02093 -0.016553 0
M  V30 107 C 11.9157 1.42305 1.3332 0
M  V30 108 O 11.1857 0.593853 1.86682 0
M  V30 109 H 9.7657 0.746993 -0.00313038 0
M  V30 110 H 12.4277 1.81414 -0.712397 0
M  V30 111 H 11.5237 3.11996 0.0805422 0
M  V30 112 N 11.8248 0.280983 1.55075 0
M  V30 113 C 13.0718 -0.334115 1.99725 0
M  V30 114 C 13.3998 -1.5542 1.1694 0
M  V30 115 O 12.6548 -1.94361 0.228531 0
M  V30 116 C 12.9538 -0.754656 3.49342 0
M  V30 117 C 12.6198 0.361445 4.49449 0
M  V30 118 C 11.2818 0.667893 4.76542 0
M  V30 119 C 13.6338 1.11322 5.09173 0
M  V30 120 C 10.9618 1.7296 5.60626 0
M  V30 121 C 13.3138 2.1647 5.9441 0
M  V30 122 C 11.9778 2.47742 6.19822 0
M  V30 123 H 11.2478 -0.122261 0.730844 0
M  V30 124 H 13.8948 0.395917 1.87363 0
M  V30 125 H 12.1998 -1.56446 3.5921 0
M  V30 126 H 13.8968 -1.24142 3.813 0
M  V30 127 H 10.4868 0.112481 4.28452 0
M  V30 128 H 14.6708 0.88973 4.8826 0
M  V30 129 H 9.9268 1.97684 5.78559 0
M  V30 130 H 14.1008 2.75193 6.3972 0
M  V30 131 H 11.7278 3.30145 6.84769 0
M  V30 132 N 13.3029 -1.57598 0.00835791 0
M  V30 133 C 14.5309 -1.95214 -0.68549 0
M  V30 134 C 14.9459 -0.883706 -1.66841 0
M  V30 135 O 14.3029 0.136565 -1.81988 0
M  V30 136 C 14.3539 -3.32865 -1.41007 0
M  V30 137 O 14.0749 -4.35609 -0.466552 0
M  V30 138 C 15.5759 -3.84991 -2.19765 0
M  V30 139 H 12.7959 -0.643422 -0.190392 0
M  V30 140 H 15.3399 -2.04406 0.0619607 0
M  V30 141 H 13.4949 -3.24956 -2.10908 0
M  V30 142 H 13.9089 -5.15288 -0.978699 0
M  V30 143 H 15.3829 -4.8371 -2.65948 0
M  V30 144 H 15.8599 -3.18137 -3.02796 0
M  V30 145 H 16.4659 -3.96103 -1.54864 0
M  V30 146 N 14.781 0.264519 -1.55364 0
M  V30 147 C 15.711 1.33121 -1.91836 0
M  V30 148 C 16.692 1.51101 -0.781192 0
M  V30 149 O 17.877 1.64003 -1.04003 0
M  V30 150 C 15.007 2.68921 -2.19769 0
M  V30 151 C 13.961 2.65661 -3.35571 0
M  V30 152 C 13.287 4.05093 -3.49004 0
M  V30 153 C 14.587 2.24187 -4.71739 0
M  V30 154 H 16.281 1.02844 -2.81182 0
M  V30 155 H 13.827 0.493286 -1.35287 0
M  V30 156 H 15.78 3.43663 -2.43872 0
M  V30 157 H 14.504 3.00799 -1.27231 0
M  V30 158 H 13.163 1.93377 -3.1145 0
M  V30 159 H 12.811 4.34206 -2.53917 0
M  V30 160 H 12.511 4.03804 -4.26868 0
M  V30 161 H 14.035 4.81561 -3.75408 0
M  V30 162 H 15.449 2.88654 -4.9533 0
M  V30 163 H 13.846 2.34044 -5.52579 0
M  V30 164 H 14.916 1.19327 -4.69988 0
M  V30 165 N 16.2591 1.48442 0.529413 0
M  V30 166 C 17.1891 1.65902 1.64313 0
M  V30 167 C 18.1701 0.507897 1.6234 0
M  V30 168 O 19.3551 0.740503 1.79528 0
M  V30 169 C 16.4851 1.69911 3.02898 0
M  V30 170 C 15.4391 2.8453 3.19729 0
M  V30 171 C 14.7651 2.73629 4.59381 0
M  V30 172 C 16.0651 4.25821 3.02447 0
M  V30 173 H 17.7591 2.5914 1.49955 0
M  V30 174 H 15.3051 1.24709 0.719982 0
M  V30 175 H 17.2581 1.80715 3.80684 0
M  V30 176 H 15.9821 0.732524 3.18279 0
M  V30 177 H 14.6411 2.73283 2.44361 0
M  V30 178 H 14.2891 1.74938 4.71599 0
M  V30 179 H 13.9891 3.50541 4.71588 0
M  V30 180 H 15.5131 2.86401 5.39265 0
M  V30 181 H 16.9271 4.37898 3.70024 0
M  V30 182 H 15.3241 5.03735 3.26146 0
M  V30 183 H 16.3941 4.42244 1.98867 0
M  V30 184 N 17.7372 -0.778329 1.37039 0
M  V30 185 C 18.6692 -1.90034 1.2814 0
M  V30 186 C 19.6822 -1.61585 0.198558 0
M  V30 187 O 20.8712 -1.72625 0.454175 0
M  V30 188 C 17.9712 -3.25108 0.956968 0
M  V30 189 C 17.1442 -3.81253 2.14394 0
M  V30 190 C 16.2032 -4.94789 1.79082 0
M  V30 191 O 15.2292 -5.10721 2.51301 0
M  V30 192 N 16.4312 -5.75878 0.731043 0
M  V30 193 H 19.1962 -1.98186 2.24816 0
M  V30 194 H 16.7572 -0.957129 1.30578 0
M  V30 195 H 18.7492 -3.9857 0.701701 0
M  V30 196 H 17.3192 -3.125 0.0789812 0
M  V30 197 H 16.5392 -2.99647 2.56135 0
M  V30 198 H 17.8272 -4.15495 2.93668 0
M  V30 199 H 17.2252 -5.65547 0.131618 0
M  V30 200 H 15.7822 -6.49596 0.535622 0
M  V30 201 N 19.2153 -1.21501 -1.00376 0
M  V30 202 C 20.4633 -1.03095 -1.73827 0
M  V30 203 C 20.7843 0.436341 -1.90055 0
M  V30 204 O 20.0543 1.31466 -1.45236 0
M  V30 205 H 18.6343 -0.378487 -0.644016 0
M  V30 206 H 21.2963 -1.52831 -1.20949 0
M  V30 207 H 20.3923 -1.49991 -2.73695 0
M  V30 208 N 20.6934 1.19889 -1.02296 0
M  V30 209 C 21.6564 2.21116 -0.603351 0
M  V30 210 C 22.6564 1.5738 0.329884 0
M  V30 211 O 23.8464 1.73802 0.117702 0
M  V30 212 C 20.9784 3.40696 0.117992 0
M  V30 213 H 22.1714 2.59754 -1.49893 0
M  V30 214 H 19.7244 1.33463 -0.813468 0
M  V30 215 H 20.4594 3.07569 1.0282 0
M  V30 216 H 20.2444 3.88188 -0.552511 0
M  V30 217 H 21.7344 4.15692 0.398696 0
M  V30 218 N 22.1715 0.800033 1.35784 0
M  V30 219 C 23.1215 0.178654 2.27299 0
M  V30 220 C 24.1055 -0.643667 1.47464 0
M  V30 221 O 25.2975 -0.502 1.69732 0
M  V30 222 C 22.4265 -0.677194 3.36555 0
M  V30 223 C 21.5125 0.154497 4.23818 0
M  V30 224 N 21.9035 1.21427 4.91008 0
M  V30 225 C 20.2015 -0.0649462 4.45953 0
M  V30 226 C 20.9025 1.72147 5.55644 0
M  V30 227 N 19.8785 1.02897 5.33773 0
M  V30 228 H 23.6805 0.989637 2.76737 0
M  V30 229 H 21.1945 0.64054 1.49234 0
M  V30 230 H 23.1915 -1.13835 4.01058 0
M  V30 231 H 21.8515 -1.4866 2.8867 0
M  V30 232 H 22.8625 1.59684 4.92668 0
M  V30 233 H 19.5395 -0.844016 4.0888 0
M  V30 234 H 20.9295 2.60683 6.19269 0
M  V30 235 N 23.6496 -1.47581 0.552962 0
M  V30 236 C 24.5796 -2.32762 -0.185451 0
M  V30 237 C 25.5606 -1.43527 -0.912905 0
M  V30 238 O 26.7456 -1.72388 -0.894201 0
M  V30 239 C 23.8756 -3.25219 -1.21859 0
M  V30 240 C 22.8296 -4.23661 -0.607864 0
M  V30 241 C 22.1556 -5.05413 -1.74533 0
M  V30 242 C 23.4556 -5.20481 0.435582 0
M  V30 243 H 25.1496 -2.94749 0.525684 0
M  V30 244 H 22.6956 -1.41738 0.254251 0
M  V30 245 H 24.6486 -3.8365 -1.7433 0
M  V30 246 H 23.3726 -2.61279 -1.95961 0
M  V30 247 H 22.0316 -3.66451 -0.104489 0
M  V30 248 H 21.6796 -4.3788 -2.47529 0
M  V30 249 H 21.3796 -5.72059 -1.34249 0
M  V30 250 H 22.9036 -5.66701 -2.27338 0
M  V30 251 H 24.3176 -5.733 -0.00290157 0
M  V30 252 H 22.7146 -5.95305 0.757067 0
M  V30 253 H 23.7846 -4.66217 1.33303 0
M  V30 254 N 25.1277 -0.289203 -1.54924 0
M  V30 255 C 26.3577 0.325989 -2.04012 0
M  V30 256 C 26.7657 1.48961 -1.1665 0
M  V30 257 O 26.1087 1.82794 -0.1822 0
M  V30 258 C 26.1707 0.856112 -3.49158 0
M  V30 259 C 25.8347 -0.180697 -4.56643 0
M  V30 260 C 26.8317 -1.0051 -5.10092 0
M  V30 261 C 24.5167 -0.318998 -5.01286 0
M  V30 262 C 26.5107 -1.95385 -6.06715 0
M  V30 263 C 24.1977 -1.27121 -5.97732 0
M  V30 264 C 25.1957 -2.08713 -6.50329 0
M  V30 265 O 24.8837 -3.02322 -7.44887 0
M  V30 266 H 24.6157 0.0765276 -0.671654 0
M  V30 267 H 27.1697 -0.423254 -2.00992 0
M  V30 268 H 25.3997 1.65567 -3.49463 0
M  V30 269 H 27.0887 1.38591 -3.81507 0
M  V30 270 H 27.8547 -0.90906 -4.76404 0
M  V30 271 H 23.7337 0.306108 -4.59983 0
M  V30 272 H 27.2777 -2.59111 -6.47694 0
M  V30 273 H 23.1747 -1.36801 -6.30837 0
M  V30 274 H 23.9427 -2.97165 -7.6265 0
M  V30 275 N 26.6058 1.57591 -0.0167156 0
M  V30 276 C 27.5688 2.08393 0.954204 0
M  V30 277 C 28.5688 0.996531 1.26198 0
M  V30 278 O 29.7588 1.25858 1.20438 0
M  V30 279 C 26.8908 2.5394 2.27436 0
M  V30 280 H 28.0838 2.95455 0.514451 0
M  V30 281 H 25.6368 1.54582 0.231089 0
M  V30 282 H 26.3718 1.70171 2.76066 0
M  V30 283 H 26.1568 3.33371 2.06412 0
M  V30 284 H 27.6468 2.93512 2.97053 0
M  V30 285 N 28.0839 -0.256276 1.55502 0
M  V30 286 C 29.4949 -0.826068 1.67431 0
M  V30 287 C 29.8459 -1.86396 0.612446 0
M  V30 288 O 28.9709 -2.15031 -0.243025 0
M  V30 289 C 29.5659 -1.50512 3.03532 0
M  V30 290 C 28.1249 -2.02273 3.17431 0
M  V30 291 C 27.2719 -0.870548 2.63281 0
M  V30 292 H 30.2229 -0.0322728 1.58667 0
M  V30 293 H 30.2439 -2.37279 2.97454 0
M  V30 294 H 29.7559 -0.749484 3.80794 0
M  V30 295 H 27.8569 -2.80746 2.44974 0
M  V30 296 H 27.9699 -2.22655 4.24219 0
M  V30 297 H 26.3339 -1.26851 2.20864 0
M  V30 298 H 27.1169 -0.128149 3.43061 0
M  V30 299 N 29.562 -1.4872 -0.521534 0
M  V30 300 C 30.472 -1.66569 -1.65203 0
M  V30 301 C 31.488 -0.548197 -1.65139 0
M  V30 302 O 32.664 -0.820339 -1.83936 0
M  V30 303 C 29.729 -1.70917 -3.01642 0
M  V30 304 C 28.79 -2.94356 -3.12495 0
M  V30 305 C 28.023 -2.98487 -4.42426 0
M  V30 306 O 28.246 -2.10786 -5.30024 0
M  V30 307 O 27.18 -3.90746 -4.57822 0
M  V30 308 H 31.006 -2.62298 -1.5308 0
M  V30 309 H 28.591 -1.3222 -0.695565 0
M  V30 310 H 30.473 -1.7625 -3.82771 0
M  V30 311 H 29.148 -0.783633 -3.14071 0
M  V30 312 H 28.055 -2.94552 -2.3063 0
M  V30 313 H 29.388 -3.86322 -3.04986 0
M  V30 314 N 31.0401 0.771051 -1.3745 0
M  V30 315 C 32.3171 1.519 -1.23231 0
M  V30 316 C 32.6971 2.10383 0.173809 0
M  V30 317 O 32.0451 1.95583 1.18151 0
M  V30 318 C 32.2551 2.59933 -2.32886 0
M  V30 319 C 33.6031 3.27316 -2.70461 0
M  V30 320 O 34.6271 2.70228 -2.32068 0
M  V30 321 O 33.4861 4.30531 -3.36608 0
M  V30 322 H 30.5801 0.672803 -0.480901 0
M  V30 323 H 33.1261 0.807957 -1.49232 0
M  V30 324 H 31.8981 2.14842 -3.27045 0
M  V30 325 H 31.5211 3.38637 -2.08353 0
M  V30 326 N 32.5182 1.22032 0.997298 0
M  V30 327 C 33.9342 0.979326 1.26021 0
M  V30 328 C 34.1342 -0.32972 1.98784 0
M  V30 329 O 33.1902 -1.05345 2.29475 0
M  V30 330 C 34.5032 2.17509 2.07631 0
M  V30 331 C 36.0512 2.21817 2.2083 0
M  V30 332 C 36.5262 3.40933 3.05825 0
M  V30 333 N 38.0172 3.41067 3.13412 0
M  V30 334 C 38.7522 4.29885 3.79455 0
M  V30 335 N 38.2482 5.28914 4.47462 0
M  V30 336 N 40.0412 4.17673 3.76173 0
M  V30 337 H 32.1922 2.06202 0.509352 0
M  V30 338 H 34.4552 0.90334 0.287541 0
M  V30 339 H 34.1612 3.12415 1.61524 0
M  V30 340 H 34.0352 2.17206 3.08385 0
M  V30 341 H 36.4222 1.27462 2.66153 0
M  V30 342 H 36.5032 2.2616 1.1952 0
M  V30 343 H 36.1472 4.35586 2.61203 0
M  V30 344 H 36.0772 3.33829 4.07266 0
M  V30 345 H 38.5682 2.69406 2.65007 0
M  V30 346 H 38.8812 5.92973 4.95583 0
M  V30 347 H 37.2262 5.32831 4.46224 0
M  V30 348 H 40.4172 3.39564 3.22202 0
M  V30 349 H 40.5902 4.87098 4.27363 0
M  V30 350 N 33.9963 -1.19345 1.0293 0
M  V30 351 C 35.2443 -1.88665 0.724574 0
M  V30 352 C 35.5653 -1.80036 -0.749144 0
M  V30 353 O 34.8353 -1.2111 -1.53978 0
M  V30 354 H 33.4153 -0.698406 0.265025 0
M  V30 355 H 36.0773 -1.44885 1.30362 0
M  V30 356 H 35.1733 -2.94987 1.01926 0
M  V30 357 N 35.4744 -0.807222 -1.35358 0
M  V30 358 C 36.7234 -0.384376 -1.98004 0
M  V30 359 C 37.0364 1.0543 -1.64754 0
M  V30 360 O 38.2424 1.58029 -2.20769 0
M  V30 361 C 36.6984 -0.636326 -3.5423 0
M  V30 362 C 36.3064 -2.08759 -3.96388 0
M  V30 363 C 38.0504 -0.278869 -4.23583 0
M  V30 364 C 35.9574 -2.28525 -5.45463 0
M  V30 365 H 34.8874 -0.139986 -0.740891 0
M  V30 366 H 37.5384 -0.991369 -1.54415 0
M  V30 367 H 35.9204 0.0406256 -3.95979 0
M  V30 368 H 37.0944 -2.8024 -3.6579 0
M  V30 369 H 35.4094 -2.40497 -3.39926 0
M  V30 370 H 38.0064 -0.404599 -5.33167 0
M  V30 371 H 38.3494 0.775012 -4.09022 0
M  V30 372 H 38.8824 -0.909764 -3.87257 0
M  V30 373 H 35.6214 -3.32361 -5.64992 0
M  V30 374 H 35.1414 -1.61569 -5.77629 0
M  V30 375 H 36.8204 -2.10109 -6.11934 0
M  V30 376 N 36.9525 1.47285 -0.560781 0
M  V30 377 C 38.1925 2.0436 -0.0404627 0
M  V30 378 C 38.5565 1.42534 1.28639 0
M  V30 379 O 39.7575 1.90677 1.89462 0
M  V30 380 C 38.0285 3.57369 0.0471856 0
M  V30 381 S 39.5875 4.3579 0.513109 0
M  V30 382 H 36.4055 0.710492 -0.0268674 0
M  V30 383 H 39.0075 1.80611 -0.748323 0
M  V30 384 H 37.7115 3.9989 -0.922817 0
M  V30 385 H 37.2425 3.8562 0.778491 0
M  V30 386 H 39.2575 4.63476 1.77212 0
M  V30 387 N 38.4306 0.297415 1.54768 0
M  V30 388 C 39.7076 -0.365847 1.92148 0
M  V30 389 C 40.0876 -1.71975 1.22424 0
M  V30 390 O 39.4356 -2.25666 0.358739 0
M  V30 391 C 39.6456 -0.484056 3.45627 0
M  V30 392 C 40.9936 -0.756594 4.17805 0
M  V30 393 O 42.0176 -0.568007 3.51642 0
M  V30 394 O 40.8766 -1.11863 5.34929 0
M  V30 395 H 37.9706 -0.203919 0.801465 0
M  V30 396 H 40.5166 0.34521 1.66152 0
M  V30 397 H 39.2886 0.467865 3.88493 0
M  V30 398 H 38.9116 -1.24372 3.77647 0
M  V30 399 N 39.9087 -1.5758 0.0250728 0
M  V30 400 C 41.1547 -1.91917 -0.655413 0
M  V30 401 C 41.4877 -0.901433 -1.72011 0
M  V30 402 O 40.7627 0.0764069 -1.9435 0
M  V30 403 C 41.0457 -3.36751 -1.27558 0
M  V30 404 C 40.8987 -4.49258 -0.220719 0
M  V30 405 C 42.2177 -3.81469 -2.19475 0
M  V30 406 H 39.3367 -0.697925 -0.23679 0
M  V30 407 H 41.9787 -1.89825 0.0815036 0
M  V30 408 H 40.1287 -3.38664 -1.90365 0
M  V30 409 H 41.8007 -4.59478 0.409601 0
M  V30 410 H 40.0437 -4.31415 0.454264 0
M  V30 411 H 40.7147 -5.47618 -0.694175 0
M  V30 412 H 43.1907 -3.81266 -1.66659 0
M  V30 413 H 42.0667 -4.83512 -2.59822 0
M  V30 414 H 42.3277 -3.16744 -3.08424 0
M  V30 415 N 41.3868 0.248026 -1.55636 0
M  V30 416 C 42.3168 1.31079 -1.93237 0
M  V30 417 C 43.2978 1.50264 -0.797174 0
M  V30 418 O 44.4828 1.62891 -1.05737 0
M  V30 419 C 41.6128 2.66575 -2.22609 0
M  V30 420 C 40.5668 2.62087 -3.3837 0
M  V30 421 C 39.8928 4.01369 -3.53281 0
M  V30 422 C 41.1928 2.19171 -4.7409 0
M  V30 423 H 42.8868 0.998556 -2.82257 0
M  V30 424 H 40.4328 0.47891 -1.35803 0
M  V30 425 H 42.3858 3.41057 -2.47503 0
M  V30 426 H 41.1098 2.99432 -1.30414 0
M  V30 427 H 39.7688 1.90063 -3.13483 0
M  V30 428 H 39.4168 4.31489 -2.58508 0
M  V30 429 H 39.1168 3.99254 -4.31127 0
M  V30 430 H 40.6408 4.77552 -3.80495 0
M  V30 431 H 42.0548 2.83384 -4.98363 0
M  V30 432 H 40.4518 2.2817 -5.5503 0
M  V30 433 H 41.5218 1.14336 -4.71227 0
M  V30 434 N 42.8649 1.48995 0.513639 0
M  V30 435 C 44.1109 1.58076 1.27042 0
M  V30 436 C 44.4439 0.261026 1.92438 0
M  V30 437 O 43.7189 -0.734393 1.80103 0
M  V30 438 C 44.0019 2.73091 2.34719 0
M  V30 439 C 43.8549 4.14821 1.73907 0
M  V30 440 C 45.1739 2.83796 3.36375 0
M  V30 441 H 42.2929 0.575391 0.460536 0
M  V30 442 H 44.9349 1.81232 0.570516 0
M  V30 443 H 43.0849 2.53479 2.94416 0
M  V30 444 H 44.7569 4.45917 1.18135 0
M  V30 445 H 42.9999 4.21058 1.0437 0
M  V30 446 H 43.6709 4.91147 2.51949 0
M  V30 447 H 46.1469 3.01611 2.86653 0
M  V30 448 H 45.0229 3.65971 4.09093 0
M  V30 449 H 45.2839 1.92624 3.9793 0
M  V30 450 N 44.343 -0.763751 1.37857 0
M  V30 451 C 45.306 -1.85889 1.34081 0
M  V30 452 C 46.306 -1.58949 0.243277 0
M  V30 453 O 47.496 -1.66882 0.499589 0
M  V30 454 C 44.628 -3.23176 1.08489 0
M  V30 455 H 45.821 -1.90648 2.31502 0
M  V30 456 H 43.374 -0.964367 1.23003 0
M  V30 457 H 44.109 -3.24091 0.116318 0
M  V30 458 H 43.894 -3.44124 1.8794 0
M  V30 459 H 45.384 -4.03254 1.08517 0
M  V30 460 N 45.8211 -1.22559 -0.990812 0
M  V30 461 C 46.7691 -0.994798 -2.10253 0
M  V30 462 C 47.7631 0.0627798 -1.69284 0
M  V30 463 O 48.9691 -0.0898392 -1.79776 0
M  V30 464 H 45.3441 -0.304527 -0.687581 0
M  V30 465 H 47.3151 -1.93812 -2.26891 0
M  V30 466 C 46.0641 -0.591439 -3.42633 0
M  V30 467 H 45.3871 -1.3969 -3.74602 0
M  V30 468 H 46.8271 -0.469385 -4.21394 0
M  V30 469 C 45.2861 0.699232 -3.29564 0
M  V30 470 O 45.8161 1.75112 -3.61523 0
M  V30 471 N 44.0221 0.671182 -2.82743 0
M  V30 472 H 43.5691 -0.185136 -2.56934 0
M  V30 473 H 43.5271 1.53502 -2.7438 0
M  V30 474 N 47.2992 1.18797 -1.03562 0
M  V30 475 C 48.5472 1.88278 -0.734569 0
M  V30 476 C 48.8682 1.8043 0.739586 0
M  V30 477 O 48.1382 1.21925 1.53333 0
M  V30 478 H 46.7182 0.696991 -0.268725 0
M  V30 479 H 49.3802 1.44192 -1.31129 0
M  V30 480 H 48.4762 2.94443 -1.03489 0
M  V30 481 N 48.7773 0.814389 1.34928 0
M  V30 482 C 49.7243 0.22822 2.29669 0
M  V30 483 C 50.6943 -0.642164 1.53184 0
M  V30 484 O 51.8793 -0.585605 1.81591 0
M  V30 485 C 49.0193 -0.61089 3.3965 0
M  V30 486 C 48.1323 0.280792 4.31086 0
M  V30 487 C 47.2673 -0.567067 5.28165 0
M  V30 488 C 46.3063 0.324531 6.11239 0
M  V30 489 N 45.4433 -0.483756 7.00431 0
M  V30 490 H 50.2833 1.04153 2.79206 0
M  V30 491 H 47.8203 0.525133 1.37407 0
M  V30 492 H 49.7783 -1.11263 4.0209 0
M  V30 493 H 48.4083 -1.38939 2.91369 0
M  V30 494 H 47.4603 0.900688 3.69583 0
M  V30 495 H 48.7723 0.966723 4.89342 0
M  V30 496 H 47.9263 -1.13363 5.96015 0
M  V30 497 H 46.6653 -1.28654 4.70425 0
M  V30 498 H 45.6703 0.903298 5.42329 0
M  V30 499 H 46.8953 1.04198 6.71059 0
M  V30 500 H 44.8413 -1.18706 6.45171 0
M  V30 501 H 44.7583 0.143965 7.55863 0
M  V30 502 H 46.0263 -1.03334 7.7262 0
M  V30 503 N 50.2554 -1.46986 0.568584 0
M  V30 504 C 51.5044 -2.01646 0.0465894 0
M  V30 505 C 51.8174 -1.44721 -1.31587 0
M  V30 506 O 53.0234 -1.91113 -1.92842 0
M  V30 507 C 51.4794 -3.59885 0.032752 0
M  V30 508 C 51.0874 -4.25804 1.39266 0
M  V30 509 C 52.8314 -4.22255 -0.436038 0
M  V30 510 C 50.7384 -5.76081 1.33732 0
M  V30 511 H 49.6684 -0.753876 0.013647 0
M  V30 512 H 52.3194 -1.68864 0.718131 0
M  V30 513 H 50.7014 -3.8968 -0.704669 0
M  V30 514 H 51.8754 -4.07637 2.1487 0
M  V30 515 H 50.1904 -3.7547 1.80032 0
M  V30 516 H 52.7874 -5.32394 -0.49602 0
M  V30 517 H 53.1304 -3.90212 -1.45053 0
M  V30 518 H 53.6634 -3.97033 0.246877 0
M  V30 519 H 50.4024 -6.12761 2.32817 0
M  V30 520 H 49.9224 -5.96553 0.623267 0
M  V30 521 H 51.6014 -6.38518 1.0442 0
M  V30 522 N 51.7335 -0.305618 -1.54608 0
M  V30 523 C 52.9825 0.303098 -1.9941 0
M  V30 524 C 53.2955 1.54648 -1.19764 0
M  V30 525 O 54.5015 2.23007 -1.54855 0
M  V30 526 C 52.9575 0.590588 -3.55021 0
M  V30 527 C 52.5655 -0.634719 -4.43481 0
M  V30 528 C 54.3095 1.16025 -4.08336 0
M  V30 529 C 52.2165 -0.320126 -5.90533 0
M  V30 530 H 51.1465 0.117031 -0.744862 0
M  V30 531 H 53.7975 -0.415045 -1.78745 0
M  V30 532 H 52.1795 1.36845 -3.71604 0
M  V30 533 H 53.3535 -1.41079 -4.38672 0
M  V30 534 H 51.6685 -1.12333 -4.00962 0
M  V30 535 H 54.2655 1.40994 -5.15776 0
M  V30 536 H 54.6085 2.10397 -3.5922 0
M  V30 537 H 55.1415 0.443985 -3.95315 0
M  V30 538 H 51.8805 -1.23254 -6.43808 0
M  V30 539 H 51.4005 0.418579 -5.98338 0
M  V30 540 H 53.0795 0.0766241 -6.46955 0
M  V30 541 N 53.2116 1.57565 -0.0334293 0
M  V30 542 C 54.1746 2.09393 0.932048 0
M  V30 543 C 55.1746 1.00986 1.25134 0
M  V30 544 O 56.3646 1.27129 1.19096 0
M  V30 545 C 53.4966 2.56338 2.2473 0
M  V30 546 H 54.6896 2.95984 0.483085 0
M  V30 547 H 52.2426 1.54819 0.21468 0
M  V30 548 H 52.9776 1.7309 2.74245 0
M  V30 549 H 52.7626 3.35542 2.02865 0
M  V30 550 H 54.2526 2.96646 2.93923 0
M  V30 551 N 54.6897 -0.239769 1.55765 0
M  V30 552 C 55.9357 -0.968234 1.78194 0
M  V30 553 C 56.2687 -1.84701 0.599938 0
M  V30 554 O 55.5437 -1.9031 -0.401524 0
M  V30 555 C 55.8267 -1.8227 3.10564 0
M  V30 556 C 55.6797 -0.971633 4.3918 0
M  V30 557 C 56.9987 -2.80388 3.39221 0
M  V30 558 H 54.1177 -0.350572 0.648281 0
M  V30 559 H 56.7597 -0.238259 1.885 0
M  V30 560 H 54.9097 -2.44507 3.01908 0
M  V30 561 H 56.5817 -0.367408 4.59835 0
M  V30 562 H 54.8247 -0.276276 4.32919 0
M  V30 563 H 55.4957 -1.60346 5.28198 0
M  V30 564 H 57.9717 -2.28287 3.47885 0
M  V30 565 H 56.8477 -3.3729 4.33044 0
M  V30 566 H 57.1087 -3.57212 2.60484 0
M  V30 567 N 56.1678 -1.49265 -0.50573 0
M  V30 568 C 57.1308 -1.65075 -1.59006 0
M  V30 569 C 58.1308 -0.522768 -1.52065 0
M  V30 570 O 59.3208 -0.789117 -1.55302 0
M  V30 571 C 56.4528 -1.64369 -2.98656 0
M  V30 572 H 57.6458 -2.61784 -1.46319 0
M  V30 573 H 55.1988 -1.38226 -0.729616 0
M  V30 574 H 55.9338 -0.692272 -3.16825 0
M  V30 575 H 55.7188 -2.46282 -3.05103 0
M  V30 576 H 57.2088 -1.78674 -3.77446 0
M  V30 577 N 57.6459 0.756429 -1.3826 0
M  V30 578 C 58.8709 1.55077 -1.37717 0
M  V30 579 C 59.2959 1.88073 0.03164 0
M  V30 580 O 58.6539 1.50364 1.01293 0
M  V30 581 C 58.7019 2.8283 -2.23695 0
M  V30 582 O 57.8059 3.77862 -1.6521 0
M  V30 583 H 57.1469 0.469152 -0.469885 0
M  V30 584 H 59.6769 0.935019 -1.81985 0
M  V30 585 H 59.6869 3.31783 -2.37453 0
M  V30 586 H 58.3619 2.58144 -3.2609 0
M  V30 587 H 56.9389 3.36555 -1.60578 0
M  V30 588 N 59.124 1.23083 0.984299 0
M  V30 589 C 60.072 1.00593 2.09723 0
M  V30 590 C 61.066 -0.0538014 1.69315 0
M  V30 591 O 62.272 0.0993719 1.79725 0
M  V30 592 H 58.647 0.30817 0.685956 0
M  V30 593 H 60.618 1.95012 2.2586 0
M  V30 594 C 59.367 0.609601 3.42314 0
M  V30 595 H 58.69 1.41675 3.73856 0
M  V30 596 H 60.13 0.491726 4.21139 0
M  V30 597 C 58.589 -0.681745 3.2993 0
M  V30 598 O 59.119 -1.73192 3.62446 0
M  V30 599 N 57.325 -0.656178 2.83095 0
M  V30 600 H 56.872 0.198759 2.56832 0
M  V30 601 H 56.83 -1.52044 2.75191 0
M  V30 602 N 60.6021 -1.18246 1.0419 0
M  V30 603 C 61.8511 -1.87588 0.741194 0
M  V30 604 C 62.1641 -1.81303 -0.734066 0
M  V30 605 O 63.3701 -2.46019 -1.14834 0
M  V30 606 C 61.8261 -3.36538 1.27555 0
M  V30 607 C 61.4341 -3.51349 2.77953 0
M  V30 608 C 63.1781 -4.11273 1.05143 0
M  V30 609 C 61.0851 -4.94265 3.2474 0
M  V30 610 H 60.0151 -0.702622 0.273565 0
M  V30 611 H 62.6661 -1.33601 1.25789 0
M  V30 612 H 61.0481 -3.9 0.686703 0
M  V30 613 H 62.2221 -3.08153 3.42605 0
M  V30 614 H 60.5371 -2.90022 2.98791 0
M  V30 615 H 63.1341 -5.16689 1.37611 0
M  V30 616 H 63.4771 -4.16298 -0.0112774 0
M  V30 617 H 64.0101 -3.63987 1.60495 0
M  V30 618 H 60.7491 -4.94408 4.30396 0
M  V30 619 H 60.2691 -5.38172 2.64823 0
M  V30 620 H 61.9481 -5.62987 3.18834 0
M  V30 621 N 62.0802 -0.821533 -1.34494 0
M  V30 622 C 63.4912 -0.467956 -1.8074 0
M  V30 623 C 63.8422 1.01151 -1.68116 0
M  V30 624 O 62.9672 1.78707 -1.22036 0
M  V30 625 C 63.5622 -0.842627 -3.28154 0
M  V30 626 C 62.1212 -0.541439 -3.72485 0
M  V30 627 C 61.2682 -1.06028 -2.56229 0
M  V30 628 H 64.2192 -1.01183 -1.22261 0
M  V30 629 H 64.2402 -0.145876 -3.8022 0
M  V30 630 H 63.7522 -1.91945 -3.37311 0
M  V30 631 H 61.8532 0.526034 -3.68868 0
M  V30 632 H 61.9662 -1.08453 -4.66663 0
M  V30 633 H 60.3302 -0.481892 -2.501 0
M  V30 634 H 61.1132 -2.14352 -2.68157 0
M  V30 635 N 63.5583 1.46682 -0.576371 0
M  V30 636 C 64.7833 2.07304 -0.0630475 0
M  V30 637 C 65.2083 1.42329 1.2298 0
M  V30 638 O 64.5663 0.504865 1.74129 0
M  V30 639 C 64.6143 3.60472 0.095895 0
M  V30 640 O 63.7183 3.95927 1.15394 0
M  V30 641 H 63.0593 0.661288 -0.0599463 0
M  V30 642 H 65.5893 1.88417 -0.797511 0
M  V30 643 H 65.5993 4.06865 0.304071 0
M  V30 644 H 64.2743 4.07157 -0.84828 0
M  V30 645 H 62.8513 3.61252 0.924724 0
M  V30 646 N 65.0364 0.313813 1.54444 0
M  V30 647 C 66.3134 -0.345447 1.92525 0
M  V30 648 C 66.6934 -1.70667 1.24242 0
M  V30 649 O 66.0414 -2.25273 0.382654 0
M  V30 650 C 66.2514 -0.44737 3.46121 0
M  V30 651 C 67.5994 -0.712238 4.18584 0
M  V30 652 O 68.6234 -0.530678 3.52225 0
M  V30 653 O 67.4824 -1.06183 5.36085 0
M  V30 654 H 64.5764 -0.195407 0.803583 0
M  V30 655 H 67.1224 0.362813 1.65776 0
M  V30 656 H 65.8944 0.509043 3.87975 0
M  V30 657 H 65.5174 -1.20359 3.78945 0
M  V30 658 N 66.5145 -1.57545 0.0417849 0
M  V30 659 C 67.7635 -1.91494 -0.633492 0
M  V30 660 C 68.0765 -0.921084 -1.72556 0
M  V30 661 O 69.2825 -1.15228 -2.45835 0
M  V30 662 C 67.7385 -3.40072 -1.17808 0
M  V30 663 C 67.3465 -4.47843 -0.118633 0
M  V30 664 C 69.0905 -3.8307 -1.82915 0
M  V30 665 C 66.9975 -5.87529 -0.675578 0
M  V30 666 H 65.9275 -0.714653 -0.24039 0
M  V30 667 H 68.5785 -1.83175 0.109148 0
M  V30 668 H 66.9605 -3.43364 -1.97274 0
M  V30 669 H 68.1345 -4.56128 0.654494 0
M  V30 670 H 66.4495 -4.14128 0.434414 0
M  V30 671 H 69.0465 -4.84794 -2.25563 0
M  V30 672 H 69.3895 -3.1881 -2.67705 0
M  V30 673 H 69.9225 -3.82255 -1.10119 0
M  V30 674 H 66.6615 -6.55362 0.134475 0
M  V30 675 H 66.1815 -5.82824 -1.4169 0
M  V30 676 H 67.8605 -6.36491 -1.1614 0
M  V30 677 N 67.9926 0.231505 -1.5589 0
M  V30 678 C 69.2386 0.95877 -1.78705 0
M  V30 679 C 69.5716 1.8438 -0.609725 0
M  V30 680 O 68.8466 1.90521 0.391426 0
M  V30 681 C 69.1296 1.8062 -3.11526 0
M  V30 682 C 68.9826 0.948328 -4.39689 0
M  V30 683 C 70.3016 2.78585 -3.40703 0
M  V30 684 H 67.4206 0.347129 -0.650131 0
M  V30 685 H 70.0626 0.228259 -1.88624 0
M  V30 686 H 68.2126 2.42902 -3.03201 0
M  V30 687 H 69.8846 0.343016 -4.60023 0
M  V30 688 H 68.1276 0.253314 -4.3306 0
M  V30 689 H 68.7986 1.57543 -5.29041 0
M  V30 690 H 71.2746 2.26439 -3.49091 0
M  V30 691 H 70.1506 3.34988 -4.34826 0
M  V30 692 H 70.4116 3.55825 -2.62375 0
M  V30 693 N 69.4707 1.49531 0.497807 0
M  V30 694 C 70.8817 1.52344 1.07927 0
M  V30 695 C 71.2327 0.311469 1.93712 0
M  V30 696 O 70.3577 -0.578405 2.08527 0
M  V30 697 C 70.9527 2.76062 1.96405 0
M  V30 698 C 69.5117 2.81643 2.49709 0
M  V30 699 C 68.6587 2.46299 1.27404 0
M  V30 700 H 71.6097 1.56182 0.281576 0
M  V30 701 H 71.6307 2.56405 2.81135 0
M  V30 702 H 71.1427 3.64254 1.33943 0
M  V30 703 H 69.2437 1.97739 3.15801 0
M  V30 704 H 69.3567 3.83891 2.86643 0
M  V30 705 H 67.7207 1.98148 1.60029 0
M  V30 706 H 68.5037 3.36769 0.66645 0
M  V30 707 N 70.9488 -0.749086 1.3866 0
M  V30 708 C 71.8968 -1.88428 1.36373 0
M  V30 709 C 72.8908 -1.67561 0.248929 0
M  V30 710 O 74.0968 -1.75074 0.41821 0
M  V30 711 H 70.4718 -0.620023 0.42553 0
M  V30 712 H 72.4428 -1.87473 2.32156 0
M  V30 713 C 71.1918 -3.25961 1.21014 0
M  V30 714 H 70.5148 -3.42607 2.06059 0
M  V30 715 H 71.9548 -4.05625 1.23469 0
M  V30 716 C 70.4138 -3.36799 -0.0825941 0
M  V30 717 O 70.9438 -3.87517 -1.05797 0
M  V30 718 N 69.1498 -2.90258 -0.140939 0
M  V30 719 H 68.6968 -2.49174 0.653477 0
M  V30 720 H 68.6548 -2.97889 -1.00545 0
M  V30 721 N 72.4269 -1.23603 -0.977757 0
M  V30 722 C 73.6669 -1.08148 -1.73446 0
M  V30 723 C 74.0309 0.374785 -1.88307 0
M  V30 724 O 75.2319 0.650588 -2.60808 0
M  V30 725 C 73.5029 -1.78991 -3.0935 0
M  V30 726 S 75.0619 -1.79141 -4.00567 0
M  V30 727 H 71.8799 -0.386987 -0.596458 0
M  V30 728 H 74.4819 -1.5678 -1.16792 0
M  V30 729 H 73.1859 -2.8408 -2.96187 0
M  V30 730 H 72.7169 -1.30651 -3.71071 0
M  V30 731 H 74.7319 -0.851892 -4.88833 0
M  V30 732 N 73.905 1.17692 -1.04816 0
M  V30 733 C 75.133 1.91786 -0.776254 0
M  V30 734 C 75.548 1.76604 0.667577 0
M  V30 735 O 74.905 1.10067 1.45573 0
M  V30 736 C 74.956 3.42967 -1.14263 0
M  V30 737 O 74.677 3.57678 -2.52978 0
M  V30 738 C 76.178 4.34144 -0.896311 0
M  V30 739 H 73.398 0.608624 -0.282519 0
M  V30 740 H 75.942 1.49268 -1.39783 0
M  V30 741 H 74.097 3.83245 -0.565874 0
M  V30 742 H 74.511 4.51319 -2.67229 0
M  V30 743 H 75.985 5.38744 -1.20244 0
M  V30 744 H 76.462 4.38876 0.168636 0
M  V30 745 H 77.068 3.99574 -1.45672 0
M  V30 746 N 75.3831 0.828654 1.34056 0
M  V30 747 C 76.6291 0.42008 1.98402 0
M  V30 748 C 76.9621 -1.01564 1.65525 0
M  V30 749 O 76.2371 -1.70834 0.929831 0
M  V30 750 C 76.5201 0.62927 3.54559 0
M  V30 751 C 76.3731 2.11152 3.97159 0
M  V30 752 C 77.6921 0.0688756 4.40046 0
M  V30 753 H 74.8111 0.154104 0.720709 0
M  V30 754 H 77.4531 1.04228 1.5886 0
M  V30 755 H 75.6031 0.0996418 3.88372 0
M  V30 756 H 77.2751 2.70522 3.73651 0
M  V30 757 H 75.5181 2.59985 3.47261 0
M  V30 758 H 76.1891 2.20868 5.05887 0
M  V30 759 H 78.6651 0.521458 4.1282 0
M  V30 760 H 77.5411 0.245006 5.48353 0
M  V30 761 H 77.8021 -1.0266 4.30015 0
M  V30 762 N 76.8612 -1.46375 0.584142 0
M  V30 763 C 78.1072 -2.02678 0.0703716 0
M  V30 764 C 78.4402 -1.4545 -1.28678 0
M  V30 765 O 77.7152 -0.62014 -1.84349 0
M  V30 766 C 77.9982 -3.60099 0.00614674 0
M  V30 767 C 77.8512 -4.27709 1.3923 0
M  V30 768 C 79.1702 -4.34598 -0.693742 0
M  V30 769 H 76.2892 -0.736504 0.027047 0
M  V30 770 H 78.9312 -1.74501 0.751615 0
M  V30 771 H 77.0812 -3.84236 -0.574009 0
M  V30 772 H 78.7532 -4.14832 2.01773 0
M  V30 773 H 76.9962 -3.87016 1.95962 0
M  V30 774 H 77.6672 -5.36478 1.29982 0
M  V30 775 H 80.1432 -4.15615 -0.200869 0
M  V30 776 H 79.0192 -5.44318 -0.707714 0
M  V30 777 H 79.2802 -4.05759 -1.75533 0
M  V30 778 N 78.3393 -0.321999 -1.54275 0
M  V30 779 C 79.6163 0.335232 -1.92706 0
M  V30 780 C 79.9963 1.70006 -1.25145 0
M  V30 781 O 79.3443 2.25067 -0.394596 0
M  V30 782 C 79.5543 0.429008 -3.46353 0
M  V30 783 C 80.9023 0.690029 -4.18956 0
M  V30 784 O 81.9263 0.511992 -3.52501 0
M  V30 785 O 80.7853 1.03338 -5.36641 0
M  V30 786 H 77.8793 0.191143 -0.804608 0
M  V30 787 H 80.4253 -0.3716 -1.65581 0
M  V30 788 H 79.1973 -0.529611 -3.87699 0
M  V30 789 H 78.8203 1.18348 -3.79578 0
M  V30 790 N 79.8174 1.5752 -0.0501392 0
M  V30 791 C 80.7474 2.14502 0.922566 0
M  V30 792 C 81.7284 1.06642 1.3252 0
M  V30 793 O 82.9134 1.34577 1.4001 0
M  V30 794 C 80.0434 2.68916 2.19776 0
M  V30 795 C 78.9974 3.8175 1.93523 0
M  V30 796 C 78.3234 4.22677 3.27487 0
M  V30 797 C 79.6234 5.06932 1.25765 0
M  V30 798 H 81.3174 2.9603 0.447952 0
M  V30 799 H 78.8634 1.42401 0.214024 0
M  V30 800 H 80.8164 3.07419 2.88222 0
M  V30 801 H 79.5404 1.84578 2.69441 0
M  V30 802 H 78.1994 3.43718 1.27489 0
M  V30 803 H 77.8474 3.35291 3.74952 0
M  V30 804 H 77.5474 4.98725 3.1072 0
M  V30 805 H 79.0714 4.63779 3.97166 0
M  V30 806 H 80.4854 5.42888 1.84244 0
M  V30 807 H 78.8824 5.88116 1.19328 0
M  V30 808 H 79.9524 4.84337 0.233536 0
M  V30 809 N 81.2955 -0.223234 1.56011 0
M  V30 810 C 82.5205 -0.968978 1.83373 0
M  V30 811 C 82.9455 -1.77227 0.630254 0
M  V30 812 O 82.3035 -1.76345 -0.420959 0
M  V30 813 C 82.3515 -1.86363 3.08709 0
M  V30 814 O 81.4555 -2.95873 2.87285 0
M  V30 815 H 80.7965 -0.274461 0.604622 0
M  V30 816 H 83.3265 -0.237056 2.03222 0
M  V30 817 H 83.3365 -2.27376 3.38768 0
M  V30 818 H 82.0115 -1.27319 3.95933 0
M  V30 819 H 80.5885 -2.58818 2.68454 0
M  V30 820 N 82.7736 -1.49793 -0.48987 0
M  V30 821 C 84.0216 -1.59525 -1.24081 0
M  V30 822 C 84.3426 -0.288953 -1.92847 0
M  V30 823 O 83.6126 0.692436 -1.83254 0
M  V30 824 H 82.1926 -0.587796 -0.460983 0
M  V30 825 H 84.8546 -1.86477 -0.566778 0
M  V30 826 H 83.9506 -2.39696 -1.99881 0
M  V30 827 N 84.2517 0.741722 -1.39055 0
M  V30 828 C 85.1837 1.8657 -1.33133 0
M  V30 829 C 86.1967 1.61001 -0.241329 0
M  V30 830 O 87.3857 1.7136 -0.499784 0
M  V30 831 C 84.4857 3.22457 -1.04283 0
M  V30 832 C 83.6587 3.75435 -2.24427 0
M  V30 833 C 82.7177 4.89867 -1.92138 0
M  V30 834 O 81.7437 5.03879 -2.64754 0
M  V30 835 N 82.9457 5.73738 -0.88347 0
M  V30 836 H 85.7107 1.92156 -2.29991 0
M  V30 837 H 83.2717 0.922172 -1.3307 0
M  V30 838 H 85.2637 3.9657 -0.807128 0
M  V30 839 H 83.8337 3.12181 -0.161807 0
M  V30 840 H 83.0537 2.92751 -2.6399 0
M  V30 841 H 84.3417 4.07563 -3.04581 0
M  V30 842 H 83.7397 5.64999 -0.281517 0
M  V30 843 H 82.2967 6.47947 -0.707662 0
M  V30 844 N 85.7298 1.2412 0.971189 0
M  V30 845 C 86.9788 1.07284 1.70801 0
M  V30 846 C 87.2918 -0.388902 1.91695 0
M  V30 847 O 88.4978 -0.677379 2.62914 0
M  V30 848 C 86.9538 1.87145 3.07416 0
M  V30 849 C 86.5618 3.37707 2.94377 0
M  V30 850 C 88.3058 1.78828 3.84995 0
M  V30 851 C 86.2128 4.09925 4.26281 0
M  V30 852 H 85.1428 0.397854 0.64049 0
M  V30 853 H 87.7938 1.4817 1.0825 0
M  V30 854 H 86.1758 1.39071 3.70777 0
M  V30 855 H 87.3498 3.93335 2.4005 0
M  V30 856 H 85.6648 3.46938 2.30267 0
M  V30 857 H 88.2618 2.30089 4.82662 0
M  V30 858 H 88.6048 0.75284 4.09436 0
M  V30 859 H 89.1378 2.24563 3.28354 0
M  V30 860 H 85.8768 5.13813 4.07033 0
M  V30 861 H 85.3968 3.59083 4.80437 0
M  V30 862 H 87.0758 4.1673 4.94919 0
M  V30 863 N 87.2079 -1.17134 1.05439 0
M  V30 864 C 88.1379 -2.2342 0.678649 0
M  V30 865 C 89.1189 -1.66971 -0.32476 0
M  V30 866 O 90.3039 -1.93149 -0.201802 0
M  V30 867 C 87.4339 -3.47256 0.0552099 0
M  V30 868 C 86.3879 -4.16543 0.98365 0
M  V30 869 C 85.7139 -5.34231 0.223961 0
M  V30 870 C 87.0139 -4.68495 2.3089 0
M  V30 871 H 88.7079 -2.55105 1.56722 0
M  V30 872 H 86.2539 -1.2262 0.754998 0
M  V30 873 H 88.2069 -4.20828 -0.21946 0
M  V30 874 H 86.9309 -3.14846 -0.868319 0
M  V30 875 H 85.5899 -3.44887 1.24293 0
M  V30 876 H 85.2379 -4.98071 -0.702412 0
M  V30 877 H 84.9379 -5.81527 0.842627 0
M  V30 878 H 86.4619 -6.10585 -0.0433671 0
M  V30 879 H 87.8759 -5.33691 2.09396 0
M  V30 880 H 86.2729 -5.26379 2.88176 0
M  V30 881 H 87.3429 -3.85169 2.94572 0
M  V30 882 N 88.686 -0.835752 -1.33615 0
M  V30 883 C 89.926 -0.43599 -1.99696 0
M  V30 884 C 90.29 0.98557 -1.64774 0
M  V30 885 O 91.491 1.48889 -2.23798 0
M  V30 886 C 89.762 -0.646721 -3.515 0
M  V30 887 S 91.321 -0.341715 -4.37467 0
M  V30 888 H 88.139 -0.164136 -0.691795 0
M  V30 889 H 90.741 -1.08436 -1.62671 0
M  V30 890 H 89.445 -1.68077 -3.74404 0
M  V30 891 H 88.976 0.0159173 -3.93397 0
M  V30 892 H 90.991 0.839708 -4.89043 0
M  V30 893 N 90.1641 1.46063 -0.591896 0
M  V30 894 C 91.5751 1.85944 -0.167822 0
M  V30 895 C 91.9261 1.49429 1.27143 0
M  V30 896 O 91.0511 0.913515 1.96173 0
M  V30 897 C 91.6461 3.37489 -0.297794 0
M  V30 898 C 90.2051 3.76332 0.0714732 0
M  V30 899 C 89.3521 2.7006 -0.629509 0
M  V30 900 H 92.3031 1.37087 -0.799555 0
M  V30 901 H 92.3241 3.77532 0.474349 0
M  V30 902 H 91.8361 3.64034 -1.3454 0
M  V30 903 H 89.9371 3.55405 1.11886 0
M  V30 904 H 90.0501 4.78088 -0.311245 0
M  V30 905 H 88.4141 2.54607 -0.0687867 0
M  V30 906 H 89.1971 2.99444 -1.67894 0
M  V30 907 N 91.6422 0.330177 1.54103 0
M  V30 908 C 92.8902 -0.269871 2.0029 0
M  V30 909 C 93.2112 -1.52133 1.21986 0
M  V30 910 O 92.4812 -1.93212 0.323438 0
M  V30 911 H 91.0612 -0.10271 0.739905 0
M  V30 912 H 93.7232 0.448249 1.89675 0
M  V30 913 H 92.8192 -0.52166 3.07709 0
M  V30 914 N 93.1203 -1.57491 0.0584922 0
M  V30 915 C 94.3673 -1.92978 -0.613648 0
M  V30 916 C 94.6953 -0.937461 -1.70417 0
M  V30 917 O 93.9503 0.049078 -1.95638 0
M  V30 918 C 94.2493 -3.3513 -1.24188 0
M  V30 919 C 93.9153 -4.50037 -0.278826 0
M  V30 920 C 92.5773 -4.81198 -0.0138447 0
M  V30 921 C 94.9293 -5.19807 0.380777 0
M  V30 922 C 92.2573 -5.79473 0.918052 0
M  V30 923 C 94.6093 -6.19079 1.30091 0
M  V30 924 C 93.2733 -6.48665 1.57449 0
M  V30 925 H 92.5433 -0.706157 -0.22455 0
M  V30 926 H 95.1903 -1.91082 0.126533 0
M  V30 927 H 93.4953 -3.33429 -2.05749 0
M  V30 928 H 95.1923 -3.59871 -1.769 0
M  V30 929 H 91.7823 -4.25726 -0.495539 0
M  V30 930 H 95.9663 -4.95939 0.189158 0
M  V30 931 H 91.2223 -6.00727 1.1374 0
M  V30 932 H 95.3963 -6.7225 1.81804 0
M  V30 933 H 93.0233 -7.24628 2.29822 0
M  V30 934 N 94.5984 0.214957 -1.56127 0
M  V30 935 C 95.8474 0.936451 -1.78643 0
M  V30 936 C 96.1604 1.85237 -0.628229 0
M  V30 937 O 97.3664 2.613 -0.737186 0
M  V30 938 C 95.8224 1.7154 -3.16389 0
M  V30 939 C 95.4304 0.845299 -4.39953 0
M  V30 940 C 97.1744 2.42772 -3.48227 0
M  V30 941 C 95.0814 1.62198 -5.68723 0
M  V30 942 H 94.0114 0.353401 -0.666051 0
M  V30 943 H 96.6624 0.190169 -1.82512 0
M  V30 944 H 95.0444 2.50484 -3.06715 0
M  V30 945 H 96.2184 0.0959353 -4.607 0
M  V30 946 H 94.5334 0.244789 -4.1568 0
M  V30 947 H 97.1304 3.01394 -4.41663 0
M  V30 948 H 97.4734 3.15984 -2.71035 0
M  V30 949 H 98.0064 1.70813 -3.5926 0
M  V30 950 H 94.7454 0.933011 -6.48826 0
M  V30 951 H 94.2654 2.34579 -5.52026 0
M  V30 952 H 95.9444 2.18095 -6.09133 0
M  V30 953 N 96.0765 1.50051 0.48192 0
M  V30 954 C 97.3535 1.51009 1.2432 0
M  V30 955 C 97.7335 0.248587 2.09631 0
M  V30 956 O 97.0815 -0.768409 2.15192 0
M  V30 957 C 97.2915 2.79981 2.08355 0
M  V30 958 C 98.6395 3.3022 2.66908 0
M  V30 959 O 99.6635 2.81228 2.18607 0
M  V30 960 O 98.5225 4.15595 3.54884 0
M  V30 961 H 95.6165 0.605239 0.563573 0
M  V30 962 H 98.1625 1.62332 0.494627 0
M  V30 963 H 96.9345 3.63275 1.45419 0
M  V30 964 H 96.5575 2.7161 2.90368 0
M  V30 965 N 97.5546 -0.734337 1.39446 0
M  V30 966 C 98.4866 -1.85861 1.34121 0
M  V30 967 C 99.4996 -1.60871 0.249864 0
M  V30 968 O 100.689 -1.71093 0.508865 0
M  V30 969 C 97.7886 -3.21899 1.05991 0
M  V30 970 C 96.9616 -3.74239 2.26415 0
M  V30 971 C 96.0206 -4.88841 1.94733 0
M  V30 972 O 95.0466 -5.02468 2.67422 0
M  V30 973 N 96.2486 -5.73261 0.913884 0
M  V30 974 H 99.0136 -1.90934 2.31007 0
M  V30 975 H 96.5746 -0.915102 1.33557 0
M  V30 976 H 98.5666 -3.96136 0.828147 0
M  V30 977 H 97.1366 -3.12091 0.178361 0
M  V30 978 H 96.3566 -2.91347 2.65539 0
M  V30 979 H 97.6446 -4.05942 3.06738 0
M  V30 980 H 97.0426 -5.64842 0.311476 0
M  V30 981 H 95.5996 -6.47563 0.742015 0
M  V30 982 N 99.0327 -1.24633 -0.964593 0
M  V30 983 C 99.9827 -1.00841 -2.04487 0
M  V30 984 C 100.967 0.0512468 -1.60818 0
M  V30 985 O 102.159 -0.162865 -1.76249 0
M  V30 986 C 99.2877 -0.618474 -3.37683 0
M  V30 987 C 98.3737 -1.71437 -3.87905 0
M  V30 988 N 98.7647 -2.9477 -4.11029 0
M  V30 989 C 97.0627 -1.5926 -4.16596 0
M  V30 990 C 97.7637 -3.65834 -4.52261 0
M  V30 991 N 96.7397 -2.9341 -4.57615 0
M  V30 992 H 100.542 -1.94487 -2.20345 0
M  V30 993 H 98.0557 -1.14805 -1.14863 0
M  V30 994 H 100.053 -0.429247 -4.14684 0
M  V30 995 H 98.7127 0.310766 -3.23209 0
M  V30 996 H 99.7237 -3.30917 -3.9839 0
M  V30 997 H 96.4007 -0.731606 -4.1104 0
M  V30 998 H 97.7907 -4.71646 -4.78539 0
M  V30 999 N 100.511 1.16574 -1.06058 0
M  V30 1000 C 101.757 1.87324 -0.777022 0
M  V30 1001 C 102.09 1.81351 0.694645 0
M  V30 1002 O 101.365 1.22753 1.50871 0
M  V30 1003 C 101.648 3.36991 -1.26922 0
M  V30 1004 C 101.501 3.51667 -2.80447 0
M  V30 1005 C 102.82 4.3131 -0.87521 0
M  V30 1006 H 99.9388 0.680191 -0.28374 0
M  V30 1007 H 102.581 1.37036 -1.3161 0
M  V30 1008 H 100.731 3.79949 -0.81063 0
M  V30 1009 H 102.403 3.17664 -3.34495 0
M  V30 1010 H 100.646 2.93656 -3.19294 0
M  V30 1011 H 101.317 4.56766 -3.0995 0
M  V30 1012 H 103.793 3.9624 -1.27014 0
M  V30 1013 H 102.669 5.34545 -1.2471 0
M  V30 1014 H 102.93 4.41552 0.220071 0
M  V30 1015 N 101.989 0.842826 1.3317 0
M  V30 1016 C 102.939 0.250877 2.26616 0
M  V30 1017 C 103.923 -0.596427 1.49437 0
M  V30 1018 O 105.115 -0.447747 1.71243 0
M  V30 1019 C 102.244 -0.569779 3.38539 0
M  V30 1020 C 101.33 0.289254 4.23112 0
M  V30 1021 N 101.721 1.36987 4.86897 0
M  V30 1022 C 100.019 0.0769631 4.45934 0
M  V30 1023 C 100.72 1.89737 5.49886 0
M  V30 1024 N 99.6959 1.19827 5.30229 0
M  V30 1025 H 103.498 1.07718 2.73448 0
M  V30 1026 H 101.012 0.687693 1.47121 0
M  V30 1027 H 103.009 -1.01018 4.04476 0
M  V30 1028 H 101.669 -1.39401 2.93253 0
M  V30 1029 H 102.68 1.75277 4.87338 0
M  V30 1030 H 99.3569 -0.713507 4.11358 0
M  V30 1031 H 100.747 2.80253 6.10662 0
M  V30 1032 N 103.467 -1.45747 0.599634 0
M  V30 1033 C 104.397 -2.33235 -0.111306 0
M  V30 1034 C 105.378 -1.46359 -0.866781 0
M  V30 1035 O 106.563 -1.75146 -0.838904 0
M  V30 1036 C 103.693 -3.28932 -1.11451 0
M  V30 1037 C 102.647 -4.25381 -0.472772 0
M  V30 1038 C 101.973 -5.1071 -1.58365 0
M  V30 1039 C 103.273 -5.18831 0.600948 0
M  V30 1040 H 104.967 -2.92927 0.61919 0
M  V30 1041 H 102.513 -1.40857 0.299215 0
M  V30 1042 H 104.466 -3.89002 -1.62036 0
M  V30 1043 H 103.19 -2.67381 -1.8755 0
M  V30 1044 H 101.849 -3.66598 0.0121472 0
M  V30 1045 H 101.497 -4.45533 -2.33473 0
M  V30 1046 H 101.197 -5.7604 -1.15982 0
M  V30 1047 H 102.721 -5.73647 -2.09194 0
M  V30 1048 H 104.135 -5.73019 0.179491 0
M  V30 1049 H 102.532 -5.92595 0.946076 0
M  V30 1050 H 103.602 -4.6174 1.48068 0
M  V30 1051 N 104.945 -0.338344 -1.53925 0
M  V30 1052 C 106.194 0.260732 -2.00008 0
M  V30 1053 C 106.507 1.52073 -1.23017 0
M  V30 1054 O 107.713 2.19672 -1.5955 0
M  V30 1055 C 106.169 0.51515 -3.56194 0
M  V30 1056 C 105.777 -0.728645 -4.42035 0
M  V30 1057 C 107.521 1.07337 -4.10706 0
M  V30 1058 C 105.428 -0.445315 -5.89721 0
M  V30 1059 H 104.358 0.101205 -0.747177 0
M  V30 1060 H 107.009 -0.452866 -1.77824 0
M  V30 1061 H 105.391 1.28932 -3.74423 0
M  V30 1062 H 106.565 -1.50352 -4.35581 0
M  V30 1063 H 104.88 -1.20813 -3.98489 0
M  V30 1064 H 107.477 1.30022 -5.18651 0
M  V30 1065 H 107.82 2.0273 -3.63602 0
M  V30 1066 H 108.353 0.360034 -3.96167 0
M  V30 1067 H 105.092 -1.36883 -6.41049 0
M  V30 1068 H 104.612 0.291569 -5.99091 0
M  V30 1069 H 106.291 -0.0606218 -6.46972 0
M  V30 1070 N 106.423 1.57458 -0.0668435 0
M  V30 1071 C 107.671 1.92919 0.602214 0
M  V30 1072 C 107.992 0.947215 1.70449 0
M  V30 1073 O 107.262 -0.00544117 1.95899 0
M  V30 1074 H 105.842 0.71217 0.22544 0
M  V30 1075 H 108.504 1.94508 -0.123535 0
M  V30 1076 H 107.6 2.94589 1.03073 0
M  V30 1077 N 107.901 -0.206675 1.56239 0
M  V30 1078 C 109.149 -0.927007 1.79586 0
M  V30 1079 C 109.47 -1.8427 0.637929 0
M  V30 1080 O 108.74 -1.92849 -0.344398 0
M  V30 1081 H 107.32 -0.345292 0.662407 0
M  V30 1082 H 109.982 -0.21496 1.93711 0
M  V30 1083 H 109.078 -1.52501 2.72305 0
M  V30 1084 N 109.379 -1.50304 -0.473955 0
M  V30 1085 C 110.627 -1.60832 -1.22382 0
M  V30 1086 C 110.948 -0.30939 -1.9253 0
M  V30 1087 O 110.218 0.67296 -1.83978 0
M  V30 1088 H 108.798 -0.592652 -0.454723 0
M  V30 1089 H 111.46 -1.87068 -0.546968 0
M  V30 1090 H 110.556 -2.41803 -1.97327 0
M  V30 1091 N 110.857 0.726932 -1.39834 0
M  V30 1092 C 112.105 1.4837 -1.37225 0
M  V30 1093 C 112.426 1.94979 0.0284857 0
M  V30 1094 O 111.696 1.69555 0.981213 0
M  V30 1095 H 110.276 0.55043 -0.505011 0
M  V30 1096 H 112.938 0.862468 -1.74778 0
M  V30 1097 H 112.034 2.36198 -2.04003 0
M  V30 1098 N 112.336 1.25143 0.95797 0
M  V30 1099 C 113.246 1.06968 2.08794 0
M  V30 1100 C 114.262 0.00773911 1.73998 0
M  V30 1101 O 115.438 0.207972 2.00323 0
M  V30 1102 C 112.503 0.68691 3.39827 0
M  V30 1103 C 111.564 1.82641 3.88511 0
M  V30 1104 C 110.797 1.46181 5.1329 0
M  V30 1105 O 111.02 0.355971 5.69288 0
M  V30 1106 O 109.954 2.29085 5.566 0
M  V30 1107 H 113.78 2.01723 2.27027 0
M  V30 1108 H 111.365 1.04051 1.07209 0
M  V30 1109 H 113.247 0.485417 4.18595 0
M  V30 1110 H 111.922 -0.231417 3.22872 0
M  V30 1111 H 110.829 2.08274 3.10762 0
M  V30 1112 H 112.162 2.72386 4.09959 0
M  V30 1113 N 113.814 -1.1601 1.06675 0
M  V30 1114 C 114.777 -2.18724 0.685001 0
M  V30 1115 C 115.777 -1.58496 -0.271246 0
M  V30 1116 O 116.967 -1.74119 -0.0531156 0
M  V30 1117 C 114.099 -3.40899 0.00853648 0
M  V30 1118 H 115.292 -2.54011 1.59431 0
M  V30 1119 H 112.845 -1.30352 0.862441 0
M  V30 1120 H 113.58 -3.11173 -0.913337 0
M  V30 1121 H 113.365 -3.8587 0.696204 0
M  V30 1122 H 114.855 -4.16886 -0.24414 0
M  V30 1123 N 115.292 -0.849877 -1.32721 0
M  V30 1124 C 116.54 -0.450032 -1.97026 0
M  V30 1125 C 116.861 0.996604 -1.67609 0
M  V30 1126 O 116.131 1.6958 -0.980786 0
M  V30 1127 H 114.711 -0.163426 -0.728904 0
M  V30 1128 H 117.373 -1.08526 -1.6189 0
M  V30 1129 H 116.469 -0.591146 -3.0645 0
M  V30 1130 N 116.77 1.45427 -0.607355 0
M  V30 1131 C 118.181 1.85756 -0.187535 0
M  V30 1132 C 118.532 1.5077 1.25551 0
M  V30 1133 O 117.657 0.93427 1.95193 0
M  V30 1134 C 118.252 3.37154 -0.333572 0
M  V30 1135 C 116.811 3.76387 0.0315542 0
M  V30 1136 C 115.958 2.69377 -0.658117 0
M  V30 1137 H 118.909 1.36231 -0.81405 0
M  V30 1138 H 118.93 3.78014 0.43428 0
M  V30 1139 H 118.442 3.62586 -1.38393 0
M  V30 1140 H 116.543 3.56571 1.0811 0
M  V30 1141 H 116.656 4.77731 -0.361935 0
M  V30 1142 H 115.02 2.5452 -0.0957873 0
M  V30 1143 H 115.803 2.97646 -1.7106 0
M  V30 1144 N 118.248 0.346503 1.53744 0
M  V30 1145 C 119.476 -0.25041 2.05379 0
M  V30 1146 C 119.891 -1.43979 1.22129 0
M  V30 1147 O 119.248 -1.80677 0.257321 0
M  V30 1148 C 119.299 -0.662575 3.55376 0
M  V30 1149 O 119.02 0.479515 4.35468 0
M  V30 1150 C 120.521 -1.31989 4.23195 0
M  V30 1151 H 117.741 -0.0478198 0.669294 0
M  V30 1152 H 120.285 0.499346 1.9831 0
M  V30 1153 H 118.44 -1.36227 3.62658 0
M  V30 1154 H 118.854 0.15037 5.24284 0
M  V30 1155 H 120.328 -1.55902 5.29527 0
M  V30 1156 H 120.805 -2.27436 3.75725 0
M  V30 1157 H 121.411 -0.662154 4.20114 0
M  V30 1158 N 119.726 -1.57421 0.075193 0
M  V30 1159 C 120.954 -1.97946 -0.602076 0
M  V30 1160 C 121.369 -0.953674 -1.62943 0
M  V30 1161 O 120.726 0.0592551 -1.82404 0
M  V30 1162 C 120.777 -3.38546 -1.26762 0
M  V30 1163 O 120.498 -4.37195 -0.281376 0
M  V30 1164 C 121.999 -3.93966 -2.03239 0
M  V30 1165 H 119.219 -0.650918 -0.162931 0
M  V30 1166 H 121.763 -2.03959 0.148601 0
M  V30 1167 H 119.918 -3.33609 -1.96936 0
M  V30 1168 H 120.332 -5.18975 -0.759267 0
M  V30 1169 H 121.806 -4.94555 -2.45193 0
M  V30 1170 H 122.283 -3.30693 -2.8903 0
M  V30 1171 H 122.889 -4.02315 -1.37924 0
M  V30 1172 N 121.204 0.198386 -1.56346 0
M  V30 1173 C 122.62 0.549085 -1.49857 0
M  V30 1174 C 122.82 1.86016 -0.774611 0
M  V30 1175 O 121.876 2.50416 -0.323776 0
M  V30 1176 C 123.189 0.606868 -2.94512 0
M  V30 1177 C 124.737 0.695925 -3.05165 0
M  V30 1178 C 125.212 0.784848 -4.51225 0
M  V30 1179 N 126.703 0.848463 -4.55363 0
M  V30 1180 C 127.438 0.937378 -5.65686 0
M  V30 1181 N 126.934 0.9888 -6.85707 0
M  V30 1182 N 128.727 0.974312 -5.53592 0
M  V30 1183 H 120.878 -0.661655 -2.01831 0
M  V30 1184 H 123.141 -0.235261 -0.918344 0
M  V30 1185 H 122.847 -0.28732 -3.50524 0
M  V30 1186 H 122.721 1.46268 -3.47686 0
M  V30 1187 H 125.108 1.58055 -2.49204 0
M  V30 1188 H 125.189 -0.186022 -2.55123 0
M  V30 1189 H 124.833 -0.0954072 -5.0781 0
M  V30 1190 H 124.763 1.68255 -4.98997 0
M  V30 1191 H 127.254 0.818103 -3.68938 0
M  V30 1192 H 127.567 1.05707 -7.65536 0
M  V30 1193 H 125.912 0.957534 -6.88372 0
M  V30 1194 H 129.103 0.930954 -4.58749 0
M  V30 1195 H 129.276 1.04015 -6.39597 0
M  V30 1196 N 122.682 1.50554 0.465978 0
M  V30 1197 C 123.91 1.65563 1.24083 0
M  V30 1198 C 124.325 0.341051 1.85694 0
M  V30 1199 O 123.682 -0.677543 1.69457 0
M  V30 1200 C 123.733 2.75051 2.34583 0
M  V30 1201 O 123.454 4.01413 1.75497 0
M  V30 1202 C 124.955 3.01078 3.25372 0
M  V30 1203 H 122.175 0.55638 0.375077 0
M  V30 1204 H 124.719 1.96807 0.555624 0
M  V30 1205 H 122.874 2.46486 2.9887 0
M  V30 1206 H 123.288 4.62002 2.48303 0
M  V30 1207 H 124.762 3.81339 3.99105 0
M  V30 1208 H 125.239 2.12349 3.84453 0
M  V30 1209 H 125.845 3.31194 2.66816 0
M  V30 1210 N 124.16 -0.719506 1.40217 0
M  V30 1211 C 125.571 -1.29848 1.34151 0
M  V30 1212 C 125.922 -1.96196 0.0131349 0
M  V30 1213 O 125.047 -1.973 -0.88892 0
M  V30 1214 C 125.642 -2.36118 2.42968 0
M  V30 1215 C 124.201 -2.8965 2.40374 0
M  V30 1216 C 123.348 -1.63393 2.24049 0
M  V30 1217 H 126.299 -0.51591 1.5008 0
M  V30 1218 H 126.32 -3.16871 2.10649 0
M  V30 1219 H 125.832 -1.878 3.39636 0
M  V30 1220 H 123.933 -3.42208 1.47392 0
M  V30 1221 H 124.046 -3.4171 3.35814 0
M  V30 1222 H 122.41 -1.88312 1.71495 0
M  V30 1223 H 123.193 -1.17104 3.2271 0
M  V30 1224 N 125.638 -1.25649 -0.95132 0
M  V30 1225 C 126.548 -1.08073 -2.08224 0
M  V30 1226 C 127.564 -0.0169666 -1.73992 0
M  V30 1227 O 128.74 -0.218593 -2.0021 0
M  V30 1228 C 125.805 -0.704922 -3.39458 0
M  V30 1229 C 124.866 -1.84699 -3.87537 0
M  V30 1230 C 124.099 -1.48902 -5.12508 0
M  V30 1231 O 124.322 -0.386156 -5.69091 0
M  V30 1232 O 123.256 -2.32033 -5.55378 0
M  V30 1233 H 127.082 -2.02924 -2.25954 0
M  V30 1234 H 124.667 -1.04618 -1.06656 0
M  V30 1235 H 126.549 -0.507609 -4.18332 0
M  V30 1236 H 125.224 0.214291 -3.2299 0
M  V30 1237 H 124.131 -2.09919 -3.09653 0
M  V30 1238 H 125.464 -2.74557 -4.08509 0
M  V30 1239 N 127.117 1.15442 -1.07289 0
M  V30 1240 C 128.363 1.86489 -0.796846 0
M  V30 1241 C 128.696 1.82078 0.675371 0
M  V30 1242 O 127.971 1.24346 1.4956 0
M  V30 1243 C 128.254 3.35626 -1.30489 0
M  V30 1244 C 128.107 3.48673 -2.84161 0
M  V30 1245 C 129.426 4.30357 -0.920907 0
M  V30 1246 H 126.545 0.677144 -0.290939 0
M  V30 1247 H 129.187 1.35633 -1.33056 0
M  V30 1248 H 127.337 3.79068 -0.850883 0
M  V30 1249 H 129.009 3.14099 -3.37846 0
M  V30 1250 H 127.252 2.90253 -3.22391 0
M  V30 1251 H 127.923 4.53453 -3.14777 0
M  V30 1252 H 130.399 3.94871 -1.3121 0
M  V30 1253 H 129.275 5.33193 -1.30372 0
M  V30 1254 H 129.536 4.4176 0.173226 0
M  V30 1255 N 128.595 0.856903 1.32268 0
M  V30 1256 C 129.558 0.308171 2.27119 0
M  V30 1257 C 130.558 -0.533421 1.51695 0
M  V30 1258 O 131.748 -0.344607 1.70757 0
M  V30 1259 C 128.88 -0.563757 3.36206 0
M  V30 1260 H 130.073 1.14535 2.77167 0
M  V30 1261 H 127.626 0.631421 1.42978 0
M  V30 1262 H 128.361 -1.42266 2.91429 0
M  V30 1263 H 128.146 0.0386749 3.92081 0
M  V30 1264 H 129.636 -0.940386 4.06874 0
M  V30 1265 N 130.073 -1.45103 0.615059 0
M  V30 1266 C 131.003 -2.33339 -0.0865619 0
M  V30 1267 C 131.984 -1.4727 -0.851209 0
M  V30 1268 O 133.169 -1.76026 -0.820281 0
M  V30 1269 C 130.299 -3.30095 -1.07956 0
M  V30 1270 C 129.253 -4.25858 -0.427628 0
M  V30 1271 C 128.579 -5.12361 -1.5294 0
M  V30 1272 C 129.879 -5.18165 0.655944 0
M  V30 1273 H 131.573 -2.92254 0.650224 0
M  V30 1274 H 129.119 -1.40532 0.314138 0
M  V30 1275 H 131.072 -3.90698 -1.57901 0
M  V30 1276 H 129.796 -2.69355 -1.84703 0
M  V30 1277 H 128.455 -3.66564 0.0510292 0
M  V30 1278 H 128.103 -4.47984 -2.28734 0
M  V30 1279 H 127.803 -5.77238 -1.09865 0
M  V30 1280 H 129.327 -5.75833 -2.03098 0
M  V30 1281 H 130.741 -5.72796 0.240257 0
M  V30 1282 H 129.138 -5.91559 1.00888 0
M  V30 1283 H 130.208 -4.60144 1.52957 0
M  V30 1284 N 131.551 -0.354651 -1.53558 0
M  V30 1285 C 132.776 0.242153 -2.05981 0
M  V30 1286 C 133.201 1.42553 -1.2272 0
M  V30 1287 O 132.559 1.79656 -0.243604 0
M  V30 1288 C 132.607 0.624367 -3.55154 0
M  V30 1289 O 131.711 1.72301 -3.74681 0
M  V30 1290 H 131.052 0.0378432 -0.662921 0
M  V30 1291 H 133.582 -0.512087 -1.98088 0
M  V30 1292 H 133.592 0.898433 -3.97985 0
M  V30 1293 H 132.267 -0.240989 -4.15201 0
M  V30 1294 H 130.844 1.44535 -3.4375 0
M  V30 1295 N 133.029 1.57378 -0.0835403 0
M  V30 1296 C 134.445 1.57246 0.273109 0
M  V30 1297 C 134.645 1.09385 1.69225 0
M  V30 1298 O 133.701 0.765051 2.40631 0
M  V30 1299 C 135.014 3.00614 0.0720628 0
M  V30 1300 C 136.562 3.12684 0.1407 0
M  V30 1301 C 137.037 4.57989 -0.0322094 0
M  V30 1302 N 138.528 4.63194 0.0230085 0
M  V30 1303 C 139.263 5.73335 -0.0861941 0
M  V30 1304 N 138.759 6.9235 -0.24958 0
M  V30 1305 N 140.552 5.62093 -0.0282886 0
M  V30 1306 H 132.703 1.86801 -1.0109 0
M  V30 1307 H 134.966 0.861687 -0.395222 0
M  V30 1308 H 134.672 3.39786 -0.907662 0
M  V30 1309 H 134.546 3.68193 0.81936 0
M  V30 1310 H 136.933 2.73391 1.11092 0
M  V30 1311 H 137.014 2.47719 -0.637896 0
M  V30 1312 H 136.658 4.97973 -0.999247 0
M  V30 1313 H 136.588 5.21 0.765937 0
M  V30 1314 H 139.079 3.77613 0.14722 0
M  V30 1315 H 139.392 7.72117 -0.324733 0
M  V30 1316 H 137.737 6.94415 -0.285097 0
M  V30 1317 H 140.928 4.67997 0.0981408 0
M  V30 1318 H 141.101 6.47895 -0.116845 0
M  V30 1319 N 134.507 -0.190092 1.56449 0
M  V30 1320 C 135.437 -1.23816 1.97969 0
M  V30 1321 C 136.418 -1.47201 0.852395 0
M  V30 1322 O 137.603 -1.58854 1.1171 0
M  V30 1323 C 134.733 -2.5813 2.3235 0
M  V30 1324 C 133.687 -2.49348 3.47864 0
M  V30 1325 C 133.013 -3.8798 3.67934 0
M  V30 1326 C 134.313 -2.01424 4.81898 0
M  V30 1327 H 136.007 -0.89311 2.85769 0
M  V30 1328 H 133.553 -0.428177 1.37487 0
M  V30 1329 H 135.506 -3.31637 2.59991 0
M  V30 1330 H 134.23 -2.94386 1.41438 0
M  V30 1331 H 132.889 -1.78297 3.20321 0
M  V30 1332 H 132.537 -4.21597 2.74344 0
M  V30 1333 H 132.237 -3.82978 4.45648 0
M  V30 1334 H 133.761 -4.63101 3.97957 0
M  V30 1335 H 135.175 -2.64693 5.08538 0
M  V30 1336 H 133.572 -2.07413 5.63116 0
M  V30 1337 H 134.642 -0.967677 4.75146 0
M  V30 1338 N 135.985 -1.50799 -0.457987 0
M  V30 1339 C 137.213 -1.66218 -1.23203 0
M  V30 1340 C 137.628 -0.350894 -1.85511 0
M  V30 1341 O 136.985 0.668546 -1.69814 0
M  V30 1342 C 137.036 -2.76291 -2.33121 0
M  V30 1343 O 136.757 -4.02338 -1.73366 0
M  V30 1344 C 138.258 -3.028 -3.2377 0
M  V30 1345 H 135.478 -0.558361 -0.372121 0
M  V30 1346 H 138.022 -1.97099 -0.545179 0
M  V30 1347 H 136.177 -2.48068 -2.97558 0
M  V30 1348 H 136.591 -4.63312 -2.4585 0
M  V30 1349 H 138.065 -3.8345 -3.97077 0
M  V30 1350 H 138.542 -2.14385 -3.83322 0
M  V30 1351 H 139.148 -3.32604 -2.65056 0
M  V30 1352 N 137.463 0.71206 -1.40597 0
M  V30 1353 C 138.373 1.8562 -1.43466 0
M  V30 1354 C 139.389 1.70902 -0.326902 0
M  V30 1355 O 140.565 1.93105 -0.572043 0
M  V30 1356 C 137.63 3.21451 -1.29884 0
M  V30 1357 C 136.691 3.48398 -2.50833 0
M  V30 1358 C 135.924 4.77749 -2.3789 0
M  V30 1359 O 136.147 5.53089 -1.39459 0
M  V30 1360 O 135.081 5.05111 -3.27333 0
M  V30 1361 H 138.907 1.86155 -2.39958 0
M  V30 1362 H 136.492 0.86295 -1.21957 0
M  V30 1363 H 138.374 4.02579 -1.24531 0
M  V30 1364 H 137.049 3.21636 -0.364997 0
M  V30 1365 H 135.956 2.67265 -2.61763 0
M  V30 1366 H 137.289 3.53014 -3.4299 0
M  V30 1367 N 138.941 1.26152 0.944643 0
M  V30 1368 C 139.904 1.07474 2.0244 0
M  V30 1369 C 140.904 0.0242064 1.60782 0
M  V30 1370 O 142.094 0.267302 1.72137 0
M  V30 1371 C 139.226 0.633956 3.34953 0
M  V30 1372 H 140.419 2.03336 2.20442 0
M  V30 1373 H 137.972 1.087 1.12312 0
M  V30 1374 H 138.707 -0.326811 3.22649 0
M  V30 1375 H 138.492 1.39247 3.66542 0
M  V30 1376 H 139.982 0.52501 4.14287 0
M  V30 1377 N 140.419 -1.14872 1.07899 0
M  V30 1378 C 141.667 -1.85422 0.803941 0
M  V30 1379 C 141.988 -1.83051 -0.67211 0
M  V30 1380 O 141.258 -1.27532 -1.48703 0
M  V30 1381 H 139.838 -0.686537 0.294408 0
M  V30 1382 H 142.5 -1.39226 1.3639 0
M  V30 1383 H 141.596 -2.90399 1.14346 0
M  V30 1384 N 141.898 -0.863906 -1.31812 0
M  V30 1385 C 143.144 -0.472535 -1.97218 0
M  V30 1386 C 143.477 0.971394 -1.68159 0
M  V30 1387 O 142.752 1.68309 -0.974798 0
M  V30 1388 C 143.035 -0.723054 -3.52766 0
M  V30 1389 C 142.888 -2.21608 -3.91421 0
M  V30 1390 C 144.207 -0.185522 -4.39709 0
M  V30 1391 H 141.326 -0.173158 -0.71637 0
M  V30 1392 H 143.968 -1.08403 -1.56041 0
M  V30 1393 H 142.118 -0.202577 -3.87971 0
M  V30 1394 H 143.79 -2.80334 -3.66347 0
M  V30 1395 H 142.033 -2.691 -3.40246 0
M  V30 1396 H 142.704 -2.34203 -4.99853 0
M  V30 1397 H 145.18 -0.630726 -4.11292 0
M  V30 1398 H 144.056 -0.390306 -5.47511 0
M  V30 1399 H 144.317 0.912229 -4.32586 0
M  V30 1400 N 143.376 1.44774 -0.622745 0
M  V30 1401 C 144.604 2.06487 -0.130722 0
M  V30 1402 C 145.019 1.46476 1.19123 0
M  V30 1403 O 144.376 0.584502 1.72887 0
M  V30 1404 C 144.427 3.615 -0.000807207 0
M  V30 1405 O 144.148 4.19274 -1.27048 0
M  V30 1406 C 145.649 4.40229 0.520898 0
M  V30 1407 H 142.869 0.666704 -0.0758106 0
M  V30 1408 H 145.413 1.85779 -0.854774 0
M  V30 1409 H 143.568 3.81498 0.673643 0
M  V30 1410 H 143.982 5.12622 -1.1099 0
M  V30 1411 H 145.456 5.49144 0.560838 0
M  V30 1412 H 145.933 4.1108 1.54627 0
M  V30 1413 H 146.539 4.25131 -0.120018 0
M  V30 1414 N 144.854 0.36279 1.53368 0
M  V30 1415 C 146.079 -0.231226 2.06107 0
M  V30 1416 C 146.504 -1.419 1.23474 0
M  V30 1417 O 145.862 -1.79524 0.253128 0
M  V30 1418 C 145.91 -0.605523 3.5548 0
M  V30 1419 O 145.014 -1.70312 3.7559 0
M  V30 1420 H 144.355 -0.034327 0.663112 0
M  V30 1421 H 146.885 0.522584 1.97814 0
M  V30 1422 H 146.895 -0.877314 3.98456 0
M  V30 1423 H 145.57 0.263004 4.15068 0
M  V30 1424 H 144.147 -1.4271 3.44512 0
M  V30 1425 N 146.332 -1.57332 0.0918853 0
M  V30 1426 C 147.578 -1.94524 -0.573425 0
M  V30 1427 C 147.911 -0.973578 -1.68033 0
M  V30 1428 O 147.186 -0.00609226 -1.94499 0
M  V30 1429 C 147.469 -3.41858 -1.13161 0
M  V30 1430 C 147.322 -4.4979 -0.0299747 0
M  V30 1431 C 148.641 -3.90435 -2.03098 0
M  V30 1432 H 145.76 -0.70734 -0.206975 0
M  V30 1433 H 148.402 -1.89309 0.161942 0
M  V30 1434 H 146.552 -3.46433 -1.7583 0
M  V30 1435 H 148.224 -4.57327 0.604112 0
M  V30 1436 H 146.467 -4.291 0.636833 0
M  V30 1437 H 147.138 -5.50069 -0.461287 0
M  V30 1438 H 149.614 -3.87992 -1.50338 0
M  V30 1439 H 148.49 -4.94097 -2.39081 0
M  V30 1440 H 148.751 -3.29541 -2.94712 0
M  V30 1441 N 147.81 0.181792 -1.56548 0
M  V30 1442 C 149.056 0.901431 -1.81665 0
M  V30 1443 C 149.389 1.82347 -0.668075 0
M  V30 1444 O 148.664 1.91669 0.330615 0
M  V30 1445 C 148.947 1.70618 -3.17115 0
M  V30 1446 C 148.8 0.807964 -4.42484 0
M  V30 1447 C 150.119 2.67605 -3.49393 0
M  V30 1448 H 147.238 0.32627 -0.660846 0
M  V30 1449 H 149.88 0.168134 -1.89255 0
M  V30 1450 H 148.03 2.33133 -3.10775 0
M  V30 1451 H 149.702 0.19649 -4.60881 0
M  V30 1452 H 147.945 0.115411 -4.33646 0
M  V30 1453 H 148.616 1.40632 -5.33785 0
M  V30 1454 H 151.092 2.15218 -3.56118 0
M  V30 1455 H 149.968 3.20985 -4.45264 0
M  V30 1456 H 150.229 3.47298 -2.73563 0
M  V30 1457 N 149.288 1.51039 0.449983 0
M  V30 1458 C 150.536 1.62759 1.19808 0
M  V30 1459 C 150.857 0.339981 1.92013 0
M  V30 1460 O 150.127 -0.643606 1.85026 0
M  V30 1461 H 148.707 0.599811 0.445237 0
M  V30 1462 H 151.369 1.87914 0.517138 0
M  V30 1463 H 150.465 2.44911 1.93455 0
M  V30 1464 N 150.766 -0.704594 1.40972 0
M  V30 1465 C 151.696 -1.83124 1.44872 0
M  V30 1466 C 152.677 -1.67281 0.30838 0
M  V30 1467 O 153.862 -1.87149 0.518556 0
M  V30 1468 C 150.992 -3.21181 1.32136 0
M  V30 1469 C 149.946 -3.51714 2.43888 0
M  V30 1470 C 149.272 -4.89032 2.16222 0
M  V30 1471 C 150.572 -3.516 3.86232 0
M  V30 1472 H 152.266 -1.80117 2.39161 0
M  V30 1473 H 149.812 -0.865145 1.15114 0
M  V30 1474 H 151.765 -3.99702 1.33479 0
M  V30 1475 H 150.489 -3.24791 0.343279 0
M  V30 1476 H 149.148 -2.75539 2.41813 0
M  V30 1477 H 148.796 -4.89256 1.16778 0
M  V30 1478 H 148.496 -5.10426 2.911 0
M  V30 1479 H 150.02 -5.69873 2.19265 0
M  V30 1480 H 151.434 -4.2014 3.9007 0
M  V30 1481 H 149.831 -3.84523 4.60719 0
M  V30 1482 H 150.901 -2.50757 4.15029 0
M  V30 1483 N 152.244 -1.26651 -0.937939 0
M  V30 1484 C 153.174 -1.10993 -2.05433 0
M  V30 1485 C 154.155 -0.0142161 -1.70094 0
M  V30 1486 O 155.34 -0.186837 -1.93299 0
M  V30 1487 C 152.47 -0.745561 -3.39203 0
M  V30 1488 C 151.424 -1.79337 -3.88616 0
M  V30 1489 C 150.75 -1.28324 -5.19073 0
M  V30 1490 C 152.05 -3.19553 -4.13138 0
M  V30 1491 H 153.744 -2.0438 -2.1879 0
M  V30 1492 H 151.29 -0.984041 -1.05131 0
M  V30 1493 H 153.243 -0.622888 -4.16771 0
M  V30 1494 H 151.967 0.22401 -3.25831 0
M  V30 1495 H 150.626 -1.90477 -3.13231 0
M  V30 1496 H 150.274 -0.303414 -5.02084 0
M  V30 1497 H 149.974 -1.98369 -5.53103 0
M  V30 1498 H 151.498 -1.1733 -5.99221 0
M  V30 1499 H 152.912 -3.11471 -4.81309 0
M  V30 1500 H 151.309 -3.87218 -4.58457 0
M  V30 1501 H 152.379 -3.65368 -3.18801 0
M  V30 1502 N 153.722 1.14298 -1.08507 0
M  V30 1503 C 154.97 1.84993 -0.813763 0
M  V30 1504 C 155.291 1.83405 0.662393 0
M  V30 1505 O 154.561 1.28319 1.48024 0
M  V30 1506 H 153.141 0.684966 -0.298045 0
M  V30 1507 H 155.803 1.385 -1.37126 0
M  V30 1508 H 154.899 2.89788 -1.15884 0
M  V30 1509 N 155.201 0.870884 1.31352 0
M  V30 1510 C 156.429 0.49677 2.00848 0
M  V30 1511 C 156.844 -0.910998 1.65367 0
M  V30 1512 O 156.201 -1.59696 0.883374 0
M  V30 1513 C 156.252 0.645308 3.55694 0
M  V30 1514 O 155.973 1.99764 3.89905 0
M  V30 1515 C 157.474 0.272326 4.42463 0
M  V30 1516 H 154.694 0.193462 0.642506 0
M  V30 1517 H 157.238 1.1723 1.67563 0
M  V30 1518 H 155.393 0.0173176 3.87396 0
M  V30 1519 H 155.807 2.00607 4.84621 0
M  V30 1520 H 157.281 0.427208 5.50344 0
M  V30 1521 H 157.758 -0.788587 4.32062 0
M  V30 1522 H 158.364 0.876054 4.1618 0
M  V30 1523 N 156.679 -1.44442 0.630414 0
M  V30 1524 C 157.956 -1.9549 0.0655657 0
M  V30 1525 C 158.336 -1.5724 -1.40851 0
M  V30 1526 O 157.684 -0.846116 -2.12257 0
M  V30 1527 C 157.894 -3.47812 0.287691 0
M  V30 1528 C 159.242 -4.24216 0.180513 0
M  V30 1529 O 160.266 -3.55526 0.219019 0
M  V30 1530 O 159.125 -5.46434 0.0848493 0
M  V30 1531 H 156.219 -0.826688 -0.0227177 0
M  V30 1532 H 158.765 -1.54496 0.702068 0
M  V30 1533 H 157.537 -3.687 1.31056 0
M  V30 1534 H 157.16 -3.95751 -0.382984 0
M  V30 1535 N 158.157 -0.370918 -1.53173 0
M  V30 1536 C 159.382 0.220293 -2.06227 0
M  V30 1537 C 159.807 1.41243 -1.24225 0
M  V30 1538 O 159.165 1.79387 -0.262645 0
M  V30 1539 C 159.213 0.586663 -3.55796 0
M  V30 1540 O 158.317 1.68317 -3.76488 0
M  V30 1541 H 157.658 0.0308099 -0.663285 0
M  V30 1542 H 160.188 -0.533068 -1.97534 0
M  V30 1543 H 160.198 0.85617 -3.98916 0
M  V30 1544 H 158.873 -0.285013 -4.14922 0
M  V30 1545 H 157.45 1.40881 -3.45264 0
M  V30 1546 N 159.635 1.57281 -0.100228 0
M  V30 1547 C 160.884 1.93713 0.561984 0
M  V30 1548 C 161.197 0.984492 1.69018 0
M  V30 1549 O 162.403 1.24273 2.41389 0
M  V30 1550 C 160.859 3.4421 1.05106 0
M  V30 1551 C 160.467 4.47975 -0.0476628 0
M  V30 1552 C 162.211 3.89595 1.68571 0
M  V30 1553 C 160.118 5.89631 0.457055 0
M  V30 1554 H 159.048 0.723082 0.2137 0
M  V30 1555 H 161.699 1.82644 -0.177057 0
M  V30 1556 H 160.081 3.50449 1.84395 0
M  V30 1557 H 161.255 4.53385 -0.823333 0
M  V30 1558 H 159.57 4.1223 -0.587816 0
M  V30 1559 H 162.167 4.92832 2.07414 0
M  V30 1560 H 162.51 3.28526 2.55688 0
M  V30 1561 H 163.043 3.86078 0.958562 0
M  V30 1562 H 159.782 6.54411 -0.377616 0
M  V30 1563 H 159.302 5.87681 1.19962 0
M  V30 1564 H 160.981 6.40363 0.92437 0
M  V30 1565 N 161.113 -0.173488 1.56642 0
M  V30 1566 C 162.338 -0.910149 1.86363 0
M  V30 1567 C 162.763 -1.75132 0.686318 0
M  V30 1568 O 162.121 -1.77595 -0.364643 0
M  V30 1569 C 162.169 -1.76447 3.14482 0
M  V30 1570 O 161.273 -2.86584 2.96553 0
M  V30 1571 H 160.614 -0.255086 0.613047 0
M  V30 1572 H 163.144 -0.172283 2.03873 0
M  V30 1573 H 163.154 -2.16483 3.45831 0
M  V30 1574 H 161.829 -1.14658 3.99783 0
M  V30 1575 H 160.406 -2.50146 2.76553 0
M  V30 1576 N 162.591 -1.51276 -0.441967 0
M  V30 1577 C 164.007 -1.39349 -0.778083 0
M  V30 1578 C 164.207 -0.472212 -1.95889 0
M  V30 1579 O 163.263 0.0743551 -2.5239 0
M  V30 1580 C 164.576 -2.81292 -1.0628 0
M  V30 1581 C 166.124 -2.9041 -1.16751 0
M  V30 1582 C 166.599 -4.33251 -1.48519 0
M  V30 1583 N 168.09 -4.36336 -1.55453 0
M  V30 1584 C 168.825 -5.43885 -1.81596 0
M  V30 1585 N 168.321 -6.61601 -2.05562 0
M  V30 1586 N 170.114 -5.3136 -1.8334 0
M  V30 1587 H 162.265 -2.09729 0.335774 0
M  V30 1588 H 164.528 -0.943925 0.0878028 0
M  V30 1589 H 164.234 -3.50678 -0.267905 0
M  V30 1590 H 164.108 -3.20334 -1.99163 0
M  V30 1591 H 166.495 -2.21225 -1.95304 0
M  V30 1592 H 166.576 -2.54871 -0.217801 0
M  V30 1593 H 166.22 -5.02984 -0.704958 0
M  V30 1594 H 166.15 -4.66299 -2.44689 0
M  V30 1595 H 168.641 -3.51466 -1.38853 0
M  V30 1596 H 168.954 -7.39361 -2.24867 0
M  V30 1597 H 167.299 -6.64725 -2.02894 0
M  V30 1598 H 170.49 -4.38382 -1.64132 0
M  V30 1599 H 170.663 -6.15258 -2.03377 0
M  V30 1600 N 164.069 0.697108 -1.41344 0
M  V30 1601 C 165.019 1.80313 -1.39539 0
M  V30 1602 C 166.003 1.58618 -0.270001 0
M  V30 1603 O 167.195 1.69477 -0.510551 0
M  V30 1604 C 164.324 3.18606 -1.27848 0
M  V30 1605 C 163.41 3.46001 -2.45244 0
M  V30 1606 N 163.801 3.44103 -3.70711 0
M  V30 1607 C 162.099 3.76542 -2.39023 0
M  V30 1608 C 162.8 3.7036 -4.48563 0
M  V30 1609 N 161.776 3.90027 -3.78655 0
M  V30 1610 H 165.578 1.77207 -2.34468 0
M  V30 1611 H 163.092 0.897031 -1.35378 0
M  V30 1612 H 165.089 3.97833 -1.24637 0
M  V30 1613 H 163.749 3.22925 -0.339032 0
M  V30 1614 H 164.76 3.2452 -4.03618 0
M  V30 1615 H 161.437 3.88241 -1.53542 0
M  V30 1616 H 162.827 3.75042 -5.57488 0
M  V30 1617 N 165.547 1.27147 0.931209 0
M  V30 1618 C 166.958 1.12044 1.49342 0
M  V30 1619 C 167.309 -0.295795 1.93957 0
M  V30 1620 O 166.434 -1.18835 1.80852 0
M  V30 1621 C 167.029 2.02781 2.71414 0
M  V30 1622 C 165.588 1.91794 3.2387 0
M  V30 1623 C 164.735 1.95543 1.96617 0
M  V30 1624 H 167.686 1.40091 0.745672 0
M  V30 1625 H 167.707 1.58156 3.46074 0
M  V30 1626 H 167.219 3.05848 2.38911 0
M  V30 1627 H 165.32 0.916992 3.6114 0
M  V30 1628 H 165.433 2.77852 3.90302 0
M  V30 1629 H 163.797 1.39722 2.12955 0
M  V30 1630 H 164.58 3.00259 1.66432 0
M  V30 1631 N 167.025 -1.13721 1.09112 0
M  V30 1632 C 167.935 -2.22638 0.73957 0
M  V30 1633 C 168.951 -1.72091 -0.257068 0
M  V30 1634 O 170.127 -2.01155 -0.0992154 0
M  V30 1635 C 167.192 -3.46322 0.16191 0
M  V30 1636 C 166.253 -4.11775 1.21408 0
M  V30 1637 C 165.486 -5.29555 0.663891 0
M  V30 1638 O 165.709 -5.68077 -0.514274 0
M  V30 1639 O 164.643 -5.84973 1.41738 0
M  V30 1640 H 168.469 -2.55074 1.64836 0
M  V30 1641 H 166.054 -1.21791 0.865289 0
M  V30 1642 H 167.936 -4.21107 -0.157073 0
M  V30 1643 H 166.611 -3.15593 -0.719932 0
M  V30 1644 H 165.518 -3.3883 1.58571 0
M  V30 1645 H 166.851 -4.46627 2.06845 0
M  V30 1646 N 168.503 -0.877838 -1.30888 0
M  V30 1647 C 169.728 -0.506629 -2.01117 0
M  V30 1648 C 170.153 0.895564 -1.65412 0
M  V30 1649 O 169.511 1.5923 -0.866922 0
M  V30 1650 C 169.559 -0.680223 -3.54126 0
M  V30 1651 O 168.663 0.277033 -4.11468 0
M  V30 1652 H 168.004 -0.200518 -0.633 0
M  V30 1653 H 170.534 -1.18342 -1.66902 0
M  V30 1654 H 170.544 -0.5765 -4.03907 0
M  V30 1655 H 169.219 -1.70261 -3.79452 0
M  V30 1656 H 167.796 0.127606 -3.72682 0
M  V30 1657 N 169.982 1.44106 -0.638065 0
M  V30 1658 C 170.912 2.33448 0.0494287 0
M  V30 1659 C 171.893 1.48606 0.827672 0
M  V30 1660 O 173.078 1.77308 0.792173 0
M  V30 1661 C 170.208 3.31771 1.02691 0
M  V30 1662 C 169.162 4.26485 0.359823 0
M  V30 1663 C 168.488 5.14729 1.44769 0
M  V30 1664 C 169.788 5.17056 -0.738296 0
M  V30 1665 H 171.482 2.91183 -0.696636 0
M  V30 1666 H 169.028 1.40014 -0.336456 0
M  V30 1667 H 170.981 3.93161 1.51666 0
M  V30 1668 H 169.705 2.7226 1.80395 0
M  V30 1669 H 168.364 3.66437 -0.10934 0
M  V30 1670 H 168.012 4.51566 2.21578 0
M  V30 1671 H 167.712 5.78913 1.00668 0
M  V30 1672 H 169.236 5.78991 1.93911 0
M  V30 1673 H 170.65 5.72342 -0.331354 0
M  V30 1674 H 169.047 5.89879 -1.10286 0
M  V30 1675 H 170.117 4.57652 -1.60258 0
M  V30 1676 N 171.46 0.379036 1.52974 0
M  V30 1677 C 172.39 -0.452706 2.29069 0
M  V30 1678 C 173.371 -1.07237 1.32039 0
M  V30 1679 O 174.556 -1.08708 1.60923 0
M  V30 1680 C 171.686 -1.5856 3.08992 0
M  V30 1681 C 170.64 -1.0925 4.13822 0
M  V30 1682 C 169.966 -2.31668 4.81907 0
M  V30 1683 C 171.266 -0.167702 5.22031 0
M  V30 1684 H 172.96 0.182181 2.98845 0
M  V30 1685 H 170.506 0.0890592 1.43724 0
M  V30 1686 H 172.459 -2.1742 3.6098 0
M  V30 1687 H 171.183 -2.24792 2.36931 0
M  V30 1688 H 169.842 -0.526494 3.628 0
M  V30 1689 H 169.49 -2.96386 4.06404 0
M  V30 1690 H 169.19 -1.9934 5.52754 0
M  V30 1691 H 170.714 -2.91189 5.36695 0
M  V30 1692 H 172.128 -0.664186 5.6944 0
M  V30 1693 H 170.525 0.0653265 6.00064 0
M  V30 1694 H 171.595 0.786347 4.78482 0
M  V30 1695 N 172.938 -1.57226 0.108567 0
M  V30 1696 C 173.901 -2.13602 -0.831082 0
M  V30 1697 C 174.901 -1.06841 -1.20173 0
M  V30 1698 O 176.091 -1.32666 -1.12895 0
M  V30 1699 C 173.223 -2.66769 -2.12243 0
M  V30 1700 H 174.416 -2.97951 -0.341317 0
M  V30 1701 H 171.969 -1.55667 -0.14057 0
M  V30 1702 H 172.704 -1.85977 -2.65675 0
M  V30 1703 H 172.489 -3.44839 -1.86625 0
M  V30 1704 H 173.979 -3.10332 -2.79435 0
M  V30 1705 N 174.416 0.165178 -1.56732 0
M  V30 1706 C 175.363 1.2044 -1.96883 0
M  V30 1707 C 176.333 1.43664 -0.833657 0
M  V30 1708 O 177.518 1.56302 -1.09427 0
M  V30 1709 C 174.658 2.53727 -2.33916 0
M  V30 1710 C 173.771 2.3783 -3.6064 0
M  V30 1711 C 172.906 3.64026 -3.86857 0
M  V30 1712 C 171.945 3.43088 -5.06909 0
M  V30 1713 N 171.082 4.61369 -5.29229 0
M  V30 1714 H 175.922 0.854996 -2.85471 0
M  V30 1715 H 173.459 0.41076 -1.41249 0
M  V30 1716 H 175.417 3.31419 -2.53411 0
M  V30 1717 H 174.047 2.8665 -1.48431 0
M  V30 1718 H 173.099 1.51282 -3.49024 0
M  V30 1719 H 174.411 2.18308 -4.4849 0
M  V30 1720 H 173.565 4.50152 -4.06753 0
M  V30 1721 H 172.304 3.86533 -2.97394 0
M  V30 1722 H 171.309 2.55349 -4.86906 0
M  V30 1723 H 172.534 3.21997 -5.97909 0
M  V30 1724 H 170.48 4.84084 -4.42718 0
M  V30 1725 H 170.397 4.44783 -6.11313 0
M  V30 1726 H 171.665 5.48761 -5.53608 0
M  V30 1727 N 175.894 1.51508 0.433938 0
M  V30 1728 C 177.122 1.68157 1.20543 0
M  V30 1729 C 177.537 0.380362 1.84929 0
M  V30 1730 O 176.894 -0.641446 1.70856 0
M  V30 1731 C 176.945 2.79965 2.28696 0
M  V30 1732 O 176.666 4.05045 1.66943 0
M  V30 1733 C 178.167 3.07912 3.18912 0
M  V30 1734 H 175.387 0.56421 0.363191 0
M  V30 1735 H 177.931 1.97941 0.513754 0
M  V30 1736 H 176.086 2.5277 2.93574 0
M  V30 1737 H 176.5 4.67165 2.38448 0
M  V30 1738 H 177.974 3.89719 3.90926 0
M  V30 1739 H 178.451 2.20456 3.79863 0
M  V30 1740 H 179.057 3.36779 2.59731 0
M  V30 1741 N 177.372 -0.689602 1.41712 0
M  V30 1742 C 178.788 -1.00093 1.24312 0
M  V30 1743 C 178.988 -2.01036 0.136729 0
M  V30 1744 O 178.044 -2.47562 -0.496918 0
M  V30 1745 C 179.357 -1.51985 2.59463 0
M  V30 1746 C 180.905 -1.63838 2.66695 0
M  V30 1747 C 181.38 -2.1913 4.02177 0
M  V30 1748 N 182.871 -2.26483 4.04054 0
M  V30 1749 C 183.606 -2.70306 5.0569 0
M  V30 1750 N 183.102 -3.13691 6.17713 0
M  V30 1751 N 184.895 -2.69923 4.9305 0
M  V30 1752 H 177.046 -0.0210029 2.1239 0
M  V30 1753 H 179.309 -0.0718733 0.945272 0
M  V30 1754 H 179.015 -0.85269 3.41207 0
M  V30 1755 H 178.889 -2.50103 2.82362 0
M  V30 1756 H 181.276 -2.29664 1.85306 0
M  V30 1757 H 181.357 -0.642492 2.476 0
M  V30 1758 H 181.001 -1.53918 4.84016 0
M  V30 1759 H 180.931 -3.19482 4.18615 0
M  V30 1760 H 183.422 -1.95874 3.23174 0
M  V30 1761 H 183.735 -3.45773 6.9113 0
M  V30 1762 H 182.08 -3.11585 6.21241 0
M  V30 1763 H 185.271 -2.35382 4.04614 0
M  V30 1764 H 185.444 -3.03758 5.72394 0
M  V30 1765 N 178.85 -1.27639 -0.924453 0
M  V30 1766 C 179.813 -1.10681 -2.00705 0
M  V30 1767 C 180.813 -0.0497823 -1.60723 0
M  V30 1768 O 182.003 -0.294654 -1.7169 0
M  V30 1769 C 179.135 -0.687164 -3.33902 0
M  V30 1770 H 180.328 -2.06817 -2.17179 0
M  V30 1771 H 177.881 -1.10473 -1.10569 0
M  V30 1772 H 178.616 0.275439 -3.23128 0
M  V30 1773 H 178.401 -1.45061 -3.6428 0
M  V30 1774 H 179.891 -0.590853 -4.13399 0
M  V30 1775 N 180.328 1.1314 -1.09713 0
M  V30 1776 C 181.258 2.20748 -0.761102 0
M  V30 1777 C 182.239 1.68061 0.262566 0
M  V30 1778 O 183.424 1.93765 0.129977 0
M  V30 1779 C 180.554 3.46812 -0.184054 0
M  V30 1780 C 179.508 4.12606 -1.13757 0
M  V30 1781 C 178.834 5.33031 -0.422083 0
M  V30 1782 C 180.134 4.59603 -2.48118 0
M  V30 1783 H 181.828 2.49113 -1.66082 0
M  V30 1784 H 179.374 1.19734 -0.799987 0
M  V30 1785 H 181.327 4.21353 0.0631215 0
M  V30 1786 H 180.051 3.17851 0.750868 0
M  V30 1787 H 178.71 3.40036 -1.37007 0
M  V30 1788 H 178.358 5.00335 0.517072 0
M  V30 1789 H 178.058 5.77999 -1.05788 0
M  V30 1790 H 179.582 6.10325 -0.183277 0
M  V30 1791 H 180.996 5.25552 -2.29059 0
M  V30 1792 H 179.393 5.15321 -3.07514 0
M  V30 1793 H 180.463 3.73971 -3.08665 0
M  V30 1794 N 181.806 0.884767 1.30421 0
M  V30 1795 C 182.754 0.340869 2.30089 0
M  V30 1796 C 183.748 -0.55201 1.60154 0
M  V30 1797 O 184.954 -0.436467 1.74628 0
M  V30 1798 H 181.329 0.0915739 0.746404 0
M  V30 1799 H 183.3 1.19513 2.73421 0
M  V30 1800 C 182.049 -0.429779 3.45034 0
M  V30 1801 H 181.372 0.248024 3.9903 0
M  V30 1802 H 182.812 -0.775445 4.16849 0
M  V30 1803 C 181.271 -1.62677 2.95022 0
M  V30 1804 O 181.801 -2.72614 2.95033 0
M  V30 1805 N 180.007 -1.46387 2.51036 0
M  V30 1806 H 179.554 -0.569506 2.51226 0
M  V30 1807 H 179.512 -2.26612 2.17932 0
M  V30 1808 N 183.284 -1.43765 0.645699 0
M  V30 1809 C 184.194 -2.34544 -0.0512957 0
M  V30 1810 C 185.21 -1.53455 -0.82022 0
M  V30 1811 O 186.386 -1.86133 -0.769176 0
M  V30 1812 C 183.451 -3.31636 -1.01087 0
M  V30 1813 C 182.512 -4.2863 -0.239712 0
M  V30 1814 C 181.745 -5.21084 -1.15358 0
M  V30 1815 O 181.968 -5.1779 -2.39269 0
M  V30 1816 O 180.902 -5.98593 -0.630038 0
M  V30 1817 H 184.728 -2.95624 0.695718 0
M  V30 1818 H 182.313 -1.43781 0.405882 0
M  V30 1819 H 184.195 -3.9136 -1.56254 0
M  V30 1820 H 182.87 -2.73069 -1.73824 0
M  V30 1821 H 181.777 -3.72408 0.355356 0
M  V30 1822 H 183.11 -4.90157 0.447936 0
M  V30 1823 N 184.763 -0.387143 -1.52771 0
M  V30 1824 C 185.673 0.456442 -2.30117 0
M  V30 1825 C 186.689 1.07342 -1.36944 0
M  V30 1826 O 187.865 1.07971 -1.70013 0
M  V30 1827 C 184.93 1.56957 -3.09136 0
M  V30 1828 C 183.991 0.977916 -4.18014 0
M  V30 1829 C 183.224 2.038 -4.93256 0
M  V30 1830 O 183.447 3.25271 -4.68567 0
M  V30 1831 O 182.381 1.6565 -5.78657 0
M  V30 1832 H 186.207 -0.17359 -3.03203 0
M  V30 1833 H 183.792 -0.150919 -1.48636 0
M  V30 1834 H 185.674 2.21628 -3.58412 0
M  V30 1835 H 184.349 2.18461 -2.38865 0
M  V30 1836 H 183.256 0.294525 -3.72939 0
M  V30 1837 H 184.589 0.407128 -4.90513 0
M  V30 1838 N 186.241 1.57166 -0.116904 0
M  V30 1839 C 187.489 1.94737 0.540533 0
M  V30 1840 C 187.81 1.00096 1.67349 0
M  V30 1841 O 187.08 0.0568854 1.95817 0
M  V30 1842 H 185.66 0.718981 0.202669 0
M  V30 1843 H 188.322 1.94017 -0.185353 0
M  V30 1844 H 187.418 2.97719 0.936483 0
M  V30 1845 N 187.719 -0.156864 1.56817 0
M  V30 1846 C 188.968 -0.869504 1.81996 0
M  V30 1847 C 189.281 -1.82777 0.696545 0
M  V30 1848 O 190.487 -2.58384 0.833658 0
M  V30 1849 C 188.943 -1.59679 3.22538 0
M  V30 1850 C 188.551 -0.681431 4.42787 0
M  V30 1851 C 190.295 -2.2968 3.56997 0
M  V30 1852 C 188.202 -1.40978 5.74351 0
M  V30 1853 H 187.132 -0.328438 0.678708 0
M  V30 1854 H 189.783 -0.1223 1.83092 0
M  V30 1855 H 188.165 -2.38927 3.158 0
M  V30 1856 H 189.339 0.0751166 4.60739 0
M  V30 1857 H 187.654 -0.0903431 4.16302 0
M  V30 1858 H 190.251 -2.84794 4.52544 0
M  V30 1859 H 190.594 -3.05707 2.82576 0
M  V30 1860 H 191.127 -1.57361 3.65352 0
M  V30 1861 H 187.866 -0.691561 6.51842 0
M  V30 1862 H 187.386 -2.13929 5.60352 0
M  V30 1863 H 189.065 -1.95337 6.16808 0
M  V30 1864 N 189.197 -1.51736 -0.425897 0
M  V30 1865 C 190.422 -1.69082 -1.20108 0
M  V30 1866 C 190.847 -0.392398 -1.83962 0
M  V30 1867 O 190.205 0.64858 -1.69302 0
M  V30 1868 C 190.253 -2.81604 -2.25237 0
M  V30 1869 O 189.357 -2.46004 -3.30992 0
M  V30 1870 H 188.698 -0.563408 -0.35138 0
M  V30 1871 H 191.228 -1.98358 -0.501512 0
M  V30 1872 H 191.238 -3.06025 -2.69838 0
M  V30 1873 H 189.913 -3.75817 -1.78142 0
M  V30 1874 H 188.49 -2.32195 -2.91787 0
M  V30 1875 N 190.675 0.682077 -1.42076 0
M  V30 1876 C 191.638 1.77756 -1.44691 0
M  V30 1877 C 192.638 1.5726 -0.335535 0
M  V30 1878 O 193.828 1.63686 -0.596037 0
M  V30 1879 C 190.96 3.16301 -1.27146 0
M  V30 1880 H 192.153 1.76826 -2.42224 0
M  V30 1881 H 189.706 0.891012 -1.28416 0
M  V30 1882 H 190.441 3.22862 -0.305075 0
M  V30 1883 H 190.226 3.32581 -2.07683 0
M  V30 1884 H 191.716 3.96241 -1.31843 0
M  V30 1885 N 192.153 1.28127 0.917671 0
M  V30 1886 C 193.399 1.16232 1.66918 0
M  V30 1887 C 193.754 -0.28701 1.90247 0
M  V30 1888 O 193.047 -1.20586 1.48895 0
M  V30 1889 C 193.241 1.89018 3.03327 0
M  V30 1890 C 193.07 3.4088 2.9331 0
M  V30 1891 C 191.84 4.10214 2.95047 0
M  V30 1892 C 194.038 4.36689 2.71675 0
M  V30 1893 N 192.02 5.48571 2.75577 0
M  V30 1894 C 193.391 5.62382 2.6101 0
M  V30 1895 C 195.446 4.26661 2.56641 0
M  V30 1896 C 194.149 6.79189 2.36843 0
M  V30 1897 C 196.175 5.432 2.33853 0
M  V30 1898 C 195.537 6.67855 2.23939 0
M  V30 1899 H 191.636 0.48024 0.617166 0
M  V30 1900 H 194.22 1.61727 1.08409 0
M  V30 1901 H 192.391 1.45963 3.59929 0
M  V30 1902 H 194.123 1.69541 3.67475 0
M  V30 1903 H 190.878 3.61762 3.05655 0
M  V30 1904 H 191.302 6.21287 2.68945 0
M  V30 1905 H 195.944 3.30998 2.63059 0
M  V30 1906 H 193.662 7.74926 2.29164 0
M  V30 1907 H 197.248 5.37328 2.23091 0
M  V30 1908 H 196.128 7.56511 2.06546 0
M  V30 1909 N 193.631 -1.12557 1.10312 0
M  V30 1910 C 194.564 -2.1737 0.694674 0
M  V30 1911 C 195.542 -1.59745 -0.303373 0
M  V30 1912 O 196.726 -1.87408 -0.202578 0
M  V30 1913 C 193.853 -3.38691 0.0248052 0
M  V30 1914 C 192.899 -4.14943 0.986121 0
M  V30 1915 S 193.732 -4.73413 2.50281 0
M  V30 1916 C 194.888 -5.9807 1.84562 0
M  V30 1917 H 195.121 -2.5168 1.58255 0
M  V30 1918 H 192.654 -1.23998 0.919992 0
M  V30 1919 H 194.612 -4.08959 -0.355361 0
M  V30 1920 H 193.273 -3.02664 -0.839851 0
M  V30 1921 H 192.466 -5.01854 0.464651 0
M  V30 1922 H 192.068 -3.50377 1.30813 0
M  V30 1923 H 194.36 -6.67232 1.17507 0
M  V30 1924 H 195.303 -6.54841 2.69423 0
M  V30 1925 H 195.711 -5.49073 1.31069 0
M  V30 1926 N 195.109 -0.891671 -1.2995 0
M  V30 1927 C 196.039 -0.379797 -2.30391 0
M  V30 1928 C 197.02 0.540919 -1.6127 0
M  V30 1929 O 198.205 0.453352 -1.88834 0
M  V30 1930 C 195.335 0.400654 -3.44981 0
M  V30 1931 C 194.289 -0.428905 -4.25846 0
M  V30 1932 C 193.615 0.478557 -5.32554 0
M  V30 1933 C 194.915 -1.67458 -4.94727 0
M  V30 1934 H 196.609 -1.21914 -2.73454 0
M  V30 1935 H 194.155 -0.587675 -1.31462 0
M  V30 1936 H 196.108 0.769434 -4.14316 0
M  V30 1937 H 194.832 1.27371 -3.0074 0
M  V30 1938 H 193.491 -0.779911 -3.58208 0
M  V30 1939 H 193.139 1.34951 -4.84559 0
M  V30 1940 H 192.839 -0.0727433 -5.87555 0
M  V30 1941 H 194.363 0.843705 -6.04743 0
M  V30 1942 H 195.777 -1.376 -5.56542 0
M  V30 1943 H 194.174 -2.16659 -5.59624 0
M  V30 1944 H 195.244 -2.41518 -4.20473 0
M  V30 1945 N 196.587 1.43421 -0.653314 0
M  V30 1946 C 197.815 2.06163 -0.174491 0
M  V30 1947 C 198.23 1.48969 1.1599 0
M  V30 1948 O 197.587 0.621042 1.71608 0
M  V30 1949 C 197.638 3.61417 -0.0774865 0
M  V30 1950 O 197.359 4.16485 -1.35912 0
M  V30 1951 C 198.86 4.41235 0.427402 0
M  V30 1952 H 196.08 0.664946 -0.0899353 0
M  V30 1953 H 198.624 1.83924 -0.893988 0
M  V30 1954 H 196.779 3.82841 0.59257 0
M  V30 1955 H 197.193 5.10153 -1.21839 0
M  V30 1956 H 198.667 5.5021 0.44423 0
M  V30 1957 H 199.144 4.14268 1.45873 0
M  V30 1958 H 199.75 4.2478 -0.210167 0
M  V30 1959 N 198.065 0.39524 1.52563 0
M  V30 1960 C 199.313 -0.184678 2.01254 0
M  V30 1961 C 199.634 -1.46822 1.28329 0
M  V30 1962 O 198.904 -1.91666 0.405094 0
M  V30 1963 H 197.484 -0.0712355 0.743596 0
M  V30 1964 H 200.146 0.528293 1.87603 0
M  V30 1965 H 199.242 -0.390681 3.09645 0
M  V30 1966 N 199.544 -1.57102 0.125237 0
M  V30 1967 C 200.507 -2.14471 -0.80838 0
M  V30 1968 C 201.507 -1.0811 -1.19033 0
M  V30 1969 O 202.697 -1.33856 -1.11482 0
M  V30 1970 C 199.829 -2.69005 -2.09402 0
M  V30 1971 H 201.022 -2.98297 -0.309696 0
M  V30 1972 H 198.575 -1.55807 -0.124051 0
M  V30 1973 H 199.31 -1.88785 -2.63687 0
M  V30 1974 H 199.095 -3.46799 -1.82957 0
M  V30 1975 H 200.585 -3.13278 -2.76128 0
M  V30 1976 N 201.022 0.148545 -1.56898 0
M  V30 1977 C 202.252 0.875118 -1.8715 0
M  V30 1978 C 202.66 1.75322 -0.711262 0
M  V30 1979 O 202.003 1.80745 0.328151 0
M  V30 1980 C 202.065 1.7844 -3.12089 0
M  V30 1981 C 201.729 1.08361 -4.43967 0
M  V30 1982 C 202.726 0.438247 -5.1805 0
M  V30 1983 C 200.411 1.07358 -4.90693 0
M  V30 1984 C 202.405 -0.20779 -6.37061 0
M  V30 1985 C 200.092 0.42373 -6.09629 0
M  V30 1986 C 201.09 -0.215829 -6.82659 0
M  V30 1987 O 200.778 -0.855378 -7.99336 0
M  V30 1988 H 200.51 0.258504 -0.624621 0
M  V30 1989 H 203.064 0.14652 -2.04877 0
M  V30 1990 H 201.294 2.55389 -2.90367 0
M  V30 1991 H 202.983 2.38279 -3.286 0
M  V30 1992 H 203.749 0.437817 -4.8302 0
M  V30 1993 H 199.628 1.5608 -4.33774 0
M  V30 1994 H 203.172 -0.70758 -6.94002 0
M  V30 1995 H 199.069 0.421822 -6.4412 0
M  V30 1996 H 199.837 -0.756892 -8.14993 0
M  V30 1997 N 202.5 1.5196 0.417844 0
M  V30 1998 C 203.45 1.7106 1.5074 0
M  V30 1999 C 204.434 0.564487 1.50673 0
M  V30 2000 O 205.626 0.821206 1.56797 0
M  V30 2001 C 202.755 1.85677 2.88754 0
M  V30 2002 C 201.841 3.06133 2.93502 0
M  V30 2003 N 202.232 4.28987 2.67962 0
M  V30 2004 C 200.53 3.05787 3.24669 0
M  V30 2005 C 201.231 5.10395 2.79055 0
M  V30 2006 N 200.207 4.45455 3.11561 0
M  V30 2007 H 204.009 2.63696 1.29775 0
M  V30 2008 H 201.523 1.49873 0.625436 0
M  V30 2009 H 203.52 1.97475 3.67164 0
M  V30 2010 H 202.18 0.942348 3.10725 0
M  V30 2011 H 203.191 4.57607 2.4252 0
M  V30 2012 H 199.868 2.2405 3.52289 0
M  V30 2013 H 201.258 6.18247 2.63097 0
M  V30 2014 N 203.978 -0.674533 1.42435 0
M  V30 2015 C 205.224 -1.43671 1.43131 0
M  V30 2016 C 205.557 -1.94142 0.0476021 0
M  V30 2017 O 204.832 -1.70924 -0.928188 0
M  V30 2018 C 205.115 -2.63355 2.45594 0
M  V30 2019 C 204.968 -2.18514 3.93156 0
M  V30 2020 C 206.287 -3.65571 2.45043 0
M  V30 2021 H 203.406 -0.521077 0.521198 0
M  V30 2022 H 206.048 -0.766551 1.7385 0
M  V30 2023 H 204.198 -3.2053 2.19528 0
M  V30 2024 H 205.87 -1.66504 4.30202 0
M  V30 2025 H 204.113 -1.50086 4.07009 0
M  V30 2026 H 204.784 -3.04484 4.60428 0
M  V30 2027 H 207.26 -3.18113 2.68223 0
M  V30 2028 H 206.136 -4.46893 3.18713 0
M  V30 2029 H 206.397 -4.16716 1.47649 0
M  V30 2030 N 205.456 -1.28612 -0.910864 0
M  V30 2031 C 206.867 -1.14406 -1.47541 0
M  V30 2032 C 207.218 0.264901 -1.94403 0
M  V30 2033 O 206.343 1.15942 -1.82719 0
M  V30 2034 C 206.938 -2.07073 -2.68153 0
M  V30 2035 C 205.497 -1.96923 -3.20778 0
M  V30 2036 C 204.644 -1.98646 -1.93481 0
M  V30 2037 H 207.595 -1.41259 -0.723291 0
M  V30 2038 H 207.616 -1.63642 -3.43514 0
M  V30 2039 H 207.128 -3.09611 -2.34015 0
M  V30 2040 H 205.229 -0.97433 -3.59635 0
M  V30 2041 H 205.342 -2.84026 -3.85832 0
M  V30 2042 H 203.706 -1.43093 -2.10705 0
M  V30 2043 H 204.489 -3.02868 -1.61634 0
M  V30 2044 N 206.934 1.1197 -1.10907 0
M  V30 2045 C 208.159 1.87942 -0.877064 0
M  V30 2046 C 208.584 1.79341 0.567314 0
M  V30 2047 O 207.942 1.15184 1.40009 0
M  V30 2048 C 207.99 3.34926 -1.33629 0
M  V30 2049 O 207.094 4.09303 -0.504447 0
M  V30 2050 H 206.435 0.583785 -0.316371 0
M  V30 2051 H 208.965 1.4157 -1.47712 0
M  V30 2052 H 208.975 3.8577 -1.32837 0
M  V30 2053 H 207.65 3.40504 -2.3881 0
M  V30 2054 H 206.227 3.68393 -0.577993 0
M  V30 2055 N 208.412 0.89855 1.29475 0
M  V30 2056 C 209.828 0.594483 1.48115 0
M  V30 2057 C 210.028 -0.86431 1.82022 0
M  V30 2058 O 209.084 -1.64457 1.91599 0
M  V30 2059 C 210.397 1.51932 2.59494 0
M  V30 2060 C 211.945 1.5244 2.7337 0
M  V30 2061 C 212.42 2.43548 3.87877 0
M  V30 2062 N 213.911 2.41589 3.95208 0
M  V30 2063 C 214.646 3.08789 4.83153 0
M  V30 2064 N 214.142 3.85265 5.75798 0
M  V30 2065 N 215.935 2.97952 4.76635 0
M  V30 2066 H 208.086 1.84207 1.05742 0
M  V30 2067 H 210.349 0.789251 0.525154 0
M  V30 2068 H 210.055 2.55865 2.41301 0
M  V30 2069 H 209.929 1.23899 3.56271 0
M  V30 2070 H 212.316 0.492518 2.90961 0
M  V30 2071 H 212.397 1.8451 1.77172 0
M  V30 2072 H 212.041 3.46829 3.71041 0
M  V30 2073 H 211.971 2.08788 4.83441 0
M  V30 2074 H 214.462 1.86025 3.28943 0
M  V30 2075 H 214.775 4.33598 6.39697 0
M  V30 2076 H 213.12 3.89371 5.75687 0
M  V30 2077 H 216.311 2.37723 4.03244 0
M  V30 2078 H 216.484 3.50599 5.44962 0
M  V30 2079 N 209.89 -1.43072 0.660911 0
M  V30 2080 C 211.118 -2.06067 0.185422 0
M  V30 2081 C 211.533 -1.49582 -1.15198 0
M  V30 2082 O 210.89 -0.630134 -1.71276 0
M  V30 2083 C 210.941 -3.61371 0.0966523 0
M  V30 2084 O 210.662 -4.15758 1.38119 0
M  V30 2085 C 212.163 -4.41455 -0.403996 0
M  V30 2086 H 209.383 -0.664459 0.0934604 0
M  V30 2087 H 211.927 -1.83447 0.90373 0
M  V30 2088 H 210.082 -3.8315 -0.572259 0
M  V30 2089 H 210.496 -5.09499 1.24542 0
M  V30 2090 H 211.97 -5.50437 -0.415045 0
M  V30 2091 H 212.447 -4.15036 -1.43674 0
M  V30 2092 H 213.053 -4.24663 0.232691 0
M  V30 2093 N 211.368 -0.403325 -1.52352 0
M  V30 2094 C 212.617 0.175668 -2.00934 0
M  V30 2095 C 212.93 1.46718 -1.29356 0
M  V30 2096 O 214.136 2.12708 -1.68724 0
M  V30 2097 C 212.592 0.363612 -3.58058 0
M  V30 2098 C 212.2 -0.915472 -4.38547 0
M  V30 2099 C 213.944 0.89821 -4.14888 0
M  V30 2100 C 211.851 -0.695035 -5.87302 0
M  V30 2101 H 210.781 0.0694234 -0.750797 0
M  V30 2102 H 213.432 -0.527879 -1.75743 0
M  V30 2103 H 211.814 1.12935 -3.79555 0
M  V30 2104 H 212.988 -1.68691 -4.28812 0
M  V30 2105 H 211.303 -1.37606 -3.93006 0
M  V30 2106 H 213.9 1.07907 -5.23699 0
M  V30 2107 H 214.243 1.87126 -3.71873 0
M  V30 2108 H 214.776 0.191681 -3.97338 0
M  V30 2109 H 211.515 -1.63948 -6.34666 0
M  V30 2110 H 211.035 0.0372116 -5.99788 0
M  V30 2111 H 212.714 -0.33497 -6.46132 0
M  V30 2112 N 212.846 1.57033 -0.133567 0
M  V30 2113 C 214.074 2.00044 0.528195 0
M  V30 2114 C 214.489 1.01349 1.59291 0
M  V30 2115 O 213.846 0.00848369 1.82498 0
M  V30 2116 C 213.897 3.43018 1.1411 0
M  V30 2117 O 213.618 4.37939 0.11892 0
M  V30 2118 C 215.119 4.01237 1.88477 0
M  V30 2119 H 212.339 0.656517 0.138661 0
M  V30 2120 H 214.883 2.03267 -0.224196 0
M  V30 2121 H 213.038 3.40688 1.84418 0
M  V30 2122 H 213.452 5.21436 0.56613 0
M  V30 2123 H 214.926 5.03314 2.26669 0
M  V30 2124 H 215.403 3.41193 2.76558 0
M  V30 2125 H 216.009 4.07156 1.22898 0
M  V30 2126 N 214.325 -0.140222 1.56975 0
M  V30 2127 C 215.573 -0.850005 1.83356 0
M  V30 2128 C 215.894 -1.81399 0.71551 0
M  V30 2129 O 215.164 -1.94136 -0.262294 0
M  V30 2130 H 213.744 -0.316886 0.676456 0
M  V30 2131 H 216.406 -0.132608 1.94448 0
M  V30 2132 H 215.502 -1.40814 2.78528 0
M  V30 2133 N 215.803 -1.52179 -0.40978 0
M  V30 2134 C 217.028 -1.70347 -1.18308 0
M  V30 2135 C 217.453 -0.411887 -1.83535 0
M  V30 2136 O 216.811 0.630587 -1.6998 0
M  V30 2137 C 216.859 -2.83977 -2.22238 0
M  V30 2138 O 215.963 -2.495 -3.28365 0
M  V30 2139 H 215.304 -0.567103 -0.345384 0
M  V30 2140 H 217.834 -1.98879 -0.480445 0
M  V30 2141 H 217.844 -3.0887 -2.66577 0
M  V30 2142 H 216.519 -3.77685 -1.74146 0
M  V30 2143 H 215.096 -2.35277 -2.89308 0
M  V30 2144 N 217.281 0.66697 -1.42791 0
M  V30 2145 C 218.527 1.4291 -1.43891 0
M  V30 2146 C 218.86 1.94114 -0.0578972 0
M  V30 2147 O 218.135 1.71414 0.91911 0
M  V30 2148 C 218.418 2.62049 -2.46987 0
M  V30 2149 C 218.271 2.16426 -3.94309 0
M  V30 2150 C 219.59 3.64266 -2.46978 0
M  V30 2151 H 216.709 0.518306 -0.523954 0
M  V30 2152 H 219.351 0.757321 -1.74255 0
M  V30 2153 H 217.501 3.19361 -2.21225 0
M  V30 2154 H 219.173 1.64221 -4.31079 0
M  V30 2155 H 217.416 1.47925 -4.078 0
M  V30 2156 H 218.087 3.02038 -4.62036 0
M  V30 2157 H 220.563 3.16686 -2.69906 0
M  V30 2158 H 219.439 4.45196 -3.21079 0
M  V30 2159 H 219.7 4.15927 -1.49857 0
M  V30 2160 N 218.759 1.29093 0.90403 0
M  V30 2161 C 219.669 1.15727 2.0407 0
M  V30 2162 C 220.685 0.0815308 1.73809 0
M  V30 2163 O 221.861 0.292749 1.99261 0
M  V30 2164 C 218.926 0.830424 3.36608 0
M  V30 2165 C 217.987 1.98955 3.80415 0
M  V30 2166 C 217.22 1.6782 5.06628 0
M  V30 2167 O 217.443 0.597105 5.67266 0
M  V30 2168 O 216.377 2.52486 5.46383 0
M  V30 2169 H 220.203 2.11171 2.18267 0
M  V30 2170 H 217.788 1.08504 1.027 0
M  V30 2171 H 219.67 0.662521 4.16159 0
M  V30 2172 H 218.345 -0.0942678 3.23563 0
M  V30 2173 H 217.252 2.21267 3.01648 0
M  V30 2174 H 218.585 2.89529 3.98037 0
M  V30 2175 N 220.237 -1.11381 1.11499 0
M  V30 2176 C 221.184 -2.17439 0.773887 0
M  V30 2177 C 222.154 -1.64132 -0.254899 0
M  V30 2178 O 223.339 -1.90345 -0.13168 0
M  V30 2179 C 220.479 -3.44373 0.223917 0
M  V30 2180 C 219.592 -4.1168 1.30934 0
M  V30 2181 C 218.727 -5.263 0.71984 0
M  V30 2182 C 217.766 -5.85493 1.78507 0
M  V30 2183 N 216.903 -6.91507 1.21502 0
M  V30 2184 H 221.743 -2.45962 1.68246 0
M  V30 2185 H 219.28 -1.20744 0.840191 0
M  V30 2186 H 221.238 -4.17047 -0.112921 0
M  V30 2187 H 219.868 -3.16232 -0.647851 0
M  V30 2188 H 218.92 -3.37073 1.76312 0
M  V30 2189 H 220.232 -4.51729 2.11524 0
M  V30 2190 H 219.386 -6.05785 0.333094 0
M  V30 2191 H 218.125 -4.87559 -0.117377 0
M  V30 2192 H 217.13 -5.04686 2.18111 0
M  V30 2193 H 218.355 -6.26301 2.62533 0
M  V30 2194 H 216.301 -6.54783 0.399455 0
M  V30 2195 H 216.218 -7.30214 1.95763 0
M  V30 2196 H 217.486 -7.74795 0.855181 0
M  V30 2197 N 221.715 -0.905404 -1.28997 0
M  V30 2198 C 222.992 -0.453513 -1.9027 0
M  V30 2199 C 223.372 1.06721 -1.82137 0
M  V30 2200 O 222.72 1.91159 -1.25182 0
M  V30 2201 C 222.93 -0.974494 -3.35119 0
M  V30 2202 C 224.278 -1.0216 -4.12127 0
M  V30 2203 O 225.302 -0.922557 -3.44046 0
M  V30 2204 O 224.161 -1.17121 -5.33802 0
M  V30 2205 H 221.255 -0.142347 -0.814657 0
M  V30 2206 H 223.801 -0.995642 -1.37423 0
M  V30 2207 H 222.573 -2.01848 -3.35221 0
M  V30 2208 H 222.196 -0.412706 -3.95452 0
M  V30 2209 N 223.193 1.4272 -0.668489 0
M  V30 2210 C 224.439 2.01923 -0.188419 0
M  V30 2211 C 224.772 1.52704 1.19979 0
M  V30 2212 O 224.047 0.726566 1.8042 0
M  V30 2213 C 224.33 3.59451 -0.216085 0
M  V30 2214 C 224.183 4.18864 -1.6393 0
M  V30 2215 C 225.502 4.37903 0.439179 0
M  V30 2216 H 222.621 0.733674 -0.0699412 0
M  V30 2217 H 225.263 1.69822 -0.852076 0
M  V30 2218 H 223.413 3.86929 0.349012 0
M  V30 2219 H 225.085 4.02362 -2.25616 0
M  V30 2220 H 223.328 3.74933 -2.18193 0
M  V30 2221 H 223.999 5.27987 -1.61039 0
M  V30 2222 H 226.475 4.16079 -0.0417878 0
M  V30 2223 H 225.351 5.47519 0.389157 0
M  V30 2224 H 225.612 4.15303 1.51577 0
M  V30 2225 N 224.671 0.411399 1.52136 0
M  V30 2226 C 225.634 -0.401089 2.25663 0
M  V30 2227 C 226.634 -0.971732 1.28117 0
M  V30 2228 O 227.824 -0.850254 1.52041 0
M  V30 2229 C 224.956 -1.56483 3.02863 0
M  V30 2230 H 226.149 0.24295 2.98914 0
M  V30 2231 H 223.702 0.163968 1.55438 0
M  V30 2232 H 224.437 -2.24567 2.33967 0
M  V30 2233 H 224.222 -1.16211 3.74483 0
M  V30 2234 H 225.712 -2.13951 3.58629 0
M  V30 2235 N 226.149 -1.5696 0.141893 0
M  V30 2236 C 227.398 -1.95135 -0.510427 0
M  V30 2237 C 227.711 -1.02896 -1.66348 0
M  V30 2238 O 228.917 -1.30629 -2.38009 0
M  V30 2239 C 227.373 -3.46876 -0.959427 0
M  V30 2240 C 226.981 -4.47691 0.166419 0
M  V30 2241 C 228.725 -3.93927 -1.58183 0
M  V30 2242 C 226.632 -5.90636 -0.300565 0
M  V30 2243 H 225.562 -0.728494 -0.194454 0
M  V30 2244 H 228.213 -1.8211 0.22542 0
M  V30 2245 H 226.595 -3.55215 -1.75038 0
M  V30 2246 H 227.769 -4.51043 0.94325 0
M  V30 2247 H 226.084 -4.10527 0.696905 0
M  V30 2248 H 228.681 -4.98158 -1.94275 0
M  V30 2249 H 229.024 -3.3519 -2.46888 0
M  V30 2250 H 229.557 -3.88484 -0.855863 0
M  V30 2251 H 226.296 -6.5318 0.550989 0
M  V30 2252 H 225.816 -5.90655 -1.04338 0
M  V30 2253 H 227.495 -6.42588 -0.754265 0
M  V30 2254 N 227.627 0.131896 -1.57047 0
M  V30 2255 C 228.876 0.84044 -1.83356 0
M  V30 2256 C 229.189 1.81646 -0.725535 0
M  V30 2257 O 230.395 2.57025 -0.874659 0
M  V30 2258 C 228.851 1.54528 -3.25037 0
M  V30 2259 C 228.459 0.610902 -4.43815 0
M  V30 2260 C 230.203 2.23972 -3.60606 0
M  V30 2261 C 228.11 1.31823 -5.76521 0
M  V30 2262 H 227.04 0.317599 -0.683847 0
M  V30 2263 H 229.691 0.0931561 -1.83263 0
M  V30 2264 H 228.073 2.33873 -3.19561 0
M  V30 2265 H 229.247 -0.148407 -4.60561 0
M  V30 2266 H 227.562 0.0241016 -4.16393 0
M  V30 2267 H 230.159 2.77558 -4.57018 0
M  V30 2268 H 230.502 3.01173 -2.87403 0
M  V30 2269 H 231.035 1.51529 -3.6781 0
M  V30 2270 H 227.774 0.587771 -6.52859 0
M  V30 2271 H 227.294 2.04987 -5.63685 0
M  V30 2272 H 228.973 1.855 -6.19838 0
M  V30 2273 N 229.106 1.52395 0.401703 0
M  V30 2274 C 230.383 1.57387 1.16141 0
M  V30 2275 C 230.763 0.359359 2.08019 0
M  V30 2276 O 230.111 -0.65326 2.18963 0
M  V30 2277 C 230.321 2.90631 1.93221 0
M  V30 2278 C 231.669 3.43904 2.49028 0
M  V30 2279 O 232.693 2.92421 2.03393 0
M  V30 2280 O 231.552 4.33823 3.32356 0
M  V30 2281 H 228.646 0.634262 0.530698 0
M  V30 2282 H 231.192 1.64725 0.407883 0
M  V30 2283 H 229.964 3.70473 1.25958 0
M  V30 2284 H 229.587 2.8662 2.75563 0
M  V30 2285 N 230.584 -0.659388 1.43143 0
M  V30 2286 C 232 -0.974337 1.26407 0
M  V30 2287 C 232.2 -2.007 0.179341 0
M  V30 2288 O 231.256 -2.4856 -0.444295 0
M  V30 2289 C 232.569 -1.46447 2.62628 0
M  V30 2290 C 234.117 -1.58144 2.7011 0
M  V30 2291 C 234.592 -2.1055 4.06734 0
M  V30 2292 N 236.083 -2.17861 4.08767 0
M  V30 2293 C 236.818 -2.59519 5.1131 0
M  V30 2294 N 236.314 -3.00518 6.24228 0
M  V30 2295 N 238.107 -2.59404 4.98664 0
M  V30 2296 H 230.258 0.0240528 2.12386 0
M  V30 2297 H 232.521 -0.0518065 0.946583 0
M  V30 2298 H 232.227 -0.780123 3.42939 0
M  V30 2299 H 232.101 -2.44058 2.87603 0
M  V30 2300 H 234.488 -2.25682 1.90136 0
M  V30 2301 H 234.569 -0.589828 2.48907 0
M  V30 2302 H 234.213 -1.43616 4.87172 0
M  V30 2303 H 234.143 -3.10531 4.25298 0
M  V30 2304 H 236.634 -1.88975 3.27257 0
M  V30 2305 H 236.947 -3.31036 6.98309 0
M  V30 2306 H 235.292 -2.98337 6.2771 0
M  V30 2307 H 238.483 -2.26747 4.09516 0
M  V30 2308 H 238.656 -2.91548 5.78709 0
M  V30 2309 N 232.062 -1.29571 -0.897171 0
M  V30 2310 C 233.308 -1.17863 -1.65034 0
M  V30 2311 C 233.641 0.268729 -1.92332 0
M  V30 2312 O 232.916 1.19378 -1.53555 0
M  V30 2313 C 233.199 -1.995 -2.99786 0
M  V30 2314 C 233.052 -3.5239 -2.79538 0
M  V30 2315 C 234.371 -1.82335 -4.00552 0
M  V30 2316 H 231.49 -0.429528 -0.598895 0
M  V30 2317 H 234.132 -1.59072 -1.03905 0
M  V30 2318 H 232.282 -1.64485 -3.51962 0
M  V30 2319 H 233.954 -3.97401 -2.34244 0
M  V30 2320 H 232.197 -3.77187 -2.14273 0
M  V30 2321 H 232.868 -4.04787 -3.75302 0
M  V30 2322 H 235.344 -2.12924 -3.57495 0
M  V30 2323 H 234.22 -2.41801 -4.92771 0
M  V30 2324 H 234.481 -0.779209 -4.35179 0
M  V30 2325 N 233.54 1.10788 -1.12088 0
M  V30 2326 C 234.789 1.82036 -0.868659 0
M  V30 2327 C 235.102 1.85929 0.607426 0
M  V30 2328 O 236.308 2.53346 0.97613 0
M  V30 2329 C 234.764 3.26951 -1.50435 0
M  V30 2330 C 234.372 3.31367 -3.01496 0
M  V30 2331 C 236.116 4.03053 -1.33225 0
M  V30 2332 C 234.023 4.7072 -3.58017 0
M  V30 2333 H 232.953 0.682108 -0.321318 0
M  V30 2334 H 235.604 1.24618 -1.34694 0
M  V30 2335 H 233.986 3.84343 -0.953735 0
M  V30 2336 H 235.16 2.83819 -3.6302 0
M  V30 2337 H 233.475 2.6875 -3.18061 0
M  V30 2338 H 236.072 5.05981 -1.72878 0
M  V30 2339 H 236.415 4.15387 -0.275529 0
M  V30 2340 H 236.948 3.52066 -1.85188 0
M  V30 2341 H 233.687 4.63585 -4.63432 0
M  V30 2342 H 233.207 5.1865 -3.01268 0
M  V30 2343 H 234.886 5.39685 -3.56859 0
M  V30 2344 N 235.018 0.912232 1.28515 0
M  V30 2345 C 236.266 0.543523 1.94654 0
M  V30 2346 C 236.587 -0.9155 1.72173 0
M  V30 2347 O 235.857 -1.64708 1.06058 0
M  V30 2348 H 234.437 0.198017 0.720277 0
M  V30 2349 H 237.099 1.16126 1.56527 0
M  V30 2350 H 236.195 0.736684 3.03281 0
M  V30 2351 N 236.496 -1.42363 0.676048 0
M  V30 2352 C 237.742 -2.0182 0.199125 0
M  V30 2353 C 238.075 -1.53339 -1.19168 0
M  V30 2354 O 237.35 -0.736124 -1.80032 0
M  V30 2355 C 237.633 -3.59331 0.235144 0
M  V30 2356 C 237.486 -4.17989 1.66149 0
M  V30 2357 C 238.805 -4.3813 -0.41595 0
M  V30 2358 H 235.924 -0.733293 0.0738311 0
M  V30 2359 H 238.566 -1.69368 0.86107 0
M  V30 2360 H 236.716 -3.87109 -0.328487 0
M  V30 2361 H 238.388 -4.0116 2.27747 0
M  V30 2362 H 236.631 -3.7377 2.20178 0
M  V30 2363 H 237.302 -5.27126 1.63837 0
M  V30 2364 H 239.778 -4.16051 0.0638529 0
M  V30 2365 H 238.654 -5.47717 -0.360115 0
M  V30 2366 H 238.915 -4.16101 -1.49373 0
M  V30 2367 N 237.974 -0.419461 -1.51915 0
M  V30 2368 C 238.921 0.400927 -2.27291 0
M  V30 2369 C 239.891 1.03224 -1.30131 0
M  V30 2370 O 241.076 1.05455 -1.59009 0
M  V30 2371 C 238.216 1.50603 -3.10504 0
M  V30 2372 C 237.329 0.89462 -4.22635 0
M  V30 2373 C 236.464 1.97328 -4.93189 0
M  V30 2374 C 235.503 1.33935 -5.97267 0
M  V30 2375 N 234.64 2.3586 -6.61298 0
M  V30 2376 H 239.48 -0.248251 -2.96964 0
M  V30 2377 H 237.017 -0.134266 -1.46486 0
M  V30 2378 H 238.975 2.15783 -3.57062 0
M  V30 2379 H 237.605 2.12509 -2.42981 0
M  V30 2380 H 236.657 0.131583 -3.80172 0
M  V30 2381 H 237.969 0.391641 -4.9726 0
M  V30 2382 H 237.123 2.70211 -5.43204 0
M  V30 2383 H 235.862 2.50994 -4.18155 0
M  V30 2384 H 234.867 0.595896 -5.46561 0
M  V30 2385 H 236.092 0.810252 -6.74249 0
M  V30 2386 H 234.038 2.88639 -5.89087 0
M  V30 2387 H 233.955 1.90403 -7.3163 0
M  V30 2388 H 235.223 3.08282 -7.15949 0
M  V30 2389 N 239.452 1.56882 -0.150215 0
M  V30 2390 C 240.692 1.98119 0.502804 0
M  V30 2391 C 241.056 1.03327 1.61826 0
M  V30 2392 O 242.257 1.33621 2.33236 0
M  V30 2393 C 240.528 3.43329 0.992988 0
M  V30 2394 S 242.087 4.0659 1.65015 0
M  V30 2395 H 238.905 0.692189 0.162467 0
M  V30 2396 H 241.507 1.93988 -0.242689 0
M  V30 2397 H 240.211 4.10046 0.170436 0
M  V30 2398 H 239.742 3.5118 1.77303 0
M  V30 2399 H 241.757 3.99906 2.93752 0
M  V30 2400 N 240.93 -0.123565 1.57115 0
M  V30 2401 C 241.893 -1.13583 1.99076 0
M  V30 2402 C 242.893 -1.34564 0.880296 0
M  V30 2403 O 244.083 -1.31158 1.14644 0
M  V30 2404 C 241.215 -2.49128 2.32698 0
M  V30 2405 H 242.408 -0.775287 2.89706 0
M  V30 2406 H 239.961 -0.36771 1.51913 0
M  V30 2407 H 240.696 -2.90111 1.44934 0
M  V30 2408 H 240.481 -2.35255 3.13684 0
M  V30 2409 H 241.971 -3.2199 2.65918 0
M  V30 2410 N 242.408 -1.52605 -0.393616 0
M  V30 2411 C 243.657 -1.66649 -1.13627 0
M  V30 2412 C 243.97 -0.410364 -1.91247 0
M  V30 2413 O 245.176 -0.430854 -2.68059 0
M  V30 2414 C 243.632 -2.9449 -2.06891 0
M  V30 2415 C 243.24 -4.27266 -1.34714 0
M  V30 2416 C 244.984 -3.17899 -2.81319 0
M  V30 2417 C 242.891 -5.46217 -2.26717 0
M  V30 2418 H 241.821 -0.62084 -0.427871 0
M  V30 2419 H 244.472 -1.791 -0.399428 0
M  V30 2420 H 242.854 -2.75774 -2.84191 0
M  V30 2421 H 244.028 -4.56518 -0.626714 0
M  V30 2422 H 242.343 -4.10081 -0.722643 0
M  V30 2423 H 244.94 -4.03949 -3.50328 0
M  V30 2424 H 245.283 -2.32777 -3.45139 0
M  V30 2425 H 245.816 -3.37159 -2.11113 0
M  V30 2426 H 242.555 -6.33733 -1.67521 0
M  V30 2427 H 242.075 -5.21283 -2.96689 0
M  V30 2428 H 243.754 -5.7991 -2.86903 0
M  V30 2429 N 243.887 0.651787 -1.4349 0
M  V30 2430 C 245.112 1.44434 -1.48841 0
M  V30 2431 C 245.537 1.8779 -0.107955 0
M  V30 2432 O 244.895 1.57464 0.898602 0
M  V30 2433 C 244.943 2.65458 -2.44059 0
M  V30 2434 O 244.047 3.64566 -1.92784 0
M  V30 2435 H 243.388 0.433005 -0.503391 0
M  V30 2436 H 245.918 0.797451 -1.88419 0
M  V30 2437 H 245.928 3.13255 -2.6141 0
M  V30 2438 H 244.603 2.33244 -3.4434 0
M  V30 2439 H 243.18 3.23716 -1.851 0
M  V30 2440 N 245.365 1.30045 0.890287 0
M  V30 2441 C 246.642 1.09227 1.62262 0
M  V30 2442 C 247.022 -0.360305 2.08002 0
M  V30 2443 O 246.37 -1.35084 1.84295 0
M  V30 2444 C 246.58 2.08835 2.79623 0
M  V30 2445 C 247.928 2.40266 3.50082 0
M  V30 2446 O 248.952 2.07104 2.89804 0
M  V30 2447 O 247.811 2.96967 4.58773 0
M  V30 2448 H 244.905 0.419132 0.712922 0
M  V30 2449 H 247.451 1.41451 0.937529 0
M  V30 2450 H 246.223 3.06633 2.43089 0
M  V30 2451 H 245.846 1.77397 3.55832 0
M  V30 2452 N 246.843 -1.10192 1.12674 0
M  V30 2453 C 247.793 -2.14754 0.765801 0
M  V30 2454 C 248.777 -1.59154 -0.236409 0
M  V30 2455 O 249.969 -1.76951 -0.0415261 0
M  V30 2456 C 247.098 -3.42563 0.224827 0
M  V30 2457 C 246.184 -4.05091 1.25548 0
M  V30 2458 N 246.575 -4.42287 2.4539 0
M  V30 2459 C 244.873 -4.32186 1.10142 0
M  V30 2460 C 245.574 -4.91441 3.11224 0
M  V30 2461 N 244.55 -4.88405 2.38666 0
M  V30 2462 H 248.352 -2.41309 1.67772 0
M  V30 2463 H 245.866 -1.27339 1.00789 0
M  V30 2464 H 247.863 -4.16868 -0.0519578 0
M  V30 2465 H 246.523 -3.17467 -0.681515 0
M  V30 2466 H 247.534 -4.33902 2.82754 0
M  V30 2467 H 244.211 -4.16735 0.252587 0
M  V30 2468 H 245.601 -5.29749 4.13298 0
M  V30 2469 N 248.321 -0.919034 -1.28029 0
M  V30 2470 C 249.737 -0.617972 -1.4715 0
M  V30 2471 C 249.937 0.835242 -1.83374 0
M  V30 2472 O 248.993 1.61388 -1.94191 0
M  V30 2473 C 250.306 -1.56041 -2.57044 0
M  V30 2474 C 251.854 -1.56769 -2.7091 0
M  V30 2475 C 252.329 -2.49688 -3.83953 0
M  V30 2476 N 253.82 -2.47845 -3.91314 0
M  V30 2477 C 254.555 -3.16437 -4.78179 0
M  V30 2478 N 254.051 -3.94376 -5.69596 0
M  V30 2479 N 255.844 -3.05498 -4.71834 0
M  V30 2480 H 247.995 -1.85866 -1.02798 0
M  V30 2481 H 250.258 -0.797506 -0.512531 0
M  V30 2482 H 249.964 -2.59671 -2.372 0
M  V30 2483 H 249.838 -1.29551 -3.54255 0
M  V30 2484 H 252.225 -0.538745 -2.90141 0
M  V30 2485 H 252.306 -1.87305 -1.74214 0
M  V30 2486 H 251.95 -3.52688 -3.65477 0
M  V30 2487 H 251.88 -2.16453 -4.80058 0
M  V30 2488 H 254.371 -1.91234 -3.25941 0
M  V30 2489 H 254.684 -4.43721 -6.32718 0
M  V30 2490 H 253.029 -3.98481 -5.69419 0
M  V30 2491 H 256.22 -2.44108 -3.99411 0
M  V30 2492 H 256.393 -3.59225 -5.39316 0
M  V30 2493 N 249.799 1.42003 -0.683588 0
M  V30 2494 C 251.024 2.06265 -0.216647 0
M  V30 2495 C 251.449 1.51059 1.12083 0
M  V30 2496 O 250.807 0.632638 1.69904 0
M  V30 2497 C 250.855 3.60191 -0.171759 0
M  V30 2498 O 249.959 4.03396 0.857069 0
M  V30 2499 H 249.3 0.65502 -0.108834 0
M  V30 2500 H 251.83 1.81982 -0.935077 0
M  V30 2501 H 251.84 4.08 0.0014303 0
M  V30 2502 H 250.515 3.99743 -1.14796 0
M  V30 2503 H 249.092 3.67117 0.654208 0
M  V30 2504 N 251.277 0.427512 1.51691 0
M  V30 2505 C 252.24 -0.377132 2.26076 0
M  V30 2506 C 253.24 -0.958089 1.29141 0
M  V30 2507 O 254.43 -0.83408 1.52934 0
M  V30 2508 C 251.562 -1.53262 3.04506 0
M  V30 2509 H 252.755 0.27464 2.9864 0
M  V30 2510 H 250.308 0.180445 1.55255 0
M  V30 2511 H 251.043 -2.22072 2.36335 0
M  V30 2512 H 250.828 -1.12232 3.75694 0
M  V30 2513 H 252.318 -2.10135 3.60878 0
M  V30 2514 N 252.755 -1.56801 0.158532 0
M  V30 2515 C 253.718 -2.16138 -0.762705 0
M  V30 2516 C 254.718 -1.1061 -1.16713 0
M  V30 2517 O 255.908 -1.36191 -1.08617 0
M  V30 2518 C 253.04 -2.73386 -2.03649 0
M  V30 2519 H 254.233 -2.98886 -0.246354 0
M  V30 2520 H 251.786 -1.56035 -0.0909744 0
M  V30 2521 H 252.521 -1.94335 -2.59623 0
M  V30 2522 H 252.306 -3.50601 -1.75559 0
M  V30 2523 H 253.796 -3.19065 -2.6942 0
M  V30 2524 N 254.233 0.115231 -1.57178 0
M  V30 2525 C 255.644 0.67197 -1.74188 0
M  V30 2526 C 255.995 1.80125 -0.777777 0
M  V30 2527 O 255.12 2.16346 0.0484376 0
M  V30 2528 C 255.715 1.22573 -3.1585 0
M  V30 2529 C 254.274 1.72872 -3.34353 0
M  V30 2530 C 253.421 0.629972 -2.70049 0
M  V30 2531 H 256.372 -0.110712 -1.58313 0
M  V30 2532 H 256.393 2.09535 -3.17609 0
M  V30 2533 H 255.905 0.403598 -3.85996 0
M  V30 2534 H 254.006 2.5755 -2.69256 0
M  V30 2535 H 254.119 1.83557 -4.42542 0
M  V30 2536 H 252.483 1.0645 -2.31388 0
M  V30 2537 H 253.266 -0.181241 -3.42821 0
M  V30 2538 N 255.711 1.52812 0.385517 0
M  V30 2539 C 256.988 1.5861 1.14465 0
M  V30 2540 C 257.368 0.381402 2.07626 0
M  V30 2541 O 256.716 -0.629999 2.19643 0
M  V30 2542 C 256.926 2.92664 1.90128 0
M  V30 2543 C 258.274 3.46526 2.45367 0
M  V30 2544 O 259.298 2.94562 2.0028 0
M  V30 2545 O 258.157 4.37323 3.27736 0
M  V30 2546 H 255.251 0.639855 0.523941 0
M  V30 2547 H 257.797 1.65149 0.390389 0
M  V30 2548 H 256.569 3.71788 1.22022 0
M  V30 2549 H 256.192 2.89527 2.72507 0
M  V30 2550 N 257.189 -0.644168 1.43834 0
M  V30 2551 C 258.435 -1.40603 1.46146 0
M  V30 2552 C 258.768 -1.93997 0.0887717 0
M  V30 2553 O 258.043 -1.72854 -0.891724 0
M  V30 2554 C 258.326 -2.58086 2.51124 0
M  V30 2555 C 258.179 -2.10126 3.97702 0
M  V30 2556 C 259.498 -3.60291 2.52742 0
M  V30 2557 H 256.617 -0.509905 0.532134 0
M  V30 2558 H 259.259 -0.729502 1.75437 0
M  V30 2559 H 257.409 -3.15801 2.26278 0
M  V30 2560 H 259.081 -1.57342 4.33637 0
M  V30 2561 H 257.324 -1.41419 4.10101 0
M  V30 2562 H 257.995 -2.94649 4.66783 0
M  V30 2563 H 260.471 -3.12352 2.7491 0
M  V30 2564 H 259.347 -4.40032 3.28121 0
M  V30 2565 H 259.608 -4.1349 1.56455 0
M  V30 2566 N 258.668 -1.30515 -0.883378 0
M  V30 2567 C 259.898 -1.22182 -1.66599 0
M  V30 2568 C 260.306 0.217507 -1.87946 0
M  V30 2569 O 259.649 1.1554 -1.42815 0
M  V30 2570 C 259.711 -1.88146 -3.06335 0
M  V30 2571 C 259.375 -3.37476 -3.08154 0
M  V30 2572 C 260.372 -4.33443 -2.87094 0
M  V30 2573 C 258.057 -3.7895 -3.29701 0
M  V30 2574 C 260.051 -5.68858 -2.8754 0
M  V30 2575 C 257.738 -5.14482 -3.29776 0
M  V30 2576 C 258.736 -6.09246 -3.0872 0
M  V30 2577 O 258.424 -7.42302 -3.08615 0
M  V30 2578 H 258.156 -0.423898 -0.52658 0
M  V30 2579 H 260.71 -1.72703 -1.11188 0
M  V30 2580 H 258.94 -1.32157 -3.63416 0
M  V30 2581 H 260.629 -1.7391 -3.66756 0
M  V30 2582 H 261.395 -4.02733 -2.70243 0
M  V30 2583 H 257.274 -3.05631 -3.45124 0
M  V30 2584 H 260.818 -6.428 -2.71024 0
M  V30 2585 H 256.715 -5.44832 -3.46163 0
M  V30 2586 H 257.483 -7.5131 -3.24769 0
M  V30 2587 N 260.146 1.09593 -1.13257 0
M  V30 2588 C 261.096 2.14345 -0.777179 0
M  V30 2589 C 262.08 1.59277 0.227966 0
M  V30 2590 O 263.272 1.76971 0.0321413 0
M  V30 2591 C 260.401 3.42439 -0.242991 0
M  V30 2592 C 259.487 4.04419 -1.27694 0
M  V30 2593 N 259.878 4.40979 -2.47732 0
M  V30 2594 C 258.176 4.31596 -1.12432 0
M  V30 2595 C 258.877 4.89784 -3.13826 0
M  V30 2596 N 257.853 4.87133 -2.41252 0
M  V30 2597 H 261.655 2.40415 -1.69049 0
M  V30 2598 H 259.169 1.26803 -1.01463 0
M  V30 2599 H 261.166 4.16889 0.0298496 0
M  V30 2600 H 259.826 3.17824 0.66467 0
M  V30 2601 H 260.837 4.32396 -2.85051 0
M  V30 2602 H 257.514 4.16595 -0.274684 0
M  V30 2603 H 258.904 5.2755 -4.16102 0
M  V30 2604 N 261.624 0.925811 1.2754 0
M  V30 2605 C 262.554 0.440748 2.29303 0
M  V30 2606 C 263.535 -0.497971 1.62648 0
M  V30 2607 O 264.72 -0.403126 1.8997 0
M  V30 2608 C 261.85 -0.309048 3.45922 0
M  V30 2609 C 260.804 0.54166 4.24559 0
M  V30 2610 C 260.13 -0.337191 5.33636 0
M  V30 2611 C 261.43 1.80516 4.90114 0
M  V30 2612 H 263.124 1.29121 2.70126 0
M  V30 2613 H 260.67 0.622323 1.29858 0
M  V30 2614 H 262.623 -0.659315 4.1621 0
M  V30 2615 H 261.347 -1.19352 3.04011 0
M  V30 2616 H 260.006 0.874609 3.56014 0
M  V30 2617 H 259.654 -1.22056 4.87966 0
M  V30 2618 H 259.354 0.228497 5.87156 0
M  V30 2619 H 260.878 -0.683072 6.06767 0
M  V30 2620 H 262.292 1.52307 5.52698 0
M  V30 2621 H 260.689 2.3142 5.53683 0
M  V30 2622 H 261.759 2.52581 4.13921 0
M  V30 2623 N 263.102 -1.41638 0.69111 0
M  V30 2624 C 264.065 -2.29178 0.0319786 0
M  V30 2625 C 265.065 -1.44153 -0.712496 0
M  V30 2626 O 266.255 -1.65354 -0.548053 0
M  V30 2627 C 263.387 -3.26952 -0.965161 0
M  V30 2628 H 264.58 -2.88959 0.802681 0
M  V30 2629 H 262.133 -1.4955 0.454356 0
M  V30 2630 H 262.868 -2.72142 -1.76378 0
M  V30 2631 H 262.653 -3.89685 -0.434522 0
M  V30 2632 H 264.143 -3.92561 -1.42428 0
M  V30 2633 N 264.58 -0.43555 -1.51462 0
M  V30 2634 C 265.528 0.391205 -2.29287 0
M  V30 2635 C 266.522 1.02247 -1.35062 0
M  V30 2636 O 267.728 0.957646 -1.52411 0
M  V30 2637 H 264.103 0.144968 -0.737895 0
M  V30 2638 H 266.074 -0.286051 -2.97026 0
M  V30 2639 C 264.823 1.48096 -3.14583 0
M  V30 2640 H 264.146 1.00457 -3.86973 0
M  V30 2641 H 265.586 2.03273 -3.72097 0
M  V30 2642 C 264.045 2.46321 -2.29843 0
M  V30 2643 O 264.575 3.50815 -1.95682 0
M  V30 2644 N 262.781 2.17166 -1.931 0
M  V30 2645 H 262.328 1.32218 -2.21079 0
M  V30 2646 H 262.286 2.83127 -1.36698 0
M  V30 2647 N 266.058 1.56714 -0.166846 0
M  V30 2648 C 266.991 2.13577 0.80375 0
M  V30 2649 C 267.969 1.06464 1.22899 0
M  V30 2650 O 269.153 1.34413 1.32157 0
M  V30 2651 C 266.28 2.67168 2.0818 0
M  V30 2652 C 265.326 3.86612 1.80093 0
M  V30 2653 S 266.159 5.26565 0.97416 0
M  V30 2654 C 267.315 5.83558 2.26297 0
M  V30 2655 H 267.548 2.9557 0.320267 0
M  V30 2656 H 265.081 1.54326 0.0477555 0
M  V30 2657 H 267.039 2.98692 2.8159 0
M  V30 2658 H 265.7 1.85269 2.53642 0
M  V30 2659 H 264.893 4.22422 2.7491 0
M  V30 2660 H 264.495 3.55951 1.14781 0
M  V30 2661 H 266.787 5.962 3.21795 0
M  V30 2662 H 267.73 6.80731 1.94962 0
M  V30 2663 H 268.138 5.11944 2.37853 0
M  V30 2664 N 267.536 -0.106894 1.57237 0
M  V30 2665 C 268.499 -1.11466 2.0027 0
M  V30 2666 C 269.499 -1.33623 0.894519 0
M  V30 2667 O 270.689 -1.29935 1.16028 0
M  V30 2668 C 267.821 -2.46646 2.35327 0
M  V30 2669 H 269.014 -0.744516 2.90512 0
M  V30 2670 H 266.567 -0.351576 1.52295 0
M  V30 2671 H 267.302 -2.88558 1.48003 0
M  V30 2672 H 267.087 -2.31915 3.16161 0
M  V30 2673 H 268.577 -3.19151 2.69318 0
M  V30 2674 N 269.014 -1.53014 -0.377408 0
M  V30 2675 C 269.977 -1.77957 -1.44444 0
M  V30 2676 C 270.977 -0.649763 -1.47087 0
M  V30 2677 O 272.167 -0.917897 -1.48055 0
M  V30 2678 C 269.299 -1.89089 -2.83651 0
M  V30 2679 H 270.492 -2.73243 -1.23606 0
M  V30 2680 H 268.045 -1.43912 -0.609844 0
M  V30 2681 H 268.78 -0.958293 -3.09818 0
M  V30 2682 H 268.565 -2.71254 -2.83132 0
M  V30 2683 H 270.055 -2.1002 -3.60945 0
M  V30 2684 N 270.492 0.636531 -1.44174 0
M  V30 2685 C 271.402 1.77754 -1.53103 0
M  V30 2686 C 272.418 1.68928 -0.417034 0
M  V30 2687 O 273.594 1.89801 -0.6736 0
M  V30 2688 C 270.659 3.14115 -1.46741 0
M  V30 2689 C 269.72 3.34612 -2.68948 0
M  V30 2690 C 268.953 4.64467 -2.6288 0
M  V30 2691 O 269.176 5.44919 -1.68581 0
M  V30 2692 O 268.11 4.87049 -3.53648 0
M  V30 2693 H 271.936 1.73174 -2.49489 0
M  V30 2694 H 269.521 0.79709 -1.2636 0
M  V30 2695 H 271.403 3.95412 -1.45696 0
M  V30 2696 H 270.078 3.19249 -0.534975 0
M  V30 2697 H 268.985 2.53014 -2.75562 0
M  V30 2698 H 270.318 3.34336 -3.61221 0
M  V30 2699 N 271.97 1.30982 0.876444 0
M  V30 2700 C 273.195 1.23373 1.66715 0
M  V30 2701 C 273.62 -0.19885 1.87046 0
M  V30 2702 O 272.978 -1.1427 1.40756 0
M  V30 2703 C 273.026 1.97644 3.01611 0
M  V30 2704 O 272.13 1.30935 3.91062 0
M  V30 2705 H 271.471 0.426279 0.509099 0
M  V30 2706 H 274.001 1.72944 1.09323 0
M  V30 2707 H 274.011 2.06992 3.51594 0
M  V30 2708 H 272.686 3.01829 2.86133 0
M  V30 2709 H 271.263 1.29996 3.49507 0
M  V30 2710 N 273.449 -1.08991 1.13837 0
M  V30 2711 C 274.865 -1.33312 0.877506 0
M  V30 2712 C 275.065 -1.95587 -0.48456 0
M  V30 2713 O 274.121 -2.20509 -1.23013 0
M  V30 2714 C 275.434 -2.24045 2.0056 0
M  V30 2715 C 276.982 -2.37542 2.03821 0
M  V30 2716 C 277.457 -3.31614 3.15905 0
M  V30 2717 N 278.948 -3.39189 3.15445 0
M  V30 2718 C 279.683 -4.11992 3.98811 0
M  V30 2719 N 279.179 -4.87553 4.92203 0
M  V30 2720 N 280.972 -4.07762 3.86894 0
M  V30 2721 H 273.123 -0.669456 2.01574 0
M  V30 2722 H 275.386 -0.357482 0.878015 0
M  V30 2723 H 275.092 -1.85521 2.98789 0
M  V30 2724 H 274.966 -3.24466 1.92359 0
M  V30 2725 H 277.353 -2.75327 1.06202 0
M  V30 2726 H 277.434 -1.36884 2.16093 0
M  V30 2727 H 277.078 -2.94551 4.13766 0
M  V30 2728 H 277.008 -4.32186 3.0087 0
M  V30 2729 H 279.499 -2.85314 2.47799 0
M  V30 2730 H 279.812 -5.40549 5.52292 0
M  V30 2731 H 278.157 -4.86627 4.96205 0
M  V30 2732 H 281.348 -3.47833 3.13257 0
M  V30 2733 H 281.521 -4.64238 4.52092 0
M  V30 2734 N 274.927 -0.932562 -1.27047 0
M  V30 2735 C 276.173 -0.576412 -1.94436 0
M  V30 2736 C 276.506 0.880891 -1.73072 0
M  V30 2737 O 275.781 1.62905 -1.06264 0
M  V30 2738 C 276.064 -0.909031 -3.48437 0
M  V30 2739 C 275.917 -2.42044 -3.79123 0
M  V30 2740 C 277.236 -0.418341 -4.38107 0
M  V30 2741 H 274.355 -0.210888 -0.706184 0
M  V30 2742 H 276.997 -1.16522 -1.50075 0
M  V30 2743 H 275.147 -0.407947 -3.86352 0
M  V30 2744 H 276.819 -2.99359 -3.50973 0
M  V30 2745 H 275.062 -2.86758 -3.25503 0
M  V30 2746 H 275.733 -2.6037 -4.86736 0
M  V30 2747 H 278.209 -0.847856 -4.0737 0
M  V30 2748 H 277.085 -0.679981 -5.44672 0
M  V30 2749 H 277.346 0.681642 -4.36814 0
M  V30 2750 N 276.405 1.4127 -0.698611 0
M  V30 2751 C 277.653 2.00782 -0.230409 0
M  V30 2752 C 277.974 1.5562 1.17505 0
M  V30 2753 O 277.244 0.78815 1.79346 0
M  V30 2754 H 275.824 0.742464 -0.0821944 0
M  V30 2755 H 278.486 1.72852 -0.90045 0
M  V30 2756 H 277.582 3.11095 -0.25021 0
M  V30 2757 N 277.883 0.443576 1.51229 0
M  V30 2758 C 279.131 -0.120557 2.0174 0
M  V30 2759 C 279.452 -1.42665 1.32935 0
M  V30 2760 O 278.722 -1.9028 0.465866 0
M  V30 2761 H 277.302 -0.0475426 0.745486 0
M  V30 2762 H 279.964 0.587711 1.85828 0
M  V30 2763 H 279.06 -0.291972 3.10731 0
M  V30 2764 N 279.361 -1.56624 0.175154 0
M  V30 2765 C 280.291 -2.21155 -0.749195 0
M  V30 2766 C 281.272 -1.16836 -1.23626 0
M  V30 2767 O 282.457 -1.45277 -1.28873 0
M  V30 2768 C 279.587 -2.8553 -1.97711 0
M  V30 2769 C 278.541 -3.95921 -1.62575 0
M  V30 2770 C 277.867 -4.47365 -2.92864 0
M  V30 2771 C 279.167 -5.15323 -0.850838 0
M  V30 2772 H 280.861 -2.98653 -0.211295 0
M  V30 2773 H 278.407 -1.43651 -0.100188 0
M  V30 2774 H 280.36 -3.2935 -2.62881 0
M  V30 2775 H 279.084 -2.05406 -2.53921 0
M  V30 2776 H 277.743 -3.52762 -0.997719 0
M  V30 2777 H 277.391 -3.64027 -3.47122 0
M  V30 2778 H 277.091 -5.21839 -2.70106 0
M  V30 2779 H 278.615 -4.93873 -3.59056 0
M  V30 2780 H 280.029 -5.55812 -1.40521 0
M  V30 2781 H 278.426 -5.95739 -0.722154 0
M  V30 2782 H 279.496 -4.84661 0.152082 0
M  V30 2783 N 280.839 0.0985539 -1.57292 0
M  V30 2784 C 281.769 1.12064 -2.04851 0
M  V30 2785 C 282.75 1.41981 -0.936767 0
M  V30 2786 O 283.935 1.52071 -1.20781 0
M  V30 2787 C 281.065 2.44144 -2.47004 0
M  V30 2788 C 280.019 2.28643 -3.6181 0
M  V30 2789 C 279.345 3.65869 -3.89929 0
M  V30 2790 C 280.645 1.72986 -4.92822 0
M  V30 2791 H 282.339 0.724979 -2.9049 0
M  V30 2792 H 279.885 0.34729 -1.39749 0
M  V30 2793 H 281.838 3.15914 -2.78884 0
M  V30 2794 H 280.562 2.85639 -1.5836 0
M  V30 2795 H 279.221 1.59318 -3.30172 0
M  V30 2796 H 278.869 4.04885 -2.98458 0
M  V30 2797 H 278.569 3.56344 -4.67218 0
M  V30 2798 H 280.093 4.39112 -4.2428 0
M  V30 2799 H 281.507 2.34593 -5.23105 0
M  V30 2800 H 279.904 1.74229 -5.74251 0
M  V30 2801 H 280.974 0.689007 -4.7998 0
M  V30 2802 N 282.317 1.53212 0.369288 0
M  V30 2803 C 283.565 1.68881 1.11012 0
M  V30 2804 C 283.886 0.441285 1.89941 0
M  V30 2805 O 283.156 -0.544623 1.88177 0
M  V30 2806 H 281.736 0.622569 0.412816 0
M  V30 2807 H 284.398 1.90391 0.416802 0
M  V30 2808 H 283.494 2.54822 1.80201 0
M  V30 2809 N 283.795 -0.628877 1.44509 0
M  V30 2810 C 285.043 -1.38565 1.4712 0
M  V30 2811 C 285.364 -1.94712 0.105899 0
M  V30 2812 O 284.634 -1.75912 -0.862079 0
M  V30 2813 H 283.214 -0.514333 0.541729 0
M  V30 2814 H 285.876 -0.740018 1.80305 0
M  V30 2815 H 284.972 -2.21583 2.19789 0
M  V30 2816 N 285.273 -1.31445 -0.869486 0
M  V30 2817 C 286.22 -1.19135 -1.97675 0
M  V30 2818 C 287.19 -0.0770266 -1.65921 0
M  V30 2819 O 288.375 -0.249972 -1.89155 0
M  V30 2820 C 285.515 -0.905149 -3.33018 0
M  V30 2821 C 284.628 -2.10285 -3.77365 0
M  V30 2822 C 283.763 -1.75339 -5.01427 0
M  V30 2823 C 282.802 -2.91515 -5.38224 0
M  V30 2824 N 281.939 -2.56762 -6.53466 0
M  V30 2825 H 286.779 -2.13853 -2.07535 0
M  V30 2826 H 284.316 -1.06379 -1.01597 0
M  V30 2827 H 286.274 -0.719765 -4.10944 0
M  V30 2828 H 284.904 0.00519624 -3.228 0
M  V30 2829 H 283.956 -2.39899 -2.95216 0
M  V30 2830 H 285.268 -2.97237 -4.00564 0
M  V30 2831 H 284.422 -1.53266 -5.87022 0
M  V30 2832 H 283.161 -0.855801 -4.80133 0
M  V30 2833 H 282.166 -3.14237 -4.51149 0
M  V30 2834 H 283.391 -3.81985 -5.61484 0
M  V30 2835 H 281.337 -1.69526 -6.33717 0
M  V30 2836 H 281.254 -3.37243 -6.76612 0
M  V30 2837 H 282.522 -2.38083 -7.42251 0
M  V30 2838 N 286.751 1.08385 -1.14413 0
M  V30 2839 C 288.162 1.62258 -0.923535 0
M  V30 2840 C 288.513 1.88691 0.537595 0
M  V30 2841 O 287.638 1.64454 1.40655 0
M  V30 2842 C 288.233 2.94781 -1.67002 0
M  V30 2843 C 286.792 3.45437 -1.495 0
M  V30 2844 C 285.939 2.19668 -1.69238 0
M  V30 2845 H 288.89 0.916086 -1.2959 0
M  V30 2846 H 288.911 3.63229 -1.13334 0
M  V30 2847 H 288.423 2.7551 -2.73342 0
M  V30 2848 H 286.524 3.6981 -0.455097 0
M  V30 2849 H 286.637 4.22173 -2.2651 0
M  V30 2850 H 285.001 2.28849 -1.11804 0
M  V30 2851 H 285.784 2.02905 -2.7692 0
M  V30 2852 N 288.23 0.939286 1.26551 0
M  V30 2853 C 289.478 0.58469 1.93457 0
M  V30 2854 C 289.799 -0.878774 1.74076 0
M  V30 2855 O 289.069 -1.62421 1.09528 0
M  V30 2856 H 287.649 0.21325 0.715914 0
M  V30 2857 H 290.311 1.1942 1.54029 0
M  V30 2858 H 289.407 0.800849 3.0165 0
M  V30 2859 N 289.708 -1.40897 0.706093 0
M  V30 2860 C 290.954 -2.01352 0.241889 0
M  V30 2861 C 291.287 -1.55832 -1.15888 0
M  V30 2862 O 290.562 -0.774145 -1.7843 0
M  V30 2863 C 290.845 -3.58752 0.311311 0
M  V30 2864 C 290.698 -4.1437 1.74978 0
M  V30 2865 C 292.017 -4.38914 -0.322922 0
M  V30 2866 H 289.136 -0.731562 0.0893687 0
M  V30 2867 H 291.778 -1.67504 0.896802 0
M  V30 2868 H 289.928 -3.87718 -0.246302 0
M  V30 2869 H 291.6 -3.96239 2.36205 0
M  V30 2870 H 289.843 -3.69016 2.28057 0
M  V30 2871 H 290.514 -5.23532 1.74981 0
M  V30 2872 H 292.99 -4.15822 0.152089 0
M  V30 2873 H 291.866 -5.48358 -0.243855 0
M  V30 2874 H 292.127 -4.19176 -1.40513 0
M  V30 2875 N 291.186 -0.45159 -1.50991 0
M  V30 2876 C 292.414 0.108334 -2.06616 0
M  V30 2877 C 292.829 1.35224 -1.31757 0
M  V30 2878 O 292.186 1.78475 -0.381174 0
M  V30 2879 C 292.237 0.41619 -3.59096 0
M  V30 2880 O 291.958 -0.778361 -4.3113 0
M  V30 2881 C 293.459 1.02523 -4.31282 0
M  V30 2882 H 290.679 0.00159995 -0.670998 0
M  V30 2883 H 293.223 -0.634771 -1.94399 0
M  V30 2884 H 291.378 1.10921 -3.71181 0
M  V30 2885 H 291.792 -0.511181 -5.22003 0
M  V30 2886 H 293.266 1.19053 -5.39009 0
M  V30 2887 H 293.743 2.01013 -3.905 0
M  V30 2888 H 294.349 0.371173 -4.23677 0
M  V30 2889 N 292.664 1.56529 -0.183458 0
M  V30 2890 C 293.91 1.97537 0.459036 0
M  V30 2891 C 294.243 1.06989 1.62071 0
M  V30 2892 O 293.518 0.11948 1.94133 0
M  V30 2893 C 293.801 3.47874 0.930368 0
M  V30 2894 C 293.654 4.492 -0.232317 0
M  V30 2895 C 294.973 4.01612 1.79989 0
M  V30 2896 H 292.092 0.718204 0.165383 0
M  V30 2897 H 294.734 1.88042 -0.272038 0
M  V30 2898 H 292.884 3.56095 1.55333 0
M  V30 2899 H 294.556 4.53027 -0.86972 0
M  V30 2900 H 292.799 4.24657 -0.885928 0
M  V30 2901 H 293.47 5.51823 0.139796 0
M  V30 2902 H 295.946 3.96097 1.27461 0
M  V30 2903 H 294.822 5.07195 2.09867 0
M  V30 2904 H 295.083 3.46163 2.74998 0
M  V30 2905 N 294.142 -0.090211 1.57342 0
M  V30 2906 C 295.389 -0.792807 1.86335 0
M  V30 2907 C 295.717 -1.78494 0.772662 0
M  V30 2908 O 294.972 -1.94305 -0.233258 0
M  V30 2909 C 295.271 -1.55222 3.21933 0
M  V30 2910 C 294.937 -0.701765 4.45406 0
M  V30 2911 C 293.599 -0.467334 4.78925 0
M  V30 2912 C 295.951 -0.11086 5.21082 0
M  V30 2913 C 293.279 0.367785 5.85546 0
M  V30 2914 C 295.631 0.711609 6.28585 0
M  V30 2915 C 294.295 0.956086 6.60617 0
M  V30 2916 H 293.565 -0.290109 0.681849 0
M  V30 2917 H 296.212 -0.0541332 1.91423 0
M  V30 2918 H 294.517 -2.3626 3.12551 0
M  V30 2919 H 296.214 -2.10032 3.41595 0
M  V30 2920 H 292.804 -0.894598 4.1916 0
M  V30 2921 H 296.988 -0.279129 4.95514 0
M  V30 2922 H 292.244 0.566128 6.08773 0
M  V30 2923 H 296.418 1.17632 6.86393 0
M  V30 2924 H 294.045 1.60499 7.43064 0
M  V30 2925 N 295.62 -1.53406 -0.361157 0
M  V30 2926 C 296.57 -1.76536 -1.44287 0
M  V30 2927 C 297.554 -0.620019 -1.48474 0
M  V30 2928 O 298.746 -0.878834 -1.53641 0
M  V30 2929 C 295.875 -1.96266 -2.81664 0
M  V30 2930 C 294.961 -3.16815 -2.81938 0
M  V30 2931 N 295.352 -4.38637 -2.51855 0
M  V30 2932 C 293.65 -3.17627 -3.13096 0
M  V30 2933 C 294.351 -5.20401 -2.59919 0
M  V30 2934 N 293.327 -4.56712 -2.94814 0
M  V30 2935 H 297.129 -2.68331 -1.19899 0
M  V30 2936 H 294.643 -1.52091 -0.56938 0
M  V30 2937 H 296.64 -2.10966 -3.59582 0
M  V30 2938 H 295.3 -1.05702 -3.07013 0
M  V30 2939 H 296.311 -4.66293 -2.25369 0
M  V30 2940 H 292.988 -2.36971 -3.43731 0
M  V30 2941 H 294.378 -6.27586 -2.39969 0
M  V30 2942 N 297.098 0.621204 -1.44841 0
M  V30 2943 C 298.031 1.7459 -1.46947 0
M  V30 2944 C 299.009 1.59273 -0.327238 0
M  V30 2945 O 300.193 1.81021 -0.525706 0
M  V30 2946 C 297.32 3.12274 -1.31159 0
M  V30 2947 C 296.366 3.46216 -2.49072 0
M  V30 2948 S 297.199 3.4258 -4.11581 0
M  V30 2949 C 298.355 4.82867 -3.98233 0
M  V30 2950 H 298.588 1.72538 -2.42111 0
M  V30 2951 H 296.121 0.796683 -1.32259 0
M  V30 2952 H 298.079 3.91722 -1.22737 0
M  V30 2953 H 296.74 3.11855 -0.374885 0
M  V30 2954 H 295.933 4.4643 -2.33915 0
M  V30 2955 H 295.535 2.74253 -2.54286 0
M  V30 2956 H 297.827 5.7234 -3.62537 0
M  V30 2957 H 298.77 5.0308 -4.98313 0
M  V30 2958 H 299.178 4.57908 -3.30121 0
M  V30 2959 N 298.576 1.31904 0.862503 0
M  V30 2960 C 299.824 1.21776 1.61292 0
M  V30 2961 C 300.145 -0.222413 1.93727 0
M  V30 2962 O 299.415 -1.1451 1.58947 0
M  V30 2963 H 297.995 0.447717 0.597962 0
M  V30 2964 H 300.657 1.65326 1.03215 0
M  V30 2965 H 299.753 1.7948 2.5533 0
M  V30 2966 N 300.054 -1.07777 1.14986 0
M  V30 2967 C 301.331 -1.7699 0.832695 0
M  V30 2968 C 301.711 -2.001 -0.672561 0
M  V30 2969 O 301.059 -1.61598 -1.6155 0
M  V30 2970 C 301.269 -3.08139 1.63863 0
M  V30 2971 C 302.617 -3.8256 1.84208 0
M  V30 2972 O 303.641 -3.17939 1.60603 0
M  V30 2973 O 302.5 -4.98612 2.23714 0
M  V30 2974 H 299.594 -0.768389 0.305791 0
M  V30 2975 H 302.14 -1.14182 1.25541 0
M  V30 2976 H 300.912 -2.86909 2.6608 0
M  V30 2977 H 300.535 -3.78678 1.21197 0
M  V30 2978 N 301.532 -0.945985 -1.26051 0
M  V30 2979 C 302.757 -0.612525 -1.98149 0
M  V30 2980 C 303.182 0.806623 -1.69927 0
M  V30 2981 O 302.54 1.54411 -0.950108 0
M  V30 2982 C 302.588 -0.866981 -3.50023 0
M  V30 2983 O 301.692 0.0585333 -4.12358 0
M  V30 2984 H 301.033 -0.23379 -0.621481 0
M  V30 2985 H 303.563 -1.27023 -1.60395 0
M  V30 2986 H 303.573 -0.789792 -4.00283 0
M  V30 2987 H 302.248 -1.90135 -3.69894 0
M  V30 2988 H 300.825 -0.0701241 -3.72834 0
M  V30 2989 N 303.011 1.40521 -0.713556 0
M  V30 2990 C 303.958 2.30723 -0.059684 0
M  V30 2991 C 304.928 1.48079 0.752448 0
M  V30 2992 O 306.113 1.76823 0.71681 0
M  V30 2993 C 303.253 3.34274 0.857594 0
M  V30 2994 C 302.366 4.31986 0.0351536 0
M  V30 2995 C 301.501 5.22605 0.951724 0
M  V30 2996 C 300.54 6.11976 0.123253 0
M  V30 2997 N 299.677 6.9502 0.99459 0
M  V30 2998 H 304.517 2.86074 -0.834596 0
M  V30 2999 H 302.054 1.40879 -0.42326 0
M  V30 3000 H 304.012 3.92879 1.40364 0
M  V30 3001 H 302.642 2.8043 1.59871 0
M  V30 3002 H 301.694 3.7518 -0.628052 0
M  V30 3003 H 303.006 4.95101 -0.606347 0
M  V30 3004 H 302.16 5.86131 1.56638 0
M  V30 3005 H 300.899 4.59759 1.62705 0
M  V30 3006 H 299.904 5.47482 -0.50435 0
M  V30 3007 H 301.129 6.76881 -0.548539 0
M  V30 3008 H 299.075 6.34764 1.6556 0
M  V30 3009 H 298.992 7.54892 0.40908 0
M  V30 3010 H 300.26 7.62997 1.59549 0
M  V30 3011 N 304.489 0.459591 1.5075 0
M  V30 3012 C 305.436 -0.340524 2.28274 0
M  V30 3013 C 306.406 -0.997371 1.32822 0
M  V30 3014 O 307.591 -1.01202 1.61749 0
M  V30 3015 C 304.731 -1.42317 3.14388 0
M  V30 3016 C 303.844 -0.782251 4.24859 0
M  V30 3017 C 302.979 -1.84182 4.98247 0
M  V30 3018 C 302.018 -1.18053 6.00608 0
M  V30 3019 N 301.155 -2.18244 6.67319 0
M  V30 3020 H 305.995 0.326899 2.96202 0
M  V30 3021 H 303.532 0.173057 1.46078 0
M  V30 3022 H 305.49 -2.06241 3.62658 0
M  V30 3023 H 304.12 -2.05992 2.4853 0
M  V30 3024 H 303.172 -0.0307404 3.80388 0
M  V30 3025 H 304.484 -0.259663 4.98124 0
M  V30 3026 H 303.638 -2.55714 5.50177 0
M  V30 3027 H 302.377 -2.39819 4.24662 0
M  V30 3028 H 301.382 -0.450776 5.47949 0
M  V30 3029 H 302.607 -0.631202 6.7616 0
M  V30 3030 H 300.553 -2.72919 5.96533 0
M  V30 3031 H 300.47 -1.70938 7.36421 0
M  V30 3032 H 301.738 -2.89191 7.23871 0
M  V30 3033 N 305.967 -1.56429 0.191757 0
M  V30 3034 C 306.93 -2.17707 -0.716688 0
M  V30 3035 C 307.93 -1.13061 -1.14341 0
M  V30 3036 O 309.12 -1.38464 -1.05704 0
M  V30 3037 C 306.252 -2.77644 -1.97804 0
M  V30 3038 H 307.445 -2.99342 -0.1829 0
M  V30 3039 H 304.998 -1.56193 -0.0578566 0
M  V30 3040 H 305.733 -1.99799 -2.55443 0
M  V30 3041 H 305.518 -3.54246 -1.68083 0
M  V30 3042 H 307.008 -3.24708 -2.62592 0
M  V30 3043 N 307.445 0.0818655 -1.57387 0
M  V30 3044 C 308.375 1.09885 -2.06028 0
M  V30 3045 C 309.356 1.4098 -0.951774 0
M  V30 3046 O 310.541 1.50781 -1.22387 0
M  V30 3047 C 307.671 2.4151 -2.4958 0
M  V30 3048 C 306.625 2.24792 -3.64215 0
M  V30 3049 C 305.951 3.61712 -3.93787 0
M  V30 3050 C 307.251 1.67749 -4.94629 0
M  V30 3051 H 308.945 0.694128 -2.91243 0
M  V30 3052 H 306.491 0.332448 -1.4011 0
M  V30 3053 H 308.444 3.12939 -2.82219 0
M  V30 3054 H 307.168 2.83943 -1.61381 0
M  V30 3055 H 305.827 1.55807 -3.31843 0
M  V30 3056 H 305.475 4.01697 -3.02735 0
M  V30 3057 H 305.175 3.51368 -4.70971 0
M  V30 3058 H 306.699 4.34587 -4.28913 0
M  V30 3059 H 308.113 2.29032 -5.25564 0
M  V30 3060 H 306.51 1.68128 -5.76067 0
M  V30 3061 H 307.58 0.638059 -4.80684 0
M  V30 3062 N 308.923 1.53595 0.353017 0
M  V30 3063 C 309.855 1.77219 1.45348 0
M  V30 3064 C 310.868 0.65324 1.49119 0
M  V30 3065 O 312.057 0.929775 1.52373 0
M  V30 3066 C 309.157 1.84841 2.84055 0
M  V30 3067 C 308.33 3.14649 3.03833 0
M  V30 3068 C 307.389 3.13351 4.22727 0
M  V30 3069 O 306.415 3.87107 4.17297 0
M  V30 3070 N 307.617 2.35052 5.30783 0
M  V30 3071 H 310.382 2.72178 1.25457 0
M  V30 3072 H 307.943 1.52528 0.542833 0
M  V30 3073 H 309.935 1.81435 3.61751 0
M  V30 3074 H 308.505 0.971114 2.97133 0
M  V30 3075 H 307.725 3.31256 2.13689 0
M  V30 3076 H 309.013 4.00411 3.13925 0
M  V30 3077 H 308.411 1.74663 5.38061 0
M  V30 3078 H 306.968 2.37453 6.07009 0
M  V30 3079 N 310.401 -0.613514 1.45168 0
M  V30 3080 C 311.812 -1.19539 1.43413 0
M  V30 3081 C 312.163 -1.95558 0.158632 0
M  V30 3082 O 311.288 -2.0335 -0.740119 0
M  V30 3083 C 311.883 -2.17445 2.59813 0
M  V30 3084 C 310.442 -2.71022 2.61197 0
M  V30 3085 C 309.589 -1.46323 2.35552 0
M  V30 3086 H 312.54 -0.403163 1.53494 0
M  V30 3087 H 312.561 -3.00373 2.33574 0
M  V30 3088 H 312.073 -1.62089 3.52631 0
M  V30 3089 H 310.174 -3.30332 1.7237 0
M  V30 3090 H 310.287 -3.15859 3.60236 0
M  V30 3091 H 308.651 -1.75072 1.84992 0
M  V30 3092 H 309.434 -0.92844 3.30507 0
M  V30 3093 N 311.879 -1.3236 -0.855495 0
M  V30 3094 C 313.128 -1.22226 -1.60448 0
M  V30 3095 C 313.441 0.214733 -1.94418 0
M  V30 3096 O 314.647 0.437917 -2.67945 0
M  V30 3097 C 313.103 -2.14063 -2.89318 0
M  V30 3098 C 312.711 -3.62839 -2.62777 0
M  V30 3099 C 314.455 -2.12764 -3.67331 0
M  V30 3100 C 312.362 -4.4664 -3.87643 0
M  V30 3101 H 311.292 -0.453904 -0.602069 0
M  V30 3102 H 313.943 -1.57314 -0.944698 0
M  V30 3103 H 312.325 -1.71889 -3.5675 0
M  V30 3104 H 313.499 -4.1335 -2.03662 0
M  V30 3105 H 311.814 -3.66261 -1.98096 0
M  V30 3106 H 314.411 -2.72611 -4.59987 0
M  V30 3107 H 314.754 -1.11841 -4.00995 0
M  V30 3108 H 315.287 -2.53214 -3.06802 0
M  V30 3109 H 312.026 -5.48373 -3.5912 0
M  V30 3110 H 311.546 -4.0088 -4.46156 0
M  V30 3111 H 313.225 -4.59597 -4.55389 0
M  V30 3112 N 313.357 1.07166 -1.15556 0
M  V30 3113 C 314.587 1.83248 -0.954133 0
M  V30 3114 C 314.995 1.82449 0.500911 0
M  V30 3115 O 314.338 1.23575 1.35923 0
M  V30 3116 C 314.4 3.31393 -1.39351 0
M  V30 3117 C 314.064 3.5591 -2.86666 0
M  V30 3118 C 315.061 3.49695 -3.8472 0
M  V30 3119 C 312.746 3.83515 -3.24379 0
M  V30 3120 C 314.74 3.70737 -5.18491 0
M  V30 3121 C 312.427 4.04209 -4.58321 0
M  V30 3122 C 313.425 3.97815 -5.55186 0
M  V30 3123 O 313.113 4.17954 -6.86709 0
M  V30 3124 H 312.845 0.584941 -0.338851 0
M  V30 3125 H 315.399 1.36169 -1.53777 0
M  V30 3126 H 313.629 3.79292 -0.75329 0
M  V30 3127 H 315.318 3.88945 -1.16089 0
M  V30 3128 H 316.084 3.28368 -3.56931 0
M  V30 3129 H 311.963 3.87605 -2.49567 0
M  V30 3130 H 315.507 3.65663 -5.94085 0
M  V30 3131 H 311.404 4.25023 -4.85825 0
M  V30 3132 H 312.172 4.35291 -6.93155 0
M  V30 3133 N 314.835 0.952656 1.25548 0
M  V30 3134 C 316.112 0.523818 1.88456 0
M  V30 3135 C 316.492 -0.998871 1.85973 0
M  V30 3136 O 315.84 -1.86381 1.3219 0
M  V30 3137 C 316.05 1.0982 3.31271 0
M  V30 3138 C 317.398 1.17385 4.08051 0
M  V30 3139 O 318.422 1.04961 3.40384 0
M  V30 3140 O 317.281 1.36852 5.29088 0
M  V30 3141 H 314.375 0.172485 0.808813 0
M  V30 3142 H 316.921 1.04596 1.33633 0
M  V30 3143 H 315.693 2.1415 3.27499 0
M  V30 3144 H 315.316 0.559191 3.93648 0
M  V30 3145 N 316.313 -1.40141 0.720998 0
M  V30 3146 C 317.243 -2.33339 0.0867621 0
M  V30 3147 C 318.224 -1.53178 -0.739622 0
M  V30 3148 O 319.409 -1.81625 -0.687449 0
M  V30 3149 C 316.539 -3.37194 -0.831728 0
M  V30 3150 C 315.493 -4.27857 -0.110558 0
M  V30 3151 C 314.819 -5.22294 -1.14513 0
M  V30 3152 C 316.119 -5.11872 1.0385 0
M  V30 3153 H 317.813 -2.86626 0.865219 0
M  V30 3154 H 315.359 -1.37814 0.417516 0
M  V30 3155 H 317.312 -4.01335 -1.28485 0
M  V30 3156 H 316.036 -2.82314 -1.64214 0
M  V30 3157 H 314.695 -3.65176 0.322797 0
M  V30 3158 H 314.343 -4.63717 -1.94874 0
M  V30 3159 H 314.043 -5.83797 -0.667446 0
M  V30 3160 H 315.567 -5.89312 -1.59824 0
M  V30 3161 H 316.981 -5.69436 0.664482 0
M  V30 3162 H 315.378 -5.82445 1.4449 0
M  V30 3163 H 316.448 -4.4753 1.86668 0
M  V30 3164 N 317.792 -0.46758 -1.50504 0
M  V30 3165 C 318.722 0.318381 -2.31319 0
M  V30 3166 C 319.703 0.993564 -1.38066 0
M  V30 3167 O 320.888 0.991411 -1.66987 0
M  V30 3168 C 318.018 1.40275 -3.17711 0
M  V30 3169 C 316.972 0.849373 -4.19487 0
M  V30 3170 C 316.298 2.03177 -4.94594 0
M  V30 3171 C 317.598 -0.136942 -5.2212 0
M  V30 3172 H 319.292 -0.356106 -2.97275 0
M  V30 3173 H 316.838 -0.172703 -1.42961 0
M  V30 3174 H 318.791 1.96004 -3.73042 0
M  V30 3175 H 317.515 2.10596 -2.49634 0
M  V30 3176 H 316.174 0.314076 -3.65252 0
M  V30 3177 H 315.822 2.72187 -4.22993 0
M  V30 3178 H 315.522 1.66774 -5.63436 0
M  V30 3179 H 317.046 2.59403 -5.52759 0
M  V30 3180 H 318.46 0.331056 -5.72343 0
M  V30 3181 H 316.857 -0.41507 -5.98663 0
M  V30 3182 H 317.927 -1.06398 -4.73083 0
M  V30 3183 N 319.27 1.56325 -0.20005 0
M  V30 3184 C 320.18 2.22931 0.730668 0
M  V30 3185 C 321.196 1.22997 1.23076 0
M  V30 3186 O 322.372 1.55748 1.27689 0
M  V30 3187 C 319.437 2.87948 1.93098 0
M  V30 3188 C 318.498 4.03166 1.47497 0
M  V30 3189 C 317.731 4.65073 2.61807 0
M  V30 3190 O 317.954 4.25913 3.79413 0
M  V30 3191 O 316.888 5.54452 2.34237 0
M  V30 3192 H 320.714 3.03084 0.193391 0
M  V30 3193 H 318.299 1.49371 0.0294621 0
M  V30 3194 H 320.181 3.29063 2.6324 0
M  V30 3195 H 318.856 2.10771 2.45677 0
M  V30 3196 H 317.763 3.66664 0.742201 0
M  V30 3197 H 319.096 4.82022 0.995796 0
M  V30 3198 N 320.748 -0.0735177 1.57428 0
M  V30 3199 C 321.696 -1.10628 2.04607 0
M  V30 3200 C 322.69 -1.40181 0.951088 0
M  V30 3201 O 323.896 -1.39608 1.1362 0
M  V30 3202 H 320.271 -0.374088 0.652351 0
M  V30 3203 H 322.242 -0.682218 2.90497 0
M  V30 3204 C 320.991 -2.41212 2.50423 0
M  V30 3205 H 320.314 -2.19322 3.34272 0
M  V30 3206 H 321.754 -3.11927 2.87189 0
M  V30 3207 C 320.213 -3.0705 1.38644 0
M  V30 3208 O 320.743 -3.95056 0.727582 0
M  V30 3209 N 318.949 -2.67645 1.132 0
M  V30 3210 H 318.496 -1.96169 1.66959 0
M  V30 3211 H 318.454 -3.1202 0.386147 0
M  V30 3212 N 322.226 -1.5378 -0.344866 0
M  V30 3213 C 323.466 -1.72677 -1.09371 0
M  V30 3214 C 323.83 -0.479084 -1.85927 0
M  V30 3215 O 325.031 -0.54505 -2.63216 0
M  V30 3216 C 323.302 -2.95457 -2.01097 0
M  V30 3217 S 324.861 -3.35158 -2.83222 0
M  V30 3218 H 321.679 -0.607402 -0.369573 0
M  V30 3219 H 324.281 -1.91922 -0.372307 0
M  V30 3220 H 322.985 -3.84437 -1.43655 0
M  V30 3221 H 322.516 -2.78673 -2.77678 0
M  V30 3222 H 324.531 -2.88789 -4.03504 0
M  V30 3223 N 323.704 0.605807 -1.45491 0
M  V30 3224 C 324.981 1.36522 -1.40075 0
M  V30 3225 C 325.361 2.10976 -0.0722744 0
M  V30 3226 O 324.709 2.08007 0.945808 0
M  V30 3227 C 324.919 2.31056 -2.61561 0
M  V30 3228 C 326.267 2.93608 -3.06724 0
M  V30 3229 O 327.291 2.41376 -2.61946 0
M  V30 3230 O 326.15 3.88421 -3.84437 0
M  V30 3231 H 323.244 0.612248 -0.555951 0
M  V30 3232 H 325.79 0.628747 -1.57623 0
M  V30 3233 H 324.562 1.75311 -3.49831 0
M  V30 3234 H 324.185 3.12081 -2.46356 0
M  V30 3235 N 325.182 1.32811 0.848464 0
M  V30 3236 C 326.428 1.23907 1.60546 0
M  V30 3237 C 326.761 -0.197161 1.93197 0
M  V30 3238 O 326.036 -1.13596 1.5788 0
M  V30 3239 C 326.319 2.10489 2.92175 0
M  V30 3240 C 326.172 3.62522 2.66266 0
M  V30 3241 C 327.491 1.97075 3.93509 0
M  V30 3242 H 324.61 0.451459 0.58254 0
M  V30 3243 H 327.252 1.62818 0.979296 0
M  V30 3244 H 325.402 1.77434 3.45614 0
M  V30 3245 H 327.074 4.05821 2.19334 0
M  V30 3246 H 325.317 3.84879 2.00126 0
M  V30 3247 H 325.988 4.18437 3.6002 0
M  V30 3248 H 328.464 2.26045 3.49346 0
M  V30 3249 H 327.34 2.59923 4.83457 0
M  V30 3250 H 327.601 0.940186 4.31987 0
M  V30 3251 N 326.66 -1.06551 1.16123 0
M  V30 3252 C 328.071 -1.60768 0.949232 0
M  V30 3253 C 328.422 -1.89523 -0.507508 0
M  V30 3254 O 327.547 -1.66671 -1.38021 0
M  V30 3255 C 328.142 -2.92086 1.71671 0
M  V30 3256 C 326.701 -3.43015 1.54977 0
M  V30 3257 C 325.848 -2.16947 1.72711 0
M  V30 3258 H 328.799 -0.895354 1.31031 0
M  V30 3259 H 328.82 -3.6138 1.19099 0
M  V30 3260 H 328.332 -2.71127 2.7769 0
M  V30 3261 H 326.433 -3.69039 0.513873 0
M  V30 3262 H 326.546 -4.18516 2.33198 0
M  V30 3263 H 324.91 -2.27041 1.15431 0
M  V30 3264 H 325.693 -1.98473 2.80113 0
M  V30 3265 N 328.138 -0.959301 -1.25041 0
M  V30 3266 C 329.387 -0.612254 -1.92183 0
M  V30 3267 C 329.7 0.855347 -1.75907 0
M  V30 3268 O 330.906 1.31256 -2.37664 0
M  V30 3269 C 329.362 -1.04435 -3.44414 0
M  V30 3270 C 328.97 -2.53482 -3.69393 0
M  V30 3271 C 330.714 -0.770055 -4.17457 0
M  V30 3272 C 328.621 -2.90468 -5.15153 0
M  V30 3273 H 327.551 -0.225279 -0.719559 0
M  V30 3274 H 330.202 -1.16438 -1.41825 0
M  V30 3275 H 328.584 -0.4206 -3.9376 0
M  V30 3276 H 329.758 -3.20916 -3.30681 0
M  V30 3277 H 328.073 -2.78432 -3.0962 0
M  V30 3278 H 330.67 -1.02249 -5.24832 0
M  V30 3279 H 331.013 0.293611 -4.15263 0
M  V30 3280 H 331.546 -1.35437 -3.74034 0
M  V30 3281 H 328.285 -3.95871 -5.22462 0
M  V30 3282 H 327.805 -2.27711 -5.54894 0
M  V30 3283 H 329.484 -2.79914 -5.83315 0
M  V30 3284 N 329.616 1.39756 -0.72842 0
M  V30 3285 C 330.841 2.05472 -0.282159 0
M  V30 3286 C 331.266 1.54549 1.07221 0
M  V30 3287 O 330.624 0.686372 1.67805 0
M  V30 3288 C 330.672 3.59462 -0.286264 0
M  V30 3289 O 329.776 4.05918 0.728298 0
M  V30 3290 H 329.117 0.651226 -0.129618 0
M  V30 3291 H 331.647 1.78915 -0.992499 0
M  V30 3292 H 331.657 4.07798 -0.128373 0
M  V30 3293 H 330.332 3.95889 -1.27456 0
M  V30 3294 H 328.909 3.69012 0.537081 0
M  V30 3295 N 331.094 0.475555 1.50254 0
M  V30 3296 C 332.041 -0.316293 2.28622 0
M  V30 3297 C 333.011 -0.983227 1.33873 0
M  V30 3298 O 334.196 -0.994805 1.62814 0
M  V30 3299 C 331.336 -1.38975 3.1588 0
M  V30 3300 C 330.449 -0.737146 4.25664 0
M  V30 3301 C 329.584 -1.78887 5.00173 0
M  V30 3302 C 328.623 -1.11676 6.01826 0
M  V30 3303 N 327.76 -2.11154 6.69596 0
M  V30 3304 H 332.6 0.358297 2.95838 0
M  V30 3305 H 330.137 0.188541 1.45887 0
M  V30 3306 H 332.095 -2.02383 3.64825 0
M  V30 3307 H 330.725 -2.03344 2.50701 0
M  V30 3308 H 329.777 0.0096065 3.80399 0
M  V30 3309 H 331.089 -0.206816 4.98371 0
M  V30 3310 H 330.243 -2.49865 5.52859 0
M  V30 3311 H 328.982 -2.35302 4.27182 0
M  V30 3312 H 327.987 -0.392633 5.48396 0
M  V30 3313 H 329.212 -0.55945 6.76792 0
M  V30 3314 H 327.158 -2.66577 5.99394 0
M  V30 3315 H 327.075 -1.63118 7.38193 0
M  V30 3316 H 328.343 -2.81497 7.26897 0
M  V30 3317 N 332.573 -1.56217 0.208337 0
M  V30 3318 C 333.503 -2.22694 -0.702116 0
M  V30 3319 C 334.484 -1.19432 -1.2112 0
M  V30 3320 O 335.669 -1.47978 -1.25762 0
M  V30 3321 C 332.799 -2.8966 -1.9161 0
M  V30 3322 C 331.753 -3.9928 -1.5414 0
M  V30 3323 C 331.079 -4.53476 -2.83308 0
M  V30 3324 C 332.379 -5.17012 -0.741339 0
M  V30 3325 H 334.073 -2.99034 -0.147898 0
M  V30 3326 H 331.619 -1.43831 -0.0696951 0
M  V30 3327 H 333.572 -3.34852 -2.55836 0
M  V30 3328 H 332.296 -2.10746 -2.49507 0
M  V30 3329 H 330.955 -3.54799 -0.922668 0
M  V30 3330 H 330.603 -3.71308 -3.39322 0
M  V30 3331 H 330.303 -5.27451 -2.58976 0
M  V30 3332 H 331.827 -5.01378 -3.485 0
M  V30 3333 H 333.241 -5.58667 -1.28699 0
M  V30 3334 H 331.638 -5.97137 -0.595627 0
M  V30 3335 H 332.708 -4.8423 0.254851 0
M  V30 3336 N 334.051 0.0651679 -1.57465 0
M  V30 3337 C 334.981 1.07693 -2.07182 0
M  V30 3338 C 335.962 1.39962 -0.966673 0
M  V30 3339 O 337.147 1.49475 -1.2398 0
M  V30 3340 C 334.277 2.3885 -2.52127 0
M  V30 3341 C 333.231 2.20917 -3.66579 0
M  V30 3342 C 332.557 3.57515 -3.97601 0
M  V30 3343 C 333.857 1.62493 -4.9638 0
M  V30 3344 H 335.551 0.663199 -2.91962 0
M  V30 3345 H 333.097 0.317569 -1.40455 0
M  V30 3346 H 335.05 3.09928 -2.85522 0
M  V30 3347 H 333.774 2.82215 -1.64384 0
M  V30 3348 H 332.433 1.52279 -3.33477 0
M  V30 3349 H 332.081 3.98463 -3.06979 0
M  V30 3350 H 331.781 3.46353 -4.74672 0
M  V30 3351 H 333.305 4.30013 -4.33499 0
M  V30 3352 H 334.719 2.23445 -5.27963 0
M  V30 3353 H 333.116 1.62009 -5.77818 0
M  V30 3354 H 334.186 0.587041 -4.81333 0
M  V30 3355 N 335.529 1.53961 0.336706 0
M  V30 3356 C 336.94 1.62914 0.911925 0
M  V30 3357 C 337.291 0.514795 1.89326 0
M  V30 3358 O 336.416 -0.354395 2.13478 0
M  V30 3359 C 337.011 2.95304 1.66076 0
M  V30 3360 C 335.57 3.06496 2.18489 0
M  V30 3361 C 334.717 2.58403 1.00613 0
M  V30 3362 H 337.668 1.58285 0.114649 0
M  V30 3363 H 337.689 2.84727 2.5241 0
M  V30 3364 H 337.201 3.76387 0.946276 0
M  V30 3365 H 335.302 2.3006 2.93092 0
M  V30 3366 H 335.415 4.1208 2.44391 0
M  V30 3367 H 333.779 2.13977 1.38152 0
M  V30 3368 H 334.562 3.41932 0.306179 0
M  V30 3369 N 337.007 -0.598083 1.45811 0
M  V30 3370 C 338.235 -1.38322 1.53866 0
M  V30 3371 C 338.65 -1.87992 0.174479 0
M  V30 3372 O 338.007 -1.62756 -0.825627 0
M  V30 3373 C 338.058 -2.58125 2.53089 0
M  V30 3374 O 337.779 -2.10516 3.84206 0
M  V30 3375 C 339.28 -3.50869 2.70935 0
M  V30 3376 H 336.5 -0.423093 0.520801 0
M  V30 3377 H 339.044 -0.728527 1.91083 0
M  V30 3378 H 337.199 -3.19615 2.18917 0
M  V30 3379 H 337.613 -2.88425 4.38077 0
M  V30 3380 H 339.087 -4.31451 3.44317 0
M  V30 3381 H 339.564 -4.01822 1.77301 0
M  V30 3382 H 340.17 -2.95225 3.06141 0
M  V30 3383 N 338.485 -1.33259 -0.841409 0
M  V30 3384 C 339.435 -1.19872 -1.93945 0
M  V30 3385 C 340.419 -0.102269 -1.60575 0
M  V30 3386 O 341.611 -0.330114 -1.73894 0
M  V30 3387 C 338.74 -0.937517 -3.30251 0
M  V30 3388 C 337.826 -2.07629 -3.69799 0
M  V30 3389 N 338.217 -3.32604 -3.81062 0
M  V30 3390 C 336.515 -1.98242 -3.9952 0
M  V30 3391 C 337.216 -4.07275 -4.15333 0
M  V30 3392 N 336.192 -3.35691 -4.27566 0
M  V30 3393 H 339.994 -2.14604 -2.00805 0
M  V30 3394 H 337.508 -1.2523 -1.03398 0
M  V30 3395 H 339.505 -0.822545 -4.08705 0
M  V30 3396 H 338.165 0.00128798 -3.247 0
M  V30 3397 H 339.176 -3.67382 -3.65035 0
M  V30 3398 H 335.853 -1.12005 -4.02195 0
M  V30 3399 H 337.243 -5.1511 -4.31406 0
M  V30 3400 N 339.963 1.05934 -1.16686 0
M  V30 3401 C 341.209 1.79065 -0.95203 0
M  V30 3402 C 341.542 1.87147 0.518629 0
M  V30 3403 O 340.817 1.36574 1.38484 0
M  V30 3404 C 341.1 3.23359 -1.58464 0
M  V30 3405 C 340.953 3.23336 -3.12689 0
M  V30 3406 C 342.272 4.21004 -1.28232 0
M  V30 3407 H 339.391 0.65005 -0.34728 0
M  V30 3408 H 342.033 1.23868 -1.44072 0
M  V30 3409 H 340.183 3.70493 -1.16908 0
M  V30 3410 H 341.855 2.84336 -3.6325 0
M  V30 3411 H 340.098 2.61886 -3.4583 0
M  V30 3412 H 340.769 4.25144 -3.52075 0
M  V30 3413 H 343.245 3.8233 -1.64203 0
M  V30 3414 H 342.121 5.20225 -1.75092 0
M  V30 3415 H 342.382 4.41639 -0.201791 0
M  V30 3416 N 341.441 0.965919 1.2453 0
M  V30 3417 C 342.389 0.486506 2.27455 0
M  V30 3418 C 343.383 -0.449041 1.6334 0
M  V30 3419 O 344.589 -0.324527 1.7705 0
M  V30 3420 H 340.964 0.138857 0.739069 0
M  V30 3421 H 342.935 1.3666 2.65267 0
M  V30 3422 C 341.684 -0.209481 3.47068 0
M  V30 3423 H 341.007 0.50129 3.96645 0
M  V30 3424 H 342.447 -0.508775 4.20936 0
M  V30 3425 C 340.906 -1.43586 3.0477 0
M  V30 3426 O 341.436 -2.53299 3.11773 0
M  V30 3427 N 339.642 -1.30126 2.59838 0
M  V30 3428 H 339.189 -0.408583 2.54339 0
M  V30 3429 H 339.147 -2.12294 2.31902 0
M  V30 3430 N 342.919 -1.39368 0.735821 0
M  V30 3431 C 344.335 -1.54204 0.411492 0
M  V30 3432 C 344.535 -1.70268 -1.07755 0
M  V30 3433 O 343.591 -1.70364 -1.86366 0
M  V30 3434 C 344.904 -2.75925 1.19523 0
M  V30 3435 C 346.452 -2.89761 1.18354 0
M  V30 3436 C 346.927 -4.14421 1.94986 0
M  V30 3437 N 348.418 -4.21462 1.92156 0
M  V30 3438 C 349.153 -5.16871 2.48258 0
M  V30 3439 N 348.649 -6.18063 3.13001 0
M  V30 3440 N 350.442 -5.09093 2.38287 0
M  V30 3441 H 342.593 -1.27189 1.70108 0
M  V30 3442 H 344.856 -0.616517 0.720147 0
M  V30 3443 H 344.562 -2.70401 2.24892 0
M  V30 3444 H 344.436 -3.68614 0.800222 0
M  V30 3445 H 346.823 -2.94777 0.137975 0
M  V30 3446 H 346.904 -1.98133 1.61793 0
M  V30 3447 H 346.548 -4.10166 2.99543 0
M  V30 3448 H 346.478 -5.05095 1.48953 0
M  V30 3449 H 348.969 -3.48979 1.44991 0
M  V30 3450 H 349.282 -6.87326 3.53275 0
M  V30 3451 H 347.627 -6.18448 3.17091 0
M  V30 3452 H 350.818 -4.28973 1.8735 0
M  V30 3453 H 350.991 -5.83272 2.82308 0
M  V30 3454 N 344.397 -0.483516 -1.5 0
M  V30 3455 C 345.345 0.318061 -2.30415 0
M  V30 3456 C 346.339 0.978988 -1.38247 0
M  V30 3457 O 347.545 0.908673 -1.55381 0
M  V30 3458 H 343.92 0.121419 -0.742133 0
M  V30 3459 H 345.891 -0.380403 -2.95965 0
M  V30 3460 C 344.64 1.38013 -3.19136 0
M  V30 3461 H 343.963 0.880952 -3.89973 0
M  V30 3462 H 345.403 1.91332 -3.78375 0
M  V30 3463 C 343.862 2.38884 -2.37563 0
M  V30 3464 O 344.392 3.44412 -2.06744 0
M  V30 3465 N 342.598 2.10912 -1.99911 0
M  V30 3466 H 342.145 1.25118 -2.25174 0
M  V30 3467 H 342.103 2.78635 -1.45636 0
M  V30 3468 N 345.875 1.56104 -0.216619 0
M  V30 3469 C 347.121 1.98466 0.417033 0
M  V30 3470 C 347.454 1.10403 1.59765 0
M  V30 3471 O 346.729 0.160632 1.93836 0
M  V30 3472 C 347.012 3.49769 0.85637 0
M  V30 3473 C 346.865 4.48606 -0.327546 0
M  V30 3474 C 348.184 4.05339 1.7143 0
M  V30 3475 H 345.303 0.721551 0.150112 0
M  V30 3476 H 347.945 1.87423 -0.311864 0
M  V30 3477 H 346.095 3.5931 1.47745 0
M  V30 3478 H 347.767 4.5108 -0.965618 0
M  V30 3479 H 346.01 4.22682 -0.975805 0
M  V30 3480 H 346.681 5.51995 0.0227149 0
M  V30 3481 H 349.157 3.98712 1.19031 0
M  V30 3482 H 348.033 5.11533 1.99061 0
M  V30 3483 H 348.294 3.51918 2.67593 0
M  V30 3484 N 347.353 -0.0568162 1.57498 0
M  V30 3485 C 348.764 -0.606858 1.76562 0
M  V30 3486 C 349.115 -1.77114 0.844094 0
M  V30 3487 O 348.24 -2.16376 0.0318911 0
M  V30 3488 C 348.835 -1.10766 3.20182 0
M  V30 3489 C 347.394 -1.60344 3.40539 0
M  V30 3490 C 346.541 -0.529311 2.72201 0
M  V30 3491 H 349.492 0.169393 1.57793 0
M  V30 3492 H 349.513 -1.97602 3.25167 0
M  V30 3493 H 349.025 -0.26006 3.87228 0
M  V30 3494 H 347.126 -2.47379 2.78629 0
M  V30 3495 H 347.239 -1.67006 4.4905 0
M  V30 3496 H 345.603 -0.977893 2.35179 0
M  V30 3497 H 346.386 0.308352 3.41912 0
M  V30 3498 N 348.832 -1.54138 -0.328536 0
M  V30 3499 C 349.762 -1.86167 -1.40939 0
M  V30 3500 C 350.743 -0.718044 -1.54202 0
M  V30 3501 O 351.928 -0.971328 -1.68163 0
M  V30 3502 C 349.058 -2.08461 -2.77779 0
M  V30 3503 C 348.012 -3.24299 -2.7931 0
M  V30 3504 C 347.338 -3.31955 -4.19178 0
M  V30 3505 C 348.638 -4.62065 -2.43502 0
M  V30 3506 H 350.332 -2.76689 -1.14383 0
M  V30 3507 H 347.878 -1.33132 -0.548806 0
M  V30 3508 H 349.831 -2.29453 -3.53454 0
M  V30 3509 H 348.555 -1.14684 -3.05802 0
M  V30 3510 H 347.214 -3.03187 -2.0609 0
M  V30 3511 H 346.862 -2.35745 -4.44335 0
M  V30 3512 H 346.562 -4.09805 -4.2111 0
M  V30 3513 H 348.086 -3.55175 -4.96672 0
M  V30 3514 H 349.5 -4.8297 -3.08889 0
M  V30 3515 H 347.897 -5.42429 -2.56693 0
M  V30 3516 H 348.967 -4.64652 -1.38659 0
M  V30 3517 N 350.31 0.590341 -1.46126 0
M  V30 3518 C 351.557 1.34882 -1.5104 0
M  V30 3519 C 351.885 1.93849 -0.159021 0
M  V30 3520 O 351.14 1.76544 0.844436 0
M  V30 3521 C 351.439 2.5032 -2.55097 0
M  V30 3522 C 351.105 2.09394 -3.99331 0
M  V30 3523 C 349.767 1.97947 -4.38601 0
M  V30 3524 C 352.119 1.77712 -4.89967 0
M  V30 3525 C 349.447 1.53065 -5.66381 0
M  V30 3526 C 351.799 1.34312 -6.18177 0
M  V30 3527 C 350.463 1.21436 -6.56361 0
M  V30 3528 H 349.733 0.493568 -0.552695 0
M  V30 3529 H 352.38 0.665539 -1.79563 0
M  V30 3530 H 350.685 3.24062 -2.20207 0
M  V30 3531 H 352.382 3.08541 -2.56132 0
M  V30 3532 H 348.972 2.19235 -3.68285 0
M  V30 3533 H 353.156 1.85445 -4.60352 0
M  V30 3534 H 348.412 1.41733 -5.94745 0
M  V30 3535 H 352.586 1.08849 -6.87841 0
M  V30 3536 H 350.213 0.864345 -7.5527 0
M  V30 3537 N 351.788 1.33704 0.83433 0
M  V30 3538 C 352.698 1.26382 1.97648 0
M  V30 3539 C 353.714 0.173548 1.73132 0
M  V30 3540 O 354.89 0.397962 1.97429 0
M  V30 3541 C 351.955 1.00769 3.31733 0
M  V30 3542 C 351.016 2.1884 3.69334 0
M  V30 3543 C 350.249 1.9444 4.9702 0
M  V30 3544 O 350.472 0.896961 5.63303 0
M  V30 3545 O 349.406 2.81093 5.32231 0
M  V30 3546 H 353.232 2.22444 2.06767 0
M  V30 3547 H 350.817 1.13795 0.968037 0
M  V30 3548 H 352.699 0.882186 4.12062 0
M  V30 3549 H 351.374 0.0773783 3.23608 0
M  V30 3550 H 350.281 2.36946 2.89495 0
M  V30 3551 H 351.614 3.10221 3.82131 0
M  V30 3552 N 353.266 -1.05314 1.17247 0
M  V30 3553 C 354.198 -2.13023 0.845812 0
M  V30 3554 C 355.211 -1.62096 -0.151246 0
M  V30 3555 O 356.4 -1.78343 0.0748818 0
M  V30 3556 C 353.5 -3.38047 0.240292 0
M  V30 3557 C 352.673 -4.18255 1.27991 0
M  V30 3558 C 351.732 -5.21625 0.692375 0
M  V30 3559 O 350.758 -5.52619 1.36385 0
M  V30 3560 N 351.96 -5.78201 -0.516178 0
M  V30 3561 H 354.725 -2.41642 1.77283 0
M  V30 3562 H 352.286 -1.21401 1.07115 0
M  V30 3563 H 354.278 -4.04359 -0.16603 0
M  V30 3564 H 352.848 -3.06972 -0.590487 0
M  V30 3565 H 352.068 -3.47451 1.86203 0
M  V30 3566 H 353.356 -4.68643 1.98119 0
M  V30 3567 H 352.754 -5.55301 -1.07969 0
M  V30 3568 H 351.311 -6.4604 -0.86458 0
M  V30 3569 N 354.744 -0.972509 -1.24016 0
M  V30 3570 C 355.707 -0.511403 -2.23422 0
M  V30 3571 C 356.707 0.394679 -1.55881 0
M  V30 3572 O 357.897 0.189469 -1.73167 0
M  V30 3573 C 355.029 0.258769 -3.39916 0
M  V30 3574 H 356.222 -1.39024 -2.6573 0
M  V30 3575 H 353.775 -0.757585 -1.36713 0
M  V30 3576 H 354.51 1.1545 -3.03054 0
M  V30 3577 H 354.295 -0.391522 -3.9014 0
M  V30 3578 H 355.785 0.570244 -4.13688 0
M  V30 3579 N 356.222 1.38976 -0.743202 0
M  V30 3580 C 357.152 2.33171 -0.123873 0
M  V30 3581 C 358.133 1.54336 0.71516 0
M  V30 3582 O 359.318 1.82696 0.658467 0
M  V30 3583 C 356.448 3.38474 0.777978 0
M  V30 3584 C 355.402 4.27979 0.0424758 0
M  V30 3585 C 354.728 5.2405 1.06189 0
M  V30 3586 C 356.028 5.10155 -1.1198 0
M  V30 3587 H 357.722 2.85213 -0.910709 0
M  V30 3588 H 355.268 1.37133 -0.439388 0
M  V30 3589 H 357.221 4.03328 1.22084 0
M  V30 3590 H 355.945 2.84891 1.59702 0
M  V30 3591 H 354.604 3.64616 -0.380853 0
M  V30 3592 H 354.252 4.66758 1.87472 0
M  V30 3593 H 353.952 5.84785 0.574485 0
M  V30 3594 H 355.476 5.9178 1.50428 0
M  V30 3595 H 356.89 5.68307 -0.75499 0
M  V30 3596 H 355.287 5.80073 -1.53738 0
M  V30 3597 H 356.357 4.44504 -1.93764 0
M  V30 3598 N 357.7 0.491464 1.49741 0
M  V30 3599 C 358.61 -0.296835 2.32715 0
M  V30 3600 C 359.626 -0.976536 1.44013 0
M  V30 3601 O 360.802 -0.960023 1.77047 0
M  V30 3602 C 357.867 -1.35288 3.19215 0
M  V30 3603 C 356.928 -0.687632 4.23757 0
M  V30 3604 C 356.161 -1.69336 5.06123 0
M  V30 3605 O 356.384 -2.92219 4.89861 0
M  V30 3606 O 355.318 -1.25394 5.88693 0
M  V30 3607 H 359.144 0.382048 3.01287 0
M  V30 3608 H 356.729 0.252953 1.47243 0
M  V30 3609 H 358.611 -1.96411 3.72828 0
M  V30 3610 H 357.286 -2.01487 2.53347 0
M  V30 3611 H 356.193 -0.0369159 3.74082 0
M  V30 3612 H 357.526 -0.0682566 4.92153 0
M  V30 3613 N 359.178 -1.55987 0.224894 0
M  V30 3614 C 360.425 -1.9839 -0.4059 0
M  V30 3615 C 360.753 -1.11261 -1.59535 0
M  V30 3616 O 360.008 -0.158314 -1.95059 0
M  V30 3617 C 360.307 -3.46394 -0.880106 0
M  V30 3618 C 359.973 -4.5046 0.19918 0
M  V30 3619 C 358.635 -4.7864 0.495661 0
M  V30 3620 C 360.987 -5.12855 0.928939 0
M  V30 3621 C 358.315 -5.66497 1.52636 0
M  V30 3622 C 360.667 -6.01828 1.949 0
M  V30 3623 C 359.331 -6.28351 2.25236 0
M  V30 3624 H 358.601 -0.725961 -0.148529 0
M  V30 3625 H 361.248 -1.88668 0.328113 0
M  V30 3626 H 359.553 -3.53337 -1.69294 0
M  V30 3627 H 361.25 -3.76577 -1.37808 0
M  V30 3628 H 357.84 -4.28579 -0.0420526 0
M  V30 3629 H 362.024 -4.9115 0.713129 0
M  V30 3630 H 357.28 -5.8531 1.76698 0
M  V30 3631 H 361.454 -6.49225 2.51951 0
M  V30 3632 H 359.081 -6.96226 3.05244 0
M  V30 3633 N 360.656 0.0484629 -1.57525 0
M  V30 3634 C 361.619 1.03956 -2.04269 0
M  V30 3635 C 362.619 1.30211 -0.943496 0
M  V30 3636 O 363.809 1.25539 -1.20771 0
M  V30 3637 C 360.941 2.37742 -2.44319 0
M  V30 3638 H 362.134 0.636182 -2.93075 0
M  V30 3639 H 359.687 0.294811 -1.53494 0
M  V30 3640 H 360.422 2.82866 -1.5861 0
M  V30 3641 H 360.207 2.20021 -3.24551 0
M  V30 3642 H 361.697 3.08936 -2.80978 0
M  V30 3643 N 362.134 1.5431 0.320358 0
M  V30 3644 C 363.55 1.45091 0.664889 0
M  V30 3645 C 363.75 0.626382 1.91517 0
M  V30 3646 O 362.806 0.126443 2.52183 0
M  V30 3647 C 364.119 2.88848 0.83591 0
M  V30 3648 C 365.667 2.9877 0.933046 0
M  V30 3649 C 366.142 4.43683 1.13621 0
M  V30 3650 N 367.633 4.47309 1.20287 0
M  V30 3651 C 368.368 5.56595 1.37801 0
M  V30 3652 N 367.864 6.75844 1.52338 0
M  V30 3653 N 369.657 5.44248 1.40535 0
M  V30 3654 H 361.808 2.06398 -0.501374 0
M  V30 3655 H 364.071 0.933963 -0.162534 0
M  V30 3656 H 363.777 3.51698 -0.0116092 0
M  V30 3657 H 363.651 3.35148 1.73078 0
M  V30 3658 H 366.038 2.36045 1.77107 0
M  V30 3659 H 366.119 2.55796 0.0145782 0
M  V30 3660 H 365.763 5.06995 0.303032 0
M  V30 3661 H 365.693 4.84269 2.0686 0
M  V30 3662 H 368.184 3.61388 1.10485 0
M  V30 3663 H 368.497 7.54892 1.65403 0
M  V30 3664 H 366.842 6.78746 1.4943 0
M  V30 3665 H 370.033 4.50038 1.28777 0
M  V30 3666 H 370.206 6.29473 1.53842 0
M  V30 3667 N 363.613 -0.582584 1.46437 0
M  V30 3668 C 364.56 -1.69164 1.5701 0
M  V30 3669 C 365.53 -1.60847 0.414403 0
M  V30 3670 O 366.715 -1.80058 0.631171 0
M  V30 3671 C 363.855 -3.075 1.56646 0
M  V30 3672 C 362.968 -3.2644 2.82951 0
M  V30 3673 C 362.103 -4.55026 2.7409 0
M  V30 3674 C 361.142 -4.6731 3.95333 0
M  V30 3675 N 360.279 -5.87221 3.84858 0
M  V30 3676 H 365.119 -1.59464 2.51744 0
M  V30 3677 H 362.656 -0.777186 1.24893 0
M  V30 3678 H 364.614 -3.8757 1.5442 0
M  V30 3679 H 363.244 -3.16096 0.654439 0
M  V30 3680 H 362.296 -2.39974 2.95155 0
M  V30 3681 H 363.608 -3.31385 3.72808 0
M  V30 3682 H 362.762 -5.43324 2.6997 0
M  V30 3683 H 361.501 -4.52519 1.81873 0
M  V30 3684 H 360.506 -3.77429 3.99784 0
M  V30 3685 H 361.731 -4.71595 4.88646 0
M  V30 3686 H 359.677 -5.85712 2.95427 0
M  V30 3687 H 359.594 -5.93435 4.6837 0
M  V30 3688 H 360.862 -6.7795 3.84713 0
M  V30 3689 N 365.091 -1.34144 -0.827227 0
M  V30 3690 C 366.339 -1.26009 -1.58007 0
M  V30 3691 C 366.66 0.170971 -1.94249 0
M  V30 3692 O 365.93 1.10256 -1.61927 0
M  V30 3693 H 364.51 -0.463414 -0.585881 0
M  V30 3694 H 367.172 -1.68005 -0.987951 0
M  V30 3695 H 366.268 -1.86187 -2.50481 0
M  V30 3696 N 366.569 1.04691 -1.17803 0
M  V30 3697 C 367.817 1.7743 -0.967617 0
M  V30 3698 C 368.138 1.88359 0.504574 0
M  V30 3699 O 367.408 1.40402 1.36617 0
M  V30 3700 H 365.988 0.657242 -0.355024 0
M  V30 3701 H 368.65 1.2638 -1.48371 0
M  V30 3702 H 367.746 2.78924 -1.40027 0
M  V30 3703 N 368.047 0.979072 1.23499 0
M  V30 3704 C 369.275 0.665202 1.95915 0
M  V30 3705 C 369.69 -0.767571 1.72493 0
M  V30 3706 O 369.047 -1.51635 1.01554 0
M  V30 3707 C 369.098 0.944438 3.48945 0
M  V30 3708 O 368.819 2.3209 3.71572 0
M  V30 3709 C 370.32 0.646336 4.38563 0
M  V30 3710 H 367.54 0.247218 0.623798 0
M  V30 3711 H 370.084 1.31009 1.57025 0
M  V30 3712 H 368.239 0.345575 3.85856 0
M  V30 3713 H 368.653 2.40957 4.65876 0
M  V30 3714 H 370.127 0.892091 5.44744 0
M  V30 3715 H 370.604 -0.419575 4.37191 0
M  V30 3716 H 371.21 1.22562 4.07258 0
M  V30 3717 N 369.525 -1.3858 0.750561 0
M  V30 3718 C 370.774 -1.99424 0.302172 0
M  V30 3719 C 371.087 -1.60254 -1.12152 0
M  V30 3720 O 372.293 -2.14046 -1.67023 0
M  V30 3721 C 370.749 -3.56558 0.489307 0
M  V30 3722 C 370.357 -4.04682 1.92189 0
M  V30 3723 C 372.101 -4.24374 0.103478 0
M  V30 3724 C 370.008 -5.54446 2.05775 0
M  V30 3725 H 368.938 -0.746046 0.10923 0
M  V30 3726 H 371.589 -1.58383 0.92667 0
M  V30 3727 H 369.971 -3.95472 -0.204329 0
M  V30 3728 H 371.145 -3.77065 2.64875 0
M  V30 3729 H 369.46 -3.4958 2.26236 0
M  V30 3730 H 372.057 -5.34384 0.183787 0
M  V30 3731 H 372.4 -4.05468 -0.943481 0
M  V30 3732 H 372.933 -3.90688 0.748854 0
M  V30 3733 H 369.672 -5.78252 3.08714 0
M  V30 3734 H 369.192 -5.83816 1.37546 0
M  V30 3735 H 370.871 -6.20099 1.84626 0
M  V30 3736 N 371.003 -0.499398 -1.49478 0
M  V30 3737 C 372.28 0.108629 -1.95298 0
M  V30 3738 C 372.66 1.54282 -1.44084 0
M  V30 3739 O 372.008 2.18944 -0.653908 0
M  V30 3740 C 372.218 0.0229111 -3.48992 0
M  V30 3741 C 373.566 0.197643 -4.2414 0
M  V30 3742 O 374.59 0.0981735 -3.56065 0
M  V30 3743 O 373.449 0.401669 -5.45022 0
M  V30 3744 H 370.543 0.096181 -0.821388 0
M  V30 3745 H 373.089 -0.561822 -1.6013 0
M  V30 3746 H 371.861 -0.977321 -3.78899 0
M  V30 3747 H 371.484 0.733579 -3.90774 0
M  V30 3748 N 372.481 1.55866 -0.233164 0
M  V30 3749 C 373.73 1.97779 0.39579 0
M  V30 3750 C 374.043 1.12419 1.60066 0
M  V30 3751 O 375.249 1.44283 2.29988 0
M  V30 3752 C 373.705 3.5188 0.755556 0
M  V30 3753 C 373.313 4.45959 -0.427152 0
M  V30 3754 C 375.057 4.02479 1.34946 0
M  V30 3755 C 372.964 5.91383 -0.0443043 0
M  V30 3756 H 371.894 0.738592 0.15165 0
M  V30 3757 H 374.545 1.80486 -0.331212 0
M  V30 3758 H 372.927 3.64816 1.5403 0
M  V30 3759 H 374.101 4.44776 -1.20462 0
M  V30 3760 H 372.416 4.05765 -0.935068 0
M  V30 3761 H 375.013 5.08637 1.649 0
M  V30 3762 H 375.356 3.49014 2.26925 0
M  V30 3763 H 375.889 3.92813 0.62791 0
M  V30 3764 H 372.628 6.48857 -0.930874 0
M  V30 3765 H 372.148 5.95734 0.697238 0
M  V30 3766 H 373.827 6.45893 0.378334 0
M  V30 3767 N 373.959 -0.0401083 1.57549 0
M  V30 3768 C 375.187 -0.745196 1.93014 0
M  V30 3769 C 375.602 -1.6948 0.831984 0
M  V30 3770 O 374.959 -1.81482 -0.192463 0
M  V30 3771 C 375.01 -1.51176 3.28372 0
M  V30 3772 O 374.731 -0.600284 4.33968 0
M  V30 3773 C 376.232 -2.315 3.78051 0
M  V30 3774 H 373.452 -0.210088 0.637263 0
M  V30 3775 H 375.996 -0.000924689 2.045 0
M  V30 3776 H 374.151 -2.20801 3.18317 0
M  V30 3777 H 374.565 -1.13669 5.12035 0
M  V30 3778 H 376.039 -2.80697 4.75303 0
M  V30 3779 H 376.516 -3.12436 3.08675 0
M  V30 3780 H 377.122 -1.66971 3.91153 0
M  V30 3781 N 375.437 -1.54477 -0.31217 0
M  V30 3782 C 376.662 -1.77526 -1.07235 0
M  V30 3783 C 377.087 -0.527775 -1.80544 0
M  V30 3784 O 376.445 0.52121 -1.73646 0
M  V30 3785 C 376.493 -2.97535 -2.03728 0
M  V30 3786 O 375.597 -2.69878 -3.11833 0
M  V30 3787 H 374.938 -0.58792 -0.30862 0
M  V30 3788 H 377.468 -2.01532 -0.352993 0
M  V30 3789 H 377.478 -3.25198 -2.46395 0
M  V30 3790 H 376.153 -3.87996 -1.49774 0
M  V30 3791 H 374.73 -2.53199 -2.7376 0
M  V30 3792 N 376.915 0.57481 -1.46744 0
M  V30 3793 C 378.14 1.36341 -1.56288 0
M  V30 3794 C 378.565 1.86954 -0.207347 0
M  V30 3795 O 377.923 1.62006 0.813871 0
M  V30 3796 C 377.971 2.52147 -2.57787 0
M  V30 3797 O 377.075 3.53834 -2.11838 0
M  V30 3798 H 376.416 0.405713 -0.525636 0
M  V30 3799 H 378.946 0.696453 -1.92382 0
M  V30 3800 H 378.956 2.98958 -2.77648 0
M  V30 3801 H 377.631 2.14663 -3.5622 0
M  V30 3802 H 376.208 3.1345 -2.01999 0
M  V30 3803 N 378.394 1.34581 0.820102 0
M  V30 3804 C 379.643 1.26437 1.57151 0
M  V30 3805 C 379.956 -0.163111 1.94919 0
M  V30 3806 O 381.162 -0.366722 2.69012 0
M  V30 3807 C 379.618 2.21658 2.83541 0
M  V30 3808 C 379.226 3.69679 2.53065 0
M  V30 3809 C 380.97 2.22428 3.61561 0
M  V30 3810 C 378.877 4.56761 3.75664 0
M  V30 3811 H 377.807 0.469707 0.589823 0
M  V30 3812 H 380.458 1.59763 0.902656 0
M  V30 3813 H 378.84 1.81287 3.52067 0
M  V30 3814 H 380.014 4.18605 1.92631 0
M  V30 3815 H 378.329 3.71384 1.88316 0
M  V30 3816 H 380.926 2.8471 4.52597 0
M  V30 3817 H 381.269 1.22434 3.97889 0
M  V30 3818 H 381.802 2.61259 2.99981 0
M  V30 3819 H 378.541 5.57702 3.44454 0
M  V30 3820 H 378.061 4.12568 4.35371 0
M  V30 3821 H 379.74 4.71509 4.43044 0
M  V30 3822 N 379.872 -1.04064 1.18357 0
M  V30 3823 C 381.149 -1.74252 0.888581 0
M  V30 3824 C 381.529 -2.02138 -0.60856 0
M  V30 3825 O 380.877 -1.66656 -1.56327 0
M  V30 3826 C 381.087 -3.0277 1.73584 0
M  V30 3827 C 382.435 -3.76506 1.96286 0
M  V30 3828 O 383.459 -3.12668 1.70637 0
M  V30 3829 O 382.318 -4.91243 2.39464 0
M  V30 3830 H 379.412 -0.758271 0.330082 0
M  V30 3831 H 381.958 -1.1013 1.2911 0
M  V30 3832 H 380.73 -2.78299 2.75073 0
M  V30 3833 H 380.353 -3.74631 1.33183 0
M  V30 3834 N 381.35 -0.985608 -1.22978 0
M  V30 3835 C 382.26 -0.538548 -2.28335 0
M  V30 3836 C 383.276 0.409163 -1.69121 0
M  V30 3837 O 384.452 0.277797 -1.99475 0
M  V30 3838 C 381.517 0.146867 -3.46389 0
M  V30 3839 C 380.578 -0.842896 -4.20944 0
M  V30 3840 C 379.811 -0.190095 -5.33361 0
M  V30 3841 O 380.034 1.01767 -5.61248 0
M  V30 3842 O 378.968 -0.891289 -5.95264 0
M  V30 3843 H 382.794 -1.41487 -2.68729 0
M  V30 3844 H 380.379 -0.753495 -1.29007 0
M  V30 3845 H 382.261 0.531125 -4.1804 0
M  V30 3846 H 380.936 0.997871 -3.07935 0
M  V30 3847 H 379.843 -1.27795 -3.51595 0
M  V30 3848 H 381.176 -1.66287 -4.6326 0
M  V30 3849 N 382.828 1.3818 -0.7579 0
M  V30 3850 C 384.239 1.82726 -0.383134 0
M  V30 3851 C 384.59 1.63214 1.08884 0
M  V30 3852 O 383.715 1.13566 1.84205 0
M  V30 3853 C 384.31 3.31728 -0.688631 0
M  V30 3854 C 382.869 3.74606 -0.367091 0
M  V30 3855 C 382.016 2.60896 -0.939599 0
M  V30 3856 H 384.967 1.26847 -0.953699 0
M  V30 3857 H 384.988 3.80487 0.0316492 0
M  V30 3858 H 384.5 3.45898 -1.76001 0
M  V30 3859 H 382.601 3.66013 0.697532 0
M  V30 3860 H 382.714 4.71215 -0.865658 0
M  V30 3861 H 381.078 2.52075 -0.3647 0
M  V30 3862 H 381.861 2.77864 -2.0161 0
M  V30 3863 N 384.306 0.507319 1.49211 0
M  V30 3864 C 385.552 -0.0350047 2.0277 0
M  V30 3865 C 385.885 -1.3606 1.38569 0
M  V30 3866 O 385.16 -1.87321 0.523542 0
M  V30 3867 C 385.443 -0.180916 3.59645 0
M  V30 3868 C 385.296 1.16825 4.34364 0
M  V30 3869 C 386.615 -0.918558 4.30407 0
M  V30 3870 H 383.734 -0.0112473 0.736914 0
M  V30 3871 H 386.376 0.659956 1.7817 0
M  V30 3872 H 384.526 -0.772826 3.80736 0
M  V30 3873 H 386.198 1.79952 4.24753 0
M  V30 3874 H 384.441 1.75594 3.96673 0
M  V30 3875 H 385.112 1.01939 5.42506 0
M  V30 3876 H 387.588 -0.41649 4.1401 0
M  V30 3877 H 386.464 -0.989505 5.39907 0
M  V30 3878 H 386.725 -1.96373 3.96093 0
M  V30 3879 N 385.784 -1.5574 0.241426 0
M  V30 3880 C 386.747 -2.19877 -0.647063 0
M  V30 3881 C 387.747 -1.16642 -1.10686 0
M  V30 3882 O 388.937 -1.41757 -1.01245 0
M  V30 3883 C 386.069 -2.83797 -1.88871 0
M  V30 3884 H 387.262 -2.99772 -0.087574 0
M  V30 3885 H 384.815 -1.56298 -0.00813574 0
M  V30 3886 H 385.55 -2.07824 -2.48957 0
M  V30 3887 H 385.335 -3.59414 -1.56728 0
M  V30 3888 H 386.825 -3.32898 -2.52129 0
M  V30 3889 N 387.262 0.0317525 -1.57568 0
M  V30 3890 C 388.673 0.578692 -1.77505 0
M  V30 3891 C 389.024 1.75749 -0.872164 0
M  V30 3892 O 388.149 2.16298 -0.0663106 0
M  V30 3893 C 388.744 1.05658 -3.21904 0
M  V30 3894 C 387.303 1.54906 -3.43047 0
M  V30 3895 C 386.45 0.485939 -2.73009 0
M  V30 3896 H 389.401 -0.194475 -1.57504 0
M  V30 3897 H 389.422 1.92404 -3.28269 0
M  V30 3898 H 388.934 0.198422 -3.87592 0
M  V30 3899 H 387.035 2.42915 -2.82529 0
M  V30 3900 H 387.148 1.59841 -4.5165 0
M  V30 3901 H 385.512 0.940354 -2.36705 0
M  V30 3902 H 386.295 -0.362709 -3.41379 0
M  V30 3903 N 388.74 1.54641 0.303973 0
M  V30 3904 C 389.703 1.84646 1.35789 0
M  V30 3905 C 390.703 0.7192 1.4382 0
M  V30 3906 O 391.893 0.987491 1.43507 0
M  V30 3907 C 389.025 2.02407 2.74307 0
M  V30 3908 H 390.218 2.78829 1.10429 0
M  V30 3909 H 387.771 1.46658 0.540487 0
M  V30 3910 H 388.506 1.10502 3.04893 0
M  V30 3911 H 388.291 2.84453 2.69868 0
M  V30 3912 H 389.781 2.27002 3.50514 0
M  V30 3913 N 390.218 -0.567019 1.47046 0
M  V30 3914 C 391.128 -1.70247 1.6141 0
M  V30 3915 C 392.144 -1.66746 0.497157 0
M  V30 3916 O 393.32 -1.86371 0.763389 0
M  V30 3917 C 390.385 -3.06756 1.61561 0
M  V30 3918 C 389.446 -3.21399 2.84607 0
M  V30 3919 C 388.679 -4.51396 2.84741 0
M  V30 3920 O 388.902 -5.36255 1.94388 0
M  V30 3921 O 387.836 -4.69621 3.76483 0
M  V30 3922 H 391.662 -1.61073 2.57467 0
M  V30 3923 H 389.247 -0.735894 1.30019 0
M  V30 3924 H 391.129 -3.8801 1.64396 0
M  V30 3925 H 389.804 -3.16333 0.686684 0
M  V30 3926 H 388.711 -2.39579 2.8732 0
M  V30 3927 H 390.044 -3.16721 3.76761 0
M  V30 3928 N 391.696 -1.35014 -0.812953 0
M  V30 3929 C 392.944 -1.27678 -1.56661 0
M  V30 3930 C 393.265 0.150359 -1.94419 0
M  V30 3931 O 392.535 1.08532 -1.63088 0
M  V30 3932 H 391.115 -0.469602 -0.580933 0
M  V30 3933 H 393.777 -1.69043 -0.970076 0
M  V30 3934 H 392.873 -1.88833 -2.48492 0
M  V30 3935 N 393.175 1.03435 -1.18907 0
M  V30 3936 C 394.424 1.76143 -0.982669 0
M  V30 3937 C 394.737 1.89416 0.487953 0
M  V30 3938 O 395.943 2.59041 0.813036 0
M  V30 3939 C 394.399 3.16722 -1.70924 0
M  V30 3940 C 394.007 3.11522 -3.21959 0
M  V30 3941 C 395.751 3.93764 -1.58588 0
M  V30 3942 C 393.658 4.46999 -3.87228 0
M  V30 3943 H 392.588 0.660292 -0.364047 0
M  V30 3944 H 395.239 1.158 -1.42347 0
M  V30 3945 H 393.621 3.775 -1.19623 0
M  V30 3946 H 394.795 2.60158 -3.80335 0
M  V30 3947 H 393.11 2.47978 -3.34508 0
M  V30 3948 H 395.707 4.93963 -2.04707 0
M  V30 3949 H 396.05 4.12794 -0.539142 0
M  V30 3950 H 396.583 3.39576 -2.07203 0
M  V30 3951 H 393.322 4.33174 -4.91976 0
M  V30 3952 H 392.842 4.98441 -3.33642 0
M  V30 3953 H 394.521 5.15898 -3.90459 0
M  V30 3954 N 394.653 0.992116 1.22453 0
M  V30 3955 C 395.616 0.546883 2.2258 0
M  V30 3956 C 396.616 -0.369829 1.56489 0
M  V30 3957 O 397.806 -0.161896 1.73446 0
M  V30 3958 C 394.938 -0.204659 3.40285 0
M  V30 3959 H 396.131 1.43234 2.63484 0
M  V30 3960 H 393.684 0.779239 1.3549 0
M  V30 3961 H 394.419 -1.10614 3.04853 0
M  V30 3962 H 394.204 0.45354 3.89468 0
M  V30 3963 H 395.694 -0.504358 4.14543 0
M  V30 3964 N 396.131 -1.37776 0.765217 0
M  V30 3965 C 397.547 -1.53297 0.444108 0
M  V30 3966 C 397.747 -1.72515 -1.04119 0
M  V30 3967 O 396.803 -1.74278 -1.82711 0
M  V30 3968 C 398.116 -2.73328 1.25349 0
M  V30 3969 C 399.664 -2.87185 1.24473 0
M  V30 3970 C 400.139 -4.10191 2.03733 0
M  V30 3971 N 401.63 -4.17291 2.01053 0
M  V30 3972 C 402.365 -5.11488 2.59166 0
M  V30 3973 N 401.861 -6.11285 3.26041 0
M  V30 3974 N 403.654 -5.03924 2.49032 0
M  V30 3975 H 395.805 -1.23552 1.72768 0
M  V30 3976 H 398.068 -0.601103 0.733062 0
M  V30 3977 H 397.774 -2.6557 2.30577 0
M  V30 3978 H 397.648 -3.66834 0.87823 0
M  V30 3979 H 400.035 -2.94418 0.20047 0
M  V30 3980 H 400.116 -1.94657 1.65959 0
M  V30 3981 H 399.76 -4.0372 3.08176 0
M  V30 3982 H 399.69 -5.01821 1.59633 0
M  V30 3983 H 402.181 -3.45825 1.5236 0
M  V30 3984 H 402.494 -6.79678 3.67774 0
M  V30 3985 H 400.839 -6.11583 3.30138 0
M  V30 3986 H 404.03 -4.24902 1.96407 0
M  V30 3987 H 404.203 -5.77152 2.94617 0
M  V30 3988 N 397.609 -0.515225 -1.4894 0
M  V30 3989 C 398.572 0.244681 -2.2789 0
M  V30 3990 C 399.572 0.881166 -1.34507 0
M  V30 3991 O 400.762 0.743497 -1.57537 0
M  V30 3992 C 397.894 1.35247 -3.12923 0
M  V30 3993 H 399.087 -0.448289 -2.96531 0
M  V30 3994 H 396.64 -0.270656 -1.53939 0
M  V30 3995 H 397.375 2.07916 -2.48881 0
M  V30 3996 H 397.16 0.901374 -3.81599 0
M  V30 3997 H 398.65 1.88737 -3.72516 0
M  V30 3998 N 399.087 1.5561 -0.249682 0
M  V30 3999 C 400.333 1.99306 0.374841 0
M  V30 4000 C 400.666 1.13767 1.57387 0
M  V30 4001 O 399.941 0.201711 1.93451 0
M  V30 4002 C 400.224 3.51507 0.781986 0
M  V30 4003 C 400.077 4.4781 -0.422629 0
M  V30 4004 C 401.396 4.08884 1.62793 0
M  V30 4005 H 398.515 0.724572 0.134773 0
M  V30 4006 H 401.157 1.86719 -0.351549 0
M  V30 4007 H 399.307 3.62363 1.4009 0
M  V30 4008 H 400.979 4.48931 -1.06108 0
M  V30 4009 H 399.222 4.20518 -1.06524 0
M  V30 4010 H 399.893 5.51919 -0.0943766 0
M  V30 4011 H 402.369 4.01147 1.10547 0
M  V30 4012 H 401.245 5.1564 1.88166 0
M  V30 4013 H 401.506 3.57515 2.60068 0
M  V30 4014 N 400.565 -0.0233959 1.57583 0
M  V30 4015 C 401.497 -1.04994 2.03737 0
M  V30 4016 C 402.51 -1.32125 0.951152 0
M  V30 4017 O 403.699 -1.29512 1.22837 0
M  V30 4018 C 400.799 -2.39026 2.40249 0
M  V30 4019 C 399.972 -2.31171 3.7132 0
M  V30 4020 C 399.031 -3.47698 3.94959 0
M  V30 4021 O 398.057 -3.26937 4.65941 0
M  V30 4022 N 399.259 -4.6976 3.41037 0
M  V30 4023 H 402.024 -0.656507 2.92421 0
M  V30 4024 H 399.585 -0.211235 1.60516 0
M  V30 4025 H 401.577 -3.15712 2.53196 0
M  V30 4026 H 400.147 -2.70194 1.57207 0
M  V30 4027 H 399.367 -1.39547 3.68674 0
M  V30 4028 H 400.655 -2.23071 4.57293 0
M  V30 4029 H 400.053 -4.89528 2.83512 0
M  V30 4030 H 398.61 -5.43791 3.59353 0
M  V30 4031 N 402.043 -1.548 -0.295768 0
M  V30 4032 C 403.006 -1.85363 -1.34808 0
M  V30 4033 C 404.006 -0.726817 -1.43436 0
M  V30 4034 O 405.196 -0.995088 -1.42981 0
M  V30 4035 C 402.328 -2.03859 -2.73229 0
M  V30 4036 H 403.521 -2.7941 -1.08949 0
M  V30 4037 H 401.074 -1.46942 -0.532702 0
M  V30 4038 H 401.809 -1.12117 -3.04303 0
M  V30 4039 H 401.594 -2.8588 -2.68356 0
M  V30 4040 H 403.084 -2.28857 -3.49305 0
M  V30 4041 N 403.521 0.559213 -1.47345 0
M  V30 4042 C 404.769 1.31388 -1.53563 0
M  V30 4043 C 405.09 1.93985 -0.198678 0
M  V30 4044 O 404.36 1.79825 0.777167 0
M  V30 4045 H 402.94 0.487901 -0.565652 0
M  V30 4046 H 405.602 0.65315 -1.8363 0
M  V30 4047 H 404.698 2.10844 -2.30111 0
M  V30 4048 N 404.999 1.35443 0.805782 0
M  V30 4049 C 406.248 1.28097 1.55801 0
M  V30 4050 C 406.561 -0.142428 1.95081 0
M  V30 4051 O 407.767 -0.33817 2.69386 0
M  V30 4052 C 406.223 2.24653 2.81174 0
M  V30 4053 C 405.831 3.72342 2.49129 0
M  V30 4054 C 407.575 2.2625 3.59181 0
M  V30 4055 C 405.482 4.60719 3.70799 0
M  V30 4056 H 404.412 0.475937 0.584808 0
M  V30 4057 H 407.063 1.60712 0.885661 0
M  V30 4058 H 405.445 1.85011 3.50124 0
M  V30 4059 H 406.619 4.20624 1.88181 0
M  V30 4060 H 404.934 3.73361 1.84366 0
M  V30 4061 H 407.531 2.89495 4.49552 0
M  V30 4062 H 407.874 1.26647 3.96568 0
M  V30 4063 H 408.407 2.64426 2.97193 0
M  V30 4064 H 405.146 5.61324 3.3852 0
M  V30 4065 H 404.666 4.17163 4.3097 0
M  V30 4066 H 406.345 4.76182 4.38018 0
M  V30 4067 N 406.477 -1.02803 1.19454 0
M  V30 4068 C 407.888 -1.57667 0.999899 0
M  V30 4069 C 408.239 -1.91041 -0.446956 0
M  V30 4070 O 407.364 -1.70978 -1.32648 0
M  V30 4071 C 407.959 -2.86477 1.80877 0
M  V30 4072 C 406.518 -3.37911 1.65811 0
M  V30 4073 C 405.665 -2.11343 1.79526 0
M  V30 4074 H 408.616 -0.853214 1.33813 0
M  V30 4075 H 408.637 -3.57408 1.30536 0
M  V30 4076 H 408.149 -2.62155 2.86175 0
M  V30 4077 H 406.25 -3.67218 0.63102 0
M  V30 4078 H 406.363 -4.10885 2.46395 0
M  V30 4079 H 404.727 -2.23254 1.22596 0
M  V30 4080 H 405.51 -1.89461 2.86285 0
M  V30 4081 N 407.956 -0.998596 -1.21925 0
M  V30 4082 C 408.886 -0.573688 -2.26343 0
M  V30 4083 C 409.867 0.402296 -1.65274 0
M  V30 4084 O 411.052 0.291683 -1.91997 0
M  V30 4085 C 408.182 0.106839 -3.47136 0
M  V30 4086 C 407.136 -0.788269 -4.20678 0
M  V30 4087 C 406.462 0.0254927 -5.34694 0
M  V30 4088 C 407.762 -2.08784 -4.78755 0
M  V30 4089 H 409.456 -1.44651 -2.62138 0
M  V30 4090 H 407.002 -0.696975 -1.26009 0
M  V30 4091 H 408.955 0.415531 -4.19346 0
M  V30 4092 H 407.679 1.01424 -3.10452 0
M  V30 4093 H 406.338 -1.08069 -3.50309 0
M  V30 4094 H 405.986 0.933989 -4.94253 0
M  V30 4095 H 405.686 -0.570437 -5.84825 0
M  V30 4096 H 407.21 0.328147 -6.09718 0
M  V30 4097 H 408.624 -1.84272 -5.42878 0
M  V30 4098 H 407.021 -2.63307 -5.39249 0
M  V30 4099 H 408.091 -2.76284 -3.98491 0
M  V30 4100 N 409.434 1.37368 -0.772513 0
M  V30 4101 C 410.397 2.28601 -0.165541 0
M  V30 4102 C 411.397 1.48062 0.627238 0
M  V30 4103 O 412.587 1.68268 0.450715 0
M  V30 4104 C 409.719 3.32023 0.772897 0
M  V30 4105 H 410.912 2.83787 -0.969787 0
M  V30 4106 H 408.465 1.46647 -0.540775 0
M  V30 4107 H 409.2 2.81962 1.60212 0
M  V30 4108 H 408.985 3.91555 0.206585 0
M  V30 4109 H 410.475 4.00197 1.19298 0
M  V30 4110 N 410.912 0.523116 1.48665 0
M  V30 4111 C 412.328 0.180511 1.58576 0
M  V30 4112 C 412.528 -1.31597 1.52592 0
M  V30 4113 O 411.584 -2.0937 1.4114 0
M  V30 4114 C 412.897 0.776949 2.90489 0
M  V30 4115 C 414.445 0.745058 3.04003 0
M  V30 4116 C 414.92 1.31995 4.38567 0
M  V30 4117 N 416.411 1.28162 4.45117 0
M  V30 4118 C 417.146 1.6964 5.47731 0
M  V30 4119 N 416.642 2.18816 6.57337 0
M  V30 4120 N 418.435 1.6092 5.38573 0
M  V30 4121 H 410.586 1.4958 1.50797 0
M  V30 4122 H 412.849 0.621772 0.715614 0
M  V30 4123 H 412.555 1.82732 3.00503 0
M  V30 4124 H 412.429 0.25007 3.7637 0
M  V30 4125 H 414.816 -0.296532 2.93606 0
M  V30 4126 H 414.897 1.30933 2.1975 0
M  V30 4127 H 414.541 2.36043 4.49718 0
M  V30 4128 H 414.471 0.731418 5.21496 0
M  V30 4129 H 416.962 0.92155 3.66491 0
M  V30 4130 H 417.275 2.48478 7.31764 0
M  V30 4131 H 415.62 2.22805 6.58318 0
M  V30 4132 H 418.811 1.22304 4.5184 0
M  V30 4133 H 418.984 1.93567 6.18414 0
M  V30 4134 N 412.39 -1.55475 0.257931 0
M  V30 4135 C 413.636 -1.99502 -0.364266 0
M  V30 4136 C 413.969 -1.146 -1.56782 0
M  V30 4137 O 413.244 -0.211968 -1.93342 0
M  V30 4138 C 413.527 -3.51917 -0.763333 0
M  V30 4139 C 413.38 -4.4758 0.446371 0
M  V30 4140 C 414.699 -4.09742 -1.60623 0
M  V30 4141 H 411.818 -0.725277 -0.130929 0
M  V30 4142 H 414.46 -1.8653 0.361446 0
M  V30 4143 H 412.61 -3.63101 -1.38166 0
M  V30 4144 H 414.282 -4.48362 1.08487 0
M  V30 4145 H 412.525 -4.19947 1.08753 0
M  V30 4146 H 413.196 -5.51862 0.123645 0
M  V30 4147 H 415.672 -4.01727 -1.08418 0
M  V30 4148 H 414.548 -5.16631 -1.85429 0
M  V30 4149 H 414.809 -3.58889 -2.58169 0
M  V30 4150 N 413.868 0.0150385 -1.57593 0
M  V30 4151 C 415.096 0.714395 -1.94175 0
M  V30 4152 C 415.511 1.68135 -0.858841 0
M  V30 4153 O 414.868 1.81766 0.163567 0
M  V30 4154 C 414.919 1.45933 -3.30735 0
M  V30 4155 O 414.64 0.531167 -4.34868 0
M  V30 4156 C 416.141 2.25456 -3.81686 0
M  V30 4157 H 413.361 0.199923 -0.640525 0
M  V30 4158 H 415.905 -0.0316096 -2.04476 0
M  V30 4159 H 414.06 2.15709 -3.21789 0
M  V30 4160 H 414.474 1.05509 -5.13778 0
M  V30 4161 H 415.948 2.731 -4.79709 0
M  V30 4162 H 416.425 3.07485 -3.13607 0
M  V30 4163 H 417.031 1.60727 -3.9376 0
M  V30 4164 N 415.346 1.54954 0.287554 0
M  V30 4165 C 416.276 1.89839 1.35954 0
M  V30 4166 C 417.257 0.758675 1.52244 0
M  V30 4167 O 418.442 1.01557 1.65529 0
M  V30 4168 C 415.572 2.15753 2.72154 0
M  V30 4169 C 414.526 3.3159 2.70614 0
M  V30 4170 C 413.852 3.42952 4.10229 0
M  V30 4171 C 415.152 4.68359 2.31165 0
M  V30 4172 H 416.846 2.79625 1.07007 0
M  V30 4173 H 414.392 1.3454 0.513316 0
M  V30 4174 H 416.345 2.38743 3.47246 0
M  V30 4175 H 415.069 1.22752 3.02654 0
M  V30 4176 H 413.728 3.08545 1.97979 0
M  V30 4177 H 413.376 2.47443 4.37928 0
M  V30 4178 H 413.076 4.20826 4.10097 0
M  V30 4179 H 414.6 3.68218 4.87081 0
M  V30 4180 H 416.014 4.9099 2.95976 0
M  V30 4181 H 414.411 5.49044 2.42221 0
M  V30 4182 H 415.481 4.68165 1.26291 0
M  V30 4183 N 416.824 -0.551391 1.4764 0
M  V30 4184 C 418.049 -1.33837 1.58437 0
M  V30 4185 C 418.474 -1.866 0.237063 0
M  V30 4186 O 417.832 -1.6328 -0.787994 0
M  V30 4187 C 417.88 -2.48014 2.61766 0
M  V30 4188 O 416.984 -3.50419 2.1744 0
M  V30 4189 H 416.325 -0.397299 0.532024 0
M  V30 4190 H 418.855 -0.665759 1.93465 0
M  V30 4191 H 418.865 -2.94503 2.82369 0
M  V30 4192 H 417.54 -2.08969 3.5959 0
M  V30 4193 H 416.117 -3.10196 2.06961 0
M  V30 4194 N 418.302 -1.35869 -0.798587 0
M  V30 4195 C 419.527 -1.32883 -1.59238 0
M  V30 4196 C 419.952 0.0894587 -1.87887 0
M  V30 4197 O 419.31 1.05869 -1.47178 0
M  V30 4198 C 419.358 -2.14892 -2.89575 0
M  V30 4199 O 418.462 -1.53512 -3.82763 0
M  V30 4200 H 417.803 -0.455236 -0.48338 0
M  V30 4201 H 420.333 -1.79024 -0.990539 0
M  V30 4202 H 420.343 -2.27139 -3.38928 0
M  V30 4203 H 419.018 -3.17998 -2.68049 0
M  V30 4204 H 417.595 -1.50153 -3.41334 0
M  V30 4205 N 419.78 1.02168 -1.19998 0
M  V30 4206 C 421.057 1.72816 -0.916191 0
M  V30 4207 C 421.437 2.03081 0.576325 0
M  V30 4208 O 420.785 1.69122 1.53656 0
M  V30 4209 C 420.995 2.9997 -1.78378 0
M  V30 4210 C 422.343 3.73336 -2.02251 0
M  V30 4211 O 423.367 3.09914 -1.75589 0
M  V30 4212 O 422.226 4.87371 -2.47249 0
M  V30 4213 H 419.32 0.752924 -0.342103 0
M  V30 4214 H 421.866 1.08062 -1.30846 0
M  V30 4215 H 420.638 2.73888 -2.79466 0
M  V30 4216 H 420.261 3.72464 -1.39126 0
M  V30 4217 N 421.258 1.00505 1.21394 0
M  V30 4218 C 422.506 0.686415 1.90086 0
M  V30 4219 C 422.827 -0.785264 1.7849 0
M  V30 4220 O 422.097 -1.56387 1.17983 0
M  V30 4221 H 420.677 0.2509 0.703604 0
M  V30 4222 H 423.339 1.27417 1.47482 0
M  V30 4223 H 422.435 0.959621 2.96981 0
M  V30 4224 N 422.737 -1.36956 0.779787 0
M  V30 4225 C 423.685 -2.32053 0.15942 0
M  V30 4226 C 424.679 -1.55333 -0.675878 0
M  V30 4227 O 425.885 -1.70668 -0.57204 0
M  V30 4228 H 422.26 -0.751286 0.0327707 0
M  V30 4229 H 424.231 -2.8195 0.977078 0
M  V30 4230 C 422.98 -3.40602 -0.698977 0
M  V30 4231 H 422.303 -3.99746 -0.0655966 0
M  V30 4232 H 423.743 -4.09486 -1.09989 0
M  V30 4233 C 422.202 -2.81359 -1.85307 0
M  V30 4234 O 422.732 -2.72751 -2.94906 0
M  V30 4235 N 420.938 -2.38786 -1.65619 0
M  V30 4236 H 420.485 -2.45987 -0.764725 0
M  V30 4237 H 420.443 -1.99493 -2.43002 0
M  V30 4238 N 424.215 -0.530993 -1.48385 0
M  V30 4239 C 425.463 0.00273189 -2.021 0
M  V30 4240 C 425.784 1.34672 -1.41027 0
M  V30 4241 O 425.054 1.8724 -0.576012 0
M  V30 4242 H 423.634 0.00399774 -0.746989 0
M  V30 4243 H 426.296 -0.695054 -1.82085 0
M  V30 4244 H 425.392 0.11031 -3.11905 0
M  V30 4245 N 425.693 1.55336 -0.266172 0
M  V30 4246 C 426.918 2.04258 0.359661 0
M  V30 4247 C 427.343 1.14359 1.49344 0
M  V30 4248 O 426.701 0.140369 1.80756 0
M  V30 4249 C 426.749 3.50997 0.826635 0
M  V30 4250 O 425.853 3.64204 1.93466 0
M  V30 4251 H 425.194 0.659668 0.075727 0
M  V30 4252 H 427.724 2.00694 -0.39786 0
M  V30 4253 H 427.734 3.9219 1.12477 0
M  V30 4254 H 426.409 4.159 -0.00293032 0
M  V30 4255 H 424.986 3.34913 1.63974 0
M  V30 4256 N 427.171 -0.0066808 1.57599 0
M  V30 4257 C 428.103 -1.02827 2.04839 0
M  V30 4258 C 429.116 -1.31108 0.965113 0
M  V30 4259 O 430.305 -1.28202 1.24203 0
M  V30 4260 C 427.405 -2.36464 2.42771 0
M  V30 4261 C 426.578 -2.27219 3.73751 0
M  V30 4262 C 425.637 -3.43489 3.98625 0
M  V30 4263 O 424.663 -3.21976 4.69382 0
M  V30 4264 N 425.865 -4.66116 3.46 0
M  V30 4265 H 428.63 -0.625455 2.93101 0
M  V30 4266 H 426.191 -0.194198 1.60731 0
M  V30 4267 H 428.183 -3.13008 2.56531 0
M  V30 4268 H 426.753 -2.68512 1.60063 0
M  V30 4269 H 425.973 -1.35629 3.70133 0
M  V30 4270 H 427.261 -2.18208 4.59633 0
M  V30 4271 H 426.659 -4.86493 2.88688 0
M  V30 4272 H 425.216 -5.39949 3.65101 0
M  V30 4273 N 428.649 -1.55105 -0.279332 0
M  V30 4274 C 430.06 -1.66186 -0.850832 0
M  V30 4275 C 430.411 -0.584707 -1.87285 0
M  V30 4276 O 429.536 0.274919 -2.14647 0
M  V30 4277 C 430.131 -3.01264 -1.55001 0
M  V30 4278 C 428.69 -3.14394 -2.06963 0
M  V30 4279 C 427.837 -2.61959 -0.909536 0
M  V30 4280 H 430.788 -1.58602 -0.0558235 0
M  V30 4281 H 430.809 -2.93899 -2.41669 0
M  V30 4282 H 430.321 -3.7964 -0.805931 0
M  V30 4283 H 428.422 -2.4078 -2.84352 0
M  V30 4284 H 428.535 -4.20867 -2.28928 0
M  V30 4285 H 426.899 -2.18957 -1.30116 0
M  V30 4286 H 427.682 -3.42833 -0.179062 0
M  V30 4287 N 430.127 0.543554 -1.4793 0
M  V30 4288 C 431.374 1.30008 -1.55255 0
M  V30 4289 C 431.702 1.93245 -0.220612 0
M  V30 4290 O 430.957 1.79141 0.787843 0
M  V30 4291 C 431.256 2.42078 -2.62932 0
M  V30 4292 C 430.922 1.96583 -4.0579 0
M  V30 4293 C 429.584 1.83893 -4.44676 0
M  V30 4294 C 431.936 1.62034 -4.95373 0
M  V30 4295 C 429.264 1.34969 -5.70964 0
M  V30 4296 C 431.616 1.14577 -6.22137 0
M  V30 4297 C 430.28 1.00493 -6.59892 0
M  V30 4298 H 429.55 0.475735 -0.568117 0
M  V30 4299 H 432.197 0.608075 -1.81589 0
M  V30 4300 H 430.502 3.16892 -2.30406 0
M  V30 4301 H 432.199 3.00236 -2.65818 0
M  V30 4302 H 428.789 2.07407 -3.75074 0
M  V30 4303 H 432.973 1.70705 -4.66019 0
M  V30 4304 H 428.229 1.2274 -5.98953 0
M  V30 4305 H 432.403 0.869109 -6.90955 0
M  V30 4306 H 430.03 0.623624 -7.57638 0
M  V30 4307 N 431.605 1.3629 0.791371 0
M  V30 4308 C 432.852 1.30412 1.54916 0
M  V30 4309 C 433.18 -0.117162 1.94147 0
M  V30 4310 O 432.435 -1.08599 1.62803 0
M  V30 4311 C 432.734 2.17068 2.8393 0
M  V30 4312 C 432.4 3.65645 2.63846 0
M  V30 4313 C 431.062 4.0614 2.58077 0
M  V30 4314 C 433.414 4.59855 2.45322 0
M  V30 4315 C 430.742 5.3899 2.31748 0
M  V30 4316 C 433.094 5.9292 2.2052 0
M  V30 4317 C 431.758 6.32542 2.13183 0
M  V30 4318 H 431.028 0.47721 0.566879 0
M  V30 4319 H 433.675 1.68325 0.913172 0
M  V30 4320 H 431.98 1.72085 3.51986 0
M  V30 4321 H 433.677 2.09846 3.4171 0
M  V30 4322 H 430.267 3.33518 2.69191 0
M  V30 4323 H 434.451 4.29443 2.48782 0
M  V30 4324 H 429.707 5.68672 2.24548 0
M  V30 4325 H 433.881 6.65487 2.05182 0
M  V30 4326 H 431.508 7.35412 1.92544 0
M  V30 4327 N 433.083 -1.0153 1.20538 0
M  V30 4328 C 434.36 -1.72327 0.925343 0
M  V30 4329 C 434.74 -2.03383 -0.565547 0
M  V30 4330 O 434.088 -1.69934 -1.52757 0
M  V30 4331 C 434.298 -2.9902 1.79967 0
M  V30 4332 C 435.646 -3.72258 2.04228 0
M  V30 4333 O 436.67 -3.08979 1.77231 0
M  V30 4334 O 435.529 -4.86053 2.4983 0
M  V30 4335 H 432.623 -0.751099 0.346092 0
M  V30 4336 H 435.169 -1.07366 1.31417 0
M  V30 4337 H 433.941 -2.72402 2.80915 0
M  V30 4338 H 433.564 -3.71721 1.41099 0
M  V30 4339 N 434.561 -1.01147 -1.20859 0
M  V30 4340 C 435.838 -0.613136 -1.85742 0
M  V30 4341 C 436.218 0.909004 -1.90526 0
M  V30 4342 O 435.566 1.79862 -1.40932 0
M  V30 4343 C 435.776 -1.255 -3.25654 0
M  V30 4344 C 437.124 -1.3672 -4.01986 0
M  V30 4345 O 438.148 -1.21082 -3.34989 0
M  V30 4346 O 437.007 -1.6194 -5.21956 0
M  V30 4347 H 434.101 -0.210878 -0.799662 0
M  V30 4348 H 436.647 -1.10853 -1.2849 0
M  V30 4349 H 435.419 -2.29532 -3.16908 0
M  V30 4350 H 435.042 -0.746369 -3.90532 0
M  V30 4351 N 436.039 1.36541 -0.78704 0
M  V30 4352 C 436.949 2.3387 -0.184896 0
M  V30 4353 C 437.965 1.60927 0.661697 0
M  V30 4354 O 439.141 1.92927 0.57804 0
M  V30 4355 C 436.206 3.40122 0.672145 0
M  V30 4356 C 435.267 4.28867 -0.19267 0
M  V30 4357 C 434.5 5.30045 0.623561 0
M  V30 4358 O 434.723 5.39232 1.8597 0
M  V30 4359 O 433.657 6.01895 0.0247068 0
M  V30 4360 H 437.483 2.87126 -0.989562 0
M  V30 4361 H 435.068 1.38969 -0.548455 0
M  V30 4362 H 436.95 4.05093 1.16094 0
M  V30 4363 H 435.625 2.89169 1.45474 0
M  V30 4364 H 434.532 3.66945 -0.728166 0
M  V30 4365 H 435.865 4.83165 -0.938722 0
M  V30 4366 N 437.518 0.538854 1.48102 0
M  V30 4367 C 438.766 0.00798599 2.02098 0
M  V30 4368 C 439.087 -1.33922 1.41739 0
M  V30 4369 O 438.357 -1.86932 0.585934 0
M  V30 4370 H 436.937 -3.62179e-05 0.747 0
M  V30 4371 H 439.599 0.7047 1.81714 0
M  V30 4372 H 438.695 -0.0937672 3.11959 0
M  V30 4373 N 438.996 -1.55193 0.274407 0
M  V30 4374 C 439.944 -2.23924 -0.629362 0
M  V30 4375 C 440.938 -1.23602 -1.1584 0
M  V30 4376 O 442.144 -1.41535 -1.11211 0
M  V30 4377 H 438.519 -0.718637 -0.221507 0
M  V30 4378 H 440.49 -2.98388 -0.0268322 0
M  V30 4379 C 439.239 -2.97329 -1.80252 0
M  V30 4380 H 438.562 -3.74313 -1.40462 0
M  V30 4381 H 440.002 -3.48743 -2.41152 0
M  V30 4382 C 438.461 -2.0276 -2.69054 0
M  V30 4383 O 438.991 -1.57836 -3.69392 0
M  V30 4384 N 437.197 -1.69275 -2.36208 0
M  V30 4385 H 436.744 -2.06004 -1.54661 0
M  V30 4386 H 436.702 -1.06271 -2.95895 0
M  V30 4387 N 440.474 -0.00167713 -1.576 0
M  V30 4388 C 441.404 0.988091 -2.11563 0
M  V30 4389 C 442.385 1.35736 -1.02517 0
M  V30 4390 O 443.57 1.44082 -1.30208 0
M  V30 4391 C 440.7 2.27941 -2.62031 0
M  V30 4392 C 439.654 2.0517 -3.75619 0
M  V30 4393 C 438.98 3.4033 -4.12407 0
M  V30 4394 C 440.28 1.41294 -5.02825 0
M  V30 4395 H 441.974 0.538771 -2.94513 0
M  V30 4396 H 439.52 0.257712 -1.41675 0
M  V30 4397 H 441.473 2.97539 -2.9841 0
M  V30 4398 H 440.197 2.74989 -1.76205 0
M  V30 4399 H 438.856 1.37998 -3.39635 0
M  V30 4400 H 438.504 3.85085 -3.23603 0
M  V30 4401 H 438.204 3.25909 -4.88935 0
M  V30 4402 H 439.728 4.1124 -4.51347 0
M  V30 4403 H 441.142 2.00851 -5.36965 0
M  V30 4404 H 439.539 1.37356 -5.84169 0
M  V30 4405 H 440.609 0.382362 -4.8339 0
M  V30 4406 N 441.952 1.55251 0.271103 0
M  V30 4407 C 443.18 1.79974 1.02064 0
M  V30 4408 C 443.595 0.574003 1.79863 0
M  V30 4409 O 442.952 -0.456962 1.76686 0
M  V30 4410 C 443.003 3.02603 1.97772 0
M  V30 4411 O 442.724 4.20443 1.23124 0
M  V30 4412 C 444.225 3.39944 2.84522 0
M  V30 4413 H 441.445 0.599489 0.301419 0
M  V30 4414 H 443.989 2.02268 0.301313 0
M  V30 4415 H 442.144 2.8243 2.65165 0
M  V30 4416 H 442.558 4.89783 1.87651 0
M  V30 4417 H 444.032 4.28915 3.47471 0
M  V30 4418 H 444.509 2.59432 3.54389 0
M  V30 4419 H 445.115 3.62383 2.22618 0
M  V30 4420 N 443.43 -0.535701 1.48216 0
M  V30 4421 C 444.38 -1.63688 1.58714 0
M  V30 4422 C 445.364 -1.54635 0.444615 0
M  V30 4423 O 446.556 -1.62753 0.695742 0
M  V30 4424 C 443.685 -3.02423 1.62466 0
M  V30 4425 C 442.771 -3.16601 2.82178 0
M  V30 4426 N 443.162 -3.00771 4.06658 0
M  V30 4427 C 441.46 -3.47645 2.79391 0
M  V30 4428 C 442.161 -3.18213 4.86945 0
M  V30 4429 N 441.137 -3.45528 4.19656 0
M  V30 4430 H 444.939 -1.5005 2.5271 0
M  V30 4431 H 442.453 -0.741018 1.44508 0
M  V30 4432 H 444.45 -3.81517 1.6808 0
M  V30 4433 H 443.11 -3.17157 0.695826 0
M  V30 4434 H 444.121 -2.77652 4.37184 0
M  V30 4435 H 440.798 -3.68771 1.95739 0
M  V30 4436 H 442.188 -3.1076 5.95716 0
M  V30 4437 N 444.908 -1.36708 -0.784132 0
M  V30 4438 C 446.157 -1.30559 -1.53744 0
M  V30 4439 C 446.47 0.111374 -1.95283 0
M  V30 4440 O 447.676 0.29527 -2.6989 0
M  V30 4441 C 446.132 -2.29098 -2.77565 0
M  V30 4442 C 445.74 -3.76258 -2.43174 0
M  V30 4443 C 447.484 -2.31936 -3.55536 0
M  V30 4444 C 445.391 -4.6656 -3.63422 0
M  V30 4445 H 444.321 -0.48518 -0.577162 0
M  V30 4446 H 446.972 -1.62101 -0.859981 0
M  V30 4447 H 445.354 -1.90557 -3.47137 0
M  V30 4448 H 446.528 -4.23565 -1.81465 0
M  V30 4449 H 444.843 -3.76246 -1.78403 0
M  V30 4450 H 447.44 -2.9661 -4.44889 0
M  V30 4451 H 447.783 -1.3294 -3.94503 0
M  V30 4452 H 448.316 -2.6912 -2.92949 0
M  V30 4453 H 445.055 -5.66638 -3.29547 0
M  V30 4454 H 444.575 -4.23966 -4.24279 0
M  V30 4455 H 446.254 -4.8309 -4.30387 0
M  V30 4456 N 446.386 1.0089 -1.21074 0
M  V30 4457 C 447.634 1.74262 -1.02358 0
M  V30 4458 C 447.955 1.89869 0.444393 0
M  V30 4459 O 447.225 1.44677 1.32081 0
M  V30 4460 H 445.805 0.645615 -0.375754 0
M  V30 4461 H 448.467 1.21596 -1.52317 0
M  V30 4462 H 447.563 2.74328 -1.4883 0
M  V30 4463 N 447.864 1.01787 1.20321 0
M  V30 4464 C 449.11 0.708985 1.90003 0
M  V30 4465 C 449.443 -0.759572 1.78729 0
M  V30 4466 O 448.718 -1.55198 1.17234 0
M  V30 4467 C 449.001 1.1469 3.41348 0
M  V30 4468 C 448.854 2.67586 3.61549 0
M  V30 4469 C 450.173 0.71915 4.34185 0
M  V30 4470 H 447.292 0.259034 0.689978 0
M  V30 4471 H 449.934 1.26584 1.41692 0
M  V30 4472 H 448.084 0.673128 3.82624 0
M  V30 4473 H 449.756 3.22826 3.29517 0
M  V30 4474 H 447.999 3.085 3.04976 0
M  V30 4475 H 448.67 2.93281 4.67643 0
M  V30 4476 H 451.146 1.12647 4.00562 0
M  V30 4477 H 450.022 1.05358 5.38694 0
M  V30 4478 H 450.283 -0.379111 4.40472 0
M  V30 4479 N 449.342 -1.36122 0.79427 0
M  V30 4480 C 450.305 -2.28309 0.201889 0
M  V30 4481 C 451.305 -1.49041 -0.603603 0
M  V30 4482 O 452.495 -1.68964 -0.423888 0
M  V30 4483 C 449.627 -3.3321 -0.719978 0
M  V30 4484 H 450.82 -2.82208 1.01481 0
M  V30 4485 H 448.373 -1.45768 0.564037 0
M  V30 4486 H 449.108 -2.84475 -1.55706 0
M  V30 4487 H 448.893 -3.91835 -0.144266 0
M  V30 4488 H 450.383 -4.02044 -1.12916 0
M  V30 4489 N 450.82 -0.546701 -1.47814 0
M  V30 4490 C 452.068 -0.0187037 -2.02091 0
M  V30 4491 C 452.389 1.33168 -1.42447 0
M  V30 4492 O 451.659 1.86619 -0.595839 0
M  V30 4493 H 450.239 -0.00392531 -0.74699 0
M  V30 4494 H 452.901 -0.714327 -1.81338 0
M  V30 4495 H 451.997 0.0772219 -3.12004 0
M  V30 4496 N 452.299 1.55045 -0.282633 0
M  V30 4497 C 453.546 1.9976 0.33199 0
M  V30 4498 C 453.874 1.17105 1.55295 0
M  V30 4499 O 453.129 0.230599 1.94337 0
M  V30 4500 C 453.428 3.49422 0.750938 0
M  V30 4501 C 453.094 4.4941 -0.366228 0
M  V30 4502 C 451.756 4.76471 -0.672964 0
M  V30 4503 C 454.108 5.09054 -1.11864 0
M  V30 4504 C 451.436 5.60442 -1.73556 0
M  V30 4505 C 453.788 5.9418 -2.17102 0
M  V30 4506 C 452.452 6.19558 -2.48402 0
M  V30 4507 H 451.722 0.730974 0.121484 0
M  V30 4508 H 454.369 1.8732 -0.39791 0
M  V30 4509 H 452.674 3.59377 1.56063 0
M  V30 4510 H 454.371 3.81432 1.23736 0
M  V30 4511 H 450.961 4.2844 -0.117041 0
M  V30 4512 H 455.145 4.88165 -0.894925 0
M  V30 4513 H 450.401 5.78349 -1.983 0
M  V30 4514 H 454.575 6.39427 -2.75873 0
M  V30 4515 H 452.202 6.84417 -3.30874 0
M  V30 4516 N 453.777 0.010035 1.57597 0
M  V30 4517 C 454.687 -0.994226 2.12491 0
M  V30 4518 C 455.703 -1.37013 1.07254 0
M  V30 4519 O 456.879 -1.45542 1.3921 0
M  V30 4520 C 453.944 -2.2642 2.62555 0
M  V30 4521 C 453.005 -1.95049 3.82432 0
M  V30 4522 C 452.238 -3.15991 4.30099 0
M  V30 4523 O 452.461 -4.28015 3.7704 0
M  V30 4524 O 451.395 -2.99403 5.22151 0
M  V30 4525 H 455.221 -0.557549 2.98538 0
M  V30 4526 H 452.806 -0.209413 1.47925 0
M  V30 4527 H 454.688 -3.01009 2.9491 0
M  V30 4528 H 453.363 -2.69306 1.796 0
M  V30 4529 H 452.27 -1.17904 3.55034 0
M  V30 4530 H 453.603 -1.56992 4.66491 0
M  V30 4531 N 455.255 -1.55392 -0.262866 0
M  V30 4532 C 456.483 -1.80513 -1.01108 0
M  V30 4533 C 456.898 -0.583533 -1.79556 0
M  V30 4534 O 456.255 0.447585 -1.76926 0
M  V30 4535 C 456.306 -3.03648 -1.96164 0
M  V30 4536 O 456.027 -4.2109 -1.20893 0
M  V30 4537 C 457.528 -3.41448 -2.82715 0
M  V30 4538 H 454.748 -0.601079 -0.298236 0
M  V30 4539 H 457.292 -2.02425 -0.290582 0
M  V30 4540 H 455.447 -2.83832 -2.63663 0
M  V30 4541 H 455.861 -4.90771 -1.85051 0
M  V30 4542 H 457.335 -4.30751 -3.45192 0
M  V30 4543 H 457.812 -2.61308 -3.53008 0
M  V30 4544 H 458.418 -3.63559 -2.20693 0
M  V30 4545 N 456.733 0.527833 -1.48498 0
M  V30 4546 C 457.663 1.64136 -1.66077 0
M  V30 4547 C 458.644 1.62286 -0.509625 0
M  V30 4548 O 459.829 1.79449 -0.742413 0
M  V30 4549 C 456.959 3.02717 -1.70234 0
M  V30 4550 C 455.913 3.19426 -2.8487 0
M  V30 4551 C 455.239 4.5909 -2.74118 0
M  V30 4552 C 456.539 3.01993 -4.26142 0
M  V30 4553 H 458.233 1.4968 -2.593 0
M  V30 4554 H 455.779 0.718654 -1.24785 0
M  V30 4555 H 457.732 3.80491 -1.8112 0
M  V30 4556 H 456.456 3.18201 -0.735911 0
M  V30 4557 H 455.115 2.4407 -2.73542 0
M  V30 4558 H 454.763 4.71413 -1.7544 0
M  V30 4559 H 454.463 4.71214 -3.51042 0
M  V30 4560 H 455.987 5.3896 -2.86974 0
M  V30 4561 H 457.401 3.69558 -4.38292 0
M  V30 4562 H 455.798 3.2561 -5.04082 0
M  V30 4563 H 456.868 1.98396 -4.42456 0
M  V30 4564 N 458.211 1.37122 0.776871 0
M  V30 4565 C 459.141 1.35164 1.90402 0
M  V30 4566 C 460.122 0.221069 1.68657 0
M  V30 4567 O 461.307 0.420642 1.8959 0
M  V30 4568 C 458.437 1.15274 3.27611 0
M  V30 4569 C 457.391 2.25289 3.63908 0
M  V30 4570 C 456.717 1.90527 4.99603 0
M  V30 4571 C 458.017 3.67446 3.71188 0
M  V30 4572 H 459.711 2.29482 1.92297 0
M  V30 4573 H 457.257 1.10465 0.923773 0
M  V30 4574 H 459.21 1.12536 4.06096 0
M  V30 4575 H 457.934 0.174102 3.26136 0
M  V30 4576 H 456.593 2.27174 2.87728 0
M  V30 4577 H 456.241 0.91206 4.94662 0
M  V30 4578 H 455.941 2.64193 5.24858 0
M  V30 4579 H 457.465 1.89367 5.80493 0
M  V30 4580 H 458.879 3.67719 4.39836 0
M  V30 4581 H 457.276 4.40123 4.07936 0
M  V30 4582 H 458.346 4.01443 2.71977 0
M  V30 4583 N 459.689 -1.00246 1.21608 0
M  V30 4584 C 460.599 -2.12515 0.993709 0
M  V30 4585 C 461.615 -1.73913 -0.0549939 0
M  V30 4586 O 462.791 -2.00943 0.135619 0
M  V30 4587 C 459.856 -3.42083 0.563953 0
M  V30 4588 C 458.917 -3.94843 1.68516 0
M  V30 4589 C 458.15 -5.18226 1.27582 0
M  V30 4590 O 458.373 -5.70201 0.150506 0
M  V30 4591 O 457.307 -5.64497 2.0887 0
M  V30 4592 H 461.133 -2.34152 1.93407 0
M  V30 4593 H 458.718 -1.10891 1.00118 0
M  V30 4594 H 460.6 -4.20073 0.334194 0
M  V30 4595 H 459.275 -3.21828 -0.347665 0
M  V30 4596 H 458.182 -3.18068 1.96935 0
M  V30 4597 H 459.515 -4.19512 2.5743 0
M  V30 4598 N 461.167 -1.02423 -1.1978 0
M  V30 4599 C 462.395 -0.737456 -1.93311 0
M  V30 4600 C 462.81 0.703023 -1.75223 0
M  V30 4601 O 462.167 1.47761 -1.07112 0
M  V30 4602 C 462.218 -1.0733 -3.45199 0
M  V30 4603 O 461.939 -2.4572 -3.62702 0
M  V30 4604 C 463.44 -0.80866 -4.35862 0
M  V30 4605 H 460.66 -0.2702 -0.614193 0
M  V30 4606 H 463.204 -1.36747 -1.52054 0
M  V30 4607 H 461.359 -0.488545 -3.84307 0
M  V30 4608 H 461.773 -2.58081 -4.56612 0
M  V30 4609 H 463.247 -1.09365 -5.41057 0
M  V30 4610 H 463.724 0.257025 -4.38447 0
M  V30 4611 H 464.33 -1.37592 -4.02428 0
M  V30 4612 N 462.645 1.35699 -0.801477 0
M  V30 4613 C 463.891 1.99208 -0.380022 0
M  V30 4614 C 464.224 1.63445 1.04878 0
M  V30 4615 O 463.499 0.895223 1.72673 0
M  V30 4616 C 463.782 3.55755 -0.557708 0
M  V30 4617 C 463.635 4.01332 -2.03107 0
M  V30 4618 C 464.954 4.40096 0.0197968 0
M  V30 4619 H 462.073 0.723667 -0.139552 0
M  V30 4620 H 464.715 1.60928 -1.01006 0
M  V30 4621 H 462.865 3.88494 -0.0213741 0
M  V30 4622 H 464.537 3.79026 -2.62939 0
M  V30 4623 H 462.78 3.52429 -2.52936 0
M  V30 4624 H 463.451 5.10234 -2.1063 0
M  V30 4625 H 465.927 4.13786 -0.438179 0
M  V30 4626 H 464.803 5.48735 -0.134477 0
M  V30 4627 H 465.064 4.2786 1.11303 0
M  V30 4628 N 464.123 0.554532 1.47522 0
M  V30 4629 C 465.055 -0.232106 2.28022 0
M  V30 4630 C 466.068 -0.881865 1.36847 0
M  V30 4631 O 467.257 -0.756168 1.61692 0
M  V30 4632 C 464.357 -1.34604 3.11022 0
M  V30 4633 C 463.53 -0.793582 4.30141 0
M  V30 4634 C 462.589 -1.79168 4.94758 0
M  V30 4635 O 461.615 -1.33886 5.5323 0
M  V30 4636 N 462.817 -3.12495 4.89211 0
M  V30 4637 H 465.582 0.458407 2.96173 0
M  V30 4638 H 463.143 0.390433 1.57122 0
M  V30 4639 H 465.135 -2.01243 3.51118 0
M  V30 4640 H 463.705 -1.93983 2.45131 0
M  V30 4641 H 462.925 0.0495025 3.94169 0
M  V30 4642 H 464.213 -0.403776 5.07195 0
M  V30 4643 H 463.611 -3.51931 4.42901 0
M  V30 4644 H 462.168 -3.74698 5.33333 0
M  V30 4645 N 465.601 -1.54893 0.290851 0
M  V30 4646 C 466.847 -2.0023 -0.321867 0
M  V30 4647 C 467.18 -1.179 -1.54316 0
M  V30 4648 O 466.455 -0.25293 -1.92848 0
M  V30 4649 C 466.738 -3.53456 -0.688515 0
M  V30 4650 C 466.591 -4.46532 0.541209 0
M  V30 4651 C 467.91 -4.13057 -1.51895 0
M  V30 4652 H 465.029 -0.727891 -0.115515 0
M  V30 4653 H 467.671 -1.85722 0.400931 0
M  V30 4654 H 465.821 -3.6595 -1.30433 0
M  V30 4655 H 467.493 -4.4596 1.17973 0
M  V30 4656 H 465.736 -4.17545 1.17636 0
M  V30 4657 H 466.407 -5.51475 0.240675 0
M  V30 4658 H 468.883 -4.03937 -0.99872 0
M  V30 4659 H 467.759 -5.20448 -1.74429 0
M  V30 4660 H 468.02 -3.64284 -2.50498 0
M  V30 4661 N 467.08 -0.0183926 -1.57589 0
M  V30 4662 C 468.01 0.965596 -2.12599 0
M  V30 4663 C 468.991 1.34641 -1.0395 0
M  V30 4664 O 470.176 1.42693 -1.31729 0
M  V30 4665 C 467.306 2.25149 -2.64434 0
M  V30 4666 C 466.26 2.01175 -3.77773 0
M  V30 4667 C 465.586 3.35937 -4.15994 0
M  V30 4668 C 466.886 1.35953 -5.04296 0
M  V30 4669 H 468.58 0.507504 -2.95067 0
M  V30 4670 H 466.126 0.242671 -1.41941 0
M  V30 4671 H 468.079 2.94357 -3.01549 0
M  V30 4672 H 466.803 2.73105 -1.79112 0
M  V30 4673 H 465.462 1.34388 -3.4108 0
M  V30 4674 H 465.11 3.81631 -3.27669 0
M  V30 4675 H 464.81 3.20705 -4.92364 0
M  V30 4676 H 466.334 4.0643 -4.55683 0
M  V30 4677 H 467.748 1.95144 -5.39065 0
M  V30 4678 H 466.145 1.31152 -5.85593 0
M  V30 4679 H 467.215 0.331071 -4.83768 0
M  V30 4680 N 468.558 1.5553 0.254621 0
M  V30 4681 C 469.804 1.77262 0.985193 0
M  V30 4682 C 470.137 0.582286 1.85265 0
M  V30 4683 O 469.412 -0.419666 1.89919 0
M  V30 4684 C 469.695 3.0881 1.85225 0
M  V30 4685 C 469.548 4.38233 1.0135 0
M  V30 4686 C 470.867 3.3653 2.83612 0
M  V30 4687 H 467.986 0.644906 0.356742 0
M  V30 4688 H 470.628 1.88264 0.256236 0
M  V30 4689 H 468.778 2.99562 2.47376 0
M  V30 4690 H 470.45 4.59463 0.411269 0
M  V30 4691 H 468.693 4.32636 0.317574 0
M  V30 4692 H 469.364 5.26644 1.65379 0
M  V30 4693 H 471.84 3.45691 2.31596 0
M  V30 4694 H 470.716 4.29805 3.41407 0
M  V30 4695 H 470.977 2.57064 3.59681 0
M  V30 4696 N 470.036 -0.519951 1.48776 0
M  V30 4697 C 470.983 -1.62352 1.64044 0
M  V30 4698 C 471.953 -1.58945 0.482251 0
M  V30 4699 O 473.138 -1.77219 0.706971 0
M  V30 4700 C 470.278 -3.00579 1.69547 0
M  V30 4701 C 469.391 -3.14145 2.96541 0
M  V30 4702 C 468.526 -4.42991 2.93142 0
M  V30 4703 C 467.565 -4.50122 4.14797 0
M  V30 4704 N 466.702 -5.7037 4.09418 0
M  V30 4705 H 471.542 -1.48643 2.58281 0
M  V30 4706 H 469.079 -0.723516 1.28077 0
M  V30 4707 H 471.037 -3.80671 1.70719 0
M  V30 4708 H 469.667 -3.13036 0.787918 0
M  V30 4709 H 468.719 -2.27239 3.05068 0
M  V30 4710 H 470.031 -3.15275 3.86527 0
M  V30 4711 H 469.185 -5.31385 2.92772 0
M  V30 4712 H 467.924 -4.44398 2.00902 0
M  V30 4713 H 466.929 -3.60133 4.15433 0
M  V30 4714 H 468.154 -4.50445 5.08208 0
M  V30 4715 H 466.1 -5.72655 3.20004 0
M  V30 4716 H 466.017 -5.73036 4.93119 0
M  V30 4717 H 467.285 -6.61023 4.13121 0
M  V30 4718 N 471.514 -1.37532 -0.769588 0
M  V30 4719 C 472.791 -1.23392 -1.51768 0
M  V30 4720 C 473.171 0.17157 -2.10402 0
M  V30 4721 O 472.519 1.17943 -1.95708 0
M  V30 4722 C 472.729 -2.33163 -2.59685 0
M  V30 4723 C 474.077 -2.70809 -3.27028 0
M  V30 4724 O 475.101 -2.32355 -2.69981 0
M  V30 4725 O 473.96 -3.37066 -4.30173 0
M  V30 4726 H 471.054 -0.481617 -0.67229 0
M  V30 4727 H 473.6 -1.49318 -0.806368 0
M  V30 4728 H 472.372 -3.27273 -2.14494 0
M  V30 4729 H 471.995 -2.08713 -3.38415 0
M  V30 4730 N 472.992 0.995999 -1.22138 0
M  V30 4731 C 474.222 1.76809 -1.06874 0
M  V30 4732 C 474.63 1.85265 0.383866 0
M  V30 4733 O 473.973 1.31969 1.27789 0
M  V30 4734 C 474.035 3.2186 -1.60144 0
M  V30 4735 C 473.699 3.36958 -3.0872 0
M  V30 4736 C 474.696 3.2452 -4.0618 0
M  V30 4737 C 472.381 3.62109 -3.48112 0
M  V30 4738 C 474.375 3.37013 -5.41019 0
M  V30 4739 C 472.062 3.74243 -4.831 0
M  V30 4740 C 473.06 3.61702 -5.79362 0
M  V30 4741 O 472.748 3.73436 -7.119 0
M  V30 4742 H 472.48 0.562207 -0.375365 0
M  V30 4743 H 475.034 1.26113 -1.62125 0
M  V30 4744 H 473.264 3.73734 -0.992981 0
M  V30 4745 H 474.953 3.80775 -1.40589 0
M  V30 4746 H 475.719 3.05004 -3.77091 0
M  V30 4747 H 471.598 3.70949 -2.73712 0
M  V30 4748 H 475.142 3.27141 -6.16137 0
M  V30 4749 H 471.039 3.93266 -5.11872 0
M  V30 4750 H 471.807 3.90328 -7.19435 0
M  V30 4751 N 474.47 1.03057 1.19235 0
M  V30 4752 C 475.747 0.642608 1.84743 0
M  V30 4753 C 476.127 -0.878577 1.91948 0
M  V30 4754 O 475.475 -1.77597 1.43776 0
M  V30 4755 C 475.685 1.30665 3.23616 0
M  V30 4756 C 477.033 1.43098 3.9976 0
M  V30 4757 O 478.057 1.26396 3.3302 0
M  V30 4758 O 476.916 1.70223 5.19313 0
M  V30 4759 H 474.01 0.223573 0.796206 0
M  V30 4760 H 476.556 1.12883 1.26711 0
M  V30 4761 H 475.328 2.34544 3.13217 0
M  V30 4762 H 474.951 0.808405 3.89295 0
M  V30 4763 N 475.948 -1.35272 0.808662 0
M  V30 4764 C 477.195 -1.98709 0.390003 0
M  V30 4765 C 477.523 -1.64148 -1.04335 0
M  V30 4766 O 476.778 -0.897797 -1.73891 0
M  V30 4767 C 477.077 -3.53556 0.522798 0
M  V30 4768 C 476.743 -4.0799 1.91977 0
M  V30 4769 C 475.405 -4.22568 2.30195 0
M  V30 4770 C 477.757 -4.37442 2.83361 0
M  V30 4771 C 475.085 -4.63918 3.59162 0
M  V30 4772 C 477.437 -4.80232 4.11776 0
M  V30 4773 C 476.101 -4.93016 4.49991 0
M  V30 4774 H 475.371 -0.727127 0.142712 0
M  V30 4775 H 478.018 -1.6145 1.02985 0
M  V30 4776 H 476.323 -3.91287 -0.200494 0
M  V30 4777 H 478.02 -4.00598 0.179608 0
M  V30 4778 H 474.61 -3.97096 1.61284 0
M  V30 4779 H 478.794 -4.25731 2.55083 0
M  V30 4780 H 474.05 -4.72005 3.88615 0
M  V30 4781 H 478.224 -5.01982 4.82687 0
M  V30 4782 H 475.851 -5.24814 5.49976 0
M  V30 4783 N 477.426 -0.562348 -1.47226 0
M  V30 4784 C 478.651 -0.0432632 -2.07355 0
M  V30 4785 C 479.076 1.24332 -1.41149 0
M  V30 4786 O 478.434 1.74603 -0.488226 0
M  V30 4787 C 478.482 0.130288 -3.60365 0
M  V30 4788 O 477.586 1.19166 -3.94808 0
M  V30 4789 H 476.927 -0.0536334 -0.66183 0
M  V30 4790 H 479.457 -0.779495 -1.89169 0
M  V30 4791 H 479.467 0.342881 -4.06557 0
M  V30 4792 H 478.142 -0.809389 -4.07948 0
M  V30 4793 H 476.719 0.959153 -3.60354 0
M  V30 4794 N 478.904 1.54736 -0.299062 0
M  V30 4795 C 480.153 1.99279 0.311549 0
M  V30 4796 C 480.466 1.19107 1.55154 0
M  V30 4797 O 481.672 1.53908 2.23662 0
M  V30 4798 C 480.128 3.54768 0.605632 0
M  V30 4799 C 479.736 4.43746 -0.615914 0
M  V30 4800 C 481.48 4.07841 1.17754 0
M  V30 4801 C 479.387 5.90663 -0.29509 0
M  V30 4802 H 478.317 0.744359 0.120187 0
M  V30 4803 H 480.968 1.78919 -0.407464 0
M  V30 4804 H 479.35 3.71021 1.38419 0
M  V30 4805 H 480.524 4.39267 -1.39218 0
M  V30 4806 H 478.839 4.01434 -1.10633 0
M  V30 4807 H 481.436 5.15174 1.43179 0
M  V30 4808 H 481.779 3.58324 2.11918 0
M  V30 4809 H 482.312 3.95123 0.460739 0
M  V30 4810 H 479.051 6.44325 -1.20524 0
M  V30 4811 H 478.571 5.98155 0.44394 0
M  V30 4812 H 480.25 6.46916 0.104048 0
M  V30 4813 N 480.382 0.0267497 1.57577 0
M  V30 4814 C 481.607 -0.666227 1.96408 0
M  V30 4815 C 482.032 -1.65004 0.903071 0
M  V30 4816 O 481.39 -1.80787 -0.136263 0
M  V30 4817 C 481.438 -1.35101 3.34335 0
M  V30 4818 O 480.542 -2.46623 3.30531 0
M  V30 4819 H 479.883 -0.175206 0.640468 0
M  V30 4820 H 482.413 0.0878977 2.04411 0
M  V30 4821 H 482.423 -1.70834 3.70513 0
M  V30 4822 H 481.098 -0.629844 4.11103 0
M  V30 4823 H 479.675 -2.13019 3.06068 0
M  V30 4824 N 481.861 -1.55662 -0.24637 0
M  V30 4825 C 483.138 -1.68272 -0.997198 0
M  V30 4826 C 483.518 -0.566785 -2.03349 0
M  V30 4827 O 482.866 0.429688 -2.24424 0
M  V30 4828 C 483.076 -3.08594 -1.63006 0
M  V30 4829 C 484.424 -3.6721 -2.13171 0
M  V30 4830 O 485.448 -3.11397 -1.72946 0
M  V30 4831 O 484.307 -4.65054 -2.87031 0
M  V30 4832 H 481.401 -0.684429 -0.464205 0
M  V30 4833 H 483.947 -1.67993 -0.240114 0
M  V30 4834 H 482.719 -3.81264 -0.880527 0
M  V30 4835 H 482.342 -3.12886 -2.45333 0
M  V30 4836 N 483.339 0.512053 -1.4905 0
M  V30 4837 C 484.302 1.59704 -1.64399 0
M  V30 4838 C 485.302 1.52285 -0.516317 0
M  V30 4839 O 486.492 1.55635 -0.782527 0
M  V30 4840 C 483.624 2.9935 -1.63102 0
M  V30 4841 H 484.817 1.47428 -2.61161 0
M  V30 4842 H 482.37 0.735469 -1.37915 0
M  V30 4843 H 483.105 3.17116 -0.678836 0
M  V30 4844 H 482.89 3.06144 -2.44986 0
M  V30 4845 H 484.38 3.782 -1.77072 0
M  V30 4846 N 484.817 1.37938 0.762283 0
M  V30 4847 C 485.747 1.37176 1.88958 0
M  V30 4848 C 486.728 0.238945 1.68413 0
M  V30 4849 O 487.913 0.440726 1.89133 0
M  V30 4850 C 485.043 1.18742 3.2637 0
M  V30 4851 C 483.997 2.29136 3.61498 0
M  V30 4852 C 483.323 1.95816 4.97554 0
M  V30 4853 C 484.623 3.71363 3.6727 0
M  V30 4854 H 486.317 2.31509 1.89853 0
M  V30 4855 H 483.863 1.11438 0.912005 0
M  V30 4856 H 485.816 1.16837 4.04879 0
M  V30 4857 H 484.54 0.208683 3.25933 0
M  V30 4858 H 483.199 2.30213 2.85303 0
M  V30 4859 H 482.847 0.964475 4.93667 0
M  V30 4860 H 482.547 2.69745 5.22026 0
M  V30 4861 H 484.071 1.95513 5.78452 0
M  V30 4862 H 485.485 3.72364 4.35911 0
M  V30 4863 H 483.882 4.44425 4.03245 0
M  V30 4864 H 484.952 4.04305 2.67704 0
M  V30 4865 N 486.295 -0.989507 1.22664 0
M  V30 4866 C 487.711 -1.25395 0.987331 0
M  V30 4867 C 487.911 -1.9899 -0.317056 0
M  V30 4868 O 486.967 -2.30141 -1.03882 0
M  V30 4869 C 488.28 -2.06242 2.18826 0
M  V30 4870 C 489.828 -2.19413 2.23219 0
M  V30 4871 C 490.303 -3.03648 3.42873 0
M  V30 4872 N 491.794 -3.11234 3.43056 0
M  V30 4873 C 492.529 -3.7671 4.32293 0
M  V30 4874 N 492.025 -4.44085 5.31752 0
M  V30 4875 N 493.818 -3.73505 4.2006 0
M  V30 4876 H 485.969 -0.496212 2.06522 0
M  V30 4877 H 488.232 -0.281784 0.905153 0
M  V30 4878 H 487.938 -1.59531 3.13437 0
M  V30 4879 H 487.812 -3.06996 2.19165 0
M  V30 4880 H 490.199 -2.65336 1.29154 0
M  V30 4881 H 490.28 -1.18078 2.26917 0
M  V30 4882 H 489.924 -2.58424 4.37241 0
M  V30 4883 H 489.854 -4.05132 3.36416 0
M  V30 4884 H 492.345 -2.63287 2.71088 0
M  V30 4885 H 492.658 -4.91797 5.96117 0
M  V30 4886 H 491.003 -4.42822 5.35662 0
M  V30 4887 H 494.194 -3.20033 3.41609 0
M  V30 4888 H 494.367 -4.24253 4.8981 0
M  V30 4889 N 487.773 -1.03688 -1.18687 0
M  V30 4890 C 489.184 -0.766488 -1.70241 0
M  V30 4891 C 489.535 0.713052 -1.82784 0
M  V30 4892 O 488.66 1.55529 -1.50465 0
M  V30 4893 C 489.255 -1.38475 -3.09209 0
M  V30 4894 C 487.814 -1.16276 -3.5799 0
M  V30 4895 C 486.961 -1.4778 -2.34641 0
M  V30 4896 H 489.912 -1.20378 -1.03415 0
M  V30 4897 H 489.933 -0.785939 -3.72295 0
M  V30 4898 H 489.445 -2.46157 -3.00048 0
M  V30 4899 H 487.546 -0.104508 -3.72453 0
M  V30 4900 H 487.659 -1.8571 -4.41643 0
M  V30 4901 H 486.023 -0.897366 -2.38368 0
M  V30 4902 H 486.806 -2.56562 -2.28102 0
M  V30 4903 N 489.251 1.34841 -0.815825 0
M  V30 4904 C 490.181 2.32187 -0.247298 0
M  V30 4905 C 491.162 1.5791 0.632344 0
M  V30 4906 O 492.347 1.8593 0.560698 0
M  V30 4907 C 489.477 3.42122 0.597466 0
M  V30 4908 C 488.431 4.27602 -0.184446 0
M  V30 4909 C 487.757 5.28942 0.782609 0
M  V30 4910 C 489.057 5.03502 -1.38865 0
M  V30 4911 H 490.751 2.79985 -1.06061 0
M  V30 4912 H 488.297 1.34611 -0.511461 0
M  V30 4913 H 490.25 4.09232 1.00533 0
M  V30 4914 H 488.974 2.92956 1.44376 0
M  V30 4915 H 487.633 3.62085 -0.573592 0
M  V30 4916 H 487.281 4.7604 1.62466 0
M  V30 4917 H 486.981 5.87008 0.263695 0
M  V30 4918 H 488.505 5.98922 1.18848 0
M  V30 4919 H 489.919 5.63506 -1.05518 0
M  V30 4920 H 488.316 5.71108 -1.8427 0
M  V30 4921 H 489.386 4.33608 -2.17054 0
M  V30 4922 N 490.729 0.570148 1.46925 0
M  V30 4923 C 491.957 0.0561966 2.06824 0
M  V30 4924 C 492.372 -1.24326 1.42086 0
M  V30 4925 O 491.729 -1.74882 0.521794 0
M  V30 4926 C 491.78 -0.129517 3.61268 0
M  V30 4927 O 491.501 1.1185 4.23581 0
M  V30 4928 C 493.002 -0.679266 4.38065 0
M  V30 4929 H 490.222 0.0517261 0.669003 0
M  V30 4930 H 492.766 0.787243 1.8874 0
M  V30 4931 H 490.921 -0.810739 3.78822 0
M  V30 4932 H 491.335 0.924375 5.1629 0
M  V30 4933 H 492.809 -0.758445 5.46765 0
M  V30 4934 H 493.286 -1.69346 4.05239 0
M  V30 4935 H 493.892 -0.0333237 4.25287 0
M  V30 4936 N 492.207 -1.54576 0.307264 0
M  V30 4937 C 493.432 -2.05139 -0.305379 0
M  V30 4938 C 493.857 -1.18278 -1.46259 0
M  V30 4939 O 493.215 -0.188243 -1.8032 0
M  V30 4940 C 493.263 -3.53066 -0.733283 0
M  V30 4941 O 492.367 -3.69206 -1.83741 0
M  V30 4942 H 491.708 -0.661444 -0.0582105 0
M  V30 4943 H 494.238 -1.99569 0.450931 0
M  V30 4944 H 494.248 -3.95034 -1.02039 0
M  V30 4945 H 492.923 -4.15746 0.113198 0
M  V30 4946 H 491.5 -3.39143 -1.55037 0
M  V30 4947 N 493.685 -0.035106 -1.57561 0
M  V30 4948 C 494.91 0.655802 -1.96759 0
M  V30 4949 C 495.335 1.64523 -0.911809 0
M  V30 4950 O 494.693 1.80857 0.126673 0
M  V30 4951 C 494.741 1.33326 -3.35047 0
M  V30 4952 O 493.845 2.44866 -3.31835 0
M  V30 4953 H 493.186 0.171807 -0.641388 0
M  V30 4954 H 495.716 -0.0987369 -2.04362 0
M  V30 4955 H 495.726 1.68867 -3.71413 0
M  V30 4956 H 494.401 0.608033 -4.11431 0
M  V30 4957 H 492.978 2.11392 -3.07193 0
M  V30 4958 N 495.163 1.55791 0.238111 0
M  V30 4959 C 496.409 1.78297 0.966337 0
M  V30 4960 C 496.742 0.601903 1.84637 0
M  V30 4961 O 496.017 -0.399499 1.90353 0
M  V30 4962 C 496.3 3.10758 1.81939 0
M  V30 4963 C 496.153 4.39283 0.966958 0
M  V30 4964 C 497.472 3.39519 2.80027 0
M  V30 4965 H 494.591 0.648654 0.349882 0
M  V30 4966 H 497.233 1.88525 0.236253 0
M  V30 4967 H 495.383 3.02168 2.44185 0
M  V30 4968 H 497.055 4.59873 0.362514 0
M  V30 4969 H 495.298 4.32948 0.271669 0
M  V30 4970 H 495.969 5.28368 1.59784 0
M  V30 4971 H 498.445 3.48128 2.27917 0
M  V30 4972 H 497.321 4.33402 3.36829 0
M  V30 4973 H 497.582 2.60864 3.56934 0
M  V30 4974 N 496.642 -0.504142 1.49319 0
M  V30 4975 C 497.605 -1.5883 1.65244 0
M  V30 4976 C 498.605 -1.52009 0.524386 0
M  V30 4977 O 499.795 -1.55218 0.79077 0
M  V30 4978 C 496.927 -2.98481 1.64687 0
M  V30 4979 H 498.12 -1.4604 2.61939 0
M  V30 4980 H 495.673 -0.728144 1.38303 0
M  V30 4981 H 496.408 -3.16751 0.695644 0
M  V30 4982 H 496.193 -3.0484 2.46607 0
M  V30 4983 H 497.683 -3.77256 1.79075 0
M  V30 4984 N 498.12 -1.38341 -0.754957 0
M  V30 4985 C 499.368 -1.34208 -1.51105 0
M  V30 4986 C 499.689 0.0677634 -1.94882 0
M  V30 4987 O 498.959 1.01517 -1.67544 0
M  V30 4988 H 497.539 -0.493819 -0.560493 0
M  V30 4989 H 500.201 -1.73005 -0.897507 0
M  V30 4990 H 499.297 -1.99203 -2.4026 0
M  V30 4991 N 499.598 0.982988 -1.23187 0
M  V30 4992 C 500.845 1.72392 -1.06241 0
M  V30 4993 C 501.173 1.9032 0.40108 0
M  V30 4994 O 500.428 1.45084 1.31336 0
M  V30 4995 C 500.727 3.12736 -1.73006 0
M  V30 4996 C 500.393 3.14695 -3.22921 0
M  V30 4997 C 499.055 3.14937 -3.63824 0
M  V30 4998 C 501.407 3.10211 -4.1883 0
M  V30 4999 C 498.735 3.08408 -4.99101 0
M  V30 5000 C 501.087 3.05224 -5.54095 0
M  V30 5001 C 499.751 3.03787 -5.94365 0
M  V30 5002 H 499.021 0.630829 -0.388762 0
M  V30 5003 H 501.668 1.15053 -1.53085 0
M  V30 5004 H 499.973 3.73446 -1.18514 0
M  V30 5005 H 501.67 3.68828 -1.57374 0
M  V30 5006 H 498.26 3.15262 -2.90358 0
M  V30 5007 H 502.444 3.09166 -3.8824 0
M  V30 5008 H 497.7 3.05646 -5.29519 0
M  V30 5009 H 501.874 3.00712 -6.28128 0
M  V30 5010 H 499.501 2.98483 -6.99151 0
M  V30 5011 N 501.076 1.04316 1.18135 0
M  V30 5012 C 502.006 0.657299 2.24058 0
M  V30 5013 C 502.987 -0.340678 1.66654 0
M  V30 5014 O 504.172 -0.220223 1.92947 0
M  V30 5015 C 501.302 0.0220715 3.47293 0
M  V30 5016 C 500.256 0.943857 4.17463 0
M  V30 5017 C 499.582 0.172973 5.3442 0
M  V30 5018 C 500.882 2.26409 4.70677 0
M  V30 5019 H 502.576 1.5428 2.56589 0
M  V30 5020 H 500.122 0.743263 1.23335 0
M  V30 5021 H 502.075 -0.259607 4.206 0
M  V30 5022 H 500.799 -0.898323 3.14003 0
M  V30 5023 H 499.458 1.20996 3.46057 0
M  V30 5024 H 499.106 -0.749907 4.97379 0
M  V30 5025 H 498.806 0.787098 5.82304 0
M  V30 5026 H 500.33 -0.101628 6.10515 0
M  V30 5027 H 501.744 2.04294 5.35665 0
M  V30 5028 H 500.141 2.8314 5.29105 0
M  V30 5029 H 501.211 2.90883 3.87962 0
M  V30 5030 N 502.554 -1.34406 0.822964 0
M  V30 5031 C 503.502 -2.31428 0.233165 0
M  V30 5032 C 504.496 -1.57404 -0.626118 0
M  V30 5033 O 505.702 -1.72402 -0.517453 0
M  V30 5034 H 502.077 -0.749863 0.0566557 0
M  V30 5035 H 504.048 -2.78699 1.06628 0
M  V30 5036 C 502.797 -3.42653 -0.590264 0
M  V30 5037 H 502.12 -3.99753 0.0616129 0
M  V30 5038 H 503.56 -4.12778 -0.969054 0
M  V30 5039 C 502.019 -2.87112 -1.76262 0
M  V30 5040 O 502.549 -2.81995 -2.8608 0
M  V30 5041 N 500.755 -2.43934 -1.57938 0
M  V30 5042 H 500.302 -2.48296 -0.686078 0
M  V30 5043 H 500.26 -2.07123 -2.36532 0
M  V30 5044 N 504.032 -0.577932 -1.46621 0
M  V30 5045 C 504.962 0.145917 -2.33044 0
M  V30 5046 C 505.943 0.888412 -1.45056 0
M  V30 5047 O 507.128 0.864812 -1.73881 0
M  V30 5048 C 504.258 1.16322 -3.27241 0
M  V30 5049 C 503.212 0.535868 -4.24632 0
M  V30 5050 C 502.538 1.65929 -5.08303 0
M  V30 5051 C 503.838 -0.523861 -5.19666 0
M  V30 5052 H 505.532 -0.575636 -2.93814 0
M  V30 5053 H 503.078 -0.278272 -1.41286 0
M  V30 5054 H 505.031 1.67793 -3.86553 0
M  V30 5055 H 503.755 1.91498 -2.64567 0
M  V30 5056 H 502.414 0.0422759 -3.66576 0
M  V30 5057 H 502.062 2.40061 -4.42018 0
M  V30 5058 H 501.762 1.2452 -5.74255 0
M  V30 5059 H 503.286 2.17686 -5.70478 0
M  V30 5060 H 504.7 -0.0944059 -5.73222 0
M  V30 5061 H 503.097 -0.858 -5.93935 0
M  V30 5062 H 504.167 -1.41197 -4.63887 0
M  V30 5063 N 505.51 1.54411 -0.315457 0
M  V30 5064 C 506.738 2.04833 0.291738 0
M  V30 5065 C 507.153 1.19203 1.46411 0
M  V30 5066 O 506.51 0.220867 1.81159 0
M  V30 5067 C 506.561 3.53969 0.73404 0
M  V30 5068 O 506.282 4.36346 -0.391682 0
M  V30 5069 C 507.783 4.2045 1.40489 0
M  V30 5070 H 505.003 0.668195 0.0612947 0
M  V30 5071 H 507.547 1.99276 -0.45929 0
M  V30 5072 H 505.702 3.5984 1.43506 0
M  V30 5073 H 506.116 5.24481 -0.0447088 0
M  V30 5074 H 507.59 5.26278 1.66539 0
M  V30 5075 H 508.067 3.71067 2.3496 0
M  V30 5076 H 508.673 4.18694 0.746662 0
M  V30 5077 N 506.988 0.0434614 1.5754 0
M  V30 5078 C 508.236 -0.630786 1.92004 0
M  V30 5079 C 508.557 -1.71836 0.921807 0
M  V30 5080 O 507.827 -1.9587 -0.034522 0
M  V30 5081 H 506.407 -0.235988 0.708745 0
M  V30 5082 H 509.069 0.0946462 1.9467 0
M  V30 5083 H 508.165 -1.07434 2.93026 0
M  V30 5084 N 508.466 -1.55915 -0.229846 0
M  V30 5085 C 509.413 -1.91734 -1.28478 0
M  V30 5086 C 510.383 -0.773539 -1.46988 0
M  V30 5087 O 511.568 -1.02871 -1.60693 0
M  V30 5088 C 508.708 -2.23224 -2.63182 0
M  V30 5089 C 507.821 -3.50497 -2.52539 0
M  V30 5090 C 506.956 -3.71474 -3.79711 0
M  V30 5091 C 505.995 -4.92289 -3.63755 0
M  V30 5092 N 505.132 -5.09698 -4.82858 0
M  V30 5093 H 509.972 -2.81692 -0.972308 0
M  V30 5094 H 507.509 -1.39429 -0.468815 0
M  V30 5095 H 509.467 -2.3949 -3.41614 0
M  V30 5096 H 508.097 -1.36451 -2.92542 0
M  V30 5097 H 507.149 -3.4247 -1.65585 0
M  V30 5098 H 508.461 -4.39079 -2.36666 0
M  V30 5099 H 507.615 -3.87791 -4.66586 0
M  V30 5100 H 506.354 -2.81157 -3.985 0
M  V30 5101 H 505.359 -4.7593 -2.75264 0
M  V30 5102 H 506.584 -5.84083 -3.46445 0
M  V30 5103 H 504.53 -4.22322 -5.01976 0
M  V30 5104 H 504.447 -5.92399 -4.69681 0
M  V30 5105 H 505.715 -5.30443 -5.71183 0
M  V30 5106 N 509.944 0.496216 -1.49584 0
M  V30 5107 C 511.192 1.24756 -1.58998 0
M  V30 5108 C 511.513 1.92968 -0.280775 0
M  V30 5109 O 510.783 1.82959 0.700198 0
M  V30 5110 H 509.363 0.463471 -0.585836 0
M  V30 5111 H 512.025 0.574678 -1.86235 0
M  V30 5112 H 511.121 2.00895 -2.38847 0
M  V30 5113 N 511.423 1.38739 0.74761 0
M  V30 5114 C 512.333 1.38696 1.89211 0
M  V30 5115 C 513.349 0.283303 1.71678 0
M  V30 5116 O 514.525 0.522713 1.94498 0
M  V30 5117 C 511.59 1.21662 3.24653 0
M  V30 5118 C 510.651 2.41886 3.54669 0
M  V30 5119 C 509.884 2.25655 4.83648 0
M  V30 5120 O 510.107 1.25339 5.56459 0
M  V30 5121 O 509.041 3.14372 5.13277 0
M  V30 5122 H 512.867 2.35143 1.92202 0
M  V30 5123 H 510.452 1.19721 0.893708 0
M  V30 5124 H 512.334 1.14246 4.05618 0
M  V30 5125 H 511.009 0.283024 3.2246 0
M  V30 5126 H 509.916 2.54877 2.73841 0
M  V30 5127 H 511.249 3.33895 3.61628 0
M  V30 5128 N 512.901 -0.976442 1.23707 0
M  V30 5129 C 514.15 -1.71254 1.06559 0
M  V30 5130 C 514.463 -1.91528 -0.397024 0
M  V30 5131 O 515.669 -2.62625 -0.688518 0
M  V30 5132 C 514.125 -3.08207 1.8584 0
M  V30 5133 C 513.733 -2.95806 3.36456 0
M  V30 5134 C 515.477 -3.85749 1.77194 0
M  V30 5135 C 513.384 -4.28015 4.08114 0
M  V30 5136 H 512.314 -0.642171 0.395136 0
M  V30 5137 H 514.965 -1.08877 1.4771 0
M  V30 5138 H 513.347 -3.71363 1.37498 0
M  V30 5139 H 514.521 -2.41716 3.92314 0
M  V30 5140 H 512.836 -2.31736 3.45959 0
M  V30 5141 H 515.433 -4.83633 2.28041 0
M  V30 5142 H 515.776 -4.09752 0.735477 0
M  V30 5143 H 516.309 -3.29303 2.23169 0
M  V30 5144 H 513.048 -4.09208 5.12083 0
M  V30 5145 H 512.568 -4.81955 3.57043 0
M  V30 5146 H 514.247 -4.96681 4.14629 0
M  V30 5147 N 514.379 -1.04941 -1.1758 0
M  V30 5148 C 515.309 -0.669172 -2.23706 0
M  V30 5149 C 516.29 0.331835 -1.66832 0
M  V30 5150 O 517.475 0.209988 -1.93061 0
M  V30 5151 C 514.605 -0.0404889 -3.47276 0
M  V30 5152 C 513.559 -0.965983 -4.16957 0
M  V30 5153 C 512.885 -0.201312 -5.34321 0
M  V30 5154 C 514.185 -2.28902 -4.69469 0
M  V30 5155 H 515.879 -1.55639 -2.55767 0
M  V30 5156 H 513.425 -0.749793 -1.22939 0
M  V30 5157 H 515.378 0.237298 -4.20731 0
M  V30 5158 H 514.102 0.881658 -3.14475 0
M  V30 5159 H 512.761 -1.22829 -3.45411 0
M  V30 5160 H 512.409 0.723519 -4.97769 0
M  V30 5161 H 512.109 -0.817968 -5.81879 0
M  V30 5162 H 513.633 0.0692499 -6.10561 0
M  V30 5163 H 515.047 -2.07132 -5.34574 0
M  V30 5164 H 513.444 -2.85942 -5.27596 0
M  V30 5165 H 514.514 -2.92937 -3.86414 0
M  V30 5166 N 515.857 1.33968 -0.830081 0
M  V30 5167 C 517.268 1.80439 -0.479455 0
M  V30 5168 C 517.619 1.68756 1.00079 0
M  V30 5169 O 516.744 1.23171 1.77927 0
M  V30 5170 C 517.339 3.27611 -0.863505 0
M  V30 5171 C 515.898 3.72133 -0.565145 0
M  V30 5172 C 515.045 2.55549 -1.07657 0
M  V30 5173 H 517.996 1.21614 -1.0196 0
M  V30 5174 H 518.017 3.8012 -0.170083 0
M  V30 5175 H 517.529 3.36082 -1.94089 0
M  V30 5176 H 515.63 3.69196 0.502536 0
M  V30 5177 H 515.743 4.65963 -1.11422 0
M  V30 5178 H 514.107 2.49788 -0.497807 0
M  V30 5179 H 514.89 2.66786 -2.16055 0
M  V30 5180 N 517.335 0.585699 1.46312 0
M  V30 5181 C 518.583 0.072278 2.01971 0
M  V30 5182 C 518.904 -1.29345 1.45928 0
M  V30 5183 O 518.174 -1.84973 0.645109 0
M  V30 5184 H 516.754 0.023729 0.746623 0
M  V30 5185 H 519.416 0.762155 1.7938 0
M  V30 5186 H 518.512 0.00552767 3.121 0
M  V30 5187 N 518.813 -1.54241 0.323641 0
M  V30 5188 C 519.761 -2.25813 -0.557804 0
M  V30 5189 C 520.755 -1.27225 -1.11849 0
M  V30 5190 O 521.961 -1.45001 -1.06652 0
M  V30 5191 H 518.336 -0.72532 -0.198532 0
M  V30 5192 H 520.307 -2.98322 0.0681112 0
M  V30 5193 C 519.056 -3.02913 -1.70701 0
M  V30 5194 H 518.379 -3.78593 -1.28482 0
M  V30 5195 H 519.819 -3.56238 -2.29935 0
M  V30 5196 C 518.278 -2.11217 -2.62467 0
M  V30 5197 O 518.808 -1.69508 -3.64184 0
M  V30 5198 N 517.014 -1.76704 -2.30703 0
M  V30 5199 H 516.561 -2.1082 -1.48029 0
M  V30 5200 H 516.519 -1.15631 -2.92364 0
M  V30 5201 N 520.291 -0.0518155 -1.57515 0
M  V30 5202 C 521.568 0.661727 -1.84067 0
M  V30 5203 C 521.948 1.88999 -0.940351 0
M  V30 5204 O 521.296 2.285 -0.00155404 0
M  V30 5205 C 521.506 1.01841 -3.3381 0
M  V30 5206 C 522.854 1.40043 -4.00841 0
M  V30 5207 O 523.878 1.11073 -3.38439 0
M  V30 5208 O 522.737 1.94111 -5.10865 0
M  V30 5209 H 519.831 0.326702 -0.759733 0
M  V30 5210 H 522.377 -0.0812277 -1.69505 0
M  V30 5211 H 521.149 0.145202 -3.91031 0
M  V30 5212 H 520.772 1.81879 -3.53562 0
M  V30 5213 N 521.769 1.56035 0.221574 0
M  V30 5214 C 522.732 1.91584 1.2581 0
M  V30 5215 C 523.732 0.794425 1.39805 0
M  V30 5216 O 524.922 1.06217 1.38071 0
M  V30 5217 C 522.054 2.16663 2.63192 0
M  V30 5218 H 523.247 2.8429 0.954935 0
M  V30 5219 H 520.8 1.49316 0.461988 0
M  V30 5220 H 521.535 1.26508 2.98607 0
M  V30 5221 H 521.32 2.98358 2.5441 0
M  V30 5222 H 522.81 2.45262 3.37988 0
M  V30 5223 N 523.247 -0.488276 1.49845 0
M  V30 5224 C 524.524 -1.24959 1.50481 0
M  V30 5225 C 524.904 -2.09735 0.239698 0
M  V30 5226 O 524.252 -2.14865 -0.777524 0
M  V30 5227 C 524.462 -2.0954 2.79095 0
M  V30 5228 C 525.81 -2.68305 3.29086 0
M  V30 5229 O 526.834 -2.19797 2.80299 0
M  V30 5230 O 525.693 -3.56643 4.14087 0
M  V30 5231 H 522.787 -0.566133 0.602845 0
M  V30 5232 H 525.333 -0.501504 1.6212 0
M  V30 5233 H 524.105 -1.46958 3.62656 0
M  V30 5234 H 523.728 -2.91517 2.70377 0
M  V30 5235 N 524.725 -1.39134 -0.740242 0
M  V30 5236 C 525.655 -1.40165 -1.86751 0
M  V30 5237 C 526.636 -0.265708 -1.68012 0
M  V30 5238 O 527.821 -0.47076 -1.88408 0
M  V30 5239 C 524.951 -1.2392 -3.2444 0
M  V30 5240 C 523.905 -2.34858 -3.57807 0
M  V30 5241 C 523.231 -2.03707 -4.94376 0
M  V30 5242 C 524.531 -3.77159 -3.61315 0
M  V30 5243 H 526.225 -2.345 -1.86145 0
M  V30 5244 H 523.771 -1.12875 -0.89416 0
M  V30 5245 H 525.724 -1.23263 -4.02969 0
M  V30 5246 H 524.448 -0.26051 -3.25559 0
M  V30 5247 H 523.107 -2.34723 -2.81604 0
M  V30 5248 H 522.755 -1.04289 -4.9207 0
M  V30 5249 H 522.455 -2.78016 -5.17669 0
M  V30 5250 H 523.979 -2.04691 -5.75268 0
M  V30 5251 H 525.393 -3.79252 -4.29931 0
M  V30 5252 H 523.79 -4.50784 -3.96124 0
M  V30 5253 H 524.86 -4.08513 -2.61238 0
M  V30 5254 N 526.204 0.969867 -1.24223 0
M  V30 5255 C 527.134 2.08191 -1.05729 0
M  V30 5256 C 528.115 1.70075 0.0290765 0
M  V30 5257 O 529.3 1.93712 -0.137583 0
M  V30 5258 C 526.43 3.40991 -0.658995 0
M  V30 5259 C 525.384 3.93054 -1.69389 0
M  V30 5260 C 524.71 5.22171 -1.15072 0
M  V30 5261 C 526.01 4.21137 -3.08935 0
M  V30 5262 H 527.704 2.23921 -1.98746 0
M  V30 5263 H 525.25 1.07602 -0.956967 0
M  V30 5264 H 527.203 4.18221 -0.51662 0
M  V30 5265 H 525.927 3.25155 0.30686 0
M  V30 5266 H 524.586 3.17977 -1.82444 0
M  V30 5267 H 524.234 5.02694 -0.175539 0
M  V30 5268 H 523.934 5.57973 -1.84229 0
M  V30 5269 H 525.458 6.02013 -1.02042 0
M  V30 5270 H 526.872 4.8908 -2.99121 0
M  V30 5271 H 525.269 4.68163 -3.75425 0
M  V30 5272 H 526.339 3.27996 -3.57137 0
M  V30 5273 N 527.682 1.05563 1.17022 0
M  V30 5274 C 528.928 0.769074 1.87652 0
M  V30 5275 C 529.261 -0.702326 1.81055 0
M  V30 5276 O 528.536 -1.5139 1.22112 0
M  V30 5277 C 528.819 1.25492 3.37526 0
M  V30 5278 C 528.672 2.78953 3.52853 0
M  V30 5279 C 529.991 0.856919 4.31677 0
M  V30 5280 H 527.11 0.280854 0.681388 0
M  V30 5281 H 529.752 1.31027 1.37593 0
M  V30 5282 H 527.902 0.794516 3.80289 0
M  V30 5283 H 529.574 3.33146 3.19079 0
M  V30 5284 H 527.817 3.18046 2.95007 0
M  V30 5285 H 528.488 3.08011 4.58076 0
M  V30 5286 H 530.964 1.25334 3.96775 0
M  V30 5287 H 529.84 1.22443 5.35069 0
M  V30 5288 H 530.101 -0.238787 4.41455 0
M  V30 5289 N 529.16 -1.33526 0.837174 0
M  V30 5290 C 530.093 -2.27192 0.214233 0
M  V30 5291 C 531.071 -1.49575 -0.637657 0
M  V30 5292 O 532.255 -1.78753 -0.598291 0
M  V30 5293 C 529.382 -3.31401 -0.699367 0
M  V30 5294 C 528.428 -4.26431 0.0768429 0
M  V30 5295 S 529.261 -5.15954 1.4336 0
M  V30 5296 C 530.417 -6.23692 0.525251 0
M  V30 5297 H 530.65 -2.79679 1.00831 0
M  V30 5298 H 528.183 -1.4079 0.633834 0
M  V30 5299 H 530.141 -3.91924 -1.22088 0
M  V30 5300 H 528.802 -2.77732 -1.46709 0
M  V30 5301 H 527.995 -5.00193 -0.618268 0
M  V30 5302 H 527.597 -3.70235 0.529364 0
M  V30 5303 H 529.889 -6.76931 -0.277575 0
M  V30 5304 H 530.832 -6.97283 1.23299 0
M  V30 5305 H 531.24 -5.64398 0.107351 0
M  V30 5306 N 530.638 -0.59345 -1.46 0
M  V30 5307 C 531.866 -0.0890934 -2.06708 0
M  V30 5308 C 532.281 1.2205 -1.44046 0
M  V30 5309 O 531.638 1.74029 -0.549551 0
M  V30 5310 C 531.689 0.0720263 -3.61428 0
M  V30 5311 O 531.41 -1.18574 -4.21748 0
M  V30 5312 C 532.911 0.609487 -4.3909 0
M  V30 5313 H 530.131 -0.0623628 -0.668096 0
M  V30 5314 H 532.675 -0.817171 -1.87464 0
M  V30 5315 H 530.83 0.750369 -3.80063 0
M  V30 5316 H 531.244 -1.0064 -5.14754 0
M  V30 5317 H 532.718 0.671363 -5.47902 0
M  V30 5318 H 533.195 1.62878 -4.07882 0
M  V30 5319 H 533.801 -0.03434 -4.25286 0
M  V30 5320 N 532.116 1.54067 -0.331816 0
M  V30 5321 C 533.527 1.86059 0.15454 0
M  V30 5322 C 533.878 1.25331 1.50952 0
M  V30 5323 O 533.003 0.562441 2.08963 0
M  V30 5324 C 533.598 3.37581 0.287192 0
M  V30 5325 C 532.157 3.69493 0.717773 0
M  V30 5326 C 531.304 2.76863 -0.155569 0
M  V30 5327 H 534.255 1.48797 -0.55182 0
M  V30 5328 H 534.276 3.63744 1.11671 0
M  V30 5329 H 533.788 3.81751 -0.699131 0
M  V30 5330 H 531.889 3.3086 1.71354 0
M  V30 5331 H 532.002 4.76315 0.5158 0
M  V30 5332 H 530.366 2.51995 0.370213 0
M  V30 5333 H 531.149 3.23861 -1.13881 0
M  V30 5334 N 533.594 0.0601682 1.57485 0
M  V30 5335 C 534.504 -0.926121 2.15546 0
M  V30 5336 C 535.52 -1.33532 1.11558 0
M  V30 5337 O 536.696 -1.4104 1.4377 0
M  V30 5338 C 533.761 -2.17952 2.69625 0
M  V30 5339 C 532.822 -1.82783 3.88444 0
M  V30 5340 C 532.055 -3.02148 4.39935 0
M  V30 5341 O 532.278 -4.15803 3.90466 0
M  V30 5342 O 531.212 -2.82639 5.31412 0
M  V30 5343 H 535.038 -0.462289 3.00161 0
M  V30 5344 H 532.623 -0.162246 1.48516 0
M  V30 5345 H 534.505 -2.91474 3.04337 0
M  V30 5346 H 533.18 -2.63456 1.88077 0
M  V30 5347 H 532.087 -1.06549 3.58606 0
M  V30 5348 H 533.42 -1.42072 4.7125 0
M  V30 5349 N 535.072 -1.5615 -0.213296 0
M  V30 5350 C 536.002 -1.96109 -1.26742 0
M  V30 5351 C 536.983 -0.830448 -1.48451 0
M  V30 5352 O 538.168 -1.09339 -1.60495 0
M  V30 5353 C 535.298 -2.28492 -2.61551 0
M  V30 5354 C 534.252 -3.44124 -2.54485 0
M  V30 5355 C 533.578 -3.62134 -3.93399 0
M  V30 5356 C 534.878 -4.78855 -2.08556 0
M  V30 5357 H 536.572 -2.84412 -0.935434 0
M  V30 5358 H 534.118 -1.36836 -0.44854 0
M  V30 5359 H 536.071 -2.55039 -3.3546 0
M  V30 5360 H 534.795 -1.37052 -2.96453 0
M  V30 5361 H 533.454 -3.17639 -1.83033 0
M  V30 5362 H 533.102 -2.68055 -4.25623 0
M  V30 5363 H 532.802 -4.39913 -3.89551 0
M  V30 5364 H 534.326 -3.91038 -4.68958 0
M  V30 5365 H 535.74 -5.04552 -2.72213 0
M  V30 5366 H 534.137 -5.59975 -2.1575 0
M  V30 5367 H 535.207 -4.73657 -1.03811 0
M  V30 5368 N 536.55 0.480323 -1.50102 0
M  V30 5369 C 537.966 0.813295 -1.37323 0
M  V30 5370 C 538.166 1.97027 -0.422206 0
M  V30 5371 O 537.222 2.5212 0.138563 0
M  V30 5372 C 538.535 1.13404 -2.78496 0
M  V30 5373 C 540.083 1.24104 -2.87345 0
M  V30 5374 C 540.558 1.59497 -4.29331 0
M  V30 5375 N 542.049 1.66507 -4.32238 0
M  V30 5376 C 542.784 1.95378 -5.39087 0
M  V30 5377 N 542.28 2.22333 -6.56155 0
M  V30 5378 N 544.073 1.96803 -5.26522 0
M  V30 5379 H 536.224 -0.282291 -2.10516 0
M  V30 5380 H 538.487 -0.063752 -0.945854 0
M  V30 5381 H 538.193 0.357064 -3.49883 0
M  V30 5382 H 538.067 2.07251 -3.15162 0
M  V30 5383 H 540.454 2.00871 -2.16183 0
M  V30 5384 H 540.535 0.282593 -2.54234 0
M  V30 5385 H 540.179 0.832736 -5.01027 0
M  V30 5386 H 540.109 2.56477 -4.59921 0
M  V30 5387 H 542.6 1.47753 -3.47818 0
M  V30 5388 H 542.913 2.43611 -7.33399 0
M  V30 5389 H 541.258 2.19745 -6.59346 0
M  V30 5390 H 544.449 1.75235 -4.34062 0
M  V30 5391 H 544.622 2.18969 -6.09883 0
M  V30 5392 N 538.028 1.39524 0.732853 0
M  V30 5393 C 539.277 1.36175 1.48792 0
M  V30 5394 C 539.59 -0.0388195 1.95561 0
M  V30 5395 O 540.796 -0.194899 2.708 0
M  V30 5396 C 539.252 2.39242 2.68871 0
M  V30 5397 C 538.86 3.85024 2.29042 0
M  V30 5398 C 540.604 2.44972 3.46683 0
M  V30 5399 C 538.511 4.79727 3.45856 0
M  V30 5400 H 537.441 0.506267 0.558757 0
M  V30 5401 H 540.092 1.65181 0.799226 0
M  V30 5402 H 538.474 2.0331 3.39825 0
M  V30 5403 H 539.648 4.30008 1.6562 0
M  V30 5404 H 537.963 3.82609 1.64316 0
M  V30 5405 H 540.56 3.12918 4.33574 0
M  V30 5406 H 540.903 1.4749 3.89297 0
M  V30 5407 H 541.436 2.79808 2.82759 0
M  V30 5408 H 538.175 5.78479 3.08289 0
M  V30 5409 H 537.695 4.39421 4.08251 0
M  V30 5410 H 539.374 4.98731 4.12161 0
M  V30 5411 N 539.506 -0.963266 1.24736 0
M  V30 5412 C 540.416 -2.09246 1.06082 0
M  V30 5413 C 541.432 -1.74 0.000363101 0
M  V30 5414 O 542.608 -2.0041 0.199479 0
M  V30 5415 C 539.673 -3.40115 0.672498 0
M  V30 5416 C 538.734 -3.89282 1.80993 0
M  V30 5417 C 537.967 -5.13905 1.44004 0
M  V30 5418 O 538.19 -5.69434 0.331835 0
M  V30 5419 O 537.124 -5.57566 2.26723 0
M  V30 5420 H 540.95 -2.27881 2.00759 0
M  V30 5421 H 538.535 -1.07649 1.03595 0
M  V30 5422 H 540.417 -4.18797 0.467668 0
M  V30 5423 H 539.092 -3.22771 -0.245102 0
M  V30 5424 H 537.999 -3.11642 2.06955 0
M  V30 5425 H 539.332 -4.1111 2.70646 0
M  V30 5426 N 540.985 -1.06182 -1.16461 0
M  V30 5427 C 541.917 -0.629584 -2.20383 0
M  V30 5428 C 542.93 0.311834 -1.59786 0
M  V30 5429 O 544.119 0.103 -1.78203 0
M  V30 5430 C 541.219 0.0973695 -3.3876 0
M  V30 5431 C 540.392 -0.857252 -4.28917 0
M  V30 5432 C 539.451 -0.169749 -5.25926 0
M  V30 5433 O 538.477 -0.807044 -5.6345 0
M  V30 5434 N 539.679 1.08911 -5.70192 0
M  V30 5435 H 542.444 -1.52352 -2.58087 0
M  V30 5436 H 540.005 -0.944993 -1.31459 0
M  V30 5437 H 541.997 0.567676 -4.00699 0
M  V30 5438 H 540.567 0.893093 -2.99571 0
M  V30 5439 H 539.787 -1.50696 -3.64259 0
M  V30 5440 H 541.075 -1.50489 -4.86035 0
M  V30 5441 H 540.473 1.62703 -5.41797 0
M  V30 5442 H 539.03 1.50331 -6.34227 0
M  V30 5443 N 542.463 1.3308 -0.844243 0
M  V30 5444 C 543.709 1.97898 -0.443206 0
M  V30 5445 C 544.042 1.66699 0.99625 0
M  V30 5446 O 543.317 0.949704 1.69738 0
M  V30 5447 C 543.6 3.53801 -0.670606 0
M  V30 5448 C 543.453 3.94667 -2.15772 0
M  V30 5449 C 544.772 4.39936 -0.120226 0
M  V30 5450 H 541.891 0.718861 -0.162504 0
M  V30 5451 H 544.533 1.57633 -1.06075 0
M  V30 5452 H 542.683 3.88229 -0.14496 0
M  V30 5453 H 544.355 3.70469 -2.74865 0
M  V30 5454 H 542.598 3.44203 -2.6402 0
M  V30 5455 H 543.269 5.03275 -2.26757 0
M  V30 5456 H 545.745 4.12183 -0.5696 0
M  V30 5457 H 544.621 5.4803 -0.308984 0
M  V30 5458 H 544.882 4.31184 0.976347 0
M  V30 5459 N 543.941 0.601185 1.45683 0
M  V30 5460 C 545.171 0.0999093 2.06358 0
M  V30 5461 C 545.579 -1.21831 1.44754 0
M  V30 5462 O 544.922 -1.75157 0.553695 0
M  V30 5463 C 544.984 -0.12085 3.59297 0
M  V30 5464 C 544.648 1.11459 4.432 0
M  V30 5465 C 545.645 2.03118 4.7858 0
M  V30 5466 C 543.33 1.34162 4.84051 0
M  V30 5467 C 545.324 3.15814 5.53661 0
M  V30 5468 C 543.011 2.4716 5.58888 0
M  V30 5469 C 544.009 3.37814 5.93608 0
M  V30 5470 O 543.697 4.48846 6.66928 0
M  V30 5471 H 543.429 0.0630316 0.673055 0
M  V30 5472 H 545.983 0.826982 1.88016 0
M  V30 5473 H 544.213 -0.902744 3.76015 0
M  V30 5474 H 545.902 -0.572925 4.01836 0
M  V30 5475 H 546.668 1.86801 4.47583 0
M  V30 5476 H 542.547 0.645018 4.56465 0
M  V30 5477 H 546.091 3.86596 5.8068 0
M  V30 5478 H 541.988 2.63432 5.89299 0
M  V30 5479 H 542.756 4.47446 6.85371 0
M  V30 5480 N 545.419 -1.53889 0.339982 0
M  V30 5481 C 546.382 -2.23547 -0.50592 0
M  V30 5482 C 547.382 -1.23445 -1.03044 0
M  V30 5483 O 548.572 -1.47909 -0.920253 0
M  V30 5484 C 545.704 -2.95234 -1.7044 0
M  V30 5485 H 546.897 -2.99722 0.103247 0
M  V30 5486 H 544.45 -1.56033 0.0912804 0
M  V30 5487 H 545.185 -2.23236 -2.35236 0
M  V30 5488 H 544.97 -3.68654 -1.33553 0
M  V30 5489 H 546.46 -3.48258 -2.30447 0
M  V30 5490 N 546.897 -0.0685191 -1.57451 0
M  V30 5491 C 548.313 0.288101 -1.56978 0
M  V30 5492 C 548.513 1.70262 -1.07765 0
M  V30 5493 O 547.569 2.4135 -0.742054 0
M  V30 5494 C 548.882 0.100745 -3.00531 0
M  V30 5495 C 550.43 0.170531 -3.12535 0
M  V30 5496 C 550.905 0.0114944 -4.57999 0
M  V30 5497 N 552.396 0.0672065 -4.63151 0
M  V30 5498 C 553.131 -0.0314813 -5.73391 0
M  V30 5499 N 552.627 -0.183503 -6.92557 0
M  V30 5500 N 554.42 0.0253489 -5.62094 0
M  V30 5501 H 546.571 -0.993026 -1.87757 0
M  V30 5502 H 548.834 -0.386981 -0.865419 0
M  V30 5503 H 548.54 -0.875197 -3.40636 0
M  V30 5504 H 548.414 0.854457 -3.67395 0
M  V30 5505 H 550.801 1.13696 -2.72318 0
M  V30 5506 H 550.882 -0.614229 -2.48316 0
M  V30 5507 H 550.526 -0.951684 -4.98904 0
M  V30 5508 H 550.456 0.815617 -5.20245 0
M  V30 5509 H 552.947 0.183246 -3.77455 0
M  V30 5510 H 553.26 -0.251041 -7.72392 0
M  V30 5511 H 551.605 -0.218822 -6.94655 0
M  V30 5512 H 554.796 0.142794 -4.67882 0
M  V30 5513 H 554.969 -0.0550166 -6.47977 0
M  V30 5514 N 548.375 1.56261 0.205012 0
M  V30 5515 C 549.623 1.79684 0.925096 0
M  V30 5516 C 549.944 0.63989 1.84202 0
M  V30 5517 O 549.214 -0.342345 1.92885 0
M  V30 5518 H 547.794 0.662774 0.344587 0
M  V30 5519 H 550.456 1.93734 0.212899 0
M  V30 5520 H 549.552 2.72467 1.52211 0
M  V30 5521 N 549.853 -0.472356 1.50355 0
M  V30 5522 C 550.8 -1.57051 1.69126 0
M  V30 5523 C 551.77 -1.5733 0.532574 0
M  V30 5524 O 552.955 -1.7488 0.762994 0
M  V30 5525 C 550.095 -2.95033 1.79024 0
M  V30 5526 C 549.208 -3.04552 3.06386 0
M  V30 5527 C 548.343 -4.33441 3.07087 0
M  V30 5528 C 547.382 -4.36697 4.28908 0
M  V30 5529 N 546.519 -5.57056 4.27356 0
M  V30 5530 H 551.359 -1.40351 2.62879 0
M  V30 5531 H 548.896 -0.682403 1.30314 0
M  V30 5532 H 550.854 -3.75048 1.82744 0
M  V30 5533 H 549.484 -3.10371 0.887109 0
M  V30 5534 H 548.536 -2.17419 3.12143 0
M  V30 5535 H 549.848 -3.02818 3.96362 0
M  V30 5536 H 549.002 -5.21801 3.09529 0
M  V30 5537 H 547.741 -4.37782 2.14939 0
M  V30 5538 H 546.746 -3.46734 4.2668 0
M  V30 5539 H 547.971 -4.34049 5.22282 0
M  V30 5540 H 545.917 -5.62184 3.3806 0
M  V30 5541 H 545.834 -5.57058 5.111 0
M  V30 5542 H 547.102 -6.47545 4.33942 0
M  V30 5543 N 551.331 -1.39911 -0.725443 0
M  V30 5544 C 552.261 -1.42138 -1.85254 0
M  V30 5545 C 553.242 -0.283513 -1.67721 0
M  V30 5546 O 554.427 -0.490717 -1.87898 0
M  V30 5547 C 551.557 -1.27354 -3.23107 0
M  V30 5548 C 550.511 -2.3864 -3.55296 0
M  V30 5549 C 549.837 -2.08939 -4.92188 0
M  V30 5550 C 551.137 -3.8097 -3.57295 0
M  V30 5551 H 552.831 -2.36461 -1.83648 0
M  V30 5552 H 550.377 -1.13817 -0.882138 0
M  V30 5553 H 552.33 -1.2753 -4.01639 0
M  V30 5554 H 551.054 -0.295025 -3.25265 0
M  V30 5555 H 549.713 -2.37696 -2.79099 0
M  V30 5556 H 549.361 -1.09502 -4.90936 0
M  V30 5557 H 549.061 -2.83491 -5.14691 0
M  V30 5558 H 550.585 -2.10781 -5.73065 0
M  V30 5559 H 551.999 -3.8379 -4.25885 0
M  V30 5560 H 550.396 -4.5496 -3.9132 0
M  V30 5561 H 551.466 -4.11261 -2.5689 0
M  V30 5562 N 552.809 0.956637 -1.25245 0
M  V30 5563 C 553.742 2.05232 -0.99775 0
M  V30 5564 C 554.72 1.62439 0.0723137 0
M  V30 5565 O 555.904 1.88381 -0.066926 0
M  V30 5566 C 553.031 3.34871 -0.507861 0
M  V30 5567 C 552.077 3.96625 -1.56815 0
M  V30 5568 S 552.91 4.32853 -3.15276 0
M  V30 5569 C 554.066 5.65613 -2.68017 0
M  V30 5570 H 554.299 2.26521 -1.9255 0
M  V30 5571 H 551.832 1.09601 -1.08752 0
M  V30 5572 H 553.79 4.09845 -0.231858 0
M  V30 5573 H 552.451 3.11551 0.399356 0
M  V30 5574 H 551.644 4.90087 -1.17604 0
M  V30 5575 H 551.246 3.28124 -1.79473 0
M  V30 5576 H 553.538 6.43635 -2.11518 0
M  V30 5577 H 554.481 6.09693 -3.60112 0
M  V30 5578 H 554.889 5.24751 -2.0808 0
M  V30 5579 N 554.287 1.06798 1.15896 0
M  V30 5580 C 555.533 0.788934 1.86825 0
M  V30 5581 C 555.866 -0.683084 1.8179 0
M  V30 5582 O 555.141 -1.50086 1.23711 0
M  V30 5583 C 555.424 1.29065 3.36176 0
M  V30 5584 C 555.277 2.8268 3.49874 0
M  V30 5585 C 556.596 0.902655 4.30744 0
M  V30 5586 H 553.715 0.288066 0.678371 0
M  V30 5587 H 556.357 1.32479 1.36195 0
M  V30 5588 H 554.507 0.834806 3.79425 0
M  V30 5589 H 556.179 3.36511 3.15528 0
M  V30 5590 H 554.422 3.21157 2.91617 0
M  V30 5591 H 555.093 3.12852 4.54783 0
M  V30 5592 H 557.569 1.29535 3.95424 0
M  V30 5593 H 556.445 1.28111 5.3374 0
M  V30 5594 H 556.706 -0.191951 4.41683 0
M  V30 5595 N 555.766 -1.3263 0.851289 0
M  V30 5596 C 556.713 -2.28952 0.291469 0
M  V30 5597 C 557.683 -1.54897 -0.599676 0
M  V30 5598 O 558.868 -1.83137 -0.535305 0
M  V30 5599 C 556.008 -3.41206 -0.516992 0
M  V30 5600 C 555.121 -4.30148 0.399566 0
M  V30 5601 C 554.256 -5.29527 -0.4212 0
M  V30 5602 C 553.295 -6.10112 0.492969 0
M  V30 5603 N 552.432 -7.01499 -0.290414 0
M  V30 5604 H 557.272 -2.76228 1.11813 0
M  V30 5605 H 554.809 -1.35907 0.562826 0
M  V30 5606 H 556.767 -4.05005 -1.00132 0
M  V30 5607 H 555.397 -2.9509 -1.30851 0
M  V30 5608 H 554.449 -3.66959 1.00227 0
M  V30 5609 H 555.761 -4.8649 1.1013 0
M  V30 5610 H 554.915 -5.98914 -0.968832 0
M  V30 5611 H 553.654 -4.73794 -1.15632 0
M  V30 5612 H 552.659 -5.39632 1.05251 0
M  V30 5613 H 553.884 -6.6793 1.22664 0
M  V30 5614 H 551.83 -6.48199 -1.00868 0
M  V30 5615 H 551.747 -7.55178 0.352354 0
M  V30 5616 H 553.015 -7.75176 -0.819882 0
M  V30 5617 N 557.244 -0.608902 -1.45362 0
M  V30 5618 C 558.521 -0.0365378 -1.95566 0
M  V30 5619 C 558.901 1.43169 -1.55131 0
M  V30 5620 O 558.249 2.1349 -0.814513 0
M  V30 5621 C 558.459 -0.236026 -3.48201 0
M  V30 5622 C 559.807 -0.117518 -4.24437 0
M  V30 5623 O 560.831 -0.166217 -3.55812 0
M  V30 5624 O 559.69 -0.00372127 -5.465 0
M  V30 5625 H 556.784 0.0349874 -0.82626 0
M  V30 5626 H 559.33 -0.679055 -1.55521 0
M  V30 5627 H 558.102 -1.25569 -3.70605 0
M  V30 5628 H 557.725 0.441691 -3.95139 0
M  V30 5629 N 558.722 1.53707 -0.348139 0
M  V30 5630 C 559.97 2.00591 0.246478 0
M  V30 5631 C 560.291 1.23753 1.50699 0
M  V30 5632 O 559.561 0.345964 1.92821 0
M  V30 5633 H 558.141 0.741053 0.0940679 0
M  V30 5634 H 560.803 1.89139 -0.470354 0
M  V30 5635 H 559.899 3.08297 0.485714 0
M  V30 5636 N 560.2 0.0768682 1.57412 0
M  V30 5637 C 561.147 -0.888577 2.13009 0
M  V30 5638 C 562.117 -1.29198 1.0439 0
M  V30 5639 O 563.302 -1.37694 1.3208 0
M  V30 5640 C 560.442 -2.14899 2.70023 0
M  V30 5641 C 559.555 -1.79777 3.92816 0
M  V30 5642 C 558.69 -3.00467 4.38056 0
M  V30 5643 C 557.729 -2.61385 5.53484 0
M  V30 5644 N 556.866 -3.74851 5.93659 0
M  V30 5645 H 561.706 -0.407593 2.95199 0
M  V30 5646 H 559.243 -0.189534 1.45874 0
M  V30 5647 H 561.201 -2.88688 3.0119 0
M  V30 5648 H 559.831 -2.60529 1.9059 0
M  V30 5649 H 558.883 -0.960301 3.68079 0
M  V30 5650 H 560.195 -1.47027 4.76639 0
M  V30 5651 H 559.349 -3.82529 4.7091 0
M  V30 5652 H 558.088 -3.36413 3.53097 0
M  V30 5653 H 557.093 -1.77746 5.20275 0
M  V30 5654 H 558.318 -2.26603 6.40178 0
M  V30 5655 H 556.264 -4.1055 5.11649 0
M  V30 5656 H 556.181 -3.45887 6.72234 0
M  V30 5657 H 557.449 -4.57477 6.31138 0
M  V30 5658 N 561.678 -1.56367 -0.196722 0
M  V30 5659 C 562.641 -1.93561 -1.22746 0
M  V30 5660 C 563.641 -0.816566 -1.38524 0
M  V30 5661 O 564.831 -1.084 -1.36363 0
M  V30 5662 C 561.963 -2.20823 -2.59712 0
M  V30 5663 H 563.156 -2.85774 -0.909586 0
M  V30 5664 H 560.709 -1.50032 -0.438174 0
M  V30 5665 H 561.444 -1.31243 -2.96557 0
M  V30 5666 H 561.229 -3.02368 -2.49632 0
M  V30 5667 H 562.719 -2.50608 -3.34044 0
M  V30 5668 N 563.156 0.464375 -1.50603 0
M  V30 5669 C 564.396 1.22573 -1.6357 0
M  V30 5670 C 564.76 1.89111 -0.331834 0
M  V30 5671 O 565.961 2.66679 -0.336999 0
M  V30 5672 C 564.232 2.23643 -2.7878 0
M  V30 5673 S 565.791 3.08628 -3.1192 0
M  V30 5674 H 562.609 0.416058 -0.576556 0
M  V30 5675 H 565.211 0.521637 -1.88412 0
M  V30 5676 H 563.915 1.73354 -3.7199 0
M  V30 5677 H 563.446 2.98672 -2.56044 0
M  V30 5678 H 565.461 4.24904 -2.56264 0
M  V30 5679 N 564.634 1.40294 0.718013 0
M  V30 5680 C 565.88 1.38645 1.48005 0
M  V30 5681 C 566.213 -0.0121202 1.94196 0
M  V30 5682 O 565.488 -0.980309 1.67989 0
M  V30 5683 C 565.771 2.37379 2.70782 0
M  V30 5684 C 565.624 3.8625 2.30501 0
M  V30 5685 C 566.943 2.33685 3.72933 0
M  V30 5686 H 564.062 0.504928 0.536858 0
M  V30 5687 H 566.704 1.71411 0.819649 0
M  V30 5688 H 564.854 2.09568 3.27129 0
M  V30 5689 H 566.526 4.24879 1.79655 0
M  V30 5690 H 564.769 4.02202 1.6253 0
M  V30 5691 H 565.44 4.50847 3.18498 0
M  V30 5692 H 567.916 2.58314 3.2621 0
M  V30 5693 H 566.792 3.0482 4.56482 0
M  V30 5694 H 567.053 1.34765 4.21059 0
M  V30 5695 N 566.112 -0.949982 1.2575 0
M  V30 5696 C 567.059 -2.04738 1.06541 0
M  V30 5697 C 568.029 -1.66078 -0.0268818 0
M  V30 5698 O 569.214 -1.90348 0.131196 0
M  V30 5699 C 566.354 -3.38027 0.695127 0
M  V30 5700 C 565.467 -3.89776 1.86276 0
M  V30 5701 C 564.602 -5.11411 1.4364 0
M  V30 5702 C 563.641 -5.554 2.57287 0
M  V30 5703 N 562.778 -6.68244 2.15395 0
M  V30 5704 H 567.618 -2.20502 2.00457 0
M  V30 5705 H 565.155 -1.0805 0.998178 0
M  V30 5706 H 567.113 -4.14641 0.461375 0
M  V30 5707 H 565.743 -3.22135 -0.207046 0
M  V30 5708 H 564.795 -3.0964 2.20969 0
M  V30 5709 H 566.107 -4.18368 2.71606 0
M  V30 5710 H 565.261 -5.95457 1.16257 0
M  V30 5711 H 564 -4.84545 0.553879 0
M  V30 5712 H 563.005 -4.69916 2.85409 0
M  V30 5713 H 564.23 -5.84272 3.46125 0
M  V30 5714 H 562.176 -6.43078 1.29565 0
M  V30 5715 H 562.093 -6.96377 2.94272 0
M  V30 5716 H 563.361 -7.55687 1.91201 0
M  V30 5717 N 567.59 -1.07411 -1.15328 0
M  V30 5718 C 568.838 -0.796073 -1.85761 0
M  V30 5719 C 569.159 0.679864 -1.82764 0
M  V30 5720 O 568.429 1.49242 -1.269 0
M  V30 5721 H 567.009 -0.291495 -0.687779 0
M  V30 5722 H 569.671 -1.35799 -1.39802 0
M  V30 5723 H 568.767 -1.13114 -2.90881 0
M  V30 5724 N 569.068 1.32177 -0.85831 0
M  V30 5725 C 570.296 2.01313 -0.477582 0
M  V30 5726 C 570.711 1.6449 0.926736 0
M  V30 5727 O 570.068 0.868096 1.60531 0
M  V30 5728 C 570.119 3.56293 -0.611337 0
M  V30 5729 O 569.84 3.91794 -1.96034 0
M  V30 5730 C 571.341 4.42702 -0.230093 0
M  V30 5731 H 568.561 0.644323 -0.187322 0
M  V30 5732 H 571.105 1.68674 -1.15626 0
M  V30 5733 H 569.26 3.87395 0.0196494 0
M  V30 5734 H 569.674 4.86513 -1.95973 0
M  V30 5735 H 571.148 5.50727 -0.374674 0
M  V30 5736 H 571.625 4.3129 0.829779 0
M  V30 5737 H 572.231 4.16997 -0.836302 0
M  V30 5738 N 570.547 0.616602 1.45037 0
M  V30 5739 C 571.794 0.115331 2.02171 0
M  V30 5740 C 572.122 -1.25748 1.48383 0
M  V30 5741 O 571.377 -1.84511 0.652229 0
M  V30 5742 C 571.676 0.0356829 3.57382 0
M  V30 5743 C 571.342 1.34535 4.30362 0
M  V30 5744 C 570.004 1.70408 4.50016 0
M  V30 5745 C 572.356 2.21049 4.72003 0
M  V30 5746 C 569.684 2.92529 5.0857 0
M  V30 5747 C 572.036 3.42427 5.31908 0
M  V30 5748 C 570.7 3.78541 5.49784 0
M  V30 5749 H 569.97 0.0422024 0.739797 0
M  V30 5750 H 572.617 0.80002 1.73988 0
M  V30 5751 H 570.922 -0.732314 3.84895 0
M  V30 5752 H 572.619 -0.368463 3.99304 0
M  V30 5753 H 569.209 1.05615 4.15383 0
M  V30 5754 H 573.393 1.94632 4.56544 0
M  V30 5755 H 568.649 3.20605 5.20598 0
M  V30 5756 H 572.823 4.09709 5.63127 0
M  V30 5757 H 570.45 4.73255 5.94923 0
M  V30 5758 N 572.025 -1.5352 0.356285 0
M  V30 5759 C 572.935 -2.29151 -0.502712 0
M  V30 5760 C 573.951 -1.34753 -1.1008 0
M  V30 5761 O 575.127 -1.67803 -1.11374 0
M  V30 5762 C 572.192 -3.05911 -1.63154 0
M  V30 5763 C 571.253 -4.15958 -1.06194 0
M  V30 5764 C 570.486 -4.8905 -2.13696 0
M  V30 5765 O 570.709 -4.61919 -3.34645 0
M  V30 5766 O 569.643 -5.75202 -1.77275 0
M  V30 5767 H 573.469 -3.03492 0.112466 0
M  V30 5768 H 571.054 -1.4891 0.120942 0
M  V30 5769 H 572.936 -3.53874 -2.28804 0
M  V30 5770 H 571.611 -2.34415 -2.23229 0
M  V30 5771 H 570.518 -3.7227 -0.369603 0
M  V30 5772 H 571.851 -4.89593 -0.505872 0
M  V30 5773 N 573.503 -0.0852151 -1.57369 0
M  V30 5774 C 574.731 0.58946 -1.98325 0
M  V30 5775 C 575.146 1.62333 -0.96403 0
M  V30 5776 O 574.503 1.82438 0.0476395 0
M  V30 5777 C 574.554 1.24604 -3.39347 0
M  V30 5778 O 574.275 0.253532 -4.37366 0
M  V30 5779 C 575.776 2.00726 -3.95252 0
M  V30 5780 H 572.996 0.158783 -0.651942 0
M  V30 5781 H 575.54 -0.161584 -2.03861 0
M  V30 5782 H 573.695 1.94808 -3.34856 0
M  V30 5783 H 574.109 0.726207 -5.19448 0
M  V30 5784 H 575.583 2.42039 -4.96106 0
M  V30 5785 H 576.06 2.86919 -3.32527 0
M  V30 5786 H 576.666 1.3536 -4.03185 0
M  V30 5787 N 574.981 1.5647 0.188427 0
M  V30 5788 C 575.944 1.9421 1.21718 0
M  V30 5789 C 576.944 0.823901 1.38089 0
M  V30 5790 O 578.134 1.09122 1.35787 0
M  V30 5791 C 575.266 2.22197 2.58537 0
M  V30 5792 H 576.459 2.86252 0.894418 0
M  V30 5793 H 574.012 1.50263 0.430211 0
M  V30 5794 H 574.747 1.32814 2.95856 0
M  V30 5795 H 574.532 3.03688 2.48025 0
M  V30 5796 H 576.022 2.52376 3.3271 0
M  V30 5797 O 576.498 -0.333583 1.58017 0
M  V30 5798 H 577.189 -0.982643 1.66925 0
M  V30 END ATOM
M  V30 BEGIN BOND
M  V30 END BOND
M  V30 END CTAB
M  END
$$$$
