drugbank_target|Q14790 Caspase-8 (DB11752; DB12651)
 OpenBabel12092120323D

  0  0  0     0  0            999 V3000
M  V30 BEGIN CTAB
M  V30 COUNTS 7727 7793 0 0 0
M  V30 BEGIN ATOM
M  V30 1 H -0.908 1.98254 -0.117106 0
M  V30 2 N 0 1.576 0 0
M  V30 3 C 0.933 2.03868 1.02534 0
M  V30 4 C 1.911 0.928543 1.3348 0
M  V30 5 O 3.095 1.19667 1.45644 0
M  V30 6 C 0.222 2.43627 2.35294 0
M  V30 7 C -0.732 3.65373 2.2001 0
M  V30 8 S 0.101 5.13292 1.52614 0
M  V30 9 C 1.257 5.56322 2.86805 0
M  V30 10 H 1.49 2.90518 0.631377 0
M  V30 11 H -0.977 1.52953 0.210867 0
M  V30 12 H 0.981 2.67203 3.11629 0
M  V30 13 H -0.358 1.57376 2.7183 0
M  V30 14 H -1.165 3.90944 3.18086 0
M  V30 15 H -1.563 3.418 1.51819 0
M  V30 16 H 0.729 5.58782 3.83104 0
M  V30 17 H 1.672 6.56266 2.65933 0
M  V30 18 H 2.08 4.83886 2.90714 0
M  V30 19 N 1.4781 -0.272755 1.55222 0
M  V30 20 C 2.7551 -1.02562 1.66555 0
M  V30 21 C 3.1351 -2.04282 0.532189 0
M  V30 22 O 2.4831 -2.23662 -0.467717 0
M  V30 23 C 2.6931 -1.6822 3.05782 0
M  V30 24 C 4.0411 -2.19373 3.63539 0
M  V30 25 O 5.0651 -1.78206 3.08417 0
M  V30 26 O 3.9241 -2.94883 4.60115 0
M  V30 27 H 1.0181 -0.475755 0.676451 0
M  V30 28 H 3.5641 -0.268593 1.67561 0
M  V30 29 H 2.3361 -0.945112 3.79715 0
M  V30 30 H 1.9591 -2.50609 3.08676 0
M  V30 31 N 2.9562 -1.48159 -0.537278 0
M  V30 32 C 4.2032 -1.55804 -1.29349 0
M  V30 33 C 4.5312 -0.228802 -1.9315 0
M  V30 34 O 3.7862 0.780242 -1.79473 0
M  V30 35 C 4.0852 -2.63956 -2.40961 0
M  V30 36 C 3.7512 -4.0662 -1.94861 0
M  V30 37 C 2.4132 -4.45452 -1.82006 0
M  V30 38 C 4.7652 -4.96055 -1.59933 0
M  V30 39 C 2.0932 -5.71531 -1.32547 0
M  V30 40 C 4.4452 -6.22617 -1.11939 0
M  V30 41 C 3.1092 -6.60312 -0.976951 0
M  V30 42 H 2.3792 -0.570129 -0.473322 0
M  V30 43 H 5.0262 -1.81845 -0.600372 0
M  V30 44 H 3.3312 -2.31747 -3.15912 0
M  V30 45 H 5.0282 -2.67089 -2.99107 0
M  V30 46 H 1.6182 -3.75949 -2.05815 0
M  V30 47 H 5.8022 -4.66738 -1.68728 0
M  V30 48 H 1.0582 -5.99468 -1.202 0
M  V30 49 H 5.2322 -6.91318 -0.839811 0
M  V30 50 H 2.8592 -7.57895 -0.591501 0
M  V30 51 N 4.4343 0.785586 -1.36625 0
M  V30 52 C 5.6593 1.57963 -1.34397 0
M  V30 53 C 6.0843 1.87964 0.071526 0
M  V30 54 O 5.4423 1.48182 1.0446 0
M  V30 55 C 5.4903 2.87511 -2.17646 0
M  V30 56 O 4.5943 3.81281 -1.57158 0
M  V30 57 H 3.9353 0.479014 -0.459828 0
M  V30 58 H 6.4653 0.973411 -1.79961 0
M  V30 59 H 6.4753 3.36745 -2.30362 0
M  V30 60 H 5.1503 2.65002 -3.20541 0
M  V30 61 H 3.7273 3.39885 -1.53403 0
M  V30 62 N 5.9124 1.20967 1.01018 0
M  V30 63 C 7.3284 0.965905 1.27053 0
M  V30 64 C 7.5284 -0.350785 1.98423 0
M  V30 65 O 6.5844 -1.07773 2.28344 0
M  V30 66 C 7.8974 2.15294 2.09926 0
M  V30 67 C 9.4454 2.19463 2.23171 0
M  V30 68 C 9.9204 3.3767 3.09424 0
M  V30 69 N 11.4114 3.37724 3.17012 0
M  V30 70 C 12.1464 4.25837 3.83993 0
M  V30 71 N 11.6424 5.24138 4.53047 0
M  V30 72 N 13.4354 4.1366 3.80581 0
M  V30 73 H 5.5864 2.0565 0.531194 0
M  V30 74 H 7.8494 0.90024 0.297106 0
M  V30 75 H 7.5554 3.10684 1.64828 0
M  V30 76 H 7.4294 2.13923 3.10672 0
M  V30 77 H 9.8164 1.24632 2.6749 0
M  V30 78 H 9.8974 2.2488 1.21912 0
M  V30 79 H 9.5414 4.32791 2.65808 0
M  V30 80 H 9.4714 3.29491 4.10784 0
M  V30 81 H 11.9624 2.6658 2.6785 0
M  V30 82 H 12.2754 5.87684 5.01844 0
M  V30 83 H 10.6204 5.28068 4.5185 0
M  V30 84 H 13.8114 3.36127 3.25785 0
M  V30 85 H 13.9844 4.82538 4.32505 0
M  V30 86 N 7.3905 -1.2043 1.01659 0
M  V30 87 C 8.3385 -2.25249 0.580143 0
M  V30 88 C 9.3325 -1.65057 -0.381115 0
M  V30 89 O 10.5385 -1.78241 -0.251039 0
M  V30 90 H 6.9135 -0.732695 0.169299 0
M  V30 91 H 8.8845 -2.59389 1.47512 0
M  V30 92 C 7.6335 -3.47638 -0.065788 0
M  V30 93 H 6.9565 -3.94233 0.664874 0
M  V30 94 H 8.3965 -4.2268 -0.334282 0
M  V30 95 C 6.8555 -3.10447 -1.3086 0
M  V30 96 O 7.3855 -3.21981 -2.4019 0
M  V30 97 N 5.5915 -2.64996 -1.1927 0
M  V30 98 H 5.1385 -2.55811 -0.303064 0
M  V30 99 H 5.0965 -2.40482 -2.02523 0
M  V30 100 N 8.8686 -0.792821 -1.36206 0
M  V30 101 C 9.7986 -0.207853 -2.32573 0
M  V30 102 C 10.7796 0.659055 -1.56813 0
M  V30 103 O 11.9646 0.592176 -1.84951 0
M  V30 104 C 9.0946 0.655449 -3.41059 0
M  V30 105 C 8.0486 -0.111842 -4.27854 0
M  V30 106 C 7.3746 0.872274 -5.27537 0
M  V30 107 C 8.6746 -1.30299 -5.05786 0
M  V30 108 H 10.3686 -1.01294 -2.81744 0
M  V30 109 H 7.9146 -0.48854 -1.3546 0
M  V30 110 H 9.8676 1.07464 -4.07467 0
M  V30 111 H 8.5916 1.49328 -2.90463 0
M  V30 112 H 7.2506 -0.512053 -3.63006 0
M  V30 113 H 6.8986 1.70523 -4.73214 0
M  V30 114 H 6.5986 0.363291 -5.86476 0
M  V30 115 H 8.1226 1.28996 -5.96818 0
M  V30 116 H 9.5366 -0.959379 -5.65216 0
M  V30 117 H 7.9336 -1.7455 -5.74154 0
M  V30 118 H 9.0036 -2.09663 -4.37229 0
M  V30 119 N 10.3467 1.47872 -0.545128 0
M  V30 120 C 11.5767 2.06589 -0.0210534 0
M  V30 121 C 11.9847 1.39997 1.27269 0
M  V30 122 O 11.3277 0.486421 1.77143 0
M  V30 123 C 11.3897 3.58574 0.257933 0
M  V30 124 C 11.0537 4.47132 -0.944573 0
M  V30 125 C 12.0507 4.85986 -1.84699 0
M  V30 126 C 9.7357 4.88821 -1.15584 0
M  V30 127 C 11.7297 5.65314 -2.94446 0
M  V30 128 C 9.4167 5.67916 -2.25642 0
M  V30 129 C 10.4147 6.06073 -3.14905 0
M  V30 130 O 10.1027 6.83578 -4.23057 0
M  V30 131 H 9.8347 0.674971 -0.0372899 0
M  V30 132 H 12.3887 1.91037 -0.754599 0
M  V30 133 H 10.6187 3.72295 1.04564 0
M  V30 134 H 12.3077 3.99356 0.72592 0
M  V30 135 H 13.0737 4.54388 -1.69577 0
M  V30 136 H 8.9527 4.58595 -0.470279 0
M  V30 137 H 12.4967 5.95016 -3.64145 0
M  V30 138 H 8.3937 5.98927 -2.40742 0
M  V30 139 H 9.1617 7.01954 -4.20954 0
M  V30 140 N 11.8248 0.280983 1.55075 0
M  V30 141 C 13.1018 -0.386207 1.91749 0
M  V30 142 C 13.4818 -1.73264 1.20594 0
M  V30 143 O 12.8298 -2.26034 0.334784 0
M  V30 144 C 13.0398 -0.520687 3.45094 0
M  V30 145 C 14.3878 -0.800865 4.16979 0
M  V30 146 O 15.4118 -0.605271 3.5102 0
M  V30 147 O 14.2708 -1.1753 5.33712 0
M  V30 148 H 11.3648 -0.212408 0.799257 0
M  V30 149 H 13.9108 0.327568 1.66509 0
M  V30 150 H 12.6828 0.426633 3.88967 0
M  V30 151 H 12.3058 -1.2837 3.76307 0
M  V30 152 N 13.3029 -1.57598 0.00835791 0
M  V30 153 C 14.5519 -1.90107 -0.673968 0
M  V30 154 C 14.8649 -0.884275 -1.7447 0
M  V30 155 O 16.0709 -1.09987 -2.48224 0
M  V30 156 C 14.5269 -3.37497 -1.24995 0
M  V30 157 C 14.1349 -4.47491 -0.2136 0
M  V30 158 C 15.8789 -3.79104 -1.90999 0
M  V30 159 C 13.7859 -5.85963 -0.80005 0
M  V30 160 H 12.7159 -0.709393 -0.255495 0
M  V30 161 H 15.3669 -1.83365 0.0702693 0
M  V30 162 H 13.7489 -3.39102 -2.04513 0
M  V30 163 H 14.9229 -4.57414 0.557596 0
M  V30 164 H 13.2379 -4.14956 0.346474 0
M  V30 165 H 15.8349 -4.79901 -2.35795 0
M  V30 166 H 16.1779 -3.1306 -2.74407 0
M  V30 167 H 16.7109 -3.79833 -1.18203 0
M  V30 168 H 13.4499 -6.555 -0.00456708 0
M  V30 169 H 12.9699 -5.79687 -1.54021 0
M  V30 170 H 14.6489 -6.33884 -1.29615 0
M  V30 171 N 14.781 0.264519 -1.55364 0
M  V30 172 C 16.029 0.993021 -1.76021 0
M  V30 173 C 16.35 1.86511 -0.569099 0
M  V30 174 O 15.62 1.91438 0.415735 0
M  V30 175 H 14.2 0.369639 -0.649135 0
M  V30 176 H 16.862 0.286707 -1.9278 0
M  V30 177 H 15.958 1.62502 -2.66457 0
M  V30 178 N 16.2591 1.48442 0.529413 0
M  V30 179 C 17.1691 1.6569 1.66084 0
M  V30 180 C 18.1851 0.539432 1.65427 0
M  V30 181 O 19.3611 0.810572 1.84368 0
M  V30 182 C 16.4261 1.69315 3.02545 0
M  V30 183 C 15.4871 2.92694 3.14052 0
M  V30 184 C 14.7201 2.96137 4.44003 0
M  V30 185 O 14.9431 2.07973 5.31134 0
M  V30 186 O 13.8771 3.88312 4.59888 0
M  V30 187 H 17.7031 2.61483 1.54469 0
M  V30 188 H 15.2881 1.3185 0.702567 0
M  V30 189 H 17.1701 1.74217 3.83701 0
M  V30 190 H 15.8451 0.766966 3.14483 0
M  V30 191 H 14.7521 2.93324 2.32189 0
M  V30 192 H 16.0851 3.84699 3.0703 0
M  V30 193 N 17.7372 -0.778329 1.37039 0
M  V30 194 C 18.6692 -1.90034 1.2814 0
M  V30 195 C 19.6822 -1.61585 0.198558 0
M  V30 196 O 20.8712 -1.72625 0.454175 0
M  V30 197 C 17.9712 -3.25108 0.956968 0
M  V30 198 C 17.1442 -3.81253 2.14394 0
M  V30 199 C 16.2032 -4.94789 1.79082 0
M  V30 200 O 15.2292 -5.10721 2.51301 0
M  V30 201 N 16.4312 -5.75878 0.731043 0
M  V30 202 H 19.1962 -1.98186 2.24816 0
M  V30 203 H 16.7572 -0.957129 1.30578 0
M  V30 204 H 18.7492 -3.9857 0.701701 0
M  V30 205 H 17.3192 -3.125 0.0789812 0
M  V30 206 H 16.5392 -2.99647 2.56135 0
M  V30 207 H 17.8272 -4.15495 2.93668 0
M  V30 208 H 17.2252 -5.65547 0.131618 0
M  V30 209 H 15.7822 -6.49596 0.535622 0
M  V30 210 N 19.2153 -1.21501 -1.00376 0
M  V30 211 C 20.1453 -0.999478 -2.11028 0
M  V30 212 C 21.1263 0.0759671 -1.6993 0
M  V30 213 O 22.3113 -0.0841106 -1.94018 0
M  V30 214 C 19.4413 -0.564709 -3.42678 0
M  V30 215 C 18.3953 -1.58486 -3.97576 0
M  V30 216 C 17.7213 -1.00628 -5.25146 0
M  V30 217 C 19.0213 -2.97204 -4.29496 0
M  V30 218 H 20.7153 -1.92495 -2.29317 0
M  V30 219 H 18.2613 -0.92693 -1.102 0
M  V30 220 H 20.2143 -0.401091 -4.19487 0
M  V30 221 H 18.9383 0.396411 -3.24185 0
M  V30 222 H 17.5973 -1.73606 -3.22888 0
M  V30 223 H 17.2453 -0.0368439 -5.02987 0
M  V30 224 H 16.9453 -1.68771 -5.62841 0
M  V30 225 H 18.4693 -0.854015 -6.04598 0
M  V30 226 H 19.8833 -2.8552 -4.97143 0
M  V30 227 H 18.2803 -3.62372 -4.78338 0
M  V30 228 H 19.3503 -3.47956 -3.3772 0
M  V30 229 N 20.6934 1.19889 -1.02296 0
M  V30 230 C 21.9704 1.85148 -0.630832 0
M  V30 231 C 22.3504 1.91385 0.890782 0
M  V30 232 O 21.6984 1.42642 1.78509 0
M  V30 233 C 21.9084 3.24442 -1.28602 0
M  V30 234 C 23.2564 4.00663 -1.4055 0
M  V30 235 O 24.2804 3.33818 -1.24273 0
M  V30 236 O 23.1394 5.20387 -1.66913 0
M  V30 237 H 20.2334 0.797613 -0.218499 0
M  V30 238 H 22.7794 1.27427 -1.12074 0
M  V30 239 H 21.5514 3.14704 -2.32545 0
M  V30 240 H 21.1744 3.89802 -0.7836 0
M  V30 241 N 22.1715 0.800033 1.35784 0
M  V30 242 C 23.3965 0.388511 2.03729 0
M  V30 243 C 23.8215 -0.990481 1.5991 0
M  V30 244 O 23.1795 -1.64013 0.772612 0
M  V30 245 C 23.2275 0.4726 3.5749 0
M  V30 246 O 22.3315 -0.51646 4.09153 0
M  V30 247 H 21.6725 0.163271 0.643614 0
M  V30 248 H 24.2025 1.0841 1.73518 0
M  V30 249 H 24.2125 0.34003 4.06581 0
M  V30 250 H 22.8875 1.47848 3.88734 0
M  V30 251 H 21.4645 -0.344673 3.71304 0
M  V30 252 N 23.6496 -1.47581 0.552962 0
M  V30 253 C 24.5596 -2.33743 -0.200353 0
M  V30 254 C 25.5756 -1.47928 -0.916151 0
M  V30 255 O 26.7516 -1.80865 -0.885993 0
M  V30 256 C 23.8166 -3.24536 -1.21973 0
M  V30 257 C 22.8776 -4.26238 -0.511819 0
M  V30 258 C 22.1106 -5.12693 -1.48263 0
M  V30 259 O 22.3336 -5.01525 -2.71714 0
M  V30 260 O 21.2676 -5.93375 -1.00945 0
M  V30 261 H 25.0936 -2.9945 0.506304 0
M  V30 262 H 22.6786 -1.46071 0.313622 0
M  V30 263 H 24.5606 -3.80631 -1.80827 0
M  V30 264 H 23.2356 -2.61462 -1.90839 0
M  V30 265 H 22.1426 -3.73914 0.117799 0
M  V30 266 H 23.4756 -4.92014 0.135308 0
M  V30 267 N 25.1277 -0.289203 -1.54924 0
M  V30 268 C 26.4047 0.376032 -1.91951 0
M  V30 269 C 26.7847 1.72622 -1.21511 0
M  V30 270 O 26.1327 2.25853 -0.346767 0
M  V30 271 C 26.3427 0.502378 -3.45365 0
M  V30 272 C 27.6907 0.778741 -4.17398 0
M  V30 273 O 28.7147 0.586647 -3.51336 0
M  V30 274 O 27.5737 1.14698 -5.34328 0
M  V30 275 H 24.6677 0.208167 -0.800372 0
M  V30 276 H 27.2137 -0.336394 -1.66332 0
M  V30 277 H 25.9857 -0.447255 -3.88736 0
M  V30 278 H 25.6087 1.26373 -3.76982 0
M  V30 279 N 26.6058 1.57591 -0.0167156 0
M  V30 280 C 27.5358 2.12496 0.967858 0
M  V30 281 C 28.5168 1.03807 1.34752 0
M  V30 282 O 29.7018 1.31577 1.42833 0
M  V30 283 C 26.8318 2.64194 2.25431 0
M  V30 284 C 25.7858 3.77559 2.01576 0
M  V30 285 C 25.1118 4.15636 3.36379 0
M  V30 286 C 26.4118 5.04151 1.36489 0
M  V30 287 H 28.1058 2.95013 0.510643 0
M  V30 288 H 25.6518 1.41915 0.244181 0
M  V30 289 H 27.6048 3.01236 2.94678 0
M  V30 290 H 26.3288 1.78821 2.73296 0
M  V30 291 H 24.9878 3.40937 1.34751 0
M  V30 292 H 24.6358 3.27263 3.81979 0
M  V30 293 H 24.3358 4.92022 3.21229 0
M  V30 294 H 25.8598 4.5525 4.06915 0
M  V30 295 H 27.2738 5.38857 1.95718 0
M  V30 296 H 25.6708 5.85453 1.31776 0
M  V30 297 H 26.7408 4.83733 0.336219 0
M  V30 298 N 28.0839 -0.256276 1.55502 0
M  V30 299 C 29.0469 -1.30047 1.88734 0
M  V30 300 C 30.0469 -1.4154 0.763086 0
M  V30 301 O 31.2369 -1.40403 1.03115 0
M  V30 302 C 28.3689 -2.67953 2.10747 0
M  V30 303 H 29.5619 -1.01802 2.82093 0
M  V30 304 H 27.1149 -0.495134 1.4825 0
M  V30 305 H 27.8499 -3.01351 1.19825 0
M  V30 306 H 27.6349 -2.60993 2.92617 0
M  V30 307 H 29.1249 -3.43368 2.37673 0
M  V30 308 N 29.562 -1.4872 -0.521534 0
M  V30 309 C 30.787 -1.61101 -1.30618 0
M  V30 310 C 31.212 -0.274611 -1.86085 0
M  V30 311 O 30.57 0.754937 -1.64834 0
M  V30 312 C 30.618 -2.66709 -2.4269 0
M  V30 313 O 29.722 -2.24456 -3.45967 0
M  V30 314 H 29.063 -0.539921 -0.386499 0
M  V30 315 H 31.593 -1.94767 -0.626645 0
M  V30 316 H 31.603 -2.88245 -2.88754 0
M  V30 317 H 30.278 -3.63727 -2.01682 0
M  V30 318 H 28.855 -2.13168 -3.05964 0
M  V30 319 N 31.0401 0.771051 -1.3745 0
M  V30 320 C 31.9701 1.89827 -1.3597 0
M  V30 321 C 32.9511 1.68562 -0.228216 0
M  V30 322 O 34.1361 1.8941 -0.428675 0
M  V30 323 C 31.2661 3.2712 -1.16662 0
M  V30 324 C 30.2201 3.6295 -2.2683 0
M  V30 325 C 29.5461 4.98791 -1.92644 0
M  V30 326 C 30.8461 3.69627 -3.69017 0
M  V30 327 H 32.5401 1.91323 -2.30295 0
M  V30 328 H 30.0861 0.919082 -1.10855 0
M  V30 329 H 32.0391 4.05615 -1.14256 0
M  V30 330 H 30.7631 3.26059 -0.187926 0
M  V30 331 H 29.4221 2.86763 -2.28392 0
M  V30 332 H 29.0701 4.94271 -0.933021 0
M  V30 333 H 28.7701 5.23733 -2.66416 0
M  V30 334 H 30.2941 5.79685 -1.91826 0
M  V30 335 H 31.7081 4.38273 -3.69581 0
M  V30 336 H 30.1051 4.06067 -4.41848 0
M  V30 337 H 31.1751 2.70273 -4.02592 0
M  V30 338 N 32.5182 1.22032 0.997298 0
M  V30 339 C 33.4652 0.986467 2.08656 0
M  V30 340 C 34.4352 -0.0902671 1.65855 0
M  V30 341 O 35.6202 0.0584294 1.90711 0
M  V30 342 C 32.7602 0.565569 3.40434 0
M  V30 343 C 31.8732 1.71259 3.96604 0
M  V30 344 C 31.0082 1.24011 5.16522 0
M  V30 345 C 30.0472 2.35896 5.64818 0
M  V30 346 N 29.1842 1.89726 6.7598 0
M  V30 347 H 34.0242 1.91892 2.27994 0
M  V30 348 H 31.5612 0.956199 1.11782 0
M  V30 349 H 33.5192 0.302738 4.161 0
M  V30 350 H 32.1492 -0.329879 3.2111 0
M  V30 351 H 31.2012 2.08986 3.17851 0
M  V30 352 H 32.5132 2.55436 4.28432 0
M  V30 353 H 31.6672 0.934395 5.99461 0
M  V30 354 H 30.4062 0.368487 4.86306 0
M  V30 355 H 29.4112 2.67261 4.8047 0
M  V30 356 H 30.6362 3.23567 5.97061 0
M  V30 357 H 28.5822 1.0492 6.47555 0
M  V30 358 H 28.4992 2.67471 7.07103 0
M  V30 359 H 29.7672 1.62211 7.62435 0
M  V30 360 N 33.9963 -1.19345 1.0293 0
M  V30 361 C 35.2433 -1.89038 0.726008 0
M  V30 362 C 35.5713 -1.79649 -0.745427 0
M  V30 363 O 34.8263 -1.18354 -1.55855 0
M  V30 364 C 35.1253 -3.39292 1.12319 0
M  V30 365 C 34.7913 -3.68885 2.59297 0
M  V30 366 C 33.4533 -3.76671 2.99453 0
M  V30 367 C 35.8053 -3.82178 3.54386 0
M  V30 368 C 33.1333 -3.9522 4.33611 0
M  V30 369 C 35.4853 -4.0224 4.88248 0
M  V30 370 C 34.1493 -4.08259 5.28092 0
M  V30 371 H 33.4193 -0.691739 0.265665 0
M  V30 372 H 36.0663 -1.41328 1.29223 0
M  V30 373 H 34.3713 -3.88903 0.475584 0
M  V30 374 H 36.0683 -3.91536 0.866037 0
M  V30 375 H 32.6583 -3.63433 2.27189 0
M  V30 376 H 36.8423 -3.75505 3.24514 0
M  V30 377 H 32.0983 -3.98119 4.64016 0
M  V30 378 H 36.2723 -4.11468 5.61843 0
M  V30 379 H 33.8993 -4.22384 6.32057 0
M  V30 380 N 35.4744 -0.807222 -1.35358 0
M  V30 381 C 36.4044 -0.232509 -2.3234 0
M  V30 382 C 37.3854 0.642386 -1.57504 0
M  V30 383 O 38.5704 0.572526 -1.85569 0
M  V30 384 C 35.7004 0.619238 -3.41735 0
M  V30 385 C 34.6544 -0.157215 -4.27711 0
M  V30 386 C 33.9804 0.816273 -5.28433 0
M  V30 387 C 35.2804 -1.35656 -5.04376 0
M  V30 388 H 36.9744 -1.04276 -2.80654 0
M  V30 389 H 34.5204 -0.50288 -1.34934 0
M  V30 390 H 36.4734 1.03137 -4.08584 0
M  V30 391 H 35.1974 1.46239 -2.92031 0
M  V30 392 H 33.8564 -0.550525 -3.62443 0
M  V30 393 H 33.5044 1.65494 -4.74996 0
M  V30 394 H 33.2044 0.301067 -5.86828 0
M  V30 395 H 34.7284 1.22659 -5.98153 0
M  V30 396 H 36.1424 -1.01927 -5.64166 0
M  V30 397 H 34.5394 -1.8063 -5.7227 0
M  V30 398 H 35.6094 -2.14288 -4.34981 0
M  V30 399 N 36.9525 1.47285 -0.560781 0
M  V30 400 C 38.1775 2.07359 -0.0410566 0
M  V30 401 C 38.6025 1.41017 1.24483 0
M  V30 402 O 37.9605 0.486368 1.74654 0
M  V30 403 C 38.0085 3.6035 0.134123 0
M  V30 404 O 37.1125 3.94681 1.19587 0
M  V30 405 H 36.4535 0.661887 -0.0529291 0
M  V30 406 H 38.9835 1.89252 -0.777482 0
M  V30 407 H 38.9935 4.0652 0.347207 0
M  V30 408 H 37.6685 4.08034 -0.805047 0
M  V30 409 H 36.2455 3.60251 0.962987 0
M  V30 410 N 38.4306 0.297415 1.54768 0
M  V30 411 C 39.3606 -0.573494 2.26348 0
M  V30 412 C 40.3416 -1.14085 1.26169 0
M  V30 413 O 41.5266 -1.17086 1.54934 0
M  V30 414 C 38.6566 -1.74716 3.00153 0
M  V30 415 C 37.6106 -1.31032 4.07449 0
M  V30 416 C 36.9366 -2.56887 4.68949 0
M  V30 417 C 38.2366 -0.444183 5.20408 0
M  V30 418 H 39.9306 0.0235131 2.99391 0
M  V30 419 H 37.4766 0.0127488 1.43994 0
M  V30 420 H 39.4296 -2.3625 3.48947 0
M  V30 421 H 38.1536 -2.37035 2.24682 0
M  V30 422 H 36.8126 -0.718066 3.59499 0
M  V30 423 H 36.4606 -3.17512 3.90122 0
M  V30 424 H 36.1606 -2.2836 5.41411 0
M  V30 425 H 37.6846 -3.19229 5.20505 0
M  V30 426 H 39.0986 -0.9651 5.65118 0
M  V30 427 H 37.4956 -0.252846 5.99567 0
M  V30 428 H 38.5656 0.531609 4.81977 0
M  V30 429 N 39.9087 -1.5758 0.0250728 0
M  V30 430 C 41.1857 -1.82917 -0.692873 0
M  V30 431 C 41.5657 -0.908137 -1.90568 0
M  V30 432 O 40.9137 0.0372298 -2.2847 0
M  V30 433 C 41.1237 -3.32034 -1.07492 0
M  V30 434 C 42.4717 -3.98406 -1.46826 0
M  V30 435 O 43.4957 -3.36505 -1.16801 0
M  V30 436 O 42.3547 -5.07497 -2.02754 0
M  V30 437 H 39.4487 -0.754079 -0.33955 0
M  V30 438 H 41.9947 -1.69619 0.0524456 0
M  V30 439 H 40.7667 -3.90728 -0.211552 0
M  V30 440 H 40.3897 -3.50424 -1.87854 0
M  V30 441 N 41.3868 0.248026 -1.55636 0
M  V30 442 C 42.6168 0.992367 -1.81206 0
M  V30 443 C 43.0248 1.7949 -0.598324 0
M  V30 444 O 42.3678 1.78292 0.442434 0
M  V30 445 C 42.4298 1.97926 -3.00109 0
M  V30 446 C 42.0938 1.36377 -4.36177 0
M  V30 447 C 43.0908 0.76682 -5.14214 0
M  V30 448 C 40.7758 1.38347 -4.82872 0
M  V30 449 C 42.7698 0.197778 -6.37093 0
M  V30 450 C 40.4568 0.810574 -6.057 0
M  V30 451 C 41.4548 0.218754 -6.8265 0
M  V30 452 O 41.1428 -0.345298 -8.03158 0
M  V30 453 H 40.8748 0.297704 -0.606917 0
M  V30 454 H 43.4288 0.276517 -2.0353 0
M  V30 455 H 41.6588 2.73339 -2.73538 0
M  V30 456 H 43.3478 2.58694 -3.12781 0
M  V30 457 H 44.1138 0.744114 -4.79258 0
M  V30 458 H 39.9928 1.8335 -4.2297 0
M  V30 459 H 43.5368 -0.264788 -6.97097 0
M  V30 460 H 39.4338 0.830604 -6.40134 0
M  V30 461 H 40.2018 -0.237055 -8.18157 0
M  V30 462 N 42.8649 1.48995 0.513639 0
M  V30 463 C 44.1139 1.57093 1.2651 0
M  V30 464 C 44.4269 0.257091 1.93903 0
M  V30 465 O 45.6329 0.216478 2.70636 0
M  V30 466 C 44.0889 2.77118 2.29638 0
M  V30 467 C 43.6969 4.15209 1.68241 0
M  V30 468 C 45.4409 2.94538 3.05692 0
M  V30 469 C 43.3479 5.26474 2.69406 0
M  V30 470 H 42.2779 0.584876 0.475854 0
M  V30 471 H 44.9289 1.7536 0.540487 0
M  V30 472 H 43.3109 2.52319 3.05207 0
M  V30 473 H 44.4849 4.50094 0.987505 0
M  V30 474 H 42.7999 4.03042 1.04623 0
M  V30 475 H 45.3969 3.74832 3.8132 0
M  V30 476 H 45.7399 2.04614 3.62545 0
M  V30 477 H 46.2729 3.19316 2.37238 0
M  V30 478 H 43.0119 6.18417 2.17351 0
M  V30 479 H 42.5319 4.96058 3.37175 0
M  V30 480 H 44.2109 5.55277 3.32078 0
M  V30 481 N 44.343 -0.763751 1.37857 0
M  V30 482 C 45.754 -1.3405 1.29952 0
M  V30 483 C 46.105 -1.96138 -0.0492898 0
M  V30 484 O 45.23 -1.94372 -0.951239 0
M  V30 485 C 45.825 -2.43729 2.35333 0
M  V30 486 C 44.384 -2.97151 2.31037 0
M  V30 487 C 43.531 -1.70438 2.18738 0
M  V30 488 H 46.482 -0.563396 1.48363 0
M  V30 489 H 46.503 -3.23412 2.00462 0
M  V30 490 H 46.015 -1.9851 3.33489 0
M  V30 491 H 44.116 -3.46724 1.3643 0
M  V30 492 H 44.229 -3.52221 3.24772 0
M  V30 493 H 42.593 -1.93673 1.65418 0
M  V30 494 H 43.376 -1.27312 3.18821 0
M  V30 495 N 45.8211 -1.22559 -0.990812 0
M  V30 496 C 46.7531 -0.955325 -2.08342 0
M  V30 497 C 47.7661 0.0668408 -1.62663 0
M  V30 498 O 48.9551 -0.167421 -1.77713 0
M  V30 499 C 46.0551 -0.415566 -3.36342 0
M  V30 500 C 45.2281 -1.49544 -4.11042 0
M  V30 501 C 44.2871 -0.962399 -5.17324 0
M  V30 502 O 43.3131 -1.64907 -5.44788 0
M  V30 503 N 44.5151 0.215134 -5.80101 0
M  V30 504 H 47.2801 -1.89596 -2.32106 0
M  V30 505 H 44.8411 -1.13276 -1.15673 0
M  V30 506 H 46.8331 -0.0442386 -4.04676 0
M  V30 507 H 45.4031 0.430232 -3.09625 0
M  V30 508 H 44.6231 -2.04 -3.37309 0
M  V30 509 H 45.9111 -2.22195 -4.57719 0
M  V30 510 H 45.3091 0.789779 -5.6016 0
M  V30 511 H 43.8661 0.527826 -6.49659 0
M  V30 512 N 47.2992 1.18797 -1.03562 0
M  V30 513 C 48.7152 1.40671 -0.753917 0
M  V30 514 C 48.9152 1.9043 0.658686 0
M  V30 515 O 47.9712 2.08538 1.42366 0
M  V30 516 C 49.2842 2.41192 -1.79574 0
M  V30 517 C 50.8322 2.54928 -1.81606 0
M  V30 518 C 51.3072 3.58709 -2.84766 0
M  V30 519 N 52.7982 3.66212 -2.83625 0
M  V30 520 C 53.5332 4.46225 -3.60098 0
M  V30 521 N 53.0292 5.29888 -4.46308 0
M  V30 522 N 54.8222 4.40939 -3.4861 0
M  V30 523 H 46.9732 0.848221 -1.94728 0
M  V30 524 H 49.2362 0.435081 -0.842264 0
M  V30 525 H 48.9422 2.11669 -2.80872 0
M  V30 526 H 48.8162 3.40467 -1.62365 0
M  V30 527 H 51.2032 2.83771 -0.809817 0
M  V30 528 H 51.2842 1.55784 -2.02891 0
M  V30 529 H 50.9282 3.30607 -3.85566 0
M  V30 530 H 50.8582 4.57519 -2.60737 0
M  V30 531 H 53.3492 3.06466 -2.21105 0
M  V30 532 H 53.6622 5.88078 -5.01382 0
M  V30 533 H 52.0072 5.29326 -4.50377 0
M  V30 534 H 55.1982 3.74624 -2.80668 0
M  V30 535 H 55.3712 5.03056 -4.08459 0
M  V30 536 N 48.7773 0.814389 1.34928 0
M  V30 537 C 49.7243 0.22822 2.29669 0
M  V30 538 C 50.6943 -0.642164 1.53184 0
M  V30 539 O 51.8793 -0.585605 1.81591 0
M  V30 540 C 49.0193 -0.61089 3.3965 0
M  V30 541 C 48.1323 0.280792 4.31086 0
M  V30 542 C 47.2673 -0.567067 5.28165 0
M  V30 543 C 46.3063 0.324531 6.11239 0
M  V30 544 N 45.4433 -0.483756 7.00431 0
M  V30 545 H 50.2833 1.04153 2.79206 0
M  V30 546 H 47.8203 0.525133 1.37407 0
M  V30 547 H 49.7783 -1.11263 4.0209 0
M  V30 548 H 48.4083 -1.38939 2.91369 0
M  V30 549 H 47.4603 0.900688 3.69583 0
M  V30 550 H 48.7723 0.966723 4.89342 0
M  V30 551 H 47.9263 -1.13363 5.96015 0
M  V30 552 H 46.6653 -1.28654 4.70425 0
M  V30 553 H 45.6703 0.903298 5.42329 0
M  V30 554 H 46.8953 1.04198 6.71059 0
M  V30 555 H 44.8413 -1.18706 6.45171 0
M  V30 556 H 44.7583 0.143965 7.55863 0
M  V30 557 H 46.0263 -1.03334 7.7262 0
M  V30 558 N 50.2554 -1.46986 0.568584 0
M  V30 559 C 51.1874 -2.28233 -0.210337 0
M  V30 560 C 52.2004 -1.37682 -0.868767 0
M  V30 561 O 53.3894 -1.62406 -0.740705 0
M  V30 562 C 50.4894 -3.12293 -1.3163 0
M  V30 563 C 49.6624 -4.30878 -0.7525 0
M  V30 564 C 48.7214 -4.96445 -1.74439 0
M  V30 565 O 47.7474 -5.54482 -1.286 0
M  V30 566 N 48.9494 -4.92171 -3.07812 0
M  V30 567 H 51.7144 -2.95723 0.486648 0
M  V30 568 H 49.2754 -1.56742 0.405409 0
M  V30 569 H 51.2674 -3.53022 -1.97883 0
M  V30 570 H 49.8374 -2.46971 -1.91636 0
M  V30 571 H 49.0574 -3.94104 0.0871128 0
M  V30 572 H 50.3454 -5.07558 -0.35536 0
M  V30 573 H 49.7434 -4.46239 -3.47688 0
M  V30 574 H 48.3004 -5.36884 -3.69592 0
M  V30 575 N 51.7335 -0.305618 -1.54608 0
M  V30 576 C 52.6435 0.57778 -2.27374 0
M  V30 577 C 53.6595 1.14451 -1.31061 0
M  V30 578 O 54.8355 1.16831 -1.6405 0
M  V30 579 C 51.9005 1.73123 -3.00382 0
M  V30 580 C 50.9615 1.19812 -4.12242 0
M  V30 581 C 50.1945 2.2966 -4.81759 0
M  V30 582 O 50.4175 3.49651 -4.50666 0
M  V30 583 O 49.3515 1.96091 -5.69062 0
M  V30 584 H 53.1775 -0.012624 -3.03697 0
M  V30 585 H 50.7625 -0.0719184 -1.49227 0
M  V30 586 H 52.6445 2.40315 -3.4616 0
M  V30 587 H 51.3195 2.30815 -2.26949 0
M  V30 588 H 50.2265 0.491798 -3.70853 0
M  V30 589 H 51.5595 0.666566 -4.87666 0
M  V30 590 N 53.2116 1.57565 -0.0334293 0
M  V30 591 C 54.6226 1.79746 0.504798 0
M  V30 592 C 54.9736 0.944091 1.71992 0
M  V30 593 O 54.0986 0.155694 2.15839 0
M  V30 594 C 54.6936 3.25997 0.922567 0
M  V30 595 C 53.2526 3.49159 1.40588 0
M  V30 596 C 52.3996 2.74785 0.372633 0
M  V30 597 H 55.3506 1.56565 -0.259436 0
M  V30 598 H 55.3716 3.35945 1.78666 0
M  V30 599 H 54.8836 3.88081 0.0379825 0
M  V30 600 H 52.9846 2.92332 2.31025 0
M  V30 601 H 53.0976 4.57873 1.41028 0
M  V30 602 H 51.4616 2.40391 0.841672 0
M  V30 603 H 52.2446 3.39587 -0.503559 0
M  V30 604 N 54.6897 -0.239769 1.55765 0
M  V30 605 C 55.9387 -0.964754 1.77131 0
M  V30 606 C 56.2517 -1.86213 0.59868 0
M  V30 607 O 57.4577 -2.6244 0.695522 0
M  V30 608 C 55.9137 -1.76552 3.1362 0
M  V30 609 C 55.5217 -0.915185 4.38553 0
M  V30 610 C 57.2657 -2.48281 3.44321 0
M  V30 611 C 55.1727 -1.71225 5.66071 0
M  V30 612 H 54.1027 -0.363953 0.660344 0
M  V30 613 H 56.7537 -0.219181 1.82186 0
M  V30 614 H 55.1357 -2.55331 3.02691 0
M  V30 615 H 56.3097 -0.169217 4.60489 0
M  V30 616 H 54.6247 -0.310889 4.15238 0
M  V30 617 H 57.2217 -3.08382 4.36812 0
M  V30 618 H 57.5647 -3.20256 2.65973 0
M  V30 619 H 58.0977 -1.76507 3.56497 0
M  V30 620 H 54.8367 -1.03612 6.4726 0
M  V30 621 H 54.3567 -2.43331 5.48224 0
M  V30 622 H 56.0357 -2.27758 6.05587 0
M  V30 623 N 56.1678 -1.49265 -0.50573 0
M  V30 624 C 57.1148 -1.65585 -1.6078 0
M  V30 625 C 58.0848 -0.497396 -1.58478 0
M  V30 626 O 59.2698 -0.72385 -1.76536 0
M  V30 627 C 56.4098 -1.72408 -2.98948 0
M  V30 628 C 55.5228 -2.99525 -3.11301 0
M  V30 629 C 54.6578 -2.97356 -4.40174 0
M  V30 630 C 53.6968 -4.19074 -4.46143 0
M  V30 631 N 52.8338 -4.14841 -5.66437 0
M  V30 632 H 57.6738 -2.59688 -1.46172 0
M  V30 633 H 55.2108 -1.28761 -0.711261 0
M  V30 634 H 57.1688 -1.74344 -3.79025 0
M  V30 635 H 55.7988 -0.817753 -3.1227 0
M  V30 636 H 54.8508 -3.07222 -2.24318 0
M  V30 637 H 56.1628 -3.89518 -3.11572 0
M  V30 638 H 55.3168 -2.97829 -5.28567 0
M  V30 639 H 54.0558 -2.05133 -4.42461 0
M  V30 640 H 53.0608 -4.1885 -3.56153 0
M  V30 641 H 54.2858 -5.12483 -4.45575 0
M  V30 642 H 52.2318 -3.25453 -5.69575 0
M  V30 643 H 52.1488 -4.98564 -5.68304 0
M  V30 644 H 53.4168 -4.1941 -6.57051 0
M  V30 645 N 57.6459 0.756429 -1.3826 0
M  V30 646 C 58.9229 1.50584 -1.24835 0
M  V30 647 C 59.3029 2.10556 0.151485 0
M  V30 648 O 58.6509 1.96825 1.1607 0
M  V30 649 C 58.8609 2.57448 -2.3563 0
M  V30 650 C 60.2089 3.24429 -2.73917 0
M  V30 651 O 61.2329 2.67751 -2.34921 0
M  V30 652 O 60.0919 4.26937 -3.41156 0
M  V30 653 H 57.1859 0.667664 -0.48801 0
M  V30 654 H 59.7319 0.792083 -1.5008 0
M  V30 655 H 58.5039 2.11362 -3.29305 0
M  V30 656 H 58.1269 3.36408 -2.11933 0
M  V30 657 N 59.124 1.23083 0.984299 0
M  V30 658 C 60.087 1.00979 2.05757 0
M  V30 659 C 61.087 -0.0269573 1.60777 0
M  V30 660 O 62.277 0.212403 1.729 0
M  V30 661 C 59.409 0.527072 3.36801 0
M  V30 662 H 60.602 1.9622 2.26799 0
M  V30 663 H 58.155 1.05072 1.15714 0
M  V30 664 H 58.89 -0.429294 3.21446 0
M  V30 665 H 58.675 1.27515 3.70786 0
M  V30 666 H 60.165 0.392942 4.15747 0
M  V30 667 N 60.6021 -1.18246 1.0419 0
M  V30 668 C 61.5321 -2.24127 0.654914 0
M  V30 669 C 62.5131 -1.66617 -0.342451 0
M  V30 670 O 63.6981 -1.92924 -0.222277 0
M  V30 671 C 60.8281 -3.47295 0.0183757 0
M  V30 672 C 59.7821 -4.17563 0.939414 0
M  V30 673 C 59.1081 -5.34438 0.167286 0
M  V30 674 C 60.4081 -4.70917 2.25908 0
M  V30 675 H 62.1021 -2.56753 1.54007 0
M  V30 676 H 59.6481 -1.23414 0.74195 0
M  V30 677 H 61.6011 -4.20572 -0.264082 0
M  V30 678 H 60.3251 -3.13907 -0.901664 0
M  V30 679 H 58.9841 -3.46186 1.20628 0
M  V30 680 H 58.6321 -4.97298 -0.7552 0
M  V30 681 H 58.3321 -5.82388 0.780901 0
M  V30 682 H 59.8561 -6.10504 -0.108125 0
M  V30 683 H 61.2701 -5.35882 2.03724 0
M  V30 684 H 59.6671 -5.29406 2.82577 0
M  V30 685 H 60.7371 -3.88272 2.9047 0
M  V30 686 N 62.0802 -0.821533 -1.34494 0
M  V30 687 C 63.0132 -0.187704 -2.27427 0
M  V30 688 C 63.9912 0.65507 -1.48821 0
M  V30 689 O 65.1752 0.619111 -1.78043 0
M  V30 690 C 62.3022 0.737996 -3.30562 0
M  V30 691 C 61.3482 -0.0270713 -4.26491 0
M  V30 692 S 62.1812 -1.37329 -5.17592 0
M  V30 693 C 63.3372 -0.452427 -6.24263 0
M  V30 694 H 63.5702 -0.975598 -2.80837 0
M  V30 695 H 61.1032 -0.61736 -1.4152 0
M  V30 696 H 63.0612 1.26654 -3.90473 0
M  V30 697 H 61.7222 1.4994 -2.76001 0
M  V30 698 H 60.9152 0.6766 -4.99438 0
M  V30 699 H 60.5172 -0.48612 -3.70827 0
M  V30 700 H 62.8092 0.356557 -6.76561 0
M  V30 701 H 63.7522 -1.15153 -6.98674 0
M  V30 702 H 64.1602 -0.0414755 -5.64485 0
M  V30 703 N 63.5583 1.46682 -0.576371 0
M  V30 704 C 64.4883 2.33028 0.148397 0
M  V30 705 C 65.4693 1.44961 0.889956 0
M  V30 706 O 66.6543 1.73789 0.866662 0
M  V30 707 C 63.7843 3.27117 1.1667 0
M  V30 708 C 62.7383 4.24575 0.540386 0
M  V30 709 C 62.0643 5.08126 1.6647 0
M  V30 710 C 63.3643 5.19722 -0.518331 0
M  V30 711 H 65.0583 2.93875 -0.572509 0
M  V30 712 H 62.6043 1.41315 -0.276768 0
M  V30 713 H 64.5573 3.86374 1.68204 0
M  V30 714 H 63.2813 2.64364 1.9178 0
M  V30 715 H 61.9403 3.66571 0.0461769 0
M  V30 716 H 61.5883 4.41762 2.40531 0
M  V30 717 H 61.2883 5.74122 1.25131 0
M  V30 718 H 62.8123 5.70246 2.18293 0
M  V30 719 H 64.2263 5.73232 -0.0883058 0
M  V30 720 H 62.6233 5.94026 -0.851679 0
M  V30 721 H 63.6933 4.64037 -1.40703 0
M  V30 722 N 65.0364 0.313813 1.54444 0
M  V30 723 C 66.2834 -0.291675 2.00388 0
M  V30 724 C 66.6114 -1.52904 1.2021 0
M  V30 725 O 65.8664 -1.93833 0.269707 0
M  V30 726 C 66.1654 -0.680386 3.50864 0
M  V30 727 C 65.8314 0.456699 4.48581 0
M  V30 728 C 64.4934 0.768824 4.75018 0
M  V30 729 C 66.8454 1.22098 5.06697 0
M  V30 730 C 64.1734 1.84812 5.56831 0
M  V30 731 C 66.5254 2.29029 5.89685 0
M  V30 732 C 65.1894 2.60834 6.14428 0
M  V30 733 H 64.4594 -0.106732 0.733273 0
M  V30 734 H 67.1064 0.43557 1.86481 0
M  V30 735 H 65.4114 -1.48791 3.62448 0
M  V30 736 H 67.1084 -1.16026 3.83847 0
M  V30 737 H 63.6984 0.203337 4.28117 0
M  V30 738 H 67.8824 0.993096 4.86263 0
M  V30 739 H 63.1384 2.09912 5.74236 0
M  V30 740 H 67.3124 2.887 6.33739 0
M  V30 741 H 64.9394 3.44596 6.77612 0
M  V30 742 N 66.5145 -1.57545 0.0417849 0
M  V30 743 C 67.4465 -2.07904 -0.964799 0
M  V30 744 C 68.4595 -1.00497 -1.28079 0
M  V30 745 O 69.6485 -1.28087 -1.24322 0
M  V30 746 C 66.7485 -2.49928 -2.28887 0
M  V30 747 C 65.9215 -3.80562 -2.15619 0
M  V30 748 C 64.9805 -4.08999 -3.31069 0
M  V30 749 O 64.0065 -4.79061 -3.0739 0
M  V30 750 N 65.2085 -3.6017 -4.55256 0
M  V30 751 H 67.9735 -2.94886 -0.535029 0
M  V30 752 H 65.5345 -1.61252 -0.144681 0
M  V30 753 H 67.5265 -2.66034 -3.04972 0
M  V30 754 H 66.0965 -1.68245 -2.63463 0
M  V30 755 H 65.3165 -3.74129 -1.24183 0
M  V30 756 H 66.6045 -4.66126 -2.03971 0
M  V30 757 H 66.0025 -3.03512 -4.77386 0
M  V30 758 H 64.5595 -3.81532 -5.28466 0
M  V30 759 N 67.9926 0.231505 -1.5589 0
M  V30 760 C 69.4086 0.580748 -1.48659 0
M  V30 761 C 69.6086 1.87617 -0.73498 0
M  V30 762 O 68.6646 2.51046 -0.270586 0
M  V30 763 C 69.9776 0.669202 -2.93159 0
M  V30 764 C 71.5256 0.760499 -3.03621 0
M  V30 765 C 72.0006 0.880383 -4.49459 0
M  V30 766 N 73.4916 0.944861 -4.53461 0
M  V30 767 C 74.2266 1.05716 -5.63571 0
M  V30 768 N 73.7226 1.13403 -6.83456 0
M  V30 769 N 75.5156 1.09152 -5.514 0
M  V30 770 H 67.6666 -0.618695 -2.03189 0
M  V30 771 H 69.9296 -0.215728 -0.923128 0
M  V30 772 H 69.6356 -0.212904 -3.51055 0
M  V30 773 H 69.5096 1.5361 -3.44505 0
M  V30 774 H 71.8966 1.63305 -2.45796 0
M  V30 775 H 71.9776 -0.131864 -2.5546 0
M  V30 776 H 71.6216 0.0123284 -5.07899 0
M  V30 777 H 71.5516 1.78802 -4.95316 0
M  V30 778 H 74.0426 0.896176 -3.6712 0
M  V30 779 H 74.3556 1.21921 -7.63122 0
M  V30 780 H 72.7006 1.10333 -6.86186 0
M  V30 781 H 75.8916 1.02805 -4.56671 0
M  V30 782 H 76.0646 1.17558 -6.37247 0
M  V30 783 N 69.4707 1.49531 0.497807 0
M  V30 784 C 70.4007 1.6935 1.60757 0
M  V30 785 C 71.3817 0.542218 1.61227 0
M  V30 786 O 72.5667 0.778417 1.77917 0
M  V30 787 C 69.6967 1.76298 2.99226 0
M  V30 788 C 68.6507 2.91248 3.13622 0
M  V30 789 C 67.9767 2.83312 4.53474 0
M  V30 790 C 69.2767 4.3214 2.93346 0
M  V30 791 H 70.9707 2.62263 1.44425 0
M  V30 792 H 68.5167 1.26208 0.693367 0
M  V30 793 H 70.4697 1.88749 3.76765 0
M  V30 794 H 69.1937 0.799871 3.16654 0
M  V30 795 H 67.8527 2.78404 2.38509 0
M  V30 796 H 67.5007 1.84902 4.67782 0
M  V30 797 H 67.2007 3.60465 4.64046 0
M  V30 798 H 68.7247 2.97775 5.33069 0
M  V30 799 H 70.1387 4.45649 3.60652 0
M  V30 800 H 68.5357 5.1054 3.15387 0
M  V30 801 H 69.6057 4.46363 1.89441 0
M  V30 802 N 70.9488 -0.749086 1.3866 0
M  V30 803 C 71.8808 -1.87273 1.32142 0
M  V30 804 C 72.8938 -1.61127 0.232787 0
M  V30 805 O 74.0828 -1.71623 0.49069 0
M  V30 806 C 71.1828 -3.23005 1.02571 0
M  V30 807 C 70.3558 -3.7662 2.22433 0
M  V30 808 C 69.4148 -4.90879 1.89537 0
M  V30 809 O 68.4408 -5.05276 2.62078 0
M  V30 810 N 69.6428 -5.74198 0.853031 0
M  V30 811 H 72.4078 -1.93373 2.28969 0
M  V30 812 H 69.9688 -0.929216 1.32579 0
M  V30 813 H 71.9608 -3.96992 0.786085 0
M  V30 814 H 70.5308 -3.12262 0.145249 0
M  V30 815 H 69.7508 -2.94147 2.62434 0
M  V30 816 H 71.0388 -4.09173 3.02415 0
M  V30 817 H 70.4368 -5.6514 0.25155 0
M  V30 818 H 68.9938 -6.48313 0.67329 0
M  V30 819 N 72.4269 -1.23603 -0.977757 0
M  V30 820 C 73.3369 -1.03632 -2.1047 0
M  V30 821 C 74.3529 0.0199435 -1.73989 0
M  V30 822 O 75.5289 -0.176076 -2.00629 0
M  V30 823 C 72.5939 -0.63276 -3.40877 0
M  V30 824 C 71.6549 -1.76437 -3.91367 0
M  V30 825 C 70.8879 -1.37997 -5.15551 0
M  V30 826 O 71.1109 -0.265357 -5.69782 0
M  V30 827 O 70.0449 -2.20201 -5.60174 0
M  V30 828 H 73.8709 -1.98086 -2.30208 0
M  V30 829 H 71.4559 -1.02332 -1.08851 0
M  V30 830 H 73.3379 -0.418761 -4.19314 0
M  V30 831 H 72.0129 0.282754 -3.22463 0
M  V30 832 H 70.9199 -2.03304 -3.14036 0
M  V30 833 H 72.2529 -2.6583 -4.14241 0
M  V30 834 N 73.905 1.17692 -1.04816 0
M  V30 835 C 74.852 2.21581 -0.645797 0
M  V30 836 C 75.822 1.62367 0.350159 0
M  V30 837 O 77.007 1.89254 0.242433 0
M  V30 838 C 74.147 3.45092 -0.0227568 0
M  V30 839 C 73.26 4.18613 -1.06709 0
M  V30 840 C 72.395 5.29602 -0.411767 0
M  V30 841 C 71.434 5.94904 -1.44067 0
M  V30 842 N 70.571 6.97414 -0.809781 0
M  V30 843 H 75.411 2.55353 -1.5362 0
M  V30 844 H 72.948 1.25438 -0.768364 0
M  V30 845 H 74.906 4.15679 0.35588 0
M  V30 846 H 73.536 3.11917 0.831122 0
M  V30 847 H 72.588 3.46779 -1.5636 0
M  V30 848 H 73.9 4.63293 -1.84827 0
M  V30 849 H 73.054 6.06696 0.0206623 0
M  V30 850 H 71.793 4.86045 0.401438 0
M  V30 851 H 70.798 5.16544 -1.88316 0
M  V30 852 H 72.023 6.40542 -2.25571 0
M  V30 853 H 69.969 6.55998 -0.0170186 0
M  V30 854 H 69.886 7.40386 -1.52856 0
M  V30 855 H 71.154 7.78463 -0.401999 0
M  V30 856 N 75.3831 0.828654 1.34056 0
M  V30 857 C 76.7991 0.515135 1.51058 0
M  V30 858 C 76.9991 -0.959581 1.77184 0
M  V30 859 O 76.0551 -1.74382 1.82612 0
M  V30 860 C 77.3681 1.37963 2.67183 0
M  V30 861 C 78.9161 1.37735 2.81066 0
M  V30 862 C 79.3911 2.22645 4.00241 0
M  V30 863 N 80.8821 2.203 4.07458 0
M  V30 864 C 81.6171 2.82744 4.98842 0
M  V30 865 N 81.1131 3.54201 5.9541 0
M  V30 866 N 82.9061 2.72268 4.91759 0
M  V30 867 H 75.0571 1.78343 1.15358 0
M  V30 868 H 77.3201 0.760304 0.566252 0
M  V30 869 H 77.0261 2.42714 2.54525 0
M  V30 870 H 76.9001 1.0484 3.62338 0
M  V30 871 H 79.2871 0.337593 2.93163 0
M  V30 872 H 79.3681 1.74859 1.86703 0
M  V30 873 H 79.0121 3.26674 3.88905 0
M  V30 874 H 78.9421 1.82869 4.93829 0
M  V30 875 H 81.4331 1.68327 3.38341 0
M  V30 876 H 81.7461 3.9908 6.61782 0
M  V30 877 H 80.0911 3.58308 5.95517 0
M  V30 878 H 83.2821 2.16014 4.15278 0
M  V30 879 H 83.4551 3.21219 5.62781 0
M  V30 880 N 76.8612 -1.46375 0.584142 0
M  V30 881 C 77.7942 -2.27351 -0.196676 0
M  V30 882 C 78.7722 -1.35715 -0.895561 0
M  V30 883 O 79.9562 -1.65126 -0.90916 0
M  V30 884 C 77.0832 -3.13486 -1.28235 0
M  V30 885 C 76.1292 -4.20896 -0.689145 0
M  V30 886 S 76.9622 -5.33299 0.48507 0
M  V30 887 C 78.1182 -6.23 -0.601767 0
M  V30 888 H 78.3512 -2.93228 0.490395 0
M  V30 889 H 75.8842 -1.49875 0.371071 0
M  V30 890 H 77.8422 -3.63676 -1.90395 0
M  V30 891 H 76.5032 -2.4692 -1.94138 0
M  V30 892 H 75.6962 -4.80997 -1.50527 0
M  V30 893 H 75.2982 -3.73726 -0.143181 0
M  V30 894 H 77.5902 -6.60979 -1.48705 0
M  V30 895 H 78.5332 -7.0809 -0.0374799 0
M  V30 896 H 78.9412 -5.57173 -0.906557 0
M  V30 897 N 78.3393 -0.321999 -1.54275 0
M  V30 898 C 79.2693 0.537411 -2.27231 0
M  V30 899 C 80.2503 1.12064 -1.27968 0
M  V30 900 O 81.4353 1.14606 -1.56777 0
M  V30 901 C 78.5653 1.69919 -3.02894 0
M  V30 902 C 77.5193 1.24534 -4.09482 0
M  V30 903 C 76.8453 2.49394 -4.72977 0
M  V30 904 C 78.1453 0.361335 -5.21049 0
M  V30 905 H 79.8393 -0.0711406 -2.99315 0
M  V30 906 H 77.3853 -0.0356555 -1.43956 0
M  V30 907 H 79.3383 2.30668 -3.52662 0
M  V30 908 H 78.0623 2.33431 -2.28424 0
M  V30 909 H 76.7213 0.660782 -3.60596 0
M  V30 910 H 76.3693 3.11265 -3.95124 0
M  V30 911 H 76.0693 2.19718 -5.44975 0
M  V30 912 H 77.5933 3.10908 -5.25517 0
M  V30 913 H 79.0073 0.875072 -5.66582 0
M  V30 914 H 77.4043 0.157428 -5.99893 0
M  V30 915 H 78.4743 -0.60822 -4.8107 0
M  V30 916 N 79.8174 1.5752 -0.0501392 0
M  V30 917 C 80.7274 2.14952 0.939827 0
M  V30 918 C 81.7434 1.10706 1.34239 0
M  V30 919 O 82.9194 1.42869 1.41952 0
M  V30 920 C 79.9844 2.68232 2.19665 0
M  V30 921 C 79.0454 3.87272 1.85253 0
M  V30 922 C 78.2784 4.38002 3.04943 0
M  V30 923 O 78.5014 3.87811 4.18281 0
M  V30 924 O 77.4354 5.29602 2.86017 0
M  V30 925 H 81.2614 2.9986 0.481392 0
M  V30 926 H 78.8464 1.4841 0.171699 0
M  V30 927 H 80.7284 3.02475 2.93406 0
M  V30 928 H 79.4034 1.86395 2.64648 0
M  V30 929 H 78.3104 3.5792 1.0883 0
M  V30 930 H 79.6434 4.70336 1.4507 0
M  V30 931 N 81.2955 -0.223234 1.56011 0
M  V30 932 C 82.2055 -1.29766 1.95443 0
M  V30 933 C 83.2215 -1.51373 0.858028 0
M  V30 934 O 84.3975 -1.64536 1.16146 0
M  V30 935 C 81.4625 -2.62772 2.26167 0
M  V30 936 C 80.5235 -2.49482 3.49367 0
M  V30 937 C 79.7565 -3.76145 3.78616 0
M  V30 938 O 79.9795 -4.79087 3.09568 0
M  V30 939 O 78.9135 -3.73358 4.72109 0
M  V30 940 H 82.7395 -0.99309 2.87004 0
M  V30 941 H 80.3245 -0.425958 1.43199 0
M  V30 942 H 82.2065 -3.41327 2.47131 0
M  V30 943 H 80.8815 -2.92913 1.37781 0
M  V30 944 H 79.7885 -1.69133 3.33684 0
M  V30 945 H 81.1215 -2.2428 4.38131 0
M  V30 946 N 82.7736 -1.49793 -0.48987 0
M  V30 947 C 83.9986 -1.63836 -1.27172 0
M  V30 948 C 84.4236 -0.31402 -1.8546 0
M  V30 949 O 83.7816 0.719803 -1.66399 0
M  V30 950 C 83.8296 -2.71797 -2.36978 0
M  V30 951 O 82.9336 -2.31744 -3.41128 0
M  V30 952 H 82.2746 -0.547997 -0.37496 0
M  V30 953 H 84.8046 -1.96053 -0.585191 0
M  V30 954 H 84.8146 -2.94305 -2.82575 0
M  V30 955 H 83.4896 -3.67923 -1.93921 0
M  V30 956 H 82.0666 -2.1961 -3.01373 0
M  V30 957 N 84.2517 0.741722 -1.39055 0
M  V30 958 C 85.1997 1.87702 -1.3737 0
M  V30 959 C 86.1937 1.67427 -0.257812 0
M  V30 960 O 87.3997 1.7485 -0.427489 0
M  V30 961 H 83.7747 0.617757 -0.428812 0
M  V30 962 H 85.7457 1.86239 -2.33147 0
M  V30 963 C 84.4947 3.25315 -1.22741 0
M  V30 964 H 83.8177 3.41509 -2.07873 0
M  V30 965 H 85.2577 4.04964 -1.25618 0
M  V30 966 C 83.7167 3.36838 0.0647316 0
M  V30 967 O 84.2467 3.88073 1.03741 0
M  V30 968 N 82.4527 2.90329 0.125544 0
M  V30 969 H 81.9997 2.48823 -0.666682 0
M  V30 970 H 81.9577 2.98418 0.989639 0
M  V30 971 N 85.7298 1.2412 0.971189 0
M  V30 972 C 86.6598 1.05508 2.08304 0
M  V30 973 C 87.6408 -0.0308864 1.70072 0
M  V30 974 O 88.8258 0.135521 1.93727 0
M  V30 975 C 85.9558 0.655365 3.4106 0
M  V30 976 C 84.9098 1.68971 3.93234 0
M  V30 977 C 84.2358 1.14516 5.22293 0
M  V30 978 C 85.5358 3.08487 4.21465 0
M  V30 979 H 87.2298 1.98507 2.24132 0
M  V30 980 H 84.7758 0.955821 1.07704 0
M  V30 981 H 86.7288 0.51217 4.18276 0
M  V30 982 H 85.4528 -0.31032 3.25122 0
M  V30 983 H 84.1118 1.82106 3.18171 0
M  V30 984 H 83.7598 0.170189 5.02712 0
M  V30 985 H 83.4598 1.83635 5.58168 0
M  V30 986 H 84.9838 1.01401 6.02121 0
M  V30 987 H 86.3978 2.98601 4.89398 0
M  V30 988 H 84.7948 3.74926 4.68562 0
M  V30 989 H 85.8648 3.56787 3.28376 0
M  V30 990 N 87.2079 -1.17134 1.05439 0
M  V30 991 C 88.4329 -1.91913 0.786396 0
M  V30 992 C 88.8579 -1.7643 -0.652234 0
M  V30 993 O 88.2159 -1.08372 -1.45345 0
M  V30 994 C 88.2639 -3.40921 1.17497 0
M  V30 995 O 87.3679 -4.11244 0.308589 0
M  V30 996 H 86.7089 -0.598215 0.288158 0
M  V30 997 H 89.2389 -1.48457 1.4079 0
M  V30 998 H 89.2489 -3.91668 1.14281 0
M  V30 999 H 87.9239 -3.5151 2.22292 0
M  V30 1000 H 86.5009 -3.70731 0.40157 0
M  V30 1001 N 88.686 -0.835752 -1.33615 0
M  V30 1002 C 89.933 -0.429959 -1.97883 0
M  V30 1003 C 90.261 1.01006 -1.66217 0
M  V30 1004 O 89.516 1.72047 -0.93265 0
M  V30 1005 C 89.815 -0.593925 -3.52431 0
M  V30 1006 C 89.481 -2.00158 -4.04039 0
M  V30 1007 C 88.143 -2.38662 -4.17844 0
M  V30 1008 C 90.495 -2.92117 -4.31644 0
M  V30 1009 C 87.823 -3.68435 -4.56588 0
M  V30 1010 C 90.175 -4.21368 -4.71838 0
M  V30 1011 C 88.839 -4.59833 -4.83849 0
M  V30 1012 H 88.109 -0.157333 -0.724104 0
M  V30 1013 H 90.756 -1.06217 -1.59343 0
M  V30 1014 H 89.061 0.121619 -3.91611 0
M  V30 1015 H 90.758 -0.260282 -4.00154 0
M  V30 1016 H 87.348 -1.69252 -3.93766 0
M  V30 1017 H 91.532 -2.63608 -4.20505 0
M  V30 1018 H 86.788 -3.98046 -4.64079 0
M  V30 1019 H 90.962 -4.92703 -4.92155 0
M  V30 1020 H 88.589 -5.60438 -5.13627 0
M  V30 1021 N 90.1641 1.46063 -0.591896 0
M  V30 1022 C 91.0941 2.33172 0.123673 0
M  V30 1023 C 92.0751 1.45897 0.87453 0
M  V30 1024 O 93.2601 1.74698 0.848181 0
M  V30 1025 C 90.3901 3.28336 1.13194 0
M  V30 1026 C 89.3441 4.25124 0.495324 0
M  V30 1027 C 88.6701 5.09863 1.61071 0
M  V30 1028 C 89.9701 5.19143 -0.573425 0
M  V30 1029 H 91.6641 2.93252 -0.603646 0
M  V30 1030 H 89.2101 1.41014 -0.291741 0
M  V30 1031 H 91.1631 3.88137 1.64097 0
M  V30 1032 H 89.8871 2.66383 1.88965 0
M  V30 1033 H 88.5461 3.66599 0.00729452 0
M  V30 1034 H 88.1941 4.44288 2.35832 0
M  V30 1035 H 87.8941 5.75417 1.19035 0
M  V30 1036 H 89.4181 5.72529 2.12233 0
M  V30 1037 H 90.8321 5.73106 -0.1491 0
M  V30 1038 H 89.2291 5.93089 -0.914636 0
M  V30 1039 H 90.2991 4.62519 -1.45617 0
M  V30 1040 N 91.6422 0.330177 1.54103 0
M  V30 1041 C 92.5892 -0.532762 2.24567 0
M  V30 1042 C 93.5592 -1.10635 1.23892 0
M  V30 1043 O 94.7442 -1.14546 1.5259 0
M  V30 1044 C 91.8842 -1.6845 3.01195 0
M  V30 1045 C 90.9972 -1.13951 4.167 0
M  V30 1046 C 90.1322 -2.25746 4.80845 0
M  V30 1047 C 89.1712 -1.6853 5.88442 0
M  V30 1048 N 88.3082 -2.74014 6.46421 0
M  V30 1049 H 93.1482 0.0746905 2.97906 0
M  V30 1050 H 90.6852 0.048632 1.4702 0
M  V30 1051 H 92.6432 -2.36234 3.43874 0
M  V30 1052 H 91.2732 -2.26314 2.30178 0
M  V30 1053 H 90.3252 -0.35301 3.78758 0
M  V30 1054 H 91.6372 -0.680892 4.94131 0
M  V30 1055 H 90.7912 -3.01422 5.26526 0
M  V30 1056 H 89.5302 -2.74947 4.0281 0
M  V30 1057 H 88.5352 -0.913543 5.42157 0
M  V30 1058 H 89.7602 -1.20198 6.68378 0
M  V30 1059 H 87.7062 -3.22494 5.71256 0
M  V30 1060 H 87.6232 -2.32735 7.19285 0
M  V30 1061 H 88.8912 -3.49499 6.96757 0
M  V30 1062 N 93.1203 -1.57491 0.0584922 0
M  V30 1063 C 94.0303 -2.15448 -0.928414 0
M  V30 1064 C 95.0463 -1.11416 -1.3365 0
M  V30 1065 O 96.2223 -1.4362 -1.41193 0
M  V30 1066 C 93.2873 -2.69393 -2.18239 0
M  V30 1067 C 92.3483 -3.88249 -1.83196 0
M  V30 1068 C 91.5813 -4.39613 -3.02616 0
M  V30 1069 O 91.8043 -3.90023 -4.16219 0
M  V30 1070 O 90.7383 -5.31111 -2.83204 0
M  V30 1071 H 94.5643 -3.00112 -0.465483 0
M  V30 1072 H 92.1493 -1.48499 -0.163826 0
M  V30 1073 H 94.0313 -3.04026 -2.91798 0
M  V30 1074 H 92.7063 -1.87796 -2.63656 0
M  V30 1075 H 91.6133 -3.58492 -1.06931 0
M  V30 1076 H 92.9463 -4.71098 -1.42573 0
M  V30 1077 N 94.5984 0.214957 -1.56127 0
M  V30 1078 C 95.5284 1.2695 -1.95974 0
M  V30 1079 C 96.5094 1.48539 -0.828868 0
M  V30 1080 O 97.6944 1.60611 -1.09168 0
M  V30 1081 C 94.8244 2.61794 -2.28214 0
M  V30 1082 C 93.7784 2.54851 -3.43853 0
M  V30 1083 C 93.1044 3.93785 -3.61715 0
M  V30 1084 C 94.4044 2.09065 -4.78632 0
M  V30 1085 H 96.0984 0.93846 -2.84312 0
M  V30 1086 H 93.6444 0.449996 -1.36788 0
M  V30 1087 H 95.5974 3.35731 -2.54682 0
M  V30 1088 H 94.3214 2.96599 -1.36736 0
M  V30 1089 H 92.9804 1.8337 -3.17444 0
M  V30 1090 H 92.6284 4.25908 -2.67602 0
M  V30 1091 H 92.3284 3.90019 -4.39498 0
M  V30 1092 H 93.8524 4.69374 -3.90539 0
M  V30 1093 H 95.2664 2.7275 -5.04262 0
M  V30 1094 H 93.6634 2.16346 -5.59745 0
M  V30 1095 H 94.7334 1.04315 -4.73547 0
M  V30 1096 N 96.0765 1.50051 0.48192 0
M  V30 1097 C 97.0065 1.71046 1.58951 0
M  V30 1098 C 97.9875 0.559288 1.60642 0
M  V30 1099 O 99.1725 0.797243 1.77081 0
M  V30 1100 C 96.3025 1.79462 2.97339 0
M  V30 1101 C 95.2565 2.94558 3.10515 0
M  V30 1102 C 94.5825 2.88105 4.50444 0
M  V30 1103 C 95.8825 4.35227 2.88747 0
M  V30 1104 H 97.5765 2.6378 1.41635 0
M  V30 1105 H 95.1225 1.26936 0.679942 0
M  V30 1106 H 97.0755 1.92734 3.74742 0
M  V30 1107 H 95.7995 0.833412 3.15788 0
M  V30 1108 H 94.4585 2.80918 2.35543 0
M  V30 1109 H 94.1065 1.89853 4.65795 0
M  V30 1110 H 93.8065 3.65366 4.60197 0
M  V30 1111 H 95.3305 3.03412 5.29881 0
M  V30 1112 H 96.7445 4.49449 3.55905 0
M  V30 1113 H 95.1415 5.13856 3.09955 0
M  V30 1114 H 96.2115 4.48347 1.84696 0
M  V30 1115 N 97.5546 -0.734337 1.39446 0
M  V30 1116 C 98.8016 -1.49391 1.36706 0
M  V30 1117 C 99.1296 -1.94465 -0.0367813 0
M  V30 1118 O 98.3846 -1.67154 -1.01774 0
M  V30 1119 C 98.6836 -2.74711 2.28623 0
M  V30 1120 C 98.3496 -2.48501 3.76242 0
M  V30 1121 C 97.0116 -2.41062 4.16464 0
M  V30 1122 C 99.3636 -2.26098 4.69606 0
M  V30 1123 C 96.6916 -2.09262 5.48112 0
M  V30 1124 C 99.0436 -1.95814 6.01531 0
M  V30 1125 C 97.7076 -1.86845 6.40816 0
M  V30 1126 H 96.9776 -0.546661 0.500243 0
M  V30 1127 H 99.6246 -0.842788 1.71957 0
M  V30 1128 H 97.9296 -3.44569 1.86492 0
M  V30 1129 H 99.6266 -3.32741 2.23796 0
M  V30 1130 H 96.2166 -2.55169 3.44364 0
M  V30 1131 H 100.401 -2.30812 4.39363 0
M  V30 1132 H 95.6566 -2.00841 5.77471 0
M  V30 1133 H 99.8306 -1.77488 6.73403 0
M  V30 1134 H 97.4576 -1.6197 7.42745 0
M  V30 1135 N 99.0327 -1.24633 -0.964593 0
M  V30 1136 C 100.449 -1.01239 -1.2338 0
M  V30 1137 C 100.649 0.2769 -1.99588 0
M  V30 1138 O 99.7047 0.992241 -2.32187 0
M  V30 1139 C 101.018 -2.22937 -2.01791 0
M  V30 1140 C 102.566 -2.27594 -2.14872 0
M  V30 1141 C 103.041 -3.48921 -2.96678 0
M  V30 1142 N 104.532 -3.49257 -3.04259 0
M  V30 1143 C 105.267 -4.39795 -3.67924 0
M  V30 1144 N 104.763 -5.40591 -4.33281 0
M  V30 1145 N 106.556 -4.275 -3.64966 0
M  V30 1146 H 98.7067 -2.0748 -0.454502 0
M  V30 1147 H 100.97 -0.910647 -0.26349 0
M  V30 1148 H 100.676 -3.16587 -1.53184 0
M  V30 1149 H 100.55 -2.25306 -3.02518 0
M  V30 1150 H 102.937 -1.34473 -2.6268 0
M  V30 1151 H 103.018 -2.2925 -1.13482 0
M  V30 1152 H 102.662 -4.42359 -2.49562 0
M  V30 1153 H 102.592 -3.4451 -3.98272 0
M  V30 1154 H 105.083 -2.76337 -2.57771 0
M  V30 1155 H 105.396 -6.05904 -4.79687 0
M  V30 1156 H 103.741 -5.44475 -4.3194 0
M  V30 1157 H 106.932 -3.47987 -3.13086 0
M  V30 1158 H 107.105 -4.98258 -4.14298 0
M  V30 1159 N 100.511 1.16574 -1.06058 0
M  V30 1160 C 101.76 1.86385 -0.770944 0
M  V30 1161 C 102.073 1.82448 0.705129 0
M  V30 1162 O 103.279 2.47815 1.10905 0
M  V30 1163 C 101.735 3.34466 -1.32893 0
M  V30 1164 C 101.343 3.46883 -2.83507 0
M  V30 1165 C 103.087 4.09548 -1.11672 0
M  V30 1166 C 100.994 4.89036 -3.32562 0
M  V30 1167 H 99.9238 0.698181 -0.284709 0
M  V30 1168 H 102.575 1.31583 -1.27899 0
M  V30 1169 H 100.957 3.88859 -0.748662 0
M  V30 1170 H 102.131 3.02663 -3.47465 0
M  V30 1171 H 100.446 2.85232 -3.03368 0
M  V30 1172 H 103.043 5.14434 -1.45814 0
M  V30 1173 H 103.386 4.16264 -0.0549535 0
M  V30 1174 H 103.919 3.61387 -1.66265 0
M  V30 1175 H 100.658 4.87499 -4.38207 0
M  V30 1176 H 100.178 5.3389 -2.73351 0
M  V30 1177 H 101.857 5.57843 -3.2775 0
M  V30 1178 N 101.989 0.842826 1.3317 0
M  V30 1179 C 102.937 0.267495 2.31057 0
M  V30 1180 C 103.931 -0.602682 1.58316 0
M  V30 1181 O 105.137 -0.491803 1.73151 0
M  V30 1182 H 101.512 0.0677813 0.748939 0
M  V30 1183 H 103.483 1.10754 2.77085 0
M  V30 1184 C 102.232 -0.539331 3.43492 0
M  V30 1185 H 101.555 0.12095 3.99617 0
M  V30 1186 H 102.995 -0.90767 4.14171 0
M  V30 1187 C 101.454 -1.71981 2.89697 0
M  V30 1188 O 101.984 -2.81862 2.86211 0
M  V30 1189 N 100.19 -1.54299 2.46252 0
M  V30 1190 H 99.7369 -0.649143 2.49287 0
M  V30 1191 H 99.6949 -2.33431 2.10612 0
M  V30 1192 N 103.467 -1.45747 0.599634 0
M  V30 1193 C 104.883 -1.57424 0.26264 0
M  V30 1194 C 105.083 -1.59222 -1.23493 0
M  V30 1195 O 104.139 -1.51825 -2.01756 0
M  V30 1196 C 105.452 -2.86061 0.926795 0
M  V30 1197 C 107 -2.99722 0.901967 0
M  V30 1198 C 107.475 -4.31119 1.54598 0
M  V30 1199 N 108.966 -4.37858 1.5111 0
M  V30 1200 C 109.701 -5.3818 1.97863 0
M  V30 1201 N 109.197 -6.45083 2.52666 0
M  V30 1202 N 110.99 -5.29487 1.88679 0
M  V30 1203 H 103.141 -1.42823 1.57211 0
M  V30 1204 H 105.404 -0.68235 0.658105 0
M  V30 1205 H 105.11 -2.90605 1.98095 0
M  V30 1206 H 104.984 -3.74563 0.445238 0
M  V30 1207 H 107.371 -2.9475 -0.143617 0
M  V30 1208 H 107.452 -2.12652 1.42171 0
M  V30 1209 H 107.096 -4.36849 2.59085 0
M  V30 1210 H 107.026 -5.16992 1.00132 0
M  V30 1211 H 109.517 -3.61209 1.11068 0
M  V30 1212 H 109.83 -7.17869 2.86155 0
M  V30 1213 H 108.175 -6.45856 2.56701 0
M  V30 1214 H 111.366 -4.44877 1.4561 0
M  V30 1215 H 111.539 -6.07524 2.25429 0
M  V30 1216 N 104.945 -0.338344 -1.53925 0
M  V30 1217 C 105.875 0.51328 -2.27789 0
M  V30 1218 C 106.856 1.107 -1.29149 0
M  V30 1219 O 108.041 1.12937 -1.57984 0
M  V30 1220 C 105.171 1.66697 -3.04679 0
M  V30 1221 C 104.125 1.20183 -4.1078 0
M  V30 1222 C 103.451 2.44363 -4.75595 0
M  V30 1223 C 104.751 0.30605 -5.21403 0
M  V30 1224 H 106.445 -0.102883 -2.99223 0
M  V30 1225 H 103.991 -0.0509219 -1.4391 0
M  V30 1226 H 105.944 2.26915 -3.55088 0
M  V30 1227 H 104.668 2.30995 -2.30887 0
M  V30 1228 H 103.327 0.622499 -3.61276 0
M  V30 1229 H 102.975 3.07057 -3.98403 0
M  V30 1230 H 102.675 2.13925 -5.47275 0
M  V30 1231 H 104.199 3.05317 -5.28786 0
M  V30 1232 H 105.613 0.814929 -5.67478 0
M  V30 1233 H 104.01 0.0937929 -6.00027 0
M  V30 1234 H 105.08 -0.65921 -4.80398 0
M  V30 1235 N 106.423 1.57458 -0.0668435 0
M  V30 1236 C 107.7 1.8469 0.644132 0
M  V30 1237 C 108.08 0.958343 1.88093 0
M  V30 1238 O 107.428 0.0233579 2.28488 0
M  V30 1239 C 107.638 3.34767 0.986509 0
M  V30 1240 C 108.986 4.02159 1.36212 0
M  V30 1241 O 110.01 3.39484 1.07839 0
M  V30 1242 O 108.869 5.12694 1.89227 0
M  V30 1243 H 105.963 0.762816 0.319437 0
M  V30 1244 H 108.509 1.6942 -0.0973986 0
M  V30 1245 H 107.281 3.91151 0.107883 0
M  V30 1246 H 106.904 3.55281 1.78497 0
M  V30 1247 N 107.901 -0.206675 1.56239 0
M  V30 1248 C 108.831 -1.25909 1.96645 0
M  V30 1249 C 109.812 -1.48097 0.836734 0
M  V30 1250 O 110.997 -1.6003 1.10019 0
M  V30 1251 C 108.127 -2.6058 2.29599 0
M  V30 1252 C 107.081 -2.53024 3.452 0
M  V30 1253 C 106.407 -3.91861 3.63798 0
M  V30 1254 C 107.707 -2.06524 4.79734 0
M  V30 1255 H 109.401 -0.923369 2.84806 0
M  V30 1256 H 106.947 -0.442735 1.37025 0
M  V30 1257 H 108.9 -3.34375 2.56459 0
M  V30 1258 H 107.624 -2.95869 1.38307 0
M  V30 1259 H 106.283 -1.81684 3.18412 0
M  V30 1260 H 105.931 -4.24483 2.69857 0
M  V30 1261 H 105.631 -3.87683 4.4156 0
M  V30 1262 H 107.155 -4.67296 3.93022 0
M  V30 1263 H 108.569 -2.70072 5.05702 0
M  V30 1264 H 106.966 -2.13374 5.60885 0
M  V30 1265 H 108.036 -1.01802 4.74093 0
M  V30 1266 N 109.379 -1.50304 -0.473955 0
M  V30 1267 C 110.309 -1.71886 -1.58042 0
M  V30 1268 C 111.29 -0.567799 -1.60344 0
M  V30 1269 O 112.475 -0.806623 -1.76656 0
M  V30 1270 C 109.605 -1.81036 -2.96384 0
M  V30 1271 C 108.559 -2.962 -3.08949 0
M  V30 1272 C 107.885 -2.9049 -4.48909 0
M  V30 1273 C 109.185 -4.36752 -2.86434 0
M  V30 1274 H 110.879 -2.64527 -1.40234 0
M  V30 1275 H 108.425 -1.27295 -0.673201 0
M  V30 1276 H 110.378 -1.94719 -3.73714 0
M  V30 1277 H 109.102 -0.850147 -3.15341 0
M  V30 1278 H 107.761 -2.82164 -2.3405 0
M  V30 1279 H 107.409 -1.92321 -4.64781 0
M  V30 1280 H 107.109 -3.67802 -4.58253 0
M  V30 1281 H 108.633 -3.06218 -5.28264 0
M  V30 1282 H 110.047 -4.5133 -3.53517 0
M  V30 1283 H 108.444 -5.15493 -3.07225 0
M  V30 1284 H 109.514 -4.49321 -1.82316 0
M  V30 1285 N 110.857 0.726932 -1.39834 0
M  V30 1286 C 112.106 1.48214 -1.36805 0
M  V30 1287 C 112.419 1.95576 0.0305291 0
M  V30 1288 O 113.625 2.7088 0.183417 0
M  V30 1289 C 112.081 2.67854 -2.40379 0
M  V30 1290 C 111.689 2.27408 -3.85992 0
M  V30 1291 C 113.433 3.45641 -2.46439 0
M  V30 1292 C 111.34 3.43819 -4.81189 0
M  V30 1293 H 110.27 0.556606 -0.508631 0
M  V30 1294 H 112.921 0.792216 -1.65518 0
M  V30 1295 H 111.303 3.3896 -2.04749 0
M  V30 1296 H 112.477 1.63795 -4.30706 0
M  V30 1297 H 110.792 1.62692 -3.83302 0
M  V30 1298 H 113.389 4.32244 -3.14753 0
M  V30 1299 H 113.732 3.88669 -1.49139 0
M  V30 1300 H 114.265 2.8157 -2.81004 0
M  V30 1301 H 111.004 3.05834 -5.79781 0
M  V30 1302 H 110.524 4.06385 -4.41148 0
M  V30 1303 H 112.203 4.10043 -5.00474 0
M  V30 1304 N 112.336 1.25143 0.95797 0
M  V30 1305 C 113.564 1.12424 1.73691 0
M  V30 1306 C 113.979 -0.322304 1.86029 0
M  V30 1307 O 113.336 -1.22186 1.35561 0
M  V30 1308 C 113.387 1.76933 3.15241 0
M  V30 1309 O 113.108 3.15932 3.03511 0
M  V30 1310 C 114.609 1.6995 4.09429 0
M  V30 1311 H 111.829 0.3923 0.544373 0
M  V30 1312 H 114.373 1.6544 1.20207 0
M  V30 1313 H 112.528 1.27895 3.6568 0
M  V30 1314 H 112.942 3.47598 3.9278 0
M  V30 1315 H 114.416 2.19753 5.06372 0
M  V30 1316 H 114.893 0.662619 4.34173 0
M  V30 1317 H 115.499 2.18461 3.64904 0
M  V30 1318 N 113.814 -1.1601 1.06675 0
M  V30 1319 C 115.044 -1.90251 0.805497 0
M  V30 1320 C 115.452 -1.77891 -0.64431 0
M  V30 1321 O 114.795 -1.12383 -1.45313 0
M  V30 1322 C 114.857 -3.41419 1.12576 0
M  V30 1323 C 114.521 -3.77564 2.57477 0
M  V30 1324 C 115.518 -3.79161 3.55715 0
M  V30 1325 C 113.203 -4.08079 2.92877 0
M  V30 1326 C 115.197 -4.10767 4.8739 0
M  V30 1327 C 112.884 -4.39351 4.24751 0
M  V30 1328 C 113.882 -4.40675 5.21818 0
M  V30 1329 O 113.57 -4.71202 6.51325 0
M  V30 1330 H 113.302 -0.610018 0.291297 0
M  V30 1331 H 115.856 -1.47958 1.4247 0
M  V30 1332 H 114.086 -3.84079 0.449503 0
M  V30 1333 H 115.775 -3.9694 0.84814 0
M  V30 1334 H 116.541 -3.55693 3.29708 0
M  V30 1335 H 112.42 -4.06211 2.17976 0
M  V30 1336 H 115.964 -4.11715 5.63148 0
M  V30 1337 H 111.861 -4.62285 4.50514 0
M  V30 1338 H 112.629 -4.88996 6.56373 0
M  V30 1339 N 115.292 -0.849877 -1.32721 0
M  V30 1340 C 116.222 -0.306308 -2.31482 0
M  V30 1341 C 117.203 0.591952 -1.59468 0
M  V30 1342 O 118.388 0.513199 -1.87296 0
M  V30 1343 C 115.518 0.510204 -3.43532 0
M  V30 1344 C 114.472 -0.293209 -4.26994 0
M  V30 1345 C 113.798 0.647743 -5.30762 0
M  V30 1346 C 115.098 -1.51634 -4.99804 0
M  V30 1347 H 116.792 -1.13153 -2.77195 0
M  V30 1348 H 114.338 -0.545553 -1.33266 0
M  V30 1349 H 116.291 0.900856 -4.11658 0
M  V30 1350 H 115.015 1.36874 -2.96535 0
M  V30 1351 H 113.674 -0.665555 -3.60508 0
M  V30 1352 H 113.322 1.50299 -4.8002 0
M  V30 1353 H 113.022 0.11422 -5.87489 0
M  V30 1354 H 114.546 1.03567 -6.01753 0
M  V30 1355 H 115.96 -1.19824 -5.60638 0
M  V30 1356 H 114.357 -1.98745 -5.66234 0
M  V30 1357 H 115.427 -2.28018 -4.27943 0
M  V30 1358 N 116.77 1.45427 -0.607355 0
M  V30 1359 C 117.718 2.32269 0.12411 0
M  V30 1360 C 118.712 1.45955 0.859854 0
M  V30 1361 O 119.918 1.6244 0.775447 0
M  V30 1362 H 116.293 0.749691 0.0588839 0
M  V30 1363 H 118.264 2.91743 -0.626762 0
M  V30 1364 C 117.013 3.29567 1.1082 0
M  V30 1365 H 116.336 3.95978 0.551492 0
M  V30 1366 H 117.776 3.93061 1.58995 0
M  V30 1367 C 116.235 2.56722 2.18164 0
M  V30 1368 O 116.765 2.34842 3.25902 0
M  V30 1369 N 114.971 2.16861 1.93442 0
M  V30 1370 H 114.518 2.34855 1.05834 0
M  V30 1371 H 114.476 1.68444 2.65469 0
M  V30 1372 N 118.248 0.346503 1.53744 0
M  V30 1373 C 119.476 -0.25041 2.05379 0
M  V30 1374 C 119.891 -1.43979 1.22129 0
M  V30 1375 O 119.248 -1.80677 0.257321 0
M  V30 1376 C 119.299 -0.662575 3.55376 0
M  V30 1377 O 119.02 0.479515 4.35468 0
M  V30 1378 C 120.521 -1.31989 4.23195 0
M  V30 1379 H 117.741 -0.0478198 0.669294 0
M  V30 1380 H 120.285 0.499346 1.9831 0
M  V30 1381 H 118.44 -1.36227 3.62658 0
M  V30 1382 H 118.854 0.15037 5.24284 0
M  V30 1383 H 120.328 -1.55902 5.29527 0
M  V30 1384 H 120.805 -2.27436 3.75725 0
M  V30 1385 H 121.411 -0.662154 4.20114 0
M  V30 1386 N 119.726 -1.57421 0.075193 0
M  V30 1387 C 121.142 -1.57099 -0.281444 0
M  V30 1388 C 121.342 -1.08486 -1.69803 0
M  V30 1389 O 120.398 -0.752279 -2.41033 0
M  V30 1390 C 121.711 -3.00571 -0.0880041 0
M  V30 1391 C 123.259 -3.12605 -0.157281 0
M  V30 1392 C 123.734 -4.57999 0.0079207 0
M  V30 1393 N 125.225 -4.63176 -0.0475725 0
M  V30 1394 C 125.96 -5.73373 0.0557876 0
M  V30 1395 N 125.456 -6.92473 0.21286 0
M  V30 1396 N 127.249 -5.621 -0.00152098 0
M  V30 1397 H 119.4 -1.87335 1.00098 0
M  V30 1398 H 121.663 -0.86377 0.390646 0
M  V30 1399 H 121.369 -3.40262 0.889629 0
M  V30 1400 H 121.243 -3.67754 -0.838875 0
M  V30 1401 H 123.63 -2.72798 -1.1254 0
M  V30 1402 H 123.711 -2.48053 0.62475 0
M  V30 1403 H 123.355 -4.98496 0.972824 0
M  V30 1404 H 123.285 -5.20586 -0.793556 0
M  V30 1405 H 125.776 -3.7753 -0.167244 0
M  V30 1406 H 126.089 -7.72279 0.283781 0
M  V30 1407 H 124.434 -6.94556 0.248267 0
M  V30 1408 H 127.625 -4.67938 -0.122958 0
M  V30 1409 H 127.798 -6.47948 0.0824844 0
M  V30 1410 N 121.204 0.198386 -1.56346 0
M  V30 1411 C 122.151 1.24589 -1.94284 0
M  V30 1412 C 123.121 1.454 -0.802997 0
M  V30 1413 O 124.306 1.58588 -1.06087 0
M  V30 1414 C 121.446 2.58631 -2.28482 0
M  V30 1415 C 120.559 2.45426 -3.55514 0
M  V30 1416 C 119.694 3.7215 -3.79049 0
M  V30 1417 C 118.733 3.53763 -4.99518 0
M  V30 1418 N 117.87 4.72491 -5.19323 0
M  V30 1419 H 122.71 0.915356 -2.83593 0
M  V30 1420 H 120.247 0.440629 -1.40346 0
M  V30 1421 H 122.205 3.3672 -2.46324 0
M  V30 1422 H 120.835 2.89734 -1.42317 0
M  V30 1423 H 119.887 1.58652 -3.45737 0
M  V30 1424 H 121.199 2.27772 -4.43758 0
M  V30 1425 H 120.353 4.58679 -3.97113 0
M  V30 1426 H 119.092 3.92754 -2.89129 0
M  V30 1427 H 118.097 2.65619 -4.8138 0
M  V30 1428 H 119.322 3.34607 -5.90944 0
M  V30 1429 H 117.268 4.93365 -4.3235 0
M  V30 1430 H 117.185 4.5765 -6.01741 0
M  V30 1431 H 118.453 5.6038 -5.41843 0
M  V30 1432 N 122.682 1.50554 0.465978 0
M  V30 1433 C 123.592 1.72585 1.58907 0
M  V30 1434 C 124.608 0.60911 1.6299 0
M  V30 1435 O 125.784 0.88804 1.80765 0
M  V30 1436 C 122.849 1.81995 2.95091 0
M  V30 1437 C 121.91 3.05751 3.01355 0
M  V30 1438 C 121.143 3.14702 4.31043 0
M  V30 1439 O 121.366 2.30313 5.21835 0
M  V30 1440 O 120.3 4.07468 4.43005 0
M  V30 1441 H 124.126 2.67799 1.43239 0
M  V30 1442 H 121.711 1.34711 0.646013 0
M  V30 1443 H 123.593 1.90335 3.75966 0
M  V30 1444 H 122.268 0.899659 3.10947 0
M  V30 1445 H 121.175 3.02908 2.19539 0
M  V30 1446 H 122.508 3.97375 2.90437 0
M  V30 1447 N 124.16 -0.719506 1.40217 0
M  V30 1448 C 125.07 -1.86378 1.42479 0
M  V30 1449 C 126.086 -1.71073 0.317834 0
M  V30 1450 O 127.262 -1.93406 0.561794 0
M  V30 1451 C 124.327 -3.22136 1.28178 0
M  V30 1452 C 123.388 -3.49723 2.48982 0
M  V30 1453 C 122.621 -4.79004 2.35353 0
M  V30 1454 O 122.844 -5.53821 1.36524 0
M  V30 1455 O 121.778 -5.06839 3.2465 0
M  V30 1456 H 125.604 -1.87425 2.38968 0
M  V30 1457 H 123.189 -0.869405 1.21498 0
M  V30 1458 H 125.071 -4.03234 1.22395 0
M  V30 1459 H 123.746 -3.21825 0.347934 0
M  V30 1460 H 122.653 -2.6865 2.60342 0
M  V30 1461 H 123.986 -3.54828 3.41113 0
M  V30 1462 N 125.638 -1.25649 -0.95132 0
M  V30 1463 C 126.571 -1.00644 -2.04807 0
M  V30 1464 C 127.549 0.0654271 -1.62468 0
M  V30 1465 O 128.733 -0.074911 -1.88351 0
M  V30 1466 C 125.86 -0.522052 -3.34653 0
M  V30 1467 C 124.906 -1.58495 -3.95957 0
M  V30 1468 S 125.739 -3.17108 -4.31512 0
M  V30 1469 C 126.895 -2.70412 -5.64471 0
M  V30 1470 H 127.128 -1.93508 -2.25703 0
M  V30 1471 H 124.661 -1.09216 -1.09139 0
M  V30 1472 H 126.619 -0.24923 -4.09743 0
M  V30 1473 H 125.28 0.386146 -3.11717 0
M  V30 1474 H 124.473 -1.1968 -4.89584 0
M  V30 1475 H 124.075 -1.80862 -3.2736 0
M  V30 1476 H 126.367 -2.14245 -6.42733 0
M  V30 1477 H 127.31 -3.62693 -6.08161 0
M  V30 1478 H 127.718 -2.10302 -5.23864 0
M  V30 1479 N 127.117 1.15442 -1.07289 0
M  V30 1480 C 128.027 2.23786 -0.704057 0
M  V30 1481 C 129.043 1.7166 0.284413 0
M  V30 1482 O 130.219 2.00972 0.131205 0
M  V30 1483 C 127.284 3.46535 -0.106792 0
M  V30 1484 C 126.345 4.13654 -1.14842 0
M  V30 1485 C 125.578 5.30544 -0.57956 0
M  V30 1486 O 125.801 5.67187 0.604585 0
M  V30 1487 O 124.735 5.87154 -1.32414 0
M  V30 1488 H 128.561 2.57664 -1.60757 0
M  V30 1489 H 126.146 1.23152 -0.845803 0
M  V30 1490 H 128.028 4.20804 0.224048 0
M  V30 1491 H 126.703 3.14407 0.770049 0
M  V30 1492 H 125.61 3.4131 -1.5316 0
M  V30 1493 H 126.943 4.49861 -1.99714 0
M  V30 1494 N 128.595 0.856903 1.32268 0
M  V30 1495 C 130.011 0.547061 1.49931 0
M  V30 1496 C 130.211 -0.921781 1.7918 0
M  V30 1497 O 129.267 -1.70469 1.8627 0
M  V30 1498 C 130.58 1.43599 2.64196 0
M  V30 1499 C 132.128 1.43665 2.78081 0
M  V30 1500 C 132.603 2.31085 3.95428 0
M  V30 1501 N 134.094 2.28893 4.02694 0
M  V30 1502 C 134.829 2.93262 4.92732 0
M  V30 1503 N 134.325 3.66751 5.87763 0
M  V30 1504 N 136.118 2.82638 4.85873 0
M  V30 1505 H 128.269 1.8075 1.11549 0
M  V30 1506 H 130.532 0.772144 0.549997 0
M  V30 1507 H 130.238 2.48058 2.49319 0
M  V30 1508 H 130.112 1.12502 3.60032 0
M  V30 1509 H 132.499 0.399701 2.92381 0
M  V30 1510 H 132.58 1.7878 1.82952 0
M  V30 1511 H 132.224 3.34849 3.81888 0
M  V30 1512 H 132.154 1.93302 4.89839 0
M  V30 1513 H 134.645 1.75466 3.34694 0
M  V30 1514 H 134.958 4.13027 6.53168 0
M  V30 1515 H 133.303 3.70859 5.87783 0
M  V30 1516 H 136.494 2.24774 4.10602 0
M  V30 1517 H 136.667 3.33084 5.55841 0
M  V30 1518 N 130.073 -1.45103 0.615059 0
M  V30 1519 C 130.983 -2.34382 -0.101034 0
M  V30 1520 C 131.999 -1.51681 -0.852585 0
M  V30 1521 O 133.175 -1.8446 -0.808484 0
M  V30 1522 C 130.24 -3.29417 -1.08099 0
M  V30 1523 C 129.301 -4.28025 -0.330577 0
M  V30 1524 C 128.534 -5.1852 -1.26385 0
M  V30 1525 O 128.757 -5.12598 -2.50198 0
M  V30 1526 O 127.691 -5.97122 -0.756866 0
M  V30 1527 H 131.517 -2.97033 0.632855 0
M  V30 1528 H 129.102 -1.4461 0.375293 0
M  V30 1529 H 130.984 -3.87958 -1.6452 0
M  V30 1530 H 129.659 -2.69321 -1.79577 0
M  V30 1531 H 128.566 -3.73078 0.276283 0
M  V30 1532 H 129.899 -4.90997 0.343866 0
M  V30 1533 N 131.551 -0.354651 -1.53558 0
M  V30 1534 C 132.481 0.489091 -2.2832 0
M  V30 1535 C 133.462 1.09324 -1.30316 0
M  V30 1536 O 134.647 1.11255 -1.59173 0
M  V30 1537 C 131.777 1.63456 -3.0643 0
M  V30 1538 C 130.731 1.1582 -4.12031 0
M  V30 1539 C 130.057 2.39305 -4.7816 0
M  V30 1540 C 131.357 0.250731 -5.21698 0
M  V30 1541 H 133.051 -0.134614 -2.99097 0
M  V30 1542 H 130.597 -0.0661826 -1.43848 0
M  V30 1543 H 132.55 2.23136 -3.57475 0
M  V30 1544 H 131.274 2.28533 -2.33325 0
M  V30 1545 H 129.933 0.584146 -3.61916 0
M  V30 1546 H 129.581 3.02814 -4.01637 0
M  V30 1547 H 129.281 2.08109 -5.49513 0
M  V30 1548 H 130.805 2.99691 -5.31994 0
M  V30 1549 H 132.219 0.754695 -5.68311 0
M  V30 1550 H 130.616 0.0301468 -6.00092 0
M  V30 1551 H 131.686 -0.710125 -4.79672 0
M  V30 1552 N 133.029 1.57378 -0.0835403 0
M  V30 1553 C 133.961 2.10389 0.909338 0
M  V30 1554 C 134.974 1.03858 1.25369 0
M  V30 1555 O 136.163 1.31338 1.20882 0
M  V30 1556 C 133.263 2.55908 2.2218 0
M  V30 1557 C 132.436 3.86145 2.05453 0
M  V30 1558 C 131.495 4.17633 3.20108 0
M  V30 1559 O 130.521 4.87043 2.94581 0
M  V30 1560 N 131.723 3.72113 4.45547 0
M  V30 1561 H 134.488 2.962 0.456657 0
M  V30 1562 H 132.049 1.61579 0.101877 0
M  V30 1563 H 134.041 2.74027 2.97811 0
M  V30 1564 H 132.611 1.75171 2.58909 0
M  V30 1565 H 131.831 3.7729 1.1422 0
M  V30 1566 H 133.119 4.7137 1.91541 0
M  V30 1567 H 132.517 3.16062 4.69171 0
M  V30 1568 H 131.074 3.95409 5.18165 0
M  V30 1569 N 134.507 -0.190092 1.56449 0
M  V30 1570 C 135.735 -0.925772 1.85033 0
M  V30 1571 C 136.15 -1.76638 0.666658 0
M  V30 1572 O 135.507 -1.78822 -0.364565 0
M  V30 1573 C 135.558 -1.81786 3.12468 0
M  V30 1574 O 135.279 -1.01118 4.26271 0
M  V30 1575 C 136.78 -2.6648 3.54265 0
M  V30 1576 H 134 -0.269872 0.614337 0
M  V30 1577 H 136.544 -0.195837 2.0356 0
M  V30 1578 H 134.699 -2.50136 2.95822 0
M  V30 1579 H 135.113 -1.61956 4.98869 0
M  V30 1580 H 136.587 -3.24722 4.46385 0
M  V30 1581 H 137.064 -3.40434 2.77491 0
M  V30 1582 H 137.67 -2.03493 3.73458 0
M  V30 1583 N 135.985 -1.50799 -0.457987 0
M  V30 1584 C 137.396 -1.55152 -1.0385 0
M  V30 1585 C 137.747 -0.362719 -1.92818 0
M  V30 1586 O 136.872 0.522915 -2.09987 0
M  V30 1587 C 137.467 -2.81173 -1.89017 0
M  V30 1588 C 136.026 -2.88164 -2.42154 0
M  V30 1589 C 135.173 -2.49591 -1.20829 0
M  V30 1590 H 138.124 -1.56874 -0.240068 0
M  V30 1591 H 138.145 -2.63769 -2.74238 0
M  V30 1592 H 137.657 -3.67677 -1.24238 0
M  V30 1593 H 135.758 -2.06042 -3.10447 0
M  V30 1594 H 135.871 -3.91356 -2.76364 0
M  V30 1595 H 134.235 -2.02322 -1.54719 0
M  V30 1596 H 135.018 -3.38418 -0.576927 0
M  V30 1597 N 137.463 0.71206 -1.40597 0
M  V30 1598 C 138.711 1.46907 -1.38791 0
M  V30 1599 C 139.032 1.94998 0.00780391 0
M  V30 1600 O 138.302 1.70587 0.963174 0
M  V30 1601 H 136.882 0.545043 -0.51082 0
M  V30 1602 H 139.544 0.843882 -1.75683 0
M  V30 1603 H 138.64 2.34021 -2.06496 0
M  V30 1604 N 138.941 1.26152 0.944643 0
M  V30 1605 C 140.357 1.03189 1.21754 0
M  V30 1606 C 140.557 -0.245112 2.00004 0
M  V30 1607 O 139.613 -0.955176 2.33736 0
M  V30 1608 C 140.926 2.26119 1.98219 0
M  V30 1609 C 142.474 2.30984 2.11224 0
M  V30 1610 C 142.949 3.53597 2.91089 0
M  V30 1611 N 144.44 3.54053 2.98664 0
M  V30 1612 C 145.175 4.45593 3.60881 0
M  V30 1613 N 144.671 5.47416 4.24626 0
M  V30 1614 N 146.464 4.33252 3.58119 0
M  V30 1615 H 138.615 2.08177 0.421437 0
M  V30 1616 H 140.878 0.914723 0.248969 0
M  V30 1617 H 140.584 3.18984 1.48128 0
M  V30 1618 H 140.458 2.3009 2.98895 0
M  V30 1619 H 142.845 1.38635 2.60508 0
M  V30 1620 H 142.926 2.31026 1.09821 0
M  V30 1621 H 142.57 4.46273 2.42493 0
M  V30 1622 H 142.5 3.50802 3.92741 0
M  V30 1623 H 144.991 2.80403 2.53343 0
M  V30 1624 H 145.304 6.13459 4.69987 0
M  V30 1625 H 143.649 5.51278 4.23223 0
M  V30 1626 H 146.84 3.52924 3.0751 0
M  V30 1627 H 147.013 5.04786 4.06319 0
M  V30 1628 N 140.419 -1.14872 1.07899 0
M  V30 1629 C 141.382 -2.17986 0.708161 0
M  V30 1630 C 142.382 -1.58775 -0.25442 0
M  V30 1631 O 143.572 -1.74166 -0.034645 0
M  V30 1632 C 140.704 -3.40871 0.0446929 0
M  V30 1633 H 141.897 -2.52306 1.62116 0
M  V30 1634 H 139.45 -1.2943 0.876218 0
M  V30 1635 H 140.185 -3.12124 -0.880281 0
M  V30 1636 H 139.97 -3.8511 0.737091 0
M  V30 1637 H 141.46 -4.17121 -0.19991 0
M  V30 1638 N 141.898 -0.863906 -1.31812 0
M  V30 1639 C 142.83 -0.272485 -2.27575 0
M  V30 1640 C 143.843 0.56104 -1.52827 0
M  V30 1641 O 145.032 0.384021 -1.7432 0
M  V30 1642 C 142.132 0.63283 -3.32939 0
M  V30 1643 C 141.305 -0.166902 -4.37081 0
M  V30 1644 C 140.364 0.665608 -5.21973 0
M  V30 1645 O 139.39 0.0958091 -5.69119 0
M  V30 1646 N 140.592 1.9787 -5.45736 0
M  V30 1647 H 143.357 -1.0954 -2.78964 0
M  V30 1648 H 140.918 -0.724791 -1.4477 0
M  V30 1649 H 142.91 1.19532 -3.86645 0
M  V30 1650 H 141.48 1.35642 -2.81638 0
M  V30 1651 H 140.7 -0.910838 -3.83533 0
M  V30 1652 H 141.988 -0.715874 -5.03739 0
M  V30 1653 H 141.386 2.46484 -5.09178 0
M  V30 1654 H 139.943 2.48911 -6.024 0
M  V30 1655 N 143.376 1.44774 -0.622745 0
M  V30 1656 C 144.625 2.01334 -0.121397 0
M  V30 1657 C 144.938 1.49505 1.26125 0
M  V30 1658 O 146.144 1.98139 1.85616 0
M  V30 1659 C 144.6 3.59516 -0.166298 0
M  V30 1660 C 144.208 4.20342 -1.54974 0
M  V30 1661 C 145.952 4.23582 0.279021 0
M  V30 1662 C 143.859 5.70721 -1.55021 0
M  V30 1663 H 142.789 0.752851 -0.0416172 0
M  V30 1664 H 145.44 1.66083 -0.780309 0
M  V30 1665 H 143.822 3.92027 0.559557 0
M  V30 1666 H 144.996 3.99381 -2.29851 0
M  V30 1667 H 143.311 3.68529 -1.93843 0
M  V30 1668 H 145.908 5.33868 0.298083 0
M  V30 1669 H 146.251 3.95327 1.30471 0
M  V30 1670 H 146.784 3.95843 -0.394063 0
M  V30 1671 H 143.523 6.03698 -2.55399 0
M  V30 1672 H 143.043 5.93829 -0.844245 0
M  V30 1673 H 144.722 6.34203 -1.28047 0
M  V30 1674 N 144.854 0.36279 1.53368 0
M  V30 1675 C 146.079 -0.231226 2.06107 0
M  V30 1676 C 146.504 -1.419 1.23474 0
M  V30 1677 O 145.862 -1.79524 0.253128 0
M  V30 1678 C 145.91 -0.605523 3.5548 0
M  V30 1679 O 145.014 -1.70312 3.7559 0
M  V30 1680 H 144.355 -0.034327 0.663112 0
M  V30 1681 H 146.885 0.522584 1.97814 0
M  V30 1682 H 146.895 -0.877314 3.98456 0
M  V30 1683 H 145.57 0.263004 4.15068 0
M  V30 1684 H 144.147 -1.4271 3.44512 0
M  V30 1685 N 146.332 -1.57332 0.0918853 0
M  V30 1686 C 147.295 -2.12708 -0.85369 0
M  V30 1687 C 148.295 -1.05561 -1.213 0
M  V30 1688 O 149.485 -1.31461 -1.14296 0
M  V30 1689 C 146.617 -2.64503 -2.15061 0
M  V30 1690 H 147.81 -2.97573 -0.3729 0
M  V30 1691 H 145.363 -1.55509 -0.157072 0
M  V30 1692 H 146.098 -1.83149 -2.67632 0
M  V30 1693 H 145.883 -3.4284 -1.90272 0
M  V30 1694 H 147.373 -3.07351 -2.82711 0
M  V30 1695 N 147.81 0.181792 -1.56548 0
M  V30 1696 C 149.04 0.914618 -1.85252 0
M  V30 1697 C 149.448 1.76791 -0.673914 0
M  V30 1698 O 148.791 1.80009 0.366416 0
M  V30 1699 C 148.853 1.85019 -3.08234 0
M  V30 1700 C 148.517 1.17754 -4.41569 0
M  V30 1701 C 149.514 0.548035 -5.17003 0
M  V30 1702 C 147.199 1.17742 -4.88305 0
M  V30 1703 C 149.193 -0.0726128 -6.37359 0
M  V30 1704 C 146.88 0.552946 -6.08593 0
M  V30 1705 C 147.878 -0.070978 -6.82963 0
M  V30 1706 O 147.566 -0.685635 -8.00971 0
M  V30 1707 H 147.298 0.271695 -0.618998 0
M  V30 1708 H 149.852 0.189944 -2.0452 0
M  V30 1709 H 148.082 2.61491 -2.84885 0
M  V30 1710 H 149.771 2.45195 -3.23472 0
M  V30 1711 H 150.537 0.540174 -4.81982 0
M  V30 1712 H 146.416 1.65246 -4.30366 0
M  V30 1713 H 149.96 -0.560213 -6.95347 0
M  V30 1714 H 145.857 0.558354 -6.43081 0
M  V30 1715 H 146.625 -0.58385 -8.16415 0
M  V30 1716 N 149.288 1.51039 0.449983 0
M  V30 1717 C 150.704 1.38934 0.785462 0
M  V30 1718 C 150.904 0.461817 1.96136 0
M  V30 1719 O 149.96 -0.0877389 2.52348 0
M  V30 1720 C 151.273 2.80724 1.0777 0
M  V30 1721 C 152.821 2.89787 1.1829 0
M  V30 1722 C 153.296 4.32457 1.50815 0
M  V30 1723 N 154.787 4.35505 1.57764 0
M  V30 1724 C 155.522 5.42914 1.84477 0
M  V30 1725 N 155.018 6.60502 2.09068 0
M  V30 1726 N 156.811 5.3038 1.86155 0
M  V30 1727 H 148.962 2.09904 -0.324647 0
M  V30 1728 H 151.225 0.944378 -0.0827957 0
M  V30 1729 H 150.931 3.50531 0.286498 0
M  V30 1730 H 150.805 3.19273 2.00859 0
M  V30 1731 H 153.192 2.20186 1.96474 0
M  V30 1732 H 153.273 2.54752 0.231314 0
M  V30 1733 H 152.917 5.02603 0.731622 0
M  V30 1734 H 152.847 4.64995 2.47158 0
M  V30 1735 H 155.338 3.50724 1.40715 0
M  V30 1736 H 155.651 7.38158 2.28785 0
M  V30 1737 H 153.996 6.63639 2.06416 0
M  V30 1738 H 157.187 4.37505 1.66454 0
M  V30 1739 H 157.36 6.1417 2.06637 0
M  V30 1740 N 150.766 -0.704594 1.40972 0
M  V30 1741 C 152.012 -1.46675 1.40051 0
M  V30 1742 C 152.345 -1.94199 0.00641102 0
M  V30 1743 O 151.62 -1.68916 -0.964235 0
M  V30 1744 C 151.903 -2.68505 2.39952 0
M  V30 1745 C 151.756 -2.26805 3.88432 0
M  V30 1746 C 153.075 -3.70686 2.37233 0
M  V30 1747 H 150.194 -0.532015 0.510028 0
M  V30 1748 H 152.836 -0.803255 1.72185 0
M  V30 1749 H 150.986 -3.25114 2.1268 0
M  V30 1750 H 152.658 -1.75592 4.26574 0
M  V30 1751 H 150.901 -1.58685 4.03734 0
M  V30 1752 H 151.572 -3.14181 4.53866 0
M  V30 1753 H 154.048 -3.23731 2.61415 0
M  V30 1754 H 152.924 -4.53553 3.09162 0
M  V30 1755 H 153.185 -4.19754 1.38777 0
M  V30 1756 N 152.244 -1.26651 -0.937939 0
M  V30 1757 C 153.177 -1.02811 -2.03728 0
M  V30 1758 C 154.155 0.0481915 -1.62529 0
M  V30 1759 O 155.339 -0.0948839 -1.88261 0
M  V30 1760 C 152.466 -0.557517 -3.3408 0
M  V30 1761 C 151.512 -1.62686 -3.94253 0
M  V30 1762 S 152.345 -3.21667 -4.28125 0
M  V30 1763 C 153.501 -2.76384 -5.61572 0
M  V30 1764 H 153.734 -1.95891 -2.23638 0
M  V30 1765 H 151.267 -1.10367 -1.07974 0
M  V30 1766 H 153.225 -0.292674 -4.09455 0
M  V30 1767 H 151.886 0.353062 -3.12109 0
M  V30 1768 H 151.079 -1.24866 -4.88287 0
M  V30 1769 H 150.681 -1.84324 -3.25424 0
M  V30 1770 H 152.973 -2.2105 -6.40424 0
M  V30 1771 H 153.916 -3.69123 -6.0428 0
M  V30 1772 H 154.324 -2.15847 -5.21604 0
M  V30 1773 N 153.722 1.14298 -1.08507 0
M  V30 1774 C 154.652 2.21542 -0.737646 0
M  V30 1775 C 155.633 1.67773 0.280377 0
M  V30 1776 O 156.818 1.93616 0.150521 0
M  V30 1777 C 153.948 3.46988 -0.147259 0
M  V30 1778 C 152.902 4.13789 -1.09374 0
M  V30 1779 C 152.228 5.33449 -0.365524 0
M  V30 1780 C 153.528 4.62208 -2.4323 0
M  V30 1781 H 155.222 2.5086 -1.6343 0
M  V30 1782 H 152.768 1.20576 -0.787243 0
M  V30 1783 H 154.721 4.21262 0.107808 0
M  V30 1784 H 153.445 3.17037 0.784538 0
M  V30 1785 H 152.104 3.4147 -1.33393 0
M  V30 1786 H 151.752 4.99759 0.57011 0
M  V30 1787 H 151.452 5.79088 -0.996512 0
M  V30 1788 H 152.976 6.10485 -0.118534 0
M  V30 1789 H 154.39 5.27952 -2.23472 0
M  V30 1790 H 152.787 5.18553 -3.02031 0
M  V30 1791 H 153.857 3.77224 -3.04681 0
M  V30 1792 N 155.201 0.870884 1.31352 0
M  V30 1793 C 156.431 0.496049 2.00557 0
M  V30 1794 C 156.839 -0.916241 1.65534 0
M  V30 1795 O 156.182 -1.61188 0.881134 0
M  V30 1796 C 156.244 0.574418 3.54881 0
M  V30 1797 C 155.908 1.94849 4.1338 0
M  V30 1798 C 156.905 2.91611 4.30417 0
M  V30 1799 C 154.59 2.25005 4.49086 0
M  V30 1800 C 156.584 4.16672 4.82352 0
M  V30 1801 C 154.271 3.50315 5.00722 0
M  V30 1802 C 155.269 4.45964 5.17306 0
M  V30 1803 O 154.957 5.69052 5.67833 0
M  V30 1804 H 154.689 0.191664 0.64826 0
M  V30 1805 H 157.243 1.17409 1.68536 0
M  V30 1806 H 155.473 -0.160549 3.86367 0
M  V30 1807 H 157.162 0.212879 4.05341 0
M  V30 1808 H 157.928 2.69622 4.03149 0
M  V30 1809 H 153.807 1.51332 4.35453 0
M  V30 1810 H 157.351 4.91336 4.95211 0
M  V30 1811 H 153.248 3.72147 5.27424 0
M  V30 1812 H 154.016 5.71236 5.86201 0
M  V30 1813 N 156.679 -1.44442 0.630414 0
M  V30 1814 C 157.611 -2.2892 -0.113347 0
M  V30 1815 C 158.624 -1.41243 -0.80959 0
M  V30 1816 O 159.813 -1.65402 -0.671156 0
M  V30 1817 C 156.913 -3.17594 -1.18266 0
M  V30 1818 C 156.086 -4.33682 -0.569073 0
M  V30 1819 C 155.145 -5.03397 -1.53226 0
M  V30 1820 O 154.171 -5.59438 -1.04967 0
M  V30 1821 N 155.373 -5.04783 -2.86661 0
M  V30 1822 H 158.138 -2.93392 0.611636 0
M  V30 1823 H 155.699 -1.54881 0.471523 0
M  V30 1824 H 157.691 -3.61097 -1.82732 0
M  V30 1825 H 156.261 -2.54876 -1.80988 0
M  V30 1826 H 155.481 -3.9338 0.254187 0
M  V30 1827 H 156.769 -5.08608 -0.139767 0
M  V30 1828 H 156.167 -4.60584 -3.28449 0
M  V30 1829 H 154.724 -5.52077 -3.46489 0
M  V30 1830 N 158.157 -0.370918 -1.53173 0
M  V30 1831 C 159.406 0.218249 -2.00516 0
M  V30 1832 C 159.719 1.49429 -1.26215 0
M  V30 1833 O 160.925 2.16239 -1.64174 0
M  V30 1834 C 159.381 0.43948 -3.57207 0
M  V30 1835 C 158.989 -0.822244 -4.4039 0
M  V30 1836 C 160.733 0.986012 -4.1289 0
M  V30 1837 C 158.64 -0.570304 -5.88644 0
M  V30 1838 H 157.57 0.0853333 -0.749156 0
M  V30 1839 H 160.221 -0.490483 -1.76823 0
M  V30 1840 H 158.603 1.20961 -3.77074 0
M  V30 1841 H 159.777 -1.59557 -4.32294 0
M  V30 1842 H 158.092 -1.29238 -3.95836 0
M  V30 1843 H 160.689 1.18991 -5.21292 0
M  V30 1844 H 161.032 1.94972 -3.6782 0
M  V30 1845 H 161.565 0.27592 -3.96842 0
M  V30 1846 H 158.304 -1.50449 -6.38001 0
M  V30 1847 H 157.824 0.164427 -5.99575 0
M  V30 1848 H 159.503 -0.19784 -6.46697 0
M  V30 1849 N 159.635 1.57281 -0.100228 0
M  V30 1850 C 160.86 1.99302 0.573881 0
M  V30 1851 C 161.285 0.979059 1.60611 0
M  V30 1852 O 160.643 -0.0517803 1.81226 0
M  V30 1853 C 160.691 3.40274 1.19358 0
M  V30 1854 O 159.795 3.41676 2.30935 0
M  V30 1855 H 159.136 0.647944 0.145138 0
M  V30 1856 H 161.666 2.03779 -0.183156 0
M  V30 1857 H 161.676 3.78078 1.53365 0
M  V30 1858 H 160.351 4.13594 0.437385 0
M  V30 1859 H 158.928 3.15672 1.98509 0
M  V30 1860 N 161.113 -0.173488 1.56642 0
M  V30 1861 C 162.023 -1.23482 1.99473 0
M  V30 1862 C 163.039 -1.48567 0.905752 0
M  V30 1863 O 164.215 -1.60758 1.21321 0
M  V30 1864 C 161.28 -2.55444 2.34413 0
M  V30 1865 C 160.341 -2.38241 3.57127 0
M  V30 1866 C 159.574 -3.63909 3.90392 0
M  V30 1867 O 159.797 -4.68996 3.24653 0
M  V30 1868 O 158.731 -3.58149 4.83749 0
M  V30 1869 H 162.557 -0.901279 2.90018 0
M  V30 1870 H 160.142 -0.380185 1.44482 0
M  V30 1871 H 162.024 -3.33292 2.57865 0
M  V30 1872 H 160.699 -2.88382 1.4703 0
M  V30 1873 H 159.606 -1.58431 3.38896 0
M  V30 1874 H 160.939 -2.10228 4.45045 0
M  V30 1875 N 162.591 -1.51276 -0.441967 0
M  V30 1876 C 163.501 -1.75092 -1.56141 0
M  V30 1877 C 164.517 -0.634963 -1.62001 0
M  V30 1878 O 165.693 -0.916686 -1.79329 0
M  V30 1879 C 162.758 -1.86666 -2.92158 0
M  V30 1880 C 161.819 -3.10506 -2.96453 0
M  V30 1881 C 161.052 -3.21519 -4.25982 0
M  V30 1882 O 161.275 -2.38586 -5.18105 0
M  V30 1883 O 160.209 -4.14465 -4.36466 0
M  V30 1884 H 164.035 -2.70044 -1.38961 0
M  V30 1885 H 161.62 -1.35722 -0.624499 0
M  V30 1886 H 163.502 -1.96292 -3.72891 0
M  V30 1887 H 162.177 -0.949014 -3.09476 0
M  V30 1888 H 161.084 -3.06363 -2.14692 0
M  V30 1889 H 162.417 -4.01945 -2.84079 0
M  V30 1890 N 164.069 0.697108 -1.41344 0
M  V30 1891 C 165.315 1.4593 -1.40827 0
M  V30 1892 C 165.648 1.94193 -0.0167098 0
M  V30 1893 O 164.923 1.69425 0.955263 0
M  V30 1894 C 165.206 2.67229 -2.41373 0
M  V30 1895 C 165.059 2.24741 -3.8963 0
M  V30 1896 C 166.378 3.69423 -2.39196 0
M  V30 1897 H 163.497 0.529303 -0.512842 0
M  V30 1898 H 166.139 0.794112 -1.72609 0
M  V30 1899 H 164.289 3.23982 -2.14401 0
M  V30 1900 H 165.961 1.73327 -4.27499 0
M  V30 1901 H 164.204 1.56542 -4.0457 0
M  V30 1902 H 164.875 3.1177 -4.55525 0
M  V30 1903 H 167.351 3.2234 -2.63128 0
M  V30 1904 H 166.227 4.51907 -3.11563 0
M  V30 1905 H 166.488 4.19012 -1.41001 0
M  V30 1906 N 165.547 1.27147 0.931209 0
M  V30 1907 C 166.772 1.16191 1.71797 0
M  V30 1908 C 167.197 -0.278004 1.86034 0
M  V30 1909 O 166.555 -1.20137 1.35782 0
M  V30 1910 C 166.603 1.84673 3.09723 0
M  V30 1911 O 165.707 1.14231 3.96264 0
M  V30 1912 H 165.048 0.404303 0.526721 0
M  V30 1913 H 167.578 1.68152 1.1656 0
M  V30 1914 H 167.588 1.91893 3.60057 0
M  V30 1915 H 166.263 2.89421 2.98677 0
M  V30 1916 H 164.84 1.15056 3.54706 0
M  V30 1917 N 167.025 -1.13721 1.09112 0
M  V30 1918 C 168.441 -1.36914 0.820174 0
M  V30 1919 C 168.641 -1.93356 -0.567079 0
M  V30 1920 O 167.697 -2.15093 -1.32255 0
M  V30 1921 C 169.01 -2.3235 1.90877 0
M  V30 1922 C 170.558 -2.45973 1.93562 0
M  V30 1923 C 171.033 -3.44714 3.01556 0
M  V30 1924 N 172.524 -3.52263 3.00775 0
M  V30 1925 C 173.259 -4.28536 3.80978 0
M  V30 1926 N 172.755 -5.07991 4.71081 0
M  V30 1927 N 174.548 -4.23804 3.69251 0
M  V30 1928 H 166.699 -0.754348 1.98553 0
M  V30 1929 H 168.962 -0.3944 0.862063 0
M  V30 1930 H 168.668 -1.98027 2.90651 0
M  V30 1931 H 168.542 -3.32332 1.78424 0
M  V30 1932 H 170.929 -2.79584 0.944286 0
M  V30 1933 H 171.01 -1.45926 2.10093 0
M  V30 1934 H 170.654 -3.11835 4.00901 0
M  V30 1935 H 170.584 -4.44558 2.82269 0
M  V30 1936 H 173.075 -2.95567 2.35475 0
M  V30 1937 H 173.388 -5.63487 5.28869 0
M  V30 1938 H 171.733 -5.07235 4.75119 0
M  V30 1939 H 174.924 -3.60806 2.98222 0
M  V30 1940 H 175.097 -4.82995 4.31995 0
M  V30 1941 N 168.503 -0.877838 -1.30888 0
M  V30 1942 C 169.728 -0.506629 -2.01117 0
M  V30 1943 C 170.153 0.895564 -1.65412 0
M  V30 1944 O 169.511 1.5923 -0.866922 0
M  V30 1945 C 169.559 -0.680223 -3.54126 0
M  V30 1946 O 168.663 0.277033 -4.11468 0
M  V30 1947 H 168.004 -0.200518 -0.633 0
M  V30 1948 H 170.534 -1.18342 -1.66902 0
M  V30 1949 H 170.544 -0.5765 -4.03907 0
M  V30 1950 H 169.219 -1.70261 -3.79452 0
M  V30 1951 H 167.796 0.127606 -3.72682 0
M  V30 1952 N 169.982 1.44106 -0.638065 0
M  V30 1953 C 170.892 2.34513 0.0637334 0
M  V30 1954 C 171.908 1.53018 0.828346 0
M  V30 1955 O 173.084 1.85723 0.779036 0
M  V30 1956 C 170.149 3.31095 1.02844 0
M  V30 1957 C 169.21 4.28497 0.26244 0
M  V30 1958 C 168.443 5.20465 1.1812 0
M  V30 1959 O 168.666 5.16514 2.42011 0
M  V30 1960 O 167.6 5.98251 0.661774 0
M  V30 1961 H 171.426 2.95989 -0.68003 0
M  V30 1962 H 169.011 1.43994 -0.398252 0
M  V30 1963 H 170.893 3.90526 1.58327 0
M  V30 1964 H 169.568 2.72144 1.7527 0
M  V30 1965 H 168.475 3.72592 -0.335602 0
M  V30 1966 H 169.808 4.90388 -0.421936 0
M  V30 1967 N 171.46 0.379036 1.52974 0
M  V30 1968 C 172.39 -0.452706 2.29069 0
M  V30 1969 C 173.371 -1.07237 1.32039 0
M  V30 1970 O 174.556 -1.08708 1.60923 0
M  V30 1971 C 171.686 -1.5856 3.08992 0
M  V30 1972 C 170.64 -1.0925 4.13822 0
M  V30 1973 C 169.966 -2.31668 4.81907 0
M  V30 1974 C 171.266 -0.167702 5.22031 0
M  V30 1975 H 172.96 0.182181 2.98845 0
M  V30 1976 H 170.506 0.0890592 1.43724 0
M  V30 1977 H 172.459 -2.1742 3.6098 0
M  V30 1978 H 171.183 -2.24792 2.36931 0
M  V30 1979 H 169.842 -0.526494 3.628 0
M  V30 1980 H 169.49 -2.96386 4.06404 0
M  V30 1981 H 169.19 -1.9934 5.52754 0
M  V30 1982 H 170.714 -2.91189 5.36695 0
M  V30 1983 H 172.128 -0.664186 5.6944 0
M  V30 1984 H 170.525 0.0653265 6.00064 0
M  V30 1985 H 171.595 0.786347 4.78482 0
M  V30 1986 N 172.938 -1.57226 0.108567 0
M  V30 1987 C 174.354 -1.5766 -0.248058 0
M  V30 1988 C 174.554 -1.12063 -1.67464 0
M  V30 1989 O 173.61 -0.803236 -2.39383 0
M  V30 1990 C 174.923 -3.0069 -0.0242287 0
M  V30 1991 C 176.471 -3.12868 -0.0909372 0
M  V30 1992 C 176.946 -4.57879 0.105067 0
M  V30 1993 N 178.437 -4.63172 0.0506846 0
M  V30 1994 C 179.172 -5.73126 0.177396 0
M  V30 1995 N 178.668 -6.91866 0.359696 0
M  V30 1996 N 180.461 -5.61977 0.117709 0
M  V30 1997 H 172.612 -1.85169 1.04049 0
M  V30 1998 H 174.875 -0.85529 0.40888 0
M  V30 1999 H 174.581 -3.38299 0.961604 0
M  V30 2000 H 174.455 -3.6945 -0.76068 0
M  V30 2001 H 176.842 -2.75124 -1.06729 0
M  V30 2002 H 176.923 -2.46672 0.677225 0
M  V30 2003 H 176.567 -4.96321 1.07834 0
M  V30 2004 H 176.497 -5.22153 -0.682954 0
M  V30 2005 H 178.988 -3.778 -0.0871266 0
M  V30 2006 H 179.301 -7.71503 0.447529 0
M  V30 2007 H 177.646 -6.93874 0.395536 0
M  V30 2008 H 180.837 -4.68094 -0.0236741 0
M  V30 2009 H 181.01 -6.47627 0.219905 0
M  V30 2010 N 174.416 0.165178 -1.56732 0
M  V30 2011 C 175.641 0.900253 -1.86843 0
M  V30 2012 C 176.066 1.74766 -0.695596 0
M  V30 2013 O 175.424 1.77786 0.35522 0
M  V30 2014 C 175.472 1.74777 -3.15413 0
M  V30 2015 O 174.576 2.85007 -2.98068 0
M  V30 2016 H 173.917 0.251832 -0.614391 0
M  V30 2017 H 176.447 0.161468 -2.03962 0
M  V30 2018 H 176.457 2.14646 -3.46974 0
M  V30 2019 H 175.132 1.12537 -4.00385 0
M  V30 2020 H 173.709 2.48676 -2.77875 0
M  V30 2021 N 175.894 1.51508 0.433938 0
M  V30 2022 C 177.141 1.64345 1.18309 0
M  V30 2023 C 177.469 0.361315 1.91115 0
M  V30 2024 O 176.724 -0.654753 1.84422 0
M  V30 2025 C 177.023 2.79928 2.22205 0
M  V30 2026 C 176.689 4.19078 1.66387 0
M  V30 2027 C 175.351 4.56932 1.50887 0
M  V30 2028 C 177.703 5.05894 1.25381 0
M  V30 2029 C 175.031 5.79305 0.928608 0
M  V30 2030 C 177.383 6.2885 0.687823 0
M  V30 2031 C 176.047 6.65473 0.519755 0
M  V30 2032 H 175.317 0.601381 0.432923 0
M  V30 2033 H 177.964 1.85549 0.473676 0
M  V30 2034 H 176.269 2.52959 2.99197 0
M  V30 2035 H 177.966 2.87059 2.79997 0
M  V30 2036 H 174.556 3.89234 1.79428 0
M  V30 2037 H 178.74 4.77253 1.36175 0
M  V30 2038 H 173.996 6.06324 0.786186 0
M  V30 2039 H 178.17 6.95461 0.361581 0
M  V30 2040 H 175.797 7.6017 0.0679979 0
M  V30 2041 N 177.372 -0.689602 1.41712 0
M  V30 2042 C 178.319 -1.80345 1.44029 0
M  V30 2043 C 179.289 -1.63478 0.293948 0
M  V30 2044 O 180.474 -1.84244 0.495869 0
M  V30 2045 C 177.614 -3.18272 1.33405 0
M  V30 2046 C 176.727 -3.46529 2.57956 0
M  V30 2047 C 175.862 -4.74103 2.39582 0
M  V30 2048 C 174.901 -4.95347 3.5958 0
M  V30 2049 N 174.038 -6.14151 3.40239 0
M  V30 2050 H 178.878 -1.77698 2.39222 0
M  V30 2051 H 176.415 -0.867688 1.18784 0
M  V30 2052 H 178.373 -3.97956 1.25246 0
M  V30 2053 H 177.003 -3.2008 0.418164 0
M  V30 2054 H 176.055 -2.61207 2.76542 0
M  V30 2055 H 177.367 -3.58126 3.47199 0
M  V30 2056 H 176.521 -5.61853 2.28924 0
M  V30 2057 H 175.26 -4.64763 1.47805 0
M  V30 2058 H 174.265 -4.06044 3.70686 0
M  V30 2059 H 175.49 -5.06542 4.52318 0
M  V30 2060 H 173.436 -6.06013 2.51167 0
M  V30 2061 H 173.353 -6.26543 4.23061 0
M  V30 2062 H 174.621 -7.04619 3.33365 0
M  V30 2063 N 178.85 -1.27639 -0.924453 0
M  V30 2064 C 180.097 -1.14167 -1.67249 0
M  V30 2065 C 180.425 0.311863 -1.91984 0
M  V30 2066 O 179.68 1.24425 -1.51053 0
M  V30 2067 C 179.979 -1.87407 -3.04325 0
M  V30 2068 C 179.645 -3.37249 -2.99289 0
M  V30 2069 C 178.307 -3.7812 -2.97622 0
M  V30 2070 C 180.659 -4.32845 -2.90336 0
M  V30 2071 C 177.987 -5.12944 -2.8479 0
M  V30 2072 C 180.339 -5.6773 -2.79045 0
M  V30 2073 C 179.003 -6.07889 -2.7573 0
M  V30 2074 H 178.273 -0.417766 -0.612007 0
M  V30 2075 H 180.92 -1.58286 -1.07786 0
M  V30 2076 H 179.225 -1.35805 -3.67511 0
M  V30 2077 H 180.922 -1.74408 -3.61086 0
M  V30 2078 H 177.512 -3.04748 -3.01374 0
M  V30 2079 H 181.696 -4.02239 -2.90719 0
M  V30 2080 H 176.952 -5.432 -2.80612 0
M  V30 2081 H 181.126 -6.41472 -2.71083 0
M  V30 2082 H 178.753 -7.12314 -2.65544 0
M  V30 2083 N 180.328 1.1314 -1.09713 0
M  V30 2084 C 181.258 2.20748 -0.761102 0
M  V30 2085 C 182.239 1.68061 0.262566 0
M  V30 2086 O 183.424 1.93765 0.129977 0
M  V30 2087 C 180.554 3.46812 -0.184054 0
M  V30 2088 C 179.508 4.12606 -1.13757 0
M  V30 2089 C 178.834 5.33031 -0.422083 0
M  V30 2090 C 180.134 4.59603 -2.48118 0
M  V30 2091 H 181.828 2.49113 -1.66082 0
M  V30 2092 H 179.374 1.19734 -0.799987 0
M  V30 2093 H 181.327 4.21353 0.0631215 0
M  V30 2094 H 180.051 3.17851 0.750868 0
M  V30 2095 H 178.71 3.40036 -1.37007 0
M  V30 2096 H 178.358 5.00335 0.517072 0
M  V30 2097 H 178.058 5.77999 -1.05788 0
M  V30 2098 H 179.582 6.10325 -0.183277 0
M  V30 2099 H 180.996 5.25552 -2.29059 0
M  V30 2100 H 179.393 5.15321 -3.07514 0
M  V30 2101 H 180.463 3.73971 -3.08665 0
M  V30 2102 N 181.806 0.884767 1.30421 0
M  V30 2103 C 182.736 0.367574 2.30589 0
M  V30 2104 C 183.717 -0.549464 1.60981 0
M  V30 2105 O 184.902 -0.46336 1.88591 0
M  V30 2106 C 182.032 -0.418944 3.44764 0
M  V30 2107 C 180.986 0.406316 4.26067 0
M  V30 2108 C 180.312 -0.506793 5.32293 0
M  V30 2109 C 181.612 1.64832 4.95608 0
M  V30 2110 H 183.306 1.20462 2.74097 0
M  V30 2111 H 180.852 0.580695 1.31772 0
M  V30 2112 H 182.805 -0.791395 4.13902 0
M  V30 2113 H 181.529 -1.28964 3.0006 0
M  V30 2114 H 180.188 0.760903 3.58617 0
M  V30 2115 H 179.836 -1.37519 4.83836 0
M  V30 2116 H 179.536 0.0415828 5.87585 0
M  V30 2117 H 181.06 -0.875764 6.04287 0
M  V30 2118 H 182.474 1.34646 5.57264 0
M  V30 2119 H 180.871 2.13688 5.60765 0
M  V30 2120 H 181.941 2.39284 4.21748 0
M  V30 2121 N 183.284 -1.43765 0.645699 0
M  V30 2122 C 184.216 -2.29027 -0.0890605 0
M  V30 2123 C 185.229 -1.42093 -0.794563 0
M  V30 2124 O 186.418 -1.66104 -0.653575 0
M  V30 2125 C 183.518 -3.18831 -1.14891 0
M  V30 2126 C 182.691 -4.34261 -0.523043 0
M  V30 2127 C 181.75 -5.04994 -1.47878 0
M  V30 2128 O 180.776 -5.6052 -0.990277 0
M  V30 2129 N 181.978 -5.07795 -2.81291 0
M  V30 2130 H 184.743 -2.92727 0.64272 0
M  V30 2131 H 182.304 -1.54373 0.487924 0
M  V30 2132 H 184.296 -3.63015 -1.78892 0
M  V30 2133 H 182.866 -2.56782 -1.78275 0
M  V30 2134 H 182.086 -3.93088 0.295896 0
M  V30 2135 H 183.374 -5.08728 -0.0858147 0
M  V30 2136 H 182.772 -4.64042 -3.23546 0
M  V30 2137 H 181.329 -5.55721 -3.40614 0
M  V30 2138 N 184.763 -0.387143 -1.52771 0
M  V30 2139 C 185.673 0.456442 -2.30117 0
M  V30 2140 C 186.689 1.07342 -1.36944 0
M  V30 2141 O 187.865 1.07971 -1.70013 0
M  V30 2142 C 184.93 1.56957 -3.09136 0
M  V30 2143 C 183.991 0.977916 -4.18014 0
M  V30 2144 C 183.224 2.038 -4.93256 0
M  V30 2145 O 183.447 3.25271 -4.68567 0
M  V30 2146 O 182.381 1.6565 -5.78657 0
M  V30 2147 H 186.207 -0.17359 -3.03203 0
M  V30 2148 H 183.792 -0.150919 -1.48636 0
M  V30 2149 H 185.674 2.21628 -3.58412 0
M  V30 2150 H 184.349 2.18461 -2.38865 0
M  V30 2151 H 183.256 0.294525 -3.72939 0
M  V30 2152 H 184.589 0.407128 -4.90513 0
M  V30 2153 N 186.241 1.57166 -0.116904 0
M  V30 2154 C 187.151 2.18745 0.847812 0
M  V30 2155 C 188.167 1.163 1.29423 0
M  V30 2156 O 189.343 1.48761 1.35765 0
M  V30 2157 C 186.408 2.77307 2.0809 0
M  V30 2158 C 185.469 3.94781 1.68661 0
M  V30 2159 C 184.702 4.50541 2.86091 0
M  V30 2160 O 184.925 4.05202 4.01456 0
M  V30 2161 O 183.859 5.41256 2.63298 0
M  V30 2162 H 187.685 3.01632 0.353778 0
M  V30 2163 H 185.27 1.49005 0.108599 0
M  V30 2164 H 187.152 3.14647 2.80313 0
M  V30 2165 H 185.827 1.97452 2.56504 0
M  V30 2166 H 184.734 3.62214 0.935518 0
M  V30 2167 H 186.067 4.76065 1.24991 0
M  V30 2168 N 187.719 -0.156864 1.56817 0
M  V30 2169 C 188.968 -0.869504 1.81996 0
M  V30 2170 C 189.281 -1.82777 0.696545 0
M  V30 2171 O 190.487 -2.58384 0.833658 0
M  V30 2172 C 188.943 -1.59679 3.22538 0
M  V30 2173 C 188.551 -0.681431 4.42787 0
M  V30 2174 C 190.295 -2.2968 3.56997 0
M  V30 2175 C 188.202 -1.40978 5.74351 0
M  V30 2176 H 187.132 -0.328438 0.678708 0
M  V30 2177 H 189.783 -0.1223 1.83092 0
M  V30 2178 H 188.165 -2.38927 3.158 0
M  V30 2179 H 189.339 0.0751166 4.60739 0
M  V30 2180 H 187.654 -0.0903431 4.16302 0
M  V30 2181 H 190.251 -2.84794 4.52544 0
M  V30 2182 H 190.594 -3.05707 2.82576 0
M  V30 2183 H 191.127 -1.57361 3.65352 0
M  V30 2184 H 187.866 -0.691561 6.51842 0
M  V30 2185 H 187.386 -2.13929 5.60352 0
M  V30 2186 H 189.065 -1.95337 6.16808 0
M  V30 2187 N 189.197 -1.51736 -0.425897 0
M  V30 2188 C 190.422 -1.69082 -1.20108 0
M  V30 2189 C 190.847 -0.392398 -1.83962 0
M  V30 2190 O 190.205 0.64858 -1.69302 0
M  V30 2191 C 190.253 -2.81604 -2.25237 0
M  V30 2192 O 189.357 -2.46004 -3.30992 0
M  V30 2193 H 188.698 -0.563408 -0.35138 0
M  V30 2194 H 191.228 -1.98358 -0.501512 0
M  V30 2195 H 191.238 -3.06025 -2.69838 0
M  V30 2196 H 189.913 -3.75817 -1.78142 0
M  V30 2197 H 188.49 -2.32195 -2.91787 0
M  V30 2198 N 190.675 0.682077 -1.42076 0
M  V30 2199 C 191.622 1.79578 -1.44984 0
M  V30 2200 C 192.592 1.6332 -0.302614 0
M  V30 2201 O 193.777 1.83978 -0.505633 0
M  V30 2202 C 190.917 3.1756 -1.35091 0
M  V30 2203 C 190.03 3.45156 -2.59791 0
M  V30 2204 C 189.165 4.72826 -2.42093 0
M  V30 2205 C 188.204 4.93433 -3.62202 0
M  V30 2206 N 187.341 6.12338 -3.43491 0
M  V30 2207 H 192.181 1.76427 -2.40161 0
M  V30 2208 H 189.718 0.861376 -1.19242 0
M  V30 2209 H 191.676 3.97287 -1.27354 0
M  V30 2210 H 190.306 3.19854 -0.435133 0
M  V30 2211 H 189.358 2.59736 -2.77923 0
M  V30 2212 H 190.67 3.5628 -3.49094 0
M  V30 2213 H 189.824 5.60631 -2.319 0
M  V30 2214 H 188.563 4.63973 -1.50268 0
M  V30 2215 H 187.568 4.04073 -3.72834 0
M  V30 2216 H 188.793 5.04136 -4.54998 0
M  V30 2217 H 186.739 6.04672 -2.54377 0
M  V30 2218 H 186.656 6.2429 -4.26377 0
M  V30 2219 H 187.924 7.02841 -3.37097 0
M  V30 2220 N 192.153 1.28127 0.917671 0
M  V30 2221 C 193.393 1.163 1.68088 0
M  V30 2222 C 193.757 -0.284515 1.8988 0
M  V30 2223 O 194.958 -0.525413 2.63615 0
M  V30 2224 C 193.229 1.93546 3.00457 0
M  V30 2225 S 194.788 1.98048 3.91564 0
M  V30 2226 H 191.606 0.415005 0.577315 0
M  V30 2227 H 194.208 1.62173 1.09179 0
M  V30 2228 H 192.912 2.97888 2.82295 0
M  V30 2229 H 192.443 1.48207 3.64415 0
M  V30 2230 H 194.458 1.08415 4.84211 0
M  V30 2231 N 193.631 -1.12557 1.10312 0
M  V30 2232 C 194.578 -2.18247 0.750781 0
M  V30 2233 C 195.548 -1.63853 -0.272293 0
M  V30 2234 O 196.733 -1.90195 -0.151862 0
M  V30 2235 C 193.873 -3.44591 0.187379 0
M  V30 2236 C 192.986 -4.13046 1.2656 0
M  V30 2237 C 192.121 -5.27034 0.663978 0
M  V30 2238 C 191.16 -5.87353 1.72287 0
M  V30 2239 N 190.297 -6.92757 1.1416 0
M  V30 2240 H 195.137 -2.47732 1.65628 0
M  V30 2241 H 192.674 -1.21629 0.827337 0
M  V30 2242 H 194.632 -4.16904 -0.157148 0
M  V30 2243 H 193.262 -3.15527 -0.681355 0
M  V30 2244 H 192.314 -3.38924 1.72727 0
M  V30 2245 H 193.626 -4.53947 2.06721 0
M  V30 2246 H 192.78 -6.06104 0.268824 0
M  V30 2247 H 191.519 -4.87407 -0.169082 0
M  V30 2248 H 190.524 -5.06971 2.12746 0
M  V30 2249 H 191.749 -6.29051 2.55875 0
M  V30 2250 H 189.695 -6.5517 0.329984 0
M  V30 2251 H 189.612 -7.3225 1.88007 0
M  V30 2252 H 190.88 -7.75658 0.772956 0
M  V30 2253 N 195.109 -0.891671 -1.2995 0
M  V30 2254 C 196.039 -0.379797 -2.30391 0
M  V30 2255 C 197.02 0.540919 -1.6127 0
M  V30 2256 O 198.205 0.453352 -1.88834 0
M  V30 2257 C 195.335 0.400654 -3.44981 0
M  V30 2258 C 194.289 -0.428905 -4.25846 0
M  V30 2259 C 193.615 0.478557 -5.32554 0
M  V30 2260 C 194.915 -1.67458 -4.94727 0
M  V30 2261 H 196.609 -1.21914 -2.73454 0
M  V30 2262 H 194.155 -0.587675 -1.31462 0
M  V30 2263 H 196.108 0.769434 -4.14316 0
M  V30 2264 H 194.832 1.27371 -3.0074 0
M  V30 2265 H 193.491 -0.779911 -3.58208 0
M  V30 2266 H 193.139 1.34951 -4.84559 0
M  V30 2267 H 192.839 -0.0727433 -5.87555 0
M  V30 2268 H 194.363 0.843705 -6.04743 0
M  V30 2269 H 195.777 -1.376 -5.56542 0
M  V30 2270 H 194.174 -2.16659 -5.59624 0
M  V30 2271 H 195.244 -2.41518 -4.20473 0
M  V30 2272 N 196.587 1.43421 -0.653314 0
M  V30 2273 C 197.864 1.95361 -0.0966581 0
M  V30 2274 C 198.244 1.59461 1.38331 0
M  V30 2275 O 197.592 0.879777 2.10884 0
M  V30 2276 C 197.802 3.47311 -0.342988 0
M  V30 2277 C 199.15 4.23875 -0.24798 0
M  V30 2278 O 200.174 3.55133 -0.275553 0
M  V30 2279 O 199.033 5.4623 -0.171771 0
M  V30 2280 H 196.127 0.826945 0.00956291 0
M  V30 2281 H 198.673 1.5336 -0.726558 0
M  V30 2282 H 197.445 3.66569 -1.36906 0
M  V30 2283 H 197.068 3.9631 0.319975 0
M  V30 2284 N 198.065 0.39524 1.52563 0
M  V30 2285 C 199.342 -0.242908 1.94086 0
M  V30 2286 C 199.722 -1.63841 1.33114 0
M  V30 2287 O 199.07 -2.22928 0.501529 0
M  V30 2288 C 199.28 -0.26327 3.48006 0
M  V30 2289 C 200.628 -0.489354 4.21771 0
M  V30 2290 O 201.652 -0.343226 3.54543 0
M  V30 2291 O 200.511 -0.776169 5.4096 0
M  V30 2292 H 197.605 -0.152536 0.812811 0
M  V30 2293 H 200.151 0.450178 1.6362 0
M  V30 2294 H 198.923 0.713985 3.84731 0
M  V30 2295 H 198.546 -1.00103 3.84792 0
M  V30 2296 N 199.544 -1.57102 0.125237 0
M  V30 2297 C 200.821 -1.86953 -0.575142 0
M  V30 2298 C 201.201 -1.02749 -1.84407 0
M  V30 2299 O 200.549 -0.108144 -2.28244 0
M  V30 2300 C 200.759 -3.38198 -0.861583 0
M  V30 2301 C 202.107 -4.06937 -1.21192 0
M  V30 2302 O 203.131 -3.43252 -0.951645 0
M  V30 2303 O 201.99 -5.19364 -1.70068 0
M  V30 2304 H 199.084 -0.774147 -0.290906 0
M  V30 2305 H 201.63 -1.68942 0.160211 0
M  V30 2306 H 200.402 -3.91282 0.0373647 0
M  V30 2307 H 200.025 -3.61661 -1.65188 0
M  V30 2308 N 201.022 0.148545 -1.56898 0
M  V30 2309 C 201.955 1.21293 -1.93296 0
M  V30 2310 C 202.933 1.41637 -0.798599 0
M  V30 2311 O 204.117 1.56275 -1.05406 0
M  V30 2312 C 201.244 2.5721 -2.20365 0
M  V30 2313 C 200.29 2.53469 -3.4301 0
M  V30 2314 S 201.123 2.00315 -4.96623 0
M  V30 2315 C 202.279 3.37964 -5.26812 0
M  V30 2316 H 202.512 0.902393 -2.83274 0
M  V30 2317 H 200.045 0.354094 -1.50285 0
M  V30 2318 H 202.003 3.35427 -2.36641 0
M  V30 2319 H 200.664 2.85454 -1.31054 0
M  V30 2320 H 199.857 3.53518 -3.59223 0
M  V30 2321 H 199.459 1.83359 -3.25968 0
M  V30 2322 H 201.751 4.34066 -5.20185 0
M  V30 2323 H 202.694 3.26606 -6.28279 0
M  V30 2324 H 203.102 3.35028 -4.54331 0
M  V30 2325 N 202.5 1.5196 0.417844 0
M  V30 2326 C 203.448 1.75278 1.52907 0
M  V30 2327 C 204.442 0.619611 1.57662 0
M  V30 2328 O 205.648 0.801457 1.61173 0
M  V30 2329 H 202.023 0.554141 0.508362 0
M  V30 2330 H 203.994 2.68389 1.30422 0
M  V30 2331 C 202.743 1.91262 2.90369 0
M  V30 2332 H 202.066 2.77872 2.8745 0
M  V30 2333 H 203.506 2.11581 3.67436 0
M  V30 2334 C 201.965 0.677431 3.30019 0
M  V30 2335 O 202.495 -0.158799 4.01386 0
M  V30 2336 N 200.701 0.515851 2.85985 0
M  V30 2337 H 200.248 1.19744 2.28077 0
M  V30 2338 H 200.206 -0.309315 3.12875 0
M  V30 2339 N 203.978 -0.674533 1.42435 0
M  V30 2340 C 204.908 -1.80009 1.48724 0
M  V30 2341 C 205.889 -1.6659 0.343793 0
M  V30 2342 O 207.074 -1.86007 0.558137 0
M  V30 2343 C 204.204 -3.18306 1.38919 0
M  V30 2344 C 203.158 -3.46461 2.51294 0
M  V30 2345 C 202.484 -4.84335 2.26547 0
M  V30 2346 C 203.784 -3.43328 3.93603 0
M  V30 2347 H 205.478 -1.75004 2.42928 0
M  V30 2348 H 203.024 -0.840533 1.16923 0
M  V30 2349 H 204.977 -3.9678 1.41927 0
M  V30 2350 H 203.701 -3.2399 0.412094 0
M  V30 2351 H 202.36 -2.70348 2.47604 0
M  V30 2352 H 202.008 -4.86669 1.2713 0
M  V30 2353 H 201.708 -5.04136 3.01861 0
M  V30 2354 H 203.232 -5.65094 2.31304 0
M  V30 2355 H 204.646 -4.11772 3.98894 0
M  V30 2356 H 203.043 -3.74664 4.68771 0
M  V30 2357 H 204.113 -2.41897 4.20255 0
M  V30 2358 N 205.456 -1.28612 -0.910864 0
M  V30 2359 C 206.386 -1.15326 -2.03032 0
M  V30 2360 C 207.367 -0.0502924 -1.70026 0
M  V30 2361 O 208.552 -0.227797 -1.92859 0
M  V30 2362 C 205.682 -0.817343 -3.37545 0
M  V30 2363 C 204.636 -1.8754 -3.84724 0
M  V30 2364 C 203.962 -1.39305 -5.16235 0
M  V30 2365 C 205.262 -3.28244 -4.06267 0
M  V30 2366 H 206.956 -2.08975 -2.14406 0
M  V30 2367 H 204.502 -1.00612 -1.03021 0
M  V30 2368 H 206.455 -0.711151 -4.15356 0
M  V30 2369 H 205.179 0.154846 -3.26233 0
M  V30 2370 H 203.838 -1.97079 -3.09121 0
M  V30 2371 H 203.486 -0.409846 -5.01328 0
M  V30 2372 H 203.186 -2.10057 -5.48771 0
M  V30 2373 H 204.71 -1.30014 -5.96598 0
M  V30 2374 H 206.124 -3.21611 -4.74594 0
M  V30 2375 H 204.521 -3.96855 -4.5014 0
M  V30 2376 H 205.591 -3.72048 -3.10979 0
M  V30 2377 N 206.934 1.1197 -1.10907 0
M  V30 2378 C 208.211 1.79959 -0.766432 0
M  V30 2379 C 208.591 1.97466 0.746363 0
M  V30 2380 O 207.939 1.55491 1.67436 0
M  V30 2381 C 208.149 3.14009 -1.52314 0
M  V30 2382 C 209.497 3.89134 -1.69883 0
M  V30 2383 O 210.521 3.2368 -1.48692 0
M  V30 2384 O 209.38 5.06572 -2.05054 0
M  V30 2385 H 206.474 0.779208 -0.277062 0
M  V30 2386 H 209.02 1.18762 -1.21217 0
M  V30 2387 H 207.792 2.96587 -2.55249 0
M  V30 2388 H 207.415 3.82915 -1.07059 0
M  V30 2389 N 208.412 0.89855 1.29475 0
M  V30 2390 C 209.661 0.519863 1.94885 0
M  V30 2391 C 209.974 -0.9383 1.71625 0
M  V30 2392 O 211.18 -1.42445 2.31131 0
M  V30 2393 C 209.636 0.878836 3.49005 0
M  V30 2394 C 209.244 2.35569 3.81066 0
M  V30 2395 C 210.988 0.570004 4.20656 0
M  V30 2396 C 208.895 2.65558 5.28425 0
M  V30 2397 H 207.825 0.190692 0.729488 0
M  V30 2398 H 210.476 1.09539 1.47219 0
M  V30 2399 H 208.858 0.232253 3.95318 0
M  V30 2400 H 210.032 3.04773 3.45616 0
M  V30 2401 H 208.347 2.63343 3.22552 0
M  V30 2402 H 210.944 0.770925 5.29113 0
M  V30 2403 H 211.287 -0.491404 4.1339 0
M  V30 2404 H 211.82 1.17438 3.8007 0
M  V30 2405 H 208.559 3.70493 5.40754 0
M  V30 2406 H 208.079 2.00977 5.65127 0
M  V30 2407 H 209.758 2.51765 5.96006 0
M  V30 2408 N 209.89 -1.43072 0.660911 0
M  V30 2409 C 211.137 -2.01721 0.177445 0
M  V30 2410 C 211.465 -1.5218 -1.21126 0
M  V30 2411 O 210.72 -0.708659 -1.82419 0
M  V30 2412 C 211.019 -3.57103 0.145563 0
M  V30 2413 C 210.685 -4.26021 1.47705 0
M  V30 2414 C 209.347 -4.44563 1.84165 0
M  V30 2415 C 211.699 -4.64983 2.35458 0
M  V30 2416 C 209.027 -4.99334 3.0803 0
M  V30 2417 C 211.379 -5.21127 3.58622 0
M  V30 2418 C 210.043 -5.37884 3.95268 0
M  V30 2419 H 209.313 -0.73815 0.0649317 0
M  V30 2420 H 211.96 -1.71446 0.853144 0
M  V30 2421 H 210.265 -3.86965 -0.61361 0
M  V30 2422 H 211.962 -4.00248 -0.2455 0
M  V30 2423 H 208.552 -4.11939 1.18339 0
M  V30 2424 H 212.736 -4.50343 2.08579 0
M  V30 2425 H 207.992 -5.10493 3.36462 0
M  V30 2426 H 212.166 -5.50262 4.26831 0
M  V30 2427 H 209.793 -5.80089 4.91325 0
M  V30 2428 N 211.368 -0.403325 -1.52352 0
M  V30 2429 C 212.617 0.175668 -2.00934 0
M  V30 2430 C 212.93 1.46718 -1.29356 0
M  V30 2431 O 214.136 2.12708 -1.68724 0
M  V30 2432 C 212.592 0.363612 -3.58058 0
M  V30 2433 C 212.2 -0.915472 -4.38547 0
M  V30 2434 C 213.944 0.89821 -4.14888 0
M  V30 2435 C 211.851 -0.695035 -5.87302 0
M  V30 2436 H 210.781 0.0694234 -0.750797 0
M  V30 2437 H 213.432 -0.527879 -1.75743 0
M  V30 2438 H 211.814 1.12935 -3.79555 0
M  V30 2439 H 212.988 -1.68691 -4.28812 0
M  V30 2440 H 211.303 -1.37606 -3.93006 0
M  V30 2441 H 213.9 1.07907 -5.23699 0
M  V30 2442 H 214.243 1.87126 -3.71873 0
M  V30 2443 H 214.776 0.191681 -3.97338 0
M  V30 2444 H 211.515 -1.63948 -6.34666 0
M  V30 2445 H 211.035 0.0372116 -5.99788 0
M  V30 2446 H 212.714 -0.33497 -6.46132 0
M  V30 2447 N 212.846 1.57033 -0.133567 0
M  V30 2448 C 213.756 2.19632 0.824564 0
M  V30 2449 C 214.772 1.17666 1.28182 0
M  V30 2450 O 215.948 1.50193 1.3418 0
M  V30 2451 C 213.013 2.79499 2.05137 0
M  V30 2452 C 212.074 3.96548 1.64464 0
M  V30 2453 C 211.307 4.5355 2.81297 0
M  V30 2454 O 211.53 4.09438 3.97136 0
M  V30 2455 O 210.464 5.44018 2.57542 0
M  V30 2456 H 214.29 3.01991 0.321766 0
M  V30 2457 H 211.875 1.49112 0.0927889 0
M  V30 2458 H 213.757 3.17602 2.7696 0
M  V30 2459 H 212.432 2.00162 2.54395 0
M  V30 2460 H 211.339 3.63186 0.897048 0
M  V30 2461 H 212.672 4.77364 1.19934 0
M  V30 2462 N 214.325 -0.140222 1.56975 0
M  V30 2463 C 215.258 -1.20266 1.93936 0
M  V30 2464 C 216.236 -1.41212 0.806099 0
M  V30 2465 O 217.42 -1.55713 1.06234 0
M  V30 2466 C 214.547 -2.56037 2.21726 0
M  V30 2467 C 213.593 -2.51646 3.44349 0
M  V30 2468 S 214.426 -1.97678 4.97678 0
M  V30 2469 C 215.582 -3.35165 5.28597 0
M  V30 2470 H 215.815 -0.887358 2.83749 0
M  V30 2471 H 213.348 -0.346119 1.50471 0
M  V30 2472 H 215.306 -3.34167 2.38416 0
M  V30 2473 H 213.967 -2.84755 1.32566 0
M  V30 2474 H 213.16 -3.51608 3.61092 0
M  V30 2475 H 212.762 -1.81628 3.26936 0
M  V30 2476 H 215.054 -4.31302 5.2248 0
M  V30 2477 H 215.997 -3.23269 6.30002 0
M  V30 2478 H 216.405 -3.32614 4.56101 0
M  V30 2479 N 215.803 -1.52179 -0.40978 0
M  V30 2480 C 216.713 -1.78364 -1.52392 0
M  V30 2481 C 217.729 -0.669183 -1.60617 0
M  V30 2482 O 218.905 -0.954518 -1.77344 0
M  V30 2483 C 215.97 -1.92822 -2.88133 0
M  V30 2484 C 215.031 -3.16725 -2.898 0
M  V30 2485 C 214.264 -3.30483 -4.19067 0
M  V30 2486 O 214.487 -2.49522 -5.12928 0
M  V30 2487 O 213.421 -4.2363 -4.27576 0
M  V30 2488 H 217.247 -2.72931 -1.33201 0
M  V30 2489 H 214.832 -1.37016 -0.59557 0
M  V30 2490 H 216.714 -2.04157 -3.68643 0
M  V30 2491 H 215.389 -1.01444 -3.07393 0
M  V30 2492 H 214.296 -3.10848 -2.08146 0
M  V30 2493 H 215.629 -4.07881 -2.75489 0
M  V30 2494 N 217.281 0.66697 -1.42791 0
M  V30 2495 C 218.228 1.7803 -1.4688 0
M  V30 2496 C 219.198 1.6299 -0.319919 0
M  V30 2497 O 220.383 1.83432 -0.525118 0
M  V30 2498 C 217.523 3.1611 -1.38451 0
M  V30 2499 C 216.636 3.42381 -2.63437 0
M  V30 2500 C 215.771 4.70232 -2.47094 0
M  V30 2501 C 214.81 4.89564 -3.67415 0
M  V30 2502 N 213.947 6.08661 -3.49966 0
M  V30 2503 H 218.787 1.7387 -2.42019 0
M  V30 2504 H 216.324 0.84868 -1.20149 0
M  V30 2505 H 218.282 3.95914 -1.31561 0
M  V30 2506 H 216.912 3.19374 -0.469033 0
M  V30 2507 H 215.964 2.56774 -2.80662 0
M  V30 2508 H 217.276 3.52557 -3.52853 0
M  V30 2509 H 216.43 5.5814 -2.37834 0
M  V30 2510 H 215.169 4.62353 -1.5518 0
M  V30 2511 H 214.174 4.00096 -3.77099 0
M  V30 2512 H 215.399 4.99282 -4.6032 0
M  V30 2513 H 213.345 6.0194 -2.60776 0
M  V30 2514 H 213.262 6.19733 -4.32975 0
M  V30 2515 H 214.53 6.99226 -3.44532 0
M  V30 2516 N 218.759 1.29093 0.90403 0
M  V30 2517 C 220.175 1.07011 1.1841 0
M  V30 2518 C 220.375 -0.181358 2.00682 0
M  V30 2519 O 219.431 -0.880331 2.36657 0
M  V30 2520 C 220.744 2.32311 1.90924 0
M  V30 2521 C 222.292 2.37587 2.03768 0
M  V30 2522 C 222.767 3.62679 2.79693 0
M  V30 2523 N 224.258 3.63376 2.87249 0
M  V30 2524 C 224.993 4.56848 3.46522 0
M  V30 2525 N 224.489 5.60648 4.06996 0
M  V30 2526 N 226.282 4.44426 3.44154 0
M  V30 2527 H 218.433 2.09412 0.354993 0
M  V30 2528 H 220.696 0.922181 0.219742 0
M  V30 2529 H 220.402 3.23536 1.37905 0
M  V30 2530 H 220.276 2.39483 2.91424 0
M  V30 2531 H 222.663 1.46853 2.55965 0
M  V30 2532 H 222.744 2.34403 1.02415 0
M  V30 2533 H 222.388 4.53762 2.28173 0
M  V30 2534 H 222.318 3.63119 3.81381 0
M  V30 2535 H 224.809 2.88321 2.44293 0
M  V30 2536 H 225.122 6.28101 4.50232 0
M  V30 2537 H 223.467 5.64463 4.05471 0
M  V30 2538 H 226.658 3.62529 2.96126 0
M  V30 2539 H 226.831 5.17457 3.90054 0
M  V30 2540 N 220.237 -1.11381 1.11499 0
M  V30 2541 C 221.483 -1.83403 0.865512 0
M  V30 2542 C 221.816 -1.84459 -0.607329 0
M  V30 2543 O 221.091 -1.29811 -1.44842 0
M  V30 2544 C 221.374 -3.30552 1.42855 0
M  V30 2545 C 221.227 -3.37886 2.96906 0
M  V30 2546 C 222.546 -4.26643 1.08 0
M  V30 2547 H 219.665 -0.665879 0.31587 0
M  V30 2548 H 222.307 -1.30601 1.37998 0
M  V30 2549 H 220.457 -3.75648 0.990985 0
M  V30 2550 H 222.129 -3.01343 3.49271 0
M  V30 2551 H 220.372 -2.78088 3.32941 0
M  V30 2552 H 221.043 -4.41458 3.31389 0
M  V30 2553 H 223.519 -3.89729 1.45775 0
M  V30 2554 H 222.395 -5.27986 1.50072 0
M  V30 2555 H 222.656 -4.42099 -0.00915037 0
M  V30 2556 N 221.715 -0.905404 -1.28997 0
M  V30 2557 C 222.964 -0.530191 -1.94607 0
M  V30 2558 C 223.277 0.929185 -1.72121 0
M  V30 2559 O 224.483 1.41218 -2.31883 0
M  V30 2560 C 222.939 -0.897333 -3.48534 0
M  V30 2561 C 222.547 -2.37587 -3.79811 0
M  V30 2562 C 224.291 -0.592304 -4.20347 0
M  V30 2563 C 222.198 -2.68357 -5.27009 0
M  V30 2564 H 221.128 -0.194558 -0.728466 0
M  V30 2565 H 223.779 -1.10318 -1.46636 0
M  V30 2566 H 222.161 -0.253214 -3.9519 0
M  V30 2567 H 223.335 -3.06602 -3.43994 0
M  V30 2568 H 221.65 -2.6505 -3.2115 0
M  V30 2569 H 224.247 -0.798975 -5.28697 0
M  V30 2570 H 224.59 0.469474 -4.13644 0
M  V30 2571 H 225.123 -1.19452 -3.79442 0
M  V30 2572 H 221.862 -3.73355 -5.38782 0
M  V30 2573 H 221.382 -2.03971 -5.64053 0
M  V30 2574 H 223.061 -2.54922 -5.94663 0
M  V30 2575 N 223.193 1.4272 -0.668489 0
M  V30 2576 C 224.123 2.335 -0.000100175 0
M  V30 2577 C 225.104 1.50328 0.795964 0
M  V30 2578 O 226.289 1.78949 0.754385 0
M  V30 2579 C 223.419 3.33874 0.956302 0
M  V30 2580 C 222.373 4.27152 0.269278 0
M  V30 2581 C 221.699 5.17684 1.33818 0
M  V30 2582 C 222.999 5.15373 -0.847805 0
M  V30 2583 H 224.693 2.89639 -0.758244 0
M  V30 2584 H 222.239 1.39269 -0.366079 0
M  V30 2585 H 224.192 3.9629 1.43292 0
M  V30 2586 H 222.916 2.76025 1.74579 0
M  V30 2587 H 221.575 3.66123 -0.187042 0
M  V30 2588 H 221.223 4.56165 2.1195 0
M  V30 2589 H 220.923 5.80918 0.883659 0
M  V30 2590 H 222.447 5.82974 1.81586 0
M  V30 2591 H 223.861 5.7151 -0.452681 0
M  V30 2592 H 222.258 5.87407 -1.22773 0
M  V30 2593 H 223.328 4.5415 -1.69929 0
M  V30 2594 N 224.671 0.411399 1.52136 0
M  V30 2595 C 225.919 -0.163322 2.01439 0
M  V30 2596 C 226.24 -1.45453 1.29879 0
M  V30 2597 O 225.51 -1.91225 0.4254 0
M  V30 2598 H 224.09 -0.0633447 0.744309 0
M  V30 2599 H 226.752 0.548161 1.87033 0
M  V30 2600 H 225.848 -0.357817 3.10042 0
M  V30 2601 N 226.149 -1.5696 0.141893 0
M  V30 2602 C 227.059 -2.20066 -0.812905 0
M  V30 2603 C 228.075 -1.18344 -1.27557 0
M  V30 2604 O 229.251 -1.50902 -1.33381 0
M  V30 2605 C 226.316 -2.80583 -2.03652 0
M  V30 2606 C 225.377 -3.97414 -1.62359 0
M  V30 2607 C 224.61 -4.55036 -2.78887 0
M  V30 2608 O 224.833 -4.11538 -3.94959 0
M  V30 2609 O 223.767 -5.45376 -2.54653 0
M  V30 2610 H 227.593 -3.02157 -0.305746 0
M  V30 2611 H 225.178 -1.49159 -0.0848799 0
M  V30 2612 H 227.06 -3.19067 -2.75272 0
M  V30 2613 H 225.735 -2.01508 -2.5333 0
M  V30 2614 H 224.642 -3.63656 -0.877775 0
M  V30 2615 H 225.975 -4.77994 -1.17401 0
M  V30 2616 N 227.627 0.131896 -1.57047 0
M  V30 2617 C 228.875 0.840269 -1.83804 0
M  V30 2618 C 229.196 1.81017 -0.72512 0
M  V30 2619 O 228.466 1.94272 0.251995 0
M  V30 2620 H 227.046 0.313294 -0.678127 0
M  V30 2621 H 229.708 0.122294 -1.94516 0
M  V30 2622 H 228.804 1.39335 -2.79271 0
M  V30 2623 N 229.106 1.52395 0.401703 0
M  V30 2624 C 230.053 1.76268 1.48991 0
M  V30 2625 C 231.023 0.605386 1.54675 0
M  V30 2626 O 232.208 0.843742 1.7113 0
M  V30 2627 C 229.348 1.92592 2.86361 0
M  V30 2628 C 228.461 3.20259 2.89928 0
M  V30 2629 C 227.596 3.26972 4.18644 0
M  V30 2630 C 226.635 4.48812 4.16214 0
M  V30 2631 N 225.772 4.52877 5.36514 0
M  V30 2632 H 230.612 2.6914 1.27935 0
M  V30 2633 H 228.149 1.33355 0.620871 0
M  V30 2634 H 230.107 2.0004 3.66115 0
M  V30 2635 H 228.737 1.03093 3.05895 0
M  V30 2636 H 227.789 3.21945 2.02621 0
M  V30 2637 H 229.101 4.10056 2.83999 0
M  V30 2638 H 228.255 3.33533 5.06794 0
M  V30 2639 H 226.994 2.35126 4.27278 0
M  V30 2640 H 225.999 4.4239 3.26453 0
M  V30 2641 H 227.224 5.41961 4.09213 0
M  V30 2642 H 225.17 3.63917 5.45802 0
M  V30 2643 H 225.087 5.36529 5.32609 0
M  V30 2644 H 226.355 4.63676 6.26597 0
M  V30 2645 N 230.584 -0.659388 1.43143 0
M  V30 2646 C 231.514 -1.78422 1.50625 0
M  V30 2647 C 232.495 -1.66216 0.361443 0
M  V30 2648 O 233.68 -1.85404 0.577834 0
M  V30 2649 C 230.81 -3.16815 1.42287 0
M  V30 2650 C 229.764 -3.43777 2.54954 0
M  V30 2651 C 229.09 -4.81905 2.31671 0
M  V30 2652 C 230.39 -3.39134 3.97222 0
M  V30 2653 H 232.084 -1.72417 2.44771 0
M  V30 2654 H 229.63 -0.828084 1.17808 0
M  V30 2655 H 231.583 -3.95253 1.46127 0
M  V30 2656 H 230.307 -3.23534 0.446435 0
M  V30 2657 H 228.966 -2.67707 2.50457 0
M  V30 2658 H 228.614 -4.85294 1.32284 0
M  V30 2659 H 228.314 -5.00906 3.07192 0
M  V30 2660 H 229.838 -5.62609 2.37284 0
M  V30 2661 H 231.252 -4.07518 4.03239 0
M  V30 2662 H 229.649 -3.69671 4.72719 0
M  V30 2663 H 230.719 -2.37426 4.22797 0
M  V30 2664 N 232.062 -1.29571 -0.897171 0
M  V30 2665 C 233.339 -1.08365 -1.62839 0
M  V30 2666 C 233.719 0.371331 -2.07808 0
M  V30 2667 O 233.067 1.3606 -1.83576 0
M  V30 2668 C 233.277 -2.0735 -2.80726 0
M  V30 2669 C 234.625 -2.38406 -3.51351 0
M  V30 2670 O 235.649 -2.05564 -2.90898 0
M  V30 2671 O 234.508 -2.9453 -4.60341 0
M  V30 2672 H 231.602 -0.415345 -0.715134 0
M  V30 2673 H 234.148 -1.40952 -0.945018 0
M  V30 2674 H 232.92 -3.05339 -2.44711 0
M  V30 2675 H 232.543 -1.75507 -3.56767 0
M  V30 2676 N 233.54 1.10788 -1.12088 0
M  V30 2677 C 234.789 1.82036 -0.868659 0
M  V30 2678 C 235.102 1.85929 0.607426 0
M  V30 2679 O 236.308 2.53346 0.97613 0
M  V30 2680 C 234.764 3.26951 -1.50435 0
M  V30 2681 C 234.372 3.31367 -3.01496 0
M  V30 2682 C 236.116 4.03053 -1.33225 0
M  V30 2683 C 234.023 4.7072 -3.58017 0
M  V30 2684 H 232.953 0.682108 -0.321318 0
M  V30 2685 H 235.604 1.24618 -1.34694 0
M  V30 2686 H 233.986 3.84343 -0.953735 0
M  V30 2687 H 235.16 2.83819 -3.6302 0
M  V30 2688 H 233.475 2.6875 -3.18061 0
M  V30 2689 H 236.072 5.05981 -1.72878 0
M  V30 2690 H 236.415 4.15387 -0.275529 0
M  V30 2691 H 236.948 3.52066 -1.85188 0
M  V30 2692 H 233.687 4.63585 -4.63432 0
M  V30 2693 H 233.207 5.1865 -3.01268 0
M  V30 2694 H 234.886 5.39685 -3.56859 0
M  V30 2695 N 235.018 0.912232 1.28515 0
M  V30 2696 C 235.948 0.416403 2.29757 0
M  V30 2697 C 236.929 -0.515194 1.6211 0
M  V30 2698 O 238.114 -0.423253 1.89532 0
M  V30 2699 C 235.244 -0.34572 3.45575 0
M  V30 2700 C 234.198 0.496599 4.25109 0
M  V30 2701 C 233.524 -0.393771 5.33248 0
M  V30 2702 C 234.824 1.75307 4.92001 0
M  V30 2703 H 236.518 1.26249 2.7148 0
M  V30 2704 H 234.064 0.608515 1.30511 0
M  V30 2705 H 236.017 -0.703422 4.15488 0
M  V30 2706 H 234.741 -1.2257 3.02728 0
M  V30 2707 H 233.4 0.8368 3.56922 0
M  V30 2708 H 233.048 -1.27225 4.86644 0
M  V30 2709 H 232.748 0.166209 5.87365 0
M  V30 2710 H 234.272 -0.747389 6.06009 0
M  V30 2711 H 235.686 1.46437 5.54283 0
M  V30 2712 H 234.083 2.25534 5.56106 0
M  V30 2713 H 235.153 2.48176 4.16577 0
M  V30 2714 N 236.496 -1.42363 0.676048 0
M  V30 2715 C 237.443 -2.308 -0.00150904 0
M  V30 2716 C 238.413 -1.46032 -0.791444 0
M  V30 2717 O 239.598 -1.74861 -0.76344 0
M  V30 2718 C 236.738 -3.31883 -0.945919 0
M  V30 2719 C 235.851 -4.31741 -0.149675 0
M  V30 2720 C 234.986 -5.19898 -1.08995 0
M  V30 2721 C 234.025 -6.11434 -0.285465 0
M  V30 2722 N 233.162 -6.92138 -1.17851 0
M  V30 2723 H 238.002 -2.88187 0.758455 0
M  V30 2724 H 235.539 -1.41952 0.38576 0
M  V30 2725 H 237.497 -3.89019 -1.50731 0
M  V30 2726 H 236.127 -2.76093 -1.6725 0
M  V30 2727 H 235.179 -3.76713 0.528359 0
M  V30 2728 H 236.491 -4.96534 0.474866 0
M  V30 2729 H 235.645 -5.81772 -1.72123 0
M  V30 2730 H 234.384 -4.55284 -1.74837 0
M  V30 2731 H 233.389 -5.48627 0.359018 0
M  V30 2732 H 234.614 -6.78097 0.368883 0
M  V30 2733 H 232.56 -6.30152 -1.82332 0
M  V30 2734 H 232.477 -7.53542 -0.609082 0
M  V30 2735 H 233.745 -7.58499 -1.79722 0
M  V30 2736 N 237.974 -0.419461 -1.51915 0
M  V30 2737 C 239.39 -0.0708431 -1.59443 0
M  V30 2738 C 239.59 1.41796 -1.43164 0
M  V30 2739 O 238.646 2.18596 -1.26381 0
M  V30 2740 C 239.959 -0.574991 -2.95151 0
M  V30 2741 C 241.507 -0.533867 -3.08413 0
M  V30 2742 C 241.982 -1.01469 -4.46618 0
M  V30 2743 N 243.473 -0.971939 -4.52888 0
M  V30 2744 C 244.208 -1.31505 -5.58116 0
M  V30 2745 N 243.704 -1.73014 -6.70849 0
M  V30 2746 N 245.497 -1.23436 -5.48379 0
M  V30 2747 H 237.648 -1.38836 -1.60743 0
M  V30 2748 H 239.911 -0.570998 -0.756747 0
M  V30 2749 H 239.617 -1.61597 -3.12377 0
M  V30 2750 H 239.491 0.00979777 -3.77199 0
M  V30 2751 H 241.878 0.498086 -2.90866 0
M  V30 2752 H 241.959 -1.15484 -2.28248 0
M  V30 2753 H 241.603 -2.04502 -4.6491 0
M  V30 2754 H 241.533 -0.370433 -5.25295 0
M  V30 2755 H 244.024 -0.666893 -3.71969 0
M  V30 2756 H 244.337 -1.97479 -7.47143 0
M  V30 2757 H 242.682 -1.76926 -6.72103 0
M  V30 2758 H 245.873 -0.908869 -4.59192 0
M  V30 2759 H 246.046 -1.50506 -6.30279 0
M  V30 2760 N 239.452 1.56882 -0.150215 0
M  V30 2761 C 240.698 1.96518 0.500834 0
M  V30 2762 C 241.031 1.03527 1.64304 0
M  V30 2763 O 240.306 0.0782751 1.94342 0
M  V30 2764 C 240.589 3.45822 1.00395 0
M  V30 2765 C 240.442 4.49591 -0.136983 0
M  V30 2766 C 241.761 3.97704 1.88467 0
M  V30 2767 H 238.88 0.714535 0.18058 0
M  V30 2768 H 241.522 1.88577 -0.232091 0
M  V30 2769 H 239.672 3.5272 1.62851 0
M  V30 2770 H 241.344 4.5477 -0.77343 0
M  V30 2771 H 239.587 4.26441 -0.795652 0
M  V30 2772 H 240.258 5.51402 0.256815 0
M  V30 2773 H 242.734 3.93304 1.35834 0
M  V30 2774 H 241.61 5.0263 2.20578 0
M  V30 2775 H 241.871 3.40252 2.82279 0
M  V30 2776 N 240.93 -0.123565 1.57115 0
M  V30 2777 C 242.17 -0.838097 1.86428 0
M  V30 2778 C 242.534 -1.77266 0.737611 0
M  V30 2779 O 243.735 -2.52842 0.912389 0
M  V30 2780 C 242.006 -1.57219 3.20962 0
M  V30 2781 S 243.565 -2.32893 3.71896 0
M  V30 2782 H 240.383 -0.279811 0.653626 0
M  V30 2783 H 242.985 -0.0967034 1.95261 0
M  V30 2784 H 241.689 -0.877522 4.00909 0
M  V30 2785 H 241.22 -2.35405 3.15195 0
M  V30 2786 H 243.235 -3.5853 3.43032 0
M  V30 2787 N 242.408 -1.52605 -0.393616 0
M  V30 2788 C 243.371 -1.76415 -1.46323 0
M  V30 2789 C 244.371 -0.634126 -1.47768 0
M  V30 2790 O 245.561 -0.902142 -1.4902 0
M  V30 2791 C 242.693 -1.8607 -2.85641 0
M  V30 2792 H 243.886 -2.71916 -1.26498 0
M  V30 2793 H 241.439 -1.43257 -0.625073 0
M  V30 2794 H 242.174 -0.925378 -3.10817 0
M  V30 2795 H 241.959 -2.68235 -2.85993 0
M  V30 2796 H 243.449 -2.06179 -3.63153 0
M  V30 2797 N 243.887 0.651787 -1.4349 0
M  V30 2798 C 244.819 1.77725 -1.44729 0
M  V30 2799 C 245.832 1.59141 -0.343231 0
M  V30 2800 O 247.021 1.67835 -0.607751 0
M  V30 2801 C 244.121 3.15172 -1.24579 0
M  V30 2802 C 243.294 3.60402 -2.47849 0
M  V30 2803 C 242.353 4.76656 -2.22902 0
M  V30 2804 O 241.379 4.86022 -2.96263 0
M  V30 2805 N 242.581 5.66958 -1.24656 0
M  V30 2806 H 245.346 1.77141 -2.41746 0
M  V30 2807 H 242.907 0.835678 -1.38665 0
M  V30 2808 H 244.899 3.90634 -1.0577 0
M  V30 2809 H 243.469 3.1052 -0.360015 0
M  V30 2810 H 242.689 2.75369 -2.82073 0
M  V30 2811 H 243.977 3.87368 -3.29884 0
M  V30 2812 H 243.375 5.62065 -0.640265 0
M  V30 2813 H 241.932 6.42135 -1.1183 0
M  V30 2814 N 245.365 1.30045 0.890287 0
M  V30 2815 C 246.614 1.17929 1.63633 0
M  V30 2816 C 246.927 -0.266204 1.9378 0
M  V30 2817 O 248.133 -0.508804 2.6669 0
M  V30 2818 C 246.589 2.06317 2.94892 0
M  V30 2819 C 246.197 3.55745 2.72305 0
M  V30 2820 C 247.941 2.0295 3.72843 0
M  V30 2821 C 245.848 4.36205 3.99348 0
M  V30 2822 H 244.778 0.437782 0.613892 0
M  V30 2823 H 247.429 1.54754 0.986075 0
M  V30 2824 H 245.811 1.6237 3.61182 0
M  V30 2825 H 246.985 4.07805 2.1455 0
M  V30 2826 H 245.3 3.6088 2.07737 0
M  V30 2827 H 247.897 2.60319 4.67053 0
M  V30 2828 H 248.24 1.0117 4.0382 0
M  V30 2829 H 248.773 2.4499 3.13408 0
M  V30 2830 H 245.512 5.38659 3.73533 0
M  V30 2831 H 245.032 3.8891 4.56628 0
M  V30 2832 H 246.711 4.47362 4.67415 0
M  V30 2833 N 246.843 -1.10192 1.12674 0
M  V30 2834 C 247.791 -2.18694 0.792196 0
M  V30 2835 C 248.785 -1.67938 -0.222058 0
M  V30 2836 O 249.991 -1.79822 -0.0800074 0
M  V30 2837 H 246.366 -0.713223 0.238364 0
M  V30 2838 H 248.337 -2.44149 1.71564 0
M  V30 2839 C 247.086 -3.46682 0.265859 0
M  V30 2840 H 246.409 -3.86101 1.03761 0
M  V30 2841 H 247.849 -4.23942 0.0701128 0
M  V30 2842 C 246.308 -3.21506 -1.00675 0
M  V30 2843 O 246.838 -3.43408 -2.08408 0
M  V30 2844 N 245.044 -2.75158 -0.934692 0
M  V30 2845 H 244.591 -2.57535 -0.0578604 0
M  V30 2846 H 244.549 -2.58691 -1.7868 0
M  V30 2847 N 248.321 -0.919034 -1.28029 0
M  V30 2848 C 249.268 -0.410005 -2.27129 0
M  V30 2849 C 250.238 0.518405 -1.57803 0
M  V30 2850 O 251.423 0.439451 -1.8567 0
M  V30 2851 C 248.563 0.339054 -3.4343 0
M  V30 2852 C 247.676 -0.622468 -4.27492 0
M  V30 2853 C 246.811 0.145567 -5.31001 0
M  V30 2854 C 245.85 -0.809226 -6.06727 0
M  V30 2855 N 244.987 -0.0743728 -7.02061 0
M  V30 2856 H 249.827 -1.26011 -2.70047 0
M  V30 2857 H 247.364 -0.632663 -1.328 0
M  V30 2858 H 249.322 0.789586 -4.0966 0
M  V30 2859 H 247.952 1.15346 -3.01488 0
M  V30 2860 H 247.004 -1.19153 -3.61257 0
M  V30 2861 H 248.316 -1.35252 -4.80113 0
M  V30 2862 H 247.47 0.656417 -6.03139 0
M  V30 2863 H 246.209 0.908643 -4.79161 0
M  V30 2864 H 245.214 -1.3314 -5.33436 0
M  V30 2865 H 246.439 -1.57194 -6.60656 0
M  V30 2866 H 244.385 0.670616 -6.52563 0
M  V30 2867 H 244.302 -0.744157 -7.52329 0
M  V30 2868 H 245.57 0.416109 -7.78389 0
M  V30 2869 N 249.799 1.42003 -0.683588 0
M  V30 2870 C 251.024 2.06265 -0.216647 0
M  V30 2871 C 251.449 1.51059 1.12083 0
M  V30 2872 O 250.807 0.632638 1.69904 0
M  V30 2873 C 250.855 3.60191 -0.171759 0
M  V30 2874 O 249.959 4.03396 0.857069 0
M  V30 2875 H 249.3 0.65502 -0.108834 0
M  V30 2876 H 251.83 1.81982 -0.935077 0
M  V30 2877 H 251.84 4.08 0.0014303 0
M  V30 2878 H 250.515 3.99743 -1.14796 0
M  V30 2879 H 249.092 3.67117 0.654208 0
M  V30 2880 N 251.277 0.427512 1.51691 0
M  V30 2881 C 252.207 -0.3796 2.30394 0
M  V30 2882 C 253.188 -1.02982 1.35384 0
M  V30 2883 O 254.373 -1.03534 1.643 0
M  V30 2884 C 251.503 -1.48649 3.1388 0
M  V30 2885 C 250.457 -0.960294 4.17088 0
M  V30 2886 C 249.783 -2.16219 4.89033 0
M  V30 2887 C 251.083 -0.00153679 5.223 0
M  V30 2888 H 252.777 0.277164 2.98114 0
M  V30 2889 H 250.323 0.134739 1.43368 0
M  V30 2890 H 252.276 -2.05826 3.67714 0
M  V30 2891 H 251 -2.1714 2.43962 0
M  V30 2892 H 249.659 -0.410806 3.64291 0
M  V30 2893 H 249.307 -2.83307 4.15628 0
M  V30 2894 H 249.007 -1.81654 5.58816 0
M  V30 2895 H 250.531 -2.73968 5.45687 0
M  V30 2896 H 251.945 -0.482687 5.71264 0
M  V30 2897 H 250.342 0.256199 5.99553 0
M  V30 2898 H 251.412 0.938174 4.75738 0
M  V30 2899 N 252.755 -1.56801 0.158532 0
M  V30 2900 C 253.685 -2.20347 -0.772609 0
M  V30 2901 C 254.666 -1.15518 -1.24859 0
M  V30 2902 O 255.851 -1.43902 -1.30406 0
M  V30 2903 C 252.981 -2.83417 -2.00729 0
M  V30 2904 C 251.935 -3.94174 -1.66765 0
M  V30 2905 C 251.261 -4.44233 -2.97592 0
M  V30 2906 C 252.561 -5.14392 -0.905447 0
M  V30 2907 H 254.255 -2.98413 -0.242959 0
M  V30 2908 H 251.801 -1.43537 -0.115419 0
M  V30 2909 H 253.754 -3.26543 -2.6636 0
M  V30 2910 H 252.478 -2.02701 -2.56086 0
M  V30 2911 H 251.137 -3.51684 -1.03508 0
M  V30 2912 H 250.785 -3.60325 -3.50963 0
M  V30 2913 H 250.485 -5.18945 -2.75626 0
M  V30 2914 H 252.009 -4.90037 -3.64274 0
M  V30 2915 H 253.423 -5.5429 -1.46408 0
M  V30 2916 H 251.82 -5.9494 -0.7853 0
M  V30 2917 H 252.89 -4.84795 0.100668 0
M  V30 2918 N 254.233 0.115231 -1.57178 0
M  V30 2919 C 255.18 1.14115 -2.00615 0
M  V30 2920 C 256.15 1.40939 -0.878941 0
M  V30 2921 O 257.335 1.52741 -1.14345 0
M  V30 2922 C 254.475 2.46156 -2.4187 0
M  V30 2923 C 253.588 2.26236 -3.68024 0
M  V30 2924 C 252.723 3.51534 -3.98243 0
M  V30 2925 C 251.762 3.26787 -5.17568 0
M  V30 2926 N 250.899 4.44298 -5.43639 0
M  V30 2927 H 255.739 0.763743 -2.88047 0
M  V30 2928 H 253.276 0.365615 -1.42484 0
M  V30 2929 H 255.234 3.23189 -2.63827 0
M  V30 2930 H 253.864 2.81783 -1.57475 0
M  V30 2931 H 252.916 1.40102 -3.5366 0
M  V30 2932 H 254.228 2.03929 -4.55208 0
M  V30 2933 H 253.382 4.36984 -4.20868 0
M  V30 2934 H 252.121 3.76876 -3.09541 0
M  V30 2935 H 251.126 2.39729 -4.94783 0
M  V30 2936 H 252.351 3.02812 -6.0785 0
M  V30 2937 H 250.297 4.69754 -4.57895 0
M  V30 2938 H 250.214 4.25109 -6.25154 0
M  V30 2939 H 251.482 5.3087 -5.70786 0
M  V30 2940 N 255.711 1.52812 0.385517 0
M  V30 2941 C 256.96 1.67249 1.12741 0
M  V30 2942 C 257.273 0.4205 1.91027 0
M  V30 2943 O 258.479 0.445064 2.67827 0
M  V30 2944 C 256.935 2.95583 2.05326 0
M  V30 2945 C 256.543 4.27974 1.32447 0
M  V30 2946 C 258.287 3.19386 2.7963 0
M  V30 2947 C 256.194 5.47412 2.23818 0
M  V30 2948 H 255.124 0.6231 0.424573 0
M  V30 2949 H 257.775 1.79309 0.389924 0
M  V30 2950 H 256.157 2.77277 2.82725 0
M  V30 2951 H 257.331 4.56844 0.602495 0
M  V30 2952 H 255.646 4.10459 0.700885 0
M  V30 2953 H 258.243 4.05801 3.48181 0
M  V30 2954 H 258.586 2.34604 3.43899 0
M  V30 2955 H 259.119 3.38274 2.09322 0
M  V30 2956 H 255.858 6.34612 1.64157 0
M  V30 2957 H 255.378 5.22849 2.93921 0
M  V30 2958 H 257.057 5.81423 2.83824 0
M  V30 2959 N 257.189 -0.644168 1.43834 0
M  V30 2960 C 258.438 -1.39985 1.45214 0
M  V30 2961 C 258.751 -1.95421 0.0835494 0
M  V30 2962 O 259.957 -2.71488 -0.0251748 0
M  V30 2963 C 258.413 -2.53384 2.55587 0
M  V30 2964 C 258.021 -2.04517 3.98594 0
M  V30 2965 C 259.765 -3.30685 2.66172 0
M  V30 2966 C 257.672 -3.1518 5.00416 0
M  V30 2967 H 256.602 -0.526005 0.540218 0
M  V30 2968 H 259.253 -0.694367 1.69855 0
M  V30 2969 H 257.635 -3.26446 2.24163 0
M  V30 2970 H 258.809 -1.38405 4.39523 0
M  V30 2971 H 257.124 -1.40068 3.92135 0
M  V30 2972 H 259.721 -4.13158 3.39418 0
M  V30 2973 H 260.064 -3.79312 1.71546 0
M  V30 2974 H 260.597 -2.64708 2.96942 0
M  V30 2975 H 257.336 -2.71511 5.96625 0
M  V30 2976 H 256.856 -3.79974 4.64091 0
M  V30 2977 H 258.535 -3.80166 5.23529 0
M  V30 2978 N 258.668 -1.30515 -0.883378 0
M  V30 2979 C 259.616 -1.16941 -2.01066 0
M  V30 2980 C 260.61 -0.0809148 -1.69207 0
M  V30 2981 O 261.816 -0.241877 -1.78367 0
M  V30 2982 H 258.191 -0.361705 -0.659298 0
M  V30 2983 H 260.162 -2.12344 -2.09649 0
M  V30 2984 C 258.911 -0.879694 -3.36388 0
M  V30 2985 H 258.234 -1.70936 -3.61415 0
M  V30 2986 H 259.674 -0.82483 -4.159 0
M  V30 2987 C 258.133 0.417409 -3.34304 0
M  V30 2988 O 258.663 1.43843 -3.75063 0
M  V30 2989 N 256.869 0.429141 -2.87414 0
M  V30 2990 H 256.416 -0.402222 -2.5444 0
M  V30 2991 H 256.374 1.29696 -2.86403 0
M  V30 2992 N 260.146 1.09593 -1.13257 0
M  V30 2993 C 261.423 1.78293 -0.804432 0
M  V30 2994 C 261.803 1.99004 0.70431 0
M  V30 2995 O 261.151 1.59007 1.641 0
M  V30 2996 C 261.361 3.10707 -1.5894 0
M  V30 2997 C 262.709 3.85443 -1.78099 0
M  V30 2998 O 263.733 3.20454 -1.55525 0
M  V30 2999 O 262.592 5.02108 -2.15753 0
M  V30 3000 H 259.686 0.773156 -0.293528 0
M  V30 3001 H 262.232 1.16164 -1.23709 0
M  V30 3002 H 261.004 2.91106 -2.61482 0
M  V30 3003 H 260.627 3.80558 -1.15157 0
M  V30 3004 N 261.624 0.925811 1.2754 0
M  V30 3005 C 262.854 0.580666 1.98272 0
M  V30 3006 C 263.262 -0.845207 1.69272 0
M  V30 3007 O 262.605 -1.57306 0.948707 0
M  V30 3008 C 262.667 0.724418 3.52126 0
M  V30 3009 C 262.331 2.12206 4.04744 0
M  V30 3010 C 263.328 3.09604 4.17662 0
M  V30 3011 C 261.013 2.4385 4.39138 0
M  V30 3012 C 263.007 4.36755 4.64246 0
M  V30 3013 C 260.694 3.71237 4.85414 0
M  V30 3014 C 261.692 4.67503 4.97926 0
M  V30 3015 O 261.38 5.92624 5.43187 0
M  V30 3016 H 261.112 0.218987 0.639547 0
M  V30 3017 H 263.666 1.24452 1.63404 0
M  V30 3018 H 261.896 0.0034663 3.867 0
M  V30 3019 H 263.585 0.384607 4.04074 0
M  V30 3020 H 264.351 2.86478 3.91351 0
M  V30 3021 H 260.23 1.69665 4.28643 0
M  V30 3022 H 263.774 5.11898 4.73927 0
M  V30 3023 H 259.671 3.94182 5.11166 0
M  V30 3024 H 260.439 5.95585 5.61445 0
M  V30 3025 N 263.102 -1.41638 0.69111 0
M  V30 3026 C 264.012 -2.34588 0.0233487 0
M  V30 3027 C 265.028 -1.55987 -0.770984 0
M  V30 3028 O 266.204 -1.88486 -0.709569 0
M  V30 3029 C 263.269 -3.34684 -0.904851 0
M  V30 3030 C 262.33 -4.29176 -0.103225 0
M  V30 3031 C 261.563 -5.2449 -0.987216 0
M  V30 3032 O 261.786 -5.2514 -2.22674 0
M  V30 3033 O 260.72 -6.00295 -0.439281 0
M  V30 3034 H 264.546 -2.93261 0.789416 0
M  V30 3035 H 262.131 -1.42417 0.45142 0
M  V30 3036 H 264.013 -3.96133 -1.43724 0
M  V30 3037 H 262.688 -2.78461 -1.65049 0
M  V30 3038 H 261.595 -3.71089 0.473655 0
M  V30 3039 H 262.928 -4.88484 0.60365 0
M  V30 3040 N 264.58 -0.43555 -1.51462 0
M  V30 3041 C 265.49 0.383001 -2.31453 0
M  V30 3042 C 266.506 1.02931 -1.4029 0
M  V30 3043 O 267.682 1.02507 -1.73362 0
M  V30 3044 C 264.747 1.47043 -3.13973 0
M  V30 3045 C 263.808 0.844433 -4.20913 0
M  V30 3046 C 263.041 1.88004 -4.9949 0
M  V30 3047 O 263.264 3.10199 -4.78678 0
M  V30 3048 O 262.198 1.47157 -5.83634 0
M  V30 3049 H 266.024 -0.269964 -3.02498 0
M  V30 3050 H 263.609 -0.19813 -1.4808 0
M  V30 3051 H 265.491 2.10113 -3.65281 0
M  V30 3052 H 264.166 2.10751 -2.45695 0
M  V30 3053 H 263.073 0.175729 -3.73687 0
M  V30 3054 H 264.406 0.250869 -4.9156 0
M  V30 3055 N 266.058 1.56714 -0.166846 0
M  V30 3056 C 267.305 1.96747 0.479252 0
M  V30 3057 C 267.633 1.05263 1.63554 0
M  V30 3058 O 266.888 0.0858098 1.95512 0
M  V30 3059 C 267.187 3.42889 1.00806 0
M  V30 3060 C 266.853 4.50889 -0.0318574 0
M  V30 3061 C 265.515 4.8015 -0.317675 0
M  V30 3062 C 267.867 5.15949 -0.737956 0
M  V30 3063 C 265.195 5.71772 -1.31506 0
M  V30 3064 C 267.547 6.08647 -1.72429 0
M  V30 3065 C 266.211 6.36277 -2.0176 0
M  V30 3066 H 265.481 0.719949 0.175371 0
M  V30 3067 H 268.128 1.89756 -0.257864 0
M  V30 3068 H 266.433 3.4681 1.82291 0
M  V30 3069 H 268.13 3.71203 1.51689 0
M  V30 3070 H 264.72 4.28128 0.201088 0
M  V30 3071 H 268.904 4.93458 -0.530351 0
M  V30 3072 H 264.16 5.91465 -1.54853 0
M  V30 3073 H 268.334 6.58129 -2.27682 0
M  V30 3074 H 265.961 7.07075 -2.79194 0
M  V30 3075 N 267.536 -0.106894 1.57237 0
M  V30 3076 C 268.761 -0.830287 1.90055 0
M  V30 3077 C 269.186 -1.72064 0.75998 0
M  V30 3078 O 268.544 -1.78982 -0.288991 0
M  V30 3079 C 268.592 -1.6295 3.21683 0
M  V30 3080 O 267.696 -2.73748 3.08441 0
M  V30 3081 H 267.037 -0.228855 0.623315 0
M  V30 3082 H 269.567 -0.085658 2.04421 0
M  V30 3083 H 269.577 -2.01621 3.54701 0
M  V30 3084 H 268.252 -0.975989 4.04286 0
M  V30 3085 H 266.829 -2.38192 2.86913 0
M  V30 3086 N 269.014 -1.53014 -0.377408 0
M  V30 3087 C 269.961 -1.78616 -1.46168 0
M  V30 3088 C 270.931 -0.629917 -1.53692 0
M  V30 3089 O 272.116 -0.870861 -1.69766 0
M  V30 3090 C 269.256 -1.97123 -2.8326 0
M  V30 3091 C 268.369 -3.24831 -2.84796 0
M  V30 3092 C 267.504 -3.33591 -4.13389 0
M  V30 3093 C 266.543 -4.55377 -4.09021 0
M  V30 3094 N 265.68 -4.61355 -5.29241 0
M  V30 3095 H 270.52 -2.71142 -1.23637 0
M  V30 3096 H 268.057 -1.34326 -0.599577 0
M  V30 3097 H 270.015 -2.05839 -3.62886 0
M  V30 3098 H 268.645 -1.07946 -3.04216 0
M  V30 3099 H 267.697 -3.25128 -1.97474 0
M  V30 3100 H 269.009 -4.14523 -2.77439 0
M  V30 3101 H 268.163 -3.41554 -5.01424 0
M  V30 3102 H 266.902 -2.41894 -4.23484 0
M  V30 3103 H 265.907 -4.47527 -3.19373 0
M  V30 3104 H 267.132 -5.48402 -4.00539 0
M  V30 3105 H 265.078 -3.72554 -5.39944 0
M  V30 3106 H 264.995 -5.44935 -5.24006 0
M  V30 3107 H 266.263 -4.73586 -6.19141 0
M  V30 3108 N 270.492 0.636531 -1.44174 0
M  V30 3109 C 271.402 1.77754 -1.53103 0
M  V30 3110 C 272.418 1.68928 -0.417034 0
M  V30 3111 O 273.594 1.89801 -0.6736 0
M  V30 3112 C 270.659 3.14115 -1.46741 0
M  V30 3113 C 269.72 3.34612 -2.68948 0
M  V30 3114 C 268.953 4.64467 -2.6288 0
M  V30 3115 O 269.176 5.44919 -1.68581 0
M  V30 3116 O 268.11 4.87049 -3.53648 0
M  V30 3117 H 271.936 1.73174 -2.49489 0
M  V30 3118 H 269.521 0.79709 -1.2636 0
M  V30 3119 H 271.403 3.95412 -1.45696 0
M  V30 3120 H 270.078 3.19249 -0.534975 0
M  V30 3121 H 268.985 2.53014 -2.75562 0
M  V30 3122 H 270.318 3.34336 -3.61221 0
M  V30 3123 N 271.97 1.30982 0.876444 0
M  V30 3124 C 273.386 1.09498 1.16113 0
M  V30 3125 C 273.586 -0.13875 2.01022 0
M  V30 3126 O 272.642 -0.829935 2.38471 0
M  V30 3127 C 273.955 2.36308 1.85954 0
M  V30 3128 C 275.503 2.41856 1.98683 0
M  V30 3129 C 275.978 3.6853 2.71937 0
M  V30 3130 N 277.469 3.69387 2.79477 0
M  V30 3131 C 278.204 4.64096 3.36753 0
M  V30 3132 N 277.7 5.69155 3.95012 0
M  V30 3133 N 279.493 4.51626 3.3465 0
M  V30 3134 H 271.644 2.10118 0.310494 0
M  V30 3135 H 273.907 0.926634 0.200131 0
M  V30 3136 H 273.613 3.26388 1.31011 0
M  V30 3137 H 273.487 2.4561 2.86278 0
M  V30 3138 H 275.874 1.52249 2.52793 0
M  V30 3139 H 275.955 2.36523 0.9742 0
M  V30 3140 H 275.599 4.58499 2.18496 0
M  V30 3141 H 275.529 3.71127 3.73593 0
M  V30 3142 H 278.02 2.93438 2.38123 0
M  V30 3143 H 278.333 6.3751 4.36808 0
M  V30 3144 H 276.678 5.72937 3.93406 0
M  V30 3145 H 279.869 3.68728 2.8837 0
M  V30 3146 H 280.042 5.25614 3.7899 0
M  V30 3147 N 273.449 -1.08991 1.13837 0
M  V30 3148 C 274.674 -1.85551 0.926585 0
M  V30 3149 C 275.099 -1.80782 -0.519566 0
M  V30 3150 O 274.457 -1.18855 -1.36906 0
M  V30 3151 C 274.505 -3.31266 1.42462 0
M  V30 3152 O 273.609 -4.07822 0.612789 0
M  V30 3153 H 272.95 -0.575192 0.331738 0
M  V30 3154 H 275.48 -1.37604 1.51414 0
M  V30 3155 H 275.49 -3.82112 1.43019 0
M  V30 3156 H 274.165 -3.34052 2.47754 0
M  V30 3157 H 272.742 -3.66731 0.675463 0
M  V30 3158 N 274.927 -0.932562 -1.27047 0
M  V30 3159 C 276.152 -0.591474 -1.98787 0
M  V30 3160 C 276.577 0.824601 -1.69062 0
M  V30 3161 O 275.935 1.5541 -0.933677 0
M  V30 3162 C 275.983 -0.829808 -3.50922 0
M  V30 3163 O 275.087 0.102266 -4.12273 0
M  V30 3164 H 274.428 -0.227185 -0.623926 0
M  V30 3165 H 276.958 -1.25314 -1.61733 0
M  V30 3166 H 276.968 -0.747292 -4.01098 0
M  V30 3167 H 275.643 -1.86201 -3.7189 0
M  V30 3168 H 274.22 -0.0305761 -3.72887 0
M  V30 3169 N 276.405 1.4127 -0.698611 0
M  V30 3170 C 277.63 2.06024 -0.238512 0
M  V30 3171 C 278.055 1.5224 1.10475 0
M  V30 3172 O 277.413 0.650623 1.69223 0
M  V30 3173 C 277.461 3.59988 -0.209952 0
M  V30 3174 O 276.565 4.04282 0.814235 0
M  V30 3175 H 275.906 0.653829 -0.115775 0
M  V30 3176 H 278.436 1.8098 -0.954326 0
M  V30 3177 H 278.446 4.07979 -0.0418436 0
M  V30 3178 H 277.121 3.98503 -1.1903 0
M  V30 3179 H 275.698 3.6779 0.615234 0
M  V30 3180 N 277.883 0.443576 1.51229 0
M  V30 3181 C 278.813 -0.355142 2.30783 0
M  V30 3182 C 279.794 -1.0154 1.36468 0
M  V30 3183 O 280.979 -1.01785 1.65389 0
M  V30 3184 C 278.109 -1.45312 3.15439 0
M  V30 3185 C 277.063 -0.916002 4.18083 0
M  V30 3186 C 276.389 -2.1102 4.91299 0
M  V30 3187 C 277.689 0.0538602 5.22272 0
M  V30 3188 H 279.383 0.308767 2.97804 0
M  V30 3189 H 276.929 0.149937 1.43217 0
M  V30 3190 H 278.882 -2.01914 3.69876 0
M  V30 3191 H 277.606 -2.14541 2.46252 0
M  V30 3192 H 276.265 -0.372145 3.64706 0
M  V30 3193 H 275.913 -2.78882 4.18609 0
M  V30 3194 H 275.613 -1.75717 5.60712 0
M  V30 3195 H 277.137 -2.68164 5.48562 0
M  V30 3196 H 278.551 -0.422069 5.71744 0
M  V30 3197 H 276.948 0.319776 5.99247 0
M  V30 3198 H 278.018 0.98858 4.74716 0
M  V30 3199 N 279.361 -1.56624 0.175154 0
M  V30 3200 C 280.271 -2.21741 -0.766042 0
M  V30 3201 C 281.287 -1.21023 -1.25018 0
M  V30 3202 O 282.463 -1.53697 -1.3015 0
M  V30 3203 C 279.528 -2.84839 -1.97655 0
M  V30 3204 C 278.589 -4.00769 -1.53892 0
M  V30 3205 C 277.822 -4.60849 -2.69173 0
M  V30 3206 O 278.045 -4.19823 -3.86141 0
M  V30 3207 O 276.979 -5.50655 -2.43028 0
M  V30 3208 H 280.805 -3.02738 -0.241585 0
M  V30 3209 H 278.39 -1.49305 -0.053222 0
M  V30 3210 H 280.272 -3.24834 -2.68442 0
M  V30 3211 H 278.947 -2.06836 -2.48999 0
M  V30 3212 H 277.854 -3.65436 -0.80044 0
M  V30 3213 H 279.187 -4.80376 -1.07236 0
M  V30 3214 N 280.839 0.0985539 -1.57292 0
M  V30 3215 C 282.087 0.801092 -1.85545 0
M  V30 3216 C 282.408 1.79438 -0.763353 0
M  V30 3217 O 281.678 1.94763 0.21073 0
M  V30 3218 H 280.258 0.29884 -0.684619 0
M  V30 3219 H 282.92 0.0810064 -1.94732 0
M  V30 3220 H 282.016 1.3338 -2.82163 0
M  V30 3221 N 282.317 1.53212 0.369288 0
M  V30 3222 C 283.542 1.73423 1.1375 0
M  V30 3223 C 283.967 0.460404 1.82378 0
M  V30 3224 O 283.325 -0.585298 1.71592 0
M  V30 3225 C 283.373 2.89769 2.1463 0
M  V30 3226 O 282.477 2.58119 3.21634 0
M  V30 3227 H 281.818 0.576061 0.330227 0
M  V30 3228 H 284.348 2.00083 0.427547 0
M  V30 3229 H 284.358 3.15829 2.58294 0
M  V30 3230 H 283.033 3.8217 1.64071 0
M  V30 3231 H 281.61 2.42864 2.82969 0
M  V30 3232 N 283.795 -0.628877 1.44509 0
M  V30 3233 C 285.206 -1.21054 1.42137 0
M  V30 3234 C 285.557 -1.95715 0.137881 0
M  V30 3235 O 284.682 -2.02554 -0.761645 0
M  V30 3236 C 285.277 -2.20189 2.57493 0
M  V30 3237 C 283.836 -2.73777 2.58308 0
M  V30 3238 C 282.983 -1.48813 2.33987 0
M  V30 3239 H 285.934 -0.41942 1.53057 0
M  V30 3240 H 285.955 -3.02833 2.30375 0
M  V30 3241 H 285.467 -1.6582 3.50892 0
M  V30 3242 H 283.568 -3.32142 1.68856 0
M  V30 3243 H 283.681 -3.19662 3.56865 0
M  V30 3244 H 282.045 -1.77024 1.83124 0
M  V30 3245 H 282.828 -0.963442 3.29504 0
M  V30 3246 N 285.273 -1.31445 -0.869486 0
M  V30 3247 C 286.55 -1.11795 -1.60503 0
M  V30 3248 C 286.93 0.327168 -2.08549 0
M  V30 3249 O 286.278 1.32135 -1.8642 0
M  V30 3250 C 286.488 -2.13258 -2.76265 0
M  V30 3251 C 287.836 -2.45805 -3.46215 0
M  V30 3252 O 288.86 -2.11688 -2.86473 0
M  V30 3253 O 287.719 -3.04228 -4.5399 0
M  V30 3254 H 284.813 -0.430421 -0.706163 0
M  V30 3255 H 287.359 -1.42925 -0.914907 0
M  V30 3256 H 286.131 -3.10461 -2.3818 0
M  V30 3257 H 285.754 -1.83035 -3.52964 0
M  V30 3258 N 286.751 1.08385 -1.14413 0
M  V30 3259 C 287.661 2.18856 -0.844951 0
M  V30 3260 C 288.677 1.73121 0.174668 0
M  V30 3261 O 289.853 2.014 0.00312857 0
M  V30 3262 C 286.918 3.45155 -0.32696 0
M  V30 3263 C 285.979 4.05513 -1.40916 0
M  V30 3264 C 285.212 5.25784 -0.915793 0
M  V30 3265 O 285.435 5.69884 0.242651 0
M  V30 3266 O 284.369 5.77545 -1.69487 0
M  V30 3267 H 288.195 2.46919 -1.76818 0
M  V30 3268 H 285.78 1.17524 -0.922411 0
M  V30 3269 H 287.662 4.21377 -0.0440211 0
M  V30 3270 H 286.337 3.18668 0.568539 0
M  V30 3271 H 285.244 3.30879 -1.74556 0
M  V30 3272 H 286.577 4.3625 -2.27919 0
M  V30 3273 N 288.23 0.939286 1.26551 0
M  V30 3274 C 289.477 0.585847 1.9384 0
M  V30 3275 C 289.805 -0.874784 1.73718 0
M  V30 3276 O 289.06 -1.64092 1.06642 0
M  V30 3277 C 289.359 0.872106 3.46596 0
M  V30 3278 C 289.025 2.31632 3.86856 0
M  V30 3279 C 287.687 2.71111 3.97558 0
M  V30 3280 C 290.039 3.25494 4.07066 0
M  V30 3281 C 287.367 4.03553 4.25866 0
M  V30 3282 C 289.719 4.57531 4.36862 0
M  V30 3283 C 288.383 4.96828 4.45778 0
M  V30 3284 H 287.653 0.214377 0.709312 0
M  V30 3285 H 290.3 1.18544 1.50398 0
M  V30 3286 H 288.605 0.18996 3.91339 0
M  V30 3287 H 290.302 0.577442 3.96821 0
M  V30 3288 H 286.892 2.00008 3.79071 0
M  V30 3289 H 291.076 2.9619 3.98227 0
M  V30 3290 H 286.332 4.33665 4.30981 0
M  V30 3291 H 290.506 5.30254 4.51446 0
M  V30 3292 H 288.133 5.99482 4.67468 0
M  V30 3293 N 289.708 -1.40897 0.706093 0
M  V30 3294 C 290.933 -2.05895 0.249435 0
M  V30 3295 C 291.358 -1.52823 -1.09666 0
M  V30 3296 O 290.716 -0.659589 -1.68876 0
M  V30 3297 C 290.764 -3.59872 0.22904 0
M  V30 3298 O 289.868 -4.04708 -0.792784 0
M  V30 3299 H 289.209 -0.653206 0.119241 0
M  V30 3300 H 291.739 -1.80471 0.96391 0
M  V30 3301 H 291.749 -4.07951 0.0634791 0
M  V30 3302 H 290.424 -3.97866 1.21141 0
M  V30 3303 H 289.001 -3.68111 -0.59572 0
M  V30 3304 N 291.186 -0.45159 -1.50991 0
M  V30 3305 C 292.134 0.366864 -2.29689 0
M  V30 3306 C 293.128 1.00809 -1.36139 0
M  V30 3307 O 294.334 0.941427 -1.53418 0
M  V30 3308 H 290.709 0.137133 -0.739391 0
M  V30 3309 H 292.68 -0.317538 -2.96706 0
M  V30 3310 C 291.429 1.44751 -3.16137 0
M  V30 3311 H 290.752 0.963473 -3.88017 0
M  V30 3312 H 292.192 1.99315 -3.74232 0
M  V30 3313 C 290.651 2.43869 -2.32442 0
M  V30 3314 O 291.181 3.4872 -1.99392 0
M  V30 3315 N 289.387 2.15105 -1.95392 0
M  V30 3316 H 288.934 1.29866 -2.22469 0
M  V30 3317 H 288.892 2.81661 -1.39693 0
M  V30 3318 N 292.664 1.56529 -0.183458 0
M  V30 3319 C 293.912 1.96855 0.457452 0
M  V30 3320 C 294.233 1.07104 1.62953 0
M  V30 3321 O 293.503 0.139887 1.954 0
M  V30 3322 H 292.083 0.72693 0.171992 0
M  V30 3323 H 294.745 1.93056 -0.267476 0
M  V30 3324 H 293.841 3.01423 0.809368 0
M  V30 3325 N 294.142 -0.090211 1.57342 0
M  V30 3326 C 295.052 -1.12735 2.05738 0
M  V30 3327 C 296.068 -1.43557 0.983231 0
M  V30 3328 O 297.244 -1.54101 1.29672 0
M  V30 3329 C 294.309 -2.42659 2.47624 0
M  V30 3330 C 293.37 -2.18975 3.69254 0
M  V30 3331 C 292.603 -3.42704 4.09133 0
M  V30 3332 O 292.826 -4.51127 3.49057 0
M  V30 3333 O 291.76 -3.32003 5.02053 0
M  V30 3334 H 295.586 -0.746279 2.94388 0
M  V30 3335 H 293.171 -0.303064 1.46294 0
M  V30 3336 H 295.053 -3.19155 2.7517 0
M  V30 3337 H 293.728 -2.80182 1.62109 0
M  V30 3338 H 292.635 -1.40244 3.46818 0
M  V30 3339 H 293.968 -1.86342 4.55563 0
M  V30 3340 N 295.62 -1.53406 -0.361157 0
M  V30 3341 C 296.53 -1.83122 -1.4664 0
M  V30 3342 C 297.546 -0.719943 -1.58407 0
M  V30 3343 O 298.722 -1.01046 -1.74218 0
M  V30 3344 C 295.787 -2.01891 -2.81853 0
M  V30 3345 C 294.848 -3.25784 -2.79577 0
M  V30 3346 C 294.081 -3.43648 -4.0834 0
M  V30 3347 O 294.304 -2.65714 -5.0473 0
M  V30 3348 O 293.238 -4.37018 -4.13883 0
M  V30 3349 H 297.064 -2.7703 -1.24451 0
M  V30 3350 H 294.649 -1.38841 -0.551678 0
M  V30 3351 H 296.531 -2.15782 -3.61962 0
M  V30 3352 H 295.206 -1.11173 -3.0401 0
M  V30 3353 H 294.113 -3.17312 -1.98151 0
M  V30 3354 H 295.446 -4.16439 -2.62373 0
M  V30 3355 N 297.098 0.621204 -1.44841 0
M  V30 3356 C 298.028 1.74366 -1.55303 0
M  V30 3357 C 299.009 1.65199 -0.405385 0
M  V30 3358 O 300.194 1.83807 -0.626787 0
M  V30 3359 C 297.324 3.12931 -1.50637 0
M  V30 3360 C 296.278 3.36896 -2.63979 0
M  V30 3361 C 295.604 4.75594 -2.44366 0
M  V30 3362 C 296.904 3.28483 -4.06074 0
M  V30 3363 H 298.598 1.65867 -2.49256 0
M  V30 3364 H 296.144 0.796558 -1.19962 0
M  V30 3365 H 298.097 3.9124 -1.56555 0
M  V30 3366 H 296.821 3.22237 -0.532057 0
M  V30 3367 H 295.48 2.60972 -2.57467 0
M  V30 3368 H 295.128 4.81616 -1.45105 0
M  V30 3369 H 294.828 4.92586 -3.20364 0
M  V30 3370 H 296.352 5.5612 -2.52117 0
M  V30 3371 H 297.766 3.96684 -4.13902 0
M  V30 3372 H 296.163 3.57008 -4.82354 0
M  V30 3373 H 297.233 2.26133 -4.28943 0
M  V30 3374 N 298.576 1.31904 0.862503 0
M  V30 3375 C 299.816 1.23324 1.63004 0
M  V30 3376 C 300.18 -0.203724 1.90916 0
M  V30 3377 O 301.381 -0.413132 2.65606 0
M  V30 3378 C 299.652 2.06116 2.91978 0
M  V30 3379 S 301.211 2.14478 3.82812 0
M  V30 3380 H 298.029 0.439117 0.559193 0
M  V30 3381 H 300.631 1.66658 1.02202 0
M  V30 3382 H 299.335 3.09593 2.69407 0
M  V30 3383 H 298.866 1.6353 3.57801 0
M  V30 3384 H 300.881 1.28855 4.79177 0
M  V30 3385 N 300.054 -1.07777 1.14986 0
M  V30 3386 C 301.302 -1.79934 0.920235 0
M  V30 3387 C 301.623 -1.86955 -0.554336 0
M  V30 3388 O 300.893 -1.36731 -1.40291 0
M  V30 3389 H 299.473 -0.666424 0.337473 0
M  V30 3390 H 302.135 -1.3027 1.44968 0
M  V30 3391 H 301.231 -2.82539 1.32583 0
M  V30 3392 N 301.532 -0.945985 -1.26051 0
M  V30 3393 C 302.778 -0.597002 -1.93814 0
M  V30 3394 C 303.111 0.862484 -1.73997 0
M  V30 3395 O 302.386 1.61769 -1.07986 0
M  V30 3396 C 302.669 -0.945937 -3.47454 0
M  V30 3397 C 302.522 -2.46052 -3.76535 0
M  V30 3398 C 303.841 -0.464785 -4.37639 0
M  V30 3399 H 300.96 -0.218366 -0.703907 0
M  V30 3400 H 303.602 -1.18107 -1.48831 0
M  V30 3401 H 301.752 -0.448902 -3.85898 0
M  V30 3402 H 303.424 -3.03065 -3.47778 0
M  V30 3403 H 301.667 -2.90194 -3.22444 0
M  V30 3404 H 302.338 -2.65517 -4.83947 0
M  V30 3405 H 304.814 -0.891016 -4.06448 0
M  V30 3406 H 303.69 -0.737712 -5.4392 0
M  V30 3407 H 303.951 0.635274 -4.37512 0
M  V30 3408 N 303.011 1.40521 -0.713556 0
M  V30 3409 C 303.944 2.28198 -0.00881422 0
M  V30 3410 C 304.922 1.43227 0.769735 0
M  V30 3411 O 306.106 1.72641 0.756799 0
M  V30 3412 C 303.233 3.23758 0.994899 0
M  V30 3413 C 302.279 4.25391 0.3074 0
M  V30 3414 S 303.112 5.26765 -0.963247 0
M  V30 3415 C 304.268 6.25888 0.0384143 0
M  V30 3416 H 304.501 2.87622 -0.752407 0
M  V30 3417 H 302.034 1.45925 -0.504502 0
M  V30 3418 H 303.992 3.79341 1.56879 0
M  V30 3419 H 302.653 2.63396 1.71118 0
M  V30 3420 H 301.846 4.92596 1.0661 0
M  V30 3421 H 301.448 3.73497 -0.193879 0
M  V30 3422 H 303.74 6.71683 0.885912 0
M  V30 3423 H 304.683 7.05552 -0.60019 0
M  V30 3424 H 305.091 5.63072 0.401233 0
M  V30 3425 N 304.489 0.459591 1.5075 0
M  V30 3426 C 305.717 -0.0973749 2.06671 0
M  V30 3427 C 306.132 -1.34524 1.32472 0
M  V30 3428 O 305.489 -1.7827 0.390634 0
M  V30 3429 C 305.54 -0.39714 3.59312 0
M  V30 3430 O 305.261 0.801214 4.30711 0
M  V30 3431 C 306.762 -1.00234 4.31819 0
M  V30 3432 H 303.982 0.00195854 0.670997 0
M  V30 3433 H 306.526 0.645072 1.94059 0
M  V30 3434 H 304.681 -1.08951 3.71764 0
M  V30 3435 H 305.095 0.538857 5.21725 0
M  V30 3436 H 306.569 -1.16193 5.39632 0
M  V30 3437 H 307.046 -1.98939 3.91561 0
M  V30 3438 H 307.652 -0.348699 4.23868 0
M  V30 3439 N 305.967 -1.56429 0.191757 0
M  V30 3440 C 307.216 -1.9666 -0.448088 0
M  V30 3441 C 307.529 -1.08136 -1.62991 0
M  V30 3442 O 308.735 -1.38135 -2.33733 0
M  V30 3443 C 307.191 -3.49753 -0.848585 0
M  V30 3444 C 306.799 -4.46935 0.308764 0
M  V30 3445 C 308.543 -3.9876 -1.4557 0
M  V30 3446 C 306.45 -5.91293 -0.112506 0
M  V30 3447 H 305.38 -0.734312 -0.171179 0
M  V30 3448 H 308.031 -1.81301 0.283242 0
M  V30 3449 H 306.413 -3.60604 -1.63649 0
M  V30 3450 H 307.587 -4.47813 1.08627 0
M  V30 3451 H 305.902 -4.08102 0.827158 0
M  V30 3452 H 308.499 -5.04086 -1.78328 0
M  V30 3453 H 308.842 -3.42875 -2.36099 0
M  V30 3454 H 309.375 -3.9101 -0.731836 0
M  V30 3455 H 306.114 -6.51097 0.758514 0
M  V30 3456 H 305.634 -5.93676 -0.854941 0
M  V30 3457 H 307.313 -6.44663 -0.549448 0
M  V30 3458 N 307.445 0.0818655 -1.57387 0
M  V30 3459 C 308.67 0.799946 -1.91352 0
M  V30 3460 C 309.095 1.70833 -0.787258 0
M  V30 3461 O 308.453 1.79419 0.26048 0
M  V30 3462 C 308.501 1.57812 -3.24234 0
M  V30 3463 O 307.605 2.68806 -3.12757 0
M  V30 3464 H 306.946 0.21891 -0.626877 0
M  V30 3465 H 309.476 0.0531256 -2.04531 0
M  V30 3466 H 309.486 1.95952 -3.57864 0
M  V30 3467 H 308.161 0.911548 -4.05788 0
M  V30 3468 H 306.738 2.33597 -2.90666 0
M  V30 3469 N 308.923 1.53595 0.353017 0
M  V30 3470 C 310.2 1.61002 1.11075 0
M  V30 3471 C 310.58 0.425356 2.0677 0
M  V30 3472 O 309.928 -0.583267 2.2093 0
M  V30 3473 C 310.138 2.96631 1.83877 0
M  V30 3474 C 311.486 3.51653 2.37961 0
M  V30 3475 O 312.51 2.98743 1.93987 0
M  V30 3476 O 311.369 4.44177 3.18386 0
M  V30 3477 H 308.463 0.650825 0.510251 0
M  V30 3478 H 311.009 1.6594 0.35527 0
M  V30 3479 H 309.781 3.74293 1.14108 0
M  V30 3480 H 309.404 2.95242 2.66304 0
M  V30 3481 N 310.401 -0.613514 1.45168 0
M  V30 3482 C 311.626 -1.40437 1.52618 0
M  V30 3483 C 312.051 -1.87438 0.157707 0
M  V30 3484 O 311.409 -1.59791 -0.856537 0
M  V30 3485 C 311.457 -2.58894 2.51011 0
M  V30 3486 O 310.561 -3.59326 2.02382 0
M  V30 3487 H 309.902 -0.419506 0.514695 0
M  V30 3488 H 312.432 -0.747215 1.90467 0
M  V30 3489 H 312.442 -3.06214 2.69624 0
M  V30 3490 H 311.117 -2.24032 3.50403 0
M  V30 3491 H 309.694 -3.18695 1.93618 0
M  V30 3492 N 311.879 -1.3236 -0.855495 0
M  V30 3493 C 313.29 -1.2056 -1.42556 0
M  V30 3494 C 313.641 0.182209 -1.95352 0
M  V30 3495 O 312.766 1.08088 -1.87472 0
M  V30 3496 C 313.361 -2.1826 -2.59129 0
M  V30 3497 C 311.92 -2.10351 -3.12137 0
M  V30 3498 C 311.067 -2.06674 -1.84882 0
M  V30 3499 H 314.018 -1.442 -0.662727 0
M  V30 3500 H 314.039 -1.78064 -3.36264 0
M  V30 3501 H 313.551 -3.19257 -2.20673 0
M  V30 3502 H 311.652 -1.12599 -3.55179 0
M  V30 3503 H 311.765 -3.00135 -3.73438 0
M  V30 3504 H 310.129 -1.51901 -2.04446 0
M  V30 3505 H 310.912 -3.09451 -1.48643 0
M  V30 3506 N 313.357 1.07166 -1.15556 0
M  V30 3507 C 314.773 1.31899 -0.898603 0
M  V30 3508 C 314.973 1.96333 0.453383 0
M  V30 3509 O 314.029 2.22438 1.19489 0
M  V30 3510 C 315.342 2.20826 -2.04099 0
M  V30 3511 C 316.89 2.34269 -2.07574 0
M  V30 3512 C 317.365 3.26546 -3.21141 0
M  V30 3513 N 318.856 3.34127 -3.20801 0
M  V30 3514 C 319.591 4.05595 -4.05315 0
M  V30 3515 N 319.087 4.79661 -4.99897 0
M  V30 3516 N 320.88 4.01555 -3.93332 0
M  V30 3517 H 313.031 0.637302 -2.02613 0
M  V30 3518 H 315.294 0.343468 -0.883591 0
M  V30 3519 H 315 1.80744 -3.01703 0
M  V30 3520 H 314.874 3.21364 -1.97496 0
M  V30 3521 H 317.261 2.73603 -1.10568 0
M  V30 3522 H 317.342 1.33429 -2.18244 0
M  V30 3523 H 316.986 2.87931 -4.184 0
M  V30 3524 H 316.916 4.27345 -3.07708 0
M  V30 3525 H 319.407 2.81336 -2.52306 0
M  V30 3526 H 319.72 5.31694 -5.60822 0
M  V30 3527 H 318.065 4.78671 -5.03884 0
M  V30 3528 H 321.256 3.42806 -3.18751 0
M  V30 3529 H 321.429 4.56987 -4.5942 0
M  V30 3530 N 314.835 0.952656 1.25548 0
M  V30 3531 C 315.745 0.47782 2.29682 0
M  V30 3532 C 316.761 -0.453859 1.67977 0
M  V30 3533 O 317.937 -0.330587 1.98668 0
M  V30 3534 C 315.002 -0.238655 3.45878 0
M  V30 3535 C 314.063 0.730994 4.23031 0
M  V30 3536 C 313.296 0.0486165 5.33678 0
M  V30 3537 O 313.519 -1.16612 5.58353 0
M  V30 3538 O 312.453 0.733152 5.97418 0
M  V30 3539 H 316.279 1.34312 2.72386 0
M  V30 3540 H 313.864 0.719026 1.30959 0
M  V30 3541 H 315.746 -0.641774 4.16484 0
M  V30 3542 H 314.421 -1.07916 3.05181 0
M  V30 3543 H 313.328 1.18428 3.5486 0
M  V30 3544 H 314.661 1.53946 4.67506 0
M  V30 3545 N 316.313 -1.40141 0.720998 0
M  V30 3546 C 317.245 -2.29177 0.0324669 0
M  V30 3547 C 318.258 -1.46105 -0.718126 0
M  V30 3548 O 319.447 -1.69335 -0.564608 0
M  V30 3549 C 316.547 -3.24473 -0.978292 0
M  V30 3550 C 315.72 -4.36423 -0.292115 0
M  V30 3551 C 314.779 -5.12122 -1.20901 0
M  V30 3552 O 313.805 -5.64981 -0.691766 0
M  V30 3553 N 315.007 -5.21992 -2.53978 0
M  V30 3554 H 317.772 -2.88909 0.796984 0
M  V30 3555 H 315.333 -1.51569 0.569068 0
M  V30 3556 H 317.325 -3.71987 -1.59398 0
M  V30 3557 H 315.895 -2.65871 -1.64413 0
M  V30 3558 H 315.115 -3.90967 0.503847 0
M  V30 3559 H 316.403 -5.08467 0.183971 0
M  V30 3560 H 315.801 -4.8054 -2.98493 0
M  V30 3561 H 314.358 -5.72995 -3.10677 0
M  V30 3562 N 317.792 -0.46758 -1.50504 0
M  V30 3563 C 319.069 0.15003 -1.95024 0
M  V30 3564 C 319.449 1.57304 -1.40779 0
M  V30 3565 O 318.797 2.20281 -0.607319 0
M  V30 3566 C 319.007 0.0969324 -3.48865 0
M  V30 3567 C 320.355 0.287565 -4.23625 0
M  V30 3568 O 321.379 0.173678 -3.55776 0
M  V30 3569 O 320.238 0.517186 -5.44047 0
M  V30 3570 H 317.332 0.113582 -0.819163 0
M  V30 3571 H 319.878 -0.52773 -1.61286 0
M  V30 3572 H 318.65 -0.896732 -3.80886 0
M  V30 3573 H 318.273 0.816303 -3.8913 0
M  V30 3574 N 319.27 1.56325 -0.20005 0
M  V30 3575 C 320.495 2.02548 0.44597 0
M  V30 3576 C 320.92 1.07922 1.5406 0
M  V30 3577 O 320.278 0.0635775 1.81188 0
M  V30 3578 C 320.326 3.47175 0.974761 0
M  V30 3579 O 319.43 3.55671 2.08739 0
M  V30 3580 H 318.771 0.655862 0.103638 0
M  V30 3581 H 321.301 2.02201 -0.312381 0
M  V30 3582 H 321.311 3.87067 1.2901 0
M  V30 3583 H 319.986 4.15538 0.17347 0
M  V30 3584 H 318.563 3.27657 1.78032 0
M  V30 3585 N 320.748 -0.0735177 1.57428 0
M  V30 3586 C 321.658 -1.10547 2.06922 0
M  V30 3587 C 322.674 -1.42506 0.998402 0
M  V30 3588 O 323.85 -1.52717 1.31299 0
M  V30 3589 C 320.915 -2.40019 2.50184 0
M  V30 3590 C 319.976 -2.15046 3.71556 0
M  V30 3591 C 319.209 -3.38345 4.12745 0
M  V30 3592 O 319.432 -4.47399 3.53822 0
M  V30 3593 O 318.366 -3.2666 5.05546 0
M  V30 3594 H 322.192 -0.715013 2.95163 0
M  V30 3595 H 319.777 -0.287531 1.46607 0
M  V30 3596 H 321.659 -3.16218 2.78539 0
M  V30 3597 H 320.334 -2.78447 1.65072 0
M  V30 3598 H 319.241 -1.36558 3.48285 0
M  V30 3599 H 320.574 -1.81499 4.57514 0
M  V30 3600 N 322.226 -1.5378 -0.344866 0
M  V30 3601 C 323.451 -1.75211 -1.10977 0
M  V30 3602 C 323.876 -0.48936 -1.81623 0
M  V30 3603 O 323.234 0.557925 -1.72502 0
M  V30 3604 C 323.282 -2.93147 -2.09993 0
M  V30 3605 O 322.386 -2.63203 -3.17487 0
M  V30 3606 H 321.727 -0.581241 -0.321021 0
M  V30 3607 H 324.257 -2.00738 -0.395661 0
M  V30 3608 H 324.267 -3.19898 -2.53237 0
M  V30 3609 H 322.942 -3.84731 -1.5797 0
M  V30 3610 H 321.519 -2.47336 -2.79069 0
M  V30 3611 N 323.704 0.605807 -1.45491 0
M  V30 3612 C 324.636 1.73031 -1.5031 0
M  V30 3613 C 325.649 1.57968 -0.393687 0
M  V30 3614 O 326.838 1.65817 -0.660839 0
M  V30 3615 C 323.938 3.11049 -1.34543 0
M  V30 3616 C 323.111 3.52334 -2.59189 0
M  V30 3617 C 322.17 4.69323 -2.37954 0
M  V30 3618 O 321.196 4.7635 -3.11575 0
M  V30 3619 N 322.398 5.62705 -1.4263 0
M  V30 3620 H 325.163 1.6936 -2.4726 0
M  V30 3621 H 322.724 0.79114 -1.41254 0
M  V30 3622 H 324.716 3.87071 -1.18144 0
M  V30 3623 H 323.286 3.09217 -0.458623 0
M  V30 3624 H 322.506 2.66256 -2.90691 0
M  V30 3625 H 323.794 3.76677 -3.42041 0
M  V30 3626 H 323.192 5.59744 -0.818758 0
M  V30 3627 H 321.749 6.38252 -1.32202 0
M  V30 3628 N 325.182 1.32811 0.848464 0
M  V30 3629 C 326.41 1.26739 1.63538 0
M  V30 3630 C 326.825 -0.163484 1.88091 0
M  V30 3631 O 326.182 -1.10258 1.45429 0
M  V30 3632 C 326.233 2.03013 2.99112 0
M  V30 3633 O 325.954 3.40518 2.75643 0
M  V30 3634 C 327.455 2.04038 3.93552 0
M  V30 3635 H 324.675 0.437024 0.509167 0
M  V30 3636 H 327.219 1.75033 1.05753 0
M  V30 3637 H 325.374 1.58426 3.53525 0
M  V30 3638 H 325.788 3.79635 3.61908 0
M  V30 3639 H 327.262 2.61877 4.85926 0
M  V30 3640 H 327.739 1.0282 4.26995 0
M  V30 3641 H 328.345 2.486 3.45077 0
M  V30 3642 N 326.66 -1.06551 1.16123 0
M  V30 3643 C 327.59 -2.15935 0.88851 0
M  V30 3644 C 328.571 -1.69306 -0.164135 0
M  V30 3645 O 329.756 -1.94193 -0.0167857 0
M  V30 3646 C 326.886 -3.45149 0.385942 0
M  V30 3647 C 325.84 -4.05271 1.3762 0
M  V30 3648 C 325.166 -5.29664 0.732137 0
M  V30 3649 C 326.466 -4.44355 2.74493 0
M  V30 3650 H 328.16 -2.39006 1.80323 0
M  V30 3651 H 325.706 -1.14866 0.868435 0
M  V30 3652 H 327.659 -4.21004 0.182647 0
M  V30 3653 H 326.383 -3.21689 -0.564274 0
M  V30 3654 H 325.042 -3.3147 1.56599 0
M  V30 3655 H 324.69 -5.02499 -0.224483 0
M  V30 3656 H 324.39 -5.70848 1.39307 0
M  V30 3657 H 325.914 -6.08218 0.538802 0
M  V30 3658 H 327.328 -5.11303 2.59311 0
M  V30 3659 H 325.725 -4.96515 3.37035 0
M  V30 3660 H 326.795 -3.55339 3.29943 0
M  V30 3661 N 328.138 -0.959301 -1.25041 0
M  V30 3662 C 329.415 -0.533805 -1.88175 0
M  V30 3663 C 329.795 0.988994 -1.865 0
M  V30 3664 O 329.143 1.85677 -1.33177 0
M  V30 3665 C 329.353 -1.11575 -3.30684 0
M  V30 3666 C 330.701 -1.19548 -4.07423 0
M  V30 3667 O 331.725 -1.06765 -3.39823 0
M  V30 3668 O 330.584 -1.39656 -5.28354 0
M  V30 3669 H 327.678 -0.176772 -0.807887 0
M  V30 3670 H 330.224 -1.05303 -1.33076 0
M  V30 3671 H 328.996 -2.15884 -3.26358 0
M  V30 3672 H 328.619 -0.580059 -3.93346 0
M  V30 3673 N 329.616 1.39756 -0.72842 0
M  V30 3674 C 330.563 2.30647 -0.0841519 0
M  V30 3675 C 331.533 1.48869 0.7367 0
M  V30 3676 O 332.718 1.77574 0.698015 0
M  V30 3677 C 329.858 3.35165 0.822091 0
M  V30 3678 C 328.971 4.31999 -0.0106663 0
M  V30 3679 C 328.106 5.23585 0.896241 0
M  V30 3680 C 327.145 6.12072 0.0583381 0
M  V30 3681 N 326.282 6.96035 0.920818 0
M  V30 3682 H 331.122 2.85173 -0.864891 0
M  V30 3683 H 328.659 1.40422 -0.438179 0
M  V30 3684 H 330.617 3.94345 1.36189 0
M  V30 3685 H 329.247 2.8211 1.56888 0
M  V30 3686 H 328.299 3.74492 -0.66781 0
M  V30 3687 H 329.611 4.9443 -0.658825 0
M  V30 3688 H 328.765 5.87759 1.50412 0
M  V30 3689 H 327.504 4.61459 1.57819 0
M  V30 3690 H 326.509 5.46916 -0.562389 0
M  V30 3691 H 327.734 6.76261 -0.6203 0
M  V30 3692 H 325.68 6.36485 1.58818 0
M  V30 3693 H 325.597 7.55284 0.32899 0
M  V30 3694 H 326.865 7.64646 1.51447 0
M  V30 3695 N 331.094 0.475555 1.50254 0
M  V30 3696 C 332.34 -0.0780073 2.0265 0
M  V30 3697 C 332.673 -1.38968 1.35652 0
M  V30 3698 O 331.948 -1.8839 0.483691 0
M  V30 3699 C 332.231 -0.257161 3.59181 0
M  V30 3700 C 332.084 1.07585 4.36744 0
M  V30 3701 C 333.403 -1.00965 4.28362 0
M  V30 3702 H 330.522 -0.0268758 0.73651 0
M  V30 3703 H 333.164 0.622015 1.7953 0
M  V30 3704 H 331.314 -0.853412 3.79011 0
M  V30 3705 H 332.986 1.70902 4.28474 0
M  V30 3706 H 331.229 1.6714 4.00308 0
M  V30 3707 H 331.9 0.904088 5.44546 0
M  V30 3708 H 334.376 -0.504214 4.13034 0
M  V30 3709 H 333.252 -1.10381 5.37687 0
M  V30 3710 H 333.513 -2.04731 3.91839 0
M  V30 3711 N 332.573 -1.56217 0.208337 0
M  V30 3712 C 333.803 -2.02043 -0.431523 0
M  V30 3713 C 334.211 -1.08755 -1.54819 0
M  V30 3714 O 333.554 -0.0870009 -1.83494 0
M  V30 3715 C 333.616 -3.44239 -1.03633 0
M  V30 3716 C 333.28 -4.56965 -0.0567502 0
M  V30 3717 C 334.277 -5.14624 0.738773 0
M  V30 3718 C 331.962 -5.02266 0.0581736 0
M  V30 3719 C 333.956 -6.16045 1.63605 0
M  V30 3720 C 331.643 -6.03528 0.959001 0
M  V30 3721 C 332.641 -6.60293 1.7465 0
M  V30 3722 O 332.329 -7.59586 2.6322 0
M  V30 3723 H 332.061 -0.666772 -0.111313 0
M  V30 3724 H 334.615 -2.02919 0.318277 0
M  V30 3725 H 332.845 -3.40391 -1.83497 0
M  V30 3726 H 334.534 -3.73793 -1.58221 0
M  V30 3727 H 335.3 -4.80483 0.660364 0
M  V30 3728 H 331.179 -4.57771 -0.544633 0
M  V30 3729 H 334.723 -6.60279 2.25116 0
M  V30 3730 H 330.62 -6.37092 1.03848 0
M  V30 3731 H 331.388 -7.77057 2.57148 0
M  V30 3732 N 334.051 0.0651679 -1.57465 0
M  V30 3733 C 334.983 1.10359 -2.00882 0
M  V30 3734 C 335.996 1.346 -0.915788 0
M  V30 3735 O 337.185 1.32723 -1.1936 0
M  V30 3736 C 334.285 2.45312 -2.33828 0
M  V30 3737 C 333.458 2.40934 -3.65061 0
M  V30 3738 C 332.517 3.58047 -3.85602 0
M  V30 3739 O 331.543 3.39175 -4.57109 0
M  V30 3740 N 332.745 4.78637 -3.28462 0
M  V30 3741 H 335.51 0.733807 -2.90578 0
M  V30 3742 H 333.071 0.253719 -1.599 0
M  V30 3743 H 335.063 3.22314 -2.44737 0
M  V30 3744 H 333.633 2.74267 -1.49988 0
M  V30 3745 H 332.853 1.49273 -3.64844 0
M  V30 3746 H 334.141 2.35117 -4.51218 0
M  V30 3747 H 333.539 4.96872 -2.70433 0
M  V30 3748 H 332.096 5.53127 -3.44809 0
M  V30 3749 N 335.529 1.53961 0.336706 0
M  V30 3750 C 336.462 1.77255 1.43722 0
M  V30 3751 C 337.44 0.62193 1.50236 0
M  V30 3752 O 338.624 0.857874 1.67847 0
M  V30 3753 C 335.751 1.87733 2.81912 0
M  V30 3754 C 334.797 3.09933 2.92991 0
M  V30 3755 S 335.63 4.68836 2.58753 0
M  V30 3756 C 336.786 4.82202 3.99039 0
M  V30 3757 H 337.019 2.70322 1.23748 0
M  V30 3758 H 334.552 1.44917 0.532777 0
M  V30 3759 H 336.51 1.94455 3.61521 0
M  V30 3760 H 335.171 0.956666 2.99177 0
M  V30 3761 H 334.364 3.1396 3.94265 0
M  V30 3762 H 333.966 3.01472 2.21338 0
M  V30 3763 H 336.258 4.64032 4.9364 0
M  V30 3764 H 337.201 5.84298 4.00002 0
M  V30 3765 H 337.609 4.10604 3.87382 0
M  V30 3766 N 337.007 -0.598083 1.45811 0
M  V30 3767 C 337.954 -1.7082 1.55207 0
M  V30 3768 C 338.924 -1.61278 0.39732 0
M  V30 3769 O 340.109 -1.80717 0.612038 0
M  V30 3770 C 337.249 -3.09144 1.53376 0
M  V30 3771 C 336.362 -3.29423 2.79472 0
M  V30 3772 C 335.497 -4.57907 2.69248 0
M  V30 3773 C 334.536 -4.71476 3.90354 0
M  V30 3774 N 333.673 -5.9127 3.78608 0
M  V30 3775 H 338.513 -1.62125 2.50039 0
M  V30 3776 H 336.05 -0.790389 1.24062 0
M  V30 3777 H 338.008 -3.89186 1.50301 0
M  V30 3778 H 336.638 -3.16773 0.620876 0
M  V30 3779 H 335.69 -2.43091 2.92594 0
M  V30 3780 H 337.002 -3.3532 3.69272 0
M  V30 3781 H 336.156 -5.46157 2.64192 0
M  V30 3782 H 334.895 -4.54423 1.77063 0
M  V30 3783 H 333.9 -3.81648 3.95759 0
M  V30 3784 H 335.125 -4.76751 4.83617 0
M  V30 3785 H 333.071 -5.88813 2.89199 0
M  V30 3786 H 332.988 -5.98369 4.6205 0
M  V30 3787 H 334.256 -6.81992 3.77501 0
M  V30 3788 N 338.485 -1.33259 -0.841409 0
M  V30 3789 C 339.71 -1.2775 -1.63385 0
M  V30 3790 C 340.135 0.149188 -1.87507 0
M  V30 3791 O 339.493 1.10498 -1.43736 0
M  V30 3792 C 339.541 -2.05571 -2.96265 0
M  V30 3793 O 338.645 -1.41257 -3.87453 0
M  V30 3794 H 337.986 -0.439627 -0.497618 0
M  V30 3795 H 340.516 -1.75782 -1.04699 0
M  V30 3796 H 340.526 -2.16241 -3.45982 0
M  V30 3797 H 339.201 -3.09309 -2.7803 0
M  V30 3798 H 337.778 -1.39217 -3.45938 0
M  V30 3799 N 339.963 1.05934 -1.16686 0
M  V30 3800 C 340.91 2.13499 -0.876748 0
M  V30 3801 C 341.88 1.65162 0.176299 0
M  V30 3802 O 343.065 1.90757 0.0407143 0
M  V30 3803 C 340.205 3.42912 -0.387967 0
M  V30 3804 C 339.318 4.04964 -1.50426 0
M  V30 3805 C 338.453 5.22266 -0.970125 0
M  V30 3806 C 337.492 5.76309 -2.06238 0
M  V30 3807 N 336.629 6.84922 -1.54356 0
M  V30 3808 H 341.469 2.37654 -1.7979 0
M  V30 3809 H 339.006 1.16598 -0.896843 0
M  V30 3810 H 340.964 4.17111 -0.086186 0
M  V30 3811 H 339.594 3.18963 0.496235 0
M  V30 3812 H 338.646 3.28277 -1.92193 0
M  V30 3813 H 339.958 4.41122 -2.32836 0
M  V30 3814 H 339.112 6.03506 -0.621743 0
M  V30 3815 H 337.851 4.87564 -0.115377 0
M  V30 3816 H 336.856 4.93704 -2.41942 0
M  V30 3817 H 338.081 6.13062 -2.92115 0
M  V30 3818 H 336.027 6.52131 -0.711406 0
M  V30 3819 H 335.944 7.20043 -2.30379 0
M  V30 3820 H 337.212 7.69832 -1.22387 0
M  V30 3821 N 341.441 0.965919 1.2453 0
M  V30 3822 C 342.852 0.665929 1.7442 0
M  V30 3823 C 343.203 -0.818407 1.78316 0
M  V30 3824 O 342.328 -1.64037 1.41141 0
M  V30 3825 C 342.923 1.20211 3.16757 0
M  V30 3826 C 341.482 0.952059 3.6416 0
M  V30 3827 C 340.629 1.33848 2.42858 0
M  V30 3828 H 343.58 1.14144 1.10258 0
M  V30 3829 H 343.601 0.567544 3.76244 0
M  V30 3830 H 343.113 2.28244 3.13889 0
M  V30 3831 H 341.214 -0.112821 3.72429 0
M  V30 3832 H 341.327 1.59645 4.51719 0
M  V30 3833 H 339.691 0.756864 2.43195 0
M  V30 3834 H 340.474 2.42827 2.42673 0
M  V30 3835 N 342.919 -1.39368 0.735821 0
M  V30 3836 C 344.335 -1.54204 0.411492 0
M  V30 3837 C 344.535 -1.70268 -1.07755 0
M  V30 3838 O 343.591 -1.70364 -1.86366 0
M  V30 3839 C 344.904 -2.75925 1.19523 0
M  V30 3840 C 346.452 -2.89761 1.18354 0
M  V30 3841 C 346.927 -4.14421 1.94986 0
M  V30 3842 N 348.418 -4.21462 1.92156 0
M  V30 3843 C 349.153 -5.16871 2.48258 0
M  V30 3844 N 348.649 -6.18063 3.13001 0
M  V30 3845 N 350.442 -5.09093 2.38287 0
M  V30 3846 H 342.593 -1.27189 1.70108 0
M  V30 3847 H 344.856 -0.616517 0.720147 0
M  V30 3848 H 344.562 -2.70401 2.24892 0
M  V30 3849 H 344.436 -3.68614 0.800222 0
M  V30 3850 H 346.823 -2.94777 0.137975 0
M  V30 3851 H 346.904 -1.98133 1.61793 0
M  V30 3852 H 346.548 -4.10166 2.99543 0
M  V30 3853 H 346.478 -5.05095 1.48953 0
M  V30 3854 H 348.969 -3.48979 1.44991 0
M  V30 3855 H 349.282 -6.87326 3.53275 0
M  V30 3856 H 347.627 -6.18448 3.17091 0
M  V30 3857 H 350.818 -4.28973 1.8735 0
M  V30 3858 H 350.991 -5.83272 2.82308 0
M  V30 3859 N 344.397 -0.483516 -1.5 0
M  V30 3860 C 345.645 0.067027 -2.01989 0
M  V30 3861 C 345.966 1.3909 -1.36671 0
M  V30 3862 O 345.236 1.88978 -0.516152 0
M  V30 3863 H 343.816 0.0277606 -0.746484 0
M  V30 3864 H 346.478 -0.636773 -1.84204 0
M  V30 3865 H 345.574 0.209484 -3.11396 0
M  V30 3866 N 345.875 1.56104 -0.216619 0
M  V30 3867 C 347.105 2.02269 0.420802 0
M  V30 3868 C 347.513 1.09575 1.5424 0
M  V30 3869 O 346.856 0.0967308 1.83445 0
M  V30 3870 C 346.918 3.44784 1.01806 0
M  V30 3871 C 346.582 4.56988 0.0325154 0
M  V30 3872 C 347.579 5.14225 -0.766055 0
M  V30 3873 C 345.264 5.02228 -0.0848092 0
M  V30 3874 C 347.258 6.15169 -1.6687 0
M  V30 3875 C 344.945 6.03011 -0.990994 0
M  V30 3876 C 345.943 6.59357 -1.78149 0
M  V30 3877 O 345.631 7.58179 -2.67245 0
M  V30 3878 H 345.363 0.667353 0.107776 0
M  V30 3879 H 347.917 2.02747 -0.329034 0
M  V30 3880 H 346.147 3.41359 1.81689 0
M  V30 3881 H 347.836 3.74626 1.56237 0
M  V30 3882 H 348.602 4.80126 -0.685836 0
M  V30 3883 H 344.481 4.58054 0.520349 0
M  V30 3884 H 348.025 6.59076 -2.28615 0
M  V30 3885 H 343.922 6.36532 -1.07225 0
M  V30 3886 H 344.69 7.75682 -2.61265 0
M  V30 3887 N 347.353 -0.0568162 1.57498 0
M  V30 3888 C 348.593 -0.758273 1.89815 0
M  V30 3889 C 348.957 -1.73978 0.812132 0
M  V30 3890 O 350.158 -2.48744 1.01881 0
M  V30 3891 C 348.429 -1.43465 3.27342 0
M  V30 3892 S 349.988 -2.1691 3.81439 0
M  V30 3893 H 346.806 -0.251836 0.664906 0
M  V30 3894 H 349.408 -0.0137997 1.95495 0
M  V30 3895 H 348.112 -0.706693 4.0427 0
M  V30 3896 H 347.643 -2.21825 3.24896 0
M  V30 3897 H 349.658 -3.43658 3.5793 0
M  V30 3898 N 348.832 -1.54138 -0.328536 0
M  V30 3899 C 349.762 -1.86167 -1.40939 0
M  V30 3900 C 350.743 -0.718044 -1.54202 0
M  V30 3901 O 351.928 -0.971328 -1.68163 0
M  V30 3902 C 349.058 -2.08461 -2.77779 0
M  V30 3903 C 348.012 -3.24299 -2.7931 0
M  V30 3904 C 347.338 -3.31955 -4.19178 0
M  V30 3905 C 348.638 -4.62065 -2.43502 0
M  V30 3906 H 350.332 -2.76689 -1.14383 0
M  V30 3907 H 347.878 -1.33132 -0.548806 0
M  V30 3908 H 349.831 -2.29453 -3.53454 0
M  V30 3909 H 348.555 -1.14684 -3.05802 0
M  V30 3910 H 347.214 -3.03187 -2.0609 0
M  V30 3911 H 346.862 -2.35745 -4.44335 0
M  V30 3912 H 346.562 -4.09805 -4.2111 0
M  V30 3913 H 348.086 -3.55175 -4.96672 0
M  V30 3914 H 349.5 -4.8297 -3.08889 0
M  V30 3915 H 347.897 -5.42429 -2.56693 0
M  V30 3916 H 348.967 -4.64652 -1.38659 0
M  V30 3917 N 350.31 0.590341 -1.46126 0
M  V30 3918 C 351.559 1.34499 -1.50309 0
M  V30 3919 C 351.872 1.94977 -0.156021 0
M  V30 3920 O 353.078 2.71395 -0.0756037 0
M  V30 3921 C 351.534 2.43723 -2.64815 0
M  V30 3922 C 351.142 1.89582 -4.0591 0
M  V30 3923 C 352.886 3.20579 -2.78262 0
M  V30 3924 C 350.793 2.9639 -5.11769 0
M  V30 3925 H 349.723 0.505593 -0.559368 0
M  V30 3926 H 352.374 0.630848 -1.72315 0
M  V30 3927 H 350.756 3.17902 -2.36124 0
M  V30 3928 H 351.93 1.21997 -4.44357 0
M  V30 3929 H 350.245 1.25418 -3.97063 0
M  V30 3930 H 352.842 4.00276 -3.54519 0
M  V30 3931 H 353.185 3.72684 -1.85505 0
M  V30 3932 H 353.718 2.53505 -3.06562 0
M  V30 3933 H 350.457 2.49181 -6.06291 0
M  V30 3934 H 349.977 3.62487 -4.77873 0
M  V30 3935 H 351.656 3.60474 -5.37278 0
M  V30 3936 N 351.788 1.33704 0.83433 0
M  V30 3937 C 353.037 1.24763 1.58484 0
M  V30 3938 C 353.35 -0.183775 1.94735 0
M  V30 3939 O 354.556 -0.395234 2.68608 0
M  V30 3940 C 353.012 2.18638 2.85876 0
M  V30 3941 C 352.62 3.66974 2.56971 0
M  V30 3942 C 354.364 2.18581 3.63899 0
M  V30 3943 C 352.271 4.5275 3.80488 0
M  V30 3944 H 351.201 0.463425 0.594772 0
M  V30 3945 H 353.852 1.58797 0.919551 0
M  V30 3946 H 352.234 1.77542 3.5397 0
M  V30 3947 H 353.408 4.16538 1.9706 0
M  V30 3948 H 351.723 3.69366 1.92244 0
M  V30 3949 H 354.32 2.79894 4.55591 0
M  V30 3950 H 354.663 1.18207 3.99165 0
M  V30 3951 H 355.196 2.58062 3.02735 0
M  V30 3952 H 351.935 5.54017 3.5035 0
M  V30 3953 H 351.455 4.07927 4.39722 0
M  V30 3954 H 353.134 4.66784 4.4802 0
M  V30 3955 N 353.266 -1.05314 1.17247 0
M  V30 3956 C 354.214 -2.15137 0.884238 0
M  V30 3957 C 355.208 -1.68729 -0.15063 0
M  V30 3958 O 356.414 -1.8 -0.00366673 0
M  V30 3959 H 352.789 -0.702471 0.2684 0
M  V30 3960 H 354.76 -2.36652 1.81764 0
M  V30 3961 C 353.509 -3.45243 0.412659 0
M  V30 3962 H 352.832 -3.81352 1.20043 0
M  V30 3963 H 354.272 -4.23263 0.249858 0
M  V30 3964 C 352.731 -3.25487 -0.86948 0
M  V30 3965 O 353.261 -3.51938 -1.93655 0
M  V30 3966 N 351.467 -2.78875 -0.817147 0
M  V30 3967 H 351.014 -2.57549 0.0514211 0
M  V30 3968 H 350.972 -2.66036 -1.67547 0
M  V30 3969 N 354.744 -0.972509 -1.24016 0
M  V30 3970 C 355.692 -0.498562 -2.27194 0
M  V30 3971 C 356.686 0.440372 -1.63576 0
M  V30 3972 O 357.892 0.315133 -1.7722 0
M  V30 3973 H 354.267 -0.142775 -0.738322 0
M  V30 3974 H 356.238 -1.38065 -2.64539 0
M  V30 3975 C 354.987 0.191072 -3.47175 0
M  V30 3976 H 354.31 -0.522318 -3.96373 0
M  V30 3977 H 355.75 0.486445 -4.212 0
M  V30 3978 C 354.209 1.41967 -3.05527 0
M  V30 3979 O 354.739 2.51642 -3.13112 0
M  V30 3980 N 352.945 1.28746 -2.60524 0
M  V30 3981 H 352.492 0.395089 -2.54552 0
M  V30 3982 H 352.45 2.11061 -2.33025 0
M  V30 3983 N 356.222 1.38976 -0.743202 0
M  V30 3984 C 357.172 2.27843 -0.084513 0
M  V30 3985 C 358.156 1.44677 0.704094 0
M  V30 3986 O 359.348 1.67511 0.571755 0
M  V30 3987 C 356.477 3.33466 0.815781 0
M  V30 3988 C 355.563 4.24095 0.0208844 0
M  V30 3989 N 355.954 4.95609 -1.0102 0
M  V30 3990 C 354.252 4.45303 0.249293 0
M  V30 3991 C 354.953 5.62287 -1.49024 0
M  V30 3992 N 353.929 5.37571 -0.807377 0
M  V30 3993 H 357.731 2.80593 -0.87436 0
M  V30 3994 H 355.245 1.51755 -0.578283 0
M  V30 3995 H 357.242 3.96008 1.30321 0
M  V30 3996 H 355.902 2.82276 1.6047 0
M  V30 3997 H 356.913 4.98849 -1.39176 0
M  V30 3998 H 353.59 4.0504 1.01237 0
M  V30 3999 H 354.98 6.29519 -2.34853 0
M  V30 4000 N 357.7 0.491464 1.49741 0
M  V30 4001 C 358.648 -0.305837 2.30581 0
M  V30 4002 C 359.642 -0.971642 1.38764 0
M  V30 4003 O 360.848 -0.90042 1.5586 0
M  V30 4004 H 357.223 -0.117482 0.742767 0
M  V30 4005 H 359.194 0.396093 2.95759 0
M  V30 4006 C 357.943 -1.36319 3.19863 0
M  V30 4007 H 357.266 -0.860258 3.90435 0
M  V30 4008 H 358.706 -1.89323 3.79385 0
M  V30 4009 C 357.165 -2.37621 2.38826 0
M  V30 4010 O 357.695 -3.43311 2.08567 0
M  V30 4011 N 355.901 -2.09849 2.01026 0
M  V30 4012 H 355.448 -1.23922 2.25834 0
M  V30 4013 H 355.406 -2.77859 1.47112 0
M  V30 4014 N 359.178 -1.55987 0.224894 0
M  V30 4015 C 360.425 -1.9839 -0.4059 0
M  V30 4016 C 360.753 -1.11261 -1.59535 0
M  V30 4017 O 360.008 -0.158314 -1.95059 0
M  V30 4018 C 360.307 -3.46394 -0.880106 0
M  V30 4019 C 359.973 -4.5046 0.19918 0
M  V30 4020 C 358.635 -4.7864 0.495661 0
M  V30 4021 C 360.987 -5.12855 0.928939 0
M  V30 4022 C 358.315 -5.66497 1.52636 0
M  V30 4023 C 360.667 -6.01828 1.949 0
M  V30 4024 C 359.331 -6.28351 2.25236 0
M  V30 4025 H 358.601 -0.725961 -0.148529 0
M  V30 4026 H 361.248 -1.88668 0.328113 0
M  V30 4027 H 359.553 -3.53337 -1.69294 0
M  V30 4028 H 361.25 -3.76577 -1.37808 0
M  V30 4029 H 357.84 -4.28579 -0.0420526 0
M  V30 4030 H 362.024 -4.9115 0.713129 0
M  V30 4031 H 357.28 -5.8531 1.76698 0
M  V30 4032 H 361.454 -6.49225 2.51951 0
M  V30 4033 H 359.081 -6.96226 3.05244 0
M  V30 4034 N 360.656 0.0484629 -1.57525 0
M  V30 4035 C 361.619 1.03956 -2.04269 0
M  V30 4036 C 362.619 1.30211 -0.943496 0
M  V30 4037 O 363.809 1.25539 -1.20771 0
M  V30 4038 C 360.941 2.37742 -2.44319 0
M  V30 4039 H 362.134 0.636182 -2.93075 0
M  V30 4040 H 359.687 0.294811 -1.53494 0
M  V30 4041 H 360.422 2.82866 -1.5861 0
M  V30 4042 H 360.207 2.20021 -3.24551 0
M  V30 4043 H 361.697 3.08936 -2.80978 0
M  V30 4044 N 362.134 1.5431 0.320358 0
M  V30 4045 C 363.081 1.83918 1.39438 0
M  V30 4046 C 364.051 0.686525 1.51248 0
M  V30 4047 O 365.236 0.933269 1.66417 0
M  V30 4048 C 362.376 2.075 2.75749 0
M  V30 4049 C 361.489 3.35177 2.72544 0
M  V30 4050 C 360.624 3.48704 4.00723 0
M  V30 4051 C 359.663 4.70244 3.91838 0
M  V30 4052 N 358.8 4.80679 5.11754 0
M  V30 4053 H 363.64 2.75544 1.13489 0
M  V30 4054 H 361.177 1.36459 0.549309 0
M  V30 4055 H 363.135 2.19166 3.54996 0
M  V30 4056 H 361.765 1.19163 3 0
M  V30 4057 H 360.817 3.32233 1.85271 0
M  V30 4058 H 362.129 4.24534 2.61863 0
M  V30 4059 H 361.283 3.59928 4.88402 0
M  V30 4060 H 360.022 2.57445 4.14214 0
M  V30 4061 H 359.027 4.59072 3.02544 0
M  V30 4062 H 360.252 5.6289 3.7991 0
M  V30 4063 H 358.198 3.92337 5.25745 0
M  V30 4064 H 358.115 5.64007 5.0342 0
M  V30 4065 H 359.383 4.96239 6.01138 0
M  V30 4066 N 363.613 -0.582584 1.46437 0
M  V30 4067 C 364.576 -1.67366 1.56592 0
M  V30 4068 C 365.576 -1.54575 0.443072 0
M  V30 4069 O 366.766 -1.59191 0.707381 0
M  V30 4070 C 363.898 -3.06791 1.48634 0
M  V30 4071 H 365.091 -1.5972 2.5383 0
M  V30 4072 H 362.644 -0.800432 1.34249 0
M  V30 4073 H 363.379 -3.19993 0.526763 0
M  V30 4074 H 363.164 -3.17484 2.30101 0
M  V30 4075 H 364.654 -3.86218 1.58826 0
M  V30 4076 N 365.091 -1.34144 -0.827227 0
M  V30 4077 C 366.507 -1.13732 -1.11969 0
M  V30 4078 C 366.707 0.0640463 -2.01398 0
M  V30 4079 O 365.763 0.740856 -2.41387 0
M  V30 4080 C 367.076 -2.43047 -1.77055 0
M  V30 4081 C 368.624 -2.49063 -1.89569 0
M  V30 4082 C 369.099 -3.78369 -2.58072 0
M  V30 4083 N 370.59 -3.79505 -2.65575 0
M  V30 4084 C 371.325 -4.76274 -3.19297 0
M  V30 4085 N 370.821 -5.83424 -3.73616 0
M  V30 4086 N 372.614 -4.63735 -3.17658 0
M  V30 4087 H 364.765 -2.11126 -0.232296 0
M  V30 4088 H 367.028 -0.933424 -0.165602 0
M  V30 4089 H 366.734 -3.31025 -1.18807 0
M  V30 4090 H 366.608 -2.56066 -2.76966 0
M  V30 4091 H 368.995 -1.61527 -2.46968 0
M  V30 4092 H 369.076 -2.39975 -0.885745 0
M  V30 4093 H 368.72 -4.66293 -2.01329 0
M  V30 4094 H 368.65 -3.84737 -3.59562 0
M  V30 4095 H 371.141 -3.02074 -2.27068 0
M  V30 4096 H 371.454 -6.53282 -4.12846 0
M  V30 4097 H 369.799 -5.87143 -3.71871 0
M  V30 4098 H 372.99 -3.79177 -2.74486 0
M  V30 4099 H 373.163 -5.39318 -3.59221 0
M  V30 4100 N 366.569 1.04691 -1.17803 0
M  V30 4101 C 367.479 2.16057 -0.914151 0
M  V30 4102 C 368.495 1.73589 0.119503 0
M  V30 4103 O 369.671 2.01308 -0.0609468 0
M  V30 4104 C 366.736 3.4394 -0.436603 0
M  V30 4105 C 365.797 4.00825 -1.53746 0
M  V30 4106 C 365.03 5.22604 -1.0826 0
M  V30 4107 O 365.253 5.70367 0.0612244 0
M  V30 4108 O 364.187 5.7186 -1.87775 0
M  V30 4109 H 368.013 2.41169 -1.84584 0
M  V30 4110 H 365.598 1.1453 -0.959334 0
M  V30 4111 H 367.48 4.21024 -0.178057 0
M  V30 4112 H 366.155 3.20316 0.466869 0
M  V30 4113 H 365.062 3.25158 -1.84995 0
M  V30 4114 H 366.395 4.28778 -2.41683 0
M  V30 4115 N 368.047 0.979072 1.23499 0
M  V30 4116 C 368.994 0.517904 2.24914 0
M  V30 4117 C 369.964 -0.442525 1.60097 0
M  V30 4118 O 371.149 -0.350365 1.87556 0
M  V30 4119 C 368.289 -0.174813 3.44657 0
M  V30 4120 C 367.402 0.825721 4.24035 0
M  V30 4121 C 366.537 0.107946 5.3109 0
M  V30 4122 C 365.576 1.09778 6.02175 0
M  V30 4123 N 364.713 0.40925 7.00906 0
M  V30 4124 H 369.553 1.38751 2.63727 0
M  V30 4125 H 367.09 0.695303 1.2963 0
M  V30 4126 H 369.048 -0.593233 4.12961 0
M  V30 4127 H 367.678 -1.0083 3.06648 0
M  V30 4128 H 366.73 1.36253 3.55161 0
M  V30 4129 H 368.042 1.58005 4.73113 0
M  V30 4130 H 367.196 -0.367904 6.05583 0
M  V30 4131 H 365.935 -0.678994 4.8295 0
M  V30 4132 H 364.94 1.5844 5.26476 0
M  V30 4133 H 366.165 1.88536 6.52404 0
M  V30 4134 H 364.111 -0.358506 6.5502 0
M  V30 4135 H 364.028 1.10226 7.47921 0
M  V30 4136 H 365.296 -0.0442557 7.79487 0
M  V30 4137 N 369.525 -1.3858 0.750561 0
M  V30 4138 C 370.771 -2.00481 0.305825 0
M  V30 4139 C 371.104 -1.5944 -1.10872 0
M  V30 4140 O 370.379 -0.83052 -1.75877 0
M  V30 4141 C 370.662 -3.5758 0.425287 0
M  V30 4142 C 370.515 -4.08594 1.88072 0
M  V30 4143 C 371.834 -4.39719 -0.183122 0
M  V30 4144 H 368.953 -0.728348 0.112598 0
M  V30 4145 H 371.595 -1.64566 0.949638 0
M  V30 4146 H 369.745 -3.88306 -0.122828 0
M  V30 4147 H 371.417 -3.88523 2.48691 0
M  V30 4148 H 369.66 -3.61574 2.39681 0
M  V30 4149 H 370.331 -5.177 1.91548 0
M  V30 4150 H 372.807 -4.15128 0.284303 0
M  V30 4151 H 371.683 -5.48856 -0.0692757 0
M  V30 4152 H 371.944 -4.23434 -1.27106 0
M  V30 4153 N 371.003 -0.499398 -1.49478 0
M  V30 4154 C 372.414 -0.051215 -1.8663 0
M  V30 4155 C 372.765 1.36238 -1.41186 0
M  V30 4156 O 371.89 2.01502 -0.789051 0
M  V30 4157 C 372.485 -0.0861651 -3.3869 0
M  V30 4158 C 371.044 0.30667 -3.75149 0
M  V30 4159 C 370.191 -0.459397 -2.73468 0
M  V30 4160 H 373.142 -0.712264 -1.41818 0
M  V30 4161 H 373.163 0.709507 -3.73826 0
M  V30 4162 H 372.675 -1.11512 -3.71735 0
M  V30 4163 H 370.776 1.33892 -3.47712 0
M  V30 4164 H 370.889 -0.0116669 -4.79099 0
M  V30 4165 H 369.253 0.0905645 -2.54539 0
M  V30 4166 H 370.036 -1.4884 -3.09357 0
M  V30 4167 N 372.481 1.55866 -0.233164 0
M  V30 4168 C 373.428 2.20796 0.67215 0
M  V30 4169 C 374.398 1.16731 1.18166 0
M  V30 4170 O 375.583 1.45129 1.23864 0
M  V30 4171 C 372.723 2.90072 1.86955 0
M  V30 4172 C 371.836 4.08759 1.39786 0
M  V30 4173 C 370.971 4.65787 2.55374 0
M  V30 4174 C 370.01 5.76752 2.04998 0
M  V30 4175 N 369.147 6.28021 3.13901 0
M  V30 4176 H 373.987 2.9779 0.111749 0
M  V30 4177 H 371.524 1.47036 0.0434007 0
M  V30 4178 H 373.482 3.28428 2.57276 0
M  V30 4179 H 372.112 2.15575 2.40265 0
M  V30 4180 H 371.164 3.7581 0.589173 0
M  V30 4181 H 372.476 4.88906 0.98856 0
M  V30 4182 H 371.63 5.06646 3.33758 0
M  V30 4183 H 370.369 3.84828 2.99598 0
M  V30 4184 H 369.374 5.35383 1.25079 0
M  V30 4185 H 370.599 6.59553 1.61759 0
M  V30 4186 H 368.545 5.49971 3.57586 0
M  V30 4187 H 368.462 7.03323 2.7726 0
M  V30 4188 H 369.73 6.73538 3.92386 0
M  V30 4189 N 373.959 -0.0401083 1.57549 0
M  V30 4190 C 374.889 -1.04384 2.08869 0
M  V30 4191 C 375.87 -1.38407 0.988817 0
M  V30 4192 O 377.055 -1.47483 1.26342 0
M  V30 4193 C 374.185 -2.34808 2.55895 0
M  V30 4194 C 373.139 -2.15057 3.70047 0
M  V30 4195 C 372.465 -3.51145 4.03239 0
M  V30 4196 C 373.765 -1.54576 4.98902 0
M  V30 4197 H 375.459 -0.616666 2.92981 0
M  V30 4198 H 373.005 -0.295184 1.40942 0
M  V30 4199 H 374.958 -3.05346 2.90417 0
M  V30 4200 H 373.682 -2.79565 1.68853 0
M  V30 4201 H 372.341 -1.46954 3.35857 0
M  V30 4202 H 371.989 -3.93529 3.13279 0
M  V30 4203 H 371.689 -3.38758 4.80122 0
M  V30 4204 H 373.213 -4.23062 4.40285 0
M  V30 4205 H 374.627 -2.15017 5.31451 0
M  V30 4206 H 373.024 -1.52796 5.80322 0
M  V30 4207 H 374.094 -0.51039 4.82206 0
M  V30 4208 N 375.437 -1.54477 -0.31217 0
M  V30 4209 C 376.387 -1.81037 -1.38598 0
M  V30 4210 C 377.371 -0.666941 -1.46426 0
M  V30 4211 O 378.563 -0.927269 -1.50767 0
M  V30 4212 C 375.692 -2.05127 -2.75277 0
M  V30 4213 C 374.778 -3.25624 -2.71716 0
M  V30 4214 N 375.169 -4.46428 -2.37773 0
M  V30 4215 C 373.467 -3.27427 -3.02833 0
M  V30 4216 C 374.168 -5.28406 -2.43232 0
M  V30 4217 N 373.144 -4.6586 -2.80135 0
M  V30 4218 H 376.946 -2.7201 -1.11301 0
M  V30 4219 H 374.46 -1.53826 -0.520705 0
M  V30 4220 H 376.457 -2.22299 -3.52688 0
M  V30 4221 H 375.117 -1.15416 -3.03495 0
M  V30 4222 H 376.128 -4.73227 -2.1042 0
M  V30 4223 H 372.805 -2.47786 -3.36018 0
M  V30 4224 H 374.195 -6.34903 -2.19882 0
M  V30 4225 N 376.915 0.57481 -1.46744 0
M  V30 4226 C 378.14 1.36341 -1.56288 0
M  V30 4227 C 378.565 1.86954 -0.207347 0
M  V30 4228 O 377.923 1.62006 0.813871 0
M  V30 4229 C 377.971 2.52147 -2.57787 0
M  V30 4230 O 377.075 3.53834 -2.11838 0
M  V30 4231 H 376.416 0.405713 -0.525636 0
M  V30 4232 H 378.946 0.696453 -1.92382 0
M  V30 4233 H 378.956 2.98958 -2.77648 0
M  V30 4234 H 377.631 2.14663 -3.5622 0
M  V30 4235 H 376.208 3.1345 -2.01999 0
M  V30 4236 N 378.394 1.34581 0.820102 0
M  V30 4237 C 379.643 1.26437 1.57151 0
M  V30 4238 C 379.956 -0.163111 1.94919 0
M  V30 4239 O 381.162 -0.366722 2.69012 0
M  V30 4240 C 379.618 2.21658 2.83541 0
M  V30 4241 C 379.226 3.69679 2.53065 0
M  V30 4242 C 380.97 2.22428 3.61561 0
M  V30 4243 C 378.877 4.56761 3.75664 0
M  V30 4244 H 377.807 0.469707 0.589823 0
M  V30 4245 H 380.458 1.59763 0.902656 0
M  V30 4246 H 378.84 1.81287 3.52067 0
M  V30 4247 H 380.014 4.18605 1.92631 0
M  V30 4248 H 378.329 3.71384 1.88316 0
M  V30 4249 H 380.926 2.8471 4.52597 0
M  V30 4250 H 381.269 1.22434 3.97889 0
M  V30 4251 H 381.802 2.61259 2.99981 0
M  V30 4252 H 378.541 5.57702 3.44454 0
M  V30 4253 H 378.061 4.12568 4.35371 0
M  V30 4254 H 379.74 4.71509 4.43044 0
M  V30 4255 N 379.872 -1.04064 1.18357 0
M  V30 4256 C 381.288 -1.2947 0.933258 0
M  V30 4257 C 381.488 -1.97466 -0.401169 0
M  V30 4258 O 380.544 -2.25528 -1.13549 0
M  V30 4259 C 381.857 -2.15337 2.09882 0
M  V30 4260 C 383.405 -2.28683 2.13712 0
M  V30 4261 C 383.88 -3.17917 3.29686 0
M  V30 4262 N 385.371 -3.25504 3.29547 0
M  V30 4263 C 386.106 -3.94706 4.15926 0
M  V30 4264 N 385.602 -4.66239 5.12439 0
M  V30 4265 N 387.395 -3.90986 4.0384 0
M  V30 4266 H 379.546 -0.583359 2.04232 0
M  V30 4267 H 381.809 -0.319921 0.892387 0
M  V30 4268 H 381.515 -1.72682 3.06389 0
M  V30 4269 H 381.389 -3.16015 2.05947 0
M  V30 4270 H 383.776 -2.70575 1.17784 0
M  V30 4271 H 383.857 -1.27596 2.21705 0
M  V30 4272 H 383.501 -2.76736 4.25887 0
M  V30 4273 H 383.431 -4.19036 3.1893 0
M  V30 4274 H 385.922 -2.74547 2.59677 0
M  V30 4275 H 386.235 -5.16638 5.74722 0
M  V30 4276 H 384.58 -4.65143 5.16398 0
M  V30 4277 H 387.771 -3.34234 3.27727 0
M  V30 4278 H 387.944 -4.44646 4.71375 0
M  V30 4279 N 381.35 -0.985608 -1.22978 0
M  V30 4280 C 382.627 -0.573599 -1.87001 0
M  V30 4281 C 383.007 0.949213 -1.88555 0
M  V30 4282 O 382.355 1.82811 -1.37086 0
M  V30 4283 C 382.565 -1.18564 -3.28243 0
M  V30 4284 C 383.913 -1.28163 -4.04796 0
M  V30 4285 O 384.937 -1.13949 -3.37482 0
M  V30 4286 O 383.796 -1.50832 -5.25273 0
M  V30 4287 H 380.89 -0.193868 -0.803955 0
M  V30 4288 H 383.436 -1.08102 -1.30813 0
M  V30 4289 H 382.208 -2.22758 -3.21706 0
M  V30 4290 H 381.831 -0.663363 -3.92027 0
M  V30 4291 N 382.828 1.3818 -0.7579 0
M  V30 4292 C 384.244 1.5353 -0.435972 0
M  V30 4293 C 384.444 1.71961 1.05032 0
M  V30 4294 O 383.5 1.73307 1.83633 0
M  V30 4295 C 384.813 2.73989 -1.23898 0
M  V30 4296 C 386.361 2.87841 -1.22949 0
M  V30 4297 C 386.836 4.11266 -2.01554 0
M  V30 4298 N 388.327 4.18352 -1.98837 0
M  V30 4299 C 389.062 5.12856 -2.5645 0
M  V30 4300 N 388.558 6.13005 -3.22794 0
M  V30 4301 N 390.351 5.05238 -2.46356 0
M  V30 4302 H 382.502 1.24467 -1.7211 0
M  V30 4303 H 384.765 0.604982 -0.729864 0
M  V30 4304 H 384.471 2.66789 -2.29165 0
M  V30 4305 H 384.345 3.67294 -0.858764 0
M  V30 4306 H 386.732 2.9452 -0.184854 0
M  V30 4307 H 386.813 1.95534 -1.64924 0
M  V30 4308 H 386.457 4.05349 -3.06031 0
M  V30 4309 H 386.387 5.02661 -1.5697 0
M  V30 4310 H 388.878 3.46628 -1.50524 0
M  V30 4311 H 389.191 6.81619 -3.64165 0
M  V30 4312 H 387.536 6.13325 -3.2689 0
M  V30 4313 H 390.727 4.25938 -1.9415 0
M  V30 4314 H 390.9 5.78707 -2.91552 0
M  V30 4315 N 384.306 0.507319 1.49211 0
M  V30 4316 C 385.254 -0.281364 2.30892 0
M  V30 4317 C 386.248 -0.95687 1.39787 0
M  V30 4318 O 387.454 -0.883838 1.56807 0
M  V30 4319 H 383.829 -0.109597 0.743971 0
M  V30 4320 H 385.8 0.42744 2.95323 0
M  V30 4321 C 384.549 -1.32918 3.21291 0
M  V30 4322 H 383.872 -0.818799 3.91326 0
M  V30 4323 H 385.312 -1.85288 3.81372 0
M  V30 4324 C 383.771 -2.35074 2.41333 0
M  V30 4325 O 384.301 -3.4108 2.12197 0
M  V30 4326 N 382.507 -2.07705 2.03241 0
M  V30 4327 H 382.054 -1.2152 2.27136 0
M  V30 4328 H 382.012 -2.76283 1.50051 0
M  V30 4329 N 385.784 -1.5574 0.241426 0
M  V30 4330 C 387.032 -1.98417 -0.384075 0
M  V30 4331 C 387.353 -1.13078 -1.58866 0
M  V30 4332 O 386.623 -0.212312 -1.94746 0
M  V30 4333 H 385.203 -0.732813 -0.144894 0
M  V30 4334 H 387.865 -1.9193 0.338943 0
M  V30 4335 H 386.961 -3.04219 -0.696939 0
M  V30 4336 N 387.262 0.0317525 -1.57568 0
M  V30 4337 C 388.49 0.734949 -1.93407 0
M  V30 4338 C 388.905 1.69036 -0.84096 0
M  V30 4339 O 388.262 1.81582 0.182836 0
M  V30 4340 C 388.313 1.49432 -3.29169 0
M  V30 4341 O 388.034 0.577261 -4.3428 0
M  V30 4342 C 389.535 2.29492 -3.79273 0
M  V30 4343 H 386.755 0.206706 -0.638368 0
M  V30 4344 H 389.299 -0.00992046 -2.04498 0
M  V30 4345 H 387.454 2.1911 -3.19483 0
M  V30 4346 H 387.868 1.10952 -5.1263 0
M  V30 4347 H 389.342 2.78172 -4.76785 0
M  V30 4348 H 389.819 3.10794 -3.10328 0
M  V30 4349 H 390.425 1.64894 -3.92033 0
M  V30 4350 N 388.74 1.54641 0.303973 0
M  V30 4351 C 389.69 1.8177 1.37636 0
M  V30 4352 C 390.674 0.674697 1.46071 0
M  V30 4353 O 391.866 0.935251 1.50273 0
M  V30 4354 C 388.995 2.06584 2.74186 0
M  V30 4355 C 388.081 3.2706 2.69986 0
M  V30 4356 N 388.472 4.47682 2.35402 0
M  V30 4357 C 386.77 3.29028 3.01092 0
M  V30 4358 C 387.471 5.29689 2.40426 0
M  V30 4359 N 386.447 4.67339 2.7766 0
M  V30 4360 H 390.249 2.72596 1.09857 0
M  V30 4361 H 387.763 1.541 0.51254 0
M  V30 4362 H 389.76 2.24166 3.51504 0
M  V30 4363 H 388.42 1.17024 3.02879 0
M  V30 4364 H 389.431 4.74336 2.07908 0
M  V30 4365 H 386.108 2.49565 3.34699 0
M  V30 4366 H 387.498 6.3606 2.16512 0
M  V30 4367 N 390.218 -0.567019 1.47046 0
M  V30 4368 C 391.148 -1.68482 1.61667 0
M  V30 4369 C 392.129 -1.6358 0.466418 0
M  V30 4370 O 393.314 -1.81354 0.694574 0
M  V30 4371 C 390.444 -3.07124 1.62148 0
M  V30 4372 C 389.398 -3.26867 2.76301 0
M  V30 4373 C 388.724 -4.66196 2.61849 0
M  V30 4374 C 390.024 -3.13186 4.17986 0
M  V30 4375 H 391.718 -1.56502 2.5524 0
M  V30 4376 H 389.264 -0.751486 1.22836 0
M  V30 4377 H 391.217 -3.8516 1.70968 0
M  V30 4378 H 389.941 -3.2004 0.651287 0
M  V30 4379 H 388.6 -2.51237 2.66975 0
M  V30 4380 H 388.248 -4.75898 1.62879 0
M  V30 4381 H 387.948 -4.80356 3.38425 0
M  V30 4382 H 389.472 -5.46379 2.72584 0
M  V30 4383 H 390.886 -3.81049 4.2834 0
M  V30 4384 H 389.283 -3.3886 4.95272 0
M  V30 4385 H 390.353 -2.10057 4.3704 0
M  V30 4386 N 391.696 -1.35014 -0.812953 0
M  V30 4387 C 392.973 -1.18502 -1.55617 0
M  V30 4388 C 393.353 0.238421 -2.09749 0
M  V30 4389 O 392.701 1.2411 -1.91857 0
M  V30 4390 C 392.911 -2.24783 -2.66971 0
M  V30 4391 C 394.259 -2.60268 -3.35478 0
M  V30 4392 O 395.283 -2.23648 -2.77236 0
M  V30 4393 O 394.142 -3.2321 -4.40678 0
M  V30 4394 H 391.236 -0.459984 -0.687272 0
M  V30 4395 H 393.782 -1.46677 -0.853464 0
M  V30 4396 H 392.554 -3.20284 -2.24798 0
M  V30 4397 H 392.177 -1.97841 -3.44884 0
M  V30 4398 N 393.175 1.03435 -1.18907 0
M  V30 4399 C 394.138 2.09756 -0.923844 0
M  V30 4400 C 395.138 1.60528 0.093416 0
M  V30 4401 O 396.328 1.73631 -0.140727 0
M  V30 4402 C 393.46 3.38692 -0.387354 0
M  V30 4403 H 394.653 2.34719 -1.86674 0
M  V30 4404 H 392.206 1.19959 -1.00197 0
M  V30 4405 H 392.941 3.19396 0.561845 0
M  V30 4406 H 392.726 3.75742 -1.12074 0
M  V30 4407 H 394.216 4.17016 -0.220694 0
M  V30 4408 N 394.653 0.992116 1.22453 0
M  V30 4409 C 395.901 0.666215 1.90804 0
M  V30 4410 C 396.222 -0.804152 1.77647 0
M  V30 4411 O 395.492 -1.57629 1.16318 0
M  V30 4412 H 394.072 0.243423 0.706225 0
M  V30 4413 H 396.734 1.25845 1.48825 0
M  V30 4414 H 395.83 0.928069 2.97982 0
M  V30 4415 N 396.131 -1.37776 0.765217 0
M  V30 4416 C 397.094 -2.28686 0.153416 0
M  V30 4417 C 398.094 -1.47727 -0.635081 0
M  V30 4418 O 399.284 -1.68027 -0.459632 0
M  V30 4419 C 396.416 -3.31608 -0.790495 0
M  V30 4420 H 397.609 -2.84297 0.954723 0
M  V30 4421 H 395.162 -1.46932 0.53299 0
M  V30 4422 H 395.897 -2.81109 -1.61705 0
M  V30 4423 H 395.682 -3.9144 -0.227348 0
M  V30 4424 H 397.172 -3.99559 -1.21419 0
M  V30 4425 N 397.609 -0.515225 -1.4894 0
M  V30 4426 C 398.539 0.244628 -2.32215 0
M  V30 4427 C 399.52 0.949136 -1.41157 0
M  V30 4428 O 400.705 0.937783 -1.70057 0
M  V30 4429 C 397.835 1.30096 -3.22013 0
M  V30 4430 C 396.789 0.715486 -4.21977 0
M  V30 4431 C 396.115 1.87339 -5.00808 0
M  V30 4432 C 397.415 -0.302982 -5.2142 0
M  V30 4433 H 399.109 -0.450501 -2.95991 0
M  V30 4434 H 396.655 -0.218098 -1.42339 0
M  V30 4435 H 398.608 1.84037 -3.79089 0
M  V30 4436 H 397.332 2.02547 -2.56207 0
M  V30 4437 H 395.991 0.197715 -3.66066 0
M  V30 4438 H 395.639 2.58592 -4.31438 0
M  V30 4439 H 395.339 1.48764 -5.68457 0
M  V30 4440 H 396.863 2.41686 -5.60732 0
M  V30 4441 H 398.277 0.148802 -5.73107 0
M  V30 4442 H 396.674 -0.60532 -5.97039 0
M  V30 4443 H 397.744 -1.21395 -4.69459 0
M  V30 4444 N 399.087 1.5561 -0.249682 0
M  V30 4445 C 400.315 2.03411 0.378352 0
M  V30 4446 C 400.73 1.12886 1.51335 0
M  V30 4447 O 400.087 0.143833 1.81932 0
M  V30 4448 C 400.138 3.50537 0.88351 0
M  V30 4449 O 399.859 4.37614 -0.20626 0
M  V30 4450 C 401.36 4.14113 1.58195 0
M  V30 4451 H 398.58 0.664994 0.08958 0
M  V30 4452 H 401.124 2.01044 -0.374357 0
M  V30 4453 H 399.279 3.5343 1.58639 0
M  V30 4454 H 399.693 5.24199 0.177782 0
M  V30 4455 H 401.167 5.18741 1.8871 0
M  V30 4456 H 401.644 3.60767 2.50487 0
M  V30 4457 H 402.25 4.15151 0.923573 0
M  V30 4458 N 400.565 -0.0233959 1.57583 0
M  V30 4459 C 401.793 -0.724682 1.93794 0
M  V30 4460 C 402.208 -1.68588 0.849912 0
M  V30 4461 O 401.565 -1.81676 -0.173204 0
M  V30 4462 C 401.616 -1.47684 3.29957 0
M  V30 4463 O 401.337 -0.554222 4.3458 0
M  V30 4464 C 402.838 -2.27477 3.80485 0
M  V30 4465 H 400.058 -0.203317 0.639455 0
M  V30 4466 H 402.602 0.0207653 2.04489 0
M  V30 4467 H 400.757 -2.17412 3.20641 0
M  V30 4468 H 401.171 -1.08232 5.13212 0
M  V30 4469 H 402.645 -2.7564 4.78254 0
M  V30 4470 H 403.122 -3.09144 3.11972 0
M  V30 4471 H 403.728 -1.62813 3.92902 0
M  V30 4472 N 402.043 -1.548 -0.295768 0
M  V30 4473 C 403.271 -1.78327 -1.04914 0
M  V30 4474 C 403.686 -0.545316 -1.80753 0
M  V30 4475 O 403.043 0.485013 -1.75937 0
M  V30 4476 C 403.094 -2.99418 -2.02561 0
M  V30 4477 O 402.815 -4.18431 -1.29798 0
M  V30 4478 C 404.316 -3.35375 -2.89895 0
M  V30 4479 H 401.536 -0.594618 -0.310918 0
M  V30 4480 H 404.08 -2.01763 -0.333454 0
M  V30 4481 H 402.235 -2.78175 -2.69624 0
M  V30 4482 H 402.649 -4.86736 -1.95419 0
M  V30 4483 H 404.123 -4.23332 -3.54251 0
M  V30 4484 H 404.6 -2.53761 -3.58472 0
M  V30 4485 H 405.206 -3.58796 -2.28355 0
M  V30 4486 N 403.521 0.559213 -1.47345 0
M  V30 4487 C 404.768 1.31648 -1.53867 0
M  V30 4488 C 405.096 1.93468 -0.200104 0
M  V30 4489 O 404.351 1.78295 0.806799 0
M  V30 4490 C 404.65 2.44853 -2.6035 0
M  V30 4491 C 404.316 2.00876 -4.03683 0
M  V30 4492 C 402.978 1.88599 -4.42701 0
M  V30 4493 C 405.33 1.67279 -4.93626 0
M  V30 4494 C 402.658 1.41017 -5.69501 0
M  V30 4495 C 405.01 1.21169 -6.20887 0
M  V30 4496 C 403.674 1.07487 -6.58789 0
M  V30 4497 H 402.944 0.481734 -0.56304 0
M  V30 4498 H 405.591 0.627301 -1.80934 0
M  V30 4499 H 403.896 3.19318 -2.27032 0
M  V30 4500 H 405.593 3.03039 -2.62619 0
M  V30 4501 H 402.183 2.11374 -3.72853 0
M  V30 4502 H 406.367 1.75638 -4.64182 0
M  V30 4503 H 401.623 1.29086 -5.97618 0
M  V30 4504 H 405.797 0.942345 -6.89995 0
M  V30 4505 H 403.424 0.703946 -7.56934 0
M  V30 4506 N 404.999 1.35443 0.805782 0
M  V30 4507 C 405.909 1.30546 1.94923 0
M  V30 4508 C 406.925 0.210233 1.72725 0
M  V30 4509 O 408.101 0.43975 1.9654 0
M  V30 4510 C 405.166 1.07782 3.29521 0
M  V30 4511 C 404.227 2.26625 3.64609 0
M  V30 4512 C 403.46 2.04938 4.92784 0
M  V30 4513 O 403.683 1.01624 5.61274 0
M  V30 4514 O 402.617 2.9232 5.26149 0
M  V30 4515 H 406.443 2.26779 2.02002 0
M  V30 4516 H 404.028 1.15823 0.943682 0
M  V30 4517 H 405.91 0.969392 4.10098 0
M  V30 4518 H 404.585 0.146003 3.23371 0
M  V30 4519 H 403.492 2.43033 2.84404 0
M  V30 4520 H 404.825 3.18257 3.75464 0
M  V30 4521 N 406.477 -1.02803 1.19454 0
M  V30 4522 C 407.387 -2.14575 0.948408 0
M  V30 4523 C 408.403 -1.73757 -0.091871 0
M  V30 4524 O 409.579 -2.01185 0.0929654 0
M  V30 4525 C 406.644 -3.43202 0.491265 0
M  V30 4526 C 405.705 -3.98328 1.60103 0
M  V30 4527 C 404.938 -5.20816 1.16561 0
M  V30 4528 O 405.161 -5.70392 0.0295238 0
M  V30 4529 O 404.095 -5.68801 1.96849 0
M  V30 4530 H 407.921 -2.38202 1.88397 0
M  V30 4531 H 405.506 -1.12989 0.977433 0
M  V30 4532 H 407.388 -4.20687 0.245015 0
M  V30 4533 H 406.063 -3.21018 -0.415851 0
M  V30 4534 H 404.97 -3.22174 1.90144 0
M  V30 4535 H 406.303 -4.24879 2.48473 0
M  V30 4536 N 407.956 -0.998596 -1.21925 0
M  V30 4537 C 408.886 -0.573688 -2.26343 0
M  V30 4538 C 409.867 0.402296 -1.65274 0
M  V30 4539 O 411.052 0.291683 -1.91997 0
M  V30 4540 C 408.182 0.106839 -3.47136 0
M  V30 4541 C 407.136 -0.788269 -4.20678 0
M  V30 4542 C 406.462 0.0254927 -5.34694 0
M  V30 4543 C 407.762 -2.08784 -4.78755 0
M  V30 4544 H 409.456 -1.44651 -2.62138 0
M  V30 4545 H 407.002 -0.696975 -1.26009 0
M  V30 4546 H 408.955 0.415531 -4.19346 0
M  V30 4547 H 407.679 1.01424 -3.10452 0
M  V30 4548 H 406.338 -1.08069 -3.50309 0
M  V30 4549 H 405.986 0.933989 -4.94253 0
M  V30 4550 H 405.686 -0.570437 -5.84825 0
M  V30 4551 H 407.21 0.328147 -6.09718 0
M  V30 4552 H 408.624 -1.84272 -5.42878 0
M  V30 4553 H 407.021 -2.63307 -5.39249 0
M  V30 4554 H 408.091 -2.76284 -3.98491 0
M  V30 4555 N 409.434 1.37368 -0.772513 0
M  V30 4556 C 410.384 2.27613 -0.132823 0
M  V30 4557 C 411.368 1.46138 0.673247 0
M  V30 4558 O 412.56 1.68686 0.536095 0
M  V30 4559 C 409.689 3.35122 0.744864 0
M  V30 4560 C 408.775 4.24044 -0.0690771 0
M  V30 4561 N 409.166 4.93355 -1.1151 0
M  V30 4562 C 407.464 4.45731 0.154782 0
M  V30 4563 C 408.165 5.59 -1.60917 0
M  V30 4564 N 407.141 5.35737 -0.921222 0
M  V30 4565 H 410.943 2.78675 -0.933681 0
M  V30 4566 H 408.457 1.50494 -0.610342 0
M  V30 4567 H 410.454 3.98683 1.21892 0
M  V30 4568 H 409.114 2.85616 1.54446 0
M  V30 4569 H 410.125 4.95785 -1.49726 0
M  V30 4570 H 406.802 4.07096 0.926224 0
M  V30 4571 H 408.192 6.24395 -2.48153 0
M  V30 4572 N 410.912 0.523116 1.48665 0
M  V30 4573 C 412.159 -0.0134763 2.02496 0
M  V30 4574 C 412.487 -1.3493 1.40086 0
M  V30 4575 O 411.742 -1.88286 0.533567 0
M  V30 4576 C 412.041 -0.191671 3.56886 0
M  V30 4577 C 411.707 1.06893 4.38046 0
M  V30 4578 C 410.369 1.41443 4.59943 0
M  V30 4579 C 412.721 1.90584 4.85106 0
M  V30 4580 C 410.049 2.59594 5.26144 0
M  V30 4581 C 412.401 3.07907 5.52609 0
M  V30 4582 C 411.065 3.42811 5.72745 0
M  V30 4583 H 410.335 -0.00493133 0.740984 0
M  V30 4584 H 412.982 0.687751 1.78724 0
M  V30 4585 H 411.287 -0.97561 3.79459 0
M  V30 4586 H 412.984 -0.621659 3.96152 0
M  V30 4587 H 409.574 0.789848 4.21259 0
M  V30 4588 H 413.758 1.65203 4.67997 0
M  V30 4589 H 409.014 2.86847 5.39934 0
M  V30 4590 H 413.188 3.73066 5.88043 0
M  V30 4591 H 410.815 4.34462 6.23816 0
M  V30 4592 N 412.39 -1.55475 0.257931 0
M  V30 4593 C 413.3 -2.2549 -0.647425 0
M  V30 4594 C 414.316 -1.2748 -1.18427 0
M  V30 4595 O 415.492 -1.6038 -1.2182 0
M  V30 4596 C 412.557 -2.94916 -1.82278 0
M  V30 4597 C 411.618 -4.08363 -1.32432 0
M  V30 4598 C 410.851 -4.74469 -2.44366 0
M  V30 4599 O 411.074 -4.39701 -3.63344 0
M  V30 4600 O 410.008 -5.62763 -2.13497 0
M  V30 4601 H 413.834 -3.03593 -0.0807707 0
M  V30 4602 H 411.419 -1.49377 0.0259962 0
M  V30 4603 H 413.301 -3.38606 -2.50846 0
M  V30 4604 H 411.976 -2.19744 -2.37685 0
M  V30 4605 H 410.883 -3.69166 -0.605605 0
M  V30 4606 H 412.216 -4.85385 -0.816211 0
M  V30 4607 N 413.868 0.0150385 -1.57593 0
M  V30 4608 C 415.117 0.702115 -1.89085 0
M  V30 4609 C 415.43 1.75764 -0.858277 0
M  V30 4610 O 416.636 2.49829 -1.0629 0
M  V30 4611 C 415.092 1.29992 -3.35604 0
M  V30 4612 C 414.7 0.280007 -4.47124 0
M  V30 4613 C 416.444 1.96606 -3.76227 0
M  V30 4614 C 414.351 0.886949 -5.84711 0
M  V30 4615 H 413.281 0.265997 -0.705522 0
M  V30 4616 H 415.932 -0.0430408 -1.8345 0
M  V30 4617 H 414.314 2.09525 -3.36029 0
M  V30 4618 H 415.488 -0.489631 -4.58191 0
M  V30 4619 H 413.803 -0.284835 -4.15425 0
M  V30 4620 H 416.4 2.42893 -4.76347 0
M  V30 4621 H 416.743 2.79024 -3.08952 0
M  V30 4622 H 417.276 1.23828 -3.78036 0
M  V30 4623 H 414.015 0.101876 -6.55421 0
M  V30 4624 H 413.535 1.6261 -5.77337 0
M  V30 4625 H 415.214 1.39011 -6.3189 0
M  V30 4626 N 415.346 1.54954 0.287554 0
M  V30 4627 C 416.293 1.86834 1.35505 0
M  V30 4628 C 417.263 0.718452 1.49758 0
M  V30 4629 O 418.448 0.968358 1.644 0
M  V30 4630 C 415.588 2.13303 2.71286 0
M  V30 4631 C 414.701 3.40883 2.65373 0
M  V30 4632 C 413.836 3.57125 3.93236 0
M  V30 4633 C 412.875 4.78449 3.81776 0
M  V30 4634 N 412.012 4.91426 5.01443 0
M  V30 4635 H 416.852 2.77889 1.07619 0
M  V30 4636 H 414.389 1.37593 0.520241 0
M  V30 4637 H 416.347 2.26646 3.50267 0
M  V30 4638 H 414.977 1.25499 2.97405 0
M  V30 4639 H 414.029 3.36088 1.78182 0
M  V30 4640 H 415.341 4.29993 2.52799 0
M  V30 4641 H 414.495 3.70207 4.80658 0
M  V30 4642 H 413.234 2.66173 4.0866 0
M  V30 4643 H 412.239 4.65386 2.92738 0
M  V30 4644 H 413.464 5.70822 3.67884 0
M  V30 4645 H 411.41 4.03401 5.17304 0
M  V30 4646 H 411.327 5.74559 4.91343 0
M  V30 4647 H 412.595 5.08879 5.90477 0
M  V30 4648 N 416.824 -0.551391 1.4764 0
M  V30 4649 C 418.235 -1.13349 1.48354 0
M  V30 4650 C 418.586 -1.94709 0.241432 0
M  V30 4651 O 417.711 -2.06306 -0.653205 0
M  V30 4652 C 418.306 -2.0623 2.68802 0
M  V30 4653 C 416.865 -2.597 2.72457 0
M  V30 4654 C 416.012 -1.36201 2.41546 0
M  V30 4655 H 418.963 -0.337698 1.55065 0
M  V30 4656 H 418.984 -2.90196 2.46103 0
M  V30 4657 H 418.496 -1.46987 3.59188 0
M  V30 4658 H 416.597 -3.22724 1.86225 0
M  V30 4659 H 416.71 -3.00296 3.73308 0
M  V30 4660 H 415.074 -1.67068 1.9225 0
M  V30 4661 H 415.857 -0.787425 3.34147 0
M  V30 4662 N 418.302 -1.35869 -0.798587 0
M  V30 4663 C 419.252 -1.25982 -1.90033 0
M  V30 4664 C 420.236 -0.153303 -1.60168 0
M  V30 4665 O 421.428 -0.38527 -1.72756 0
M  V30 4666 C 418.557 -1.04211 -3.27101 0
M  V30 4667 C 417.643 -2.19289 -3.63006 0
M  V30 4668 N 418.034 -3.44559 -3.70287 0
M  V30 4669 C 416.332 -2.10852 -3.93011 0
M  V30 4670 C 417.033 -4.20283 -4.02166 0
M  V30 4671 N 416.009 -3.49124 -4.16669 0
M  V30 4672 H 419.811 -2.20883 -1.93876 0
M  V30 4673 H 417.325 -1.28457 -0.993614 0
M  V30 4674 H 419.322 -0.952155 -4.05881 0
M  V30 4675 H 417.982 -0.102013 -3.2454 0
M  V30 4676 H 418.993 -3.7881 -3.53162 0
M  V30 4677 H 415.67 -1.24744 -3.98428 0
M  V30 4678 H 417.06 -5.28575 -4.14799 0
M  V30 4679 N 419.78 1.02168 -1.19998 0
M  V30 4680 C 421.057 1.72816 -0.916191 0
M  V30 4681 C 421.437 2.03081 0.576325 0
M  V30 4682 O 420.785 1.69122 1.53656 0
M  V30 4683 C 420.995 2.9997 -1.78378 0
M  V30 4684 C 422.343 3.73336 -2.02251 0
M  V30 4685 O 423.367 3.09914 -1.75589 0
M  V30 4686 O 422.226 4.87371 -2.47249 0
M  V30 4687 H 419.32 0.752924 -0.342103 0
M  V30 4688 H 421.866 1.08062 -1.30846 0
M  V30 4689 H 420.638 2.73888 -2.79466 0
M  V30 4690 H 420.261 3.72464 -1.39126 0
M  V30 4691 N 421.258 1.00505 1.21394 0
M  V30 4692 C 422.535 0.603277 1.86064 0
M  V30 4693 C 422.915 -0.919095 1.90042 0
M  V30 4694 O 422.263 -1.80607 1.39977 0
M  V30 4695 C 422.473 1.23772 3.26315 0
M  V30 4696 C 423.821 1.34586 4.02705 0
M  V30 4697 O 424.845 1.19304 3.35626 0
M  V30 4698 O 423.704 1.59169 5.22807 0
M  V30 4699 H 420.798 0.206634 0.800769 0
M  V30 4700 H 423.344 1.1017 1.29076 0
M  V30 4701 H 422.116 2.27848 3.18121 0
M  V30 4702 H 421.739 0.725648 3.90922 0
M  V30 4703 N 422.737 -1.36956 0.779787 0
M  V30 4704 C 423.977 -2.01328 0.353043 0
M  V30 4705 C 424.341 -1.60558 -1.05286 0
M  V30 4706 O 425.542 -2.1745 -1.58016 0
M  V30 4707 C 423.813 -3.53874 0.500822 0
M  V30 4708 S 425.372 -4.38506 0.16053 0
M  V30 4709 H 422.19 -0.69799 0.13539 0
M  V30 4710 H 424.792 -1.67016 1.01617 0
M  V30 4711 H 423.496 -3.81034 1.52451 0
M  V30 4712 H 423.027 -3.92994 -0.178574 0
M  V30 4713 H 425.042 -4.85153 -1.04121 0
M  V30 4714 N 424.215 -0.530993 -1.48385 0
M  V30 4715 C 425.443 -0.00134122 -2.069 0
M  V30 4716 C 425.858 1.2805 -1.3874 0
M  V30 4717 O 425.215 1.76204 -0.475244 0
M  V30 4718 C 425.266 0.225256 -3.60798 0
M  V30 4719 O 424.987 -1.0058 -4.26398 0
M  V30 4720 C 426.488 0.795172 -4.3611 0
M  V30 4721 H 423.708 -0.0339704 -0.67014 0
M  V30 4722 H 426.252 -0.736926 -1.90761 0
M  V30 4723 H 424.407 0.910891 -3.76539 0
M  V30 4724 H 424.821 -0.787165 -5.1856 0
M  V30 4725 H 426.295 0.903143 -5.44562 0
M  V30 4726 H 426.772 1.80031 -4.00606 0
M  V30 4727 H 427.378 0.146069 -4.25049 0
M  V30 4728 N 425.693 1.55336 -0.266172 0
M  V30 4729 C 426.939 1.99692 0.353681 0
M  V30 4730 C 427.272 1.1543 1.56172 0
M  V30 4731 O 426.547 0.222218 1.93226 0
M  V30 4732 C 426.83 3.52316 0.74466 0
M  V30 4733 C 426.683 4.47337 -0.470101 0
M  V30 4734 C 428.002 4.10588 1.58447 0
M  V30 4735 H 425.121 0.725961 0.12708 0
M  V30 4736 H 427.763 1.86336 -0.371333 0
M  V30 4737 H 425.913 3.63829 1.36239 0
M  V30 4738 H 427.585 4.4778 -1.10864 0
M  V30 4739 H 425.828 4.19364 -1.10978 0
M  V30 4740 H 426.499 5.51788 -0.15291 0
M  V30 4741 H 428.975 4.02297 1.06286 0
M  V30 4742 H 427.851 5.17607 1.82686 0
M  V30 4743 H 428.112 3.60253 2.56262 0
M  V30 4744 N 427.171 -0.0066808 1.57599 0
M  V30 4745 C 428.081 -1.01671 2.11424 0
M  V30 4746 C 429.097 -1.38143 1.05795 0
M  V30 4747 O 430.273 -1.47011 1.37658 0
M  V30 4748 C 427.338 -2.29192 2.60139 0
M  V30 4749 C 426.399 -1.99094 3.80342 0
M  V30 4750 C 425.632 -3.20535 4.26724 0
M  V30 4751 O 425.855 -4.3199 3.72479 0
M  V30 4752 O 424.789 -3.04924 5.18946 0
M  V30 4753 H 428.615 -0.589181 2.9793 0
M  V30 4754 H 426.2 -0.225091 1.47695 0
M  V30 4755 H 428.082 -3.0412 2.917 0
M  V30 4756 H 426.757 -2.71195 1.76733 0
M  V30 4757 H 425.664 -1.21663 3.53764 0
M  V30 4758 H 426.997 -1.61931 4.648 0
M  V30 4759 N 428.649 -1.55105 -0.279332 0
M  V30 4760 C 429.581 -1.83952 -1.36727 0
M  V30 4761 C 430.594 -0.723642 -1.45833 0
M  V30 4762 O 431.783 -1.00141 -1.47763 0
M  V30 4763 C 428.883 -1.98183 -2.74912 0
M  V30 4764 C 428.056 -3.28787 -2.88475 0
M  V30 4765 C 427.115 -3.33162 -4.07295 0
M  V30 4766 O 426.141 -4.06576 -3.98353 0
M  V30 4767 N 427.343 -2.60109 -5.18964 0
M  V30 4768 H 430.108 -2.77853 -1.12328 0
M  V30 4769 H 427.669 -1.54945 -0.469442 0
M  V30 4770 H 429.661 -1.98488 -3.52682 0
M  V30 4771 H 428.231 -1.11177 -2.92162 0
M  V30 4772 H 427.451 -3.41075 -1.97641 0
M  V30 4773 H 428.739 -4.14933 -2.94463 0
M  V30 4774 H 428.137 -2.00136 -5.29115 0
M  V30 4775 H 426.694 -2.66143 -5.94988 0
M  V30 4776 N 430.127 0.543554 -1.4793 0
M  V30 4777 C 431.376 1.29649 -1.54512 0
M  V30 4778 C 431.689 1.94382 -0.217973 0
M  V30 4779 O 432.895 2.71017 -0.161908 0
M  V30 4780 C 431.351 2.35175 -2.72435 0
M  V30 4781 C 430.959 1.76572 -4.11736 0
M  V30 4782 C 432.703 3.11564 -2.8832 0
M  V30 4783 C 430.61 2.79958 -5.20939 0
M  V30 4784 H 429.54 0.487541 -0.57517 0
M  V30 4785 H 432.191 0.575708 -1.74235 0
M  V30 4786 H 430.573 3.10229 -2.46118 0
M  V30 4787 H 431.747 1.07799 -4.48013 0
M  V30 4788 H 430.062 1.12722 -4.00852 0
M  V30 4789 H 432.659 3.88794 -3.67074 0
M  V30 4790 H 433.002 3.66594 -1.97268 0
M  V30 4791 H 433.535 2.43623 -3.14472 0
M  V30 4792 H 430.274 2.29766 -6.13912 0
M  V30 4793 H 429.794 3.47101 -4.89164 0
M  V30 4794 H 431.473 3.43198 -5.48474 0
M  V30 4795 N 431.605 1.3629 0.791371 0
M  V30 4796 C 432.835 1.33368 1.57786 0
M  V30 4797 C 433.243 -0.0875188 1.88997 0
M  V30 4798 O 432.586 -1.05427 1.50435 0
M  V30 4799 C 432.648 2.08802 2.92646 0
M  V30 4800 C 432.312 3.57903 2.84174 0
M  V30 4801 C 433.309 4.52191 2.56553 0
M  V30 4802 C 430.994 4.00762 3.02812 0
M  V30 4803 C 432.988 5.87315 2.47669 0
M  V30 4804 C 430.675 5.35977 2.93551 0
M  V30 4805 C 431.673 6.29066 2.66017 0
M  V30 4806 O 431.361 7.61798 2.56746 0
M  V30 4807 H 431.093 0.459166 0.496128 0
M  V30 4808 H 433.647 1.79952 0.990269 0
M  V30 4809 H 431.877 1.56878 3.53449 0
M  V30 4810 H 433.566 1.98762 3.53904 0
M  V30 4811 H 434.332 4.20393 2.41858 0
M  V30 4812 H 430.211 3.2868 3.2325 0
M  V30 4813 H 433.755 6.59943 2.26099 0
M  V30 4814 H 429.652 5.67384 3.07808 0
M  V30 4815 H 430.42 7.71898 2.72242 0
M  V30 4816 N 433.083 -1.0153 1.20538 0
M  V30 4817 C 433.993 -2.13557 0.971113 0
M  V30 4818 C 435.009 -1.73845 -0.0734366 0
M  V30 4819 O 436.185 -2.01075 0.114299 0
M  V30 4820 C 433.25 -3.42661 0.527639 0
M  V30 4821 C 432.311 -3.96608 1.64319 0
M  V30 4822 C 431.544 -5.1955 1.22078 0
M  V30 4823 O 431.767 -5.70329 0.0900198 0
M  V30 4824 O 430.701 -5.66681 2.02871 0
M  V30 4825 H 434.527 -2.3619 1.90913 0
M  V30 4826 H 432.112 -1.11946 0.989362 0
M  V30 4827 H 433.994 -4.20404 0.289621 0
M  V30 4828 H 432.669 -3.21441 -0.381779 0
M  V30 4829 H 431.576 -3.20139 1.93551 0
M  V30 4830 H 432.909 -4.22219 2.52966 0
M  V30 4831 N 434.561 -1.01147 -1.20859 0
M  V30 4832 C 435.81 -0.693214 -1.89413 0
M  V30 4833 C 436.123 0.779969 -1.79376 0
M  V30 4834 O 437.329 1.21057 -2.43017 0
M  V30 4835 C 435.785 -1.18949 -3.39675 0
M  V30 4836 C 435.393 -2.68921 -3.58309 0
M  V30 4837 C 437.137 -0.94642 -4.13815 0
M  V30 4838 C 435.044 -3.12056 -5.0237 0
M  V30 4839 H 433.974 -0.255595 -0.709357 0
M  V30 4840 H 436.625 -1.22349 -1.36759 0
M  V30 4841 H 435.007 -0.587228 -3.91622 0
M  V30 4842 H 436.181 -3.34652 -3.16772 0
M  V30 4843 H 434.496 -2.91314 -2.97532 0
M  V30 4844 H 437.093 -1.24417 -5.20023 0
M  V30 4845 H 437.436 0.117219 -4.16135 0
M  V30 4846 H 437.969 -1.5118 -3.67953 0
M  V30 4847 H 434.708 -4.17674 -5.05202 0
M  V30 4848 H 434.228 -2.51041 -5.44737 0
M  V30 4849 H 435.907 -3.04403 -5.70918 0
M  V30 4850 N 436.039 1.36541 -0.78704 0
M  V30 4851 C 436.969 2.32659 -0.197992 0
M  V30 4852 C 437.95 1.56533 0.665697 0
M  V30 4853 O 439.135 1.84698 0.60001 0
M  V30 4854 C 436.265 3.40778 0.669901 0
M  V30 4855 C 435.219 4.27897 -0.0937039 0
M  V30 4856 C 434.545 5.27163 0.894629 0
M  V30 4857 C 435.845 5.06334 -1.28154 0
M  V30 4858 H 437.539 2.82171 -1.00099 0
M  V30 4859 H 435.085 1.35665 -0.482793 0
M  V30 4860 H 437.038 4.07008 1.09191 0
M  V30 4861 H 435.762 2.89827 1.50558 0
M  V30 4862 H 434.421 3.6322 -0.49666 0
M  V30 4863 H 434.069 4.72486 1.72527 0
M  V30 4864 H 433.769 5.86317 0.388149 0
M  V30 4865 H 435.293 5.96266 1.31525 0
M  V30 4866 H 436.707 5.65617 -0.93541 0
M  V30 4867 H 435.104 5.74888 -1.72115 0
M  V30 4868 H 436.174 4.38114 -2.07807 0
M  V30 4869 N 437.518 0.538854 1.48102 0
M  V30 4870 C 438.465 -0.219042 2.29758 0
M  V30 4871 C 439.435 -0.925562 1.37922 0
M  V30 4872 O 440.62 -0.924855 1.66886 0
M  V30 4873 C 437.76 -1.25452 3.2149 0
M  V30 4874 C 436.873 -0.555943 4.28408 0
M  V30 4875 C 436.008 -1.57512 5.0731 0
M  V30 4876 C 435.047 -0.860498 6.06021 0
M  V30 4877 N 434.184 -1.82564 6.77949 0
M  V30 4878 H 439.024 0.483449 2.94052 0
M  V30 4879 H 436.561 0.250247 1.44956 0
M  V30 4880 H 438.519 -1.86727 3.7308 0
M  V30 4881 H 437.149 -1.92528 2.591 0
M  V30 4882 H 436.201 0.170938 3.80016 0
M  V30 4883 H 437.513 0.00474616 4.988 0
M  V30 4884 H 436.667 -2.26191 5.62959 0
M  V30 4885 H 435.406 -2.16972 4.36778 0
M  V30 4886 H 434.411 -0.159686 5.49568 0
M  V30 4887 H 435.636 -0.271897 6.78555 0
M  V30 4888 H 433.582 -2.40915 6.10161 0
M  V30 4889 H 433.499 -1.31662 7.44447 0
M  V30 4890 H 434.767 -2.50414 7.38182 0
M  V30 4891 N 438.996 -1.55193 0.274407 0
M  V30 4892 C 440.245 -1.98758 -0.343213 0
M  V30 4893 C 440.558 -1.16624 -1.5703 0
M  V30 4894 O 441.764 -1.5033 -2.26082 0
M  V30 4895 C 440.22 -3.53759 -0.661996 0
M  V30 4896 C 439.828 -4.4467 0.54524 0
M  V30 4897 C 441.572 -4.05916 -1.24228 0
M  V30 4898 C 439.479 -5.91058 0.201084 0
M  V30 4899 H 438.409 -0.742353 -0.132014 0
M  V30 4900 H 441.06 -1.79545 0.378948 0
M  V30 4901 H 439.442 -3.68772 -1.44304 0
M  V30 4902 H 440.616 -4.41426 1.32212 0
M  V30 4903 H 438.931 -4.03143 1.04232 0
M  V30 4904 H 441.528 -5.12831 -1.51357 0
M  V30 4905 H 441.871 -3.54908 -2.17592 0
M  V30 4906 H 442.404 -3.9434 -0.523542 0
M  V30 4907 H 439.143 -6.46161 1.10258 0
M  V30 4908 H 438.663 -5.97373 -0.539045 0
M  V30 4909 H 440.342 -6.46669 -0.206954 0
M  V30 4910 N 440.474 -0.00167713 -1.576 0
M  V30 4911 C 441.704 0.692754 -1.94639 0
M  V30 4912 C 442.112 1.67744 -0.87513 0
M  V30 4913 O 441.455 1.8305 0.154382 0
M  V30 4914 C 441.517 1.47881 -3.27676 0
M  V30 4915 C 441.181 0.655518 -4.52274 0
M  V30 4916 C 442.178 -0.0575214 -5.19868 0
M  V30 4917 C 439.863 0.600994 -4.98692 0
M  V30 4918 C 441.857 -0.814052 -6.3218 0
M  V30 4919 C 439.544 -0.15926 -6.10892 0
M  V30 4920 C 440.542 -0.865515 -6.77494 0
M  V30 4921 O 440.23 -1.61336 -7.87544 0
M  V30 4922 H 439.962 0.197792 -0.646417 0
M  V30 4923 H 442.516 -0.049423 -2.05341 0
M  V30 4924 H 440.746 2.2655 -3.13388 0
M  V30 4925 H 442.435 2.05874 -3.49816 0
M  V30 4926 H 443.201 -0.0245611 -4.84994 0
M  V30 4927 H 439.08 1.14025 -4.46676 0
M  V30 4928 H 442.624 -1.36584 -6.84098 0
M  V30 4929 H 438.521 -0.194035 -6.45208 0
M  V30 4930 H 439.289 -1.53025 -8.04068 0
M  V30 4931 N 441.952 1.55251 0.271103 0
M  V30 4932 C 442.884 1.84675 1.35749 0
M  V30 4933 C 443.897 0.731366 1.45447 0
M  V30 4934 O 445.086 1.00924 1.4723 0
M  V30 4935 C 442.186 1.99638 2.73857 0
M  V30 4936 C 441.359 3.30312 2.86727 0
M  V30 4937 C 440.418 3.35318 4.05522 0
M  V30 4938 O 439.444 4.08682 3.96191 0
M  V30 4939 N 440.646 2.62857 5.17577 0
M  V30 4940 H 443.411 2.78445 1.10853 0
M  V30 4941 H 440.972 1.55191 0.461218 0
M  V30 4942 H 442.964 2.00355 3.51625 0
M  V30 4943 H 441.534 1.12725 2.91568 0
M  V30 4944 H 440.754 3.42118 1.95829 0
M  V30 4945 H 442.042 4.16488 2.92258 0
M  V30 4946 H 441.44 2.02939 5.28046 0
M  V30 4947 H 439.997 2.69295 5.93568 0
M  V30 4948 N 443.43 -0.535701 1.48216 0
M  V30 4949 C 444.36 -1.65014 1.65204 0
M  V30 4950 C 445.341 -1.62554 0.501011 0
M  V30 4951 O 446.526 -1.7984 0.732886 0
M  V30 4952 C 443.656 -3.03616 1.68626 0
M  V30 4953 C 442.61 -3.20932 2.83172 0
M  V30 4954 C 441.936 -4.60537 2.71679 0
M  V30 4955 C 443.236 -3.04249 4.24535 0
M  V30 4956 H 444.93 -1.51053 2.58502 0
M  V30 4957 H 442.476 -0.725262 1.24402 0
M  V30 4958 H 444.429 -3.81446 1.79099 0
M  V30 4959 H 443.153 -3.18587 0.719026 0
M  V30 4960 H 441.812 -2.45517 2.72244 0
M  V30 4961 H 441.46 -4.72336 1.72937 0
M  V30 4962 H 441.16 -4.73069 3.48538 0
M  V30 4963 H 442.684 -5.40475 2.84112 0
M  V30 4964 H 444.098 -3.71877 4.36326 0
M  V30 4965 H 442.495 -3.28278 5.02348 0
M  V30 4966 H 443.565 -2.00739 4.41397 0
M  V30 4967 N 444.908 -1.36708 -0.784132 0
M  V30 4968 C 445.841 -1.25827 -1.90375 0
M  V30 4969 C 446.819 -0.141331 -1.61985 0
M  V30 4970 O 448.003 -0.313389 -1.85877 0
M  V30 4971 C 445.13 -0.942621 -3.25319 0
M  V30 4972 C 444.176 -2.07474 -3.72635 0
M  V30 4973 S 445.009 -3.69317 -3.8777 0
M  V30 4974 C 446.165 -3.39876 -5.25581 0
M  V30 4975 H 446.398 -2.20593 -1.99314 0
M  V30 4976 H 443.931 -1.22186 -0.943926 0
M  V30 4977 H 445.889 -0.767321 -4.03265 0
M  V30 4978 H 444.55 -0.0126566 -3.14097 0
M  V30 4979 H 443.743 -1.80858 -4.70432 0
M  V30 4980 H 443.345 -2.20953 -3.01754 0
M  V30 4981 H 445.637 -2.94097 -6.10339 0
M  V30 4982 H 446.58 -4.36956 -5.57203 0
M  V30 4983 H 446.988 -2.75098 -4.92931 0
M  V30 4984 N 446.386 1.0089 -1.21074 0
M  V30 4985 C 447.663 1.71834 -0.934469 0
M  V30 4986 C 448.043 2.0368 0.554753 0
M  V30 4987 O 447.391 1.70742 1.51854 0
M  V30 4988 C 447.601 2.98061 -1.8155 0
M  V30 4989 C 448.949 3.7117 -2.06199 0
M  V30 4990 O 449.973 3.08034 -1.78867 0
M  V30 4991 O 448.832 4.84721 -2.52404 0
M  V30 4992 H 445.926 0.749253 -0.35007 0
M  V30 4993 H 448.472 1.06668 -1.31985 0
M  V30 4994 H 447.244 2.70908 -2.82355 0
M  V30 4995 H 446.867 3.70968 -1.43068 0
M  V30 4996 N 447.864 1.01787 1.20321 0
M  V30 4997 C 448.814 0.559976 2.21016 0
M  V30 4998 C 449.798 -0.385366 1.56217 0
M  V30 4999 O 450.99 -0.208126 1.75772 0
M  V30 5000 C 448.119 -0.0990553 3.43157 0
M  V30 5001 C 447.205 0.86807 4.15121 0
M  V30 5002 N 447.596 2.0261 4.63447 0
M  V30 5003 C 445.894 0.689162 4.40643 0
M  V30 5004 C 446.595 2.63518 5.18588 0
M  V30 5005 N 445.571 1.91569 5.08726 0
M  V30 5006 H 449.373 1.44281 2.56048 0
M  V30 5007 H 446.887 0.883381 1.36272 0
M  V30 5008 H 448.884 -0.444643 4.14522 0
M  V30 5009 H 447.544 -0.977709 3.0963 0
M  V30 5010 H 448.555 2.40598 4.58621 0
M  V30 5011 H 445.232 -0.14133 4.17261 0
M  V30 5012 H 446.622 3.61527 5.66346 0
M  V30 5013 N 449.342 -1.36122 0.79427 0
M  V30 5014 C 450.567 -2.03891 0.379871 0
M  V30 5015 C 450.992 -1.59488 -0.997251 0
M  V30 5016 O 450.35 -0.765652 -1.64339 0
M  V30 5017 C 450.398 -3.57687 0.457442 0
M  V30 5018 O 449.502 -4.08931 -0.5338 0
M  V30 5019 H 448.843 -0.6443 0.160541 0
M  V30 5020 H 451.373 -1.73976 1.07673 0
M  V30 5021 H 451.383 -4.06721 0.322792 0
M  V30 5022 H 450.058 -3.89357 1.46199 0
M  V30 5023 H 448.635 -3.71154 -0.360409 0
M  V30 5024 N 450.82 -0.546701 -1.47814 0
M  V30 5025 C 451.768 0.220048 -2.31557 0
M  V30 5026 C 452.762 0.919472 -1.42275 0
M  V30 5027 O 453.968 0.841953 -1.59095 0
M  V30 5028 H 450.343 0.0898334 -0.746615 0
M  V30 5029 H 452.314 -0.505589 -2.94086 0
M  V30 5030 C 451.063 1.24353 -3.24702 0
M  V30 5031 H 450.386 0.714758 -3.93359 0
M  V30 5032 H 451.826 1.75112 -3.8615 0
M  V30 5033 C 450.285 2.28593 -2.47481 0
M  V30 5034 O 450.815 3.35334 -2.21165 0
M  V30 5035 N 449.021 2.02244 -2.08676 0
M  V30 5036 H 448.568 1.15455 -2.30278 0
M  V30 5037 H 448.526 2.72207 -1.57323 0
M  V30 5038 N 452.299 1.55045 -0.282633 0
M  V30 5039 C 453.232 2.18951 0.64311 0
M  V30 5040 C 454.21 1.15287 1.14664 0
M  V30 5041 O 455.394 1.43846 1.21822 0
M  V30 5042 C 452.521 2.81874 1.87789 0
M  V30 5043 C 451.567 3.98906 1.50919 0
M  V30 5044 S 452.4 5.3234 0.580884 0
M  V30 5045 C 453.556 5.98737 1.82387 0
M  V30 5046 H 453.789 2.97131 0.100138 0
M  V30 5047 H 451.322 1.54255 -0.0668514 0
M  V30 5048 H 453.28 3.18757 2.58658 0
M  V30 5049 H 451.941 2.03573 2.392 0
M  V30 5050 H 451.134 4.4165 2.42819 0
M  V30 5051 H 450.736 3.63485 0.88061 0
M  V30 5052 H 453.028 6.18427 2.76684 0
M  V30 5053 H 453.971 6.93318 1.4393 0
M  V30 5054 H 454.379 5.28177 1.99223 0
M  V30 5055 N 453.777 0.010035 1.57597 0
M  V30 5056 C 455.054 -0.710296 1.82248 0
M  V30 5057 C 455.434 -1.91426 0.889911 0
M  V30 5058 O 454.782 -2.28424 -0.0590292 0
M  V30 5059 C 454.992 -1.10655 3.30993 0
M  V30 5060 C 456.34 -1.50621 3.96987 0
M  V30 5061 O 457.364 -1.20007 3.35375 0
M  V30 5062 O 456.223 -2.07587 5.05539 0
M  V30 5063 H 453.317 -0.34673 0.750804 0
M  V30 5064 H 455.863 0.0362578 1.69661 0
M  V30 5065 H 454.635 -0.248826 3.90508 0
M  V30 5066 H 454.258 -1.91189 3.48615 0
M  V30 5067 N 455.255 -1.55392 -0.262866 0
M  V30 5068 C 456.495 -1.78231 -1.00064 0
M  V30 5069 C 456.859 -0.576966 -1.83126 0
M  V30 5070 O 458.06 -0.683809 -2.59957 0
M  V30 5071 C 456.331 -3.05701 -1.85153 0
M  V30 5072 S 457.89 -3.49699 -2.65058 0
M  V30 5073 H 454.708 -0.626138 -0.336856 0
M  V30 5074 H 457.31 -1.93626 -0.27005 0
M  V30 5075 H 456.014 -3.91511 -1.23074 0
M  V30 5076 H 455.545 -2.93 -2.62515 0
M  V30 5077 H 457.56 -3.09772 -3.87629 0
M  V30 5078 N 456.733 0.527833 -1.48498 0
M  V30 5079 C 457.98 1.28354 -1.56625 0
M  V30 5080 C 458.308 1.93 -0.241096 0
M  V30 5081 O 457.563 1.79967 0.768798 0
M  V30 5082 C 457.862 2.39275 -2.65485 0
M  V30 5083 C 457.528 1.92268 -4.07853 0
M  V30 5084 C 456.19 1.79166 -4.46602 0
M  V30 5085 C 458.542 1.56771 -4.97064 0
M  V30 5086 C 455.87 1.28905 -5.72364 0
M  V30 5087 C 458.222 1.07972 -6.23318 0
M  V30 5088 C 456.886 0.934887 -6.60921 0
M  V30 5089 H 456.156 0.469682 -0.573131 0
M  V30 5090 H 458.803 0.588781 -1.82224 0
M  V30 5091 H 457.108 3.1443 -2.33754 0
M  V30 5092 H 458.805 2.974 -2.68988 0
M  V30 5093 H 455.395 2.03417 -3.77252 0
M  V30 5094 H 459.579 1.65753 -4.67803 0
M  V30 5095 H 454.835 1.16381 -6.00221 0
M  V30 5096 H 459.009 0.795775 -6.91838 0
M  V30 5097 H 456.636 0.543231 -7.58257 0
M  V30 5098 N 458.211 1.37122 0.776871 0
M  V30 5099 C 459.46 1.31373 1.53049 0
M  V30 5100 C 459.773 -0.101016 1.95339 0
M  V30 5101 O 460.979 -0.280953 2.70042 0
M  V30 5102 C 459.435 2.30567 2.76346 0
M  V30 5103 C 459.043 3.77543 2.41175 0
M  V30 5104 C 460.787 2.33818 3.54301 0
M  V30 5105 C 458.694 4.68481 3.60943 0
M  V30 5106 H 457.624 0.488234 0.574581 0
M  V30 5107 H 460.275 1.62554 0.851372 0
M  V30 5108 H 458.657 1.92396 3.46121 0
M  V30 5109 H 459.831 4.24521 1.79216 0
M  V30 5110 H 458.146 3.77187 1.76405 0
M  V30 5111 H 460.743 2.98965 4.4331 0
M  V30 5112 H 461.086 1.3503 3.93793 0
M  V30 5113 H 461.619 2.7067 2.91518 0
M  V30 5114 H 458.358 5.68378 3.26537 0
M  V30 5115 H 457.878 4.2621 4.22025 0
M  V30 5116 H 459.557 4.85366 4.27819 0
M  V30 5117 N 459.689 -1.00246 1.21608 0
M  V30 5118 C 460.929 -1.75589 1.04631 0
M  V30 5119 C 461.293 -1.87513 -0.412648 0
M  V30 5120 O 462.494 -2.59444 -0.703003 0
M  V30 5121 C 460.765 -3.12893 1.72722 0
M  V30 5122 S 462.324 -4.04095 1.71034 0
M  V30 5123 H 459.142 -0.604133 0.374892 0
M  V30 5124 H 461.744 -1.19927 1.54395 0
M  V30 5125 H 460.448 -3.0185 2.78055 0
M  V30 5126 H 459.979 -3.73628 1.23149 0
M  V30 5127 H 461.994 -4.9045 0.753231 0
M  V30 5128 N 461.167 -1.02423 -1.1978 0
M  V30 5129 C 462.407 -0.726635 -1.91048 0
M  V30 5130 C 462.771 0.730947 -1.77542 0
M  V30 5131 O 463.972 1.14141 -2.43362 0
M  V30 5132 C 462.243 -1.15964 -3.38064 0
M  V30 5133 S 463.802 -0.985172 -4.27598 0
M  V30 5134 H 460.62 -0.264679 -0.659899 0
M  V30 5135 H 463.222 -1.31309 -1.44838 0
M  V30 5136 H 461.926 -2.21619 -3.45417 0
M  V30 5137 H 461.457 -0.566274 -3.89303 0
M  V30 5138 H 463.472 0.106946 -4.96085 0
M  V30 5139 N 462.645 1.35699 -0.801477 0
M  V30 5140 C 463.894 1.98165 -0.375979 0
M  V30 5141 C 464.207 1.64306 1.06127 0
M  V30 5142 O 465.413 2.20097 1.58964 0
M  V30 5143 C 463.869 3.54497 -0.621305 0
M  V30 5144 C 463.477 3.9727 -2.07076 0
M  V30 5145 C 465.221 4.23697 -0.26091 0
M  V30 5146 C 463.128 5.46427 -2.26211 0
M  V30 5147 H 462.058 0.741478 -0.136844 0
M  V30 5148 H 464.709 1.54834 -0.984814 0
M  V30 5149 H 463.091 3.95958 0.0574112 0
M  V30 5150 H 464.265 3.66974 -2.78687 0
M  V30 5151 H 462.58 3.40943 -2.39054 0
M  V30 5152 H 465.177 5.33334 -0.381994 0
M  V30 5153 H 465.52 4.0869 0.792344 0
M  V30 5154 H 466.053 3.87639 -0.893339 0
M  V30 5155 H 462.792 5.66396 -3.29963 0
M  V30 5156 H 462.312 5.78309 -1.59119 0
M  V30 5157 H 463.991 6.12819 -2.07513 0
M  V30 5158 N 464.123 0.554532 1.47522 0
M  V30 5159 C 465.053 -0.182974 2.32782 0
M  V30 5160 C 466.034 -0.911377 1.43624 0
M  V30 5161 O 467.219 -0.892366 1.72483 0
M  V30 5162 C 464.349 -1.21513 3.25349 0
M  V30 5163 C 463.303 -0.603355 4.23726 0
M  V30 5164 C 462.629 -1.73995 5.05598 0
M  V30 5165 C 463.929 0.441121 5.20434 0
M  V30 5166 H 465.623 0.52882 2.94693 0
M  V30 5167 H 463.169 0.255759 1.41711 0
M  V30 5168 H 465.122 -1.73922 3.83835 0
M  V30 5169 H 463.846 -1.95683 2.61487 0
M  V30 5170 H 462.505 -0.10059 3.66462 0
M  V30 5171 H 462.153 -2.47063 4.38143 0
M  V30 5172 H 461.853 -1.3364 5.72201 0
M  V30 5173 H 463.377 -2.26735 5.66942 0
M  V30 5174 H 464.791 0.00319931 5.733 0
M  V30 5175 H 463.188 0.763402 5.95224 0
M  V30 5176 H 464.258 1.33799 4.66075 0
M  V30 5177 N 465.601 -1.54893 0.290851 0
M  V30 5178 C 466.826 -2.04804 -0.32712 0
M  V30 5179 C 467.251 -1.16721 -1.47506 0
M  V30 5180 O 466.609 -0.169107 -1.8051 0
M  V30 5181 C 466.657 -3.52268 -0.770689 0
M  V30 5182 O 465.761 -3.67236 -1.87647 0
M  V30 5183 H 465.102 -0.660789 -0.0652227 0
M  V30 5184 H 467.632 -2.00036 0.429739 0
M  V30 5185 H 467.642 -3.9393 -1.06223 0
M  V30 5186 H 466.317 -4.15843 0.069096 0
M  V30 5187 H 464.894 -3.37479 -1.58626 0
M  V30 5188 N 467.08 -0.0183926 -1.57589 0
M  V30 5189 C 468.03 0.975944 -2.06057 0
M  V30 5190 C 469.014 1.29204 -0.958908 0
M  V30 5191 O 470.206 1.27995 -1.22255 0
M  V30 5192 C 467.335 2.26194 -2.58247 0
M  V30 5193 C 466.421 1.97467 -3.75323 0
M  V30 5194 N 466.812 1.38968 -4.86335 0
M  V30 5195 C 465.11 2.27515 -3.83605 0
M  V30 5196 C 465.811 1.27131 -5.67638 0
M  V30 5197 N 464.787 1.76319 -5.14211 0
M  V30 5198 H 468.589 0.518444 -2.89291 0
M  V30 5199 H 466.103 0.18688 -1.61321 0
M  V30 5200 H 468.1 2.98289 -2.91255 0
M  V30 5201 H 466.76 2.7258 -1.76438 0
M  V30 5202 H 467.771 1.06608 -5.06809 0
M  V30 5203 H 464.448 2.76649 -3.12684 0
M  V30 5204 H 465.838 0.819882 -6.66879 0
M  V30 5205 N 468.558 1.5553 0.254621 0
M  V30 5206 C 469.806 1.7665 0.981793 0
M  V30 5207 C 470.127 0.580963 1.86145 0
M  V30 5208 O 469.397 -0.403537 1.91699 0
M  V30 5209 H 467.977 0.651475 0.365498 0
M  V30 5210 H 470.639 1.92958 0.274426 0
M  V30 5211 H 469.735 2.67486 1.60802 0
M  V30 5212 N 470.036 -0.519951 1.48776 0
M  V30 5213 C 471.313 -1.28123 1.47797 0
M  V30 5214 C 471.693 -2.10196 0.195157 0
M  V30 5215 O 471.041 -2.13167 -0.822925 0
M  V30 5216 C 471.251 -2.15413 2.74587 0
M  V30 5217 C 472.599 -2.75225 3.23321 0
M  V30 5218 O 473.623 -2.25694 2.75574 0
M  V30 5219 O 472.482 -3.65346 4.06429 0
M  V30 5220 H 469.576 -0.578793 0.590701 0
M  V30 5221 H 472.122 -0.535779 1.6102 0
M  V30 5222 H 470.894 -1.54617 3.59457 0
M  V30 5223 H 470.517 -2.97186 2.64132 0
M  V30 5224 N 471.514 -1.37532 -0.769588 0
M  V30 5225 C 472.461 -1.3347 -1.88293 0
M  V30 5226 C 473.431 -0.199891 -1.64893 0
M  V30 5227 O 474.616 -0.389594 -1.8678 0
M  V30 5228 C 471.756 -1.14968 -3.25387 0
M  V30 5229 C 470.869 -2.37698 -3.60727 0
M  V30 5230 C 470.004 -2.12051 -4.8704 0
M  V30 5231 C 469.043 -3.30636 -5.15117 0
M  V30 5232 N 468.18 -3.04527 -6.3262 0
M  V30 5233 H 473.02 -2.28658 -1.911 0
M  V30 5234 H 470.557 -1.13622 -0.934257 0
M  V30 5235 H 472.515 -1.02261 -4.04473 0
M  V30 5236 H 471.145 -0.234263 -3.21949 0
M  V30 5237 H 470.197 -2.61137 -2.76608 0
M  V30 5238 H 471.509 -3.26131 -3.77413 0
M  V30 5239 H 470.663 -1.96388 -5.74035 0
M  V30 5240 H 469.402 -1.20959 -4.72462 0
M  V30 5241 H 468.407 -3.46836 -4.26597 0
M  V30 5242 H 469.632 -4.22582 -5.31603 0
M  V30 5243 H 467.578 -2.16067 -6.19396 0
M  V30 5244 H 467.495 -3.86503 -6.49732 0
M  V30 5245 H 468.763 -2.92485 -7.22546 0
M  V30 5246 N 472.992 0.995999 -1.22138 0
M  V30 5247 C 474.24 1.73167 -1.042 0
M  V30 5248 C 474.561 1.90329 0.42423 0
M  V30 5249 O 473.831 1.4607 1.30539 0
M  V30 5250 H 472.411 0.641593 -0.38258 0
M  V30 5251 H 475.073 1.19974 -1.53598 0
M  V30 5252 H 474.169 2.72734 -1.51731 0
M  V30 5253 N 474.47 1.03057 1.19235 0
M  V30 5254 C 475.719 0.72326 1.88287 0
M  V30 5255 C 476.032 -0.751333 1.80594 0
M  V30 5256 O 477.238 -1.17176 2.44912 0
M  V30 5257 C 475.694 1.24338 3.3774 0
M  V30 5258 C 475.302 2.74587 3.53986 0
M  V30 5259 C 477.046 1.01213 4.12257 0
M  V30 5260 C 474.953 3.20009 4.97341 0
M  V30 5261 H 473.883 0.266848 0.705201 0
M  V30 5262 H 476.534 1.24509 1.34795 0
M  V30 5263 H 474.916 0.649457 3.90638 0
M  V30 5264 H 476.09 3.39649 3.11408 0
M  V30 5265 H 474.405 2.9601 2.9286 0
M  V30 5266 H 477.002 1.32675 5.17978 0
M  V30 5267 H 477.345 -0.051001 4.16269 0
M  V30 5268 H 477.878 1.57014 3.65501 0
M  V30 5269 H 474.617 4.25659 4.98493 0
M  V30 5270 H 474.137 2.59676 5.40674 0
M  V30 5271 H 475.816 3.13447 5.66003 0
M  V30 5272 N 475.948 -1.35272 0.808662 0
M  V30 5273 C 477.197 -1.97963 0.386483 0
M  V30 5274 C 477.51 -1.64866 -1.05255 0
M  V30 5275 O 478.716 -2.20937 -1.57794 0
M  V30 5276 C 477.172 -3.54162 0.640096 0
M  V30 5277 C 476.78 -3.96166 2.0918 0
M  V30 5278 C 478.524 -4.23553 0.283376 0
M  V30 5279 C 476.431 -5.4522 2.29106 0
M  V30 5280 H 475.361 -0.740742 0.140774 0
M  V30 5281 H 478.012 -1.5431 0.993012 0
M  V30 5282 H 476.394 -3.95983 -0.0364117 0
M  V30 5283 H 477.568 -3.65491 2.80629 0
M  V30 5284 H 475.883 -3.3967 2.40859 0
M  V30 5285 H 478.48 -5.33124 0.410273 0
M  V30 5286 H 478.823 -4.09105 -0.770659 0
M  V30 5287 H 479.356 -3.8716 0.913884 0
M  V30 5288 H 476.095 -5.64638 3.32962 0
M  V30 5289 H 475.615 -5.77457 1.62184 0
M  V30 5290 H 477.294 -6.1171 2.1076 0
M  V30 5291 N 477.426 -0.562348 -1.47226 0
M  V30 5292 C 478.656 -0.0451619 -2.06551 0
M  V30 5293 C 479.064 1.25626 -1.41473 0
M  V30 5294 O 478.407 1.76563 -0.507061 0
M  V30 5295 C 478.469 0.216068 -3.5885 0
M  V30 5296 C 478.133 -0.996691 -4.45999 0
M  V30 5297 C 479.13 -1.90358 -4.83797 0
M  V30 5298 C 476.815 -1.21281 -4.87438 0
M  V30 5299 C 478.809 -3.01023 -5.6184 0
M  V30 5300 C 476.496 -2.32255 -5.65244 0
M  V30 5301 C 477.494 -3.21956 -6.02356 0
M  V30 5302 O 477.182 -4.31005 -6.78594 0
M  V30 5303 H 476.914 -0.0451646 -0.67449 0
M  V30 5304 H 479.468 -0.776842 -1.90143 0
M  V30 5305 H 477.698 1.00212 -3.7349 0
M  V30 5306 H 479.387 0.679264 -4.00176 0
M  V30 5307 H 480.153 -1.74868 -4.52378 0
M  V30 5308 H 476.032 -0.523767 -4.58015 0
M  V30 5309 H 479.576 -3.71064 -5.90726 0
M  V30 5310 H 475.473 -2.47715 -5.96077 0
M  V30 5311 H 476.241 -4.29118 -6.96994 0
M  V30 5312 N 478.904 1.54736 -0.299062 0
M  V30 5313 C 480.152 1.99706 0.31017 0
M  V30 5314 C 480.473 1.18896 1.54559 0
M  V30 5315 O 479.743 0.284445 1.93824 0
M  V30 5316 H 478.323 0.737686 0.117596 0
M  V30 5317 H 480.985 1.9054 -0.409943 0
M  V30 5318 H 480.081 3.06596 0.58355 0
M  V30 5319 N 480.382 0.0267497 1.57577 0
M  V30 5320 C 481.61 -0.662661 1.96001 0
M  V30 5321 C 482.025 -1.65799 0.903117 0
M  V30 5322 O 481.382 -1.82135 -0.115317 0
M  V30 5323 C 481.433 -1.37112 3.34488 0
M  V30 5324 O 481.154 -0.415683 4.36123 0
M  V30 5325 C 482.655 -2.15257 3.8753 0
M  V30 5326 H 479.875 -0.18287 0.6456 0
M  V30 5327 H 482.419 0.0858116 2.0432 0
M  V30 5328 H 480.574 -2.07101 3.27395 0
M  V30 5329 H 480.988 -0.918496 5.16395 0
M  V30 5330 H 482.462 -2.60285 4.86781 0
M  V30 5331 H 482.939 -2.99063 3.21649 0
M  V30 5332 H 483.545 -1.50231 3.97883 0
M  V30 5333 N 481.861 -1.55662 -0.24637 0
M  V30 5334 C 483.138 -1.68272 -0.997198 0
M  V30 5335 C 483.518 -0.566785 -2.03349 0
M  V30 5336 O 482.866 0.429688 -2.24424 0
M  V30 5337 C 483.076 -3.08594 -1.63006 0
M  V30 5338 C 484.424 -3.6721 -2.13171 0
M  V30 5339 O 485.448 -3.11397 -1.72946 0
M  V30 5340 O 484.307 -4.65054 -2.87031 0
M  V30 5341 H 481.401 -0.684429 -0.464205 0
M  V30 5342 H 483.947 -1.67993 -0.240114 0
M  V30 5343 H 482.719 -3.81264 -0.880527 0
M  V30 5344 H 482.342 -3.12886 -2.45333 0
M  V30 5345 N 483.339 0.512053 -1.4905 0
M  V30 5346 C 484.587 1.26436 -1.57665 0
M  V30 5347 C 484.908 1.93255 -0.260293 0
M  V30 5348 O 484.178 1.82206 0.719564 0
M  V30 5349 H 482.758 0.469658 -0.580888 0
M  V30 5350 H 485.42 0.594398 -1.85615 0
M  V30 5351 H 484.516 2.03417 -2.36702 0
M  V30 5352 N 484.817 1.37938 0.762283 0
M  V30 5353 C 485.749 1.30349 1.88525 0
M  V30 5354 C 486.762 0.217402 1.61342 0
M  V30 5355 O 487.951 0.474291 1.72084 0
M  V30 5356 C 485.051 0.994844 3.23969 0
M  V30 5357 C 484.224 2.18829 3.78725 0
M  V30 5358 C 483.283 1.84844 4.92665 0
M  V30 5359 O 482.309 2.57244 5.07754 0
M  V30 5360 N 483.511 0.798201 5.74986 0
M  V30 5361 H 486.276 2.27114 1.95549 0
M  V30 5362 H 483.837 1.31686 0.941825 0
M  V30 5363 H 485.829 0.748168 3.97724 0
M  V30 5364 H 484.399 0.115446 3.12387 0
M  V30 5365 H 483.619 2.59615 2.96637 0
M  V30 5366 H 484.907 2.98497 4.1204 0
M  V30 5367 H 484.305 0.197611 5.65355 0
M  V30 5368 H 482.862 0.611396 6.48926 0
M  V30 5369 N 486.295 -0.989507 1.22664 0
M  V30 5370 C 487.205 -2.11449 1.01619 0
M  V30 5371 C 488.221 -1.73962 -0.036545 0
M  V30 5372 O 489.397 -2.00788 0.156924 0
M  V30 5373 C 486.462 -3.41465 0.600204 0
M  V30 5374 C 485.523 -3.93033 1.72695 0
M  V30 5375 C 484.756 -5.16844 1.33071 0
M  V30 5376 O 484.979 -5.7001 0.210975 0
M  V30 5377 O 483.913 -5.6225 2.14845 0
M  V30 5378 H 487.739 -2.32088 1.9588 0
M  V30 5379 H 485.324 -1.09823 1.01289 0
M  V30 5380 H 487.206 -4.19695 0.37873 0
M  V30 5381 H 485.881 -3.22178 -0.313511 0
M  V30 5382 H 484.788 -3.15961 2.00298 0
M  V30 5383 H 486.121 -4.16758 2.61865 0
M  V30 5384 N 487.773 -1.03688 -1.18687 0
M  V30 5385 C 488.736 -0.629115 -2.20397 0
M  V30 5386 C 489.736 0.311495 -1.57754 0
M  V30 5387 O 490.926 0.0974107 -1.73927 0
M  V30 5388 C 488.058 0.0782231 -3.4081 0
M  V30 5389 H 489.251 -1.52915 -2.57987 0
M  V30 5390 H 486.804 -0.828988 -1.32505 0
M  V30 5391 H 487.539 0.992233 -3.08748 0
M  V30 5392 H 487.324 -0.597776 -3.87517 0
M  V30 5393 H 488.814 0.350156 -4.16129 0
M  V30 5394 N 489.251 1.34841 -0.815825 0
M  V30 5395 C 490.662 1.80937 -0.46029 0
M  V30 5396 C 491.013 1.67685 1.01863 0
M  V30 5397 O 490.138 1.21277 1.79223 0
M  V30 5398 C 490.733 3.28509 -0.828708 0
M  V30 5399 C 489.292 3.72712 -0.525644 0
M  V30 5400 C 488.439 2.56676 -1.04941 0
M  V30 5401 H 491.39 1.22688 -1.00664 0
M  V30 5402 H 491.411 3.80279 -0.129757 0
M  V30 5403 H 490.923 3.38122 -1.90513 0
M  V30 5404 H 489.024 3.68642 0.541666 0
M  V30 5405 H 489.137 4.67119 -1.06474 0
M  V30 5406 H 487.501 2.50302 -0.471286 0
M  V30 5407 H 488.284 2.69063 -2.13214 0
M  V30 5408 N 490.729 0.570148 1.46925 0
M  V30 5409 C 491.978 0.0487352 2.01641 0
M  V30 5410 C 492.291 -1.31433 1.44861 0
M  V30 5411 O 493.497 -1.92638 1.91318 0
M  V30 5412 C 491.953 0.0365817 3.59881 0
M  V30 5413 C 491.561 1.39719 4.25655 0
M  V30 5414 C 493.305 -0.431545 4.22301 0
M  V30 5415 C 491.212 1.34345 5.75939 0
M  V30 5416 H 490.142 0.0144492 0.753862 0
M  V30 5417 H 492.793 0.719928 1.68788 0
M  V30 5418 H 491.175 -0.700522 3.89755 0
M  V30 5419 H 492.349 2.15303 4.07408 0
M  V30 5420 H 490.664 1.80431 3.75278 0
M  V30 5421 H 493.261 -0.490354 5.32447 0
M  V30 5422 H 493.604 -1.44638 3.90366 0
M  V30 5423 H 494.137 0.251102 3.97007 0
M  V30 5424 H 490.876 2.33469 6.12513 0
M  V30 5425 H 490.396 0.629615 5.96486 0
M  V30 5426 H 492.075 1.051 6.38407 0
M  V30 5427 N 492.207 -1.54576 0.307264 0
M  V30 5428 C 493.437 -2.04378 -0.302158 0
M  V30 5429 C 493.845 -1.18381 -1.47589 0
M  V30 5430 O 493.188 -0.20352 -1.82569 0
M  V30 5431 C 493.25 -3.50133 -0.815305 0
M  V30 5432 C 492.914 -4.56401 0.233977 0
M  V30 5433 C 493.911 -5.08884 1.06456 0
M  V30 5434 C 491.596 -5.0088 0.377478 0
M  V30 5435 C 493.59 -6.04394 2.02452 0
M  V30 5436 C 491.277 -5.96208 1.34088 0
M  V30 5437 C 492.275 -6.47849 2.16288 0
M  V30 5438 O 491.963 -7.41308 3.10994 0
M  V30 5439 H 491.695 -0.672502 -0.0686839 0
M  V30 5440 H 494.249 -2.00484 0.446682 0
M  V30 5441 H 492.479 -3.51371 -1.61478 0
M  V30 5442 H 494.168 -3.83098 -1.34129 0
M  V30 5443 H 494.934 -4.75311 0.964596 0
M  V30 5444 H 490.813 -4.60309 -0.252405 0
M  V30 5445 H 494.357 -6.44626 2.66652 0
M  V30 5446 H 490.254 -6.29198 1.44154 0
M  V30 5447 H 491.022 -7.5913 3.06045 0
M  V30 5448 N 493.685 -0.035106 -1.57561 0
M  V30 5449 C 494.595 0.960295 -2.14046 0
M  V30 5450 C 495.611 1.3529 -1.0942 0
M  V30 5451 O 496.787 1.43309 -1.41508 0
M  V30 5452 C 493.852 2.22214 -2.66124 0
M  V30 5453 C 492.913 1.8894 -3.85487 0
M  V30 5454 C 492.146 3.09109 -4.35072 0
M  V30 5455 O 492.369 4.21963 -3.83802 0
M  V30 5456 O 491.303 2.91058 -5.26848 0
M  V30 5457 H 495.129 0.509983 -2.99387 0
M  V30 5458 H 492.714 0.185853 -1.48239 0
M  V30 5459 H 494.596 2.96279 -2.99661 0
M  V30 5460 H 493.271 2.66414 -1.83862 0
M  V30 5461 H 492.178 1.12241 -3.56865 0
M  V30 5462 H 493.511 1.49551 -4.6893 0
M  V30 5463 N 495.163 1.55791 0.238111 0
M  V30 5464 C 496.093 1.94068 1.29846 0
M  V30 5465 C 497.074 0.806726 1.49753 0
M  V30 5466 O 498.259 1.06772 1.62214 0
M  V30 5467 C 495.389 2.24302 2.65153 0
M  V30 5468 C 494.343 3.40032 2.59927 0
M  V30 5469 C 493.669 3.55829 3.99111 0
M  V30 5470 C 494.969 4.75476 2.16148 0
M  V30 5471 H 496.663 2.82887 0.980563 0
M  V30 5472 H 494.209 1.36105 0.470253 0
M  V30 5473 H 496.162 2.4967 3.39475 0
M  V30 5474 H 494.886 1.32318 2.98596 0
M  V30 5475 H 493.545 3.14687 1.88063 0
M  V30 5476 H 493.193 2.6125 4.29834 0
M  V30 5477 H 492.893 4.3366 3.96501 0
M  V30 5478 H 494.417 3.83528 4.7512 0
M  V30 5479 H 495.831 5.00158 2.80205 0
M  V30 5480 H 494.228 5.56472 2.24631 0
M  V30 5481 H 495.298 4.71946 1.11333 0
M  V30 5482 N 496.642 -0.504142 1.49319 0
M  V30 5483 C 497.87 -1.28256 1.62351 0
M  V30 5484 C 498.285 -1.86502 0.293682 0
M  V30 5485 O 497.642 -1.67678 -0.720449 0
M  V30 5486 C 497.693 -2.41507 2.68992 0
M  V30 5487 O 497.414 -1.85656 3.96817 0
M  V30 5488 C 498.915 -3.32929 2.927 0
M  V30 5489 H 496.135 -0.389115 0.546654 0
M  V30 5490 H 498.679 -0.605531 1.95329 0
M  V30 5491 H 496.834 -3.05046 2.38801 0
M  V30 5492 H 497.248 -2.59981 4.55533 0
M  V30 5493 H 498.722 -4.0868 3.71058 0
M  V30 5494 H 499.199 -3.89733 2.02496 0
M  V30 5495 H 499.805 -2.75158 3.24296 0
M  V30 5496 N 498.12 -1.38341 -0.754957 0
M  V30 5497 C 499.345 -1.37882 -1.5493 0
M  V30 5498 C 499.77 0.0296385 -1.88077 0
M  V30 5499 O 499.128 1.01133 -1.50472 0
M  V30 5500 C 499.176 -2.23996 -2.82592 0
M  V30 5501 O 498.28 -1.65612 -3.77686 0
M  V30 5502 H 497.621 -0.470384 -0.468652 0
M  V30 5503 H 500.151 -1.82084 -0.933082 0
M  V30 5504 H 500.161 -2.37806 -3.3153 0
M  V30 5505 H 498.836 -3.26365 -2.57796 0
M  V30 5506 H 497.413 -1.60936 -3.36384 0
M  V30 5507 N 499.598 0.982988 -1.23187 0
M  V30 5508 C 500.53 2.07729 -0.968572 0
M  V30 5509 C 501.543 1.62702 0.0564821 0
M  V30 5510 O 502.732 1.77603 -0.178733 0
M  V30 5511 C 499.832 3.36071 -0.436974 0
M  V30 5512 C 499.005 4.10081 -1.52159 0
M  V30 5513 C 498.064 5.16701 -0.99532 0
M  V30 5514 O 497.09 5.43727 -1.68373 0
M  V30 5515 N 498.292 5.80226 0.178192 0
M  V30 5516 H 501.057 2.30894 -1.9107 0
M  V30 5517 H 498.618 1.14949 -1.1401 0
M  V30 5518 H 500.61 4.04639 -0.0700051 0
M  V30 5519 H 499.18 3.09893 0.410509 0
M  V30 5520 H 498.4 3.36004 -2.06144 0
M  V30 5521 H 499.688 4.56295 -2.25105 0
M  V30 5522 H 499.086 5.60651 0.754096 0
M  V30 5523 H 497.643 6.49982 0.486449 0
M  V30 5524 N 501.076 1.04316 1.18135 0
M  V30 5525 C 502.323 0.74802 1.88178 0
M  V30 5526 C 502.651 -0.72441 1.80506 0
M  V30 5527 O 501.906 -1.54463 1.20165 0
M  V30 5528 C 502.205 1.16271 3.37958 0
M  V30 5529 C 501.871 2.63585 3.65833 0
M  V30 5530 C 500.533 3.03829 3.73151 0
M  V30 5531 C 502.885 3.58822 3.78016 0
M  V30 5532 C 500.213 4.38194 3.90132 0
M  V30 5533 C 502.565 4.92909 3.96514 0
M  V30 5534 C 501.229 5.3282 4.02068 0
M  V30 5535 H 500.499 0.27372 0.688592 0
M  V30 5536 H 503.146 1.30863 1.39811 0
M  V30 5537 H 501.451 0.520938 3.88321 0
M  V30 5538 H 503.148 0.911672 3.90499 0
M  V30 5539 H 499.738 2.31414 3.60757 0
M  V30 5540 H 503.922 3.28875 3.71692 0
M  V30 5541 H 499.178 4.68631 3.92677 0
M  V30 5542 H 503.352 5.66606 4.04883 0
M  V30 5543 H 500.979 6.36943 4.14979 0
M  V30 5544 N 502.554 -1.34406 0.822964 0
M  V30 5545 C 503.782 -2.02508 0.424039 0
M  V30 5546 C 504.197 -1.61975 -0.970022 0
M  V30 5547 O 503.554 -0.825228 -1.62777 0
M  V30 5548 C 503.605 -3.57789 0.516657 0
M  V30 5549 O 503.326 -3.96853 1.85577 0
M  V30 5550 C 504.827 -4.43157 0.112637 0
M  V30 5551 H 502.047 -0.649063 0.170173 0
M  V30 5552 H 504.591 -1.7168 1.11113 0
M  V30 5553 H 502.746 -3.87207 -0.122353 0
M  V30 5554 H 503.16 -4.91538 1.83005 0
M  V30 5555 H 504.634 -5.51527 0.228526 0
M  V30 5556 H 505.111 -4.28939 -0.943837 0
M  V30 5557 H 505.717 -4.19067 0.725449 0
M  V30 5558 N 504.032 -0.577932 -1.46621 0
M  V30 5559 C 505.28 -0.061566 -2.02006 0
M  V30 5560 C 505.601 1.30117 -1.4524 0
M  V30 5561 O 504.871 1.85313 -0.63529 0
M  V30 5562 H 503.451 -0.0197692 -0.746738 0
M  V30 5563 H 506.113 -0.752631 -1.79782 0
M  V30 5564 H 505.209 0.0110238 -3.12098 0
M  V30 5565 N 505.51 1.54411 -0.315457 0
M  V30 5566 C 506.44 2.27002 0.547039 0
M  V30 5567 C 507.421 1.27492 1.12605 0
M  V30 5568 O 508.606 1.5629 1.15269 0
M  V30 5569 C 505.736 3.02171 1.71201 0
M  V30 5570 C 504.69 4.0895 1.26268 0
M  V30 5571 C 504.016 4.71915 2.51396 0
M  V30 5572 C 505.316 5.20891 0.383419 0
M  V30 5573 H 507.01 2.99343 -0.0584517 0
M  V30 5574 H 504.556 1.4397 -0.0295527 0
M  V30 5575 H 506.509 3.51681 2.32161 0
M  V30 5576 H 505.233 2.27433 2.34397 0
M  V30 5577 H 503.892 3.60312 0.676062 0
M  V30 5578 H 503.54 3.93801 3.12937 0
M  V30 5579 H 503.24 5.44039 2.22026 0
M  V30 5580 H 504.764 5.24195 3.13133 0
M  V30 5581 H 506.178 5.66206 0.899082 0
M  V30 5582 H 504.575 5.99821 0.182857 0
M  V30 5583 H 505.645 4.81324 -0.587821 0
M  V30 5584 N 506.988 0.0434614 1.5754 0
M  V30 5585 C 507.935 -0.93356 2.11077 0
M  V30 5586 C 508.905 -1.31383 1.01626 0
M  V30 5587 O 510.09 -1.40465 1.29129 0
M  V30 5588 C 507.23 -2.20578 2.65404 0
M  V30 5589 C 506.343 -1.88068 3.88914 0
M  V30 5590 C 505.478 -3.09691 4.31584 0
M  V30 5591 C 504.517 -2.73067 5.47815 0
M  V30 5592 N 503.654 -3.87359 5.85574 0
M  V30 5593 H 508.494 -0.470118 2.94268 0
M  V30 5594 H 506.031 -0.220434 1.45439 0
M  V30 5595 H 507.989 -2.95011 2.94999 0
M  V30 5596 H 506.619 -2.64513 1.85021 0
M  V30 5597 H 505.671 -1.03816 3.6596 0
M  V30 5598 H 506.983 -1.57104 4.73413 0
M  V30 5599 H 506.137 -3.92431 4.62691 0
M  V30 5600 H 504.876 -3.43827 3.45882 0
M  V30 5601 H 503.881 -1.88742 5.16388 0
M  V30 5602 H 505.106 -2.40131 6.35227 0
M  V30 5603 H 503.052 -4.21311 5.02825 0
M  V30 5604 H 502.969 -3.60068 6.64746 0
M  V30 5605 H 504.237 -4.70761 6.21292 0
M  V30 5606 N 508.466 -1.55915 -0.229846 0
M  V30 5607 C 509.706 -1.80314 -0.962614 0
M  V30 5608 C 510.07 -0.61568 -1.81861 0
M  V30 5609 O 511.271 -0.738795 -2.58448 0
M  V30 5610 C 509.542 -3.0956 -1.78627 0
M  V30 5611 S 511.101 -3.55243 -2.57581 0
M  V30 5612 H 507.919 -0.633142 -0.323499 0
M  V30 5613 H 510.521 -1.94155 -0.228919 0
M  V30 5614 H 509.225 -3.94033 -1.14742 0
M  V30 5615 H 508.756 -2.98503 -2.56241 0
M  V30 5616 H 510.771 -3.17924 -3.80971 0
M  V30 5617 N 509.944 0.496216 -1.49584 0
M  V30 5618 C 511.355 1.07765 -1.52459 0
M  V30 5619 C 511.706 1.93679 -0.31353 0
M  V30 5620 O 510.831 2.08588 0.576186 0
M  V30 5621 C 511.426 1.96111 -2.76271 0
M  V30 5622 C 509.985 2.49409 -2.81908 0
M  V30 5623 C 509.132 1.27142 -2.46435 0
M  V30 5624 H 512.083 0.279914 -1.56212 0
M  V30 5625 H 512.104 2.80862 -2.56704 0
M  V30 5626 H 511.616 1.33555 -3.64396 0
M  V30 5627 H 509.717 3.1559 -1.98074 0
M  V30 5628 H 509.83 2.86234 -3.84196 0
M  V30 5629 H 508.194 1.59818 -1.98319 0
M  V30 5630 H 508.977 0.662866 -3.3684 0
M  V30 5631 N 511.423 1.38739 0.74761 0
M  V30 5632 C 512.648 1.38702 1.54197 0
M  V30 5633 C 513.073 -0.019664 1.8809 0
M  V30 5634 O 512.431 -1.00333 1.51006 0
M  V30 5635 C 512.479 2.25492 2.814 0
M  V30 5636 O 511.583 1.67613 3.76802 0
M  V30 5637 H 510.924 0.472863 0.466151 0
M  V30 5638 H 513.454 1.82577 0.923413 0
M  V30 5639 H 513.464 2.39561 3.30264 0
M  V30 5640 H 512.139 3.27727 2.56062 0
M  V30 5641 H 510.716 1.62718 3.35526 0
M  V30 5642 N 512.901 -0.976442 1.23707 0
M  V30 5643 C 513.831 -2.08749 1.04624 0
M  V30 5644 C 514.812 -1.70057 -0.0380956 0
M  V30 5645 O 515.997 -1.93782 0.127308 0
M  V30 5646 C 513.127 -3.41335 0.640902 0
M  V30 5647 C 512.081 -3.93947 1.67302 0
M  V30 5648 C 511.407 -5.22774 1.12301 0
M  V30 5649 C 512.707 -4.22769 3.06697 0
M  V30 5650 H 514.401 -2.24972 1.97555 0
M  V30 5651 H 511.947 -1.08108 0.951247 0
M  V30 5652 H 513.9 -4.18489 0.494434 0
M  V30 5653 H 512.624 -3.24988 -0.324099 0
M  V30 5654 H 511.283 -3.18941 1.80755 0
M  V30 5655 H 510.931 -5.0278 0.148877 0
M  V30 5656 H 510.631 -5.58942 1.81267 0
M  V30 5657 H 512.155 -6.02546 0.988479 0
M  V30 5658 H 513.569 -4.90659 2.96524 0
M  V30 5659 H 511.966 -4.70147 3.72937 0
M  V30 5660 H 513.036 -3.29885 3.55392 0
M  V30 5661 N 514.379 -1.04941 -1.1758 0
M  V30 5662 C 515.342 -0.652456 -2.19717 0
M  V30 5663 C 516.342 0.294745 -1.58076 0
M  V30 5664 O 517.532 0.0789579 -1.74021 0
M  V30 5665 C 514.664 0.0420712 -3.40874 0
M  V30 5666 H 515.857 -1.55642 -2.5635 0
M  V30 5667 H 513.41 -0.842995 -1.31618 0
M  V30 5668 H 514.145 0.95943 -3.09783 0
M  V30 5669 H 513.93 -0.638844 -3.86861 0
M  V30 5670 H 515.42 0.306 -4.16477 0
M  V30 5671 N 515.857 1.33968 -0.830081 0
M  V30 5672 C 517.105 1.97672 -0.420734 0
M  V30 5673 C 517.426 1.66111 1.02138 0
M  V30 5674 O 516.696 0.955503 1.71017 0
M  V30 5675 H 515.276 0.73125 -0.152587 0
M  V30 5676 H 517.938 1.63483 -1.0611 0
M  V30 5677 H 517.034 3.07294 -0.545588 0
M  V30 5678 N 517.335 0.585699 1.46312 0
M  V30 5679 C 518.282 -0.145835 2.30339 0
M  V30 5680 C 519.252 -0.881215 1.40797 0
M  V30 5681 O 520.437 -0.871293 1.69744 0
M  V30 5682 C 517.577 -1.15161 3.25318 0
M  V30 5683 C 516.69 -0.419367 4.2996 0
M  V30 5684 C 515.825 -1.41293 5.12064 0
M  V30 5685 C 514.864 -0.667261 6.08452 0
M  V30 5686 N 514.001 -1.60903 6.83414 0
M  V30 5687 H 518.841 0.576755 2.92365 0
M  V30 5688 H 516.378 0.296237 1.44086 0
M  V30 5689 H 518.336 -1.74763 3.78832 0
M  V30 5690 H 516.966 -1.84188 2.65094 0
M  V30 5691 H 516.018 0.291751 3.7928 0
M  V30 5692 H 517.33 0.163433 4.98532 0
M  V30 5693 H 516.484 -2.08167 5.6987 0
M  V30 5694 H 515.223 -2.02966 4.43459 0
M  V30 5695 H 514.228 0.0152356 5.49798 0
M  V30 5696 H 515.453 -0.0558817 6.79077 0
M  V30 5697 H 513.399 -2.21381 6.17516 0
M  V30 5698 H 513.316 -1.07911 7.48259 0
M  V30 5699 H 514.584 -2.26802 7.45775 0
M  V30 5700 N 518.813 -1.54241 0.323641 0
M  V30 5701 C 520.224 -1.85975 -0.164405 0
M  V30 5702 C 520.575 -1.24529 -1.51615 0
M  V30 5703 O 519.7 -0.551351 -2.09258 0
M  V30 5704 C 520.295 -3.37424 -0.305091 0
M  V30 5705 C 518.854 -3.69107 -0.737358 0
M  V30 5706 C 518.001 -2.76942 0.140884 0
M  V30 5707 H 520.952 -1.49088 0.543922 0
M  V30 5708 H 520.973 -3.63147 -1.13598 0
M  V30 5709 H 520.485 -3.82116 0.678876 0
M  V30 5710 H 518.586 -3.29947 -1.73107 0
M  V30 5711 H 518.699 -4.76035 -0.541053 0
M  V30 5712 H 517.063 -2.51795 -0.383572 0
M  V30 5713 H 517.846 -3.24461 1.12162 0
M  V30 5714 N 520.291 -0.0518155 -1.57515 0
M  V30 5715 C 521.238 0.922352 -2.11569 0
M  V30 5716 C 522.208 1.30842 -1.02321 0
M  V30 5717 O 523.393 1.39778 -1.29872 0
M  V30 5718 C 520.533 2.19167 -2.6657 0
M  V30 5719 C 519.646 1.86003 -3.89906 0
M  V30 5720 C 518.781 3.07398 -4.33221 0
M  V30 5721 C 517.82 2.70158 -5.49255 0
M  V30 5722 N 516.957 3.84248 -5.8762 0
M  V30 5723 H 521.797 0.454506 -2.94514 0
M  V30 5724 H 519.334 0.212718 -1.45554 0
M  V30 5725 H 521.292 2.93443 -2.96559 0
M  V30 5726 H 519.922 2.63528 -1.86421 0
M  V30 5727 H 518.974 1.01874 -3.66505 0
M  V30 5728 H 520.286 1.54592 -4.74239 0
M  V30 5729 H 519.44 3.89972 -4.64765 0
M  V30 5730 H 518.179 3.41988 -3.477 0
M  V30 5731 H 517.184 1.86001 -5.17382 0
M  V30 5732 H 518.409 2.36759 -6.36492 0
M  V30 5733 H 516.355 4.18638 -5.05053 0
M  V30 5734 H 516.272 3.56538 -6.66646 0
M  V30 5735 H 517.54 4.6746 -6.2378 0
M  V30 5736 N 521.769 1.56035 0.221574 0
M  V30 5737 C 523.015 1.79312 0.947372 0
M  V30 5738 C 523.348 0.621453 1.83988 0
M  V30 5739 O 522.623 -0.379287 1.90766 0
M  V30 5740 C 522.906 3.1267 1.78633 0
M  V30 5741 C 522.759 4.40284 0.920312 0
M  V30 5742 C 524.078 3.4247 2.7641 0
M  V30 5743 H 521.197 0.652328 0.342982 0
M  V30 5744 H 523.839 1.88765 0.216244 0
M  V30 5745 H 521.989 3.04741 2.40967 0
M  V30 5746 H 523.661 4.60232 0.313718 0
M  V30 5747 H 521.904 4.33212 0.225734 0
M  V30 5748 H 522.575 5.30033 1.54171 0
M  V30 5749 H 525.051 3.50526 2.24211 0
M  V30 5750 H 523.927 4.3695 3.32213 0
M  V30 5751 H 524.188 2.64635 3.54148 0
M  V30 5752 N 523.247 -0.488276 1.49845 0
M  V30 5753 C 524.494 -1.24157 1.59973 0
M  V30 5754 C 524.822 -1.92293 0.292182 0
M  V30 5755 O 524.077 -1.81942 -0.720813 0
M  V30 5756 C 524.376 -2.32152 2.71735 0
M  V30 5757 C 524.042 -1.81387 4.12807 0
M  V30 5758 C 522.704 -1.67262 4.51195 0
M  V30 5759 C 525.056 -1.43537 5.01045 0
M  V30 5760 C 522.384 -1.13685 5.7558 0
M  V30 5761 C 524.736 -0.914081 6.25961 0
M  V30 5762 C 523.4 -0.759327 6.63167 0
M  V30 5763 H 522.67 -0.454322 0.585383 0
M  V30 5764 H 525.317 -0.540261 1.83721 0
M  V30 5765 H 523.622 -3.08122 2.42008 0
M  V30 5766 H 525.319 -2.90164 2.76778 0
M  V30 5767 H 521.909 -1.93344 3.82513 0
M  V30 5768 H 526.093 -1.53292 4.72033 0
M  V30 5769 H 521.349 -1.00426 6.03096 0
M  V30 5770 H 525.523 -0.612066 6.93705 0
M  V30 5771 H 523.15 -0.342002 7.5943 0
M  V30 5772 N 524.725 -1.39134 -0.740242 0
M  V30 5773 C 525.972 -1.36071 -1.49969 0
M  V30 5774 C 526.3 0.0450245 -1.94448 0
M  V30 5775 O 525.555 1.02482 -1.66721 0
M  V30 5776 C 525.854 -2.27457 -2.75678 0
M  V30 5777 C 525.52 -3.75185 -2.50094 0
M  V30 5778 C 524.182 -4.15439 -2.42825 0
M  V30 5779 C 526.534 -4.68643 -2.28086 0
M  V30 5780 C 523.862 -5.4722 -2.11584 0
M  V30 5781 C 526.214 -6.00695 -1.98363 0
M  V30 5782 C 524.878 -6.40018 -1.8956 0
M  V30 5783 H 524.148 -0.497921 -0.548777 0
M  V30 5784 H 526.795 -1.71599 -0.85007 0
M  V30 5785 H 525.1 -1.8503 -3.45356 0
M  V30 5786 H 526.797 -2.22384 -3.33686 0
M  V30 5787 H 523.387 -3.43279 -2.56627 0
M  V30 5788 H 527.571 -4.3838 -2.32672 0
M  V30 5789 H 522.827 -5.76615 -2.03287 0
M  V30 5790 H 527.001 -6.72644 -1.80341 0
M  V30 5791 H 524.628 -7.42051 -1.65117 0
M  V30 5792 N 526.204 0.969867 -1.24223 0
M  V30 5793 C 527.453 1.70687 -1.07466 0
M  V30 5794 C 527.766 1.91736 0.386861 0
M  V30 5795 O 528.972 2.62986 0.674581 0
M  V30 5796 C 527.428 3.07217 -1.87472 0
M  V30 5797 C 527.036 2.94018 -3.3802 0
M  V30 5798 C 528.78 3.84804 -1.79237 0
M  V30 5799 C 526.687 4.25844 -4.10379 0
M  V30 5800 H 525.617 0.640067 -0.398536 0
M  V30 5801 H 528.268 1.08092 -1.48285 0
M  V30 5802 H 526.65 3.70628 -1.39466 0
M  V30 5803 H 527.824 2.39632 -3.9359 0
M  V30 5804 H 526.139 2.29898 -3.47183 0
M  V30 5805 H 528.736 4.82417 -2.30603 0
M  V30 5806 H 529.079 4.09356 -0.757197 0
M  V30 5807 H 529.612 3.28115 -2.24912 0
M  V30 5808 H 526.351 4.06486 -5.14246 0
M  V30 5809 H 525.871 4.80054 -3.59594 0
M  V30 5810 H 527.55 4.94475 -4.17257 0
M  V30 5811 N 527.682 1.05563 1.17022 0
M  V30 5812 C 528.614 0.617888 2.20714 0
M  V30 5813 C 529.627 -0.320303 1.59618 0
M  V30 5814 O 530.816 -0.112449 1.78145 0
M  V30 5815 C 527.916 -0.115333 3.38704 0
M  V30 5816 C 527.089 0.834493 4.29366 0
M  V30 5817 C 526.148 0.141855 5.26009 0
M  V30 5818 O 525.174 0.777151 5.6387 0
M  V30 5819 N 526.376 -1.11934 5.69606 0
M  V30 5820 H 529.141 1.50981 2.58892 0
M  V30 5821 H 526.702 0.938008 1.31958 0
M  V30 5822 H 528.694 -0.588918 4.00392 0
M  V30 5823 H 527.264 -0.908967 2.99093 0
M  V30 5824 H 526.484 1.48762 3.65053 0
M  V30 5825 H 527.772 1.4791 4.86827 0
M  V30 5826 H 527.17 -1.65574 5.40927 0
M  V30 5827 H 525.727 -1.53692 6.33421 0
M  V30 5828 N 529.16 -1.33526 0.837174 0
M  V30 5829 C 530.123 -2.27551 0.274421 0
M  V30 5830 C 531.123 -1.50886 -0.555881 0
M  V30 5831 O 532.313 -1.70227 -0.369918 0
M  V30 5832 C 529.445 -3.35332 -0.613605 0
M  V30 5833 H 530.638 -2.78837 1.10408 0
M  V30 5834 H 528.191 -1.439 0.610126 0
M  V30 5835 H 528.926 -2.89285 -1.46577 0
M  V30 5836 H 528.711 -3.92095 -0.0195341 0
M  V30 5837 H 530.201 -4.05433 -1.00068 0
M  V30 5838 N 530.638 -0.59345 -1.46 0
M  V30 5839 C 531.878 -0.0859747 -2.04219 0
M  V30 5840 C 532.242 1.25432 -1.45364 0
M  V30 5841 O 533.443 1.85168 -1.9485 0
M  V30 5842 C 531.714 -0.0324314 -3.57385 0
M  V30 5843 S 533.273 0.415908 -4.36824 0
M  V30 5844 H 530.091 -0.0426872 -0.709717 0
M  V30 5845 H 532.693 -0.788369 -1.78899 0
M  V30 5846 H 531.397 -1.01166 -3.97735 0
M  V30 5847 H 530.928 0.6924 -3.87259 0
M  V30 5848 H 532.943 1.66844 -4.67309 0
M  V30 5849 N 532.116 1.54067 -0.331816 0
M  V30 5850 C 533.048 2.22139 0.564538 0
M  V30 5851 C 534.061 1.22408 1.07332 0
M  V30 5852 O 535.25 1.4883 0.985481 0
M  V30 5853 C 532.35 2.87876 1.78831 0
M  V30 5854 C 531.523 4.13817 1.41682 0
M  V30 5855 C 530.582 4.63072 2.49901 0
M  V30 5856 O 529.608 5.27562 2.13699 0
M  V30 5857 N 530.81 4.38001 3.80967 0
M  V30 5858 H 533.575 2.99694 -0.0183736 0
M  V30 5859 H 531.136 1.61153 -0.155396 0
M  V30 5860 H 533.128 3.17747 2.50637 0
M  V30 5861 H 531.698 2.13977 2.27887 0
M  V30 5862 H 530.918 3.9062 0.530044 0
M  V30 5863 H 532.206 4.95762 1.14443 0
M  V30 5864 H 531.604 3.864 4.13173 0
M  V30 5865 H 530.161 4.72507 4.48977 0
M  V30 5866 N 533.594 0.0601682 1.57485 0
M  V30 5867 C 534.842 -0.610386 1.92662 0
M  V30 5868 C 535.163 -1.70849 0.939981 0
M  V30 5869 O 534.433 -1.95895 -0.0137455 0
M  V30 5870 H 533.013 -0.228457 0.711208 0
M  V30 5871 H 535.675 0.115288 1.94559 0
M  V30 5872 H 534.771 -1.0432 2.94149 0
M  V30 5873 N 535.072 -1.5615 -0.213296 0
M  V30 5874 C 536.349 -1.70349 -0.961281 0
M  V30 5875 C 536.729 -0.609791 -2.02101 0
M  V30 5876 O 536.077 0.381987 -2.25285 0
M  V30 5877 C 536.287 -3.11982 -1.56424 0
M  V30 5878 C 537.635 -3.71649 -2.05334 0
M  V30 5879 O 538.659 -3.14995 -1.66302 0
M  V30 5880 O 537.518 -4.71038 -2.77102 0
M  V30 5881 H 534.612 -0.694121 -0.449582 0
M  V30 5882 H 537.158 -1.68464 -0.204426 0
M  V30 5883 H 535.93 -3.83046 -0.799457 0
M  V30 5884 H 535.553 -3.18019 -2.38641 0
M  V30 5885 N 536.55 0.480323 -1.50102 0
M  V30 5886 C 537.498 1.60024 -1.68805 0
M  V30 5887 C 538.492 1.60089 -0.553888 0
M  V30 5888 O 539.698 1.64349 -0.734127 0
M  V30 5889 H 536.073 0.530841 -0.532646 0
M  V30 5890 H 538.044 1.41408 -2.62767 0
M  V30 5891 C 536.793 2.98029 -1.79092 0
M  V30 5892 H 536.116 2.98694 -2.65748 0
M  V30 5893 H 537.556 3.75871 -1.96206 0
M  V30 5894 C 536.015 3.32538 -0.540388 0
M  V30 5895 O 536.545 4.00386 0.324637 0
M  V30 5896 N 534.751 2.87873 -0.397154 0
M  V30 5897 H 534.298 2.32834 -1.1021 0
M  V30 5898 H 534.256 3.11328 0.438425 0
M  V30 5899 N 538.028 1.39524 0.732853 0
M  V30 5900 C 539.258 1.3994 1.51988 0
M  V30 5901 C 539.666 -0.00727973 1.89199 0
M  V30 5902 O 539.009 -0.989521 1.54771 0
M  V30 5903 C 539.071 2.21026 2.83527 0
M  V30 5904 C 538.735 3.69633 2.68738 0
M  V30 5905 C 539.732 4.62665 2.37143 0
M  V30 5906 C 537.417 4.13244 2.85542 0
M  V30 5907 C 539.411 5.97291 2.22536 0
M  V30 5908 C 537.098 5.47945 2.70554 0
M  V30 5909 C 538.096 6.39783 2.39097 0
M  V30 5910 O 537.784 7.72002 2.24204 0
M  V30 5911 H 537.516 0.479795 0.476206 0
M  V30 5912 H 540.07 1.8399 0.913054 0
M  V30 5913 H 538.3 1.71728 3.46477 0
M  V30 5914 H 539.989 2.13594 3.45156 0
M  V30 5915 H 540.755 4.30272 2.2381 0
M  V30 5916 H 536.634 3.42094 3.09019 0
M  V30 5917 H 540.178 6.68939 1.97905 0
M  V30 5918 H 536.075 5.79928 2.83466 0
M  V30 5919 H 536.843 7.8275 2.39258 0
M  V30 5920 N 539.506 -0.963266 1.24736 0
M  V30 5921 C 540.438 -2.06162 1.0015 0
M  V30 5922 C 541.451 -1.62771 -0.0305905 0
M  V30 5923 O 542.64 -1.77296 0.206966 0
M  V30 5924 C 539.74 -3.35333 0.490385 0
M  V30 5925 C 538.913 -4.07609 1.58663 0
M  V30 5926 C 537.972 -5.15052 1.0774 0
M  V30 5927 O 536.998 -5.4098 1.77002 0
M  V30 5928 N 538.2 -5.80436 -0.0858605 0
M  V30 5929 H 540.965 -2.27825 1.94719 0
M  V30 5930 H 538.526 -1.13121 1.15825 0
M  V30 5931 H 540.518 -4.04477 0.134371 0
M  V30 5932 H 539.088 -3.10507 -0.361155 0
M  V30 5933 H 538.308 -3.32681 2.11463 0
M  V30 5934 H 539.596 -4.52656 2.32336 0
M  V30 5935 H 538.994 -5.6178 -0.664806 0
M  V30 5936 H 537.551 -6.50674 -0.382981 0
M  V30 5937 N 540.985 -1.06182 -1.16461 0
M  V30 5938 C 541.932 -0.671613 -2.20812 0
M  V30 5939 C 542.902 0.331186 -1.62765 0
M  V30 5940 O 544.087 0.22033 -1.89524 0
M  V30 5941 C 541.227 -0.063029 -3.45042 0
M  V30 5942 C 540.34 -1.11587 -4.1734 0
M  V30 5943 C 539.475 -0.473546 -5.29085 0
M  V30 5944 C 538.514 -1.51 -5.93182 0
M  V30 5945 N 537.651 -0.891118 -6.96422 0
M  V30 5946 H 542.491 -1.56589 -2.53542 0
M  V30 5947 H 540.028 -0.782951 -1.24532 0
M  V30 5948 H 541.986 0.307344 -4.16066 0
M  V30 5949 H 540.616 0.794663 -3.12866 0
M  V30 5950 H 539.668 -1.60396 -3.44931 0
M  V30 5951 H 540.98 -1.90221 -4.61104 0
M  V30 5952 H 540.134 -0.0501432 -6.06679 0
M  V30 5953 H 538.873 0.344687 -4.8648 0
M  V30 5954 H 537.878 -1.94331 -5.14311 0
M  V30 5955 H 539.103 -2.33031 -6.37866 0
M  V30 5956 H 537.049 -0.0935753 -6.55933 0
M  V30 5957 H 536.966 -1.61486 -7.38551 0
M  V30 5958 H 538.234 -0.492822 -7.77941 0
M  V30 5959 N 542.463 1.3308 -0.844243 0
M  V30 5960 C 543.711 1.97215 -0.441676 0
M  V30 5961 C 544.032 1.67185 1.0037 0
M  V30 5962 O 543.302 0.973588 1.69994 0
M  V30 5963 H 541.882 0.72959 -0.160335 0
M  V30 5964 H 544.544 1.62348 -1.07838 0
M  V30 5965 H 543.64 3.06698 -0.57815 0
M  V30 5966 N 543.941 0.601185 1.45683 0
M  V30 5967 C 545.19 0.0914953 2.01492 0
M  V30 5968 C 545.503 -1.28331 1.47616 0
M  V30 5969 O 546.709 -1.88537 1.95362 0
M  V30 5970 C 545.165 0.11291 3.59723 0
M  V30 5971 C 544.773 1.48717 4.22596 0
M  V30 5972 C 546.517 -0.341871 4.23121 0
M  V30 5973 C 544.424 1.46531 5.7296 0
M  V30 5974 H 543.354 0.0304365 0.753385 0
M  V30 5975 H 546.005 0.755568 1.67223 0
M  V30 5976 H 544.387 -0.617692 3.91153 0
M  V30 5977 H 545.561 2.23897 4.02749 0
M  V30 5978 H 543.876 1.88351 3.71366 0
M  V30 5979 H 546.473 -0.377304 5.33367 0
M  V30 5980 H 546.816 -1.36325 3.93346 0
M  V30 5981 H 547.349 0.335256 3.96385 0
M  V30 5982 H 544.088 2.46408 6.07423 0
M  V30 5983 H 543.608 0.755997 5.95017 0
M  V30 5984 H 545.287 1.18618 6.36034 0
M  V30 5985 N 545.419 -1.53889 0.339982 0
M  V30 5986 C 546.83 -1.86139 -0.144671 0
M  V30 5987 C 547.181 -1.2613 -1.50285 0
M  V30 5988 O 546.306 -0.573515 -2.08662 0
M  V30 5989 C 546.901 -3.37728 -0.269285 0
M  V30 5990 C 545.46 -3.69868 -0.698168 0
M  V30 5991 C 544.607 -2.76777 0.170249 0
M  V30 5992 H 547.558 -1.48503 0.559704 0
M  V30 5993 H 547.579 -3.64331 -1.0974 0
M  V30 5994 H 547.091 -3.81375 0.719366 0
M  V30 5995 H 545.192 -3.31764 -1.69597 0
M  V30 5996 H 545.305 -4.76582 -0.490533 0
M  V30 5997 H 543.669 -2.52188 -0.356844 0
M  V30 5998 H 544.452 -3.23253 1.15597 0
M  V30 5999 N 546.897 -0.0685191 -1.57451 0
M  V30 6000 C 548.143 0.602239 -1.93652 0
M  V30 6001 C 548.476 1.6946 -0.948526 0
M  V30 6002 O 547.751 1.94487 0.022782 0
M  V30 6003 C 548.034 1.18223 -3.4014 0
M  V30 6004 C 547.887 0.0967431 -4.49696 0
M  V30 6005 C 549.206 2.08872 -3.87377 0
M  V30 6006 H 546.325 0.217453 -0.70419 0
M  V30 6007 H 548.967 -0.133821 -1.89528 0
M  V30 6008 H 547.117 1.80953 -3.43785 0
M  V30 6009 H 548.789 -0.536155 -4.58174 0
M  V30 6010 H 547.032 -0.573063 -4.29998 0
M  V30 6011 H 547.703 0.542894 -5.49324 0
M  V30 6012 H 550.179 1.56081 -3.85717 0
M  V30 6013 H 549.055 2.46389 -4.90493 0
M  V30 6014 H 549.316 2.99572 -3.25129 0
M  V30 6015 N 548.375 1.56261 0.205012 0
M  V30 6016 C 549.285 1.96944 1.27476 0
M  V30 6017 C 550.301 0.875636 1.50362 0
M  V30 6018 O 551.477 1.18058 1.6317 0
M  V30 6019 C 548.542 2.29219 2.60115 0
M  V30 6020 C 547.603 3.52255 2.45387 0
M  V30 6021 C 546.836 3.8298 3.71701 0
M  V30 6022 O 547.059 3.15138 4.75441 0
M  V30 6023 O 545.993 4.76435 3.67823 0
M  V30 6024 H 549.819 2.88144 0.959527 0
M  V30 6025 H 547.404 1.43686 0.409217 0
M  V30 6026 H 549.286 2.51098 3.3842 0
M  V30 6027 H 547.961 1.4119 2.91285 0
M  V30 6028 H 546.868 3.35635 1.65227 0
M  V30 6029 H 548.201 4.40719 2.19152 0
M  V30 6030 N 549.853 -0.472356 1.50355 0
M  V30 6031 C 551.081 -1.24784 1.65035 0
M  V30 6032 C 551.496 -1.85837 0.333176 0
M  V30 6033 O 550.853 -1.69168 -0.68472 0
M  V30 6034 C 550.904 -2.35747 2.74054 0
M  V30 6035 O 550.625 -1.77197 4.00665 0
M  V30 6036 C 552.126 -3.26645 2.99696 0
M  V30 6037 H 549.346 -0.377432 0.554785 0
M  V30 6038 H 551.89 -0.563962 1.9657 0
M  V30 6039 H 550.045 -2.99912 2.45217 0
M  V30 6040 H 550.459 -2.5026 4.60945 0
M  V30 6041 H 551.933 -4.00718 3.79644 0
M  V30 6042 H 552.41 -3.8535 2.10718 0
M  V30 6043 H 553.016 -2.68218 3.3006 0
M  V30 6044 N 551.331 -1.39911 -0.725443 0
M  V30 6045 C 552.608 -1.28158 -1.47766 0
M  V30 6046 C 552.988 0.104545 -2.10841 0
M  V30 6047 O 552.336 1.11657 -1.99361 0
M  V30 6048 C 552.546 -2.41306 -2.52135 0
M  V30 6049 C 553.894 -2.81076 -3.18247 0
M  V30 6050 O 554.918 -2.40827 -2.62452 0
M  V30 6051 O 553.777 -3.50581 -4.19231 0
M  V30 6052 H 550.871 -0.502761 -0.656628 0
M  V30 6053 H 553.417 -1.51808 -0.758456 0
M  V30 6054 H 552.189 -3.33932 -2.03974 0
M  V30 6055 H 551.812 -2.19374 -3.31603 0
M  V30 6056 N 552.809 0.956637 -1.25245 0
M  V30 6057 C 554.034 1.74104 -1.12706 0
M  V30 6058 C 554.459 1.85436 0.315429 0
M  V30 6059 O 553.817 1.33334 1.22848 0
M  V30 6060 C 553.865 3.1338 -1.78396 0
M  V30 6061 O 552.969 3.98485 -1.06224 0
M  V30 6062 H 552.31 0.53476 -0.393609 0
M  V30 6063 H 554.84 1.19924 -1.65769 0
M  V30 6064 H 554.85 3.6385 -1.846 0
M  V30 6065 H 553.525 3.04448 -2.83345 0
M  V30 6066 H 552.102 3.56952 -1.07886 0
M  V30 6067 N 554.287 1.06798 1.15896 0
M  V30 6068 C 555.197 0.694564 2.24083 0
M  V30 6069 C 556.213 -0.291687 1.71538 0
M  V30 6070 O 557.389 -0.139723 2.00915 0
M  V30 6071 C 554.454 0.0921014 3.46578 0
M  V30 6072 C 553.515 1.13087 4.14137 0
M  V30 6073 C 552.748 0.557064 5.30785 0
M  V30 6074 O 552.971 -0.628623 5.66925 0
M  V30 6075 O 551.905 1.29924 5.8771 0
M  V30 6076 H 555.731 1.59663 2.58344 0
M  V30 6077 H 553.316 0.840575 1.2351 0
M  V30 6078 H 555.198 -0.241884 4.20705 0
M  V30 6079 H 553.873 -0.78337 3.14078 0
M  V30 6080 H 552.78 1.51712 3.41957 0
M  V30 6081 H 554.113 1.97805 4.50704 0
M  V30 6082 N 555.766 -1.3263 0.851289 0
M  V30 6083 C 556.676 -2.32722 0.296268 0
M  V30 6084 C 557.692 -1.63901 -0.584162 0
M  V30 6085 O 558.868 -1.95465 -0.485334 0
M  V30 6086 C 555.933 -3.42942 -0.509103 0
M  V30 6087 C 554.994 -4.2746 0.397069 0
M  V30 6088 C 554.227 -5.32416 -0.36996 0
M  V30 6089 O 554.45 -5.47491 -1.6003 0
M  V30 6090 O 553.384 -6.01327 0.262493 0
M  V30 6091 H 557.21 -2.82078 1.12543 0
M  V30 6092 H 554.795 -1.36194 0.614135 0
M  V30 6093 H 556.677 -4.1017 -0.96634 0
M  V30 6094 H 555.352 -2.95781 -1.31512 0
M  V30 6095 H 554.259 -3.63053 0.902411 0
M  V30 6096 H 555.592 -4.78136 1.16818 0
M  V30 6097 N 557.244 -0.608902 -1.45362 0
M  V30 6098 C 558.176 0.147318 -2.28726 0
M  V30 6099 C 559.189 0.830468 -1.40025 0
M  V30 6100 O 560.378 0.695636 -1.64387 0
M  V30 6101 C 557.478 1.22968 -3.15804 0
M  V30 6102 C 556.651 0.633391 -4.3279 0
M  V30 6103 C 555.71 1.60682 -5.01067 0
M  V30 6104 O 554.736 1.13261 -5.57818 0
M  V30 6105 N 555.938 2.94123 -5.00472 0
M  V30 6106 H 558.703 -0.568014 -2.94268 0
M  V30 6107 H 556.264 -0.448479 -1.55564 0
M  V30 6108 H 558.256 1.88072 -3.58345 0
M  V30 6109 H 556.826 1.84752 -2.52162 0
M  V30 6110 H 556.046 -0.195762 -3.93714 0
M  V30 6111 H 557.334 0.215255 -5.08344 0
M  V30 6112 H 556.732 3.3525 -4.55657 0
M  V30 6113 H 555.289 3.54646 -5.46872 0
M  V30 6114 N 558.722 1.53707 -0.348139 0
M  V30 6115 C 560.133 1.86213 0.134797 0
M  V30 6116 C 560.484 1.26925 1.49614 0
M  V30 6117 O 559.609 0.584573 2.08355 0
M  V30 6118 C 560.204 3.37866 0.251371 0
M  V30 6119 C 558.763 3.70233 0.678543 0
M  V30 6120 C 557.91 2.76683 -0.184925 0
M  V30 6121 H 560.861 1.48204 -0.567571 0
M  V30 6122 H 560.882 3.64908 1.07806 0
M  V30 6123 H 560.394 3.80988 -0.739581 0
M  V30 6124 H 558.495 3.32659 1.67835 0
M  V30 6125 H 558.608 4.76836 0.465251 0
M  V30 6126 H 556.972 2.52374 0.343465 0
M  V30 6127 H 557.755 3.22635 -1.1731 0
M  V30 6128 N 560.2 0.0768682 1.57412 0
M  V30 6129 C 561.43 -0.5991 1.97723 0
M  V30 6130 C 561.838 -1.63378 0.954166 0
M  V30 6131 O 561.181 -1.83578 -0.0668706 0
M  V30 6132 C 561.243 -1.32078 3.34358 0
M  V30 6133 C 560.907 -0.438985 4.54887 0
M  V30 6134 C 561.904 0.305492 5.19002 0
M  V30 6135 C 559.589 -0.362378 5.00991 0
M  V30 6136 C 561.583 1.11475 6.27576 0
M  V30 6137 C 559.27 0.450543 6.09437 0
M  V30 6138 C 560.268 1.18777 6.72593 0
M  V30 6139 O 559.956 1.98727 7.7895 0
M  V30 6140 H 559.688 -0.166725 0.655117 0
M  V30 6141 H 562.242 0.147337 2.04871 0
M  V30 6142 H 560.472 -2.1134 3.2384 0
M  V30 6143 H 562.161 -1.88949 3.5924 0
M  V30 6144 H 562.927 0.25593 4.84324 0
M  V30 6145 H 558.806 -0.925832 4.51608 0
M  V30 6146 H 562.35 1.69068 6.76803 0
M  V30 6147 H 558.247 0.501651 6.43548 0
M  V30 6148 H 559.015 1.91214 7.95851 0
M  V30 6149 N 561.678 -1.56367 -0.196722 0
M  V30 6150 C 562.608 -1.97442 -1.24655 0
M  V30 6151 C 563.589 -0.846147 -1.47561 0
M  V30 6152 O 564.774 -1.11035 -1.59326 0
M  V30 6153 C 561.904 -2.31253 -2.59112 0
M  V30 6154 C 560.858 -3.46804 -2.50821 0
M  V30 6155 C 560.184 -3.66286 -3.89536 0
M  V30 6156 C 561.484 -4.8104 -2.03465 0
M  V30 6157 H 563.178 -2.85388 -0.905216 0
M  V30 6158 H 560.724 -1.37304 -0.434002 0
M  V30 6159 H 562.677 -2.58583 -3.32736 0
M  V30 6160 H 561.401 -1.40188 -2.94983 0
M  V30 6161 H 560.06 -3.19563 -1.79653 0
M  V30 6162 H 559.708 -2.72555 -4.22756 0
M  V30 6163 H 559.408 -4.4402 -3.84864 0
M  V30 6164 H 560.932 -3.9599 -4.64784 0
M  V30 6165 H 562.346 -5.07411 -2.66846 0
M  V30 6166 H 560.743 -5.62232 -2.09798 0
M  V30 6167 H 561.813 -4.74732 -0.98781 0
M  V30 6168 N 563.156 0.464375 -1.50603 0
M  V30 6169 C 564.066 1.58723 -1.72754 0
M  V30 6170 C 565.082 1.62925 -0.610844 0
M  V30 6171 O 566.258 1.8067 -0.889963 0
M  V30 6172 C 563.323 2.94897 -1.82309 0
M  V30 6173 C 562.384 3.0103 -3.06071 0
M  V30 6174 C 561.617 4.30708 -3.1516 0
M  V30 6175 O 561.84 5.2159 -2.30868 0
M  V30 6176 O 560.774 4.42571 -4.0794 0
M  V30 6177 H 564.6 1.42954 -2.67951 0
M  V30 6178 H 562.185 0.644579 -1.3478 0
M  V30 6179 H 564.067 3.75764 -1.90735 0
M  V30 6180 H 562.742 3.10851 -0.902967 0
M  V30 6181 H 561.649 2.19217 -3.03142 0
M  V30 6182 H 562.982 2.90014 -3.97684 0
M  V30 6183 N 564.634 1.40294 0.718013 0
M  V30 6184 C 565.567 1.34767 1.84155 0
M  V30 6185 C 566.545 0.218455 1.61126 0
M  V30 6186 O 567.729 0.401716 1.8417 0
M  V30 6187 C 564.856 1.09676 3.20451 0
M  V30 6188 C 563.902 2.25016 3.62312 0
M  V30 6189 S 564.735 3.87397 3.69707 0
M  V30 6190 C 565.891 3.64565 5.08766 0
M  V30 6191 H 566.124 2.29851 1.88562 0
M  V30 6192 H 563.657 1.2655 0.884555 0
M  V30 6193 H 565.615 0.95885 3.99144 0
M  V30 6194 H 564.276 0.162502 3.13679 0
M  V30 6195 H 563.469 2.03097 4.61268 0
M  V30 6196 H 563.071 2.35098 2.90869 0
M  V30 6197 H 565.363 3.22882 5.95612 0
M  V30 6198 H 566.306 4.63043 5.35721 0
M  V30 6199 H 566.714 2.98303 4.79245 0
M  V30 6200 N 566.112 -0.949982 1.2575 0
M  V30 6201 C 567.389 -1.6718 1.01539 0
M  V30 6202 C 567.769 -2.06095 -0.456942 0
M  V30 6203 O 567.117 -1.77792 -1.43534 0
M  V30 6204 C 567.327 -2.8906 1.95564 0
M  V30 6205 C 568.675 -3.60909 2.23673 0
M  V30 6206 O 569.699 -2.9915 1.9336 0
M  V30 6207 O 568.558 -4.72127 2.75243 0
M  V30 6208 H 565.652 -0.731697 0.385419 0
M  V30 6209 H 568.198 -1.00249 1.36924 0
M  V30 6210 H 566.97 -2.57128 2.94959 0
M  V30 6211 H 566.593 -3.63719 1.60605 0
M  V30 6212 N 567.59 -1.07411 -1.15328 0
M  V30 6213 C 568.52 -0.716472 -2.22236 0
M  V30 6214 C 569.501 0.296373 -1.67498 0
M  V30 6215 O 570.686 0.168989 -1.93463 0
M  V30 6216 C 567.816 -0.114142 -3.47112 0
M  V30 6217 C 566.77 -1.05421 -4.14814 0
M  V30 6218 C 566.096 -0.314604 -5.33774 0
M  V30 6219 C 567.396 -2.38808 -4.64508 0
M  V30 6220 H 569.09 -1.61029 -2.52408 0
M  V30 6221 H 566.636 -0.775702 -1.21321 0
M  V30 6222 H 568.589 0.148001 -4.2114 0
M  V30 6223 H 567.313 0.814755 -3.16274 0
M  V30 6224 H 565.972 -1.30128 -3.42728 0
M  V30 6225 H 565.62 0.617772 -4.99192 0
M  V30 6226 H 565.32 -0.941209 -5.80013 0
M  V30 6227 H 566.844 -0.0602747 -6.1057 0
M  V30 6228 H 568.258 -2.18424 -5.3006 0
M  V30 6229 H 566.655 -2.97069 -5.21412 0
M  V30 6230 H 567.725 -3.01067 -3.80114 0
M  V30 6231 N 569.068 1.32177 -0.85831 0
M  V30 6232 C 570.293 2.01847 -0.476718 0
M  V30 6233 C 570.718 1.64065 0.920021 0
M  V30 6234 O 570.076 0.843189 1.60499 0
M  V30 6235 C 570.124 3.55097 -0.627578 0
M  V30 6236 O 569.228 4.11012 0.338086 0
M  V30 6237 H 568.569 0.635907 -0.191099 0
M  V30 6238 H 571.099 1.68641 -1.15851 0
M  V30 6239 H 571.109 4.04718 -0.516476 0
M  V30 6240 H 569.784 3.81938 -1.64609 0
M  V30 6241 H 568.361 3.72451 0.182917 0
M  V30 6242 N 570.547 0.616602 1.45037 0
M  V30 6243 C 571.772 0.120192 2.07051 0
M  V30 6244 C 572.197 -1.19008 1.45666 0
M  V30 6245 O 571.555 -1.7267 0.552692 0
M  V30 6246 C 571.603 0.00354901 3.606 0
M  V30 6247 O 570.707 -1.04431 3.98958 0
M  V30 6248 H 570.048 0.0781599 0.659384 0
M  V30 6249 H 572.578 0.849167 1.86146 0
M  V30 6250 H 572.588 -0.191754 4.07549 0
M  V30 6251 H 571.263 0.960239 4.04663 0
M  V30 6252 H 569.84 -0.824749 3.63665 0
M  V30 6253 N 572.025 -1.5352 0.356285 0
M  V30 6254 C 573.436 -1.86282 -0.12492 0
M  V30 6255 C 573.787 -1.27717 -1.48939 0
M  V30 6256 O 572.912 -0.595614 -2.08042 0
M  V30 6257 C 573.507 -3.37995 -0.23345 0
M  V30 6258 C 572.066 -3.70588 -0.658899 0
M  V30 6259 C 571.213 -2.76581 0.199596 0
M  V30 6260 H 574.164 -1.47901 0.575423 0
M  V30 6261 H 574.185 -3.65475 -1.0587 0
M  V30 6262 H 573.697 -3.8059 0.759776 0
M  V30 6263 H 571.798 -3.33544 -1.66069 0
M  V30 6264 H 571.911 -4.77076 -0.439957 0
M  V30 6265 H 570.275 -2.52552 -0.330076 0
M  V30 6266 H 571.058 -3.22008 1.19019 0
M  V30 6267 N 573.503 -0.0852151 -1.57369 0
M  V30 6268 C 574.435 0.907099 -2.10486 0
M  V30 6269 C 575.448 1.25259 -1.03991 0
M  V30 6270 O 576.637 1.20743 -1.31467 0
M  V30 6271 C 573.737 2.21908 -2.56145 0
M  V30 6272 C 572.91 2.05042 -3.86363 0
M  V30 6273 C 571.969 3.19664 -4.17973 0
M  V30 6274 O 570.995 2.94062 -4.87356 0
M  V30 6275 N 572.197 4.45151 -3.72587 0
M  V30 6276 H 574.962 0.453505 -2.96249 0
M  V30 6277 H 572.523 0.100157 -1.6159 0
M  V30 6278 H 574.515 2.97519 -2.74343 0
M  V30 6279 H 573.085 2.58723 -1.75446 0
M  V30 6280 H 572.305 1.13819 -3.77411 0
M  V30 6281 H 573.593 1.91039 -4.71574 0
M  V30 6282 H 572.991 4.68834 -3.16561 0
M  V30 6283 H 571.548 5.17744 -3.9596 0
M  V30 6284 N 574.981 1.5647 0.188427 0
M  V30 6285 C 576.209 1.85131 0.923803 0
M  V30 6286 C 576.624 0.668537 1.76567 0
M  V30 6287 O 575.981 -0.362662 1.7886 0
M  V30 6288 C 576.032 3.12661 1.81453 0
M  V30 6289 O 575.753 4.26378 1.00665 0
M  V30 6290 C 577.254 3.54548 2.66103 0
M  V30 6291 H 574.474 0.614624 0.269218 0
M  V30 6292 H 577.018 2.03581 0.193671 0
M  V30 6293 H 575.173 2.96088 2.49821 0
M  V30 6294 H 575.587 4.99041 1.61425 0
M  V30 6295 H 577.061 4.4673 3.24247 0
M  V30 6296 H 577.538 2.77853 3.40139 0
M  V30 6297 H 578.144 3.73674 2.03096 0
M  V30 6298 N 576.459 -0.456382 1.50847 0
M  V30 6299 C 577.875 -0.791345 1.386 0
M  V30 6300 C 578.075 -1.9633 0.453498 0
M  V30 6301 O 577.131 -2.52308 -0.0984353 0
M  V30 6302 C 578.444 -1.08959 2.80265 0
M  V30 6303 C 579.992 -1.19517 2.89283 0
M  V30 6304 C 580.467 -1.52647 4.31814 0
M  V30 6305 N 581.958 -1.59609 4.34832 0
M  V30 6306 C 582.693 -1.86777 5.42127 0
M  V30 6307 N 582.189 -2.11866 6.59609 0
M  V30 6308 N 583.982 -1.88402 5.29586 0
M  V30 6309 H 576.133 0.315746 2.1004 0
M  V30 6310 H 578.396 0.0787916 0.94472 0
M  V30 6311 H 578.102 -0.301355 3.50407 0
M  V30 6312 H 577.976 -2.02211 3.18419 0
M  V30 6313 H 580.363 -1.97406 2.19351 0
M  V30 6314 H 580.444 -0.242111 2.54652 0
M  V30 6315 H 580.088 -0.752922 5.02288 0
M  V30 6316 H 580.018 -2.49127 4.63943 0
M  V30 6317 H 582.509 -1.42201 3.50125 0
M  V30 6318 H 582.822 -2.31912 7.37182 0
M  V30 6319 H 581.167 -2.09228 6.62758 0
M  V30 6320 H 584.358 -1.68307 4.36795 0
M  V30 6321 H 584.531 -2.09238 6.13289 0
M  V30 6322 N 577.937 -1.40673 -0.710563 0
M  V30 6323 C 579.167 -1.4234 -1.49742 0
M  V30 6324 C 579.575 -0.022821 -1.89186 0
M  V30 6325 O 578.918 0.964773 -1.56326 0
M  V30 6326 C 578.98 -2.25509 -2.79975 0
M  V30 6327 C 578.644 -3.73862 -2.62824 0
M  V30 6328 C 579.641 -4.66379 -2.29752 0
M  V30 6329 C 577.326 -4.17735 -2.78932 0
M  V30 6330 C 579.32 -6.00756 -2.13006 0
M  V30 6331 C 577.007 -5.5218 -2.61802 0
M  V30 6332 C 578.005 -6.43505 -2.28888 0
M  V30 6333 O 577.693 -7.75472 -2.11894 0
M  V30 6334 H 577.425 -0.487311 -0.468513 0
M  V30 6335 H 579.979 -1.8542 -0.883668 0
M  V30 6336 H 578.209 -1.77218 -3.43701 0
M  V30 6337 H 579.898 -2.19058 -3.41714 0
M  V30 6338 H 580.664 -4.33778 -2.16936 0
M  V30 6339 H 576.543 -3.46967 -3.03537 0
M  V30 6340 H 580.087 -6.72003 -1.87237 0
M  V30 6341 H 575.984 -5.84365 -2.74204 0
M  V30 6342 H 576.752 -7.86458 -2.26775 0
M  V30 6343 N 579.415 0.9433 -1.26252 0
M  V30 6344 C 580.664 1.68369 -1.11062 0
M  V30 6345 C 580.977 1.92514 0.346104 0
M  V30 6346 O 582.183 2.64358 0.618646 0
M  V30 6347 C 580.639 3.03171 -1.93946 0
M  V30 6348 C 580.247 2.86782 -3.4418 0
M  V30 6349 C 581.991 3.80916 -1.87359 0
M  V30 6350 C 579.898 4.17044 -4.19319 0
M  V30 6351 H 578.828 0.631469 -0.412023 0
M  V30 6352 H 581.479 1.04922 -1.50544 0
M  V30 6353 H 579.861 3.67587 -1.47296 0
M  V30 6354 H 581.035 2.31229 -3.98585 0
M  V30 6355 H 579.35 2.22482 -3.51981 0
M  V30 6356 H 581.947 4.77417 -2.40784 0
M  V30 6357 H 582.29 4.07658 -0.843857 0
M  V30 6358 H 582.823 3.2327 -2.31821 0
M  V30 6359 H 579.562 3.95487 -5.22753 0
M  V30 6360 H 579.082 4.72319 -3.69696 0
M  V30 6361 H 580.761 4.85513 -4.27651 0
M  V30 6362 N 580.893 1.08022 1.14757 0
M  V30 6363 C 582.304 0.829144 1.67279 0
M  V30 6364 C 582.655 -0.644721 1.85305 0
M  V30 6365 O 581.78 -1.49838 1.56133 0
M  V30 6366 C 582.375 1.49855 3.03857 0
M  V30 6367 C 580.934 1.29482 3.53428 0
M  V30 6368 C 580.081 1.56386 2.28995 0
M  V30 6369 H 583.032 1.24134 0.988762 0
M  V30 6370 H 583.053 0.923572 3.69121 0
M  V30 6371 H 582.565 2.57123 2.90705 0
M  V30 6372 H 580.666 0.242669 3.71809 0
M  V30 6373 H 580.779 2.01974 4.34446 0
M  V30 6374 H 579.143 0.985217 2.34874 0
M  V30 6375 H 579.926 2.64851 2.18423 0
M  V30 6376 N 582.371 -1.3172 0.865308 0
M  V30 6377 C 583.648 -1.91574 0.394789 0
M  V30 6378 C 584.028 -1.78769 -1.12271 0
M  V30 6379 O 583.376 -1.19245 -1.94918 0
M  V30 6380 C 583.586 -3.37957 0.870982 0
M  V30 6381 C 584.934 -4.15073 0.894384 0
M  V30 6382 O 585.958 -3.4672 0.816325 0
M  V30 6383 O 584.817 -5.37151 1.00651 0
M  V30 6384 H 581.911 -0.818649 0.117229 0
M  V30 6385 H 584.457 -1.4042 0.952913 0
M  V30 6386 H 583.229 -3.41269 1.91444 0
M  V30 6387 H 582.852 -3.96534 0.290907 0
M  V30 6388 N 583.85 -0.624285 -1.44708 0
M  V30 6389 C 584.76 0.0861083 -2.34442 0
M  V30 6390 C 585.776 0.84291 -1.5222 0
M  V30 6391 O 586.952 0.796723 -1.84971 0
M  V30 6392 C 584.017 1.05999 -3.30099 0
M  V30 6393 C 583.077 0.303316 -4.28227 0
M  V30 6394 C 582.311 1.23081 -5.19314 0
M  V30 6395 O 582.534 2.46929 -5.14181 0
M  V30 6396 O 581.468 0.71883 -5.97592 0
M  V30 6397 H 585.293 -0.651756 -2.96624 0
M  V30 6398 H 582.879 -0.384493 -1.44368 0
M  V30 6399 H 584.76 1.62046 -3.88997 0
M  V30 6400 H 583.436 1.77859 -2.70459 0
M  V30 6401 H 582.343 -0.300033 -3.72895 0
M  V30 6402 H 583.676 -0.375123 -4.90768 0
M  V30 6403 N 585.328 1.53329 -0.364422 0
M  V30 6404 C 586.291 2.24323 0.470292 0
M  V30 6405 C 587.291 1.25068 1.01067 0
M  V30 6406 O 588.481 1.49354 0.896605 0
M  V30 6407 C 585.613 2.97908 1.65722 0
M  V30 6408 H 586.806 2.9952 -0.150917 0
M  V30 6409 H 584.359 1.55868 -0.116092 0
M  V30 6410 H 585.094 2.2695 2.31655 0
M  V30 6411 H 584.879 3.70732 1.27671 0
M  V30 6412 H 586.369 3.5188 2.24878 0
M  V30 6413 N 586.806 0.0935595 1.57322 0
M  V30 6414 C 588.083 -0.612692 1.85756 0
M  V30 6415 C 588.463 -1.86439 0.99013 0
M  V30 6416 O 587.811 -2.28416 0.0621362 0
M  V30 6417 C 588.021 -0.929547 3.36393 0
M  V30 6418 C 589.369 -1.29366 4.04413 0
M  V30 6419 O 590.393 -1.02061 3.41265 0
M  V30 6420 O 589.252 -1.80498 5.15832 0
M  V30 6421 H 586.346 -0.306444 0.768128 0
M  V30 6422 H 588.892 0.126141 1.69231 0
M  V30 6423 H 587.664 -0.0414766 3.91278 0
M  V30 6424 H 587.287 -1.72441 3.5826 0
M  V30 6425 N 588.284 -1.56567 -0.180126 0
M  V30 6426 C 589.531 -1.81492 -0.898167 0
M  V30 6427 C 589.859 -0.669225 -1.82624 0
M  V30 6428 O 589.114 0.344096 -1.92651 0
M  V30 6429 C 589.413 -3.1252 -1.73395 0
M  V30 6430 C 589.079 -4.40658 -0.955567 0
M  V30 6431 C 587.741 -4.75465 -0.740707 0
M  V30 6432 C 590.093 -5.19593 -0.408948 0
M  V30 6433 C 587.421 -5.86691 0.0320128 0
M  V30 6434 C 589.773 -6.31627 0.350638 0
M  V30 6435 C 588.437 -6.65007 0.576378 0
M  V30 6436 H 587.707 -0.664125 -0.328662 0
M  V30 6437 H 590.354 -1.908 -0.163616 0
M  V30 6438 H 588.659 -2.98515 -2.53763 0
M  V30 6439 H 590.356 -3.29013 -2.29241 0
M  V30 6440 H 586.946 -4.13352 -1.13306 0
M  V30 6441 H 591.13 -4.93104 -0.562307 0
M  V30 6442 H 586.386 -6.11016 0.216735 0
M  V30 6443 H 590.56 -6.92001 0.781497 0
M  V30 6444 H 588.187 -7.51033 1.17703 0
M  V30 6445 N 589.762 0.448376 -1.51087 0
M  V30 6446 C 590.692 1.55102 -1.74544 0
M  V30 6447 C 591.673 1.59357 -0.594932 0
M  V30 6448 O 592.858 1.75261 -0.836491 0
M  V30 6449 C 589.988 2.93268 -1.86041 0
M  V30 6450 C 588.942 3.03877 -3.01402 0
M  V30 6451 C 588.268 4.43914 -2.98068 0
M  V30 6452 C 589.568 2.7898 -4.41551 0
M  V30 6453 H 591.262 1.35724 -2.66869 0
M  V30 6454 H 588.808 0.651498 -1.28419 0
M  V30 6455 H 590.761 3.70356 -2.01034 0
M  V30 6456 H 589.485 3.13853 -0.903548 0
M  V30 6457 H 588.144 2.29227 -2.86096 0
M  V30 6458 H 587.792 4.6145 -2.00182 0
M  V30 6459 H 587.492 4.51944 -3.75527 0
M  V30 6460 H 589.016 5.22991 -3.1514 0
M  V30 6461 H 590.43 3.45805 -4.57265 0
M  V30 6462 H 588.827 2.98431 -5.20633 0
M  V30 6463 H 589.897 1.74663 -4.5235 0
M  V30 6464 N 591.24 1.41047 0.703093 0
M  V30 6465 C 592.17 1.45067 1.82969 0
M  V30 6466 C 593.151 0.31016 1.67248 0
M  V30 6467 O 594.336 0.520548 1.87093 0
M  V30 6468 C 591.466 1.32478 3.2104 0
M  V30 6469 C 590.42 2.44262 3.51454 0
M  V30 6470 C 589.746 2.16742 4.88801 0
M  V30 6471 C 591.046 3.86606 3.51189 0
M  V30 6472 H 592.74 2.39353 1.79863 0
M  V30 6473 H 590.286 1.15206 0.863919 0
M  V30 6474 H 592.239 1.33904 3.99559 0
M  V30 6475 H 590.963 0.346735 3.24754 0
M  V30 6476 H 589.622 2.42107 2.75282 0
M  V30 6477 H 589.27 1.17299 4.89132 0
M  V30 6478 H 588.97 2.91643 5.10116 0
M  V30 6479 H 590.494 2.19872 5.69639 0
M  V30 6480 H 591.908 3.90517 4.19725 0
M  V30 6481 H 590.305 4.61128 3.84033 0
M  V30 6482 H 591.375 4.15296 2.50315 0
M  V30 6483 N 592.718 -0.936591 1.26751 0
M  V30 6484 C 593.966 -1.67998 1.12343 0
M  V30 6485 C 594.287 -1.92137 -0.332938 0
M  V30 6486 O 593.557 -1.52132 -1.23421 0
M  V30 6487 H 592.137 -0.622609 0.412756 0
M  V30 6488 H 594.799 -1.12509 1.59147 0
M  V30 6489 H 593.895 -2.65185 1.64571 0
M  V30 6490 N 594.196 -1.08629 -1.14182 0
M  V30 6491 C 595.129 -0.662329 -2.18377 0
M  V30 6492 C 596.107 0.327054 -1.59277 0
M  V30 6493 O 597.291 0.230376 -1.87087 0
M  V30 6494 C 594.418 0.0254765 -3.3869 0
M  V30 6495 C 593.464 -0.924414 -4.16361 0
M  V30 6496 S 594.297 -2.43226 -4.77076 0
M  V30 6497 C 595.453 -1.75663 -6.00744 0
M  V30 6498 H 595.686 -1.54501 -2.54001 0
M  V30 6499 H 593.219 -0.901484 -1.2535 0
M  V30 6500 H 595.177 0.416032 -4.08386 0
M  V30 6501 H 593.838 0.884689 -3.01384 0
M  V30 6502 H 593.031 -0.390099 -5.02488 0
M  V30 6503 H 592.633 -1.25598 -3.5228 0
M  V30 6504 H 594.925 -1.07589 -6.68903 0
M  V30 6505 H 595.868 -2.59673 -6.58768 0
M  V30 6506 H 596.276 -1.22903 -5.50958 0
M  V30 6507 N 595.674 1.31259 -0.872281 0
M  V30 6508 C 596.637 2.26744 -0.334656 0
M  V30 6509 C 597.637 1.52307 0.515681 0
M  V30 6510 O 598.827 1.71148 0.324656 0
M  V30 6511 C 595.959 3.36841 0.524482 0
M  V30 6512 H 597.152 2.75812 -1.17762 0
M  V30 6513 H 594.705 1.42232 -0.648064 0
M  V30 6514 H 595.44 2.93069 1.38855 0
M  V30 6515 H 595.225 3.92009 -0.0844299 0
M  V30 6516 H 596.715 4.07944 0.892838 0
M  V30 6517 N 597.152 0.631951 1.44375 0
M  V30 6518 C 598.38 0.143867 2.06399 0
M  V30 6519 C 598.795 -1.18188 1.47231 0
M  V30 6520 O 598.152 -1.72511 0.595498 0
M  V30 6521 C 598.203 0.0238253 3.61492 0
M  V30 6522 O 597.924 1.29715 4.18456 0
M  V30 6523 C 599.425 -0.492856 4.40552 0
M  V30 6524 H 596.645 0.0800542 0.666207 0
M  V30 6525 H 599.189 0.866586 1.85231 0
M  V30 6526 H 597.344 -0.649338 3.81919 0
M  V30 6527 H 597.758 1.14252 5.11905 0
M  V30 6528 H 599.232 -0.525861 5.49489 0
M  V30 6529 H 599.709 -1.52006 4.12057 0
M  V30 6530 H 600.315 0.147085 4.25046 0
M  V30 6531 N 598.631 -1.53133 0.372548 0
M  V30 6532 C 599.877 -2.01654 -0.215277 0
M  V30 6533 C 600.21 -1.25914 -1.47849 0
M  V30 6534 O 599.485 -0.3548 -1.91237 0
M  V30 6535 C 599.768 -3.56609 -0.500187 0
M  V30 6536 C 599.621 -4.43036 0.777145 0
M  V30 6537 C 600.94 -4.20528 -1.29786 0
M  V30 6538 H 598.059 -0.732991 -0.0767686 0
M  V30 6539 H 600.701 -1.83335 0.498814 0
M  V30 6540 H 598.851 -3.7235 -1.10852 0
M  V30 6541 H 600.523 -4.39079 1.41447 0
M  V30 6542 H 598.766 -4.10723 1.39604 0
M  V30 6543 H 599.437 -5.49424 0.532662 0
M  V30 6544 H 601.913 -4.08663 -0.783198 0
M  V30 6545 H 600.789 -5.28962 -1.46596 0
M  V30 6546 H 601.05 -3.77051 -2.30836 0
M  V30 6547 N 600.109 -0.101901 -1.5727 0
M  V30 6548 C 601.057 0.872034 -2.15635 0
M  V30 6549 C 602.051 1.28742 -1.10099 0
M  V30 6550 O 603.257 1.26116 -1.28432 0
M  V30 6551 H 599.632 0.299269 -0.689886 0
M  V30 6552 H 601.603 0.355137 -2.96279 0
M  V30 6553 C 600.352 2.11886 -2.7568 0
M  V30 6554 H 599.675 1.80813 -3.56576 0
M  V30 6555 H 601.115 2.78077 -3.20077 0
M  V30 6556 C 599.574 2.89739 -1.7191 0
M  V30 6557 O 600.104 3.84522 -1.16213 0
M  V30 6558 N 598.31 2.53407 -1.42245 0
M  V30 6559 H 597.857 1.76398 -1.87727 0
M  V30 6560 H 597.815 3.05795 -0.730529 0
M  V30 6561 N 601.587 1.56661 0.17182 0
M  V30 6562 C 602.535 1.97289 1.23207 0
M  V30 6563 C 603.529 0.861566 1.45854 0
M  V30 6564 O 604.735 1.04668 1.4644 0
M  V30 6565 H 601.11 0.627681 0.41415 0
M  V30 6566 H 603.081 2.85662 0.862542 0
M  V30 6567 C 601.83 2.34849 2.564 0
M  V30 6568 H 601.153 3.19903 2.39797 0
M  V30 6569 H 602.593 2.67121 3.29276 0
M  V30 6570 C 601.052 1.19172 3.15119 0
M  V30 6571 O 601.582 0.479113 3.98833 0
M  V30 6572 N 599.788 0.962415 2.74201 0
M  V30 6573 H 599.335 1.54365 2.06226 0
M  V30 6574 H 599.293 0.190272 3.13824 0
M  V30 6575 N 603.065 -0.440357 1.51323 0
M  V30 6576 C 604.305 -1.19956 1.65499 0
M  V30 6577 C 604.669 -1.88559 0.361878 0
M  V30 6578 O 605.87 -2.66109 0.379383 0
M  V30 6579 C 604.141 -2.1918 2.82303 0
M  V30 6580 S 605.7 -3.03627 3.1679 0
M  V30 6581 H 602.518 -0.406833 0.583102 0
M  V30 6582 H 605.12 -0.491596 1.89218 0
M  V30 6583 H 603.824 -1.67414 3.74701 0
M  V30 6584 H 603.355 -2.94561 2.60763 0
M  V30 6585 H 605.37 -4.20773 2.62991 0
M  V30 6586 N 604.543 -1.41418 -0.695603 0
M  V30 6587 C 605.789 -1.40982 -1.4578 0
M  V30 6588 C 606.122 -0.0187763 -1.94191 0
M  V30 6589 O 605.397 0.95346 -1.69527 0
M  V30 6590 C 605.68 -2.41657 -2.66972 0
M  V30 6591 C 605.533 -3.89869 -2.24327 0
M  V30 6592 C 606.852 -2.39589 -3.69168 0
M  V30 6593 H 603.971 -0.513405 -0.528757 0
M  V30 6594 H 606.613 -1.72693 -0.792275 0
M  V30 6595 H 604.763 -2.14746 -3.23754 0
M  V30 6596 H 606.435 -4.27683 -1.72872 0
M  V30 6597 H 604.678 -4.04737 -1.56111 0
M  V30 6598 H 605.349 -4.55857 -3.11285 0
M  V30 6599 H 607.825 -2.63471 -3.2206 0
M  V30 6600 H 606.701 -3.12044 -4.51575 0
M  V30 6601 H 606.962 -1.41447 -4.18862 0
M  V30 6602 N 606.021 0.929856 -1.27246 0
M  V30 6603 C 607.246 1.71674 -1.16374 0
M  V30 6604 C 607.671 1.86064 0.276024 0
M  V30 6605 O 607.029 1.3591 1.19992 0
M  V30 6606 C 607.077 3.09526 -1.85003 0
M  V30 6607 O 606.181 3.96142 -1.14653 0
M  V30 6608 H 605.522 0.52629 -0.404863 0
M  V30 6609 H 608.052 1.16381 -1.68276 0
M  V30 6610 H 608.062 3.59852 -1.92276 0
M  V30 6611 H 606.737 2.98369 -2.89739 0
M  V30 6612 H 605.314 3.54584 -1.15433 0
M  V30 6613 N 607.499 1.09233 1.13605 0
M  V30 6614 C 608.729 0.847677 1.88409 0
M  V30 6615 C 609.137 -0.604524 1.79282 0
M  V30 6616 O 608.48 -1.42773 1.15592 0
M  V30 6617 C 608.542 1.20153 3.38827 0
M  V30 6618 C 608.206 2.65824 3.71735 0
M  V30 6619 C 609.203 3.64072 3.71143 0
M  V30 6620 C 606.888 3.01894 4.01454 0
M  V30 6621 C 608.882 4.96419 3.99808 0
M  V30 6622 C 606.569 4.34433 4.29781 0
M  V30 6623 C 607.567 5.31505 4.28942 0
M  V30 6624 O 607.255 6.61659 4.56576 0
M  V30 6625 H 606.987 0.304813 0.603378 0
M  V30 6626 H 609.541 1.4573 1.44748 0
M  V30 6627 H 607.771 0.534946 3.82982 0
M  V30 6628 H 609.46 0.936349 3.94952 0
M  V30 6629 H 610.226 3.37549 3.4826 0
M  V30 6630 H 606.105 2.26971 4.01255 0
M  V30 6631 H 609.649 5.7218 3.99069 0
M  V30 6632 H 605.546 4.607 4.52135 0
M  V30 6633 H 606.314 6.67102 4.74254 0
M  V30 6634 N 608.977 -1.30795 0.87923 0
M  V30 6635 C 610.393 -1.48981 0.57243 0
M  V30 6636 C 610.593 -1.80719 -0.891236 0
M  V30 6637 O 609.649 -1.89136 -1.67283 0
M  V30 6638 C 610.962 -2.61721 1.48063 0
M  V30 6639 C 612.51 -2.75603 1.48365 0
M  V30 6640 C 612.985 -3.91449 2.37763 0
M  V30 6641 N 614.476 -3.98751 2.35695 0
M  V30 6642 C 615.211 -4.87684 3.01583 0
M  V30 6643 N 614.707 -5.81454 3.76674 0
M  V30 6644 N 616.5 -4.81005 2.90844 0
M  V30 6645 H 608.651 -1.08465 1.82617 0
M  V30 6646 H 610.914 -0.536813 0.781368 0
M  V30 6647 H 610.62 -2.45073 2.52254 0
M  V30 6648 H 610.494 -3.58071 1.18596 0
M  V30 6649 H 612.881 -2.9166 0.44927 0
M  V30 6650 H 612.962 -1.79891 1.81859 0
M  V30 6651 H 612.606 -3.76149 3.41283 0
M  V30 6652 H 612.536 -4.86487 2.01589 0
M  V30 6653 H 615.027 -3.31668 1.81121 0
M  V30 6654 H 615.34 -6.46063 4.24054 0
M  V30 6655 H 613.685 -5.81403 3.80782 0
M  V30 6656 H 616.876 -4.06728 2.31711 0
M  V30 6657 H 617.049 -5.50107 3.42471 0
M  V30 6658 N 610.455 -0.639598 -1.44038 0
M  V30 6659 C 611.403 0.0723409 -2.32487 0
M  V30 6660 C 612.397 0.827129 -1.47834 0
M  V30 6661 O 613.603 0.73907 -1.64127 0
M  V30 6662 H 609.978 0.0421696 -0.750817 0
M  V30 6663 H 611.949 -0.691593 -2.90275 0
M  V30 6664 C 610.698 1.03452 -3.31953 0
M  V30 6665 H 610.021 0.46315 -3.97108 0
M  V30 6666 H 611.461 1.502 -3.96505 0
M  V30 6667 C 609.92 2.12392 -2.61518 0
M  V30 6668 O 610.45 3.2059 -2.42044 0
M  V30 6669 N 608.656 1.88563 -2.21116 0
M  V30 6670 H 608.203 1.00577 -2.37154 0
M  V30 6671 H 608.161 2.61651 -1.74316 0
M  V30 6672 N 611.933 1.52934 -0.380664 0
M  V30 6673 C 613.344 1.86457 0.0952684 0
M  V30 6674 C 613.695 1.3007 1.46889 0
M  V30 6675 O 612.82 0.628636 2.07068 0
M  V30 6676 C 613.415 3.38323 0.179648 0
M  V30 6677 C 611.974 3.71589 0.599858 0
M  V30 6678 C 611.121 2.76228 -0.243572 0
M  V30 6679 H 614.072 1.46966 -0.59888 0
M  V30 6680 H 614.093 3.67113 1.00042 0
M  V30 6681 H 613.605 3.79333 -0.820228 0
M  V30 6682 H 611.706 3.36144 1.60742 0
M  V30 6683 H 611.819 4.77715 0.364003 0
M  V30 6684 H 610.183 2.53045 0.289855 0
M  V30 6685 H 610.966 3.20074 -1.24127 0
M  V30 6686 N 613.412 0.11024 1.57214 0
M  V30 6687 C 614.375 -0.828808 2.1369 0
M  V30 6688 C 615.375 -1.20059 1.06969 0
M  V30 6689 O 616.565 -1.12754 1.32786 0
M  V30 6690 C 613.697 -2.11959 2.66994 0
M  V30 6691 H 614.89 -0.338146 2.97988 0
M  V30 6692 H 612.443 -0.138913 1.55681 0
M  V30 6693 H 613.178 -2.65476 1.8626 0
M  V30 6694 H 612.963 -1.86258 3.45037 0
M  V30 6695 H 614.453 -2.79105 3.10629 0
M  V30 6696 N 614.89 -1.56749 -0.16351 0
M  V30 6697 C 615.8 -2.00255 -1.2221 0
M  V30 6698 C 616.816 -0.915194 -1.47987 0
M  V30 6699 O 617.992 -1.22342 -1.59982 0
M  V30 6700 C 615.057 -2.36035 -2.53946 0
M  V30 6701 C 614.118 -3.58637 -2.35962 0
M  V30 6702 C 613.351 -3.92701 -3.61416 0
M  V30 6703 O 613.574 -3.27632 -4.66919 0
M  V30 6704 O 612.508 -4.86019 -3.55062 0
M  V30 6705 H 616.334 -2.90586 -0.882794 0
M  V30 6706 H 613.919 -1.44721 -0.370978 0
M  V30 6707 H 615.801 -2.59982 -3.31643 0
M  V30 6708 H 614.476 -1.48863 -2.8744 0
M  V30 6709 H 613.383 -3.39898 -1.5627 0
M  V30 6710 H 614.716 -4.46374 -2.0739 0
M  V30 6711 N 616.368 0.432326 -1.51554 0
M  V30 6712 C 617.616 1.17901 -1.64146 0
M  V30 6713 C 617.937 1.91604 -0.362367 0
M  V30 6714 O 617.207 1.85764 0.621968 0
M  V30 6715 H 615.787 0.438206 -0.604966 0
M  V30 6716 H 618.449 0.495172 -1.88505 0
M  V30 6717 H 617.545 1.90584 -2.47152 0
M  V30 6718 N 617.846 1.41785 0.688094 0
M  V30 6719 C 619.074 1.44915 1.47673 0
M  V30 6720 C 619.489 0.0565786 1.88715 0
M  V30 6721 O 618.846 -0.92579 1.57275 0
M  V30 6722 C 618.897 2.36452 2.73446 0
M  V30 6723 O 618.618 3.7029 2.34131 0
M  V30 6724 C 620.119 2.48463 3.67125 0
M  V30 6725 H 617.339 0.493324 0.454832 0
M  V30 6726 H 619.883 1.86153 0.846594 0
M  V30 6727 H 618.038 1.98502 3.3268 0
M  V30 6728 H 618.452 4.19183 3.15255 0
M  V30 6729 H 619.926 3.16662 4.52138 0
M  V30 6730 H 620.403 1.51826 4.12123 0
M  V30 6731 H 621.009 2.8708 3.13792 0
M  V30 6732 N 619.324 -0.923095 1.27737 0
M  V30 6733 C 620.57 -1.67409 1.15524 0
M  V30 6734 C 620.925 -1.90124 -0.295072 0
M  V30 6735 O 620.218 -1.48382 -1.21216 0
M  V30 6736 C 620.412 -3.04125 1.8773 0
M  V30 6737 C 620.241 -2.94752 3.39634 0
M  V30 6738 C 619.011 -2.96783 4.0896 0
M  V30 6739 C 621.209 -2.73524 4.35533 0
M  V30 6740 N 619.191 -2.779 5.47398 0
M  V30 6741 C 620.562 -2.63391 5.61271 0
M  V30 6742 C 622.617 -2.58447 4.2557 0
M  V30 6743 C 621.32 -2.3972 6.78179 0
M  V30 6744 C 623.346 -2.36154 5.42204 0
M  V30 6745 C 622.708 -2.26768 6.669 0
M  V30 6746 H 618.807 -0.619196 0.477619 0
M  V30 6747 H 621.391 -1.09094 1.61266 0
M  V30 6748 H 619.562 -3.60545 1.44436 0
M  V30 6749 H 621.294 -3.6819 1.67982 0
M  V30 6750 H 618.049 -3.07186 3.60463 0
M  V30 6751 H 618.473 -2.71576 6.20141 0
M  V30 6752 H 623.115 -2.6446 3.2988 0
M  V30 6753 H 620.833 -2.32447 7.73947 0
M  V30 6754 H 624.419 -2.25367 5.36378 0
M  V30 6755 H 623.299 -2.09751 7.55628 0
M  V30 6756 N 620.802 -1.09834 -1.13024 0
M  V30 6757 C 622.032 -0.857657 -1.87957 0
M  V30 6758 C 622.44 0.595008 -1.796 0
M  V30 6759 O 621.783 1.42158 -1.16347 0
M  V30 6760 C 621.845 -1.21949 -3.38185 0
M  V30 6761 C 621.509 -2.67791 -3.7032 0
M  V30 6762 C 622.506 -3.66036 -3.69207 0
M  V30 6763 C 620.191 -3.04019 -3.99847 0
M  V30 6764 C 622.185 -4.98533 -3.9717 0
M  V30 6765 C 619.872 -4.36706 -4.27471 0
M  V30 6766 C 620.87 -5.33772 -4.26118 0
M  V30 6767 O 620.558 -6.64072 -4.53061 0
M  V30 6768 H 620.29 -0.308009 -0.601753 0
M  V30 6769 H 622.844 -1.46496 -1.43973 0
M  V30 6770 H 621.074 -0.555249 -3.82693 0
M  V30 6771 H 622.763 -0.957281 -3.9445 0
M  V30 6772 H 623.529 -3.39392 -3.46465 0
M  V30 6773 H 619.408 -2.29096 -4.00045 0
M  V30 6774 H 622.952 -5.74288 -3.96029 0
M  V30 6775 H 618.849 -4.63091 -4.49685 0
M  V30 6776 H 619.617 -6.69608 -4.7071 0
M  V30 6777 N 622.28 1.30327 -0.886154 0
M  V30 6778 C 623.529 1.95373 -0.501243 0
M  V30 6779 C 623.842 1.70722 0.954634 0
M  V30 6780 O 625.048 2.29761 1.44644 0
M  V30 6781 C 623.504 3.49828 -0.845493 0
M  V30 6782 C 623.112 3.83296 -2.31922 0
M  V30 6783 C 624.856 4.2118 -0.529838 0
M  V30 6784 C 622.763 5.30935 -2.60504 0
M  V30 6785 H 621.693 0.731274 -0.183722 0
M  V30 6786 H 624.344 1.48258 -1.08129 0
M  V30 6787 H 622.726 3.95522 -0.19452 0
M  V30 6788 H 623.9 3.48508 -3.01461 0
M  V30 6789 H 622.215 3.2505 -2.60253 0
M  V30 6790 H 624.812 5.29825 -0.720401 0
M  V30 6791 H 625.155 4.12902 0.530828 0
M  V30 6792 H 625.688 3.81173 -1.13806 0
M  V30 6793 H 622.427 5.44265 -3.65316 0
M  V30 6794 H 621.947 5.67019 -1.95575 0
M  V30 6795 H 623.626 5.98381 -2.46066 0
M  V30 6796 N 623.758 0.647228 1.43697 0
M  V30 6797 C 624.69 -0.0866232 2.29036 0
M  V30 6798 C 625.703 -0.793051 1.42178 0
M  V30 6799 O 626.892 -0.651807 1.66174 0
M  V30 6800 C 623.992 -1.14552 3.18953 0
M  V30 6801 C 623.165 -0.518422 4.34317 0
M  V30 6802 C 622.224 -1.4734 5.05151 0
M  V30 6803 O 621.25 -0.984312 5.60625 0
M  V30 6804 N 622.452 -2.8075 5.08094 0
M  V30 6805 H 625.217 0.645834 2.92659 0
M  V30 6806 H 622.778 0.489567 1.54321 0
M  V30 6807 H 624.77 -1.78505 3.63205 0
M  V30 6808 H 623.34 -1.78001 2.56971 0
M  V30 6809 H 622.56 0.300079 3.93056 0
M  V30 6810 H 623.848 -0.080401 5.08736 0
M  V30 6811 H 623.246 -3.23052 4.64386 0
M  V30 6812 H 621.803 -3.40022 5.56083 0
M  V30 6813 N 625.236 -1.5273 0.388769 0
M  V30 6814 C 626.461 -2.0647 -0.19621 0
M  V30 6815 C 626.886 -1.25865 -1.39784 0
M  V30 6816 O 626.244 -0.283562 -1.79069 0
M  V30 6817 C 626.292 -3.56456 -0.5451 0
M  V30 6818 O 625.396 -3.78426 -1.63912 0
M  V30 6819 H 624.737 -0.663599 -0.023067 0
M  V30 6820 H 627.267 -1.96898 0.556084 0
M  V30 6821 H 627.277 -3.99888 -0.809557 0
M  V30 6822 H 625.952 -4.14561 0.333417 0
M  V30 6823 H 624.529 -3.46884 -1.36842 0
M  V30 6824 N 626.714 -0.118576 -1.57153 0
M  V30 6825 C 627.644 0.828436 -2.1831 0
M  V30 6826 C 628.625 1.27758 -1.12303 0
M  V30 6827 O 629.81 1.34026 -1.40537 0
M  V30 6828 C 626.94 2.07876 -2.78217 0
M  V30 6829 C 625.894 1.76742 -3.89803 0
M  V30 6830 C 625.22 3.08801 -4.36516 0
M  V30 6831 C 626.52 1.03606 -5.11921 0
M  V30 6832 H 628.214 0.318824 -2.97698 0
M  V30 6833 H 625.76 0.151911 -1.43196 0
M  V30 6834 H 627.713 2.74584 -3.19659 0
M  V30 6835 H 626.437 2.61161 -1.96118 0
M  V30 6836 H 625.096 1.12424 -3.48936 0
M  V30 6837 H 624.744 3.6002 -3.51276 0
M  V30 6838 H 624.444 2.88743 -5.11763 0
M  V30 6839 H 625.968 3.76627 -4.80608 0
M  V30 6840 H 627.382 1.60467 -5.50385 0
M  V30 6841 H 625.779 0.936454 -5.92748 0
M  V30 6842 H 626.849 0.0227421 -4.84895 0
M  V30 6843 N 628.193 1.56834 0.155195 0
M  V30 6844 C 629.433 1.84701 0.875488 0
M  V30 6845 C 629.797 0.701747 1.78716 0
M  V30 6846 O 630.998 0.861263 2.54629 0
M  V30 6847 C 629.269 3.1773 1.63654 0
M  V30 6848 S 630.828 3.67128 2.40338 0
M  V30 6849 H 627.646 0.647856 0.292923 0
M  V30 6850 H 630.248 1.95026 0.136024 0
M  V30 6851 H 628.952 3.99059 0.958117 0
M  V30 6852 H 628.483 3.10388 2.41708 0
M  V30 6853 H 630.498 3.35739 3.65368 0
M  V30 6854 N 629.671 -0.424282 1.51781 0
M  V30 6855 C 630.603 -1.53457 1.70246 0
M  V30 6856 C 631.616 -1.52004 0.582967 0
M  V30 6857 O 632.805 -1.56544 0.857683 0
M  V30 6858 C 629.905 -2.92368 1.71389 0
M  V30 6859 C 629.078 -3.1818 3.00133 0
M  V30 6860 C 628.137 -4.36884 2.9329 0
M  V30 6861 O 627.163 -4.34901 3.67219 0
M  V30 6862 N 628.365 -5.4117 2.10036 0
M  V30 6863 H 631.13 -1.38017 2.66029 0
M  V30 6864 H 628.691 -0.613394 1.4983 0
M  V30 6865 H 630.683 -3.6982 1.64362 0
M  V30 6866 H 629.253 -3.0134 0.831449 0
M  V30 6867 H 628.473 -2.28908 3.20928 0
M  V30 6868 H 629.761 -3.32261 3.85331 0
M  V30 6869 H 629.159 -5.45623 1.49373 0
M  V30 6870 H 627.716 -6.17425 2.08878 0
M  V30 6871 N 631.149 -1.42148 -0.680565 0
M  V30 6872 C 632.374 -1.45901 -1.47403 0
M  V30 6873 C 632.799 -0.0700985 -1.87969 0
M  V30 6874 O 632.157 0.930145 -1.55621 0
M  V30 6875 C 632.205 -2.38661 -2.70321 0
M  V30 6876 O 631.309 -1.85399 -3.68376 0
M  V30 6877 H 630.65 -0.494565 -0.443059 0
M  V30 6878 H 633.18 -1.86774 -0.835251 0
M  V30 6879 H 633.19 -2.55046 -3.18458 0
M  V30 6880 H 631.865 -3.39571 -2.40134 0
M  V30 6881 H 630.442 -1.78541 -3.2738 0
M  V30 6882 N 632.627 0.916307 -1.28225 0
M  V30 6883 C 633.557 2.0352 -1.14464 0
M  V30 6884 C 634.538 1.70045 -0.0430844 0
M  V30 6885 O 635.723 1.92954 -0.219619 0
M  V30 6886 C 632.853 3.37889 -0.803027 0
M  V30 6887 C 631.807 3.85516 -1.85908 0
M  V30 6888 C 631.133 5.1682 -1.37116 0
M  V30 6889 C 632.433 4.07655 -3.26519 0
M  V30 6890 H 634.127 2.1529 -2.08064 0
M  V30 6891 H 631.673 1.03446 -1.00174 0
M  V30 6892 H 633.626 4.15654 -0.693537 0
M  V30 6893 H 632.35 3.26164 0.168674 0
M  V30 6894 H 631.009 3.09953 -1.95767 0
M  V30 6895 H 630.657 5.01497 -0.38859 0
M  V30 6896 H 630.357 5.49657 -2.07728 0
M  V30 6897 H 631.881 5.97143 -1.27484 0
M  V30 6898 H 633.295 4.75953 -3.19596 0
M  V30 6899 H 631.692 4.51818 -3.94943 0
M  V30 6900 H 632.762 3.12553 -3.70727 0
M  V30 6901 N 634.105 1.10431 1.1244 0
M  V30 6902 C 635.521 0.836096 1.35947 0
M  V30 6903 C 635.721 -0.544475 1.94004 0
M  V30 6904 O 634.777 -1.29735 2.16622 0
M  V30 6905 C 636.09 1.93575 2.30107 0
M  V30 6906 C 637.638 1.9642 2.43697 0
M  V30 6907 C 638.113 3.05559 3.41171 0
M  V30 6908 N 639.604 3.04865 3.48728 0
M  V30 6909 C 640.339 3.85954 4.24061 0
M  V30 6910 N 639.835 4.76977 5.02458 0
M  V30 6911 N 641.628 3.74172 4.19466 0
M  V30 6912 H 633.779 1.9942 0.731124 0
M  V30 6913 H 636.042 0.866607 0.384312 0
M  V30 6914 H 635.748 2.92943 1.94621 0
M  V30 6915 H 635.622 1.8229 3.30227 0
M  V30 6916 H 638.009 0.97685 2.78463 0
M  V30 6917 H 638.09 2.11782 1.43465 0
M  V30 6918 H 637.734 4.04513 3.07135 0
M  V30 6919 H 637.664 2.87438 4.41234 0
M  V30 6920 H 640.155 2.38908 2.92799 0
M  V30 6921 H 640.468 5.35409 5.57277 0
M  V30 6922 H 638.813 4.81006 5.01655 0
M  V30 6923 H 642.004 3.02412 3.57302 0
M  V30 6924 H 642.177 4.37602 4.77921 0
M  V30 6925 N 635.583 -1.29855 0.893053 0
M  V30 6926 C 636.493 -2.31661 0.370157 0
M  V30 6927 C 637.509 -1.65677 -0.531723 0
M  V30 6928 O 638.685 -1.9691 -0.422902 0
M  V30 6929 C 635.75 -3.44388 -0.399741 0
M  V30 6930 C 634.811 -4.2598 0.532861 0
M  V30 6931 C 634.044 -5.33324 -0.200388 0
M  V30 6932 O 634.267 -5.52305 -1.42531 0
M  V30 6933 O 633.201 -6.00188 0.453668 0
M  V30 6934 H 637.027 -2.78354 1.2146 0
M  V30 6935 H 634.612 -1.34171 0.657153 0
M  V30 6936 H 636.494 -4.13037 -0.835358 0
M  V30 6937 H 635.169 -2.99815 -1.22035 0
M  V30 6938 H 634.076 -3.59998 1.01746 0
M  V30 6939 H 635.409 -4.74178 1.3197 0
M  V30 6940 N 637.061 -0.65484 -1.43351 0
M  V30 6941 C 638.477 -0.32255 -1.56307 0
M  V30 6942 C 638.677 1.17324 -1.63821 0
M  V30 6943 O 637.733 1.95813 -1.59417 0
M  V30 6944 C 639.046 -1.03533 -2.82314 0
M  V30 6945 C 640.594 -1.01574 -2.9606 0
M  V30 6946 C 641.069 -1.70945 -4.24902 0
M  V30 6947 N 642.56 -1.67716 -4.3177 0
M  V30 6948 C 643.295 -2.18265 -5.30234 0
M  V30 6949 N 642.791 -2.7711 -6.34966 0
M  V30 6950 N 644.584 -2.08756 -5.21898 0
M  V30 6951 H 636.735 -1.62549 -1.36717 0
M  V30 6952 H 638.998 -0.683676 -0.656727 0
M  V30 6953 H 638.704 -2.09045 -2.8283 0
M  V30 6954 H 638.578 -0.587913 -3.7259 0
M  V30 6955 H 640.965 0.0309834 -2.95084 0
M  V30 6956 H 641.046 -1.50186 -2.07069 0
M  V30 6957 H 640.69 -2.75574 -4.26639 0
M  V30 6958 H 640.62 -1.19797 -5.12793 0
M  V30 6959 H 643.111 -1.24777 -3.56706 0
M  V30 6960 H 643.424 -3.13353 -7.06421 0
M  V30 6961 H 641.769 -2.81171 -6.35585 0
M  V30 6962 H 644.96 -1.62488 -4.38994 0
M  V30 6963 H 645.133 -2.48459 -5.98475 0
M  V30 6964 N 638.539 1.52521 -0.396863 0
M  V30 6965 C 639.779 2.03583 0.182578 0
M  V30 6966 C 640.143 1.2766 1.43412 0
M  V30 6967 O 641.344 1.68884 2.09121 0
M  V30 6968 C 639.615 3.54724 0.436519 0
M  V30 6969 S 641.174 4.27598 0.985163 0
M  V30 6970 H 637.992 0.709186 0.0507529 0
M  V30 6971 H 640.594 1.87693 -0.546955 0
M  V30 6972 H 639.298 4.07567 -0.481343 0
M  V30 6973 H 638.829 3.74834 1.19427 0
M  V30 6974 H 640.844 4.41393 2.26686 0
M  V30 6975 N 640.017 0.126909 1.57088 0
M  V30 6976 C 641.428 -0.397201 1.82426 0
M  V30 6977 C 641.779 -1.66084 1.04453 0
M  V30 6978 O 640.904 -2.14534 0.283552 0
M  V30 6979 C 641.499 -0.727411 3.30899 0
M  V30 6980 C 640.058 -1.19612 3.56889 0
M  V30 6981 C 639.205 -0.20885 2.76512 0
M  V30 6982 H 642.156 0.351924 1.54749 0
M  V30 6983 H 642.177 -1.58407 3.45959 0
M  V30 6984 H 641.689 0.19247 3.87622 0
M  V30 6985 H 639.79 -2.13263 3.05532 0
M  V30 6986 H 639.903 -1.13598 4.65438 0
M  V30 6987 H 638.267 -0.697479 2.44964 0
M  V30 6988 H 639.05 0.704267 3.35998 0
M  V30 6989 N 641.495 -1.56914 -0.146875 0
M  V30 6990 C 642.911 -1.51582 -0.499518 0
M  V30 6991 C 643.111 -0.83535 -1.83369 0
M  V30 6992 O 642.167 -0.405932 -2.49216 0
M  V30 6993 C 643.48 -2.96349 -0.509711 0
M  V30 6994 C 645.028 -3.07288 -0.595217 0
M  V30 6995 C 645.503 -4.53562 -0.636071 0
M  V30 6996 N 646.994 -4.57906 -0.69829 0
M  V30 6997 C 647.729 -5.68462 -0.750886 0
M  V30 6998 N 647.225 -6.88588 -0.76282 0
M  V30 6999 N 649.018 -5.56496 -0.791777 0
M  V30 7000 H 641.169 -1.99547 0.727656 0
M  V30 7001 H 643.432 -0.910113 0.265327 0
M  V30 7002 H 643.138 -3.4939 0.402409 0
M  V30 7003 H 643.012 -3.52307 -1.34758 0
M  V30 7004 H 645.399 -2.54266 -1.49776 0
M  V30 7005 H 645.48 -2.54373 0.2698 0
M  V30 7006 H 645.124 -5.07222 0.262313 0
M  V30 7007 H 645.054 -5.04259 -1.51758 0
M  V30 7008 H 647.545 -3.71429 -0.696362 0
M  V30 7009 H 647.858 -7.68598 -0.804804 0
M  V30 7010 H 646.203 -6.91148 -0.730694 0
M  V30 7011 H 649.394 -4.61562 -0.779624 0
M  V30 7012 H 649.567 -6.42671 -0.829301 0
M  V30 7013 N 642.974 0.416227 -1.52004 0
M  V30 7014 C 644.222 1.16153 -1.65387 0
M  V30 7015 C 644.543 1.91208 -0.382669 0
M  V30 7016 O 643.813 1.86413 0.602231 0
M  V30 7017 H 642.393 0.431765 -0.60958 0
M  V30 7018 H 645.055 0.475151 -1.89019 0
M  V30 7019 H 644.151 1.87952 -2.4916 0
M  V30 7020 N 644.452 1.42507 0.673017 0
M  V30 7021 C 645.729 1.33554 1.42908 0
M  V30 7022 C 646.109 -0.0262211 2.11084 0
M  V30 7023 O 645.457 -1.04181 2.03368 0
M  V30 7024 C 645.667 2.50498 2.43006 0
M  V30 7025 C 647.015 2.92694 3.07596 0
M  V30 7026 O 648.039 2.50401 2.53333 0
M  V30 7027 O 646.898 3.65899 4.05931 0
M  V30 7028 H 643.992 0.526785 0.637516 0
M  V30 7029 H 646.538 1.54518 0.701591 0
M  V30 7030 H 645.31 3.41272 1.9144 0
M  V30 7031 H 644.933 2.3153 3.23233 0
M  V30 7032 N 645.93 -0.909495 1.28709 0
M  V30 7033 C 647.207 -1.63865 1.06806 0
M  V30 7034 C 647.587 -2.07445 -0.391143 0
M  V30 7035 O 646.935 -1.82269 -1.37805 0
M  V30 7036 C 647.145 -2.82692 2.04661 0
M  V30 7037 C 648.493 -3.5361 2.35042 0
M  V30 7038 O 649.517 -2.92847 2.02779 0
M  V30 7039 O 648.376 -4.63131 2.90124 0
M  V30 7040 H 645.47 -0.719065 0.408502 0
M  V30 7041 H 648.016 -0.958424 1.40044 0
M  V30 7042 H 646.788 -2.47614 3.0299 0
M  V30 7043 H 646.411 -3.58426 1.72095 0
M  V30 7044 N 647.408 -1.11026 -1.11852 0
M  V30 7045 C 648.657 -0.851249 -1.82857 0
M  V30 7046 C 648.97 0.62514 -1.85341 0
M  V30 7047 O 650.176 1.00026 -2.52403 0
M  V30 7048 C 648.632 -1.47309 -3.28372 0
M  V30 7049 C 648.24 -2.9832 -3.34229 0
M  V30 7050 C 649.984 -1.29373 -4.04306 0
M  V30 7051 C 647.891 -3.53509 -4.74115 0
M  V30 7052 H 646.821 -0.314794 -0.685143 0
M  V30 7053 H 649.472 -1.33499 -1.25898 0
M  V30 7054 H 647.854 -0.917017 -3.85236 0
M  V30 7055 H 649.028 -3.60295 -2.87271 0
M  V30 7056 H 647.343 -3.15482 -2.71772 0
M  V30 7057 H 649.94 -1.68042 -5.07608 0
M  V30 7058 H 650.283 -0.235879 -4.15631 0
M  V30 7059 H 650.816 -1.8182 -3.53817 0
M  V30 7060 H 647.555 -4.58987 -4.67986 0
M  V30 7061 H 647.075 -2.96305 -5.21501 0
M  V30 7062 H 648.754 -3.51693 -5.43066 0
M  V30 7063 N 648.886 1.2938 -0.899927 0
M  V30 7064 C 649.816 2.30144 -0.39446 0
M  V30 7065 C 650.797 1.61611 0.530639 0
M  V30 7066 O 651.982 1.89119 0.441319 0
M  V30 7067 C 649.112 3.45229 0.37868 0
M  V30 7068 C 648.066 4.25564 -0.456012 0
M  V30 7069 C 647.392 5.32848 0.444637 0
M  V30 7070 C 648.692 4.93651 -1.70605 0
M  V30 7071 H 650.386 2.72673 -1.23653 0
M  V30 7072 H 647.932 1.31086 -0.596034 0
M  V30 7073 H 649.885 4.14797 0.743037 0
M  V30 7074 H 648.609 3.01545 1.25453 0
M  V30 7075 H 647.268 3.57704 -0.802704 0
M  V30 7076 H 646.916 4.85408 1.31863 0
M  V30 7077 H 646.616 5.87497 -0.110154 0
M  V30 7078 H 648.14 6.05268 0.805182 0
M  V30 7079 H 649.554 5.55655 -1.41141 0
M  V30 7080 H 647.951 5.58233 -2.20217 0
M  V30 7081 H 649.021 4.18926 -2.4419 0
M  V30 7082 N 650.364 0.662433 1.43002 0
M  V30 7083 C 651.592 0.187615 2.06048 0
M  V30 7084 C 652.007 -1.15039 1.49705 0
M  V30 7085 O 651.364 -1.71209 0.631956 0
M  V30 7086 C 651.415 0.100498 3.6136 0
M  V30 7087 O 651.136 1.38562 4.15611 0
M  V30 7088 C 652.637 -0.399298 4.41498 0
M  V30 7089 H 649.857 0.0941675 0.664359 0
M  V30 7090 H 652.401 0.905681 1.83351 0
M  V30 7091 H 650.556 -0.568181 3.83211 0
M  V30 7092 H 650.97 1.25084 5.09366 0
M  V30 7093 H 652.444 -0.409187 5.50481 0
M  V30 7094 H 652.921 -1.43232 4.15188 0
M  V30 7095 H 653.527 0.23721 4.24638 0
M  V30 7096 N 651.842 -1.52309 0.404946 0
M  V30 7097 C 653.091 -2.00952 -0.173529 0
M  V30 7098 C 653.404 -1.29512 -1.46581 0
M  V30 7099 O 654.61 -1.6895 -2.12528 0
M  V30 7100 C 653.066 -3.58097 -0.359801 0
M  V30 7101 C 652.674 -4.38449 0.920138 0
M  V30 7102 C 654.418 -4.14984 -0.893794 0
M  V30 7103 C 652.325 -5.87227 0.701285 0
M  V30 7104 H 651.255 -0.750871 -0.0686244 0
M  V30 7105 H 653.906 -1.75687 0.529749 0
M  V30 7106 H 652.288 -3.79675 -1.12531 0
M  V30 7107 H 653.462 -4.28633 1.69147 0
M  V30 7108 H 651.777 -3.92859 1.38024 0
M  V30 7109 H 654.374 -5.23813 -1.0735 0
M  V30 7110 H 654.717 -3.72072 -1.8673 0
M  V30 7111 H 655.25 -3.97358 -0.187453 0
M  V30 7112 H 651.989 -6.34491 1.64624 0
M  V30 7113 H 651.509 -5.99792 -0.0308288 0
M  V30 7114 H 653.188 -6.46096 0.341846 0
M  V30 7115 N 653.32 -0.135238 -1.57019 0
M  V30 7116 C 654.25 0.805235 -2.19176 0
M  V30 7117 C 655.231 1.2656 -1.13651 0
M  V30 7118 O 656.416 1.32528 -1.4195 0
M  V30 7119 C 653.546 2.04914 -2.80406 0
M  V30 7120 C 652.5 1.72598 -3.91655 0
M  V30 7121 C 651.826 3.04154 -4.39766 0
M  V30 7122 C 653.126 0.981709 -5.12991 0
M  V30 7123 H 654.82 0.287232 -2.98019 0
M  V30 7124 H 652.366 0.136714 -1.4335 0
M  V30 7125 H 654.319 2.71178 -3.22553 0
M  V30 7126 H 653.043 2.59067 -1.98877 0
M  V30 7127 H 651.702 1.08717 -3.50109 0
M  V30 7128 H 651.35 3.56274 -3.55075 0
M  V30 7129 H 651.05 2.83299 -5.14796 0
M  V30 7130 H 652.574 3.71509 -4.84576 0
M  V30 7131 H 653.988 1.5462 -5.52056 0
M  V30 7132 H 652.385 0.873533 -5.93708 0
M  V30 7133 H 653.455 -0.0286887 -4.84892 0
M  V30 7134 N 654.798 1.5699 0.138552 0
M  V30 7135 C 656.026 1.87976 0.864437 0
M  V30 7136 C 656.441 0.724372 1.74351 0
M  V30 7137 O 655.798 -0.305575 1.79924 0
M  V30 7138 C 655.849 3.18276 1.71414 0
M  V30 7139 O 655.57 4.29365 0.870487 0
M  V30 7140 C 657.071 3.62834 2.54688 0
M  V30 7141 H 654.291 0.622878 0.249528 0
M  V30 7142 H 656.835 2.04094 0.128805 0
M  V30 7143 H 654.99 3.03886 2.40274 0
M  V30 7144 H 655.404 5.03924 1.45466 0
M  V30 7145 H 656.878 4.5682 3.0987 0
M  V30 7146 H 657.355 2.88533 3.31127 0
M  V30 7147 H 657.961 3.79946 1.91105 0
M  V30 7148 N 656.276 -0.40816 1.52223 0
M  V30 7149 C 657.186 -1.52202 1.78526 0
M  V30 7150 C 658.202 -1.60546 0.670892 0
M  V30 7151 O 659.378 -1.77242 0.956404 0
M  V30 7152 C 656.443 -2.87928 1.93128 0
M  V30 7153 C 655.504 -2.89463 3.17033 0
M  V30 7154 C 654.737 -4.18715 3.30929 0
M  V30 7155 O 654.96 -5.12662 2.50067 0
M  V30 7156 O 653.894 -4.27125 4.24084 0
M  V30 7157 H 657.72 -1.32911 2.73072 0
M  V30 7158 H 655.305 -0.594112 1.37079 0
M  V30 7159 H 657.187 -3.68426 2.04549 0
M  V30 7160 H 655.862 -3.07285 1.01772 0
M  V30 7161 H 654.769 -2.07815 3.11069 0
M  V30 7162 H 656.102 -2.75055 4.08174 0
M  V30 7163 N 657.755 -1.42862 -0.66545 0
M  V30 7164 C 659.001 -1.44043 -1.42757 0
M  V30 7165 C 659.334 -0.0599629 -1.94107 0
M  V30 7166 O 658.609 0.917286 -1.71511 0
M  V30 7167 C 658.892 -2.47266 -2.61786 0
M  V30 7168 C 658.745 -3.94539 -2.16007 0
M  V30 7169 C 660.064 -2.47365 -3.64003 0
M  V30 7170 H 657.183 -0.524506 -0.517748 0
M  V30 7171 H 659.825 -1.74335 -0.755466 0
M  V30 7172 H 657.975 -2.21565 -3.19126 0
M  V30 7173 H 659.647 -4.31254 -1.63762 0
M  V30 7174 H 657.89 -4.07957 -1.47491 0
M  V30 7175 H 658.561 -4.62357 -3.01546 0
M  V30 7176 H 661.037 -2.70243 -3.16399 0
M  V30 7177 H 659.913 -3.21552 -4.44854 0
M  V30 7178 H 660.174 -1.50299 -4.15767 0
M  V30 7179 N 659.233 0.902656 -1.29189 0
M  V30 7180 C 660.181 2.0278 -1.13943 0
M  V30 7181 C 661.175 1.69308 -0.055787 0
M  V30 7182 O 662.381 1.78707 -0.215371 0
M  V30 7183 H 658.756 0.664595 -0.351877 0
M  V30 7184 H 660.727 2.12778 -2.09208 0
M  V30 7185 C 659.476 3.37657 -0.82966 0
M  V30 7186 H 658.799 3.63913 -1.65551 0
M  V30 7187 H 660.239 4.17078 -0.762998 0
M  V30 7188 C 658.698 3.33648 0.466991 0
M  V30 7189 O 659.228 3.72886 1.49395 0
M  V30 7190 N 657.434 2.86745 0.471761 0
M  V30 7191 H 656.981 2.55009 -0.364406 0
M  V30 7192 H 656.939 2.84446 1.33933 0
M  V30 7193 N 660.711 1.11618 1.11262 0
M  V30 7194 C 661.941 0.88745 1.86569 0
M  V30 7195 C 662.349 -0.56636 1.80524 0
M  V30 7196 O 661.692 -1.40289 1.18594 0
M  V30 7197 C 661.754 1.27313 3.36202 0
M  V30 7198 C 661.418 2.73649 3.66013 0
M  V30 7199 C 662.415 3.71863 3.63337 0
M  V30 7200 C 660.1 3.10342 3.9496 0
M  V30 7201 C 662.094 5.04788 3.89188 0
M  V30 7202 C 659.781 4.43451 4.20469 0
M  V30 7203 C 660.779 5.40484 4.17572 0
M  V30 7204 O 660.467 6.71195 4.42439 0
M  V30 7205 H 660.199 0.317543 0.596777 0
M  V30 7206 H 662.753 1.48768 1.41624 0
M  V30 7207 H 660.983 0.616062 3.81761 0
M  V30 7208 H 662.672 1.01991 3.92877 0
M  V30 7209 H 663.438 3.44861 3.41022 0
M  V30 7210 H 659.317 2.35431 3.9635 0
M  V30 7211 H 662.861 5.80516 3.86842 0
M  V30 7212 H 658.758 4.70187 4.42261 0
M  V30 7213 H 659.526 6.77012 4.59997 0
M  V30 7214 N 662.189 -1.289 0.906776 0
M  V30 7215 C 663.099 -2.31256 0.394707 0
M  V30 7216 C 664.115 -1.66231 -0.514121 0
M  V30 7217 O 665.291 -1.97347 -0.401994 0
M  V30 7218 C 662.356 -3.44792 -0.363191 0
M  V30 7219 C 661.417 -4.25391 0.578012 0
M  V30 7220 C 660.65 -5.33506 -0.143811 0
M  V30 7221 O 660.873 -5.53786 -1.36665 0
M  V30 7222 O 659.807 -5.99673 0.5173 0
M  V30 7223 H 663.633 -2.77051 1.24405 0
M  V30 7224 H 661.218 -1.33466 0.671346 0
M  V30 7225 H 663.1 -4.139 -0.791503 0
M  V30 7226 H 661.775 -3.01093 -1.18848 0
M  V30 7227 H 660.682 -3.58899 1.05558 0
M  V30 7228 H 662.015 -4.72752 1.36992 0
M  V30 7229 N 663.667 -0.670007 -1.42649 0
M  V30 7230 C 664.913 -0.190568 -2.01903 0
M  V30 7231 C 665.246 1.19817 -1.52832 0
M  V30 7232 O 664.521 1.80342 -0.728485 0
M  V30 7233 C 664.804 -0.21991 -3.59428 0
M  V30 7234 C 664.657 -1.64376 -4.18689 0
M  V30 7235 C 665.976 0.434519 -4.3795 0
M  V30 7236 H 663.095 -0.0707219 -0.733599 0
M  V30 7237 H 665.737 -0.853883 -1.69732 0
M  V30 7238 H 663.887 0.344894 -3.86966 0
M  V30 7239 H 665.559 -2.26044 -4.02122 0
M  V30 7240 H 663.802 -2.18591 -3.747 0
M  V30 7241 H 664.473 -1.61601 -5.27815 0
M  V30 7242 H 666.949 -0.0462156 -4.16074 0
M  V30 7243 H 665.825 0.38333 -5.4756 0
M  V30 7244 H 666.086 1.51135 -4.15464 0
M  V30 7245 N 665.145 1.52092 -0.413018 0
M  V30 7246 C 666.37 2.06756 0.163338 0
M  V30 7247 C 666.795 1.28073 1.37764 0
M  V30 7248 O 666.153 0.312015 1.78595 0
M  V30 7249 C 666.201 3.57278 0.488322 0
M  V30 7250 O 665.305 3.80986 1.57871 0
M  V30 7251 H 664.646 0.663882 0.0125068 0
M  V30 7252 H 667.176 1.95988 -0.587339 0
M  V30 7253 H 667.186 4.01125 0.745836 0
M  V30 7254 H 665.861 4.13978 -0.399327 0
M  V30 7255 H 664.438 3.49017 1.31306 0
M  V30 7256 N 666.623 0.143563 1.56945 0
M  V30 7257 C 667.571 -0.814556 2.17871 0
M  V30 7258 C 668.565 -1.25778 1.13474 0
M  V30 7259 O 669.771 -1.22666 1.31731 0
M  V30 7260 H 666.146 -0.280873 0.697578 0
M  V30 7261 H 668.117 -0.276459 2.97117 0
M  V30 7262 C 666.866 -2.04503 2.81201 0
M  V30 7263 H 666.189 -1.71296 3.61245 0
M  V30 7264 H 667.629 -2.69493 3.27337 0
M  V30 7265 C 666.088 -2.85079 1.79532 0
M  V30 7266 O 666.618 -3.81306 1.26368 0
M  V30 7267 N 664.824 -2.49546 1.48913 0
M  V30 7268 H 664.371 -1.71359 1.92338 0
M  V30 7269 H 664.329 -3.03751 0.811348 0
M  V30 7270 N 668.101 -1.57061 -0.130224 0
M  V30 7271 C 669.048 -1.99517 -1.16024 0
M  V30 7272 C 670.018 -0.865452 -1.41771 0
M  V30 7273 O 671.203 -1.12882 -1.53826 0
M  V30 7274 C 668.343 -2.3951 -2.48453 0
M  V30 7275 C 667.456 -3.65848 -2.29737 0
M  V30 7276 C 666.591 -3.9487 -3.55318 0
M  V30 7277 C 665.63 -5.14426 -3.31711 0
M  V30 7278 N 664.767 -5.39375 -4.49466 0
M  V30 7279 H 669.607 -2.87305 -0.791194 0
M  V30 7280 H 667.144 -1.42129 -0.379195 0
M  V30 7281 H 669.102 -2.60731 -3.25692 0
M  V30 7282 H 667.732 -1.54779 -2.83272 0
M  V30 7283 H 666.784 -3.52307 -1.4347 0
M  V30 7284 H 668.096 -4.53241 -2.08263 0
M  V30 7285 H 667.25 -4.16679 -4.4098 0
M  V30 7286 H 665.989 -3.05931 -3.79813 0
M  V30 7287 H 664.994 -4.92473 -2.44439 0
M  V30 7288 H 666.219 -6.04933 -3.08598 0
M  V30 7289 H 664.165 -4.53391 -4.74102 0
M  V30 7290 H 664.082 -6.21069 -4.31055 0
M  V30 7291 H 665.35 -5.65694 -5.36293 0
M  V30 7292 N 669.579 0.400081 -1.52437 0
M  V30 7293 C 670.856 1.15973 -1.57511 0
M  V30 7294 C 671.236 2.0798 -0.361572 0
M  V30 7295 O 670.584 2.19032 0.650929 0
M  V30 7296 C 670.794 1.92912 -2.90837 0
M  V30 7297 C 672.142 2.48662 -3.44169 0
M  V30 7298 O 673.166 2.03081 -2.92637 0
M  V30 7299 O 672.025 3.31894 -4.34176 0
M  V30 7300 H 669.119 0.530023 -0.634827 0
M  V30 7301 H 671.665 0.40613 -1.64769 0
M  V30 7302 H 670.437 1.25564 -3.70607 0
M  V30 7303 H 670.06 2.75257 -2.86913 0
M  V30 7304 N 671.057 1.43213 0.657864 0
M  V30 7305 C 672.334 1.35063 1.41483 0
M  V30 7306 C 672.714 -0.0038314 2.111 0
M  V30 7307 O 672.062 -1.02018 2.04462 0
M  V30 7308 C 672.272 2.53061 2.40335 0
M  V30 7309 C 673.62 2.9594 3.04474 0
M  V30 7310 O 674.644 2.53074 2.50663 0
M  V30 7311 O 673.503 3.70184 4.02027 0
M  V30 7312 H 670.597 0.533517 0.631893 0
M  V30 7313 H 673.143 1.55253 0.685162 0
M  V30 7314 H 671.915 3.43283 1.87809 0
M  V30 7315 H 671.538 2.34945 3.20759 0
M  V30 7316 N 672.536 -0.895792 1.29666 0
M  V30 7317 C 673.483 -2.00035 1.15129 0
M  V30 7318 C 674.453 -1.66043 0.0435819 0
M  V30 7319 O 675.638 -1.89621 0.211811 0
M  V30 7320 C 672.778 -3.34774 0.83787 0
M  V30 7321 C 671.891 -3.81525 2.0264 0
M  V30 7322 C 671.026 -5.04858 1.65201 0
M  V30 7323 C 670.065 -5.43988 2.80612 0
M  V30 7324 N 669.202 -6.58507 2.43544 0
M  V30 7325 H 674.042 -2.11802 2.09628 0
M  V30 7326 H 671.579 -1.03719 1.04311 0
M  V30 7327 H 673.537 -4.12311 0.636824 0
M  V30 7328 H 672.167 -3.22724 -0.0702314 0
M  V30 7329 H 671.219 -2.9999 2.33903 0
M  V30 7330 H 672.531 -4.06472 2.89106 0
M  V30 7331 H 671.685 -5.8999 1.41408 0
M  V30 7332 H 670.424 -4.81759 0.758893 0
M  V30 7333 H 669.429 -4.57388 3.05083 0
M  V30 7334 H 670.654 -5.69066 3.70595 0
M  V30 7335 H 668.6 -6.37004 1.56724 0
M  V30 7336 H 668.517 -6.83269 3.23542 0
M  V30 7337 H 669.785 -7.46897 2.2308 0
M  V30 7338 N 674.014 -1.12206 -1.10668 0
M  V30 7339 C 674.961 -0.787716 -2.16942 0
M  V30 7340 C 675.931 0.244442 -1.64291 0
M  V30 7341 O 677.116 0.119558 -1.90425 0
M  V30 7342 C 674.256 -0.24584 -3.44223 0
M  V30 7343 C 673.369 -1.33552 -4.10838 0
M  V30 7344 C 672.504 -0.753337 -5.25831 0
M  V30 7345 C 671.543 -1.82231 -5.84344 0
M  V30 7346 N 670.68 -1.25902 -6.90719 0
M  V30 7347 H 675.52 -1.69809 -2.44885 0
M  V30 7348 H 673.057 -0.847862 -1.20207 0
M  V30 7349 H 675.015 0.0863639 -4.17111 0
M  V30 7350 H 673.645 0.627702 -3.16638 0
M  V30 7351 H 672.697 -1.78454 -3.35944 0
M  V30 7352 H 674.009 -2.14396 -4.50373 0
M  V30 7353 H 673.163 -0.37166 -6.05561 0
M  V30 7354 H 671.902 0.0863297 -4.87624 0
M  V30 7355 H 670.907 -2.2132 -5.03287 0
M  V30 7356 H 672.132 -2.66515 -6.24617 0
M  V30 7357 H 670.078 -0.44114 -6.54515 0
M  V30 7358 H 669.995 -2.00408 -7.28953 0
M  V30 7359 H 671.263 -0.904498 -7.74235 0
M  V30 7360 N 675.492 1.28418 -0.913599 0
M  V30 7361 C 676.44 2.29272 -0.392037 0
M  V30 7362 C 677.434 1.61344 0.516198 0
M  V30 7363 O 678.64 1.75557 0.39746 0
M  V30 7364 H 675.015 0.744178 -0.108178 0
M  V30 7365 H 676.986 2.70691 -1.25574 0
M  V30 7366 C 675.735 3.45905 0.352815 0
M  V30 7367 H 675.058 3.98378 -0.336848 0
M  V30 7368 H 676.498 4.18473 0.682398 0
M  V30 7369 C 674.957 2.98572 1.56065 0
M  V30 7370 O 675.487 3.01033 2.65974 0
M  V30 7371 N 673.693 2.54235 1.40759 0
M  V30 7372 H 673.24 2.52432 0.513403 0
M  V30 7373 H 673.198 2.22925 2.21702 0
M  V30 7374 N 676.97 0.677563 1.42291 0
M  V30 7375 C 677.903 -0.0492638 2.28147 0
M  V30 7376 C 678.881 -0.805936 1.41221 0
M  V30 7377 O 680.065 -0.80049 1.70659 0
M  V30 7378 C 677.192 -1.07697 3.21122 0
M  V30 7379 C 676.238 -0.41556 4.24471 0
M  V30 7380 S 677.071 0.828876 5.29046 0
M  V30 7381 C 678.227 -0.197687 6.25588 0
M  V30 7382 H 678.46 0.678965 2.89443 0
M  V30 7383 H 675.993 0.467201 1.47162 0
M  V30 7384 H 677.951 -1.66482 3.75225 0
M  V30 7385 H 676.612 -1.77766 2.58956 0
M  V30 7386 H 675.805 -1.19112 4.89723 0
M  V30 7387 H 675.407 0.0987632 3.7387 0
M  V30 7388 H 677.699 -1.05656 6.69211 0
M  V30 7389 H 678.642 0.420437 7.06851 0
M  V30 7390 H 679.05 -0.544401 5.61869 0
M  V30 7391 N 678.448 -1.51871 0.421078 0
M  V30 7392 C 679.696 -2.01539 -0.150492 0
M  V30 7393 C 680.017 -1.30803 -1.44623 0
M  V30 7394 O 679.287 -0.437568 -1.90951 0
M  V30 7395 H 677.867 -0.744698 -0.0586041 0
M  V30 7396 H 680.529 -1.8668 0.560059 0
M  V30 7397 H 679.625 -3.10264 -0.338068 0
M  V30 7398 N 679.926 -0.151884 -1.56866 0
M  V30 7399 C 680.873 0.785936 -2.17006 0
M  V30 7400 C 681.843 1.2407 -1.10435 0
M  V30 7401 O 683.028 1.31235 -1.38499 0
M  V30 7402 C 680.168 2.01771 -2.79969 0
M  V30 7403 C 679.281 1.6083 -4.00946 0
M  V30 7404 C 678.416 2.79224 -4.51893 0
M  V30 7405 C 677.455 2.3468 -5.65324 0
M  V30 7406 N 676.592 3.461 -6.10867 0
M  V30 7407 H 681.432 0.266286 -2.96808 0
M  V30 7408 H 678.969 0.11972 -1.46612 0
M  V30 7409 H 680.927 2.73989 -3.14621 0
M  V30 7410 H 679.557 2.51139 -2.02803 0
M  V30 7411 H 678.609 0.783592 -3.72242 0
M  V30 7412 H 679.921 1.24119 -4.83111 0
M  V30 7413 H 679.075 3.59625 -4.88625 0
M  V30 7414 H 677.814 3.19183 -3.68746 0
M  V30 7415 H 676.819 1.52721 -5.28163 0
M  V30 7416 H 678.044 1.95801 -6.5026 0
M  V30 7417 H 675.99 3.85671 -5.30654 0
M  V30 7418 H 675.907 3.1342 -6.87971 0
M  V30 7419 H 677.175 4.26844 -6.52246 0
M  V30 7420 N 681.404 1.57128 0.121893 0
M  V30 7421 C 682.336 1.96773 1.17529 0
M  V30 7422 C 683.349 0.866668 1.37814 0
M  V30 7423 O 684.538 1.14497 1.3694 0
M  V30 7424 C 681.638 2.24832 2.53582 0
M  V30 7425 C 680.811 3.56138 2.53939 0
M  V30 7426 C 679.87 3.72443 3.71716 0
M  V30 7427 O 678.896 4.44584 3.55434 0
M  V30 7428 N 680.098 3.10993 4.90167 0
M  V30 7429 H 682.863 2.87743 0.838086 0
M  V30 7430 H 680.424 1.58881 0.311199 0
M  V30 7431 H 682.416 2.32958 3.30927 0
M  V30 7432 H 680.986 1.40002 2.79496 0
M  V30 7433 H 680.206 3.59226 1.62329 0
M  V30 7434 H 681.494 4.42448 2.51231 0
M  V30 7435 H 680.892 2.52345 5.06299 0
M  V30 7436 H 679.449 3.24644 5.65198 0
M  V30 7437 N 682.882 -0.391992 1.52647 0
M  V30 7438 C 683.815 -1.50019 1.71958 0
M  V30 7439 C 684.793 -1.5238 0.567365 0
M  V30 7440 O 685.977 -1.70831 0.796806 0
M  V30 7441 C 683.104 -2.88496 1.77447 0
M  V30 7442 C 682.15 -3.03974 2.99169 0
M  V30 7443 S 682.983 -2.75487 4.59203 0
M  V30 7444 C 684.139 -4.16163 4.67503 0
M  V30 7445 H 684.372 -1.33413 2.65685 0
M  V30 7446 H 681.905 -0.584674 1.42902 0
M  V30 7447 H 683.863 -3.68296 1.81296 0
M  V30 7448 H 682.524 -3.02431 0.848188 0
M  V30 7449 H 681.717 -4.05328 2.99542 0
M  V30 7450 H 681.319 -2.32062 2.93297 0
M  V30 7451 H 683.611 -5.10048 4.45934 0
M  V30 7452 H 684.554 -4.20806 5.69498 0
M  V30 7453 H 684.962 -4.01933 3.96371 0
M  V30 7454 N 684.36 -1.4356 -0.65026 0
M  V30 7455 C 685.771 -1.40324 -1.2315 0
M  V30 7456 C 686.122 -0.108812 -1.95898 0
M  V30 7457 O 685.247 0.79163 -2.01401 0
M  V30 7458 C 685.842 -2.54195 -2.23987 0
M  V30 7459 C 684.401 -2.54215 -2.77582 0
M  V30 7460 C 683.548 -2.31752 -1.5227 0
M  V30 7461 H 686.499 -1.52418 -0.442095 0
M  V30 7462 H 686.52 -2.25854 -3.0622 0
M  V30 7463 H 686.032 -3.48392 -1.71011 0
M  V30 7464 H 684.133 -1.63907 -3.34612 0
M  V30 7465 H 684.246 -3.52081 -3.24925 0
M  V30 7466 H 682.61 -1.80476 -1.79723 0
M  V30 7467 H 683.393 -3.28037 -1.01225 0
M  V30 7468 N 685.838 0.888903 -1.30139 0
M  V30 7469 C 686.77 1.99972 -1.11999 0
M  V30 7470 C 687.783 1.62673 -0.0643619 0
M  V30 7471 O 688.972 1.75788 -0.309983 0
M  V30 7472 C 686.072 3.31904 -0.685059 0
M  V30 7473 C 685.245 3.97665 -1.82158 0
M  V30 7474 C 684.304 5.07894 -1.37585 0
M  V30 7475 O 683.33 5.2974 -2.08241 0
M  V30 7476 N 684.532 5.7995 -0.252697 0
M  V30 7477 H 687.297 2.16085 -2.07671 0
M  V30 7478 H 684.858 1.06175 -1.22223 0
M  V30 7479 H 686.85 4.03005 -0.369964 0
M  V30 7480 H 685.42 3.12084 0.179507 0
M  V30 7481 H 684.64 3.19787 -2.305 0
M  V30 7482 H 685.928 4.3834 -2.58332 0
M  V30 7483 H 685.326 5.647 0.336141 0
M  V30 7484 H 683.883 6.518 0.00296813 0
M  V30 7485 N 687.317 1.12792 1.10072 0
M  V30 7486 C 688.728 0.899346 1.63611 0
M  V30 7487 C 689.079 -0.565547 1.87872 0
M  V30 7488 O 688.204 -1.43081 1.62348 0
M  V30 7489 C 688.799 1.62608 2.97227 0
M  V30 7490 C 687.358 1.44356 3.47618 0
M  V30 7491 C 686.505 1.65958 2.22156 0
M  V30 7492 H 689.456 1.28216 0.935223 0
M  V30 7493 H 689.477 1.0793 3.64872 0
M  V30 7494 H 688.989 2.69221 2.79538 0
M  V30 7495 H 687.09 0.400148 3.70445 0
M  V30 7496 H 687.203 2.20218 4.25489 0
M  V30 7497 H 685.567 1.08395 2.30484 0
M  V30 7498 H 686.35 2.73877 2.06993 0
M  V30 7499 N 688.795 -1.27931 0.920396 0
M  V30 7500 C 690.023 -1.98805 0.573087 0
M  V30 7501 C 690.438 -1.68724 -0.847201 0
M  V30 7502 O 689.795 -0.943699 -1.56207 0
M  V30 7503 C 689.846 -3.52971 0.780633 0
M  V30 7504 O 689.567 -3.81994 2.14504 0
M  V30 7505 C 691.068 -4.411 0.44105 0
M  V30 7506 H 688.288 -0.634651 0.21785 0
M  V30 7507 H 690.832 -1.62965 1.23542 0
M  V30 7508 H 688.987 -3.87048 0.165204 0
M  V30 7509 H 689.401 -4.76609 2.18962 0
M  V30 7510 H 690.875 -5.48312 0.637006 0
M  V30 7511 H 691.352 -4.34758 -0.62306 0
M  V30 7512 H 691.958 -4.12532 1.0343 0
M  V30 7513 N 690.273 -0.685099 -1.4193 0
M  V30 7514 C 691.52 -0.211658 -2.01391 0
M  V30 7515 C 691.848 1.18526 -1.54214 0
M  V30 7516 O 691.103 1.81189 -0.739519 0
M  V30 7517 C 691.402 -0.206154 -3.56805 0
M  V30 7518 C 691.068 -1.54915 -4.23453 0
M  V30 7519 C 689.73 -1.91684 -4.41373 0
M  V30 7520 C 692.082 -2.43317 -4.60919 0
M  V30 7521 C 689.41 -3.16461 -4.94034 0
M  V30 7522 C 691.762 -3.67415 -5.14965 0
M  V30 7523 C 690.426 -4.04341 -5.31098 0
M  V30 7524 H 689.696 -0.0774511 -0.736941 0
M  V30 7525 H 692.343 -0.882121 -1.69973 0
M  V30 7526 H 690.648 0.547841 -3.87951 0
M  V30 7527 H 692.345 0.17753 -4.00607 0
M  V30 7528 H 688.935 -1.25314 -4.09871 0
M  V30 7529 H 693.119 -2.16192 -4.46738 0
M  V30 7530 H 688.375 -3.45078 -5.04709 0
M  V30 7531 H 692.549 -4.3611 -5.42938 0
M  V30 7532 H 690.176 -5.01101 -5.71666 0
M  V30 7533 N 691.751 1.51645 -0.429126 0
M  V30 7534 C 692.979 2.06433 0.138994 0
M  V30 7535 C 693.394 1.29735 1.37165 0
M  V30 7536 O 692.751 0.354638 1.79021 0
M  V30 7537 C 692.802 3.58439 0.469452 0
M  V30 7538 O 692.523 4.32238 -0.714273 0
M  V30 7539 C 694.024 4.29712 1.08914 0
M  V30 7540 H 691.244 0.6709 0.0115608 0
M  V30 7541 H 693.788 1.9532 -0.605843 0
M  V30 7542 H 691.943 3.69494 1.16419 0
M  V30 7543 H 692.357 5.22704 -0.433633 0
M  V30 7544 H 693.831 5.37182 1.27042 0
M  V30 7545 H 694.308 3.87473 2.06788 0
M  V30 7546 H 694.914 4.2308 0.434028 0
M  V30 7547 N 693.229 0.160201 1.56784 0
M  V30 7548 C 694.159 -0.770264 2.2043 0
M  V30 7549 C 695.14 -1.24736 1.15651 0
M  V30 7550 O 696.325 -1.30253 1.44041 0
M  V30 7551 C 693.455 -2.00427 2.83631 0
M  V30 7552 C 692.409 -1.66345 3.94352 0
M  V30 7553 C 691.735 -2.97119 4.4455 0
M  V30 7554 C 693.035 -0.899972 5.14488 0
M  V30 7555 H 694.729 -0.239783 2.98438 0
M  V30 7556 H 692.275 -0.113891 1.43549 0
M  V30 7557 H 694.228 -2.66012 3.26827 0
M  V30 7558 H 692.952 -2.5587 2.02973 0
M  V30 7559 H 691.611 -1.03133 3.51794 0
M  V30 7560 H 691.259 -3.5058 3.60698 0
M  V30 7561 H 690.959 -2.75073 5.19238 0
M  V30 7562 H 692.483 -3.63753 4.90425 0
M  V30 7563 H 693.897 -1.45818 5.54446 0
M  V30 7564 H 692.294 -0.778968 5.95023 0
M  V30 7565 H 693.364 0.105827 4.84785 0
M  V30 7566 N 694.707 -1.5719 -0.113559 0
M  V30 7567 C 696.123 -1.52607 -0.467253 0
M  V30 7568 C 696.323 -0.874058 -1.81556 0
M  V30 7569 O 695.379 -0.458703 -2.48299 0
M  V30 7570 C 696.692 -2.97363 -0.446736 0
M  V30 7571 C 698.24 -3.08482 -0.529903 0
M  V30 7572 C 698.715 -4.54809 -0.539721 0
M  V30 7573 N 700.206 -4.59284 -0.601005 0
M  V30 7574 C 700.941 -5.69927 -0.630138 0
M  V30 7575 N 700.437 -6.90051 -0.616589 0
M  V30 7576 N 702.23 -5.5805 -0.673558 0
M  V30 7577 H 694.381 -1.97958 0.769819 0
M  V30 7578 H 696.644 -0.90428 0.284572 0
M  V30 7579 H 696.35 -3.48458 0.47643 0
M  V30 7580 H 696.224 -3.55086 -1.27254 0
M  V30 7581 H 698.611 -2.57386 -1.44349 0
M  V30 7582 H 698.692 -2.53744 0.323695 0
M  V30 7583 H 698.336 -5.06552 0.369843 0
M  V30 7584 H 698.266 -5.07364 -1.41028 0
M  V30 7585 H 700.757 -3.72822 -0.617419 0
M  V30 7586 H 701.07 -7.70132 -0.641592 0
M  V30 7587 H 699.415 -6.92543 -0.583927 0
M  V30 7588 H 702.606 -4.63112 -0.681544 0
M  V30 7589 H 702.779 -6.44286 -0.692794 0
M  V30 7590 N 696.185 0.383891 -1.52853 0
M  V30 7591 C 697.132 1.46924 -1.77995 0
M  V30 7592 C 698.102 1.53958 -0.623396 0
M  V30 7593 O 699.287 1.70134 -0.863657 0
M  V30 7594 C 696.427 2.84093 -1.95921 0
M  V30 7595 C 695.54 2.86171 -3.23621 0
M  V30 7596 C 694.675 4.14799 -3.31836 0
M  V30 7597 C 693.714 4.10948 -4.53639 0
M  V30 7598 N 692.851 5.31192 -4.59107 0
M  V30 7599 H 697.691 1.24786 -2.70615 0
M  V30 7600 H 695.228 0.605265 -1.34071 0
M  V30 7601 H 697.186 3.63755 -2.04299 0
M  V30 7602 H 695.816 3.04671 -1.06656 0
M  V30 7603 H 694.868 1.9885 -3.24288 0
M  V30 7604 H 696.18 2.79194 -4.13343 0
M  V30 7605 H 695.334 5.02867 -3.39425 0
M  V30 7606 H 694.073 4.24505 -2.40097 0
M  V30 7607 H 693.078 3.21268 -4.46169 0
M  V30 7608 H 694.303 4.0286 -5.467 0
M  V30 7609 H 692.249 5.41518 -3.70262 0
M  V30 7610 H 692.166 5.26311 -5.42708 0
M  V30 7611 H 693.434 6.21143 -4.70958 0
M  V30 7612 N 697.663 1.43903 0.642637 0
M  V30 7613 C 698.61 1.49881 1.75512 0
M  V30 7614 C 699.58 0.347538 1.62423 0
M  V30 7615 O 700.765 0.556177 1.82514 0
M  V30 7616 C 697.905 1.43797 3.13714 0
M  V30 7617 C 697.018 2.6921 3.37861 0
M  V30 7618 C 696.153 2.5504 4.6597 0
M  V30 7619 C 695.192 3.75671 4.83257 0
M  V30 7620 N 694.329 3.60247 6.02633 0
M  V30 7621 H 699.169 2.44935 1.69737 0
M  V30 7622 H 696.706 1.21572 0.828165 0
M  V30 7623 H 698.664 1.38262 3.93624 0
M  V30 7624 H 697.294 0.523173 3.18532 0
M  V30 7625 H 696.346 2.8498 2.51973 0
M  V30 7626 H 697.658 3.58786 3.46517 0
M  V30 7627 H 696.812 2.47273 5.54023 0
M  V30 7628 H 695.551 1.63006 4.59653 0
M  V30 7629 H 694.556 3.83836 3.93637 0
M  V30 7630 H 695.781 4.68728 4.91397 0
M  V30 7631 H 693.727 2.70955 5.97427 0
M  V30 7632 H 693.644 4.43431 6.12295 0
M  V30 7633 H 694.912 3.56351 6.93278 0
M  V30 7634 N 699.141 -0.881989 1.30609 0
M  V30 7635 C 700.071 -2.00413 1.1982 0
M  V30 7636 C 701.052 -1.69871 0.0881538 0
M  V30 7637 O 702.237 -1.92304 0.2707 0
M  V30 7638 C 699.367 -3.35641 0.89233 0
M  V30 7639 C 698.321 -3.80451 1.96064 0
M  V30 7640 C 697.647 -5.13003 1.5077 0
M  V30 7641 C 698.947 -3.98855 3.37213 0
M  V30 7642 H 700.641 -2.09698 2.13699 0
M  V30 7643 H 698.187 -1.00754 1.02882 0
M  V30 7644 H 700.14 -4.13669 0.803497 0
M  V30 7645 H 698.864 -3.26497 -0.0821381 0
M  V30 7646 H 697.523 -3.04654 2.03916 0
M  V30 7647 H 697.171 -5.0029 0.521417 0
M  V30 7648 H 696.871 -5.43956 2.22229 0
M  V30 7649 H 698.395 -5.93554 1.43271 0
M  V30 7650 H 699.809 -4.67312 3.32103 0
M  V30 7651 H 698.206 -4.41188 4.06784 0
M  V30 7652 H 699.276 -3.02614 3.78883 0
M  V30 7653 N 700.619 -1.13374 -1.09472 0
M  V30 7654 C 701.865 -0.896516 -1.81908 0
M  V30 7655 C 702.198 0.575933 -1.85463 0
M  V30 7656 O 701.473 1.42618 -1.32251 0
M  V30 7657 C 701.756 -1.48445 -3.28079 0
M  V30 7658 C 701.609 -3.02598 -3.32798 0
M  V30 7659 C 702.928 -1.15226 -4.24748 0
M  V30 7660 H 700.047 -0.327127 -0.660422 0
M  V30 7661 H 702.689 -1.40195 -1.2824 0
M  V30 7662 H 700.839 -1.0546 -3.73912 0
M  V30 7663 H 702.511 -3.54335 -2.95372 0
M  V30 7664 H 700.754 -3.37613 -2.72397 0
M  V30 7665 H 701.425 -3.38835 -4.3577 0
M  V30 7666 H 703.901 -1.52369 -3.87199 0
M  V30 7667 H 702.777 -1.59012 -5.25363 0
M  V30 7668 H 703.038 -0.0658891 -4.42051 0
M  V30 7669 N 702.098 1.27442 -0.927168 0
M  V30 7670 C 703.345 1.94391 -0.567324 0
M  V30 7671 C 703.673 1.72875 0.891321 0
M  V30 7672 O 702.928 1.05071 1.65102 0
M  V30 7673 C 703.227 3.47413 -0.838994 0
M  V30 7674 C 702.893 3.89049 -2.2793 0
M  V30 7675 C 701.555 4.00127 -2.67305 0
M  V30 7676 C 703.907 4.10154 -3.21595 0
M  V30 7677 C 701.235 4.29697 -3.99471 0
M  V30 7678 C 703.587 4.41208 -4.53341 0
M  V30 7679 C 702.251 4.50499 -4.92551 0
M  V30 7680 H 701.521 0.711325 -0.207598 0
M  V30 7681 H 704.168 1.51523 -1.17103 0
M  V30 7682 H 702.473 3.91503 -0.152609 0
M  V30 7683 H 704.17 3.97354 -0.53955 0
M  V30 7684 H 700.76 3.80962 -1.96381 0
M  V30 7685 H 704.944 4.01036 -2.92377 0
M  V30 7686 H 700.2 4.35099 -4.29533 0
M  V30 7687 H 704.374 4.56486 -5.25922 0
M  V30 7688 H 702.001 4.73167 -5.94994 0
M  V30 7689 N 703.576 0.692616 1.41565 0
M  V30 7690 C 704.987 0.297478 1.84315 0
M  V30 7691 C 705.338 -1.16379 1.57957 0
M  V30 7692 O 704.463 -1.89303 1.0485 0
M  V30 7693 C 705.058 0.533136 3.34579 0
M  V30 7694 C 703.617 0.191944 3.7591 0
M  V30 7695 C 702.764 0.816873 2.64995 0
M  V30 7696 H 705.715 0.893488 1.31158 0
M  V30 7697 H 705.736 -0.209105 3.79925 0
M  V30 7698 H 705.248 1.59674 3.53731 0
M  V30 7699 H 703.349 -0.867512 3.6236 0
M  V30 7700 H 703.462 0.644902 4.7474 0
M  V30 7701 H 701.826 0.246715 2.53502 0
M  V30 7702 H 702.609 1.88429 2.86966 0
M  V30 7703 N 705.054 -1.51416 0.437162 0
M  V30 7704 C 706.279 -2.0699 -0.130424 0
M  V30 7705 C 706.704 -1.30249 -1.35709 0
M  V30 7706 O 706.062 -0.340388 -1.78076 0
M  V30 7707 C 706.11 -3.5801 -0.43142 0
M  V30 7708 O 705.214 -3.8345 -1.5179 0
M  V30 7709 H 704.555 -0.663997 -0.00194339 0
M  V30 7710 H 707.085 -1.95029 0.618445 0
M  V30 7711 H 707.095 -4.02261 -0.681926 0
M  V30 7712 H 705.77 -4.13291 0.465137 0
M  V30 7713 H 704.347 -3.51062 -1.25737 0
M  V30 7714 N 706.532 -0.168513 -1.56696 0
M  V30 7715 C 707.809 0.523367 -1.88468 0
M  V30 7716 C 708.189 1.81503 -1.07796 0
M  V30 7717 O 707.537 2.27859 -0.171045 0
M  V30 7718 C 707.747 0.767991 -3.40445 0
M  V30 7719 C 709.095 1.09924 -4.10124 0
M  V30 7720 O 710.119 0.856625 -3.45746 0
M  V30 7721 O 708.978 1.55681 -5.23856 0
M  V30 7722 H 706.072 0.269447 -0.781874 0
M  V30 7723 H 708.618 -0.206739 -1.68436 0
M  V30 7724 H 707.39 -0.145254 -3.9103 0
M  V30 7725 H 707.013 1.55151 -3.66079 0
M  V30 7726 O 708.049 1.61471 -0.0305634 0
M  V30 7727 H 708.74 1.84756 0.581805 0
M  V30 END ATOM
M  V30 BEGIN BOND
M  V30 END BOND
M  V30 END CTAB
M  END
$$$$
