drugbank_target|P37231 Peroxisome proliferator-activated receptor gamma (DB00132; DB00159; DB00197; DB00244; DB00313; DB00328; DB00412; DB00573; DB00731; DB00795; DB00845; DB00912; DB00966; DB01014; DB01050; DB01067; DB01118; DB01132; DB01252; DB01393; DB02266; DB02709; DB02746; DB03600; DB03756; DB04224; DB04270; DB04689; DB04971; DB05187; DB05490; DB05854; DB06510; DB06521; DB06533; DB06536; DB06908; DB06926; DB07053; DB07111; DB07172; DB07208; DB07209; DB07302; DB07509; DB07675; DB07723; DB07724; DB07842; DB07863; DB08121; DB08302; DB08402; DB08435; DB08560; DB08604; DB08760; DB08915; DB09006; DB09061; DB09198; DB09201; DB09213; DB11133; DB11672; DB11811; DB12007; DB12662; DB13873; DB13961; DB14009; DB14011; DB14034; DB14635)
 OpenBabel12092119273D

  0  0  0     0  0            999 V3000
M  V30 BEGIN CTAB
M  V30 COUNTS 8082 8167 0 0 0
M  V30 BEGIN ATOM
M  V30 1 H -0.908 1.98254 -0.117106 0
M  V30 2 N 0 1.576 0 0
M  V30 3 C 0.933 2.03868 1.02534 0
M  V30 4 C 1.911 0.928543 1.3348 0
M  V30 5 O 3.095 1.19667 1.45644 0
M  V30 6 C 0.222 2.43627 2.35294 0
M  V30 7 C -0.732 3.65373 2.2001 0
M  V30 8 S 0.101 5.13292 1.52614 0
M  V30 9 C 1.257 5.56322 2.86805 0
M  V30 10 H 1.49 2.90518 0.631377 0
M  V30 11 H -0.977 1.52953 0.210867 0
M  V30 12 H 0.981 2.67203 3.11629 0
M  V30 13 H -0.358 1.57376 2.7183 0
M  V30 14 H -1.165 3.90944 3.18086 0
M  V30 15 H -1.563 3.418 1.51819 0
M  V30 16 H 0.729 5.58782 3.83104 0
M  V30 17 H 1.672 6.56266 2.65933 0
M  V30 18 H 2.08 4.83886 2.90714 0
M  V30 19 N 1.4781 -0.272755 1.55222 0
M  V30 20 C 2.7261 -1.00234 1.75492 0
M  V30 21 C 3.0471 -1.8681 0.5592 0
M  V30 22 O 2.3171 -1.91215 -0.425882 0
M  V30 23 H 0.8971 -0.373076 0.647166 0
M  V30 24 H 3.5591 -0.296926 1.92625 0
M  V30 25 H 2.6551 -1.63913 2.65592 0
M  V30 26 N 2.9562 -1.48159 -0.537278 0
M  V30 27 C 3.8662 -1.64807 -1.6696 0
M  V30 28 C 4.8822 -0.530651 -1.65711 0
M  V30 29 O 6.0582 -0.800784 -1.84796 0
M  V30 30 C 3.1232 -1.67708 -3.03438 0
M  V30 31 C 2.1842 -2.91025 -3.156 0
M  V30 32 C 1.4172 -2.93778 -4.45567 0
M  V30 33 O 1.6402 -2.05153 -5.3223 0
M  V30 34 O 0.5742 -3.85868 -4.61941 0
M  V30 35 H 4.4002 -2.6066 -1.55853 0
M  V30 36 H 1.9852 -1.31475 -0.709549 0
M  V30 37 H 3.8672 -1.7218 -3.84619 0
M  V30 38 H 2.5422 -0.750278 -3.14885 0
M  V30 39 H 1.4492 -2.92089 -2.33741 0
M  V30 40 H 2.7822 -3.83065 -3.09066 0
M  V30 41 N 4.4343 0.785586 -1.36625 0
M  V30 42 C 5.6623 1.57448 -1.3423 0
M  V30 43 C 6.0773 1.88649 0.0755653 0
M  V30 44 O 5.4343 1.50414 1.03354 0
M  V30 45 C 5.4853 2.89316 -2.16745 0
M  V30 46 O 5.2063 2.59459 -3.53005 0
M  V30 47 C 6.7073 3.83606 -2.22174 0
M  V30 48 H 3.9273 0.488226 -0.4603 0
M  V30 49 H 6.4713 0.974733 -1.79775 0
M  V30 50 H 4.6263 3.4575 -1.74745 0
M  V30 51 H 5.0403 3.43804 -3.96105 0
M  V30 52 H 6.5143 4.73181 -2.8426 0
M  V30 53 H 6.9913 4.21734 -1.22627 0
M  V30 54 H 7.5973 3.33104 -2.64427 0
M  V30 55 N 5.9124 1.20967 1.01018 0
M  V30 56 C 6.8424 0.988272 2.11555 0
M  V30 57 C 7.8234 -0.0849778 1.69888 0
M  V30 58 O 9.0084 0.0738202 1.9406 0
M  V30 59 C 6.1384 0.546528 3.42973 0
M  V30 60 C 5.0924 1.56375 3.9841 0
M  V30 61 C 4.4184 0.97842 5.25672 0
M  V30 62 C 5.7184 2.94922 4.31066 0
M  V30 63 H 7.4124 1.91276 2.30334 0
M  V30 64 H 4.9584 0.921073 1.1069 0
M  V30 65 H 6.9114 0.378839 4.19694 0
M  V30 66 H 5.6354 -0.413598 3.23971 0
M  V30 67 H 4.2944 1.71891 3.23804 0
M  V30 68 H 3.9424 0.0101688 5.02999 0
M  V30 69 H 3.6424 1.65784 5.63728 0
M  V30 70 H 5.1664 0.821939 6.05043 0
M  V30 71 H 6.5804 2.8288 4.9865 0
M  V30 72 H 4.9774 3.5983 4.80253 0
M  V30 73 H 6.0474 3.4616 3.39561 0
M  V30 74 N 7.3905 -1.2043 1.01659 0
M  V30 75 C 8.6385 -1.89423 0.704522 0
M  V30 76 C 8.9595 -1.79231 -0.768197 0
M  V30 77 O 8.2295 -1.1947 -1.55254 0
M  V30 78 H 6.8095 -0.701178 0.257602 0
M  V30 79 H 9.4715 -1.4626 1.28818 0
M  V30 80 H 8.5675 -2.96052 0.987916 0
M  V30 81 N 8.8686 -0.792821 -1.36206 0
M  V30 82 C 10.1456 -0.290627 -1.93429 0
M  V30 83 C 10.5256 1.21773 -1.72437 0
M  V30 84 O 9.8736 2.0108 -1.08531 0
M  V30 85 C 10.0836 -0.686973 -3.42172 0
M  V30 86 C 11.4316 -0.668643 -4.19302 0
M  V30 87 O 12.4556 -0.627658 -3.50626 0
M  V30 88 O 11.3146 -0.714597 -5.41808 0
M  V30 89 H 8.4086 -0.0727927 -0.82379 0
M  V30 90 H 10.9546 -0.875593 -1.45367 0
M  V30 91 H 9.7266 -1.72711 -3.51122 0
M  V30 92 H 9.3496 -0.0760733 -3.97527 0
M  V30 93 N 10.3467 1.47872 -0.545128 0
M  V30 94 C 11.5717 2.07391 -0.0190611 0
M  V30 95 C 11.9967 1.39688 1.25971 0
M  V30 96 O 11.3547 0.467816 1.7516 0
M  V30 97 C 11.4027 3.60188 0.172335 0
M  V30 98 O 10.5067 3.9339 1.23766 0
M  V30 99 H 9.8477 0.662411 -0.0459059 0
M  V30 100 H 12.3777 1.90066 -0.757365 0
M  V30 101 H 12.3877 4.06129 0.390305 0
M  V30 102 H 11.0627 4.08865 -0.761725 0
M  V30 103 H 9.6397 3.5921 1.00114 0
M  V30 104 N 11.8248 0.280983 1.55075 0
M  V30 105 C 13.2358 -0.215629 1.85451 0
M  V30 106 C 13.5868 -1.54991 1.203 0
M  V30 107 O 12.7118 -2.10699 0.493435 0
M  V30 108 C 13.3068 -0.398026 3.36454 0
M  V30 109 C 11.8658 -0.838866 3.66933 0
M  V30 110 C 11.0128 0.064458 2.77225 0
M  V30 111 H 13.9638 0.502601 1.50531 0
M  V30 112 H 13.9848 -1.23569 3.59876 0
M  V30 113 H 13.4968 0.573241 3.83843 0
M  V30 114 H 11.5978 -1.8214 3.25048 0
M  V30 115 H 11.7108 -0.672123 4.74362 0
M  V30 116 H 10.0748 -0.452863 2.50642 0
M  V30 117 H 10.8578 1.03172 3.2743 0
M  V30 118 N 13.3029 -1.57598 0.00835791 0
M  V30 119 C 14.5519 -1.90107 -0.673968 0
M  V30 120 C 14.8649 -0.884275 -1.7447 0
M  V30 121 O 16.0709 -1.09987 -2.48224 0
M  V30 122 C 14.5269 -3.37497 -1.24995 0
M  V30 123 C 14.1349 -4.47491 -0.2136 0
M  V30 124 C 15.8789 -3.79104 -1.90999 0
M  V30 125 C 13.7859 -5.85963 -0.80005 0
M  V30 126 H 12.7159 -0.709393 -0.255495 0
M  V30 127 H 15.3669 -1.83365 0.0702693 0
M  V30 128 H 13.7489 -3.39102 -2.04513 0
M  V30 129 H 14.9229 -4.57414 0.557596 0
M  V30 130 H 13.2379 -4.14956 0.346474 0
M  V30 131 H 15.8349 -4.79901 -2.35795 0
M  V30 132 H 16.1779 -3.1306 -2.74407 0
M  V30 133 H 16.7109 -3.79833 -1.18203 0
M  V30 134 H 13.4499 -6.555 -0.00456708 0
M  V30 135 H 12.9699 -5.79687 -1.54021 0
M  V30 136 H 14.6489 -6.33884 -1.29615 0
M  V30 137 N 14.781 0.264519 -1.55364 0
M  V30 138 C 16.058 1.01677 -1.67096 0
M  V30 139 C 16.438 2.03996 -0.543015 0
M  V30 140 O 15.786 2.23907 0.45585 0
M  V30 141 C 15.996 1.66596 -3.0667 0
M  V30 142 C 17.344 2.17442 -3.64697 0
M  V30 143 O 18.368 1.76568 -3.09358 0
M  V30 144 O 17.227 2.92439 -4.61673 0
M  V30 145 H 14.321 0.472161 -0.678965 0
M  V30 146 H 16.867 0.259703 -1.67701 0
M  V30 147 H 15.639 0.924962 -3.80211 0
M  V30 148 H 15.262 2.48968 -3.10001 0
M  V30 149 N 16.2591 1.48442 0.529413 0
M  V30 150 C 17.6701 1.5002 1.11134 0
M  V30 151 C 18.0211 0.27031 1.94329 0
M  V30 152 O 17.1461 -0.622507 2.07253 0
M  V30 153 C 17.7411 2.71834 2.02217 0
M  V30 154 C 16.3001 2.76283 2.55627 0
M  V30 155 C 15.4471 2.43542 1.326 0
M  V30 156 H 18.3981 1.5555 0.314641 0
M  V30 157 H 18.4191 2.50384 2.8651 0
M  V30 158 H 17.9311 3.61331 1.41639 0
M  V30 159 H 16.0321 1.90995 3.19924 0
M  V30 160 H 16.1451 3.77725 2.94721 0
M  V30 161 H 14.5091 1.94709 1.64196 0
M  V30 162 H 15.2921 3.3528 0.737734 0
M  V30 163 N 17.7372 -0.778329 1.37039 0
M  V30 164 C 18.6472 -1.92253 1.34446 0
M  V30 165 C 19.6632 -1.72267 0.244991 0
M  V30 166 O 20.8392 -1.95615 0.479258 0
M  V30 167 C 17.9042 -3.27282 1.144 0
M  V30 168 C 16.9652 -3.59969 2.33925 0
M  V30 169 C 16.1982 -4.88555 2.14825 0
M  V30 170 O 16.4212 -5.59113 1.12912 0
M  V30 171 O 15.3552 -5.20153 3.02861 0
M  V30 172 H 19.1812 -1.97392 2.30803 0
M  V30 173 H 16.7662 -0.920154 1.17701 0
M  V30 174 H 18.6482 -4.08062 1.05182 0
M  V30 175 H 17.3232 -3.23011 0.211124 0
M  V30 176 H 16.2302 -2.7945 2.48714 0
M  V30 177 H 17.5632 -3.68976 3.25757 0
M  V30 178 N 19.2153 -1.21501 -1.00376 0
M  V30 179 C 20.4403 -1.05977 -1.78279 0
M  V30 180 C 20.8653 0.385994 -1.84097 0
M  V30 181 O 20.2233 1.27849 -1.28547 0
M  V30 182 C 20.2713 -1.66302 -3.19963 0
M  V30 183 O 19.3753 -0.909333 -4.0225 0
M  V30 184 H 18.7163 -0.372906 -0.549397 0
M  V30 185 H 21.2463 -1.6107 -1.26165 0
M  V30 186 H 21.2563 -1.70574 -3.70632 0
M  V30 187 H 19.9313 -2.71515 -3.15043 0
M  V30 188 H 18.5083 -0.941795 -3.60811 0
M  V30 189 N 20.6934 1.19889 -1.02296 0
M  V30 190 C 21.9704 1.85148 -0.630832 0
M  V30 191 C 22.3504 1.91385 0.890782 0
M  V30 192 O 21.6984 1.42642 1.78509 0
M  V30 193 C 21.9084 3.24442 -1.28602 0
M  V30 194 C 23.2564 4.00663 -1.4055 0
M  V30 195 O 24.2804 3.33818 -1.24273 0
M  V30 196 O 23.1394 5.20387 -1.66913 0
M  V30 197 H 20.2334 0.797613 -0.218499 0
M  V30 198 H 22.7794 1.27427 -1.12074 0
M  V30 199 H 21.5514 3.14704 -2.32545 0
M  V30 200 H 21.1744 3.89802 -0.7836 0
M  V30 201 N 22.1715 0.800033 1.35784 0
M  V30 202 C 23.3965 0.388511 2.03729 0
M  V30 203 C 23.8215 -0.990481 1.5991 0
M  V30 204 O 23.1795 -1.64013 0.772612 0
M  V30 205 C 23.2275 0.4726 3.5749 0
M  V30 206 O 22.3315 -0.51646 4.09153 0
M  V30 207 H 21.6725 0.163271 0.643614 0
M  V30 208 H 24.2025 1.0841 1.73518 0
M  V30 209 H 24.2125 0.34003 4.06581 0
M  V30 210 H 22.8875 1.47848 3.88734 0
M  V30 211 H 21.4645 -0.344673 3.71304 0
M  V30 212 N 23.6496 -1.47581 0.552962 0
M  V30 213 C 24.8966 -2.02482 0.0273243 0
M  V30 214 C 25.2246 -1.42776 -1.32081 0
M  V30 215 O 24.4796 -0.571393 -1.87173 0
M  V30 216 C 24.7786 -3.57199 -0.119728 0
M  V30 217 C 24.4446 -4.35804 1.15697 0
M  V30 218 C 23.1066 -4.57 1.50681 0
M  V30 219 C 25.4586 -4.81167 2.00319 0
M  V30 220 C 22.7866 -5.20807 2.70142 0
M  V30 221 C 25.1386 -5.46293 3.18978 0
M  V30 222 C 23.8026 -5.65722 3.54281 0
M  V30 223 H 23.0726 -0.740933 0.00999866 0
M  V30 224 H 25.7196 -1.77302 0.72362 0
M  V30 225 H 24.0246 -3.81348 -0.89896 0
M  V30 226 H 25.7216 -3.97324 -0.541718 0
M  V30 227 H 22.3116 -4.19582 0.874561 0
M  V30 228 H 26.4956 -4.64574 1.74599 0
M  V30 229 H 21.7516 -5.34045 2.97668 0
M  V30 230 H 25.9256 -5.80407 3.84838 0
M  V30 231 H 23.5526 -6.14936 4.46942 0
M  V30 232 N 25.1277 -0.289203 -1.54924 0
M  V30 233 C 26.3557 0.326463 -2.04308 0
M  V30 234 C 26.7707 1.48413 -1.16701 0
M  V30 235 O 26.1277 1.81507 -0.190087 0
M  V30 236 C 26.1787 0.794014 -3.52672 0
M  V30 237 O 25.8997 -0.317564 -4.36948 0
M  V30 238 C 27.4007 1.47605 -4.18004 0
M  V30 239 H 24.6207 0.0726272 -0.667058 0
M  V30 240 H 27.1647 -0.425401 -2.00026 0
M  V30 241 H 25.3197 1.49593 -3.57352 0
M  V30 242 H 25.7337 0.0443186 -5.24481 0
M  V30 243 H 27.2077 1.75447 -5.23376 0
M  V30 244 H 27.6847 2.41224 -3.67025 0
M  V30 245 H 28.2907 0.81762 -4.17367 0
M  V30 246 N 26.6058 1.57591 -0.0167156 0
M  V30 247 C 27.8828 1.82547 0.702564 0
M  V30 248 C 28.2628 0.898018 1.91047 0
M  V30 249 O 27.6108 -0.0493456 2.28447 0
M  V30 250 C 27.8208 3.31459 1.09251 0
M  V30 251 C 29.1688 3.97622 1.48937 0
M  V30 252 O 30.1928 3.35881 1.18584 0
M  V30 253 O 29.0518 5.06415 2.05442 0
M  V30 254 H 26.1458 0.752268 0.343544 0
M  V30 255 H 28.6918 1.69644 -0.0434495 0
M  V30 256 H 27.4638 3.9061 0.23227 0
M  V30 257 H 27.0868 3.49422 1.89709 0
M  V30 258 N 28.0839 -0.256276 1.55502 0
M  V30 259 C 29.3119 -1.00342 1.8094 0
M  V30 260 C 29.7269 -1.79307 0.59114 0
M  V30 261 O 29.0839 -1.77114 -0.440081 0
M  V30 262 C 29.1349 -1.94875 3.04476 0
M  V30 263 O 28.8559 -1.19107 4.21598 0
M  V30 264 C 30.3569 -2.81266 3.42644 0
M  V30 265 H 27.5769 -0.295685 0.602338 0
M  V30 266 H 30.1209 -0.281998 2.02546 0
M  V30 267 H 28.2759 -2.62457 2.84947 0
M  V30 268 H 28.6899 -1.82969 4.91551 0
M  V30 269 H 30.1639 -3.43362 4.32211 0
M  V30 270 H 30.6409 -3.51897 2.62802 0
M  V30 271 H 31.2469 -2.1915 3.64491 0
M  V30 272 N 29.562 -1.4872 -0.521534 0
M  V30 273 C 30.492 -1.66771 -1.63431 0
M  V30 274 C 31.473 -0.516499 -1.62069 0
M  V30 275 O 32.658 -0.750013 -1.79132 0
M  V30 276 C 29.788 -1.71515 -3.01993 0
M  V30 277 C 28.742 -2.86222 -3.18216 0
M  V30 278 C 28.068 -2.76061 -4.57924 0
M  V30 279 C 29.368 -4.27419 -3.00184 0
M  V30 280 H 31.062 -2.59932 -1.48579 0
M  V30 281 H 28.608 -1.25089 -0.713358 0
M  V30 282 H 30.561 -1.82731 -3.7972 0
M  V30 283 H 29.285 -0.749393 -3.17886 0
M  V30 284 H 27.944 -2.74575 -2.42908 0
M  V30 285 H 27.592 -1.77437 -4.70665 0
M  V30 286 H 27.292 -3.53037 -4.69722 0
M  V30 287 H 28.816 -2.89256 -5.37739 0
M  V30 288 H 30.23 -4.39855 -3.67697 0
M  V30 289 H 28.627 -5.05458 -3.2347 0
M  V30 290 H 29.697 -4.43293 -1.96518 0
M  V30 291 N 31.0401 0.771051 -1.3745 0
M  V30 292 C 32.2651 1.56529 -1.36065 0
M  V30 293 C 32.6901 1.88029 0.0515859 0
M  V30 294 O 32.0481 1.49282 1.02882 0
M  V30 295 C 32.0961 2.85187 -2.20683 0
M  V30 296 O 31.2001 3.79593 -1.61193 0
M  V30 297 H 30.5411 0.47411 -0.464883 0
M  V30 298 H 33.0711 0.954269 -1.80983 0
M  V30 299 H 33.0811 3.34283 -2.33921 0
M  V30 300 H 31.7561 2.61588 -3.23334 0
M  V30 301 H 30.3331 3.38239 -1.56999 0
M  V30 302 N 32.5182 1.22032 0.997298 0
M  V30 303 C 33.4812 0.987909 2.06816 0
M  V30 304 C 34.4812 -0.0440084 1.6074 0
M  V30 305 O 35.6712 0.194053 1.73116 0
M  V30 306 C 32.8032 0.49132 3.37341 0
M  V30 307 H 33.9962 1.93803 2.28868 0
M  V30 308 H 31.5492 1.03838 1.16822 0
M  V30 309 H 32.2842 -0.463364 3.20973 0
M  V30 310 H 32.0692 1.23575 3.72118 0
M  V30 311 H 33.5592 0.348824 4.16141 0
M  V30 312 N 33.9963 -1.19345 1.0293 0
M  V30 313 C 34.9443 -2.24621 0.604001 0
M  V30 314 C 35.9383 -1.65452 -0.363587 0
M  V30 315 O 37.1443 -1.78497 -0.23212 0
M  V30 316 H 33.5193 -0.730858 0.177061 0
M  V30 317 H 35.4903 -2.5781 1.50255 0
M  V30 318 C 34.2393 -3.47688 -0.0289127 0
M  V30 319 H 33.5623 -3.93505 0.706651 0
M  V30 320 H 35.0023 -4.23011 -0.289432 0
M  V30 321 C 33.4613 -3.11817 -1.2756 0
M  V30 322 O 33.9913 -3.2451 -2.36762 0
M  V30 323 N 32.1973 -2.66246 -1.16453 0
M  V30 324 H 31.7443 -2.56118 -0.275914 0
M  V30 325 H 31.7023 -2.42617 -1.99961 0
M  V30 326 N 35.4744 -0.807222 -1.35358 0
M  V30 327 C 36.7234 -0.384376 -1.98004 0
M  V30 328 C 37.0364 1.0543 -1.64754 0
M  V30 329 O 38.2424 1.58029 -2.20769 0
M  V30 330 C 36.6984 -0.636326 -3.5423 0
M  V30 331 C 36.3064 -2.08759 -3.96388 0
M  V30 332 C 38.0504 -0.278869 -4.23583 0
M  V30 333 C 35.9574 -2.28525 -5.45463 0
M  V30 334 H 34.8874 -0.139986 -0.740891 0
M  V30 335 H 37.5384 -0.991369 -1.54415 0
M  V30 336 H 35.9204 0.0406256 -3.95979 0
M  V30 337 H 37.0944 -2.8024 -3.6579 0
M  V30 338 H 35.4094 -2.40497 -3.39926 0
M  V30 339 H 38.0064 -0.404599 -5.33167 0
M  V30 340 H 38.3494 0.775012 -4.09022 0
M  V30 341 H 38.8824 -0.909764 -3.87257 0
M  V30 342 H 35.6214 -3.32361 -5.64992 0
M  V30 343 H 35.1414 -1.61569 -5.77629 0
M  V30 344 H 36.8204 -2.10109 -6.11934 0
M  V30 345 N 36.9525 1.47285 -0.560781 0
M  V30 346 C 38.1775 2.07359 -0.0410566 0
M  V30 347 C 38.6025 1.41017 1.24483 0
M  V30 348 O 37.9605 0.486368 1.74654 0
M  V30 349 C 38.0085 3.6035 0.134123 0
M  V30 350 O 37.1125 3.94681 1.19587 0
M  V30 351 H 36.4535 0.661887 -0.0529291 0
M  V30 352 H 38.9835 1.89252 -0.777482 0
M  V30 353 H 38.9935 4.0652 0.347207 0
M  V30 354 H 37.6685 4.08034 -0.805047 0
M  V30 355 H 36.2455 3.60251 0.962987 0
M  V30 356 N 38.4306 0.297415 1.54768 0
M  V30 357 C 39.3626 -0.613881 2.20826 0
M  V30 358 C 40.3756 -1.10032 1.19987 0
M  V30 359 O 41.5646 -1.01839 1.46598 0
M  V30 360 C 38.6646 -1.852 2.83821 0
M  V30 361 C 37.8376 -1.50865 4.10559 0
M  V30 362 C 36.8966 -2.60154 4.57391 0
M  V30 363 O 35.9226 -2.25398 5.2267 0
M  V30 364 N 37.1246 -3.90629 4.29406 0
M  V30 365 H 39.8896 -0.048389 2.99661 0
M  V30 366 H 37.4506 0.11946 1.61459 0
M  V30 367 H 39.4426 -2.57652 3.12086 0
M  V30 368 H 38.0126 -2.32597 2.08847 0
M  V30 369 H 37.2326 -0.616925 3.89343 0
M  V30 370 H 38.5206 -1.25458 4.9309 0
M  V30 371 H 37.9186 -4.21677 3.77101 0
M  V30 372 H 36.4756 -4.59391 4.62388 0
M  V30 373 N 39.9087 -1.5758 0.0250728 0
M  V30 374 C 40.8187 -2.1343 -0.973905 0
M  V30 375 C 41.8347 -1.08556 -1.35984 0
M  V30 376 O 43.0107 -1.40592 -1.44207 0
M  V30 377 C 40.0757 -2.64703 -2.23904 0
M  V30 378 C 39.1367 -3.84276 -1.91391 0
M  V30 379 C 38.3697 -4.33095 -3.11873 0
M  V30 380 O 38.5927 -3.81107 -4.24398 0
M  V30 381 O 37.5267 -5.24984 -2.94406 0
M  V30 382 H 41.3527 -2.99057 -0.529036 0
M  V30 383 H 38.9377 -1.48118 -0.195288 0
M  V30 384 H 40.8197 -2.97769 -2.98181 0
M  V30 385 H 39.4947 -1.82161 -2.6758 0
M  V30 386 H 38.4017 -3.56143 -1.14511 0
M  V30 387 H 39.7347 -4.67968 -1.52534 0
M  V30 388 N 41.3868 0.248026 -1.55636 0
M  V30 389 C 42.3198 1.3334 -1.85191 0
M  V30 390 C 43.2978 1.46429 -0.706906 0
M  V30 391 O 44.4818 1.62662 -0.952544 0
M  V30 392 C 41.6088 2.70703 -2.03562 0
M  V30 393 C 40.6548 2.7477 -3.26196 0
M  V30 394 S 41.4878 2.31493 -4.82878 0
M  V30 395 C 42.6438 3.70783 -5.04253 0
M  V30 396 H 42.8768 1.08072 -2.76962 0
M  V30 397 H 40.4098 0.448952 -1.47729 0
M  V30 398 H 42.3678 3.49798 -2.1483 0
M  V30 399 H 41.0288 2.9321 -1.12635 0
M  V30 400 H 40.2218 3.75648 -3.36013 0
M  V30 401 H 39.8238 2.03719 -3.13647 0
M  V30 402 H 42.1158 4.6627 -4.91527 0
M  V30 403 H 43.0588 3.65901 -6.06236 0
M  V30 404 H 43.4668 3.63244 -4.32105 0
M  V30 405 N 42.8649 1.48995 0.513639 0
M  V30 406 C 44.0929 1.61531 1.29288 0
M  V30 407 C 44.5079 0.281801 1.86685 0
M  V30 408 O 43.8649 -0.731111 1.67215 0
M  V30 409 C 43.9159 2.67449 2.43215 0
M  V30 410 O 43.6369 3.95626 1.88179 0
M  V30 411 C 45.1379 2.90575 3.34785 0
M  V30 412 H 42.3579 0.544165 0.392588 0
M  V30 413 H 44.9019 1.9494 0.617956 0
M  V30 414 H 43.0569 2.36853 3.0656 0
M  V30 415 H 43.4709 4.53868 2.62876 0
M  V30 416 H 44.9449 3.68449 4.11035 0
M  V30 417 H 45.4219 2.00011 3.91015 0
M  V30 418 H 46.0279 3.22538 2.77218 0
M  V30 419 N 44.343 -0.763751 1.37857 0
M  V30 420 C 45.276 -1.88486 1.28639 0
M  V30 421 C 46.254 -1.61757 0.165363 0
M  V30 422 O 47.438 -1.85391 0.340948 0
M  V30 423 C 44.565 -3.23884 0.990811 0
M  V30 424 C 43.611 -3.69514 2.12983 0
M  V30 425 S 44.444 -3.82244 3.75033 0
M  V30 426 C 45.6 -5.20477 3.47641 0
M  V30 427 H 45.833 -1.96017 2.23527 0
M  V30 428 H 43.366 -0.925684 1.23574 0
M  V30 429 H 45.324 -4.02081 0.827101 0
M  V30 430 H 43.985 -3.14044 0.0592832 0
M  V30 431 H 43.178 -4.67696 1.87821 0
M  V30 432 H 42.78 -2.98441 2.25408 0
M  V30 433 H 45.072 -6.05905 3.03125 0
M  V30 434 H 46.015 -5.50655 4.4518 0
M  V30 435 H 46.423 -4.88793 2.82385 0
M  V30 436 N 45.8211 -1.22559 -0.990812 0
M  V30 437 C 47.0671 -1.05297 -1.73322 0
M  V30 438 C 47.4001 0.410655 -1.89808 0
M  V30 439 O 46.6751 1.30439 -1.44277 0
M  V30 440 C 46.9581 -1.76713 -3.13759 0
M  V30 441 C 46.8111 -3.30684 -3.04907 0
M  V30 442 C 48.1301 -1.52121 -4.12974 0
M  V30 443 H 45.2491 -0.38392 -0.629106 0
M  V30 444 H 47.8911 -1.50926 -1.15418 0
M  V30 445 H 46.0411 -1.37924 -3.63193 0
M  V30 446 H 47.7131 -3.7893 -2.63077 0
M  V30 447 H 45.9561 -3.60253 -2.41661 0
M  V30 448 H 46.6271 -3.75833 -4.04294 0
M  V30 449 H 49.1031 -1.85819 -3.72304 0
M  V30 450 H 47.9791 -2.04582 -5.0935 0
M  V30 451 H 48.2401 -0.454257 -4.3976 0
M  V30 452 N 47.2992 1.18797 -1.03562 0
M  V30 453 C 48.5762 1.84469 -0.650434 0
M  V30 454 C 48.9562 1.92319 0.870433 0
M  V30 455 O 48.3042 1.44528 1.76986 0
M  V30 456 C 48.5142 3.2306 -1.32036 0
M  V30 457 C 49.8622 3.9915 -1.44792 0
M  V30 458 O 50.8862 3.32481 -1.27806 0
M  V30 459 O 49.7452 5.18587 -1.72423 0
M  V30 460 H 46.8392 0.795251 -0.226946 0
M  V30 461 H 49.3852 1.26231 -1.13419 0
M  V30 462 H 48.1572 3.1222 -2.3587 0
M  V30 463 H 47.7802 3.88949 -0.8249 0
M  V30 464 N 48.7773 0.814389 1.34928 0
M  V30 465 C 50.0053 0.411136 2.02774 0
M  V30 466 C 50.4203 -0.980316 1.61354 0
M  V30 467 O 49.7773 -1.63299 0.814847 0
M  V30 468 C 49.8283 0.493865 3.58111 0
M  V30 469 O 49.5493 1.83047 3.98027 0
M  V30 470 C 51.0503 0.0844174 4.4322 0
M  V30 471 H 48.2703 0.166037 0.650133 0
M  V30 472 H 50.8143 1.10018 1.72384 0
M  V30 473 H 48.9693 -0.147006 3.87121 0
M  V30 474 H 49.3833 1.79872 4.92693 0
M  V30 475 H 50.8573 0.193404 5.51661 0
M  V30 476 H 51.3343 -0.97113 4.28329 0
M  V30 477 H 51.9403 0.69875 4.19521 0
M  V30 478 N 50.2554 -1.46986 0.568584 0
M  V30 479 C 51.1654 -2.33942 -0.17555 0
M  V30 480 C 52.1814 -1.48891 -0.90041 0
M  V30 481 O 53.3574 -1.81794 -0.86676 0
M  V30 482 C 50.4224 -3.25811 -1.18524 0
M  V30 483 C 49.4834 -4.26757 -0.466582 0
M  V30 484 C 48.7164 -5.14236 -1.42817 0
M  V30 485 O 48.9394 -5.04379 -2.66379 0
M  V30 486 O 47.8734 -5.94412 -0.946453 0
M  V30 487 H 51.6994 -2.98896 0.538036 0
M  V30 488 H 49.2844 -1.4573 0.329097 0
M  V30 489 H 51.1664 -3.82527 -1.76779 0
M  V30 490 H 49.8414 -2.63471 -1.88055 0
M  V30 491 H 48.7484 -3.73769 0.157451 0
M  V30 492 H 50.0814 -4.91843 0.187485 0
M  V30 493 N 51.7335 -0.305618 -1.54608 0
M  V30 494 C 52.6665 0.610536 -2.19881 0
M  V30 495 C 53.6445 1.1294 -1.16976 0
M  V30 496 O 54.8285 1.19673 -1.45638 0
M  V30 497 C 51.9555 1.83583 -2.84631 0
M  V30 498 C 51.0015 1.4498 -4.01102 0
M  V30 499 S 51.8345 0.501793 -5.33144 0
M  V30 500 C 52.9905 1.73478 -6.01379 0
M  V30 501 H 53.2235 0.0560177 -2.97247 0
M  V30 502 H 50.7565 -0.0897434 -1.54139 0
M  V30 503 H 52.7145 2.53898 -3.22562 0
M  V30 504 H 51.3755 2.36152 -2.07102 0
M  V30 505 H 50.5685 2.36236 -4.45206 0
M  V30 506 H 50.1705 0.826553 -3.64752 0
M  V30 507 H 52.4625 2.67473 -6.22467 0
M  V30 508 H 53.4055 1.33622 -6.95378 0
M  V30 509 H 53.8135 1.9136 -5.31076 0
M  V30 510 N 53.2116 1.57565 -0.0334293 0
M  V30 511 C 54.6226 1.79746 0.504798 0
M  V30 512 C 54.9736 0.944091 1.71992 0
M  V30 513 O 54.0986 0.155694 2.15839 0
M  V30 514 C 54.6936 3.25997 0.922567 0
M  V30 515 C 53.2526 3.49159 1.40588 0
M  V30 516 C 52.3996 2.74785 0.372633 0
M  V30 517 H 55.3506 1.56565 -0.259436 0
M  V30 518 H 55.3716 3.35945 1.78666 0
M  V30 519 H 54.8836 3.88081 0.0379825 0
M  V30 520 H 52.9846 2.92332 2.31025 0
M  V30 521 H 53.0976 4.57873 1.41028 0
M  V30 522 H 51.4616 2.40391 0.841672 0
M  V30 523 H 52.2446 3.39587 -0.503559 0
M  V30 524 N 54.6897 -0.239769 1.55765 0
M  V30 525 C 55.9367 -0.966801 1.7793 0
M  V30 526 C 56.2647 -1.85046 0.599015 0
M  V30 527 O 55.5197 -1.91197 -0.417395 0
M  V30 528 C 55.8187 -1.852 3.05672 0
M  V30 529 C 55.4847 -1.1231 4.36689 0
M  V30 530 C 54.1467 -0.921689 4.72291 0
M  V30 531 C 56.4987 -0.607019 5.17653 0
M  V30 532 C 53.8267 -0.191996 5.86386 0
M  V30 533 C 56.1787 0.109241 6.32506 0
M  V30 534 C 54.8427 0.322073 6.66723 0
M  V30 535 H 54.1127 -0.353778 0.651093 0
M  V30 536 H 56.7597 -0.23634 1.90036 0
M  V30 537 H 55.0647 -2.64975 2.8861 0
M  V30 538 H 56.7617 -2.41635 3.20021 0
M  V30 539 H 53.3517 -1.29004 4.08725 0
M  V30 540 H 57.5357 -0.750153 4.90598 0
M  V30 541 H 52.7917 -0.0166949 6.11398 0
M  V30 542 H 56.9657 0.516737 6.9448 0
M  V30 543 H 54.5927 0.88944 7.54979 0
M  V30 544 N 56.1678 -1.49265 -0.50573 0
M  V30 545 C 57.4138 -1.59723 -1.25937 0
M  V30 546 C 57.7688 -0.278236 -1.90378 0
M  V30 547 O 57.0618 0.72113 -1.77511 0
M  V30 548 C 57.2558 -2.69008 -2.35308 0
M  V30 549 C 57.0848 -4.11405 -1.81592 0
M  V30 550 C 55.8548 -4.78252 -1.63105 0
M  V30 551 C 58.0528 -4.96792 -1.33048 0
M  V30 552 N 56.0348 -6.0498 -1.04269 0
M  V30 553 C 57.4058 -6.13962 -0.863168 0
M  V30 554 C 59.4608 -4.82828 -1.21577 0
M  V30 555 C 58.1638 -7.18705 -0.292489 0
M  V30 556 C 60.1898 -5.87716 -0.65907 0
M  V30 557 C 59.5518 -7.0411 -0.201954 0
M  V30 558 H 55.6508 -0.638864 -0.450973 0
M  V30 559 H 58.2348 -1.86251 -0.567326 0
M  V30 560 H 56.4058 -2.4426 -3.01979 0
M  V30 561 H 58.1378 -2.69013 -3.02348 0
M  V30 562 H 54.8928 -4.34974 -1.87336 0
M  V30 563 H 55.3168 -6.72631 -0.767919 0
M  V30 564 H 59.9588 -3.93159 -1.55518 0
M  V30 565 H 57.6768 -8.08078 0.0591987 0
M  V30 566 H 61.2628 -5.7897 -0.573156 0
M  V30 567 H 60.1428 -7.83885 0.222101 0
M  V30 568 N 57.6459 0.756429 -1.3826 0
M  V30 569 C 59.0569 1.33359 -1.30661 0
M  V30 570 C 59.4079 1.96161 0.0388875 0
M  V30 571 O 58.5329 1.94874 0.940918 0
M  V30 572 C 59.1279 2.42477 -2.36622 0
M  V30 573 C 57.6869 2.95922 -2.3261 0
M  V30 574 C 56.8339 1.69275 -2.19639 0
M  V30 575 H 59.7849 0.55552 -1.4866 0
M  V30 576 H 59.8059 3.22345 -2.02174 0
M  V30 577 H 59.3179 1.96739 -3.34538 0
M  V30 578 H 57.4189 3.45996 -1.38267 0
M  V30 579 H 57.5319 3.50494 -3.26636 0
M  V30 580 H 55.8959 1.92793 -1.66442 0
M  V30 581 H 56.6789 1.25619 -3.19491 0
M  V30 582 N 59.124 1.23083 0.984299 0
M  V30 583 C 60.352 1.08714 1.76037 0
M  V30 584 C 60.767 -0.361691 1.85303 0
M  V30 585 O 60.124 -1.25034 1.32939 0
M  V30 586 C 60.175 1.70206 3.18923 0
M  V30 587 O 59.896 3.09423 3.10144 0
M  V30 588 C 61.397 1.61227 4.12941 0
M  V30 589 H 58.617 0.380664 0.552572 0
M  V30 590 H 61.161 1.62853 1.23689 0
M  V30 591 H 59.316 1.20109 3.6831 0
M  V30 592 H 59.73 3.39188 4.00065 0
M  V30 593 H 61.204 2.08962 5.10919 0
M  V30 594 H 61.681 0.570375 4.35481 0
M  V30 595 H 62.287 2.10671 3.69456 0
M  V30 596 N 60.6021 -1.18246 1.0419 0
M  V30 597 C 61.5501 -2.23968 0.627792 0
M  V30 598 C 62.5441 -1.65828 -0.346019 0
M  V30 599 O 63.7501 -1.78733 -0.213175 0
M  V30 600 H 60.1251 -0.728939 0.184802 0
M  V30 601 H 62.0961 -2.56202 1.52981 0
M  V30 602 C 60.8451 -3.47699 0.00796591 0
M  V30 603 H 60.1681 -3.92734 0.748347 0
M  V30 604 H 61.6081 -4.23294 -0.24455 0
M  V30 605 C 60.0671 -3.13153 -1.24246 0
M  V30 606 O 60.5971 -3.27003 -2.33307 0
M  V30 607 N 58.8031 -2.67467 -1.13622 0
M  V30 608 H 58.3501 -2.56396 -0.248734 0
M  V30 609 H 58.3081 -2.44724 -1.97377 0
M  V30 610 N 62.0802 -0.821533 -1.34494 0
M  V30 611 C 63.3272 -0.408946 -1.98328 0
M  V30 612 C 63.6552 1.02764 -1.65136 0
M  V30 613 O 62.9102 1.73026 -0.914349 0
M  V30 614 C 63.2092 -0.556512 -3.53041 0
M  V30 615 C 62.8752 -1.95861 -4.0614 0
M  V30 616 C 61.5372 -2.34217 -4.20352 0
M  V30 617 C 63.8892 -2.87523 -4.34718 0
M  V30 618 C 61.2172 -3.63572 -4.6047 0
M  V30 619 C 63.5692 -4.1634 -4.76281 0
M  V30 620 C 62.2332 -4.54675 -4.88699 0
M  V30 621 H 61.5032 -0.149644 -0.725732 0
M  V30 622 H 64.1502 -1.04521 -1.6046 0
M  V30 623 H 62.4552 0.163148 -3.9146 0
M  V30 624 H 64.1522 -0.217826 -4.00408 0
M  V30 625 H 60.7422 -1.65066 -3.95539 0
M  V30 626 H 64.9262 -2.59133 -4.23277 0
M  V30 627 H 60.1822 -3.93101 -4.68275 0
M  V30 628 H 64.3562 -4.87455 -4.97354 0
M  V30 629 H 61.9832 -5.54959 -5.19542 0
M  V30 630 N 63.5583 1.46682 -0.576371 0
M  V30 631 C 64.8063 2.02013 -0.0594163 0
M  V30 632 C 65.1273 1.45101 1.30271 0
M  V30 633 O 64.3973 0.633317 1.8538 0
M  V30 634 H 62.9773 0.746759 -0.0189745 0
M  V30 635 H 65.6393 1.79862 -0.750717 0
M  V30 636 H 64.7353 3.12097 0.014345 0
M  V30 637 N 65.0364 0.313813 1.54444 0
M  V30 638 C 66.2854 -0.292519 1.99568 0
M  V30 639 C 66.5984 -1.54011 1.20582 0
M  V30 640 O 67.8044 -2.22183 1.56035 0
M  V30 641 C 66.2604 -0.571752 3.55329 0
M  V30 642 C 65.8684 0.658229 4.43138 0
M  V30 643 C 67.6124 -1.13857 4.08946 0
M  V30 644 C 65.5194 0.351439 5.90355 0
M  V30 645 H 64.4494 -0.113079 0.745472 0
M  V30 646 H 67.1004 0.424518 1.78522 0
M  V30 647 H 65.4824 -1.34872 3.72325 0
M  V30 648 H 66.6564 1.43403 4.37918 0
M  V30 649 H 64.9714 1.14458 4.0036 0
M  V30 650 H 67.5684 -1.38257 5.16516 0
M  V30 651 H 67.9114 -2.08489 3.6033 0
M  V30 652 H 68.4444 -0.423015 3.95544 0
M  V30 653 H 65.1834 1.26667 6.43145 0
M  V30 654 H 64.7034 -0.386842 5.98551 0
M  V30 655 H 66.3824 -0.0423134 6.46986 0
M  V30 656 N 66.5145 -1.57545 0.0417849 0
M  V30 657 C 67.7395 -1.97035 -0.647455 0
M  V30 658 C 68.1645 -0.918775 -1.64135 0
M  V30 659 O 67.5225 0.119006 -1.80909 0
M  V30 660 C 67.5705 -3.35609 -1.31905 0
M  V30 661 O 66.6745 -3.3287 -2.43457 0
M  V30 662 H 66.0155 -0.64211 -0.169086 0
M  V30 663 H 68.5455 -2.04318 0.107399 0
M  V30 664 H 68.5555 -3.72126 -1.67291 0
M  V30 665 H 67.2305 -4.11685 -0.590586 0
M  V30 666 H 65.8075 -3.08087 -2.10088 0
M  V30 667 N 67.9926 0.231505 -1.5589 0
M  V30 668 C 69.2176 0.978689 -1.82856 0
M  V30 669 C 69.6426 1.77559 -0.620846 0
M  V30 670 O 69.0006 1.76119 0.430305 0
M  V30 671 C 69.0486 1.87997 -3.07716 0
M  V30 672 O 68.1526 2.97393 -2.85712 0
M  V30 673 H 67.4936 0.277663 -0.603158 0
M  V30 674 H 70.0236 0.24783 -2.03093 0
M  V30 675 H 70.0336 2.2917 -3.37558 0
M  V30 676 H 68.7086 1.29417 -3.95252 0
M  V30 677 H 67.2856 2.60238 -2.67078 0
M  V30 678 N 69.4707 1.49531 0.497807 0
M  V30 679 C 70.7167 1.59415 1.25358 0
M  V30 680 C 71.0497 0.281422 1.9215 0
M  V30 681 O 70.3247 -0.715249 1.80871 0
M  V30 682 C 70.6077 2.75566 2.3181 0
M  V30 683 C 70.4607 4.16642 1.69498 0
M  V30 684 C 71.7797 2.87347 3.33346 0
M  V30 685 H 68.8987 0.580244 0.454408 0
M  V30 686 H 71.5407 1.81827 0.551262 0
M  V30 687 H 69.6907 2.56587 2.91711 0
M  V30 688 H 71.3627 4.47145 1.13399 0
M  V30 689 H 69.6057 4.22141 0.998978 0
M  V30 690 H 70.2767 4.93792 2.46725 0
M  V30 691 H 72.7527 3.04634 2.83438 0
M  V30 692 H 71.6287 3.70289 4.05188 0
M  V30 693 H 71.8897 1.96834 3.95865 0
M  V30 694 N 70.9488 -0.749086 1.3866 0
M  V30 695 C 72.2258 -1.4992 1.25632 0
M  V30 696 C 72.6058 -2.10633 -0.140317 0
M  V30 697 O 71.9538 -1.97437 -1.15025 0
M  V30 698 C 72.1638 -2.56195 2.36992 0
M  V30 699 C 73.5118 -3.22972 2.75634 0
M  V30 700 O 74.5358 -2.66502 2.36337 0
M  V30 701 O 73.3948 -4.25122 3.43415 0
M  V30 702 H 70.4888 -0.665067 0.491544 0
M  V30 703 H 73.0348 -0.784113 1.50498 0
M  V30 704 H 71.8068 -2.09612 3.30422 0
M  V30 705 H 71.4298 -3.35279 2.13714 0
M  V30 706 N 72.4269 -1.23603 -0.977757 0
M  V30 707 C 73.3569 -1.04401 -2.0886 0
M  V30 708 C 74.3379 0.0399052 -1.70053 0
M  V30 709 O 75.5229 -0.125246 -1.93796 0
M  V30 710 C 72.6529 -0.637269 -3.41403 0
M  V30 711 C 71.6069 -1.66883 -3.94124 0
M  V30 712 C 70.9329 -1.11745 -5.22893 0
M  V30 713 C 72.2329 -3.06247 -4.23096 0
M  V30 714 H 73.9269 -1.97316 -2.25182 0
M  V30 715 H 71.4729 -0.950096 -1.08209 0
M  V30 716 H 73.4259 -0.48998 -4.18542 0
M  V30 717 H 72.1499 0.327557 -3.24953 0
M  V30 718 H 70.8089 -1.80416 -3.19133 0
M  V30 719 H 70.4569 -0.143527 -5.02795 0
M  V30 720 H 70.1569 -1.80672 -5.59134 0
M  V30 721 H 71.6809 -0.982067 -6.02651 0
M  V30 722 H 73.0949 -2.96001 -4.90975 0
M  V30 723 H 71.4919 -3.72436 -4.70544 0
M  V30 724 H 72.5619 -3.55041 -3.30263 0
M  V30 725 N 73.905 1.17692 -1.04816 0
M  V30 726 C 75.13 1.92327 -0.776207 0
M  V30 727 C 75.555 1.76082 0.661581 0
M  V30 728 O 74.913 1.076 1.45917 0
M  V30 729 C 74.961 3.41539 -1.15687 0
M  V30 730 O 74.065 4.11402 -0.286775 0
M  V30 731 H 73.406 0.599735 -0.284981 0
M  V30 732 H 75.936 1.49201 -1.4 0
M  V30 733 H 75.946 3.92269 -1.12202 0
M  V30 734 H 74.621 3.52684 -2.20425 0
M  V30 735 H 73.198 3.70939 -0.381903 0
M  V30 736 N 75.3831 0.828654 1.34056 0
M  V30 737 C 76.6291 0.42008 1.98402 0
M  V30 738 C 76.9621 -1.01564 1.65525 0
M  V30 739 O 76.2371 -1.70834 0.929831 0
M  V30 740 C 76.5201 0.62927 3.54559 0
M  V30 741 C 76.3731 2.11152 3.97159 0
M  V30 742 C 77.6921 0.0688756 4.40046 0
M  V30 743 H 74.8111 0.154104 0.720709 0
M  V30 744 H 77.4531 1.04228 1.5886 0
M  V30 745 H 75.6031 0.0996418 3.88372 0
M  V30 746 H 77.2751 2.70522 3.73651 0
M  V30 747 H 75.5181 2.59985 3.47261 0
M  V30 748 H 76.1891 2.20868 5.05887 0
M  V30 749 H 78.6651 0.521458 4.1282 0
M  V30 750 H 77.5411 0.245006 5.48353 0
M  V30 751 H 77.8021 -1.0266 4.30015 0
M  V30 752 N 76.8612 -1.46375 0.584142 0
M  V30 753 C 77.7942 -2.27351 -0.196676 0
M  V30 754 C 78.7722 -1.35715 -0.895561 0
M  V30 755 O 79.9562 -1.65126 -0.90916 0
M  V30 756 C 77.0832 -3.13486 -1.28235 0
M  V30 757 C 76.1292 -4.20896 -0.689145 0
M  V30 758 S 76.9622 -5.33299 0.48507 0
M  V30 759 C 78.1182 -6.23 -0.601767 0
M  V30 760 H 78.3512 -2.93228 0.490395 0
M  V30 761 H 75.8842 -1.49875 0.371071 0
M  V30 762 H 77.8422 -3.63676 -1.90395 0
M  V30 763 H 76.5032 -2.4692 -1.94138 0
M  V30 764 H 75.6962 -4.80997 -1.50527 0
M  V30 765 H 75.2982 -3.73726 -0.143181 0
M  V30 766 H 77.5902 -6.60979 -1.48705 0
M  V30 767 H 78.5332 -7.0809 -0.0374799 0
M  V30 768 H 78.9412 -5.57173 -0.906557 0
M  V30 769 N 78.3393 -0.321999 -1.54275 0
M  V30 770 C 79.2493 0.553631 -2.27974 0
M  V30 771 C 80.2653 1.13054 -1.32268 0
M  V30 772 O 81.4413 1.15084 -1.6528 0
M  V30 773 C 78.5063 1.69927 -3.02201 0
M  V30 774 C 77.5673 1.15433 -4.1349 0
M  V30 775 C 76.8003 2.24537 -4.84168 0
M  V30 776 O 77.0233 3.44852 -4.5435 0
M  V30 777 O 75.9573 1.90044 -5.7111 0
M  V30 778 H 79.7833 -0.0448345 -3.03667 0
M  V30 779 H 77.3683 -0.0877418 -1.49142 0
M  V30 780 H 79.2503 2.3663 -3.48689 0
M  V30 781 H 77.9253 2.28395 -2.29385 0
M  V30 782 H 76.8323 0.452436 -3.71354 0
M  V30 783 H 78.1653 0.614805 -4.88345 0
M  V30 784 N 79.8174 1.5752 -0.0501392 0
M  V30 785 C 81.0944 1.83996 0.663685 0
M  V30 786 C 81.4744 0.938339 1.89099 0
M  V30 787 O 80.8224 -0.00087759 2.285 0
M  V30 788 C 81.0324 3.33702 1.02196 0
M  V30 789 C 82.3804 4.00691 1.40469 0
M  V30 790 O 83.4044 3.38321 1.11433 0
M  V30 791 O 82.2634 5.10658 1.94654 0
M  V30 792 H 79.3574 0.759385 0.32751 0
M  V30 793 H 81.9034 1.69514 -0.0794238 0
M  V30 794 H 80.6754 3.91015 0.149364 0
M  V30 795 H 80.2984 3.53368 1.82255 0
M  V30 796 N 81.2955 -0.223234 1.56011 0
M  V30 797 C 82.2455 -1.28008 1.88674 0
M  V30 798 C 83.2295 -1.42369 0.749663 0
M  V30 799 O 84.4215 -1.45212 1.01205 0
M  V30 800 C 81.5505 -2.63084 2.20548 0
M  V30 801 C 80.6365 -2.52632 3.40643 0
M  V30 802 N 81.0275 -2.11829 4.59306 0
M  V30 803 C 79.3255 -2.83594 3.44224 0
M  V30 804 C 80.0265 -2.12587 5.41463 0
M  V30 805 N 79.0025 -2.5301 4.81131 0
M  V30 806 H 82.8045 -0.955487 2.77935 0
M  V30 807 H 80.3185 -0.431801 1.56554 0
M  V30 808 H 82.3155 -3.39385 2.42122 0
M  V30 809 H 80.9755 -2.96391 1.32599 0
M  V30 810 H 81.9865 -1.82988 4.84496 0
M  V30 811 H 78.6635 -3.21284 2.66614 0
M  V30 812 H 80.0535 -1.83179 6.46448 0
M  V30 813 N 82.7736 -1.49793 -0.48987 0
M  V30 814 C 83.9986 -1.63836 -1.27172 0
M  V30 815 C 84.4236 -0.31402 -1.8546 0
M  V30 816 O 83.7816 0.719803 -1.66399 0
M  V30 817 C 83.8296 -2.71797 -2.36978 0
M  V30 818 O 82.9336 -2.31744 -3.41128 0
M  V30 819 H 82.2746 -0.547997 -0.37496 0
M  V30 820 H 84.8046 -1.96053 -0.585191 0
M  V30 821 H 84.8146 -2.94305 -2.82575 0
M  V30 822 H 83.4896 -3.67923 -1.93921 0
M  V30 823 H 82.0666 -2.1961 -3.01373 0
M  V30 824 N 84.2517 0.741722 -1.39055 0
M  V30 825 C 85.2017 1.84661 -1.33732 0
M  V30 826 C 86.1857 1.59397 -0.219401 0
M  V30 827 O 87.3777 1.71015 -0.456375 0
M  V30 828 C 84.5067 3.22512 -1.17647 0
M  V30 829 C 83.5927 3.53628 -2.34112 0
M  V30 830 N 83.9837 3.55723 -3.59576 0
M  V30 831 C 82.2817 3.83956 -2.26923 0
M  V30 832 C 82.9827 3.84443 -4.36553 0
M  V30 833 N 81.9587 4.01877 -3.66055 0
M  V30 834 H 85.7607 1.84576 -2.28711 0
M  V30 835 H 83.2747 0.939647 -1.32455 0
M  V30 836 H 85.2717 4.01597 -1.11917 0
M  V30 837 H 83.9317 3.2384 -0.236124 0
M  V30 838 H 84.9427 3.37196 -3.93089 0
M  V30 839 H 81.6197 3.92929 -1.41113 0
M  V30 840 H 83.0097 3.92588 -5.45274 0
M  V30 841 N 85.7298 1.2412 0.971189 0
M  V30 842 C 86.9548 1.10667 1.75407 0
M  V30 843 C 87.3798 -0.337048 1.85056 0
M  V30 844 O 86.7378 -1.24396 1.31892 0
M  V30 845 C 86.7858 1.74726 3.15441 0
M  V30 846 O 85.8898 1.01566 3.99697 0
M  V30 847 H 85.2308 0.387341 0.539317 0
M  V30 848 H 87.7608 1.64358 1.2185 0
M  V30 849 H 87.7708 1.80341 3.6598 0
M  V30 850 H 86.4458 2.79773 3.07734 0
M  V30 851 H 85.0228 1.03713 3.58187 0
M  V30 852 N 87.2079 -1.17134 1.05439 0
M  V30 853 C 88.4549 -1.87456 0.765942 0
M  V30 854 C 88.7829 -1.81189 -0.707153 0
M  V30 855 O 88.0379 -1.21633 -1.5331 0
M  V30 856 C 88.3369 -3.36833 1.19491 0
M  V30 857 C 88.0029 -3.63301 2.67063 0
M  V30 858 C 86.6649 -3.70234 3.07376 0
M  V30 859 C 89.0169 -3.74575 3.62413 0
M  V30 860 C 86.3449 -3.85933 4.41896 0
M  V30 861 C 88.6969 -3.91793 4.9667 0
M  V30 862 C 87.3609 -3.96966 5.36633 0
M  V30 863 H 86.6309 -0.685948 0.280278 0
M  V30 864 H 89.2779 -1.38556 1.32192 0
M  V30 865 H 87.5829 -3.87807 0.557969 0
M  V30 866 H 89.2799 -3.89611 0.948893 0
M  V30 867 H 85.8699 -3.58532 2.34846 0
M  V30 868 H 90.0539 -3.68537 3.32406 0
M  V30 869 H 85.3099 -3.88187 4.72357 0
M  V30 870 H 89.4839 -3.99458 5.70444 0
M  V30 871 H 87.1109 -4.08883 6.40874 0
M  V30 872 N 88.686 -0.835752 -1.33615 0
M  V30 873 C 89.963 -0.352017 -1.92406 0
M  V30 874 C 90.343 1.16225 -1.76224 0
M  V30 875 O 89.691 1.97526 -1.14873 0
M  V30 876 C 89.901 -0.795485 -3.39813 0
M  V30 877 C 91.249 -0.801703 -4.16963 0
M  V30 878 O 92.273 -0.738889 -3.48452 0
M  V30 879 O 91.132 -0.886607 -5.3926 0
M  V30 880 H 88.226 -0.0989641 -0.821057 0
M  V30 881 H 90.772 -0.921397 -1.42507 0
M  V30 882 H 89.544 -1.83795 -3.45449 0
M  V30 883 H 89.167 -0.202505 -3.97084 0
M  V30 884 N 90.1641 1.46063 -0.591896 0
M  V30 885 C 91.4131 2.01547 -0.0786637 0
M  V30 886 C 91.7261 1.46796 1.29268 0
M  V30 887 O 92.9321 1.94157 1.89777 0
M  V30 888 C 91.3881 3.59787 -0.0900024 0
M  V30 889 C 90.9961 4.23534 -1.46023 0
M  V30 890 C 92.7401 4.22895 0.368806 0
M  V30 891 C 90.6471 5.73881 -1.4288 0
M  V30 892 H 89.5771 0.753564 -0.0256388 0
M  V30 893 H 92.2281 1.677 -0.744905 0
M  V30 894 H 90.6101 3.90752 0.642586 0
M  V30 895 H 91.7841 4.04167 -2.21328 0
M  V30 896 H 90.0991 3.72558 -1.85982 0
M  V30 897 H 92.6961 5.33116 0.411258 0
M  V30 898 H 93.0391 3.9247 1.38827 0
M  V30 899 H 93.5721 3.9659 -0.31001 0
M  V30 900 H 90.3111 6.0898 -2.42536 0
M  V30 901 H 89.8311 5.95486 -0.718095 0
M  V30 902 H 91.5101 6.36776 -1.14565 0
M  V30 903 N 91.6422 0.330177 1.54103 0
M  V30 904 C 92.5892 -0.532762 2.24567 0
M  V30 905 C 93.5592 -1.10635 1.23892 0
M  V30 906 O 94.7442 -1.14546 1.5259 0
M  V30 907 C 91.8842 -1.6845 3.01195 0
M  V30 908 C 90.9972 -1.13951 4.167 0
M  V30 909 C 90.1322 -2.25746 4.80845 0
M  V30 910 C 89.1712 -1.6853 5.88442 0
M  V30 911 N 88.3082 -2.74014 6.46421 0
M  V30 912 H 93.1482 0.0746905 2.97906 0
M  V30 913 H 90.6852 0.048632 1.4702 0
M  V30 914 H 92.6432 -2.36234 3.43874 0
M  V30 915 H 91.2732 -2.26314 2.30178 0
M  V30 916 H 90.3252 -0.35301 3.78758 0
M  V30 917 H 91.6372 -0.680892 4.94131 0
M  V30 918 H 90.7912 -3.01422 5.26526 0
M  V30 919 H 89.5302 -2.74947 4.0281 0
M  V30 920 H 88.5352 -0.913543 5.42157 0
M  V30 921 H 89.7602 -1.20198 6.68378 0
M  V30 922 H 87.7062 -3.22494 5.71256 0
M  V30 923 H 87.6232 -2.32735 7.19285 0
M  V30 924 H 88.8912 -3.49499 6.96757 0
M  V30 925 N 93.1203 -1.57491 0.0584922 0
M  V30 926 C 94.5313 -1.80526 -0.476138 0
M  V30 927 C 94.8823 -0.971334 -1.70469 0
M  V30 928 O 94.0073 -0.190012 -2.15564 0
M  V30 929 C 94.6023 -3.27424 -0.870587 0
M  V30 930 C 93.1613 -3.51351 -1.35015 0
M  V30 931 C 92.3083 -2.75343 -0.32887 0
M  V30 932 H 95.2593 -1.56133 0.284312 0
M  V30 933 H 95.2803 -3.38745 -1.73299 0
M  V30 934 H 94.7923 -3.88093 0.0237627 0
M  V30 935 H 92.8933 -2.95971 -2.26345 0
M  V30 936 H 93.0063 -4.60059 -1.33726 0
M  V30 937 H 91.3703 -2.417 -0.803321 0
M  V30 938 H 92.1533 -3.38743 0.557521 0
M  V30 939 N 94.5984 0.214957 -1.56127 0
M  V30 940 C 95.8454 0.938372 -1.79446 0
M  V30 941 C 96.1734 1.8407 -0.628378 0
M  V30 942 O 95.4284 1.91837 0.386925 0
M  V30 943 C 95.7274 1.80314 -3.0858 0
M  V30 944 C 95.3934 1.05349 -4.3842 0
M  V30 945 C 94.0554 0.846435 -4.73697 0
M  V30 946 C 96.4074 0.524588 -5.18553 0
M  V30 947 C 93.7354 0.098683 -5.86617 0
M  V30 948 C 96.0874 -0.209853 -6.32252 0
M  V30 949 C 94.7514 -0.428102 -6.66126 0
M  V30 950 H 94.0214 0.343375 -0.656639 0
M  V30 951 H 96.6684 0.206077 -1.90388 0
M  V30 952 H 94.9734 2.6035 -2.92789 0
M  V30 953 H 96.6704 2.36513 -3.23825 0
M  V30 954 H 93.2604 1.22486 -4.10725 0
M  V30 955 H 97.4444 0.672008 -4.91729 0
M  V30 956 H 92.7004 -0.0805753 -6.11347 0
M  V30 957 H 96.8744 -0.627157 -6.9357 0
M  V30 958 H 94.5014 -1.00944 -7.53468 0
M  V30 959 N 96.0765 1.50051 0.48192 0
M  V30 960 C 97.3045 1.64237 1.25832 0
M  V30 961 C 97.7195 0.321336 1.86045 0
M  V30 962 O 97.0765 -0.695478 1.68729 0
M  V30 963 C 97.1275 2.72548 2.37487 0
M  V30 964 O 96.8485 3.99529 1.79745 0
M  V30 965 C 98.3495 2.9761 3.28547 0
M  V30 966 H 95.5695 0.55237 0.380957 0
M  V30 967 H 98.1135 1.96207 0.576467 0
M  V30 968 H 96.2685 2.43303 3.01467 0
M  V30 969 H 96.6825 4.59342 2.5319 0
M  V30 970 H 98.1565 3.77084 4.03127 0
M  V30 971 H 98.6335 2.0826 3.86684 0
M  V30 972 H 99.2395 3.28345 2.70314 0
M  V30 973 N 97.5546 -0.734337 1.39446 0
M  V30 974 C 98.7826 -1.52358 1.39981 0
M  V30 975 C 99.1976 -1.88799 -0.0054975 0
M  V30 976 O 98.5546 -1.54146 -0.976998 0
M  V30 977 C 98.6056 -2.81072 2.27333 0
M  V30 978 O 98.3266 -2.46178 3.62392 0
M  V30 979 C 99.8276 -3.75096 2.36259 0
M  V30 980 H 97.0476 -0.470806 0.478103 0
M  V30 981 H 99.5916 -0.907339 1.83269 0
M  V30 982 H 97.7466 -3.39026 1.87457 0
M  V30 983 H 98.1606 -3.28866 4.08592 0
M  V30 984 H 99.6346 -4.62305 3.01626 0
M  V30 985 H 100.112 -4.16892 1.38194 0
M  V30 986 H 100.718 -3.23061 2.76608 0
M  V30 987 N 99.0327 -1.24633 -0.964593 0
M  V30 988 C 100.279 -1.08949 -1.71049 0
M  V30 989 C 100.612 0.370302 -1.90637 0
M  V30 990 O 99.8867 1.27349 -1.47011 0
M  V30 991 C 100.17 -1.83329 -3.0994 0
M  V30 992 C 100.023 -3.37077 -2.97824 0
M  V30 993 C 101.342 -1.60846 -4.09654 0
M  V30 994 H 98.4607 -0.397178 -0.620821 0
M  V30 995 H 101.103 -1.5334 -1.12191 0
M  V30 996 H 99.2527 -1.45597 -3.60186 0
M  V30 997 H 100.925 -3.84425 -2.5498 0
M  V30 998 H 99.1677 -3.65298 -2.33965 0
M  V30 999 H 99.8387 -3.84324 -3.96231 0
M  V30 1000 H 102.315 -1.93674 -3.68279 0
M  V30 1001 H 101.191 -2.1534 -5.04896 0
M  V30 1002 H 101.452 -0.547434 -4.38698 0
M  V30 1003 N 100.511 1.16574 -1.06058 0
M  V30 1004 C 101.788 1.83048 -0.689416 0
M  V30 1005 C 102.168 1.94122 0.829443 0
M  V30 1006 O 101.516 1.48249 1.7388 0
M  V30 1007 C 101.726 3.20186 -1.38859 0
M  V30 1008 C 103.074 3.95989 -1.53226 0
M  V30 1009 O 104.098 3.29696 -1.3483 0
M  V30 1010 O 102.957 5.14813 -1.83384 0
M  V30 1011 H 100.051 0.790258 -0.243764 0
M  V30 1012 H 102.597 1.23797 -1.16071 0
M  V30 1013 H 101.369 3.07146 -2.4244 0
M  V30 1014 H 100.992 3.87112 -0.907216 0
M  V30 1015 N 101.989 0.842826 1.3317 0
M  V30 1016 C 103.236 0.440447 1.97652 0
M  V30 1017 C 103.564 -1.00123 1.6675 0
M  V30 1018 O 102.819 -1.7155 0.941761 0
M  V30 1019 C 103.118 0.612607 3.52111 0
M  V30 1020 C 102.784 2.02297 4.02972 0
M  V30 1021 C 101.446 2.40874 4.16573 0
M  V30 1022 C 103.798 2.94402 4.30089 0
M  V30 1023 C 101.126 3.70852 4.54627 0
M  V30 1024 C 103.478 4.23865 4.69597 0
M  V30 1025 C 102.142 4.62392 4.81404 0
M  V30 1026 H 101.412 0.161171 0.72326 0
M  V30 1027 H 104.059 1.07061 1.58777 0
M  V30 1028 H 102.364 -0.100849 3.9167 0
M  V30 1029 H 104.061 0.2815 4.00011 0
M  V30 1030 H 100.651 1.71338 3.92863 0
M  V30 1031 H 104.835 2.65835 4.19101 0
M  V30 1032 H 100.091 4.00501 4.61962 0
M  V30 1033 H 104.265 4.95306 4.89536 0
M  V30 1034 H 101.892 5.63154 5.10648 0
M  V30 1035 N 103.467 -1.45747 0.599634 0
M  V30 1036 C 104.692 -2.07178 0.0960198 0
M  V30 1037 C 105.117 -1.44268 -1.207 0
M  V30 1038 O 104.475 -0.532503 -1.73303 0
M  V30 1039 C 104.523 -3.60579 -0.0385348 0
M  V30 1040 O 103.627 -3.97713 -1.0908 0
M  V30 1041 H 102.968 -0.660251 0.0704593 0
M  V30 1042 H 105.498 -1.87124 0.827385 0
M  V30 1043 H 105.508 -4.07298 -0.239304 0
M  V30 1044 H 104.183 -4.05756 0.912947 0
M  V30 1045 H 102.76 -3.62678 -0.867135 0
M  V30 1046 N 104.945 -0.338344 -1.53925 0
M  V30 1047 C 106.17 0.263987 -2.05713 0
M  V30 1048 C 106.595 1.43847 -1.21201 0
M  V30 1049 O 105.953 1.79904 -0.224535 0
M  V30 1050 C 106.001 0.662 -3.54471 0
M  V30 1051 O 105.105 1.76265 -3.72833 0
M  V30 1052 H 104.446 0.0448722 -0.662482 0
M  V30 1053 H 106.976 -0.491048 -1.9862 0
M  V30 1054 H 106.986 0.940594 -3.9701 0
M  V30 1055 H 105.661 -0.196937 -4.15433 0
M  V30 1056 H 104.238 1.48173 -3.42198 0
M  V30 1057 N 106.423 1.57458 -0.0668435 0
M  V30 1058 C 107.672 1.92477 0.602947 0
M  V30 1059 C 107.985 0.948419 1.71068 0
M  V30 1060 O 109.191 1.19124 2.43971 0
M  V30 1061 C 107.647 3.41903 1.12383 0
M  V30 1062 C 107.255 4.47975 0.04737 0
M  V30 1063 C 108.999 3.85931 1.76797 0
M  V30 1064 C 106.906 5.88529 0.582022 0
M  V30 1065 H 105.836 0.718387 0.22899 0
M  V30 1066 H 108.487 1.82978 -0.138276 0
M  V30 1067 H 106.869 3.46459 1.91787 0
M  V30 1068 H 108.043 4.55029 -0.726978 0
M  V30 1069 H 106.358 4.13384 -0.500243 0
M  V30 1070 H 108.955 4.88322 2.17821 0
M  V30 1071 H 109.298 3.23029 2.62599 0
M  V30 1072 H 109.831 3.83958 1.04024 0
M  V30 1073 H 106.57 6.55065 -0.238721 0
M  V30 1074 H 106.09 5.85004 1.324 0
M  V30 1075 H 107.769 6.38258 1.05999 0
M  V30 1076 N 107.901 -0.206675 1.56239 0
M  V30 1077 C 109.126 -0.949474 1.8439 0
M  V30 1078 C 109.551 -1.76549 0.649016 0
M  V30 1079 O 108.909 -1.76782 -0.402231 0
M  V30 1080 C 108.957 -1.83078 3.10668 0
M  V30 1081 O 108.061 -2.9281 2.90407 0
M  V30 1082 H 107.402 -0.268033 0.607499 0
M  V30 1083 H 109.932 -0.215488 2.03462 0
M  V30 1084 H 109.942 -2.2377 3.41161 0
M  V30 1085 H 108.617 -1.23112 3.97261 0
M  V30 1086 H 107.194 -2.55956 2.71184 0
M  V30 1087 N 109.379 -1.50304 -0.473955 0
M  V30 1088 C 110.607 -1.64902 -1.24959 0
M  V30 1089 C 111.022 -0.331198 -1.85872 0
M  V30 1090 O 110.379 0.68652 -1.69095 0
M  V30 1091 C 110.43 -2.73803 -2.36038 0
M  V30 1092 O 110.151 -4.00477 -1.77624 0
M  V30 1093 C 111.652 -2.99349 -3.26964 0
M  V30 1094 H 108.872 -0.554383 -0.378022 0
M  V30 1095 H 111.416 -1.9651 -0.566054 0
M  V30 1096 H 109.571 -2.44898 -3.00173 0
M  V30 1097 H 109.985 -4.60678 -2.5075 0
M  V30 1098 H 111.459 -3.79217 -4.01121 0
M  V30 1099 H 111.936 -2.10307 -3.85574 0
M  V30 1100 H 112.542 -3.29774 -2.68569 0
M  V30 1101 N 110.857 0.726932 -1.39834 0
M  V30 1102 C 112.268 1.30558 -1.3346 0
M  V30 1103 C 112.619 1.962 -0.00273003 0
M  V30 1104 O 111.744 1.96826 0.899371 0
M  V30 1105 C 112.339 2.37404 -2.41713 0
M  V30 1106 C 110.898 2.90921 -2.38835 0
M  V30 1107 C 110.045 1.64578 -2.2318 0
M  V30 1108 H 112.996 0.523862 -1.49804 0
M  V30 1109 H 113.017 3.17984 -2.08966 0
M  V30 1110 H 112.529 1.89599 -3.38635 0
M  V30 1111 H 110.63 3.42985 -1.45575 0
M  V30 1112 H 110.743 3.43487 -3.33997 0
M  V30 1113 H 109.107 1.89219 -1.70494 0
M  V30 1114 H 109.89 1.18814 -3.22084 0
M  V30 1115 N 112.336 1.25143 0.95797 0
M  V30 1116 C 113.286 1.01924 2.0395 0
M  V30 1117 C 114.27 -0.0427175 1.60843 0
M  V30 1118 O 115.462 0.17221 1.7616 0
M  V30 1119 C 112.591 0.636373 3.3735 0
M  V30 1120 C 111.677 1.73492 3.8699 0
M  V30 1121 N 112.068 2.96945 4.0946 0
M  V30 1122 C 110.366 1.61467 4.15746 0
M  V30 1123 C 111.067 3.68228 4.50315 0
M  V30 1124 N 110.043 2.95833 4.56053 0
M  V30 1125 H 113.845 1.95653 2.19311 0
M  V30 1126 H 111.359 1.15413 1.14253 0
M  V30 1127 H 113.356 0.451233 4.14451 0
M  V30 1128 H 112.016 -0.293621 3.2337 0
M  V30 1129 H 113.027 3.33025 3.96629 0
M  V30 1130 H 109.704 0.753394 4.10646 0
M  V30 1131 H 111.094 4.74178 4.76031 0
M  V30 1132 N 113.814 -1.1601 1.06675 0
M  V30 1133 C 115.044 -1.90251 0.805497 0
M  V30 1134 C 115.452 -1.77891 -0.64431 0
M  V30 1135 O 114.795 -1.12383 -1.45313 0
M  V30 1136 C 114.857 -3.41419 1.12576 0
M  V30 1137 C 114.521 -3.77564 2.57477 0
M  V30 1138 C 115.518 -3.79161 3.55715 0
M  V30 1139 C 113.203 -4.08079 2.92877 0
M  V30 1140 C 115.197 -4.10767 4.8739 0
M  V30 1141 C 112.884 -4.39351 4.24751 0
M  V30 1142 C 113.882 -4.40675 5.21818 0
M  V30 1143 O 113.57 -4.71202 6.51325 0
M  V30 1144 H 113.302 -0.610018 0.291297 0
M  V30 1145 H 115.856 -1.47958 1.4247 0
M  V30 1146 H 114.086 -3.84079 0.449503 0
M  V30 1147 H 115.775 -3.9694 0.84814 0
M  V30 1148 H 116.541 -3.55693 3.29708 0
M  V30 1149 H 112.42 -4.06211 2.17976 0
M  V30 1150 H 115.964 -4.11715 5.63148 0
M  V30 1151 H 111.861 -4.62285 4.50514 0
M  V30 1152 H 112.629 -4.88996 6.56373 0
M  V30 1153 N 115.292 -0.849877 -1.32721 0
M  V30 1154 C 116.202 -0.293791 -2.32753 0
M  V30 1155 C 117.218 0.585906 -1.63839 0
M  V30 1156 O 118.394 0.487413 -1.95413 0
M  V30 1157 C 115.459 0.512752 -3.42887 0
M  V30 1158 C 114.52 -0.39252 -4.27502 0
M  V30 1159 C 113.753 0.375625 -5.32377 0
M  V30 1160 O 113.976 1.60613 -5.4732 0
M  V30 1161 O 112.91 -0.256094 -6.01355 0
M  V30 1162 H 116.736 -1.12242 -2.82197 0
M  V30 1163 H 114.321 -0.612685 -1.36259 0
M  V30 1164 H 116.203 0.970704 -4.10067 0
M  V30 1165 H 114.878 1.31826 -2.95641 0
M  V30 1166 H 113.785 -0.898547 -3.63149 0
M  V30 1167 H 115.118 -1.16309 -4.7826 0
M  V30 1168 N 116.77 1.45427 -0.607355 0
M  V30 1169 C 118.047 1.9557 -0.0344566 0
M  V30 1170 C 118.427 1.54979 1.43334 0
M  V30 1171 O 117.775 0.812241 2.13576 0
M  V30 1172 C 117.985 3.48226 -0.232321 0
M  V30 1173 C 119.333 4.2445 -0.113001 0
M  V30 1174 O 120.357 3.55829 -0.162431 0
M  V30 1175 O 119.216 5.465 0.00209442 0
M  V30 1176 H 116.31 0.826222 0.0358667 0
M  V30 1177 H 118.856 1.55594 -0.6774 0
M  V30 1178 H 117.628 3.70739 -1.25174 0
M  V30 1179 H 117.251 3.95092 0.445896 0
M  V30 1180 N 118.248 0.346503 1.53744 0
M  V30 1181 C 119.497 -0.250122 2.00143 0
M  V30 1182 C 119.81 -1.51418 1.23822 0
M  V30 1183 O 121.016 -2.18823 1.60713 0
M  V30 1184 C 119.472 -0.496252 3.56462 0
M  V30 1185 C 119.08 0.752077 4.41642 0
M  V30 1186 C 120.824 -1.05157 4.11269 0
M  V30 1187 C 118.731 0.476583 5.89477 0
M  V30 1188 H 117.661 -0.0972409 0.747703 0
M  V30 1189 H 120.312 0.46229 1.77581 0
M  V30 1190 H 118.694 -1.26944 3.75102 0
M  V30 1191 H 119.868 1.5266 4.34778 0
M  V30 1192 H 118.183 1.22925 3.97842 0
M  V30 1193 H 120.78 -1.27269 5.19333 0
M  V30 1194 H 121.123 -2.00799 3.64672 0
M  V30 1195 H 121.656 -0.339019 3.96353 0
M  V30 1196 H 118.395 1.4028 6.40314 0
M  V30 1197 H 117.915 -0.259794 5.99237 0
M  V30 1198 H 119.594 0.0949315 6.4693 0
M  V30 1199 N 119.726 -1.57421 0.075193 0
M  V30 1200 C 121.137 -1.81021 -0.456964 0
M  V30 1201 C 121.488 -0.98936 -1.69429 0
M  V30 1202 O 120.613 -0.212865 -2.15351 0
M  V30 1203 C 121.208 -3.28329 -0.83581 0
M  V30 1204 C 119.767 -3.52764 -1.31281 0
M  V30 1205 C 118.914 -2.75676 -0.299648 0
M  V30 1206 H 121.865 -1.55822 0.300856 0
M  V30 1207 H 121.886 -3.40564 -1.69696 0
M  V30 1208 H 121.398 -3.88046 0.0649238 0
M  V30 1209 H 119.499 -2.98355 -2.23193 0
M  V30 1210 H 119.612 -4.61451 -1.28839 0
M  V30 1211 H 117.976 -2.42538 -0.777641 0
M  V30 1212 H 118.759 -3.38132 0.593417 0
M  V30 1213 N 121.204 0.198386 -1.56346 0
M  V30 1214 C 122.451 0.919286 -1.80431 0
M  V30 1215 C 122.779 1.83393 -0.647866 0
M  V30 1216 O 122.034 1.92236 0.366556 0
M  V30 1217 C 122.333 1.77031 -3.10475 0
M  V30 1218 C 121.999 1.00693 -4.39513 0
M  V30 1219 C 120.661 0.796145 -4.74568 0
M  V30 1220 C 123.013 0.469559 -5.19081 0
M  V30 1221 C 120.341 0.0364588 -5.86689 0
M  V30 1222 C 122.693 -0.2769 -6.31994 0
M  V30 1223 C 121.357 -0.49873 -6.65634 0
M  V30 1224 H 120.627 0.336391 -0.660244 0
M  V30 1225 H 123.274 0.185872 -1.90596 0
M  V30 1226 H 121.579 2.5723 -2.95533 0
M  V30 1227 H 123.276 2.33065 -3.26315 0
M  V30 1228 H 119.866 1.18122 -4.12001 0
M  V30 1229 H 124.05 0.619816 -4.92414 0
M  V30 1230 H 119.306 -0.145412 -6.11227 0
M  V30 1231 H 123.48 -0.700684 -6.92866 0
M  V30 1232 H 121.107 -1.0893 -7.52355 0
M  V30 1233 N 122.682 1.50554 0.465978 0
M  V30 1234 C 123.91 1.65563 1.24083 0
M  V30 1235 C 124.325 0.341051 1.85694 0
M  V30 1236 O 123.682 -0.677543 1.69457 0
M  V30 1237 C 123.733 2.75051 2.34583 0
M  V30 1238 O 123.454 4.01413 1.75497 0
M  V30 1239 C 124.955 3.01078 3.25372 0
M  V30 1240 H 122.175 0.55638 0.375077 0
M  V30 1241 H 124.719 1.96807 0.555624 0
M  V30 1242 H 122.874 2.46486 2.9887 0
M  V30 1243 H 123.288 4.62002 2.48303 0
M  V30 1244 H 124.762 3.81339 3.99105 0
M  V30 1245 H 125.239 2.12349 3.84453 0
M  V30 1246 H 125.845 3.31194 2.66816 0
M  V30 1247 N 124.16 -0.719506 1.40217 0
M  V30 1248 C 125.576 -1.02707 1.22161 0
M  V30 1249 C 125.776 -2.0128 0.0940557 0
M  V30 1250 O 124.832 -2.46452 -0.549318 0
M  V30 1251 C 126.145 -1.57454 2.56181 0
M  V30 1252 C 127.693 -1.69458 2.63159 0
M  V30 1253 C 128.168 -2.27611 3.97438 0
M  V30 1254 N 129.659 -2.35002 3.99159 0
M  V30 1255 C 130.394 -2.80972 4.99842 0
M  V30 1256 N 129.89 -3.26723 6.10921 0
M  V30 1257 N 131.683 -2.80321 4.87213 0
M  V30 1258 H 123.834 -0.0660492 2.12297 0
M  V30 1259 H 126.097 -0.0919077 0.943534 0
M  V30 1260 H 125.803 -0.924873 3.39321 0
M  V30 1261 H 125.677 -2.56036 2.76993 0
M  V30 1262 H 128.064 -2.33543 1.80393 0
M  V30 1263 H 128.145 -0.694867 2.46181 0
M  V30 1264 H 127.789 -1.6415 4.80643 0
M  V30 1265 H 127.719 -3.2829 4.11744 0
M  V30 1266 H 130.21 -2.02685 3.18947 0
M  V30 1267 H 130.523 -3.60355 6.8364 0
M  V30 1268 H 128.868 -3.24692 6.14492 0
M  V30 1269 H 132.059 -2.43912 3.9953 0
M  V30 1270 H 132.232 -3.15831 5.65822 0
M  V30 1271 N 125.638 -1.25649 -0.95132 0
M  V30 1272 C 126.866 -1.13343 -1.73092 0
M  V30 1273 C 127.281 0.312434 -1.86197 0
M  V30 1274 O 126.638 1.21465 -1.36207 0
M  V30 1275 C 126.689 -1.78602 -3.14299 0
M  V30 1276 O 126.41 -3.17537 -3.01831 0
M  V30 1277 C 127.911 -1.72119 -4.08522 0
M  V30 1278 H 125.131 -0.395181 -0.542285 0
M  V30 1279 H 127.675 -1.66076 -1.19328 0
M  V30 1280 H 125.83 -1.29832 -3.64996 0
M  V30 1281 H 126.244 -3.49676 -3.90931 0
M  V30 1282 H 127.718 -2.22435 -5.052 0
M  V30 1283 H 128.195 -0.685635 -4.33815 0
M  V30 1284 H 128.801 -2.20393 -3.63741 0
M  V30 1285 N 127.117 1.15442 -1.07289 0
M  V30 1286 C 128.394 1.82306 -0.708792 0
M  V30 1287 C 128.774 1.94991 0.808807 0
M  V30 1288 O 128.122 1.50085 1.72298 0
M  V30 1289 C 128.332 3.18695 -1.42247 0
M  V30 1290 C 129.68 3.94341 -1.57417 0
M  V30 1291 O 130.704 3.28247 -1.38319 0
M  V30 1292 O 129.563 5.12839 -1.88834 0
M  V30 1293 H 126.657 0.787628 -0.252132 0
M  V30 1294 H 129.203 1.22559 -1.17377 0
M  V30 1295 H 127.975 3.04557 -2.45684 0
M  V30 1296 H 127.598 3.86128 -0.948223 0
M  V30 1297 N 128.595 0.856903 1.32268 0
M  V30 1298 C 130.006 0.515711 1.79436 0
M  V30 1299 C 130.357 -0.966586 1.70738 0
M  V30 1300 O 129.482 -1.75409 1.26731 0
M  V30 1301 C 130.077 0.929335 3.25805 0
M  V30 1302 C 128.636 0.640006 3.70919 0
M  V30 1303 C 127.783 1.12784 2.53328 0
M  V30 1304 H 130.734 1.04389 1.19535 0
M  V30 1305 H 130.755 0.246633 3.797 0
M  V30 1306 H 130.267 2.00821 3.32103 0
M  V30 1307 H 128.368 -0.428051 3.70133 0
M  V30 1308 H 128.481 1.20788 4.63624 0
M  V30 1309 H 126.845 0.548033 2.48734 0
M  V30 1310 H 127.628 2.21387 2.62379 0
M  V30 1311 N 130.073 -1.45103 0.615059 0
M  V30 1312 C 131.319 -2.02483 0.113347 0
M  V30 1313 C 131.652 -1.48146 -1.25564 0
M  V30 1314 O 130.927 -0.659104 -1.82992 0
M  V30 1315 C 131.21 -3.60005 0.0825278 0
M  V30 1316 C 131.063 -4.2466 1.48271 0
M  V30 1317 C 132.382 -4.35972 -0.601401 0
M  V30 1318 H 129.501 -0.735764 0.0426632 0
M  V30 1319 H 132.143 -1.72868 0.788461 0
M  V30 1320 H 130.293 -3.85367 -0.492378 0
M  V30 1321 H 131.965 -4.10458 2.10527 0
M  V30 1322 H 130.208 -3.82772 2.04127 0
M  V30 1323 H 130.879 -5.336 1.41332 0
M  V30 1324 H 133.355 -4.15947 -0.112666 0
M  V30 1325 H 132.231 -5.45697 -0.592097 0
M  V30 1326 H 132.492 -4.09391 -1.66887 0
M  V30 1327 N 131.551 -0.354651 -1.53558 0
M  V30 1328 C 132.797 0.238797 -2.01389 0
M  V30 1329 C 133.13 1.49309 -1.2418 0
M  V30 1330 O 132.405 1.91638 -0.332457 0
M  V30 1331 C 132.688 0.541771 -3.56001 0
M  V30 1332 C 132.541 -0.725388 -4.43912 0
M  V30 1333 C 133.86 1.34685 -4.18984 0
M  V30 1334 H 130.979 0.0853177 -0.732045 0
M  V30 1335 H 133.621 -0.477384 -1.83905 0
M  V30 1336 H 131.771 1.15189 -3.71031 0
M  V30 1337 H 133.443 -1.36313 -4.407 0
M  V30 1338 H 131.686 -1.34801 -4.12324 0
M  V30 1339 H 132.357 -0.468505 -5.50008 0
M  V30 1340 H 134.833 0.830837 -4.07721 0
M  V30 1341 H 133.709 1.52759 -5.27215 0
M  V30 1342 H 133.97 2.35221 -3.74331 0
M  V30 1343 N 133.029 1.57378 -0.0835403 0
M  V30 1344 C 133.992 2.12252 0.864959 0
M  V30 1345 C 134.992 1.04916 1.21858 0
M  V30 1346 O 136.182 1.30853 1.14991 0
M  V30 1347 C 133.314 2.63358 2.16461 0
M  V30 1348 H 134.507 2.97371 0.388676 0
M  V30 1349 H 132.06 1.55423 0.165317 0
M  V30 1350 H 132.795 1.81727 2.686 0
M  V30 1351 H 132.58 3.41826 1.92087 0
M  V30 1352 H 134.07 3.05847 2.84337 0
M  V30 1353 N 134.507 -0.190092 1.56449 0
M  V30 1354 C 135.784 -0.935886 1.71757 0
M  V30 1355 C 136.164 -2.01173 0.639726 0
M  V30 1356 O 135.512 -2.25827 -0.348502 0
M  V30 1357 C 135.722 -1.51775 3.1427 0
M  V30 1358 C 137.07 -1.99794 3.74656 0
M  V30 1359 O 138.094 -1.61607 3.1743 0
M  V30 1360 O 136.953 -2.70079 4.751 0
M  V30 1361 H 134.047 -0.439229 0.700719 0
M  V30 1362 H 136.593 -0.179395 1.68749 0
M  V30 1363 H 135.365 -0.742505 3.84191 0
M  V30 1364 H 134.988 -2.33894 3.21527 0
M  V30 1365 N 135.985 -1.50799 -0.457987 0
M  V30 1366 C 137.215 -1.65977 -1.23025 0
M  V30 1367 C 137.623 -0.347918 -1.85974 0
M  V30 1368 O 136.966 0.68148 -1.70592 0
M  V30 1369 C 137.028 -2.70309 -2.3701 0
M  V30 1370 C 136.692 -4.135 -1.94594 0
M  V30 1371 C 137.689 -4.98949 -1.46101 0
M  V30 1372 C 135.374 -4.5949 -2.02915 0
M  V30 1373 C 137.368 -6.28442 -1.06489 0
M  V30 1374 C 135.055 -5.88984 -1.62914 0
M  V30 1375 C 136.053 -6.73286 -1.1478 0
M  V30 1376 O 135.741 -8.00362 -0.75339 0
M  V30 1377 H 135.473 -0.56064 -0.377702 0
M  V30 1378 H 138.027 -1.97857 -0.551537 0
M  V30 1379 H 136.257 -2.337 -3.08093 0
M  V30 1380 H 137.946 -2.74574 -2.98938 0
M  V30 1381 H 138.712 -4.6463 -1.39084 0
M  V30 1382 H 134.591 -3.94009 -2.39328 0
M  V30 1383 H 138.135 -6.94194 -0.688488 0
M  V30 1384 H 134.032 -6.22822 -1.69595 0
M  V30 1385 H 134.8 -8.13744 -0.88108 0
M  V30 1386 N 137.463 0.71206 -1.40597 0
M  V30 1387 C 138.41 1.82613 -1.41142 0
M  V30 1388 C 139.38 1.63925 -0.267903 0
M  V30 1389 O 140.565 1.85009 -0.466495 0
M  V30 1390 C 137.705 3.20354 -1.28324 0
M  V30 1391 C 136.818 3.50589 -2.52411 0
M  V30 1392 C 135.953 4.77855 -2.32009 0
M  V30 1393 C 134.992 5.01005 -3.51654 0
M  V30 1394 N 134.129 6.19487 -3.30425 0
M  V30 1395 H 138.969 1.81482 -2.36365 0
M  V30 1396 H 136.506 0.886475 -1.17388 0
M  V30 1397 H 138.464 3.99899 -1.18899 0
M  V30 1398 H 137.094 3.20705 -0.367189 0
M  V30 1399 H 136.146 2.65573 -2.72351 0
M  V30 1400 H 137.458 3.63604 -3.41458 0
M  V30 1401 H 136.612 5.65424 -2.19956 0
M  V30 1402 H 135.351 4.67056 -1.40392 0
M  V30 1403 H 134.356 4.1189 -3.64179 0
M  V30 1404 H 135.581 5.13674 -4.44202 0
M  V30 1405 H 133.527 6.09932 -2.41494 0
M  V30 1406 H 133.444 6.33194 -4.13039 0
M  V30 1407 H 134.712 7.09834 -3.22113 0
M  V30 1408 N 138.941 1.26152 0.944643 0
M  V30 1409 C 140.171 1.14094 1.72239 0
M  V30 1410 C 140.579 -0.306931 1.86694 0
M  V30 1411 O 139.922 -1.22222 1.3714 0
M  V30 1412 C 139.984 1.73316 3.14963 0
M  V30 1413 C 139.648 3.2239 3.23904 0
M  V30 1414 C 140.645 4.19252 3.07447 0
M  V30 1415 C 138.33 3.62788 3.47405 0
M  V30 1416 C 140.324 5.54491 3.14353 0
M  V30 1417 C 138.011 4.98162 3.53947 0
M  V30 1418 C 139.009 5.93823 3.37436 0
M  V30 1419 O 138.697 7.26732 3.43679 0
M  V30 1420 H 138.429 0.398292 0.546205 0
M  V30 1421 H 140.983 1.67201 1.19301 0
M  V30 1422 H 139.213 1.14667 3.69308 0
M  V30 1423 H 140.902 1.56214 3.74636 0
M  V30 1424 H 141.668 3.8938 2.8915 0
M  V30 1425 H 137.547 2.88816 3.59313 0
M  V30 1426 H 141.091 6.29137 3.01384 0
M  V30 1427 H 136.988 5.27695 3.71763 0
M  V30 1428 H 137.756 7.3496 3.60245 0
M  V30 1429 N 140.419 -1.14872 1.07899 0
M  V30 1430 C 141.696 -1.81928 0.71845 0
M  V30 1431 C 142.076 -1.95417 -0.798455 0
M  V30 1432 O 141.424 -1.50997 -1.715 0
M  V30 1433 C 141.634 -3.17937 1.43935 0
M  V30 1434 C 142.982 -3.93501 1.59506 0
M  V30 1435 O 144.006 -3.27509 1.40058 0
M  V30 1436 O 142.865 -5.1183 1.91551 0
M  V30 1437 H 139.959 -0.78628 0.256305 0
M  V30 1438 H 142.505 -1.21934 1.18026 0
M  V30 1439 H 141.277 -3.0325 2.47295 0
M  V30 1440 H 140.9 -3.85619 0.968687 0
M  V30 1441 N 141.898 -0.863906 -1.31812 0
M  V30 1442 C 142.828 -0.330843 -2.31144 0
M  V30 1443 C 143.809 0.575005 -1.60087 0
M  V30 1444 O 144.994 0.493304 -1.8783 0
M  V30 1445 C 142.124 0.47374 -3.44054 0
M  V30 1446 C 141.078 -0.338481 -4.26659 0
M  V30 1447 C 140.404 0.591412 -5.31419 0
M  V30 1448 C 141.704 -1.56926 -4.98168 0
M  V30 1449 H 143.398 -1.16086 -2.75979 0
M  V30 1450 H 140.944 -0.559657 -1.32679 0
M  V30 1451 H 142.897 0.857143 -4.12591 0
M  V30 1452 H 141.621 1.33721 -2.9797 0
M  V30 1453 H 140.28 -0.703754 -3.59782 0
M  V30 1454 H 139.928 1.45199 -4.81587 0
M  V30 1455 H 139.628 0.0519022 -5.87577 0
M  V30 1456 H 141.152 0.97179 -6.02817 0
M  V30 1457 H 142.566 -1.25764 -5.59336 0
M  V30 1458 H 140.963 -2.04739 -5.64094 0
M  V30 1459 H 142.033 -2.32544 -4.25501 0
M  V30 1460 N 143.376 1.44774 -0.622745 0
M  V30 1461 C 144.323 2.30635 0.0871679 0
M  V30 1462 C 145.293 1.42994 0.845097 0
M  V30 1463 O 146.478 1.71907 0.827812 0
M  V30 1464 C 143.618 3.28144 1.06844 0
M  V30 1465 C 142.731 4.30888 0.309809 0
M  V30 1466 C 141.866 5.15494 1.28215 0
M  V30 1467 C 140.905 6.09953 0.512198 0
M  V30 1468 N 140.042 6.87287 1.43458 0
M  V30 1469 H 144.882 2.90803 -0.650974 0
M  V30 1470 H 142.419 1.43286 -0.33281 0
M  V30 1471 H 144.377 3.83157 1.65066 0
M  V30 1472 H 143.007 2.69695 1.77382 0
M  V30 1473 H 142.059 3.78414 -0.388181 0
M  V30 1474 H 143.371 4.97955 -0.290254 0
M  V30 1475 H 142.525 5.74983 1.93596 0
M  V30 1476 H 141.264 4.48481 1.91614 0
M  V30 1477 H 140.269 5.49581 -0.155151 0
M  V30 1478 H 141.494 6.78999 -0.116958 0
M  V30 1479 H 139.44 6.2295 2.05594 0
M  V30 1480 H 139.357 7.50763 0.888335 0
M  V30 1481 H 140.625 7.51306 2.07749 0
M  V30 1482 N 144.854 0.36279 1.53368 0
M  V30 1483 C 145.784 -0.476976 2.28576 0
M  V30 1484 C 146.765 -1.08631 1.30894 0
M  V30 1485 O 147.95 -1.10409 1.59761 0
M  V30 1486 C 145.08 -1.61828 3.07293 0
M  V30 1487 C 144.034 -1.13633 4.1264 0
M  V30 1488 C 143.36 -2.36766 4.79423 0
M  V30 1489 C 144.66 -0.223061 5.21823 0
M  V30 1490 H 146.354 0.150474 2.99022 0
M  V30 1491 H 143.9 0.0738103 1.43811 0
M  V30 1492 H 145.853 -2.21237 3.58653 0
M  V30 1493 H 144.577 -2.27292 2.34533 0
M  V30 1494 H 143.236 -0.564945 3.62221 0
M  V30 1495 H 142.884 -3.0068 4.03238 0
M  V30 1496 H 142.584 -2.05192 5.50609 0
M  V30 1497 H 144.108 -2.96865 5.33576 0
M  V30 1498 H 145.522 -0.724545 5.68703 0
M  V30 1499 H 143.919 0.001678 6.001 0
M  V30 1500 H 144.989 0.735553 4.79289 0
M  V30 1501 N 146.332 -1.57332 0.0918853 0
M  V30 1502 C 147.264 -2.10869 -0.898168 0
M  V30 1503 C 148.277 -1.04521 -1.24817 0
M  V30 1504 O 149.466 -1.31977 -1.20184 0
M  V30 1505 C 146.566 -2.57083 -2.2082 0
M  V30 1506 C 145.739 -3.87229 -2.03402 0
M  V30 1507 C 144.798 -4.19324 -3.17889 0
M  V30 1508 O 143.824 -4.88598 -2.91994 0
M  V30 1509 N 145.026 -3.74471 -4.43567 0
M  V30 1510 H 147.791 -2.96439 -0.440943 0
M  V30 1511 H 145.352 -1.61631 -0.0933064 0
M  V30 1512 H 147.344 -2.75602 -2.96354 0
M  V30 1513 H 145.914 -1.76541 -2.57977 0
M  V30 1514 H 145.134 -3.7789 -1.12218 0
M  V30 1515 H 146.422 -4.72379 -1.89038 0
M  V30 1516 H 145.82 -3.18546 -4.67488 0
M  V30 1517 H 144.377 -3.98151 -5.16061 0
M  V30 1518 N 147.81 0.181792 -1.56548 0
M  V30 1519 C 148.72 1.24538 -1.98815 0
M  V30 1520 C 149.736 1.49045 -0.897861 0
M  V30 1521 O 150.912 1.61399 -1.20467 0
M  V30 1522 C 147.977 2.56683 -2.33055 0
M  V30 1523 C 147.038 2.40131 -3.55859 0
M  V30 1524 C 146.271 3.65975 -3.88456 0
M  V30 1525 O 146.494 4.70711 -3.22161 0
M  V30 1526 O 145.428 3.6071 -4.81842 0
M  V30 1527 H 149.254 0.916647 -2.89536 0
M  V30 1528 H 146.839 0.387842 -1.44278 0
M  V30 1529 H 148.721 3.34655 -2.56094 0
M  V30 1530 H 147.396 2.89157 -1.45498 0
M  V30 1531 H 146.303 1.60226 -3.38051 0
M  V30 1532 H 147.636 2.12585 -4.43924 0
M  V30 1533 N 149.288 1.51039 0.449983 0
M  V30 1534 C 150.518 1.66627 1.22143 0
M  V30 1535 C 150.926 0.357776 1.85786 0
M  V30 1536 O 150.269 -0.672424 1.70951 0
M  V30 1537 C 150.331 2.71562 2.35573 0
M  V30 1538 C 149.995 4.14526 1.92399 0
M  V30 1539 C 150.992 4.99717 1.43453 0
M  V30 1540 C 148.677 4.60559 2.00475 0
M  V30 1541 C 150.671 6.28998 1.03155 0
M  V30 1542 C 148.358 5.8984 1.59788 0
M  V30 1543 C 149.356 6.73886 1.11208 0
M  V30 1544 O 149.044 8.0075 0.710935 0
M  V30 1545 H 148.776 0.562635 0.374724 0
M  V30 1546 H 151.33 1.98146 0.541036 0
M  V30 1547 H 149.56 2.3533 3.06849 0
M  V30 1548 H 151.249 2.76156 2.97478 0
M  V30 1549 H 152.015 4.65361 1.36618 0
M  V30 1550 H 147.894 3.95273 2.37235 0
M  V30 1551 H 151.438 6.9455 0.651663 0
M  V30 1552 H 147.335 6.23713 1.66289 0
M  V30 1553 H 148.103 8.142 0.837913 0
M  V30 1554 N 150.766 -0.704594 1.40972 0
M  V30 1555 C 151.698 -1.82974 1.38033 0
M  V30 1556 C 152.711 -1.60305 0.283931 0
M  V30 1557 O 153.9 -1.69975 0.545042 0
M  V30 1558 C 151 -3.19578 1.12795 0
M  V30 1559 C 150.173 -3.69352 2.34302 0
M  V30 1560 C 149.232 -4.84601 2.05058 0
M  V30 1561 O 148.258 -4.96682 2.7802 0
M  V30 1562 N 149.46 -5.71194 1.03528 0
M  V30 1563 H 152.225 -1.85991 2.35005 0
M  V30 1564 H 149.786 -0.886567 1.35468 0
M  V30 1565 H 151.778 -3.9429 0.911987 0
M  V30 1566 H 150.348 -3.11642 0.24452 0
M  V30 1567 H 149.568 -2.85649 2.71659 0
M  V30 1568 H 150.856 -3.99345 3.1528 0
M  V30 1569 H 150.254 -5.64054 0.431217 0
M  V30 1570 H 148.811 -6.45843 0.879205 0
M  V30 1571 N 152.244 -1.26651 -0.937939 0
M  V30 1572 C 153.469 -1.15279 -1.72411 0
M  V30 1573 C 153.894 0.287866 -1.85884 0
M  V30 1574 O 153.252 1.20855 -1.35143 0
M  V30 1575 C 153.3 -1.83028 -3.10698 0
M  V30 1576 O 152.404 -1.12128 -3.96864 0
M  V30 1577 H 151.745 -0.401504 -0.528858 0
M  V30 1578 H 154.275 -1.67531 -1.1745 0
M  V30 1579 H 154.285 -1.89981 -3.6107 0
M  V30 1580 H 152.96 -2.87833 -3.00208 0
M  V30 1581 H 151.537 -1.13173 -3.55312 0
M  V30 1582 N 153.722 1.14298 -1.08507 0
M  V30 1583 C 154.685 2.17607 -0.719711 0
M  V30 1584 C 155.685 1.58907 0.245997 0
M  V30 1585 O 156.875 1.74181 0.0254081 0
M  V30 1586 C 154.007 3.40842 -0.0627695 0
M  V30 1587 H 155.2 2.51443 -1.63452 0
M  V30 1588 H 152.753 1.28963 -0.88307 0
M  V30 1589 H 153.488 3.12587 0.863716 0
M  V30 1590 H 153.273 3.84713 -0.757504 0
M  V30 1591 H 154.763 4.17221 0.177786 0
M  V30 1592 N 155.201 0.870884 1.31352 0
M  V30 1593 C 156.45 0.478408 1.95944 0
M  V30 1594 C 156.763 -0.974493 1.69597 0
M  V30 1595 O 157.969 -1.47316 2.28058 0
M  V30 1596 C 156.425 0.804609 3.50791 0
M  V30 1597 C 156.033 2.27433 3.85977 0
M  V30 1598 C 157.777 0.480648 4.2177 0
M  V30 1599 C 155.684 2.5429 5.33939 0
M  V30 1600 H 154.614 0.175175 0.733369 0
M  V30 1601 H 157.265 1.06391 1.4951 0
M  V30 1602 H 155.647 0.148347 3.95722 0
M  V30 1603 H 156.821 2.97373 3.52002 0
M  V30 1604 H 155.136 2.56442 3.28065 0
M  V30 1605 H 157.733 0.658519 5.30629 0
M  V30 1606 H 158.076 -0.578979 4.12254 0
M  V30 1607 H 158.609 1.09349 3.82476 0
M  V30 1608 H 155.348 3.58939 5.48491 0
M  V30 1609 H 154.868 1.88945 5.69263 0
M  V30 1610 H 156.547 2.39066 6.01212 0
M  V30 1611 N 156.679 -1.44442 0.630414 0
M  V30 1612 C 157.626 -2.30678 -0.0749355 0
M  V30 1613 C 158.596 -1.4344 -0.837502 0
M  V30 1614 O 159.781 -1.72343 -0.818684 0
M  V30 1615 C 156.921 -3.28706 -1.05103 0
M  V30 1616 C 156.034 -4.31046 -0.286954 0
M  V30 1617 C 155.169 -5.16167 -1.2548 0
M  V30 1618 C 154.208 -6.10216 -0.479843 0
M  V30 1619 N 153.345 -6.88039 -1.39811 0
M  V30 1620 H 158.185 -2.90454 0.666386 0
M  V30 1621 H 155.722 -1.43107 0.340404 0
M  V30 1622 H 157.68 -3.84027 -1.63031 0
M  V30 1623 H 156.31 -2.70632 -1.75949 0
M  V30 1624 H 155.362 -3.78203 0.408243 0
M  V30 1625 H 156.674 -4.97794 0.316657 0
M  V30 1626 H 155.828 -5.76002 -1.90544 0
M  V30 1627 H 154.567 -4.49491 -1.89233 0
M  V30 1628 H 153.572 -5.49491 0.184295 0
M  V30 1629 H 154.797 -6.78928 0.152965 0
M  V30 1630 H 152.743 -6.24032 -2.02287 0
M  V30 1631 H 152.66 -7.51223 -0.848508 0
M  V30 1632 H 153.928 -7.52397 -2.03762 0
M  V30 1633 N 158.157 -0.370918 -1.53173 0
M  V30 1634 C 159.403 0.217423 -2.01631 0
M  V30 1635 C 159.736 1.47983 -1.25756 0
M  V30 1636 O 159.011 1.91274 -0.352764 0
M  V30 1637 C 159.294 0.503982 -3.56556 0
M  V30 1638 C 159.147 -0.77243 -4.43118 0
M  V30 1639 C 160.466 1.30234 -4.20389 0
M  V30 1640 H 157.585 0.0775486 -0.732909 0
M  V30 1641 H 160.227 -0.496863 -1.83388 0
M  V30 1642 H 158.377 1.11248 -3.72231 0
M  V30 1643 H 160.049 -1.4098 -4.39229 0
M  V30 1644 H 158.292 -1.39167 -4.10871 0
M  V30 1645 H 158.963 -0.526815 -5.4948 0
M  V30 1646 H 161.439 0.787546 -4.08579 0
M  V30 1647 H 160.315 1.47158 -5.28806 0
M  V30 1648 H 160.576 2.31237 -3.76805 0
M  V30 1649 N 159.635 1.57281 -0.100228 0
M  V30 1650 C 160.545 2.17833 0.870965 0
M  V30 1651 C 161.561 1.14921 1.30649 0
M  V30 1652 O 162.737 1.47313 1.37335 0
M  V30 1653 C 159.802 2.75085 2.1102 0
M  V30 1654 C 158.863 3.9297 1.72838 0
M  V30 1655 C 158.096 4.47482 2.90854 0
M  V30 1656 O 158.319 4.00922 4.05731 0
M  V30 1657 O 157.253 5.38433 2.69023 0
M  V30 1658 H 161.079 3.0124 0.38575 0
M  V30 1659 H 158.664 1.48881 0.124397 0
M  V30 1660 H 160.546 3.11656 2.83634 0
M  V30 1661 H 159.221 1.94721 2.58584 0
M  V30 1662 H 158.128 3.61201 0.973883 0
M  V30 1663 H 159.461 4.74713 1.30033 0
M  V30 1664 N 161.113 -0.173488 1.56642 0
M  V30 1665 C 162.524 -0.736155 1.71574 0
M  V30 1666 C 162.875 -1.82888 0.710389 0
M  V30 1667 O 162 -2.16017 -0.1287 0
M  V30 1668 C 162.595 -1.34211 3.11083 0
M  V30 1669 C 161.154 -1.85162 3.27707 0
M  V30 1670 C 160.301 -0.729765 2.67525 0
M  V30 1671 H 163.252 0.0518786 1.58615 0
M  V30 1672 H 163.273 -2.21178 3.09613 0
M  V30 1673 H 162.785 -0.546579 3.84232 0
M  V30 1674 H 160.886 -2.67366 2.59512 0
M  V30 1675 H 160.999 -1.99855 4.35425 0
M  V30 1676 H 159.363 -1.14965 2.27278 0
M  V30 1677 H 160.146 0.0538806 3.43258 0
M  V30 1678 N 162.591 -1.51276 -0.441967 0
M  V30 1679 C 163.554 -1.7167 -1.51862 0
M  V30 1680 C 164.554 -0.586793 -1.49711 0
M  V30 1681 O 165.744 -0.854276 -1.51815 0
M  V30 1682 C 162.876 -1.76889 -2.91416 0
M  V30 1683 H 164.069 -2.67754 -1.35084 0
M  V30 1684 H 161.622 -1.41196 -0.670333 0
M  V30 1685 H 162.357 -0.826026 -3.13604 0
M  V30 1686 H 162.142 -2.59001 -2.94382 0
M  V30 1687 H 163.632 -1.94522 -3.69528 0
M  V30 1688 N 164.069 0.697108 -1.41344 0
M  V30 1689 C 165.294 1.49096 -1.44171 0
M  V30 1690 C 165.719 1.88038 -0.0481568 0
M  V30 1691 O 165.077 1.54525 0.948243 0
M  V30 1692 C 165.125 2.73088 -2.3549 0
M  V30 1693 O 164.229 3.70514 -1.81088 0
M  V30 1694 H 163.57 0.448801 -0.489361 0
M  V30 1695 H 166.1 0.856992 -1.85787 0
M  V30 1696 H 166.11 3.21413 -2.51312 0
M  V30 1697 H 164.785 2.44081 -3.36745 0
M  V30 1698 H 163.362 3.29441 -1.74708 0
M  V30 1699 N 165.547 1.27147 0.931209 0
M  V30 1700 C 166.958 1.12044 1.49342 0
M  V30 1701 C 167.309 -0.295795 1.93957 0
M  V30 1702 O 166.434 -1.18835 1.80852 0
M  V30 1703 C 167.029 2.02781 2.71414 0
M  V30 1704 C 165.588 1.91794 3.2387 0
M  V30 1705 C 164.735 1.95543 1.96617 0
M  V30 1706 H 167.686 1.40091 0.745672 0
M  V30 1707 H 167.707 1.58156 3.46074 0
M  V30 1708 H 167.219 3.05848 2.38911 0
M  V30 1709 H 165.32 0.916992 3.6114 0
M  V30 1710 H 165.433 2.77852 3.90302 0
M  V30 1711 H 163.797 1.39722 2.12955 0
M  V30 1712 H 164.58 3.00259 1.66432 0
M  V30 1713 N 167.025 -1.13721 1.09112 0
M  V30 1714 C 168.436 -1.6648 0.845068 0
M  V30 1715 C 168.787 -1.85911 -0.62701 0
M  V30 1716 O 167.912 -1.57556 -1.48341 0
M  V30 1717 C 168.507 -3.02413 1.52748 0
M  V30 1718 C 167.066 -3.52176 1.32849 0
M  V30 1719 C 166.213 -2.27492 1.58564 0
M  V30 1720 H 169.164 -0.976872 1.25072 0
M  V30 1721 H 169.185 -3.68223 0.958752 0
M  V30 1722 H 168.697 -2.88238 2.59885 0
M  V30 1723 H 166.798 -3.7156 0.278137 0
M  V30 1724 H 166.911 -4.32499 2.0611 0
M  V30 1725 H 165.275 -2.33923 1.00758 0
M  V30 1726 H 166.058 -2.15886 2.66924 0
M  V30 1727 N 168.503 -0.877838 -1.30888 0
M  V30 1728 C 169.733 -0.506678 -2.00291 0
M  V30 1729 C 170.141 0.907449 -1.66018 0
M  V30 1730 O 169.484 1.60719 -0.88967 0
M  V30 1731 C 169.546 -0.59323 -3.54572 0
M  V30 1732 C 169.21 -1.97038 -4.12341 0
M  V30 1733 C 170.207 -2.93889 -4.28865 0
M  V30 1734 C 167.892 -2.27383 -4.47886 0
M  V30 1735 C 169.886 -4.19224 -4.80136 0
M  V30 1736 C 167.573 -3.52965 -4.98857 0
M  V30 1737 C 168.571 -4.48701 -5.14934 0
M  V30 1738 O 168.259 -5.72056 -5.64808 0
M  V30 1739 H 167.991 -0.1951 -0.647234 0
M  V30 1740 H 170.545 -1.18301 -1.6791 0
M  V30 1741 H 168.775 0.140057 -3.86446 0
M  V30 1742 H 170.464 -0.234372 -4.05223 0
M  V30 1743 H 171.23 -2.71756 -4.01714 0
M  V30 1744 H 167.109 -1.53639 -4.34645 0
M  V30 1745 H 170.653 -4.93956 -4.92599 0
M  V30 1746 H 166.55 -3.74939 -5.25443 0
M  V30 1747 H 167.318 -5.74337 -5.83163 0
M  V30 1748 N 169.982 1.44106 -0.638065 0
M  V30 1749 C 171.212 2.06037 -0.152394 0
M  V30 1750 C 171.62 1.47808 1.18108 0
M  V30 1751 O 170.963 0.598092 1.73691 0
M  V30 1752 C 171.025 3.59488 0.0293714 0
M  V30 1753 C 170.689 4.4022 -1.22702 0
M  V30 1754 C 171.686 4.73256 -2.15232 0
M  V30 1755 C 169.371 4.8048 -1.46437 0
M  V30 1756 C 171.365 5.45444 -3.29802 0
M  V30 1757 C 169.052 5.52417 -2.61303 0
M  V30 1758 C 170.05 5.84819 -3.52811 0
M  V30 1759 O 169.738 6.55289 -4.65673 0
M  V30 1760 H 169.47 0.671233 -0.0801401 0
M  V30 1761 H 172.024 1.85851 -0.874563 0
M  V30 1762 H 170.254 3.78191 0.806758 0
M  V30 1763 H 171.943 4.03164 0.470475 0
M  V30 1764 H 172.709 4.42684 -1.98131 0
M  V30 1765 H 168.588 4.54676 -0.760977 0
M  V30 1766 H 172.132 5.70653 -4.01249 0
M  V30 1767 H 168.029 5.82404 -2.78344 0
M  V30 1768 H 168.797 6.73762 -4.64744 0
M  V30 1769 N 171.46 0.379036 1.52974 0
M  V30 1770 C 172.685 -0.209353 2.06341 0
M  V30 1771 C 173.11 -1.40583 1.24972 0
M  V30 1772 O 172.468 -1.79246 0.272155 0
M  V30 1773 C 172.516 -0.567786 3.56102 0
M  V30 1774 O 171.62 -1.66318 3.77375 0
M  V30 1775 H 170.961 -0.0272919 0.663439 0
M  V30 1776 H 173.491 0.543536 1.97248 0
M  V30 1777 H 173.501 -0.835003 3.99364 0
M  V30 1778 H 172.176 0.307013 4.14765 0
M  V30 1779 H 170.753 -1.39048 3.46006 0
M  V30 1780 N 172.938 -1.57226 0.108567 0
M  V30 1781 C 173.848 -2.18292 -0.859401 0
M  V30 1782 C 174.864 -1.15612 -1.30038 0
M  V30 1783 O 176.04 -1.48039 -1.36552 0
M  V30 1784 C 173.105 -2.762 -2.09558 0
M  V30 1785 C 172.166 -3.93881 -1.70752 0
M  V30 1786 C 171.399 -4.49018 -2.88477 0
M  V30 1787 O 171.622 -4.03068 -4.036 0
M  V30 1788 O 170.556 -5.39852 -2.66164 0
M  V30 1789 H 174.382 -3.01441 -0.369769 0
M  V30 1790 H 171.967 -1.48945 -0.1165 0
M  V30 1791 H 173.849 -3.13156 -2.81978 0
M  V30 1792 H 172.524 -1.96089 -2.57548 0
M  V30 1793 H 171.431 -3.61713 -0.954714 0
M  V30 1794 H 172.764 -4.75396 -1.27513 0
M  V30 1795 N 174.416 0.165178 -1.56732 0
M  V30 1796 C 175.363 1.2044 -1.96883 0
M  V30 1797 C 176.333 1.43664 -0.833657 0
M  V30 1798 O 177.518 1.56302 -1.09427 0
M  V30 1799 C 174.658 2.53727 -2.33916 0
M  V30 1800 C 173.771 2.3783 -3.6064 0
M  V30 1801 C 172.906 3.64026 -3.86857 0
M  V30 1802 C 171.945 3.43088 -5.06909 0
M  V30 1803 N 171.082 4.61369 -5.29229 0
M  V30 1804 H 175.922 0.854996 -2.85471 0
M  V30 1805 H 173.459 0.41076 -1.41249 0
M  V30 1806 H 175.417 3.31419 -2.53411 0
M  V30 1807 H 174.047 2.8665 -1.48431 0
M  V30 1808 H 173.099 1.51282 -3.49024 0
M  V30 1809 H 174.411 2.18308 -4.4849 0
M  V30 1810 H 173.565 4.50152 -4.06753 0
M  V30 1811 H 172.304 3.86533 -2.97394 0
M  V30 1812 H 171.309 2.55349 -4.86906 0
M  V30 1813 H 172.534 3.21997 -5.97909 0
M  V30 1814 H 170.48 4.84084 -4.42718 0
M  V30 1815 H 170.397 4.44783 -6.11313 0
M  V30 1816 H 171.665 5.48761 -5.53608 0
M  V30 1817 N 175.894 1.51508 0.433938 0
M  V30 1818 C 177.122 1.68157 1.20543 0
M  V30 1819 C 177.537 0.380362 1.84929 0
M  V30 1820 O 176.894 -0.641446 1.70856 0
M  V30 1821 C 176.945 2.79965 2.28696 0
M  V30 1822 O 176.666 4.05045 1.66943 0
M  V30 1823 C 178.167 3.07912 3.18912 0
M  V30 1824 H 175.387 0.56421 0.363191 0
M  V30 1825 H 177.931 1.97941 0.513754 0
M  V30 1826 H 176.086 2.5277 2.93574 0
M  V30 1827 H 176.5 4.67165 2.38448 0
M  V30 1828 H 177.974 3.89719 3.90926 0
M  V30 1829 H 178.451 2.20456 3.79863 0
M  V30 1830 H 179.057 3.36779 2.59731 0
M  V30 1831 N 177.372 -0.689602 1.41712 0
M  V30 1832 C 178.304 -1.815 1.39966 0
M  V30 1833 C 179.317 -1.59995 0.300917 0
M  V30 1834 O 180.506 -1.69387 0.563039 0
M  V30 1835 C 177.606 -3.18364 1.16179 0
M  V30 1836 C 176.779 -3.66847 2.38206 0
M  V30 1837 C 175.838 -4.82398 2.10186 0
M  V30 1838 O 174.864 -4.93706 2.83272 0
M  V30 1839 N 176.066 -5.70064 1.0958 0
M  V30 1840 H 178.831 -1.83488 2.36965 0
M  V30 1841 H 176.392 -0.872149 1.36401 0
M  V30 1842 H 178.384 -3.93301 0.953756 0
M  V30 1843 H 176.954 -3.11365 0.27756 0
M  V30 1844 H 176.174 -2.82751 2.74673 0
M  V30 1845 H 177.462 -3.95978 3.19498 0
M  V30 1846 H 176.86 -5.63565 0.491019 0
M  V30 1847 H 175.417 -6.44874 0.947656 0
M  V30 1848 N 178.85 -1.27639 -0.924453 0
M  V30 1849 C 179.78 -1.13166 -2.04244 0
M  V30 1850 C 180.761 -0.032256 -1.70069 0
M  V30 1851 O 181.946 -0.207328 -1.9309 0
M  V30 1852 C 179.076 -0.781496 -3.38393 0
M  V30 1853 C 178.03 -1.83449 -3.86692 0
M  V30 1854 C 177.356 -1.33822 -5.17683 0
M  V30 1855 C 178.656 -3.23917 -4.09726 0
M  V30 1856 H 180.35 -2.06689 -2.1661 0
M  V30 1857 H 177.896 -0.995136 -1.04082 0
M  V30 1858 H 179.849 -0.667057 -4.16087 0
M  V30 1859 H 178.573 0.189439 -3.2605 0
M  V30 1860 H 177.232 -1.93789 -3.11193 0
M  V30 1861 H 176.88 -0.35665 -5.01734 0
M  V30 1862 H 176.58 -2.04224 -5.50968 0
M  V30 1863 H 178.104 -1.23679 -5.97943 0
M  V30 1864 H 179.518 -3.16559 -4.77978 0
M  V30 1865 H 177.915 -3.92059 -4.54324 0
M  V30 1866 H 178.985 -3.68729 -3.14908 0
M  V30 1867 N 180.328 1.1314 -1.09713 0
M  V30 1868 C 181.558 1.88048 -0.855656 0
M  V30 1869 C 181.966 1.79537 0.596919 0
M  V30 1870 O 181.309 1.16196 1.42282 0
M  V30 1871 C 181.371 3.38314 -1.21589 0
M  V30 1872 C 181.035 3.70605 -2.67397 0
M  V30 1873 C 182.032 3.69596 -3.65643 0
M  V30 1874 C 179.717 4.0017 -3.03593 0
M  V30 1875 C 181.711 3.977 -4.9811 0
M  V30 1876 C 179.398 4.27935 -4.36251 0
M  V30 1877 C 180.396 4.26685 -5.33318 0
M  V30 1878 O 180.084 4.53767 -6.63589 0
M  V30 1879 H 179.816 0.60208 -0.307368 0
M  V30 1880 H 182.37 1.44128 -1.46343 0
M  V30 1881 H 180.6 3.82752 -0.551177 0
M  V30 1882 H 182.289 3.94552 -0.953083 0
M  V30 1883 H 183.055 3.46826 -3.39023 0
M  V30 1884 H 178.934 4.00289 -2.2867 0
M  V30 1885 H 182.478 3.9664 -5.73866 0
M  V30 1886 H 178.375 4.50178 -4.62613 0
M  V30 1887 H 179.143 4.71422 -6.69107 0
M  V30 1888 N 181.806 0.884767 1.30421 0
M  V30 1889 C 182.754 0.340869 2.30089 0
M  V30 1890 C 183.748 -0.55201 1.60154 0
M  V30 1891 O 184.954 -0.436467 1.74628 0
M  V30 1892 H 181.329 0.0915739 0.746404 0
M  V30 1893 H 183.3 1.19513 2.73421 0
M  V30 1894 C 182.049 -0.429779 3.45034 0
M  V30 1895 H 181.372 0.248024 3.9903 0
M  V30 1896 H 182.812 -0.775445 4.16849 0
M  V30 1897 C 181.271 -1.62677 2.95022 0
M  V30 1898 O 181.801 -2.72614 2.95033 0
M  V30 1899 N 180.007 -1.46387 2.51036 0
M  V30 1900 H 179.554 -0.569506 2.51226 0
M  V30 1901 H 179.512 -2.26612 2.17932 0
M  V30 1902 N 183.284 -1.43765 0.645699 0
M  V30 1903 C 184.231 -2.30745 -0.0504648 0
M  V30 1904 C 185.201 -1.4432 -0.822241 0
M  V30 1905 O 186.386 -1.73202 -0.800358 0
M  V30 1906 C 183.526 -3.29802 -1.0161 0
M  V30 1907 C 182.639 -4.31326 -0.241219 0
M  V30 1908 C 181.774 -5.17469 -1.19998 0
M  V30 1909 C 180.813 -6.10691 -0.415094 0
M  V30 1910 N 179.95 -6.89483 -1.32506 0
M  V30 1911 H 184.79 -2.8973 0.697155 0
M  V30 1912 H 182.327 -1.42738 0.355563 0
M  V30 1913 H 184.285 -3.85734 -1.58949 0
M  V30 1914 H 182.915 -2.72483 -1.73069 0
M  V30 1915 H 181.967 -3.77749 0.448334 0
M  V30 1916 H 183.279 -4.9743 0.369437 0
M  V30 1917 H 182.433 -5.7799 -1.84424 0
M  V30 1918 H 181.172 -4.51473 -1.84455 0
M  V30 1919 H 180.177 -5.49265 0.242565 0
M  V30 1920 H 181.402 -6.78727 0.224966 0
M  V30 1921 H 179.348 -6.26142 -1.95657 0
M  V30 1922 H 179.265 -7.52081 -0.768783 0
M  V30 1923 H 180.533 -7.54516 -1.9577 0
M  V30 1924 N 184.763 -0.387143 -1.52771 0
M  V30 1925 C 186.174 0.0873634 -1.86495 0
M  V30 1926 C 186.525 1.46336 -1.30691 0
M  V30 1927 O 185.65 2.068 -0.637409 0
M  V30 1928 C 186.245 0.165305 -3.38396 0
M  V30 1929 C 184.804 0.584101 -3.7184 0
M  V30 1930 C 183.951 -0.255279 -2.76122 0
M  V30 1931 H 186.902 -0.605104 -1.46711 0
M  V30 1932 H 186.923 0.984848 -3.67534 0
M  V30 1933 H 186.435 -0.836301 -3.78982 0
M  V30 1934 H 184.536 1.59315 -3.36823 0
M  V30 1935 H 184.649 0.343749 -4.77865 0
M  V30 1936 H 183.013 0.279126 -2.53166 0
M  V30 1937 H 183.796 -1.25482 -3.19545 0
M  V30 1938 N 186.241 1.57166 -0.116904 0
M  V30 1939 C 187.191 2.11756 0.845178 0
M  V30 1940 C 188.175 1.03783 1.22955 0
M  V30 1941 O 189.367 1.3002 1.20099 0
M  V30 1942 C 186.496 2.71886 2.09602 0
M  V30 1943 C 185.582 3.86937 1.7361 0
M  V30 1944 N 185.973 4.94073 1.08284 0
M  V30 1945 C 184.271 3.97082 2.03082 0
M  V30 1946 C 184.972 5.74477 0.913855 0
M  V30 1947 N 183.948 5.2423 1.43818 0
M  V30 1948 H 187.75 2.91967 0.336523 0
M  V30 1949 H 185.264 1.62174 0.0856332 0
M  V30 1950 H 187.261 3.09338 2.79492 0
M  V30 1951 H 185.921 1.93138 2.61013 0
M  V30 1952 H 186.932 5.12483 0.747067 0
M  V30 1953 H 183.609 3.29372 2.56554 0
M  V30 1954 H 184.999 6.70701 0.40125 0
M  V30 1955 N 187.719 -0.156864 1.56817 0
M  V30 1956 C 188.629 -1.2136 2.00771 0
M  V30 1957 C 189.645 -1.47598 0.921459 0
M  V30 1958 O 190.821 -1.59462 1.2302 0
M  V30 1959 C 187.886 -2.52943 2.37109 0
M  V30 1960 C 186.947 -2.34439 3.59634 0
M  V30 1961 C 186.18 -3.59748 3.94229 0
M  V30 1962 O 186.403 -4.65526 3.29609 0
M  V30 1963 O 185.337 -3.52998 4.8752 0
M  V30 1964 H 189.163 -0.870468 2.90958 0
M  V30 1965 H 186.748 -0.36484 1.44877 0
M  V30 1966 H 188.63 -3.30538 2.61386 0
M  V30 1967 H 187.305 -2.86806 1.5008 0
M  V30 1968 H 186.212 -1.54828 3.40557 0
M  V30 1969 H 187.545 -2.05496 4.4725 0
M  V30 1970 N 189.197 -1.51736 -0.425897 0
M  V30 1971 C 190.107 -1.76738 -1.54275 0
M  V30 1972 C 191.123 -0.65211 -1.61318 0
M  V30 1973 O 192.299 -0.935654 -1.78346 0
M  V30 1974 C 189.364 -1.89755 -2.90162 0
M  V30 1975 C 188.425 -3.13633 -2.93143 0
M  V30 1976 C 187.658 -3.2602 -4.22548 0
M  V30 1977 O 187.881 -2.44067 -5.15546 0
M  V30 1978 O 186.815 -4.19071 -4.32046 0
M  V30 1979 H 190.641 -2.71502 -1.36089 0
M  V30 1980 H 188.226 -1.36376 -0.610069 0
M  V30 1981 H 190.108 -2.00236 -3.70788 0
M  V30 1982 H 188.783 -0.981785 -3.08452 0
M  V30 1983 H 187.69 -3.08622 -2.11431 0
M  V30 1984 H 189.023 -4.04936 -2.798 0
M  V30 1985 N 190.675 0.682077 -1.42076 0
M  V30 1986 C 192.086 1.26246 -1.37546 0
M  V30 1987 C 192.437 1.96092 -0.0651481 0
M  V30 1988 O 191.562 1.99587 0.836297 0
M  V30 1989 C 192.157 2.29594 -2.49143 0
M  V30 1990 C 190.716 2.83175 -2.47969 0
M  V30 1991 C 189.863 1.57395 -2.28303 0
M  V30 1992 H 192.814 0.475937 -1.51395 0
M  V30 1993 H 192.835 3.11175 -2.18976 0
M  V30 1994 H 192.347 1.78729 -3.44496 0
M  V30 1995 H 190.448 3.3818 -1.56413 0
M  V30 1996 H 190.561 3.32687 -3.44755 0
M  V30 1997 H 188.925 1.83699 -1.76428 0
M  V30 1998 H 189.708 1.08507 -3.25701 0
M  V30 1999 N 192.153 1.28127 0.917671 0
M  V30 2000 C 193.378 1.18007 1.70555 0
M  V30 2001 C 193.803 -0.258257 1.86319 0
M  V30 2002 O 193.161 -1.1869 1.37049 0
M  V30 2003 C 193.209 1.87948 3.07746 0
M  V30 2004 O 192.313 1.18427 3.9503 0
M  V30 2005 H 191.654 0.409867 0.522403 0
M  V30 2006 H 194.184 1.69379 1.1477 0
M  V30 2007 H 194.194 1.95701 3.58001 0
M  V30 2008 H 192.869 2.92573 2.95591 0
M  V30 2009 H 191.446 1.18811 3.53466 0
M  V30 2010 N 193.631 -1.12557 1.10312 0
M  V30 2011 C 194.579 -2.20325 0.745629 0
M  V30 2012 C 195.573 -1.67429 -0.25763 0
M  V30 2013 O 196.779 -1.79612 -0.118132 0
M  V30 2014 H 193.154 -0.718118 0.223182 0
M  V30 2015 H 195.125 -2.47733 1.66346 0
M  V30 2016 C 193.874 -3.47168 0.192262 0
M  V30 2017 H 193.197 -3.88215 0.955475 0
M  V30 2018 H 194.637 -4.23995 -0.0198274 0
M  V30 2019 C 193.096 -3.19298 -1.07472 0
M  V30 2020 O 193.626 -3.3891 -2.15645 0
M  V30 2021 N 191.832 -2.73113 -0.992847 0
M  V30 2022 H 191.379 -2.57354 -0.112474 0
M  V30 2023 H 191.337 -2.54842 -1.84127 0
M  V30 2024 N 195.109 -0.891671 -1.2995 0
M  V30 2025 C 196.334 -0.527932 -2.00568 0
M  V30 2026 C 196.759 0.877969 -1.66353 0
M  V30 2027 O 196.117 1.58301 -0.883762 0
M  V30 2028 C 196.165 -0.717745 -3.53385 0
M  V30 2029 O 195.269 0.233376 -4.11739 0
M  V30 2030 H 194.61 -0.20722 -0.630837 0
M  V30 2031 H 197.14 -1.20105 -1.65638 0
M  V30 2032 H 197.15 -0.619307 -4.03272 0
M  V30 2033 H 195.825 -1.74276 -3.77625 0
M  V30 2034 H 194.402 0.0880706 -3.72796 0
M  V30 2035 N 196.587 1.43421 -0.653314 0
M  V30 2036 C 197.517 2.33487 0.0246656 0
M  V30 2037 C 198.498 1.49475 0.811863 0
M  V30 2038 O 199.683 1.78139 0.773322 0
M  V30 2039 C 196.813 3.32841 0.99166 0
M  V30 2040 C 195.767 4.26842 0.314568 0
M  V30 2041 C 195.093 5.16236 1.39302 0
M  V30 2042 C 196.393 5.16243 -0.793095 0
M  V30 2043 H 198.087 2.90427 -0.727481 0
M  V30 2044 H 195.633 1.39649 -0.351287 0
M  V30 2045 H 197.586 3.94747 1.47487 0
M  V30 2046 H 196.31 2.74158 1.77497 0
M  V30 2047 H 194.969 3.663 -0.148199 0
M  V30 2048 H 194.617 4.53891 2.16776 0
M  V30 2049 H 194.317 5.79948 0.945223 0
M  V30 2050 H 195.841 5.81015 1.87759 0
M  V30 2051 H 197.255 5.71958 -0.392039 0
M  V30 2052 H 195.652 5.88676 -1.16536 0
M  V30 2053 H 196.722 4.55927 -1.65103 0
M  V30 2054 N 198.065 0.39524 1.52563 0
M  V30 2055 C 198.998 -0.4813 2.23067 0
M  V30 2056 C 199.976 -1.05927 1.23362 0
M  V30 2057 O 201.16 -1.10979 1.52368 0
M  V30 2058 C 198.287 -1.66676 2.9485 0
M  V30 2059 C 197.333 -1.21348 4.08873 0
M  V30 2060 S 198.166 -0.190102 5.35162 0
M  V30 2061 C 199.322 -1.38121 6.1047 0
M  V30 2062 H 199.555 0.117381 2.97068 0
M  V30 2063 H 197.088 0.179458 1.53354 0
M  V30 2064 H 199.046 -2.3466 3.36816 0
M  V30 2065 H 197.707 -2.23676 2.20518 0
M  V30 2066 H 196.9 -2.09877 4.58222 0
M  V30 2067 H 196.502 -0.612486 3.68951 0
M  V30 2068 H 198.794 -2.30726 6.37002 0
M  V30 2069 H 199.737 -0.928521 7.01986 0
M  V30 2070 H 200.145 -1.60071 5.41329 0
M  V30 2071 N 199.544 -1.57102 0.125237 0
M  V30 2072 C 200.507 -2.14471 -0.80838 0
M  V30 2073 C 201.507 -1.0811 -1.19033 0
M  V30 2074 O 202.697 -1.33856 -1.11482 0
M  V30 2075 C 199.829 -2.69005 -2.09402 0
M  V30 2076 H 201.022 -2.98297 -0.309696 0
M  V30 2077 H 198.575 -1.55807 -0.124051 0
M  V30 2078 H 199.31 -1.88785 -2.63687 0
M  V30 2079 H 199.095 -3.46799 -1.82957 0
M  V30 2080 H 200.585 -3.13278 -2.76128 0
M  V30 2081 N 201.022 0.148545 -1.56898 0
M  V30 2082 C 202.271 0.85984 -1.82454 0
M  V30 2083 C 202.584 1.82406 -0.706229 0
M  V30 2084 O 203.79 2.57938 -0.847349 0
M  V30 2085 C 202.246 1.57967 -3.2338 0
M  V30 2086 C 201.854 0.65794 -4.43142 0
M  V30 2087 C 203.598 2.27784 -3.58211 0
M  V30 2088 C 201.505 1.3793 -5.75091 0
M  V30 2089 H 200.435 0.324834 -0.68044 0
M  V30 2090 H 203.086 0.112588 -1.83154 0
M  V30 2091 H 201.468 2.37249 -3.17063 0
M  V30 2092 H 202.642 -0.0995497 -4.60692 0
M  V30 2093 H 200.957 0.0682643 -4.16344 0
M  V30 2094 H 203.554 2.8239 -4.54048 0
M  V30 2095 H 203.897 3.04204 -2.84193 0
M  V30 2096 H 204.43 1.55421 -3.66182 0
M  V30 2097 H 201.169 0.656982 -6.52199 0
M  V30 2098 H 200.689 2.10954 -5.61479 0
M  V30 2099 H 202.368 1.92063 -6.17835 0
M  V30 2100 N 202.5 1.5196 0.417844 0
M  V30 2101 C 203.41 1.77554 1.53336 0
M  V30 2102 C 204.426 0.660655 1.6097 0
M  V30 2103 O 205.602 0.945099 1.77848 0
M  V30 2104 C 202.667 1.91291 2.89152 0
M  V30 2105 C 201.728 3.15183 2.91475 0
M  V30 2106 C 200.961 3.28256 4.20813 0
M  V30 2107 O 201.184 2.46798 5.14244 0
M  V30 2108 O 200.118 4.21356 4.29817 0
M  V30 2109 H 203.944 2.7222 1.34647 0
M  V30 2110 H 201.529 1.36698 0.602828 0
M  V30 2111 H 203.411 2.02199 3.69721 0
M  V30 2112 H 202.086 0.998129 3.07927 0
M  V30 2113 H 200.993 3.09739 2.09791 0
M  V30 2114 H 202.326 4.06414 2.77648 0
M  V30 2115 N 203.978 -0.674533 1.42435 0
M  V30 2116 C 205.218 -1.4466 1.44405 0
M  V30 2117 C 205.582 -1.91911 0.0585784 0
M  V30 2118 O 206.783 -2.68759 -0.0469991 0
M  V30 2119 C 205.054 -2.61136 2.44013 0
M  V30 2120 S 206.613 -3.49981 2.64687 0
M  V30 2121 H 203.431 -0.494074 0.511284 0
M  V30 2122 H 206.033 -0.785162 1.7904 0
M  V30 2123 H 204.737 -2.24662 3.43446 0
M  V30 2124 H 204.268 -3.32153 2.10803 0
M  V30 2125 H 206.283 -4.57124 1.93007 0
M  V30 2126 N 205.456 -1.28612 -0.910864 0
M  V30 2127 C 206.872 -1.06381 -1.18976 0
M  V30 2128 C 207.072 0.191998 -2.00583 0
M  V30 2129 O 206.128 0.892869 -2.36187 0
M  V30 2130 C 207.441 -2.31295 -1.92154 0
M  V30 2131 C 208.989 -2.36503 -2.05025 0
M  V30 2132 C 209.464 -3.61191 -2.81612 0
M  V30 2133 N 210.955 -3.61847 -2.89172 0
M  V30 2134 C 211.69 -4.55004 -3.4894 0
M  V30 2135 N 211.186 -5.58482 -4.09963 0
M  V30 2136 N 212.979 -4.42594 -3.46506 0
M  V30 2137 H 205.13 -2.09221 -0.366094 0
M  V30 2138 H 207.393 -0.921003 -0.224629 0
M  V30 2139 H 207.099 -3.228 -1.39618 0
M  V30 2140 H 206.973 -2.37934 -2.9269 0
M  V30 2141 H 209.36 -1.45494 -2.5674 0
M  V30 2142 H 209.441 -2.33857 -1.03657 0
M  V30 2143 H 209.085 -4.52545 -2.30576 0
M  V30 2144 H 209.015 -3.61092 -3.83302 0
M  V30 2145 H 211.506 -2.87022 -2.45819 0
M  V30 2146 H 211.819 -6.25704 -4.53557 0
M  V30 2147 H 210.164 -5.62305 -4.08459 0
M  V30 2148 H 213.355 -3.60953 -2.98045 0
M  V30 2149 H 213.528 -5.15381 -3.92793 0
M  V30 2150 N 206.934 1.1197 -1.10907 0
M  V30 2151 C 208.18 1.8386 -0.855773 0
M  V30 2152 C 208.513 1.84134 0.617103 0
M  V30 2153 O 207.788 1.29041 1.45529 0
M  V30 2154 C 208.071 3.31305 -1.411 0
M  V30 2155 C 207.924 3.39456 -2.9511 0
M  V30 2156 C 209.243 4.2721 -1.05736 0
M  V30 2157 H 206.362 0.667545 -0.312334 0
M  V30 2158 H 209.004 1.31331 -1.37303 0
M  V30 2159 H 207.154 3.76169 -0.97105 0
M  V30 2160 H 208.826 3.03191 -3.47668 0
M  V30 2161 H 207.069 2.79849 -3.31462 0
M  V30 2162 H 207.74 4.43209 -3.29044 0
M  V30 2163 H 210.216 3.90497 -1.43706 0
M  V30 2164 H 209.092 5.28775 -1.47269 0
M  V30 2165 H 209.353 4.42088 0.0325958 0
M  V30 2166 N 208.412 0.89855 1.29475 0
M  V30 2167 C 209.652 0.530771 1.97388 0
M  V30 2168 C 210.016 -0.905832 1.69289 0
M  V30 2169 O 211.217 -1.38042 2.30646 0
M  V30 2170 C 209.488 0.81369 3.48014 0
M  V30 2171 S 211.047 0.550048 4.35339 0
M  V30 2172 H 207.865 0.196956 0.683176 0
M  V30 2173 H 210.467 1.16074 1.57312 0
M  V30 2174 H 209.171 1.85749 3.65958 0
M  V30 2175 H 208.702 0.171795 3.93025 0
M  V30 2176 H 210.717 -0.605423 4.92493 0
M  V30 2177 N 209.89 -1.43072 0.660911 0
M  V30 2178 C 211.138 -2.01323 0.177094 0
M  V30 2179 C 211.459 -1.5245 -1.2159 0
M  V30 2180 O 210.729 -0.740322 -1.81373 0
M  V30 2181 H 209.309 -0.744382 0.0624804 0
M  V30 2182 H 211.971 -1.75179 0.854305 0
M  V30 2183 H 211.067 -3.11649 0.167641 0
M  V30 2184 N 211.368 -0.403325 -1.52352 0
M  V30 2185 C 212.645 0.232611 -1.94212 0
M  V30 2186 C 213.025 1.63133 -1.33981 0
M  V30 2187 O 212.373 2.22659 -0.513344 0
M  V30 2188 C 212.583 0.244811 -3.4814 0
M  V30 2189 C 213.931 0.46698 -4.22024 0
M  V30 2190 O 214.955 0.324419 -3.5472 0
M  V30 2191 O 213.814 0.74747 -5.41364 0
M  V30 2192 H 210.908 0.148223 -0.813609 0
M  V30 2193 H 213.454 -0.458848 -1.63379 0
M  V30 2194 H 212.226 -0.734378 -3.84347 0
M  V30 2195 H 211.849 0.980611 -3.85318 0
M  V30 2196 N 212.846 1.57033 -0.133567 0
M  V30 2197 C 213.793 2.16074 0.811208 0
M  V30 2198 C 214.763 1.08979 1.2535 0
M  V30 2199 O 215.948 1.36958 1.32843 0
M  V30 2200 C 213.088 2.77595 2.05024 0
M  V30 2201 C 212.201 3.99042 1.65498 0
M  V30 2202 C 211.336 4.48603 2.84479 0
M  V30 2203 C 210.375 5.62547 2.41262 0
M  V30 2204 N 209.512 6.06787 3.53206 0
M  V30 2205 H 214.352 2.96477 0.300906 0
M  V30 2206 H 211.889 1.46462 0.136822 0
M  V30 2207 H 213.847 3.11402 2.77642 0
M  V30 2208 H 212.477 1.99859 2.53488 0
M  V30 2209 H 211.529 3.71302 0.826981 0
M  V30 2210 H 212.841 4.81629 1.29748 0
M  V30 2211 H 211.995 4.84395 3.65303 0
M  V30 2212 H 210.734 3.64995 3.23465 0
M  V30 2213 H 209.739 5.26345 1.58874 0
M  V30 2214 H 210.964 6.47931 2.03377 0
M  V30 2215 H 208.91 5.26117 3.91838 0
M  V30 2216 H 208.827 6.84266 3.21427 0
M  V30 2217 H 210.095 6.4722 4.34427 0
M  V30 2218 N 214.325 -0.140222 1.56975 0
M  V30 2219 C 215.288 -1.15689 1.97861 0
M  V30 2220 C 216.288 -1.3549 0.865974 0
M  V30 2221 O 217.478 -1.32367 1.13246 0
M  V30 2222 C 214.61 -2.51582 2.30042 0
M  V30 2223 H 215.803 -0.805971 2.88867 0
M  V30 2224 H 213.356 -0.383801 1.51515 0
M  V30 2225 H 214.091 -2.91632 1.41849 0
M  V30 2226 H 213.876 -2.38569 3.11171 0
M  V30 2227 H 215.366 -3.24792 2.62488 0
M  V30 2228 N 215.803 -1.52179 -0.40978 0
M  V30 2229 C 217.028 -1.70347 -1.18308 0
M  V30 2230 C 217.453 -0.411887 -1.83535 0
M  V30 2231 O 216.811 0.630587 -1.6998 0
M  V30 2232 C 216.859 -2.83977 -2.22238 0
M  V30 2233 O 215.963 -2.495 -3.28365 0
M  V30 2234 H 215.304 -0.567103 -0.345384 0
M  V30 2235 H 217.834 -1.98879 -0.480445 0
M  V30 2236 H 217.844 -3.0887 -2.66577 0
M  V30 2237 H 216.519 -3.77685 -1.74146 0
M  V30 2238 H 215.096 -2.35277 -2.89308 0
M  V30 2239 N 217.281 0.66697 -1.42791 0
M  V30 2240 C 218.529 1.42417 -1.43394 0
M  V30 2241 C 218.85 1.94925 -0.0542373 0
M  V30 2242 O 218.12 1.73564 0.908415 0
M  V30 2243 H 216.7 0.528515 -0.527902 0
M  V30 2244 H 219.362 0.787562 -1.78279 0
M  V30 2245 H 218.458 2.27333 -2.13837 0
M  V30 2246 N 218.759 1.29093 0.90403 0
M  V30 2247 C 220.006 1.16813 1.65411 0
M  V30 2248 C 220.334 -0.28128 1.92455 0
M  V30 2249 O 219.589 -1.22006 1.53013 0
M  V30 2250 C 219.888 1.92224 3.01305 0
M  V30 2251 C 219.554 3.41968 2.93885 0
M  V30 2252 C 218.216 3.82807 2.91569 0
M  V30 2253 C 220.568 4.37409 2.83413 0
M  V30 2254 C 217.896 5.1741 2.76594 0
M  V30 2255 C 220.248 5.72097 2.69977 0
M  V30 2256 C 218.912 6.12199 2.66024 0
M  V30 2257 H 218.182 0.42745 0.605283 0
M  V30 2258 H 220.829 1.59981 1.05254 0
M  V30 2259 H 219.134 1.41635 3.65304 0
M  V30 2260 H 220.831 1.80131 3.58265 0
M  V30 2261 H 217.421 3.09504 2.96488 0
M  V30 2262 H 221.605 4.06813 2.84283 0
M  V30 2263 H 216.861 5.47596 2.71935 0
M  V30 2264 H 221.035 6.45704 2.60844 0
M  V30 2265 H 218.662 7.16448 2.54178 0
M  V30 2266 N 220.237 -1.11381 1.11499 0
M  V30 2267 C 221.187 -2.15555 0.74298 0
M  V30 2268 C 222.171 -1.58894 -0.253276 0
M  V30 2269 O 223.363 -1.76897 -0.0602918 0
M  V30 2270 C 220.492 -3.42782 0.188481 0
M  V30 2271 C 219.578 -4.064 1.21244 0
M  V30 2272 N 219.969 -4.44864 2.40685 0
M  V30 2273 C 218.267 -4.3333 1.05552 0
M  V30 2274 C 218.968 -4.94715 3.05994 0
M  V30 2275 N 217.944 -4.90909 2.33472 0
M  V30 2276 H 221.746 -2.43074 1.65203 0
M  V30 2277 H 219.26 -1.28401 0.994329 0
M  V30 2278 H 221.257 -4.16789 -0.0961693 0
M  V30 2279 H 219.917 -3.16727 -0.715149 0
M  V30 2280 H 220.928 -4.36876 2.78136 0
M  V30 2281 H 217.605 -4.1698 0.208372 0
M  V30 2282 H 218.995 -5.34103 4.07656 0
M  V30 2283 N 221.715 -0.905404 -1.28997 0
M  V30 2284 C 222.945 -0.549049 -1.99171 0
M  V30 2285 C 223.353 0.87203 -1.67906 0
M  V30 2286 O 222.696 1.58796 -0.923561 0
M  V30 2287 C 222.758 -0.668306 -3.53234 0
M  V30 2288 C 222.422 -2.0574 -4.08069 0
M  V30 2289 C 223.419 -3.0292 -4.22534 0
M  V30 2290 C 221.104 -2.36833 -4.42962 0
M  V30 2291 C 223.098 -4.29314 -4.71135 0
M  V30 2292 C 220.785 -3.63467 -4.91258 0
M  V30 2293 C 221.783 -4.59522 -5.053 0
M  V30 2294 O 221.471 -5.83907 -5.52546 0
M  V30 2295 H 221.203 -0.208784 -0.64295 0
M  V30 2296 H 223.757 -1.21836 -1.65363 0
M  V30 2297 H 221.987 0.0580547 -3.86656 0
M  V30 2298 H 223.676 -0.320273 -4.04634 0
M  V30 2299 H 224.442 -2.80216 -3.95859 0
M  V30 2300 H 220.321 -1.62824 -4.31288 0
M  V30 2301 H 223.865 -5.04293 -4.8201 0
M  V30 2302 H 219.762 -3.86 -5.17372 0
M  V30 2303 H 220.53 -5.86578 -5.70849 0
M  V30 2304 N 223.193 1.4272 -0.668489 0
M  V30 2305 C 224.441 2.01226 -0.187769 0
M  V30 2306 C 224.762 1.53092 1.2078 0
M  V30 2307 O 224.032 0.74993 1.80977 0
M  V30 2308 H 222.612 0.744041 -0.0664272 0
M  V30 2309 H 225.274 1.74723 -0.863583 0
M  V30 2310 H 224.37 3.11556 -0.184166 0
M  V30 2311 N 224.671 0.411399 1.52136 0
M  V30 2312 C 225.917 -0.163888 2.02137 0
M  V30 2313 C 226.25 -1.44597 1.29636 0
M  V30 2314 O 225.525 -1.90272 0.403353 0
M  V30 2315 C 225.808 -0.40927 3.57767 0
M  V30 2316 C 225.661 0.889643 4.40914 0
M  V30 2317 C 226.98 -1.19042 4.23694 0
M  V30 2318 H 224.099 -0.0580896 0.734707 0
M  V30 2319 H 226.741 0.54531 1.82007 0
M  V30 2320 H 224.891 -1.0134 3.7505 0
M  V30 2321 H 226.563 1.52575 4.35337 0
M  V30 2322 H 224.806 1.50011 4.07037 0
M  V30 2323 H 225.477 0.672314 5.4789 0
M  V30 2324 H 227.953 -0.678942 4.10524 0
M  V30 2325 H 226.829 -1.33086 5.32522 0
M  V30 2326 H 227.09 -2.21166 3.82803 0
M  V30 2327 N 226.149 -1.5696 0.141893 0
M  V30 2328 C 227.099 -2.13074 -0.811383 0
M  V30 2329 C 228.083 -1.05726 -1.21288 0
M  V30 2330 O 229.275 -1.31914 -1.18015 0
M  V30 2331 C 226.404 -2.75186 -2.0525 0
M  V30 2332 C 225.49 -3.8965 -1.67432 0
M  V30 2333 N 225.881 -4.95733 -1.0041 0
M  V30 2334 C 224.179 -4.00262 -1.96739 0
M  V30 2335 C 224.88 -5.75858 -0.822345 0
M  V30 2336 N 223.856 -5.26452 -1.3546 0
M  V30 2337 H 227.658 -2.92465 -0.290031 0
M  V30 2338 H 225.172 -1.6229 -0.0598218 0
M  V30 2339 H 227.169 -3.13745 -2.74535 0
M  V30 2340 H 225.829 -1.97266 -2.57907 0
M  V30 2341 H 226.84 -5.13607 -0.665441 0
M  V30 2342 H 223.517 -3.33412 -2.51282 0
M  V30 2343 H 224.907 -6.71254 -0.294496 0
M  V30 2344 N 227.627 0.131896 -1.57047 0
M  V30 2345 C 228.59 1.14638 -1.98471 0
M  V30 2346 C 229.59 1.35029 -0.873148 0
M  V30 2347 O 230.78 1.31764 -1.13946 0
M  V30 2348 C 227.912 2.50358 -2.31373 0
M  V30 2349 H 229.105 0.79064 -2.8929 0
M  V30 2350 H 226.658 0.375761 -1.51716 0
M  V30 2351 H 227.393 2.90876 -1.43393 0
M  V30 2352 H 227.178 2.36915 -3.12432 0
M  V30 2353 H 228.668 3.23395 -2.64207 0
M  V30 2354 N 229.106 1.52395 0.401703 0
M  V30 2355 C 230.346 1.68498 1.15705 0
M  V30 2356 C 230.71 0.409748 1.87577 0
M  V30 2357 O 231.911 0.446983 2.65058 0
M  V30 2358 C 230.182 2.87789 2.11924 0
M  V30 2359 S 231.741 3.24415 2.95466 0
M  V30 2360 H 228.559 0.593267 0.391862 0
M  V30 2361 H 231.161 1.90408 0.443282 0
M  V30 2362 H 229.865 3.7884 1.57824 0
M  V30 2363 H 229.396 2.68175 2.87829 0
M  V30 2364 H 231.411 2.73614 4.13944 0
M  V30 2365 N 230.584 -0.659388 1.43143 0
M  V30 2366 C 231.494 -1.80167 1.50256 0
M  V30 2367 C 232.51 -1.69571 0.390106 0
M  V30 2368 O 233.686 -1.90849 0.643319 0
M  V30 2369 C 230.751 -3.16409 1.41725 0
M  V30 2370 C 229.812 -3.38848 2.63591 0
M  V30 2371 C 229.045 -4.68591 2.55458 0
M  V30 2372 O 229.268 -5.47532 1.59891 0
M  V30 2373 O 228.202 -4.92614 3.45854 0
M  V30 2374 H 232.028 -1.77121 2.46702 0
M  V30 2375 H 229.613 -0.817092 1.25076 0
M  V30 2376 H 231.495 -3.9768 1.39387 0
M  V30 2377 H 230.17 -3.20059 0.484118 0
M  V30 2378 H 229.077 -2.57366 2.71502 0
M  V30 2379 H 230.41 -3.4004 3.55856 0
M  V30 2380 N 232.062 -1.29571 -0.897171 0
M  V30 2381 C 233.31 -1.17456 -1.64464 0
M  V30 2382 C 233.631 0.273698 -1.9307 0
M  V30 2383 O 232.901 1.18684 -1.55855 0
M  V30 2384 H 231.481 -0.431706 -0.609622 0
M  V30 2385 H 234.143 -1.62531 -1.07562 0
M  V30 2386 H 233.239 -1.72648 -2.59998 0
M  V30 2387 N 233.54 1.10788 -1.12088 0
M  V30 2388 C 234.78 1.84297 -0.883974 0
M  V30 2389 C 235.144 1.83036 0.579797 0
M  V30 2390 O 236.345 2.52061 0.933734 0
M  V30 2391 C 234.616 3.27173 -1.43849 0
M  V30 2392 S 236.175 4.17853 -1.33957 0
M  V30 2393 H 232.993 0.635433 -0.318977 0
M  V30 2394 H 235.595 1.33341 -1.4297 0
M  V30 2395 H 234.299 3.25658 -2.49749 0
M  V30 2396 H 233.83 3.83198 -0.890096 0
M  V30 2397 H 235.845 4.95239 -0.308603 0
M  V30 2398 N 235.018 0.912232 1.28515 0
M  V30 2399 C 235.965 0.397954 2.27343 0
M  V30 2400 C 236.935 -0.526766 1.57526 0
M  V30 2401 O 238.12 -0.449292 1.85435 0
M  V30 2402 C 235.26 -0.357263 3.43246 0
M  V30 2403 C 234.373 0.599788 4.27816 0
M  V30 2404 C 233.508 -0.173725 5.30916 0
M  V30 2405 C 232.547 0.777039 6.07148 0
M  V30 2406 N 231.684 0.0371398 7.0209 0
M  V30 2407 H 236.524 1.24577 2.70711 0
M  V30 2408 H 234.061 0.625612 1.33133 0
M  V30 2409 H 236.019 -0.8113 4.09236 0
M  V30 2410 H 234.649 -1.16943 3.00872 0
M  V30 2411 H 233.701 1.17235 3.61884 0
M  V30 2412 H 235.013 1.32704 4.80823 0
M  V30 2413 H 234.167 -0.688394 6.02782 0
M  V30 2414 H 232.906 -0.934041 4.78672 0
M  V30 2415 H 231.911 1.3031 5.34134 0
M  V30 2416 H 233.136 1.53689 6.61481 0
M  V30 2417 H 231.082 -0.705213 6.52198 0
M  V30 2418 H 230.999 0.704249 7.52713 0
M  V30 2419 H 232.267 -0.457383 7.78157 0
M  V30 2420 N 236.496 -1.42363 0.676048 0
M  V30 2421 C 237.744 -2.01123 0.198437 0
M  V30 2422 C 238.065 -1.53731 -1.19966 0
M  V30 2423 O 237.335 -0.759518 -1.80577 0
M  V30 2424 H 235.915 -0.743678 0.0703721 0
M  V30 2425 H 238.577 -1.74263 0.872837 0
M  V30 2426 H 237.673 -3.11454 0.200686 0
M  V30 2427 N 237.974 -0.419461 -1.51915 0
M  V30 2428 C 239.221 0.152939 -2.01922 0
M  V30 2429 C 239.549 1.4426 -1.30458 0
M  V30 2430 O 238.804 1.91514 -0.402593 0
M  V30 2431 C 239.103 0.437067 -3.54717 0
M  V30 2432 C 238.769 -0.764632 -4.44369 0
M  V30 2433 C 237.431 -1.09423 -4.68594 0
M  V30 2434 C 239.783 -1.56713 -4.97082 0
M  V30 2435 C 237.111 -2.22732 -5.42777 0
M  V30 2436 C 239.463 -2.69107 -5.72507 0
M  V30 2437 C 238.127 -3.02541 -5.95 0
M  V30 2438 H 237.397 0.0559644 -0.738884 0
M  V30 2439 H 240.044 -0.562998 -1.83037 0
M  V30 2440 H 238.349 1.23469 -3.71837 0
M  V30 2441 H 240.046 0.893083 -3.90928 0
M  V30 2442 H 236.636 -0.497775 -4.257 0
M  V30 2443 H 240.82 -1.32571 -4.78266 0
M  V30 2444 H 236.076 -2.48971 -5.58411 0
M  V30 2445 H 240.25 -3.31671 -6.12346 0
M  V30 2446 H 237.877 -3.90457 -6.52264 0
M  V30 2447 N 239.452 1.56882 -0.150215 0
M  V30 2448 C 240.699 1.96228 0.500093 0
M  V30 2449 C 241.027 1.03522 1.64661 0
M  V30 2450 O 240.282 0.0650683 1.95592 0
M  V30 2451 C 240.581 3.41801 1.04437 0
M  V30 2452 C 240.247 4.50897 0.0159671 0
M  V30 2453 C 238.909 4.8046 -0.266731 0
M  V30 2454 C 241.261 5.16703 -0.683192 0
M  V30 2455 C 238.589 5.73135 -1.25434 0
M  V30 2456 C 240.941 6.10441 -1.65964 0
M  V30 2457 C 239.605 6.38382 -1.95 0
M  V30 2458 H 238.875 0.718048 0.182997 0
M  V30 2459 H 241.522 1.90019 -0.237724 0
M  V30 2460 H 239.827 3.44857 1.85959 0
M  V30 2461 H 241.524 3.69573 1.55618 0
M  V30 2462 H 238.114 4.27891 0.246485 0
M  V30 2463 H 242.298 4.93993 -0.477983 0
M  V30 2464 H 237.554 5.93074 -1.48571 0
M  V30 2465 H 241.728 6.60507 -2.20689 0
M  V30 2466 H 239.355 7.09996 -2.71679 0
M  V30 2467 N 240.93 -0.123565 1.57115 0
M  V30 2468 C 242.346 -0.476961 1.52306 0
M  V30 2469 C 242.546 -1.82109 0.86248 0
M  V30 2470 O 241.602 -2.48586 0.442884 0
M  V30 2471 C 242.915 -0.465661 2.97073 0
M  V30 2472 C 244.463 -0.549534 3.08138 0
M  V30 2473 C 244.938 -0.568669 4.54456 0
M  V30 2474 N 246.429 -0.630237 4.58892 0
M  V30 2475 C 247.164 -0.666415 5.69514 0
M  V30 2476 N 246.66 -0.660514 6.89644 0
M  V30 2477 N 248.453 -0.709077 5.5761 0
M  V30 2478 H 240.604 0.757198 1.98445 0
M  V30 2479 H 242.867 0.278808 0.906074 0
M  V30 2480 H 242.573 0.454232 3.48754 0
M  V30 2481 H 242.447 -1.29513 3.54269 0
M  V30 2482 H 244.834 -1.45985 2.56461 0
M  V30 2483 H 244.915 0.307532 2.53945 0
M  V30 2484 H 244.559 0.337581 5.06777 0
M  V30 2485 H 244.489 -1.44256 5.06456 0
M  V30 2486 H 246.98 -0.641146 3.72421 0
M  V30 2487 H 247.293 -0.690616 7.69708 0
M  V30 2488 H 245.638 -0.628012 6.92157 0
M  V30 2489 H 248.829 -0.711019 4.62668 0
M  V30 2490 H 249.002 -0.733804 6.43832 0
M  V30 2491 N 242.408 -1.52605 -0.393616 0
M  V30 2492 C 243.824 -1.41753 -0.733357 0
M  V30 2493 C 244.024 -0.534293 -1.94287 0
M  V30 2494 O 243.08 -0.0059787 -2.52499 0
M  V30 2495 C 244.393 -2.84531 -0.972772 0
M  V30 2496 C 245.941 -2.93978 -1.07453 0
M  V30 2497 C 246.416 -4.37756 -1.3466 0
M  V30 2498 N 247.907 -4.4106 -1.41492 0
M  V30 2499 C 248.642 -5.49387 -1.642 0
M  V30 2500 N 248.138 -6.67806 -1.8441 0
M  V30 2501 N 249.931 -5.36923 -1.66342 0
M  V30 2502 H 242.082 -2.08555 0.402328 0
M  V30 2503 H 244.345 -0.940654 0.117789 0
M  V30 2504 H 244.051 -3.51353 -0.156204 0
M  V30 2505 H 243.925 -3.26508 -1.88871 0
M  V30 2506 H 246.312 -2.27326 -1.88167 0
M  V30 2507 H 246.393 -2.55435 -0.136605 0
M  V30 2508 H 246.037 -5.04972 -0.544581 0
M  V30 2509 H 245.967 -4.73848 -2.2973 0
M  V30 2510 H 248.458 -3.55705 -1.27601 0
M  V30 2511 H 248.771 -7.46141 -2.01231 0
M  V30 2512 H 247.116 -6.70843 -1.81644 0
M  V30 2513 H 250.307 -4.43381 -1.50102 0
M  V30 2514 H 250.48 -6.21416 -1.837 0
M  V30 2515 N 243.887 0.651787 -1.4349 0
M  V30 2516 C 245.115 1.43937 -1.48626 0
M  V30 2517 C 245.53 1.8851 -0.104587 0
M  V30 2518 O 244.887 1.5958 0.885464 0
M  V30 2519 C 244.938 2.6734 -2.43334 0
M  V30 2520 O 244.659 2.24631 -3.76128 0
M  V30 2521 C 246.16 3.60683 -2.57726 0
M  V30 2522 H 243.38 0.44213 -0.504739 0
M  V30 2523 H 245.924 0.798944 -1.88248 0
M  V30 2524 H 244.079 3.2752 -2.06904 0
M  V30 2525 H 244.493 3.04485 -4.2707 0
M  V30 2526 H 245.967 4.43933 -3.28067 0
M  V30 2527 H 246.444 4.08126 -1.62265 0
M  V30 2528 H 247.05 3.06384 -2.94973 0
M  V30 2529 N 245.365 1.30045 0.890287 0
M  V30 2530 C 246.614 1.17929 1.63633 0
M  V30 2531 C 246.927 -0.266204 1.9378 0
M  V30 2532 O 248.133 -0.508804 2.6669 0
M  V30 2533 C 246.589 2.06317 2.94892 0
M  V30 2534 C 246.197 3.55745 2.72305 0
M  V30 2535 C 247.941 2.0295 3.72843 0
M  V30 2536 C 245.848 4.36205 3.99348 0
M  V30 2537 H 244.778 0.437782 0.613892 0
M  V30 2538 H 247.429 1.54754 0.986075 0
M  V30 2539 H 245.811 1.6237 3.61182 0
M  V30 2540 H 246.985 4.07805 2.1455 0
M  V30 2541 H 245.3 3.6088 2.07737 0
M  V30 2542 H 247.897 2.60319 4.67053 0
M  V30 2543 H 248.24 1.0117 4.0382 0
M  V30 2544 H 248.773 2.4499 3.13408 0
M  V30 2545 H 245.512 5.38659 3.73533 0
M  V30 2546 H 245.032 3.8891 4.56628 0
M  V30 2547 H 246.711 4.47362 4.67415 0
M  V30 2548 N 246.843 -1.10192 1.12674 0
M  V30 2549 C 248.259 -1.34235 0.863317 0
M  V30 2550 C 248.459 -1.95062 -0.505277 0
M  V30 2551 O 247.515 -2.19192 -1.25345 0
M  V30 2552 C 248.828 -2.2616 1.98172 0
M  V30 2553 C 250.376 -2.3969 2.0129 0
M  V30 2554 C 250.851 -3.34946 3.1237 0
M  V30 2555 N 252.342 -3.42515 3.11829 0
M  V30 2556 C 253.077 -4.16199 3.94419 0
M  V30 2557 N 252.573 -4.92747 4.87004 0
M  V30 2558 N 254.366 -4.11843 3.82547 0
M  V30 2559 H 246.517 -0.690798 2.00853 0
M  V30 2560 H 248.78 -0.366774 0.874174 0
M  V30 2561 H 248.486 -1.8868 2.96804 0
M  V30 2562 H 248.36 -3.26488 1.88906 0
M  V30 2563 H 250.747 -2.76438 1.03276 0
M  V30 2564 H 250.828 -1.39169 2.14629 0
M  V30 2565 H 250.472 -2.98923 4.10619 0
M  V30 2566 H 250.402 -4.35353 2.96269 0
M  V30 2567 H 252.893 -2.87926 2.44759 0
M  V30 2568 H 253.206 -5.46376 5.46528 0
M  V30 2569 H 251.551 -4.91862 4.91016 0
M  V30 2570 H 254.742 -3.51136 3.0955 0
M  V30 2571 H 254.915 -4.69007 4.47142 0
M  V30 2572 N 248.321 -0.919034 -1.28029 0
M  V30 2573 C 249.251 -0.428581 -2.29533 0
M  V30 2574 C 250.232 0.50659 -1.62381 0
M  V30 2575 O 251.417 0.413195 -1.89753 0
M  V30 2576 C 248.547 0.327388 -3.45753 0
M  V30 2577 C 247.501 -0.519137 -4.2484 0
M  V30 2578 C 246.827 0.365486 -5.33449 0
M  V30 2579 C 248.127 -1.77914 -4.91064 0
M  V30 2580 H 249.821 -1.27687 -2.70807 0
M  V30 2581 H 247.367 -0.615428 -1.30186 0
M  V30 2582 H 249.32 0.681378 -4.15855 0
M  V30 2583 H 248.044 1.20963 -3.03374 0
M  V30 2584 H 246.703 -0.855717 -3.56473 0
M  V30 2585 H 246.351 1.24642 -4.87312 0
M  V30 2586 H 246.051 -0.197356 -5.87268 0
M  V30 2587 H 247.575 0.715241 -6.06396 0
M  V30 2588 H 248.989 -1.49374 -5.53498 0
M  V30 2589 H 247.386 -2.2848 -5.54903 0
M  V30 2590 H 248.456 -2.50382 -4.15255 0
M  V30 2591 N 249.799 1.42003 -0.683588 0
M  V30 2592 C 250.746 2.30798 -0.0107309 0
M  V30 2593 C 251.716 1.4645 0.783688 0
M  V30 2594 O 252.901 1.75263 0.754156 0
M  V30 2595 C 250.041 3.3238 0.928306 0
M  V30 2596 C 249.154 4.31814 0.126776 0
M  V30 2597 C 248.289 5.20468 1.06236 0
M  V30 2598 C 247.328 6.11577 0.253035 0
M  V30 2599 N 246.465 6.92754 1.14179 0
M  V30 2600 H 251.305 2.8778 -0.773727 0
M  V30 2601 H 248.842 1.41745 -0.393283 0
M  V30 2602 H 250.8 3.89813 1.48666 0
M  V30 2603 H 249.43 2.76976 1.65783 0
M  V30 2604 H 248.482 3.76427 -0.54833 0
M  V30 2605 H 249.794 4.96276 -0.501192 0
M  V30 2606 H 248.948 5.82677 1.69035 0
M  V30 2607 H 247.687 4.56204 1.7242 0
M  V30 2608 H 246.692 5.48428 -0.388108 0
M  V30 2609 H 247.917 6.77892 -0.404839 0
M  V30 2610 H 245.863 6.3111 1.78987 0
M  V30 2611 H 245.78 7.53855 0.569111 0
M  V30 2612 H 247.048 7.59441 1.75697 0
M  V30 2613 N 251.277 0.427512 1.51691 0
M  V30 2614 C 252.207 -0.3796 2.30394 0
M  V30 2615 C 253.188 -1.02982 1.35384 0
M  V30 2616 O 254.373 -1.03534 1.643 0
M  V30 2617 C 251.503 -1.48649 3.1388 0
M  V30 2618 C 250.457 -0.960294 4.17088 0
M  V30 2619 C 249.783 -2.16219 4.89033 0
M  V30 2620 C 251.083 -0.00153679 5.223 0
M  V30 2621 H 252.777 0.277164 2.98114 0
M  V30 2622 H 250.323 0.134739 1.43368 0
M  V30 2623 H 252.276 -2.05826 3.67714 0
M  V30 2624 H 251 -2.1714 2.43962 0
M  V30 2625 H 249.659 -0.410806 3.64291 0
M  V30 2626 H 249.307 -2.83307 4.15628 0
M  V30 2627 H 249.007 -1.81654 5.58816 0
M  V30 2628 H 250.531 -2.73968 5.45687 0
M  V30 2629 H 251.945 -0.482687 5.71264 0
M  V30 2630 H 250.342 0.256199 5.99553 0
M  V30 2631 H 251.412 0.938174 4.75738 0
M  V30 2632 N 252.755 -1.56801 0.158532 0
M  V30 2633 C 254.004 -1.95665 -0.489702 0
M  V30 2634 C 254.317 -1.04654 -1.65248 0
M  V30 2635 O 255.523 -1.33146 -2.3661 0
M  V30 2636 C 253.979 -3.47874 -0.922582 0
M  V30 2637 C 253.587 -4.47489 0.213893 0
M  V30 2638 C 255.331 -3.95583 -1.53996 0
M  V30 2639 C 253.238 -5.90921 -0.237903 0
M  V30 2640 H 252.168 -0.730516 -0.186716 0
M  V30 2641 H 254.819 -1.81861 0.244722 0
M  V30 2642 H 253.201 -3.57051 -1.71261 0
M  V30 2643 H 254.375 -4.50017 0.991036 0
M  V30 2644 H 252.69 -4.09764 0.740407 0
M  V30 2645 H 255.287 -5.0019 -1.8898 0
M  V30 2646 H 255.63 -3.37789 -2.43319 0
M  V30 2647 H 256.163 -3.8937 -0.814611 0
M  V30 2648 H 252.902 -6.52559 0.620236 0
M  V30 2649 H 252.422 -5.91729 -0.980676 0
M  V30 2650 H 254.101 -6.43352 -0.686067 0
M  V30 2651 N 254.233 0.115231 -1.57178 0
M  V30 2652 C 255.463 0.835224 -1.88964 0
M  V30 2653 C 255.871 1.73774 -0.74829 0
M  V30 2654 O 255.214 1.81401 0.289739 0
M  V30 2655 C 255.276 1.7178 -3.15804 0
M  V30 2656 C 254.94 0.989198 -4.46166 0
M  V30 2657 C 255.937 0.328263 -5.18863 0
M  V30 2658 C 253.622 0.969256 -4.9286 0
M  V30 2659 C 255.616 -0.342873 -6.36477 0
M  V30 2660 C 253.303 0.294324 -6.10391 0
M  V30 2661 C 254.301 -0.360582 -6.82048 0
M  V30 2662 O 253.989 -1.02474 -7.97342 0
M  V30 2663 H 253.721 0.245197 -0.629964 0
M  V30 2664 H 256.275 0.10303 -2.05141 0
M  V30 2665 H 254.505 2.49173 -2.95719 0
M  V30 2666 H 256.194 2.31255 -3.33581 0
M  V30 2667 H 256.96 0.335263 -4.8384 0
M  V30 2668 H 252.839 1.46844 -4.36987 0
M  V30 2669 H 256.383 -0.854629 -6.92345 0
M  V30 2670 H 252.28 0.285099 -6.4487 0
M  V30 2671 H 253.048 -0.929594 -8.13204 0
M  V30 2672 N 255.711 1.52812 0.385517 0
M  V30 2673 C 256.988 1.5861 1.14465 0
M  V30 2674 C 257.368 0.381402 2.07626 0
M  V30 2675 O 256.716 -0.629999 2.19643 0
M  V30 2676 C 256.926 2.92664 1.90128 0
M  V30 2677 C 258.274 3.46526 2.45367 0
M  V30 2678 O 259.298 2.94562 2.0028 0
M  V30 2679 O 258.157 4.37323 3.27736 0
M  V30 2680 H 255.251 0.639855 0.523941 0
M  V30 2681 H 257.797 1.65149 0.390389 0
M  V30 2682 H 256.569 3.71788 1.22022 0
M  V30 2683 H 256.192 2.89527 2.72507 0
M  V30 2684 N 257.189 -0.644168 1.43834 0
M  V30 2685 C 258.605 -0.960875 1.27434 0
M  V30 2686 C 258.805 -2.00499 0.200618 0
M  V30 2687 O 257.861 -2.49018 -0.417906 0
M  V30 2688 C 259.174 -1.43653 2.64167 0
M  V30 2689 C 260.722 -1.55271 2.71772 0
M  V30 2690 C 261.197 -2.06224 4.08944 0
M  V30 2691 N 262.688 -2.13513 4.11055 0
M  V30 2692 C 263.423 -2.54081 5.14033 0
M  V30 2693 N 262.919 -2.9388 6.27381 0
M  V30 2694 N 264.712 -2.54101 5.01387 0
M  V30 2695 H 256.863 0.0465779 2.12349 0
M  V30 2696 H 259.126 -0.0417638 0.94708 0
M  V30 2697 H 258.832 -0.743706 3.43747 0
M  V30 2698 H 258.706 -2.40993 2.90176 0
M  V30 2699 H 261.093 -2.23653 1.92519 0
M  V30 2700 H 261.174 -0.563395 2.49519 0
M  V30 2701 H 260.818 -1.38441 4.88668 0
M  V30 2702 H 260.748 -3.06003 4.28567 0
M  V30 2703 H 263.239 -1.85493 3.29242 0
M  V30 2704 H 263.552 -3.2361 7.01781 0
M  V30 2705 H 261.897 -2.91663 6.30839 0
M  V30 2706 H 265.088 -2.22391 4.11898 0
M  V30 2707 H 265.261 -2.85394 5.81768 0
M  V30 2708 N 258.668 -1.30515 -0.883378 0
M  V30 2709 C 259.908 -1.20716 -1.64946 0
M  V30 2710 C 260.272 0.234072 -1.90568 0
M  V30 2711 O 261.473 0.455335 -2.64915 0
M  V30 2712 C 259.744 -2.01444 -2.9522 0
M  V30 2713 S 261.303 -2.0836 -3.86175 0
M  V30 2714 H 258.121 -0.430165 -0.566109 0
M  V30 2715 H 260.723 -1.65011 -1.04841 0
M  V30 2716 H 259.427 -3.05268 -2.74298 0
M  V30 2717 H 258.958 -1.57817 -3.60357 0
M  V30 2718 H 260.973 -1.21215 -4.81167 0
M  V30 2719 N 260.146 1.09593 -1.13257 0
M  V30 2720 C 261.423 1.78293 -0.804432 0
M  V30 2721 C 261.803 1.99004 0.70431 0
M  V30 2722 O 261.151 1.59007 1.641 0
M  V30 2723 C 261.361 3.10707 -1.5894 0
M  V30 2724 C 262.709 3.85443 -1.78099 0
M  V30 2725 O 263.733 3.20454 -1.55525 0
M  V30 2726 O 262.592 5.02108 -2.15753 0
M  V30 2727 H 259.686 0.773156 -0.293528 0
M  V30 2728 H 262.232 1.16164 -1.23709 0
M  V30 2729 H 261.004 2.91106 -2.61482 0
M  V30 2730 H 260.627 3.80558 -1.15157 0
M  V30 2731 N 261.624 0.925811 1.2754 0
M  V30 2732 C 262.554 0.440748 2.29303 0
M  V30 2733 C 263.535 -0.497971 1.62648 0
M  V30 2734 O 264.72 -0.403126 1.8997 0
M  V30 2735 C 261.85 -0.309048 3.45922 0
M  V30 2736 C 260.804 0.54166 4.24559 0
M  V30 2737 C 260.13 -0.337191 5.33636 0
M  V30 2738 C 261.43 1.80516 4.90114 0
M  V30 2739 H 263.124 1.29121 2.70126 0
M  V30 2740 H 260.67 0.622323 1.29858 0
M  V30 2741 H 262.623 -0.659315 4.1621 0
M  V30 2742 H 261.347 -1.19352 3.04011 0
M  V30 2743 H 260.006 0.874609 3.56014 0
M  V30 2744 H 259.654 -1.22056 4.87966 0
M  V30 2745 H 259.354 0.228497 5.87156 0
M  V30 2746 H 260.878 -0.683072 6.06767 0
M  V30 2747 H 262.292 1.52307 5.52698 0
M  V30 2748 H 260.689 2.3142 5.53683 0
M  V30 2749 H 261.759 2.52581 4.13921 0
M  V30 2750 N 263.102 -1.41638 0.69111 0
M  V30 2751 C 264.05 -2.32597 0.0115199 0
M  V30 2752 C 265.044 -1.5072 -0.773296 0
M  V30 2753 O 266.25 -1.66685 -0.67942 0
M  V30 2754 H 262.625 -0.751849 -0.0150746 0
M  V30 2755 H 264.596 -2.87593 0.795791 0
M  V30 2756 C 263.345 -3.35467 -0.914172 0
M  V30 2757 H 262.668 -3.9852 -0.319687 0
M  V30 2758 H 264.108 -4.01662 -1.35808 0
M  V30 2759 C 262.567 -2.69004 -2.02826 0
M  V30 2760 O 263.097 -2.53444 -3.11655 0
M  V30 2761 N 261.303 -2.2777 -1.80469 0
M  V30 2762 H 260.85 -2.40626 -0.919615 0
M  V30 2763 H 260.808 -1.83635 -2.55197 0
M  V30 2764 N 264.58 -0.43555 -1.51462 0
M  V30 2765 C 265.82 0.130708 -2.03982 0
M  V30 2766 C 266.184 1.40117 -1.31268 0
M  V30 2767 O 267.385 2.04755 -1.74152 0
M  V30 2768 C 265.656 0.346102 -3.5572 0
M  V30 2769 S 267.215 0.876022 -4.29967 0
M  V30 2770 H 264.033 0.0326881 -0.710248 0
M  V30 2771 H 266.635 -0.594544 -1.8624 0
M  V30 2772 H 265.339 -0.584911 -4.0621 0
M  V30 2773 H 264.87 1.09849 -3.77752 0
M  V30 2774 H 266.885 2.15379 -4.47019 0
M  V30 2775 N 266.058 1.56714 -0.166846 0
M  V30 2776 C 267.474 1.58473 0.189372 0
M  V30 2777 C 267.674 1.18201 1.63189 0
M  V30 2778 O 266.73 0.891528 2.36237 0
M  V30 2779 C 268.043 3.00573 -0.0873872 0
M  V30 2780 C 269.591 3.1299 -0.0252443 0
M  V30 2781 C 270.066 4.57174 -0.274934 0
M  V30 2782 N 271.557 4.62665 -0.222553 0
M  V30 2783 C 272.292 5.72072 -0.389985 0
M  V30 2784 N 271.788 6.90054 -0.616229 0
M  V30 2785 N 273.581 5.61153 -0.326202 0
M  V30 2786 H 265.732 1.8118 -1.10849 0
M  V30 2787 H 267.995 0.839525 -0.440342 0
M  V30 2788 H 267.701 3.34497 -1.0865 0
M  V30 2789 H 267.575 3.72019 0.623037 0
M  V30 2790 H 269.962 2.78895 0.96444 0
M  V30 2791 H 270.043 2.43989 -0.768309 0
M  V30 2792 H 269.687 4.91976 -1.26181 0
M  V30 2793 H 269.617 5.24328 0.48869 0
M  V30 2794 H 272.108 3.77863 -0.0531512 0
M  V30 2795 H 272.421 7.69311 -0.733559 0
M  V30 2796 H 270.766 6.91927 -0.652791 0
M  V30 2797 H 273.957 4.67859 -0.150072 0
M  V30 2798 H 274.13 6.46364 -0.460116 0
M  V30 2799 N 267.536 -0.106894 1.57237 0
M  V30 2800 C 268.785 -0.811163 1.8467 0
M  V30 2801 C 269.098 -1.80469 0.754342 0
M  V30 2802 O 270.304 -2.55601 0.915439 0
M  V30 2803 C 268.76 -1.49337 3.27454 0
M  V30 2804 C 268.368 -0.540217 4.44731 0
M  V30 2805 C 270.112 -2.18206 3.64124 0
M  V30 2806 C 268.019 -1.22634 5.78545 0
M  V30 2807 H 266.949 -0.306679 0.688813 0
M  V30 2808 H 269.6 -0.0639887 1.83388 0
M  V30 2809 H 267.982 -2.2876 3.23241 0
M  V30 2810 H 269.156 0.221659 4.60267 0
M  V30 2811 H 267.471 0.042146 4.16379 0
M  V30 2812 H 270.068 -2.70253 4.61376 0
M  V30 2813 H 270.411 -2.96562 2.92158 0
M  V30 2814 H 270.944 -1.45658 3.70174 0
M  V30 2815 H 267.683 -0.483832 6.53712 0
M  V30 2816 H 267.203 -1.95993 5.66874 0
M  V30 2817 H 268.882 -1.75615 6.2271 0
M  V30 2818 N 269.014 -1.53014 -0.377408 0
M  V30 2819 C 269.964 -1.74996 -1.46152 0
M  V30 2820 C 270.948 -0.604236 -1.49123 0
M  V30 2821 O 272.14 -0.862489 -1.54564 0
M  V30 2822 C 269.269 -1.93267 -2.8373 0
M  V30 2823 C 268.355 -3.13807 -2.85283 0
M  V30 2824 N 268.746 -4.35941 -2.56493 0
M  V30 2825 C 267.044 -3.14288 -3.16448 0
M  V30 2826 C 267.745 -5.17615 -2.65424 0
M  V30 2827 N 266.721 -4.53559 -2.99641 0
M  V30 2828 H 270.523 -2.67044 -1.22738 0
M  V30 2829 H 268.037 -1.51479 -0.585479 0
M  V30 2830 H 270.034 -2.0714 -3.61799 0
M  V30 2831 H 268.694 -1.0244 -3.08117 0
M  V30 2832 H 269.705 -4.63876 -2.30302 0
M  V30 2833 H 266.382 -2.33312 -3.46225 0
M  V30 2834 H 267.772 -6.25006 -2.46612 0
M  V30 2835 N 270.492 0.636531 -1.44174 0
M  V30 2836 C 271.439 1.74875 -1.50624 0
M  V30 2837 C 272.409 1.62275 -0.35442 0
M  V30 2838 O 273.594 1.82276 -0.563908 0
M  V30 2839 C 270.734 3.13102 -1.45125 0
M  V30 2840 C 269.847 3.36717 -2.7064 0
M  V30 2841 C 268.982 4.64885 -2.57013 0
M  V30 2842 C 268.021 4.8166 -3.77717 0
M  V30 2843 N 267.158 6.01101 -3.62798 0
M  V30 2844 H 271.998 1.68697 -2.45653 0
M  V30 2845 H 269.535 0.823004 -1.21922 0
M  V30 2846 H 271.493 3.93034 -1.39929 0
M  V30 2847 H 270.123 3.18308 -0.536671 0
M  V30 2848 H 269.175 2.50763 -2.86046 0
M  V30 2849 H 270.487 3.44993 -3.60252 0
M  V30 2850 H 269.641 5.52969 -2.49619 0
M  V30 2851 H 268.38 4.58957 -1.64953 0
M  V30 2852 H 267.385 3.92007 -3.85501 0
M  V30 2853 H 268.61 4.89406 -4.70807 0
M  V30 2854 H 266.556 5.96273 -2.73486 0
M  V30 2855 H 266.473 6.10409 -4.46023 0
M  V30 2856 H 267.741 6.91761 -3.59286 0
M  V30 2857 N 271.97 1.30982 0.876444 0
M  V30 2858 C 272.917 1.18085 1.98304 0
M  V30 2859 C 273.887 0.0682263 1.6596 0
M  V30 2860 O 275.072 0.239937 1.89285 0
M  V30 2861 C 272.212 0.887475 3.33493 0
M  V30 2862 C 271.325 2.08281 3.78475 0
M  V30 2863 C 270.46 1.72678 5.0235 0
M  V30 2864 C 269.499 2.88657 5.39762 0
M  V30 2865 N 268.636 2.53292 6.54819 0
M  V30 2866 H 273.476 2.1275 2.08666 0
M  V30 2867 H 271.013 1.05839 1.02159 0
M  V30 2868 H 272.971 0.697961 4.1132 0
M  V30 2869 H 271.601 -0.022315 3.22792 0
M  V30 2870 H 270.653 2.3833 2.96484 0
M  V30 2871 H 271.965 2.95108 4.02135 0
M  V30 2872 H 271.119 1.50151 5.87826 0
M  V30 2873 H 269.858 0.830327 4.8058 0
M  V30 2874 H 268.863 3.1184 4.52809 0
M  V30 2875 H 270.088 3.79002 5.63502 0
M  V30 2876 H 268.034 1.66163 6.34607 0
M  V30 2877 H 267.951 3.3365 6.7839 0
M  V30 2878 H 269.219 2.34143 7.43503 0
M  V30 2879 N 273.449 -1.08991 1.13837 0
M  V30 2880 C 274.674 -1.85551 0.926585 0
M  V30 2881 C 275.099 -1.80782 -0.519566 0
M  V30 2882 O 274.457 -1.18855 -1.36906 0
M  V30 2883 C 274.505 -3.31266 1.42462 0
M  V30 2884 O 273.609 -4.07822 0.612789 0
M  V30 2885 H 272.95 -0.575192 0.331738 0
M  V30 2886 H 275.48 -1.37604 1.51414 0
M  V30 2887 H 275.49 -3.82112 1.43019 0
M  V30 2888 H 274.165 -3.34052 2.47754 0
M  V30 2889 H 272.742 -3.66731 0.675463 0
M  V30 2890 N 274.927 -0.932562 -1.27047 0
M  V30 2891 C 276.343 -0.633544 -1.46487 0
M  V30 2892 C 276.543 0.815746 -1.84249 0
M  V30 2893 O 275.599 1.59319 -1.95892 0
M  V30 2894 C 276.912 -1.58758 -2.55375 0
M  V30 2895 C 278.46 -1.59634 -2.69232 0
M  V30 2896 C 278.935 -2.53747 -3.81283 0
M  V30 2897 N 280.426 -2.51982 -3.88664 0
M  V30 2898 C 281.161 -3.21491 -4.74796 0
M  V30 2899 N 280.657 -4.00395 -5.65381 0
M  V30 2900 N 282.45 -3.10485 -4.68568 0
M  V30 2901 H 274.601 -1.86946 -1.00821 0
M  V30 2902 H 276.864 -0.802897 -0.504044 0
M  V30 2903 H 276.57 -2.62172 -2.34432 0
M  V30 2904 H 276.444 -1.33301 -3.52861 0
M  V30 2905 H 278.831 -0.569488 -2.89553 0
M  V30 2906 H 278.912 -1.89142 -1.72218 0
M  V30 2907 H 278.556 -3.56545 -3.61715 0
M  V30 2908 H 278.486 -2.21532 -4.77735 0
M  V30 2909 H 280.977 -1.94681 -3.23895 0
M  V30 2910 H 281.29 -4.50406 -6.27976 0
M  V30 2911 H 279.635 -4.04498 -5.65161 0
M  V30 2912 H 282.826 -2.48331 -3.96799 0
M  V30 2913 H 282.999 -3.64925 -5.35475 0
M  V30 2914 N 276.405 1.4127 -0.698611 0
M  V30 2915 C 277.353 2.32588 -0.023855 0
M  V30 2916 C 278.347 1.51128 0.765292 0
M  V30 2917 O 279.553 1.67043 0.670571 0
M  V30 2918 H 275.928 0.751918 0.0110871 0
M  V30 2919 H 277.899 2.87167 -0.811031 0
M  V30 2920 C 276.648 3.35947 0.896369 0
M  V30 2921 H 275.971 3.98684 0.298548 0
M  V30 2922 H 277.411 4.02376 1.33676 0
M  V30 2923 C 275.87 2.70076 2.01396 0
M  V30 2924 O 276.4 2.55093 3.10307 0
M  V30 2925 N 274.606 2.28724 1.79259 0
M  V30 2926 H 274.153 2.4111 0.906841 0
M  V30 2927 H 274.111 1.84986 2.54219 0
M  V30 2928 N 277.883 0.443576 1.51229 0
M  V30 2929 C 278.83 -0.364716 2.279 0
M  V30 2930 C 279.8 -1.0114 1.31757 0
M  V30 2931 O 280.985 -1.02912 1.60667 0
M  V30 2932 C 278.125 -1.45644 3.12861 0
M  V30 2933 C 277.238 -0.827269 4.24005 0
M  V30 2934 C 276.373 -1.89456 4.96266 0
M  V30 2935 C 275.412 -1.24416 5.99322 0
M  V30 2936 N 274.549 -2.25309 6.64966 0
M  V30 2937 H 279.389 0.295464 2.96532 0
M  V30 2938 H 276.926 0.157554 1.46254 0
M  V30 2939 H 278.884 -2.10076 3.6045 0
M  V30 2940 H 277.514 -2.08616 2.46331 0
M  V30 2941 H 276.566 -0.0710839 3.80334 0
M  V30 2942 H 277.878 -0.312481 4.9782 0
M  V30 2943 H 277.032 -2.61535 5.47434 0
M  V30 2944 H 275.771 -2.4431 4.22095 0
M  V30 2945 H 274.776 -0.508868 5.4744 0
M  V30 2946 H 276.001 -0.702882 6.75453 0
M  V30 2947 H 273.947 -2.79231 5.93604 0
M  V30 2948 H 273.864 -1.78739 7.34567 0
M  V30 2949 H 275.132 -2.96853 7.20763 0
M  V30 2950 N 279.361 -1.56624 0.175154 0
M  V30 2951 C 280.601 -1.98894 -0.471221 0
M  V30 2952 C 280.965 -1.05889 -1.60161 0
M  V30 2953 O 282.166 -1.37315 -2.3108 0
M  V30 2954 C 280.437 -3.44865 -0.938241 0
M  V30 2955 S 281.996 -4.09164 -1.58526 0
M  V30 2956 H 278.814 -0.694686 -0.151434 0
M  V30 2957 H 281.416 -1.93577 0.27352 0
M  V30 2958 H 280.12 -4.10265 -0.10518 0
M  V30 2959 H 279.651 -3.53956 -1.71693 0
M  V30 2960 H 281.666 -4.04528 -2.87352 0
M  V30 2961 N 280.839 0.0985539 -1.57292 0
M  V30 2962 C 281.771 1.14595 -1.98496 0
M  V30 2963 C 282.784 1.36512 -0.887031 0
M  V30 2964 O 283.973 1.35225 -1.16518 0
M  V30 2965 C 281.073 2.50216 -2.28572 0
M  V30 2966 C 280.246 2.48624 -3.59868 0
M  V30 2967 C 279.305 3.66146 -3.7792 0
M  V30 2968 O 278.331 3.48795 -4.49812 0
M  V30 2969 N 279.533 4.85496 -3.18235 0
M  V30 2970 H 282.298 0.795277 -2.88956 0
M  V30 2971 H 279.859 0.287579 -1.59325 0
M  V30 2972 H 281.851 3.27432 -2.37845 0
M  V30 2973 H 280.421 2.77387 -1.44136 0
M  V30 2974 H 279.641 1.56978 -3.61596 0
M  V30 2975 H 280.929 2.44635 -4.46129 0
M  V30 2976 H 280.327 5.02497 -2.59833 0
M  V30 2977 H 278.884 5.60317 -3.32999 0
M  V30 2978 N 282.317 1.53212 0.369288 0
M  V30 2979 C 283.547 1.72868 1.13139 0
M  V30 2980 C 283.955 0.455754 1.83629 0
M  V30 2981 O 283.298 -0.580861 1.74275 0
M  V30 2982 C 283.36 2.83667 2.20847 0
M  V30 2983 C 283.024 4.24142 1.70155 0
M  V30 2984 C 284.021 5.06619 1.16763 0
M  V30 2985 C 281.706 4.70539 1.7578 0
M  V30 2986 C 283.7 6.33581 0.696678 0
M  V30 2987 C 281.387 5.97481 1.28297 0
M  V30 2988 C 282.385 6.78833 0.753307 0
M  V30 2989 O 282.073 8.03393 0.285475 0
M  V30 2990 H 281.805 0.581707 0.344373 0
M  V30 2991 H 284.359 2.00736 0.435243 0
M  V30 2992 H 282.589 2.51265 2.93944 0
M  V30 2993 H 284.278 2.91536 2.82421 0
M  V30 2994 H 285.044 4.71948 1.11758 0
M  V30 2995 H 280.923 4.07293 2.15949 0
M  V30 2996 H 284.467 6.97027 0.282581 0
M  V30 2997 H 280.364 6.31651 1.32994 0
M  V30 2998 H 281.132 8.17497 0.405145 0
M  V30 2999 N 283.795 -0.628877 1.44509 0
M  V30 3000 C 285.035 -1.39993 1.48934 0
M  V30 3001 C 285.399 -1.91627 0.119604 0
M  V30 3002 O 286.6 -2.68772 0.0385283 0
M  V30 3003 C 284.871 -2.53241 2.52198 0
M  V30 3004 S 286.43 -3.41383 2.75687 0
M  V30 3005 H 283.248 -0.477558 0.526744 0
M  V30 3006 H 285.85 -0.727804 1.81448 0
M  V30 3007 H 284.554 -2.13622 3.50419 0
M  V30 3008 H 284.085 -3.25278 2.21264 0
M  V30 3009 H 286.1 -4.50752 2.07453 0
M  V30 3010 N 285.273 -1.31445 -0.869486 0
M  V30 3011 C 286.689 -1.10113 -1.15531 0
M  V30 3012 C 286.889 0.128087 -2.01092 0
M  V30 3013 O 285.945 0.817276 -2.38908 0
M  V30 3014 C 287.258 -2.37291 -1.84698 0
M  V30 3015 C 288.806 -2.42906 -1.97397 0
M  V30 3016 C 289.281 -3.69967 -2.69979 0
M  V30 3017 N 290.772 -3.70864 -2.77514 0
M  V30 3018 C 291.507 -4.65875 -3.34287 0
M  V30 3019 N 291.003 -5.71242 -3.91988 0
M  V30 3020 N 292.796 -4.53394 -3.3225 0
M  V30 3021 H 284.947 -2.1028 -0.299347 0
M  V30 3022 H 287.21 -0.927683 -0.195214 0
M  V30 3023 H 286.916 -3.27078 -1.29278 0
M  V30 3024 H 286.79 -2.47125 -2.84972 0
M  V30 3025 H 289.177 -1.53588 -2.51982 0
M  V30 3026 H 289.258 -2.37036 -0.961643 0
M  V30 3027 H 288.902 -4.59652 -2.16062 0
M  V30 3028 H 288.832 -3.73103 -3.7162 0
M  V30 3029 H 291.323 -2.94697 -2.36563 0
M  V30 3030 H 291.636 -6.39817 -4.33421 0
M  V30 3031 H 289.981 -5.75015 -3.90362 0
M  V30 3032 H 293.172 -3.70252 -2.8641 0
M  V30 3033 H 293.345 -5.27617 -3.76197 0
M  V30 3034 N 286.751 1.08385 -1.14413 0
M  V30 3035 C 287.998 1.80776 -0.912482 0
M  V30 3036 C 288.326 1.86236 0.560934 0
M  V30 3037 O 287.581 1.33431 1.43159 0
M  V30 3038 C 287.88 3.26273 -1.45879 0
M  V30 3039 C 287.546 3.4093 -2.95089 0
M  V30 3040 C 286.208 3.44638 -3.35824 0
M  V30 3041 C 288.56 3.44591 -3.91033 0
M  V30 3042 C 285.888 3.49597 -4.71167 0
M  V30 3043 C 288.24 3.51086 -5.26233 0
M  V30 3044 C 286.904 3.53067 -5.6648 0
M  V30 3045 H 286.174 0.661507 -0.333901 0
M  V30 3046 H 288.821 1.27613 -1.42784 0
M  V30 3047 H 287.126 3.82146 -0.864376 0
M  V30 3048 H 288.823 3.80839 -1.2555 0
M  V30 3049 H 285.413 3.38736 -2.62594 0
M  V30 3050 H 289.597 3.40957 -3.60641 0
M  V30 3051 H 284.853 3.49424 -5.0171 0
M  V30 3052 H 289.027 3.52864 -6.00383 0
M  V30 3053 H 286.654 3.56662 -6.71339 0
M  V30 3054 N 288.23 0.939286 1.26551 0
M  V30 3055 C 289.162 0.404704 2.25599 0
M  V30 3056 C 290.175 -0.470983 1.55838 0
M  V30 3057 O 291.364 -0.281734 1.76263 0
M  V30 3058 C 288.464 -0.43764 3.36062 0
M  V30 3059 C 287.637 0.421449 4.35365 0
M  V30 3060 C 286.696 -0.36015 5.24966 0
M  V30 3061 O 285.722 0.236167 5.6871 0
M  V30 3062 N 286.924 -1.65715 5.56344 0
M  V30 3063 H 289.689 1.25618 2.72103 0
M  V30 3064 H 287.25 0.807963 1.40298 0
M  V30 3065 H 289.242 -0.967866 3.92956 0
M  V30 3066 H 287.812 -1.18991 2.89067 0
M  V30 3067 H 287.032 1.1329 3.7757 0
M  V30 3068 H 288.32 1.00835 4.98708 0
M  V30 3069 H 287.718 -2.16378 5.22682 0
M  V30 3070 H 286.275 -2.13366 6.15888 0
M  V30 3071 N 289.708 -1.40897 0.706093 0
M  V30 3072 C 290.655 -2.30751 0.0474474 0
M  V30 3073 C 291.625 -1.47678 -0.76029 0
M  V30 3074 O 292.81 -1.76441 -0.726177 0
M  V30 3075 C 289.95 -3.33815 -0.875309 0
M  V30 3076 C 289.063 -4.31961 -0.0580623 0
M  V30 3077 C 288.198 -5.22093 -0.979425 0
M  V30 3078 C 287.237 -6.11902 -0.155706 0
M  V30 3079 N 286.374 -6.94482 -1.03144 0
M  V30 3080 H 291.214 -2.86513 0.819413 0
M  V30 3081 H 288.751 -1.41102 0.415783 0
M  V30 3082 H 290.709 -3.92129 -1.42446 0
M  V30 3083 H 289.339 -2.79579 -1.61356 0
M  V30 3084 H 288.391 -3.75507 0.608147 0
M  V30 3085 H 289.703 -4.95415 0.580082 0
M  V30 3086 H 288.857 -5.85292 -1.59744 0
M  V30 3087 H 287.596 -4.5889 -1.65141 0
M  V30 3088 H 286.601 -5.47742 0.475309 0
M  V30 3089 H 287.826 -6.77162 0.512635 0
M  V30 3090 H 285.772 -6.33877 -1.68924 0
M  V30 3091 H 285.689 -7.54665 -0.449108 0
M  V30 3092 H 286.957 -7.6214 -1.63593 0
M  V30 3093 N 291.186 -0.45159 -1.50991 0
M  V30 3094 C 292.426 0.109066 -2.04109 0
M  V30 3095 C 292.79 1.38716 -1.32747 0
M  V30 3096 O 293.991 2.02896 -1.76314 0
M  V30 3097 C 292.262 0.308354 -3.56067 0
M  V30 3098 S 293.821 0.830369 -4.30872 0
M  V30 3099 H 290.639 0.0251531 -0.710555 0
M  V30 3100 H 293.241 -0.614264 -1.85599 0
M  V30 3101 H 291.945 -0.627962 -4.05567 0
M  V30 3102 H 291.476 1.05836 -3.78896 0
M  V30 3103 H 293.491 2.10626 -4.49279 0
M  V30 3104 N 292.664 1.56529 -0.183458 0
M  V30 3105 C 293.594 2.21549 0.737456 0
M  V30 3106 C 294.575 1.17489 1.23005 0
M  V30 3107 O 295.76 1.45959 1.281 0
M  V30 3108 C 292.89 2.86575 1.96194 0
M  V30 3109 C 291.844 3.96778 1.60473 0
M  V30 3110 C 291.17 4.48911 2.90487 0
M  V30 3111 C 292.47 5.15767 0.823497 0
M  V30 3112 H 294.164 2.98761 0.195453 0
M  V30 3113 H 291.71 1.43702 0.0925686 0
M  V30 3114 H 293.663 3.30739 2.61131 0
M  V30 3115 H 292.387 2.06749 2.52828 0
M  V30 3116 H 291.046 3.53286 0.978997 0
M  V30 3117 H 290.694 3.65862 3.45186 0
M  V30 3118 H 290.394 5.23265 2.67335 0
M  V30 3119 H 291.918 4.95771 3.56432 0
M  V30 3120 H 293.332 5.56549 1.37571 0
M  V30 3121 H 291.729 5.96114 0.690551 0
M  V30 3122 H 292.799 4.84574 -0.177782 0
M  V30 3123 N 294.142 -0.090211 1.57342 0
M  V30 3124 C 295.105 -1.09335 2.01441 0
M  V30 3125 C 296.105 -1.32666 0.908641 0
M  V30 3126 O 297.295 -1.28697 1.174 0
M  V30 3127 C 294.427 -2.44136 2.3793 0
M  V30 3128 H 295.62 -0.713662 2.91285 0
M  V30 3129 H 293.173 -0.335404 1.52659 0
M  V30 3130 H 293.908 -2.86972 1.51055 0
M  V30 3131 H 293.693 -2.28548 3.18603 0
M  V30 3132 H 295.183 -3.16277 2.72688 0
M  V30 3133 N 295.62 -1.53406 -0.361157 0
M  V30 3134 C 296.866 -1.70054 -1.10496 0
M  V30 3135 C 297.199 -0.453278 -1.88836 0
M  V30 3136 O 296.474 0.5495 -1.86576 0
M  V30 3137 C 296.757 -2.95317 -2.06058 0
M  V30 3138 C 296.61 -4.3021 -1.31298 0
M  V30 3139 C 297.929 -3.16193 -3.06121 0
M  V30 3140 H 295.048 -0.618799 -0.400321 0
M  V30 3141 H 297.69 -1.86052 -0.385318 0
M  V30 3142 H 295.84 -2.81809 -2.67425 0
M  V30 3143 H 297.512 -4.55538 -0.726807 0
M  V30 3144 H 295.755 -4.29421 -0.614853 0
M  V30 3145 H 296.426 -5.14 -2.01265 0
M  V30 3146 H 298.902 -3.28916 -2.5486 0
M  V30 3147 H 297.778 -4.05266 -3.70204 0
M  V30 3148 H 298.039 -2.31676 -3.76535 0
M  V30 3149 N 297.098 0.621204 -1.44841 0
M  V30 3150 C 298.346 1.37783 -1.47852 0
M  V30 3151 C 298.667 1.94653 -0.116224 0
M  V30 3152 O 297.937 1.76367 0.852737 0
M  V30 3153 H 296.517 0.511453 -0.544449 0
M  V30 3154 H 299.179 0.730446 -1.80694 0
M  V30 3155 H 298.275 2.20414 -2.20961 0
M  V30 3156 N 298.576 1.31904 0.862503 0
M  V30 3157 C 299.509 1.14514 1.97388 0
M  V30 3158 C 300.487 0.0466493 1.62533 0
M  V30 3159 O 301.671 0.204484 1.87388 0
M  V30 3160 C 298.798 0.751347 3.30261 0
M  V30 3161 C 297.844 1.85395 3.84098 0
M  V30 3162 S 298.677 3.46081 4.08642 0
M  V30 3163 C 299.833 3.08655 5.44502 0
M  V30 3164 H 300.066 2.08597 2.11836 0
M  V30 3165 H 297.599 1.16475 1.01356 0
M  V30 3166 H 299.557 0.530901 4.07052 0
M  V30 3167 H 298.218 -0.170493 3.13637 0
M  V30 3168 H 297.411 1.53122 4.80177 0
M  V30 3169 H 297.013 2.02984 3.14123 0
M  V30 3170 H 299.305 2.58012 6.26447 0
M  V30 3171 H 300.248 4.03726 5.81731 0
M  V30 3172 H 300.656 2.45891 5.08132 0
M  V30 3173 N 300.054 -1.07777 1.14986 0
M  V30 3174 C 301.279 -1.84558 0.946213 0
M  V30 3175 C 301.704 -1.81323 -0.500362 0
M  V30 3176 O 301.062 -1.20301 -1.35637 0
M  V30 3177 C 301.11 -3.29736 1.45968 0
M  V30 3178 O 300.214 -4.07149 0.65601 0
M  V30 3179 H 299.555 -0.571641 0.33782 0
M  V30 3180 H 302.085 -1.35991 1.52865 0
M  V30 3181 H 302.095 -3.80574 1.47063 0
M  V30 3182 H 300.77 -3.31406 2.51283 0
M  V30 3183 H 299.347 -3.65994 0.714322 0
M  V30 3184 N 301.532 -0.945985 -1.26051 0
M  V30 3185 C 302.482 -0.430164 -2.23905 0
M  V30 3186 C 303.466 0.47579 -1.53704 0
M  V30 3187 O 304.658 0.310252 -1.7426 0
M  V30 3188 C 301.787 0.298957 -3.41996 0
M  V30 3189 C 300.873 -0.624566 -4.19476 0
M  V30 3190 N 301.264 -1.75245 -4.74471 0
M  V30 3191 C 299.562 -0.431082 -4.43912 0
M  V30 3192 C 300.263 -2.32834 -5.3307 0
M  V30 3193 N 299.239 -1.61583 -5.1903 0
M  V30 3194 H 303.041 -1.29107 -2.64024 0
M  V30 3195 H 300.555 -0.802428 -1.41191 0
M  V30 3196 H 302.552 0.685565 -4.11225 0
M  V30 3197 H 301.212 1.15657 -3.03403 0
M  V30 3198 H 302.223 -2.13449 -4.71868 0
M  V30 3199 H 298.9 0.384364 -4.15727 0
M  V30 3200 H 300.29 -3.27893 -5.86461 0
M  V30 3201 N 303.011 1.40521 -0.713556 0
M  V30 3202 C 303.959 2.32549 -0.0485227 0
M  V30 3203 C 304.953 1.51931 0.74922 0
M  V30 3204 O 306.159 1.67745 0.652816 0
M  V30 3205 H 302.534 0.751994 0.00311138 0
M  V30 3206 H 304.505 2.86291 -0.841443 0
M  V30 3207 C 303.254 3.36879 0.860687 0
M  V30 3208 H 302.577 3.98978 0.256246 0
M  V30 3209 H 304.017 4.03772 1.294 0
M  V30 3210 C 302.476 2.72197 1.9852 0
M  V30 3211 O 303.006 2.5837 3.07584 0
M  V30 3212 N 301.212 2.30612 1.76823 0
M  V30 3213 H 300.759 2.42059 0.881217 0
M  V30 3214 H 300.717 1.87672 2.52243 0
M  V30 3215 N 304.489 0.459591 1.5075 0
M  V30 3216 C 305.452 -0.329093 2.26825 0
M  V30 3217 C 306.452 -0.930481 1.31144 0
M  V30 3218 O 307.642 -0.801453 1.54669 0
M  V30 3219 C 304.774 -1.46768 3.07688 0
M  V30 3220 H 305.967 0.337924 2.9799 0
M  V30 3221 H 303.52 0.213336 1.54837 0
M  V30 3222 H 304.255 -2.17009 2.40993 0
M  V30 3223 H 304.04 -1.04238 3.77991 0
M  V30 3224 H 305.53 -2.02433 3.65254 0
M  V30 3225 N 305.967 -1.56429 0.191757 0
M  V30 3226 C 307.216 -1.9666 -0.448088 0
M  V30 3227 C 307.529 -1.08136 -1.62991 0
M  V30 3228 O 308.735 -1.38135 -2.33733 0
M  V30 3229 C 307.191 -3.49753 -0.848585 0
M  V30 3230 C 306.799 -4.46935 0.308764 0
M  V30 3231 C 308.543 -3.9876 -1.4557 0
M  V30 3232 C 306.45 -5.91293 -0.112506 0
M  V30 3233 H 305.38 -0.734312 -0.171179 0
M  V30 3234 H 308.031 -1.81301 0.283242 0
M  V30 3235 H 306.413 -3.60604 -1.63649 0
M  V30 3236 H 307.587 -4.47813 1.08627 0
M  V30 3237 H 305.902 -4.08102 0.827158 0
M  V30 3238 H 308.499 -5.04086 -1.78328 0
M  V30 3239 H 308.842 -3.42875 -2.36099 0
M  V30 3240 H 309.375 -3.9101 -0.731836 0
M  V30 3241 H 306.114 -6.51097 0.758514 0
M  V30 3242 H 305.634 -5.93676 -0.854941 0
M  V30 3243 H 307.313 -6.44663 -0.549448 0
M  V30 3244 N 307.445 0.0818655 -1.57387 0
M  V30 3245 C 308.861 0.436412 -1.53517 0
M  V30 3246 C 309.061 1.79758 -0.910459 0
M  V30 3247 O 308.117 2.47324 -0.508636 0
M  V30 3248 C 309.43 0.386734 -2.98203 0
M  V30 3249 C 310.978 0.467644 -3.09487 0
M  V30 3250 C 311.453 0.447978 -4.55804 0
M  V30 3251 N 312.944 0.508348 -4.60402 0
M  V30 3252 C 313.679 0.515184 -5.71081 0
M  V30 3253 N 313.175 0.477435 -6.91153 0
M  V30 3254 N 314.968 0.560988 -5.59294 0
M  V30 3255 H 307.119 -0.809546 -1.96367 0
M  V30 3256 H 309.382 -0.302733 -0.898363 0
M  V30 3257 H 309.088 -0.546539 -3.47427 0
M  V30 3258 H 308.962 1.20075 -3.57578 0
M  V30 3259 H 311.349 1.39134 -2.60242 0
M  V30 3260 H 311.43 -0.374753 -2.5304 0
M  V30 3261 H 311.074 -0.471826 -5.05704 0
M  V30 3262 H 311.004 1.30777 -5.10103 0
M  V30 3263 H 313.495 0.54218 -3.7399 0
M  V30 3264 H 313.808 0.486299 -7.71268 0
M  V30 3265 H 312.153 0.444278 -6.93579 0
M  V30 3266 H 315.344 0.5881 -4.64391 0
M  V30 3267 H 315.517 0.562846 -6.45551 0
M  V30 3268 N 308.923 1.53595 0.353017 0
M  V30 3269 C 310.17 1.70385 1.09431 0
M  V30 3270 C 310.498 0.462113 1.88931 0
M  V30 3271 O 309.753 -0.556074 1.87633 0
M  V30 3272 C 310.052 2.91313 2.07054 0
M  V30 3273 C 309.718 4.27308 1.43939 0
M  V30 3274 C 308.38 4.64287 1.26454 0
M  V30 3275 C 310.732 5.11829 0.983883 0
M  V30 3276 C 308.06 5.83412 0.620226 0
M  V30 3277 C 310.412 6.31611 0.353516 0
M  V30 3278 C 309.076 6.67293 0.166272 0
M  V30 3279 H 308.346 0.623484 0.400436 0
M  V30 3280 H 310.993 1.87799 0.374655 0
M  V30 3281 H 309.298 2.68463 2.85368 0
M  V30 3282 H 310.995 3.01497 2.64387 0
M  V30 3283 H 307.585 3.98198 1.58543 0
M  V30 3284 H 311.769 4.838 1.10685 0
M  V30 3285 H 307.025 6.09639 0.463681 0
M  V30 3286 H 311.199 6.964 -0.00757555 0
M  V30 3287 H 308.826 7.59461 -0.335047 0
M  V30 3288 N 310.401 -0.613514 1.45168 0
M  V30 3289 C 311.649 -1.36997 1.48581 0
M  V30 3290 C 311.97 -1.94589 0.126545 0
M  V30 3291 O 311.24 -1.76816 -0.843372 0
M  V30 3292 H 309.82 -0.508558 0.547154 0
M  V30 3293 H 312.482 -0.720853 1.81079 0
M  V30 3294 H 311.578 -2.1924 2.22127 0
M  V30 3295 N 311.879 -1.3236 -0.855495 0
M  V30 3296 C 313.295 -1.11332 -1.14356 0
M  V30 3297 C 313.495 0.106751 -2.01217 0
M  V30 3298 O 312.551 0.791891 -2.39761 0
M  V30 3299 C 313.864 -2.39237 -1.82171 0
M  V30 3300 C 315.412 -2.44986 -1.9481 0
M  V30 3301 C 315.887 -3.7281 -2.66039 0
M  V30 3302 N 317.378 -3.73787 -2.73565 0
M  V30 3303 C 318.113 -4.69394 -3.29327 0
M  V30 3304 N 317.609 -5.75367 -3.85907 0
M  V30 3305 N 319.402 -4.56893 -3.27423 0
M  V30 3306 H 311.553 -2.10586 -0.277027 0
M  V30 3307 H 313.816 -0.929701 -0.185364 0
M  V30 3308 H 313.522 -3.28431 -1.25802 0
M  V30 3309 H 313.396 -2.50134 -2.82335 0
M  V30 3310 H 315.783 -1.56252 -2.50338 0
M  V30 3311 H 315.864 -2.38043 -0.936448 0
M  V30 3312 H 315.508 -4.61918 -2.11174 0
M  V30 3313 H 315.438 -3.77024 -3.67642 0
M  V30 3314 H 317.929 -2.97189 -2.33424 0
M  V30 3315 H 318.242 -6.44378 -4.26611 0
M  V30 3316 H 316.587 -5.79123 -3.84242 0
M  V30 3317 H 319.778 -3.73269 -2.82467 0
M  V30 3318 H 319.951 -5.31577 -3.7058 0
M  V30 3319 N 313.357 1.07166 -1.15556 0
M  V30 3320 C 314.29 2.13808 -0.797593 0
M  V30 3321 C 315.268 1.6101 0.226812 0
M  V30 3322 O 316.452 1.88161 0.112932 0
M  V30 3323 C 313.579 3.38187 -0.186371 0
M  V30 3324 C 312.625 4.09766 -1.18297 0
M  V30 3325 S 313.458 4.60932 -2.72584 0
M  V30 3326 C 314.614 5.88583 -2.12886 0
M  V30 3327 H 314.847 2.43843 -1.70083 0
M  V30 3328 H 312.38 1.19467 -0.978106 0
M  V30 3329 H 314.338 4.10189 0.159837 0
M  V30 3330 H 312.999 3.06326 0.694489 0
M  V30 3331 H 312.192 4.99065 -0.703562 0
M  V30 3332 H 311.794 3.43736 -1.47381 0
M  V30 3333 H 314.086 6.60866 -1.49208 0
M  V30 3334 H 315.029 6.41241 -3.0036 0
M  V30 3335 H 315.437 5.42194 -1.57116 0
M  V30 3336 N 314.835 0.952656 1.25548 0
M  V30 3337 C 316.246 0.647392 1.75116 0
M  V30 3338 C 316.597 -0.837274 1.77438 0
M  V30 3339 O 315.722 -1.65525 1.39393 0
M  V30 3340 C 316.317 1.16845 3.18014 0
M  V30 3341 C 314.876 0.913382 3.6515 0
M  V30 3342 C 314.023 1.31265 2.44264 0
M  V30 3343 H 316.974 1.12968 1.11462 0
M  V30 3344 H 316.995 0.527606 3.76824 0
M  V30 3345 H 316.507 2.24902 3.16292 0
M  V30 3346 H 314.608 -0.152316 3.72289 0
M  V30 3347 H 314.721 1.54845 4.53387 0
M  V30 3348 H 313.085 0.731028 2.43984 0
M  V30 3349 H 313.868 2.40239 2.45234 0
M  V30 3350 N 316.313 -1.40141 0.720998 0
M  V30 3351 C 317.245 -2.29177 0.0324669 0
M  V30 3352 C 318.258 -1.46105 -0.718126 0
M  V30 3353 O 319.447 -1.69335 -0.564608 0
M  V30 3354 C 316.547 -3.24473 -0.978292 0
M  V30 3355 C 315.72 -4.36423 -0.292115 0
M  V30 3356 C 314.779 -5.12122 -1.20901 0
M  V30 3357 O 313.805 -5.64981 -0.691766 0
M  V30 3358 N 315.007 -5.21992 -2.53978 0
M  V30 3359 H 317.772 -2.88909 0.796984 0
M  V30 3360 H 315.333 -1.51569 0.569068 0
M  V30 3361 H 317.325 -3.71987 -1.59398 0
M  V30 3362 H 315.895 -2.65871 -1.64413 0
M  V30 3363 H 315.115 -3.90967 0.503847 0
M  V30 3364 H 316.403 -5.08467 0.183971 0
M  V30 3365 H 315.801 -4.8054 -2.98493 0
M  V30 3366 H 314.358 -5.72995 -3.10677 0
M  V30 3367 N 317.792 -0.46758 -1.50504 0
M  V30 3368 C 318.755 0.317059 -2.26996 0
M  V30 3369 C 319.755 0.923513 -1.31635 0
M  V30 3370 O 320.945 0.793239 -1.55091 0
M  V30 3371 C 318.077 1.45134 -3.08462 0
M  V30 3372 H 319.27 -0.353723 -2.97807 0
M  V30 3373 H 316.823 -0.221545 -1.54722 0
M  V30 3374 H 317.558 2.15728 -2.4214 0
M  V30 3375 H 317.343 1.02232 -3.78538 0
M  V30 3376 H 318.833 2.00493 -3.66323 0
M  V30 3377 N 319.27 1.56325 -0.20005 0
M  V30 3378 C 320.18 2.22931 0.730668 0
M  V30 3379 C 321.196 1.22997 1.23076 0
M  V30 3380 O 322.372 1.55748 1.27689 0
M  V30 3381 C 319.437 2.87948 1.93098 0
M  V30 3382 C 318.498 4.03166 1.47497 0
M  V30 3383 C 317.731 4.65073 2.61807 0
M  V30 3384 O 317.954 4.25913 3.79413 0
M  V30 3385 O 316.888 5.54452 2.34237 0
M  V30 3386 H 320.714 3.03084 0.193391 0
M  V30 3387 H 318.299 1.49371 0.0294621 0
M  V30 3388 H 320.181 3.29063 2.6324 0
M  V30 3389 H 318.856 2.10771 2.45677 0
M  V30 3390 H 317.763 3.66664 0.742201 0
M  V30 3391 H 319.096 4.82022 0.995796 0
M  V30 3392 N 320.748 -0.0735177 1.57428 0
M  V30 3393 C 321.695 -1.08756 2.0357 0
M  V30 3394 C 322.665 -1.38559 0.916 0
M  V30 3395 O 323.85 -1.49656 1.18354 0
M  V30 3396 C 320.99 -2.39657 2.48311 0
M  V30 3397 C 320.103 -2.16399 3.73892 0
M  V30 3398 C 319.238 -3.40852 4.07423 0
M  V30 3399 C 318.277 -3.1295 5.2605 0
M  V30 3400 N 317.414 -4.29729 5.55228 0
M  V30 3401 H 322.254 -0.687104 2.8997 0
M  V30 3402 H 319.791 -0.327709 1.43403 0
M  V30 3403 H 321.749 -3.16081 2.72303 0
M  V30 3404 H 320.379 -2.77508 1.64891 0
M  V30 3405 H 319.431 -1.30676 3.57251 0
M  V30 3406 H 320.743 -1.91788 4.60455 0
M  V30 3407 H 319.897 -4.25671 4.32306 0
M  V30 3408 H 318.636 -3.68537 3.19425 0
M  V30 3409 H 317.641 -2.26526 5.00965 0
M  V30 3410 H 318.866 -2.86589 6.15665 0
M  V30 3411 H 316.812 -4.57448 4.70188 0
M  V30 3412 H 316.729 -4.08385 6.36206 0
M  V30 3413 H 317.997 -5.1555 5.84661 0
M  V30 3414 N 322.226 -1.5378 -0.344866 0
M  V30 3415 C 323.136 -1.84667 -1.4469 0
M  V30 3416 C 324.152 -0.736704 -1.57635 0
M  V30 3417 O 325.328 -1.02888 -1.73136 0
M  V30 3418 C 322.393 -2.04869 -2.79696 0
M  V30 3419 C 321.454 -3.28731 -2.76106 0
M  V30 3420 C 320.687 -3.4796 -4.04673 0
M  V30 3421 O 320.91 -2.71052 -5.01883 0
M  V30 3422 O 319.844 -4.41383 -4.09224 0
M  V30 3423 H 323.67 -2.78334 -1.21506 0
M  V30 3424 H 321.255 -1.39418 -0.536921 0
M  V30 3425 H 323.137 -2.19609 -3.59652 0
M  V30 3426 H 321.812 -1.14391 -3.02814 0
M  V30 3427 H 320.719 -3.19396 -1.94774 0
M  V30 3428 H 322.052 -4.19198 -2.57941 0
M  V30 3429 N 323.704 0.605807 -1.45491 0
M  V30 3430 C 324.651 1.7164 -1.54299 0
M  V30 3431 C 325.621 1.61486 -0.388761 0
M  V30 3432 O 326.806 1.81039 -0.602445 0
M  V30 3433 C 323.946 3.09953 -1.51734 0
M  V30 3434 C 323.059 3.309 -2.77721 0
M  V30 3435 C 322.194 4.59329 -2.66816 0
M  V30 3436 C 321.233 4.7354 -3.87848 0
M  V30 3437 N 320.37 5.9327 -3.75467 0
M  V30 3438 H 325.21 1.63449 -2.49176 0
M  V30 3439 H 322.747 0.796957 -1.23641 0
M  V30 3440 H 324.705 3.89977 -1.48235 0
M  V30 3441 H 323.335 3.17098 -0.604068 0
M  V30 3442 H 322.387 2.44639 -2.913 0
M  V30 3443 H 323.699 3.37274 -3.67488 0
M  V30 3444 H 322.853 5.4755 -2.61292 0
M  V30 3445 H 321.592 4.55355 -1.74651 0
M  V30 3446 H 320.597 3.83741 -3.93729 0
M  V30 3447 H 321.822 4.79309 -4.81082 0
M  V30 3448 H 319.768 5.90338 -2.86072 0
M  V30 3449 H 319.685 6.00811 -4.5887 0
M  V30 3450 H 320.953 6.83984 -3.73879 0
M  V30 3451 N 325.182 1.32811 0.848464 0
M  V30 3452 C 326.112 1.24882 1.97299 0
M  V30 3453 C 327.093 0.131357 1.69592 0
M  V30 3454 O 328.278 0.319553 1.91553 0
M  V30 3455 C 325.408 0.97746 3.33261 0
M  V30 3456 C 324.362 2.05682 3.75338 0
M  V30 3457 C 323.688 1.63777 5.09 0
M  V30 3458 C 324.988 3.47254 3.90144 0
M  V30 3459 H 326.682 2.18966 2.04191 0
M  V30 3460 H 324.228 1.05413 0.981029 0
M  V30 3461 H 326.181 0.908513 4.1149 0
M  V30 3462 H 324.905 0.000980011 3.266 0
M  V30 3463 H 323.564 2.11603 2.99366 0
M  V30 3464 H 323.212 0.648569 4.98801 0
M  V30 3465 H 322.912 2.36 5.38124 0
M  V30 3466 H 324.436 1.5833 5.89715 0
M  V30 3467 H 325.85 3.43888 4.58709 0
M  V30 3468 H 324.247 4.1788 4.30693 0
M  V30 3469 H 325.317 3.86462 2.92874 0
M  V30 3470 N 326.66 -1.06551 1.16123 0
M  V30 3471 C 327.59 -2.15935 0.88851 0
M  V30 3472 C 328.571 -1.69306 -0.164135 0
M  V30 3473 O 329.756 -1.94193 -0.0167857 0
M  V30 3474 C 326.886 -3.45149 0.385942 0
M  V30 3475 C 325.84 -4.05271 1.3762 0
M  V30 3476 C 325.166 -5.29664 0.732137 0
M  V30 3477 C 326.466 -4.44355 2.74493 0
M  V30 3478 H 328.16 -2.39006 1.80323 0
M  V30 3479 H 325.706 -1.14866 0.868435 0
M  V30 3480 H 327.659 -4.21004 0.182647 0
M  V30 3481 H 326.383 -3.21689 -0.564274 0
M  V30 3482 H 325.042 -3.3147 1.56599 0
M  V30 3483 H 324.69 -5.02499 -0.224483 0
M  V30 3484 H 324.39 -5.70848 1.39307 0
M  V30 3485 H 325.914 -6.08218 0.538802 0
M  V30 3486 H 327.328 -5.11303 2.59311 0
M  V30 3487 H 325.725 -4.96515 3.37035 0
M  V30 3488 H 326.795 -3.55339 3.29943 0
M  V30 3489 N 328.138 -0.959301 -1.25041 0
M  V30 3490 C 329.101 -0.487677 -2.23952 0
M  V30 3491 C 330.101 0.41119 -1.55454 0
M  V30 3492 O 331.291 0.207825 -1.72956 0
M  V30 3493 C 328.423 0.294807 -3.39623 0
M  V30 3494 H 329.616 -1.36198 -2.67189 0
M  V30 3495 H 327.169 -0.743042 -1.37508 0
M  V30 3496 H 327.904 1.18658 -3.01813 0
M  V30 3497 H 327.689 -0.35012 -3.90534 0
M  V30 3498 H 329.179 0.614089 -4.1306 0
M  V30 3499 N 329.616 1.39756 -0.72842 0
M  V30 3500 C 330.526 2.34444 -0.0855374 0
M  V30 3501 C 331.542 1.57976 0.729356 0
M  V30 3502 O 332.718 1.90301 0.659346 0
M  V30 3503 C 329.783 3.36965 0.815798 0
M  V30 3504 C 328.844 4.29299 -0.0105996 0
M  V30 3505 C 328.077 5.26923 0.84781 0
M  V30 3506 O 328.3 5.30859 2.08673 0
M  V30 3507 O 327.234 6.01249 0.279969 0
M  V30 3508 H 331.06 2.91065 -0.866892 0
M  V30 3509 H 328.645 1.4117 -0.48902 0
M  V30 3510 H 330.527 3.99804 1.33171 0
M  V30 3511 H 329.202 2.82739 1.57608 0
M  V30 3512 H 328.109 3.69703 -0.571877 0
M  V30 3513 H 329.442 4.86712 -0.73295 0
M  V30 3514 N 331.094 0.475555 1.50254 0
M  V30 3515 C 332.343 -0.0795996 2.01543 0
M  V30 3516 C 332.656 -1.4038 1.36209 0
M  V30 3517 O 333.862 -2.04415 1.7868 0
M  V30 3518 C 332.318 -0.192363 3.59386 0
M  V30 3519 C 331.926 1.12367 4.33679 0
M  V30 3520 C 333.67 -0.699238 4.18701 0
M  V30 3521 C 331.577 0.974453 5.83317 0
M  V30 3522 H 330.507 -0.0335228 0.753254 0
M  V30 3523 H 333.158 0.611128 1.73025 0
M  V30 3524 H 331.54 -0.946974 3.84511 0
M  V30 3525 H 332.714 1.88958 4.20276 0
M  V30 3526 H 331.029 1.562 3.85993 0
M  V30 3527 H 333.626 -0.827978 5.28251 0
M  V30 3528 H 333.969 -1.69171 3.80377 0
M  V30 3529 H 334.502 -0.00188807 3.978 0
M  V30 3530 H 331.241 1.94042 6.26121 0
M  V30 3531 H 330.761 0.248998 5.99283 0
M  V30 3532 H 332.44 0.642867 6.43798 0
M  V30 3533 N 332.573 -1.56217 0.208337 0
M  V30 3534 C 333.798 -2.02782 -0.435222 0
M  V30 3535 C 334.223 -1.08738 -1.53485 0
M  V30 3536 O 333.581 -0.0731855 -1.81152 0
M  V30 3537 C 333.629 -3.47687 -0.956335 0
M  V30 3538 O 332.733 -3.56773 -2.06849 0
M  V30 3539 H 332.074 -0.656403 -0.100158 0
M  V30 3540 H 334.604 -2.02033 0.3231 0
M  V30 3541 H 334.614 -3.87745 -1.26955 0
M  V30 3542 H 333.289 -4.15624 -0.15143 0
M  V30 3543 H 331.866 -3.28597 -1.76292 0
M  V30 3544 N 334.051 0.0651679 -1.57465 0
M  V30 3545 C 335.276 0.779605 -1.9219 0
M  V30 3546 C 335.701 1.69988 -0.805333 0
M  V30 3547 O 335.059 1.79685 0.241435 0
M  V30 3548 C 335.107 1.54364 -3.2589 0
M  V30 3549 O 334.211 2.65474 -3.1559 0
M  V30 3550 H 333.552 0.212249 -0.629163 0
M  V30 3551 H 336.082 0.0314294 -2.04576 0
M  V30 3552 H 336.092 1.92146 -3.59922 0
M  V30 3553 H 334.767 0.868457 -4.06732 0
M  V30 3554 H 333.344 2.30501 -2.93128 0
M  V30 3555 N 335.529 1.53961 0.336706 0
M  V30 3556 C 336.806 1.62171 1.09361 0
M  V30 3557 C 337.186 0.447263 2.06307 0
M  V30 3558 O 336.534 -0.559802 2.21537 0
M  V30 3559 C 336.744 2.98565 1.80721 0
M  V30 3560 C 338.092 3.54157 2.34218 0
M  V30 3561 O 339.116 3.00784 1.90807 0
M  V30 3562 O 337.975 4.47528 3.13657 0
M  V30 3563 H 335.069 0.6562 0.503319 0
M  V30 3564 H 337.615 1.66307 0.33765 0
M  V30 3565 H 336.387 3.75482 1.10132 0
M  V30 3566 H 336.01 2.9805 2.63158 0
M  V30 3567 N 337.007 -0.598083 1.45811 0
M  V30 3568 C 338.256 -1.35295 1.49594 0
M  V30 3569 C 338.569 -1.95057 0.145679 0
M  V30 3570 O 339.775 -2.71431 0.0612099 0
M  V30 3571 C 338.231 -2.45124 2.63519 0
M  V30 3572 C 337.839 -1.91732 4.04899 0
M  V30 3573 C 339.583 -3.2205 2.76558 0
M  V30 3574 C 337.49 -2.991 5.1019 0
M  V30 3575 H 336.42 -0.508552 0.556679 0
M  V30 3576 H 339.071 -0.639977 1.71978 0
M  V30 3577 H 337.453 -3.19149 2.34435 0
M  V30 3578 H 338.627 -1.24352 4.43704 0
M  V30 3579 H 336.942 -1.27522 3.96393 0
M  V30 3580 H 339.539 -4.0215 3.52391 0
M  V30 3581 H 339.882 -3.73663 1.83526 0
M  V30 3582 H 340.415 -2.55127 3.05213 0
M  V30 3583 H 337.154 -2.52393 6.04961 0
M  V30 3584 H 336.674 -3.65017 4.75944 0
M  V30 3585 H 338.353 -3.63318 5.35359 0
M  V30 3586 N 338.485 -1.33259 -0.841409 0
M  V30 3587 C 339.762 -1.15174 -1.58096 0
M  V30 3588 C 340.142 0.282858 -2.09196 0
M  V30 3589 O 339.49 1.28151 -1.89181 0
M  V30 3590 C 339.7 -2.1907 -2.71679 0
M  V30 3591 C 341.048 -2.53093 -3.40924 0
M  V30 3592 O 342.072 -2.17717 -2.81918 0
M  V30 3593 O 340.931 -3.1379 -4.47435 0
M  V30 3594 H 338.025 -0.445303 -0.696875 0
M  V30 3595 H 340.571 -1.44833 -0.884385 0
M  V30 3596 H 339.343 -3.15443 -2.31541 0
M  V30 3597 H 338.966 -1.90481 -3.49002 0
M  V30 3598 N 339.963 1.05934 -1.16686 0
M  V30 3599 C 340.895 2.13468 -0.834503 0
M  V30 3600 C 341.908 1.62013 0.15984 0
M  V30 3601 O 343.097 1.7838 -0.0654228 0
M  V30 3602 C 340.197 3.3817 -0.222361 0
M  V30 3603 C 339.37 4.18928 -1.25771 0
M  V30 3604 C 338.429 5.21985 -0.664703 0
M  V30 3605 O 337.455 5.53334 -1.33453 0
M  V30 3606 N 338.657 5.77919 0.546834 0
M  V30 3607 H 341.422 2.42578 -1.75999 0
M  V30 3608 H 338.983 1.21967 -1.06469 0
M  V30 3609 H 340.975 4.04266 0.187472 0
M  V30 3610 H 339.545 3.06655 0.606758 0
M  V30 3611 H 338.765 3.48433 -1.84358 0
M  V30 3612 H 340.053 4.69687 -1.95631 0
M  V30 3613 H 339.451 5.54721 1.10912 0
M  V30 3614 H 338.008 6.45573 0.898829 0
M  V30 3615 N 341.441 0.965919 1.2453 0
M  V30 3616 C 342.371 0.513476 2.27784 0
M  V30 3617 C 343.352 -0.445974 1.6415 0
M  V30 3618 O 344.537 -0.342485 1.91156 0
M  V30 3619 C 341.667 -0.198839 3.4673 0
M  V30 3620 C 340.621 0.676456 4.2262 0
M  V30 3621 C 339.947 -0.167248 5.34438 0
M  V30 3622 C 341.247 1.96017 4.84123 0
M  V30 3623 H 342.941 1.3765 2.65881 0
M  V30 3624 H 340.487 0.663321 1.27813 0
M  V30 3625 H 342.44 -0.526567 4.18097 0
M  V30 3626 H 341.164 -1.0962 3.07654 0
M  V30 3627 H 339.823 0.98743 3.53052 0
M  V30 3628 H 339.471 -1.0647 4.91603 0
M  V30 3629 H 339.171 0.415181 5.86131 0
M  V30 3630 H 340.695 -0.489688 6.08633 0
M  V30 3631 H 342.109 1.69814 5.47573 0
M  V30 3632 H 340.506 2.48918 5.4604 0
M  V30 3633 H 341.576 2.65622 4.05676 0
M  V30 3634 N 342.919 -1.39368 0.735821 0
M  V30 3635 C 343.867 -2.32443 0.0855131 0
M  V30 3636 C 344.861 -1.53104 -0.724954 0
M  V30 3637 O 346.067 -1.68762 -0.626047 0
M  V30 3638 H 342.442 -0.751948 0.00885257 0
M  V30 3639 H 344.413 -2.84916 0.886883 0
M  V30 3640 C 343.162 -3.38206 -0.806983 0
M  V30 3641 H 342.485 -3.99335 -0.19274 0
M  V30 3642 H 343.925 -4.05779 -1.2296 0
M  V30 3643 C 342.384 -2.75321 -1.94165 0
M  V30 3644 O 342.914 -2.63231 -3.03435 0
M  V30 3645 N 341.12 -2.33396 -1.73132 0
M  V30 3646 H 340.667 -2.4343 -0.842596 0
M  V30 3647 H 340.625 -1.91661 -2.49225 0
M  V30 3648 N 344.397 -0.483516 -1.5 0
M  V30 3649 C 345.808 -0.0314176 -1.86674 0
M  V30 3650 C 346.159 1.37728 -1.39733 0
M  V30 3651 O 345.284 2.02327 -0.767635 0
M  V30 3652 C 345.879 -0.0502376 -3.38763 0
M  V30 3653 C 344.438 0.346442 -3.74802 0
M  V30 3654 C 343.585 -0.430366 -2.7394 0
M  V30 3655 H 346.536 -0.697182 -1.42566 0
M  V30 3656 H 346.557 0.749116 -3.73053 0
M  V30 3657 H 346.069 -1.07563 -3.72897 0
M  V30 3658 H 344.17 1.37572 -3.46273 0
M  V30 3659 H 344.283 0.0391486 -4.79084 0
M  V30 3660 H 342.647 0.117557 -2.54429 0
M  V30 3661 H 343.43 -1.4555 -3.10918 0
M  V30 3662 N 345.875 1.56104 -0.216619 0
M  V30 3663 C 346.785 2.23694 0.706982 0
M  V30 3664 C 347.801 1.24295 1.21765 0
M  V30 3665 O 348.977 1.57094 1.2603 0
M  V30 3666 C 346.042 2.8998 1.90033 0
M  V30 3667 C 345.103 4.04708 1.43213 0
M  V30 3668 C 344.336 4.67824 2.56859 0
M  V30 3669 O 344.559 4.29913 3.74874 0
M  V30 3670 O 343.493 5.56905 2.28343 0
M  V30 3671 H 347.319 3.03272 0.161235 0
M  V30 3672 H 344.904 1.49394 0.0136177 0
M  V30 3673 H 346.786 3.31837 2.59735 0
M  V30 3674 H 345.461 2.13365 2.43428 0
M  V30 3675 H 344.368 3.6743 0.70327 0
M  V30 3676 H 345.701 4.83051 0.944615 0
M  V30 3677 N 347.353 -0.0568162 1.57498 0
M  V30 3678 C 348.578 -0.769402 1.92601 0
M  V30 3679 C 349.003 -1.69559 0.814336 0
M  V30 3680 O 348.361 -1.79811 -0.231903 0
M  V30 3681 C 348.409 -1.52634 3.26704 0
M  V30 3682 O 347.513 -2.63797 3.16994 0
M  V30 3683 H 346.854 -0.208909 0.63028 0
M  V30 3684 H 349.384 -0.0205798 2.0459 0
M  V30 3685 H 349.394 -1.90234 3.60936 0
M  V30 3686 H 348.069 -0.846875 4.07186 0
M  V30 3687 H 346.646 -2.28943 2.94346 0
M  V30 3688 N 348.832 -1.54138 -0.328536 0
M  V30 3689 C 349.795 -1.82462 -1.38709 0
M  V30 3690 C 350.795 -0.696229 -1.44946 0
M  V30 3691 O 351.985 -0.964535 -1.4506 0
M  V30 3692 C 349.117 -1.98018 -2.77492 0
M  V30 3693 H 350.31 -2.77037 -1.14851 0
M  V30 3694 H 347.863 -1.45779 -0.563751 0
M  V30 3695 H 348.598 -1.05637 -3.06613 0
M  V30 3696 H 348.383 -2.80124 -2.74359 0
M  V30 3697 H 349.873 -2.21396 -3.54081 0
M  V30 3698 N 350.31 0.590341 -1.46126 0
M  V30 3699 C 351.587 1.35029 -1.41515 0
M  V30 3700 C 351.967 2.10888 -0.0946472 0
M  V30 3701 O 351.315 2.08998 0.923693 0
M  V30 3702 C 351.525 2.28269 -2.63997 0
M  V30 3703 C 352.873 2.90338 -3.09821 0
M  V30 3704 O 353.897 2.38585 -2.64492 0
M  V30 3705 O 352.756 3.84321 -3.88535 0
M  V30 3706 H 349.85 0.606317 -0.562413 0
M  V30 3707 H 352.396 0.611994 -1.58281 0
M  V30 3708 H 351.168 1.71591 -3.51671 0
M  V30 3709 H 350.791 3.0945 -2.49652 0
M  V30 3710 N 351.788 1.33704 0.83433 0
M  V30 3711 C 352.718 1.26967 1.95963 0
M  V30 3712 C 353.699 0.149337 1.69443 0
M  V30 3713 O 354.884 0.339852 1.91203 0
M  V30 3714 C 352.014 1.01275 3.32206 0
M  V30 3715 C 350.968 2.09652 3.73136 0
M  V30 3716 C 350.294 1.69166 5.07235 0
M  V30 3717 C 351.594 3.51372 3.86439 0
M  V30 3718 H 353.288 2.2112 2.01857 0
M  V30 3719 H 350.834 1.06447 0.969793 0
M  V30 3720 H 352.787 0.952106 4.10503 0
M  V30 3721 H 351.511 0.0356203 3.26581 0
M  V30 3722 H 350.17 2.14766 2.97104 0
M  V30 3723 H 349.818 0.701437 4.98085 0
M  V30 3724 H 349.518 2.41694 5.35591 0
M  V30 3725 H 351.042 1.64576 5.88003 0
M  V30 3726 H 352.456 3.48734 4.55036 0
M  V30 3727 H 350.853 4.22425 4.26236 0
M  V30 3728 H 351.923 3.89546 2.88759 0
M  V30 3729 N 353.266 -1.05314 1.17247 0
M  V30 3730 C 354.682 -1.30452 0.919473 0
M  V30 3731 C 354.882 -1.9703 -0.42209 0
M  V30 3732 O 353.938 -2.24311 -1.15935 0
M  V30 3733 C 355.251 -2.17551 2.07586 0
M  V30 3734 C 356.799 -2.30937 2.11275 0
M  V30 3735 C 357.274 -3.21396 3.26296 0
M  V30 3736 N 358.765 -3.28981 3.26076 0
M  V30 3737 C 359.5 -3.99095 4.11716 0
M  V30 3738 N 358.996 -4.71648 5.07465 0
M  V30 3739 N 360.789 -3.95247 3.9967 0
M  V30 3740 H 352.94 -0.604988 2.03602 0
M  V30 3741 H 355.203 -0.329368 0.888944 0
M  V30 3742 H 354.909 -1.75921 3.0454 0
M  V30 3743 H 354.783 -3.18182 2.02584 0
M  V30 3744 H 357.17 -2.71809 1.14907 0
M  V30 3745 H 357.251 -1.2994 2.20339 0
M  V30 3746 H 356.895 -2.81238 4.22927 0
M  V30 3747 H 356.825 -4.22395 3.14467 0
M  V30 3748 H 359.316 -2.77286 2.5675 0
M  V30 3749 H 359.629 -5.22705 5.6921 0
M  V30 3750 H 357.974 -4.70594 5.11435 0
M  V30 3751 H 361.165 -3.37691 3.24164 0
M  V30 3752 H 361.338 -4.4962 4.66632 0
M  V30 3753 N 354.744 -0.972509 -1.24016 0
M  V30 3754 C 355.707 -0.511403 -2.23422 0
M  V30 3755 C 356.707 0.394679 -1.55881 0
M  V30 3756 O 357.897 0.189469 -1.73167 0
M  V30 3757 C 355.029 0.258769 -3.39916 0
M  V30 3758 H 356.222 -1.39024 -2.6573 0
M  V30 3759 H 353.775 -0.757585 -1.36713 0
M  V30 3760 H 354.51 1.1545 -3.03054 0
M  V30 3761 H 354.295 -0.391522 -3.9014 0
M  V30 3762 H 355.785 0.570244 -4.13688 0
M  V30 3763 N 356.222 1.38976 -0.743202 0
M  V30 3764 C 357.152 2.33171 -0.123873 0
M  V30 3765 C 358.133 1.54336 0.71516 0
M  V30 3766 O 359.318 1.82696 0.658467 0
M  V30 3767 C 356.448 3.38474 0.777978 0
M  V30 3768 C 355.402 4.27979 0.0424758 0
M  V30 3769 C 354.728 5.2405 1.06189 0
M  V30 3770 C 356.028 5.10155 -1.1198 0
M  V30 3771 H 357.722 2.85213 -0.910709 0
M  V30 3772 H 355.268 1.37133 -0.439388 0
M  V30 3773 H 357.221 4.03328 1.22084 0
M  V30 3774 H 355.945 2.84891 1.59702 0
M  V30 3775 H 354.604 3.64616 -0.380853 0
M  V30 3776 H 354.252 4.66758 1.87472 0
M  V30 3777 H 353.952 5.84785 0.574485 0
M  V30 3778 H 355.476 5.9178 1.50428 0
M  V30 3779 H 356.89 5.68307 -0.75499 0
M  V30 3780 H 355.287 5.80073 -1.53738 0
M  V30 3781 H 356.357 4.44504 -1.93764 0
M  V30 3782 N 357.7 0.491464 1.49741 0
M  V30 3783 C 358.663 -0.280906 2.27472 0
M  V30 3784 C 359.663 -0.902454 1.33088 0
M  V30 3785 O 360.853 -0.768465 1.56334 0
M  V30 3786 C 357.985 -1.40209 3.10732 0
M  V30 3787 H 359.178 0.401056 2.97206 0
M  V30 3788 H 356.731 0.246131 1.5435 0
M  V30 3789 H 357.466 -2.11849 2.45541 0
M  V30 3790 H 357.251 -0.961969 3.80117 0
M  V30 3791 H 358.741 -1.9464 3.69466 0
M  V30 3792 N 359.178 -1.55987 0.224894 0
M  V30 3793 C 360.125 -2.20436 -0.68385 0
M  V30 3794 C 361.095 -1.16102 -1.18783 0
M  V30 3795 O 362.28 -1.4447 -1.24632 0
M  V30 3796 C 359.42 -2.89076 -1.88491 0
M  V30 3797 C 358.533 -4.08012 -1.41951 0
M  V30 3798 C 357.668 -4.64426 -2.5784 0
M  V30 3799 C 356.707 -5.75656 -2.08053 0
M  V30 3800 N 355.844 -6.26347 -3.17227 0
M  V30 3801 H 360.684 -2.97727 -0.12754 0
M  V30 3802 H 358.221 -1.47011 -0.0511978 0
M  V30 3803 H 360.179 -3.27059 -2.59014 0
M  V30 3804 H 358.809 -2.14298 -2.41405 0
M  V30 3805 H 357.861 -3.75492 -0.609095 0
M  V30 3806 H 359.173 -4.88375 -1.01447 0
M  V30 3807 H 358.327 -5.04869 -3.3644 0
M  V30 3808 H 357.066 -3.83233 -3.01635 0
M  V30 3809 H 356.071 -5.34712 -1.27916 0
M  V30 3810 H 357.296 -6.58686 -1.65255 0
M  V30 3811 H 355.242 -5.48067 -3.60497 0
M  V30 3812 H 355.159 -7.01843 -2.80986 0
M  V30 3813 H 356.427 -6.71447 -3.95953 0
M  V30 3814 N 360.656 0.0484629 -1.57525 0
M  V30 3815 C 361.606 1.06246 -2.01732 0
M  V30 3816 C 362.59 1.33155 -0.903245 0
M  V30 3817 O 363.782 1.33065 -1.16717 0
M  V30 3818 C 360.911 2.36943 -2.48421 0
M  V30 3819 C 359.997 2.13208 -3.6661 0
M  V30 3820 N 360.388 1.5947 -4.80003 0
M  V30 3821 C 358.686 2.43581 -3.7361 0
M  V30 3822 C 359.387 1.51092 -5.61735 0
M  V30 3823 N 358.363 1.9797 -5.0627 0
M  V30 3824 H 362.165 0.640675 -2.86832 0
M  V30 3825 H 359.679 0.255134 -1.60383 0
M  V30 3826 H 361.676 3.10374 -2.78341 0
M  V30 3827 H 360.336 2.79818 -1.64718 0
M  V30 3828 H 361.347 1.28008 -5.01831 0
M  V30 3829 H 358.024 2.89662 -3.00669 0
M  V30 3830 H 359.414 1.10199 -6.62801 0
M  V30 3831 N 362.134 1.5431 0.320358 0
M  V30 3832 C 363.064 1.86912 1.3995 0
M  V30 3833 C 364.045 0.726211 1.53819 0
M  V30 3834 O 365.23 0.980233 1.67646 0
M  V30 3835 C 362.36 2.09932 2.7667 0
M  V30 3836 C 361.314 3.25776 2.77586 0
M  V30 3837 C 360.64 3.34173 4.17412 0
M  V30 3838 C 361.94 4.6335 2.41048 0
M  V30 3839 H 363.634 2.77292 1.12914 0
M  V30 3840 H 361.18 1.33421 0.541738 0
M  V30 3841 H 363.133 2.31324 3.52232 0
M  V30 3842 H 361.857 1.16304 3.0519 0
M  V30 3843 H 360.516 3.04276 2.04479 0
M  V30 3844 H 360.164 2.38098 4.43078 0
M  V30 3845 H 359.864 4.12033 4.18931 0
M  V30 3846 H 361.388 3.57803 4.94782 0
M  V30 3847 H 362.802 4.84602 3.06324 0
M  V30 3848 H 361.199 5.43782 2.53813 0
M  V30 3849 H 362.269 4.65381 1.36193 0
M  V30 3850 N 363.613 -0.582584 1.46437 0
M  V30 3851 C 364.843 -1.36484 1.55099 0
M  V30 3852 C 365.251 -1.88233 0.191056 0
M  V30 3853 O 364.594 -1.6429 -0.821858 0
M  V30 3854 C 364.656 -2.588 2.49525 0
M  V30 3855 C 364.32 -2.28517 3.95764 0
M  V30 3856 C 365.317 -1.87346 4.84972 0
M  V30 3857 C 363.002 -2.40658 4.40896 0
M  V30 3858 C 364.996 -1.5871 6.17325 0
M  V30 3859 C 362.683 -2.11635 5.73284 0
M  V30 3860 C 363.681 -1.70725 6.61318 0
M  V30 3861 O 363.369 -1.42057 7.91249 0
M  V30 3862 H 363.101 -0.423297 0.527063 0
M  V30 3863 H 365.655 -0.715188 1.92547 0
M  V30 3864 H 363.885 -3.26571 2.07095 0
M  V30 3865 H 365.574 -3.20868 2.48593 0
M  V30 3866 H 366.34 -1.77481 4.5136 0
M  V30 3867 H 362.219 -2.71463 3.72598 0
M  V30 3868 H 365.763 -1.26704 6.85997 0
M  V30 3869 H 361.66 -2.21124 6.06444 0
M  V30 3870 H 362.428 -1.55901 8.03515 0
M  V30 3871 N 365.091 -1.34144 -0.827227 0
M  V30 3872 C 366.368 -1.16844 -1.56865 0
M  V30 3873 C 366.748 0.260654 -2.09485 0
M  V30 3874 O 366.096 1.26138 -1.9053 0
M  V30 3875 C 366.306 -2.21939 -2.6934 0
M  V30 3876 C 367.654 -2.56695 -3.3822 0
M  V30 3877 O 368.678 -2.20695 -2.79593 0
M  V30 3878 O 367.537 -3.18518 -4.44082 0
M  V30 3879 H 364.631 -0.452669 -0.692112 0
M  V30 3880 H 367.177 -1.45763 -0.868973 0
M  V30 3881 H 365.949 -3.17882 -2.28182 0
M  V30 3882 H 365.572 -1.94172 -3.46962 0
M  V30 3883 N 366.569 1.04691 -1.17803 0
M  V30 3884 C 367.794 1.81984 -0.994813 0
M  V30 3885 C 368.219 1.82586 0.452112 0
M  V30 3886 O 367.577 1.23854 1.324 0
M  V30 3887 C 367.625 3.2575 -1.54659 0
M  V30 3888 O 366.729 4.05267 -0.763728 0
M  V30 3889 H 366.07 0.562483 -0.352857 0
M  V30 3890 H 368.6 1.3189 -1.56417 0
M  V30 3891 H 368.61 3.76541 -1.57102 0
M  V30 3892 H 367.285 3.24627 -2.59981 0
M  V30 3893 H 365.862 3.63972 -0.811108 0
M  V30 3894 N 368.047 0.979072 1.23499 0
M  V30 3895 C 369.277 0.664237 1.95631 0
M  V30 3896 C 369.685 -0.772653 1.72704 0
M  V30 3897 O 369.028 -1.53141 1.01457 0
M  V30 3898 C 369.09 0.873115 3.48736 0
M  V30 3899 C 368.754 2.29182 3.95379 0
M  V30 3900 C 369.751 3.2704 4.04155 0
M  V30 3901 C 367.436 2.62256 4.28401 0
M  V30 3902 C 369.43 4.56052 4.45304 0
M  V30 3903 C 367.117 3.91491 4.69231 0
M  V30 3904 C 368.115 4.88201 4.77649 0
M  V30 3905 O 367.803 6.15129 5.17563 0
M  V30 3906 H 367.535 0.245915 0.629684 0
M  V30 3907 H 370.089 1.3127 1.57979 0
M  V30 3908 H 368.319 0.167476 3.86337 0
M  V30 3909 H 370.008 0.555642 4.02079 0
M  V30 3910 H 370.774 3.02819 3.78848 0
M  V30 3911 H 366.653 1.87692 4.21061 0
M  V30 3912 H 370.197 5.31538 4.51789 0
M  V30 3913 H 366.094 4.15508 4.93987 0
M  V30 3914 H 366.862 6.18862 5.35679 0
M  V30 3915 N 369.525 -1.3858 0.750561 0
M  V30 3916 C 370.774 -1.99424 0.302172 0
M  V30 3917 C 371.087 -1.60254 -1.12152 0
M  V30 3918 O 372.293 -2.14046 -1.67023 0
M  V30 3919 C 370.749 -3.56558 0.489307 0
M  V30 3920 C 370.357 -4.04682 1.92189 0
M  V30 3921 C 372.101 -4.24374 0.103478 0
M  V30 3922 C 370.008 -5.54446 2.05775 0
M  V30 3923 H 368.938 -0.746046 0.10923 0
M  V30 3924 H 371.589 -1.58383 0.92667 0
M  V30 3925 H 369.971 -3.95472 -0.204329 0
M  V30 3926 H 371.145 -3.77065 2.64875 0
M  V30 3927 H 369.46 -3.4958 2.26236 0
M  V30 3928 H 372.057 -5.34384 0.183787 0
M  V30 3929 H 372.4 -4.05468 -0.943481 0
M  V30 3930 H 372.933 -3.90688 0.748854 0
M  V30 3931 H 369.672 -5.78252 3.08714 0
M  V30 3932 H 369.192 -5.83816 1.37546 0
M  V30 3933 H 370.871 -6.20099 1.84626 0
M  V30 3934 N 371.003 -0.499398 -1.49478 0
M  V30 3935 C 371.95 0.279881 -2.29097 0
M  V30 3936 C 372.92 0.961805 -1.3542 0
M  V30 3937 O 374.105 0.968777 -1.64376 0
M  V30 3938 C 371.245 1.33932 -3.18051 0
M  V30 3939 C 370.358 0.669333 -4.26783 0
M  V30 3940 C 369.493 1.70907 -5.02955 0
M  V30 3941 C 368.532 1.02087 -6.03527 0
M  V30 3942 N 367.669 2.00474 -6.7287 0
M  V30 3943 H 372.509 -0.405317 -2.95231 0
M  V30 3944 H 370.046 -0.211726 -1.45568 0
M  V30 3945 H 372.004 1.96553 -3.67998 0
M  V30 3946 H 370.634 1.9933 -2.53904 0
M  V30 3947 H 369.686 -0.0701234 -3.80335 0
M  V30 3948 H 370.998 0.127503 -4.98637 0
M  V30 3949 H 370.152 2.41037 -5.56764 0
M  V30 3950 H 368.891 2.28476 -4.30871 0
M  V30 3951 H 367.896 0.305338 -5.48951 0
M  V30 3952 H 369.121 0.451708 -6.77596 0
M  V30 3953 H 367.067 2.57007 -6.03559 0
M  V30 3954 H 366.984 1.51353 -7.40694 0
M  V30 3955 H 368.252 2.69897 -7.31284 0
M  V30 3956 N 372.481 1.55866 -0.233164 0
M  V30 3957 C 373.706 2.03449 0.402906 0
M  V30 3958 C 374.131 1.11166 1.51736 0
M  V30 3959 O 373.489 0.101996 1.81013 0
M  V30 3960 C 373.537 3.49165 0.9009 0
M  V30 3961 O 372.641 3.60019 2.01147 0
M  V30 3962 H 371.982 0.657913 0.0897025 0
M  V30 3963 H 374.512 2.01493 -0.355201 0
M  V30 3964 H 374.522 3.89716 1.2077 0
M  V30 3965 H 373.197 4.15813 0.0852889 0
M  V30 3966 H 371.774 3.3136 1.71042 0
M  V30 3967 N 373.959 -0.0401083 1.57549 0
M  V30 3968 C 375.206 -0.733125 1.88763 0
M  V30 3969 C 375.534 -1.75946 0.829058 0
M  V30 3970 O 374.789 -1.94949 -0.171323 0
M  V30 3971 C 375.088 -1.44902 3.26708 0
M  V30 3972 C 374.754 -0.559707 4.47413 0
M  V30 3973 C 373.416 -0.314731 4.8017 0
M  V30 3974 C 375.768 0.0549743 5.21171 0
M  V30 3975 C 373.096 0.553886 5.8408 0
M  V30 3976 C 375.448 0.911229 6.26003 0
M  V30 3977 C 374.112 1.16577 6.57241 0
M  V30 3978 H 373.382 -0.268269 0.690733 0
M  V30 3979 H 376.029 0.00679408 1.91499 0
M  V30 3980 H 374.334 -2.26197 3.1991 0
M  V30 3981 H 376.031 -1.99058 3.48105 0
M  V30 3982 H 372.621 -0.760793 4.21794 0
M  V30 3983 H 376.805 -0.121344 4.96152 0
M  V30 3984 H 372.061 0.759518 6.06664 0
M  V30 3985 H 376.235 1.3941 6.82303 0
M  V30 3986 H 373.862 1.84058 7.37582 0
M  V30 3987 N 375.437 -1.54477 -0.31217 0
M  V30 3988 C 376.848 -1.64344 -0.885891 0
M  V30 3989 C 377.199 -0.54485 -1.88483 0
M  V30 3990 O 376.324 0.320387 -2.14015 0
M  V30 3991 C 376.919 -2.97908 -1.61357 0
M  V30 3992 C 375.478 -3.09933 -2.13585 0
M  V30 3993 C 374.625 -2.59971 -0.964897 0
M  V30 3994 H 377.576 -1.58448 -0.0894528 0
M  V30 3995 H 377.597 -2.88706 -2.47848 0
M  V30 3996 H 377.109 -3.77845 -0.886277 0
M  V30 3997 H 375.21 -2.34694 -2.89395 0
M  V30 3998 H 375.323 -4.15916 -2.37804 0
M  V30 3999 H 373.687 -2.16147 -1.34731 0
M  V30 4000 H 374.47 -3.42376 -0.251742 0
M  V30 4001 N 376.915 0.57481 -1.46744 0
M  V30 4002 C 377.845 1.69337 -1.60771 0
M  V30 4003 C 378.826 1.63825 -0.457736 0
M  V30 4004 O 380.011 1.8172 -0.684947 0
M  V30 4005 C 377.141 3.0798 -1.60517 0
M  V30 4006 C 376.095 3.28327 -2.74564 0
M  V30 4007 C 375.421 4.67578 -2.59373 0
M  V30 4008 C 376.721 3.15398 -4.16319 0
M  V30 4009 H 378.415 1.57853 -2.54407 0
M  V30 4010 H 375.961 0.75799 -1.22436 0
M  V30 4011 H 377.914 3.86061 -1.68923 0
M  V30 4012 H 376.638 3.20381 -0.634305 0
M  V30 4013 H 375.297 2.52649 -2.65639 0
M  V30 4014 H 374.945 4.76755 -1.60353 0
M  V30 4015 H 374.645 4.82144 -3.35873 0
M  V30 4016 H 376.169 5.47817 -2.69682 0
M  V30 4017 H 377.583 3.83315 -4.26313 0
M  V30 4018 H 375.98 3.41482 -4.93468 0
M  V30 4019 H 377.05 2.12372 -4.3592 0
M  V30 4020 N 378.394 1.34581 0.820102 0
M  V30 4021 C 379.622 1.3018 1.60813 0
M  V30 4022 C 380.037 -0.123551 1.88395 0
M  V30 4023 O 379.394 -1.07148 1.47735 0
M  V30 4024 C 379.445 2.09312 2.94739 0
M  V30 4025 O 379.166 3.46288 2.68358 0
M  V30 4026 C 380.667 2.1234 3.89136 0
M  V30 4027 H 377.887 0.447726 0.499782 0
M  V30 4028 H 380.431 1.77237 1.02017 0
M  V30 4029 H 378.586 1.65889 3.50085 0
M  V30 4030 H 379 3.87227 3.53774 0
M  V30 4031 H 380.474 2.72126 4.80262 0
M  V30 4032 H 380.951 1.11854 4.24718 0
M  V30 4033 H 381.557 2.55864 3.39726 0
M  V30 4034 N 379.872 -1.04064 1.18357 0
M  V30 4035 C 380.819 -2.12077 0.910603 0
M  V30 4036 C 381.789 -1.65421 -0.15 0
M  V30 4037 O 382.974 -1.90797 -0.0103614 0
M  V30 4038 C 380.114 -3.42252 0.442472 0
M  V30 4039 C 379.227 -4.0252 1.5685 0
M  V30 4040 C 378.362 -5.20657 1.05309 0
M  V30 4041 C 377.401 -5.72955 2.1538 0
M  V30 4042 N 376.538 -6.8238 1.65233 0
M  V30 4043 H 381.378 -2.34764 1.83548 0
M  V30 4044 H 378.915 -1.15157 0.915279 0
M  V30 4045 H 380.873 -4.16921 0.152534 0
M  V30 4046 H 379.503 -3.19712 -0.445428 0
M  V30 4047 H 378.555 -3.25178 1.97391 0
M  V30 4048 H 379.867 -4.37362 2.39824 0
M  V30 4049 H 379.021 -6.0244 0.717677 0
M  V30 4050 H 377.76 -4.87318 0.19293 0
M  V30 4051 H 376.765 -4.89793 2.49766 0
M  V30 4052 H 377.99 -6.08337 3.01832 0
M  V30 4053 H 375.936 -6.50917 0.815064 0
M  V30 4054 H 375.853 -7.16286 2.41805 0
M  V30 4055 H 377.121 -7.67788 1.34619 0
M  V30 4056 N 381.35 -0.985608 -1.22978 0
M  V30 4057 C 382.313 -0.535071 -2.22867 0
M  V30 4058 C 383.313 0.378123 -1.56291 0
M  V30 4059 O 384.503 0.171092 -1.73358 0
M  V30 4060 C 381.635 0.222702 -3.40172 0
M  V30 4061 H 382.828 -1.41835 -2.6424 0
M  V30 4062 H 380.381 -0.772042 -1.35901 0
M  V30 4063 H 381.116 1.12229 -3.04262 0
M  V30 4064 H 380.901 -0.43288 -3.89703 0
M  V30 4065 H 382.391 0.526335 -4.1427 0
M  V30 4066 N 382.828 1.3818 -0.7579 0
M  V30 4067 C 383.775 2.30416 -0.133057 0
M  V30 4068 C 384.745 1.50398 0.704957 0
M  V30 4069 O 385.93 1.79014 0.660192 0
M  V30 4070 C 383.07 3.36834 0.750813 0
M  V30 4071 C 382.183 4.31879 -0.102297 0
M  V30 4072 C 381.318 5.25368 0.784979 0
M  V30 4073 C 380.357 6.12058 -0.0715046 0
M  V30 4074 N 379.494 6.97832 0.772972 0
M  V30 4075 H 384.334 2.83274 -0.925186 0
M  V30 4076 H 381.871 1.39461 -0.467866 0
M  V30 4077 H 383.829 3.97145 1.27794 0
M  V30 4078 H 382.459 2.85374 1.50868 0
M  V30 4079 H 381.511 3.72991 -0.747095 0
M  V30 4080 H 382.823 4.92921 -0.763552 0
M  V30 4081 H 381.977 5.90818 1.37911 0
M  V30 4082 H 380.716 4.64703 1.47996 0
M  V30 4083 H 379.721 5.456 -0.678272 0
M  V30 4084 H 380.946 6.74793 -0.763606 0
M  V30 4085 H 378.892 6.3971 1.45282 0
M  V30 4086 H 378.809 7.55812 0.168709 0
M  V30 4087 H 380.077 7.67687 1.35194 0
M  V30 4088 N 384.306 0.507319 1.49211 0
M  V30 4089 C 385.269 -0.256763 2.27757 0
M  V30 4090 C 386.269 -0.888287 1.34038 0
M  V30 4091 O 387.459 -0.751841 1.5714 0
M  V30 4092 C 384.591 -1.36905 3.12202 0
M  V30 4093 H 385.784 0.432557 2.96764 0
M  V30 4094 H 383.337 0.262488 1.5408 0
M  V30 4095 H 384.072 -2.09233 2.47775 0
M  V30 4096 H 383.857 -0.921599 3.81115 0
M  V30 4097 H 385.347 -1.9071 3.7151 0
M  V30 4098 N 385.784 -1.5574 0.241426 0
M  V30 4099 C 387.2 -1.59196 -0.113548 0
M  V30 4100 C 387.4 -1.25852 -1.57364 0
M  V30 4101 O 386.456 -1.00322 -2.31715 0
M  V30 4102 C 387.769 -2.99814 0.230695 0
M  V30 4103 C 389.317 -3.12513 0.174547 0
M  V30 4104 C 389.792 -4.55342 0.492744 0
M  V30 4105 N 391.283 -4.61076 0.443043 0
M  V30 4106 C 392.018 -5.6956 0.662484 0
M  V30 4107 N 391.514 -6.86328 0.944761 0
M  V30 4108 N 393.307 -5.58957 0.593564 0
M  V30 4109 H 385.458 -1.75685 1.19368 0
M  V30 4110 H 387.721 -0.81756 0.479896 0
M  V30 4111 H 387.427 -3.28932 1.24485 0
M  V30 4112 H 387.301 -3.74568 -0.444833 0
M  V30 4113 H 389.688 -2.83179 -0.830277 0
M  V30 4114 H 389.769 -2.40045 0.883845 0
M  V30 4115 H 389.413 -4.85396 1.4951 0
M  V30 4116 H 389.343 -5.26062 -0.23797 0
M  V30 4117 H 391.834 -3.77179 0.233374 0
M  V30 4118 H 392.147 -7.64935 1.09977 0
M  V30 4119 H 390.492 -6.88025 0.982175 0
M  V30 4120 H 393.683 -4.66611 0.373123 0
M  V30 4121 H 393.856 -6.43433 0.767981 0
M  V30 4122 N 387.262 0.0317525 -1.57568 0
M  V30 4123 C 388.225 1.01783 -2.0536 0
M  V30 4124 C 389.225 1.29203 -0.957253 0
M  V30 4125 O 390.415 1.24251 -1.22095 0
M  V30 4126 C 387.547 2.35137 -2.46827 0
M  V30 4127 H 388.74 0.605062 -2.93733 0
M  V30 4128 H 386.293 0.278514 -1.53799 0
M  V30 4129 H 387.028 2.81168 -1.61602 0
M  V30 4130 H 386.813 2.16566 -3.26866 0
M  V30 4131 H 388.303 3.05938 -2.84239 0
M  V30 4132 N 388.74 1.54641 0.303973 0
M  V30 4133 C 389.989 1.7299 1.03717 0
M  V30 4134 C 390.302 0.521168 1.88529 0
M  V30 4135 O 391.508 0.586408 2.65092 0
M  V30 4136 C 389.964 3.06051 1.89369 0
M  V30 4137 C 389.572 4.34393 1.09574 0
M  V30 4138 C 391.316 3.3376 2.62306 0
M  V30 4139 C 389.223 5.58506 1.94486 0
M  V30 4140 H 388.153 0.64473 0.390947 0
M  V30 4141 H 390.804 1.81124 0.294328 0
M  V30 4142 H 389.186 2.91874 2.67629 0
M  V30 4143 H 390.36 4.59396 0.359485 0
M  V30 4144 H 388.675 4.13597 0.482324 0
M  V30 4145 H 391.272 4.23687 3.26181 0
M  V30 4146 H 391.615 2.52503 3.3098 0
M  V30 4147 H 392.148 3.48894 1.91097 0
M  V30 4148 H 388.887 6.42422 1.30287 0
M  V30 4149 H 388.407 5.37694 2.65792 0
M  V30 4150 H 390.086 5.95651 2.52605 0
M  V30 4151 N 390.218 -0.567019 1.47046 0
M  V30 4152 C 391.148 -1.68482 1.61667 0
M  V30 4153 C 392.129 -1.6358 0.466418 0
M  V30 4154 O 393.314 -1.81354 0.694574 0
M  V30 4155 C 390.444 -3.07124 1.62148 0
M  V30 4156 C 389.398 -3.26867 2.76301 0
M  V30 4157 C 388.724 -4.66196 2.61849 0
M  V30 4158 C 390.024 -3.13186 4.17986 0
M  V30 4159 H 391.718 -1.56502 2.5524 0
M  V30 4160 H 389.264 -0.751486 1.22836 0
M  V30 4161 H 391.217 -3.8516 1.70968 0
M  V30 4162 H 389.941 -3.2004 0.651287 0
M  V30 4163 H 388.6 -2.51237 2.66975 0
M  V30 4164 H 388.248 -4.75898 1.62879 0
M  V30 4165 H 387.948 -4.80356 3.38425 0
M  V30 4166 H 389.472 -5.46379 2.72584 0
M  V30 4167 H 390.886 -3.81049 4.2834 0
M  V30 4168 H 389.283 -3.3886 4.95272 0
M  V30 4169 H 390.353 -2.10057 4.3704 0
M  V30 4170 N 391.696 -1.35014 -0.812953 0
M  V30 4171 C 392.924 -1.31031 -1.6012 0
M  V30 4172 C 393.339 0.113558 -1.88458 0
M  V30 4173 O 392.696 1.06363 -1.48301 0
M  V30 4174 C 392.747 -2.10872 -2.93624 0
M  V30 4175 O 392.468 -3.47706 -2.66518 0
M  V30 4176 C 393.969 -2.14401 -3.88004 0
M  V30 4177 H 391.189 -0.45037 -0.497401 0
M  V30 4178 H 393.733 -1.77775 -1.01076 0
M  V30 4179 H 391.888 -1.67744 -3.492 0
M  V30 4180 H 392.302 -3.89097 -3.51715 0
M  V30 4181 H 393.776 -2.74669 -4.78812 0
M  V30 4182 H 394.253 -1.14105 -4.24119 0
M  V30 4183 H 394.859 -2.57662 -3.38364 0
M  V30 4184 N 393.175 1.03435 -1.18907 0
M  V30 4185 C 394.423 1.76394 -0.986382 0
M  V30 4186 C 394.744 1.88883 0.484567 0
M  V30 4187 O 394.014 1.41843 1.3512 0
M  V30 4188 H 392.594 0.65344 -0.361975 0
M  V30 4189 H 395.256 1.248 -1.49703 0
M  V30 4190 H 394.352 2.77424 -1.42978 0
M  V30 4191 N 394.653 0.992116 1.22453 0
M  V30 4192 C 395.6 0.541731 2.24352 0
M  V30 4193 C 396.57 -0.425519 1.60557 0
M  V30 4194 O 397.755 -0.330453 1.87917 0
M  V30 4195 C 394.895 -0.138248 3.44823 0
M  V30 4196 C 394.008 0.870649 4.23136 0
M  V30 4197 C 393.143 0.164269 5.30946 0
M  V30 4198 C 392.182 1.16159 6.00977 0
M  V30 4199 N 391.319 0.483568 7.00433 0
M  V30 4200 H 396.159 1.41541 2.62241 0
M  V30 4201 H 393.696 0.709013 1.28885 0
M  V30 4202 H 395.654 -0.5494 4.13567 0
M  V30 4203 H 394.284 -0.975721 3.077 0
M  V30 4204 H 393.336 1.40013 3.53696 0
M  V30 4205 H 394.648 1.63014 4.7141 0
M  V30 4206 H 393.802 -0.303653 6.0594 0
M  V30 4207 H 392.541 -0.627733 4.83643 0
M  V30 4208 H 391.546 1.64015 5.24766 0
M  V30 4209 H 392.771 1.95445 6.50368 0
M  V30 4210 H 390.717 -0.289012 6.55363 0
M  V30 4211 H 390.634 1.18152 7.4671 0
M  V30 4212 H 391.902 0.0384219 7.79491 0
M  V30 4213 N 396.131 -1.37776 0.765217 0
M  V30 4214 C 397.359 -2.04124 0.337767 0
M  V30 4215 C 397.774 -1.57715 -1.03785 0
M  V30 4216 O 397.131 -0.755447 -1.6613 0
M  V30 4217 C 397.182 -3.59658 0.364442 0
M  V30 4218 O 396.903 -4.04367 1.68579 0
M  V30 4219 C 398.404 -4.43236 -0.0754221 0
M  V30 4220 H 395.624 -0.655696 0.142491 0
M  V30 4221 H 398.168 -1.76238 1.03732 0
M  V30 4222 H 396.323 -3.86339 -0.286471 0
M  V30 4223 H 396.737 -4.98857 1.61993 0
M  V30 4224 H 398.211 -5.52 -0.00560067 0
M  V30 4225 H 398.688 -4.2455 -1.12491 0
M  V30 4226 H 399.294 -4.21767 0.547055 0
M  V30 4227 N 397.609 -0.515225 -1.4894 0
M  V30 4228 C 398.837 0.0206034 -2.0689 0
M  V30 4229 C 399.252 1.29514 -1.37374 0
M  V30 4230 O 398.609 1.76698 -0.456529 0
M  V30 4231 C 398.66 0.26351 -3.60538 0
M  V30 4232 O 398.381 -0.960517 -4.27441 0
M  V30 4233 C 399.882 0.841383 -4.35242 0
M  V30 4234 H 397.102 -0.0268608 -0.670462 0
M  V30 4235 H 399.646 -0.716651 -1.91532 0
M  V30 4236 H 397.801 0.950777 -3.75552 0
M  V30 4237 H 398.215 -0.73212 -5.19365 0
M  V30 4238 H 399.689 0.96085 -5.43573 0
M  V30 4239 H 400.166 1.8427 -3.98674 0
M  V30 4240 H 400.772 0.191143 -4.2487 0
M  V30 4241 N 399.087 1.5561 -0.249682 0
M  V30 4242 C 400.364 1.90932 0.424761 0
M  V30 4243 C 400.744 1.17078 1.75658 0
M  V30 4244 O 400.092 0.289176 2.26663 0
M  V30 4245 C 400.302 3.43975 0.590109 0
M  V30 4246 C 401.65 4.15281 0.884714 0
M  V30 4247 O 402.674 3.49729 0.67587 0
M  V30 4248 O 401.533 5.31236 1.28259 0
M  V30 4249 H 398.627 0.794815 0.228468 0
M  V30 4250 H 401.173 1.67135 -0.293954 0
M  V30 4251 H 399.945 3.89748 -0.34818 0
M  V30 4252 H 399.568 3.73644 1.35926 0
M  V30 4253 N 400.565 -0.0233959 1.57583 0
M  V30 4254 C 401.512 -1.02224 2.06927 0
M  V30 4255 C 402.482 -1.35575 0.959617 0
M  V30 4256 O 403.667 -1.45815 1.23055 0
M  V30 4257 C 400.807 -2.31636 2.5581 0
M  V30 4258 C 399.92 -2.04394 3.80588 0
M  V30 4259 C 399.055 -3.27717 4.18061 0
M  V30 4260 C 398.094 -2.96056 5.3574 0
M  V30 4261 N 397.231 -4.11847 5.68618 0
M  V30 4262 H 402.071 -0.594504 2.9201 0
M  V30 4263 H 399.608 -0.281921 1.44373 0
M  V30 4264 H 401.566 -3.07258 2.82221 0
M  V30 4265 H 400.196 -2.72122 1.73636 0
M  V30 4266 H 399.248 -1.19244 3.61227 0
M  V30 4267 H 400.56 -1.77042 4.66323 0
M  V30 4268 H 399.714 -4.11702 4.4563 0
M  V30 4269 H 398.453 -3.58188 3.30988 0
M  V30 4270 H 397.458 -2.10474 5.07918 0
M  V30 4271 H 398.683 -2.66857 6.24471 0
M  V30 4272 H 396.629 -4.42258 4.84504 0
M  V30 4273 H 396.546 -3.87938 6.48876 0
M  V30 4274 H 397.814 -4.96689 6.00766 0
M  V30 4275 N 402.043 -1.548 -0.295768 0
M  V30 4276 C 403.268 -1.78653 -1.05346 0
M  V30 4277 C 403.693 -0.546894 -1.79974 0
M  V30 4278 O 403.051 0.502763 -1.7419 0
M  V30 4279 C 403.099 -2.99679 -2.00561 0
M  V30 4280 O 402.203 -2.7317 -3.08953 0
M  V30 4281 H 401.544 -0.59116 -0.302367 0
M  V30 4282 H 404.074 -2.01895 -0.331598 0
M  V30 4283 H 404.084 -3.27793 -2.42932 0
M  V30 4284 H 402.759 -3.89562 -1.4565 0
M  V30 4285 H 401.336 -2.56089 -2.71059 0
M  V30 4286 N 403.521 0.559213 -1.47345 0
M  V30 4287 C 404.932 1.14134 -1.47751 0
M  V30 4288 C 405.283 1.94834 -0.231103 0
M  V30 4289 O 404.408 2.05957 0.664137 0
M  V30 4290 C 405.003 2.07653 -2.67705 0
M  V30 4291 C 403.562 2.61141 -2.71076 0
M  V30 4292 C 402.709 1.3748 -2.40821 0
M  V30 4293 H 405.66 0.345917 -1.54884 0
M  V30 4294 H 405.681 2.91497 -2.44561 0
M  V30 4295 H 405.193 1.4889 -3.58404 0
M  V30 4296 H 403.294 3.23707 -1.84511 0
M  V30 4297 H 403.407 3.02272 -3.7171 0
M  V30 4298 H 401.771 1.68086 -1.91362 0
M  V30 4299 H 402.554 0.805135 -3.33725 0
M  V30 4300 N 404.999 1.35443 0.805782 0
M  V30 4301 C 406.246 1.28761 1.56291 0
M  V30 4302 C 406.574 -0.137747 1.94012 0
M  V30 4303 O 405.829 -1.1032 1.61642 0
M  V30 4304 C 406.128 2.14045 2.86216 0
M  V30 4305 C 405.794 3.62826 2.67709 0
M  V30 4306 C 404.456 4.0338 2.6237 0
M  V30 4307 C 406.808 4.57227 2.50186 0
M  V30 4308 C 404.136 5.36501 2.37451 0
M  V30 4309 C 406.488 5.90547 2.26797 0
M  V30 4310 C 405.152 6.30245 2.1988 0
M  V30 4311 H 404.422 0.471171 0.571908 0
M  V30 4312 H 407.069 1.67347 0.930974 0
M  V30 4313 H 405.374 1.68342 3.53791 0
M  V30 4314 H 407.071 2.0621 3.43917 0
M  V30 4315 H 403.661 3.30644 2.72713 0
M  V30 4316 H 407.845 4.2678 2.53323 0
M  V30 4317 H 403.101 5.66259 2.30567 0
M  V30 4318 H 407.275 6.63274 2.12228 0
M  V30 4319 H 404.902 7.33328 2.00333 0
M  V30 4320 N 406.477 -1.02803 1.19454 0
M  V30 4321 C 407.723 -1.76478 0.999171 0
M  V30 4322 C 408.056 -1.88456 -0.468828 0
M  V30 4323 O 407.331 -1.40198 -1.34814 0
M  V30 4324 C 407.614 -3.19044 1.66981 0
M  V30 4325 C 407.467 -3.14932 3.21151 0
M  V30 4326 C 408.786 -4.17456 1.39349 0
M  V30 4327 H 405.905 -0.640614 0.364393 0
M  V30 4328 H 408.547 -1.20005 1.47305 0
M  V30 4329 H 406.697 -3.67263 1.2669 0
M  V30 4330 H 408.369 -2.74605 3.70661 0
M  V30 4331 H 406.612 -2.52625 3.52652 0
M  V30 4332 H 407.283 -4.1566 3.63223 0
M  V30 4333 H 409.759 -3.77842 1.74283 0
M  V30 4334 H 408.635 -5.154 1.88823 0
M  V30 4335 H 408.896 -4.40949 0.318813 0
M  V30 4336 N 407.956 -0.998596 -1.21925 0
M  V30 4337 C 409.205 -0.673085 -1.90138 0
M  V30 4338 C 409.518 0.79895 -1.78539 0
M  V30 4339 O 410.724 1.23628 -2.4172 0
M  V30 4340 C 409.18 -1.15339 -3.40918 0
M  V30 4341 C 408.788 -2.65106 -3.61141 0
M  V30 4342 C 410.532 -0.902476 -4.14796 0
M  V30 4343 C 408.439 -3.0671 -5.05651 0
M  V30 4344 H 407.369 -0.248057 -0.712028 0
M  V30 4345 H 410.02 -1.20891 -1.38049 0
M  V30 4346 H 408.402 -0.545658 -3.92223 0
M  V30 4347 H 409.576 -3.31274 -3.20304 0
M  V30 4348 H 407.891 -2.88142 -3.00605 0
M  V30 4349 H 410.488 -1.18895 -5.21314 0
M  V30 4350 H 410.831 0.161349 -4.15987 0
M  V30 4351 H 411.364 -1.47269 -3.69536 0
M  V30 4352 H 408.103 -4.12292 -5.09603 0
M  V30 4353 H 407.623 -2.45249 -5.47369 0
M  V30 4354 H 409.302 -2.9833 -5.74115 0
M  V30 4355 N 409.434 1.37368 -0.772513 0
M  V30 4356 C 410.664 2.03647 -0.348082 0
M  V30 4357 C 411.072 1.58392 1.03482 0
M  V30 4358 O 410.415 0.760921 1.672 0
M  V30 4359 C 410.477 3.58131 -0.313404 0
M  V30 4360 C 410.141 4.2652 -1.64102 0
M  V30 4361 C 411.138 4.50587 -2.5936 0
M  V30 4362 C 408.823 4.64335 -1.91567 0
M  V30 4363 C 410.817 5.11526 -3.80289 0
M  V30 4364 C 408.504 5.24996 -3.12766 0
M  V30 4365 C 409.502 5.48529 -4.06946 0
M  V30 4366 O 409.19 6.07921 -5.26011 0
M  V30 4367 H 408.922 0.660538 -0.143753 0
M  V30 4368 H 411.476 1.76669 -1.04772 0
M  V30 4369 H 409.706 3.84159 0.442617 0
M  V30 4370 H 411.395 4.05813 0.0840613 0
M  V30 4371 H 412.161 4.21784 -2.39423 0
M  V30 4372 H 408.04 4.45353 -1.19088 0
M  V30 4373 H 411.584 5.29811 -4.53813 0
M  V30 4374 H 407.481 5.53223 -3.32588 0
M  V30 4375 H 408.249 6.26398 -5.26847 0
M  V30 4376 N 410.912 0.523116 1.48665 0
M  V30 4377 C 412.189 -0.0775449 1.95446 0
M  V30 4378 C 412.569 -1.5197 1.4652 0
M  V30 4379 O 411.917 -2.17876 0.688657 0
M  V30 4380 C 412.127 0.0326135 3.48985 0
M  V30 4381 C 413.475 -0.130141 4.24401 0
M  V30 4382 O 414.499 -0.0415142 3.56176 0
M  V30 4383 O 413.358 -0.31491 5.45592 0
M  V30 4384 H 410.452 -0.0831012 0.822814 0
M  V30 4385 H 412.998 0.587227 1.59216 0
M  V30 4386 H 411.77 1.03748 3.77296 0
M  V30 4387 H 411.393 -0.671317 3.91892 0
M  V30 4388 N 412.39 -1.55475 0.257931 0
M  V30 4389 C 413.323 -2.179 -0.677862 0
M  V30 4390 C 414.301 -1.13448 -1.16483 0
M  V30 4391 O 415.485 -1.41889 -1.24095 0
M  V30 4392 C 412.612 -2.78851 -1.92249 0
M  V30 4393 C 411.658 -3.96454 -1.57246 0
M  V30 4394 S 412.491 -5.31349 -0.665501 0
M  V30 4395 C 413.647 -5.9576 -1.91889 0
M  V30 4396 H 413.88 -2.96934 -0.147396 0
M  V30 4397 H 411.413 -1.54342 0.0423023 0
M  V30 4398 H 413.371 -3.14602 -2.63697 0
M  V30 4399 H 412.032 -1.99742 -2.42409 0
M  V30 4400 H 411.225 -4.37731 -2.49814 0
M  V30 4401 H 410.827 -3.62038 -0.938325 0
M  V30 4402 H 413.119 -6.13947 -2.86487 0
M  V30 4403 H 414.062 -6.9094 -1.54942 0
M  V30 4404 H 414.47 -5.2494 -2.076 0
M  V30 4405 N 413.868 0.0150385 -1.57593 0
M  V30 4406 C 414.816 1.02958 -2.08572 0
M  V30 4407 C 415.81 1.36554 -1.00246 0
M  V30 4408 O 417.016 1.35295 -1.18724 0
M  V30 4409 H 413.391 0.349619 -0.665786 0
M  V30 4410 H 415.362 0.573932 -2.92829 0
M  V30 4411 C 414.111 2.31752 -2.59203 0
M  V30 4412 H 413.434 2.06765 -3.42182 0
M  V30 4413 H 414.874 3.01053 -2.98568 0
M  V30 4414 C 413.333 3.01692 -1.49945 0
M  V30 4415 O 413.863 3.92083 -0.873704 0
M  V30 4416 N 412.069 2.6326 -1.23056 0
M  V30 4417 H 411.616 1.89838 -1.74125 0
M  V30 4418 H 411.574 3.10372 -0.501685 0
M  V30 4419 N 415.346 1.54954 0.287554 0
M  V30 4420 C 416.571 1.79209 1.04397 0
M  V30 4421 C 416.996 0.556431 1.79682 0
M  V30 4422 O 416.354 -0.493518 1.74454 0
M  V30 4423 C 416.402 3.00739 1.98969 0
M  V30 4424 O 415.506 2.74805 3.075 0
M  V30 4425 H 414.847 0.592755 0.299227 0
M  V30 4426 H 417.377 2.02068 0.320886 0
M  V30 4427 H 417.387 3.29077 2.4119 0
M  V30 4428 H 416.062 3.90329 1.43582 0
M  V30 4429 H 414.639 2.57523 2.69697 0
M  V30 4430 N 416.824 -0.551391 1.4764 0
M  V30 4431 C 417.754 -1.66757 1.63445 0
M  V30 4432 C 418.735 -1.63077 0.483742 0
M  V30 4433 O 419.92 -1.80607 0.71377 0
M  V30 4434 C 417.05 -3.05387 1.65396 0
M  V30 4435 C 416.004 -3.23918 2.79752 0
M  V30 4436 C 415.33 -4.63393 2.66779 0
M  V30 4437 C 416.63 -3.08735 4.21284 0
M  V30 4438 H 418.324 -1.53786 2.56886 0
M  V30 4439 H 415.87 -0.738415 1.23626 0
M  V30 4440 H 417.823 -3.83325 1.75043 0
M  V30 4441 H 416.547 -3.19332 0.685195 0
M  V30 4442 H 415.206 -2.48391 2.69625 0
M  V30 4443 H 414.854 -4.74144 1.67918 0
M  V30 4444 H 414.554 -4.7674 3.43501 0
M  V30 4445 H 416.078 -5.43458 2.78364 0
M  V30 4446 H 417.492 -3.76484 4.32357 0
M  V30 4447 H 415.889 -3.33588 4.98838 0
M  V30 4448 H 416.959 -2.0541 4.39243 0
M  V30 4449 N 418.302 -1.35869 -0.798587 0
M  V30 4450 C 419.235 -1.23801 -1.91699 0
M  V30 4451 C 420.213 -0.124143 -1.62125 0
M  V30 4452 O 421.397 -0.293656 -1.86199 0
M  V30 4453 C 418.524 -0.908063 -3.263 0
M  V30 4454 C 417.57 -2.0351 -3.74815 0
M  V30 4455 S 418.403 -3.65183 -3.91665 0
M  V30 4456 C 419.559 -3.34283 -5.29156 0
M  V30 4457 H 419.792 -2.18466 -2.01643 0
M  V30 4458 H 417.325 -1.21178 -0.956833 0
M  V30 4459 H 419.283 -0.724506 -4.04056 0
M  V30 4460 H 417.944 0.0206584 -3.14093 0
M  V30 4461 H 417.137 -1.75858 -4.72324 0
M  V30 4462 H 416.739 -2.1774 -3.04081 0
M  V30 4463 H 419.031 -2.87607 -6.13424 0
M  V30 4464 H 419.974 -4.31022 -5.61806 0
M  V30 4465 H 420.382 -2.69854 -4.95822 0
M  V30 4466 N 419.78 1.02168 -1.19998 0
M  V30 4467 C 420.713 2.10232 -0.887558 0
M  V30 4468 C 421.691 1.61827 0.158317 0
M  V30 4469 O 422.875 1.88471 0.0330249 0
M  V30 4470 C 420.002 3.37092 -0.32964 0
M  V30 4471 C 419.048 4.0438 -1.3557 0
M  V30 4472 S 419.881 4.48956 -2.91888 0
M  V30 4473 C 421.037 5.79024 -2.37658 0
M  V30 4474 H 421.27 2.36409 -1.80272 0
M  V30 4475 H 418.803 1.15211 -1.0279 0
M  V30 4476 H 420.761 4.10498 -0.0142824 0
M  V30 4477 H 419.422 3.08996 0.563941 0
M  V30 4478 H 418.615 4.95632 -0.9146 0
M  V30 4479 H 418.217 3.37176 -1.61828 0
M  V30 4480 H 420.509 6.53942 -1.77103 0
M  V30 4481 H 421.452 6.27924 -3.27287 0
M  V30 4482 H 421.86 5.35043 -1.79971 0
M  V30 4483 N 421.258 1.00505 1.21394 0
M  V30 4484 C 422.506 0.686415 1.90086 0
M  V30 4485 C 422.827 -0.785264 1.7849 0
M  V30 4486 O 422.097 -1.56387 1.17983 0
M  V30 4487 H 420.677 0.2509 0.703604 0
M  V30 4488 H 423.339 1.27417 1.47482 0
M  V30 4489 H 422.435 0.959621 2.96981 0
M  V30 4490 N 422.737 -1.36956 0.779787 0
M  V30 4491 C 423.647 -2.33965 0.172491 0
M  V30 4492 C 424.663 -1.60574 -0.670222 0
M  V30 4493 O 425.839 -1.92617 -0.588263 0
M  V30 4494 C 422.904 -3.39761 -0.690173 0
M  V30 4495 C 421.965 -4.28964 0.169924 0
M  V30 4496 C 421.198 -5.29707 -0.651662 0
M  V30 4497 O 421.421 -5.38238 -1.88827 0
M  V30 4498 O 420.355 -6.01873 -0.0566264 0
M  V30 4499 H 424.181 -2.87647 0.974321 0
M  V30 4500 H 421.766 -1.39258 0.541078 0
M  V30 4501 H 423.648 -4.04471 -1.1824 0
M  V30 4502 H 422.323 -2.88394 -1.47006 0
M  V30 4503 H 421.23 -3.67326 0.708696 0
M  V30 4504 H 422.563 -4.83656 0.913085 0
M  V30 4505 N 424.215 -0.530993 -1.48385 0
M  V30 4506 C 425.492 0.0671788 -1.95485 0
M  V30 4507 C 425.872 1.51191 -1.47324 0
M  V30 4508 O 425.22 2.17507 -0.700202 0
M  V30 4509 C 425.43 -0.0511206 -3.48963 0
M  V30 4510 C 426.778 0.107632 -4.24464 0
M  V30 4511 O 427.802 0.0226248 -3.56193 0
M  V30 4512 O 426.661 0.285972 -5.45751 0
M  V30 4513 H 423.755 0.0787365 -0.823243 0
M  V30 4514 H 426.301 -0.595662 -1.58902 0
M  V30 4515 H 425.073 -1.05747 -3.7674 0
M  V30 4516 H 424.696 0.650525 -3.92242 0
M  V30 4517 N 425.693 1.55336 -0.266172 0
M  V30 4518 C 426.64 2.22172 0.625165 0
M  V30 4519 C 427.61 1.19211 1.15663 0
M  V30 4520 O 428.795 1.47723 1.20758 0
M  V30 4521 C 425.935 2.93972 1.8076 0
M  V30 4522 C 425.048 4.11632 1.31084 0
M  V30 4523 C 424.183 4.71099 2.45436 0
M  V30 4524 C 423.222 5.8097 1.92718 0
M  V30 4525 N 422.359 6.34538 3.00509 0
M  V30 4526 H 427.199 2.9796 0.0485582 0
M  V30 4527 H 424.736 1.47095 0.0122024 0
M  V30 4528 H 426.694 3.33811 2.50251 0
M  V30 4529 H 425.324 2.20623 2.35638 0
M  V30 4530 H 424.376 3.76975 0.509326 0
M  V30 4531 H 425.688 4.90893 0.884633 0
M  V30 4532 H 424.842 5.13612 3.22936 0
M  V30 4533 H 423.581 3.91096 2.91368 0
M  V30 4534 H 422.586 5.37916 1.13695 0
M  V30 4535 H 423.811 6.62836 1.47733 0
M  V30 4536 H 421.757 5.57433 3.45839 0
M  V30 4537 H 421.674 7.09046 2.62279 0
M  V30 4538 H 422.942 6.81709 3.78011 0
M  V30 4539 N 427.171 -0.0066808 1.57599 0
M  V30 4540 C 428.42 -0.692078 1.89455 0
M  V30 4541 C 428.733 -1.75306 0.867586 0
M  V30 4542 O 429.939 -2.49262 1.07614 0
M  V30 4543 C 428.395 -1.2821 3.36289 0
M  V30 4544 C 428.003 -0.256291 4.47266 0
M  V30 4545 C 429.747 -1.94608 3.77264 0
M  V30 4546 C 427.654 -0.855927 5.85173 0
M  V30 4547 H 426.584 -0.262252 0.706923 0
M  V30 4548 H 429.235 0.052769 1.83424 0
M  V30 4549 H 427.617 -2.0774 3.37135 0
M  V30 4550 H 428.791 0.513923 4.57925 0
M  V30 4551 H 427.106 0.306862 4.15268 0
M  V30 4552 H 429.703 -2.40364 4.77629 0
M  V30 4553 H 430.046 -2.77382 3.10427 0
M  V30 4554 H 430.579 -1.21822 3.78688 0
M  V30 4555 H 427.318 -0.0671161 6.55466 0
M  V30 4556 H 426.838 -1.59546 5.78191 0
M  V30 4557 H 428.517 -1.35658 6.32618 0
M  V30 4558 N 428.649 -1.55105 -0.279332 0
M  V30 4559 C 429.596 -1.8755 -1.34513 0
M  V30 4560 C 430.566 -0.726384 -1.49375 0
M  V30 4561 O 431.751 -0.977063 -1.63884 0
M  V30 4562 C 428.891 -2.14738 -2.70151 0
M  V30 4563 C 428.004 -3.42285 -2.63562 0
M  V30 4564 C 427.139 -3.59206 -3.91337 0
M  V30 4565 C 426.178 -4.80467 -3.79233 0
M  V30 4566 N 425.315 -4.94079 -4.98829 0
M  V30 4567 H 430.155 -2.78456 -1.06143 0
M  V30 4568 H 427.692 -1.37867 -0.512936 0
M  V30 4569 H 429.65 -2.28501 -3.49061 0
M  V30 4570 H 428.28 -1.27075 -2.96735 0
M  V30 4571 H 427.332 -3.37029 -1.76397 0
M  V30 4572 H 428.644 -4.31328 -2.50515 0
M  V30 4573 H 427.798 -3.72751 -4.78687 0
M  V30 4574 H 426.537 -2.68337 -4.07243 0
M  V30 4575 H 425.542 -4.66932 -2.90266 0
M  V30 4576 H 426.767 -5.72765 -3.64852 0
M  V30 4577 H 424.713 -4.06139 -5.15158 0
M  V30 4578 H 424.63 -5.77156 -4.8829 0
M  V30 4579 H 425.898 -5.12003 -5.8777 0
M  V30 4580 N 430.127 0.543554 -1.4793 0
M  V30 4581 C 431.374 1.30008 -1.55255 0
M  V30 4582 C 431.702 1.93245 -0.220612 0
M  V30 4583 O 430.957 1.79141 0.787843 0
M  V30 4584 C 431.256 2.42078 -2.62932 0
M  V30 4585 C 430.922 1.96583 -4.0579 0
M  V30 4586 C 429.584 1.83893 -4.44676 0
M  V30 4587 C 431.936 1.62034 -4.95373 0
M  V30 4588 C 429.264 1.34969 -5.70964 0
M  V30 4589 C 431.616 1.14577 -6.22137 0
M  V30 4590 C 430.28 1.00493 -6.59892 0
M  V30 4591 H 429.55 0.475735 -0.568117 0
M  V30 4592 H 432.197 0.608075 -1.81589 0
M  V30 4593 H 430.502 3.16892 -2.30406 0
M  V30 4594 H 432.199 3.00236 -2.65818 0
M  V30 4595 H 428.789 2.07407 -3.75074 0
M  V30 4596 H 432.973 1.70705 -4.66019 0
M  V30 4597 H 428.229 1.2274 -5.98953 0
M  V30 4598 H 432.403 0.869109 -6.90955 0
M  V30 4599 H 430.03 0.623624 -7.57638 0
M  V30 4600 N 431.605 1.3629 0.791371 0
M  V30 4601 C 432.552 1.30458 1.90393 0
M  V30 4602 C 433.522 0.173632 1.6519 0
M  V30 4603 O 434.707 0.35983 1.87376 0
M  V30 4604 C 431.847 1.09777 3.27174 0
M  V30 4605 C 430.96 2.31929 3.64462 0
M  V30 4606 C 430.095 2.04276 4.90352 0
M  V30 4607 C 429.134 3.224 5.20312 0
M  V30 4608 N 428.271 2.94424 6.37385 0
M  V30 4609 H 433.111 2.25589 1.94714 0
M  V30 4610 H 430.648 1.12122 0.952216 0
M  V30 4611 H 432.606 0.958133 4.06049 0
M  V30 4612 H 431.236 0.183014 3.22281 0
M  V30 4613 H 430.288 2.56703 2.80727 0
M  V30 4614 H 431.6 3.20085 3.82553 0
M  V30 4615 H 430.754 1.87231 5.77087 0
M  V30 4616 H 429.493 1.13428 4.74326 0
M  V30 4617 H 428.498 3.40005 4.32061 0
M  V30 4618 H 429.723 4.14071 5.38258 0
M  V30 4619 H 427.669 2.06185 6.22755 0
M  V30 4620 H 427.586 3.76118 6.55798 0
M  V30 4621 H 428.854 2.80953 7.27108 0
M  V30 4622 N 433.083 -1.0153 1.20538 0
M  V30 4623 C 434.033 -2.08482 0.922991 0
M  V30 4624 C 435.017 -1.60469 -0.117702 0
M  V30 4625 O 436.209 -1.76772 0.0898465 0
M  V30 4626 C 433.338 -3.39952 0.478312 0
M  V30 4627 C 432.424 -3.94662 1.5525 0
M  V30 4628 N 432.815 -4.22866 2.77521 0
M  V30 4629 C 431.113 -4.22825 1.41897 0
M  V30 4630 C 431.814 -4.67002 3.4682 0
M  V30 4631 N 430.79 -4.69356 2.74237 0
M  V30 4632 H 434.592 -2.28199 1.85209 0
M  V30 4633 H 432.106 -1.19512 1.09957 0
M  V30 4634 H 434.103 -4.16105 0.257408 0
M  V30 4635 H 432.763 -3.21648 -0.444148 0
M  V30 4636 H 433.774 -4.11732 3.1416 0
M  V30 4637 H 430.451 -4.13714 0.561015 0
M  V30 4638 H 431.841 -4.97632 4.51455 0
M  V30 4639 N 434.561 -1.01147 -1.20859 0
M  V30 4640 C 435.81 -0.693214 -1.89413 0
M  V30 4641 C 436.123 0.779969 -1.79376 0
M  V30 4642 O 437.329 1.21057 -2.43017 0
M  V30 4643 C 435.785 -1.18949 -3.39675 0
M  V30 4644 C 435.393 -2.68921 -3.58309 0
M  V30 4645 C 437.137 -0.94642 -4.13815 0
M  V30 4646 C 435.044 -3.12056 -5.0237 0
M  V30 4647 H 433.974 -0.255595 -0.709357 0
M  V30 4648 H 436.625 -1.22349 -1.36759 0
M  V30 4649 H 435.007 -0.587228 -3.91622 0
M  V30 4650 H 436.181 -3.34652 -3.16772 0
M  V30 4651 H 434.496 -2.91314 -2.97532 0
M  V30 4652 H 437.093 -1.24417 -5.20023 0
M  V30 4653 H 437.436 0.117219 -4.16135 0
M  V30 4654 H 437.969 -1.5118 -3.67953 0
M  V30 4655 H 434.708 -4.17674 -5.05202 0
M  V30 4656 H 434.228 -2.51041 -5.44737 0
M  V30 4657 H 435.907 -3.04403 -5.70918 0
M  V30 4658 N 436.039 1.36541 -0.78704 0
M  V30 4659 C 437.267 2.03561 -0.370199 0
M  V30 4660 C 437.682 1.59347 1.01263 0
M  V30 4661 O 437.039 0.781781 1.64907 0
M  V30 4662 C 437.09 3.59033 -0.421614 0
M  V30 4663 O 436.811 4.01634 -1.7499 0
M  V30 4664 C 438.312 4.433 0.00489763 0
M  V30 4665 H 435.532 0.653346 -0.152904 0
M  V30 4666 H 438.076 1.74566 -1.06522 0
M  V30 4667 H 436.231 3.86746 0.224971 0
M  V30 4668 H 436.645 4.96217 -1.69909 0
M  V30 4669 H 438.119 5.51939 -0.0822184 0
M  V30 4670 H 438.596 4.26285 1.05723 0
M  V30 4671 H 439.202 4.20843 -0.614085 0
M  V30 4672 N 437.518 0.538854 1.48102 0
M  V30 4673 C 438.929 0.100679 1.86428 0
M  V30 4674 C 439.28 -1.32447 1.44749 0
M  V30 4675 O 438.405 -1.99339 0.842199 0
M  V30 4676 C 439 0.175933 3.38343 0
M  V30 4677 C 437.559 -0.207098 3.7583 0
M  V30 4678 C 436.706 0.531741 2.72154 0
M  V30 4679 H 439.657 0.749614 1.3988 0
M  V30 4680 H 439.678 -0.610144 3.75576 0
M  V30 4681 H 439.19 1.21328 3.68648 0
M  V30 4682 H 437.291 -1.24626 3.5114 0
M  V30 4683 H 437.404 0.138687 4.78899 0
M  V30 4684 H 435.768 -0.0230462 2.5469 0
M  V30 4685 H 436.551 1.56989 3.05302 0
M  V30 4686 N 438.996 -1.55193 0.274407 0
M  V30 4687 C 439.926 -2.25471 -0.607032 0
M  V30 4688 C 440.907 -1.24461 -1.15946 0
M  V30 4689 O 442.092 -1.53179 -1.19373 0
M  V30 4690 C 439.222 -2.97526 -1.79153 0
M  V30 4691 C 438.176 -4.05459 -1.37067 0
M  V30 4692 C 437.502 -4.65084 -2.6382 0
M  V30 4693 C 438.802 -5.19691 -0.521389 0
M  V30 4694 H 440.496 -2.99393 -0.0209343 0
M  V30 4695 H 438.042 -1.43997 -0.00862866 0
M  V30 4696 H 439.995 -3.45402 -2.41404 0
M  V30 4697 H 438.719 -2.21138 -2.40344 0
M  V30 4698 H 437.378 -3.58393 -0.771355 0
M  V30 4699 H 437.026 -3.85365 -3.23268 0
M  V30 4700 H 436.726 -5.37961 -2.36372 0
M  V30 4701 H 438.25 -5.15708 -3.26921 0
M  V30 4702 H 439.664 -5.63623 -1.04889 0
M  V30 4703 H 438.061 -5.99126 -0.341825 0
M  V30 4704 H 439.131 -4.82713 0.46 0
M  V30 4705 N 440.474 -0.00167713 -1.576 0
M  V30 4706 C 441.406 1.0174 -2.05382 0
M  V30 4707 C 442.419 1.30595 -0.972052 0
M  V30 4708 O 443.608 1.27542 -1.24882 0
M  V30 4709 C 440.708 2.35174 -2.44022 0
M  V30 4710 C 439.881 2.25234 -3.74951 0
M  V30 4711 C 438.94 3.4137 -4.00441 0
M  V30 4712 O 437.966 3.19483 -4.71083 0
M  V30 4713 N 439.168 4.64275 -3.48467 0
M  V30 4714 H 441.933 0.609902 -2.93428 0
M  V30 4715 H 439.494 0.185672 -1.60832 0
M  V30 4716 H 441.486 3.11643 -2.58187 0
M  V30 4717 H 440.056 2.67659 -1.61485 0
M  V30 4718 H 439.276 1.33664 -3.70847 0
M  V30 4719 H 440.564 2.15767 -4.60784 0
M  V30 4720 H 439.962 4.84955 -2.91264 0
M  V30 4721 H 438.519 5.38005 -3.67959 0
M  V30 4722 N 441.952 1.55251 0.271103 0
M  V30 4723 C 442.862 1.9136 1.35714 0
M  V30 4724 C 443.878 0.811075 1.5394 0
M  V30 4725 O 445.054 1.11031 1.6803 0
M  V30 4726 C 442.119 2.1798 2.69603 0
M  V30 4727 C 441.18 3.4153 2.60107 0
M  V30 4728 C 440.413 3.66871 3.8761 0
M  V30 4729 O 440.636 2.94689 4.8838 0
M  V30 4730 O 439.57 4.60405 3.87699 0
M  V30 4731 H 443.396 2.83815 1.08088 0
M  V30 4732 H 440.981 1.41821 0.469792 0
M  V30 4733 H 442.863 2.36518 3.48765 0
M  V30 4734 H 441.538 1.28708 2.97012 0
M  V30 4735 H 440.445 3.28325 1.79314 0
M  V30 4736 H 441.778 4.31027 2.37647 0
M  V30 4737 N 443.43 -0.535701 1.48216 0
M  V30 4738 C 444.362 -1.65662 1.58394 0
M  V30 4739 C 445.375 -1.5591 0.468607 0
M  V30 4740 O 446.564 -1.62475 0.7392 0
M  V30 4741 C 443.664 -3.04276 1.4923 0
M  V30 4742 C 442.837 -3.39567 2.75705 0
M  V30 4743 C 441.896 -4.57436 2.60075 0
M  V30 4744 O 440.922 -4.60942 3.33948 0
M  V30 4745 N 442.124 -5.55259 1.69315 0
M  V30 4746 H 444.889 -1.5737 2.55058 0
M  V30 4747 H 442.45 -0.722845 1.44867 0
M  V30 4748 H 444.442 -3.80994 1.36477 0
M  V30 4749 H 443.012 -3.06677 0.605632 0
M  V30 4750 H 442.232 -2.52083 3.03064 0
M  V30 4751 H 443.52 -3.59929 3.59623 0
M  V30 4752 H 442.918 -5.552 1.08489 0
M  V30 4753 H 441.475 -6.31218 1.62504 0
M  V30 4754 N 444.908 -1.36708 -0.784132 0
M  V30 4755 C 446.133 -1.34565 -1.5782 0
M  V30 4756 C 446.558 0.0695257 -1.87971 0
M  V30 4757 O 445.916 1.04302 -1.48293 0
M  V30 4758 C 445.964 -2.17952 -2.87279 0
M  V30 4759 O 445.068 -1.57563 -3.81114 0
M  V30 4760 H 444.409 -0.460337 -0.478524 0
M  V30 4761 H 446.939 -1.80064 -0.971495 0
M  V30 4762 H 446.949 -2.30721 -3.365 0
M  V30 4763 H 445.624 -3.20823 -2.64661 0
M  V30 4764 H 444.201 -1.53764 -3.39722 0
M  V30 4765 N 446.386 1.0089 -1.21074 0
M  V30 4766 C 447.333 2.09588 -0.966512 0
M  V30 4767 C 448.303 1.65761 0.106089 0
M  V30 4768 O 449.488 1.90758 -0.0402287 0
M  V30 4769 C 446.628 3.40958 -0.533058 0
M  V30 4770 C 445.741 3.9822 -1.67467 0
M  V30 4771 C 444.876 5.17682 -1.19076 0
M  V30 4772 C 443.915 5.67043 -2.30496 0
M  V30 4773 N 443.052 6.77759 -1.83267 0
M  V30 4774 H 447.892 2.29815 -1.89708 0
M  V30 4775 H 445.429 1.12689 -0.945489 0
M  V30 4776 H 447.387 4.1637 -0.263019 0
M  V30 4777 H 446.017 3.20781 0.360505 0
M  V30 4778 H 445.069 3.1983 -2.05944 0
M  V30 4779 H 446.381 4.3085 -2.51336 0
M  V30 4780 H 445.535 6.00326 -0.877151 0
M  V30 4781 H 444.274 4.86635 -0.322066 0
M  V30 4782 H 443.279 4.82999 -2.62664 0
M  V30 4783 H 444.504 6.00121 -3.17855 0
M  V30 4784 H 442.45 6.48527 -0.987356 0
M  V30 4785 H 442.367 7.09624 -2.60711 0
M  V30 4786 H 443.635 7.63949 -1.54928 0
M  V30 4787 N 447.864 1.01787 1.20321 0
M  V30 4788 C 448.774 0.598898 2.26827 0
M  V30 4789 C 449.79 -0.36418 1.70146 0
M  V30 4790 O 450.966 -0.224812 2.00141 0
M  V30 4791 C 448.031 -0.0549769 3.46656 0
M  V30 4792 C 447.092 0.954205 4.18561 0
M  V30 4793 C 446.325 0.331439 5.3267 0
M  V30 4794 O 446.548 -0.86851 5.63749 0
M  V30 4795 O 445.482 1.0488 5.92692 0
M  V30 4796 H 449.308 1.48562 2.64883 0
M  V30 4797 H 446.893 0.787434 1.26964 0
M  V30 4798 H 448.775 -0.420102 4.19301 0
M  V30 4799 H 447.45 -0.915876 3.10473 0
M  V30 4800 H 446.357 1.37072 3.48083 0
M  V30 4801 H 447.69 1.78511 4.58688 0
M  V30 4802 N 449.342 -1.36122 0.79427 0
M  V30 4803 C 450.588 -1.99406 0.369452 0
M  V30 4804 C 450.921 -1.62886 -1.05743 0
M  V30 4805 O 450.196 -0.886053 -1.73145 0
M  V30 4806 C 450.479 -3.56046 0.538833 0
M  V30 4807 C 450.332 -4.02404 2.00976 0
M  V30 4808 C 451.651 -4.40079 -0.0431359 0
M  V30 4809 H 448.77 -0.724397 0.135712 0
M  V30 4810 H 451.412 -1.61461 1.00151 0
M  V30 4811 H 449.562 -3.885 0.000771004 0
M  V30 4812 H 451.234 -3.80415 2.60926 0
M  V30 4813 H 449.477 -3.53765 2.51063 0
M  V30 4814 H 450.148 -5.11344 2.07922 0
M  V30 4815 H 452.624 -4.14013 0.416228 0
M  V30 4816 H 451.5 -5.48799 0.105374 0
M  V30 4817 H 451.761 -4.27264 -1.13571 0
M  V30 4818 N 450.82 -0.546701 -1.47814 0
M  V30 4819 C 451.783 0.196287 -2.28358 0
M  V30 4820 C 452.783 0.852437 -1.36346 0
M  V30 4821 O 453.973 0.709913 -1.59078 0
M  V30 4822 C 451.105 1.28579 -3.15722 0
M  V30 4823 H 452.298 -0.511086 -2.95513 0
M  V30 4824 H 449.851 -0.303248 -1.5333 0
M  V30 4825 H 450.586 2.0259 -2.53235 0
M  V30 4826 H 450.371 0.820229 -3.83425 0
M  V30 4827 H 451.861 1.80793 -3.76435 0
M  V30 4828 N 452.299 1.55045 -0.282633 0
M  V30 4829 C 453.548 1.98938 0.332667 0
M  V30 4830 C 453.861 1.17455 1.56409 0
M  V30 4831 O 455.067 1.51527 2.25282 0
M  V30 4832 C 453.523 3.54105 0.643226 0
M  V30 4833 C 453.131 4.44374 -0.568814 0
M  V30 4834 C 454.875 4.06569 1.22074 0
M  V30 4835 C 452.782 5.90943 -0.232426 0
M  V30 4836 H 451.712 0.743043 0.128075 0
M  V30 4837 H 454.363 1.79341 -0.388464 0
M  V30 4838 H 452.745 3.69532 1.42346 0
M  V30 4839 H 453.919 4.40718 -1.34551 0
M  V30 4840 H 452.234 4.02585 -1.06369 0
M  V30 4841 H 454.831 5.13626 1.48635 0
M  V30 4842 H 455.174 3.56057 2.15707 0
M  V30 4843 H 455.707 3.94612 0.502621 0
M  V30 4844 H 452.446 6.45567 -1.13683 0
M  V30 4845 H 451.966 5.9765 0.507357 0
M  V30 4846 H 453.645 6.4677 0.172657 0
M  V30 4847 N 453.777 0.010035 1.57597 0
M  V30 4848 C 455.193 -0.346164 1.55801 0
M  V30 4849 C 455.393 -1.74144 1.01371 0
M  V30 4850 O 454.449 -2.43938 0.651968 0
M  V30 4851 C 455.762 -0.212216 2.9995 0
M  V30 4852 C 457.31 -0.286409 3.11687 0
M  V30 4853 C 457.785 -0.18147 4.5764 0
M  V30 4854 N 459.276 -0.239056 4.62583 0
M  V30 4855 C 460.011 -0.181351 5.73113 0
M  V30 4856 N 459.507 -0.073661 6.92761 0
M  V30 4857 N 461.3 -0.233949 5.61613 0
M  V30 4858 H 453.451 0.922657 1.91313 0
M  V30 4859 H 455.714 0.354595 0.879185 0
M  V30 4860 H 455.42 0.748169 3.4365 0
M  V30 4861 H 455.294 -0.990224 3.6397 0
M  V30 4862 H 457.681 -1.23724 2.67911 0
M  V30 4863 H 457.762 0.521645 2.50425 0
M  V30 4864 H 457.406 0.765863 5.02093 0
M  V30 4865 H 457.336 -1.00814 5.1686 0
M  V30 4866 H 459.827 -0.32321 3.76515 0
M  V30 4867 H 460.14 -0.0358003 7.72792 0
M  V30 4868 H 458.485 -0.0391461 6.94989 0
M  V30 4869 H 461.676 -0.316347 4.6703 0
M  V30 4870 H 461.849 -0.185514 6.47734 0
M  V30 4871 N 455.255 -1.55392 -0.262866 0
M  V30 4872 C 456.504 -1.75679 -0.990943 0
M  V30 4873 C 456.817 -0.57097 -1.87081 0
M  V30 4874 O 458.023 -0.656486 -2.63444 0
M  V30 4875 C 456.479 -3.10964 -1.81188 0
M  V30 4876 C 456.087 -4.37146 -0.980188 0
M  V30 4877 C 457.831 -3.40597 -2.53365 0
M  V30 4878 C 455.738 -5.63466 -1.7961 0
M  V30 4879 H 454.668 -0.654868 -0.373716 0
M  V30 4880 H 457.319 -1.81841 -0.246203 0
M  V30 4881 H 455.701 -2.98867 -2.59797 0
M  V30 4882 H 456.875 -4.60187 -0.237558 0
M  V30 4883 H 455.19 -4.14731 -0.372497 0
M  V30 4884 H 457.787 -4.32186 -3.14833 0
M  V30 4885 H 458.13 -2.6119 -3.24169 0
M  V30 4886 H 458.663 -3.53838 -1.81779 0
M  V30 4887 H 455.402 -6.4565 -1.13209 0
M  V30 4888 H 454.922 -5.44552 -2.51443 0
M  V30 4889 H 456.601 -6.02139 -2.36723 0
M  V30 4890 N 456.733 0.527833 -1.48498 0
M  V30 4891 C 457.98 1.28354 -1.56625 0
M  V30 4892 C 458.308 1.93 -0.241096 0
M  V30 4893 O 457.563 1.79967 0.768798 0
M  V30 4894 C 457.862 2.39275 -2.65485 0
M  V30 4895 C 457.528 1.92268 -4.07853 0
M  V30 4896 C 456.19 1.79166 -4.46602 0
M  V30 4897 C 458.542 1.56771 -4.97064 0
M  V30 4898 C 455.87 1.28905 -5.72364 0
M  V30 4899 C 458.222 1.07972 -6.23318 0
M  V30 4900 C 456.886 0.934887 -6.60921 0
M  V30 4901 H 456.156 0.469682 -0.573131 0
M  V30 4902 H 458.803 0.588781 -1.82224 0
M  V30 4903 H 457.108 3.1443 -2.33754 0
M  V30 4904 H 458.805 2.974 -2.68988 0
M  V30 4905 H 455.395 2.03417 -3.77252 0
M  V30 4906 H 459.579 1.65753 -4.67803 0
M  V30 4907 H 454.835 1.16381 -6.00221 0
M  V30 4908 H 459.009 0.795775 -6.91838 0
M  V30 4909 H 456.636 0.543231 -7.58257 0
M  V30 4910 N 458.211 1.37122 0.776871 0
M  V30 4911 C 459.143 1.28342 1.89897 0
M  V30 4912 C 460.156 0.200277 1.61563 0
M  V30 4913 O 461.345 0.456012 1.72577 0
M  V30 4914 C 458.445 0.960427 3.25006 0
M  V30 4915 C 457.618 2.148 3.81025 0
M  V30 4916 C 456.677 1.79608 4.94598 0
M  V30 4917 O 455.703 2.51845 5.10454 0
M  V30 4918 N 456.905 0.737171 5.758 0
M  V30 4919 H 459.67 2.25027 1.97947 0
M  V30 4920 H 457.231 1.3068 0.955739 0
M  V30 4921 H 459.223 0.705942 3.98495 0
M  V30 4922 H 457.793 0.0823066 3.12492 0
M  V30 4923 H 457.013 2.56454 2.99374 0
M  V30 4924 H 458.301 2.9411 4.15183 0
M  V30 4925 H 457.699 0.137637 5.65533 0
M  V30 4926 H 456.256 0.542534 6.49538 0
M  V30 4927 N 459.689 -1.00246 1.21608 0
M  V30 4928 C 460.937 -1.73717 1.0328 0
M  V30 4929 C 461.258 -1.90102 -0.434318 0
M  V30 4930 O 460.528 -1.45376 -1.31311 0
M  V30 4931 H 459.108 -0.643613 0.379172 0
M  V30 4932 H 461.77 -1.20787 1.52959 0
M  V30 4933 H 460.866 -2.73535 1.50283 0
M  V30 4934 N 461.167 -1.02423 -1.1978 0
M  V30 4935 C 462.407 -0.726635 -1.91048 0
M  V30 4936 C 462.771 0.730947 -1.77542 0
M  V30 4937 O 463.972 1.14141 -2.43362 0
M  V30 4938 C 462.243 -1.15964 -3.38064 0
M  V30 4939 S 463.802 -0.985172 -4.27598 0
M  V30 4940 H 460.62 -0.264679 -0.659899 0
M  V30 4941 H 463.222 -1.31309 -1.44838 0
M  V30 4942 H 461.926 -2.21619 -3.45417 0
M  V30 4943 H 461.457 -0.566274 -3.89303 0
M  V30 4944 H 463.472 0.106946 -4.96085 0
M  V30 4945 N 462.645 1.35699 -0.801477 0
M  V30 4946 C 463.577 2.28598 -0.166028 0
M  V30 4947 C 464.59 1.50044 0.631721 0
M  V30 4948 O 465.779 1.72339 0.464921 0
M  V30 4949 C 462.879 3.29625 0.787451 0
M  V30 4950 C 462.052 4.37384 0.037171 0
M  V30 4951 C 461.111 5.183 0.908375 0
M  V30 4952 O 460.137 5.68053 0.361189 0
M  V30 4953 N 461.339 5.35912 2.23112 0
M  V30 4954 H 464.104 2.83771 -0.964071 0
M  V30 4955 H 461.665 1.47994 -0.656469 0
M  V30 4956 H 463.657 3.80648 1.37439 0
M  V30 4957 H 462.227 2.75004 1.48632 0
M  V30 4958 H 461.447 3.87364 -0.730935 0
M  V30 4959 H 462.735 5.0653 -0.480109 0
M  V30 4960 H 462.133 4.97125 2.69968 0
M  V30 4961 H 460.69 5.90133 2.76741 0
M  V30 4962 N 464.123 0.554532 1.47522 0
M  V30 4963 C 465.37 0.029479 2.02479 0
M  V30 4964 C 465.698 -1.31929 1.42916 0
M  V30 4965 O 464.953 -1.87112 0.573385 0
M  V30 4966 C 465.252 -0.115927 3.57212 0
M  V30 4967 C 464.918 1.16161 4.3568 0
M  V30 4968 C 463.58 1.51168 4.56839 0
M  V30 4969 C 465.932 2.0083 4.80954 0
M  V30 4970 C 463.26 2.70696 5.2052 0
M  V30 4971 C 465.612 3.19559 5.45953 0
M  V30 4972 C 464.276 3.54882 5.65345 0
M  V30 4973 H 463.546 0.0107871 0.740921 0
M  V30 4974 H 466.193 0.725506 1.77225 0
M  V30 4975 H 464.498 -0.894902 3.81443 0
M  V30 4976 H 466.195 -0.53749 3.97381 0
M  V30 4977 H 462.785 0.879026 4.19489 0
M  V30 4978 H 466.969 1.75093 4.64388 0
M  V30 4979 H 462.225 2.98236 5.33728 0
M  V30 4980 H 466.399 3.85456 5.79997 0
M  V30 4981 H 464.026 4.47596 6.1446 0
M  V30 4982 N 465.601 -1.54893 0.290851 0
M  V30 4983 C 467.017 -1.59476 -0.0628432 0
M  V30 4984 C 467.217 -1.30795 -1.5328 0
M  V30 4985 O 466.273 -1.07644 -2.28406 0
M  V30 4986 C 467.586 -2.98928 0.325962 0
M  V30 4987 C 469.134 -3.11799 0.273882 0
M  V30 4988 C 469.609 -4.53544 0.637359 0
M  V30 4989 N 471.1 -4.59433 0.589507 0
M  V30 4990 C 471.835 -5.67164 0.84335 0
M  V30 4991 N 471.331 -6.82975 1.16263 0
M  V30 4992 N 473.124 -5.56786 0.771091 0
M  V30 4993 H 465.275 -1.71798 1.24896 0
M  V30 4994 H 467.538 -0.801879 0.505663 0
M  V30 4995 H 467.244 -3.24805 1.34887 0
M  V30 4996 H 467.118 -3.75793 -0.325441 0
M  V30 4997 H 469.505 -2.85677 -0.739765 0
M  V30 4998 H 469.586 -2.37112 0.959766 0
M  V30 4999 H 469.23 -4.80394 1.64877 0
M  V30 5000 H 469.16 -5.26553 -0.0704866 0
M  V30 5001 H 471.651 -3.76245 0.353252 0
M  V30 5002 H 471.964 -7.61048 1.34257 0
M  V30 5003 H 470.309 -6.84552 1.20057 0
M  V30 5004 H 473.5 -4.65187 0.521383 0
M  V30 5005 H 473.673 -6.40664 0.972295 0
M  V30 5006 N 467.08 -0.0183926 -1.57589 0
M  V30 5007 C 468.305 0.676634 -1.96052 0
M  V30 5008 C 468.73 1.6548 -0.894307 0
M  V30 5009 O 468.088 1.80712 0.145849 0
M  V30 5010 C 468.136 1.36872 -3.33614 0
M  V30 5011 O 467.24 2.48372 -3.29219 0
M  V30 5012 H 466.581 0.1786 -0.63953 0
M  V30 5013 H 469.111 -0.077056 -2.04455 0
M  V30 5014 H 469.121 1.72797 -3.69601 0
M  V30 5015 H 467.796 0.651636 -4.10763 0
M  V30 5016 H 466.373 2.14639 -3.04934 0
M  V30 5017 N 468.558 1.5553 0.254621 0
M  V30 5018 C 469.804 1.77262 0.985193 0
M  V30 5019 C 470.137 0.582286 1.85265 0
M  V30 5020 O 469.412 -0.419666 1.89919 0
M  V30 5021 C 469.695 3.0881 1.85225 0
M  V30 5022 C 469.548 4.38233 1.0135 0
M  V30 5023 C 470.867 3.3653 2.83612 0
M  V30 5024 H 467.986 0.644906 0.356742 0
M  V30 5025 H 470.628 1.88264 0.256236 0
M  V30 5026 H 468.778 2.99562 2.47376 0
M  V30 5027 H 470.45 4.59463 0.411269 0
M  V30 5028 H 468.693 4.32636 0.317574 0
M  V30 5029 H 469.364 5.26644 1.65379 0
M  V30 5030 H 471.84 3.45691 2.31596 0
M  V30 5031 H 470.716 4.29805 3.41407 0
M  V30 5032 H 470.977 2.57064 3.59681 0
M  V30 5033 N 470.036 -0.519951 1.48776 0
M  V30 5034 C 470.946 -1.65025 1.66745 0
M  V30 5035 C 471.962 -1.6508 0.549954 0
M  V30 5036 O 473.138 -1.83848 0.822295 0
M  V30 5037 C 470.203 -3.0146 1.71238 0
M  V30 5038 C 469.264 -3.12182 2.94688 0
M  V30 5039 C 468.497 -4.42109 2.98958 0
M  V30 5040 O 468.72 -5.29799 2.1135 0
M  V30 5041 O 467.654 -4.57406 3.91233 0
M  V30 5042 H 471.48 -1.52801 2.62461 0
M  V30 5043 H 469.065 -0.694157 1.32294 0
M  V30 5044 H 470.947 -3.82584 1.76657 0
M  V30 5045 H 469.622 -3.13988 0.786975 0
M  V30 5046 H 468.529 -2.30316 2.94797 0
M  V30 5047 H 469.862 -3.04574 3.86646 0
M  V30 5048 N 471.514 -1.37532 -0.769588 0
M  V30 5049 C 472.477 -1.33292 -1.86456 0
M  V30 5050 C 473.477 -0.236537 -1.59051 0
M  V30 5051 O 474.667 -0.492511 -1.67093 0
M  V30 5052 C 471.799 -1.07118 -3.23633 0
M  V30 5053 H 472.992 -2.30692 -1.91628 0
M  V30 5054 H 470.545 -1.22593 -0.969572 0
M  V30 5055 H 471.28 -0.102578 -3.24138 0
M  V30 5056 H 471.065 -1.86479 -3.44917 0
M  V30 5057 H 472.555 -1.06806 -4.03711 0
M  V30 5058 N 472.992 0.995999 -1.22138 0
M  V30 5059 C 474.238 1.73767 -1.04561 0
M  V30 5060 C 474.571 1.89633 0.418698 0
M  V30 5061 O 473.846 1.43723 1.3105 0
M  V30 5062 C 474.129 3.14505 -1.75382 0
M  V30 5063 C 473.982 3.06306 -3.29388 0
M  V30 5064 C 475.301 4.13615 -1.50369 0
M  V30 5065 H 472.42 0.630728 -0.38125 0
M  V30 5066 H 475.062 1.16057 -1.50435 0
M  V30 5067 H 473.212 3.63775 -1.36383 0
M  V30 5068 H 474.884 2.64681 -3.77812 0
M  V30 5069 H 473.127 2.43186 -3.59226 0
M  V30 5070 H 473.798 4.05884 -3.74116 0
M  V30 5071 H 476.274 3.73089 -1.84239 0
M  V30 5072 H 475.15 5.10212 -2.02421 0
M  V30 5073 H 475.411 4.39949 -0.435611 0
M  V30 5074 N 474.47 1.03057 1.19235 0
M  V30 5075 C 475.402 0.570932 2.21975 0
M  V30 5076 C 476.415 -0.354088 1.58903 0
M  V30 5077 O 477.604 -0.150211 1.77867 0
M  V30 5078 C 474.704 -0.187152 3.38383 0
M  V30 5079 C 473.877 0.743231 4.31039 0
M  V30 5080 C 472.936 0.0302493 5.26191 0
M  V30 5081 O 471.962 0.657371 5.65391 0
M  V30 5082 N 473.164 -1.23991 5.67104 0
M  V30 5083 H 475.929 1.45456 2.62036 0
M  V30 5084 H 473.49 0.909807 1.33918 0
M  V30 5085 H 475.482 -0.673715 3.99053 0
M  V30 5086 H 474.052 -0.972205 2.97098 0
M  V30 5087 H 473.272 1.40985 3.68126 0
M  V30 5088 H 474.56 1.3755 4.89854 0
M  V30 5089 H 473.958 -1.77011 5.37293 0
M  V30 5090 H 472.515 -1.67093 6.30018 0
M  V30 5091 N 475.948 -1.35272 0.808662 0
M  V30 5092 C 476.858 -2.33546 0.222079 0
M  V30 5093 C 477.874 -1.6196 -0.636011 0
M  V30 5094 O 479.05 -1.93822 -0.547274 0
M  V30 5095 C 476.115 -3.41148 -0.61795 0
M  V30 5096 C 475.176 -4.28507 0.260875 0
M  V30 5097 C 474.409 -5.3097 -0.539156 0
M  V30 5098 O 474.632 -5.42123 -1.77367 0
M  V30 5099 O 473.566 -6.01858 0.0710526 0
M  V30 5100 H 477.392 -2.85515 1.03512 0
M  V30 5101 H 474.977 -1.38079 0.570495 0
M  V30 5102 H 476.859 -4.06889 -1.09634 0
M  V30 5103 H 475.534 -2.91447 -1.40855 0
M  V30 5104 H 474.441 -3.6574 0.786451 0
M  V30 5105 H 475.774 -4.81611 1.01547 0
M  V30 5106 N 477.426 -0.562348 -1.47226 0
M  V30 5107 C 478.675 -0.038041 -2.01664 0
M  V30 5108 C 478.988 1.32199 -1.44162 0
M  V30 5109 O 480.194 1.9365 -1.90294 0
M  V30 5110 C 478.65 -0.0174958 -3.59896 0
M  V30 5111 C 478.258 -1.3746 -4.2639 0
M  V30 5112 C 480.002 0.453934 -4.22066 0
M  V30 5113 C 477.909 -1.31289 -5.76643 0
M  V30 5114 H 476.839 -0.0104511 -0.753928 0
M  V30 5115 H 479.49 -0.710966 -1.69167 0
M  V30 5116 H 477.872 0.721182 -3.89378 0
M  V30 5117 H 479.046 -2.1314 -4.08544 0
M  V30 5118 H 477.361 -1.78438 -3.7623 0
M  V30 5119 H 479.958 0.518584 -5.32179 0
M  V30 5120 H 480.301 1.46706 -3.89594 0
M  V30 5121 H 480.834 -0.230044 -3.97134 0
M  V30 5122 H 477.573 -2.30217 -6.13743 0
M  V30 5123 H 477.093 -0.597973 -5.96812 0
M  V30 5124 H 478.772 -1.01713 -6.38955 0
M  V30 5125 N 478.904 1.54736 -0.299062 0
M  V30 5126 C 480.132 2.04512 0.313447 0
M  V30 5127 C 480.547 1.17643 1.47667 0
M  V30 5128 O 479.904 0.20164 1.81383 0
M  V30 5129 C 479.955 3.53171 0.771542 0
M  V30 5130 O 479.676 4.36736 -0.345379 0
M  V30 5131 C 481.177 4.18936 1.4494 0
M  V30 5132 H 478.397 0.667507 0.0683784 0
M  V30 5133 H 480.941 1.99752 -0.438129 0
M  V30 5134 H 479.096 3.58298 1.47314 0
M  V30 5135 H 479.51 5.24499 0.0109219 0
M  V30 5136 H 480.984 5.24482 1.72111 0
M  V30 5137 H 481.461 3.68554 2.38883 0
M  V30 5138 H 482.067 4.17879 0.791028 0
M  V30 5139 N 480.382 0.0267497 1.57577 0
M  V30 5140 C 481.292 -0.971633 2.13533 0
M  V30 5141 C 482.308 -1.35868 1.08701 0
M  V30 5142 O 483.484 -1.44058 1.40746 0
M  V30 5143 C 480.549 -2.23622 2.64941 0
M  V30 5144 C 479.61 -1.90982 3.8448 0
M  V30 5145 C 478.843 -3.11411 4.33427 0
M  V30 5146 O 479.066 -4.23992 3.81558 0
M  V30 5147 O 478 -2.93848 5.25297 0
M  V30 5148 H 481.826 -0.525853 2.99113 0
M  V30 5149 H 479.411 -0.193712 1.48139 0
M  V30 5150 H 481.293 -2.97864 2.98086 0
M  V30 5151 H 479.968 -2.67386 1.82446 0
M  V30 5152 H 478.875 -1.14132 3.56265 0
M  V30 5153 H 480.208 -1.52036 4.6813 0
M  V30 5154 N 481.861 -1.55662 -0.24637 0
M  V30 5155 C 483.091 -1.81312 -0.990438 0
M  V30 5156 C 483.499 -0.600234 -1.79426 0
M  V30 5157 O 482.842 0.440537 -1.78339 0
M  V30 5158 C 482.904 -3.0032 -1.97607 0
M  V30 5159 C 482.568 -4.36322 -1.35912 0
M  V30 5160 C 483.565 -5.14295 -0.761348 0
M  V30 5161 C 481.25 -4.83019 -1.37833 0
M  V30 5162 C 483.244 -6.37114 -0.190998 0
M  V30 5163 C 480.931 -6.05786 -0.804128 0
M  V30 5164 C 481.929 -6.82672 -0.211489 0
M  V30 5165 O 481.617 -8.03121 0.353845 0
M  V30 5166 H 481.349 -0.607233 -0.297058 0
M  V30 5167 H 483.903 -2.0356 -0.274351 0
M  V30 5168 H 482.133 -2.73829 -2.73047 0
M  V30 5169 H 483.822 -3.13057 -2.58361 0
M  V30 5170 H 484.588 -4.79337 -0.739013 0
M  V30 5171 H 480.467 -4.23165 -1.829 0
M  V30 5172 H 484.011 -6.97069 0.272206 0
M  V30 5173 H 479.908 -6.40222 -0.823792 0
M  V30 5174 H 480.676 -8.18131 0.245761 0
M  V30 5175 N 483.339 0.512053 -1.4905 0
M  V30 5176 C 484.302 1.59704 -1.64399 0
M  V30 5177 C 485.302 1.52285 -0.516317 0
M  V30 5178 O 486.492 1.55635 -0.782527 0
M  V30 5179 C 483.624 2.9935 -1.63102 0
M  V30 5180 H 484.817 1.47428 -2.61161 0
M  V30 5181 H 482.37 0.735469 -1.37915 0
M  V30 5182 H 483.105 3.17116 -0.678836 0
M  V30 5183 H 482.89 3.06144 -2.44986 0
M  V30 5184 H 484.38 3.782 -1.77072 0
M  V30 5185 N 484.817 1.37938 0.762283 0
M  V30 5186 C 485.764 1.34467 1.87583 0
M  V30 5187 C 486.734 0.208633 1.64785 0
M  V30 5188 O 487.919 0.399494 1.86571 0
M  V30 5189 C 485.059 1.16692 3.24772 0
M  V30 5190 C 484.172 2.39608 3.59461 0
M  V30 5191 C 483.307 2.14631 4.85908 0
M  V30 5192 C 482.346 3.33364 5.13357 0
M  V30 5193 N 481.483 3.07877 6.30996 0
M  V30 5194 H 486.323 2.29669 1.89885 0
M  V30 5195 H 483.86 1.14116 0.928219 0
M  V30 5196 H 485.818 1.04405 4.03925 0
M  V30 5197 H 484.448 0.251333 3.2182 0
M  V30 5198 H 483.5 2.626 2.75219 0
M  V30 5199 H 484.812 3.28128 3.75678 0
M  V30 5200 H 483.966 1.99429 5.72986 0
M  V30 5201 H 482.705 1.23463 4.71814 0
M  V30 5202 H 481.71 3.49094 4.24751 0
M  V30 5203 H 482.935 4.25395 5.29354 0
M  V30 5204 H 480.881 2.19348 6.18241 0
M  V30 5205 H 480.798 3.89944 6.47673 0
M  V30 5206 H 482.066 2.96313 7.20985 0
M  V30 5207 N 486.295 -0.989507 1.22664 0
M  V30 5208 C 487.52 -1.77031 1.08051 0
M  V30 5209 C 487.945 -1.84535 -0.364483 0
M  V30 5210 O 487.303 -1.3003 -1.2634 0
M  V30 5211 C 487.351 -3.18 1.70024 0
M  V30 5212 O 486.455 -4.01161 0.956216 0
M  V30 5213 H 485.796 -0.545008 0.379292 0
M  V30 5214 H 488.326 -1.24277 1.62531 0
M  V30 5215 H 488.336 -3.68616 1.74888 0
M  V30 5216 H 487.011 -3.11853 2.75174 0
M  V30 5217 H 485.588 -3.59687 0.98384 0
M  V30 5218 N 487.773 -1.03688 -1.18687 0
M  V30 5219 C 489.022 -0.733235 -1.879 0
M  V30 5220 C 489.335 0.741745 -1.8099 0
M  V30 5221 O 490.541 1.15875 -2.4553 0
M  V30 5222 C 488.997 -1.26127 -3.37076 0
M  V30 5223 C 488.605 -2.76461 -3.52524 0
M  V30 5224 C 490.349 -1.03398 -4.11715 0
M  V30 5225 C 488.256 -3.22642 -4.95637 0
M  V30 5226 H 487.186 -0.270584 -0.703776 0
M  V30 5227 H 489.837 -1.25222 -1.34133 0
M  V30 5228 H 488.219 -0.670165 -3.90288 0
M  V30 5229 H 489.393 -3.41296 -3.09602 0
M  V30 5230 H 487.708 -2.97559 -2.91286 0
M  V30 5231 H 490.305 -1.3542 -5.17267 0
M  V30 5232 H 490.648 0.0289246 -4.1629 0
M  V30 5233 H 491.181 -1.5895 -3.64664 0
M  V30 5234 H 487.92 -4.28296 -4.96228 0
M  V30 5235 H 487.44 -2.62539 -5.39289 0
M  V30 5236 H 489.119 -3.16444 -5.64333 0
M  V30 5237 N 489.251 1.34841 -0.815825 0
M  V30 5238 C 490.662 1.80937 -0.46029 0
M  V30 5239 C 491.013 1.67685 1.01863 0
M  V30 5240 O 490.138 1.21277 1.79223 0
M  V30 5241 C 490.733 3.28509 -0.828708 0
M  V30 5242 C 489.292 3.72712 -0.525644 0
M  V30 5243 C 488.439 2.56676 -1.04941 0
M  V30 5244 H 491.39 1.22688 -1.00664 0
M  V30 5245 H 491.411 3.80279 -0.129757 0
M  V30 5246 H 490.923 3.38122 -1.90513 0
M  V30 5247 H 489.024 3.68642 0.541666 0
M  V30 5248 H 489.137 4.67119 -1.06474 0
M  V30 5249 H 487.501 2.50302 -0.471286 0
M  V30 5250 H 488.284 2.69063 -2.13214 0
M  V30 5251 N 490.729 0.570148 1.46925 0
M  V30 5252 C 491.977 0.0508523 2.02036 0
M  V30 5253 C 492.298 -1.30885 1.44548 0
M  V30 5254 O 491.568 -1.85647 0.625453 0
M  V30 5255 H 490.148 0.0158088 0.746833 0
M  V30 5256 H 492.81 0.743086 1.80178 0
M  V30 5257 H 491.906 -0.027575 3.12088 0
M  V30 5258 N 492.207 -1.54576 0.307264 0
M  V30 5259 C 493.454 -2.00263 -0.300167 0
M  V30 5260 C 493.782 -1.19561 -1.53413 0
M  V30 5261 O 493.037 -0.261487 -1.93945 0
M  V30 5262 C 493.336 -3.50572 -0.695253 0
M  V30 5263 C 493.002 -4.48771 0.437679 0
M  V30 5264 C 491.664 -4.7534 0.748681 0
M  V30 5265 C 494.016 -5.0721 1.19949 0
M  V30 5266 C 491.344 -5.5761 1.8245 0
M  V30 5267 C 493.696 -5.90651 2.26527 0
M  V30 5268 C 492.36 -6.15528 2.58227 0
M  V30 5269 H 491.63 -0.732814 -0.109839 0
M  V30 5270 H 494.277 -1.86664 0.427661 0
M  V30 5271 H 492.582 -3.61814 -1.50326 0
M  V30 5272 H 494.279 -3.83352 -1.17653 0
M  V30 5273 H 490.869 -4.282 0.185187 0
M  V30 5274 H 495.053 -4.86679 0.972474 0
M  V30 5275 H 490.309 -5.75121 2.07476 0
M  V30 5276 H 494.483 -6.34957 2.86011 0
M  V30 5277 H 492.11 -6.79066 3.4172 0
M  V30 5278 N 493.685 -0.035106 -1.57561 0
M  V30 5279 C 494.931 0.64318 -1.92331 0
M  V30 5280 C 495.264 1.71434 -0.912368 0
M  V30 5281 O 494.539 1.94395 0.0640303 0
M  V30 5282 C 494.822 1.25411 -3.37556 0
M  V30 5283 C 494.675 0.192109 -4.4939 0
M  V30 5284 C 495.994 2.17041 -3.82859 0
M  V30 5285 H 493.113 0.232341 -0.699419 0
M  V30 5286 H 495.755 -0.0935889 -1.89769 0
M  V30 5287 H 493.905 1.88205 -3.39869 0
M  V30 5288 H 495.577 -0.438849 -4.59208 0
M  V30 5289 H 493.82 -0.481725 -4.31117 0
M  V30 5290 H 494.491 0.659292 -5.48049 0
M  V30 5291 H 496.967 1.64228 -3.8232 0
M  V30 5292 H 495.843 2.56738 -4.85157 0
M  V30 5293 H 496.104 3.06401 -3.18702 0
M  V30 5294 N 495.163 1.55791 0.238111 0
M  V30 5295 C 496.111 1.91885 1.31464 0
M  V30 5296 C 497.105 0.798929 1.49377 0
M  V30 5297 O 498.311 0.983626 1.50747 0
M  V30 5298 H 494.686 0.609551 0.440399 0
M  V30 5299 H 496.657 2.81747 0.982925 0
M  V30 5300 C 495.406 2.23763 2.6613 0
M  V30 5301 H 494.729 3.09444 2.53149 0
M  V30 5302 H 496.169 2.52915 3.40309 0
M  V30 5303 C 494.628 1.05699 3.1989 0
M  V30 5304 O 495.158 0.309524 4.00506 0
M  V30 5305 N 493.364 0.845251 2.78036 0
M  V30 5306 H 492.911 1.4548 2.12588 0
M  V30 5307 H 492.869 0.0569973 3.14348 0
M  V30 5308 N 496.642 -0.504142 1.49319 0
M  V30 5309 C 497.572 -1.61473 1.68667 0
M  V30 5310 C 498.553 -1.61455 0.535378 0
M  V30 5311 O 499.738 -1.78245 0.770868 0
M  V30 5312 C 496.868 -2.99971 1.75028 0
M  V30 5313 C 495.822 -3.14854 2.89916 0
M  V30 5314 C 495.148 -4.54671 2.81387 0
M  V30 5315 C 496.448 -2.95176 4.30893 0
M  V30 5316 H 498.142 -1.45535 2.61648 0
M  V30 5317 H 495.688 -0.698711 1.25913 0
M  V30 5318 H 497.641 -3.77562 1.8715 0
M  V30 5319 H 496.365 -3.1699 0.786441 0
M  V30 5320 H 495.024 -2.39687 2.77391 0
M  V30 5321 H 494.672 -4.68562 1.82917 0
M  V30 5322 H 494.372 -4.6557 3.58494 0
M  V30 5323 H 495.896 -5.34327 2.95512 0
M  V30 5324 H 497.31 -3.62538 4.44116 0
M  V30 5325 H 495.707 -3.17549 5.09198 0
M  V30 5326 H 496.777 -1.91332 4.45556 0
M  V30 5327 N 498.12 -1.38341 -0.754957 0
M  V30 5328 C 499.397 -1.24995 -1.50451 0
M  V30 5329 C 499.777 0.149244 -2.10572 0
M  V30 5330 O 499.125 1.15861 -1.96948 0
M  V30 5331 C 499.335 -2.35904 -2.57197 0
M  V30 5332 C 500.683 -2.74262 -3.24138 0
M  V30 5333 O 501.707 -2.35205 -2.67501 0
M  V30 5334 O 500.566 -3.4161 -4.26574 0
M  V30 5335 H 497.66 -0.48872 -0.667144 0
M  V30 5336 H 500.206 -1.50165 -0.790486 0
M  V30 5337 H 498.978 -3.2953 -2.11011 0
M  V30 5338 H 498.601 -2.12291 -3.36182 0
M  V30 5339 N 499.598 0.982988 -1.23187 0
M  V30 5340 C 500.528 2.09301 -1.03515 0
M  V30 5341 C 501.509 1.70035 0.0471136 0
M  V30 5342 O 502.694 1.93847 -0.117029 0
M  V30 5343 C 499.824 3.4167 -0.622791 0
M  V30 5344 C 498.778 3.94828 -1.65211 0
M  V30 5345 C 498.104 5.23362 -1.09527 0
M  V30 5346 C 499.404 4.2439 -3.04451 0
M  V30 5347 H 501.098 2.26016 -1.96359 0
M  V30 5348 H 498.644 1.08611 -0.945501 0
M  V30 5349 H 500.597 4.18746 -0.472233 0
M  V30 5350 H 499.321 3.24811 0.341329 0
M  V30 5351 H 497.98 3.19895 -1.79061 0
M  V30 5352 H 497.628 5.02852 -0.122211 0
M  V30 5353 H 497.328 5.59895 -1.783 0
M  V30 5354 H 498.852 6.03062 -0.956511 0
M  V30 5355 H 500.266 4.92225 -2.93917 0
M  V30 5356 H 498.663 4.72118 -3.70438 0
M  V30 5357 H 499.733 3.31765 -3.53638 0
M  V30 5358 N 501.076 1.04316 1.18135 0
M  V30 5359 C 502.024 0.630175 2.23901 0
M  V30 5360 C 503.018 -0.344254 1.65865 0
M  V30 5361 O 504.224 -0.211273 1.78756 0
M  V30 5362 H 500.599 0.185578 0.728742 0
M  V30 5363 H 502.57 1.53253 2.56039 0
M  V30 5364 C 501.319 0.011666 3.47698 0
M  V30 5365 H 500.642 0.752526 3.92654 0
M  V30 5366 H 502.082 -0.240046 4.2332 0
M  V30 5367 C 500.541 -1.23913 3.13285 0
M  V30 5368 O 501.071 -2.32959 3.27251 0
M  V30 5369 N 499.277 -1.13338 2.67587 0
M  V30 5370 H 498.824 -0.246006 2.56423 0
M  V30 5371 H 498.782 -1.97116 2.44934 0
M  V30 5372 N 502.554 -1.34406 0.822964 0
M  V30 5373 C 503.831 -1.92733 0.333641 0
M  V30 5374 C 504.211 -1.75107 -1.17901 0
M  V30 5375 O 503.559 -1.12983 -1.98613 0
M  V30 5376 C 503.769 -3.40557 0.763023 0
M  V30 5377 C 505.117 -4.17709 0.761879 0
M  V30 5378 O 506.141 -3.49141 0.705606 0
M  V30 5379 O 505 -5.40082 0.835109 0
M  V30 5380 H 502.094 -0.821964 0.0911249 0
M  V30 5381 H 504.64 -1.4338 0.907757 0
M  V30 5382 H 503.412 -3.47187 1.8049 0
M  V30 5383 H 503.035 -3.97259 0.164605 0
M  V30 5384 N 504.032 -0.577932 -1.46621 0
M  V30 5385 C 504.964 0.195801 -2.28362 0
M  V30 5386 C 505.977 0.859983 -1.38232 0
M  V30 5387 O 507.166 0.730349 -1.62875 0
M  V30 5388 C 504.266 1.29639 -3.13124 0
M  V30 5389 C 503.439 0.725049 -4.31349 0
M  V30 5390 C 502.498 1.71274 -4.97546 0
M  V30 5391 O 501.524 1.25067 -5.5529 0
M  V30 5392 N 502.726 3.04672 -4.94121 0
M  V30 5393 H 505.491 -0.505468 -2.95407 0
M  V30 5394 H 503.052 -0.415381 -1.56481 0
M  V30 5395 H 505.044 1.95631 -3.54275 0
M  V30 5396 H 503.614 1.90059 -2.48186 0
M  V30 5397 H 502.834 -0.112205 -3.9404 0
M  V30 5398 H 504.122 0.323034 -5.07774 0
M  V30 5399 H 503.52 3.4484 -4.48444 0
M  V30 5400 H 502.077 3.66166 -5.39227 0
M  V30 5401 N 505.51 1.54411 -0.315457 0
M  V30 5402 C 506.756 2.00716 0.289972 0
M  V30 5403 C 507.089 1.2034 1.5242 0
M  V30 5404 O 506.364 0.283579 1.92422 0
M  V30 5405 C 506.647 3.54507 0.632196 0
M  V30 5406 C 506.5 4.45615 -0.61218 0
M  V30 5407 C 507.819 4.15421 1.45305 0
M  V30 5408 H 504.938 0.729637 0.10392 0
M  V30 5409 H 507.58 1.8506 -0.430427 0
M  V30 5410 H 505.73 3.67979 1.24595 0
M  V30 5411 H 507.402 4.44026 -1.25053 0
M  V30 5412 H 505.645 4.15621 -1.24264 0
M  V30 5413 H 506.316 5.51022 -0.328379 0
M  V30 5414 H 508.792 4.05474 0.934331 0
M  V30 5415 H 507.668 5.23157 1.66127 0
M  V30 5416 H 507.929 3.68223 2.44671 0
M  V30 5417 N 506.988 0.0434614 1.5754 0
M  V30 5418 C 508.216 -0.641835 1.96693 0
M  V30 5419 C 508.631 -1.64832 0.920652 0
M  V30 5420 O 507.988 -1.82247 -0.095993 0
M  V30 5421 C 508.039 -1.33557 3.35924 0
M  V30 5422 O 507.76 -0.369403 4.3654 0
M  V30 5423 C 509.261 -2.11135 3.89791 0
M  V30 5424 H 506.481 -0.176013 0.647503 0
M  V30 5425 H 509.025 0.107478 2.04217 0
M  V30 5426 H 507.18 -2.03617 3.29574 0
M  V30 5427 H 507.594 -0.863674 5.1734 0
M  V30 5428 H 509.068 -2.55107 4.89514 0
M  V30 5429 H 509.545 -2.95634 3.24803 0
M  V30 5430 H 510.151 -1.46002 3.99454 0
M  V30 5431 N 508.466 -1.55915 -0.229846 0
M  V30 5432 C 509.396 -1.94754 -1.28815 0
M  V30 5433 C 510.377 -0.814657 -1.49323 0
M  V30 5434 O 511.562 -1.07631 -1.61645 0
M  V30 5435 C 508.692 -2.25705 -2.63959 0
M  V30 5436 C 507.646 -3.41406 -2.5812 0
M  V30 5437 C 506.972 -3.57941 -3.97218 0
M  V30 5438 C 508.272 -4.76616 -2.13623 0
M  V30 5439 H 509.966 -2.83404 -0.965547 0
M  V30 5440 H 507.512 -1.36353 -0.463028 0
M  V30 5441 H 509.465 -2.51467 -3.38146 0
M  V30 5442 H 508.189 -1.339 -2.9789 0
M  V30 5443 H 506.848 -3.1568 -1.86391 0
M  V30 5444 H 506.496 -2.63526 -4.28443 0
M  V30 5445 H 506.196 -4.35757 -3.94195 0
M  V30 5446 H 507.72 -3.86042 -4.73079 0
M  V30 5447 H 509.134 -5.01637 -2.77549 0
M  V30 5448 H 507.531 -5.57655 -2.21677 0
M  V30 5449 H 508.601 -4.7253 -1.08829 0
M  V30 5450 N 509.944 0.496216 -1.49584 0
M  V30 5451 C 510.874 1.60576 -1.69521 0
M  V30 5452 C 511.855 1.61169 -0.543933 0
M  V30 5453 O 513.04 1.77834 -0.78031 0
M  V30 5454 C 510.17 2.99038 -1.76616 0
M  V30 5455 C 509.124 3.13312 -2.91581 0
M  V30 5456 C 508.45 4.53172 -2.83794 0
M  V30 5457 C 509.75 2.92886 -4.32452 0
M  V30 5458 H 511.444 1.44146 -2.62416 0
M  V30 5459 H 508.99 0.692024 -1.26282 0
M  V30 5460 H 510.943 3.76564 -1.8915 0
M  V30 5461 H 509.667 3.16568 -0.80324 0
M  V30 5462 H 508.326 2.38213 -2.78658 0
M  V30 5463 H 507.974 4.67585 -1.854 0
M  V30 5464 H 507.674 4.63662 -3.60958 0
M  V30 5465 H 509.198 5.32752 -2.98342 0
M  V30 5466 H 510.612 3.60178 -4.46032 0
M  V30 5467 H 509.009 3.14844 -5.10875 0
M  V30 5468 H 510.079 1.88966 -4.46565 0
M  V30 5469 N 511.423 1.38739 0.74761 0
M  V30 5470 C 512.37 1.36449 1.86146 0
M  V30 5471 C 513.34 0.226098 1.64554 0
M  V30 5472 O 514.525 0.41926 1.86137 0
M  V30 5473 C 511.665 1.2013 3.23516 0
M  V30 5474 C 510.778 2.43407 3.56899 0
M  V30 5475 C 509.913 2.19773 4.83605 0
M  V30 5476 C 508.952 3.3879 5.09792 0
M  V30 5477 N 508.089 3.14553 6.27695 0
M  V30 5478 H 512.929 2.3167 1.87438 0
M  V30 5479 H 510.466 1.15094 0.916063 0
M  V30 5480 H 512.424 1.08683 4.02795 0
M  V30 5481 H 511.054 0.285453 3.21535 0
M  V30 5482 H 510.106 2.65504 2.72418 0
M  V30 5483 H 511.418 3.32094 3.72176 0
M  V30 5484 H 510.572 2.05496 5.70838 0
M  V30 5485 H 509.311 1.28461 4.70478 0
M  V30 5486 H 508.316 3.53579 4.21025 0
M  V30 5487 H 509.541 4.30986 5.24812 0
M  V30 5488 H 507.487 2.25893 6.1588 0
M  V30 5489 H 507.404 3.96791 6.435 0
M  V30 5490 H 508.672 3.03943 7.17801 0
M  V30 5491 N 512.901 -0.976442 1.23707 0
M  V30 5492 C 514.131 -1.75087 1.09673 0
M  V30 5493 C 514.539 -1.85852 -0.354344 0
M  V30 5494 O 513.882 -1.33985 -1.25673 0
M  V30 5495 C 513.944 -3.19272 1.65245 0
M  V30 5496 C 513.608 -3.32004 3.14042 0
M  V30 5497 C 514.605 -3.18017 4.11292 0
M  V30 5498 C 512.29 -3.56525 3.53829 0
M  V30 5499 C 514.284 -3.28363 5.46312 0
M  V30 5500 C 511.971 -3.6651 4.88993 0
M  V30 5501 C 512.969 -3.52439 5.85043 0
M  V30 5502 O 512.657 -3.62063 7.1775 0
M  V30 5503 H 512.389 -0.556164 0.384262 0
M  V30 5504 H 514.943 -1.23518 1.64111 0
M  V30 5505 H 513.173 -3.72107 1.05231 0
M  V30 5506 H 514.862 -3.7849 1.46629 0
M  V30 5507 H 515.628 -2.98966 3.81896 0
M  V30 5508 H 511.507 -3.66547 2.79579 0
M  V30 5509 H 515.051 -3.17297 6.21263 0
M  V30 5510 H 510.948 -3.85072 5.18063 0
M  V30 5511 H 511.716 -3.78833 7.25553 0
M  V30 5512 N 514.379 -1.04941 -1.1758 0
M  V30 5513 C 515.627 -0.756492 -1.87408 0
M  V30 5514 C 515.948 0.718478 -1.81281 0
M  V30 5515 O 515.218 1.519 -1.23706 0
M  V30 5516 H 513.798 -0.276841 -0.693807 0
M  V30 5517 H 516.46 -1.32803 -1.42652 0
M  V30 5518 H 515.556 -1.06918 -2.93215 0
M  V30 5519 N 515.857 1.33968 -0.830081 0
M  V30 5520 C 517.103 1.98357 -0.422191 0
M  V30 5521 C 517.436 1.65633 1.01387 0
M  V30 5522 O 516.711 0.931648 1.70735 0
M  V30 5523 C 516.994 3.54492 -0.633043 0
M  V30 5524 C 516.847 3.96934 -2.11574 0
M  V30 5525 C 518.166 4.40039 -0.0735584 0
M  V30 5526 H 515.285 0.720544 -0.154871 0
M  V30 5527 H 517.927 1.58749 -1.04397 0
M  V30 5528 H 516.077 3.88361 -0.103775 0
M  V30 5529 H 517.749 3.73363 -2.7092 0
M  V30 5530 H 515.992 3.46984 -2.60354 0
M  V30 5531 H 516.663 5.05651 -2.21406 0
M  V30 5532 H 519.139 4.12764 -0.52585 0
M  V30 5533 H 518.015 5.48327 -0.250841 0
M  V30 5534 H 518.276 4.30124 1.02202 0
M  V30 5535 N 517.335 0.585699 1.46312 0
M  V30 5536 C 518.285 -0.166813 2.27389 0
M  V30 5537 C 519.269 -0.859076 1.36047 0
M  V30 5538 O 520.461 -0.752678 1.60199 0
M  V30 5539 C 517.59 -1.17791 3.2246 0
M  V30 5540 C 516.676 -0.487605 4.21288 0
M  V30 5541 N 517.067 0.45849 5.03718 0
M  V30 5542 C 515.365 -0.737971 4.39852 0
M  V30 5543 C 516.066 0.862213 5.75275 0
M  V30 5544 N 515.042 0.210707 5.43191 0
M  V30 5545 H 518.844 0.560167 2.88512 0
M  V30 5546 H 516.358 0.407715 1.57199 0
M  V30 5547 H 518.355 -1.73122 3.79255 0
M  V30 5548 H 517.015 -1.90568 2.62896 0
M  V30 5549 H 518.026 0.834163 5.11138 0
M  V30 5550 H 514.703 -1.45209 3.91434 0
M  V30 5551 H 516.093 1.64128 6.51546 0
M  V30 5552 N 518.813 -1.54241 0.323641 0
M  V30 5553 C 519.723 -2.28033 -0.551205 0
M  V30 5554 C 520.739 -1.32388 -1.12913 0
M  V30 5555 O 521.915 -1.65403 -1.14908 0
M  V30 5556 C 518.98 -3.02382 -1.69606 0
M  V30 5557 C 518.041 -4.13612 -1.14993 0
M  V30 5558 C 517.274 -4.84407 -2.24022 0
M  V30 5559 O 517.497 -4.54716 -3.44368 0
M  V30 5560 O 516.431 -5.71312 -1.89436 0
M  V30 5561 H 520.257 -3.03662 0.048066 0
M  V30 5562 H 517.842 -1.49133 0.0893289 0
M  V30 5563 H 519.724 -3.48941 -2.36259 0
M  V30 5564 H 518.399 -2.29628 -2.28151 0
M  V30 5565 H 517.306 -3.71402 -0.448484 0
M  V30 5566 H 518.639 -4.8841 -0.609608 0
M  V30 5567 N 520.291 -0.0518155 -1.57515 0
M  V30 5568 C 521.54 0.621286 -1.91893 0
M  V30 5569 C 521.853 1.71966 -0.932052 0
M  V30 5570 O 523.059 2.45096 -1.16791 0
M  V30 5571 C 521.515 1.15641 -3.40816 0
M  V30 5572 C 521.123 0.0901146 -4.47909 0
M  V30 5573 C 522.867 1.80472 -3.84227 0
M  V30 5574 C 520.774 0.638154 -5.87947 0
M  V30 5575 H 519.704 0.235835 -0.716169 0
M  V30 5576 H 522.355 -0.120809 -1.83102 0
M  V30 5577 H 520.737 1.95084 -3.44613 0
M  V30 5578 H 521.911 -0.683525 -4.55702 0
M  V30 5579 H 520.226 -0.460774 -4.13843 0
M  V30 5580 H 522.823 2.22471 -4.86221 0
M  V30 5581 H 523.166 2.65669 -3.20508 0
M  V30 5582 H 523.699 1.07683 -3.82948 0
M  V30 5583 H 520.438 -0.176202 -6.55263 0
M  V30 5584 H 519.958 1.37976 -5.83714 0
M  V30 5585 H 521.637 1.12085 -6.37217 0
M  V30 5586 N 521.769 1.56035 0.221574 0
M  V30 5587 C 523.018 1.78245 0.944016 0
M  V30 5588 C 523.331 0.620371 1.85501 0
M  V30 5589 O 524.537 0.726103 2.6161 0
M  V30 5590 C 522.993 3.15659 1.7288 0
M  V30 5591 C 522.601 4.39591 0.863942 0
M  V30 5592 C 524.345 3.47195 2.44246 0
M  V30 5593 C 522.252 5.6803 1.64607 0
M  V30 5594 H 521.182 0.664547 0.356222 0
M  V30 5595 H 523.833 1.8243 0.197904 0
M  V30 5596 H 522.215 3.0565 2.51781 0
M  V30 5597 H 523.389 4.60655 0.115464 0
M  V30 5598 H 521.704 4.15572 0.262407 0
M  V30 5599 H 524.301 4.40381 3.03263 0
M  V30 5600 H 524.644 2.69693 3.1713 0
M  V30 5601 H 525.177 3.58533 1.72334 0
M  V30 5602 H 521.916 6.48425 0.960507 0
M  V30 5603 H 521.436 5.51027 2.36917 0
M  V30 5604 H 523.115 6.08203 2.20675 0
M  V30 5605 N 523.247 -0.488276 1.49845 0
M  V30 5606 C 524.477 -1.26344 1.63465 0
M  V30 5607 C 524.885 -1.86637 0.310379 0
M  V30 5608 O 524.228 -1.69184 -0.715712 0
M  V30 5609 C 524.29 -2.42407 2.65479 0
M  V30 5610 C 523.954 -2.02886 4.09495 0
M  V30 5611 C 524.951 -1.56124 4.95904 0
M  V30 5612 C 522.636 -2.12131 4.55308 0
M  V30 5613 C 524.63 -1.19129 6.26169 0
M  V30 5614 C 522.317 -1.74747 5.85582 0
M  V30 5615 C 523.315 -1.28322 6.70837 0
M  V30 5616 O 523.003 -0.914491 7.98682 0
M  V30 5617 H 522.735 -0.388921 0.552916 0
M  V30 5618 H 525.289 -0.591288 1.96705 0
M  V30 5619 H 523.519 -3.12739 2.27445 0
M  V30 5620 H 525.208 -3.04409 2.68495 0
M  V30 5621 H 525.974 -1.48417 4.61733 0
M  V30 5622 H 521.853 -2.47217 3.89107 0
M  V30 5623 H 525.397 -0.828211 6.92666 0
M  V30 5624 H 521.294 -1.82109 6.19279 0
M  V30 5625 H 522.062 -1.04485 8.11804 0
M  V30 5626 N 524.725 -1.39134 -0.740242 0
M  V30 5627 C 525.953 -1.39334 -1.5295 0
M  V30 5628 C 526.368 0.0135008 -1.88795 0
M  V30 5629 O 525.725 0.983524 -1.5373 0
M  V30 5630 C 525.776 -2.2614 -2.82034 0
M  V30 5631 O 525.497 -3.61345 -2.47712 0
M  V30 5632 C 526.998 -2.34666 -3.76094 0
M  V30 5633 H 524.218 -0.476103 -0.472828 0
M  V30 5634 H 526.762 -1.82883 -0.9151 0
M  V30 5635 H 524.917 -1.86018 -3.39818 0
M  V30 5636 H 525.331 -4.07194 -3.30595 0
M  V30 5637 H 526.805 -2.99663 -4.63579 0
M  V30 5638 H 527.282 -1.36426 -4.17474 0
M  V30 5639 H 527.888 -2.75236 -3.2423 0
M  V30 5640 N 526.204 0.969867 -1.24223 0
M  V30 5641 C 527.137 2.06279 -0.975926 0
M  V30 5642 C 528.115 1.62353 0.0895385 0
M  V30 5643 O 529.299 1.88442 -0.0469418 0
M  V30 5644 C 526.426 3.35391 -0.472315 0
M  V30 5645 C 525.472 3.98266 -1.526 0
M  V30 5646 S 526.305 4.36172 -3.10667 0
M  V30 5647 C 527.461 5.68423 -2.62003 0
M  V30 5648 H 527.694 2.28551 -1.90137 0
M  V30 5649 H 525.227 1.10748 -1.07584 0
M  V30 5650 H 527.185 4.10068 -0.188376 0
M  V30 5651 H 525.846 3.1111 0.432378 0
M  V30 5652 H 525.039 4.91307 -1.12399 0
M  V30 5653 H 524.641 3.30009 -1.75983 0
M  V30 5654 H 526.933 6.45842 -2.0468 0
M  V30 5655 H 527.876 6.13478 -3.53625 0
M  V30 5656 H 528.284 5.26928 -2.02502 0
M  V30 5657 N 527.682 1.05563 1.17022 0
M  V30 5658 C 528.612 0.681026 2.23348 0
M  V30 5659 C 529.593 -0.322983 1.67005 0
M  V30 5660 O 530.778 -0.199746 1.9317 0
M  V30 5661 C 527.908 0.0589053 3.4725 0
M  V30 5662 C 526.862 0.988082 4.16438 0
M  V30 5663 C 526.188 0.229646 5.34207 0
M  V30 5664 C 527.488 2.31388 4.68249 0
M  V30 5665 H 529.182 1.56993 2.54938 0
M  V30 5666 H 526.728 0.756302 1.2254 0
M  V30 5667 H 528.681 -0.214982 4.20851 0
M  V30 5668 H 527.405 -0.864968 3.14938 0
M  V30 5669 H 526.064 1.24659 3.44754 0
M  V30 5670 H 525.712 -0.697111 4.98146 0
M  V30 5671 H 525.412 0.848815 5.81437 0
M  V30 5672 H 526.936 -0.0368694 6.10589 0
M  V30 5673 H 528.35 2.09964 5.33468 0
M  V30 5674 H 526.747 2.88736 5.26072 0
M  V30 5675 H 527.817 2.94982 3.84855 0
M  V30 5676 N 529.16 -1.33526 0.837174 0
M  V30 5677 C 530.123 -2.27551 0.274421 0
M  V30 5678 C 531.123 -1.50886 -0.555881 0
M  V30 5679 O 532.313 -1.70227 -0.369918 0
M  V30 5680 C 529.445 -3.35332 -0.613605 0
M  V30 5681 H 530.638 -2.78837 1.10408 0
M  V30 5682 H 528.191 -1.439 0.610126 0
M  V30 5683 H 528.926 -2.89285 -1.46577 0
M  V30 5684 H 528.711 -3.92095 -0.0195341 0
M  V30 5685 H 530.201 -4.05433 -1.00068 0
M  V30 5686 N 530.638 -0.59345 -1.46 0
M  V30 5687 C 531.863 -0.0872365 -2.07216 0
M  V30 5688 C 532.288 1.2131 -1.43755 0
M  V30 5689 O 531.646 1.73528 -0.525152 0
M  V30 5690 C 531.694 0.0538197 -3.6056 0
M  V30 5691 O 530.798 1.10765 -3.97247 0
M  V30 5692 H 530.139 -0.0676598 -0.660544 0
M  V30 5693 H 532.669 -0.819445 -1.87473 0
M  V30 5694 H 532.679 0.256567 -4.07193 0
M  V30 5695 H 531.354 -0.895739 -4.0614 0
M  V30 5696 H 529.931 0.882501 -3.62307 0
M  V30 5697 N 532.116 1.54067 -0.331816 0
M  V30 5698 C 533.046 2.27569 0.522932 0
M  V30 5699 C 534.027 1.28679 1.11247 0
M  V30 5700 O 535.212 1.57504 1.13605 0
M  V30 5701 C 532.342 3.0397 1.67987 0
M  V30 5702 C 531.296 4.10267 1.21924 0
M  V30 5703 C 530.622 4.74555 2.46377 0
M  V30 5704 C 531.922 5.21268 0.32815 0
M  V30 5705 H 533.616 2.99264 -0.0901977 0
M  V30 5706 H 531.162 1.4393 -0.044821 0
M  V30 5707 H 533.115 3.54123 2.28418 0
M  V30 5708 H 531.839 2.29906 2.31971 0
M  V30 5709 H 530.498 3.61009 0.637809 0
M  V30 5710 H 530.146 3.97098 3.08743 0
M  V30 5711 H 529.846 5.46363 2.16243 0
M  V30 5712 H 531.37 5.27487 3.07555 0
M  V30 5713 H 532.784 5.67128 0.838978 0
M  V30 5714 H 531.181 5.99982 0.119228 0
M  V30 5715 H 532.251 4.80673 -0.638839 0
M  V30 5716 N 533.594 0.0601682 1.57485 0
M  V30 5717 C 534.527 -0.94676 2.07634 0
M  V30 5718 C 535.505 -1.29837 0.978826 0
M  V30 5719 O 536.689 -1.40969 1.2514 0
M  V30 5720 C 533.816 -2.25822 2.52433 0
M  V30 5721 C 532.862 -2.05901 3.73507 0
M  V30 5722 S 533.695 -1.32907 5.18745 0
M  V30 5723 C 534.851 -2.65356 5.66866 0
M  V30 5724 H 535.084 -0.520003 2.92717 0
M  V30 5725 H 532.617 -0.152319 1.53647 0
M  V30 5726 H 534.575 -3.01201 2.78905 0
M  V30 5727 H 533.236 -2.65624 1.67639 0
M  V30 5728 H 532.429 -3.02929 4.02803 0
M  V30 5729 H 532.031 -1.38659 3.47347 0
M  V30 5730 H 534.323 -3.61492 5.73001 0
M  V30 5731 H 535.266 -2.40685 6.6594 0
M  V30 5732 H 535.674 -2.72028 4.94632 0
M  V30 5733 N 535.072 -1.5615 -0.213296 0
M  V30 5734 C 536.02 -1.93953 -1.28394 0
M  V30 5735 C 537.014 -0.822592 -1.48087 0
M  V30 5736 O 538.22 -1.00748 -1.49164 0
M  V30 5737 H 534.595 -0.61648 -0.430646 0
M  V30 5738 H 536.566 -2.83275 -0.937977 0
M  V30 5739 C 535.315 -2.27969 -2.62537 0
M  V30 5740 H 534.638 -3.13432 -2.48194 0
M  V30 5741 H 536.078 -2.58297 -3.36242 0
M  V30 5742 C 534.537 -1.10775 -3.18167 0
M  V30 5743 O 535.067 -0.373201 -3.99963 0
M  V30 5744 N 533.273 -0.889377 -2.76656 0
M  V30 5745 H 532.82 -1.48843 -2.10246 0
M  V30 5746 H 532.778 -0.107 -3.14218 0
M  V30 5747 N 536.55 0.480323 -1.50102 0
M  V30 5748 C 537.497 1.57946 -1.6829 0
M  V30 5749 C 538.467 1.57611 -0.524223 0
M  V30 5750 O 539.652 1.75282 -0.753709 0
M  V30 5751 C 536.792 2.95978 -1.77457 0
M  V30 5752 C 535.905 3.06173 -3.04766 0
M  V30 5753 C 535.04 4.35063 -3.04784 0
M  V30 5754 C 534.079 4.38966 -4.26586 0
M  V30 5755 N 533.216 5.59314 -4.24396 0
M  V30 5756 H 538.056 1.41743 -2.62131 0
M  V30 5757 H 535.593 0.689304 -1.2995 0
M  V30 5758 H 537.551 3.76011 -1.80752 0
M  V30 5759 H 536.181 3.10837 -0.870637 0
M  V30 5760 H 535.233 2.19071 -3.10986 0
M  V30 5761 H 536.545 3.04916 -3.9475 0
M  V30 5762 H 535.699 5.23436 -3.06757 0
M  V30 5763 H 534.438 4.38915 -2.12614 0
M  V30 5764 H 533.443 3.48992 -4.24835 0
M  V30 5765 H 534.668 4.36813 -5.19972 0
M  V30 5766 H 532.614 5.63969 -3.35074 0
M  V30 5767 H 532.531 5.5976 -5.08138 0
M  V30 5768 H 533.799 6.49837 -4.30502 0
M  V30 5769 N 538.028 1.39524 0.732853 0
M  V30 5770 C 539.305 1.27373 1.48444 0
M  V30 5771 C 539.685 -0.115725 2.10783 0
M  V30 5772 O 539.033 -1.12713 1.98766 0
M  V30 5773 C 539.243 2.39966 2.53412 0
M  V30 5774 C 540.591 2.79384 3.19733 0
M  V30 5775 O 541.615 2.39431 2.63725 0
M  V30 5776 O 540.474 3.48353 4.21085 0
M  V30 5777 H 537.568 0.499272 0.659285 0
M  V30 5778 H 540.114 1.51403 0.766496 0
M  V30 5779 H 538.886 3.32845 2.05742 0
M  V30 5780 H 538.509 2.17612 3.32762 0
M  V30 5781 N 539.506 -0.963266 1.24736 0
M  V30 5782 C 540.754 -1.70343 1.08755 0
M  V30 5783 C 541.075 -1.91387 -0.373619 0
M  V30 5784 O 540.345 -1.4948 -1.2662 0
M  V30 5785 H 538.925 -0.631224 0.399456 0
M  V30 5786 H 541.587 -1.15859 1.56725 0
M  V30 5787 H 540.683 -2.68616 1.58909 0
M  V30 5788 N 540.985 -1.06182 -1.16461 0
M  V30 5789 C 542.231 -0.779015 -1.87241 0
M  V30 5790 C 542.564 0.692715 -1.81425 0
M  V30 5791 O 541.839 1.5074 -1.22913 0
M  V30 5792 C 542.122 -1.2728 -3.36856 0
M  V30 5793 C 541.975 -2.80821 -3.51368 0
M  V30 5794 C 543.294 -0.879799 -4.31216 0
M  V30 5795 H 540.413 -0.284464 -0.679889 0
M  V30 5796 H 543.055 -1.31755 -1.36896 0
M  V30 5797 H 541.205 -0.814673 -3.79862 0
M  V30 5798 H 542.877 -3.34833 -3.17308 0
M  V30 5799 H 541.12 -3.19606 -2.93316 0
M  V30 5800 H 541.791 -3.10435 -4.56436 0
M  V30 5801 H 544.267 -1.27436 -3.96105 0
M  V30 5802 H 543.143 -1.25278 -5.34412 0
M  V30 5803 H 543.404 0.215372 -4.41575 0
M  V30 5804 N 542.463 1.3308 -0.844243 0
M  V30 5805 C 543.393 2.3161 -0.296493 0
M  V30 5806 C 544.374 1.59215 0.598707 0
M  V30 5807 O 545.559 1.87077 0.521134 0
M  V30 5808 C 542.689 3.43313 0.524762 0
M  V30 5809 C 541.643 4.27115 -0.275106 0
M  V30 5810 C 540.969 5.30483 0.670236 0
M  V30 5811 C 542.269 5.00443 -1.49514 0
M  V30 5812 H 543.963 2.77672 -1.11976 0
M  V30 5813 H 541.509 1.33496 -0.539899 0
M  V30 5814 H 543.462 4.11273 0.918298 0
M  V30 5815 H 542.186 2.95952 1.3813 0
M  V30 5816 H 540.845 3.60787 -0.650267 0
M  V30 5817 H 540.493 4.79379 1.52332 0
M  V30 5818 H 540.193 5.87435 0.139123 0
M  V30 5819 H 541.717 6.01308 1.06117 0
M  V30 5820 H 543.131 5.61141 -1.17447 0
M  V30 5821 H 541.528 5.67071 -1.96343 0
M  V30 5822 H 542.598 4.28906 -2.26202 0
M  V30 5823 N 543.941 0.601185 1.45683 0
M  V30 5824 C 545.19 0.0914953 2.01492 0
M  V30 5825 C 545.503 -1.28331 1.47616 0
M  V30 5826 O 546.709 -1.88537 1.95362 0
M  V30 5827 C 545.165 0.11291 3.59723 0
M  V30 5828 C 544.773 1.48717 4.22596 0
M  V30 5829 C 546.517 -0.341871 4.23121 0
M  V30 5830 C 544.424 1.46531 5.7296 0
M  V30 5831 H 543.354 0.0304365 0.753385 0
M  V30 5832 H 546.005 0.755568 1.67223 0
M  V30 5833 H 544.387 -0.617692 3.91153 0
M  V30 5834 H 545.561 2.23897 4.02749 0
M  V30 5835 H 543.876 1.88351 3.71366 0
M  V30 5836 H 546.473 -0.377304 5.33367 0
M  V30 5837 H 546.816 -1.36325 3.93346 0
M  V30 5838 H 547.349 0.335256 3.96385 0
M  V30 5839 H 544.088 2.46408 6.07423 0
M  V30 5840 H 543.608 0.755997 5.95017 0
M  V30 5841 H 545.287 1.18618 6.36034 0
M  V30 5842 N 545.419 -1.53889 0.339982 0
M  V30 5843 C 546.644 -2.05741 -0.261798 0
M  V30 5844 C 547.069 -1.21354 -1.43718 0
M  V30 5845 O 546.427 -0.22645 -1.7988 0
M  V30 5846 C 546.475 -3.54542 -0.658228 0
M  V30 5847 O 545.579 -3.7302 -1.75869 0
M  V30 5848 H 544.92 -0.662529 -0.0441672 0
M  V30 5849 H 547.45 -1.98568 0.493161 0
M  V30 5850 H 547.46 -3.9711 -0.936368 0
M  V30 5851 H 546.135 -4.15412 0.201358 0
M  V30 5852 H 544.712 -3.42355 -1.47809 0
M  V30 5853 N 546.897 -0.0685191 -1.57451 0
M  V30 5854 C 547.807 0.914677 -2.16034 0
M  V30 5855 C 548.823 1.32938 -1.12265 0
M  V30 5856 O 549.999 1.40275 -1.44516 0
M  V30 5857 C 547.064 2.16519 -2.70777 0
M  V30 5858 C 546.125 1.80721 -3.89408 0
M  V30 5859 C 545.358 2.9981 -4.41531 0
M  V30 5860 O 545.581 4.13727 -3.92666 0
M  V30 5861 O 544.515 2.79817 -5.32903 0
M  V30 5862 H 548.341 0.446364 -3.00402 0
M  V30 5863 H 545.926 0.154367 -1.486 0
M  V30 5864 H 547.808 2.89856 -3.05878 0
M  V30 5865 H 546.483 2.62454 -1.89471 0
M  V30 5866 H 545.39 1.04646 -3.59166 0
M  V30 5867 H 546.723 1.39571 -4.71997 0
M  V30 5868 N 548.375 1.56261 0.205012 0
M  V30 5869 C 549.623 1.79684 0.925096 0
M  V30 5870 C 549.944 0.63989 1.84202 0
M  V30 5871 O 549.214 -0.342345 1.92885 0
M  V30 5872 H 547.794 0.662774 0.344587 0
M  V30 5873 H 550.456 1.93734 0.212899 0
M  V30 5874 H 549.552 2.72467 1.52211 0
M  V30 5875 N 549.853 -0.472356 1.50355 0
M  V30 5876 C 550.785 -1.58795 1.65278 0
M  V30 5877 C 551.798 -1.53782 0.534313 0
M  V30 5878 O 552.987 -1.59193 0.807446 0
M  V30 5879 C 550.087 -2.97672 1.62001 0
M  V30 5880 C 549.26 -3.27568 2.89859 0
M  V30 5881 C 548.319 -4.45993 2.79242 0
M  V30 5882 O 547.345 -4.46364 3.53197 0
M  V30 5883 N 548.547 -5.47578 1.92713 0
M  V30 5884 H 551.312 -1.46411 2.61503 0
M  V30 5885 H 548.873 -0.660751 1.47803 0
M  V30 5886 H 550.865 -3.74862 1.52513 0
M  V30 5887 H 549.435 -3.03832 0.735159 0
M  V30 5888 H 548.655 -2.39003 3.13483 0
M  V30 5889 H 549.943 -3.44352 3.74565 0
M  V30 5890 H 549.341 -5.50099 1.31939 0
M  V30 5891 H 547.898 -6.23757 1.8913 0
M  V30 5892 N 551.331 -1.39911 -0.725443 0
M  V30 5893 C 552.579 -1.37382 -1.48224 0
M  V30 5894 C 552.9 0.0264107 -1.94982 0
M  V30 5895 O 552.17 0.979408 -1.6966 0
M  V30 5896 H 550.75 -0.505596 -0.549892 0
M  V30 5897 H 553.412 -1.7487 -0.860608 0
M  V30 5898 H 552.508 -2.04254 -2.3598 0
M  V30 5899 N 552.809 0.956637 -1.25245 0
M  V30 5900 C 554.056 1.701 -1.09874 0
M  V30 5901 C 554.384 1.91128 0.36062 0
M  V30 5902 O 553.639 1.47837 1.28229 0
M  V30 5903 C 553.938 3.08996 -1.79601 0
M  V30 5904 C 553.604 3.07774 -3.29523 0
M  V30 5905 C 552.266 3.07149 -3.70423 0
M  V30 5906 C 554.618 3.01257 -4.25316 0
M  V30 5907 C 551.946 2.97752 -5.0553 0
M  V30 5908 C 554.298 2.93403 -5.60444 0
M  V30 5909 C 552.962 2.91111 -6.00675 0
M  V30 5910 H 552.232 0.62244 -0.402056 0
M  V30 5911 H 554.879 1.1178 -1.55491 0
M  V30 5912 H 553.184 3.70848 -1.26408 0
M  V30 5913 H 554.881 3.65407 -1.65162 0
M  V30 5914 H 551.471 3.09032 -2.9698 0
M  V30 5915 H 555.655 3.00861 -3.9471 0
M  V30 5916 H 550.911 2.94346 -5.35883 0
M  V30 5917 H 555.085 2.87321 -6.34366 0
M  V30 5918 H 552.712 2.83586 -7.05325 0
M  V30 5919 N 554.287 1.06798 1.15896 0
M  V30 5920 C 555.22 0.627503 2.19403 0
M  V30 5921 C 556.198 -0.352352 1.58736 0
M  V30 5922 O 557.382 -0.260111 1.86697 0
M  V30 5923 C 554.509 -0.079356 3.38607 0
M  V30 5924 C 553.555 0.858057 4.17779 0
M  V30 5925 S 554.388 2.35605 4.80885 0
M  V30 5926 C 555.544 1.66083 6.03463 0
M  V30 5927 H 555.777 1.50441 2.56427 0
M  V30 5928 H 553.31 0.881427 1.26768 0
M  V30 5929 H 555.268 -0.48095 4.07673 0
M  V30 5930 H 553.929 -0.932524 2.99938 0
M  V30 5931 H 553.122 0.310108 5.03045 0
M  V30 5932 H 552.724 1.19977 3.54234 0
M  V30 5933 H 555.016 0.969337 6.7053 0
M  V30 5934 H 555.959 2.49159 6.62816 0
M  V30 5935 H 556.367 1.14122 5.52844 0
M  V30 5936 N 555.766 -1.3263 0.851289 0
M  V30 5937 C 556.994 -2.01563 0.466899 0
M  V30 5938 C 557.409 -1.63996 -0.935447 0
M  V30 5939 O 556.766 -0.85957 -1.6099 0
M  V30 5940 C 556.817 -3.56613 0.592433 0
M  V30 5941 O 556.538 -3.92828 1.93954 0
M  V30 5942 C 558.039 -4.42818 0.206612 0
M  V30 5943 H 555.259 -0.645307 0.183902 0
M  V30 5944 H 557.803 -1.69285 1.1473 0
M  V30 5945 H 555.958 -3.87379 -0.0401936 0
M  V30 5946 H 556.372 -4.87545 1.9339 0
M  V30 5947 H 557.846 -5.50918 0.345462 0
M  V30 5948 H 558.323 -4.30844 -0.85264 0
M  V30 5949 H 558.929 -4.17434 0.814176 0
M  V30 5950 N 557.244 -0.608902 -1.45362 0
M  V30 5951 C 558.66 -0.272659 -1.57254 0
M  V30 5952 C 558.86 1.22477 -1.60005 0
M  V30 5953 O 557.916 2.00785 -1.53106 0
M  V30 5954 C 559.229 -0.944991 -2.85465 0
M  V30 5955 C 560.777 -0.921033 -2.99142 0
M  V30 5956 C 561.252 -1.5734 -4.30126 0
M  V30 5957 N 562.743 -1.53895 -4.36887 0
M  V30 5958 C 563.478 -2.01286 -5.36909 0
M  V30 5959 N 562.974 -2.56768 -6.43461 0
M  V30 5960 N 564.767 -1.92046 -5.28275 0
M  V30 5961 H 556.918 -1.58117 -1.4182 0
M  V30 5962 H 559.181 -0.662437 -0.678146 0
M  V30 5963 H 558.887 -1.99941 -2.89338 0
M  V30 5964 H 558.761 -0.469079 -3.74272 0
M  V30 5965 H 561.148 0.124846 -2.94836 0
M  V30 5966 H 561.229 -1.43522 -2.11743 0
M  V30 5967 H 560.873 -2.61862 -4.35191 0
M  V30 5968 H 560.803 -1.03422 -5.16344 0
M  V30 5969 H 563.294 -1.13366 -3.60495 0
M  V30 5970 H 563.607 -2.9072 -7.16032 0
M  V30 5971 H 561.952 -2.60808 -6.44208 0
M  V30 5972 H 565.143 -1.48439 -4.43941 0
M  V30 5973 H 565.316 -2.29293 -6.06077 0
M  V30 5974 N 558.722 1.53707 -0.348139 0
M  V30 5975 C 559.632 2.28881 0.514857 0
M  V30 5976 C 560.648 1.34168 1.10793 0
M  V30 5977 O 561.824 1.6721 1.12262 0
M  V30 5978 C 558.889 3.05042 1.64774 0
M  V30 5979 C 557.95 4.15389 1.08398 0
M  V30 5980 C 557.183 4.87909 2.16287 0
M  V30 5981 O 557.406 4.60137 3.3709 0
M  V30 5982 O 556.34 5.74254 1.80323 0
M  V30 5983 H 560.166 3.03547 -0.0963699 0
M  V30 5984 H 557.751 1.48972 -0.113043 0
M  V30 5985 H 559.633 3.52656 2.30677 0
M  V30 5986 H 558.308 2.33228 2.24469 0
M  V30 5987 H 557.215 3.72068 0.389341 0
M  V30 5988 H 558.548 4.89318 0.531829 0
M  V30 5989 N 560.2 0.0768682 1.57412 0
M  V30 5990 C 561.447 -0.591085 1.93681 0
M  V30 5991 C 561.775 -1.69311 0.957286 0
M  V30 5992 O 561.03 -1.95682 -0.0262428 0
M  V30 5993 C 561.329 -1.20268 3.36557 0
M  V30 5994 C 560.995 -0.226286 4.50332 0
M  V30 5995 C 559.657 0.0423142 4.81181 0
M  V30 5996 C 562.009 0.441415 5.19327 0
M  V30 5997 C 559.337 0.985616 5.78362 0
M  V30 5998 C 561.689 1.37307 6.17519 0
M  V30 5999 C 560.353 1.65009 6.46783 0
M  V30 6000 H 559.623 -0.216293 0.70873 0
M  V30 6001 H 562.27 0.148824 1.90921 0
M  V30 6002 H 560.575 -2.01844 3.35807 0
M  V30 6003 H 562.272 -1.72688 3.61911 0
M  V30 6004 H 558.862 -0.445821 4.26275 0
M  V30 6005 H 563.046 0.247023 4.95685 0
M  V30 6006 H 558.302 1.20743 5.99359 0
M  V30 6007 H 562.476 1.89637 6.70083 0
M  V30 6008 H 560.103 2.38263 7.21897 0
M  V30 6009 N 561.678 -1.56367 -0.196722 0
M  V30 6010 C 562.608 -1.97442 -1.24655 0
M  V30 6011 C 563.589 -0.846147 -1.47561 0
M  V30 6012 O 564.774 -1.11035 -1.59326 0
M  V30 6013 C 561.904 -2.31253 -2.59112 0
M  V30 6014 C 560.858 -3.46804 -2.50821 0
M  V30 6015 C 560.184 -3.66286 -3.89536 0
M  V30 6016 C 561.484 -4.8104 -2.03465 0
M  V30 6017 H 563.178 -2.85388 -0.905216 0
M  V30 6018 H 560.724 -1.37304 -0.434002 0
M  V30 6019 H 562.677 -2.58583 -3.32736 0
M  V30 6020 H 561.401 -1.40188 -2.94983 0
M  V30 6021 H 560.06 -3.19563 -1.79653 0
M  V30 6022 H 559.708 -2.72555 -4.22756 0
M  V30 6023 H 559.408 -4.4402 -3.84864 0
M  V30 6024 H 560.932 -3.9599 -4.64784 0
M  V30 6025 H 562.346 -5.07411 -2.66846 0
M  V30 6026 H 560.743 -5.62232 -2.09798 0
M  V30 6027 H 561.813 -4.74732 -0.98781 0
M  V30 6028 N 563.156 0.464375 -1.50603 0
M  V30 6029 C 564.103 1.56152 -1.69956 0
M  V30 6030 C 565.073 1.57046 -0.54091 0
M  V30 6031 O 566.258 1.74473 -0.772258 0
M  V30 6032 C 563.398 2.94079 -1.80586 0
M  V30 6033 C 562.511 3.02923 -3.07996 0
M  V30 6034 C 561.646 4.31806 -3.09382 0
M  V30 6035 C 560.685 4.34417 -4.31218 0
M  V30 6036 N 559.822 5.54782 -4.30304 0
M  V30 6037 H 564.662 1.38955 -2.6362 0
M  V30 6038 H 562.199 0.675482 -1.30674 0
M  V30 6039 H 564.157 3.74073 -1.8473 0
M  V30 6040 H 562.787 3.09896 -0.903556 0
M  V30 6041 H 561.839 2.1576 -3.13292 0
M  V30 6042 H 563.151 3.00712 -3.97962 0
M  V30 6043 H 562.305 5.20153 -3.12292 0
M  V30 6044 H 561.044 4.36636 -2.17257 0
M  V30 6045 H 560.049 3.44467 -4.28512 0
M  V30 6046 H 561.274 4.31273 -5.24576 0
M  V30 6047 H 559.22 5.60384 -3.41037 0
M  V30 6048 H 559.137 5.54339 -5.14047 0
M  V30 6049 H 560.405 6.45235 -4.3737 0
M  V30 6050 N 564.634 1.40294 0.718013 0
M  V30 6051 C 565.859 1.41941 1.5122 0
M  V30 6052 C 566.284 0.0202371 1.88089 0
M  V30 6053 O 565.642 -0.971078 1.53101 0
M  V30 6054 C 565.69 2.3141 2.76554 0
M  V30 6055 O 564.794 1.75567 3.73162 0
M  V30 6056 H 564.135 0.482644 0.456016 0
M  V30 6057 H 566.665 1.84494 0.884478 0
M  V30 6058 H 566.675 2.46513 3.25108 0
M  V30 6059 H 565.35 3.33085 2.49053 0
M  V30 6060 H 563.927 1.69798 3.31999 0
M  V30 6061 N 566.112 -0.949982 1.2575 0
M  V30 6062 C 567.042 -2.06483 1.09028 0
M  V30 6063 C 568.023 -1.701 -0.00201532 0
M  V30 6064 O 569.208 -1.93469 0.168383 0
M  V30 6065 C 566.338 -3.39899 0.71316 0
M  V30 6066 C 565.292 -3.90309 1.75621 0
M  V30 6067 C 564.618 -5.20274 1.23365 0
M  V30 6068 C 565.918 -4.16169 3.15596 0
M  V30 6069 H 567.612 -2.20731 2.02283 0
M  V30 6070 H 565.158 -1.06066 0.973964 0
M  V30 6071 H 567.111 -4.17346 0.58309 0
M  V30 6072 H 565.835 -3.25602 -0.255091 0
M  V30 6073 H 564.494 -3.15035 1.8748 0
M  V30 6074 H 564.142 -5.02351 0.255491 0
M  V30 6075 H 563.842 -5.54971 1.93082 0
M  V30 6076 H 565.366 -6.00314 1.11607 0
M  V30 6077 H 566.78 -4.84259 3.06864 0
M  V30 6078 H 565.177 -4.62131 3.82825 0
M  V30 6079 H 566.247 -3.22273 3.6231 0
M  V30 6080 N 567.59 -1.07411 -1.15328 0
M  V30 6081 C 569.006 -0.799759 -1.38116 0
M  V30 6082 C 569.206 0.59572 -1.92493 0
M  V30 6083 O 568.262 1.35433 -2.13106 0
M  V30 6084 C 569.575 -1.87407 -2.35158 0
M  V30 6085 C 571.123 -1.89889 -2.48819 0
M  V30 6086 C 571.598 -2.96406 -3.49153 0
M  V30 6087 N 573.089 -2.95512 -3.56689 0
M  V30 6088 C 573.824 -3.74575 -4.34144 0
M  V30 6089 N 573.32 -4.63488 -5.14928 0
M  V30 6090 N 575.113 -3.62919 -4.29239 0
M  V30 6091 H 567.264 -1.97411 -0.78374 0
M  V30 6092 H 569.527 -0.856113 -0.407154 0
M  V30 6093 H 569.233 -2.8768 -2.0232 0
M  V30 6094 H 569.107 -1.73471 -3.34944 0
M  V30 6095 H 571.494 -0.902677 -2.80955 0
M  V30 6096 H 571.575 -2.07904 -1.49029 0
M  V30 6097 H 571.219 -3.96227 -3.17752 0
M  V30 6098 H 571.149 -2.75638 -4.48699 0
M  V30 6099 H 573.64 -2.31061 -2.99031 0
M  V30 6100 H 573.953 -5.20445 -5.71276 0
M  V30 6101 H 572.298 -4.67537 -5.14232 0
M  V30 6102 H 575.489 -2.92833 -3.65194 0
M  V30 6103 H 575.662 -4.24777 -4.89355 0
M  V30 6104 N 569.068 1.32177 -0.85831 0
M  V30 6105 C 570.015 2.28794 -0.303607 0
M  V30 6106 C 570.985 1.55213 0.591453 0
M  V30 6107 O 572.17 1.83418 0.525585 0
M  V30 6108 C 569.31 3.41475 0.49889 0
M  V30 6109 C 568.423 4.2993 -0.422373 0
M  V30 6110 C 567.558 5.29743 0.393111 0
M  V30 6111 C 566.597 6.09842 -0.525317 0
M  V30 6112 N 565.734 7.01643 0.253208 0
M  V30 6113 H 570.574 2.75631 -1.13276 0
M  V30 6114 H 568.111 1.35606 -0.570026 0
M  V30 6115 H 570.069 4.05531 0.979826 0
M  V30 6116 H 568.699 2.95779 1.29284 0
M  V30 6117 H 567.751 3.66422 -1.02171 0
M  V30 6118 H 569.063 4.85899 -1.12709 0
M  V30 6119 H 568.217 5.9942 0.937056 0
M  V30 6120 H 566.956 4.744 1.13117 0
M  V30 6121 H 565.961 5.39066 -1.08112 0
M  V30 6122 H 567.186 6.6727 -1.26205 0
M  V30 6123 H 565.132 6.48725 0.974295 0
M  V30 6124 H 565.049 7.54981 -0.392398 0
M  V30 6125 H 566.317 7.756 0.778761 0
M  V30 6126 N 570.547 0.616602 1.45037 0
M  V30 6127 C 571.958 0.199359 1.85633 0
M  V30 6128 C 572.309 -1.24588 1.51566 0
M  V30 6129 O 571.434 -1.94594 0.94668 0
M  V30 6130 C 572.029 0.355033 3.36935 0
M  V30 6131 C 570.588 -0.00758748 3.76399 0
M  V30 6132 C 569.735 0.675256 2.68953 0
M  V30 6133 H 572.686 0.822708 1.3571 0
M  V30 6134 H 572.707 -0.410201 3.78282 0
M  V30 6135 H 572.219 1.40699 3.61698 0
M  V30 6136 H 570.32 -1.05837 3.57252 0
M  V30 6137 H 570.433 0.392346 4.77491 0
M  V30 6138 H 568.797 0.111992 2.54454 0
M  V30 6139 H 569.58 1.72952 2.96551 0
M  V30 6140 N 572.025 -1.5352 0.356285 0
M  V30 6141 C 573.272 -2.01117 -0.236303 0
M  V30 6142 C 573.6 -1.24381 -1.49531 0
M  V30 6143 O 572.855 -0.323057 -1.93015 0
M  V30 6144 C 573.154 -3.52607 -0.583369 0
M  V30 6145 C 572.82 -4.47151 0.58023 0
M  V30 6146 C 571.482 -4.72718 0.899528 0
M  V30 6147 C 573.834 -5.03137 1.36024 0
M  V30 6148 C 571.162 -5.51523 2.00098 0
M  V30 6149 C 573.514 -5.83145 2.45204 0
M  V30 6150 C 572.178 -6.07001 2.77679 0
M  V30 6151 H 571.448 -0.735938 -0.0864695 0
M  V30 6152 H 574.095 -1.85209 0.48683 0
M  V30 6153 H 572.4 -3.66413 -1.38739 0
M  V30 6154 H 574.097 -3.86901 -1.05397 0
M  V30 6155 H 570.687 -4.27394 0.321322 0
M  V30 6156 H 574.871 -4.83339 1.12682 0
M  V30 6157 H 570.127 -5.68229 2.25668 0
M  V30 6158 H 574.301 -6.25537 3.06067 0
M  V30 6159 H 571.928 -6.67851 3.63151 0
M  V30 6160 N 573.503 -0.0852151 -1.57369 0
M  V30 6161 C 574.751 0.579658 -1.93609 0
M  V30 6162 C 575.072 1.69332 -0.967043 0
M  V30 6163 O 574.342 1.95892 -0.0174215 0
M  V30 6164 H 572.922 0.217113 -0.714752 0
M  V30 6165 H 575.584 -0.146226 -1.94351 0
M  V30 6166 H 574.68 0.996276 -2.95771 0
M  V30 6167 N 574.981 1.5647 0.188427 0
M  V30 6168 C 576.258 1.71857 0.934058 0
M  V30 6169 C 576.638 0.641867 2.01105 0
M  V30 6170 O 575.986 -0.346098 2.25864 0
M  V30 6171 C 576.196 3.14431 1.5144 0
M  V30 6172 C 577.544 3.74869 1.99396 0
M  V30 6173 O 578.568 3.17601 1.61269 0
M  V30 6174 O 577.427 4.75387 2.69573 0
M  V30 6175 H 574.521 0.701186 0.438483 0
M  V30 6176 H 577.067 1.68768 0.177599 0
M  V30 6177 H 575.839 3.8427 0.738416 0
M  V30 6178 H 575.462 3.21775 2.33552 0
M  V30 6179 N 576.459 -0.456382 1.50847 0
M  V30 6180 C 577.706 -1.20736 1.62571 0
M  V30 6181 C 578.034 -1.9163 0.332904 0
M  V30 6182 O 577.289 -1.8343 -0.682058 0
M  V30 6183 C 577.588 -2.26336 2.76599 0
M  V30 6184 C 577.254 -1.7259 4.16562 0
M  V30 6185 C 575.916 -1.57654 4.54641 0
M  V30 6186 C 578.268 -1.32877 5.03977 0
M  V30 6187 C 575.596 -1.0145 5.77862 0
M  V30 6188 C 577.948 -0.7811 6.27759 0
M  V30 6189 C 576.612 -0.618488 6.64628 0
M  V30 6190 H 575.882 -0.441803 0.594888 0
M  V30 6191 H 578.529 -0.501169 1.84826 0
M  V30 6192 H 576.834 -3.0292 2.48489 0
M  V30 6193 H 578.531 -2.84227 2.82871 0
M  V30 6194 H 575.121 -1.85187 3.86528 0
M  V30 6195 H 579.305 -1.43245 4.75179 0
M  V30 6196 H 574.561 -0.876109 6.0509 0
M  V30 6197 H 578.735 -0.464783 6.94847 0
M  V30 6198 H 576.362 -0.180838 7.59985 0
M  V30 6199 N 577.937 -1.40673 -0.710563 0
M  V30 6200 C 578.87 -1.35742 -1.83438 0
M  V30 6201 C 579.848 -0.226997 -1.61008 0
M  V30 6202 O 581.032 -0.411477 -1.83954 0
M  V30 6203 C 578.159 -1.11374 -3.19865 0
M  V30 6204 C 577.205 -2.26935 -3.61113 0
M  V30 6205 S 578.038 -3.89352 -3.67648 0
M  V30 6206 C 579.194 -3.67258 -5.06826 0
M  V30 6207 H 579.427 -2.30848 -1.87341 0
M  V30 6208 H 576.96 -1.27018 -0.877831 0
M  V30 6209 H 578.918 -0.980004 -3.9863 0
M  V30 6210 H 577.579 -0.179135 -3.13589 0
M  V30 6211 H 576.772 -2.0554 -4.60184 0
M  V30 6212 H 576.374 -2.36638 -2.89618 0
M  V30 6213 H 578.666 -3.26036 -5.93891 0
M  V30 6214 H 579.609 -4.65878 -5.33257 0
M  V30 6215 H 580.017 -3.0084 -4.77656 0
M  V30 6216 N 579.415 0.9433 -1.26252 0
M  V30 6217 C 580.325 2.07532 -1.09397 0
M  V30 6218 C 581.341 1.73977 -0.0280449 0
M  V30 6219 O 582.517 2.00067 -0.231337 0
M  V30 6220 C 579.582 3.39002 -0.726523 0
M  V30 6221 C 578.643 3.86353 -1.87163 0
M  V30 6222 C 577.876 5.11549 -1.52162 0
M  V30 6223 O 578.099 5.68834 -0.422385 0
M  V30 6224 O 577.033 5.53889 -2.35565 0
M  V30 6225 H 580.859 2.24658 -2.04359 0
M  V30 6226 H 578.444 1.05988 -1.05295 0
M  V30 6227 H 580.326 4.18 -0.534236 0
M  V30 6228 H 579.001 3.2312 0.193721 0
M  V30 6229 H 577.908 3.0831 -2.11886 0
M  V30 6230 H 579.241 4.06752 -2.77152 0
M  V30 6231 N 580.893 1.08022 1.14757 0
M  V30 6232 C 582.304 0.829144 1.67279 0
M  V30 6233 C 582.655 -0.644721 1.85305 0
M  V30 6234 O 581.78 -1.49838 1.56133 0
M  V30 6235 C 582.375 1.49855 3.03857 0
M  V30 6236 C 580.934 1.29482 3.53428 0
M  V30 6237 C 580.081 1.56386 2.28995 0
M  V30 6238 H 583.032 1.24134 0.988762 0
M  V30 6239 H 583.053 0.923572 3.69121 0
M  V30 6240 H 582.565 2.57123 2.90705 0
M  V30 6241 H 580.666 0.242669 3.71809 0
M  V30 6242 H 580.779 2.01974 4.34446 0
M  V30 6243 H 579.143 0.985217 2.34874 0
M  V30 6244 H 579.926 2.64851 2.18423 0
M  V30 6245 N 582.371 -1.3172 0.865308 0
M  V30 6246 C 583.318 -2.2863 0.315736 0
M  V30 6247 C 584.288 -1.55524 -0.583213 0
M  V30 6248 O 585.473 -1.83694 -0.51585 0
M  V30 6249 C 582.613 -3.41735 -0.480773 0
M  V30 6250 C 581.726 -4.297 0.445167 0
M  V30 6251 C 580.861 -5.29944 -0.365012 0
M  V30 6252 C 579.9 -6.09554 0.557651 0
M  V30 6253 N 579.037 -7.01768 -0.215994 0
M  V30 6254 H 583.877 -2.75026 1.14736 0
M  V30 6255 H 581.414 -1.35302 0.577209 0
M  V30 6256 H 583.372 -4.06045 -0.958306 0
M  V30 6257 H 582.002 -2.96461 -1.27714 0
M  V30 6258 H 581.054 -3.65875 1.04113 0
M  V30 6259 H 582.366 -4.85295 1.15284 0
M  V30 6260 H 581.52 -5.99908 -0.905255 0
M  V30 6261 H 580.259 -4.74994 -1.106 0
M  V30 6262 H 579.264 -5.38485 1.10969 0
M  V30 6263 H 580.489 -6.66591 1.29742 0
M  V30 6264 H 578.435 -6.49232 -0.939878 0
M  V30 6265 H 578.352 -7.54762 0.432431 0
M  V30 6266 H 579.62 -7.76002 -0.737618 0
M  V30 6267 N 583.85 -0.624285 -1.44708 0
M  V30 6268 C 585.096 -0.126051 -2.02107 0
M  V30 6269 C 585.425 1.2496 -1.49048 0
M  V30 6270 O 584.68 1.84163 -0.662005 0
M  V30 6271 C 584.979 -0.0546353 -3.57358 0
M  V30 6272 C 584.644 -1.36815 -4.29642 0
M  V30 6273 C 583.307 -1.72792 -4.49106 0
M  V30 6274 C 585.659 -2.23549 -4.70824 0
M  V30 6275 C 582.986 -2.95222 -5.07012 0
M  V30 6276 C 585.339 -3.45243 -5.30085 0
M  V30 6277 C 584.003 -3.81452 -5.47769 0
M  V30 6278 H 583.273 -0.0461252 -0.739563 0
M  V30 6279 H 585.92 -0.809236 -1.73562 0
M  V30 6280 H 584.225 0.711891 -3.85278 0
M  V30 6281 H 585.922 0.347282 -3.99493 0
M  V30 6282 H 582.512 -1.07817 -4.14817 0
M  V30 6283 H 586.696 -1.9705 -4.55505 0
M  V30 6284 H 581.952 -3.23361 -5.18891 0
M  V30 6285 H 586.125 -4.12689 -5.60946 0
M  V30 6286 H 583.753 -4.76403 -5.92405 0
M  V30 6287 N 585.328 1.53329 -0.364422 0
M  V30 6288 C 586.238 2.29414 0.490552 0
M  V30 6289 C 587.254 1.35335 1.09363 0
M  V30 6290 O 588.43 1.68391 1.10483 0
M  V30 6291 C 585.495 3.06772 1.61529 0
M  V30 6292 C 584.556 4.16516 1.03986 0
M  V30 6293 C 583.789 4.90176 2.111 0
M  V30 6294 O 584.012 4.63687 3.32191 0
M  V30 6295 O 582.946 5.76134 1.74222 0
M  V30 6296 H 586.772 3.03428 -0.12856 0
M  V30 6297 H 584.357 1.48843 -0.128837 0
M  V30 6298 H 586.239 3.55082 2.26924 0
M  V30 6299 H 584.914 2.35596 2.21983 0
M  V30 6300 H 583.821 3.7246 0.349856 0
M  V30 6301 H 585.154 4.89855 0.4799 0
M  V30 6302 N 586.806 0.0935595 1.57322 0
M  V30 6303 C 588.053 -0.570509 1.94297 0
M  V30 6304 C 588.381 -1.68286 0.97519 0
M  V30 6305 O 587.636 -1.95699 -0.00548655 0
M  V30 6306 C 587.935 -1.16692 3.37813 0
M  V30 6307 C 587.601 -0.178509 4.50547 0
M  V30 6308 C 586.263 0.0933475 4.81109 0
M  V30 6309 C 588.615 0.496472 5.1883 0
M  V30 6310 C 585.943 1.0469 5.77284 0
M  V30 6311 C 588.295 1.43849 6.16028 0
M  V30 6312 C 586.959 1.71859 6.44997 0
M  V30 6313 H 586.229 -0.208764 0.710984 0
M  V30 6314 H 588.876 0.169066 1.90752 0
M  V30 6315 H 587.181 -1.98271 3.37929 0
M  V30 6316 H 588.878 -1.6884 3.63722 0
M  V30 6317 H 585.468 -0.400584 4.26724 0
M  V30 6318 H 589.652 0.299584 4.95395 0
M  V30 6319 H 584.908 1.27094 5.98044 0
M  V30 6320 H 589.082 1.96734 6.68034 0
M  V30 6321 H 586.709 2.45906 7.19329 0
M  V30 6322 N 588.284 -1.56567 -0.180126 0
M  V30 6323 C 589.247 -1.94852 -1.20686 0
M  V30 6324 C 590.247 -0.831212 -1.3765 0
M  V30 6325 O 591.437 -1.09841 -1.35206 0
M  V30 6326 C 588.569 -2.23565 -2.57355 0
M  V30 6327 H 589.762 -2.86722 -0.879225 0
M  V30 6328 H 587.315 -1.50489 -0.422237 0
M  V30 6329 H 588.05 -1.34381 -2.95148 0
M  V30 6330 H 587.835 -3.04999 -2.46411 0
M  V30 6331 H 589.325 -2.54137 -3.31367 0
M  V30 6332 N 589.762 0.448376 -1.51087 0
M  V30 6333 C 591.008 1.20049 -1.6345 0
M  V30 6334 C 591.341 1.91121 -0.344444 0
M  V30 6335 O 590.616 1.83125 0.655396 0
M  V30 6336 C 590.899 2.22624 -2.83038 0
M  V30 6337 C 590.752 1.55708 -4.21989 0
M  V30 6338 C 592.071 3.23718 -2.98152 0
M  V30 6339 H 589.19 0.435085 -0.59487 0
M  V30 6340 H 591.832 0.491183 -1.83541 0
M  V30 6341 H 589.982 2.83117 -2.66039 0
M  V30 6342 H 591.654 0.986367 -4.50631 0
M  V30 6343 H 589.897 0.859647 -4.25197 0
M  V30 6344 H 590.568 2.30357 -5.01637 0
M  V30 6345 H 593.044 2.73269 -3.13788 0
M  V30 6346 H 591.92 3.92795 -3.83411 0
M  V30 6347 H 592.181 3.89179 -2.09743 0
M  V30 6348 N 591.24 1.41047 0.703093 0
M  V30 6349 C 592.187 1.42302 1.81711 0
M  V30 6350 C 593.157 0.278336 1.63751 0
M  V30 6351 O 594.342 0.478266 1.84709 0
M  V30 6352 C 591.482 1.30362 3.19531 0
M  V30 6353 C 590.595 2.54638 3.48975 0
M  V30 6354 C 589.73 2.35047 4.76368 0
M  V30 6355 C 588.769 3.54837 4.98756 0
M  V30 6356 N 587.906 3.34363 6.1737 0
M  V30 6357 H 592.746 2.37516 1.79973 0
M  V30 6358 H 590.283 1.1795 0.878983 0
M  V30 6359 H 592.241 1.21443 3.99134 0
M  V30 6360 H 590.871 0.387602 3.20464 0
M  V30 6361 H 589.923 2.74037 2.63833 0
M  V30 6362 H 591.235 3.43766 3.61423 0
M  V30 6363 H 590.389 2.23552 5.64012 0
M  V30 6364 H 589.128 1.43363 4.66153 0
M  V30 6365 H 588.133 3.66795 4.09563 0
M  V30 6366 H 589.358 4.47464 5.10835 0
M  V30 6367 H 587.304 2.45373 6.08382 0
M  V30 6368 H 587.221 4.17063 6.30551 0
M  V30 6369 H 588.489 3.26626 7.07768 0
M  V30 6370 N 592.718 -0.936591 1.26751 0
M  V30 6371 C 593.965 -1.68331 1.12566 0
M  V30 6372 C 594.293 -1.91677 -0.330168 0
M  V30 6373 O 593.548 -1.49859 -1.2586 0
M  V30 6374 C 593.847 -3.06099 1.84494 0
M  V30 6375 C 593.513 -3.02493 3.34378 0
M  V30 6376 C 592.175 -3.01217 3.75262 0
M  V30 6377 C 594.527 -2.94453 4.30055 0
M  V30 6378 C 591.855 -2.89672 5.10203 0
M  V30 6379 C 594.207 -2.84449 5.65041 0
M  V30 6380 C 592.871 -2.81518 6.0523 0
M  V30 6381 H 592.141 -0.615965 0.411907 0
M  V30 6382 H 594.788 -1.09292 1.5725 0
M  V30 6383 H 593.093 -3.6879 1.32292 0
M  V30 6384 H 594.79 -3.62733 1.70955 0
M  V30 6385 H 591.38 -3.04269 3.01858 0
M  V30 6386 H 595.564 -2.94544 3.99447 0
M  V30 6387 H 590.82 -2.85783 5.40498 0
M  V30 6388 H 594.994 -2.77192 6.38856 0
M  V30 6389 H 592.621 -2.72329 7.09747 0
M  V30 6390 N 594.196 -1.08629 -1.14182 0
M  V30 6391 C 595.144 -0.71284 -2.21408 0
M  V30 6392 C 596.138 0.282457 -1.67029 0
M  V30 6393 O 597.344 0.144783 -1.79417 0
M  V30 6394 H 593.719 -0.212497 -0.721352 0
M  V30 6395 H 595.69 -1.6265 -2.50175 0
M  V30 6396 C 594.439 -0.140704 -3.47415 0
M  V30 6397 H 593.762 -0.897739 -3.8959 0
M  V30 6398 H 595.202 0.0827677 -4.23919 0
M  V30 6399 C 593.661 1.122 -3.17668 0
M  V30 6400 O 594.191 2.20652 -3.35672 0
M  V30 6401 N 592.397 1.03328 -2.71609 0
M  V30 6402 H 591.944 0.150666 -2.57159 0
M  V30 6403 H 591.902 1.8789 -2.52081 0
M  V30 6404 N 595.674 1.31259 -0.872281 0
M  V30 6405 C 596.637 2.26744 -0.334656 0
M  V30 6406 C 597.637 1.52307 0.515681 0
M  V30 6407 O 598.827 1.71148 0.324656 0
M  V30 6408 C 595.959 3.36841 0.524482 0
M  V30 6409 H 597.152 2.75812 -1.17762 0
M  V30 6410 H 594.705 1.42232 -0.648064 0
M  V30 6411 H 595.44 2.93069 1.38855 0
M  V30 6412 H 595.225 3.92009 -0.0844299 0
M  V30 6413 H 596.715 4.07944 0.892838 0
M  V30 6414 N 597.152 0.631951 1.44375 0
M  V30 6415 C 598.082 -0.0593243 2.33425 0
M  V30 6416 C 599.063 -0.833964 1.48253 0
M  V30 6417 O 600.248 -0.799682 1.76971 0
M  V30 6418 C 597.378 -1.04096 3.31333 0
M  V30 6419 C 596.332 -0.377899 4.26328 0
M  V30 6420 C 595.658 -1.4695 5.14111 0
M  V30 6421 C 596.958 0.716371 5.17364 0
M  V30 6422 H 598.652 0.684287 2.91475 0
M  V30 6423 H 596.198 0.330518 1.40156 0
M  V30 6424 H 598.151 -1.53331 3.92514 0
M  V30 6425 H 596.875 -1.81547 2.71493 0
M  V30 6426 H 595.534 0.0938054 3.6648 0
M  V30 6427 H 595.182 -2.2349 4.50623 0
M  V30 6428 H 594.882 -1.03121 5.78481 0
M  V30 6429 H 596.406 -1.96363 5.78164 0
M  V30 6430 H 597.82 0.307089 5.72477 0
M  V30 6431 H 596.217 1.07784 5.90341 0
M  V30 6432 H 597.287 1.58316 4.58327 0
M  V30 6433 N 598.631 -1.53133 0.372548 0
M  V30 6434 C 599.541 -2.29671 -0.478379 0
M  V30 6435 C 600.557 -1.35913 -1.08644 0
M  V30 6436 O 601.733 -1.68975 -1.09588 0
M  V30 6437 C 598.798 -3.07625 -1.599 0
M  V30 6438 C 597.859 -4.17061 -1.01776 0
M  V30 6439 C 597.092 -4.91289 -2.08497 0
M  V30 6440 O 597.315 -4.65442 -3.29727 0
M  V30 6441 O 596.249 -5.7705 -1.71164 0
M  V30 6442 H 600.075 -3.03355 0.144649 0
M  V30 6443 H 597.66 -1.48773 0.136729 0
M  V30 6444 H 599.542 -3.56281 -2.25038 0
M  V30 6445 H 598.217 -2.3677 -2.2073 0
M  V30 6446 H 597.124 -3.72641 -0.330098 0
M  V30 6447 H 598.457 -4.90102 -0.453915 0
M  V30 6448 N 600.109 -0.101901 -1.5727 0
M  V30 6449 C 601.039 0.851544 -2.17419 0
M  V30 6450 C 602.02 1.28942 -1.10941 0
M  V30 6451 O 603.205 1.35509 -1.39107 0
M  V30 6452 C 600.335 2.10816 -2.75996 0
M  V30 6453 C 599.289 1.80867 -3.87906 0
M  V30 6454 C 598.615 3.13413 -4.33216 0
M  V30 6455 C 599.915 1.0903 -5.10793 0
M  V30 6456 H 601.609 0.350381 -2.97343 0
M  V30 6457 H 599.155 0.16709 -1.43027 0
M  V30 6458 H 601.108 2.77959 -3.16729 0
M  V30 6459 H 599.832 2.63227 -1.93337 0
M  V30 6460 H 598.491 1.16119 -3.47724 0
M  V30 6461 H 598.139 3.63725 -3.47438 0
M  V30 6462 H 597.839 2.94155 -5.08671 0
M  V30 6463 H 599.363 3.81704 -4.76586 0
M  V30 6464 H 600.777 1.66295 -5.48652 0
M  V30 6465 H 599.174 0.99927 -5.91722 0
M  V30 6466 H 600.244 0.0741704 -4.84843 0
M  V30 6467 N 601.587 1.56661 0.17182 0
M  V30 6468 C 602.864 1.72838 0.915778 0
M  V30 6469 C 603.244 0.66316 2.00413 0
M  V30 6470 O 602.592 -0.322123 2.26218 0
M  V30 6471 C 602.802 3.16019 1.48097 0
M  V30 6472 C 604.15 3.76962 1.95408 0
M  V30 6473 O 605.174 3.19294 1.57892 0
M  V30 6474 O 604.033 4.78219 2.64516 0
M  V30 6475 H 601.127 0.705797 0.431021 0
M  V30 6476 H 603.673 1.68947 0.159689 0
M  V30 6477 H 602.445 3.85031 0.697618 0
M  V30 6478 H 602.068 3.24234 2.30126 0
M  V30 6479 N 603.065 -0.440357 1.51323 0
M  V30 6480 C 604.342 -1.20109 1.5438 0
M  V30 6481 C 604.722 -2.08866 0.306303 0
M  V30 6482 O 604.07 -2.1723 -0.708773 0
M  V30 6483 C 604.28 -2.00555 2.8562 0
M  V30 6484 C 605.628 -2.577 3.37455 0
M  V30 6485 O 606.652 -2.10769 2.8715 0
M  V30 6486 O 605.511 -3.43289 4.25224 0
M  V30 6487 H 602.605 -0.546668 0.620551 0
M  V30 6488 H 605.151 -0.449672 1.63634 0
M  V30 6489 H 603.923 -1.35346 3.67147 0
M  V30 6490 H 603.546 -2.82768 2.79514 0
M  V30 6491 N 604.543 -1.41418 -0.695603 0
M  V30 6492 C 605.768 -1.44329 -1.48942 0
M  V30 6493 C 606.193 -0.0501579 -1.88033 0
M  V30 6494 O 605.551 0.946598 -1.54626 0
M  V30 6495 C 605.599 -2.3578 -2.72837 0
M  V30 6496 O 604.703 -1.81482 -3.70322 0
M  V30 6497 H 604.044 -0.489838 -0.44828 0
M  V30 6498 H 606.574 -1.85878 -0.855014 0
M  V30 6499 H 606.584 -2.51654 -3.21145 0
M  V30 6500 H 605.259 -3.37005 -2.43722 0
M  V30 6501 H 603.836 -1.75058 -3.29255 0
M  V30 6502 N 606.021 0.929856 -1.27246 0
M  V30 6503 C 607.298 1.65544 -1.04186 0
M  V30 6504 C 607.678 2.06796 0.424097 0
M  V30 6505 O 607.026 1.80053 1.40688 0
M  V30 6506 C 607.236 2.85912 -2.00138 0
M  V30 6507 C 608.584 3.57305 -2.29387 0
M  V30 6508 O 609.608 2.96036 -1.98094 0
M  V30 6509 O 608.467 4.67688 -2.82719 0
M  V30 6510 H 605.561 0.725473 -0.397011 0
M  V30 6511 H 608.107 0.980583 -1.38501 0
M  V30 6512 H 606.879 2.52403 -2.99013 0
M  V30 6513 H 606.502 3.61118 -1.66371 0
M  V30 6514 N 607.499 1.09233 1.13605 0
M  V30 6515 C 608.429 0.751738 2.21068 0
M  V30 6516 C 609.41 -0.269688 1.67948 0
M  V30 6517 O 610.595 -0.13819 1.93708 0
M  V30 6518 C 607.725 0.16935 3.46887 0
M  V30 6519 C 606.679 1.12007 4.13084 0
M  V30 6520 C 606.005 0.399483 5.33206 0
M  V30 6521 C 607.305 2.46168 4.6065 0
M  V30 6522 H 608.999 1.65024 2.49815 0
M  V30 6523 H 606.545 0.794905 1.20072 0
M  V30 6524 H 608.498 -0.0809824 4.21322 0
M  V30 6525 H 607.222 -0.764335 3.1753 0
M  V30 6526 H 605.881 1.35564 3.40614 0
M  V30 6527 H 605.529 -0.538277 5.00112 0
M  V30 6528 H 605.229 1.03337 5.78442 0
M  V30 6529 H 606.753 0.157403 6.10397 0
M  V30 6530 H 608.167 2.26829 5.26518 0
M  V30 6531 H 606.564 3.05326 5.1662 0
M  V30 6532 H 607.634 3.07076 3.75276 0
M  V30 6533 N 608.977 -1.30795 0.87923 0
M  V30 6534 C 609.94 -2.26563 0.346676 0
M  V30 6535 C 610.94 -1.52578 -0.507597 0
M  V30 6536 O 612.13 -1.71318 -0.315575 0
M  V30 6537 C 609.262 -3.37115 -0.506611 0
M  V30 6538 H 610.455 -2.75183 1.19223 0
M  V30 6539 H 608.008 -1.41886 0.655598 0
M  V30 6540 H 608.743 -2.93802 -1.37299 0
M  V30 6541 H 608.528 -3.91959 0.105218 0
M  V30 6542 H 610.018 -4.08412 -0.871192 0
M  V30 6543 N 610.455 -0.639598 -1.44038 0
M  V30 6544 C 611.704 -0.144885 -2.01179 0
M  V30 6545 C 612.017 1.24372 -1.50967 0
M  V30 6546 O 613.223 1.83291 -2.00292 0
M  V30 6547 C 611.679 -0.208244 -3.59297 0
M  V30 6548 C 611.287 -1.59869 -4.18504 0
M  V30 6549 C 613.031 0.229568 -4.23879 0
M  V30 6550 C 610.938 -1.61671 -5.68873 0
M  V30 6551 H 609.868 -0.0504005 -0.752314 0
M  V30 6552 H 612.519 -0.799639 -1.65161 0
M  V30 6553 H 610.901 0.513767 -3.92653 0
M  V30 6554 H 612.075 -2.34496 -3.96671 0
M  V30 6555 H 610.39 -1.98131 -3.66242 0
M  V30 6556 H 612.987 0.235758 -5.3418 0
M  V30 6557 H 613.33 1.25848 -3.96822 0
M  V30 6558 H 613.863 -0.440233 -3.95357 0
M  V30 6559 H 610.602 -2.62427 -6.00677 0
M  V30 6560 H 610.122 -0.913489 -5.92803 0
M  V30 6561 H 611.801 -1.35439 -6.32665 0
M  V30 6562 N 611.933 1.52934 -0.380664 0
M  V30 6563 C 613.18 2.01467 0.204278 0
M  V30 6564 C 613.508 1.26744 1.47533 0
M  V30 6565 O 612.763 0.353723 1.92477 0
M  V30 6566 C 613.062 3.5349 0.527199 0
M  V30 6567 C 612.728 4.46171 -0.651295 0
M  V30 6568 C 611.39 4.71227 -0.974619 0
M  V30 6569 C 613.742 5.00909 -1.44012 0
M  V30 6570 C 611.07 5.4827 -2.08847 0
M  V30 6571 C 613.422 5.7917 -2.5445 0
M  V30 6572 C 612.086 6.02507 -2.87301 0
M  V30 6573 H 611.356 0.73722 0.0747504 0
M  V30 6574 H 614.003 1.84411 -0.516234 0
M  V30 6575 H 612.308 3.68574 1.32892 0
M  V30 6576 H 614.005 3.88529 0.992283 0
M  V30 6577 H 610.595 4.26829 -0.389276 0
M  V30 6578 H 614.779 4.81485 -1.20357 0
M  V30 6579 H 610.035 5.64567 -2.34679 0
M  V30 6580 H 614.209 6.20588 -3.1598 0
M  V30 6581 H 611.836 6.61989 -3.7373 0
M  V30 6582 N 613.412 0.11024 1.57214 0
M  V30 6583 C 614.661 -0.549638 1.94067 0
M  V30 6584 C 614.974 -1.68388 0.995234 0
M  V30 6585 O 616.18 -2.40593 1.25807 0
M  V30 6586 C 614.636 -1.02912 3.44873 0
M  V30 6587 C 614.244 0.0761861 4.47935 0
M  V30 6588 C 615.988 -1.66087 3.9066 0
M  V30 6589 C 613.895 -0.419502 5.8991 0
M  V30 6590 H 612.825 -0.209092 0.724428 0
M  V30 6591 H 615.476 0.188683 1.82527 0
M  V30 6592 H 613.858 -1.82159 3.51616 0
M  V30 6593 H 615.032 0.852185 4.52851 0
M  V30 6594 H 613.347 0.614052 4.11847 0
M  V30 6595 H 615.944 -2.04272 4.94143 0
M  V30 6596 H 616.287 -2.53591 3.30148 0
M  V30 6597 H 616.82 -0.933959 3.86681 0
M  V30 6598 H 613.559 0.419277 6.54158 0
M  V30 6599 H 613.079 -1.16217 5.88433 0
M  V30 6600 H 614.758 -0.883577 6.40938 0
M  V30 6601 N 614.89 -1.56749 -0.16351 0
M  V30 6602 C 615.853 -1.96121 -1.18613 0
M  V30 6603 C 616.853 -0.845765 -1.36761 0
M  V30 6604 O 618.043 -1.11268 -1.34033 0
M  V30 6605 C 615.175 -2.26282 -2.54969 0
M  V30 6606 H 616.368 -2.87639 -0.848764 0
M  V30 6607 H 613.921 -1.50928 -0.406251 0
M  V30 6608 H 614.656 -1.37504 -2.93706 0
M  V30 6609 H 614.441 -3.07595 -2.43162 0
M  V30 6610 H 615.931 -2.57638 -3.28653 0
M  V30 6611 N 616.368 0.432326 -1.51554 0
M  V30 6612 C 617.614 1.18309 -1.64714 0
M  V30 6613 C 617.947 1.90745 -0.364696 0
M  V30 6614 O 617.222 1.8381 0.635936 0
M  V30 6615 C 617.505 2.1961 -2.85383 0
M  V30 6616 C 617.358 1.51223 -4.23617 0
M  V30 6617 C 618.677 3.20538 -3.01569 0
M  V30 6618 H 615.796 0.428751 -0.599451 0
M  V30 6619 H 618.438 0.471689 -1.84052 0
M  V30 6620 H 616.588 2.8028 -2.69027 0
M  V30 6621 H 618.26 0.938516 -4.51652 0
M  V30 6622 H 616.503 0.814501 -4.26085 0
M  V30 6623 H 617.174 2.25024 -5.04052 0
M  V30 6624 H 619.65 2.69926 -3.16669 0
M  V30 6625 H 618.526 3.88706 -3.87555 0
M  V30 6626 H 618.787 3.86933 -2.13859 0
M  V30 6627 N 617.846 1.41785 0.688094 0
M  V30 6628 C 619.095 1.4084 1.44385 0
M  V30 6629 C 619.408 0.0234166 1.95586 0
M  V30 6630 O 620.614 -0.108647 2.71283 0
M  V30 6631 C 619.07 2.47675 2.61123 0
M  V30 6632 C 618.678 3.92116 2.16677 0
M  V30 6633 C 620.422 2.55877 3.38714 0
M  V30 6634 C 618.329 4.90487 3.30419 0
M  V30 6635 H 617.259 0.523787 0.542368 0
M  V30 6636 H 619.91 1.6764 0.74627 0
M  V30 6637 H 618.292 2.14018 3.33185 0
M  V30 6638 H 619.466 4.35059 1.51856 0
M  V30 6639 H 617.781 3.87642 1.5206 0
M  V30 6640 H 620.378 3.26553 4.234 0
M  V30 6641 H 620.721 1.59801 3.84408 0
M  V30 6642 H 621.254 2.88662 2.73714 0
M  V30 6643 H 617.993 5.87994 2.89729 0
M  V30 6644 H 617.513 4.52187 3.94065 0
M  V30 6645 H 619.192 5.11591 3.96085 0
M  V30 6646 N 619.324 -0.923095 1.27737 0
M  V30 6647 C 620.573 -1.66581 1.13727 0
M  V30 6648 C 620.886 -1.9304 -0.315433 0
M  V30 6649 O 622.092 -2.65309 -0.57651 0
M  V30 6650 C 620.548 -3.00047 1.98745 0
M  V30 6651 C 620.156 -2.8127 3.48699 0
M  V30 6652 C 621.9 -3.77887 1.93395 0
M  V30 6653 C 619.807 -4.1032 4.25901 0
M  V30 6654 H 618.737 -0.624834 0.422017 0
M  V30 6655 H 621.388 -1.02514 1.52194 0
M  V30 6656 H 619.77 -3.65197 1.53125 0
M  V30 6657 H 620.944 -2.24859 4.02213 0
M  V30 6658 H 619.259 -2.16854 3.55476 0
M  V30 6659 H 621.856 -4.73526 2.48348 0
M  V30 6660 H 622.199 -4.06264 0.908605 0
M  V30 6661 H 622.732 -3.19541 2.36935 0
M  V30 6662 H 619.471 -3.8712 5.28978 0
M  V30 6663 H 618.991 -4.66377 3.77163 0
M  V30 6664 H 620.67 -4.78648 4.35321 0
M  V30 6665 N 620.802 -1.09834 -1.13024 0
M  V30 6666 C 621.732 -0.763451 -2.20666 0
M  V30 6667 C 622.713 0.260778 -1.68089 0
M  V30 6668 O 623.898 0.127915 -1.93778 0
M  V30 6669 C 621.028 -0.187744 -3.46792 0
M  V30 6670 C 619.982 -1.14196 -4.12484 0
M  V30 6671 C 619.308 -0.427755 -5.32986 0
M  V30 6672 C 620.608 -2.48607 -4.59338 0
M  V30 6673 H 622.302 -1.66347 -2.48936 0
M  V30 6674 H 619.848 -0.801261 -1.19649 0
M  V30 6675 H 621.801 0.0586375 -4.21359 0
M  V30 6676 H 620.525 0.747485 -3.17931 0
M  V30 6677 H 619.184 -1.37369 -3.3989 0
M  V30 6678 H 618.832 0.511747 -5.0039 0
M  V30 6679 H 618.532 -1.06403 -5.77886 0
M  V30 6680 H 620.056 -0.189772 -6.10305 0
M  V30 6681 H 621.47 -2.29618 -5.25308 0
M  V30 6682 H 619.867 -3.08062 -5.14993 0
M  V30 6683 H 620.937 -3.09062 -3.73642 0
M  V30 6684 N 622.28 1.30327 -0.886154 0
M  V30 6685 C 623.505 2.0079 -0.519425 0
M  V30 6686 C 623.93 1.65979 0.885013 0
M  V30 6687 O 623.288 0.877043 1.58675 0
M  V30 6688 C 623.336 3.53686 -0.702758 0
M  V30 6689 O 622.44 4.11637 0.250828 0
M  V30 6690 H 621.781 0.63171 -0.204544 0
M  V30 6691 H 624.311 1.66145 -1.19402 0
M  V30 6692 H 624.321 4.03531 -0.602207 0
M  V30 6693 H 622.996 3.78361 -1.72673 0
M  V30 6694 H 621.573 3.72755 0.103873 0
M  V30 6695 N 623.758 0.647228 1.43697 0
M  V30 6696 C 625.006 0.157876 2.01482 0
M  V30 6697 C 625.327 -1.23039 1.51282 0
M  V30 6698 O 624.597 -1.82071 0.722982 0
M  V30 6699 H 623.177 0.0553745 0.744945 0
M  V30 6700 H 625.839 0.83755 1.75986 0
M  V30 6701 H 624.935 0.137895 3.11795 0
M  V30 6702 N 625.236 -1.5273 0.388769 0
M  V30 6703 C 626.513 -1.93981 -0.251133 0
M  V30 6704 C 626.893 -1.32418 -1.64404 0
M  V30 6705 O 626.241 -0.492074 -2.23139 0
M  V30 6706 C 626.451 -3.47891 -0.27802 0
M  V30 6707 C 627.799 -4.21559 -0.507229 0
M  V30 6708 O 628.823 -3.54394 -0.358252 0
M  V30 6709 O 627.682 -5.40626 -0.799094 0
M  V30 6710 H 624.776 -0.812157 -0.15598 0
M  V30 6711 H 627.322 -1.63809 0.443237 0
M  V30 6712 H 626.094 -3.8503 0.697669 0
M  V30 6713 H 625.717 -3.84364 -1.01733 0
M  V30 6714 N 626.714 -0.118576 -1.57153 0
M  V30 6715 C 628.13 0.238014 -1.57815 0
M  V30 6716 C 628.33 1.66747 -1.13127 0
M  V30 6717 O 627.386 2.38867 -0.818462 0
M  V30 6718 C 628.699 0.00508207 -3.007 0
M  V30 6719 C 630.247 0.0710139 -3.12919 0
M  V30 6720 C 630.722 -0.13422 -4.57803 0
M  V30 6721 N 632.213 -0.0801755 -4.63131 0
M  V30 6722 C 632.948 -0.213885 -5.73001 0
M  V30 6723 N 632.444 -0.403742 -6.91623 0
M  V30 6724 N 634.237 -0.15349 -5.6189 0
M  V30 6725 H 626.388 -1.05226 -1.84503 0
M  V30 6726 H 628.651 -0.414318 -0.852669 0
M  V30 6727 H 628.357 -0.983125 -3.3768 0
M  V30 6728 H 628.231 0.73714 -3.69927 0
M  V30 6729 H 630.618 1.04975 -2.75798 0
M  V30 6730 H 630.699 -0.692918 -2.46236 0
M  V30 6731 H 630.343 -1.10992 -4.95624 0
M  V30 6732 H 630.273 0.649692 -5.22577 0
M  V30 6733 H 632.764 0.0630689 -3.77847 0
M  V30 6734 H 633.077 -0.496645 -7.71202 0
M  V30 6735 H 631.422 -0.43971 -6.93608 0
M  V30 6736 H 634.613 -0.00613174 -4.681 0
M  V30 6737 H 634.786 -0.261138 -6.47474 0
M  V30 6738 N 628.193 1.56834 0.155195 0
M  V30 6739 C 629.604 1.72421 0.716082 0
M  V30 6740 C 629.955 0.731685 1.82046 0
M  V30 6741 O 629.08 -0.103481 2.16152 0
M  V30 6742 C 629.675 3.12629 1.30571 0
M  V30 6743 C 628.234 3.29846 1.81325 0
M  V30 6744 C 627.381 2.68359 0.698494 0
M  V30 6745 H 630.332 1.58544 -0.0703861 0
M  V30 6746 H 630.353 3.12174 2.1755 0
M  V30 6747 H 629.865 3.84844 0.501701 0
M  V30 6748 H 627.966 2.62614 2.64319 0
M  V30 6749 H 628.079 4.37727 1.9476 0
M  V30 6750 H 626.443 2.28604 1.12305 0
M  V30 6751 H 627.226 3.43171 -0.0939366 0
M  V30 6752 N 629.671 -0.424282 1.51781 0
M  V30 6753 C 630.919 -1.17028 1.64769 0
M  V30 6754 C 631.24 -1.91409 0.372523 0
M  V30 6755 O 630.51 -1.86091 -0.612108 0
M  V30 6756 H 629.09 -0.434992 0.607282 0
M  V30 6757 H 631.752 -0.485169 1.88765 0
M  V30 6758 H 630.848 -1.8927 2.4816 0
M  V30 6759 N 631.149 -1.42148 -0.680565 0
M  V30 6760 C 632.079 -1.4796 -1.80638 0
M  V30 6761 C 633.06 -0.336728 -1.66734 0
M  V30 6762 O 634.245 -0.550247 -1.86242 0
M  V30 6763 C 631.375 -1.37569 -3.18892 0
M  V30 6764 C 630.329 -2.49823 -3.47524 0
M  V30 6765 C 629.655 -2.24491 -4.85291 0
M  V30 6766 C 630.955 -3.92144 -3.44994 0
M  V30 6767 H 632.649 -2.42184 -1.76032 0
M  V30 6768 H 630.195 -1.16566 -0.845481 0
M  V30 6769 H 632.148 -1.40243 -3.97379 0
M  V30 6770 H 630.872 -0.398357 -3.24162 0
M  V30 6771 H 629.531 -2.46455 -2.71395 0
M  V30 6772 H 629.179 -1.25066 -4.87204 0
M  V30 6773 H 628.879 -2.99722 -5.05411 0
M  V30 6774 H 630.403 -2.28906 -5.66069 0
M  V30 6775 H 631.817 -3.97145 -4.13459 0
M  V30 6776 H 630.214 -4.67179 -3.76648 0
M  V30 6777 H 631.284 -4.19225 -2.43676 0
M  V30 6778 N 632.627 0.916307 -1.28225 0
M  V30 6779 C 633.557 2.0352 -1.14464 0
M  V30 6780 C 634.538 1.70045 -0.0430844 0
M  V30 6781 O 635.723 1.92954 -0.219619 0
M  V30 6782 C 632.853 3.37889 -0.803027 0
M  V30 6783 C 631.807 3.85516 -1.85908 0
M  V30 6784 C 631.133 5.1682 -1.37116 0
M  V30 6785 C 632.433 4.07655 -3.26519 0
M  V30 6786 H 634.127 2.1529 -2.08064 0
M  V30 6787 H 631.673 1.03446 -1.00174 0
M  V30 6788 H 633.626 4.15654 -0.693537 0
M  V30 6789 H 632.35 3.26164 0.168674 0
M  V30 6790 H 631.009 3.09953 -1.95767 0
M  V30 6791 H 630.657 5.01497 -0.38859 0
M  V30 6792 H 630.357 5.49657 -2.07728 0
M  V30 6793 H 631.881 5.97143 -1.27484 0
M  V30 6794 H 633.295 4.75953 -3.19596 0
M  V30 6795 H 631.692 4.51818 -3.94943 0
M  V30 6796 H 632.762 3.12553 -3.70727 0
M  V30 6797 N 634.105 1.10431 1.1244 0
M  V30 6798 C 635.053 0.747974 2.20246 0
M  V30 6799 C 636.047 -0.255848 1.67457 0
M  V30 6800 O 637.253 -0.116221 1.79624 0
M  V30 6801 H 633.628 0.223946 0.71788 0
M  V30 6802 H 635.599 1.6661 2.47556 0
M  V30 6803 C 634.348 0.195957 3.47147 0
M  V30 6804 H 633.671 0.959606 3.88113 0
M  V30 6805 H 635.111 -0.0153154 4.23997 0
M  V30 6806 C 633.57 -1.07132 3.19413 0
M  V30 6807 O 634.1 -2.15284 3.3914 0
M  V30 6808 N 632.306 -0.98994 2.73219 0
M  V30 6809 H 631.853 -0.109736 2.57366 0
M  V30 6810 H 631.811 -1.83856 2.55038 0
M  V30 6811 N 635.583 -1.29855 0.893053 0
M  V30 6812 C 636.829 -1.96116 0.516349 0
M  V30 6813 C 637.162 -1.70281 -0.933695 0
M  V30 6814 O 636.437 -1.01205 -1.66096 0
M  V30 6815 C 636.72 -3.51068 0.801455 0
M  V30 6816 C 636.573 -3.86387 2.30272 0
M  V30 6817 C 637.892 -4.39186 0.283423 0
M  V30 6818 H 635.011 -0.712335 0.189072 0
M  V30 6819 H 637.653 -1.53587 1.11852 0
M  V30 6820 H 635.803 -3.87424 0.288949 0
M  V30 6821 H 637.475 -3.60012 2.88425 0
M  V30 6822 H 635.718 -3.34167 2.76613 0
M  V30 6823 H 636.389 -4.94512 2.45279 0
M  V30 6824 H 638.865 -4.09785 0.722187 0
M  V30 6825 H 637.741 -5.46505 0.512169 0
M  V30 6826 H 638.002 -4.34511 -0.815643 0
M  V30 6827 N 637.061 -0.65484 -1.43351 0
M  V30 6828 C 638.008 0.0357713 -2.30772 0
M  V30 6829 C 638.978 0.813035 -1.44841 0
M  V30 6830 O 640.163 0.789314 -1.73708 0
M  V30 6831 C 637.303 0.995084 -3.30442 0
M  V30 6832 C 636.416 0.21375 -4.31471 0
M  V30 6833 C 635.551 1.16701 -5.18222 0
M  V30 6834 C 634.59 0.376201 -6.10943 0
M  V30 6835 N 633.727 1.28113 -6.90313 0
M  V30 6836 H 638.567 -0.71559 -2.89281 0
M  V30 6837 H 636.104 -0.364645 -1.42509 0
M  V30 6838 H 638.062 1.5649 -3.86739 0
M  V30 6839 H 636.692 1.7133 -2.7358 0
M  V30 6840 H 635.744 -0.472377 -3.77456 0
M  V30 6841 H 637.056 -0.401103 -4.97185 0
M  V30 6842 H 636.21 1.8074 -5.79153 0
M  V30 6843 H 634.949 1.81577 -4.52638 0
M  V30 6844 H 633.954 -0.277534 -5.49099 0
M  V30 6845 H 635.179 -0.268178 -6.7857 0
M  V30 6846 H 633.125 1.91666 -6.27376 0
M  V30 6847 H 633.042 0.720879 -7.52555 0
M  V30 6848 H 634.31 1.90962 -7.55747 0
M  V30 6849 N 638.539 1.52521 -0.396863 0
M  V30 6850 C 639.95 1.86547 0.0754868 0
M  V30 6851 C 640.301 1.31621 1.45501 0
M  V30 6852 O 639.426 0.650563 2.0639 0
M  V30 6853 C 640.021 3.38495 0.143754 0
M  V30 6854 C 638.58 3.72205 0.560413 0
M  V30 6855 C 637.727 2.75954 -0.272856 0
M  V30 6856 H 640.678 1.46323 -0.614434 0
M  V30 6857 H 640.699 3.68153 0.961425 0
M  V30 6858 H 640.211 3.78442 -0.860415 0
M  V30 6859 H 638.312 3.3783 1.57167 0
M  V30 6860 H 638.425 4.78074 0.313314 0
M  V30 6861 H 636.789 2.53339 0.263 0
M  V30 6862 H 637.572 3.1874 -1.27515 0
M  V30 6863 N 640.017 0.126909 1.57088 0
M  V30 6864 C 641.266 -0.529024 1.94639 0
M  V30 6865 C 641.579 -1.67323 1.01304 0
M  V30 6866 O 642.785 -2.39245 1.28352 0
M  V30 6867 C 641.241 -0.992483 3.45945 0
M  V30 6868 C 640.849 0.123691 4.47829 0
M  V30 6869 C 642.593 -1.61934 3.924 0
M  V30 6870 C 640.5 -0.356911 5.90322 0
M  V30 6871 H 639.43 -0.201397 0.726605 0
M  V30 6872 H 642.081 0.208032 1.82317 0
M  V30 6873 H 640.463 -1.7842 3.53528 0
M  V30 6874 H 641.637 0.900168 4.51922 0
M  V30 6875 H 639.952 0.657699 4.11173 0
M  V30 6876 H 642.549 -1.9902 4.96281 0
M  V30 6877 H 642.892 -2.50075 3.32819 0
M  V30 6878 H 643.425 -0.892894 3.8765 0
M  V30 6879 H 640.164 0.488636 6.53676 0
M  V30 6880 H 639.684 -1.0997 5.89633 0
M  V30 6881 H 641.363 -0.815547 6.41839 0
M  V30 6882 N 641.495 -1.56914 -0.146875 0
M  V30 6883 C 642.405 -2.0154 -1.20079 0
M  V30 6884 C 643.421 -0.930838 -1.47008 0
M  V30 6885 O 644.597 -1.24032 -1.58676 0
M  V30 6886 C 641.662 -2.38715 -2.51428 0
M  V30 6887 C 640.723 -3.6112 -2.32145 0
M  V30 6888 C 639.956 -3.96512 -3.57231 0
M  V30 6889 O 640.179 -3.32566 -4.63418 0
M  V30 6890 O 639.113 -4.89758 -3.49887 0
M  V30 6891 H 642.939 -2.91506 -0.851924 0
M  V30 6892 H 640.524 -1.45106 -0.355607 0
M  V30 6893 H 642.406 -2.63485 -3.28867 0
M  V30 6894 H 641.081 -1.51903 -2.85845 0
M  V30 6895 H 639.988 -3.41536 -1.52656 0
M  V30 6896 H 641.321 -4.48549 -2.02644 0
M  V30 6897 N 642.974 0.416227 -1.52004 0
M  V30 6898 C 644.251 1.17637 -1.56272 0
M  V30 6899 C 644.631 2.08352 -0.339493 0
M  V30 6900 O 643.979 2.1833 0.674124 0
M  V30 6901 C 644.189 1.95986 -2.88774 0
M  V30 6902 C 645.537 2.52299 -3.41512 0
M  V30 6903 O 646.561 2.06174 -2.90467 0
M  V30 6904 O 645.42 3.3648 -4.30631 0
M  V30 6905 H 642.514 0.536726 -0.629169 0
M  V30 6906 H 645.06 0.423583 -1.64329 0
M  V30 6907 H 643.832 1.29487 -3.69254 0
M  V30 6908 H 643.455 2.78285 -2.83978 0
M  V30 6909 N 644.452 1.42507 0.673017 0
M  V30 6910 C 645.701 1.42364 1.42883 0
M  V30 6911 C 646.014 0.0441598 1.9555 0
M  V30 6912 O 647.22 -0.0798679 2.71382 0
M  V30 6913 C 645.676 2.5043 2.58482 0
M  V30 6914 C 645.284 3.94392 2.12506 0
M  V30 6915 C 647.028 2.59455 3.35981 0
M  V30 6916 C 644.935 4.93964 3.25198 0
M  V30 6917 H 643.865 0.52951 0.536782 0
M  V30 6918 H 646.516 1.68422 0.728448 0
M  V30 6919 H 644.898 2.1754 3.30896 0
M  V30 6920 H 646.072 4.36645 1.47233 0
M  V30 6921 H 644.387 3.89233 1.4794 0
M  V30 6922 H 646.984 3.31025 4.19912 0
M  V30 6923 H 647.327 1.63869 3.82691 0
M  V30 6924 H 647.86 2.91549 2.70637 0
M  V30 6925 H 644.599 5.91034 2.83477 0
M  V30 6926 H 644.119 4.56341 3.89247 0
M  V30 6927 H 645.798 5.15763 3.90637 0
M  V30 6928 N 645.93 -0.909495 1.28709 0
M  V30 6929 C 646.862 -2.01729 1.08804 0
M  V30 6930 C 647.875 -1.62755 0.0384739 0
M  V30 6931 O 649.064 -1.76259 0.281977 0
M  V30 6932 C 646.164 -3.32952 0.63217 0
M  V30 6933 C 645.337 -4.00512 1.75809 0
M  V30 6934 C 644.396 -5.10019 1.29488 0
M  V30 6935 O 643.422 -5.32986 1.99787 0
M  V30 6936 N 644.624 -5.80278 0.1604 0
M  V30 6937 H 647.389 -2.19362 2.04207 0
M  V30 6938 H 644.95 -1.08106 1.20518 0
M  V30 6939 H 646.942 -4.03543 0.305802 0
M  V30 6940 H 645.512 -3.11759 -0.229134 0
M  V30 6941 H 644.732 -3.23413 2.25383 0
M  V30 6942 H 646.02 -4.42395 2.51325 0
M  V30 6943 H 645.418 -5.64094 -0.425937 0
M  V30 6944 H 643.975 -6.51713 -0.106663 0
M  V30 6945 N 647.408 -1.11026 -1.11852 0
M  V30 6946 C 648.685 -0.768347 -1.79877 0
M  V30 6947 C 649.065 0.744261 -1.97545 0
M  V30 6948 O 648.413 1.67271 -1.55669 0
M  V30 6949 C 648.623 -1.52648 -3.13846 0
M  V30 6950 C 649.971 -1.70297 -3.88953 0
M  V30 6951 O 650.995 -1.49037 -3.23522 0
M  V30 6952 O 649.854 -2.05593 -5.06353 0
M  V30 6953 H 646.948 -0.277891 -0.778913 0
M  V30 6954 H 649.494 -1.21343 -1.18633 0
M  V30 6955 H 648.266 -2.55564 -2.96315 0
M  V30 6956 H 647.889 -1.07466 -3.82801 0
M  V30 6957 N 648.886 1.2938 -0.899927 0
M  V30 6958 C 649.834 2.29675 -0.367698 0
M  V30 6959 C 650.828 1.60787 0.533282 0
M  V30 6960 O 652.034 1.75126 0.416058 0
M  V30 6961 H 648.409 0.745284 -0.100279 0
M  V30 6962 H 650.38 2.72008 -1.22696 0
M  V30 6963 C 649.129 3.45512 0.389483 0
M  V30 6964 H 648.452 3.98713 -0.294575 0
M  V30 6965 H 649.892 4.17725 0.726744 0
M  V30 6966 C 648.351 2.969 1.59223 0
M  V30 6967 O 648.881 2.98195 2.69152 0
M  V30 6968 N 647.087 2.52728 1.43447 0
M  V30 6969 H 646.634 2.51873 0.540148 0
M  V30 6970 H 646.592 2.20561 2.24054 0
M  V30 6971 N 650.364 0.662433 1.43002 0
M  V30 6972 C 651.294 -0.00979809 2.33498 0
M  V30 6973 C 652.275 -0.802329 1.49989 0
M  V30 6974 O 653.46 -0.761964 1.78627 0
M  V30 6975 C 650.59 -0.970446 3.33466 0
M  V30 6976 C 649.544 -0.287383 4.27034 0
M  V30 6977 C 648.87 -1.36012 5.17112 0
M  V30 6978 C 650.17 0.82595 5.15728 0
M  V30 6979 H 651.864 0.745959 2.89958 0
M  V30 6980 H 649.41 0.360172 1.39423 0
M  V30 6981 H 651.363 -1.44971 3.95679 0
M  V30 6982 H 650.087 -1.75748 2.75282 0
M  V30 6983 H 648.746 0.17152 3.66199 0
M  V30 6984 H 648.394 -2.13882 4.55262 0
M  V30 6985 H 648.094 -0.908276 5.80538 0
M  V30 6986 H 649.618 -1.84056 5.82199 0
M  V30 6987 H 651.032 0.42845 5.71697 0
M  V30 6988 H 649.429 1.20282 5.87922 0
M  V30 6989 H 650.499 1.68003 4.54866 0
M  V30 6990 N 651.842 -1.52309 0.404946 0
M  V30 6991 C 652.772 -2.29805 -0.41376 0
M  V30 6992 C 653.753 -1.3384 -1.0498 0
M  V30 6993 O 654.938 -1.62745 -1.05961 0
M  V30 6994 C 652.068 -3.11639 -1.53292 0
M  V30 6995 C 651.022 -4.15616 -1.02211 0
M  V30 6996 C 650.348 -4.8577 -2.23455 0
M  V30 6997 C 651.648 -5.2224 -0.0790725 0
M  V30 6998 H 653.342 -2.98493 0.232878 0
M  V30 6999 H 650.888 -1.43552 0.113441 0
M  V30 7000 H 652.841 -3.64618 -2.11262 0
M  V30 7001 H 651.565 -2.40712 -2.20738 0
M  V30 7002 H 650.224 -3.63641 -0.46484 0
M  V30 7003 H 649.872 -4.11376 -2.89445 0
M  V30 7004 H 649.572 -5.56058 -1.89929 0
M  V30 7005 H 651.096 -5.4156 -2.82038 0
M  V30 7006 H 652.51 -5.70485 -0.567438 0
M  V30 7007 H 650.907 -5.99867 0.167167 0
M  V30 7008 H 651.977 -4.77078 0.867447 0
M  V30 7009 N 653.32 -0.135238 -1.57019 0
M  V30 7010 C 654.252 0.839675 -2.13265 0
M  V30 7011 C 655.265 1.21887 -1.07923 0
M  V30 7012 O 656.454 1.16499 -1.35241 0
M  V30 7013 C 653.554 2.13647 -2.63075 0
M  V30 7014 C 652.727 1.92646 -3.92691 0
M  V30 7015 C 651.786 3.06205 -4.27931 0
M  V30 7016 O 650.812 2.78409 -4.96465 0
M  V30 7017 N 652.014 4.33072 -3.86561 0
M  V30 7018 H 654.779 0.359026 -2.97542 0
M  V30 7019 H 652.34 0.0486979 -1.61827 0
M  V30 7020 H 654.332 2.88641 -2.8367 0
M  V30 7021 H 652.902 2.5301 -1.83588 0
M  V30 7022 H 652.122 1.01754 -3.80841 0
M  V30 7023 H 653.41 1.75939 -4.77413 0
M  V30 7024 H 652.808 4.58526 -3.31316 0
M  V30 7025 H 651.365 5.04885 -4.12231 0
M  V30 7026 N 654.798 1.5699 0.138552 0
M  V30 7027 C 655.761 1.97984 1.15478 0
M  V30 7028 C 656.761 0.867416 1.35398 0
M  V30 7029 O 657.951 1.13387 1.32246 0
M  V30 7030 C 655.083 2.3031 2.51337 0
M  V30 7031 H 656.276 2.88953 0.802896 0
M  V30 7032 H 653.829 1.51555 0.382189 0
M  V30 7033 H 654.564 1.42159 2.91481 0
M  V30 7034 H 654.349 3.11425 2.38237 0
M  V30 7035 H 655.839 2.62834 3.24512 0
M  V30 7036 N 656.276 -0.40816 1.52223 0
M  V30 7037 C 657.206 -1.5042 1.78595 0
M  V30 7038 C 658.187 -1.57723 0.636974 0
M  V30 7039 O 659.372 -1.72982 0.882664 0
M  V30 7040 C 656.502 -2.88232 1.93751 0
M  V30 7041 C 655.456 -2.95779 3.09352 0
M  V30 7042 C 654.782 -4.35855 3.09732 0
M  V30 7043 C 656.082 -2.67175 4.48793 0
M  V30 7044 H 657.776 -1.28601 2.70374 0
M  V30 7045 H 655.322 -0.617221 1.30101 0
M  V30 7046 H 657.275 -3.64895 2.10783 0
M  V30 7047 H 655.999 -3.11347 0.986443 0
M  V30 7048 H 654.658 -2.21561 2.92072 0
M  V30 7049 H 654.306 -4.55981 2.12346 0
M  V30 7050 H 654.006 -4.41829 3.87377 0
M  V30 7051 H 655.53 -5.14451 3.28895 0
M  V30 7052 H 656.944 -3.3356 4.66273 0
M  V30 7053 H 655.341 -2.84523 5.28362 0
M  V30 7054 H 656.411 -1.62609 4.56822 0
M  V30 7055 N 657.755 -1.42862 -0.66545 0
M  V30 7056 C 658.665 -1.49491 -1.80803 0
M  V30 7057 C 659.681 -0.382914 -1.69734 0
M  V30 7058 O 660.857 -0.635223 -1.9112 0
M  V30 7059 C 657.922 -1.40383 -3.17007 0
M  V30 7060 C 656.983 -2.62152 -3.39963 0
M  V30 7061 C 656.216 -2.53469 -4.69669 0
M  V30 7062 O 656.439 -1.57568 -5.48205 0
M  V30 7063 O 655.373 -3.43763 -4.94075 0
M  V30 7064 H 659.199 -2.45949 -1.78165 0
M  V30 7065 H 656.784 -1.24728 -0.822387 0
M  V30 7066 H 658.666 -1.377 -3.98267 0
M  V30 7067 H 657.341 -0.470546 -3.20262 0
M  V30 7068 H 656.248 -2.70409 -2.58515 0
M  V30 7069 H 657.581 -3.54411 -3.41546 0
M  V30 7070 N 659.233 0.902656 -1.29189 0
M  V30 7071 C 660.163 2.02294 -1.16616 0
M  V30 7072 C 661.144 1.6999 -0.0611175 0
M  V30 7073 O 662.329 1.9271 -0.240072 0
M  V30 7074 C 659.459 3.37018 -0.83882 0
M  V30 7075 C 658.413 3.83522 -1.89986 0
M  V30 7076 C 657.739 5.15337 -1.42589 0
M  V30 7077 C 659.039 4.04169 -3.30824 0
M  V30 7078 H 660.733 2.13071 -2.10336 0
M  V30 7079 H 658.279 1.02378 -1.01266 0
M  V30 7080 H 660.232 4.14895 -0.737584 0
M  V30 7081 H 658.956 3.26325 0.134071 0
M  V30 7082 H 657.615 3.07859 -1.99043 0
M  V30 7083 H 657.263 5.01056 -0.441759 0
M  V30 7084 H 656.963 5.47423 -2.13547 0
M  V30 7085 H 658.487 5.95758 -1.3381 0
M  V30 7086 H 659.901 4.72537 -3.24626 0
M  V30 7087 H 658.298 4.47604 -3.99713 0
M  V30 7088 H 659.368 3.08604 -3.74021 0
M  V30 7089 N 660.711 1.11618 1.11262 0
M  V30 7090 C 661.643 0.734015 2.17129 0
M  V30 7091 C 662.656 -0.235243 1.61091 0
M  V30 7092 O 663.845 -0.0178597 1.78491 0
M  V30 7093 C 660.945 0.0643682 3.38839 0
M  V30 7094 C 660.118 1.06092 4.24339 0
M  V30 7095 C 659.177 0.420482 5.24517 0
M  V30 7096 O 658.203 1.07495 5.58957 0
M  V30 7097 N 659.405 -0.815828 5.74739 0
M  V30 7098 H 662.17 1.64492 2.50524 0
M  V30 7099 H 659.731 1.00664 1.26801 0
M  V30 7100 H 661.723 -0.375851 4.02951 0
M  V30 7101 H 660.293 -0.749147 3.03491 0
M  V30 7102 H 659.513 1.67903 3.56654 0
M  V30 7103 H 660.801 1.73507 4.78302 0
M  V30 7104 H 660.199 -1.36668 5.48943 0
M  V30 7105 H 658.756 -1.199 6.40677 0
M  V30 7106 N 662.189 -1.289 0.906776 0
M  V30 7107 C 663.119 -2.29932 0.406659 0
M  V30 7108 C 664.1 -1.6189 -0.522061 0
M  V30 7109 O 665.285 -1.8935 -0.431283 0
M  V30 7110 C 662.415 -3.45425 -0.360366 0
M  V30 7111 C 661.369 -4.25316 0.478574 0
M  V30 7112 C 660.695 -5.33076 -0.416373 0
M  V30 7113 C 661.995 -4.92739 1.7322 0
M  V30 7114 H 663.689 -2.72013 1.25097 0
M  V30 7115 H 661.235 -1.30768 0.602977 0
M  V30 7116 H 663.188 -4.15186 -0.721029 0
M  V30 7117 H 661.912 -3.02206 -1.23852 0
M  V30 7118 H 660.571 -3.57273 0.821662 0
M  V30 7119 H 660.219 -4.86101 -1.29287 0
M  V30 7120 H 659.919 -5.8743 0.141309 0
M  V30 7121 H 661.443 -6.05686 -0.773072 0
M  V30 7122 H 662.857 -5.54898 1.44086 0
M  V30 7123 H 661.254 -5.57057 2.23175 0
M  V30 7124 H 662.324 -4.17625 2.46408 0
M  V30 7125 N 663.667 -0.670007 -1.42649 0
M  V30 7126 C 664.614 0.0112928 -2.30797 0
M  V30 7127 C 665.584 0.797627 -1.45695 0
M  V30 7128 O 666.769 0.770845 -1.74535 0
M  V30 7129 C 663.909 0.95998 -3.31479 0
M  V30 7130 C 663.022 0.167975 -4.31673 0
M  V30 7131 C 662.157 1.11198 -5.19431 0
M  V30 7132 C 661.196 0.311381 -6.11307 0
M  V30 7133 N 660.333 1.20784 -6.91633 0
M  V30 7134 H 665.173 -0.746231 -2.88505 0
M  V30 7135 H 662.71 -0.379739 -1.42114 0
M  V30 7136 H 664.668 1.52379 -3.88377 0
M  V30 7137 H 663.298 1.68419 -2.75382 0
M  V30 7138 H 662.35 -0.512385 -3.76933 0
M  V30 7139 H 663.662 -0.453814 -4.96731 0
M  V30 7140 H 662.816 1.74587 -5.81037 0
M  V30 7141 H 661.555 1.76766 -4.54538 0
M  V30 7142 H 660.56 -0.335758 -5.48774 0
M  V30 7143 H 661.785 -0.340135 -6.78248 0
M  V30 7144 H 659.731 1.85001 -6.29373 0
M  V30 7145 H 659.648 0.64102 -7.53277 0
M  V30 7146 H 660.916 1.82936 -7.5773 0
M  V30 7147 N 665.145 1.52092 -0.413018 0
M  V30 7148 C 666.075 2.30021 0.401567 0
M  V30 7149 C 667.056 1.34395 1.04269 0
M  V30 7150 O 668.241 1.63304 1.05097 0
M  V30 7151 C 665.371 3.12447 1.51638 0
M  V30 7152 C 664.325 4.16153 1.00005 0
M  V30 7153 C 663.651 4.86948 2.20875 0
M  V30 7154 C 664.951 5.22275 0.0513757 0
M  V30 7155 H 666.645 2.98365 -0.248704 0
M  V30 7156 H 664.191 1.4349 -0.121052 0
M  V30 7157 H 666.144 3.65733 2.09326 0
M  V30 7158 H 664.868 2.41879 2.19458 0
M  V30 7159 H 663.527 3.63882 0.445549 0
M  V30 7160 H 663.175 4.12905 2.8726 0
M  V30 7161 H 662.875 5.57057 1.86978 0
M  V30 7162 H 664.399 5.43048 2.79162 0
M  V30 7163 H 665.813 5.70778 0.537176 0
M  V30 7164 H 664.21 5.9977 -0.198977 0
M  V30 7165 H 665.28 4.76611 -0.892736 0
M  V30 7166 N 666.623 0.143563 1.56945 0
M  V30 7167 C 667.571 -0.814556 2.17871 0
M  V30 7168 C 668.565 -1.25778 1.13474 0
M  V30 7169 O 669.771 -1.22666 1.31731 0
M  V30 7170 H 666.146 -0.280873 0.697578 0
M  V30 7171 H 668.117 -0.276459 2.97117 0
M  V30 7172 C 666.866 -2.04503 2.81201 0
M  V30 7173 H 666.189 -1.71296 3.61245 0
M  V30 7174 H 667.629 -2.69493 3.27337 0
M  V30 7175 C 666.088 -2.85079 1.79532 0
M  V30 7176 O 666.618 -3.81306 1.26368 0
M  V30 7177 N 664.824 -2.49546 1.48913 0
M  V30 7178 H 664.371 -1.71359 1.92338 0
M  V30 7179 H 664.329 -3.03751 0.811348 0
M  V30 7180 N 668.101 -1.57061 -0.130224 0
M  V30 7181 C 669.051 -1.95941 -1.16582 0
M  V30 7182 C 670.035 -0.832858 -1.37667 0
M  V30 7183 O 671.227 -1.09647 -1.38948 0
M  V30 7184 C 668.356 -2.35777 -2.49528 0
M  V30 7185 C 667.442 -3.5504 -2.31964 0
M  V30 7186 N 667.833 -4.71071 -1.84189 0
M  V30 7187 C 666.131 -3.60453 -2.62659 0
M  V30 7188 C 666.832 -5.53128 -1.80068 0
M  V30 7189 N 665.808 -4.95303 -2.24001 0
M  V30 7190 H 669.61 -2.83117 -0.788806 0
M  V30 7191 H 667.124 -1.58842 -0.3381 0
M  V30 7192 H 669.121 -2.61843 -3.24413 0
M  V30 7193 H 667.781 -1.49961 -2.87996 0
M  V30 7194 H 668.792 -4.94504 -1.53903 0
M  V30 7195 H 665.469 -2.85217 -3.0489 0
M  V30 7196 H 666.859 -6.56182 -1.4448 0
M  V30 7197 N 669.579 0.400081 -1.52437 0
M  V30 7198 C 670.99 0.97851 -1.59003 0
M  V30 7199 C 671.341 1.91293 -0.436068 0
M  V30 7200 O 670.466 2.1183 0.442365 0
M  V30 7201 C 671.061 1.78145 -2.88184 0
M  V30 7202 C 669.62 2.30976 -2.97199 0
M  V30 7203 C 668.767 1.11212 -2.54022 0
M  V30 7204 H 671.718 0.180002 -1.57676 0
M  V30 7205 H 671.739 2.63968 -2.74046 0
M  V30 7206 H 671.251 1.1011 -3.72152 0
M  V30 7207 H 669.352 3.02355 -2.17744 0
M  V30 7208 H 669.465 2.61221 -4.01622 0
M  V30 7209 H 667.829 1.46882 -2.08081 0
M  V30 7210 H 668.612 0.447307 -3.40373 0
M  V30 7211 N 671.057 1.43213 0.657864 0
M  V30 7212 C 671.967 1.50448 1.80007 0
M  V30 7213 C 672.983 0.39191 1.69529 0
M  V30 7214 O 674.159 0.645349 1.90781 0
M  V30 7215 C 671.224 1.42062 3.16258 0
M  V30 7216 C 670.285 2.63951 3.38568 0
M  V30 7217 C 669.518 2.55956 4.68318 0
M  V30 7218 O 669.741 1.60473 5.47361 0
M  V30 7219 O 668.675 3.46378 4.92245 0
M  V30 7220 H 672.501 2.4689 1.76858 0
M  V30 7221 H 670.086 1.25163 0.81576 0
M  V30 7222 H 671.968 1.3981 3.97531 0
M  V30 7223 H 670.643 0.487524 3.20008 0
M  V30 7224 H 669.55 2.71776 2.57077 0
M  V30 7225 H 670.883 3.56217 3.39662 0
M  V30 7226 N 672.536 -0.895792 1.29666 0
M  V30 7227 C 673.761 -1.68528 1.20885 0
M  V30 7228 C 674.186 -1.8673 -0.226595 0
M  V30 7229 O 673.544 -1.39044 -1.16347 0
M  V30 7230 C 673.592 -3.04512 1.93144 0
M  V30 7231 O 672.696 -3.92963 1.25115 0
M  V30 7232 H 672.037 -0.515371 0.418675 0
M  V30 7233 H 674.567 -1.11878 1.71302 0
M  V30 7234 H 674.577 -3.54628 2.0175 0
M  V30 7235 H 673.252 -2.90582 2.97548 0
M  V30 7236 H 671.829 -3.51399 1.24794 0
M  V30 7237 N 674.014 -1.12206 -1.10668 0
M  V30 7238 C 675.239 -0.898938 -1.86906 0
M  V30 7239 C 675.664 0.546346 -1.79991 0
M  V30 7240 O 675.022 1.38655 -1.1681 0
M  V30 7241 C 675.07 -1.37529 -3.33344 0
M  V30 7242 O 674.174 -0.55218 -4.08687 0
M  V30 7243 H 673.515 -0.323163 -0.580053 0
M  V30 7244 H 676.045 -1.49355 -1.39837 0
M  V30 7245 H 676.055 -1.3733 -3.84193 0
M  V30 7246 H 674.73 -2.42767 -3.37693 0
M  V30 7247 H 673.307 -0.620947 -3.67694 0
M  V30 7248 N 675.492 1.28418 -0.913599 0
M  V30 7249 C 676.424 2.26368 -0.359169 0
M  V30 7250 C 677.437 1.54858 0.502285 0
M  V30 7251 O 678.626 1.75659 0.31719 0
M  V30 7252 C 675.726 3.35112 0.50526 0
M  V30 7253 C 674.899 4.36126 -0.333648 0
M  V30 7254 C 673.958 5.24134 0.465845 0
M  V30 7255 O 672.984 5.6907 -0.121538 0
M  V30 7256 N 674.186 5.52892 1.76891 0
M  V30 7257 H 676.951 2.74579 -1.2011 0
M  V30 7258 H 674.512 1.41898 -0.779532 0
M  V30 7259 H 676.504 3.90926 1.04684 0
M  V30 7260 H 675.074 2.86611 1.2479 0
M  V30 7261 H 674.294 3.79776 -1.0566 0
M  V30 7262 H 675.582 5.00638 -0.907669 0
M  V30 7263 H 674.98 5.18217 2.26865 0
M  V30 7264 H 673.537 6.11464 2.25732 0
M  V30 7265 N 676.97 0.677563 1.42291 0
M  V30 7266 C 677.9 0.014968 2.33495 0
M  V30 7267 C 678.881 -0.786376 1.50831 0
M  V30 7268 O 680.066 -0.742975 1.79426 0
M  V30 7269 C 677.196 -0.935023 3.34477 0
M  V30 7270 C 676.15 -0.242074 4.27315 0
M  V30 7271 C 675.476 -1.30519 5.18526 0
M  V30 7272 C 676.776 0.880604 5.14823 0
M  V30 7273 H 678.47 0.776671 2.89151 0
M  V30 7274 H 676.016 0.37494 1.39033 0
M  V30 7275 H 677.969 -1.40766 3.97194 0
M  V30 7276 H 676.693 -1.72818 2.77131 0
M  V30 7277 H 675.352 0.210351 3.65996 0
M  V30 7278 H 675 -2.09041 4.57505 0
M  V30 7279 H 674.7 -0.846652 5.81468 0
M  V30 7280 H 676.224 -1.7787 5.84119 0
M  V30 7281 H 677.638 0.489062 5.7121 0
M  V30 7282 H 676.035 1.26511 5.86613 0
M  V30 7283 H 677.105 1.72818 4.53059 0
M  V30 7284 N 678.448 -1.51871 0.421078 0
M  V30 7285 C 679.695 -2.01938 -0.15079 0
M  V30 7286 C 680.023 -1.30611 -1.44121 0
M  V30 7287 O 679.278 -0.404631 -1.91471 0
M  V30 7288 C 679.577 -3.54764 -0.433292 0
M  V30 7289 C 679.243 -4.44288 0.76936 0
M  V30 7290 C 677.905 -4.68477 1.09921 0
M  V30 7291 C 680.257 -4.96915 1.57242 0
M  V30 7292 C 677.585 -5.4254 2.2331 0
M  V30 7293 C 679.937 -5.7222 2.69716 0
M  V30 7294 C 678.601 -5.94678 3.03174 0
M  V30 7295 H 677.871 -0.738943 -0.0551781 0
M  V30 7296 H 680.518 -1.82977 0.564945 0
M  V30 7297 H 678.823 -3.71968 -1.23074 0
M  V30 7298 H 680.52 -3.91023 -0.888922 0
M  V30 7299 H 677.11 -4.25646 0.502305 0
M  V30 7300 H 681.294 -4.78125 1.3308 0
M  V30 7301 H 676.55 -5.58146 2.49565 0
M  V30 7302 H 680.724 -6.11992 3.32323 0
M  V30 7303 H 678.351 -6.51848 3.9115 0
M  V30 7304 N 679.926 -0.151884 -1.56866 0
M  V30 7305 C 680.889 0.771861 -2.15812 0
M  V30 7306 C 681.889 1.17181 -1.10115 0
M  V30 7307 O 683.079 1.09194 -1.35729 0
M  V30 7308 C 680.211 2.04806 -2.7252 0
M  V30 7309 H 681.404 0.259021 -2.98779 0
M  V30 7310 H 678.957 0.097588 -1.55995 0
M  V30 7311 H 679.692 2.60445 -1.93233 0
M  V30 7312 H 679.477 1.77044 -3.49854 0
M  V30 7313 H 680.967 2.70771 -3.1792 0
M  V30 7314 N 681.404 1.57128 0.121893 0
M  V30 7315 C 682.351 2.0013 1.14964 0
M  V30 7316 C 683.321 0.872959 1.4131 0
M  V30 7317 O 684.506 1.13696 1.53225 0
M  V30 7318 C 681.646 2.40824 2.4718 0
M  V30 7319 C 680.759 3.67061 2.27794 0
M  V30 7320 C 679.894 3.96749 3.53219 0
M  V30 7321 C 678.933 5.16178 3.28978 0
M  V30 7322 N 678.07 5.41751 4.46599 0
M  V30 7323 H 682.91 2.8772 0.775947 0
M  V30 7324 H 680.447 1.42328 0.371652 0
M  V30 7325 H 682.405 2.62454 3.24305 0
M  V30 7326 H 681.035 1.56279 2.82448 0
M  V30 7327 H 680.087 3.53063 1.416 0
M  V30 7328 H 681.399 4.5434 2.05857 0
M  V30 7329 H 680.553 4.19012 4.38764 0
M  V30 7330 H 679.292 3.07941 3.78185 0
M  V30 7331 H 678.297 4.93762 2.41824 0
M  V30 7332 H 679.522 6.06561 3.05386 0
M  V30 7333 H 677.468 4.55899 4.71691 0
M  V30 7334 H 677.385 6.23347 4.27756 0
M  V30 7335 H 678.653 5.68531 5.33285 0
M  V30 7336 N 682.882 -0.391992 1.52647 0
M  V30 7337 C 683.812 -1.48517 1.8018 0
M  V30 7338 C 684.793 -1.57039 0.653667 0
M  V30 7339 O 685.978 -1.72036 0.900962 0
M  V30 7340 C 683.108 -2.86161 1.96797 0
M  V30 7341 C 682.062 -2.92481 3.12472 0
M  V30 7342 C 681.388 -4.32546 3.14338 0
M  V30 7343 C 682.688 -2.624 4.51601 0
M  V30 7344 H 684.382 -1.25726 2.71723 0
M  V30 7345 H 681.928 -0.603387 1.30749 0
M  V30 7346 H 683.881 -3.62639 2.14641 0
M  V30 7347 H 682.605 -3.10283 1.01941 0
M  V30 7348 H 681.264 -2.18451 2.94406 0
M  V30 7349 H 680.912 -4.53703 2.1717 0
M  V30 7350 H 680.612 -4.37695 3.92042 0
M  V30 7351 H 682.136 -5.10934 3.34333 0
M  V30 7352 H 683.55 -3.28596 4.69785 0
M  V30 7353 H 681.947 -2.78903 5.3135 0
M  V30 7354 H 683.017 -1.57754 4.58521 0
M  V30 7355 N 684.36 -1.4356 -0.65026 0
M  V30 7356 C 685.29 -1.51758 -1.77459 0
M  V30 7357 C 686.271 -0.372019 -1.65982 0
M  V30 7358 O 687.456 -0.589627 -1.85033 0
M  V30 7359 C 684.586 -1.44302 -3.15902 0
M  V30 7360 C 683.54 -2.57138 -3.42146 0
M  V30 7361 C 682.866 -2.34735 -4.8042 0
M  V30 7362 C 684.166 -3.99373 -3.36598 0
M  V30 7363 H 685.86 -2.45863 -1.70855 0
M  V30 7364 H 683.406 -1.18333 -0.820566 0
M  V30 7365 H 685.359 -1.48641 -3.94314 0
M  V30 7366 H 684.083 -0.467026 -3.23244 0
M  V30 7367 H 682.742 -2.52157 -2.66106 0
M  V30 7368 H 682.39 -1.35372 -4.84441 0
M  V30 7369 H 682.09 -3.10375 -4.9894 0
M  V30 7370 H 683.614 -2.40862 -5.61086 0
M  V30 7371 H 685.028 -4.05826 -4.04942 0
M  V30 7372 H 683.425 -4.75063 -3.66654 0
M  V30 7373 H 684.495 -4.243 -2.34729 0
M  V30 7374 N 685.838 0.888903 -1.30139 0
M  V30 7375 C 686.77 1.99972 -1.11999 0
M  V30 7376 C 687.783 1.62673 -0.0643619 0
M  V30 7377 O 688.972 1.75788 -0.309983 0
M  V30 7378 C 686.072 3.31904 -0.685059 0
M  V30 7379 C 685.245 3.97665 -1.82158 0
M  V30 7380 C 684.304 5.07894 -1.37585 0
M  V30 7381 O 683.33 5.2974 -2.08241 0
M  V30 7382 N 684.532 5.7995 -0.252697 0
M  V30 7383 H 687.297 2.16085 -2.07671 0
M  V30 7384 H 684.858 1.06175 -1.22223 0
M  V30 7385 H 686.85 4.03005 -0.369964 0
M  V30 7386 H 685.42 3.12084 0.179507 0
M  V30 7387 H 684.64 3.19787 -2.305 0
M  V30 7388 H 685.928 4.3834 -2.58332 0
M  V30 7389 H 685.326 5.647 0.336141 0
M  V30 7390 H 683.883 6.518 0.00296813 0
M  V30 7391 N 687.317 1.12792 1.10072 0
M  V30 7392 C 688.264 0.79921 2.16521 0
M  V30 7393 C 689.234 -0.235726 1.64419 0
M  V30 7394 O 690.419 -0.109457 1.90486 0
M  V30 7395 C 687.559 0.264091 3.44088 0
M  V30 7396 C 686.672 1.35729 4.10124 0
M  V30 7397 C 685.807 0.781212 5.25424 0
M  V30 7398 C 684.846 1.85327 5.8337 0
M  V30 7399 N 683.983 1.29564 6.90042 0
M  V30 7400 H 688.823 1.71105 2.43981 0
M  V30 7401 H 686.36 0.854225 1.19756 0
M  V30 7402 H 688.318 -0.0642423 4.17151 0
M  V30 7403 H 686.948 -0.610901 3.16967 0
M  V30 7404 H 686 1.80234 3.34993 0
M  V30 7405 H 687.312 2.16782 4.4923 0
M  V30 7406 H 686.466 0.403769 6.05355 0
M  V30 7407 H 685.205 -0.0604686 4.87663 0
M  V30 7408 H 684.21 2.23986 5.02106 0
M  V30 7409 H 685.435 2.69824 6.23195 0
M  V30 7410 H 683.381 0.475844 6.54272 0
M  V30 7411 H 683.298 2.04271 7.2788 0
M  V30 7412 H 684.566 0.945545 7.73744 0
M  V30 7413 N 688.795 -1.27931 0.920396 0
M  V30 7414 C 689.728 -2.2537 0.358285 0
M  V30 7415 C 690.706 -1.53328 -0.541242 0
M  V30 7416 O 691.89 -1.82196 -0.483399 0
M  V30 7417 C 689.017 -3.35178 -0.487193 0
M  V30 7418 C 688.063 -4.25079 0.347881 0
M  V30 7419 S 688.896 -5.05792 1.75883 0
M  V30 7420 C 690.052 -6.19089 0.920832 0
M  V30 7421 H 690.285 -2.72701 1.18413 0
M  V30 7422 H 687.818 -1.36474 0.722088 0
M  V30 7423 H 689.776 -3.98895 -0.96916 0
M  V30 7424 H 688.437 -2.865 -1.28749 0
M  V30 7425 H 687.63 -5.03113 -0.298912 0
M  V30 7426 H 687.232 -3.66119 0.763748 0
M  V30 7427 H 689.524 -6.77326 0.15349 0
M  V30 7428 H 690.467 -6.8803 1.67394 0
M  V30 7429 H 690.875 -5.62573 0.466069 0
M  V30 7430 N 690.273 -0.685099 -1.4193 0
M  V30 7431 C 691.501 -0.220372 -2.05723 0
M  V30 7432 C 691.916 1.12642 -1.51516 0
M  V30 7433 O 691.273 1.70182 -0.659114 0
M  V30 7434 C 691.324 -0.157974 -3.61155 0
M  V30 7435 O 691.045 -1.45156 -4.13354 0
M  V30 7436 C 692.546 0.329009 -4.42077 0
M  V30 7437 H 689.766 -0.104725 -0.662777 0
M  V30 7438 H 692.31 -0.934736 -1.81887 0
M  V30 7439 H 690.465 0.507144 -3.84066 0
M  V30 7440 H 690.879 -1.33172 -5.07312 0
M  V30 7441 H 692.353 0.321559 -5.51063 0
M  V30 7442 H 692.83 1.36608 -4.17414 0
M  V30 7443 H 693.436 -0.304737 -4.24207 0
M  V30 7444 N 691.751 1.51645 -0.429126 0
M  V30 7445 C 693.028 1.94579 0.199614 0
M  V30 7446 C 693.408 1.3673 1.60836 0
M  V30 7447 O 692.756 0.551062 2.21756 0
M  V30 7448 C 692.966 3.48506 0.185685 0
M  V30 7449 C 694.314 4.22756 0.395282 0
M  V30 7450 O 695.338 3.55219 0.264165 0
M  V30 7451 O 694.197 5.42555 0.655475 0
M  V30 7452 H 691.291 0.816007 0.134393 0
M  V30 7453 H 693.837 1.62577 -0.486513 0
M  V30 7454 H 692.609 3.83045 -0.799508 0
M  V30 7455 H 692.232 3.86927 0.91507 0
M  V30 7456 N 693.229 0.160201 1.56784 0
M  V30 7457 C 694.159 -0.770264 2.2043 0
M  V30 7458 C 695.14 -1.24736 1.15651 0
M  V30 7459 O 696.325 -1.30253 1.44041 0
M  V30 7460 C 693.455 -2.00427 2.83631 0
M  V30 7461 C 692.409 -1.66345 3.94352 0
M  V30 7462 C 691.735 -2.97119 4.4455 0
M  V30 7463 C 693.035 -0.899972 5.14488 0
M  V30 7464 H 694.729 -0.239783 2.98438 0
M  V30 7465 H 692.275 -0.113891 1.43549 0
M  V30 7466 H 694.228 -2.66012 3.26827 0
M  V30 7467 H 692.952 -2.5587 2.02973 0
M  V30 7468 H 691.611 -1.03133 3.51794 0
M  V30 7469 H 691.259 -3.5058 3.60698 0
M  V30 7470 H 690.959 -2.75073 5.19238 0
M  V30 7471 H 692.483 -3.63753 4.90425 0
M  V30 7472 H 693.897 -1.45818 5.54446 0
M  V30 7473 H 692.294 -0.778968 5.95023 0
M  V30 7474 H 693.364 0.105827 4.84785 0
M  V30 7475 N 694.707 -1.5719 -0.113559 0
M  V30 7476 C 696.123 -1.52607 -0.467253 0
M  V30 7477 C 696.323 -0.874058 -1.81556 0
M  V30 7478 O 695.379 -0.458703 -2.48299 0
M  V30 7479 C 696.692 -2.97363 -0.446736 0
M  V30 7480 C 698.24 -3.08482 -0.529903 0
M  V30 7481 C 698.715 -4.54809 -0.539721 0
M  V30 7482 N 700.206 -4.59284 -0.601005 0
M  V30 7483 C 700.941 -5.69927 -0.630138 0
M  V30 7484 N 700.437 -6.90051 -0.616589 0
M  V30 7485 N 702.23 -5.5805 -0.673558 0
M  V30 7486 H 694.381 -1.97958 0.769819 0
M  V30 7487 H 696.644 -0.90428 0.284572 0
M  V30 7488 H 696.35 -3.48458 0.47643 0
M  V30 7489 H 696.224 -3.55086 -1.27254 0
M  V30 7490 H 698.611 -2.57386 -1.44349 0
M  V30 7491 H 698.692 -2.53744 0.323695 0
M  V30 7492 H 698.336 -5.06552 0.369843 0
M  V30 7493 H 698.266 -5.07364 -1.41028 0
M  V30 7494 H 700.757 -3.72822 -0.617419 0
M  V30 7495 H 701.07 -7.70132 -0.641592 0
M  V30 7496 H 699.415 -6.92543 -0.583927 0
M  V30 7497 H 702.606 -4.63112 -0.681544 0
M  V30 7498 H 702.779 -6.44286 -0.692794 0
M  V30 7499 N 696.185 0.383891 -1.52853 0
M  V30 7500 C 697.117 1.48889 -1.74255 0
M  V30 7501 C 698.13 1.50405 -0.623063 0
M  V30 7502 O 699.319 1.54215 -0.898887 0
M  V30 7503 C 696.419 2.87721 -1.79081 0
M  V30 7504 C 695.592 3.10111 -3.08464 0
M  V30 7505 C 694.651 4.28954 -3.0477 0
M  V30 7506 O 693.677 4.25012 -3.78621 0
M  V30 7507 N 694.879 5.35411 -2.24311 0
M  V30 7508 H 697.644 1.30915 -2.69595 0
M  V30 7509 H 695.205 0.573454 -1.51404 0
M  V30 7510 H 697.197 3.65333 -1.7411 0
M  V30 7511 H 695.767 2.99029 -0.911052 0
M  V30 7512 H 694.987 2.20319 -3.26884 0
M  V30 7513 H 696.275 3.21928 -3.94005 0
M  V30 7514 H 695.673 5.41471 -1.63787 0
M  V30 7515 H 694.23 6.1167 -2.25175 0
M  V30 7516 N 697.663 1.43903 0.642637 0
M  V30 7517 C 698.912 1.45362 1.39831 0
M  V30 7518 C 699.225 0.0856289 1.95412 0
M  V30 7519 O 700.431 -0.0222856 2.71491 0
M  V30 7520 C 698.887 2.55857 2.53111 0
M  V30 7521 C 698.495 3.98811 2.04092 0
M  V30 7522 C 700.239 2.66524 3.30402 0
M  V30 7523 C 698.146 5.00751 3.14647 0
M  V30 7524 H 697.076 0.540777 0.52543 0
M  V30 7525 H 699.727 1.69929 0.692559 0
M  V30 7526 H 698.109 2.2451 3.26207 0
M  V30 7527 H 699.283 4.3967 1.37938 0
M  V30 7528 H 697.598 3.92284 1.39651 0
M  V30 7529 H 700.195 3.39858 4.12796 0
M  V30 7530 H 700.538 1.71949 3.79129 0
M  V30 7531 H 701.071 2.97224 2.64392 0
M  V30 7532 H 697.81 5.96914 2.70876 0
M  V30 7533 H 697.33 4.64495 3.79479 0
M  V30 7534 H 699.009 5.23933 3.79609 0
M  V30 7535 N 699.141 -0.881989 1.30609 0
M  V30 7536 C 700.387 -1.63647 1.19781 0
M  V30 7537 C 700.72 -1.92632 -0.246265 0
M  V30 7538 O 699.995 -1.54938 -1.17577 0
M  V30 7539 C 700.278 -2.97437 2.02985 0
M  V30 7540 C 700.131 -2.75406 3.55628 0
M  V30 7541 C 701.45 -3.98397 1.86997 0
M  V30 7542 H 698.569 -0.593841 0.436488 0
M  V30 7543 H 701.211 -1.02041 1.60273 0
M  V30 7544 H 699.361 -3.50018 1.68581 0
M  V30 7545 H 701.033 -2.2959 4.00107 0
M  V30 7546 H 699.276 -2.09856 3.79662 0
M  V30 7547 H 699.947 -3.70552 4.09139 0
M  V30 7548 H 702.423 -3.54986 2.17081 0
M  V30 7549 H 701.299 -4.89916 2.47536 0
M  V30 7550 H 701.56 -4.3424 0.829943 0
M  V30 7551 N 700.619 -1.13374 -1.09472 0
M  V30 7552 C 701.847 -0.918351 -1.85402 0
M  V30 7553 C 702.262 0.53281 -1.81126 0
M  V30 7554 O 701.619 1.36879 -1.20708 0
M  V30 7555 C 701.67 -1.39743 -3.33398 0
M  V30 7556 O 701.391 -2.79172 -3.37631 0
M  V30 7557 C 702.892 -1.22042 -4.2617 0
M  V30 7558 H 700.112 -0.327511 -0.585643 0
M  V30 7559 H 702.656 -1.50617 -1.38328 0
M  V30 7560 H 700.811 -0.852619 -3.77901 0
M  V30 7561 H 701.225 -3.00428 -4.29934 0
M  V30 7562 H 702.699 -1.60438 -5.2817 0
M  V30 7563 H 703.176 -0.162047 -4.38901 0
M  V30 7564 H 703.782 -1.75323 -3.87482 0
M  V30 7565 N 702.098 1.27442 -0.927168 0
M  V30 7566 C 703.008 2.30599 -0.431448 0
M  V30 7567 C 704.024 1.67028 0.48761 0
M  V30 7568 O 705.2 1.97962 0.370546 0
M  V30 7569 C 702.265 3.45327 0.308292 0
M  V30 7570 C 701.326 4.24418 -0.645615 0
M  V30 7571 C 700.559 5.33667 0.0589164 0
M  V30 7572 O 700.782 5.5589 1.27838 0
M  V30 7573 O 699.716 5.98774 -0.612638 0
M  V30 7574 H 703.542 2.75036 -1.28797 0
M  V30 7575 H 701.127 1.32382 -0.692495 0
M  V30 7576 H 703.009 4.15107 0.725555 0
M  V30 7577 H 701.684 3.02945 1.14043 0
M  V30 7578 H 700.591 3.57174 -1.11255 0
M  V30 7579 H 701.924 4.70512 -1.44496 0
M  V30 7580 N 703.576 0.692616 1.41565 0
M  V30 7581 C 704.526 0.00231847 2.28 0
M  V30 7582 C 705.51 -0.755793 1.42044 0
M  V30 7583 O 706.702 -0.631772 1.65341 0
M  V30 7584 C 703.831 -0.935468 3.30309 0
M  V30 7585 C 702.917 -0.173761 4.23744 0
M  V30 7586 N 703.308 0.830872 4.98929 0
M  V30 7587 C 701.606 -0.409666 4.44115 0
M  V30 7588 C 702.307 1.28656 5.67294 0
M  V30 7589 N 701.283 0.613053 5.40132 0
M  V30 7590 H 705.085 0.772635 2.83562 0
M  V30 7591 H 702.599 0.523198 1.53741 0
M  V30 7592 H 704.596 -1.44513 3.91052 0
M  V30 7593 H 703.256 -1.70542 2.76307 0
M  V30 7594 H 704.267 1.21101 5.03542 0
M  V30 7595 H 700.944 -1.15773 4.01127 0
M  V30 7596 H 702.334 2.12006 6.37576 0
M  V30 7597 N 705.054 -1.51416 0.437162 0
M  V30 7598 C 706.3 -2.02386 -0.129555 0
M  V30 7599 C 706.633 -1.32071 -1.42376 0
M  V30 7600 O 705.908 -0.43559 -1.8956 0
M  V30 7601 C 706.191 -3.5841 -0.348487 0
M  V30 7602 C 706.044 -4.39341 0.964352 0
M  V30 7603 C 707.363 -4.25654 -1.11834 0
M  V30 7604 H 704.482 -0.735587 -0.0456109 0
M  V30 7605 H 707.124 -1.81055 0.576124 0
M  V30 7606 H 705.274 -3.76716 -0.949592 0
M  V30 7607 H 706.946 -4.32685 1.59942 0
M  V30 7608 H 705.189 -4.04432 1.56898 0
M  V30 7609 H 705.86 -5.4667 0.765212 0
M  V30 7610 H 708.336 -4.11617 -0.609165 0
M  V30 7611 H 707.212 -5.34704 -1.24029 0
M  V30 7612 H 707.473 -3.86502 -2.14636 0
M  V30 7613 N 706.532 -0.168513 -1.56696 0
M  V30 7614 C 707.464 0.794249 -2.14998 0
M  V30 7615 C 708.477 1.1957 -1.10485 0
M  V30 7616 O 709.666 1.13604 -1.37682 0
M  V30 7617 C 706.766 2.08018 -2.67547 0
M  V30 7618 C 705.939 1.84274 -3.96689 0
M  V30 7619 C 704.998 2.97059 -4.3433 0
M  V30 7620 O 704.024 2.67815 -5.02259 0
M  V30 7621 N 705.226 4.24775 -3.9566 0
M  V30 7622 H 707.991 0.295832 -2.98236 0
M  V30 7623 H 705.552 0.0143611 -1.61894 0
M  V30 7624 H 707.544 2.82559 -2.89729 0
M  V30 7625 H 706.114 2.49059 -1.88914 0
M  V30 7626 H 705.334 0.936528 -3.82914 0
M  V30 7627 H 706.622 1.65773 -4.81037 0
M  V30 7628 H 706.02 4.51395 -3.40968 0
M  V30 7629 H 704.577 4.96027 -4.22848 0
M  V30 7630 N 708.01 1.57248 0.105221 0
M  V30 7631 C 708.94 2.04374 1.12931 0
M  V30 7632 C 709.921 0.93074 1.42377 0
M  V30 7633 O 711.106 1.20136 1.52581 0
M  V30 7634 C 708.236 2.45967 2.45189 0
M  V30 7635 C 707.19 3.60838 2.30174 0
M  V30 7636 C 706.516 3.88374 3.67518 0
M  V30 7637 C 707.816 4.92084 1.75073 0
M  V30 7638 H 709.51 2.9018 0.737287 0
M  V30 7639 H 707.056 1.39601 0.353211 0
M  V30 7640 H 709.009 2.77542 3.17094 0
M  V30 7641 H 707.733 1.57148 2.86308 0
M  V30 7642 H 706.392 3.29493 1.60716 0
M  V30 7643 H 706.04 2.96739 4.06147 0
M  V30 7644 H 705.74 4.65703 3.58321 0
M  V30 7645 H 707.264 4.22415 4.40906 0
M  V30 7646 H 708.678 5.22106 2.36809 0
M  V30 7647 H 707.075 5.73507 1.76662 0
M  V30 7648 H 708.145 4.79684 0.709347 0
M  V30 7649 N 709.488 -0.375779 1.53054 0
M  V30 7650 C 710.418 -1.46598 1.81745 0
M  V30 7651 C 711.399 -1.56337 0.670286 0
M  V30 7652 O 712.584 -1.71071 0.919158 0
M  V30 7653 C 709.714 -2.84058 1.99821 0
M  V30 7654 C 708.668 -2.8915 3.15557 0
M  V30 7655 C 707.994 -4.29187 3.18908 0
M  V30 7656 C 709.294 -2.57595 4.54359 0
M  V30 7657 H 710.988 -1.22837 2.73041 0
M  V30 7658 H 708.534 -0.589485 1.31381 0
M  V30 7659 H 710.487 -3.60342 2.18475 0
M  V30 7660 H 709.211 -3.09184 1.05226 0
M  V30 7661 H 707.87 -2.15316 2.96706 0
M  V30 7662 H 707.518 -4.51374 2.2197 0
M  V30 7663 H 707.218 -4.33512 3.96662 0
M  V30 7664 H 708.742 -5.07359 3.39734 0
M  V30 7665 H 710.156 -3.23595 4.73243 0
M  V30 7666 H 708.553 -2.73252 5.34279 0
M  V30 7667 H 709.623 -1.52882 4.60169 0
M  V30 7668 N 710.966 -1.44241 -0.634997 0
M  V30 7669 C 711.898 -1.46793 -1.76024 0
M  V30 7670 C 712.911 -0.361781 -1.58729 0
M  V30 7671 O 714.1 -0.627297 -1.67114 0
M  V30 7672 C 711.2 -1.28248 -3.13697 0
M  V30 7673 C 710.373 -2.52038 -3.57485 0
M  V30 7674 C 709.432 -2.2845 -4.74022 0
M  V30 7675 O 708.458 -3.01915 -4.82531 0
M  V30 7676 N 709.66 -1.31264 -5.65464 0
M  V30 7677 H 712.425 -2.43797 -1.74307 0
M  V30 7678 H 709.986 -1.39631 -0.819438 0
M  V30 7679 H 711.978 -1.10321 -3.89373 0
M  V30 7680 H 710.548 -0.39623 -3.10079 0
M  V30 7681 H 709.768 -2.85268 -2.72059 0
M  V30 7682 H 711.056 -3.34382 -3.83492 0
M  V30 7683 H 710.454 -0.705817 -5.6128 0
M  V30 7684 H 709.011 -1.19316 -6.40786 0
M  V30 7685 N 712.444 0.87505 -1.31075 0
M  V30 7686 C 713.69 1.63009 -1.20647 0
M  V30 7687 C 714.023 1.9276 0.236045 0
M  V30 7688 O 713.298 1.55559 1.16754 0
M  V30 7689 C 713.581 2.96357 -2.0456 0
M  V30 7690 C 713.434 2.73516 -3.57084 0
M  V30 7691 C 714.753 3.974 -1.89107 0
M  V30 7692 H 711.872 0.591518 -0.439631 0
M  V30 7693 H 714.514 1.0119 -1.60812 0
M  V30 7694 H 712.664 3.49119 -1.70435 0
M  V30 7695 H 714.336 2.27465 -4.01319 0
M  V30 7696 H 712.579 2.0784 -3.80769 0
M  V30 7697 H 713.25 3.68377 -4.11099 0
M  V30 7698 H 715.726 3.5383 -2.18961 0
M  V30 7699 H 714.602 4.88596 -2.5013 0
M  V30 7700 H 714.863 4.33794 -0.85296 0
M  V30 7701 N 713.922 1.13953 1.08869 0
M  V30 7702 C 715.171 0.899431 1.80536 0
M  V30 7703 C 715.484 -0.575781 1.86933 0
M  V30 7704 O 716.69 -0.932988 2.54966 0
M  V30 7705 C 715.146 1.55963 3.24351 0
M  V30 7706 C 714.754 3.07077 3.26202 0
M  V30 7707 C 716.498 1.40046 4.00733 0
M  V30 7708 C 714.405 3.65955 4.64576 0
M  V30 7709 H 713.335 0.332849 0.676556 0
M  V30 7710 H 715.986 1.3679 1.22314 0
M  V30 7711 H 714.368 1.01883 3.82669 0
M  V30 7712 H 715.542 3.67785 2.77617 0
M  V30 7713 H 713.857 3.22576 2.63312 0
M  V30 7714 H 716.454 1.81441 5.02974 0
M  V30 7715 H 716.797 0.345993 4.1486 0
M  V30 7716 H 717.33 1.91137 3.48872 0
M  V30 7717 H 714.069 4.71234 4.55652 0
M  V30 7718 H 713.589 3.10027 5.13462 0
M  V30 7719 H 715.268 3.65968 5.33551 0
M  V30 7720 N 715.4 -1.26948 0.933913 0
M  V30 7721 C 716.347 -2.26635 0.436484 0
M  V30 7722 C 717.317 -1.58397 -0.499953 0
M  V30 7723 O 718.502 -1.86171 -0.417753 0
M  V30 7724 C 715.642 -3.43803 -0.298951 0
M  V30 7725 C 714.755 -4.26736 0.672316 0
M  V30 7726 C 713.89 -5.31134 -0.0835872 0
M  V30 7727 C 712.929 -6.05742 0.879979 0
M  V30 7728 N 712.066 -7.01926 0.156301 0
M  V30 7729 H 716.906 -2.68558 1.29154 0
M  V30 7730 H 714.443 -1.32052 0.648118 0
M  V30 7731 H 716.401 -4.10554 -0.741723 0
M  V30 7732 H 715.031 -3.02814 -1.1182 0
M  V30 7733 H 714.083 -3.59842 1.23361 0
M  V30 7734 H 715.395 -4.78502 1.40846 0
M  V30 7735 H 714.549 -6.03863 -0.585984 0
M  V30 7736 H 713.288 -4.80188 -0.852661 0
M  V30 7737 H 712.293 -5.31846 1.39357 0
M  V30 7738 H 713.518 -6.58777 1.64894 0
M  V30 7739 H 711.464 -6.53301 -0.594413 0
M  V30 7740 H 711.381 -7.51409 0.831906 0
M  V30 7741 H 712.649 -7.78821 -0.325239 0
M  V30 7742 N 716.879 -0.700114 -1.41195 0
M  V30 7743 C 717.826 -0.0376652 -2.30769 0
M  V30 7744 C 718.796 0.766544 -1.47354 0
M  V30 7745 O 719.981 0.73365 -1.76131 0
M  V30 7746 C 717.121 0.889452 -3.33441 0
M  V30 7747 C 716.234 0.076373 -4.31932 0
M  V30 7748 C 715.369 1.00155 -5.21673 0
M  V30 7749 C 714.408 0.181644 -6.1183 0
M  V30 7750 N 713.545 1.06087 -6.94039 0
M  V30 7751 H 718.385 -0.80726 -2.86858 0
M  V30 7752 H 715.922 -0.409798 -1.41277 0
M  V30 7753 H 717.88 1.44107 -3.91522 0
M  V30 7754 H 716.51 1.6254 -2.78892 0
M  V30 7755 H 715.562 -0.592223 -3.75762 0
M  V30 7756 H 716.874 -0.559076 -4.95657 0
M  V30 7757 H 716.028 1.62223 -5.8461 0
M  V30 7758 H 714.767 1.67085 -4.58186 0
M  V30 7759 H 713.772 -0.452085 -5.47938 0
M  V30 7760 H 714.997 -0.483925 -6.77374 0
M  V30 7761 H 712.943 1.7161 -6.33156 0
M  V30 7762 H 712.86 0.481094 -7.54468 0
M  V30 7763 H 714.128 1.66822 -7.6144 0
M  V30 7764 N 718.357 1.51182 -0.445186 0
M  V30 7765 C 719.585 2.06568 0.117091 0
M  V30 7766 C 720 1.31182 1.35781 0
M  V30 7767 O 719.357 0.373605 1.78635 0
M  V30 7768 C 719.408 3.58917 0.431408 0
M  V30 7769 O 719.129 4.31456 -0.760078 0
M  V30 7770 C 720.63 4.30843 1.0435 0
M  V30 7771 H 717.85 0.670985 0.00444436 0
M  V30 7772 H 720.394 1.94666 -0.626525 0
M  V30 7773 H 718.549 3.70708 1.12493 0
M  V30 7774 H 718.963 5.22215 -0.489048 0
M  V30 7775 H 720.437 5.38499 1.21337 0
M  V30 7776 H 720.914 3.89644 2.02667 0
M  V30 7777 H 721.52 4.23516 0.38913 0
M  V30 7778 N 719.835 0.176821 1.56605 0
M  V30 7779 C 720.745 -0.763682 2.21822 0
M  V30 7780 C 721.761 -1.24889 1.21156 0
M  V30 7781 O 722.937 -1.29987 1.53836 0
M  V30 7782 C 720.002 -1.97352 2.8505 0
M  V30 7783 C 719.063 -1.53466 4.00932 0
M  V30 7784 C 718.296 -2.68682 4.61135 0
M  V30 7785 O 718.519 -3.85694 4.20234 0
M  V30 7786 O 717.453 -2.42442 5.50913 0
M  V30 7787 H 721.279 -0.238363 3.02763 0
M  V30 7788 H 718.864 -0.0516331 1.49311 0
M  V30 7789 H 720.746 -2.68096 3.25119 0
M  V30 7790 H 719.421 -2.48779 2.07101 0
M  V30 7791 H 718.328 -0.796551 3.65521 0
M  V30 7792 H 719.661 -1.06724 4.8049 0
M  V30 7793 N 721.313 -1.57302 -0.09688 0
M  V30 7794 C 722.541 -1.90202 -0.814295 0
M  V30 7795 C 722.956 -0.770344 -1.72369 0
M  V30 7796 O 722.313 0.257764 -1.8067 0
M  V30 7797 C 722.364 -3.22708 -1.62916 0
M  V30 7798 O 722.085 -4.31522 -0.756343 0
M  V30 7799 C 723.586 -3.69459 -2.44979 0
M  V30 7800 H 720.806 -0.629275 -0.232925 0
M  V30 7801 H 723.35 -2.04364 -0.0746482 0
M  V30 7802 H 721.505 -3.1015 -2.32133 0
M  V30 7803 H 721.919 -5.07604 -1.32054 0
M  V30 7804 H 723.393 -4.64875 -2.9765 0
M  V30 7805 H 723.87 -2.97211 -3.23361 0
M  V30 7806 H 724.476 -3.84879 -1.80964 0
M  V30 7807 N 722.791 0.367657 -1.53252 0
M  V30 7808 C 724.068 1.12606 -1.59935 0
M  V30 7809 C 724.448 2.07167 -0.405606 0
M  V30 7810 O 723.796 2.20364 0.604323 0
M  V30 7811 C 724.006 1.86699 -2.94863 0
M  V30 7812 C 725.354 2.41306 -3.49366 0
M  V30 7813 O 726.378 1.96828 -2.96879 0
M  V30 7814 O 725.237 3.2261 -4.41118 0
M  V30 7815 H 722.331 0.516438 -0.645926 0
M  V30 7816 H 724.877 0.371088 -1.65593 0
M  V30 7817 H 723.649 1.17674 -3.73187 0
M  V30 7818 H 723.272 2.6911 -2.92687 0
M  V30 7819 N 724.269 1.44576 0.627338 0
M  V30 7820 C 725.202 1.46206 1.75212 0
M  V30 7821 C 726.18 0.320483 1.5941 0
M  V30 7822 O 727.364 0.518028 1.81242 0
M  V30 7823 C 724.491 1.29834 3.12827 0
M  V30 7824 C 723.537 2.47603 3.47268 0
M  V30 7825 S 724.37 4.10125 3.44322 0
M  V30 7826 C 725.526 3.96183 4.84551 0
M  V30 7827 H 725.759 2.41378 1.73563 0
M  V30 7828 H 723.292 1.3192 0.802283 0
M  V30 7829 H 725.25 1.21075 3.92239 0
M  V30 7830 H 723.911 0.361662 3.12011 0
M  V30 7831 H 723.104 2.3202 4.47418 0
M  V30 7832 H 722.706 2.53121 2.75329 0
M  V30 7833 H 724.998 3.60107 5.73872 0
M  V30 7834 H 725.941 4.96176 5.05188 0
M  V30 7835 H 726.349 3.28177 4.59304 0
M  V30 7836 N 725.747 -0.868086 1.31537 0
M  V30 7837 C 726.972 -1.65926 1.24432 0
M  V30 7838 C 727.397 -1.87169 -0.186936 0
M  V30 7839 O 726.755 -1.4148 -1.13371 0
M  V30 7840 C 726.803 -3.00347 1.9956 0
M  V30 7841 O 725.907 -3.90221 1.33422 0
M  V30 7842 H 725.248 -0.506375 0.429512 0
M  V30 7843 H 727.778 -1.0822 1.73637 0
M  V30 7844 H 727.788 -3.50269 2.09226 0
M  V30 7845 H 726.463 -2.84205 3.03645 0
M  V30 7846 H 725.04 -3.48672 1.32219 0
M  V30 7847 N 727.225 -1.14528 -1.08264 0
M  V30 7848 C 728.155 -0.856356 -2.1723 0
M  V30 7849 C 729.136 0.189251 -1.69044 0
M  V30 7850 O 730.321 0.0456119 -1.94146 0
M  V30 7851 C 727.451 -0.334662 -3.45684 0
M  V30 7852 C 726.405 -1.31588 -4.0727 0
M  V30 7853 C 725.731 -0.653428 -5.30692 0
M  V30 7854 C 727.031 -2.67866 -4.48381 0
M  V30 7855 H 728.725 -1.76755 -2.41657 0
M  V30 7856 H 726.271 -0.851287 -1.16143 0
M  V30 7857 H 728.224 -0.120128 -4.21229 0
M  V30 7858 H 726.948 0.611967 -3.20815 0
M  V30 7859 H 725.607 -1.51661 -3.33758 0
M  V30 7860 H 725.255 0.299054 -5.0211 0
M  V30 7861 H 724.955 -1.30817 -5.72853 0
M  V30 7862 H 726.479 -0.448453 -6.08951 0
M  V30 7863 H 727.893 -2.51692 -5.15096 0
M  V30 7864 H 726.29 -3.29627 -5.01464 0
M  V30 7865 H 727.36 -3.24632 -3.60198 0
M  V30 7866 N 728.703 1.26451 -0.940633 0
M  V30 7867 C 729.653 2.24086 -0.420669 0
M  V30 7868 C 730.637 1.53501 0.482301 0
M  V30 7869 O 731.829 1.74127 0.317636 0
M  V30 7870 C 728.958 3.41866 0.313452 0
M  V30 7871 C 728.044 4.19737 -0.606779 0
M  V30 7872 N 728.435 4.7521 -1.73232 0
M  V30 7873 C 726.733 4.44091 -0.41226 0
M  V30 7874 C 727.434 5.34052 -2.30572 0
M  V30 7875 N 726.41 5.1971 -1.59381 0
M  V30 7876 H 730.212 2.64569 -1.27986 0
M  V30 7877 H 727.726 1.4153 -0.796436 0
M  V30 7878 H 729.723 4.1093 0.702991 0
M  V30 7879 H 728.383 3.0291 1.16942 0
M  V30 7880 H 729.394 4.72769 -2.11447 0
M  V30 7881 H 726.071 4.1556 0.401984 0
M  V30 7882 H 727.461 5.87845 -3.25404 0
M  V30 7883 N 730.181 0.707592 1.40822 0
M  V30 7884 C 731.592 0.317011 1.83989 0
M  V30 7885 C 731.943 -1.14697 1.59182 0
M  V30 7886 O 731.068 -1.8818 1.06852 0
M  V30 7887 C 731.663 0.568593 3.33995 0
M  V30 7888 C 730.222 0.231804 3.75686 0
M  V30 7889 C 729.369 0.844933 2.64114 0
M  V30 7890 H 732.32 0.907349 1.30203 0
M  V30 7891 H 732.341 -0.168798 3.80125 0
M  V30 7892 H 731.853 1.63417 3.52018 0
M  V30 7893 H 729.954 -0.82903 3.6326 0
M  V30 7894 H 730.067 0.695219 4.74029 0
M  V30 7895 H 728.431 0.273588 2.53226 0
M  V30 7896 H 729.214 1.91462 2.84951 0
M  V30 7897 N 731.66 -1.50943 0.453197 0
M  V30 7898 C 732.59 -2.31005 -0.34044 0
M  V30 7899 C 733.571 -1.37112 -1.00669 0
M  V30 7900 O 734.756 -1.66033 -1.0073 0
M  V30 7901 C 731.886 -3.16358 -1.433 0
M  V30 7902 C 730.84 -4.18658 -0.889363 0
M  V30 7903 C 730.166 -4.92633 -2.07887 0
M  V30 7904 C 731.466 -5.22227 0.0871142 0
M  V30 7905 H 733.16 -2.97601 0.327723 0
M  V30 7906 H 730.706 -1.43119 0.159054 0
M  V30 7907 H 732.659 -3.71155 -1.99555 0
M  V30 7908 H 731.383 -2.47613 -2.12968 0
M  V30 7909 H 730.042 -3.64936 -0.348915 0
M  V30 7910 H 729.69 -4.20376 -2.76211 0
M  V30 7911 H 729.39 -5.61819 -1.72143 0
M  V30 7912 H 730.914 -5.50258 -2.64666 0
M  V30 7913 H 732.328 -5.72001 -0.385656 0
M  V30 7914 H 730.725 -5.99032 0.357926 0
M  V30 7915 H 731.795 -4.74077 1.01879 0
M  V30 7916 N 733.138 -0.185124 -1.56509 0
M  V30 7917 C 734.068 0.735098 -2.21627 0
M  V30 7918 C 735.049 1.2288 -1.1762 0
M  V30 7919 O 736.234 1.27945 -1.46095 0
M  V30 7920 C 733.364 1.95889 -2.86783 0
M  V30 7921 C 732.318 1.6005 -3.96948 0
M  V30 7922 C 731.644 2.90009 -4.4922 0
M  V30 7923 C 732.944 0.818008 -5.15855 0
M  V30 7924 H 734.638 0.192274 -2.98782 0
M  V30 7925 H 732.184 0.0910393 -1.43712 0
M  V30 7926 H 734.137 2.60779 -3.31017 0
M  V30 7927 H 732.861 2.52608 -2.07018 0
M  V30 7928 H 731.52 0.975237 -3.5339 0
M  V30 7929 H 731.168 3.44797 -3.6623 0
M  V30 7930 H 730.868 2.66778 -5.23549 0
M  V30 7931 H 732.392 3.55904 -4.9615 0
M  V30 7932 H 733.806 1.36979 -5.56695 0
M  V30 7933 H 732.203 0.684207 -5.96187 0
M  V30 7934 H 733.273 -0.182939 -4.84555 0
M  V30 7935 N 734.616 1.57351 0.0885366 0
M  V30 7936 C 735.548 1.99221 1.13329 0
M  V30 7937 C 736.561 0.895705 1.35945 0
M  V30 7938 O 737.75 1.17376 1.34481 0
M  V30 7939 C 734.85 2.3016 2.48756 0
M  V30 7940 C 734.023 3.61444 2.46327 0
M  V30 7941 C 733.082 3.80244 3.63732 0
M  V30 7942 O 732.108 4.52024 3.45924 0
M  V30 7943 N 733.31 3.2132 4.8346 0
M  V30 7944 H 736.075 2.89456 0.776862 0
M  V30 7945 H 733.636 1.59505 0.277428 0
M  V30 7946 H 735.628 2.39925 3.25911 0
M  V30 7947 H 734.198 1.459 2.76464 0
M  V30 7948 H 733.418 3.62588 1.54673 0
M  V30 7949 H 734.706 4.47678 2.41789 0
M  V30 7950 H 734.104 2.63028 5.00832 0
M  V30 7951 H 732.661 3.3656 5.58185 0
M  V30 7952 N 736.094 -0.359525 1.53444 0
M  V30 7953 C 737.004 -1.46445 1.83278 0
M  V30 7954 C 738.02 -1.5833 0.721629 0
M  V30 7955 O 739.196 -1.7411 1.01231 0
M  V30 7956 C 736.261 -2.81638 2.02191 0
M  V30 7957 C 735.322 -2.7923 3.26082 0
M  V30 7958 C 734.555 -4.07974 3.44082 0
M  V30 7959 O 734.778 -5.04447 2.66251 0
M  V30 7960 O 733.712 -4.13417 4.37458 0
M  V30 7961 H 737.538 -1.24156 2.77162 0
M  V30 7962 H 735.123 -0.550201 1.389 0
M  V30 7963 H 737.005 -3.61732 2.16167 0
M  V30 7964 H 735.68 -3.03892 1.11496 0
M  V30 7965 H 734.587 -1.97813 3.17523 0
M  V30 7966 H 735.92 -2.6193 4.16718 0
M  V30 7967 N 737.572 -1.44907 -0.619662 0
M  V30 7968 C 738.821 -1.47569 -1.37501 0
M  V30 7969 C 739.134 -0.116707 -1.95252 0
M  V30 7970 O 740.34 -0.020909 -2.71492 0
M  V30 7971 C 738.796 -2.59851 -2.49009 0
M  V30 7972 C 738.404 -4.02008 -1.97722 0
M  V30 7973 C 740.148 -2.71746 -3.2612 0
M  V30 7974 C 738.055 -5.05693 -3.0664 0
M  V30 7975 H 736.985 -0.549068 -0.51676 0
M  V30 7976 H 739.636 -1.71009 -0.665437 0
M  V30 7977 H 738.018 -2.29671 -3.22594 0
M  V30 7978 H 739.192 -4.41809 -1.30925 0
M  V30 7979 H 737.507 -3.94456 -1.33392 0
M  V30 7980 H 740.104 -3.46382 -4.07337 0
M  V30 7981 H 740.447 -1.77959 -3.76346 0
M  V30 7982 H 740.98 -3.01392 -2.5963 0
M  V30 7983 H 737.719 -6.01148 -2.61345 0
M  V30 7984 H 737.239 -4.70473 -3.72042 0
M  V30 7985 H 738.918 -5.29906 -3.71226 0
M  V30 7986 N 739.05 0.861098 -1.31996 0
M  V30 7987 C 740.28 1.64501 -1.24992 0
M  V30 7988 C 740.688 1.88288 0.185576 0
M  V30 7989 O 740.031 1.44756 1.131 0
M  V30 7990 C 740.093 3.03098 -1.93319 0
M  V30 7991 C 739.757 3.02381 -3.42658 0
M  V30 7992 C 740.754 2.79696 -4.38254 0
M  V30 7993 C 738.439 3.23221 -3.84491 0
M  V30 7994 C 740.433 2.77843 -5.73657 0
M  V30 7995 C 738.12 3.20996 -5.20005 0
M  V30 7996 C 739.118 2.98335 -6.14398 0
M  V30 7997 O 738.806 2.95971 -7.47433 0
M  V30 7998 H 738.538 0.519309 -0.432775 0
M  V30 7999 H 741.092 1.08241 -1.74565 0
M  V30 8000 H 739.322 3.61121 -1.38306 0
M  V30 8001 H 741.011 3.63751 -1.8011 0
M  V30 8002 H 741.777 2.63368 -4.07262 0
M  V30 8003 H 737.656 3.39887 -3.11445 0
M  V30 8004 H 741.2 2.60074 -6.47308 0
M  V30 8005 H 737.097 3.36865 -5.50629 0
M  V30 8006 H 737.865 3.1197 -7.56714 0
M  V30 8007 N 740.528 1.15101 1.07655 0
M  V30 8008 C 741.475 0.844958 2.14777 0
M  V30 8009 C 742.445 -0.200798 1.64882 0
M  V30 8010 O 743.63 -0.0690278 1.90675 0
M  V30 8011 C 740.77 0.337018 3.4345 0
M  V30 8012 C 739.883 1.44398 4.07153 0
M  V30 8013 C 739.018 0.892487 5.23649 0
M  V30 8014 C 738.057 1.9766 5.79307 0
M  V30 8015 N 737.194 1.44171 6.87138 0
M  V30 8016 H 742.034 1.76242 2.40297 0
M  V30 8017 H 739.571 0.879435 1.17917 0
M  V30 8018 H 741.529 0.024256 4.17193 0
M  V30 8019 H 740.159 -0.543531 3.18191 0
M  V30 8020 H 739.211 1.87299 3.31094 0
M  V30 8021 H 740.523 2.26262 4.4453 0
M  V30 8022 H 739.677 0.532083 6.04362 0
M  V30 8023 H 738.416 0.0429854 4.87681 0
M  V30 8024 H 737.421 2.34586 4.97242 0
M  V30 8025 H 738.646 2.82982 6.17331 0
M  V30 8026 H 736.592 0.614518 6.53115 0
M  V30 8027 H 736.509 2.19665 7.23383 0
M  V30 8028 H 737.777 1.10945 7.71564 0
M  V30 8029 N 742.006 -1.2595 0.947325 0
M  V30 8030 C 743.283 -1.88676 0.515824 0
M  V30 8031 C 743.663 -1.85547 -1.00675 0
M  V30 8032 O 743.011 -1.31399 -1.8694 0
M  V30 8033 C 743.221 -3.31734 1.08415 0
M  V30 8034 C 744.569 -4.08545 1.15654 0
M  V30 8035 O 745.593 -3.40826 1.03517 0
M  V30 8036 O 744.452 -5.29663 1.34608 0
M  V30 8037 H 741.546 -0.809537 0.169055 0
M  V30 8038 H 744.092 -1.34075 1.04029 0
M  V30 8039 H 742.864 -3.28404 2.1276 0
M  V30 8040 H 742.487 -3.93882 0.542499 0
M  V30 8041 N 743.484 -0.715051 -1.40445 0
M  V30 8042 C 744.414 -0.0768699 -2.33373 0
M  V30 8043 C 745.395 0.746109 -1.52863 0
M  V30 8044 O 746.58 0.695142 -1.81332 0
M  V30 8045 C 743.71 0.846014 -3.36838 0
M  V30 8046 C 742.664 0.128694 -4.27806 0
M  V30 8047 C 741.99 1.16726 -5.21804 0
M  V30 8048 C 743.29 -1.01679 -5.12307 0
M  V30 8049 H 744.984 -0.853061 -2.8699 0
M  V30 8050 H 742.53 -0.41167 -1.3799 0
M  V30 8051 H 744.483 1.30185 -4.00786 0
M  V30 8052 H 743.207 1.6541 -2.81615 0
M  V30 8053 H 741.866 -0.307314 -3.6531 0
M  V30 8054 H 741.514 1.96838 -4.62887 0
M  V30 8055 H 741.214 0.692188 -5.83509 0
M  V30 8056 H 742.738 1.62321 -5.88629 0
M  V30 8057 H 744.152 -0.640337 -5.69713 0
M  V30 8058 H 742.549 -1.4202 -5.83053 0
M  V30 8059 H 743.619 -1.84769 -4.48317 0
M  V30 8060 N 744.962 1.50701 -0.461195 0
M  V30 8061 C 746.192 2.06381 0.0950376 0
M  V30 8062 C 746.6 1.32627 1.34933 0
M  V30 8063 O 745.943 0.386137 1.79596 0
M  V30 8064 C 746.005 3.56558 0.458965 0
M  V30 8065 C 745.669 4.51732 -0.691891 0
M  V30 8066 C 746.666 4.95594 -1.57105 0
M  V30 8067 C 744.351 4.94542 -0.879407 0
M  V30 8068 C 746.345 5.80963 -2.62223 0
M  V30 8069 C 744.032 5.79695 -1.93382 0
M  V30 8070 C 745.03 6.22806 -2.80359 0
M  V30 8071 O 744.718 7.06265 -3.83986 0
M  V30 8072 H 744.45 0.676 0.000687488 0
M  V30 8073 H 747.004 1.94974 -0.646087 0
M  V30 8074 H 745.234 3.65832 1.25314 0
M  V30 8075 H 746.923 3.94647 0.949124 0
M  V30 8076 H 747.689 4.63197 -1.43783 0
M  V30 8077 H 743.568 4.60513 -0.211907 0
M  V30 8078 H 747.112 6.14533 -3.30143 0
M  V30 8079 H 743.009 6.11506 -2.06715 0
M  V30 8080 H 743.777 7.24494 -3.80855 0
M  V30 8081 O 746.479 0.334734 1.57993 0
M  V30 8082 H 747.17 -0.222689 1.92416 0
M  V30 END ATOM
M  V30 BEGIN BOND
M  V30 END BOND
M  V30 END CTAB
M  END
$$$$
