drugbank_target|Q9TY94 ATP-dependent RNA helicase UAP56 (DB11638)
 OpenBabel12092121123D

  0  0  0     0  0            999 V3000
M  V30 BEGIN CTAB
M  V30 COUNTS 9768 10381 0 0 0
M  V30 BEGIN ATOM
M  V30 1 H -2.588 8.49073 -0.0679273 0
M  V30 2 O -1.492 9.37262 0.0843559 0
M  V30 3 P 0 8.791 0 0
M  V30 4 O 1.422 9.31096 0.027933 0
M  V30 5 O -0.36 7.77869 -1.04071 0
M  V30 6 O -0.323 8.09533 1.41463 0
M  V30 7 C -0.483 9.0349 2.53943 0
M  V30 8 C 0.057 8.35226 3.79016 0
M  V30 9 O -0.999 7.57992 4.15078 0
M  V30 10 C 1.275 7.45087 3.67298 0
M  V30 11 O 2.013 7.27796 4.85194 0
M  V30 12 C 0.606 6.17323 3.12027 0
M  V30 13 O 1.405 5.04231 3.47188 0
M  V30 14 C -0.731 6.19961 3.81809 0
M  V30 15 H -0.699 5.58218 4.73051 0
M  V30 16 H 0.484 6.21726 2.02589 0
M  V30 17 H 1.968 7.86112 2.9231 0
M  V30 18 H 0.274 9.11627 4.55076 0
M  V30 19 H 0.084 9.9573 2.34194 0
M  V30 20 H -1.546 9.2792 2.67832 0
M  V30 21 H 1.093 4.67702 4.28772 0
M  V30 22 P 2.95057 7.39546 4.75277 0
M  V30 23 O 4.37157 7.81861 5.05793 0
M  V30 24 O 2.59057 7.1065 3.32998 0
M  V30 25 O 2.62757 6.04542 5.56673 0
M  V30 26 C 2.46657 6.22839 7.02169 0
M  V30 27 C 3.00757 4.97725 7.70406 0
M  V30 28 O 1.95257 4.13208 7.58899 0
M  V30 29 C 4.22557 4.28231 7.11815 0
M  V30 30 O 4.96357 3.49945 8.01648 0
M  V30 31 C 3.55757 3.5063 5.96244 0
M  V30 32 O 4.35557 2.37008 5.64352 0
M  V30 33 C 2.21957 3.15122 6.56374 0
M  V30 34 N 1.17657 3.22311 5.55692 0
M  V30 35 C 1.34557 3.99655 4.46046 0
M  V30 36 N 0.31857 3.97599 3.63918 0
M  V30 37 C -0.56643 3.11159 4.25334 0
M  V30 38 C -1.83343 2.64972 3.85157 0
M  V30 39 N -2.43243 3.02132 2.69405 0
M  V30 40 N -2.39843 1.78482 4.74759 0
M  V30 41 C -1.79643 1.37463 5.90819 0
M  V30 42 N -0.61943 1.7733 6.31889 0
M  V30 43 C -0.04443 2.64393 5.43725 0
M  V30 44 H 2.25157 2.13823 6.99656 0
M  V30 45 H 3.43457 4.12931 5.06895 0
M  V30 46 H 4.91757 5.03285 6.70911 0
M  V30 47 H 3.22357 5.20001 8.76217 0
M  V30 48 H 3.03357 7.11046 7.35349 0
M  V30 49 H 1.40357 6.35815 7.26986 0
M  V30 50 H -2.33243 0.66574 6.53015 0
M  V30 51 H 2.24557 4.58037 4.27732 0
M  V30 52 H -3.36243 2.64828 2.45331 0
M  V30 53 H -1.95843 3.67472 2.05644 0
M  V30 54 H 4.04357 1.61619 6.13468 0
M  V30 55 P 5.90114 3.65191 7.99657 0
M  V30 56 O 7.32314 3.8425 8.48115 0
M  V30 57 O 5.54114 4.17805 6.64342 0
M  V30 58 O 5.57814 2.07613 7.95143 0
M  V30 59 C 5.41814 1.44328 9.27336 0
M  V30 60 C 5.95814 0.0220036 9.17197 0
M  V30 61 O 4.90214 -0.626867 8.61923 0
M  V30 62 C 7.17614 -0.24586 8.30336 0
M  V30 63 O 7.91414 -1.39011 8.63583 0
M  V30 64 C 6.50714 -0.273849 6.91158 0
M  V30 65 O 7.30614 -1.06348 6.02892 0
M  V30 66 C 5.17014 -0.897649 7.22545 0
M  V30 67 H 5.20214 -1.9841 7.04286 0
M  V30 68 H 6.38514 0.739928 6.497 0
M  V30 69 H 7.86914 0.60668 8.36503 0
M  V30 70 H 6.17514 -0.352479 10.1829 0
M  V30 71 H 5.98514 2.00611 10.0304 0
M  V30 72 H 4.35514 1.41843 9.55327 0
M  V30 73 H 6.99414 -1.95734 6.03555 0
M  V30 74 P 8.85171 -1.25109 8.70152 0
M  V30 75 O 10.2737 -1.35274 9.21221 0
M  V30 76 O 8.49171 -0.0769065 7.84762 0
M  V30 77 O 8.52871 -2.55232 7.81161 0
M  V30 78 C 8.36871 -3.79939 8.58154 0
M  V30 79 C 8.90871 -4.94023 7.72785 0
M  V30 80 O 7.85271 -5.18726 6.91205 0
M  V30 81 C 10.1267 -4.69597 6.85231 0
M  V30 82 O 10.8647 -5.83832 6.51337 0
M  V30 83 C 9.45771 -3.96706 5.66633 0
M  V30 84 O 10.2567 -4.15414 4.49689 0
M  V30 85 C 8.12071 -4.66153 5.59313 0
M  V30 86 H 8.15271 -5.47679 4.85214 0
M  V30 87 H 9.33571 -2.89008 5.86566 0
M  V30 88 H 10.8197 -4.0121 7.36511 0
M  V30 89 H 9.12571 -5.80182 8.37584 0
M  V30 90 H 8.93571 -3.73517 9.52265 0
M  V30 91 H 7.30571 -3.97163 8.80359 0
M  V30 92 H 9.94471 -4.90969 4.01921 0
M  V30 93 P 11.8023 -5.75688 6.64379 0
M  V30 94 O 13.2243 -6.11849 7.01846 0
M  V30 95 O 11.4423 -4.30744 6.56026 0
M  V30 96 O 11.4793 -6.37042 5.19165 0
M  V30 97 C 11.3193 -7.83578 5.16515 0
M  V30 98 C 11.8593 -8.33398 3.83019 0
M  V30 99 O 10.8033 -8.10074 3.01034 0
M  V30 100 C 13.0773 -7.65514 3.2257 0
M  V30 101 O 13.8153 -8.4329 2.32297 0
M  V30 102 C 12.4083 -6.40075 2.62207 0
M  V30 103 O 13.2073 -5.92589 1.53712 0
M  V30 104 C 11.0713 -6.9454 2.18503 0
M  V30 105 H 11.1033 -7.23063 1.12091 0
M  V30 106 H 12.2863 -5.6025 3.37201 0
M  V30 107 H 13.7703 -7.35707 4.02681 0
M  V30 108 H 12.0763 -9.40912 3.9095 0
M  V30 109 H 11.8863 -8.29056 5.99158 0
M  V30 110 H 10.2563 -8.10073 5.25882 0
M  V30 111 H 12.8953 -6.30324 0.726794 0
M  V30 112 P 14.7528 -8.4349 2.47671 0
M  V30 113 O 16.1748 -8.94167 2.5964 0
M  V30 114 O 14.3928 -7.1704 3.19006 0
M  V30 115 O 14.4298 -8.16596 0.923387 0
M  V30 116 C 14.2698 -9.38437 0.108857 0
M  V30 117 C 14.8098 -9.08175 -1.28353 0
M  V30 118 O 13.7538 -8.44229 -1.84713 0
M  V30 119 C 16.0278 -8.18386 -1.42505 0
M  V30 120 O 16.7659 -8.3501 -2.60497 0
M  V30 121 C 15.3588 -6.80225 -1.25468 0
M  V30 122 O 16.1578 -5.81621 -1.91066 0
M  V30 123 C 14.0218 -7.02416 -1.9168 0
M  V30 124 H 14.0538 -6.6888 -2.96621 0
M  V30 125 H 15.2368 -6.53617 -0.192223 0
M  V30 126 H 16.7208 -8.36622 -0.589963 0
M  V30 127 H 15.0268 -10.0291 -1.79807 0
M  V30 128 H 14.8368 -10.2138 0.558219 0
M  V30 129 H 13.2068 -9.6579 0.0444202 0
M  V30 130 H 15.8458 -5.69556 -2.79637 0
M  V30 131 P 17.7034 -8.4349 -2.47671 0
M  V30 132 O 19.1254 -8.92593 -2.65 0
M  V30 133 O 17.3434 -7.7568 -1.19296 0
M  V30 134 O 17.3804 -7.36886 -3.63805 0
M  V30 135 C 17.2204 -7.95349 -4.982 0
M  V30 136 C 17.7604 -6.94612 -5.98974 0
M  V30 137 O 16.7044 -6.10347 -6.11815 0
M  V30 138 C 18.9784 -6.11426 -5.62335 0
M  V30 139 O 19.7164 -5.6162 -6.70584 0
M  V30 140 C 18.3094 -5.04409 -4.73308 0
M  V30 141 O 19.1084 -3.85992 -4.75183 0
M  V30 142 C 16.9724 -4.8728 -5.41006 0
M  V30 143 H 17.0044 -4.02333 -6.11157 0
M  V30 144 H 18.1874 -5.39466 -3.69543 0
M  V30 145 H 19.6714 -6.71916 -5.01943 0
M  V30 146 H 17.9774 -7.4649 -6.93477 0
M  V30 147 H 17.7874 -8.89416 -5.05237 0
M  V30 148 H 16.1574 -8.14876 -5.18409 0
M  V30 149 H 18.7964 -3.27957 -5.4317 0
M  V30 150 P 20.654 -5.75688 -6.64379 0
M  V30 151 O 22.075 -6.07692 -7.0558 0
M  V30 152 O 20.294 -5.88047 -5.19722 0
M  V30 153 O 20.331 -4.2322 -7.04443 0
M  V30 154 C 20.17 -3.99785 -8.49201 0
M  V30 155 C 20.711 -2.60516 -8.79425 0
M  V30 156 O 19.656 -1.82663 -8.44573 0
M  V30 157 C 21.929 -2.10343 -8.03628 0
M  V30 158 O 22.667 -1.09919 -8.67766 0
M  V30 159 C 21.261 -1.68446 -6.70876 0
M  V30 160 O 22.059 -0.684109 -6.08265 0
M  V30 161 C 19.923 -1.17436 -7.18567 0
M  V30 162 N 18.88 -1.52699 -6.23988 0
M  V30 163 C 19.049 -2.578 -5.40574 0
M  V30 164 N 18.022 -2.78966 -4.61193 0
M  V30 165 C 17.137 -1.78725 -4.95769 0
M  V30 166 C 15.87 -1.45727 -4.44207 0
M  V30 167 N 15.271 -2.13994 -3.43613 0
M  V30 168 N 15.305 -0.374977 -5.05812 0
M  V30 169 C 15.907 0.345585 -6.05615 0
M  V30 170 N 17.084 0.0787651 -6.56253 0
M  V30 171 C 17.659 -1.00499 -5.96189 0
M  V30 172 H 19.955 -0.0804622 -7.31556 0
M  V30 173 H 21.138 -2.53396 -6.02698 0
M  V30 174 H 22.621 -2.93881 -7.85526 0
M  V30 175 H 20.927 -2.52078 -9.87225 0
M  V30 176 H 20.737 -4.75072 -9.05887 0
M  V30 177 H 19.107 -4.05244 -8.76668 0
M  V30 178 H 15.371 1.20098 -6.4532 0
M  V30 179 H 19.949 -3.18977 -5.3945 0
M  V30 180 H 14.341 -1.84983 -3.10004 0
M  V30 181 H 15.745 -2.9465 -3.00843 0
M  V30 182 H 21.747 0.177619 -6.34151 0
M  V30 183 P 23.6046 -1.25109 -8.70152 0
M  V30 184 O 25.0266 -1.29744 -9.22016 0
M  V30 185 O 23.2446 -2.13714 -7.55141 0
M  V30 186 O 23.2816 0.248149 -8.21425 0
M  V30 187 C 23.1216 1.22779 -9.30434 0
M  V30 188 C 23.6616 2.56293 -8.80664 0
M  V30 189 O 22.6056 3.02979 -8.09349 0
M  V30 190 C 24.8796 2.57523 -7.89775 0
M  V30 191 O 25.6176 3.7668 -7.89438 0
M  V30 192 C 24.2106 2.20997 -6.55446 0
M  V30 193 O 25.0096 2.71895 -5.48509 0
M  V30 194 C 22.8736 2.89693 -6.67988 0
M  V30 195 H 22.9056 3.88793 -6.19859 0
M  V30 196 H 24.0886 1.12046 -6.44229 0
M  V30 197 H 25.5726 1.7746 -8.19711 0
M  V30 198 H 23.8786 3.20706 -9.67112 0
M  V30 199 H 23.6886 0.901032 -10.1892 0
M  V30 200 H 22.0586 1.33049 -9.56592 0
M  V30 201 H 24.6976 3.57847 -5.23962 0
M  V30 202 P 26.5551 3.65191 -7.99657 0
M  V30 203 O 27.9771 3.89332 -8.45794 0
M  V30 204 O 26.1951 2.28472 -7.50807 0
M  V30 205 O 26.2321 4.64972 -6.77611 0
M  V30 206 C 26.0721 6.06319 -7.16352 0
M  V30 207 C 26.6121 6.91731 -6.02299 0
M  V30 208 O 25.5561 6.92449 -5.17064 0
M  V30 209 C 27.8301 6.43627 -5.25174 0
M  V30 210 O 28.5681 7.43686 -4.60469 0
M  V30 211 C 27.1611 5.40275 -4.31916 0
M  V30 212 O 27.9601 5.25279 -3.14438 0
M  V30 213 C 25.8241 6.04847 -4.05327 0
M  V30 214 H 25.8561 6.62195 -3.11261 0
M  V30 215 H 27.0391 4.42556 -4.81383 0
M  V30 216 H 28.5231 5.92458 -5.93643 0
M  V30 217 H 26.8291 7.92655 -6.402 0
M  V30 218 H 26.6391 6.26671 -8.0846 0
M  V30 219 H 25.0091 6.29101 -7.32804 0
M  V30 220 H 27.6481 5.84315 -2.47318 0
M  V30 221 P 29.5057 7.39546 -4.75277 0
M  V30 222 O 30.9277 7.84798 -5.01039 0
M  V30 223 O 29.1457 5.9812 -5.08098 0
M  V30 224 O 29.1827 7.57503 -3.1866 0
M  V30 225 C 29.0227 8.97357 -2.74833 0
M  V30 226 C 29.5627 9.07548 -1.32709 0
M  V30 227 O 28.5067 8.62072 -0.606159 0
M  V30 228 C 30.7807 8.25383 -0.938334 0
M  V30 229 O 31.5187 8.74577 0.146954 0
M  V30 230 C 30.1117 6.8802 -0.712559 0
M  V30 231 O 30.9107 6.1189 0.194655 0
M  V30 232 C 28.7747 7.27966 -0.139777 0
M  V30 233 H 28.8067 7.25354 0.961601 0
M  V30 234 H 29.9897 6.32557 -1.65702 0
M  V30 235 H 31.4737 8.19355 -1.79097 0
M  V30 236 H 29.7797 10.1294 -1.10029 0
M  V30 237 H 29.5897 9.64276 -3.41316 0
M  V30 238 H 27.9597 9.25417 -2.76357 0
M  V30 239 H 30.5987 6.25267 1.07847 0
M  V30 240 P 32.4563 8.791 -9.96115e-15 0
M  V30 241 O 33.8783 9.31096 0.027933 0
M  V30 242 O 32.0963 7.77869 -1.04071 0
M  V30 243 O 32.1333 8.09533 1.41463 0
M  V30 244 C 31.9733 9.0349 2.53943 0
M  V30 245 C 32.5133 8.35226 3.79016 0
M  V30 246 O 31.4573 7.57992 4.15078 0
M  V30 247 C 33.7313 7.45087 3.67298 0
M  V30 248 O 34.4693 7.27796 4.85194 0
M  V30 249 C 33.0623 6.17323 3.12027 0
M  V30 250 O 33.8613 5.04231 3.47188 0
M  V30 251 C 31.7253 6.19961 3.81809 0
M  V30 252 H 31.7573 5.58218 4.73051 0
M  V30 253 H 32.9403 6.21726 2.02589 0
M  V30 254 H 34.4243 7.86112 2.9231 0
M  V30 255 H 32.7303 9.11627 4.55076 0
M  V30 256 H 32.5403 9.9573 2.34194 0
M  V30 257 H 30.9103 9.2792 2.67832 0
M  V30 258 H 33.5493 4.67702 4.28772 0
M  V30 259 P 35.4068 7.39546 4.75277 0
M  V30 260 O 36.8288 7.81777 5.05738 0
M  V30 261 O 35.0468 7.1065 3.32998 0
M  V30 262 O 35.0838 6.04542 5.56673 0
M  V30 263 C 34.9238 6.22772 7.02095 0
M  V30 264 C 35.4638 4.97725 7.70406 0
M  V30 265 O 34.4078 4.13256 7.58987 0
M  V30 266 C 36.6818 4.28231 7.11815 0
M  V30 267 O 37.4198 3.49945 8.01648 0
M  V30 268 C 36.0128 3.5063 5.96244 0
M  V30 269 O 36.8118 2.36482 5.64681 0
M  V30 270 C 34.6758 3.15122 6.56374 0
M  V30 271 H 34.7078 2.13853 6.99751 0
M  V30 272 H 35.8908 4.13501 5.06559 0
M  V30 273 H 37.3748 5.03285 6.70911 0
M  V30 274 H 35.6808 5.20877 8.75697 0
M  V30 275 H 35.4908 7.11046 7.35349 0
M  V30 276 H 33.8608 6.35815 7.26986 0
M  V30 277 H 36.4998 1.61644 6.13565 0
M  V30 278 P 38.3574 3.65191 7.99657 0
M  V30 279 O 39.7794 3.8425 8.48115 0
M  V30 280 O 37.9974 4.17805 6.64342 0
M  V30 281 O 38.0344 2.07613 7.95143 0
M  V30 282 C 37.8744 1.44328 9.27336 0
M  V30 283 C 38.4144 0.0220036 9.17197 0
M  V30 284 O 37.3584 -0.626867 8.61923 0
M  V30 285 C 39.6324 -0.24586 8.30336 0
M  V30 286 O 40.3704 -1.39011 8.63583 0
M  V30 287 C 38.9634 -0.273849 6.91158 0
M  V30 288 O 39.7624 -1.06348 6.02892 0
M  V30 289 C 37.6264 -0.897649 7.22545 0
M  V30 290 H 37.6584 -1.9841 7.04286 0
M  V30 291 H 38.8414 0.739928 6.497 0
M  V30 292 H 40.3254 0.60668 8.36503 0
M  V30 293 H 38.6314 -0.352479 10.1829 0
M  V30 294 H 38.4414 2.00611 10.0304 0
M  V30 295 H 36.8114 1.41843 9.55327 0
M  V30 296 H 39.4504 -1.95734 6.03555 0
M  V30 297 P 41.308 -1.25109 8.70152 0
M  V30 298 O 42.709 -1.31452 9.27431 0
M  V30 299 O 40.93 -0.0458113 7.89887 0
M  V30 300 O 40.985 -2.55201 7.81066 0
M  V30 301 C 40.825 -3.79939 8.58154 0
M  V30 302 C 41.365 -4.93969 7.72701 0
M  V30 303 O 40.309 -5.18666 6.91125 0
M  V30 304 C 42.582 -4.69597 6.85231 0
M  V30 305 O 43.321 -5.83832 6.51337 0
M  V30 306 C 41.915 -3.96706 5.66633 0
M  V30 307 O 42.713 -4.15346 4.49615 0
M  V30 308 C 40.577 -4.66153 5.59313 0
M  V30 309 N 39.534 -3.71582 5.24027 0
M  V30 310 C 38.499 -4.15133 4.44901 0
M  V30 311 O 38.538 -5.32122 4.00336 0
M  V30 312 N 37.487 -3.30554 4.15693 0
M  V30 313 C 37.535 -2.04701 4.61105 0
M  V30 314 C 38.631 -1.57111 5.38655 0
M  V30 315 C 39.597 -2.44234 5.68454 0
M  V30 316 H 40.609 -5.47604 4.85148 0
M  V30 317 H 41.792 -2.8955 5.86187 0
M  V30 318 H 43.276 -4.01995 7.36197 0
M  V30 319 H 41.582 -5.81019 8.37003 0
M  V30 320 H 41.391 -3.73517 9.52265 0
M  V30 321 H 39.761 -3.97122 8.80267 0
M  V30 322 H 38.679 -0.538464 5.72373 0
M  V30 323 H 40.443 -2.11927 6.29377 0
M  V30 324 H 42.497 -4.98352 4.09633 0
M  V30 325 P 44.2585 -5.75688 6.64379 0
M  V30 326 O 45.6805 -6.11849 7.01846 0
M  V30 327 O 43.8985 -4.30744 6.56026 0
M  V30 328 O 43.9355 -6.37042 5.19165 0
M  V30 329 C 43.7755 -7.83578 5.16515 0
M  V30 330 C 44.3155 -8.33398 3.83019 0
M  V30 331 O 43.2595 -8.10074 3.01034 0
M  V30 332 C 45.5335 -7.65514 3.2257 0
M  V30 333 O 46.2715 -8.4329 2.32297 0
M  V30 334 C 44.8645 -6.40075 2.62207 0
M  V30 335 O 45.6635 -5.92589 1.53712 0
M  V30 336 C 43.5275 -6.9454 2.18503 0
M  V30 337 H 43.5595 -7.23063 1.12091 0
M  V30 338 H 44.7425 -5.6025 3.37201 0
M  V30 339 H 46.2265 -7.35707 4.02681 0
M  V30 340 H 44.5325 -9.40912 3.9095 0
M  V30 341 H 44.3425 -8.29056 5.99158 0
M  V30 342 H 42.7125 -8.10073 5.25882 0
M  V30 343 H 45.3515 -6.30324 0.726794 0
M  V30 344 P 47.2091 -8.4349 2.47671 0
M  V30 345 O 48.6311 -8.94167 2.5964 0
M  V30 346 O 46.8491 -7.1704 3.19006 0
M  V30 347 O 46.8861 -8.16596 0.923387 0
M  V30 348 C 46.7261 -9.38437 0.108857 0
M  V30 349 C 47.2661 -9.08175 -1.28353 0
M  V30 350 O 46.2101 -8.44229 -1.84713 0
M  V30 351 C 48.4841 -8.18386 -1.42505 0
M  V30 352 O 49.2221 -8.3501 -2.60497 0
M  V30 353 C 47.8151 -6.80225 -1.25468 0
M  V30 354 O 48.6141 -5.81621 -1.91066 0
M  V30 355 C 46.4781 -7.02416 -1.9168 0
M  V30 356 H 46.5101 -6.6888 -2.96621 0
M  V30 357 H 47.6931 -6.53617 -0.192223 0
M  V30 358 H 49.1771 -8.36622 -0.589963 0
M  V30 359 H 47.4831 -10.0291 -1.79807 0
M  V30 360 H 47.2931 -10.2138 0.558219 0
M  V30 361 H 45.6631 -9.6579 0.0444202 0
M  V30 362 H 48.3021 -5.69556 -2.79637 0
M  V30 363 P 50.1597 -8.4349 -2.47671 0
M  V30 364 O 51.5817 -8.92593 -2.65 0
M  V30 365 O 49.7997 -7.7568 -1.19296 0
M  V30 366 O 49.8367 -7.36886 -3.63805 0
M  V30 367 C 49.6767 -7.95349 -4.982 0
M  V30 368 C 50.2167 -6.94612 -5.98974 0
M  V30 369 O 49.1607 -6.10347 -6.11815 0
M  V30 370 C 51.4347 -6.11426 -5.62335 0
M  V30 371 O 52.1727 -5.6162 -6.70584 0
M  V30 372 C 50.7657 -5.04409 -4.73308 0
M  V30 373 O 51.5647 -3.85992 -4.75183 0
M  V30 374 C 49.4287 -4.8728 -5.41006 0
M  V30 375 H 49.4607 -4.02333 -6.11157 0
M  V30 376 H 50.6437 -5.39466 -3.69543 0
M  V30 377 H 52.1277 -6.71916 -5.01943 0
M  V30 378 H 50.4337 -7.4649 -6.93477 0
M  V30 379 H 50.2437 -8.89416 -5.05237 0
M  V30 380 H 48.6137 -8.14876 -5.18409 0
M  V30 381 H 51.2527 -3.27957 -5.4317 0
M  V30 382 P 53.1103 -5.75688 -6.64379 0
M  V30 383 O 54.5323 -6.07627 -7.05504 0
M  V30 384 O 52.7503 -5.88047 -5.19722 0
M  V30 385 O 52.7873 -4.2322 -7.04443 0
M  V30 386 C 52.6273 -3.99743 -8.4911 0
M  V30 387 C 53.1673 -2.60516 -8.79425 0
M  V30 388 O 52.1113 -1.82684 -8.4467 0
M  V30 389 C 54.3853 -2.10343 -8.03628 0
M  V30 390 O 55.1233 -1.09919 -8.67766 0
M  V30 391 C 53.7163 -1.68446 -6.70876 0
M  V30 392 O 54.5153 -0.678137 -6.08433 0
M  V30 393 C 52.3793 -1.17436 -7.18567 0
M  V30 394 H 52.4113 -0.0804732 -7.31656 0
M  V30 395 H 53.5943 -2.54037 -6.02537 0
M  V30 396 H 55.0783 -2.93881 -7.85526 0
M  V30 397 H 53.3843 -2.53065 -9.86973 0
M  V30 398 H 53.1943 -4.75072 -9.05887 0
M  V30 399 H 51.5643 -4.05244 -8.76668 0
M  V30 400 H 54.2033 0.177647 -6.34251 0
M  V30 401 P 56.0608 -1.25109 -8.70152 0
M  V30 402 O 57.4828 -1.29744 -9.22016 0
M  V30 403 O 55.7008 -2.13714 -7.55141 0
M  V30 404 O 55.7378 0.248149 -8.21425 0
M  V30 405 C 55.5778 1.22779 -9.30434 0
M  V30 406 C 56.1178 2.56293 -8.80664 0
M  V30 407 O 55.0618 3.02979 -8.09349 0
M  V30 408 C 57.3358 2.57523 -7.89775 0
M  V30 409 O 58.0738 3.7668 -7.89438 0
M  V30 410 C 56.6668 2.20997 -6.55446 0
M  V30 411 O 57.4658 2.71895 -5.48509 0
M  V30 412 C 55.3298 2.89693 -6.67988 0
M  V30 413 H 55.3618 3.88793 -6.19859 0
M  V30 414 H 56.5448 1.12046 -6.44229 0
M  V30 415 H 58.0288 1.7746 -8.19711 0
M  V30 416 H 56.3348 3.20706 -9.67112 0
M  V30 417 H 56.1448 0.901032 -10.1892 0
M  V30 418 H 54.5148 1.33049 -9.56592 0
M  V30 419 H 57.1538 3.57847 -5.23962 0
M  V30 420 P 59.0114 3.65191 -7.99657 0
M  V30 421 O 60.4334 3.89332 -8.45794 0
M  V30 422 O 58.6514 2.28472 -7.50807 0
M  V30 423 O 58.6884 4.64972 -6.77611 0
M  V30 424 C 58.5284 6.06319 -7.16352 0
M  V30 425 C 59.0684 6.91731 -6.02299 0
M  V30 426 O 58.0124 6.92449 -5.17064 0
M  V30 427 C 60.2864 6.43627 -5.25174 0
M  V30 428 O 61.0244 7.43686 -4.60469 0
M  V30 429 C 59.6174 5.40275 -4.31916 0
M  V30 430 O 60.4164 5.25279 -3.14438 0
M  V30 431 C 58.2804 6.04847 -4.05327 0
M  V30 432 H 58.3124 6.62195 -3.11261 0
M  V30 433 H 59.4954 4.42556 -4.81383 0
M  V30 434 H 60.9794 5.92458 -5.93643 0
M  V30 435 H 59.2854 7.92655 -6.402 0
M  V30 436 H 59.0954 6.26671 -8.0846 0
M  V30 437 H 57.4654 6.29101 -7.32804 0
M  V30 438 H 60.1044 5.84315 -2.47318 0
M  V30 439 P 61.962 7.39546 -4.75277 0
M  V30 440 O 63.384 7.84798 -5.01039 0
M  V30 441 O 61.602 5.9812 -5.08098 0
M  V30 442 O 61.639 7.57503 -3.1866 0
M  V30 443 C 61.479 8.97357 -2.74833 0
M  V30 444 C 62.019 9.07548 -1.32709 0
M  V30 445 O 60.963 8.62072 -0.606159 0
M  V30 446 C 63.237 8.25383 -0.938334 0
M  V30 447 O 63.975 8.74577 0.146954 0
M  V30 448 C 62.568 6.8802 -0.712559 0
M  V30 449 O 63.367 6.1189 0.194655 0
M  V30 450 C 61.231 7.27966 -0.139777 0
M  V30 451 H 61.263 7.25354 0.961601 0
M  V30 452 H 62.446 6.32557 -1.65702 0
M  V30 453 H 63.93 8.19355 -1.79097 0
M  V30 454 H 62.236 10.1294 -1.10029 0
M  V30 455 H 62.046 9.64276 -3.41316 0
M  V30 456 H 60.416 9.25417 -2.76357 0
M  V30 457 H 63.055 6.25267 1.07847 0
M  V30 458 P 64.9125 8.791 -3.55383e-14 0
M  V30 459 O 66.3345 9.31096 0.027933 0
M  V30 460 O 64.5525 7.77869 -1.04071 0
M  V30 461 O 64.5895 8.09533 1.41463 0
M  V30 462 C 64.4295 9.0349 2.53943 0
M  V30 463 C 64.9695 8.35226 3.79016 0
M  V30 464 O 63.9135 7.57992 4.15078 0
M  V30 465 C 66.1875 7.45087 3.67298 0
M  V30 466 O 66.9255 7.27796 4.85194 0
M  V30 467 C 65.5185 6.17323 3.12027 0
M  V30 468 O 66.3175 5.04231 3.47188 0
M  V30 469 C 64.1815 6.19961 3.81809 0
M  V30 470 H 64.2135 5.58218 4.73051 0
M  V30 471 H 65.3965 6.21726 2.02589 0
M  V30 472 H 66.8805 7.86112 2.9231 0
M  V30 473 H 65.1865 9.11627 4.55076 0
M  V30 474 H 64.9965 9.9573 2.34194 0
M  V30 475 H 63.3665 9.2792 2.67832 0
M  V30 476 H 66.0055 4.67702 4.28772 0
M  V30 477 P 67.8631 7.39546 4.75277 0
M  V30 478 O 69.2851 7.81777 5.05738 0
M  V30 479 O 67.5031 7.1065 3.32998 0
M  V30 480 O 67.5401 6.04542 5.56673 0
M  V30 481 C 67.3801 6.22772 7.02095 0
M  V30 482 C 67.9201 4.97725 7.70406 0
M  V30 483 O 66.8641 4.13256 7.58987 0
M  V30 484 C 69.1381 4.28231 7.11815 0
M  V30 485 O 69.8761 3.49945 8.01648 0
M  V30 486 C 68.4691 3.5063 5.96244 0
M  V30 487 O 69.2681 2.36482 5.64681 0
M  V30 488 C 67.1321 3.15122 6.56374 0
M  V30 489 H 67.1641 2.13853 6.99751 0
M  V30 490 H 68.3471 4.13501 5.06559 0
M  V30 491 H 69.8311 5.03285 6.70911 0
M  V30 492 H 68.1371 5.20877 8.75697 0
M  V30 493 H 67.9471 7.11046 7.35349 0
M  V30 494 H 66.3171 6.35815 7.26986 0
M  V30 495 H 68.9561 1.61644 6.13565 0
M  V30 496 P 70.8137 3.65191 7.99657 0
M  V30 497 O 72.2357 3.8425 8.48115 0
M  V30 498 O 70.4537 4.17805 6.64342 0
M  V30 499 O 70.4907 2.07613 7.95143 0
M  V30 500 C 70.3307 1.44328 9.27336 0
M  V30 501 C 70.8707 0.0220036 9.17197 0
M  V30 502 O 69.8147 -0.626867 8.61923 0
M  V30 503 C 72.0887 -0.24586 8.30336 0
M  V30 504 O 72.8267 -1.39011 8.63583 0
M  V30 505 C 71.4197 -0.273849 6.91158 0
M  V30 506 O 72.2187 -1.06348 6.02892 0
M  V30 507 C 70.0827 -0.897649 7.22545 0
M  V30 508 H 70.1147 -1.9841 7.04286 0
M  V30 509 H 71.2977 0.739928 6.497 0
M  V30 510 H 72.7817 0.60668 8.36503 0
M  V30 511 H 71.0877 -0.352479 10.1829 0
M  V30 512 H 70.8977 2.00611 10.0304 0
M  V30 513 H 69.2677 1.41843 9.55327 0
M  V30 514 H 71.9067 -1.95734 6.03555 0
M  V30 515 P 73.7642 -1.25109 8.70152 0
M  V30 516 O 75.1862 -1.35274 9.21221 0
M  V30 517 O 73.4042 -0.0769065 7.84762 0
M  V30 518 O 73.4412 -2.55232 7.81161 0
M  V30 519 C 73.2812 -3.79939 8.58154 0
M  V30 520 C 73.8212 -4.94023 7.72785 0
M  V30 521 O 72.7652 -5.18726 6.91205 0
M  V30 522 C 75.0392 -4.69597 6.85231 0
M  V30 523 O 75.7772 -5.83832 6.51337 0
M  V30 524 C 74.3702 -3.96706 5.66633 0
M  V30 525 O 75.1692 -4.15414 4.49689 0
M  V30 526 C 73.0332 -4.66153 5.59313 0
M  V30 527 H 73.0652 -5.47679 4.85214 0
M  V30 528 H 74.2482 -2.89008 5.86566 0
M  V30 529 H 75.7322 -4.0121 7.36511 0
M  V30 530 H 74.0382 -5.80182 8.37584 0
M  V30 531 H 73.8482 -3.73517 9.52265 0
M  V30 532 H 72.2182 -3.97163 8.80359 0
M  V30 533 H 74.8572 -4.90969 4.01921 0
M  V30 534 P 76.7148 -5.75688 6.64379 0
M  V30 535 O 78.1368 -6.11849 7.01846 0
M  V30 536 O 76.3548 -4.30744 6.56026 0
M  V30 537 O 76.3918 -6.37042 5.19165 0
M  V30 538 C 76.2318 -7.83578 5.16515 0
M  V30 539 C 76.7718 -8.33398 3.83019 0
M  V30 540 O 75.7158 -8.10074 3.01034 0
M  V30 541 C 77.9898 -7.65514 3.2257 0
M  V30 542 O 78.7278 -8.4329 2.32297 0
M  V30 543 C 77.3208 -6.40075 2.62207 0
M  V30 544 O 78.1198 -5.92589 1.53712 0
M  V30 545 C 75.9838 -6.9454 2.18503 0
M  V30 546 H 76.0158 -7.23063 1.12091 0
M  V30 547 H 77.1988 -5.6025 3.37201 0
M  V30 548 H 78.6828 -7.35707 4.02681 0
M  V30 549 H 76.9888 -9.40912 3.9095 0
M  V30 550 H 76.7988 -8.29056 5.99158 0
M  V30 551 H 75.1688 -8.10073 5.25882 0
M  V30 552 H 77.8078 -6.30324 0.726794 0
M  V30 553 P 79.6654 -8.4349 2.47671 0
M  V30 554 O 81.0874 -8.94167 2.5964 0
M  V30 555 O 79.3054 -7.1704 3.19006 0
M  V30 556 O 79.3424 -8.16596 0.923387 0
M  V30 557 C 79.1824 -9.38437 0.108857 0
M  V30 558 C 79.7224 -9.08175 -1.28353 0
M  V30 559 O 78.6664 -8.44229 -1.84713 0
M  V30 560 C 80.9404 -8.18386 -1.42505 0
M  V30 561 O 81.6784 -8.3501 -2.60497 0
M  V30 562 C 80.2714 -6.80225 -1.25468 0
M  V30 563 O 81.0704 -5.81621 -1.91066 0
M  V30 564 C 78.9344 -7.02416 -1.9168 0
M  V30 565 H 78.9664 -6.6888 -2.96621 0
M  V30 566 H 80.1494 -6.53617 -0.192223 0
M  V30 567 H 81.6334 -8.36622 -0.589963 0
M  V30 568 H 79.9394 -10.0291 -1.79807 0
M  V30 569 H 79.7494 -10.2138 0.558219 0
M  V30 570 H 78.1194 -9.6579 0.0444202 0
M  V30 571 H 80.7584 -5.69556 -2.79637 0
M  V30 572 P 82.616 -8.4349 -2.47671 0
M  V30 573 O 84.038 -8.92785 -2.65057 0
M  V30 574 O 82.256 -7.7568 -1.19296 0
M  V30 575 O 82.293 -7.36886 -3.63805 0
M  V30 576 C 82.133 -7.95349 -4.982 0
M  V30 577 C 82.673 -6.94537 -5.98908 0
M  V30 578 O 81.618 -6.10347 -6.11815 0
M  V30 579 C 83.891 -6.11426 -5.62335 0
M  V30 580 O 84.629 -5.6162 -6.70584 0
M  V30 581 C 83.223 -5.04409 -4.73308 0
M  V30 582 O 84.021 -3.85929 -4.75106 0
M  V30 583 C 81.885 -4.8728 -5.41006 0
M  V30 584 N 80.842 -4.65812 -4.42377 0
M  V30 585 C 80.904 -5.27109 -3.24335 0
M  V30 586 N 79.859 -4.94293 -2.47735 0
M  V30 587 C 79.125 -4.1271 -3.23359 0
M  V30 588 C 77.819 -3.56384 -2.99934 0
M  V30 589 O 77.086 -3.69331 -2.00616 0
M  V30 590 N 77.389 -2.80206 -4.03316 0
M  V30 591 C 78.138 -2.58614 -5.2172 0
M  V30 592 N 77.541 -1.75154 -6.13278 0
M  V30 593 N 79.291 -3.13689 -5.47619 0
M  V30 594 C 79.748 -3.90921 -4.46436 0
M  V30 595 H 81.917 -4.02333 -6.11157 0
M  V30 596 H 83.1 -5.39383 -3.69487 0
M  V30 597 H 84.585 -6.71414 -5.02615 0
M  V30 598 H 82.89 -7.4649 -6.93477 0
M  V30 599 H 82.7 -8.89416 -5.05237 0
M  V30 600 H 81.069 -8.14876 -5.18409 0
M  V30 601 H 76.493 -2.36355 -3.95916 0
M  V30 602 H 81.7 -5.95212 -2.93859 0
M  V30 603 H 76.63 -1.32473 -5.91856 0
M  V30 604 H 78.006 -1.5588 -7.03026 0
M  V30 605 H 83.71 -3.27906 -5.43085 0
M  V30 606 P 85.5665 -5.75688 -6.64379 0
M  V30 607 O 86.9885 -6.07627 -7.05504 0
M  V30 608 O 85.2065 -5.88047 -5.19722 0
M  V30 609 O 85.2435 -4.2322 -7.04443 0
M  V30 610 C 85.0835 -3.99743 -8.4911 0
M  V30 611 C 85.6235 -2.60516 -8.79425 0
M  V30 612 O 84.5675 -1.82684 -8.4467 0
M  V30 613 C 86.8415 -2.10343 -8.03628 0
M  V30 614 O 87.5795 -1.09919 -8.67766 0
M  V30 615 C 86.1725 -1.68446 -6.70876 0
M  V30 616 O 86.9715 -0.678137 -6.08433 0
M  V30 617 C 84.8355 -1.17436 -7.18567 0
M  V30 618 H 84.8675 -0.0804732 -7.31656 0
M  V30 619 H 86.0505 -2.54037 -6.02537 0
M  V30 620 H 87.5345 -2.93881 -7.85526 0
M  V30 621 H 85.8405 -2.53065 -9.86973 0
M  V30 622 H 85.6505 -4.75072 -9.05887 0
M  V30 623 H 84.0205 -4.05244 -8.76668 0
M  V30 624 H 86.6595 0.177647 -6.34251 0
M  V30 625 P 88.5171 -1.25109 -8.70152 0
M  V30 626 O 89.9391 -1.29744 -9.22016 0
M  V30 627 O 88.1571 -2.13714 -7.55141 0
M  V30 628 O 88.1941 0.248149 -8.21425 0
M  V30 629 C 88.0341 1.22779 -9.30434 0
M  V30 630 C 88.5741 2.56293 -8.80664 0
M  V30 631 O 87.5181 3.02979 -8.09349 0
M  V30 632 C 89.7921 2.57523 -7.89775 0
M  V30 633 O 90.5301 3.7668 -7.89438 0
M  V30 634 C 89.1231 2.20997 -6.55446 0
M  V30 635 O 89.9221 2.71895 -5.48509 0
M  V30 636 C 87.7861 2.89693 -6.67988 0
M  V30 637 H 87.8181 3.88793 -6.19859 0
M  V30 638 H 89.0011 1.12046 -6.44229 0
M  V30 639 H 90.4851 1.7746 -8.19711 0
M  V30 640 H 88.7911 3.20706 -9.67112 0
M  V30 641 H 88.6011 0.901032 -10.1892 0
M  V30 642 H 86.9711 1.33049 -9.56592 0
M  V30 643 H 89.6101 3.57847 -5.23962 0
M  V30 644 P 91.4677 3.65191 -7.99657 0
M  V30 645 O 92.8897 3.89416 -8.45976 0
M  V30 646 O 91.1077 2.28472 -7.50807 0
M  V30 647 O 91.1447 4.64972 -6.77611 0
M  V30 648 C 90.9847 6.06319 -7.16352 0
M  V30 649 C 91.5247 6.91655 -6.02234 0
M  V30 650 O 90.4697 6.92449 -5.17064 0
M  V30 651 C 92.7427 6.43627 -5.25174 0
M  V30 652 O 93.4807 7.43686 -4.60469 0
M  V30 653 C 92.0747 5.40275 -4.31916 0
M  V30 654 O 92.8727 5.25193 -3.14386 0
M  V30 655 C 90.7367 6.04847 -4.05327 0
M  V30 656 N 89.6937 5.04166 -3.98114 0
M  V30 657 C 89.7557 3.96049 -4.75587 0
M  V30 658 N 88.7107 3.15559 -4.54006 0
M  V30 659 C 87.9767 3.78802 -3.62491 0
M  V30 660 C 86.6707 3.476 -3.10071 0
M  V30 661 O 85.9377 2.51136 -3.37021 0
M  V30 662 N 86.2407 4.39088 -2.19956 0
M  V30 663 C 86.9897 5.53215 -1.81733 0
M  V30 664 N 86.3927 6.31963 -0.860928 0
M  V30 665 N 88.1427 5.86688 -2.32562 0
M  V30 666 C 88.5997 4.97525 -3.23407 0
M  V30 667 H 90.7687 6.62195 -3.11261 0
M  V30 668 H 91.9517 4.42488 -4.8131 0
M  V30 669 H 93.4367 5.93051 -5.9305 0
M  V30 670 H 91.7417 7.92655 -6.402 0
M  V30 671 H 91.5517 6.26671 -8.0846 0
M  V30 672 H 89.9207 6.29101 -7.32804 0
M  V30 673 H 85.3447 4.25523 -1.77604 0
M  V30 674 H 90.5517 3.75576 -5.47333 0
M  V30 675 H 85.4817 6.04684 -0.468946 0
M  V30 676 H 86.8577 7.18054 -0.542422 0
M  V30 677 H 92.5617 5.84223 -2.47279 0
M  V30 678 P 94.4182 7.39546 -4.75277 0
M  V30 679 O 95.8402 7.84798 -5.01039 0
M  V30 680 O 94.0582 5.9812 -5.08098 0
M  V30 681 O 94.0952 7.57503 -3.1866 0
M  V30 682 C 93.9352 8.97357 -2.74833 0
M  V30 683 C 94.4752 9.07548 -1.32709 0
M  V30 684 O 93.4192 8.62072 -0.606159 0
M  V30 685 C 95.6932 8.25383 -0.938334 0
M  V30 686 O 96.4312 8.74577 0.146954 0
M  V30 687 C 95.0242 6.8802 -0.712559 0
M  V30 688 O 95.8232 6.1189 0.194655 0
M  V30 689 C 93.6872 7.27966 -0.139777 0
M  V30 690 H 93.7192 7.25354 0.961601 0
M  V30 691 H 94.9022 6.32557 -1.65702 0
M  V30 692 H 96.3862 8.19355 -1.79097 0
M  V30 693 H 94.6922 10.1294 -1.10029 0
M  V30 694 H 94.5022 9.64276 -3.41316 0
M  V30 695 H 92.8722 9.25417 -2.76357 0
M  V30 696 H 95.5112 6.25267 1.07847 0
M  V30 697 P 97.3688 8.791 -6.89233e-14 0
M  V30 698 O 98.7908 9.31096 0.027933 0
M  V30 699 O 97.0088 7.77869 -1.04071 0
M  V30 700 O 97.0458 8.09533 1.41463 0
M  V30 701 C 96.8858 9.0349 2.53943 0
M  V30 702 C 97.4258 8.35226 3.79016 0
M  V30 703 O 96.3698 7.57992 4.15078 0
M  V30 704 C 98.6438 7.45087 3.67298 0
M  V30 705 O 99.3818 7.27796 4.85194 0
M  V30 706 C 97.9748 6.17323 3.12027 0
M  V30 707 O 98.7738 5.04231 3.47188 0
M  V30 708 C 96.6378 6.19961 3.81809 0
M  V30 709 H 96.6698 5.58218 4.73051 0
M  V30 710 H 97.8528 6.21726 2.02589 0
M  V30 711 H 99.3368 7.86112 2.9231 0
M  V30 712 H 97.6428 9.11627 4.55076 0
M  V30 713 H 97.4528 9.9573 2.34194 0
M  V30 714 H 95.8228 9.2792 2.67832 0
M  V30 715 H 98.4618 4.67702 4.28772 0
M  V30 716 P 100.319 7.39546 4.75277 0
M  V30 717 O 101.741 7.81777 5.05738 0
M  V30 718 O 99.9594 7.1065 3.32998 0
M  V30 719 O 99.9964 6.04542 5.56673 0
M  V30 720 C 99.8364 6.22772 7.02095 0
M  V30 721 C 100.376 4.97725 7.70406 0
M  V30 722 O 99.3204 4.13256 7.58987 0
M  V30 723 C 101.594 4.28231 7.11815 0
M  V30 724 O 102.332 3.49945 8.01648 0
M  V30 725 C 100.925 3.5063 5.96244 0
M  V30 726 O 101.724 2.36482 5.64681 0
M  V30 727 C 99.5884 3.15122 6.56374 0
M  V30 728 H 99.6204 2.13853 6.99751 0
M  V30 729 H 100.803 4.13501 5.06559 0
M  V30 730 H 102.287 5.03285 6.70911 0
M  V30 731 H 100.593 5.20877 8.75697 0
M  V30 732 H 100.403 7.11046 7.35349 0
M  V30 733 H 98.7734 6.35815 7.26986 0
M  V30 734 H 101.412 1.61644 6.13565 0
M  V30 735 P 103.27 3.65191 7.99657 0
M  V30 736 O 104.692 3.8425 8.48115 0
M  V30 737 O 102.91 4.17805 6.64342 0
M  V30 738 O 102.947 2.07613 7.95143 0
M  V30 739 C 102.787 1.44328 9.27336 0
M  V30 740 C 103.327 0.0220036 9.17197 0
M  V30 741 O 102.271 -0.626867 8.61923 0
M  V30 742 C 104.545 -0.24586 8.30336 0
M  V30 743 O 105.283 -1.39011 8.63583 0
M  V30 744 C 103.876 -0.273849 6.91158 0
M  V30 745 O 104.675 -1.06348 6.02892 0
M  V30 746 C 102.539 -0.897649 7.22545 0
M  V30 747 H 102.571 -1.9841 7.04286 0
M  V30 748 H 103.754 0.739928 6.497 0
M  V30 749 H 105.238 0.60668 8.36503 0
M  V30 750 H 103.544 -0.352479 10.1829 0
M  V30 751 H 103.354 2.00611 10.0304 0
M  V30 752 H 101.724 1.41843 9.55327 0
M  V30 753 H 104.363 -1.95734 6.03555 0
M  V30 754 P 106.221 -1.25109 8.70152 0
M  V30 755 O 107.643 -1.35274 9.21221 0
M  V30 756 O 105.861 -0.0769065 7.84762 0
M  V30 757 O 105.898 -2.55232 7.81161 0
M  V30 758 C 105.738 -3.79939 8.58154 0
M  V30 759 C 106.278 -4.94023 7.72785 0
M  V30 760 O 105.222 -5.18726 6.91205 0
M  V30 761 C 107.496 -4.69597 6.85231 0
M  V30 762 O 108.234 -5.83832 6.51337 0
M  V30 763 C 106.827 -3.96706 5.66633 0
M  V30 764 O 107.626 -4.15414 4.49689 0
M  V30 765 C 105.49 -4.66153 5.59313 0
M  V30 766 H 105.522 -5.47679 4.85214 0
M  V30 767 H 106.705 -2.89008 5.86566 0
M  V30 768 H 108.189 -4.0121 7.36511 0
M  V30 769 H 106.495 -5.80182 8.37584 0
M  V30 770 H 106.305 -3.73517 9.52265 0
M  V30 771 H 104.675 -3.97163 8.80359 0
M  V30 772 H 107.314 -4.90969 4.01921 0
M  V30 773 P 109.171 -5.75688 6.64379 0
M  V30 774 O 110.593 -6.11849 7.01846 0
M  V30 775 O 108.811 -4.30744 6.56026 0
M  V30 776 O 108.848 -6.37042 5.19165 0
M  V30 777 C 108.688 -7.83578 5.16515 0
M  V30 778 C 109.228 -8.33398 3.83019 0
M  V30 779 O 108.172 -8.10074 3.01034 0
M  V30 780 C 110.446 -7.65514 3.2257 0
M  V30 781 O 111.184 -8.4329 2.32297 0
M  V30 782 C 109.777 -6.40075 2.62207 0
M  V30 783 O 110.576 -5.92589 1.53712 0
M  V30 784 C 108.44 -6.9454 2.18503 0
M  V30 785 H 108.472 -7.23063 1.12091 0
M  V30 786 H 109.655 -5.6025 3.37201 0
M  V30 787 H 111.139 -7.35707 4.02681 0
M  V30 788 H 109.445 -9.40912 3.9095 0
M  V30 789 H 109.255 -8.29056 5.99158 0
M  V30 790 H 107.625 -8.10073 5.25882 0
M  V30 791 H 110.264 -6.30324 0.726794 0
M  V30 792 P 112.122 -8.4349 2.47671 0
M  V30 793 O 113.544 -8.94167 2.5964 0
M  V30 794 O 111.762 -7.1704 3.19006 0
M  V30 795 O 111.799 -8.16596 0.923387 0
M  V30 796 C 111.639 -9.38437 0.108857 0
M  V30 797 C 112.179 -9.08175 -1.28353 0
M  V30 798 O 111.123 -8.44229 -1.84713 0
M  V30 799 C 113.397 -8.18386 -1.42505 0
M  V30 800 O 114.135 -8.3501 -2.60497 0
M  V30 801 C 112.728 -6.80225 -1.25468 0
M  V30 802 O 113.527 -5.81621 -1.91066 0
M  V30 803 C 111.391 -7.02416 -1.9168 0
M  V30 804 H 111.423 -6.6888 -2.96621 0
M  V30 805 H 112.606 -6.53617 -0.192223 0
M  V30 806 H 114.09 -8.36622 -0.589963 0
M  V30 807 H 112.396 -10.0291 -1.79807 0
M  V30 808 H 112.206 -10.2138 0.558219 0
M  V30 809 H 110.576 -9.6579 0.0444202 0
M  V30 810 H 113.215 -5.69556 -2.79637 0
M  V30 811 P 115.072 -8.4349 -2.47671 0
M  V30 812 O 116.494 -8.92593 -2.65 0
M  V30 813 O 114.712 -7.7568 -1.19296 0
M  V30 814 O 114.749 -7.36886 -3.63805 0
M  V30 815 C 114.589 -7.95349 -4.982 0
M  V30 816 C 115.129 -6.94612 -5.98974 0
M  V30 817 O 114.073 -6.10347 -6.11815 0
M  V30 818 C 116.347 -6.11426 -5.62335 0
M  V30 819 O 117.085 -5.6162 -6.70584 0
M  V30 820 C 115.678 -5.04409 -4.73308 0
M  V30 821 O 116.477 -3.85992 -4.75183 0
M  V30 822 C 114.341 -4.8728 -5.41006 0
M  V30 823 H 114.373 -4.02333 -6.11157 0
M  V30 824 H 115.556 -5.39466 -3.69543 0
M  V30 825 H 117.04 -6.71916 -5.01943 0
M  V30 826 H 115.346 -7.4649 -6.93477 0
M  V30 827 H 115.156 -8.89416 -5.05237 0
M  V30 828 H 113.526 -8.14876 -5.18409 0
M  V30 829 H 116.165 -3.27957 -5.4317 0
M  V30 830 P 118.023 -5.75688 -6.64379 0
M  V30 831 O 119.445 -6.07627 -7.05504 0
M  V30 832 O 117.663 -5.88047 -5.19722 0
M  V30 833 O 117.7 -4.2322 -7.04443 0
M  V30 834 C 117.54 -3.99743 -8.4911 0
M  V30 835 C 118.08 -2.60516 -8.79425 0
M  V30 836 O 117.024 -1.82684 -8.4467 0
M  V30 837 C 119.298 -2.10343 -8.03628 0
M  V30 838 O 120.036 -1.09919 -8.67766 0
M  V30 839 C 118.629 -1.68446 -6.70876 0
M  V30 840 O 119.428 -0.678137 -6.08433 0
M  V30 841 C 117.292 -1.17436 -7.18567 0
M  V30 842 H 117.324 -0.0804732 -7.31656 0
M  V30 843 H 118.507 -2.54037 -6.02537 0
M  V30 844 H 119.991 -2.93881 -7.85526 0
M  V30 845 H 118.297 -2.53065 -9.86973 0
M  V30 846 H 118.107 -4.75072 -9.05887 0
M  V30 847 H 116.477 -4.05244 -8.76668 0
M  V30 848 H 119.116 0.177647 -6.34251 0
M  V30 849 P 120.973 -1.25109 -8.70152 0
M  V30 850 O 122.395 -1.29772 -9.22214 0
M  V30 851 O 120.613 -2.13714 -7.55141 0
M  V30 852 O 120.65 0.248149 -8.21425 0
M  V30 853 C 120.49 1.22779 -9.30434 0
M  V30 854 C 121.03 2.56265 -8.80568 0
M  V30 855 O 119.975 3.02979 -8.09349 0
M  V30 856 C 122.248 2.57523 -7.89775 0
M  V30 857 O 122.986 3.7668 -7.89438 0
M  V30 858 C 121.58 2.20997 -6.55446 0
M  V30 859 O 122.378 2.71851 -5.48419 0
M  V30 860 C 120.242 2.89693 -6.67988 0
M  V30 861 N 119.199 2.08895 -6.07487 0
M  V30 862 C 119.261 0.760559 -6.14209 0
M  V30 863 N 118.216 0.200108 -5.52538 0
M  V30 864 C 117.482 1.22692 -5.09742 0
M  V30 865 C 116.176 1.24782 -4.48775 0
M  V30 866 O 115.443 0.290617 -4.19294 0
M  V30 867 N 115.746 2.50468 -4.22428 0
M  V30 868 C 116.495 3.67142 -4.51974 0
M  V30 869 N 115.898 4.85096 -4.14091 0
M  V30 870 N 117.648 3.67821 -5.12831 0
M  V30 871 C 118.105 2.43698 -5.4105 0
M  V30 872 H 120.274 3.88793 -6.19859 0
M  V30 873 H 121.457 1.12029 -6.4413 0
M  V30 874 H 122.942 1.78279 -8.19533 0
M  V30 875 H 121.247 3.20706 -9.67112 0
M  V30 876 H 121.057 0.901032 -10.1892 0
M  V30 877 H 119.426 1.33049 -9.56592 0
M  V30 878 H 114.85 2.61953 -3.79465 0
M  V30 879 H 120.057 0.200439 -6.63497 0
M  V30 880 H 114.987 4.8334 -3.66367 0
M  V30 881 H 116.363 5.7474 -4.33841 0
M  V30 882 H 122.067 3.5779 -5.23879 0
M  V30 883 P 123.924 3.65191 -7.99657 0
M  V30 884 O 125.346 3.89416 -8.45976 0
M  V30 885 O 123.564 2.28472 -7.50807 0
M  V30 886 O 123.601 4.64972 -6.77611 0
M  V30 887 C 123.441 6.06319 -7.16352 0
M  V30 888 C 123.981 6.91655 -6.02234 0
M  V30 889 O 122.926 6.92449 -5.17064 0
M  V30 890 C 125.199 6.43627 -5.25174 0
M  V30 891 O 125.937 7.43686 -4.60469 0
M  V30 892 C 124.531 5.40275 -4.31916 0
M  V30 893 O 125.329 5.25193 -3.14386 0
M  V30 894 C 123.193 6.04847 -4.05327 0
M  V30 895 N 122.15 5.04166 -3.98114 0
M  V30 896 C 122.212 3.96049 -4.75587 0
M  V30 897 N 121.167 3.15559 -4.54006 0
M  V30 898 C 120.433 3.78802 -3.62491 0
M  V30 899 C 119.127 3.476 -3.10071 0
M  V30 900 O 118.394 2.51136 -3.37021 0
M  V30 901 N 118.697 4.39088 -2.19956 0
M  V30 902 C 119.446 5.53215 -1.81733 0
M  V30 903 N 118.849 6.31963 -0.860928 0
M  V30 904 N 120.599 5.86688 -2.32562 0
M  V30 905 C 121.056 4.97525 -3.23407 0
M  V30 906 H 123.225 6.62195 -3.11261 0
M  V30 907 H 124.408 4.42488 -4.8131 0
M  V30 908 H 125.893 5.93051 -5.9305 0
M  V30 909 H 124.198 7.92655 -6.402 0
M  V30 910 H 124.008 6.26671 -8.0846 0
M  V30 911 H 122.377 6.29101 -7.32804 0
M  V30 912 H 117.801 4.25523 -1.77604 0
M  V30 913 H 123.008 3.75576 -5.47333 0
M  V30 914 H 117.938 6.04684 -0.468946 0
M  V30 915 H 119.314 7.18054 -0.542422 0
M  V30 916 H 125.018 5.84223 -2.47279 0
M  V30 917 P 126.875 7.39546 -4.75277 0
M  V30 918 O 128.296 7.84882 -5.01092 0
M  V30 919 O 126.515 5.9812 -5.08098 0
M  V30 920 O 126.552 7.57503 -3.1866 0
M  V30 921 C 126.391 8.97452 -2.74862 0
M  V30 922 C 126.932 9.07548 -1.32709 0
M  V30 923 O 125.877 8.61972 -0.606089 0
M  V30 924 C 128.15 8.25383 -0.938334 0
M  V30 925 O 128.888 8.74577 0.146954 0
M  V30 926 C 127.482 6.8802 -0.712559 0
M  V30 927 O 128.28 6.1181 0.188505 0
M  V30 928 C 126.144 7.27966 -0.139777 0
M  V30 929 N 125.101 6.39368 -0.623421 0
M  V30 930 C 125.27 5.71761 -1.78245 0
M  V30 931 N 124.243 4.962 -2.10491 0
M  V30 932 C 123.358 5.16158 -1.0635 0
M  V30 933 C 122.091 4.60425 -0.810266 0
M  V30 934 N 121.492 3.7057 -1.62914 0
M  V30 935 N 121.526 5.06 0.348685 0
M  V30 936 C 122.128 5.94532 1.20395 0
M  V30 937 N 123.305 6.48452 1.01191 0
M  V30 938 C 123.88 6.04423 -0.146291 0
M  V30 939 H 126.176 7.25255 0.961469 0
M  V30 940 H 127.359 6.32625 -1.65044 0
M  V30 941 H 128.842 8.19355 -1.79097 0
M  V30 942 H 127.148 10.1305 -1.09016 0
M  V30 943 H 126.958 9.64276 -3.41316 0
M  V30 944 H 125.328 9.25417 -2.76357 0
M  V30 945 H 121.592 6.21659 2.10714 0
M  V30 946 H 126.17 5.79354 -2.38959 0
M  V30 947 H 120.562 3.33174 -1.38982 0
M  V30 948 H 121.966 3.39714 -2.48836 0
M  V30 949 H 127.968 6.25169 1.0783 0
M  V30 950 P 129.825 8.791 -1.02308e-13 0
M  V30 951 O 131.247 9.31096 0.027933 0
M  V30 952 O 129.465 7.77869 -1.04071 0
M  V30 953 O 129.502 8.09533 1.41463 0
M  V30 954 C 129.342 9.0349 2.53943 0
M  V30 955 C 129.882 8.35226 3.79016 0
M  V30 956 O 128.826 7.57992 4.15078 0
M  V30 957 C 131.1 7.45087 3.67298 0
M  V30 958 O 131.838 7.27796 4.85194 0
M  V30 959 C 130.431 6.17323 3.12027 0
M  V30 960 O 131.23 5.04231 3.47188 0
M  V30 961 C 129.094 6.19961 3.81809 0
M  V30 962 H 129.126 5.58218 4.73051 0
M  V30 963 H 130.309 6.21726 2.02589 0
M  V30 964 H 131.793 7.86112 2.9231 0
M  V30 965 H 130.099 9.11627 4.55076 0
M  V30 966 H 129.909 9.9573 2.34194 0
M  V30 967 H 128.279 9.2792 2.67832 0
M  V30 968 H 130.918 4.67702 4.28772 0
M  V30 969 P 132.776 7.39546 4.75277 0
M  V30 970 O 134.197 7.81861 5.05793 0
M  V30 971 O 132.416 7.1065 3.32998 0
M  V30 972 O 132.453 6.04542 5.56673 0
M  V30 973 C 132.292 6.22839 7.02169 0
M  V30 974 C 132.833 4.97725 7.70406 0
M  V30 975 O 131.778 4.13208 7.58899 0
M  V30 976 C 134.051 4.28231 7.11815 0
M  V30 977 O 134.789 3.49945 8.01648 0
M  V30 978 C 133.383 3.5063 5.96244 0
M  V30 979 O 134.181 2.37008 5.64352 0
M  V30 980 C 132.045 3.15122 6.56374 0
M  V30 981 N 131.002 3.22311 5.55692 0
M  V30 982 C 131.171 3.99655 4.46046 0
M  V30 983 N 130.144 3.97599 3.63918 0
M  V30 984 C 129.259 3.11159 4.25334 0
M  V30 985 C 127.992 2.64972 3.85157 0
M  V30 986 N 127.427 1.78482 4.74759 0
M  V30 987 C 128.029 1.37463 5.90819 0
M  V30 988 N 129.206 1.7733 6.31889 0
M  V30 989 C 129.781 2.64393 5.43725 0
M  V30 990 H 133.26 4.12931 5.06895 0
M  V30 991 H 134.743 5.03285 6.70911 0
M  V30 992 H 133.049 5.20001 8.76217 0
M  V30 993 H 132.859 7.11046 7.35349 0
M  V30 994 H 131.229 6.35815 7.26986 0
M  V30 995 H 132.071 4.58037 4.27732 0
M  V30 996 H 133.869 1.61619 6.13468 0
M  V30 997 P 135.726 3.65191 7.99657 0
M  V30 998 O 137.148 3.84333 8.48297 0
M  V30 999 O 135.366 4.17805 6.64342 0
M  V30 1000 O 135.403 2.07613 7.95143 0
M  V30 1001 C 135.243 1.44328 9.27336 0
M  V30 1002 C 135.783 0.0220012 9.17097 0
M  V30 1003 O 134.728 -0.626867 8.61923 0
M  V30 1004 C 137.001 -0.24586 8.30336 0
M  V30 1005 O 137.739 -1.39011 8.63583 0
M  V30 1006 C 136.333 -0.273849 6.91158 0
M  V30 1007 O 137.131 -1.06331 6.02794 0
M  V30 1008 C 134.995 -0.897649 7.22545 0
M  V30 1009 N 133.952 -0.292839 6.41732 0
M  V30 1010 C 134.014 1.00068 6.10757 0
M  V30 1011 N 132.969 1.36468 5.35794 0
M  V30 1012 C 132.235 0.258894 5.2366 0
M  V30 1013 C 130.929 0.0670682 4.65752 0
M  V30 1014 O 130.196 0.902443 4.10497 0
M  V30 1015 N 130.499 -1.2131 4.75881 0
M  V30 1016 C 131.248 -2.24934 5.37101 0
M  V30 1017 N 130.651 -3.48783 5.33984 0
M  V30 1018 N 132.401 -2.0844 5.95684 0
M  V30 1019 C 132.858 -0.81395 5.87791 0
M  V30 1020 H 135.027 -1.9841 7.04286 0
M  V30 1021 H 136.21 0.739815 6.49601 0
M  V30 1022 H 137.695 0.598315 8.36563 0
M  V30 1023 H 136 -0.352479 10.1829 0
M  V30 1024 H 135.81 2.00611 10.0304 0
M  V30 1025 H 134.179 1.41843 9.55327 0
M  V30 1026 H 129.603 -1.44434 4.37895 0
M  V30 1027 H 134.81 1.67697 6.42268 0
M  V30 1028 H 129.74 -3.60543 4.87699 0
M  V30 1029 H 131.116 -4.29232 5.7819 0
M  V30 1030 H 136.82 -1.95704 6.0346 0
M  V30 1031 P 138.677 -1.25109 8.70152 0
M  V30 1032 O 140.099 -1.35274 9.21221 0
M  V30 1033 O 138.317 -0.0769065 7.84762 0
M  V30 1034 O 138.354 -2.55232 7.81161 0
M  V30 1035 C 138.194 -3.79939 8.58154 0
M  V30 1036 C 138.734 -4.94023 7.72785 0
M  V30 1037 O 137.678 -5.18726 6.91205 0
M  V30 1038 C 139.952 -4.69597 6.85231 0
M  V30 1039 O 140.69 -5.83832 6.51337 0
M  V30 1040 C 139.283 -3.96706 5.66633 0
M  V30 1041 O 140.082 -4.15414 4.49689 0
M  V30 1042 C 137.946 -4.66153 5.59313 0
M  V30 1043 H 137.978 -5.47679 4.85214 0
M  V30 1044 H 139.161 -2.89008 5.86566 0
M  V30 1045 H 140.645 -4.0121 7.36511 0
M  V30 1046 H 138.951 -5.80182 8.37584 0
M  V30 1047 H 138.761 -3.73517 9.52265 0
M  V30 1048 H 137.131 -3.97163 8.80359 0
M  V30 1049 H 139.77 -4.90969 4.01921 0
M  V30 1050 P 141.627 -5.75688 6.64379 0
M  V30 1051 O 143.028 -6.11991 7.09136 0
M  V30 1052 O 141.249 -4.30899 6.62018 0
M  V30 1053 O 141.304 -6.36965 5.19102 0
M  V30 1054 C 141.144 -7.83578 5.16515 0
M  V30 1055 C 141.684 -8.33307 3.82977 0
M  V30 1056 O 140.628 -8.0998 3.00999 0
M  V30 1057 C 142.901 -7.65514 3.2257 0
M  V30 1058 O 143.64 -8.4329 2.32297 0
M  V30 1059 C 142.234 -6.40075 2.62207 0
M  V30 1060 O 143.032 -5.92492 1.53687 0
M  V30 1061 C 140.896 -6.9454 2.18503 0
M  V30 1062 N 139.853 -5.95905 2.39948 0
M  V30 1063 C 138.818 -5.89764 1.49837 0
M  V30 1064 O 138.857 -6.64088 0.490975 0
M  V30 1065 N 137.806 -5.02821 1.70992 0
M  V30 1066 C 137.854 -4.21498 2.77236 0
M  V30 1067 C 138.95 -4.23389 3.68205 0
M  V30 1068 C 139.916 -5.12792 3.46171 0
M  V30 1069 H 140.928 -7.22964 1.12076 0
M  V30 1070 H 142.111 -5.60502 3.36589 0
M  V30 1071 H 143.595 -7.36197 4.01993 0
M  V30 1072 H 141.901 -9.41302 3.90009 0
M  V30 1073 H 141.71 -8.29056 5.99158 0
M  V30 1074 H 140.08 -8.09989 5.25828 0
M  V30 1075 H 138.998 -3.54747 4.52399 0
M  V30 1076 H 140.762 -5.18551 4.1489 0
M  V30 1077 H 142.816 -6.40705 0.751752 0
M  V30 1078 P 144.578 -8.4349 2.47671 0
M  V30 1079 O 145.999 -8.94263 2.59668 0
M  V30 1080 O 144.218 -7.1704 3.19006 0
M  V30 1081 O 144.255 -8.16596 0.923387 0
M  V30 1082 C 144.094 -9.38537 0.108869 0
M  V30 1083 C 144.635 -9.08175 -1.28353 0
M  V30 1084 O 143.58 -8.44131 -1.84692 0
M  V30 1085 C 145.853 -8.18386 -1.42505 0
M  V30 1086 O 146.591 -8.3501 -2.60497 0
M  V30 1087 C 145.185 -6.80225 -1.25468 0
M  V30 1088 O 145.983 -5.81716 -1.90454 0
M  V30 1089 C 143.847 -7.02416 -1.9168 0
M  V30 1090 N 142.804 -6.31033 -1.20314 0
M  V30 1091 C 142.973 -5.98817 0.0994088 0
M  V30 1092 N 141.946 -5.35403 0.621694 0
M  V30 1093 C 141.061 -5.25212 -0.43376 0
M  V30 1094 C 139.794 -4.64602 -0.519722 0
M  V30 1095 N 139.195 -4.01457 0.519136 0
M  V30 1096 N 139.229 -4.7568 -1.76013 0
M  V30 1097 C 139.831 -5.3653 -2.83017 0
M  V30 1098 N 141.008 -5.93676 -2.79782 0
M  V30 1099 C 141.583 -5.84061 -1.56249 0
M  V30 1100 H 143.879 -6.68789 -2.9658 0
M  V30 1101 H 145.062 -6.53498 -0.198729 0
M  V30 1102 H 146.545 -8.36622 -0.589963 0
M  V30 1103 H 144.851 -10.0273 -1.8081 0
M  V30 1104 H 144.661 -10.2138 0.558219 0
M  V30 1105 H 143.031 -9.6579 0.0444202 0
M  V30 1106 H 139.295 -5.37113 -3.77321 0
M  V30 1107 H 143.873 -6.23209 0.660562 0
M  V30 1108 H 138.265 -3.58834 0.394862 0
M  V30 1109 H 139.669 -3.96059 1.43048 0
M  V30 1110 H 145.671 -5.69466 -2.79593 0
M  V30 1111 P 147.528 -8.4349 -2.47671 0
M  V30 1112 O 148.95 -8.92593 -2.65 0
M  V30 1113 O 147.168 -7.7568 -1.19296 0
M  V30 1114 O 147.205 -7.36886 -3.63805 0
M  V30 1115 C 147.045 -7.95349 -4.982 0
M  V30 1116 C 147.585 -6.94612 -5.98974 0
M  V30 1117 O 146.529 -6.10347 -6.11815 0
M  V30 1118 C 148.803 -6.11426 -5.62335 0
M  V30 1119 O 149.541 -5.6162 -6.70584 0
M  V30 1120 C 148.134 -5.04409 -4.73308 0
M  V30 1121 O 148.933 -3.85992 -4.75183 0
M  V30 1122 C 146.797 -4.8728 -5.41006 0
M  V30 1123 H 146.829 -4.02333 -6.11157 0
M  V30 1124 H 148.012 -5.39466 -3.69543 0
M  V30 1125 H 149.496 -6.71916 -5.01943 0
M  V30 1126 H 147.802 -7.4649 -6.93477 0
M  V30 1127 H 147.612 -8.89416 -5.05237 0
M  V30 1128 H 145.982 -8.14876 -5.18409 0
M  V30 1129 H 148.621 -3.27957 -5.4317 0
M  V30 1130 P 150.479 -5.75688 -6.64379 0
M  V30 1131 O 151.901 -6.07627 -7.05504 0
M  V30 1132 O 150.119 -5.88047 -5.19722 0
M  V30 1133 O 150.156 -4.2322 -7.04443 0
M  V30 1134 C 149.996 -3.99743 -8.4911 0
M  V30 1135 C 150.536 -2.60516 -8.79425 0
M  V30 1136 O 149.48 -1.82684 -8.4467 0
M  V30 1137 C 151.754 -2.10343 -8.03628 0
M  V30 1138 O 152.492 -1.09919 -8.67766 0
M  V30 1139 C 151.085 -1.68446 -6.70876 0
M  V30 1140 O 151.884 -0.678137 -6.08433 0
M  V30 1141 C 149.748 -1.17436 -7.18567 0
M  V30 1142 H 149.78 -0.0804732 -7.31656 0
M  V30 1143 H 150.963 -2.54037 -6.02537 0
M  V30 1144 H 152.447 -2.93881 -7.85526 0
M  V30 1145 H 150.753 -2.53065 -9.86973 0
M  V30 1146 H 150.563 -4.75072 -9.05887 0
M  V30 1147 H 148.933 -4.05244 -8.76668 0
M  V30 1148 H 151.572 0.177647 -6.34251 0
M  V30 1149 P 153.43 -1.25109 -8.70152 0
M  V30 1150 O 154.852 -1.29744 -9.22016 0
M  V30 1151 O 153.07 -2.13714 -7.55141 0
M  V30 1152 O 153.107 0.248149 -8.21425 0
M  V30 1153 C 152.947 1.22779 -9.30434 0
M  V30 1154 C 153.487 2.56293 -8.80664 0
M  V30 1155 O 152.431 3.02979 -8.09349 0
M  V30 1156 C 154.705 2.57523 -7.89775 0
M  V30 1157 O 155.443 3.7668 -7.89438 0
M  V30 1158 C 154.036 2.20997 -6.55446 0
M  V30 1159 O 154.835 2.71895 -5.48509 0
M  V30 1160 C 152.699 2.89693 -6.67988 0
M  V30 1161 H 152.731 3.88793 -6.19859 0
M  V30 1162 H 153.914 1.12046 -6.44229 0
M  V30 1163 H 155.398 1.7746 -8.19711 0
M  V30 1164 H 153.704 3.20706 -9.67112 0
M  V30 1165 H 153.514 0.901032 -10.1892 0
M  V30 1166 H 151.884 1.33049 -9.56592 0
M  V30 1167 H 154.523 3.57847 -5.23962 0
M  V30 1168 P 156.38 3.65191 -7.99657 0
M  V30 1169 O 157.802 3.89332 -8.45794 0
M  V30 1170 O 156.02 2.28472 -7.50807 0
M  V30 1171 O 156.057 4.64972 -6.77611 0
M  V30 1172 C 155.897 6.06319 -7.16352 0
M  V30 1173 C 156.437 6.91731 -6.02299 0
M  V30 1174 O 155.381 6.92449 -5.17064 0
M  V30 1175 C 157.655 6.43627 -5.25174 0
M  V30 1176 O 158.393 7.43686 -4.60469 0
M  V30 1177 C 156.986 5.40275 -4.31916 0
M  V30 1178 O 157.785 5.25279 -3.14438 0
M  V30 1179 C 155.649 6.04847 -4.05327 0
M  V30 1180 H 155.681 6.62195 -3.11261 0
M  V30 1181 H 156.864 4.42556 -4.81383 0
M  V30 1182 H 158.348 5.92458 -5.93643 0
M  V30 1183 H 156.654 7.92655 -6.402 0
M  V30 1184 H 156.464 6.26671 -8.0846 0
M  V30 1185 H 154.834 6.29101 -7.32804 0
M  V30 1186 H 157.473 5.84315 -2.47318 0
M  V30 1187 P 159.331 7.39546 -4.75277 0
M  V30 1188 O 160.753 7.84966 -5.01146 0
M  V30 1189 O 158.971 5.9812 -5.08098 0
M  V30 1190 O 159.008 7.57503 -3.1866 0
M  V30 1191 C 158.848 8.97357 -2.74833 0
M  V30 1192 C 159.388 9.0745 -1.32694 0
M  V30 1193 O 158.333 8.62072 -0.606159 0
M  V30 1194 C 160.606 8.25383 -0.938334 0
M  V30 1195 O 161.344 8.74577 0.146954 0
M  V30 1196 C 159.938 6.8802 -0.712559 0
M  V30 1197 O 160.736 6.11791 0.194623 0
M  V30 1198 C 158.6 7.27966 -0.139777 0
M  V30 1199 N 157.557 6.39368 -0.623421 0
M  V30 1200 C 157.619 5.90299 -1.85969 0
M  V30 1201 N 156.574 5.10919 -2.1133 0
M  V30 1202 C 155.84 5.14646 -1.0015 0
M  V30 1203 C 154.534 4.60057 -0.729219 0
M  V30 1204 O 153.801 3.93476 -1.47746 0
M  V30 1205 N 154.104 4.88302 0.523505 0
M  V30 1206 C 154.853 5.63646 1.46207 0
M  V30 1207 N 154.256 5.78186 2.69239 0
M  V30 1208 N 156.006 6.19285 1.21544 0
M  V30 1209 C 156.463 5.93392 -0.0308487 0
M  V30 1210 H 158.632 7.25354 0.961601 0
M  V30 1211 H 159.815 6.3246 -1.65676 0
M  V30 1212 H 161.3 8.19533 -1.78278 0
M  V30 1213 H 159.605 10.1294 -1.10029 0
M  V30 1214 H 159.415 9.64276 -3.41316 0
M  V30 1215 H 157.784 9.25417 -2.76357 0
M  V30 1216 H 153.208 4.53993 0.806451 0
M  V30 1217 H 158.415 6.11865 -2.57394 0
M  V30 1218 H 153.345 5.34046 2.87467 0
M  V30 1219 H 154.721 6.33391 3.42578 0
M  V30 1220 H 160.425 6.25169 1.0783 0
M  V30 1221 P 162.281 8.791 -1.35693e-13 0
M  V30 1222 O 163.703 9.31296 0.027939 0
M  V30 1223 O 161.921 7.77869 -1.04071 0
M  V30 1224 O 161.958 8.09533 1.41463 0
M  V30 1225 C 161.798 9.0349 2.53943 0
M  V30 1226 C 162.338 8.35135 3.78975 0
M  V30 1227 O 161.283 7.57992 4.15078 0
M  V30 1228 C 163.556 7.45087 3.67298 0
M  V30 1229 O 164.294 7.27796 4.85194 0
M  V30 1230 C 162.888 6.17323 3.12027 0
M  V30 1231 O 163.686 5.04149 3.47132 0
M  V30 1232 C 161.55 6.19961 3.81809 0
M  V30 1233 N 160.507 5.71575 2.93223 0
M  V30 1234 C 160.569 5.97133 1.62693 0
M  V30 1235 N 159.524 5.44066 0.984414 0
M  V30 1236 C 158.79 4.87093 1.93987 0
M  V30 1237 C 157.484 4.26449 1.8738 0
M  V30 1238 O 156.751 4.1089 0.884377 0
M  V30 1239 N 157.054 3.82483 3.08036 0
M  V30 1240 C 157.803 3.95124 4.27727 0
M  V30 1241 N 157.206 3.4084 5.39089 0
M  V30 1242 N 158.956 4.55264 4.3706 0
M  V30 1243 C 159.413 5.00861 3.18217 0
M  V30 1244 H 161.582 5.58218 4.73051 0
M  V30 1245 H 162.765 6.21631 2.02558 0
M  V30 1246 H 164.25 7.85819 2.93096 0
M  V30 1247 H 162.555 9.11627 4.55076 0
M  V30 1248 H 162.365 9.9573 2.34194 0
M  V30 1249 H 160.734 9.2792 2.67832 0
M  V30 1250 H 156.158 3.38323 3.1329 0
M  V30 1251 H 161.365 6.53891 1.14265 0
M  V30 1252 H 156.295 2.93852 5.30559 0
M  V30 1253 H 157.671 3.47631 6.30632 0
M  V30 1254 H 163.375 4.67628 4.28704 0
M  V30 1255 P 165.232 7.39546 4.75277 0
M  V30 1256 O 166.654 7.81777 5.05738 0
M  V30 1257 O 164.872 7.1065 3.32998 0
M  V30 1258 O 164.909 6.04542 5.56673 0
M  V30 1259 C 164.749 6.22772 7.02095 0
M  V30 1260 C 165.289 4.97725 7.70406 0
M  V30 1261 O 164.233 4.13256 7.58987 0
M  V30 1262 C 166.507 4.28231 7.11815 0
M  V30 1263 O 167.245 3.49945 8.01648 0
M  V30 1264 C 165.838 3.5063 5.96244 0
M  V30 1265 O 166.637 2.36482 5.64681 0
M  V30 1266 C 164.501 3.15122 6.56374 0
M  V30 1267 H 164.533 2.13853 6.99751 0
M  V30 1268 H 165.716 4.13501 5.06559 0
M  V30 1269 H 167.2 5.03285 6.70911 0
M  V30 1270 H 165.506 5.20877 8.75697 0
M  V30 1271 H 165.316 7.11046 7.35349 0
M  V30 1272 H 163.686 6.35815 7.26986 0
M  V30 1273 H 166.325 1.61644 6.13565 0
M  V30 1274 P 168.182 3.65191 7.99657 0
M  V30 1275 O 169.604 3.8425 8.48115 0
M  V30 1276 O 167.822 4.17805 6.64342 0
M  V30 1277 O 167.859 2.07613 7.95143 0
M  V30 1278 C 167.699 1.44328 9.27336 0
M  V30 1279 C 168.239 0.0220036 9.17197 0
M  V30 1280 O 167.183 -0.626867 8.61923 0
M  V30 1281 C 169.457 -0.24586 8.30336 0
M  V30 1282 O 170.195 -1.39011 8.63583 0
M  V30 1283 C 168.788 -0.273849 6.91158 0
M  V30 1284 O 169.587 -1.06348 6.02892 0
M  V30 1285 C 167.451 -0.897649 7.22545 0
M  V30 1286 H 167.483 -1.9841 7.04286 0
M  V30 1287 H 168.666 0.739928 6.497 0
M  V30 1288 H 170.15 0.60668 8.36503 0
M  V30 1289 H 168.456 -0.352479 10.1829 0
M  V30 1290 H 168.266 2.00611 10.0304 0
M  V30 1291 H 166.636 1.41843 9.55327 0
M  V30 1292 H 169.275 -1.95734 6.03555 0
M  V30 1293 P 171.133 -1.25109 8.70152 0
M  V30 1294 O 172.555 -1.35274 9.21221 0
M  V30 1295 O 170.773 -0.0769065 7.84762 0
M  V30 1296 O 170.81 -2.55232 7.81161 0
M  V30 1297 C 170.65 -3.79939 8.58154 0
M  V30 1298 C 171.19 -4.94023 7.72785 0
M  V30 1299 O 170.134 -5.18726 6.91205 0
M  V30 1300 C 172.408 -4.69597 6.85231 0
M  V30 1301 O 173.146 -5.83832 6.51337 0
M  V30 1302 C 171.739 -3.96706 5.66633 0
M  V30 1303 O 172.538 -4.15414 4.49689 0
M  V30 1304 C 170.402 -4.66153 5.59313 0
M  V30 1305 H 170.434 -5.47679 4.85214 0
M  V30 1306 H 171.617 -2.89008 5.86566 0
M  V30 1307 H 173.101 -4.0121 7.36511 0
M  V30 1308 H 171.407 -5.80182 8.37584 0
M  V30 1309 H 171.217 -3.73517 9.52265 0
M  V30 1310 H 169.587 -3.97163 8.80359 0
M  V30 1311 H 172.226 -4.90969 4.01921 0
M  V30 1312 P 174.084 -5.75688 6.64379 0
M  V30 1313 O 175.506 -6.11849 7.01846 0
M  V30 1314 O 173.724 -4.30744 6.56026 0
M  V30 1315 O 173.761 -6.37042 5.19165 0
M  V30 1316 C 173.601 -7.83578 5.16515 0
M  V30 1317 C 174.141 -8.33398 3.83019 0
M  V30 1318 O 173.085 -8.10074 3.01034 0
M  V30 1319 C 175.359 -7.65514 3.2257 0
M  V30 1320 O 176.097 -8.4329 2.32297 0
M  V30 1321 C 174.69 -6.40075 2.62207 0
M  V30 1322 O 175.489 -5.92589 1.53712 0
M  V30 1323 C 173.353 -6.9454 2.18503 0
M  V30 1324 H 173.385 -7.23063 1.12091 0
M  V30 1325 H 174.568 -5.6025 3.37201 0
M  V30 1326 H 176.052 -7.35707 4.02681 0
M  V30 1327 H 174.358 -9.40912 3.9095 0
M  V30 1328 H 174.168 -8.29056 5.99158 0
M  V30 1329 H 172.538 -8.10073 5.25882 0
M  V30 1330 H 175.177 -6.30324 0.726794 0
M  V30 1331 P 177.034 -8.4349 2.47671 0
M  V30 1332 O 178.456 -8.94167 2.5964 0
M  V30 1333 O 176.674 -7.1704 3.19006 0
M  V30 1334 O 176.711 -8.16596 0.923387 0
M  V30 1335 C 176.551 -9.38437 0.108857 0
M  V30 1336 C 177.091 -9.08175 -1.28353 0
M  V30 1337 O 176.035 -8.44229 -1.84713 0
M  V30 1338 C 178.309 -8.18386 -1.42505 0
M  V30 1339 O 179.047 -8.3501 -2.60497 0
M  V30 1340 C 177.64 -6.80225 -1.25468 0
M  V30 1341 O 178.439 -5.81621 -1.91066 0
M  V30 1342 C 176.303 -7.02416 -1.9168 0
M  V30 1343 H 176.335 -6.6888 -2.96621 0
M  V30 1344 H 177.518 -6.53617 -0.192223 0
M  V30 1345 H 179.002 -8.36622 -0.589963 0
M  V30 1346 H 177.308 -10.0291 -1.79807 0
M  V30 1347 H 177.118 -10.2138 0.558219 0
M  V30 1348 H 175.488 -9.6579 0.0444202 0
M  V30 1349 H 178.127 -5.69556 -2.79637 0
M  V30 1350 P 179.985 -8.4349 -2.47671 0
M  V30 1351 O 181.407 -8.92593 -2.65 0
M  V30 1352 O 179.625 -7.7568 -1.19296 0
M  V30 1353 O 179.662 -7.36886 -3.63805 0
M  V30 1354 C 179.502 -7.95349 -4.982 0
M  V30 1355 C 180.042 -6.94612 -5.98974 0
M  V30 1356 O 178.986 -6.10347 -6.11815 0
M  V30 1357 C 181.26 -6.11426 -5.62335 0
M  V30 1358 O 181.998 -5.6162 -6.70584 0
M  V30 1359 C 180.591 -5.04409 -4.73308 0
M  V30 1360 O 181.39 -3.85992 -4.75183 0
M  V30 1361 C 179.254 -4.8728 -5.41006 0
M  V30 1362 H 179.286 -4.02333 -6.11157 0
M  V30 1363 H 180.469 -5.39466 -3.69543 0
M  V30 1364 H 181.953 -6.71916 -5.01943 0
M  V30 1365 H 180.259 -7.4649 -6.93477 0
M  V30 1366 H 180.069 -8.89416 -5.05237 0
M  V30 1367 H 178.439 -8.14876 -5.18409 0
M  V30 1368 H 181.078 -3.27957 -5.4317 0
M  V30 1369 P 182.935 -5.75688 -6.64379 0
M  V30 1370 O 184.357 -6.07627 -7.05504 0
M  V30 1371 O 182.575 -5.88047 -5.19722 0
M  V30 1372 O 182.612 -4.2322 -7.04443 0
M  V30 1373 C 182.452 -3.99743 -8.4911 0
M  V30 1374 C 182.992 -2.60516 -8.79425 0
M  V30 1375 O 181.936 -1.82684 -8.4467 0
M  V30 1376 C 184.21 -2.10343 -8.03628 0
M  V30 1377 O 184.948 -1.09919 -8.67766 0
M  V30 1378 C 183.541 -1.68446 -6.70876 0
M  V30 1379 O 184.34 -0.678137 -6.08433 0
M  V30 1380 C 182.204 -1.17436 -7.18567 0
M  V30 1381 H 182.236 -0.0804732 -7.31656 0
M  V30 1382 H 183.419 -2.54037 -6.02537 0
M  V30 1383 H 184.903 -2.93881 -7.85526 0
M  V30 1384 H 183.209 -2.53065 -9.86973 0
M  V30 1385 H 183.019 -4.75072 -9.05887 0
M  V30 1386 H 181.389 -4.05244 -8.76668 0
M  V30 1387 H 184.028 0.177647 -6.34251 0
M  V30 1388 P 185.886 -1.25109 -8.70152 0
M  V30 1389 O 187.308 -1.29744 -9.22016 0
M  V30 1390 O 185.526 -2.13714 -7.55141 0
M  V30 1391 O 185.563 0.248149 -8.21425 0
M  V30 1392 C 185.403 1.22779 -9.30434 0
M  V30 1393 C 185.943 2.56293 -8.80664 0
M  V30 1394 O 184.887 3.02979 -8.09349 0
M  V30 1395 C 187.161 2.57523 -7.89775 0
M  V30 1396 O 187.899 3.7668 -7.89438 0
M  V30 1397 C 186.492 2.20997 -6.55446 0
M  V30 1398 O 187.291 2.71895 -5.48509 0
M  V30 1399 C 185.155 2.89693 -6.67988 0
M  V30 1400 H 185.187 3.88793 -6.19859 0
M  V30 1401 H 186.37 1.12046 -6.44229 0
M  V30 1402 H 187.854 1.7746 -8.19711 0
M  V30 1403 H 186.16 3.20706 -9.67112 0
M  V30 1404 H 185.97 0.901032 -10.1892 0
M  V30 1405 H 184.34 1.33049 -9.56592 0
M  V30 1406 H 186.979 3.57847 -5.23962 0
M  V30 1407 P 188.836 3.65191 -7.99657 0
M  V30 1408 O 190.258 3.89332 -8.45794 0
M  V30 1409 O 188.476 2.28472 -7.50807 0
M  V30 1410 O 188.513 4.64972 -6.77611 0
M  V30 1411 C 188.353 6.06319 -7.16352 0
M  V30 1412 C 188.893 6.91731 -6.02299 0
M  V30 1413 O 187.837 6.92449 -5.17064 0
M  V30 1414 C 190.111 6.43627 -5.25174 0
M  V30 1415 O 190.849 7.43686 -4.60469 0
M  V30 1416 C 189.442 5.40275 -4.31916 0
M  V30 1417 O 190.241 5.25279 -3.14438 0
M  V30 1418 C 188.105 6.04847 -4.05327 0
M  V30 1419 H 188.137 6.62195 -3.11261 0
M  V30 1420 H 189.32 4.42556 -4.81383 0
M  V30 1421 H 190.804 5.92458 -5.93643 0
M  V30 1422 H 189.11 7.92655 -6.402 0
M  V30 1423 H 188.92 6.26671 -8.0846 0
M  V30 1424 H 187.29 6.29101 -7.32804 0
M  V30 1425 H 189.929 5.84315 -2.47318 0
M  V30 1426 P 191.787 7.39546 -4.75277 0
M  V30 1427 O 193.209 7.84798 -5.01039 0
M  V30 1428 O 191.427 5.9812 -5.08098 0
M  V30 1429 O 191.464 7.57503 -3.1866 0
M  V30 1430 C 191.304 8.97357 -2.74833 0
M  V30 1431 C 191.844 9.07548 -1.32709 0
M  V30 1432 O 190.788 8.62072 -0.606159 0
M  V30 1433 C 193.062 8.25383 -0.938334 0
M  V30 1434 O 193.8 8.74577 0.146954 0
M  V30 1435 C 192.393 6.8802 -0.712559 0
M  V30 1436 O 193.192 6.1189 0.194655 0
M  V30 1437 C 191.056 7.27966 -0.139777 0
M  V30 1438 H 191.088 7.25354 0.961601 0
M  V30 1439 H 192.271 6.32557 -1.65702 0
M  V30 1440 H 193.755 8.19355 -1.79097 0
M  V30 1441 H 192.061 10.1294 -1.10029 0
M  V30 1442 H 191.871 9.64276 -3.41316 0
M  V30 1443 H 190.241 9.25417 -2.76357 0
M  V30 1444 H 192.88 6.25267 1.07847 0
M  V30 1445 P 194.738 8.791 1.12009e-13 0
M  V30 1446 O 196.16 9.31096 0.027933 0
M  V30 1447 O 194.378 7.77869 -1.04071 0
M  V30 1448 O 194.415 8.09533 1.41463 0
M  V30 1449 C 194.255 9.0349 2.53943 0
M  V30 1450 C 194.795 8.35226 3.79016 0
M  V30 1451 O 193.739 7.57992 4.15078 0
M  V30 1452 C 196.013 7.45087 3.67298 0
M  V30 1453 O 196.751 7.27796 4.85194 0
M  V30 1454 C 195.344 6.17323 3.12027 0
M  V30 1455 O 196.143 5.04231 3.47188 0
M  V30 1456 C 194.007 6.19961 3.81809 0
M  V30 1457 H 194.039 5.58218 4.73051 0
M  V30 1458 H 195.222 6.21726 2.02589 0
M  V30 1459 H 196.706 7.86112 2.9231 0
M  V30 1460 H 195.012 9.11627 4.55076 0
M  V30 1461 H 194.822 9.9573 2.34194 0
M  V30 1462 H 193.192 9.2792 2.67832 0
M  V30 1463 H 195.831 4.67702 4.28772 0
M  V30 1464 P 197.688 7.39546 4.75277 0
M  V30 1465 O 199.109 7.81861 5.05793 0
M  V30 1466 O 197.328 7.1065 3.32998 0
M  V30 1467 O 197.365 6.04542 5.56673 0
M  V30 1468 C 197.204 6.22839 7.02169 0
M  V30 1469 C 197.745 4.97725 7.70406 0
M  V30 1470 O 196.69 4.13208 7.58899 0
M  V30 1471 C 198.963 4.28231 7.11815 0
M  V30 1472 O 199.701 3.49945 8.01648 0
M  V30 1473 C 198.295 3.5063 5.96244 0
M  V30 1474 O 199.093 2.37008 5.64352 0
M  V30 1475 C 196.957 3.15122 6.56374 0
M  V30 1476 N 195.914 3.22311 5.55692 0
M  V30 1477 C 196.083 3.99655 4.46046 0
M  V30 1478 N 195.056 3.97599 3.63918 0
M  V30 1479 C 194.171 3.11159 4.25334 0
M  V30 1480 C 192.904 2.64972 3.85157 0
M  V30 1481 N 192.339 1.78482 4.74759 0
M  V30 1482 C 192.941 1.37463 5.90819 0
M  V30 1483 N 194.118 1.7733 6.31889 0
M  V30 1484 C 194.693 2.64393 5.43725 0
M  V30 1485 H 198.172 4.12931 5.06895 0
M  V30 1486 H 199.655 5.03285 6.70911 0
M  V30 1487 H 197.961 5.20001 8.76217 0
M  V30 1488 H 197.771 7.11046 7.35349 0
M  V30 1489 H 196.141 6.35815 7.26986 0
M  V30 1490 H 196.983 4.58037 4.27732 0
M  V30 1491 H 198.781 1.61619 6.13468 0
M  V30 1492 P 200.639 3.65191 7.99657 0
M  V30 1493 O 202.06 3.84292 8.48206 0
M  V30 1494 O 200.279 4.17805 6.64342 0
M  V30 1495 O 200.316 2.07613 7.95143 0
M  V30 1496 C 200.155 1.44344 9.27435 0
M  V30 1497 C 200.696 0.0220036 9.17197 0
M  V30 1498 O 199.641 -0.626794 8.61824 0
M  V30 1499 C 201.914 -0.24586 8.30336 0
M  V30 1500 O 202.652 -1.39011 8.63583 0
M  V30 1501 C 201.246 -0.273849 6.91158 0
M  V30 1502 O 202.044 -1.05728 6.029 0
M  V30 1503 C 199.908 -0.897649 7.22545 0
M  V30 1504 N 198.865 -0.292839 6.41732 0
M  V30 1505 C 199.034 0.950603 5.91308 0
M  V30 1506 N 198.007 1.37732 5.21105 0
M  V30 1507 C 197.122 0.318109 5.26039 0
M  V30 1508 C 195.855 0.146766 4.6727 0
M  V30 1509 N 195.256 1.08519 3.89983 0
M  V30 1510 N 195.29 -1.06525 4.95887 0
M  V30 1511 C 195.892 -2.0378 5.71347 0
M  V30 1512 N 197.069 -1.92445 6.27451 0
M  V30 1513 C 197.644 -0.715382 6.00353 0
M  V30 1514 H 199.94 -1.98383 7.04189 0
M  V30 1515 H 201.123 0.733318 6.49674 0
M  V30 1516 H 202.606 0.60668 8.36503 0
M  V30 1517 H 200.912 -0.362662 10.1825 0
M  V30 1518 H 200.722 2.00611 10.0304 0
M  V30 1519 H 199.092 1.41843 9.55327 0
M  V30 1520 H 195.356 -2.97041 5.85344 0
M  V30 1521 H 199.934 1.54076 6.07465 0
M  V30 1522 H 194.326 0.901517 3.49562 0
M  V30 1523 H 195.73 1.97957 3.71669 0
M  V30 1524 H 201.732 -1.95704 6.0346 0
M  V30 1525 P 203.589 -1.25109 8.70152 0
M  V30 1526 O 205.011 -1.35274 9.21221 0
M  V30 1527 O 203.229 -0.0769065 7.84762 0
M  V30 1528 O 203.266 -2.55232 7.81161 0
M  V30 1529 C 203.106 -3.79939 8.58154 0
M  V30 1530 C 203.646 -4.94023 7.72785 0
M  V30 1531 O 202.59 -5.18726 6.91205 0
M  V30 1532 C 204.864 -4.69597 6.85231 0
M  V30 1533 O 205.602 -5.83832 6.51337 0
M  V30 1534 C 204.195 -3.96706 5.66633 0
M  V30 1535 O 204.994 -4.15414 4.49689 0
M  V30 1536 C 202.858 -4.66153 5.59313 0
M  V30 1537 H 202.89 -5.47679 4.85214 0
M  V30 1538 H 204.073 -2.89008 5.86566 0
M  V30 1539 H 205.557 -4.0121 7.36511 0
M  V30 1540 H 203.863 -5.80182 8.37584 0
M  V30 1541 H 203.673 -3.73517 9.52265 0
M  V30 1542 H 202.043 -3.97163 8.80359 0
M  V30 1543 H 204.682 -4.90969 4.01921 0
M  V30 1544 P 206.54 -5.75688 6.64379 0
M  V30 1545 O 207.962 -6.11849 7.01846 0
M  V30 1546 O 206.18 -4.30744 6.56026 0
M  V30 1547 O 206.217 -6.37042 5.19165 0
M  V30 1548 C 206.057 -7.83578 5.16515 0
M  V30 1549 C 206.597 -8.33398 3.83019 0
M  V30 1550 O 205.541 -8.10074 3.01034 0
M  V30 1551 C 207.815 -7.65514 3.2257 0
M  V30 1552 O 208.553 -8.4329 2.32297 0
M  V30 1553 C 207.146 -6.40075 2.62207 0
M  V30 1554 O 207.945 -5.92589 1.53712 0
M  V30 1555 C 205.809 -6.9454 2.18503 0
M  V30 1556 H 205.841 -7.23063 1.12091 0
M  V30 1557 H 207.024 -5.6025 3.37201 0
M  V30 1558 H 208.508 -7.35707 4.02681 0
M  V30 1559 H 206.814 -9.40912 3.9095 0
M  V30 1560 H 206.624 -8.29056 5.99158 0
M  V30 1561 H 204.994 -8.10073 5.25882 0
M  V30 1562 H 207.633 -6.30324 0.726794 0
M  V30 1563 P 209.49 -8.4349 2.47671 0
M  V30 1564 O 210.912 -8.94167 2.5964 0
M  V30 1565 O 209.13 -7.1704 3.19006 0
M  V30 1566 O 209.167 -8.16596 0.923387 0
M  V30 1567 C 209.007 -9.38437 0.108857 0
M  V30 1568 C 209.547 -9.08175 -1.28353 0
M  V30 1569 O 208.491 -8.44229 -1.84713 0
M  V30 1570 C 210.765 -8.18386 -1.42505 0
M  V30 1571 O 211.503 -8.3501 -2.60497 0
M  V30 1572 C 210.096 -6.80225 -1.25468 0
M  V30 1573 O 210.895 -5.81621 -1.91066 0
M  V30 1574 C 208.759 -7.02416 -1.9168 0
M  V30 1575 H 208.791 -6.6888 -2.96621 0
M  V30 1576 H 209.974 -6.53617 -0.192223 0
M  V30 1577 H 211.458 -8.36622 -0.589963 0
M  V30 1578 H 209.764 -10.0291 -1.79807 0
M  V30 1579 H 209.574 -10.2138 0.558219 0
M  V30 1580 H 207.944 -9.6579 0.0444202 0
M  V30 1581 H 210.583 -5.69556 -2.79637 0
M  V30 1582 P 212.441 -8.4349 -2.47671 0
M  V30 1583 O 213.863 -8.92593 -2.65 0
M  V30 1584 O 212.081 -7.7568 -1.19296 0
M  V30 1585 O 212.118 -7.36886 -3.63805 0
M  V30 1586 C 211.958 -7.95349 -4.982 0
M  V30 1587 C 212.498 -6.94612 -5.98974 0
M  V30 1588 O 211.442 -6.10347 -6.11815 0
M  V30 1589 C 213.716 -6.11426 -5.62335 0
M  V30 1590 O 214.454 -5.6162 -6.70584 0
M  V30 1591 C 213.047 -5.04409 -4.73308 0
M  V30 1592 O 213.846 -3.85992 -4.75183 0
M  V30 1593 C 211.71 -4.8728 -5.41006 0
M  V30 1594 H 211.742 -4.02333 -6.11157 0
M  V30 1595 H 212.925 -5.39466 -3.69543 0
M  V30 1596 H 214.409 -6.71916 -5.01943 0
M  V30 1597 H 212.715 -7.4649 -6.93477 0
M  V30 1598 H 212.525 -8.89416 -5.05237 0
M  V30 1599 H 210.895 -8.14876 -5.18409 0
M  V30 1600 H 213.534 -3.27957 -5.4317 0
M  V30 1601 P 215.392 -5.75688 -6.64379 0
M  V30 1602 O 216.814 -6.07758 -7.05656 0
M  V30 1603 O 215.032 -5.88047 -5.19722 0
M  V30 1604 O 215.069 -4.2322 -7.04443 0
M  V30 1605 C 214.909 -3.99743 -8.4911 0
M  V30 1606 C 215.449 -2.60487 -8.79329 0
M  V30 1607 O 214.394 -1.82684 -8.4467 0
M  V30 1608 C 216.667 -2.10343 -8.03628 0
M  V30 1609 O 217.405 -1.09919 -8.67766 0
M  V30 1610 C 215.999 -1.68446 -6.70876 0
M  V30 1611 O 216.797 -0.678026 -6.08333 0
M  V30 1612 C 214.661 -1.17436 -7.18567 0
M  V30 1613 N 213.618 -1.52699 -6.23988 0
M  V30 1614 C 213.68 -2.68084 -5.57824 0
M  V30 1615 N 212.635 -2.8189 -4.75643 0
M  V30 1616 C 211.901 -1.72373 -4.95155 0
M  V30 1617 C 210.595 -1.37653 -4.44996 0
M  V30 1618 O 209.862 -2.02239 -3.68445 0
M  V30 1619 N 210.165 -0.17675 -4.90782 0
M  V30 1620 C 210.914 0.645036 -5.78716 0
M  V30 1621 N 210.317 1.84214 -6.10618 0
M  V30 1622 N 212.067 0.321732 -6.30279 0
M  V30 1623 C 212.524 -0.87502 -5.86913 0
M  V30 1624 H 214.693 -0.0804732 -7.31656 0
M  V30 1625 H 215.876 -2.53998 -6.02444 0
M  V30 1626 H 217.361 -2.93095 -7.8582 0
M  V30 1627 H 215.666 -2.53065 -9.86973 0
M  V30 1628 H 215.476 -4.75072 -9.05887 0
M  V30 1629 H 213.845 -4.05244 -8.76668 0
M  V30 1630 H 209.269 0.152143 -4.60849 0
M  V30 1631 H 214.476 -3.41852 -5.69006 0
M  V30 1632 H 209.406 2.08538 -5.69521 0
M  V30 1633 H 210.782 2.4895 -6.75698 0
M  V30 1634 H 216.486 0.177619 -6.34151 0
M  V30 1635 P 218.342 -1.25109 -8.70152 0
M  V30 1636 O 219.764 -1.29744 -9.22016 0
M  V30 1637 O 217.982 -2.13714 -7.55141 0
M  V30 1638 O 218.019 0.248149 -8.21425 0
M  V30 1639 C 217.859 1.22779 -9.30434 0
M  V30 1640 C 218.399 2.56293 -8.80664 0
M  V30 1641 O 217.343 3.02979 -8.09349 0
M  V30 1642 C 219.617 2.57523 -7.89775 0
M  V30 1643 O 220.355 3.7668 -7.89438 0
M  V30 1644 C 218.948 2.20997 -6.55446 0
M  V30 1645 O 219.747 2.71895 -5.48509 0
M  V30 1646 C 217.611 2.89693 -6.67988 0
M  V30 1647 H 217.643 3.88793 -6.19859 0
M  V30 1648 H 218.826 1.12046 -6.44229 0
M  V30 1649 H 220.31 1.7746 -8.19711 0
M  V30 1650 H 218.616 3.20706 -9.67112 0
M  V30 1651 H 218.426 0.901032 -10.1892 0
M  V30 1652 H 216.796 1.33049 -9.56592 0
M  V30 1653 H 219.435 3.57847 -5.23962 0
M  V30 1654 P 221.293 3.65191 -7.99657 0
M  V30 1655 O 222.715 3.89332 -8.45794 0
M  V30 1656 O 220.933 2.28472 -7.50807 0
M  V30 1657 O 220.97 4.64972 -6.77611 0
M  V30 1658 C 220.81 6.06319 -7.16352 0
M  V30 1659 C 221.35 6.91731 -6.02299 0
M  V30 1660 O 220.294 6.92449 -5.17064 0
M  V30 1661 C 222.568 6.43627 -5.25174 0
M  V30 1662 O 223.306 7.43686 -4.60469 0
M  V30 1663 C 221.899 5.40275 -4.31916 0
M  V30 1664 O 222.698 5.25279 -3.14438 0
M  V30 1665 C 220.562 6.04847 -4.05327 0
M  V30 1666 H 220.594 6.62195 -3.11261 0
M  V30 1667 H 221.777 4.42556 -4.81383 0
M  V30 1668 H 223.261 5.92458 -5.93643 0
M  V30 1669 H 221.567 7.92655 -6.402 0
M  V30 1670 H 221.377 6.26671 -8.0846 0
M  V30 1671 H 219.747 6.29101 -7.32804 0
M  V30 1672 H 222.386 5.84315 -2.47318 0
M  V30 1673 P 224.243 7.39546 -4.75277 0
M  V30 1674 O 225.665 7.84798 -5.01039 0
M  V30 1675 O 223.883 5.9812 -5.08098 0
M  V30 1676 O 223.92 7.57503 -3.1866 0
M  V30 1677 C 223.76 8.97357 -2.74833 0
M  V30 1678 C 224.3 9.07548 -1.32709 0
M  V30 1679 O 223.244 8.62072 -0.606159 0
M  V30 1680 C 225.518 8.25383 -0.938334 0
M  V30 1681 O 226.256 8.74577 0.146954 0
M  V30 1682 C 224.849 6.8802 -0.712559 0
M  V30 1683 O 225.648 6.1189 0.194655 0
M  V30 1684 C 223.512 7.27966 -0.139777 0
M  V30 1685 H 223.544 7.25354 0.961601 0
M  V30 1686 H 224.727 6.32557 -1.65702 0
M  V30 1687 H 226.211 8.19355 -1.79097 0
M  V30 1688 H 224.517 10.1294 -1.10029 0
M  V30 1689 H 224.327 9.64276 -3.41316 0
M  V30 1690 H 222.697 9.25417 -2.76357 0
M  V30 1691 H 225.336 6.25267 1.07847 0
M  V30 1692 P 227.194 8.791 4.22174e-13 0
M  V30 1693 O 228.616 9.31096 0.027933 0
M  V30 1694 O 226.834 7.77869 -1.04071 0
M  V30 1695 O 226.871 8.09533 1.41463 0
M  V30 1696 C 226.711 9.0349 2.53943 0
M  V30 1697 C 227.251 8.35226 3.79016 0
M  V30 1698 O 226.195 7.57992 4.15078 0
M  V30 1699 C 228.469 7.45087 3.67298 0
M  V30 1700 O 229.207 7.27796 4.85194 0
M  V30 1701 C 227.8 6.17323 3.12027 0
M  V30 1702 O 228.599 5.04231 3.47188 0
M  V30 1703 C 226.463 6.19961 3.81809 0
M  V30 1704 H 226.495 5.58218 4.73051 0
M  V30 1705 H 227.678 6.21726 2.02589 0
M  V30 1706 H 229.162 7.86112 2.9231 0
M  V30 1707 H 227.468 9.11627 4.55076 0
M  V30 1708 H 227.278 9.9573 2.34194 0
M  V30 1709 H 225.648 9.2792 2.67832 0
M  V30 1710 H 228.287 4.67702 4.28772 0
M  V30 1711 P 230.144 7.39546 4.75277 0
M  V30 1712 O 231.566 7.81777 5.05738 0
M  V30 1713 O 229.784 7.1065 3.32998 0
M  V30 1714 O 229.821 6.04542 5.56673 0
M  V30 1715 C 229.661 6.22772 7.02095 0
M  V30 1716 C 230.201 4.97725 7.70406 0
M  V30 1717 O 229.145 4.13256 7.58987 0
M  V30 1718 C 231.419 4.28231 7.11815 0
M  V30 1719 O 232.157 3.49945 8.01648 0
M  V30 1720 C 230.75 3.5063 5.96244 0
M  V30 1721 O 231.549 2.36482 5.64681 0
M  V30 1722 C 229.413 3.15122 6.56374 0
M  V30 1723 H 229.445 2.13853 6.99751 0
M  V30 1724 H 230.628 4.13501 5.06559 0
M  V30 1725 H 232.112 5.03285 6.70911 0
M  V30 1726 H 230.418 5.20877 8.75697 0
M  V30 1727 H 230.228 7.11046 7.35349 0
M  V30 1728 H 228.598 6.35815 7.26986 0
M  V30 1729 H 231.237 1.61644 6.13565 0
M  V30 1730 P 233.095 3.65191 7.99657 0
M  V30 1731 O 234.517 3.8425 8.48115 0
M  V30 1732 O 232.735 4.17805 6.64342 0
M  V30 1733 O 232.772 2.07613 7.95143 0
M  V30 1734 C 232.612 1.44328 9.27336 0
M  V30 1735 C 233.152 0.0220036 9.17197 0
M  V30 1736 O 232.096 -0.626867 8.61923 0
M  V30 1737 C 234.37 -0.24586 8.30336 0
M  V30 1738 O 235.108 -1.39011 8.63583 0
M  V30 1739 C 233.701 -0.273849 6.91158 0
M  V30 1740 O 234.5 -1.06348 6.02892 0
M  V30 1741 C 232.364 -0.897649 7.22545 0
M  V30 1742 H 232.396 -1.9841 7.04286 0
M  V30 1743 H 233.579 0.739928 6.497 0
M  V30 1744 H 235.063 0.60668 8.36503 0
M  V30 1745 H 233.369 -0.352479 10.1829 0
M  V30 1746 H 233.179 2.00611 10.0304 0
M  V30 1747 H 231.549 1.41843 9.55327 0
M  V30 1748 H 234.188 -1.95734 6.03555 0
M  V30 1749 P 236.046 -1.25109 8.70152 0
M  V30 1750 O 237.468 -1.35274 9.21221 0
M  V30 1751 O 235.686 -0.0769065 7.84762 0
M  V30 1752 O 235.723 -2.55232 7.81161 0
M  V30 1753 C 235.563 -3.79939 8.58154 0
M  V30 1754 C 236.103 -4.94023 7.72785 0
M  V30 1755 O 235.047 -5.18726 6.91205 0
M  V30 1756 C 237.321 -4.69597 6.85231 0
M  V30 1757 O 238.059 -5.83832 6.51337 0
M  V30 1758 C 236.652 -3.96706 5.66633 0
M  V30 1759 O 237.451 -4.15414 4.49689 0
M  V30 1760 C 235.315 -4.66153 5.59313 0
M  V30 1761 H 235.347 -5.47679 4.85214 0
M  V30 1762 H 236.53 -2.89008 5.86566 0
M  V30 1763 H 238.014 -4.0121 7.36511 0
M  V30 1764 H 236.32 -5.80182 8.37584 0
M  V30 1765 H 236.13 -3.73517 9.52265 0
M  V30 1766 H 234.5 -3.97163 8.80359 0
M  V30 1767 H 237.139 -4.90969 4.01921 0
M  V30 1768 P 238.996 -5.75688 6.64379 0
M  V30 1769 O 240.418 -6.11849 7.01846 0
M  V30 1770 O 238.636 -4.30744 6.56026 0
M  V30 1771 O 238.673 -6.37042 5.19165 0
M  V30 1772 C 238.513 -7.83578 5.16515 0
M  V30 1773 C 239.053 -8.33398 3.83019 0
M  V30 1774 O 237.997 -8.10074 3.01034 0
M  V30 1775 C 240.271 -7.65514 3.2257 0
M  V30 1776 O 241.009 -8.4329 2.32297 0
M  V30 1777 C 239.602 -6.40075 2.62207 0
M  V30 1778 O 240.401 -5.92589 1.53712 0
M  V30 1779 C 238.265 -6.9454 2.18503 0
M  V30 1780 H 238.297 -7.23063 1.12091 0
M  V30 1781 H 239.48 -5.6025 3.37201 0
M  V30 1782 H 240.964 -7.35707 4.02681 0
M  V30 1783 H 239.27 -9.40912 3.9095 0
M  V30 1784 H 239.08 -8.29056 5.99158 0
M  V30 1785 H 237.45 -8.10073 5.25882 0
M  V30 1786 H 240.089 -6.30324 0.726794 0
M  V30 1787 P 241.947 -8.4349 2.47671 0
M  V30 1788 O 243.369 -8.94167 2.5964 0
M  V30 1789 O 241.587 -7.1704 3.19006 0
M  V30 1790 O 241.624 -8.16596 0.923387 0
M  V30 1791 C 241.464 -9.38437 0.108857 0
M  V30 1792 C 242.004 -9.08175 -1.28353 0
M  V30 1793 O 240.948 -8.44229 -1.84713 0
M  V30 1794 C 243.222 -8.18386 -1.42505 0
M  V30 1795 O 243.96 -8.3501 -2.60497 0
M  V30 1796 C 242.553 -6.80225 -1.25468 0
M  V30 1797 O 243.352 -5.81621 -1.91066 0
M  V30 1798 C 241.216 -7.02416 -1.9168 0
M  V30 1799 H 241.248 -6.6888 -2.96621 0
M  V30 1800 H 242.431 -6.53617 -0.192223 0
M  V30 1801 H 243.915 -8.36622 -0.589963 0
M  V30 1802 H 242.221 -10.0291 -1.79807 0
M  V30 1803 H 242.031 -10.2138 0.558219 0
M  V30 1804 H 240.401 -9.6579 0.0444202 0
M  V30 1805 H 243.04 -5.69556 -2.79637 0
M  V30 1806 P 244.897 -8.4349 -2.47671 0
M  V30 1807 O 246.319 -8.92593 -2.65 0
M  V30 1808 O 244.537 -7.7568 -1.19296 0
M  V30 1809 O 244.574 -7.36886 -3.63805 0
M  V30 1810 C 244.414 -7.95349 -4.982 0
M  V30 1811 C 244.954 -6.94612 -5.98974 0
M  V30 1812 O 243.898 -6.10347 -6.11815 0
M  V30 1813 C 246.172 -6.11426 -5.62335 0
M  V30 1814 O 246.91 -5.6162 -6.70584 0
M  V30 1815 C 245.503 -5.04409 -4.73308 0
M  V30 1816 O 246.302 -3.85992 -4.75183 0
M  V30 1817 C 244.166 -4.8728 -5.41006 0
M  V30 1818 H 244.198 -4.02333 -6.11157 0
M  V30 1819 H 245.381 -5.39466 -3.69543 0
M  V30 1820 H 246.865 -6.71916 -5.01943 0
M  V30 1821 H 245.171 -7.4649 -6.93477 0
M  V30 1822 H 244.981 -8.89416 -5.05237 0
M  V30 1823 H 243.351 -8.14876 -5.18409 0
M  V30 1824 H 245.99 -3.27957 -5.4317 0
M  V30 1825 P 247.848 -5.75688 -6.64379 0
M  V30 1826 O 249.27 -6.07627 -7.05504 0
M  V30 1827 O 247.488 -5.88047 -5.19722 0
M  V30 1828 O 247.525 -4.2322 -7.04443 0
M  V30 1829 C 247.365 -3.99743 -8.4911 0
M  V30 1830 C 247.905 -2.60516 -8.79425 0
M  V30 1831 O 246.849 -1.82684 -8.4467 0
M  V30 1832 C 249.123 -2.10343 -8.03628 0
M  V30 1833 O 249.861 -1.09919 -8.67766 0
M  V30 1834 C 248.454 -1.68446 -6.70876 0
M  V30 1835 O 249.253 -0.678137 -6.08433 0
M  V30 1836 C 247.117 -1.17436 -7.18567 0
M  V30 1837 H 247.149 -0.0804732 -7.31656 0
M  V30 1838 H 248.332 -2.54037 -6.02537 0
M  V30 1839 H 249.816 -2.93881 -7.85526 0
M  V30 1840 H 248.122 -2.53065 -9.86973 0
M  V30 1841 H 247.932 -4.75072 -9.05887 0
M  V30 1842 H 246.302 -4.05244 -8.76668 0
M  V30 1843 H 248.941 0.177647 -6.34251 0
M  V30 1844 P 250.798 -1.25109 -8.70152 0
M  V30 1845 O 252.22 -1.29744 -9.22016 0
M  V30 1846 O 250.438 -2.13714 -7.55141 0
M  V30 1847 O 250.475 0.248149 -8.21425 0
M  V30 1848 C 250.315 1.22779 -9.30434 0
M  V30 1849 C 250.855 2.56293 -8.80664 0
M  V30 1850 O 249.799 3.02979 -8.09349 0
M  V30 1851 C 252.073 2.57523 -7.89775 0
M  V30 1852 O 252.811 3.7668 -7.89438 0
M  V30 1853 C 251.404 2.20997 -6.55446 0
M  V30 1854 O 252.203 2.71895 -5.48509 0
M  V30 1855 C 250.067 2.89693 -6.67988 0
M  V30 1856 H 250.099 3.88793 -6.19859 0
M  V30 1857 H 251.282 1.12046 -6.44229 0
M  V30 1858 H 252.766 1.7746 -8.19711 0
M  V30 1859 H 251.072 3.20706 -9.67112 0
M  V30 1860 H 250.882 0.901032 -10.1892 0
M  V30 1861 H 249.252 1.33049 -9.56592 0
M  V30 1862 H 251.891 3.57847 -5.23962 0
M  V30 1863 P 253.749 3.65191 -7.99657 0
M  V30 1864 O 255.171 3.89332 -8.45794 0
M  V30 1865 O 253.389 2.28472 -7.50807 0
M  V30 1866 O 253.426 4.64972 -6.77611 0
M  V30 1867 C 253.266 6.06319 -7.16352 0
M  V30 1868 C 253.806 6.91731 -6.02299 0
M  V30 1869 O 252.75 6.92449 -5.17064 0
M  V30 1870 C 255.024 6.43627 -5.25174 0
M  V30 1871 O 255.762 7.43686 -4.60469 0
M  V30 1872 C 254.355 5.40275 -4.31916 0
M  V30 1873 O 255.154 5.25279 -3.14438 0
M  V30 1874 C 253.018 6.04847 -4.05327 0
M  V30 1875 H 253.05 6.62195 -3.11261 0
M  V30 1876 H 254.233 4.42556 -4.81383 0
M  V30 1877 H 255.717 5.92458 -5.93643 0
M  V30 1878 H 254.023 7.92655 -6.402 0
M  V30 1879 H 253.833 6.26671 -8.0846 0
M  V30 1880 H 252.203 6.29101 -7.32804 0
M  V30 1881 H 254.842 5.84315 -2.47318 0
M  V30 1882 P 256.7 7.39546 -4.75277 0
M  V30 1883 O 258.121 7.84882 -5.01092 0
M  V30 1884 O 256.34 5.9812 -5.08098 0
M  V30 1885 O 256.377 7.57503 -3.1866 0
M  V30 1886 C 256.216 8.97452 -2.74862 0
M  V30 1887 C 256.757 9.07548 -1.32709 0
M  V30 1888 O 255.702 8.61972 -0.606089 0
M  V30 1889 C 257.975 8.25383 -0.938334 0
M  V30 1890 O 258.713 8.74577 0.146954 0
M  V30 1891 C 257.307 6.8802 -0.712559 0
M  V30 1892 O 258.105 6.1181 0.188505 0
M  V30 1893 C 255.969 7.27966 -0.139777 0
M  V30 1894 N 254.926 6.39368 -0.623421 0
M  V30 1895 C 255.095 5.71761 -1.78245 0
M  V30 1896 N 254.068 4.962 -2.10491 0
M  V30 1897 C 253.183 5.16158 -1.0635 0
M  V30 1898 C 251.916 4.60425 -0.810266 0
M  V30 1899 N 251.317 3.7057 -1.62914 0
M  V30 1900 N 251.351 5.06 0.348685 0
M  V30 1901 C 251.953 5.94532 1.20395 0
M  V30 1902 N 253.13 6.48452 1.01191 0
M  V30 1903 C 253.705 6.04423 -0.146291 0
M  V30 1904 H 256.001 7.25255 0.961469 0
M  V30 1905 H 257.184 6.32625 -1.65044 0
M  V30 1906 H 258.667 8.19355 -1.79097 0
M  V30 1907 H 256.973 10.1305 -1.09016 0
M  V30 1908 H 256.783 9.64276 -3.41316 0
M  V30 1909 H 255.153 9.25417 -2.76357 0
M  V30 1910 H 251.417 6.21659 2.10714 0
M  V30 1911 H 255.995 5.79354 -2.38959 0
M  V30 1912 H 250.387 3.33174 -1.38982 0
M  V30 1913 H 251.791 3.39714 -2.48836 0
M  V30 1914 H 257.793 6.25169 1.0783 0
M  V30 1915 P 259.65 8.791 7.3234e-13 0
M  V30 1916 O 261.071 9.31196 0.027936 0
M  V30 1917 O 259.29 7.77869 -1.04071 0
M  V30 1918 O 259.327 8.09533 1.41463 0
M  V30 1919 C 259.166 9.03587 2.5397 0
M  V30 1920 C 259.707 8.35226 3.79016 0
M  V30 1921 O 258.652 7.57904 4.1503 0
M  V30 1922 C 260.925 7.45087 3.67298 0
M  V30 1923 O 261.663 7.27796 4.85194 0
M  V30 1924 C 260.257 6.17323 3.12027 0
M  V30 1925 O 261.055 5.04496 3.46627 0
M  V30 1926 C 258.919 6.19961 3.81809 0
M  V30 1927 N 257.876 5.71575 2.93223 0
M  V30 1928 C 258.045 5.77362 1.59168 0
M  V30 1929 N 257.018 5.3123 0.911893 0
M  V30 1930 C 256.133 4.91717 1.89588 0
M  V30 1931 C 254.866 4.3114 1.8076 0
M  V30 1932 N 254.267 3.99821 0.632928 0
M  V30 1933 N 254.301 4.06823 3.02898 0
M  V30 1934 C 254.903 4.35062 4.22711 0
M  V30 1935 N 256.08 4.90805 4.35707 0
M  V30 1936 C 256.655 5.16382 3.14469 0
M  V30 1937 H 258.951 5.58142 4.72986 0
M  V30 1938 H 260.134 6.21428 2.0318 0
M  V30 1939 H 261.617 7.86112 2.9231 0
M  V30 1940 H 259.923 9.11171 4.55987 0
M  V30 1941 H 259.733 9.9573 2.34194 0
M  V30 1942 H 258.103 9.2792 2.67832 0
M  V30 1943 H 254.367 4.09052 5.13359 0
M  V30 1944 H 258.945 6.16575 1.12198 0
M  V30 1945 H 253.337 3.55423 0.632085 0
M  V30 1946 H 254.741 4.20317 -0.256712 0
M  V30 1947 H 260.743 4.67628 4.28704 0
M  V30 1948 P 262.601 7.39546 4.75277 0
M  V30 1949 O 264.023 7.81777 5.05738 0
M  V30 1950 O 262.241 7.1065 3.32998 0
M  V30 1951 O 262.278 6.04542 5.56673 0
M  V30 1952 C 262.118 6.22772 7.02095 0
M  V30 1953 C 262.658 4.97725 7.70406 0
M  V30 1954 O 261.602 4.13256 7.58987 0
M  V30 1955 C 263.876 4.28231 7.11815 0
M  V30 1956 O 264.614 3.49945 8.01648 0
M  V30 1957 C 263.207 3.5063 5.96244 0
M  V30 1958 O 264.006 2.36482 5.64681 0
M  V30 1959 C 261.87 3.15122 6.56374 0
M  V30 1960 H 261.902 2.13853 6.99751 0
M  V30 1961 H 263.085 4.13501 5.06559 0
M  V30 1962 H 264.569 5.03285 6.70911 0
M  V30 1963 H 262.875 5.20877 8.75697 0
M  V30 1964 H 262.685 7.11046 7.35349 0
M  V30 1965 H 261.055 6.35815 7.26986 0
M  V30 1966 H 263.694 1.61644 6.13565 0
M  V30 1967 P 265.551 3.65191 7.99657 0
M  V30 1968 O 266.973 3.8425 8.48115 0
M  V30 1969 O 265.191 4.17805 6.64342 0
M  V30 1970 O 265.228 2.07613 7.95143 0
M  V30 1971 C 265.068 1.44328 9.27336 0
M  V30 1972 C 265.608 0.0220036 9.17197 0
M  V30 1973 O 264.552 -0.626867 8.61923 0
M  V30 1974 C 266.826 -0.24586 8.30336 0
M  V30 1975 O 267.564 -1.39011 8.63583 0
M  V30 1976 C 266.157 -0.273849 6.91158 0
M  V30 1977 O 266.956 -1.06348 6.02892 0
M  V30 1978 C 264.82 -0.897649 7.22545 0
M  V30 1979 H 264.852 -1.9841 7.04286 0
M  V30 1980 H 266.035 0.739928 6.497 0
M  V30 1981 H 267.519 0.60668 8.36503 0
M  V30 1982 H 265.825 -0.352479 10.1829 0
M  V30 1983 H 265.635 2.00611 10.0304 0
M  V30 1984 H 264.005 1.41843 9.55327 0
M  V30 1985 H 266.644 -1.95734 6.03555 0
M  V30 1986 P 268.502 -1.25109 8.70152 0
M  V30 1987 O 269.924 -1.35303 9.21419 0
M  V30 1988 O 268.142 -0.0769065 7.84762 0
M  V30 1989 O 268.179 -2.55232 7.81161 0
M  V30 1990 C 268.019 -3.79939 8.58154 0
M  V30 1991 C 268.559 -4.93969 7.72701 0
M  V30 1992 O 267.504 -5.18726 6.91205 0
M  V30 1993 C 269.777 -4.69597 6.85231 0
M  V30 1994 O 270.515 -5.83832 6.51337 0
M  V30 1995 C 269.109 -3.96706 5.66633 0
M  V30 1996 O 269.907 -4.15346 4.49615 0
M  V30 1997 C 267.771 -4.66153 5.59313 0
M  V30 1998 N 266.728 -3.71582 5.24027 0
M  V30 1999 C 266.79 -2.46018 5.67902 0
M  V30 2000 N 265.745 -1.74868 5.24518 0
M  V30 2001 C 265.011 -2.61333 4.54528 0
M  V30 2002 C 263.705 -2.46162 3.95441 0
M  V30 2003 O 262.972 -1.46013 3.94122 0
M  V30 2004 N 263.275 -3.59334 3.34752 0
M  V30 2005 C 264.024 -4.79605 3.3023 0
M  V30 2006 N 263.427 -5.82109 2.6065 0
M  V30 2007 N 265.177 -4.97402 3.8843 0
M  V30 2008 C 265.634 -3.86258 4.50476 0
M  V30 2009 H 267.803 -5.47679 4.85214 0
M  V30 2010 H 268.986 -2.88964 5.86476 0
M  V30 2011 H 270.471 -4.01947 7.36109 0
M  V30 2012 H 268.776 -5.80182 8.37584 0
M  V30 2013 H 268.586 -3.73517 9.52265 0
M  V30 2014 H 266.955 -3.97163 8.80359 0
M  V30 2015 H 262.379 -3.5825 2.90294 0
M  V30 2016 H 267.586 -2.06161 6.30974 0
M  V30 2017 H 262.516 -5.66979 2.15354 0
M  V30 2018 H 263.892 -6.73686 2.54344 0
M  V30 2019 H 269.596 -4.90891 4.01857 0
M  V30 2020 P 271.452 -5.75688 6.64379 0
M  V30 2021 O 272.874 -6.11849 7.01846 0
M  V30 2022 O 271.092 -4.30744 6.56026 0
M  V30 2023 O 271.129 -6.37042 5.19165 0
M  V30 2024 C 270.969 -7.83578 5.16515 0
M  V30 2025 C 271.509 -8.33398 3.83019 0
M  V30 2026 O 270.453 -8.10074 3.01034 0
M  V30 2027 C 272.727 -7.65514 3.2257 0
M  V30 2028 O 273.465 -8.4329 2.32297 0
M  V30 2029 C 272.058 -6.40075 2.62207 0
M  V30 2030 O 272.857 -5.92589 1.53712 0
M  V30 2031 C 270.721 -6.9454 2.18503 0
M  V30 2032 H 270.753 -7.23063 1.12091 0
M  V30 2033 H 271.936 -5.6025 3.37201 0
M  V30 2034 H 273.42 -7.35707 4.02681 0
M  V30 2035 H 271.726 -9.40912 3.9095 0
M  V30 2036 H 271.536 -8.29056 5.99158 0
M  V30 2037 H 269.906 -8.10073 5.25882 0
M  V30 2038 H 272.545 -6.30324 0.726794 0
M  V30 2039 P 274.403 -8.4349 2.47671 0
M  V30 2040 O 275.825 -8.94167 2.5964 0
M  V30 2041 O 274.043 -7.1704 3.19006 0
M  V30 2042 O 274.08 -8.16596 0.923387 0
M  V30 2043 C 273.92 -9.38437 0.108857 0
M  V30 2044 C 274.46 -9.08175 -1.28353 0
M  V30 2045 O 273.404 -8.44229 -1.84713 0
M  V30 2046 C 275.678 -8.18386 -1.42505 0
M  V30 2047 O 276.416 -8.3501 -2.60497 0
M  V30 2048 C 275.009 -6.80225 -1.25468 0
M  V30 2049 O 275.808 -5.81621 -1.91066 0
M  V30 2050 C 273.672 -7.02416 -1.9168 0
M  V30 2051 H 273.704 -6.6888 -2.96621 0
M  V30 2052 H 274.887 -6.53617 -0.192223 0
M  V30 2053 H 276.371 -8.36622 -0.589963 0
M  V30 2054 H 274.677 -10.0291 -1.79807 0
M  V30 2055 H 274.487 -10.2138 0.558219 0
M  V30 2056 H 272.857 -9.6579 0.0444202 0
M  V30 2057 H 275.496 -5.69556 -2.79637 0
M  V30 2058 P 277.354 -8.4349 -2.47671 0
M  V30 2059 O 278.776 -8.92593 -2.65 0
M  V30 2060 O 276.994 -7.7568 -1.19296 0
M  V30 2061 O 277.031 -7.36886 -3.63805 0
M  V30 2062 C 276.871 -7.95349 -4.982 0
M  V30 2063 C 277.411 -6.94612 -5.98974 0
M  V30 2064 O 276.355 -6.10347 -6.11815 0
M  V30 2065 C 278.629 -6.11426 -5.62335 0
M  V30 2066 O 279.367 -5.6162 -6.70584 0
M  V30 2067 C 277.96 -5.04409 -4.73308 0
M  V30 2068 O 278.759 -3.85992 -4.75183 0
M  V30 2069 C 276.623 -4.8728 -5.41006 0
M  V30 2070 H 276.655 -4.02333 -6.11157 0
M  V30 2071 H 277.838 -5.39466 -3.69543 0
M  V30 2072 H 279.322 -6.71916 -5.01943 0
M  V30 2073 H 277.628 -7.4649 -6.93477 0
M  V30 2074 H 277.438 -8.89416 -5.05237 0
M  V30 2075 H 275.808 -8.14876 -5.18409 0
M  V30 2076 H 278.447 -3.27957 -5.4317 0
M  V30 2077 P 280.304 -5.75688 -6.64379 0
M  V30 2078 O 281.726 -6.07627 -7.05504 0
M  V30 2079 O 279.944 -5.88047 -5.19722 0
M  V30 2080 O 279.981 -4.2322 -7.04443 0
M  V30 2081 C 279.821 -3.99743 -8.4911 0
M  V30 2082 C 280.361 -2.60516 -8.79425 0
M  V30 2083 O 279.305 -1.82684 -8.4467 0
M  V30 2084 C 281.579 -2.10343 -8.03628 0
M  V30 2085 O 282.317 -1.09919 -8.67766 0
M  V30 2086 C 280.91 -1.68446 -6.70876 0
M  V30 2087 O 281.709 -0.678137 -6.08433 0
M  V30 2088 C 279.573 -1.17436 -7.18567 0
M  V30 2089 H 279.605 -0.0804732 -7.31656 0
M  V30 2090 H 280.788 -2.54037 -6.02537 0
M  V30 2091 H 282.272 -2.93881 -7.85526 0
M  V30 2092 H 280.578 -2.53065 -9.86973 0
M  V30 2093 H 280.388 -4.75072 -9.05887 0
M  V30 2094 H 278.758 -4.05244 -8.76668 0
M  V30 2095 H 281.397 0.177647 -6.34251 0
M  V30 2096 P 283.255 -1.25109 -8.70152 0
M  V30 2097 O 284.656 -1.3516 -9.26897 0
M  V30 2098 O 282.877 -2.18141 -7.59181 0
M  V30 2099 O 282.932 0.248118 -8.21325 0
M  V30 2100 C 282.772 1.22779 -9.30434 0
M  V30 2101 C 283.312 2.56265 -8.80568 0
M  V30 2102 O 282.256 3.02944 -8.09255 0
M  V30 2103 C 284.529 2.57523 -7.89775 0
M  V30 2104 O 285.268 3.7668 -7.89438 0
M  V30 2105 C 283.862 2.20997 -6.55446 0
M  V30 2106 O 284.66 2.71851 -5.48419 0
M  V30 2107 C 282.524 2.89693 -6.67988 0
M  V30 2108 N 281.481 2.08895 -6.07487 0
M  V30 2109 C 280.446 2.72974 -5.43836 0
M  V30 2110 O 280.485 3.97779 -5.34036 0
M  V30 2111 N 279.434 2.0005 -4.91983 0
M  V30 2112 C 279.482 0.66501 -5.00098 0
M  V30 2113 N 278.472 -0.0305439 -4.4919 0
M  V30 2114 C 280.578 -0.0100979 -5.61099 0
M  V30 2115 C 281.544 0.74189 -6.14236 0
M  V30 2116 H 282.556 3.8874 -6.19774 0
M  V30 2117 H 283.739 1.12673 -6.44018 0
M  V30 2118 H 285.223 1.783 -8.19631 0
M  V30 2119 H 283.529 3.21673 -9.66791 0
M  V30 2120 H 283.338 0.901032 -10.1892 0
M  V30 2121 H 281.708 1.33036 -9.56493 0
M  V30 2122 H 280.626 -1.09591 -5.64358 0
M  V30 2123 H 282.39 0.260263 -6.6359 0
M  V30 2124 H 277.682 0.460194 -4.04793 0
M  V30 2125 H 278.477 -1.05716 -4.53953 0
M  V30 2126 H 284.444 3.62759 -5.33442 0
M  V30 2127 P 286.205 3.65191 -7.99657 0
M  V30 2128 O 287.627 3.89332 -8.45794 0
M  V30 2129 O 285.845 2.28472 -7.50807 0
M  V30 2130 O 285.882 4.64972 -6.77611 0
M  V30 2131 C 285.722 6.06319 -7.16352 0
M  V30 2132 C 286.262 6.91731 -6.02299 0
M  V30 2133 O 285.206 6.92449 -5.17064 0
M  V30 2134 C 287.48 6.43627 -5.25174 0
M  V30 2135 O 288.218 7.43686 -4.60469 0
M  V30 2136 C 286.811 5.40275 -4.31916 0
M  V30 2137 O 287.61 5.25279 -3.14438 0
M  V30 2138 C 285.474 6.04847 -4.05327 0
M  V30 2139 H 285.506 6.62195 -3.11261 0
M  V30 2140 H 286.689 4.42556 -4.81383 0
M  V30 2141 H 288.173 5.92458 -5.93643 0
M  V30 2142 H 286.479 7.92655 -6.402 0
M  V30 2143 H 286.289 6.26671 -8.0846 0
M  V30 2144 H 284.659 6.29101 -7.32804 0
M  V30 2145 H 287.298 5.84315 -2.47318 0
M  V30 2146 P 289.156 7.39546 -4.75277 0
M  V30 2147 O 290.577 7.84882 -5.01092 0
M  V30 2148 O 288.796 5.9812 -5.08098 0
M  V30 2149 O 288.833 7.57503 -3.1866 0
M  V30 2150 C 288.672 8.97452 -2.74862 0
M  V30 2151 C 289.213 9.07548 -1.32709 0
M  V30 2152 O 288.158 8.61972 -0.606089 0
M  V30 2153 C 290.431 8.25383 -0.938334 0
M  V30 2154 O 291.169 8.74577 0.146954 0
M  V30 2155 C 289.763 6.8802 -0.712559 0
M  V30 2156 O 290.561 6.1181 0.188505 0
M  V30 2157 C 288.425 7.27966 -0.139777 0
M  V30 2158 N 287.382 6.39368 -0.623421 0
M  V30 2159 C 287.551 5.71761 -1.78245 0
M  V30 2160 N 286.524 4.962 -2.10491 0
M  V30 2161 C 285.639 5.16158 -1.0635 0
M  V30 2162 C 284.372 4.60425 -0.810266 0
M  V30 2163 N 283.773 3.7057 -1.62914 0
M  V30 2164 N 283.807 5.06 0.348685 0
M  V30 2165 C 284.409 5.94532 1.20395 0
M  V30 2166 N 285.586 6.48452 1.01191 0
M  V30 2167 C 286.161 6.04423 -0.146291 0
M  V30 2168 H 288.457 7.25255 0.961469 0
M  V30 2169 H 289.64 6.32625 -1.65044 0
M  V30 2170 H 291.123 8.19355 -1.79097 0
M  V30 2171 H 289.429 10.1305 -1.09016 0
M  V30 2172 H 289.239 9.64276 -3.41316 0
M  V30 2173 H 287.609 9.25417 -2.76357 0
M  V30 2174 H 283.873 6.21659 2.10714 0
M  V30 2175 H 288.451 5.79354 -2.38959 0
M  V30 2176 H 282.843 3.33174 -1.38982 0
M  V30 2177 H 284.247 3.39714 -2.48836 0
M  V30 2178 H 290.249 6.25169 1.0783 0
M  V30 2179 P 292.106 8.791 1.04251e-12 0
M  V30 2180 O 293.528 9.31096 0.027933 0
M  V30 2181 O 291.746 7.77869 -1.04071 0
M  V30 2182 O 291.783 8.09533 1.41463 0
M  V30 2183 C 291.623 9.0349 2.53943 0
M  V30 2184 C 292.163 8.35226 3.79016 0
M  V30 2185 O 291.107 7.57992 4.15078 0
M  V30 2186 C 293.381 7.45087 3.67298 0
M  V30 2187 O 294.119 7.27796 4.85194 0
M  V30 2188 C 292.712 6.17323 3.12027 0
M  V30 2189 O 293.511 5.04231 3.47188 0
M  V30 2190 C 291.375 6.19961 3.81809 0
M  V30 2191 H 291.407 5.58218 4.73051 0
M  V30 2192 H 292.59 6.21726 2.02589 0
M  V30 2193 H 294.074 7.86112 2.9231 0
M  V30 2194 H 292.38 9.11627 4.55076 0
M  V30 2195 H 292.19 9.9573 2.34194 0
M  V30 2196 H 290.56 9.2792 2.67832 0
M  V30 2197 H 293.199 4.67702 4.28772 0
M  V30 2198 P 295.057 7.39546 4.75277 0
M  V30 2199 O 296.479 7.81777 5.05738 0
M  V30 2200 O 294.697 7.1065 3.32998 0
M  V30 2201 O 294.734 6.04542 5.56673 0
M  V30 2202 C 294.574 6.22772 7.02095 0
M  V30 2203 C 295.114 4.97725 7.70406 0
M  V30 2204 O 294.058 4.13256 7.58987 0
M  V30 2205 C 296.332 4.28231 7.11815 0
M  V30 2206 O 297.07 3.49945 8.01648 0
M  V30 2207 C 295.663 3.5063 5.96244 0
M  V30 2208 O 296.462 2.36482 5.64681 0
M  V30 2209 C 294.326 3.15122 6.56374 0
M  V30 2210 H 294.358 2.13853 6.99751 0
M  V30 2211 H 295.541 4.13501 5.06559 0
M  V30 2212 H 297.025 5.03285 6.70911 0
M  V30 2213 H 295.331 5.20877 8.75697 0
M  V30 2214 H 295.141 7.11046 7.35349 0
M  V30 2215 H 293.511 6.35815 7.26986 0
M  V30 2216 H 296.15 1.61644 6.13565 0
M  V30 2217 P 298.008 3.65191 7.99657 0
M  V30 2218 O 299.43 3.84333 8.48297 0
M  V30 2219 O 297.648 4.17805 6.64342 0
M  V30 2220 O 297.685 2.07613 7.95143 0
M  V30 2221 C 297.525 1.44328 9.27336 0
M  V30 2222 C 298.065 0.0220012 9.17097 0
M  V30 2223 O 297.01 -0.626867 8.61923 0
M  V30 2224 C 299.283 -0.24586 8.30336 0
M  V30 2225 O 300.021 -1.39011 8.63583 0
M  V30 2226 C 298.615 -0.273849 6.91158 0
M  V30 2227 O 299.413 -1.06331 6.02794 0
M  V30 2228 C 297.277 -0.897649 7.22545 0
M  V30 2229 N 296.234 -0.292839 6.41732 0
M  V30 2230 C 296.296 1.00068 6.10757 0
M  V30 2231 N 295.251 1.36468 5.35794 0
M  V30 2232 C 294.517 0.258894 5.2366 0
M  V30 2233 C 293.211 0.0670682 4.65752 0
M  V30 2234 O 292.478 0.902443 4.10497 0
M  V30 2235 N 292.781 -1.2131 4.75881 0
M  V30 2236 C 293.53 -2.24934 5.37101 0
M  V30 2237 N 292.933 -3.48783 5.33984 0
M  V30 2238 N 294.683 -2.0844 5.95684 0
M  V30 2239 C 295.14 -0.81395 5.87791 0
M  V30 2240 H 297.309 -1.9841 7.04286 0
M  V30 2241 H 298.492 0.739815 6.49601 0
M  V30 2242 H 299.977 0.598315 8.36563 0
M  V30 2243 H 298.282 -0.352479 10.1829 0
M  V30 2244 H 298.092 2.00611 10.0304 0
M  V30 2245 H 296.461 1.41843 9.55327 0
M  V30 2246 H 291.885 -1.44434 4.37895 0
M  V30 2247 H 297.092 1.67697 6.42268 0
M  V30 2248 H 292.022 -3.60543 4.87699 0
M  V30 2249 H 293.398 -4.29232 5.7819 0
M  V30 2250 H 299.102 -1.95704 6.0346 0
M  V30 2251 P 300.958 -1.25109 8.70152 0
M  V30 2252 O 302.38 -1.35274 9.21221 0
M  V30 2253 O 300.598 -0.0769065 7.84762 0
M  V30 2254 O 300.635 -2.55232 7.81161 0
M  V30 2255 C 300.475 -3.79939 8.58154 0
M  V30 2256 C 301.015 -4.94023 7.72785 0
M  V30 2257 O 299.959 -5.18726 6.91205 0
M  V30 2258 C 302.233 -4.69597 6.85231 0
M  V30 2259 O 302.971 -5.83832 6.51337 0
M  V30 2260 C 301.564 -3.96706 5.66633 0
M  V30 2261 O 302.363 -4.15414 4.49689 0
M  V30 2262 C 300.227 -4.66153 5.59313 0
M  V30 2263 H 300.259 -5.47679 4.85214 0
M  V30 2264 H 301.442 -2.89008 5.86566 0
M  V30 2265 H 302.926 -4.0121 7.36511 0
M  V30 2266 H 301.232 -5.80182 8.37584 0
M  V30 2267 H 301.042 -3.73517 9.52265 0
M  V30 2268 H 299.412 -3.97163 8.80359 0
M  V30 2269 H 302.051 -4.90969 4.01921 0
M  V30 2270 P 303.909 -5.75688 6.64379 0
M  V30 2271 O 305.331 -6.11981 7.01997 0
M  V30 2272 O 303.549 -4.30744 6.56026 0
M  V30 2273 O 303.586 -6.37042 5.19165 0
M  V30 2274 C 303.426 -7.83578 5.16515 0
M  V30 2275 C 303.966 -8.33307 3.82977 0
M  V30 2276 O 302.911 -8.10074 3.01034 0
M  V30 2277 C 305.184 -7.65514 3.2257 0
M  V30 2278 O 305.922 -8.4329 2.32297 0
M  V30 2279 C 304.516 -6.40075 2.62207 0
M  V30 2280 O 305.314 -5.92492 1.53687 0
M  V30 2281 C 303.178 -6.9454 2.18503 0
M  V30 2282 N 302.135 -5.95905 2.39948 0
M  V30 2283 C 302.197 -5.13994 3.44742 0
M  V30 2284 N 301.152 -4.30684 3.46712 0
M  V30 2285 C 300.418 -4.65583 2.41086 0
M  V30 2286 C 299.112 -4.20877 1.99581 0
M  V30 2287 O 298.379 -3.35913 2.52616 0
M  V30 2288 N 298.682 -4.83271 0.873406 0
M  V30 2289 C 299.431 -5.82006 0.185129 0
M  V30 2290 N 298.834 -6.30619 -0.95439 0
M  V30 2291 N 300.584 -6.28443 0.578524 0
M  V30 2292 C 301.041 -5.68486 1.70138 0
M  V30 2293 H 303.21 -7.23063 1.12091 0
M  V30 2294 H 304.393 -5.60165 3.3715 0
M  V30 2295 H 305.878 -7.3611 4.01946 0
M  V30 2296 H 304.183 -9.40912 3.9095 0
M  V30 2297 H 303.993 -8.29056 5.99158 0
M  V30 2298 H 302.362 -8.10073 5.25882 0
M  V30 2299 H 297.786 -4.58323 0.505262 0
M  V30 2300 H 302.993 -5.14564 4.1935 0
M  V30 2301 H 297.923 -5.93402 -1.25364 0
M  V30 2302 H 299.299 -7.0425 -1.50254 0
M  V30 2303 H 305.003 -6.30224 0.72668 0
M  V30 2304 P 306.859 -8.4349 2.47671 0
M  V30 2305 O 308.281 -8.94167 2.5964 0
M  V30 2306 O 306.499 -7.1704 3.19006 0
M  V30 2307 O 306.536 -8.16596 0.923387 0
M  V30 2308 C 306.376 -9.38437 0.108857 0
M  V30 2309 C 306.916 -9.08175 -1.28353 0
M  V30 2310 O 305.86 -8.44229 -1.84713 0
M  V30 2311 C 308.134 -8.18386 -1.42505 0
M  V30 2312 O 308.872 -8.3501 -2.60497 0
M  V30 2313 C 307.465 -6.80225 -1.25468 0
M  V30 2314 O 308.264 -5.81621 -1.91066 0
M  V30 2315 C 306.128 -7.02416 -1.9168 0
M  V30 2316 H 306.16 -6.6888 -2.96621 0
M  V30 2317 H 307.343 -6.53617 -0.192223 0
M  V30 2318 H 308.827 -8.36622 -0.589963 0
M  V30 2319 H 307.133 -10.0291 -1.79807 0
M  V30 2320 H 306.943 -10.2138 0.558219 0
M  V30 2321 H 305.313 -9.6579 0.0444202 0
M  V30 2322 H 307.952 -5.69556 -2.79637 0
M  V30 2323 P 309.81 -8.4349 -2.47671 0
M  V30 2324 O 311.232 -8.92593 -2.65 0
M  V30 2325 O 309.45 -7.7568 -1.19296 0
M  V30 2326 O 309.487 -7.36886 -3.63805 0
M  V30 2327 C 309.327 -7.95349 -4.982 0
M  V30 2328 C 309.867 -6.94612 -5.98974 0
M  V30 2329 O 308.811 -6.10347 -6.11815 0
M  V30 2330 C 311.085 -6.11426 -5.62335 0
M  V30 2331 O 311.823 -5.6162 -6.70584 0
M  V30 2332 C 310.416 -5.04409 -4.73308 0
M  V30 2333 O 311.215 -3.85992 -4.75183 0
M  V30 2334 C 309.079 -4.8728 -5.41006 0
M  V30 2335 H 309.111 -4.02333 -6.11157 0
M  V30 2336 H 310.294 -5.39466 -3.69543 0
M  V30 2337 H 311.778 -6.71916 -5.01943 0
M  V30 2338 H 310.084 -7.4649 -6.93477 0
M  V30 2339 H 309.894 -8.89416 -5.05237 0
M  V30 2340 H 308.264 -8.14876 -5.18409 0
M  V30 2341 H 310.903 -3.27957 -5.4317 0
M  V30 2342 P 312.76 -5.75688 -6.64379 0
M  V30 2343 O 314.181 -6.07692 -7.0558 0
M  V30 2344 O 312.4 -5.88047 -5.19722 0
M  V30 2345 O 312.437 -4.2322 -7.04443 0
M  V30 2346 C 312.276 -3.99785 -8.49201 0
M  V30 2347 C 312.817 -2.60516 -8.79425 0
M  V30 2348 O 311.762 -1.82663 -8.44573 0
M  V30 2349 C 314.035 -2.10343 -8.03628 0
M  V30 2350 O 314.773 -1.09919 -8.67766 0
M  V30 2351 C 313.367 -1.68446 -6.70876 0
M  V30 2352 O 314.165 -0.684109 -6.08265 0
M  V30 2353 C 312.029 -1.17436 -7.18567 0
M  V30 2354 N 310.986 -1.52699 -6.23988 0
M  V30 2355 C 311.155 -2.578 -5.40574 0
M  V30 2356 N 310.128 -2.78966 -4.61193 0
M  V30 2357 C 309.243 -1.78725 -4.95769 0
M  V30 2358 C 307.976 -1.45727 -4.44207 0
M  V30 2359 N 307.377 -2.13994 -3.43613 0
M  V30 2360 N 307.411 -0.374977 -5.05812 0
M  V30 2361 C 308.013 0.345585 -6.05615 0
M  V30 2362 N 309.19 0.0787651 -6.56253 0
M  V30 2363 C 309.765 -1.00499 -5.96189 0
M  V30 2364 H 312.061 -0.0804622 -7.31556 0
M  V30 2365 H 313.244 -2.53396 -6.02698 0
M  V30 2366 H 314.727 -2.93881 -7.85526 0
M  V30 2367 H 313.033 -2.52078 -9.87225 0
M  V30 2368 H 312.843 -4.75072 -9.05887 0
M  V30 2369 H 311.213 -4.05244 -8.76668 0
M  V30 2370 H 307.477 1.20098 -6.4532 0
M  V30 2371 H 312.055 -3.18977 -5.3945 0
M  V30 2372 H 306.447 -1.84983 -3.10004 0
M  V30 2373 H 307.851 -2.9465 -3.00843 0
M  V30 2374 H 313.853 0.177619 -6.34151 0
M  V30 2375 P 315.711 -1.25109 -8.70152 0
M  V30 2376 O 317.133 -1.29744 -9.22016 0
M  V30 2377 O 315.351 -2.13714 -7.55141 0
M  V30 2378 O 315.388 0.248149 -8.21425 0
M  V30 2379 C 315.228 1.22779 -9.30434 0
M  V30 2380 C 315.768 2.56293 -8.80664 0
M  V30 2381 O 314.712 3.02979 -8.09349 0
M  V30 2382 C 316.986 2.57523 -7.89775 0
M  V30 2383 O 317.724 3.7668 -7.89438 0
M  V30 2384 C 316.317 2.20997 -6.55446 0
M  V30 2385 O 317.116 2.71895 -5.48509 0
M  V30 2386 C 314.98 2.89693 -6.67988 0
M  V30 2387 H 315.012 3.88793 -6.19859 0
M  V30 2388 H 316.195 1.12046 -6.44229 0
M  V30 2389 H 317.679 1.7746 -8.19711 0
M  V30 2390 H 315.985 3.20706 -9.67112 0
M  V30 2391 H 315.795 0.901032 -10.1892 0
M  V30 2392 H 314.165 1.33049 -9.56592 0
M  V30 2393 H 316.804 3.57847 -5.23962 0
M  V30 2394 P 318.662 3.65191 -7.99657 0
M  V30 2395 O 320.084 3.89332 -8.45794 0
M  V30 2396 O 318.302 2.28472 -7.50807 0
M  V30 2397 O 318.339 4.64972 -6.77611 0
M  V30 2398 C 318.179 6.06319 -7.16352 0
M  V30 2399 C 318.719 6.91731 -6.02299 0
M  V30 2400 O 317.663 6.92449 -5.17064 0
M  V30 2401 C 319.937 6.43627 -5.25174 0
M  V30 2402 O 320.675 7.43686 -4.60469 0
M  V30 2403 C 319.268 5.40275 -4.31916 0
M  V30 2404 O 320.067 5.25279 -3.14438 0
M  V30 2405 C 317.931 6.04847 -4.05327 0
M  V30 2406 H 317.963 6.62195 -3.11261 0
M  V30 2407 H 319.146 4.42556 -4.81383 0
M  V30 2408 H 320.63 5.92458 -5.93643 0
M  V30 2409 H 318.936 7.92655 -6.402 0
M  V30 2410 H 318.746 6.26671 -8.0846 0
M  V30 2411 H 317.116 6.29101 -7.32804 0
M  V30 2412 H 319.755 5.84315 -2.47318 0
M  V30 2413 P 321.612 7.39546 -4.75277 0
M  V30 2414 O 323.034 7.84798 -5.01039 0
M  V30 2415 O 321.252 5.9812 -5.08098 0
M  V30 2416 O 321.289 7.57503 -3.1866 0
M  V30 2417 C 321.129 8.97357 -2.74833 0
M  V30 2418 C 321.669 9.07548 -1.32709 0
M  V30 2419 O 320.613 8.62072 -0.606159 0
M  V30 2420 C 322.887 8.25383 -0.938334 0
M  V30 2421 O 323.625 8.74577 0.146954 0
M  V30 2422 C 322.218 6.8802 -0.712559 0
M  V30 2423 O 323.017 6.1189 0.194655 0
M  V30 2424 C 320.881 7.27966 -0.139777 0
M  V30 2425 H 320.913 7.25354 0.961601 0
M  V30 2426 H 322.096 6.32557 -1.65702 0
M  V30 2427 H 323.58 8.19355 -1.79097 0
M  V30 2428 H 321.886 10.1294 -1.10029 0
M  V30 2429 H 321.696 9.64276 -3.41316 0
M  V30 2430 H 320.066 9.25417 -2.76357 0
M  V30 2431 H 322.705 6.25267 1.07847 0
M  V30 2432 P 324.563 8.791 1.35267e-12 0
M  V30 2433 O 325.985 9.31096 0.027933 0
M  V30 2434 O 324.203 7.77869 -1.04071 0
M  V30 2435 O 324.24 8.09533 1.41463 0
M  V30 2436 C 324.08 9.0349 2.53943 0
M  V30 2437 C 324.62 8.35226 3.79016 0
M  V30 2438 O 323.564 7.57992 4.15078 0
M  V30 2439 C 325.838 7.45087 3.67298 0
M  V30 2440 O 326.576 7.27796 4.85194 0
M  V30 2441 C 325.169 6.17323 3.12027 0
M  V30 2442 O 325.968 5.04231 3.47188 0
M  V30 2443 C 323.832 6.19961 3.81809 0
M  V30 2444 H 323.864 5.58218 4.73051 0
M  V30 2445 H 325.047 6.21726 2.02589 0
M  V30 2446 H 326.531 7.86112 2.9231 0
M  V30 2447 H 324.837 9.11627 4.55076 0
M  V30 2448 H 324.647 9.9573 2.34194 0
M  V30 2449 H 323.017 9.2792 2.67832 0
M  V30 2450 H 325.656 4.67702 4.28772 0
M  V30 2451 P 327.513 7.39546 4.75277 0
M  V30 2452 O 328.935 7.81777 5.05738 0
M  V30 2453 O 327.153 7.1065 3.32998 0
M  V30 2454 O 327.19 6.04542 5.56673 0
M  V30 2455 C 327.03 6.22772 7.02095 0
M  V30 2456 C 327.57 4.97725 7.70406 0
M  V30 2457 O 326.514 4.13256 7.58987 0
M  V30 2458 C 328.788 4.28231 7.11815 0
M  V30 2459 O 329.526 3.49945 8.01648 0
M  V30 2460 C 328.119 3.5063 5.96244 0
M  V30 2461 O 328.918 2.36482 5.64681 0
M  V30 2462 C 326.782 3.15122 6.56374 0
M  V30 2463 H 326.814 2.13853 6.99751 0
M  V30 2464 H 327.997 4.13501 5.06559 0
M  V30 2465 H 329.481 5.03285 6.70911 0
M  V30 2466 H 327.787 5.20877 8.75697 0
M  V30 2467 H 327.597 7.11046 7.35349 0
M  V30 2468 H 325.967 6.35815 7.26986 0
M  V30 2469 H 328.606 1.61644 6.13565 0
M  V30 2470 P 330.464 3.65191 7.99657 0
M  V30 2471 O 331.886 3.8425 8.48115 0
M  V30 2472 O 330.104 4.17805 6.64342 0
M  V30 2473 O 330.141 2.07613 7.95143 0
M  V30 2474 C 329.981 1.44328 9.27336 0
M  V30 2475 C 330.521 0.0220036 9.17197 0
M  V30 2476 O 329.465 -0.626867 8.61923 0
M  V30 2477 C 331.739 -0.24586 8.30336 0
M  V30 2478 O 332.477 -1.39011 8.63583 0
M  V30 2479 C 331.07 -0.273849 6.91158 0
M  V30 2480 O 331.869 -1.06348 6.02892 0
M  V30 2481 C 329.733 -0.897649 7.22545 0
M  V30 2482 H 329.765 -1.9841 7.04286 0
M  V30 2483 H 330.948 0.739928 6.497 0
M  V30 2484 H 332.432 0.60668 8.36503 0
M  V30 2485 H 330.738 -0.352479 10.1829 0
M  V30 2486 H 330.548 2.00611 10.0304 0
M  V30 2487 H 328.918 1.41843 9.55327 0
M  V30 2488 H 331.557 -1.95734 6.03555 0
M  V30 2489 P 333.414 -1.25109 8.70152 0
M  V30 2490 O 334.836 -1.35274 9.21221 0
M  V30 2491 O 333.054 -0.0769065 7.84762 0
M  V30 2492 O 333.091 -2.55232 7.81161 0
M  V30 2493 C 332.931 -3.79939 8.58154 0
M  V30 2494 C 333.471 -4.94023 7.72785 0
M  V30 2495 O 332.415 -5.18726 6.91205 0
M  V30 2496 C 334.689 -4.69597 6.85231 0
M  V30 2497 O 335.427 -5.83832 6.51337 0
M  V30 2498 C 334.02 -3.96706 5.66633 0
M  V30 2499 O 334.819 -4.15414 4.49689 0
M  V30 2500 C 332.683 -4.66153 5.59313 0
M  V30 2501 H 332.715 -5.47679 4.85214 0
M  V30 2502 H 333.898 -2.89008 5.86566 0
M  V30 2503 H 335.382 -4.0121 7.36511 0
M  V30 2504 H 333.688 -5.80182 8.37584 0
M  V30 2505 H 333.498 -3.73517 9.52265 0
M  V30 2506 H 331.868 -3.97163 8.80359 0
M  V30 2507 H 334.507 -4.90969 4.01921 0
M  V30 2508 P 336.365 -5.75688 6.64379 0
M  V30 2509 O 337.787 -6.11849 7.01846 0
M  V30 2510 O 336.005 -4.30744 6.56026 0
M  V30 2511 O 336.042 -6.37042 5.19165 0
M  V30 2512 C 335.882 -7.83578 5.16515 0
M  V30 2513 C 336.422 -8.33398 3.83019 0
M  V30 2514 O 335.366 -8.10074 3.01034 0
M  V30 2515 C 337.64 -7.65514 3.2257 0
M  V30 2516 O 338.378 -8.4329 2.32297 0
M  V30 2517 C 336.971 -6.40075 2.62207 0
M  V30 2518 O 337.77 -5.92589 1.53712 0
M  V30 2519 C 335.634 -6.9454 2.18503 0
M  V30 2520 H 335.666 -7.23063 1.12091 0
M  V30 2521 H 336.849 -5.6025 3.37201 0
M  V30 2522 H 338.333 -7.35707 4.02681 0
M  V30 2523 H 336.639 -9.40912 3.9095 0
M  V30 2524 H 336.449 -8.29056 5.99158 0
M  V30 2525 H 334.819 -8.10073 5.25882 0
M  V30 2526 H 337.458 -6.30324 0.726794 0
M  V30 2527 P 339.316 -8.4349 2.47671 0
M  V30 2528 O 340.738 -8.94167 2.5964 0
M  V30 2529 O 338.956 -7.1704 3.19006 0
M  V30 2530 O 338.993 -8.16596 0.923387 0
M  V30 2531 C 338.833 -9.38437 0.108857 0
M  V30 2532 C 339.373 -9.08175 -1.28353 0
M  V30 2533 O 338.317 -8.44229 -1.84713 0
M  V30 2534 C 340.591 -8.18386 -1.42505 0
M  V30 2535 O 341.329 -8.3501 -2.60497 0
M  V30 2536 C 339.922 -6.80225 -1.25468 0
M  V30 2537 O 340.721 -5.81621 -1.91066 0
M  V30 2538 C 338.585 -7.02416 -1.9168 0
M  V30 2539 H 338.617 -6.6888 -2.96621 0
M  V30 2540 H 339.8 -6.53617 -0.192223 0
M  V30 2541 H 341.284 -8.36622 -0.589963 0
M  V30 2542 H 339.59 -10.0291 -1.79807 0
M  V30 2543 H 339.4 -10.2138 0.558219 0
M  V30 2544 H 337.77 -9.6579 0.0444202 0
M  V30 2545 H 340.409 -5.69556 -2.79637 0
M  V30 2546 P 342.266 -8.4349 -2.47671 0
M  V30 2547 O 343.688 -8.92593 -2.65 0
M  V30 2548 O 341.906 -7.7568 -1.19296 0
M  V30 2549 O 341.943 -7.36886 -3.63805 0
M  V30 2550 C 341.783 -7.95349 -4.982 0
M  V30 2551 C 342.323 -6.94612 -5.98974 0
M  V30 2552 O 341.267 -6.10347 -6.11815 0
M  V30 2553 C 343.541 -6.11426 -5.62335 0
M  V30 2554 O 344.279 -5.6162 -6.70584 0
M  V30 2555 C 342.872 -5.04409 -4.73308 0
M  V30 2556 O 343.671 -3.85992 -4.75183 0
M  V30 2557 C 341.535 -4.8728 -5.41006 0
M  V30 2558 H 341.567 -4.02333 -6.11157 0
M  V30 2559 H 342.75 -5.39466 -3.69543 0
M  V30 2560 H 344.234 -6.71916 -5.01943 0
M  V30 2561 H 342.54 -7.4649 -6.93477 0
M  V30 2562 H 342.35 -8.89416 -5.05237 0
M  V30 2563 H 340.72 -8.14876 -5.18409 0
M  V30 2564 H 343.359 -3.27957 -5.4317 0
M  V30 2565 P 345.217 -5.75688 -6.64379 0
M  V30 2566 O 346.639 -6.07627 -7.05504 0
M  V30 2567 O 344.857 -5.88047 -5.19722 0
M  V30 2568 O 344.894 -4.2322 -7.04443 0
M  V30 2569 C 344.734 -3.99743 -8.4911 0
M  V30 2570 C 345.274 -2.60516 -8.79425 0
M  V30 2571 O 344.218 -1.82684 -8.4467 0
M  V30 2572 C 346.492 -2.10343 -8.03628 0
M  V30 2573 O 347.23 -1.09919 -8.67766 0
M  V30 2574 C 345.823 -1.68446 -6.70876 0
M  V30 2575 O 346.622 -0.678137 -6.08433 0
M  V30 2576 C 344.486 -1.17436 -7.18567 0
M  V30 2577 H 344.518 -0.0804732 -7.31656 0
M  V30 2578 H 345.701 -2.54037 -6.02537 0
M  V30 2579 H 347.185 -2.93881 -7.85526 0
M  V30 2580 H 345.491 -2.53065 -9.86973 0
M  V30 2581 H 345.301 -4.75072 -9.05887 0
M  V30 2582 H 343.671 -4.05244 -8.76668 0
M  V30 2583 H 346.31 0.177647 -6.34251 0
M  V30 2584 P 348.167 -1.25109 -8.70152 0
M  V30 2585 O 349.589 -1.29744 -9.22016 0
M  V30 2586 O 347.807 -2.13714 -7.55141 0
M  V30 2587 O 347.844 0.248149 -8.21425 0
M  V30 2588 C 347.684 1.22779 -9.30434 0
M  V30 2589 C 348.224 2.56293 -8.80664 0
M  V30 2590 O 347.168 3.02979 -8.09349 0
M  V30 2591 C 349.442 2.57523 -7.89775 0
M  V30 2592 O 350.18 3.7668 -7.89438 0
M  V30 2593 C 348.773 2.20997 -6.55446 0
M  V30 2594 O 349.572 2.71895 -5.48509 0
M  V30 2595 C 347.436 2.89693 -6.67988 0
M  V30 2596 H 347.468 3.88793 -6.19859 0
M  V30 2597 H 348.651 1.12046 -6.44229 0
M  V30 2598 H 350.135 1.7746 -8.19711 0
M  V30 2599 H 348.441 3.20706 -9.67112 0
M  V30 2600 H 348.251 0.901032 -10.1892 0
M  V30 2601 H 346.621 1.33049 -9.56592 0
M  V30 2602 H 349.26 3.57847 -5.23962 0
M  V30 2603 P 351.118 3.65191 -7.99657 0
M  V30 2604 O 352.54 3.89332 -8.45794 0
M  V30 2605 O 350.758 2.28472 -7.50807 0
M  V30 2606 O 350.795 4.64972 -6.77611 0
M  V30 2607 C 350.635 6.06319 -7.16352 0
M  V30 2608 C 351.175 6.91731 -6.02299 0
M  V30 2609 O 350.119 6.92449 -5.17064 0
M  V30 2610 C 352.393 6.43627 -5.25174 0
M  V30 2611 O 353.131 7.43686 -4.60469 0
M  V30 2612 C 351.724 5.40275 -4.31916 0
M  V30 2613 O 352.523 5.25279 -3.14438 0
M  V30 2614 C 350.387 6.04847 -4.05327 0
M  V30 2615 H 350.419 6.62195 -3.11261 0
M  V30 2616 H 351.602 4.42556 -4.81383 0
M  V30 2617 H 353.086 5.92458 -5.93643 0
M  V30 2618 H 351.392 7.92655 -6.402 0
M  V30 2619 H 351.202 6.26671 -8.0846 0
M  V30 2620 H 349.572 6.29101 -7.32804 0
M  V30 2621 H 352.211 5.84315 -2.47318 0
M  V30 2622 P 354.068 7.39546 -4.75277 0
M  V30 2623 O 355.49 7.84798 -5.01039 0
M  V30 2624 O 353.708 5.9812 -5.08098 0
M  V30 2625 O 353.745 7.57503 -3.1866 0
M  V30 2626 C 353.585 8.97357 -2.74833 0
M  V30 2627 C 354.125 9.07548 -1.32709 0
M  V30 2628 O 353.069 8.62072 -0.606159 0
M  V30 2629 C 355.343 8.25383 -0.938334 0
M  V30 2630 O 356.081 8.74577 0.146954 0
M  V30 2631 C 354.674 6.8802 -0.712559 0
M  V30 2632 O 355.473 6.1189 0.194655 0
M  V30 2633 C 353.337 7.27966 -0.139777 0
M  V30 2634 H 353.369 7.25354 0.961601 0
M  V30 2635 H 354.552 6.32557 -1.65702 0
M  V30 2636 H 356.036 8.19355 -1.79097 0
M  V30 2637 H 354.342 10.1294 -1.10029 0
M  V30 2638 H 354.152 9.64276 -3.41316 0
M  V30 2639 H 352.522 9.25417 -2.76357 0
M  V30 2640 H 355.161 6.25267 1.07847 0
M  V30 2641 P 357.019 8.791 1.66284e-12 0
M  V30 2642 O 358.441 9.31096 0.027933 0
M  V30 2643 O 356.659 7.77869 -1.04071 0
M  V30 2644 O 356.696 8.09533 1.41463 0
M  V30 2645 C 356.536 9.0349 2.53943 0
M  V30 2646 C 357.076 8.35226 3.79016 0
M  V30 2647 O 356.02 7.57992 4.15078 0
M  V30 2648 C 358.294 7.45087 3.67298 0
M  V30 2649 O 359.032 7.27796 4.85194 0
M  V30 2650 C 357.625 6.17323 3.12027 0
M  V30 2651 O 358.424 5.04231 3.47188 0
M  V30 2652 C 356.288 6.19961 3.81809 0
M  V30 2653 H 356.32 5.58218 4.73051 0
M  V30 2654 H 357.503 6.21726 2.02589 0
M  V30 2655 H 358.987 7.86112 2.9231 0
M  V30 2656 H 357.293 9.11627 4.55076 0
M  V30 2657 H 357.103 9.9573 2.34194 0
M  V30 2658 H 355.473 9.2792 2.67832 0
M  V30 2659 H 358.112 4.67702 4.28772 0
M  V30 2660 P 359.97 7.39546 4.75277 0
M  V30 2661 O 361.392 7.81777 5.05738 0
M  V30 2662 O 359.61 7.1065 3.32998 0
M  V30 2663 O 359.647 6.04542 5.56673 0
M  V30 2664 C 359.487 6.22772 7.02095 0
M  V30 2665 C 360.027 4.97725 7.70406 0
M  V30 2666 O 358.971 4.13256 7.58987 0
M  V30 2667 C 361.245 4.28231 7.11815 0
M  V30 2668 O 361.983 3.49945 8.01648 0
M  V30 2669 C 360.576 3.5063 5.96244 0
M  V30 2670 O 361.375 2.36482 5.64681 0
M  V30 2671 C 359.239 3.15122 6.56374 0
M  V30 2672 H 359.271 2.13853 6.99751 0
M  V30 2673 H 360.454 4.13501 5.06559 0
M  V30 2674 H 361.938 5.03285 6.70911 0
M  V30 2675 H 360.244 5.20877 8.75697 0
M  V30 2676 H 360.054 7.11046 7.35349 0
M  V30 2677 H 358.424 6.35815 7.26986 0
M  V30 2678 H 361.063 1.61644 6.13565 0
M  V30 2679 P 362.92 3.65191 7.99657 0
M  V30 2680 O 364.342 3.8425 8.48115 0
M  V30 2681 O 362.56 4.17805 6.64342 0
M  V30 2682 O 362.597 2.07613 7.95143 0
M  V30 2683 C 362.437 1.44328 9.27336 0
M  V30 2684 C 362.977 0.0220036 9.17197 0
M  V30 2685 O 361.921 -0.626867 8.61923 0
M  V30 2686 C 364.195 -0.24586 8.30336 0
M  V30 2687 O 364.933 -1.39011 8.63583 0
M  V30 2688 C 363.526 -0.273849 6.91158 0
M  V30 2689 O 364.325 -1.06348 6.02892 0
M  V30 2690 C 362.189 -0.897649 7.22545 0
M  V30 2691 H 362.221 -1.9841 7.04286 0
M  V30 2692 H 363.404 0.739928 6.497 0
M  V30 2693 H 364.888 0.60668 8.36503 0
M  V30 2694 H 363.194 -0.352479 10.1829 0
M  V30 2695 H 363.004 2.00611 10.0304 0
M  V30 2696 H 361.374 1.41843 9.55327 0
M  V30 2697 H 364.013 -1.95734 6.03555 0
M  V30 2698 P 365.871 -1.25109 8.70152 0
M  V30 2699 O 367.293 -1.35274 9.21221 0
M  V30 2700 O 365.511 -0.0769065 7.84762 0
M  V30 2701 O 365.548 -2.55232 7.81161 0
M  V30 2702 C 365.388 -3.79939 8.58154 0
M  V30 2703 C 365.928 -4.94023 7.72785 0
M  V30 2704 O 364.872 -5.18726 6.91205 0
M  V30 2705 C 367.146 -4.69597 6.85231 0
M  V30 2706 O 367.884 -5.83832 6.51337 0
M  V30 2707 C 366.477 -3.96706 5.66633 0
M  V30 2708 O 367.276 -4.15414 4.49689 0
M  V30 2709 C 365.14 -4.66153 5.59313 0
M  V30 2710 H 365.172 -5.47679 4.85214 0
M  V30 2711 H 366.355 -2.89008 5.86566 0
M  V30 2712 H 367.839 -4.0121 7.36511 0
M  V30 2713 H 366.145 -5.80182 8.37584 0
M  V30 2714 H 365.955 -3.73517 9.52265 0
M  V30 2715 H 364.325 -3.97163 8.80359 0
M  V30 2716 H 366.964 -4.90969 4.01921 0
M  V30 2717 P 368.821 -5.75688 6.64379 0
M  V30 2718 O 370.243 -6.11849 7.01846 0
M  V30 2719 O 368.461 -4.30744 6.56026 0
M  V30 2720 O 368.498 -6.37042 5.19165 0
M  V30 2721 C 368.338 -7.83578 5.16515 0
M  V30 2722 C 368.878 -8.33398 3.83019 0
M  V30 2723 O 367.822 -8.10074 3.01034 0
M  V30 2724 C 370.096 -7.65514 3.2257 0
M  V30 2725 O 370.834 -8.4329 2.32297 0
M  V30 2726 C 369.427 -6.40075 2.62207 0
M  V30 2727 O 370.226 -5.92589 1.53712 0
M  V30 2728 C 368.09 -6.9454 2.18503 0
M  V30 2729 H 368.122 -7.23063 1.12091 0
M  V30 2730 H 369.305 -5.6025 3.37201 0
M  V30 2731 H 370.789 -7.35707 4.02681 0
M  V30 2732 H 369.095 -9.40912 3.9095 0
M  V30 2733 H 368.905 -8.29056 5.99158 0
M  V30 2734 H 367.275 -8.10073 5.25882 0
M  V30 2735 H 369.914 -6.30324 0.726794 0
M  V30 2736 P 371.772 -8.4349 2.47671 0
M  V30 2737 O 373.194 -8.94167 2.5964 0
M  V30 2738 O 371.412 -7.1704 3.19006 0
M  V30 2739 O 371.449 -8.16596 0.923387 0
M  V30 2740 C 371.289 -9.38437 0.108857 0
M  V30 2741 C 371.829 -9.08175 -1.28353 0
M  V30 2742 O 370.773 -8.44229 -1.84713 0
M  V30 2743 C 373.047 -8.18386 -1.42505 0
M  V30 2744 O 373.785 -8.3501 -2.60497 0
M  V30 2745 C 372.378 -6.80225 -1.25468 0
M  V30 2746 O 373.177 -5.81621 -1.91066 0
M  V30 2747 C 371.041 -7.02416 -1.9168 0
M  V30 2748 H 371.073 -6.6888 -2.96621 0
M  V30 2749 H 372.256 -6.53617 -0.192223 0
M  V30 2750 H 373.74 -8.36622 -0.589963 0
M  V30 2751 H 372.046 -10.0291 -1.79807 0
M  V30 2752 H 371.856 -10.2138 0.558219 0
M  V30 2753 H 370.226 -9.6579 0.0444202 0
M  V30 2754 H 372.865 -5.69556 -2.79637 0
M  V30 2755 P 374.722 -8.4349 -2.47671 0
M  V30 2756 O 376.144 -8.92593 -2.65 0
M  V30 2757 O 374.362 -7.7568 -1.19296 0
M  V30 2758 O 374.399 -7.36886 -3.63805 0
M  V30 2759 C 374.239 -7.95349 -4.982 0
M  V30 2760 C 374.779 -6.94612 -5.98974 0
M  V30 2761 O 373.723 -6.10347 -6.11815 0
M  V30 2762 C 375.997 -6.11426 -5.62335 0
M  V30 2763 O 376.735 -5.6162 -6.70584 0
M  V30 2764 C 375.328 -5.04409 -4.73308 0
M  V30 2765 O 376.127 -3.85992 -4.75183 0
M  V30 2766 C 373.991 -4.8728 -5.41006 0
M  V30 2767 H 374.023 -4.02333 -6.11157 0
M  V30 2768 H 375.206 -5.39466 -3.69543 0
M  V30 2769 H 376.69 -6.71916 -5.01943 0
M  V30 2770 H 374.996 -7.4649 -6.93477 0
M  V30 2771 H 374.806 -8.89416 -5.05237 0
M  V30 2772 H 373.176 -8.14876 -5.18409 0
M  V30 2773 H 375.815 -3.27957 -5.4317 0
M  V30 2774 P 377.673 -5.75688 -6.64379 0
M  V30 2775 O 379.095 -6.07627 -7.05504 0
M  V30 2776 O 377.313 -5.88047 -5.19722 0
M  V30 2777 O 377.35 -4.2322 -7.04443 0
M  V30 2778 C 377.19 -3.99743 -8.4911 0
M  V30 2779 C 377.73 -2.60516 -8.79425 0
M  V30 2780 O 376.674 -1.82684 -8.4467 0
M  V30 2781 C 378.948 -2.10343 -8.03628 0
M  V30 2782 O 379.686 -1.09919 -8.67766 0
M  V30 2783 C 378.279 -1.68446 -6.70876 0
M  V30 2784 O 379.078 -0.678137 -6.08433 0
M  V30 2785 C 376.942 -1.17436 -7.18567 0
M  V30 2786 H 376.974 -0.0804732 -7.31656 0
M  V30 2787 H 378.157 -2.54037 -6.02537 0
M  V30 2788 H 379.641 -2.93881 -7.85526 0
M  V30 2789 H 377.947 -2.53065 -9.86973 0
M  V30 2790 H 377.757 -4.75072 -9.05887 0
M  V30 2791 H 376.127 -4.05244 -8.76668 0
M  V30 2792 H 378.766 0.177647 -6.34251 0
M  V30 2793 P 380.624 -1.25109 -8.70152 0
M  V30 2794 O 382.046 -1.29744 -9.22016 0
M  V30 2795 O 380.264 -2.13714 -7.55141 0
M  V30 2796 O 380.301 0.248149 -8.21425 0
M  V30 2797 C 380.141 1.22779 -9.30434 0
M  V30 2798 C 380.681 2.56293 -8.80664 0
M  V30 2799 O 379.625 3.02979 -8.09349 0
M  V30 2800 C 381.899 2.57523 -7.89775 0
M  V30 2801 O 382.637 3.7668 -7.89438 0
M  V30 2802 C 381.23 2.20997 -6.55446 0
M  V30 2803 O 382.029 2.71895 -5.48509 0
M  V30 2804 C 379.893 2.89693 -6.67988 0
M  V30 2805 H 379.925 3.88793 -6.19859 0
M  V30 2806 H 381.108 1.12046 -6.44229 0
M  V30 2807 H 382.592 1.7746 -8.19711 0
M  V30 2808 H 380.898 3.20706 -9.67112 0
M  V30 2809 H 380.708 0.901032 -10.1892 0
M  V30 2810 H 379.078 1.33049 -9.56592 0
M  V30 2811 H 381.717 3.57847 -5.23962 0
M  V30 2812 P 383.574 3.65191 -7.99657 0
M  V30 2813 O 384.996 3.89332 -8.45794 0
M  V30 2814 O 383.214 2.28472 -7.50807 0
M  V30 2815 O 383.251 4.64972 -6.77611 0
M  V30 2816 C 383.091 6.06319 -7.16352 0
M  V30 2817 C 383.631 6.91731 -6.02299 0
M  V30 2818 O 382.575 6.92449 -5.17064 0
M  V30 2819 C 384.849 6.43627 -5.25174 0
M  V30 2820 O 385.587 7.43686 -4.60469 0
M  V30 2821 C 384.18 5.40275 -4.31916 0
M  V30 2822 O 384.979 5.25279 -3.14438 0
M  V30 2823 C 382.843 6.04847 -4.05327 0
M  V30 2824 H 382.875 6.62195 -3.11261 0
M  V30 2825 H 384.058 4.42556 -4.81383 0
M  V30 2826 H 385.542 5.92458 -5.93643 0
M  V30 2827 H 383.848 7.92655 -6.402 0
M  V30 2828 H 383.658 6.26671 -8.0846 0
M  V30 2829 H 382.028 6.29101 -7.32804 0
M  V30 2830 H 384.667 5.84315 -2.47318 0
M  V30 2831 P 386.525 7.39546 -4.75277 0
M  V30 2832 O 387.947 7.84798 -5.01039 0
M  V30 2833 O 386.165 5.9812 -5.08098 0
M  V30 2834 O 386.202 7.57503 -3.1866 0
M  V30 2835 C 386.042 8.97357 -2.74833 0
M  V30 2836 C 386.582 9.07548 -1.32709 0
M  V30 2837 O 385.526 8.62072 -0.606159 0
M  V30 2838 C 387.8 8.25383 -0.938334 0
M  V30 2839 O 388.538 8.74577 0.146954 0
M  V30 2840 C 387.131 6.8802 -0.712559 0
M  V30 2841 O 387.93 6.1189 0.194655 0
M  V30 2842 C 385.794 7.27966 -0.139777 0
M  V30 2843 H 385.826 7.25354 0.961601 0
M  V30 2844 H 387.009 6.32557 -1.65702 0
M  V30 2845 H 388.493 8.19355 -1.79097 0
M  V30 2846 H 386.799 10.1294 -1.10029 0
M  V30 2847 H 386.609 9.64276 -3.41316 0
M  V30 2848 H 384.979 9.25417 -2.76357 0
M  V30 2849 H 387.618 6.25267 1.07847 0
M  V30 2850 P 389.475 8.791 1.973e-12 0
M  V30 2851 O 390.897 9.31096 0.027933 0
M  V30 2852 O 389.115 7.77869 -1.04071 0
M  V30 2853 O 389.152 8.09533 1.41463 0
M  V30 2854 C 388.992 9.0349 2.53943 0
M  V30 2855 C 389.532 8.35226 3.79016 0
M  V30 2856 O 388.476 7.57992 4.15078 0
M  V30 2857 C 390.75 7.45087 3.67298 0
M  V30 2858 O 391.488 7.27796 4.85194 0
M  V30 2859 C 390.081 6.17323 3.12027 0
M  V30 2860 O 390.88 5.04231 3.47188 0
M  V30 2861 C 388.744 6.19961 3.81809 0
M  V30 2862 H 388.776 5.58218 4.73051 0
M  V30 2863 H 389.959 6.21726 2.02589 0
M  V30 2864 H 391.443 7.86112 2.9231 0
M  V30 2865 H 389.749 9.11627 4.55076 0
M  V30 2866 H 389.559 9.9573 2.34194 0
M  V30 2867 H 387.929 9.2792 2.67832 0
M  V30 2868 H 390.568 4.67702 4.28772 0
M  V30 2869 P 392.426 7.39546 4.75277 0
M  V30 2870 O 393.848 7.81777 5.05738 0
M  V30 2871 O 392.066 7.1065 3.32998 0
M  V30 2872 O 392.103 6.04542 5.56673 0
M  V30 2873 C 391.943 6.22772 7.02095 0
M  V30 2874 C 392.483 4.97725 7.70406 0
M  V30 2875 O 391.427 4.13256 7.58987 0
M  V30 2876 C 393.701 4.28231 7.11815 0
M  V30 2877 O 394.439 3.49945 8.01648 0
M  V30 2878 C 393.032 3.5063 5.96244 0
M  V30 2879 O 393.831 2.36482 5.64681 0
M  V30 2880 C 391.695 3.15122 6.56374 0
M  V30 2881 H 391.727 2.13853 6.99751 0
M  V30 2882 H 392.91 4.13501 5.06559 0
M  V30 2883 H 394.394 5.03285 6.70911 0
M  V30 2884 H 392.7 5.20877 8.75697 0
M  V30 2885 H 392.51 7.11046 7.35349 0
M  V30 2886 H 390.88 6.35815 7.26986 0
M  V30 2887 H 393.519 1.61644 6.13565 0
M  V30 2888 P 395.376 3.65191 7.99657 0
M  V30 2889 O 396.798 3.8425 8.48115 0
M  V30 2890 O 395.016 4.17805 6.64342 0
M  V30 2891 O 395.053 2.07613 7.95143 0
M  V30 2892 C 394.893 1.44328 9.27336 0
M  V30 2893 C 395.433 0.0220036 9.17197 0
M  V30 2894 O 394.377 -0.626867 8.61923 0
M  V30 2895 C 396.651 -0.24586 8.30336 0
M  V30 2896 O 397.389 -1.39011 8.63583 0
M  V30 2897 C 395.982 -0.273849 6.91158 0
M  V30 2898 O 396.781 -1.06348 6.02892 0
M  V30 2899 C 394.645 -0.897649 7.22545 0
M  V30 2900 H 394.677 -1.9841 7.04286 0
M  V30 2901 H 395.86 0.739928 6.497 0
M  V30 2902 H 397.344 0.60668 8.36503 0
M  V30 2903 H 395.65 -0.352479 10.1829 0
M  V30 2904 H 395.46 2.00611 10.0304 0
M  V30 2905 H 393.83 1.41843 9.55327 0
M  V30 2906 H 396.469 -1.95734 6.03555 0
M  V30 2907 P 398.327 -1.25109 8.70152 0
M  V30 2908 O 399.749 -1.35274 9.21221 0
M  V30 2909 O 397.967 -0.0769065 7.84762 0
M  V30 2910 O 398.004 -2.55232 7.81161 0
M  V30 2911 C 397.844 -3.79939 8.58154 0
M  V30 2912 C 398.384 -4.94023 7.72785 0
M  V30 2913 O 397.328 -5.18726 6.91205 0
M  V30 2914 C 399.602 -4.69597 6.85231 0
M  V30 2915 O 400.34 -5.83832 6.51337 0
M  V30 2916 C 398.933 -3.96706 5.66633 0
M  V30 2917 O 399.732 -4.15414 4.49689 0
M  V30 2918 C 397.596 -4.66153 5.59313 0
M  V30 2919 H 397.628 -5.47679 4.85214 0
M  V30 2920 H 398.811 -2.89008 5.86566 0
M  V30 2921 H 400.295 -4.0121 7.36511 0
M  V30 2922 H 398.601 -5.80182 8.37584 0
M  V30 2923 H 398.411 -3.73517 9.52265 0
M  V30 2924 H 396.781 -3.97163 8.80359 0
M  V30 2925 H 399.42 -4.90969 4.01921 0
M  V30 2926 P 401.278 -5.75688 6.64379 0
M  V30 2927 O 402.7 -6.11849 7.01846 0
M  V30 2928 O 400.918 -4.30744 6.56026 0
M  V30 2929 O 400.955 -6.37042 5.19165 0
M  V30 2930 C 400.795 -7.83578 5.16515 0
M  V30 2931 C 401.335 -8.33398 3.83019 0
M  V30 2932 O 400.279 -8.10074 3.01034 0
M  V30 2933 C 402.553 -7.65514 3.2257 0
M  V30 2934 O 403.291 -8.4329 2.32297 0
M  V30 2935 C 401.884 -6.40075 2.62207 0
M  V30 2936 O 402.683 -5.92589 1.53712 0
M  V30 2937 C 400.547 -6.9454 2.18503 0
M  V30 2938 H 400.579 -7.23063 1.12091 0
M  V30 2939 H 401.762 -5.6025 3.37201 0
M  V30 2940 H 403.246 -7.35707 4.02681 0
M  V30 2941 H 401.552 -9.40912 3.9095 0
M  V30 2942 H 401.362 -8.29056 5.99158 0
M  V30 2943 H 399.732 -8.10073 5.25882 0
M  V30 2944 H 402.371 -6.30324 0.726794 0
M  V30 2945 P 404.228 -8.4349 2.47671 0
M  V30 2946 O 405.65 -8.94167 2.5964 0
M  V30 2947 O 403.868 -7.1704 3.19006 0
M  V30 2948 O 403.905 -8.16596 0.923387 0
M  V30 2949 C 403.745 -9.38437 0.108857 0
M  V30 2950 C 404.285 -9.08175 -1.28353 0
M  V30 2951 O 403.229 -8.44229 -1.84713 0
M  V30 2952 C 405.503 -8.18386 -1.42505 0
M  V30 2953 O 406.241 -8.3501 -2.60497 0
M  V30 2954 C 404.834 -6.80225 -1.25468 0
M  V30 2955 O 405.633 -5.81621 -1.91066 0
M  V30 2956 C 403.497 -7.02416 -1.9168 0
M  V30 2957 H 403.529 -6.6888 -2.96621 0
M  V30 2958 H 404.712 -6.53617 -0.192223 0
M  V30 2959 H 406.196 -8.36622 -0.589963 0
M  V30 2960 H 404.502 -10.0291 -1.79807 0
M  V30 2961 H 404.312 -10.2138 0.558219 0
M  V30 2962 H 402.682 -9.6579 0.0444202 0
M  V30 2963 H 405.321 -5.69556 -2.79637 0
M  V30 2964 P 407.179 -8.4349 -2.47671 0
M  V30 2965 O 408.601 -8.92785 -2.65057 0
M  V30 2966 O 406.819 -7.7568 -1.19296 0
M  V30 2967 O 406.856 -7.36886 -3.63805 0
M  V30 2968 C 406.696 -7.95349 -4.982 0
M  V30 2969 C 407.236 -6.94537 -5.98908 0
M  V30 2970 O 406.181 -6.10347 -6.11815 0
M  V30 2971 C 408.454 -6.11426 -5.62335 0
M  V30 2972 O 409.192 -5.6162 -6.70584 0
M  V30 2973 C 407.786 -5.04409 -4.73308 0
M  V30 2974 O 408.584 -3.85929 -4.75106 0
M  V30 2975 C 406.448 -4.8728 -5.41006 0
M  V30 2976 N 405.405 -4.65812 -4.42377 0
M  V30 2977 C 405.467 -5.27109 -3.24335 0
M  V30 2978 N 404.422 -4.94293 -2.47735 0
M  V30 2979 C 403.688 -4.1271 -3.23359 0
M  V30 2980 C 402.382 -3.56384 -2.99934 0
M  V30 2981 O 401.649 -3.69331 -2.00616 0
M  V30 2982 N 401.952 -2.80206 -4.03316 0
M  V30 2983 C 402.701 -2.58614 -5.2172 0
M  V30 2984 N 402.104 -1.75154 -6.13278 0
M  V30 2985 N 403.854 -3.13689 -5.47619 0
M  V30 2986 C 404.311 -3.90921 -4.46436 0
M  V30 2987 H 406.48 -4.02333 -6.11157 0
M  V30 2988 H 407.663 -5.39383 -3.69487 0
M  V30 2989 H 409.148 -6.71414 -5.02615 0
M  V30 2990 H 407.453 -7.4649 -6.93477 0
M  V30 2991 H 407.263 -8.89416 -5.05237 0
M  V30 2992 H 405.632 -8.14876 -5.18409 0
M  V30 2993 H 401.056 -2.36355 -3.95916 0
M  V30 2994 H 406.263 -5.95212 -2.93859 0
M  V30 2995 H 401.193 -1.32473 -5.91856 0
M  V30 2996 H 402.569 -1.5588 -7.03026 0
M  V30 2997 H 408.273 -3.27906 -5.43085 0
M  V30 2998 P 410.129 -5.75688 -6.64379 0
M  V30 2999 O 411.551 -6.07627 -7.05504 0
M  V30 3000 O 409.769 -5.88047 -5.19722 0
M  V30 3001 O 409.806 -4.2322 -7.04443 0
M  V30 3002 C 409.646 -3.99743 -8.4911 0
M  V30 3003 C 410.186 -2.60516 -8.79425 0
M  V30 3004 O 409.13 -1.82684 -8.4467 0
M  V30 3005 C 411.404 -2.10343 -8.03628 0
M  V30 3006 O 412.142 -1.09919 -8.67766 0
M  V30 3007 C 410.735 -1.68446 -6.70876 0
M  V30 3008 O 411.534 -0.678137 -6.08433 0
M  V30 3009 C 409.398 -1.17436 -7.18567 0
M  V30 3010 H 409.43 -0.0804732 -7.31656 0
M  V30 3011 H 410.613 -2.54037 -6.02537 0
M  V30 3012 H 412.097 -2.93881 -7.85526 0
M  V30 3013 H 410.403 -2.53065 -9.86973 0
M  V30 3014 H 410.213 -4.75072 -9.05887 0
M  V30 3015 H 408.583 -4.05244 -8.76668 0
M  V30 3016 H 411.222 0.177647 -6.34251 0
M  V30 3017 P 413.08 -1.25109 -8.70152 0
M  V30 3018 O 414.502 -1.29744 -9.22016 0
M  V30 3019 O 412.72 -2.13714 -7.55141 0
M  V30 3020 O 412.757 0.248149 -8.21425 0
M  V30 3021 C 412.597 1.22779 -9.30434 0
M  V30 3022 C 413.137 2.56293 -8.80664 0
M  V30 3023 O 412.081 3.02979 -8.09349 0
M  V30 3024 C 414.355 2.57523 -7.89775 0
M  V30 3025 O 415.093 3.7668 -7.89438 0
M  V30 3026 C 413.686 2.20997 -6.55446 0
M  V30 3027 O 414.485 2.71895 -5.48509 0
M  V30 3028 C 412.349 2.89693 -6.67988 0
M  V30 3029 H 412.381 3.88793 -6.19859 0
M  V30 3030 H 413.564 1.12046 -6.44229 0
M  V30 3031 H 415.048 1.7746 -8.19711 0
M  V30 3032 H 413.354 3.20706 -9.67112 0
M  V30 3033 H 413.164 0.901032 -10.1892 0
M  V30 3034 H 411.534 1.33049 -9.56592 0
M  V30 3035 H 414.173 3.57847 -5.23962 0
M  V30 3036 P 416.03 3.65191 -7.99657 0
M  V30 3037 O 417.452 3.89332 -8.45794 0
M  V30 3038 O 415.67 2.28472 -7.50807 0
M  V30 3039 O 415.707 4.64972 -6.77611 0
M  V30 3040 C 415.547 6.06319 -7.16352 0
M  V30 3041 C 416.087 6.91731 -6.02299 0
M  V30 3042 O 415.031 6.92449 -5.17064 0
M  V30 3043 C 417.305 6.43627 -5.25174 0
M  V30 3044 O 418.043 7.43686 -4.60469 0
M  V30 3045 C 416.636 5.40275 -4.31916 0
M  V30 3046 O 417.435 5.25279 -3.14438 0
M  V30 3047 C 415.299 6.04847 -4.05327 0
M  V30 3048 H 415.331 6.62195 -3.11261 0
M  V30 3049 H 416.514 4.42556 -4.81383 0
M  V30 3050 H 417.998 5.92458 -5.93643 0
M  V30 3051 H 416.304 7.92655 -6.402 0
M  V30 3052 H 416.114 6.26671 -8.0846 0
M  V30 3053 H 414.484 6.29101 -7.32804 0
M  V30 3054 H 417.123 5.84315 -2.47318 0
M  V30 3055 P 418.981 7.39546 -4.75277 0
M  V30 3056 O 420.403 7.84798 -5.01039 0
M  V30 3057 O 418.621 5.9812 -5.08098 0
M  V30 3058 O 418.658 7.57503 -3.1866 0
M  V30 3059 C 418.498 8.97357 -2.74833 0
M  V30 3060 C 419.038 9.07548 -1.32709 0
M  V30 3061 O 417.982 8.62072 -0.606159 0
M  V30 3062 C 420.256 8.25383 -0.938334 0
M  V30 3063 O 420.994 8.74577 0.146954 0
M  V30 3064 C 419.587 6.8802 -0.712559 0
M  V30 3065 O 420.386 6.1189 0.194655 0
M  V30 3066 C 418.25 7.27966 -0.139777 0
M  V30 3067 H 418.282 7.25354 0.961601 0
M  V30 3068 H 419.465 6.32557 -1.65702 0
M  V30 3069 H 420.949 8.19355 -1.79097 0
M  V30 3070 H 419.255 10.1294 -1.10029 0
M  V30 3071 H 419.065 9.64276 -3.41316 0
M  V30 3072 H 417.435 9.25417 -2.76357 0
M  V30 3073 H 420.074 6.25267 1.07847 0
M  V30 3074 P 421.932 8.791 2.28317e-12 0
M  V30 3075 O 423.354 9.31096 0.027933 0
M  V30 3076 O 421.572 7.77869 -1.04071 0
M  V30 3077 O 421.609 8.09533 1.41463 0
M  V30 3078 C 421.449 9.0349 2.53943 0
M  V30 3079 C 421.989 8.35226 3.79016 0
M  V30 3080 O 420.933 7.57992 4.15078 0
M  V30 3081 C 423.207 7.45087 3.67298 0
M  V30 3082 O 423.945 7.27796 4.85194 0
M  V30 3083 C 422.538 6.17323 3.12027 0
M  V30 3084 O 423.337 5.04231 3.47188 0
M  V30 3085 C 421.201 6.19961 3.81809 0
M  V30 3086 H 421.233 5.58218 4.73051 0
M  V30 3087 H 422.416 6.21726 2.02589 0
M  V30 3088 H 423.9 7.86112 2.9231 0
M  V30 3089 H 422.206 9.11627 4.55076 0
M  V30 3090 H 422.016 9.9573 2.34194 0
M  V30 3091 H 420.386 9.2792 2.67832 0
M  V30 3092 H 423.025 4.67702 4.28772 0
M  V30 3093 P 424.882 7.39546 4.75277 0
M  V30 3094 O 426.303 7.81861 5.05793 0
M  V30 3095 O 424.522 7.1065 3.32998 0
M  V30 3096 O 424.559 6.04542 5.56673 0
M  V30 3097 C 424.398 6.22839 7.02169 0
M  V30 3098 C 424.939 4.97725 7.70406 0
M  V30 3099 O 423.884 4.13208 7.58899 0
M  V30 3100 C 426.157 4.28231 7.11815 0
M  V30 3101 O 426.895 3.49945 8.01648 0
M  V30 3102 C 425.489 3.5063 5.96244 0
M  V30 3103 O 426.287 2.37008 5.64352 0
M  V30 3104 C 424.151 3.15122 6.56374 0
M  V30 3105 N 423.108 3.22311 5.55692 0
M  V30 3106 C 423.277 3.99655 4.46046 0
M  V30 3107 N 422.25 3.97599 3.63918 0
M  V30 3108 C 421.365 3.11159 4.25334 0
M  V30 3109 C 420.098 2.64972 3.85157 0
M  V30 3110 N 419.533 1.78482 4.74759 0
M  V30 3111 C 420.135 1.37463 5.90819 0
M  V30 3112 N 421.312 1.7733 6.31889 0
M  V30 3113 C 421.887 2.64393 5.43725 0
M  V30 3114 H 425.366 4.12931 5.06895 0
M  V30 3115 H 426.849 5.03285 6.70911 0
M  V30 3116 H 425.155 5.20001 8.76217 0
M  V30 3117 H 424.965 7.11046 7.35349 0
M  V30 3118 H 423.335 6.35815 7.26986 0
M  V30 3119 H 424.177 4.58037 4.27732 0
M  V30 3120 H 425.975 1.61619 6.13468 0
M  V30 3121 P 427.833 3.65191 7.99657 0
M  V30 3122 O 429.234 3.90823 8.51272 0
M  V30 3123 O 427.455 4.23191 6.66972 0
M  V30 3124 O 427.51 2.07587 7.95046 0
M  V30 3125 C 427.35 1.44328 9.27336 0
M  V30 3126 C 427.89 0.0220012 9.17097 0
M  V30 3127 O 426.834 -0.626794 8.61824 0
M  V30 3128 C 429.107 -0.24586 8.30336 0
M  V30 3129 O 429.846 -1.39011 8.63583 0
M  V30 3130 C 428.44 -0.273849 6.91158 0
M  V30 3131 O 429.238 -1.06331 6.02794 0
M  V30 3132 C 427.102 -0.897649 7.22545 0
M  V30 3133 N 426.059 -0.292839 6.41732 0
M  V30 3134 C 425.024 -1.08701 5.98712 0
M  V30 3135 O 425.063 -2.31211 6.24471 0
M  V30 3136 N 424.012 -0.533391 5.28415 0
M  V30 3137 C 424.06 0.770866 4.98576 0
M  V30 3138 N 423.05 1.29482 4.30134 0
M  V30 3139 C 425.156 1.59049 5.38086 0
M  V30 3140 C 426.122 1.01866 6.10256 0
M  V30 3141 H 427.134 -1.98383 7.04189 0
M  V30 3142 H 428.317 0.733318 6.49674 0
M  V30 3143 H 429.801 0.598386 8.36663 0
M  V30 3144 H 428.107 -0.362662 10.1825 0
M  V30 3145 H 427.916 2.00611 10.0304 0
M  V30 3146 H 426.286 1.41828 9.55228 0
M  V30 3147 H 425.204 2.6415 5.10622 0
M  V30 3148 H 426.968 1.61983 6.44042 0
M  V30 3149 H 422.26 0.69888 4.01361 0
M  V30 3150 H 423.055 2.29327 4.05781 0
M  V30 3151 H 429.022 -1.97777 6.14035 0
M  V30 3152 P 430.783 -1.25109 8.70152 0
M  V30 3153 O 432.205 -1.35274 9.21221 0
M  V30 3154 O 430.423 -0.0769065 7.84762 0
M  V30 3155 O 430.46 -2.55232 7.81161 0
M  V30 3156 C 430.3 -3.79939 8.58154 0
M  V30 3157 C 430.84 -4.94023 7.72785 0
M  V30 3158 O 429.784 -5.18726 6.91205 0
M  V30 3159 C 432.058 -4.69597 6.85231 0
M  V30 3160 O 432.796 -5.83832 6.51337 0
M  V30 3161 C 431.389 -3.96706 5.66633 0
M  V30 3162 O 432.188 -4.15414 4.49689 0
M  V30 3163 C 430.052 -4.66153 5.59313 0
M  V30 3164 H 430.084 -5.47679 4.85214 0
M  V30 3165 H 431.267 -2.89008 5.86566 0
M  V30 3166 H 432.751 -4.0121 7.36511 0
M  V30 3167 H 431.057 -5.80182 8.37584 0
M  V30 3168 H 430.867 -3.73517 9.52265 0
M  V30 3169 H 429.237 -3.97163 8.80359 0
M  V30 3170 H 431.876 -4.90969 4.01921 0
M  V30 3171 P 433.734 -5.75688 6.64379 0
M  V30 3172 O 435.156 -6.11981 7.01997 0
M  V30 3173 O 433.374 -4.30744 6.56026 0
M  V30 3174 O 433.411 -6.37042 5.19165 0
M  V30 3175 C 433.251 -7.83578 5.16515 0
M  V30 3176 C 433.791 -8.33307 3.82977 0
M  V30 3177 O 432.736 -8.10074 3.01034 0
M  V30 3178 C 435.009 -7.65514 3.2257 0
M  V30 3179 O 435.747 -8.4329 2.32297 0
M  V30 3180 C 434.341 -6.40075 2.62207 0
M  V30 3181 O 435.139 -5.92492 1.53687 0
M  V30 3182 C 433.003 -6.9454 2.18503 0
M  V30 3183 N 431.96 -5.95905 2.39948 0
M  V30 3184 C 432.022 -5.13994 3.44742 0
M  V30 3185 N 430.977 -4.30684 3.46712 0
M  V30 3186 C 430.243 -4.65583 2.41086 0
M  V30 3187 C 428.937 -4.20877 1.99581 0
M  V30 3188 O 428.204 -3.35913 2.52616 0
M  V30 3189 N 428.507 -4.83271 0.873406 0
M  V30 3190 C 429.256 -5.82006 0.185129 0
M  V30 3191 N 428.659 -6.30619 -0.95439 0
M  V30 3192 N 430.409 -6.28443 0.578524 0
M  V30 3193 C 430.866 -5.68486 1.70138 0
M  V30 3194 H 433.035 -7.23063 1.12091 0
M  V30 3195 H 434.218 -5.60165 3.3715 0
M  V30 3196 H 435.703 -7.3611 4.01946 0
M  V30 3197 H 434.008 -9.40912 3.9095 0
M  V30 3198 H 433.818 -8.29056 5.99158 0
M  V30 3199 H 432.187 -8.10073 5.25882 0
M  V30 3200 H 427.611 -4.58323 0.505262 0
M  V30 3201 H 432.818 -5.14564 4.1935 0
M  V30 3202 H 427.748 -5.93402 -1.25364 0
M  V30 3203 H 429.124 -7.0425 -1.50254 0
M  V30 3204 H 434.828 -6.30224 0.72668 0
M  V30 3205 P 436.684 -8.4349 2.47671 0
M  V30 3206 O 438.106 -8.94167 2.5964 0
M  V30 3207 O 436.324 -7.1704 3.19006 0
M  V30 3208 O 436.361 -8.16596 0.923387 0
M  V30 3209 C 436.201 -9.38437 0.108857 0
M  V30 3210 C 436.741 -9.08175 -1.28353 0
M  V30 3211 O 435.685 -8.44229 -1.84713 0
M  V30 3212 C 437.959 -8.18386 -1.42505 0
M  V30 3213 O 438.697 -8.3501 -2.60497 0
M  V30 3214 C 437.29 -6.80225 -1.25468 0
M  V30 3215 O 438.089 -5.81621 -1.91066 0
M  V30 3216 C 435.953 -7.02416 -1.9168 0
M  V30 3217 H 435.985 -6.6888 -2.96621 0
M  V30 3218 H 437.168 -6.53617 -0.192223 0
M  V30 3219 H 438.652 -8.36622 -0.589963 0
M  V30 3220 H 436.958 -10.0291 -1.79807 0
M  V30 3221 H 436.768 -10.2138 0.558219 0
M  V30 3222 H 435.138 -9.6579 0.0444202 0
M  V30 3223 H 437.777 -5.69556 -2.79637 0
M  V30 3224 P 439.635 -8.4349 -2.47671 0
M  V30 3225 O 441.056 -8.92689 -2.65029 0
M  V30 3226 O 439.275 -7.7568 -1.19296 0
M  V30 3227 O 439.312 -7.36886 -3.63805 0
M  V30 3228 C 439.151 -7.95433 -4.98253 0
M  V30 3229 C 439.692 -6.94612 -5.98974 0
M  V30 3230 O 438.637 -6.10277 -6.11744 0
M  V30 3231 C 440.91 -6.11426 -5.62335 0
M  V30 3232 O 441.648 -5.6162 -6.70584 0
M  V30 3233 C 440.242 -5.04409 -4.73308 0
M  V30 3234 O 441.04 -3.86404 -4.74719 0
M  V30 3235 C 438.904 -4.8728 -5.41006 0
M  V30 3236 N 437.861 -4.65812 -4.42377 0
M  V30 3237 C 438.03 -5.09132 -3.15382 0
M  V30 3238 N 437.003 -4.84021 -2.3716 0
M  V30 3239 C 436.118 -4.18386 -3.20441 0
M  V30 3240 C 434.851 -3.6275 -2.94905 0
M  V30 3241 N 434.252 -3.65794 -1.73372 0
M  V30 3242 N 434.286 -3.05008 -4.05243 0
M  V30 3243 C 434.888 -2.98348 -5.28159 0
M  V30 3244 N 436.065 -3.48171 -5.56333 0
M  V30 3245 C 436.64 -4.06869 -4.47212 0
M  V30 3246 H 438.936 -4.02278 -6.11074 0
M  V30 3247 H 440.119 -5.39013 -3.70026 0
M  V30 3248 H 441.602 -6.71916 -5.01943 0
M  V30 3249 H 439.908 -7.45796 -6.94223 0
M  V30 3250 H 439.718 -8.89416 -5.05237 0
M  V30 3251 H 438.088 -8.14876 -5.18409 0
M  V30 3252 H 434.352 -2.47853 -6.07807 0
M  V30 3253 H 438.93 -5.59989 -2.81362 0
M  V30 3254 H 433.322 -3.23218 -1.60782 0
M  V30 3255 H 434.726 -4.10523 -0.937856 0
M  V30 3256 H 440.728 -3.27906 -5.43085 0
M  V30 3257 P 442.586 -5.75688 -6.64379 0
M  V30 3258 O 444.008 -6.07627 -7.05504 0
M  V30 3259 O 442.226 -5.88047 -5.19722 0
M  V30 3260 O 442.263 -4.2322 -7.04443 0
M  V30 3261 C 442.103 -3.99743 -8.4911 0
M  V30 3262 C 442.643 -2.60516 -8.79425 0
M  V30 3263 O 441.587 -1.82684 -8.4467 0
M  V30 3264 C 443.861 -2.10343 -8.03628 0
M  V30 3265 O 444.599 -1.09919 -8.67766 0
M  V30 3266 C 443.192 -1.68446 -6.70876 0
M  V30 3267 O 443.991 -0.678137 -6.08433 0
M  V30 3268 C 441.855 -1.17436 -7.18567 0
M  V30 3269 H 441.887 -0.0804732 -7.31656 0
M  V30 3270 H 443.07 -2.54037 -6.02537 0
M  V30 3271 H 444.554 -2.93881 -7.85526 0
M  V30 3272 H 442.86 -2.53065 -9.86973 0
M  V30 3273 H 442.67 -4.75072 -9.05887 0
M  V30 3274 H 441.04 -4.05244 -8.76668 0
M  V30 3275 H 443.679 0.177647 -6.34251 0
M  V30 3276 P 445.536 -1.25109 -8.70152 0
M  V30 3277 O 446.958 -1.29744 -9.22016 0
M  V30 3278 O 445.176 -2.13714 -7.55141 0
M  V30 3279 O 445.213 0.248149 -8.21425 0
M  V30 3280 C 445.053 1.22779 -9.30434 0
M  V30 3281 C 445.593 2.56293 -8.80664 0
M  V30 3282 O 444.537 3.02979 -8.09349 0
M  V30 3283 C 446.811 2.57523 -7.89775 0
M  V30 3284 O 447.549 3.7668 -7.89438 0
M  V30 3285 C 446.142 2.20997 -6.55446 0
M  V30 3286 O 446.941 2.71895 -5.48509 0
M  V30 3287 C 444.805 2.89693 -6.67988 0
M  V30 3288 H 444.837 3.88793 -6.19859 0
M  V30 3289 H 446.02 1.12046 -6.44229 0
M  V30 3290 H 447.504 1.7746 -8.19711 0
M  V30 3291 H 445.81 3.20706 -9.67112 0
M  V30 3292 H 445.62 0.901032 -10.1892 0
M  V30 3293 H 443.99 1.33049 -9.56592 0
M  V30 3294 H 446.629 3.57847 -5.23962 0
M  V30 3295 P 448.487 3.65191 -7.99657 0
M  V30 3296 O 449.908 3.89374 -8.45885 0
M  V30 3297 O 448.127 2.28472 -7.50807 0
M  V30 3298 O 448.164 4.64972 -6.77611 0
M  V30 3299 C 448.003 6.06383 -7.16428 0
M  V30 3300 C 448.544 6.91731 -6.02299 0
M  V30 3301 O 447.489 6.92369 -5.17005 0
M  V30 3302 C 449.762 6.43627 -5.25174 0
M  V30 3303 O 450.5 7.43686 -4.60469 0
M  V30 3304 C 449.094 5.40275 -4.31916 0
M  V30 3305 O 449.892 5.24878 -3.14911 0
M  V30 3306 C 447.756 6.04847 -4.05327 0
M  V30 3307 N 446.713 5.04166 -3.98114 0
M  V30 3308 C 446.882 3.84629 -4.59066 0
M  V30 3309 N 445.855 3.0363 -4.45343 0
M  V30 3310 C 444.97 3.76722 -3.68523 0
M  V30 3311 C 443.703 3.43528 -3.17088 0
M  V30 3312 N 443.138 4.44526 -2.44231 0
M  V30 3313 C 443.74 5.65243 -2.20146 0
M  V30 3314 N 444.917 6.00221 -2.65453 0
M  V30 3315 C 445.492 5.00564 -3.39083 0
M  V30 3316 H 448.971 4.42969 -4.80867 0
M  V30 3317 H 450.454 5.92458 -5.93643 0
M  V30 3318 H 448.76 7.93295 -6.39407 0
M  V30 3319 H 448.57 6.26671 -8.0846 0
M  V30 3320 H 446.94 6.29101 -7.32804 0
M  V30 3321 H 447.782 3.58193 -5.14248 0
M  V30 3322 H 449.58 5.84223 -2.47279 0
M  V30 3323 P 451.437 7.39546 -4.75277 0
M  V30 3324 O 452.859 7.84798 -5.01039 0
M  V30 3325 O 451.077 5.9812 -5.08098 0
M  V30 3326 O 451.114 7.57503 -3.1866 0
M  V30 3327 C 450.954 8.97357 -2.74833 0
M  V30 3328 C 451.494 9.07548 -1.32709 0
M  V30 3329 O 450.438 8.62072 -0.606159 0
M  V30 3330 C 452.712 8.25383 -0.938334 0
M  V30 3331 O 453.45 8.74577 0.146954 0
M  V30 3332 C 452.043 6.8802 -0.712559 0
M  V30 3333 O 452.842 6.1189 0.194655 0
M  V30 3334 C 450.706 7.27966 -0.139777 0
M  V30 3335 H 450.738 7.25354 0.961601 0
M  V30 3336 H 451.921 6.32557 -1.65702 0
M  V30 3337 H 453.405 8.19355 -1.79097 0
M  V30 3338 H 451.711 10.1294 -1.10029 0
M  V30 3339 H 451.521 9.64276 -3.41316 0
M  V30 3340 H 449.891 9.25417 -2.76357 0
M  V30 3341 H 452.53 6.25267 1.07847 0
M  V30 3342 P 454.388 8.791 2.59334e-12 0
M  V30 3343 O 455.81 9.31096 0.027933 0
M  V30 3344 O 454.028 7.77869 -1.04071 0
M  V30 3345 O 454.065 8.09533 1.41463 0
M  V30 3346 C 453.905 9.0349 2.53943 0
M  V30 3347 C 454.445 8.35226 3.79016 0
M  V30 3348 O 453.389 7.57992 4.15078 0
M  V30 3349 C 455.663 7.45087 3.67298 0
M  V30 3350 O 456.401 7.27796 4.85194 0
M  V30 3351 C 454.994 6.17323 3.12027 0
M  V30 3352 O 455.793 5.04231 3.47188 0
M  V30 3353 C 453.657 6.19961 3.81809 0
M  V30 3354 H 453.689 5.58218 4.73051 0
M  V30 3355 H 454.872 6.21726 2.02589 0
M  V30 3356 H 456.356 7.86112 2.9231 0
M  V30 3357 H 454.662 9.11627 4.55076 0
M  V30 3358 H 454.472 9.9573 2.34194 0
M  V30 3359 H 452.842 9.2792 2.67832 0
M  V30 3360 H 455.481 4.67702 4.28772 0
M  V30 3361 P 457.338 7.39546 4.75277 0
M  V30 3362 O 458.759 7.81861 5.05793 0
M  V30 3363 O 456.978 7.1065 3.32998 0
M  V30 3364 O 457.015 6.04542 5.56673 0
M  V30 3365 C 456.854 6.22839 7.02169 0
M  V30 3366 C 457.395 4.97725 7.70406 0
M  V30 3367 O 456.34 4.13208 7.58899 0
M  V30 3368 C 458.613 4.28231 7.11815 0
M  V30 3369 O 459.351 3.49945 8.01648 0
M  V30 3370 C 457.945 3.5063 5.96244 0
M  V30 3371 O 458.743 2.37008 5.64352 0
M  V30 3372 C 456.607 3.15122 6.56374 0
M  V30 3373 N 455.564 3.22311 5.55692 0
M  V30 3374 C 455.733 3.99655 4.46046 0
M  V30 3375 N 454.706 3.97599 3.63918 0
M  V30 3376 C 453.821 3.11159 4.25334 0
M  V30 3377 C 452.554 2.64972 3.85157 0
M  V30 3378 N 451.955 3.02132 2.69405 0
M  V30 3379 N 451.989 1.78482 4.74759 0
M  V30 3380 C 452.591 1.37463 5.90819 0
M  V30 3381 N 453.768 1.7733 6.31889 0
M  V30 3382 C 454.343 2.64393 5.43725 0
M  V30 3383 H 456.639 2.13823 6.99656 0
M  V30 3384 H 457.822 4.12931 5.06895 0
M  V30 3385 H 459.305 5.03285 6.70911 0
M  V30 3386 H 457.611 5.20001 8.76217 0
M  V30 3387 H 457.421 7.11046 7.35349 0
M  V30 3388 H 455.791 6.35815 7.26986 0
M  V30 3389 H 452.055 0.66574 6.53015 0
M  V30 3390 H 456.633 4.58037 4.27732 0
M  V30 3391 H 451.025 2.64828 2.45331 0
M  V30 3392 H 452.429 3.67472 2.05644 0
M  V30 3393 H 458.431 1.61619 6.13468 0
M  V30 3394 P 460.289 3.65191 7.99657 0
M  V30 3395 O 461.69 3.90823 8.51272 0
M  V30 3396 O 459.911 4.23191 6.66972 0
M  V30 3397 O 459.966 2.07587 7.95046 0
M  V30 3398 C 459.806 1.44328 9.27336 0
M  V30 3399 C 460.346 0.0220012 9.17097 0
M  V30 3400 O 459.29 -0.626794 8.61824 0
M  V30 3401 C 461.563 -0.24586 8.30336 0
M  V30 3402 O 462.302 -1.39011 8.63583 0
M  V30 3403 C 460.896 -0.273849 6.91158 0
M  V30 3404 O 461.694 -1.06331 6.02794 0
M  V30 3405 C 459.558 -0.897649 7.22545 0
M  V30 3406 N 458.515 -0.292839 6.41732 0
M  V30 3407 C 457.48 -1.08701 5.98712 0
M  V30 3408 O 457.519 -2.31211 6.24471 0
M  V30 3409 N 456.468 -0.533391 5.28415 0
M  V30 3410 C 456.516 0.770866 4.98576 0
M  V30 3411 C 457.612 1.59049 5.38086 0
M  V30 3412 C 458.578 1.01866 6.10256 0
M  V30 3413 H 459.59 -1.98383 7.04189 0
M  V30 3414 H 460.773 0.733318 6.49674 0
M  V30 3415 H 462.257 0.598386 8.36663 0
M  V30 3416 H 460.563 -0.362662 10.1825 0
M  V30 3417 H 460.372 2.00611 10.0304 0
M  V30 3418 H 458.742 1.41828 9.55228 0
M  V30 3419 H 457.66 2.6415 5.10622 0
M  V30 3420 H 459.424 1.61983 6.44042 0
M  V30 3421 H 461.478 -1.97777 6.14035 0
M  V30 3422 P 463.239 -1.25109 8.70152 0
M  V30 3423 O 464.661 -1.35274 9.21221 0
M  V30 3424 O 462.879 -0.0769065 7.84762 0
M  V30 3425 O 462.916 -2.55232 7.81161 0
M  V30 3426 C 462.756 -3.79939 8.58154 0
M  V30 3427 C 463.296 -4.94023 7.72785 0
M  V30 3428 O 462.24 -5.18726 6.91205 0
M  V30 3429 C 464.514 -4.69597 6.85231 0
M  V30 3430 O 465.252 -5.83832 6.51337 0
M  V30 3431 C 463.845 -3.96706 5.66633 0
M  V30 3432 O 464.644 -4.15414 4.49689 0
M  V30 3433 C 462.508 -4.66153 5.59313 0
M  V30 3434 H 462.54 -5.47679 4.85214 0
M  V30 3435 H 463.723 -2.89008 5.86566 0
M  V30 3436 H 465.207 -4.0121 7.36511 0
M  V30 3437 H 463.513 -5.80182 8.37584 0
M  V30 3438 H 463.323 -3.73517 9.52265 0
M  V30 3439 H 461.693 -3.97163 8.80359 0
M  V30 3440 H 464.332 -4.90969 4.01921 0
M  V30 3441 P 466.19 -5.75688 6.64379 0
M  V30 3442 O 467.612 -6.11849 7.01846 0
M  V30 3443 O 465.83 -4.30744 6.56026 0
M  V30 3444 O 465.867 -6.37042 5.19165 0
M  V30 3445 C 465.707 -7.83578 5.16515 0
M  V30 3446 C 466.247 -8.33398 3.83019 0
M  V30 3447 O 465.191 -8.10074 3.01034 0
M  V30 3448 C 467.465 -7.65514 3.2257 0
M  V30 3449 O 468.203 -8.4329 2.32297 0
M  V30 3450 C 466.796 -6.40075 2.62207 0
M  V30 3451 O 467.595 -5.92589 1.53712 0
M  V30 3452 C 465.459 -6.9454 2.18503 0
M  V30 3453 H 465.491 -7.23063 1.12091 0
M  V30 3454 H 466.674 -5.6025 3.37201 0
M  V30 3455 H 468.158 -7.35707 4.02681 0
M  V30 3456 H 466.464 -9.40912 3.9095 0
M  V30 3457 H 466.274 -8.29056 5.99158 0
M  V30 3458 H 464.644 -8.10073 5.25882 0
M  V30 3459 H 467.283 -6.30324 0.726794 0
M  V30 3460 P 469.141 -8.4349 2.47671 0
M  V30 3461 O 470.563 -8.94167 2.5964 0
M  V30 3462 O 468.781 -7.1704 3.19006 0
M  V30 3463 O 468.818 -8.16596 0.923387 0
M  V30 3464 C 468.658 -9.38437 0.108857 0
M  V30 3465 C 469.198 -9.08175 -1.28353 0
M  V30 3466 O 468.142 -8.44229 -1.84713 0
M  V30 3467 C 470.416 -8.18386 -1.42505 0
M  V30 3468 O 471.154 -8.3501 -2.60497 0
M  V30 3469 C 469.747 -6.80225 -1.25468 0
M  V30 3470 O 470.546 -5.81621 -1.91066 0
M  V30 3471 C 468.41 -7.02416 -1.9168 0
M  V30 3472 H 468.442 -6.6888 -2.96621 0
M  V30 3473 H 469.625 -6.53617 -0.192223 0
M  V30 3474 H 471.109 -8.36622 -0.589963 0
M  V30 3475 H 469.415 -10.0291 -1.79807 0
M  V30 3476 H 469.225 -10.2138 0.558219 0
M  V30 3477 H 467.595 -9.6579 0.0444202 0
M  V30 3478 H 470.234 -5.69556 -2.79637 0
M  V30 3479 P 472.091 -8.4349 -2.47671 0
M  V30 3480 O 473.513 -8.92593 -2.65 0
M  V30 3481 O 471.731 -7.7568 -1.19296 0
M  V30 3482 O 471.768 -7.36886 -3.63805 0
M  V30 3483 C 471.608 -7.95349 -4.982 0
M  V30 3484 C 472.148 -6.94612 -5.98974 0
M  V30 3485 O 471.092 -6.10347 -6.11815 0
M  V30 3486 C 473.366 -6.11426 -5.62335 0
M  V30 3487 O 474.104 -5.6162 -6.70584 0
M  V30 3488 C 472.697 -5.04409 -4.73308 0
M  V30 3489 O 473.496 -3.85992 -4.75183 0
M  V30 3490 C 471.36 -4.8728 -5.41006 0
M  V30 3491 H 471.392 -4.02333 -6.11157 0
M  V30 3492 H 472.575 -5.39466 -3.69543 0
M  V30 3493 H 474.059 -6.71916 -5.01943 0
M  V30 3494 H 472.365 -7.4649 -6.93477 0
M  V30 3495 H 472.175 -8.89416 -5.05237 0
M  V30 3496 H 470.545 -8.14876 -5.18409 0
M  V30 3497 H 473.184 -3.27957 -5.4317 0
M  V30 3498 P 475.042 -5.75688 -6.64379 0
M  V30 3499 O 476.464 -6.07627 -7.05504 0
M  V30 3500 O 474.682 -5.88047 -5.19722 0
M  V30 3501 O 474.719 -4.2322 -7.04443 0
M  V30 3502 C 474.559 -3.99743 -8.4911 0
M  V30 3503 C 475.099 -2.60516 -8.79425 0
M  V30 3504 O 474.043 -1.82684 -8.4467 0
M  V30 3505 C 476.317 -2.10343 -8.03628 0
M  V30 3506 O 477.055 -1.09919 -8.67766 0
M  V30 3507 C 475.648 -1.68446 -6.70876 0
M  V30 3508 O 476.447 -0.678137 -6.08433 0
M  V30 3509 C 474.311 -1.17436 -7.18567 0
M  V30 3510 H 474.343 -0.0804732 -7.31656 0
M  V30 3511 H 475.526 -2.54037 -6.02537 0
M  V30 3512 H 477.01 -2.93881 -7.85526 0
M  V30 3513 H 475.316 -2.53065 -9.86973 0
M  V30 3514 H 475.126 -4.75072 -9.05887 0
M  V30 3515 H 473.496 -4.05244 -8.76668 0
M  V30 3516 H 476.135 0.177647 -6.34251 0
M  V30 3517 P 477.992 -1.25109 -8.70152 0
M  V30 3518 O 479.414 -1.29744 -9.22016 0
M  V30 3519 O 477.632 -2.13714 -7.55141 0
M  V30 3520 O 477.669 0.248149 -8.21425 0
M  V30 3521 C 477.509 1.22779 -9.30434 0
M  V30 3522 C 478.049 2.56293 -8.80664 0
M  V30 3523 O 476.993 3.02979 -8.09349 0
M  V30 3524 C 479.267 2.57523 -7.89775 0
M  V30 3525 O 480.005 3.7668 -7.89438 0
M  V30 3526 C 478.598 2.20997 -6.55446 0
M  V30 3527 O 479.397 2.71895 -5.48509 0
M  V30 3528 C 477.261 2.89693 -6.67988 0
M  V30 3529 H 477.293 3.88793 -6.19859 0
M  V30 3530 H 478.476 1.12046 -6.44229 0
M  V30 3531 H 479.96 1.7746 -8.19711 0
M  V30 3532 H 478.266 3.20706 -9.67112 0
M  V30 3533 H 478.076 0.901032 -10.1892 0
M  V30 3534 H 476.446 1.33049 -9.56592 0
M  V30 3535 H 479.085 3.57847 -5.23962 0
M  V30 3536 P 480.943 3.65191 -7.99657 0
M  V30 3537 O 482.365 3.89332 -8.45794 0
M  V30 3538 O 480.583 2.28472 -7.50807 0
M  V30 3539 O 480.62 4.64972 -6.77611 0
M  V30 3540 C 480.46 6.06319 -7.16352 0
M  V30 3541 C 481 6.91731 -6.02299 0
M  V30 3542 O 479.944 6.92449 -5.17064 0
M  V30 3543 C 482.218 6.43627 -5.25174 0
M  V30 3544 O 482.956 7.43686 -4.60469 0
M  V30 3545 C 481.549 5.40275 -4.31916 0
M  V30 3546 O 482.348 5.25279 -3.14438 0
M  V30 3547 C 480.212 6.04847 -4.05327 0
M  V30 3548 H 480.244 6.62195 -3.11261 0
M  V30 3549 H 481.427 4.42556 -4.81383 0
M  V30 3550 H 482.911 5.92458 -5.93643 0
M  V30 3551 H 481.217 7.92655 -6.402 0
M  V30 3552 H 481.027 6.26671 -8.0846 0
M  V30 3553 H 479.397 6.29101 -7.32804 0
M  V30 3554 H 482.036 5.84315 -2.47318 0
M  V30 3555 P 483.893 7.39546 -4.75277 0
M  V30 3556 O 485.314 7.84882 -5.01092 0
M  V30 3557 O 483.533 5.9812 -5.08098 0
M  V30 3558 O 483.57 7.57503 -3.1866 0
M  V30 3559 C 483.409 8.97452 -2.74862 0
M  V30 3560 C 483.95 9.07548 -1.32709 0
M  V30 3561 O 482.895 8.61972 -0.606089 0
M  V30 3562 C 485.168 8.25383 -0.938334 0
M  V30 3563 O 485.906 8.74577 0.146954 0
M  V30 3564 C 484.5 6.8802 -0.712559 0
M  V30 3565 O 485.298 6.1181 0.188505 0
M  V30 3566 C 483.162 7.27966 -0.139777 0
M  V30 3567 N 482.119 6.39368 -0.623421 0
M  V30 3568 C 482.288 5.71761 -1.78245 0
M  V30 3569 N 481.261 4.962 -2.10491 0
M  V30 3570 C 480.376 5.16158 -1.0635 0
M  V30 3571 C 479.109 4.60425 -0.810266 0
M  V30 3572 N 478.544 5.06 0.348685 0
M  V30 3573 C 479.146 5.94532 1.20395 0
M  V30 3574 N 480.323 6.48452 1.01191 0
M  V30 3575 C 480.898 6.04423 -0.146291 0
M  V30 3576 H 484.377 6.32625 -1.65044 0
M  V30 3577 H 485.86 8.19355 -1.79097 0
M  V30 3578 H 484.166 10.1305 -1.09016 0
M  V30 3579 H 483.976 9.64276 -3.41316 0
M  V30 3580 H 482.346 9.25417 -2.76357 0
M  V30 3581 H 483.188 5.79354 -2.38959 0
M  V30 3582 H 484.986 6.25169 1.0783 0
M  V30 3583 P 486.844 8.791 2.9035e-12 0
M  V30 3584 O 488.266 9.31096 0.027933 0
M  V30 3585 O 486.484 7.77869 -1.04071 0
M  V30 3586 O 486.521 8.09533 1.41463 0
M  V30 3587 C 486.361 9.0349 2.53943 0
M  V30 3588 C 486.901 8.35226 3.79016 0
M  V30 3589 O 485.845 7.57992 4.15078 0
M  V30 3590 C 488.119 7.45087 3.67298 0
M  V30 3591 O 488.857 7.27796 4.85194 0
M  V30 3592 C 487.45 6.17323 3.12027 0
M  V30 3593 O 488.249 5.04231 3.47188 0
M  V30 3594 C 486.113 6.19961 3.81809 0
M  V30 3595 H 486.145 5.58218 4.73051 0
M  V30 3596 H 487.328 6.21726 2.02589 0
M  V30 3597 H 488.812 7.86112 2.9231 0
M  V30 3598 H 487.118 9.11627 4.55076 0
M  V30 3599 H 486.928 9.9573 2.34194 0
M  V30 3600 H 485.298 9.2792 2.67832 0
M  V30 3601 H 487.937 4.67702 4.28772 0
M  V30 3602 P 489.795 7.39546 4.75277 0
M  V30 3603 O 491.217 7.81777 5.05738 0
M  V30 3604 O 489.435 7.1065 3.32998 0
M  V30 3605 O 489.472 6.04542 5.56673 0
M  V30 3606 C 489.312 6.22772 7.02095 0
M  V30 3607 C 489.852 4.97725 7.70406 0
M  V30 3608 O 488.796 4.13256 7.58987 0
M  V30 3609 C 491.07 4.28231 7.11815 0
M  V30 3610 O 491.808 3.49945 8.01648 0
M  V30 3611 C 490.401 3.5063 5.96244 0
M  V30 3612 O 491.2 2.36482 5.64681 0
M  V30 3613 C 489.064 3.15122 6.56374 0
M  V30 3614 H 489.096 2.13853 6.99751 0
M  V30 3615 H 490.279 4.13501 5.06559 0
M  V30 3616 H 491.763 5.03285 6.70911 0
M  V30 3617 H 490.069 5.20877 8.75697 0
M  V30 3618 H 489.879 7.11046 7.35349 0
M  V30 3619 H 488.249 6.35815 7.26986 0
M  V30 3620 H 490.888 1.61644 6.13565 0
M  V30 3621 P 492.745 3.65191 7.99657 0
M  V30 3622 O 494.167 3.8425 8.48115 0
M  V30 3623 O 492.385 4.17805 6.64342 0
M  V30 3624 O 492.422 2.07613 7.95143 0
M  V30 3625 C 492.262 1.44328 9.27336 0
M  V30 3626 C 492.802 0.0220036 9.17197 0
M  V30 3627 O 491.746 -0.626867 8.61923 0
M  V30 3628 C 494.02 -0.24586 8.30336 0
M  V30 3629 O 494.758 -1.39011 8.63583 0
M  V30 3630 C 493.351 -0.273849 6.91158 0
M  V30 3631 O 494.15 -1.06348 6.02892 0
M  V30 3632 C 492.014 -0.897649 7.22545 0
M  V30 3633 H 492.046 -1.9841 7.04286 0
M  V30 3634 H 493.229 0.739928 6.497 0
M  V30 3635 H 494.713 0.60668 8.36503 0
M  V30 3636 H 493.019 -0.352479 10.1829 0
M  V30 3637 H 492.829 2.00611 10.0304 0
M  V30 3638 H 491.199 1.41843 9.55327 0
M  V30 3639 H 493.838 -1.95734 6.03555 0
M  V30 3640 P 495.696 -1.25109 8.70152 0
M  V30 3641 O 497.097 -1.31452 9.27431 0
M  V30 3642 O 495.318 -0.0458113 7.89887 0
M  V30 3643 O 495.373 -2.55201 7.81066 0
M  V30 3644 C 495.213 -3.79939 8.58154 0
M  V30 3645 C 495.753 -4.93969 7.72701 0
M  V30 3646 O 494.697 -5.18666 6.91125 0
M  V30 3647 C 496.97 -4.69597 6.85231 0
M  V30 3648 O 497.709 -5.83832 6.51337 0
M  V30 3649 C 496.303 -3.96706 5.66633 0
M  V30 3650 O 497.101 -4.15346 4.49615 0
M  V30 3651 C 494.965 -4.66153 5.59313 0
M  V30 3652 N 493.922 -3.71582 5.24027 0
M  V30 3653 C 492.887 -4.15133 4.44901 0
M  V30 3654 O 492.926 -5.32122 4.00336 0
M  V30 3655 N 491.875 -3.30554 4.15693 0
M  V30 3656 C 491.923 -2.04701 4.61105 0
M  V30 3657 C 493.019 -1.57111 5.38655 0
M  V30 3658 C 493.985 -2.44234 5.68454 0
M  V30 3659 H 494.997 -5.47604 4.85148 0
M  V30 3660 H 496.18 -2.8955 5.86187 0
M  V30 3661 H 497.664 -4.01995 7.36197 0
M  V30 3662 H 495.97 -5.81019 8.37003 0
M  V30 3663 H 495.779 -3.73517 9.52265 0
M  V30 3664 H 494.149 -3.97122 8.80267 0
M  V30 3665 H 493.067 -0.538464 5.72373 0
M  V30 3666 H 494.831 -2.11927 6.29377 0
M  V30 3667 H 496.885 -4.98352 4.09633 0
M  V30 3668 P 498.646 -5.75688 6.64379 0
M  V30 3669 O 500.068 -6.11849 7.01846 0
M  V30 3670 O 498.286 -4.30744 6.56026 0
M  V30 3671 O 498.323 -6.37042 5.19165 0
M  V30 3672 C 498.163 -7.83578 5.16515 0
M  V30 3673 C 498.703 -8.33398 3.83019 0
M  V30 3674 O 497.647 -8.10074 3.01034 0
M  V30 3675 C 499.921 -7.65514 3.2257 0
M  V30 3676 O 500.659 -8.4329 2.32297 0
M  V30 3677 C 499.252 -6.40075 2.62207 0
M  V30 3678 O 500.051 -5.92589 1.53712 0
M  V30 3679 C 497.915 -6.9454 2.18503 0
M  V30 3680 H 497.947 -7.23063 1.12091 0
M  V30 3681 H 499.13 -5.6025 3.37201 0
M  V30 3682 H 500.614 -7.35707 4.02681 0
M  V30 3683 H 498.92 -9.40912 3.9095 0
M  V30 3684 H 498.73 -8.29056 5.99158 0
M  V30 3685 H 497.1 -8.10073 5.25882 0
M  V30 3686 H 499.739 -6.30324 0.726794 0
M  V30 3687 P 501.597 -8.4349 2.47671 0
M  V30 3688 O 503.019 -8.94167 2.5964 0
M  V30 3689 O 501.237 -7.1704 3.19006 0
M  V30 3690 O 501.274 -8.16596 0.923387 0
M  V30 3691 C 501.114 -9.38437 0.108857 0
M  V30 3692 C 501.654 -9.08175 -1.28353 0
M  V30 3693 O 500.598 -8.44229 -1.84713 0
M  V30 3694 C 502.872 -8.18386 -1.42505 0
M  V30 3695 O 503.61 -8.3501 -2.60497 0
M  V30 3696 C 502.203 -6.80225 -1.25468 0
M  V30 3697 O 503.002 -5.81621 -1.91066 0
M  V30 3698 C 500.866 -7.02416 -1.9168 0
M  V30 3699 H 500.898 -6.6888 -2.96621 0
M  V30 3700 H 502.081 -6.53617 -0.192223 0
M  V30 3701 H 503.565 -8.36622 -0.589963 0
M  V30 3702 H 501.871 -10.0291 -1.79807 0
M  V30 3703 H 501.681 -10.2138 0.558219 0
M  V30 3704 H 500.051 -9.6579 0.0444202 0
M  V30 3705 H 502.69 -5.69556 -2.79637 0
M  V30 3706 P 504.547 -8.4349 -2.47671 0
M  V30 3707 O 505.969 -8.92593 -2.65 0
M  V30 3708 O 504.187 -7.7568 -1.19296 0
M  V30 3709 O 504.224 -7.36886 -3.63805 0
M  V30 3710 C 504.064 -7.95349 -4.982 0
M  V30 3711 C 504.604 -6.94612 -5.98974 0
M  V30 3712 O 503.548 -6.10347 -6.11815 0
M  V30 3713 C 505.822 -6.11426 -5.62335 0
M  V30 3714 O 506.56 -5.6162 -6.70584 0
M  V30 3715 C 505.153 -5.04409 -4.73308 0
M  V30 3716 O 505.952 -3.85992 -4.75183 0
M  V30 3717 C 503.816 -4.8728 -5.41006 0
M  V30 3718 H 503.848 -4.02333 -6.11157 0
M  V30 3719 H 505.031 -5.39466 -3.69543 0
M  V30 3720 H 506.515 -6.71916 -5.01943 0
M  V30 3721 H 504.821 -7.4649 -6.93477 0
M  V30 3722 H 504.631 -8.89416 -5.05237 0
M  V30 3723 H 503.001 -8.14876 -5.18409 0
M  V30 3724 H 505.64 -3.27957 -5.4317 0
M  V30 3725 P 507.498 -5.75688 -6.64379 0
M  V30 3726 O 508.92 -6.07627 -7.05504 0
M  V30 3727 O 507.138 -5.88047 -5.19722 0
M  V30 3728 O 507.175 -4.2322 -7.04443 0
M  V30 3729 C 507.015 -3.99743 -8.4911 0
M  V30 3730 C 507.555 -2.60516 -8.79425 0
M  V30 3731 O 506.499 -1.82684 -8.4467 0
M  V30 3732 C 508.773 -2.10343 -8.03628 0
M  V30 3733 O 509.511 -1.09919 -8.67766 0
M  V30 3734 C 508.104 -1.68446 -6.70876 0
M  V30 3735 O 508.903 -0.678137 -6.08433 0
M  V30 3736 C 506.767 -1.17436 -7.18567 0
M  V30 3737 H 506.799 -0.0804732 -7.31656 0
M  V30 3738 H 507.982 -2.54037 -6.02537 0
M  V30 3739 H 509.466 -2.93881 -7.85526 0
M  V30 3740 H 507.772 -2.53065 -9.86973 0
M  V30 3741 H 507.582 -4.75072 -9.05887 0
M  V30 3742 H 505.952 -4.05244 -8.76668 0
M  V30 3743 H 508.591 0.177647 -6.34251 0
M  V30 3744 P 510.449 -1.25109 -8.70152 0
M  V30 3745 O 511.87 -1.29758 -9.22115 0
M  V30 3746 O 510.089 -2.13714 -7.55141 0
M  V30 3747 O 510.126 0.248149 -8.21425 0
M  V30 3748 C 509.965 1.22792 -9.30533 0
M  V30 3749 C 510.506 2.56293 -8.80664 0
M  V30 3750 O 509.451 3.02944 -8.09255 0
M  V30 3751 C 511.724 2.57523 -7.89775 0
M  V30 3752 O 512.462 3.7668 -7.89438 0
M  V30 3753 C 511.056 2.20997 -6.55446 0
M  V30 3754 O 511.854 2.71302 -5.48691 0
M  V30 3755 C 509.718 2.89693 -6.67988 0
M  V30 3756 N 508.675 2.08895 -6.07487 0
M  V30 3757 C 508.844 0.753809 -5.94137 0
M  V30 3758 N 507.817 0.146592 -5.38801 0
M  V30 3759 C 506.932 1.1768 -5.13693 0
M  V30 3760 C 505.665 1.17563 -4.52477 0
M  V30 3761 N 505.1 2.41918 -4.45789 0
M  V30 3762 C 505.702 3.56493 -4.90792 0
M  V30 3763 N 506.879 3.61423 -5.47817 0
M  V30 3764 C 507.454 2.37779 -5.5588 0
M  V30 3765 H 510.933 1.12673 -6.44018 0
M  V30 3766 H 512.416 1.7746 -8.19711 0
M  V30 3767 H 510.722 3.21673 -9.66791 0
M  V30 3768 H 510.532 0.901032 -10.1892 0
M  V30 3769 H 508.902 1.33049 -9.56592 0
M  V30 3770 H 509.744 0.233081 -6.26266 0
M  V30 3771 H 511.542 3.5779 -5.23879 0
M  V30 3772 P 513.399 3.65191 -7.99657 0
M  V30 3773 O 514.8 3.87414 -8.52829 0
M  V30 3774 O 513.021 2.26932 -7.566 0
M  V30 3775 O 513.076 4.64915 -6.77529 0
M  V30 3776 C 512.916 6.06319 -7.16352 0
M  V30 3777 C 513.456 6.91655 -6.02234 0
M  V30 3778 O 512.4 6.92369 -5.17005 0
M  V30 3779 C 514.673 6.43627 -5.25174 0
M  V30 3780 O 515.412 7.43686 -4.60469 0
M  V30 3781 C 514.006 5.40275 -4.31916 0
M  V30 3782 O 514.804 5.25193 -3.14386 0
M  V30 3783 C 512.668 6.04847 -4.05327 0
M  V30 3784 N 511.625 5.04166 -3.98114 0
M  V30 3785 C 510.59 5.2366 -3.09923 0
M  V30 3786 O 510.629 6.23355 -2.34204 0
M  V30 3787 N 509.578 4.34279 -3.05727 0
M  V30 3788 C 509.626 3.26317 -3.84756 0
M  V30 3789 N 508.616 2.40281 -3.79534 0
M  V30 3790 C 510.722 3.02504 -4.72573 0
M  V30 3791 C 511.688 3.94493 -4.76618 0
M  V30 3792 H 512.7 6.62104 -3.11218 0
M  V30 3793 H 513.883 4.42969 -4.80867 0
M  V30 3794 H 515.367 5.93122 -5.93121 0
M  V30 3795 H 513.673 7.93295 -6.39407 0
M  V30 3796 H 513.482 6.26671 -8.0846 0
M  V30 3797 H 511.852 6.29036 -7.32728 0
M  V30 3798 H 510.77 2.12921 -5.34017 0
M  V30 3799 H 512.534 3.80658 -5.44176 0
M  V30 3800 H 507.826 2.57561 -3.15653 0
M  V30 3801 H 508.621 1.56492 -4.39044 0
M  V30 3802 H 514.588 5.93572 -2.52637 0
M  V30 3803 P 516.35 7.39546 -4.75277 0
M  V30 3804 O 517.772 7.84798 -5.01039 0
M  V30 3805 O 515.99 5.9812 -5.08098 0
M  V30 3806 O 516.027 7.57503 -3.1866 0
M  V30 3807 C 515.867 8.97357 -2.74833 0
M  V30 3808 C 516.407 9.07548 -1.32709 0
M  V30 3809 O 515.351 8.62072 -0.606159 0
M  V30 3810 C 517.625 8.25383 -0.938334 0
M  V30 3811 O 518.363 8.74577 0.146954 0
M  V30 3812 C 516.956 6.8802 -0.712559 0
M  V30 3813 O 517.755 6.1189 0.194655 0
M  V30 3814 C 515.619 7.27966 -0.139777 0
M  V30 3815 H 515.651 7.25354 0.961601 0
M  V30 3816 H 516.834 6.32557 -1.65702 0
M  V30 3817 H 518.318 8.19355 -1.79097 0
M  V30 3818 H 516.624 10.1294 -1.10029 0
M  V30 3819 H 516.434 9.64276 -3.41316 0
M  V30 3820 H 514.804 9.25417 -2.76357 0
M  V30 3821 H 517.443 6.25267 1.07847 0
M  V30 3822 P 519.3 8.791 3.21367e-12 0
M  V30 3823 O 520.722 9.31096 0.027933 0
M  V30 3824 O 518.94 7.77869 -1.04071 0
M  V30 3825 O 518.977 8.09533 1.41463 0
M  V30 3826 C 518.817 9.0349 2.53943 0
M  V30 3827 C 519.357 8.35226 3.79016 0
M  V30 3828 O 518.301 7.57992 4.15078 0
M  V30 3829 C 520.575 7.45087 3.67298 0
M  V30 3830 O 521.313 7.27796 4.85194 0
M  V30 3831 C 519.906 6.17323 3.12027 0
M  V30 3832 O 520.705 5.04231 3.47188 0
M  V30 3833 C 518.569 6.19961 3.81809 0
M  V30 3834 H 518.601 5.58218 4.73051 0
M  V30 3835 H 519.784 6.21726 2.02589 0
M  V30 3836 H 521.268 7.86112 2.9231 0
M  V30 3837 H 519.574 9.11627 4.55076 0
M  V30 3838 H 519.384 9.9573 2.34194 0
M  V30 3839 H 517.754 9.2792 2.67832 0
M  V30 3840 H 520.393 4.67702 4.28772 0
M  V30 3841 P 522.251 7.39546 4.75277 0
M  V30 3842 O 523.673 7.81777 5.05738 0
M  V30 3843 O 521.891 7.1065 3.32998 0
M  V30 3844 O 521.928 6.04542 5.56673 0
M  V30 3845 C 521.768 6.22772 7.02095 0
M  V30 3846 C 522.308 4.97725 7.70406 0
M  V30 3847 O 521.252 4.13256 7.58987 0
M  V30 3848 C 523.526 4.28231 7.11815 0
M  V30 3849 O 524.264 3.49945 8.01648 0
M  V30 3850 C 522.857 3.5063 5.96244 0
M  V30 3851 O 523.656 2.36482 5.64681 0
M  V30 3852 C 521.52 3.15122 6.56374 0
M  V30 3853 H 521.552 2.13853 6.99751 0
M  V30 3854 H 522.735 4.13501 5.06559 0
M  V30 3855 H 524.219 5.03285 6.70911 0
M  V30 3856 H 522.525 5.20877 8.75697 0
M  V30 3857 H 522.335 7.11046 7.35349 0
M  V30 3858 H 520.705 6.35815 7.26986 0
M  V30 3859 H 523.344 1.61644 6.13565 0
M  V30 3860 P 525.201 3.65191 7.99657 0
M  V30 3861 O 526.602 3.90823 8.51272 0
M  V30 3862 O 524.823 4.23191 6.66972 0
M  V30 3863 O 524.878 2.07587 7.95046 0
M  V30 3864 C 524.718 1.44328 9.27336 0
M  V30 3865 C 525.258 0.0220012 9.17097 0
M  V30 3866 O 524.202 -0.626794 8.61824 0
M  V30 3867 C 526.475 -0.24586 8.30336 0
M  V30 3868 O 527.214 -1.39011 8.63583 0
M  V30 3869 C 525.808 -0.273849 6.91158 0
M  V30 3870 O 526.606 -1.06331 6.02794 0
M  V30 3871 C 524.47 -0.897649 7.22545 0
M  V30 3872 N 523.427 -0.292839 6.41732 0
M  V30 3873 C 522.392 -1.08701 5.98712 0
M  V30 3874 O 522.431 -2.31211 6.24471 0
M  V30 3875 N 521.38 -0.533391 5.28415 0
M  V30 3876 C 521.428 0.770866 4.98576 0
M  V30 3877 C 522.524 1.59049 5.38086 0
M  V30 3878 C 523.49 1.01866 6.10256 0
M  V30 3879 H 524.502 -1.98383 7.04189 0
M  V30 3880 H 525.685 0.733318 6.49674 0
M  V30 3881 H 527.169 0.598386 8.36663 0
M  V30 3882 H 525.475 -0.362662 10.1825 0
M  V30 3883 H 525.284 2.00611 10.0304 0
M  V30 3884 H 523.654 1.41828 9.55228 0
M  V30 3885 H 522.572 2.6415 5.10622 0
M  V30 3886 H 524.336 1.61983 6.44042 0
M  V30 3887 H 526.39 -1.97777 6.14035 0
M  V30 3888 P 528.152 -1.25109 8.70152 0
M  V30 3889 O 529.574 -1.35303 9.21419 0
M  V30 3890 O 527.792 -0.0769065 7.84762 0
M  V30 3891 O 527.829 -2.55232 7.81161 0
M  V30 3892 C 527.669 -3.79939 8.58154 0
M  V30 3893 C 528.209 -4.93969 7.72701 0
M  V30 3894 O 527.154 -5.18726 6.91205 0
M  V30 3895 C 529.427 -4.69597 6.85231 0
M  V30 3896 O 530.165 -5.83832 6.51337 0
M  V30 3897 C 528.759 -3.96706 5.66633 0
M  V30 3898 O 529.557 -4.15346 4.49615 0
M  V30 3899 C 527.421 -4.66153 5.59313 0
M  V30 3900 N 526.378 -3.71582 5.24027 0
M  V30 3901 C 526.44 -2.46018 5.67902 0
M  V30 3902 N 525.395 -1.74868 5.24518 0
M  V30 3903 C 524.661 -2.61333 4.54528 0
M  V30 3904 C 523.355 -2.46162 3.95441 0
M  V30 3905 O 522.622 -1.46013 3.94122 0
M  V30 3906 N 522.925 -3.59334 3.34752 0
M  V30 3907 C 523.674 -4.79605 3.3023 0
M  V30 3908 N 523.077 -5.82109 2.6065 0
M  V30 3909 N 524.827 -4.97402 3.8843 0
M  V30 3910 C 525.284 -3.86258 4.50476 0
M  V30 3911 H 527.453 -5.47679 4.85214 0
M  V30 3912 H 528.636 -2.88964 5.86476 0
M  V30 3913 H 530.121 -4.01947 7.36109 0
M  V30 3914 H 528.426 -5.80182 8.37584 0
M  V30 3915 H 528.236 -3.73517 9.52265 0
M  V30 3916 H 526.605 -3.97163 8.80359 0
M  V30 3917 H 522.029 -3.5825 2.90294 0
M  V30 3918 H 527.236 -2.06161 6.30974 0
M  V30 3919 H 522.166 -5.66979 2.15354 0
M  V30 3920 H 523.542 -6.73686 2.54344 0
M  V30 3921 H 529.246 -4.90891 4.01857 0
M  V30 3922 P 531.103 -5.75688 6.64379 0
M  V30 3923 O 532.525 -6.11981 7.01997 0
M  V30 3924 O 530.743 -4.30744 6.56026 0
M  V30 3925 O 530.78 -6.37042 5.19165 0
M  V30 3926 C 530.62 -7.83578 5.16515 0
M  V30 3927 C 531.16 -8.33307 3.82977 0
M  V30 3928 O 530.105 -8.10074 3.01034 0
M  V30 3929 C 532.378 -7.65514 3.2257 0
M  V30 3930 O 533.116 -8.4329 2.32297 0
M  V30 3931 C 531.71 -6.40075 2.62207 0
M  V30 3932 O 532.508 -5.92492 1.53687 0
M  V30 3933 C 530.372 -6.9454 2.18503 0
M  V30 3934 N 529.329 -5.95905 2.39948 0
M  V30 3935 C 529.391 -5.13994 3.44742 0
M  V30 3936 N 528.346 -4.30684 3.46712 0
M  V30 3937 C 527.612 -4.65583 2.41086 0
M  V30 3938 C 526.306 -4.20877 1.99581 0
M  V30 3939 O 525.573 -3.35913 2.52616 0
M  V30 3940 N 525.876 -4.83271 0.873406 0
M  V30 3941 C 526.625 -5.82006 0.185129 0
M  V30 3942 N 526.028 -6.30619 -0.95439 0
M  V30 3943 N 527.778 -6.28443 0.578524 0
M  V30 3944 C 528.235 -5.68486 1.70138 0
M  V30 3945 H 530.404 -7.23063 1.12091 0
M  V30 3946 H 531.587 -5.60165 3.3715 0
M  V30 3947 H 533.072 -7.3611 4.01946 0
M  V30 3948 H 531.377 -9.40912 3.9095 0
M  V30 3949 H 531.187 -8.29056 5.99158 0
M  V30 3950 H 529.556 -8.10073 5.25882 0
M  V30 3951 H 524.98 -4.58323 0.505262 0
M  V30 3952 H 530.187 -5.14564 4.1935 0
M  V30 3953 H 525.117 -5.93402 -1.25364 0
M  V30 3954 H 526.493 -7.0425 -1.50254 0
M  V30 3955 H 532.197 -6.30224 0.72668 0
M  V30 3956 P 534.053 -8.4349 2.47671 0
M  V30 3957 O 535.475 -8.94167 2.5964 0
M  V30 3958 O 533.693 -7.1704 3.19006 0
M  V30 3959 O 533.73 -8.16596 0.923387 0
M  V30 3960 C 533.57 -9.38437 0.108857 0
M  V30 3961 C 534.11 -9.08175 -1.28353 0
M  V30 3962 O 533.054 -8.44229 -1.84713 0
M  V30 3963 C 535.328 -8.18386 -1.42505 0
M  V30 3964 O 536.066 -8.3501 -2.60497 0
M  V30 3965 C 534.659 -6.80225 -1.25468 0
M  V30 3966 O 535.458 -5.81621 -1.91066 0
M  V30 3967 C 533.322 -7.02416 -1.9168 0
M  V30 3968 H 533.354 -6.6888 -2.96621 0
M  V30 3969 H 534.537 -6.53617 -0.192223 0
M  V30 3970 H 536.021 -8.36622 -0.589963 0
M  V30 3971 H 534.327 -10.0291 -1.79807 0
M  V30 3972 H 534.137 -10.2138 0.558219 0
M  V30 3973 H 532.507 -9.6579 0.0444202 0
M  V30 3974 H 535.146 -5.69556 -2.79637 0
M  V30 3975 P 537.004 -8.4349 -2.47671 0
M  V30 3976 O 538.426 -8.92593 -2.65 0
M  V30 3977 O 536.644 -7.7568 -1.19296 0
M  V30 3978 O 536.681 -7.36886 -3.63805 0
M  V30 3979 C 536.521 -7.95349 -4.982 0
M  V30 3980 C 537.061 -6.94612 -5.98974 0
M  V30 3981 O 536.005 -6.10347 -6.11815 0
M  V30 3982 C 538.279 -6.11426 -5.62335 0
M  V30 3983 O 539.017 -5.6162 -6.70584 0
M  V30 3984 C 537.61 -5.04409 -4.73308 0
M  V30 3985 O 538.409 -3.85992 -4.75183 0
M  V30 3986 C 536.273 -4.8728 -5.41006 0
M  V30 3987 H 536.305 -4.02333 -6.11157 0
M  V30 3988 H 537.488 -5.39466 -3.69543 0
M  V30 3989 H 538.972 -6.71916 -5.01943 0
M  V30 3990 H 537.278 -7.4649 -6.93477 0
M  V30 3991 H 537.088 -8.89416 -5.05237 0
M  V30 3992 H 535.458 -8.14876 -5.18409 0
M  V30 3993 H 538.097 -3.27957 -5.4317 0
M  V30 3994 P 539.954 -5.75688 -6.64379 0
M  V30 3995 O 541.376 -6.07627 -7.05504 0
M  V30 3996 O 539.594 -5.88047 -5.19722 0
M  V30 3997 O 539.631 -4.2322 -7.04443 0
M  V30 3998 C 539.471 -3.99743 -8.4911 0
M  V30 3999 C 540.011 -2.60516 -8.79425 0
M  V30 4000 O 538.955 -1.82684 -8.4467 0
M  V30 4001 C 541.229 -2.10343 -8.03628 0
M  V30 4002 O 541.967 -1.09919 -8.67766 0
M  V30 4003 C 540.56 -1.68446 -6.70876 0
M  V30 4004 O 541.359 -0.678137 -6.08433 0
M  V30 4005 C 539.223 -1.17436 -7.18567 0
M  V30 4006 H 539.255 -0.0804732 -7.31656 0
M  V30 4007 H 540.438 -2.54037 -6.02537 0
M  V30 4008 H 541.922 -2.93881 -7.85526 0
M  V30 4009 H 540.228 -2.53065 -9.86973 0
M  V30 4010 H 540.038 -4.75072 -9.05887 0
M  V30 4011 H 538.408 -4.05244 -8.76668 0
M  V30 4012 H 541.047 0.177647 -6.34251 0
M  V30 4013 P 542.905 -1.25109 -8.70152 0
M  V30 4014 O 544.327 -1.29744 -9.22016 0
M  V30 4015 O 542.545 -2.13714 -7.55141 0
M  V30 4016 O 542.582 0.248149 -8.21425 0
M  V30 4017 C 542.422 1.22779 -9.30434 0
M  V30 4018 C 542.962 2.56293 -8.80664 0
M  V30 4019 O 541.906 3.02979 -8.09349 0
M  V30 4020 C 544.18 2.57523 -7.89775 0
M  V30 4021 O 544.918 3.7668 -7.89438 0
M  V30 4022 C 543.511 2.20997 -6.55446 0
M  V30 4023 O 544.31 2.71895 -5.48509 0
M  V30 4024 C 542.174 2.89693 -6.67988 0
M  V30 4025 H 542.206 3.88793 -6.19859 0
M  V30 4026 H 543.389 1.12046 -6.44229 0
M  V30 4027 H 544.873 1.7746 -8.19711 0
M  V30 4028 H 543.179 3.20706 -9.67112 0
M  V30 4029 H 542.989 0.901032 -10.1892 0
M  V30 4030 H 541.359 1.33049 -9.56592 0
M  V30 4031 H 543.998 3.57847 -5.23962 0
M  V30 4032 P 545.855 3.65191 -7.99657 0
M  V30 4033 O 547.277 3.89332 -8.45794 0
M  V30 4034 O 545.495 2.28472 -7.50807 0
M  V30 4035 O 545.532 4.64972 -6.77611 0
M  V30 4036 C 545.372 6.06319 -7.16352 0
M  V30 4037 C 545.912 6.91731 -6.02299 0
M  V30 4038 O 544.856 6.92449 -5.17064 0
M  V30 4039 C 547.13 6.43627 -5.25174 0
M  V30 4040 O 547.868 7.43686 -4.60469 0
M  V30 4041 C 546.461 5.40275 -4.31916 0
M  V30 4042 O 547.26 5.25279 -3.14438 0
M  V30 4043 C 545.124 6.04847 -4.05327 0
M  V30 4044 H 545.156 6.62195 -3.11261 0
M  V30 4045 H 546.339 4.42556 -4.81383 0
M  V30 4046 H 547.823 5.92458 -5.93643 0
M  V30 4047 H 546.129 7.92655 -6.402 0
M  V30 4048 H 545.939 6.26671 -8.0846 0
M  V30 4049 H 544.309 6.29101 -7.32804 0
M  V30 4050 H 546.948 5.84315 -2.47318 0
M  V30 4051 P 548.806 7.39546 -4.75277 0
M  V30 4052 O 550.228 7.84798 -5.01039 0
M  V30 4053 O 548.446 5.9812 -5.08098 0
M  V30 4054 O 548.483 7.57503 -3.1866 0
M  V30 4055 C 548.323 8.97357 -2.74833 0
M  V30 4056 C 548.863 9.07548 -1.32709 0
M  V30 4057 O 547.807 8.62072 -0.606159 0
M  V30 4058 C 550.081 8.25383 -0.938334 0
M  V30 4059 O 550.819 8.74577 0.146954 0
M  V30 4060 C 549.412 6.8802 -0.712559 0
M  V30 4061 O 550.211 6.1189 0.194655 0
M  V30 4062 C 548.075 7.27966 -0.139777 0
M  V30 4063 H 548.107 7.25354 0.961601 0
M  V30 4064 H 549.29 6.32557 -1.65702 0
M  V30 4065 H 550.774 8.19355 -1.79097 0
M  V30 4066 H 549.08 10.1294 -1.10029 0
M  V30 4067 H 548.89 9.64276 -3.41316 0
M  V30 4068 H 547.26 9.25417 -2.76357 0
M  V30 4069 H 549.899 6.25267 1.07847 0
M  V30 4070 P 551.757 8.791 3.52383e-12 0
M  V30 4071 O 553.179 9.31096 0.027933 0
M  V30 4072 O 551.397 7.77869 -1.04071 0
M  V30 4073 O 551.434 8.09533 1.41463 0
M  V30 4074 C 551.274 9.0349 2.53943 0
M  V30 4075 C 551.814 8.35226 3.79016 0
M  V30 4076 O 550.758 7.57992 4.15078 0
M  V30 4077 C 553.032 7.45087 3.67298 0
M  V30 4078 O 553.77 7.27796 4.85194 0
M  V30 4079 C 552.363 6.17323 3.12027 0
M  V30 4080 O 553.162 5.04231 3.47188 0
M  V30 4081 C 551.026 6.19961 3.81809 0
M  V30 4082 H 551.058 5.58218 4.73051 0
M  V30 4083 H 552.241 6.21726 2.02589 0
M  V30 4084 H 553.725 7.86112 2.9231 0
M  V30 4085 H 552.031 9.11627 4.55076 0
M  V30 4086 H 551.841 9.9573 2.34194 0
M  V30 4087 H 550.211 9.2792 2.67832 0
M  V30 4088 H 552.85 4.67702 4.28772 0
M  V30 4089 P 554.707 7.39546 4.75277 0
M  V30 4090 O 556.129 7.81777 5.05738 0
M  V30 4091 O 554.347 7.1065 3.32998 0
M  V30 4092 O 554.384 6.04542 5.56673 0
M  V30 4093 C 554.224 6.22772 7.02095 0
M  V30 4094 C 554.764 4.97725 7.70406 0
M  V30 4095 O 553.708 4.13256 7.58987 0
M  V30 4096 C 555.982 4.28231 7.11815 0
M  V30 4097 O 556.72 3.49945 8.01648 0
M  V30 4098 C 555.313 3.5063 5.96244 0
M  V30 4099 O 556.112 2.36482 5.64681 0
M  V30 4100 C 553.976 3.15122 6.56374 0
M  V30 4101 H 554.008 2.13853 6.99751 0
M  V30 4102 H 555.191 4.13501 5.06559 0
M  V30 4103 H 556.675 5.03285 6.70911 0
M  V30 4104 H 554.981 5.20877 8.75697 0
M  V30 4105 H 554.791 7.11046 7.35349 0
M  V30 4106 H 553.161 6.35815 7.26986 0
M  V30 4107 H 555.8 1.61644 6.13565 0
M  V30 4108 P 557.658 3.65191 7.99657 0
M  V30 4109 O 559.08 3.8425 8.48115 0
M  V30 4110 O 557.298 4.17805 6.64342 0
M  V30 4111 O 557.335 2.07613 7.95143 0
M  V30 4112 C 557.175 1.44328 9.27336 0
M  V30 4113 C 557.715 0.0220036 9.17197 0
M  V30 4114 O 556.659 -0.626867 8.61923 0
M  V30 4115 C 558.933 -0.24586 8.30336 0
M  V30 4116 O 559.671 -1.39011 8.63583 0
M  V30 4117 C 558.264 -0.273849 6.91158 0
M  V30 4118 O 559.063 -1.06348 6.02892 0
M  V30 4119 C 556.927 -0.897649 7.22545 0
M  V30 4120 H 556.959 -1.9841 7.04286 0
M  V30 4121 H 558.142 0.739928 6.497 0
M  V30 4122 H 559.626 0.60668 8.36503 0
M  V30 4123 H 557.932 -0.352479 10.1829 0
M  V30 4124 H 557.742 2.00611 10.0304 0
M  V30 4125 H 556.112 1.41843 9.55327 0
M  V30 4126 H 558.751 -1.95734 6.03555 0
M  V30 4127 P 560.608 -1.25109 8.70152 0
M  V30 4128 O 562.03 -1.35274 9.21221 0
M  V30 4129 O 560.248 -0.0769065 7.84762 0
M  V30 4130 O 560.285 -2.55232 7.81161 0
M  V30 4131 C 560.125 -3.79939 8.58154 0
M  V30 4132 C 560.665 -4.94023 7.72785 0
M  V30 4133 O 559.609 -5.18726 6.91205 0
M  V30 4134 C 561.883 -4.69597 6.85231 0
M  V30 4135 O 562.621 -5.83832 6.51337 0
M  V30 4136 C 561.214 -3.96706 5.66633 0
M  V30 4137 O 562.013 -4.15414 4.49689 0
M  V30 4138 C 559.877 -4.66153 5.59313 0
M  V30 4139 H 559.909 -5.47679 4.85214 0
M  V30 4140 H 561.092 -2.89008 5.86566 0
M  V30 4141 H 562.576 -4.0121 7.36511 0
M  V30 4142 H 560.882 -5.80182 8.37584 0
M  V30 4143 H 560.692 -3.73517 9.52265 0
M  V30 4144 H 559.062 -3.97163 8.80359 0
M  V30 4145 H 561.701 -4.90969 4.01921 0
M  V30 4146 P 563.559 -5.75688 6.64379 0
M  V30 4147 O 564.981 -6.11849 7.01846 0
M  V30 4148 O 563.199 -4.30744 6.56026 0
M  V30 4149 O 563.236 -6.37042 5.19165 0
M  V30 4150 C 563.076 -7.83578 5.16515 0
M  V30 4151 C 563.616 -8.33398 3.83019 0
M  V30 4152 O 562.56 -8.10074 3.01034 0
M  V30 4153 C 564.834 -7.65514 3.2257 0
M  V30 4154 O 565.572 -8.4329 2.32297 0
M  V30 4155 C 564.165 -6.40075 2.62207 0
M  V30 4156 O 564.964 -5.92589 1.53712 0
M  V30 4157 C 562.828 -6.9454 2.18503 0
M  V30 4158 H 562.86 -7.23063 1.12091 0
M  V30 4159 H 564.043 -5.6025 3.37201 0
M  V30 4160 H 565.527 -7.35707 4.02681 0
M  V30 4161 H 563.833 -9.40912 3.9095 0
M  V30 4162 H 563.643 -8.29056 5.99158 0
M  V30 4163 H 562.013 -8.10073 5.25882 0
M  V30 4164 H 564.652 -6.30324 0.726794 0
M  V30 4165 P 566.509 -8.4349 2.47671 0
M  V30 4166 O 567.931 -8.94167 2.5964 0
M  V30 4167 O 566.149 -7.1704 3.19006 0
M  V30 4168 O 566.186 -8.16596 0.923387 0
M  V30 4169 C 566.026 -9.38437 0.108857 0
M  V30 4170 C 566.566 -9.08175 -1.28353 0
M  V30 4171 O 565.51 -8.44229 -1.84713 0
M  V30 4172 C 567.784 -8.18386 -1.42505 0
M  V30 4173 O 568.522 -8.3501 -2.60497 0
M  V30 4174 C 567.115 -6.80225 -1.25468 0
M  V30 4175 O 567.914 -5.81621 -1.91066 0
M  V30 4176 C 565.778 -7.02416 -1.9168 0
M  V30 4177 H 565.81 -6.6888 -2.96621 0
M  V30 4178 H 566.993 -6.53617 -0.192223 0
M  V30 4179 H 568.477 -8.36622 -0.589963 0
M  V30 4180 H 566.783 -10.0291 -1.79807 0
M  V30 4181 H 566.593 -10.2138 0.558219 0
M  V30 4182 H 564.963 -9.6579 0.0444202 0
M  V30 4183 H 567.602 -5.69556 -2.79637 0
M  V30 4184 P 569.46 -8.4349 -2.47671 0
M  V30 4185 O 570.882 -8.92593 -2.65 0
M  V30 4186 O 569.1 -7.7568 -1.19296 0
M  V30 4187 O 569.137 -7.36886 -3.63805 0
M  V30 4188 C 568.977 -7.95349 -4.982 0
M  V30 4189 C 569.517 -6.94612 -5.98974 0
M  V30 4190 O 568.461 -6.10347 -6.11815 0
M  V30 4191 C 570.735 -6.11426 -5.62335 0
M  V30 4192 O 571.473 -5.6162 -6.70584 0
M  V30 4193 C 570.066 -5.04409 -4.73308 0
M  V30 4194 O 570.865 -3.85992 -4.75183 0
M  V30 4195 C 568.729 -4.8728 -5.41006 0
M  V30 4196 H 568.761 -4.02333 -6.11157 0
M  V30 4197 H 569.944 -5.39466 -3.69543 0
M  V30 4198 H 571.428 -6.71916 -5.01943 0
M  V30 4199 H 569.734 -7.4649 -6.93477 0
M  V30 4200 H 569.544 -8.89416 -5.05237 0
M  V30 4201 H 567.914 -8.14876 -5.18409 0
M  V30 4202 H 570.553 -3.27957 -5.4317 0
M  V30 4203 P 572.411 -5.75688 -6.64379 0
M  V30 4204 O 573.833 -6.07627 -7.05504 0
M  V30 4205 O 572.051 -5.88047 -5.19722 0
M  V30 4206 O 572.088 -4.2322 -7.04443 0
M  V30 4207 C 571.928 -3.99743 -8.4911 0
M  V30 4208 C 572.468 -2.60516 -8.79425 0
M  V30 4209 O 571.412 -1.82684 -8.4467 0
M  V30 4210 C 573.686 -2.10343 -8.03628 0
M  V30 4211 O 574.424 -1.09919 -8.67766 0
M  V30 4212 C 573.017 -1.68446 -6.70876 0
M  V30 4213 O 573.816 -0.678137 -6.08433 0
M  V30 4214 C 571.68 -1.17436 -7.18567 0
M  V30 4215 H 571.712 -0.0804732 -7.31656 0
M  V30 4216 H 572.895 -2.54037 -6.02537 0
M  V30 4217 H 574.379 -2.93881 -7.85526 0
M  V30 4218 H 572.685 -2.53065 -9.86973 0
M  V30 4219 H 572.495 -4.75072 -9.05887 0
M  V30 4220 H 570.865 -4.05244 -8.76668 0
M  V30 4221 H 573.504 0.177647 -6.34251 0
M  V30 4222 P 575.361 -1.25109 -8.70152 0
M  V30 4223 O 576.783 -1.29744 -9.22016 0
M  V30 4224 O 575.001 -2.13714 -7.55141 0
M  V30 4225 O 575.038 0.248149 -8.21425 0
M  V30 4226 C 574.878 1.22779 -9.30434 0
M  V30 4227 C 575.418 2.56293 -8.80664 0
M  V30 4228 O 574.362 3.02979 -8.09349 0
M  V30 4229 C 576.636 2.57523 -7.89775 0
M  V30 4230 O 577.374 3.7668 -7.89438 0
M  V30 4231 C 575.967 2.20997 -6.55446 0
M  V30 4232 O 576.766 2.71895 -5.48509 0
M  V30 4233 C 574.63 2.89693 -6.67988 0
M  V30 4234 H 574.662 3.88793 -6.19859 0
M  V30 4235 H 575.845 1.12046 -6.44229 0
M  V30 4236 H 577.329 1.7746 -8.19711 0
M  V30 4237 H 575.635 3.20706 -9.67112 0
M  V30 4238 H 575.445 0.901032 -10.1892 0
M  V30 4239 H 573.815 1.33049 -9.56592 0
M  V30 4240 H 576.454 3.57847 -5.23962 0
M  V30 4241 P 578.312 3.65191 -7.99657 0
M  V30 4242 O 579.734 3.89332 -8.45794 0
M  V30 4243 O 577.952 2.28472 -7.50807 0
M  V30 4244 O 577.989 4.64972 -6.77611 0
M  V30 4245 C 577.829 6.06319 -7.16352 0
M  V30 4246 C 578.369 6.91731 -6.02299 0
M  V30 4247 O 577.313 6.92449 -5.17064 0
M  V30 4248 C 579.587 6.43627 -5.25174 0
M  V30 4249 O 580.325 7.43686 -4.60469 0
M  V30 4250 C 578.918 5.40275 -4.31916 0
M  V30 4251 O 579.717 5.25279 -3.14438 0
M  V30 4252 C 577.581 6.04847 -4.05327 0
M  V30 4253 H 577.613 6.62195 -3.11261 0
M  V30 4254 H 578.796 4.42556 -4.81383 0
M  V30 4255 H 580.28 5.92458 -5.93643 0
M  V30 4256 H 578.586 7.92655 -6.402 0
M  V30 4257 H 578.396 6.26671 -8.0846 0
M  V30 4258 H 576.766 6.29101 -7.32804 0
M  V30 4259 H 579.405 5.84315 -2.47318 0
M  V30 4260 P 581.262 7.39546 -4.75277 0
M  V30 4261 O 582.684 7.84798 -5.01039 0
M  V30 4262 O 580.902 5.9812 -5.08098 0
M  V30 4263 O 580.939 7.57503 -3.1866 0
M  V30 4264 C 580.779 8.97357 -2.74833 0
M  V30 4265 C 581.319 9.07548 -1.32709 0
M  V30 4266 O 580.263 8.62072 -0.606159 0
M  V30 4267 C 582.537 8.25383 -0.938334 0
M  V30 4268 O 583.275 8.74577 0.146954 0
M  V30 4269 C 581.868 6.8802 -0.712559 0
M  V30 4270 O 582.667 6.1189 0.194655 0
M  V30 4271 C 580.531 7.27966 -0.139777 0
M  V30 4272 H 580.563 7.25354 0.961601 0
M  V30 4273 H 581.746 6.32557 -1.65702 0
M  V30 4274 H 583.23 8.19355 -1.79097 0
M  V30 4275 H 581.536 10.1294 -1.10029 0
M  V30 4276 H 581.346 9.64276 -3.41316 0
M  V30 4277 H 579.716 9.25417 -2.76357 0
M  V30 4278 H 582.355 6.25267 1.07847 0
M  V30 4279 P 584.213 8.791 3.834e-12 0
M  V30 4280 O 585.635 9.31096 0.027933 0
M  V30 4281 O 583.853 7.77869 -1.04071 0
M  V30 4282 O 583.89 8.09533 1.41463 0
M  V30 4283 C 583.73 9.0349 2.53943 0
M  V30 4284 C 584.27 8.35226 3.79016 0
M  V30 4285 O 583.214 7.57992 4.15078 0
M  V30 4286 C 585.488 7.45087 3.67298 0
M  V30 4287 O 586.226 7.27796 4.85194 0
M  V30 4288 C 584.819 6.17323 3.12027 0
M  V30 4289 O 585.618 5.04231 3.47188 0
M  V30 4290 C 583.482 6.19961 3.81809 0
M  V30 4291 H 583.514 5.58218 4.73051 0
M  V30 4292 H 584.697 6.21726 2.02589 0
M  V30 4293 H 586.181 7.86112 2.9231 0
M  V30 4294 H 584.487 9.11627 4.55076 0
M  V30 4295 H 584.297 9.9573 2.34194 0
M  V30 4296 H 582.667 9.2792 2.67832 0
M  V30 4297 H 585.306 4.67702 4.28772 0
M  V30 4298 P 587.163 7.39546 4.75277 0
M  V30 4299 O 588.585 7.81777 5.05738 0
M  V30 4300 O 586.803 7.1065 3.32998 0
M  V30 4301 O 586.84 6.04542 5.56673 0
M  V30 4302 C 586.68 6.22772 7.02095 0
M  V30 4303 C 587.22 4.97725 7.70406 0
M  V30 4304 O 586.164 4.13256 7.58987 0
M  V30 4305 C 588.438 4.28231 7.11815 0
M  V30 4306 O 589.176 3.49945 8.01648 0
M  V30 4307 C 587.769 3.5063 5.96244 0
M  V30 4308 O 588.568 2.36482 5.64681 0
M  V30 4309 C 586.432 3.15122 6.56374 0
M  V30 4310 H 586.464 2.13853 6.99751 0
M  V30 4311 H 587.647 4.13501 5.06559 0
M  V30 4312 H 589.131 5.03285 6.70911 0
M  V30 4313 H 587.437 5.20877 8.75697 0
M  V30 4314 H 587.247 7.11046 7.35349 0
M  V30 4315 H 585.617 6.35815 7.26986 0
M  V30 4316 H 588.256 1.61644 6.13565 0
M  V30 4317 P 590.114 3.65191 7.99657 0
M  V30 4318 O 591.536 3.8425 8.48115 0
M  V30 4319 O 589.754 4.17805 6.64342 0
M  V30 4320 O 589.791 2.07613 7.95143 0
M  V30 4321 C 589.631 1.44328 9.27336 0
M  V30 4322 C 590.171 0.0220036 9.17197 0
M  V30 4323 O 589.115 -0.626867 8.61923 0
M  V30 4324 C 591.389 -0.24586 8.30336 0
M  V30 4325 O 592.127 -1.39011 8.63583 0
M  V30 4326 C 590.72 -0.273849 6.91158 0
M  V30 4327 O 591.519 -1.06348 6.02892 0
M  V30 4328 C 589.383 -0.897649 7.22545 0
M  V30 4329 H 589.415 -1.9841 7.04286 0
M  V30 4330 H 590.598 0.739928 6.497 0
M  V30 4331 H 592.082 0.60668 8.36503 0
M  V30 4332 H 590.388 -0.352479 10.1829 0
M  V30 4333 H 590.198 2.00611 10.0304 0
M  V30 4334 H 588.568 1.41843 9.55327 0
M  V30 4335 H 591.207 -1.95734 6.03555 0
M  V30 4336 P 593.065 -1.25109 8.70152 0
M  V30 4337 O 594.487 -1.35303 9.21419 0
M  V30 4338 O 592.705 -0.0769065 7.84762 0
M  V30 4339 O 592.742 -2.55232 7.81161 0
M  V30 4340 C 592.582 -3.79939 8.58154 0
M  V30 4341 C 593.122 -4.93969 7.72701 0
M  V30 4342 O 592.067 -5.18726 6.91205 0
M  V30 4343 C 594.34 -4.69597 6.85231 0
M  V30 4344 O 595.078 -5.83832 6.51337 0
M  V30 4345 C 593.672 -3.96706 5.66633 0
M  V30 4346 O 594.47 -4.15346 4.49615 0
M  V30 4347 C 592.334 -4.66153 5.59313 0
M  V30 4348 N 591.291 -3.71582 5.24027 0
M  V30 4349 C 591.353 -2.46018 5.67902 0
M  V30 4350 N 590.308 -1.74868 5.24518 0
M  V30 4351 C 589.574 -2.61333 4.54528 0
M  V30 4352 C 588.268 -2.46162 3.95441 0
M  V30 4353 O 587.535 -1.46013 3.94122 0
M  V30 4354 N 587.838 -3.59334 3.34752 0
M  V30 4355 C 588.587 -4.79605 3.3023 0
M  V30 4356 N 587.99 -5.82109 2.6065 0
M  V30 4357 N 589.74 -4.97402 3.8843 0
M  V30 4358 C 590.197 -3.86258 4.50476 0
M  V30 4359 H 592.366 -5.47679 4.85214 0
M  V30 4360 H 593.549 -2.88964 5.86476 0
M  V30 4361 H 595.034 -4.01947 7.36109 0
M  V30 4362 H 593.339 -5.80182 8.37584 0
M  V30 4363 H 593.149 -3.73517 9.52265 0
M  V30 4364 H 591.518 -3.97163 8.80359 0
M  V30 4365 H 586.942 -3.5825 2.90294 0
M  V30 4366 H 592.149 -2.06161 6.30974 0
M  V30 4367 H 587.079 -5.66979 2.15354 0
M  V30 4368 H 588.455 -6.73686 2.54344 0
M  V30 4369 H 594.159 -4.90891 4.01857 0
M  V30 4370 P 596.015 -5.75688 6.64379 0
M  V30 4371 O 597.437 -6.11849 7.01846 0
M  V30 4372 O 595.655 -4.30744 6.56026 0
M  V30 4373 O 595.692 -6.37042 5.19165 0
M  V30 4374 C 595.532 -7.83578 5.16515 0
M  V30 4375 C 596.072 -8.33398 3.83019 0
M  V30 4376 O 595.016 -8.10074 3.01034 0
M  V30 4377 C 597.29 -7.65514 3.2257 0
M  V30 4378 O 598.028 -8.4329 2.32297 0
M  V30 4379 C 596.621 -6.40075 2.62207 0
M  V30 4380 O 597.42 -5.92589 1.53712 0
M  V30 4381 C 595.284 -6.9454 2.18503 0
M  V30 4382 H 595.316 -7.23063 1.12091 0
M  V30 4383 H 596.499 -5.6025 3.37201 0
M  V30 4384 H 597.983 -7.35707 4.02681 0
M  V30 4385 H 596.289 -9.40912 3.9095 0
M  V30 4386 H 596.099 -8.29056 5.99158 0
M  V30 4387 H 594.469 -8.10073 5.25882 0
M  V30 4388 H 597.108 -6.30324 0.726794 0
M  V30 4389 P 598.966 -8.4349 2.47671 0
M  V30 4390 O 600.388 -8.94167 2.5964 0
M  V30 4391 O 598.606 -7.1704 3.19006 0
M  V30 4392 O 598.643 -8.16596 0.923387 0
M  V30 4393 C 598.483 -9.38437 0.108857 0
M  V30 4394 C 599.023 -9.08175 -1.28353 0
M  V30 4395 O 597.967 -8.44229 -1.84713 0
M  V30 4396 C 600.241 -8.18386 -1.42505 0
M  V30 4397 O 600.979 -8.3501 -2.60497 0
M  V30 4398 C 599.572 -6.80225 -1.25468 0
M  V30 4399 O 600.371 -5.81621 -1.91066 0
M  V30 4400 C 598.235 -7.02416 -1.9168 0
M  V30 4401 H 598.267 -6.6888 -2.96621 0
M  V30 4402 H 599.45 -6.53617 -0.192223 0
M  V30 4403 H 600.934 -8.36622 -0.589963 0
M  V30 4404 H 599.24 -10.0291 -1.79807 0
M  V30 4405 H 599.05 -10.2138 0.558219 0
M  V30 4406 H 597.42 -9.6579 0.0444202 0
M  V30 4407 H 600.059 -5.69556 -2.79637 0
M  V30 4408 P 601.916 -8.4349 -2.47671 0
M  V30 4409 O 603.338 -8.92785 -2.65057 0
M  V30 4410 O 601.556 -7.7568 -1.19296 0
M  V30 4411 O 601.593 -7.36886 -3.63805 0
M  V30 4412 C 601.433 -7.95349 -4.982 0
M  V30 4413 C 601.973 -6.94537 -5.98908 0
M  V30 4414 O 600.918 -6.10347 -6.11815 0
M  V30 4415 C 603.191 -6.11426 -5.62335 0
M  V30 4416 O 603.929 -5.6162 -6.70584 0
M  V30 4417 C 602.523 -5.04409 -4.73308 0
M  V30 4418 O 603.321 -3.85929 -4.75106 0
M  V30 4419 C 601.185 -4.8728 -5.41006 0
M  V30 4420 N 600.142 -4.65812 -4.42377 0
M  V30 4421 C 600.204 -5.27109 -3.24335 0
M  V30 4422 N 599.159 -4.94293 -2.47735 0
M  V30 4423 C 598.425 -4.1271 -3.23359 0
M  V30 4424 C 597.119 -3.56384 -2.99934 0
M  V30 4425 O 596.386 -3.69331 -2.00616 0
M  V30 4426 N 596.689 -2.80206 -4.03316 0
M  V30 4427 C 597.438 -2.58614 -5.2172 0
M  V30 4428 N 596.841 -1.75154 -6.13278 0
M  V30 4429 N 598.591 -3.13689 -5.47619 0
M  V30 4430 C 599.048 -3.90921 -4.46436 0
M  V30 4431 H 601.217 -4.02333 -6.11157 0
M  V30 4432 H 602.4 -5.39383 -3.69487 0
M  V30 4433 H 603.885 -6.71414 -5.02615 0
M  V30 4434 H 602.19 -7.4649 -6.93477 0
M  V30 4435 H 602 -8.89416 -5.05237 0
M  V30 4436 H 600.369 -8.14876 -5.18409 0
M  V30 4437 H 595.793 -2.36355 -3.95916 0
M  V30 4438 H 601 -5.95212 -2.93859 0
M  V30 4439 H 595.93 -1.32473 -5.91856 0
M  V30 4440 H 597.306 -1.5588 -7.03026 0
M  V30 4441 H 603.01 -3.27906 -5.43085 0
M  V30 4442 P 604.867 -5.75688 -6.64379 0
M  V30 4443 O 606.288 -6.07692 -7.0558 0
M  V30 4444 O 604.507 -5.88047 -5.19722 0
M  V30 4445 O 604.544 -4.2322 -7.04443 0
M  V30 4446 C 604.383 -3.99785 -8.49201 0
M  V30 4447 C 604.924 -2.60516 -8.79425 0
M  V30 4448 O 603.869 -1.82663 -8.44573 0
M  V30 4449 C 606.142 -2.10343 -8.03628 0
M  V30 4450 O 606.88 -1.09919 -8.67766 0
M  V30 4451 C 605.474 -1.68446 -6.70876 0
M  V30 4452 O 606.272 -0.684109 -6.08265 0
M  V30 4453 C 604.136 -1.17436 -7.18567 0
M  V30 4454 N 603.093 -1.52699 -6.23988 0
M  V30 4455 C 603.262 -2.578 -5.40574 0
M  V30 4456 N 602.235 -2.78966 -4.61193 0
M  V30 4457 C 601.35 -1.78725 -4.95769 0
M  V30 4458 C 600.083 -1.45727 -4.44207 0
M  V30 4459 N 599.518 -0.374977 -5.05812 0
M  V30 4460 C 600.12 0.345585 -6.05615 0
M  V30 4461 N 601.297 0.0787651 -6.56253 0
M  V30 4462 C 601.872 -1.00499 -5.96189 0
M  V30 4463 H 605.351 -2.53396 -6.02698 0
M  V30 4464 H 606.834 -2.93881 -7.85526 0
M  V30 4465 H 605.14 -2.52078 -9.87225 0
M  V30 4466 H 604.95 -4.75072 -9.05887 0
M  V30 4467 H 603.32 -4.05244 -8.76668 0
M  V30 4468 H 604.162 -3.18977 -5.3945 0
M  V30 4469 H 605.96 0.177619 -6.34151 0
M  V30 4470 P 607.817 -1.25109 -8.70152 0
M  V30 4471 O 609.239 -1.29744 -9.22016 0
M  V30 4472 O 607.457 -2.13714 -7.55141 0
M  V30 4473 O 607.494 0.248149 -8.21425 0
M  V30 4474 C 607.334 1.22779 -9.30434 0
M  V30 4475 C 607.874 2.56293 -8.80664 0
M  V30 4476 O 606.818 3.02979 -8.09349 0
M  V30 4477 C 609.092 2.57523 -7.89775 0
M  V30 4478 O 609.83 3.7668 -7.89438 0
M  V30 4479 C 608.423 2.20997 -6.55446 0
M  V30 4480 O 609.222 2.71895 -5.48509 0
M  V30 4481 C 607.086 2.89693 -6.67988 0
M  V30 4482 H 607.118 3.88793 -6.19859 0
M  V30 4483 H 608.301 1.12046 -6.44229 0
M  V30 4484 H 609.785 1.7746 -8.19711 0
M  V30 4485 H 608.091 3.20706 -9.67112 0
M  V30 4486 H 607.901 0.901032 -10.1892 0
M  V30 4487 H 606.271 1.33049 -9.56592 0
M  V30 4488 H 608.91 3.57847 -5.23962 0
M  V30 4489 P 610.768 3.65191 -7.99657 0
M  V30 4490 O 612.19 3.89332 -8.45794 0
M  V30 4491 O 610.408 2.28472 -7.50807 0
M  V30 4492 O 610.445 4.64972 -6.77611 0
M  V30 4493 C 610.285 6.06319 -7.16352 0
M  V30 4494 C 610.825 6.91731 -6.02299 0
M  V30 4495 O 609.769 6.92449 -5.17064 0
M  V30 4496 C 612.043 6.43627 -5.25174 0
M  V30 4497 O 612.781 7.43686 -4.60469 0
M  V30 4498 C 611.374 5.40275 -4.31916 0
M  V30 4499 O 612.173 5.25279 -3.14438 0
M  V30 4500 C 610.037 6.04847 -4.05327 0
M  V30 4501 H 610.069 6.62195 -3.11261 0
M  V30 4502 H 611.252 4.42556 -4.81383 0
M  V30 4503 H 612.736 5.92458 -5.93643 0
M  V30 4504 H 611.042 7.92655 -6.402 0
M  V30 4505 H 610.852 6.26671 -8.0846 0
M  V30 4506 H 609.222 6.29101 -7.32804 0
M  V30 4507 H 611.861 5.84315 -2.47318 0
M  V30 4508 P 613.719 7.39546 -4.75277 0
M  V30 4509 O 615.14 7.84882 -5.01092 0
M  V30 4510 O 613.359 5.9812 -5.08098 0
M  V30 4511 O 613.396 7.57503 -3.1866 0
M  V30 4512 C 613.235 8.97452 -2.74862 0
M  V30 4513 C 613.776 9.07548 -1.32709 0
M  V30 4514 O 612.721 8.61972 -0.606089 0
M  V30 4515 C 614.994 8.25383 -0.938334 0
M  V30 4516 O 615.732 8.74577 0.146954 0
M  V30 4517 C 614.326 6.8802 -0.712559 0
M  V30 4518 O 615.124 6.1181 0.188505 0
M  V30 4519 C 612.988 7.27966 -0.139777 0
M  V30 4520 N 611.945 6.39368 -0.623421 0
M  V30 4521 C 612.114 5.71761 -1.78245 0
M  V30 4522 N 611.087 4.962 -2.10491 0
M  V30 4523 C 610.202 5.16158 -1.0635 0
M  V30 4524 C 608.935 4.60425 -0.810266 0
M  V30 4525 N 608.336 3.7057 -1.62914 0
M  V30 4526 N 608.37 5.06 0.348685 0
M  V30 4527 C 608.972 5.94532 1.20395 0
M  V30 4528 N 610.149 6.48452 1.01191 0
M  V30 4529 C 610.724 6.04423 -0.146291 0
M  V30 4530 H 613.02 7.25255 0.961469 0
M  V30 4531 H 614.203 6.32625 -1.65044 0
M  V30 4532 H 615.686 8.19355 -1.79097 0
M  V30 4533 H 613.992 10.1305 -1.09016 0
M  V30 4534 H 613.802 9.64276 -3.41316 0
M  V30 4535 H 612.172 9.25417 -2.76357 0
M  V30 4536 H 608.436 6.21659 2.10714 0
M  V30 4537 H 613.014 5.79354 -2.38959 0
M  V30 4538 H 607.406 3.33174 -1.38982 0
M  V30 4539 H 608.81 3.39714 -2.48836 0
M  V30 4540 H 614.812 6.25169 1.0783 0
M  V30 4541 P 616.669 8.791 4.14417e-12 0
M  V30 4542 O 618.091 9.31096 0.027933 0
M  V30 4543 O 616.309 7.77869 -1.04071 0
M  V30 4544 O 616.346 8.09533 1.41463 0
M  V30 4545 C 616.186 9.0349 2.53943 0
M  V30 4546 C 616.726 8.35226 3.79016 0
M  V30 4547 O 615.67 7.57992 4.15078 0
M  V30 4548 C 617.944 7.45087 3.67298 0
M  V30 4549 O 618.682 7.27796 4.85194 0
M  V30 4550 C 617.275 6.17323 3.12027 0
M  V30 4551 O 618.074 5.04231 3.47188 0
M  V30 4552 C 615.938 6.19961 3.81809 0
M  V30 4553 H 615.97 5.58218 4.73051 0
M  V30 4554 H 617.153 6.21726 2.02589 0
M  V30 4555 H 618.637 7.86112 2.9231 0
M  V30 4556 H 616.943 9.11627 4.55076 0
M  V30 4557 H 616.753 9.9573 2.34194 0
M  V30 4558 H 615.123 9.2792 2.67832 0
M  V30 4559 H 617.762 4.67702 4.28772 0
M  V30 4560 P 619.62 7.39546 4.75277 0
M  V30 4561 O 621.042 7.81777 5.05738 0
M  V30 4562 O 619.26 7.1065 3.32998 0
M  V30 4563 O 619.297 6.04542 5.56673 0
M  V30 4564 C 619.137 6.22772 7.02095 0
M  V30 4565 C 619.677 4.97725 7.70406 0
M  V30 4566 O 618.621 4.13256 7.58987 0
M  V30 4567 C 620.895 4.28231 7.11815 0
M  V30 4568 O 621.633 3.49945 8.01648 0
M  V30 4569 C 620.226 3.5063 5.96244 0
M  V30 4570 O 621.025 2.36482 5.64681 0
M  V30 4571 C 618.889 3.15122 6.56374 0
M  V30 4572 H 618.921 2.13853 6.99751 0
M  V30 4573 H 620.104 4.13501 5.06559 0
M  V30 4574 H 621.588 5.03285 6.70911 0
M  V30 4575 H 619.894 5.20877 8.75697 0
M  V30 4576 H 619.704 7.11046 7.35349 0
M  V30 4577 H 618.074 6.35815 7.26986 0
M  V30 4578 H 620.713 1.61644 6.13565 0
M  V30 4579 P 622.57 3.65191 7.99657 0
M  V30 4580 O 623.991 3.84292 8.48206 0
M  V30 4581 O 622.21 4.17805 6.64342 0
M  V30 4582 O 622.247 2.07613 7.95143 0
M  V30 4583 C 622.086 1.44344 9.27435 0
M  V30 4584 C 622.627 0.0220036 9.17197 0
M  V30 4585 O 621.572 -0.626794 8.61824 0
M  V30 4586 C 623.845 -0.24586 8.30336 0
M  V30 4587 O 624.583 -1.39011 8.63583 0
M  V30 4588 C 623.177 -0.273849 6.91158 0
M  V30 4589 O 623.975 -1.05728 6.029 0
M  V30 4590 C 621.839 -0.897649 7.22545 0
M  V30 4591 N 620.796 -0.292839 6.41732 0
M  V30 4592 C 620.965 0.950603 5.91308 0
M  V30 4593 N 619.938 1.37732 5.21105 0
M  V30 4594 C 619.053 0.318109 5.26039 0
M  V30 4595 C 617.786 0.146766 4.6727 0
M  V30 4596 N 617.221 -1.06525 4.95887 0
M  V30 4597 C 617.823 -2.0378 5.71347 0
M  V30 4598 N 619 -1.92445 6.27451 0
M  V30 4599 C 619.575 -0.715382 6.00353 0
M  V30 4600 H 623.054 0.733318 6.49674 0
M  V30 4601 H 624.537 0.60668 8.36503 0
M  V30 4602 H 622.843 -0.362662 10.1825 0
M  V30 4603 H 622.653 2.00611 10.0304 0
M  V30 4604 H 621.023 1.41843 9.55327 0
M  V30 4605 H 621.865 1.54076 6.07465 0
M  V30 4606 H 623.663 -1.95704 6.0346 0
M  V30 4607 P 625.521 -1.25109 8.70152 0
M  V30 4608 O 626.943 -1.35274 9.21221 0
M  V30 4609 O 625.161 -0.0769065 7.84762 0
M  V30 4610 O 625.198 -2.55232 7.81161 0
M  V30 4611 C 625.038 -3.79939 8.58154 0
M  V30 4612 C 625.578 -4.94023 7.72785 0
M  V30 4613 O 624.522 -5.18726 6.91205 0
M  V30 4614 C 626.796 -4.69597 6.85231 0
M  V30 4615 O 627.534 -5.83832 6.51337 0
M  V30 4616 C 626.127 -3.96706 5.66633 0
M  V30 4617 O 626.926 -4.15414 4.49689 0
M  V30 4618 C 624.79 -4.66153 5.59313 0
M  V30 4619 H 624.822 -5.47679 4.85214 0
M  V30 4620 H 626.005 -2.89008 5.86566 0
M  V30 4621 H 627.489 -4.0121 7.36511 0
M  V30 4622 H 625.795 -5.80182 8.37584 0
M  V30 4623 H 625.605 -3.73517 9.52265 0
M  V30 4624 H 623.975 -3.97163 8.80359 0
M  V30 4625 H 626.614 -4.90969 4.01921 0
M  V30 4626 P 628.471 -5.75688 6.64379 0
M  V30 4627 O 629.893 -6.11849 7.01846 0
M  V30 4628 O 628.111 -4.30744 6.56026 0
M  V30 4629 O 628.148 -6.37042 5.19165 0
M  V30 4630 C 627.988 -7.83578 5.16515 0
M  V30 4631 C 628.528 -8.33398 3.83019 0
M  V30 4632 O 627.472 -8.10074 3.01034 0
M  V30 4633 C 629.746 -7.65514 3.2257 0
M  V30 4634 O 630.484 -8.4329 2.32297 0
M  V30 4635 C 629.077 -6.40075 2.62207 0
M  V30 4636 O 629.876 -5.92589 1.53712 0
M  V30 4637 C 627.74 -6.9454 2.18503 0
M  V30 4638 H 627.772 -7.23063 1.12091 0
M  V30 4639 H 628.955 -5.6025 3.37201 0
M  V30 4640 H 630.439 -7.35707 4.02681 0
M  V30 4641 H 628.745 -9.40912 3.9095 0
M  V30 4642 H 628.555 -8.29056 5.99158 0
M  V30 4643 H 626.925 -8.10073 5.25882 0
M  V30 4644 H 629.564 -6.30324 0.726794 0
M  V30 4645 P 631.422 -8.4349 2.47671 0
M  V30 4646 O 632.823 -8.98227 2.65696 0
M  V30 4647 O 631.044 -7.20409 3.23964 0
M  V30 4648 O 631.099 -8.16496 0.923275 0
M  V30 4649 C 630.939 -9.38437 0.108857 0
M  V30 4650 C 631.479 -9.08076 -1.28339 0
M  V30 4651 O 630.423 -8.44131 -1.84692 0
M  V30 4652 C 632.696 -8.18386 -1.42505 0
M  V30 4653 O 633.435 -8.3501 -2.60497 0
M  V30 4654 C 632.029 -6.80225 -1.25468 0
M  V30 4655 O 632.827 -5.81526 -1.91035 0
M  V30 4656 C 630.691 -7.02416 -1.9168 0
M  V30 4657 N 629.648 -6.31033 -1.20314 0
M  V30 4658 C 628.613 -5.77149 -1.928 0
M  V30 4659 O 628.652 -5.8521 -3.17729 0
M  V30 4660 N 627.601 -5.15445 -1.27997 0
M  V30 4661 C 627.649 -5.04472 0.0534726 0
M  V30 4662 C 628.745 -5.55244 0.808522 0
M  V30 4663 C 629.711 -6.18542 0.13981 0
M  V30 4664 H 630.723 -6.68789 -2.9658 0
M  V30 4665 H 631.906 -6.53498 -0.198729 0
M  V30 4666 H 633.39 -8.36663 -0.5984 0
M  V30 4667 H 631.696 -10.0273 -1.8081 0
M  V30 4668 H 631.505 -10.2138 0.558219 0
M  V30 4669 H 629.875 -9.6569 0.0444156 0
M  V30 4670 H 628.793 -5.43017 1.88792 0
M  V30 4671 H 630.557 -6.60539 0.686773 0
M  V30 4672 H 632.611 -5.79638 -2.8315 0
M  V30 4673 P 634.373 -8.4349 -2.47671 0
M  V30 4674 O 635.795 -8.92593 -2.65 0
M  V30 4675 O 634.013 -7.7568 -1.19296 0
M  V30 4676 O 634.05 -7.36886 -3.63805 0
M  V30 4677 C 633.89 -7.95349 -4.982 0
M  V30 4678 C 634.43 -6.94612 -5.98974 0
M  V30 4679 O 633.374 -6.10347 -6.11815 0
M  V30 4680 C 635.648 -6.11426 -5.62335 0
M  V30 4681 O 636.386 -5.6162 -6.70584 0
M  V30 4682 C 634.979 -5.04409 -4.73308 0
M  V30 4683 O 635.778 -3.85992 -4.75183 0
M  V30 4684 C 633.642 -4.8728 -5.41006 0
M  V30 4685 H 633.674 -4.02333 -6.11157 0
M  V30 4686 H 634.857 -5.39466 -3.69543 0
M  V30 4687 H 636.341 -6.71916 -5.01943 0
M  V30 4688 H 634.647 -7.4649 -6.93477 0
M  V30 4689 H 634.457 -8.89416 -5.05237 0
M  V30 4690 H 632.827 -8.14876 -5.18409 0
M  V30 4691 H 635.466 -3.27957 -5.4317 0
M  V30 4692 P 637.323 -5.75688 -6.64379 0
M  V30 4693 O 638.745 -6.07627 -7.05504 0
M  V30 4694 O 636.963 -5.88047 -5.19722 0
M  V30 4695 O 637 -4.2322 -7.04443 0
M  V30 4696 C 636.84 -3.99743 -8.4911 0
M  V30 4697 C 637.38 -2.60516 -8.79425 0
M  V30 4698 O 636.324 -1.82684 -8.4467 0
M  V30 4699 C 638.598 -2.10343 -8.03628 0
M  V30 4700 O 639.336 -1.09919 -8.67766 0
M  V30 4701 C 637.929 -1.68446 -6.70876 0
M  V30 4702 O 638.728 -0.678137 -6.08433 0
M  V30 4703 C 636.592 -1.17436 -7.18567 0
M  V30 4704 H 636.624 -0.0804732 -7.31656 0
M  V30 4705 H 637.807 -2.54037 -6.02537 0
M  V30 4706 H 639.291 -2.93881 -7.85526 0
M  V30 4707 H 637.597 -2.53065 -9.86973 0
M  V30 4708 H 637.407 -4.75072 -9.05887 0
M  V30 4709 H 635.777 -4.05244 -8.76668 0
M  V30 4710 H 638.416 0.177647 -6.34251 0
M  V30 4711 P 640.274 -1.25109 -8.70152 0
M  V30 4712 O 641.696 -1.29744 -9.22016 0
M  V30 4713 O 639.914 -2.13714 -7.55141 0
M  V30 4714 O 639.951 0.248149 -8.21425 0
M  V30 4715 C 639.791 1.22779 -9.30434 0
M  V30 4716 C 640.331 2.56293 -8.80664 0
M  V30 4717 O 639.275 3.02979 -8.09349 0
M  V30 4718 C 641.549 2.57523 -7.89775 0
M  V30 4719 O 642.287 3.7668 -7.89438 0
M  V30 4720 C 640.88 2.20997 -6.55446 0
M  V30 4721 O 641.679 2.71895 -5.48509 0
M  V30 4722 C 639.543 2.89693 -6.67988 0
M  V30 4723 H 639.575 3.88793 -6.19859 0
M  V30 4724 H 640.758 1.12046 -6.44229 0
M  V30 4725 H 642.242 1.7746 -8.19711 0
M  V30 4726 H 640.548 3.20706 -9.67112 0
M  V30 4727 H 640.358 0.901032 -10.1892 0
M  V30 4728 H 638.728 1.33049 -9.56592 0
M  V30 4729 H 641.367 3.57847 -5.23962 0
M  V30 4730 P 643.224 3.65191 -7.99657 0
M  V30 4731 O 644.646 3.89332 -8.45794 0
M  V30 4732 O 642.864 2.28472 -7.50807 0
M  V30 4733 O 642.901 4.64972 -6.77611 0
M  V30 4734 C 642.741 6.06319 -7.16352 0
M  V30 4735 C 643.281 6.91731 -6.02299 0
M  V30 4736 O 642.225 6.92449 -5.17064 0
M  V30 4737 C 644.499 6.43627 -5.25174 0
M  V30 4738 O 645.237 7.43686 -4.60469 0
M  V30 4739 C 643.83 5.40275 -4.31916 0
M  V30 4740 O 644.629 5.25279 -3.14438 0
M  V30 4741 C 642.493 6.04847 -4.05327 0
M  V30 4742 H 642.525 6.62195 -3.11261 0
M  V30 4743 H 643.708 4.42556 -4.81383 0
M  V30 4744 H 645.192 5.92458 -5.93643 0
M  V30 4745 H 643.498 7.92655 -6.402 0
M  V30 4746 H 643.308 6.26671 -8.0846 0
M  V30 4747 H 641.678 6.29101 -7.32804 0
M  V30 4748 H 644.317 5.84315 -2.47318 0
M  V30 4749 P 646.175 7.39546 -4.75277 0
M  V30 4750 O 647.597 7.84798 -5.01039 0
M  V30 4751 O 645.815 5.9812 -5.08098 0
M  V30 4752 O 645.852 7.57503 -3.1866 0
M  V30 4753 C 645.692 8.97357 -2.74833 0
M  V30 4754 C 646.232 9.07548 -1.32709 0
M  V30 4755 O 645.176 8.62072 -0.606159 0
M  V30 4756 C 647.45 8.25383 -0.938334 0
M  V30 4757 O 648.188 8.74577 0.146954 0
M  V30 4758 C 646.781 6.8802 -0.712559 0
M  V30 4759 O 647.58 6.1189 0.194655 0
M  V30 4760 C 645.444 7.27966 -0.139777 0
M  V30 4761 H 645.476 7.25354 0.961601 0
M  V30 4762 H 646.659 6.32557 -1.65702 0
M  V30 4763 H 648.143 8.19355 -1.79097 0
M  V30 4764 H 646.449 10.1294 -1.10029 0
M  V30 4765 H 646.259 9.64276 -3.41316 0
M  V30 4766 H 644.629 9.25417 -2.76357 0
M  V30 4767 H 647.268 6.25267 1.07847 0
M  V30 4768 P 649.125 8.791 4.45433e-12 0
M  V30 4769 O 650.547 9.31096 0.027933 0
M  V30 4770 O 648.765 7.77869 -1.04071 0
M  V30 4771 O 648.802 8.09533 1.41463 0
M  V30 4772 C 648.642 9.0349 2.53943 0
M  V30 4773 C 649.182 8.35226 3.79016 0
M  V30 4774 O 648.126 7.57992 4.15078 0
M  V30 4775 C 650.4 7.45087 3.67298 0
M  V30 4776 O 651.138 7.27796 4.85194 0
M  V30 4777 C 649.731 6.17323 3.12027 0
M  V30 4778 O 650.53 5.04231 3.47188 0
M  V30 4779 C 648.394 6.19961 3.81809 0
M  V30 4780 H 648.426 5.58218 4.73051 0
M  V30 4781 H 649.609 6.21726 2.02589 0
M  V30 4782 H 651.093 7.86112 2.9231 0
M  V30 4783 H 649.399 9.11627 4.55076 0
M  V30 4784 H 649.209 9.9573 2.34194 0
M  V30 4785 H 647.579 9.2792 2.67832 0
M  V30 4786 H 650.218 4.67702 4.28772 0
M  V30 4787 P 652.076 7.39546 4.75277 0
M  V30 4788 O 653.498 7.81777 5.05738 0
M  V30 4789 O 651.716 7.1065 3.32998 0
M  V30 4790 O 651.753 6.04542 5.56673 0
M  V30 4791 C 651.593 6.22772 7.02095 0
M  V30 4792 C 652.133 4.97725 7.70406 0
M  V30 4793 O 651.077 4.13256 7.58987 0
M  V30 4794 C 653.351 4.28231 7.11815 0
M  V30 4795 O 654.089 3.49945 8.01648 0
M  V30 4796 C 652.682 3.5063 5.96244 0
M  V30 4797 O 653.481 2.36482 5.64681 0
M  V30 4798 C 651.345 3.15122 6.56374 0
M  V30 4799 H 651.377 2.13853 6.99751 0
M  V30 4800 H 652.56 4.13501 5.06559 0
M  V30 4801 H 654.044 5.03285 6.70911 0
M  V30 4802 H 652.35 5.20877 8.75697 0
M  V30 4803 H 652.16 7.11046 7.35349 0
M  V30 4804 H 650.53 6.35815 7.26986 0
M  V30 4805 H 653.169 1.61644 6.13565 0
M  V30 4806 P 655.027 3.65191 7.99657 0
M  V30 4807 O 656.449 3.8425 8.48115 0
M  V30 4808 O 654.667 4.17805 6.64342 0
M  V30 4809 O 654.704 2.07613 7.95143 0
M  V30 4810 C 654.544 1.44328 9.27336 0
M  V30 4811 C 655.084 0.0220036 9.17197 0
M  V30 4812 O 654.028 -0.626867 8.61923 0
M  V30 4813 C 656.302 -0.24586 8.30336 0
M  V30 4814 O 657.04 -1.39011 8.63583 0
M  V30 4815 C 655.633 -0.273849 6.91158 0
M  V30 4816 O 656.432 -1.06348 6.02892 0
M  V30 4817 C 654.296 -0.897649 7.22545 0
M  V30 4818 H 654.328 -1.9841 7.04286 0
M  V30 4819 H 655.511 0.739928 6.497 0
M  V30 4820 H 656.995 0.60668 8.36503 0
M  V30 4821 H 655.301 -0.352479 10.1829 0
M  V30 4822 H 655.111 2.00611 10.0304 0
M  V30 4823 H 653.481 1.41843 9.55327 0
M  V30 4824 H 656.12 -1.95734 6.03555 0
M  V30 4825 P 657.977 -1.25109 8.70152 0
M  V30 4826 O 659.399 -1.35274 9.21221 0
M  V30 4827 O 657.617 -0.0769065 7.84762 0
M  V30 4828 O 657.654 -2.55232 7.81161 0
M  V30 4829 C 657.494 -3.79939 8.58154 0
M  V30 4830 C 658.034 -4.94023 7.72785 0
M  V30 4831 O 656.978 -5.18726 6.91205 0
M  V30 4832 C 659.252 -4.69597 6.85231 0
M  V30 4833 O 659.99 -5.83832 6.51337 0
M  V30 4834 C 658.583 -3.96706 5.66633 0
M  V30 4835 O 659.382 -4.15414 4.49689 0
M  V30 4836 C 657.246 -4.66153 5.59313 0
M  V30 4837 H 657.278 -5.47679 4.85214 0
M  V30 4838 H 658.461 -2.89008 5.86566 0
M  V30 4839 H 659.945 -4.0121 7.36511 0
M  V30 4840 H 658.251 -5.80182 8.37584 0
M  V30 4841 H 658.061 -3.73517 9.52265 0
M  V30 4842 H 656.431 -3.97163 8.80359 0
M  V30 4843 H 659.07 -4.90969 4.01921 0
M  V30 4844 P 660.928 -5.75688 6.64379 0
M  V30 4845 O 662.35 -6.11849 7.01846 0
M  V30 4846 O 660.568 -4.30744 6.56026 0
M  V30 4847 O 660.605 -6.37042 5.19165 0
M  V30 4848 C 660.445 -7.83578 5.16515 0
M  V30 4849 C 660.985 -8.33398 3.83019 0
M  V30 4850 O 659.929 -8.10074 3.01034 0
M  V30 4851 C 662.203 -7.65514 3.2257 0
M  V30 4852 O 662.941 -8.4329 2.32297 0
M  V30 4853 C 661.534 -6.40075 2.62207 0
M  V30 4854 O 662.333 -5.92589 1.53712 0
M  V30 4855 C 660.197 -6.9454 2.18503 0
M  V30 4856 H 660.229 -7.23063 1.12091 0
M  V30 4857 H 661.412 -5.6025 3.37201 0
M  V30 4858 H 662.896 -7.35707 4.02681 0
M  V30 4859 H 661.202 -9.40912 3.9095 0
M  V30 4860 H 661.012 -8.29056 5.99158 0
M  V30 4861 H 659.382 -8.10073 5.25882 0
M  V30 4862 H 662.021 -6.30324 0.726794 0
M  V30 4863 P 663.878 -8.4349 2.47671 0
M  V30 4864 O 665.3 -8.94167 2.5964 0
M  V30 4865 O 663.518 -7.1704 3.19006 0
M  V30 4866 O 663.555 -8.16596 0.923387 0
M  V30 4867 C 663.395 -9.38437 0.108857 0
M  V30 4868 C 663.935 -9.08175 -1.28353 0
M  V30 4869 O 662.879 -8.44229 -1.84713 0
M  V30 4870 C 665.153 -8.18386 -1.42505 0
M  V30 4871 O 665.891 -8.3501 -2.60497 0
M  V30 4872 C 664.484 -6.80225 -1.25468 0
M  V30 4873 O 665.283 -5.81621 -1.91066 0
M  V30 4874 C 663.147 -7.02416 -1.9168 0
M  V30 4875 H 663.179 -6.6888 -2.96621 0
M  V30 4876 H 664.362 -6.53617 -0.192223 0
M  V30 4877 H 665.846 -8.36622 -0.589963 0
M  V30 4878 H 664.152 -10.0291 -1.79807 0
M  V30 4879 H 663.962 -10.2138 0.558219 0
M  V30 4880 H 662.332 -9.6579 0.0444202 0
M  V30 4881 H 664.971 -5.69556 -2.79637 0
M  V30 4882 P 666.829 -8.4349 -2.47671 0
M  V30 4883 O 668.251 -8.92593 -2.65 0
M  V30 4884 O 666.469 -7.7568 -1.19296 0
M  V30 4885 O 666.506 -7.36886 -3.63805 0
M  V30 4886 C 666.346 -7.95349 -4.982 0
M  V30 4887 C 666.886 -6.94612 -5.98974 0
M  V30 4888 O 665.83 -6.10347 -6.11815 0
M  V30 4889 C 668.104 -6.11426 -5.62335 0
M  V30 4890 O 668.842 -5.6162 -6.70584 0
M  V30 4891 C 667.435 -5.04409 -4.73308 0
M  V30 4892 O 668.234 -3.85992 -4.75183 0
M  V30 4893 C 666.098 -4.8728 -5.41006 0
M  V30 4894 H 666.13 -4.02333 -6.11157 0
M  V30 4895 H 667.313 -5.39466 -3.69543 0
M  V30 4896 H 668.797 -6.71916 -5.01943 0
M  V30 4897 H 667.103 -7.4649 -6.93477 0
M  V30 4898 H 666.913 -8.89416 -5.05237 0
M  V30 4899 H 665.283 -8.14876 -5.18409 0
M  V30 4900 H 667.922 -3.27957 -5.4317 0
M  V30 4901 P 669.779 -5.75688 -6.64379 0
M  V30 4902 O 671.201 -6.07627 -7.05504 0
M  V30 4903 O 669.419 -5.88047 -5.19722 0
M  V30 4904 O 669.456 -4.2322 -7.04443 0
M  V30 4905 C 669.296 -3.99743 -8.4911 0
M  V30 4906 C 669.836 -2.60516 -8.79425 0
M  V30 4907 O 668.78 -1.82684 -8.4467 0
M  V30 4908 C 671.054 -2.10343 -8.03628 0
M  V30 4909 O 671.792 -1.09919 -8.67766 0
M  V30 4910 C 670.385 -1.68446 -6.70876 0
M  V30 4911 O 671.184 -0.678137 -6.08433 0
M  V30 4912 C 669.048 -1.17436 -7.18567 0
M  V30 4913 H 669.08 -0.0804732 -7.31656 0
M  V30 4914 H 670.263 -2.54037 -6.02537 0
M  V30 4915 H 671.747 -2.93881 -7.85526 0
M  V30 4916 H 670.053 -2.53065 -9.86973 0
M  V30 4917 H 669.863 -4.75072 -9.05887 0
M  V30 4918 H 668.233 -4.05244 -8.76668 0
M  V30 4919 H 670.872 0.177647 -6.34251 0
M  V30 4920 P 672.73 -1.25109 -8.70152 0
M  V30 4921 O 674.131 -1.3516 -9.26897 0
M  V30 4922 O 672.352 -2.18141 -7.59181 0
M  V30 4923 O 672.407 0.248118 -8.21325 0
M  V30 4924 C 672.247 1.22779 -9.30434 0
M  V30 4925 C 672.787 2.56265 -8.80568 0
M  V30 4926 O 671.731 3.02944 -8.09255 0
M  V30 4927 C 674.004 2.57523 -7.89775 0
M  V30 4928 O 674.743 3.7668 -7.89438 0
M  V30 4929 C 673.337 2.20997 -6.55446 0
M  V30 4930 O 674.135 2.71851 -5.48419 0
M  V30 4931 C 671.999 2.89693 -6.67988 0
M  V30 4932 N 670.956 2.08895 -6.07487 0
M  V30 4933 C 669.921 2.72974 -5.43836 0
M  V30 4934 O 669.96 3.97779 -5.34036 0
M  V30 4935 N 668.909 2.0005 -4.91983 0
M  V30 4936 C 668.957 0.66501 -5.00098 0
M  V30 4937 N 667.947 -0.0305439 -4.4919 0
M  V30 4938 C 670.053 -0.0100979 -5.61099 0
M  V30 4939 C 671.019 0.74189 -6.14236 0
M  V30 4940 H 672.031 3.8874 -6.19774 0
M  V30 4941 H 673.214 1.12673 -6.44018 0
M  V30 4942 H 674.698 1.783 -8.19631 0
M  V30 4943 H 673.004 3.21673 -9.66791 0
M  V30 4944 H 672.813 0.901032 -10.1892 0
M  V30 4945 H 671.183 1.33036 -9.56493 0
M  V30 4946 H 670.101 -1.09591 -5.64358 0
M  V30 4947 H 671.865 0.260263 -6.6359 0
M  V30 4948 H 667.157 0.460194 -4.04793 0
M  V30 4949 H 667.952 -1.05716 -4.53953 0
M  V30 4950 H 673.919 3.62759 -5.33442 0
M  V30 4951 P 675.681 3.65191 -7.99657 0
M  V30 4952 O 677.103 3.89332 -8.45794 0
M  V30 4953 O 675.321 2.28472 -7.50807 0
M  V30 4954 O 675.358 4.64972 -6.77611 0
M  V30 4955 C 675.198 6.06319 -7.16352 0
M  V30 4956 C 675.738 6.91731 -6.02299 0
M  V30 4957 O 674.682 6.92449 -5.17064 0
M  V30 4958 C 676.956 6.43627 -5.25174 0
M  V30 4959 O 677.694 7.43686 -4.60469 0
M  V30 4960 C 676.287 5.40275 -4.31916 0
M  V30 4961 O 677.086 5.25279 -3.14438 0
M  V30 4962 C 674.95 6.04847 -4.05327 0
M  V30 4963 H 674.982 6.62195 -3.11261 0
M  V30 4964 H 676.165 4.42556 -4.81383 0
M  V30 4965 H 677.649 5.92458 -5.93643 0
M  V30 4966 H 675.955 7.92655 -6.402 0
M  V30 4967 H 675.765 6.26671 -8.0846 0
M  V30 4968 H 674.135 6.29101 -7.32804 0
M  V30 4969 H 676.774 5.84315 -2.47318 0
M  V30 4970 P 678.631 7.39546 -4.75277 0
M  V30 4971 O 680.053 7.84798 -5.01039 0
M  V30 4972 O 678.271 5.9812 -5.08098 0
M  V30 4973 O 678.308 7.57503 -3.1866 0
M  V30 4974 C 678.148 8.97357 -2.74833 0
M  V30 4975 C 678.688 9.07548 -1.32709 0
M  V30 4976 O 677.632 8.62072 -0.606159 0
M  V30 4977 C 679.906 8.25383 -0.938334 0
M  V30 4978 O 680.644 8.74577 0.146954 0
M  V30 4979 C 679.237 6.8802 -0.712559 0
M  V30 4980 O 680.036 6.1189 0.194655 0
M  V30 4981 C 677.9 7.27966 -0.139777 0
M  V30 4982 H 677.932 7.25354 0.961601 0
M  V30 4983 H 679.115 6.32557 -1.65702 0
M  V30 4984 H 680.599 8.19355 -1.79097 0
M  V30 4985 H 678.905 10.1294 -1.10029 0
M  V30 4986 H 678.715 9.64276 -3.41316 0
M  V30 4987 H 677.085 9.25417 -2.76357 0
M  V30 4988 H 679.724 6.25267 1.07847 0
M  V30 4989 P 681.582 8.791 4.7645e-12 0
M  V30 4990 O 682.983 9.36698 -0.018734 0
M  V30 4991 O 681.204 7.82499 -1.07878 0
M  V30 4992 O 681.259 8.09434 1.41446 0
M  V30 4993 C 681.099 9.0349 2.53943 0
M  V30 4994 C 681.639 8.35135 3.78975 0
M  V30 4995 O 680.583 7.57904 4.1503 0
M  V30 4996 C 682.856 7.45087 3.67298 0
M  V30 4997 O 683.595 7.27796 4.85194 0
M  V30 4998 C 682.189 6.17323 3.12027 0
M  V30 4999 O 682.987 5.04149 3.47132 0
M  V30 5000 C 680.851 6.19961 3.81809 0
M  V30 5001 N 679.808 5.71575 2.93223 0
M  V30 5002 C 678.773 4.99452 3.47592 0
M  V30 5003 O 678.812 4.7199 4.69732 0
M  V30 5004 N 677.761 4.58505 2.6803 0
M  V30 5005 C 677.809 4.85544 1.36995 0
M  V30 5006 N 676.799 4.45052 0.609031 0
M  V30 5007 C 678.905 5.55532 0.788532 0
M  V30 5008 C 679.871 5.97426 1.60849 0
M  V30 5009 H 680.883 5.58142 4.72986 0
M  V30 5010 H 682.066 6.21428 2.0318 0
M  V30 5011 H 683.55 7.85913 2.93131 0
M  V30 5012 H 681.856 9.11171 4.55987 0
M  V30 5013 H 681.665 9.9573 2.34194 0
M  V30 5014 H 680.035 9.27824 2.67805 0
M  V30 5015 H 678.953 5.7421 -0.281588 0
M  V30 5016 H 680.717 6.53132 1.202 0
M  V30 5017 H 676.009 3.94123 1.03159 0
M  V30 5018 H 676.804 4.64377 -0.400352 0
M  V30 5019 H 682.771 4.76386 4.34983 0
M  V30 5020 P 684.532 7.39546 4.75277 0
M  V30 5021 O 685.954 7.81777 5.05738 0
M  V30 5022 O 684.172 7.1065 3.32998 0
M  V30 5023 O 684.209 6.04542 5.56673 0
M  V30 5024 C 684.049 6.22772 7.02095 0
M  V30 5025 C 684.589 4.97725 7.70406 0
M  V30 5026 O 683.533 4.13256 7.58987 0
M  V30 5027 C 685.807 4.28231 7.11815 0
M  V30 5028 O 686.545 3.49945 8.01648 0
M  V30 5029 C 685.138 3.5063 5.96244 0
M  V30 5030 O 685.937 2.36482 5.64681 0
M  V30 5031 C 683.801 3.15122 6.56374 0
M  V30 5032 H 683.833 2.13853 6.99751 0
M  V30 5033 H 685.016 4.13501 5.06559 0
M  V30 5034 H 686.5 5.03285 6.70911 0
M  V30 5035 H 684.806 5.20877 8.75697 0
M  V30 5036 H 684.616 7.11046 7.35349 0
M  V30 5037 H 682.986 6.35815 7.26986 0
M  V30 5038 H 685.625 1.61644 6.13565 0
M  V30 5039 P 687.483 3.65191 7.99657 0
M  V30 5040 O 688.905 3.8425 8.48115 0
M  V30 5041 O 687.123 4.17805 6.64342 0
M  V30 5042 O 687.16 2.07613 7.95143 0
M  V30 5043 C 687 1.44328 9.27336 0
M  V30 5044 C 687.54 0.0220036 9.17197 0
M  V30 5045 O 686.484 -0.626867 8.61923 0
M  V30 5046 C 688.758 -0.24586 8.30336 0
M  V30 5047 O 689.496 -1.39011 8.63583 0
M  V30 5048 C 688.089 -0.273849 6.91158 0
M  V30 5049 O 688.888 -1.06348 6.02892 0
M  V30 5050 C 686.752 -0.897649 7.22545 0
M  V30 5051 H 686.784 -1.9841 7.04286 0
M  V30 5052 H 687.967 0.739928 6.497 0
M  V30 5053 H 689.451 0.60668 8.36503 0
M  V30 5054 H 687.757 -0.352479 10.1829 0
M  V30 5055 H 687.567 2.00611 10.0304 0
M  V30 5056 H 685.937 1.41843 9.55327 0
M  V30 5057 H 688.576 -1.95734 6.03555 0
M  V30 5058 P 690.433 -1.25109 8.70152 0
M  V30 5059 O 691.855 -1.35274 9.21221 0
M  V30 5060 O 690.073 -0.0769065 7.84762 0
M  V30 5061 O 690.11 -2.55232 7.81161 0
M  V30 5062 C 689.95 -3.79939 8.58154 0
M  V30 5063 C 690.49 -4.94023 7.72785 0
M  V30 5064 O 689.434 -5.18726 6.91205 0
M  V30 5065 C 691.708 -4.69597 6.85231 0
M  V30 5066 O 692.446 -5.83832 6.51337 0
M  V30 5067 C 691.039 -3.96706 5.66633 0
M  V30 5068 O 691.838 -4.15414 4.49689 0
M  V30 5069 C 689.702 -4.66153 5.59313 0
M  V30 5070 H 689.734 -5.47679 4.85214 0
M  V30 5071 H 690.917 -2.89008 5.86566 0
M  V30 5072 H 692.401 -4.0121 7.36511 0
M  V30 5073 H 690.707 -5.80182 8.37584 0
M  V30 5074 H 690.517 -3.73517 9.52265 0
M  V30 5075 H 688.887 -3.97163 8.80359 0
M  V30 5076 H 691.526 -4.90969 4.01921 0
M  V30 5077 P 693.384 -5.75688 6.64379 0
M  V30 5078 O 694.806 -6.11849 7.01846 0
M  V30 5079 O 693.024 -4.30744 6.56026 0
M  V30 5080 O 693.061 -6.37042 5.19165 0
M  V30 5081 C 692.901 -7.83578 5.16515 0
M  V30 5082 C 693.441 -8.33398 3.83019 0
M  V30 5083 O 692.385 -8.10074 3.01034 0
M  V30 5084 C 694.659 -7.65514 3.2257 0
M  V30 5085 O 695.397 -8.4329 2.32297 0
M  V30 5086 C 693.99 -6.40075 2.62207 0
M  V30 5087 O 694.789 -5.92589 1.53712 0
M  V30 5088 C 692.653 -6.9454 2.18503 0
M  V30 5089 H 692.685 -7.23063 1.12091 0
M  V30 5090 H 693.868 -5.6025 3.37201 0
M  V30 5091 H 695.352 -7.35707 4.02681 0
M  V30 5092 H 693.658 -9.40912 3.9095 0
M  V30 5093 H 693.468 -8.29056 5.99158 0
M  V30 5094 H 691.838 -8.10073 5.25882 0
M  V30 5095 H 694.477 -6.30324 0.726794 0
M  V30 5096 P 696.335 -8.4349 2.47671 0
M  V30 5097 O 697.757 -8.94167 2.5964 0
M  V30 5098 O 695.975 -7.1704 3.19006 0
M  V30 5099 O 696.012 -8.16596 0.923387 0
M  V30 5100 C 695.852 -9.38437 0.108857 0
M  V30 5101 C 696.392 -9.08175 -1.28353 0
M  V30 5102 O 695.336 -8.44229 -1.84713 0
M  V30 5103 C 697.61 -8.18386 -1.42505 0
M  V30 5104 O 698.348 -8.3501 -2.60497 0
M  V30 5105 C 696.941 -6.80225 -1.25468 0
M  V30 5106 O 697.74 -5.81621 -1.91066 0
M  V30 5107 C 695.604 -7.02416 -1.9168 0
M  V30 5108 H 695.636 -6.6888 -2.96621 0
M  V30 5109 H 696.819 -6.53617 -0.192223 0
M  V30 5110 H 698.303 -8.36622 -0.589963 0
M  V30 5111 H 696.609 -10.0291 -1.79807 0
M  V30 5112 H 696.419 -10.2138 0.558219 0
M  V30 5113 H 694.789 -9.6579 0.0444202 0
M  V30 5114 H 697.428 -5.69556 -2.79637 0
M  V30 5115 P 699.285 -8.4349 -2.47671 0
M  V30 5116 O 700.707 -8.92593 -2.65 0
M  V30 5117 O 698.925 -7.7568 -1.19296 0
M  V30 5118 O 698.962 -7.36886 -3.63805 0
M  V30 5119 C 698.802 -7.95349 -4.982 0
M  V30 5120 C 699.342 -6.94612 -5.98974 0
M  V30 5121 O 698.286 -6.10347 -6.11815 0
M  V30 5122 C 700.56 -6.11426 -5.62335 0
M  V30 5123 O 701.298 -5.6162 -6.70584 0
M  V30 5124 C 699.891 -5.04409 -4.73308 0
M  V30 5125 O 700.69 -3.85992 -4.75183 0
M  V30 5126 C 698.554 -4.8728 -5.41006 0
M  V30 5127 H 698.586 -4.02333 -6.11157 0
M  V30 5128 H 699.769 -5.39466 -3.69543 0
M  V30 5129 H 701.253 -6.71916 -5.01943 0
M  V30 5130 H 699.559 -7.4649 -6.93477 0
M  V30 5131 H 699.369 -8.89416 -5.05237 0
M  V30 5132 H 697.739 -8.14876 -5.18409 0
M  V30 5133 H 700.378 -3.27957 -5.4317 0
M  V30 5134 P 702.236 -5.75688 -6.64379 0
M  V30 5135 O 703.657 -6.07692 -7.0558 0
M  V30 5136 O 701.876 -5.88047 -5.19722 0
M  V30 5137 O 701.913 -4.2322 -7.04443 0
M  V30 5138 C 701.752 -3.99785 -8.49201 0
M  V30 5139 C 702.293 -2.60516 -8.79425 0
M  V30 5140 O 701.238 -1.82663 -8.44573 0
M  V30 5141 C 703.511 -2.10343 -8.03628 0
M  V30 5142 O 704.249 -1.09919 -8.67766 0
M  V30 5143 C 702.843 -1.68446 -6.70876 0
M  V30 5144 O 703.641 -0.684109 -6.08265 0
M  V30 5145 C 701.505 -1.17436 -7.18567 0
M  V30 5146 N 700.462 -1.52699 -6.23988 0
M  V30 5147 C 700.631 -2.578 -5.40574 0
M  V30 5148 N 699.604 -2.78966 -4.61193 0
M  V30 5149 C 698.719 -1.78725 -4.95769 0
M  V30 5150 C 697.452 -1.45727 -4.44207 0
M  V30 5151 N 696.887 -0.374977 -5.05812 0
M  V30 5152 C 697.489 0.345585 -6.05615 0
M  V30 5153 N 698.666 0.0787651 -6.56253 0
M  V30 5154 C 699.241 -1.00499 -5.96189 0
M  V30 5155 H 702.72 -2.53396 -6.02698 0
M  V30 5156 H 704.203 -2.93881 -7.85526 0
M  V30 5157 H 702.509 -2.52078 -9.87225 0
M  V30 5158 H 702.319 -4.75072 -9.05887 0
M  V30 5159 H 700.689 -4.05244 -8.76668 0
M  V30 5160 H 701.531 -3.18977 -5.3945 0
M  V30 5161 H 703.329 0.177619 -6.34151 0
M  V30 5162 P 705.186 -1.25109 -8.70152 0
M  V30 5163 O 706.608 -1.29744 -9.22016 0
M  V30 5164 O 704.826 -2.13714 -7.55141 0
M  V30 5165 O 704.863 0.248149 -8.21425 0
M  V30 5166 C 704.703 1.22779 -9.30434 0
M  V30 5167 C 705.243 2.56293 -8.80664 0
M  V30 5168 O 704.187 3.02979 -8.09349 0
M  V30 5169 C 706.461 2.57523 -7.89775 0
M  V30 5170 O 707.199 3.7668 -7.89438 0
M  V30 5171 C 705.792 2.20997 -6.55446 0
M  V30 5172 O 706.591 2.71895 -5.48509 0
M  V30 5173 C 704.455 2.89693 -6.67988 0
M  V30 5174 H 704.487 3.88793 -6.19859 0
M  V30 5175 H 705.67 1.12046 -6.44229 0
M  V30 5176 H 707.154 1.7746 -8.19711 0
M  V30 5177 H 705.46 3.20706 -9.67112 0
M  V30 5178 H 705.27 0.901032 -10.1892 0
M  V30 5179 H 703.64 1.33049 -9.56592 0
M  V30 5180 H 706.279 3.57847 -5.23962 0
M  V30 5181 P 708.137 3.65191 -7.99657 0
M  V30 5182 O 709.559 3.89332 -8.45794 0
M  V30 5183 O 707.777 2.28472 -7.50807 0
M  V30 5184 O 707.814 4.64972 -6.77611 0
M  V30 5185 C 707.654 6.06319 -7.16352 0
M  V30 5186 C 708.194 6.91731 -6.02299 0
M  V30 5187 O 707.138 6.92449 -5.17064 0
M  V30 5188 C 709.412 6.43627 -5.25174 0
M  V30 5189 O 710.15 7.43686 -4.60469 0
M  V30 5190 C 708.743 5.40275 -4.31916 0
M  V30 5191 O 709.542 5.25279 -3.14438 0
M  V30 5192 C 707.406 6.04847 -4.05327 0
M  V30 5193 H 707.438 6.62195 -3.11261 0
M  V30 5194 H 708.621 4.42556 -4.81383 0
M  V30 5195 H 710.105 5.92458 -5.93643 0
M  V30 5196 H 708.411 7.92655 -6.402 0
M  V30 5197 H 708.221 6.26671 -8.0846 0
M  V30 5198 H 706.591 6.29101 -7.32804 0
M  V30 5199 H 709.23 5.84315 -2.47318 0
M  V30 5200 P 711.087 7.39546 -4.75277 0
M  V30 5201 O 712.509 7.84798 -5.01039 0
M  V30 5202 O 710.727 5.9812 -5.08098 0
M  V30 5203 O 710.764 7.57503 -3.1866 0
M  V30 5204 C 710.604 8.97357 -2.74833 0
M  V30 5205 C 711.144 9.07548 -1.32709 0
M  V30 5206 O 710.088 8.62072 -0.606159 0
M  V30 5207 C 712.362 8.25383 -0.938334 0
M  V30 5208 O 713.1 8.74577 0.146954 0
M  V30 5209 C 711.693 6.8802 -0.712559 0
M  V30 5210 O 712.492 6.1189 0.194655 0
M  V30 5211 C 710.356 7.27966 -0.139777 0
M  V30 5212 H 710.388 7.25354 0.961601 0
M  V30 5213 H 711.571 6.32557 -1.65702 0
M  V30 5214 H 713.055 8.19355 -1.79097 0
M  V30 5215 H 711.361 10.1294 -1.10029 0
M  V30 5216 H 711.171 9.64276 -3.41316 0
M  V30 5217 H 709.541 9.25417 -2.76357 0
M  V30 5218 H 712.18 6.25267 1.07847 0
M  V30 5219 P 714.038 8.791 5.07466e-12 0
M  V30 5220 O 715.46 9.31096 0.027933 0
M  V30 5221 O 713.678 7.77869 -1.04071 0
M  V30 5222 O 713.715 8.09533 1.41463 0
M  V30 5223 C 713.555 9.0349 2.53943 0
M  V30 5224 C 714.095 8.35226 3.79016 0
M  V30 5225 O 713.039 7.57992 4.15078 0
M  V30 5226 C 715.313 7.45087 3.67298 0
M  V30 5227 O 716.051 7.27796 4.85194 0
M  V30 5228 C 714.644 6.17323 3.12027 0
M  V30 5229 O 715.443 5.04231 3.47188 0
M  V30 5230 C 713.307 6.19961 3.81809 0
M  V30 5231 H 713.339 5.58218 4.73051 0
M  V30 5232 H 714.522 6.21726 2.02589 0
M  V30 5233 H 716.006 7.86112 2.9231 0
M  V30 5234 H 714.312 9.11627 4.55076 0
M  V30 5235 H 714.122 9.9573 2.34194 0
M  V30 5236 H 712.492 9.2792 2.67832 0
M  V30 5237 H 715.131 4.67702 4.28772 0
M  V30 5238 P 716.989 7.39546 4.75277 0
M  V30 5239 O 718.411 7.81777 5.05738 0
M  V30 5240 O 716.629 7.1065 3.32998 0
M  V30 5241 O 716.666 6.04542 5.56673 0
M  V30 5242 C 716.506 6.22772 7.02095 0
M  V30 5243 C 717.046 4.97725 7.70406 0
M  V30 5244 O 715.99 4.13256 7.58987 0
M  V30 5245 C 718.264 4.28231 7.11815 0
M  V30 5246 O 719.002 3.49945 8.01648 0
M  V30 5247 C 717.595 3.5063 5.96244 0
M  V30 5248 O 718.394 2.36482 5.64681 0
M  V30 5249 C 716.258 3.15122 6.56374 0
M  V30 5250 H 716.29 2.13853 6.99751 0
M  V30 5251 H 717.473 4.13501 5.06559 0
M  V30 5252 H 718.957 5.03285 6.70911 0
M  V30 5253 H 717.263 5.20877 8.75697 0
M  V30 5254 H 717.073 7.11046 7.35349 0
M  V30 5255 H 715.443 6.35815 7.26986 0
M  V30 5256 H 718.082 1.61644 6.13565 0
M  V30 5257 P 719.939 3.65191 7.99657 0
M  V30 5258 O 721.361 3.8425 8.48115 0
M  V30 5259 O 719.579 4.17805 6.64342 0
M  V30 5260 O 719.616 2.07613 7.95143 0
M  V30 5261 C 719.456 1.44328 9.27336 0
M  V30 5262 C 719.996 0.0220036 9.17197 0
M  V30 5263 O 718.94 -0.626867 8.61923 0
M  V30 5264 C 721.214 -0.24586 8.30336 0
M  V30 5265 O 721.952 -1.39011 8.63583 0
M  V30 5266 C 720.545 -0.273849 6.91158 0
M  V30 5267 O 721.344 -1.06348 6.02892 0
M  V30 5268 C 719.208 -0.897649 7.22545 0
M  V30 5269 H 719.24 -1.9841 7.04286 0
M  V30 5270 H 720.423 0.739928 6.497 0
M  V30 5271 H 721.907 0.60668 8.36503 0
M  V30 5272 H 720.213 -0.352479 10.1829 0
M  V30 5273 H 720.023 2.00611 10.0304 0
M  V30 5274 H 718.393 1.41843 9.55327 0
M  V30 5275 H 721.032 -1.95734 6.03555 0
M  V30 5276 P 722.89 -1.25109 8.70152 0
M  V30 5277 O 724.312 -1.35274 9.21221 0
M  V30 5278 O 722.53 -0.0769065 7.84762 0
M  V30 5279 O 722.567 -2.55232 7.81161 0
M  V30 5280 C 722.407 -3.79939 8.58154 0
M  V30 5281 C 722.947 -4.94023 7.72785 0
M  V30 5282 O 721.891 -5.18726 6.91205 0
M  V30 5283 C 724.165 -4.69597 6.85231 0
M  V30 5284 O 724.903 -5.83832 6.51337 0
M  V30 5285 C 723.496 -3.96706 5.66633 0
M  V30 5286 O 724.295 -4.15414 4.49689 0
M  V30 5287 C 722.159 -4.66153 5.59313 0
M  V30 5288 H 722.191 -5.47679 4.85214 0
M  V30 5289 H 723.374 -2.89008 5.86566 0
M  V30 5290 H 724.858 -4.0121 7.36511 0
M  V30 5291 H 723.164 -5.80182 8.37584 0
M  V30 5292 H 722.974 -3.73517 9.52265 0
M  V30 5293 H 721.344 -3.97163 8.80359 0
M  V30 5294 H 723.983 -4.90969 4.01921 0
M  V30 5295 P 725.84 -5.75688 6.64379 0
M  V30 5296 O 727.262 -6.11849 7.01846 0
M  V30 5297 O 725.48 -4.30744 6.56026 0
M  V30 5298 O 725.517 -6.37042 5.19165 0
M  V30 5299 C 725.357 -7.83578 5.16515 0
M  V30 5300 C 725.897 -8.33398 3.83019 0
M  V30 5301 O 724.841 -8.10074 3.01034 0
M  V30 5302 C 727.115 -7.65514 3.2257 0
M  V30 5303 O 727.853 -8.4329 2.32297 0
M  V30 5304 C 726.446 -6.40075 2.62207 0
M  V30 5305 O 727.245 -5.92589 1.53712 0
M  V30 5306 C 725.109 -6.9454 2.18503 0
M  V30 5307 H 725.141 -7.23063 1.12091 0
M  V30 5308 H 726.324 -5.6025 3.37201 0
M  V30 5309 H 727.808 -7.35707 4.02681 0
M  V30 5310 H 726.114 -9.40912 3.9095 0
M  V30 5311 H 725.924 -8.29056 5.99158 0
M  V30 5312 H 724.294 -8.10073 5.25882 0
M  V30 5313 H 726.933 -6.30324 0.726794 0
M  V30 5314 P 728.791 -8.4349 2.47671 0
M  V30 5315 O 730.213 -8.94167 2.5964 0
M  V30 5316 O 728.431 -7.1704 3.19006 0
M  V30 5317 O 728.468 -8.16596 0.923387 0
M  V30 5318 C 728.308 -9.38437 0.108857 0
M  V30 5319 C 728.848 -9.08175 -1.28353 0
M  V30 5320 O 727.792 -8.44229 -1.84713 0
M  V30 5321 C 730.066 -8.18386 -1.42505 0
M  V30 5322 O 730.804 -8.3501 -2.60497 0
M  V30 5323 C 729.397 -6.80225 -1.25468 0
M  V30 5324 O 730.196 -5.81621 -1.91066 0
M  V30 5325 C 728.06 -7.02416 -1.9168 0
M  V30 5326 H 728.092 -6.6888 -2.96621 0
M  V30 5327 H 729.275 -6.53617 -0.192223 0
M  V30 5328 H 730.759 -8.36622 -0.589963 0
M  V30 5329 H 729.065 -10.0291 -1.79807 0
M  V30 5330 H 728.875 -10.2138 0.558219 0
M  V30 5331 H 727.245 -9.6579 0.0444202 0
M  V30 5332 H 729.884 -5.69556 -2.79637 0
M  V30 5333 P 731.741 -8.4349 -2.47671 0
M  V30 5334 O 733.163 -8.92593 -2.65 0
M  V30 5335 O 731.381 -7.7568 -1.19296 0
M  V30 5336 O 731.418 -7.36886 -3.63805 0
M  V30 5337 C 731.258 -7.95349 -4.982 0
M  V30 5338 C 731.798 -6.94612 -5.98974 0
M  V30 5339 O 730.742 -6.10347 -6.11815 0
M  V30 5340 C 733.016 -6.11426 -5.62335 0
M  V30 5341 O 733.754 -5.6162 -6.70584 0
M  V30 5342 C 732.347 -5.04409 -4.73308 0
M  V30 5343 O 733.146 -3.85992 -4.75183 0
M  V30 5344 C 731.01 -4.8728 -5.41006 0
M  V30 5345 H 731.042 -4.02333 -6.11157 0
M  V30 5346 H 732.225 -5.39466 -3.69543 0
M  V30 5347 H 733.709 -6.71916 -5.01943 0
M  V30 5348 H 732.015 -7.4649 -6.93477 0
M  V30 5349 H 731.825 -8.89416 -5.05237 0
M  V30 5350 H 730.195 -8.14876 -5.18409 0
M  V30 5351 H 732.834 -3.27957 -5.4317 0
M  V30 5352 P 734.692 -5.75688 -6.64379 0
M  V30 5353 O 736.114 -6.07627 -7.05504 0
M  V30 5354 O 734.332 -5.88047 -5.19722 0
M  V30 5355 O 734.369 -4.2322 -7.04443 0
M  V30 5356 C 734.209 -3.99743 -8.4911 0
M  V30 5357 C 734.749 -2.60516 -8.79425 0
M  V30 5358 O 733.693 -1.82684 -8.4467 0
M  V30 5359 C 735.967 -2.10343 -8.03628 0
M  V30 5360 O 736.705 -1.09919 -8.67766 0
M  V30 5361 C 735.298 -1.68446 -6.70876 0
M  V30 5362 O 736.097 -0.678137 -6.08433 0
M  V30 5363 C 733.961 -1.17436 -7.18567 0
M  V30 5364 H 733.993 -0.0804732 -7.31656 0
M  V30 5365 H 735.176 -2.54037 -6.02537 0
M  V30 5366 H 736.66 -2.93881 -7.85526 0
M  V30 5367 H 734.966 -2.53065 -9.86973 0
M  V30 5368 H 734.776 -4.75072 -9.05887 0
M  V30 5369 H 733.146 -4.05244 -8.76668 0
M  V30 5370 H 735.785 0.177647 -6.34251 0
M  V30 5371 P 737.643 -1.25109 -8.70152 0
M  V30 5372 O 739.065 -1.29744 -9.22016 0
M  V30 5373 O 737.283 -2.13714 -7.55141 0
M  V30 5374 O 737.32 0.248149 -8.21425 0
M  V30 5375 C 737.16 1.22779 -9.30434 0
M  V30 5376 C 737.7 2.56293 -8.80664 0
M  V30 5377 O 736.644 3.02979 -8.09349 0
M  V30 5378 C 738.918 2.57523 -7.89775 0
M  V30 5379 O 739.656 3.7668 -7.89438 0
M  V30 5380 C 738.249 2.20997 -6.55446 0
M  V30 5381 O 739.048 2.71895 -5.48509 0
M  V30 5382 C 736.912 2.89693 -6.67988 0
M  V30 5383 H 736.944 3.88793 -6.19859 0
M  V30 5384 H 738.127 1.12046 -6.44229 0
M  V30 5385 H 739.611 1.7746 -8.19711 0
M  V30 5386 H 737.917 3.20706 -9.67112 0
M  V30 5387 H 737.726 0.901032 -10.1892 0
M  V30 5388 H 736.096 1.33049 -9.56592 0
M  V30 5389 H 738.736 3.57847 -5.23962 0
M  V30 5390 P 740.593 3.65191 -7.99657 0
M  V30 5391 O 742.015 3.89332 -8.45794 0
M  V30 5392 O 740.233 2.28472 -7.50807 0
M  V30 5393 O 740.27 4.64972 -6.77611 0
M  V30 5394 C 740.11 6.06319 -7.16352 0
M  V30 5395 C 740.65 6.91731 -6.02299 0
M  V30 5396 O 739.594 6.92449 -5.17064 0
M  V30 5397 C 741.868 6.43627 -5.25174 0
M  V30 5398 O 742.606 7.43686 -4.60469 0
M  V30 5399 C 741.199 5.40275 -4.31916 0
M  V30 5400 O 741.998 5.25279 -3.14438 0
M  V30 5401 C 739.862 6.04847 -4.05327 0
M  V30 5402 H 739.894 6.62195 -3.11261 0
M  V30 5403 H 741.077 4.42556 -4.81383 0
M  V30 5404 H 742.561 5.92458 -5.93643 0
M  V30 5405 H 740.867 7.92655 -6.402 0
M  V30 5406 H 740.677 6.26671 -8.0846 0
M  V30 5407 H 739.047 6.29101 -7.32804 0
M  V30 5408 H 741.686 5.84315 -2.47318 0
M  V30 5409 P 743.544 7.39546 -4.75277 0
M  V30 5410 O 744.966 7.84798 -5.01039 0
M  V30 5411 O 743.184 5.9812 -5.08098 0
M  V30 5412 O 743.221 7.57503 -3.1866 0
M  V30 5413 C 743.061 8.97357 -2.74833 0
M  V30 5414 C 743.601 9.07548 -1.32709 0
M  V30 5415 O 742.545 8.62072 -0.606159 0
M  V30 5416 C 744.819 8.25383 -0.938334 0
M  V30 5417 O 745.557 8.74577 0.146954 0
M  V30 5418 C 744.15 6.8802 -0.712559 0
M  V30 5419 O 744.949 6.1189 0.194655 0
M  V30 5420 C 742.813 7.27966 -0.139777 0
M  V30 5421 H 742.845 7.25354 0.961601 0
M  V30 5422 H 744.028 6.32557 -1.65702 0
M  V30 5423 H 745.512 8.19355 -1.79097 0
M  V30 5424 H 743.818 10.1294 -1.10029 0
M  V30 5425 H 743.628 9.64276 -3.41316 0
M  V30 5426 H 741.998 9.25417 -2.76357 0
M  V30 5427 H 744.637 6.25267 1.07847 0
M  V30 5428 P 746.494 8.791 5.38483e-12 0
M  V30 5429 O 747.916 9.31096 0.027933 0
M  V30 5430 O 746.134 7.77869 -1.04071 0
M  V30 5431 O 746.171 8.09533 1.41463 0
M  V30 5432 C 746.011 9.0349 2.53943 0
M  V30 5433 C 746.551 8.35226 3.79016 0
M  V30 5434 O 745.495 7.57992 4.15078 0
M  V30 5435 C 747.769 7.45087 3.67298 0
M  V30 5436 O 748.507 7.27796 4.85194 0
M  V30 5437 C 747.1 6.17323 3.12027 0
M  V30 5438 O 747.899 5.04231 3.47188 0
M  V30 5439 C 745.763 6.19961 3.81809 0
M  V30 5440 H 745.795 5.58218 4.73051 0
M  V30 5441 H 746.978 6.21726 2.02589 0
M  V30 5442 H 748.462 7.86112 2.9231 0
M  V30 5443 H 746.768 9.11627 4.55076 0
M  V30 5444 H 746.578 9.9573 2.34194 0
M  V30 5445 H 744.948 9.2792 2.67832 0
M  V30 5446 H 747.587 4.67702 4.28772 0
M  V30 5447 P 749.445 7.39546 4.75277 0
M  V30 5448 O 750.867 7.81777 5.05738 0
M  V30 5449 O 749.085 7.1065 3.32998 0
M  V30 5450 O 749.122 6.04542 5.56673 0
M  V30 5451 C 748.962 6.22772 7.02095 0
M  V30 5452 C 749.502 4.97725 7.70406 0
M  V30 5453 O 748.446 4.13256 7.58987 0
M  V30 5454 C 750.72 4.28231 7.11815 0
M  V30 5455 O 751.458 3.49945 8.01648 0
M  V30 5456 C 750.051 3.5063 5.96244 0
M  V30 5457 O 750.85 2.36482 5.64681 0
M  V30 5458 C 748.714 3.15122 6.56374 0
M  V30 5459 H 748.746 2.13853 6.99751 0
M  V30 5460 H 749.929 4.13501 5.06559 0
M  V30 5461 H 751.413 5.03285 6.70911 0
M  V30 5462 H 749.719 5.20877 8.75697 0
M  V30 5463 H 749.529 7.11046 7.35349 0
M  V30 5464 H 747.899 6.35815 7.26986 0
M  V30 5465 H 750.538 1.61644 6.13565 0
M  V30 5466 P 752.395 3.65191 7.99657 0
M  V30 5467 O 753.817 3.8425 8.48115 0
M  V30 5468 O 752.035 4.17805 6.64342 0
M  V30 5469 O 752.072 2.07613 7.95143 0
M  V30 5470 C 751.912 1.44328 9.27336 0
M  V30 5471 C 752.452 0.0220036 9.17197 0
M  V30 5472 O 751.396 -0.626867 8.61923 0
M  V30 5473 C 753.67 -0.24586 8.30336 0
M  V30 5474 O 754.408 -1.39011 8.63583 0
M  V30 5475 C 753.001 -0.273849 6.91158 0
M  V30 5476 O 753.8 -1.06348 6.02892 0
M  V30 5477 C 751.664 -0.897649 7.22545 0
M  V30 5478 H 751.696 -1.9841 7.04286 0
M  V30 5479 H 752.879 0.739928 6.497 0
M  V30 5480 H 754.363 0.60668 8.36503 0
M  V30 5481 H 752.669 -0.352479 10.1829 0
M  V30 5482 H 752.479 2.00611 10.0304 0
M  V30 5483 H 750.849 1.41843 9.55327 0
M  V30 5484 H 753.488 -1.95734 6.03555 0
M  V30 5485 P 755.346 -1.25109 8.70152 0
M  V30 5486 O 756.768 -1.35274 9.21221 0
M  V30 5487 O 754.986 -0.0769065 7.84762 0
M  V30 5488 O 755.023 -2.55232 7.81161 0
M  V30 5489 C 754.863 -3.79939 8.58154 0
M  V30 5490 C 755.403 -4.94023 7.72785 0
M  V30 5491 O 754.347 -5.18726 6.91205 0
M  V30 5492 C 756.621 -4.69597 6.85231 0
M  V30 5493 O 757.359 -5.83832 6.51337 0
M  V30 5494 C 755.952 -3.96706 5.66633 0
M  V30 5495 O 756.751 -4.15414 4.49689 0
M  V30 5496 C 754.615 -4.66153 5.59313 0
M  V30 5497 H 754.647 -5.47679 4.85214 0
M  V30 5498 H 755.83 -2.89008 5.86566 0
M  V30 5499 H 757.314 -4.0121 7.36511 0
M  V30 5500 H 755.62 -5.80182 8.37584 0
M  V30 5501 H 755.43 -3.73517 9.52265 0
M  V30 5502 H 753.8 -3.97163 8.80359 0
M  V30 5503 H 756.439 -4.90969 4.01921 0
M  V30 5504 P 758.296 -5.75688 6.64379 0
M  V30 5505 O 759.718 -6.11849 7.01846 0
M  V30 5506 O 757.936 -4.30744 6.56026 0
M  V30 5507 O 757.973 -6.37042 5.19165 0
M  V30 5508 C 757.813 -7.83578 5.16515 0
M  V30 5509 C 758.353 -8.33398 3.83019 0
M  V30 5510 O 757.297 -8.10074 3.01034 0
M  V30 5511 C 759.571 -7.65514 3.2257 0
M  V30 5512 O 760.309 -8.4329 2.32297 0
M  V30 5513 C 758.902 -6.40075 2.62207 0
M  V30 5514 O 759.701 -5.92589 1.53712 0
M  V30 5515 C 757.565 -6.9454 2.18503 0
M  V30 5516 H 757.597 -7.23063 1.12091 0
M  V30 5517 H 758.78 -5.6025 3.37201 0
M  V30 5518 H 760.264 -7.35707 4.02681 0
M  V30 5519 H 758.57 -9.40912 3.9095 0
M  V30 5520 H 758.38 -8.29056 5.99158 0
M  V30 5521 H 756.75 -8.10073 5.25882 0
M  V30 5522 H 759.389 -6.30324 0.726794 0
M  V30 5523 P 761.247 -8.4349 2.47671 0
M  V30 5524 O 762.669 -8.94167 2.5964 0
M  V30 5525 O 760.887 -7.1704 3.19006 0
M  V30 5526 O 760.924 -8.16596 0.923387 0
M  V30 5527 C 760.764 -9.38437 0.108857 0
M  V30 5528 C 761.304 -9.08175 -1.28353 0
M  V30 5529 O 760.248 -8.44229 -1.84713 0
M  V30 5530 C 762.522 -8.18386 -1.42505 0
M  V30 5531 O 763.26 -8.3501 -2.60497 0
M  V30 5532 C 761.853 -6.80225 -1.25468 0
M  V30 5533 O 762.652 -5.81621 -1.91066 0
M  V30 5534 C 760.516 -7.02416 -1.9168 0
M  V30 5535 H 760.548 -6.6888 -2.96621 0
M  V30 5536 H 761.731 -6.53617 -0.192223 0
M  V30 5537 H 763.215 -8.36622 -0.589963 0
M  V30 5538 H 761.521 -10.0291 -1.79807 0
M  V30 5539 H 761.331 -10.2138 0.558219 0
M  V30 5540 H 759.701 -9.6579 0.0444202 0
M  V30 5541 H 762.34 -5.69556 -2.79637 0
M  V30 5542 P 764.198 -8.4349 -2.47671 0
M  V30 5543 O 765.619 -8.92689 -2.65029 0
M  V30 5544 O 763.838 -7.7568 -1.19296 0
M  V30 5545 O 763.875 -7.36886 -3.63805 0
M  V30 5546 C 763.714 -7.95433 -4.98253 0
M  V30 5547 C 764.255 -6.94612 -5.98974 0
M  V30 5548 O 763.2 -6.10277 -6.11744 0
M  V30 5549 C 765.473 -6.11426 -5.62335 0
M  V30 5550 O 766.211 -5.6162 -6.70584 0
M  V30 5551 C 764.805 -5.04409 -4.73308 0
M  V30 5552 O 765.603 -3.86404 -4.74719 0
M  V30 5553 C 763.467 -4.8728 -5.41006 0
M  V30 5554 N 762.424 -4.65812 -4.42377 0
M  V30 5555 C 762.593 -5.09132 -3.15382 0
M  V30 5556 N 761.566 -4.84021 -2.3716 0
M  V30 5557 C 760.681 -4.18386 -3.20441 0
M  V30 5558 C 759.414 -3.6275 -2.94905 0
M  V30 5559 N 758.815 -3.65794 -1.73372 0
M  V30 5560 N 758.849 -3.05008 -4.05243 0
M  V30 5561 C 759.451 -2.98348 -5.28159 0
M  V30 5562 N 760.628 -3.48171 -5.56333 0
M  V30 5563 C 761.203 -4.06869 -4.47212 0
M  V30 5564 H 763.499 -4.02278 -6.11074 0
M  V30 5565 H 764.682 -5.39013 -3.70026 0
M  V30 5566 H 766.165 -6.71916 -5.01943 0
M  V30 5567 H 764.471 -7.45796 -6.94223 0
M  V30 5568 H 764.281 -8.89416 -5.05237 0
M  V30 5569 H 762.651 -8.14876 -5.18409 0
M  V30 5570 H 758.915 -2.47853 -6.07807 0
M  V30 5571 H 763.493 -5.59989 -2.81362 0
M  V30 5572 H 757.885 -3.23218 -1.60782 0
M  V30 5573 H 759.289 -4.10523 -0.937856 0
M  V30 5574 H 765.291 -3.27906 -5.43085 0
M  V30 5575 P 767.148 -5.75688 -6.64379 0
M  V30 5576 O 768.57 -6.07627 -7.05504 0
M  V30 5577 O 766.788 -5.88047 -5.19722 0
M  V30 5578 O 766.825 -4.2322 -7.04443 0
M  V30 5579 C 766.665 -3.99743 -8.4911 0
M  V30 5580 C 767.205 -2.60516 -8.79425 0
M  V30 5581 O 766.149 -1.82684 -8.4467 0
M  V30 5582 C 768.423 -2.10343 -8.03628 0
M  V30 5583 O 769.161 -1.09919 -8.67766 0
M  V30 5584 C 767.754 -1.68446 -6.70876 0
M  V30 5585 O 768.553 -0.678137 -6.08433 0
M  V30 5586 C 766.417 -1.17436 -7.18567 0
M  V30 5587 H 766.449 -0.0804732 -7.31656 0
M  V30 5588 H 767.632 -2.54037 -6.02537 0
M  V30 5589 H 769.116 -2.93881 -7.85526 0
M  V30 5590 H 767.422 -2.53065 -9.86973 0
M  V30 5591 H 767.232 -4.75072 -9.05887 0
M  V30 5592 H 765.602 -4.05244 -8.76668 0
M  V30 5593 H 768.241 0.177647 -6.34251 0
M  V30 5594 P 770.099 -1.25109 -8.70152 0
M  V30 5595 O 771.521 -1.29744 -9.22016 0
M  V30 5596 O 769.739 -2.13714 -7.55141 0
M  V30 5597 O 769.776 0.248149 -8.21425 0
M  V30 5598 C 769.616 1.22779 -9.30434 0
M  V30 5599 C 770.156 2.56293 -8.80664 0
M  V30 5600 O 769.1 3.02979 -8.09349 0
M  V30 5601 C 771.374 2.57523 -7.89775 0
M  V30 5602 O 772.112 3.7668 -7.89438 0
M  V30 5603 C 770.705 2.20997 -6.55446 0
M  V30 5604 O 771.504 2.71895 -5.48509 0
M  V30 5605 C 769.368 2.89693 -6.67988 0
M  V30 5606 H 769.4 3.88793 -6.19859 0
M  V30 5607 H 770.583 1.12046 -6.44229 0
M  V30 5608 H 772.067 1.7746 -8.19711 0
M  V30 5609 H 770.373 3.20706 -9.67112 0
M  V30 5610 H 770.183 0.901032 -10.1892 0
M  V30 5611 H 768.553 1.33049 -9.56592 0
M  V30 5612 H 771.192 3.57847 -5.23962 0
M  V30 5613 P 773.049 3.65191 -7.99657 0
M  V30 5614 O 774.47 3.89374 -8.45885 0
M  V30 5615 O 772.689 2.28472 -7.50807 0
M  V30 5616 O 772.726 4.64972 -6.77611 0
M  V30 5617 C 772.565 6.06383 -7.16428 0
M  V30 5618 C 773.106 6.91731 -6.02299 0
M  V30 5619 O 772.051 6.92369 -5.17005 0
M  V30 5620 C 774.324 6.43627 -5.25174 0
M  V30 5621 O 775.062 7.43686 -4.60469 0
M  V30 5622 C 773.656 5.40275 -4.31916 0
M  V30 5623 O 774.454 5.24878 -3.14911 0
M  V30 5624 C 772.318 6.04847 -4.05327 0
M  V30 5625 N 771.275 5.04166 -3.98114 0
M  V30 5626 C 771.444 3.84629 -4.59066 0
M  V30 5627 N 770.417 3.0363 -4.45343 0
M  V30 5628 C 769.532 3.76722 -3.68523 0
M  V30 5629 C 768.265 3.43528 -3.17088 0
M  V30 5630 N 767.666 2.23665 -3.37397 0
M  V30 5631 N 767.7 4.44526 -2.44231 0
M  V30 5632 C 768.302 5.65243 -2.20146 0
M  V30 5633 N 769.479 6.00221 -2.65453 0
M  V30 5634 C 770.054 5.00564 -3.39083 0
M  V30 5635 H 772.35 6.62104 -3.11218 0
M  V30 5636 H 773.533 4.42969 -4.80867 0
M  V30 5637 H 775.016 5.92458 -5.93643 0
M  V30 5638 H 773.322 7.93295 -6.39407 0
M  V30 5639 H 773.132 6.26671 -8.0846 0
M  V30 5640 H 771.502 6.29101 -7.32804 0
M  V30 5641 H 767.766 6.36894 -1.5883 0
M  V30 5642 H 772.344 3.58193 -5.14248 0
M  V30 5643 H 766.736 2.05145 -2.97047 0
M  V30 5644 H 768.14 1.51255 -3.92998 0
M  V30 5645 H 774.142 5.84223 -2.47279 0
M  V30 5646 P 776 7.39546 -4.75277 0
M  V30 5647 O 777.422 7.84798 -5.01039 0
M  V30 5648 O 775.64 5.9812 -5.08098 0
M  V30 5649 O 775.677 7.57503 -3.1866 0
M  V30 5650 C 775.517 8.97357 -2.74833 0
M  V30 5651 C 776.057 9.07548 -1.32709 0
M  V30 5652 O 775.001 8.62072 -0.606159 0
M  V30 5653 C 777.275 8.25383 -0.938334 0
M  V30 5654 O 778.013 8.74577 0.146954 0
M  V30 5655 C 776.606 6.8802 -0.712559 0
M  V30 5656 O 777.405 6.1189 0.194655 0
M  V30 5657 C 775.269 7.27966 -0.139777 0
M  V30 5658 H 775.301 7.25354 0.961601 0
M  V30 5659 H 776.484 6.32557 -1.65702 0
M  V30 5660 H 777.968 8.19355 -1.79097 0
M  V30 5661 H 776.274 10.1294 -1.10029 0
M  V30 5662 H 776.084 9.64276 -3.41316 0
M  V30 5663 H 774.454 9.25417 -2.76357 0
M  V30 5664 H 777.093 6.25267 1.07847 0
M  V30 5665 P 778.95 8.791 5.69499e-12 0
M  V30 5666 O 780.372 9.31096 0.027933 0
M  V30 5667 O 778.59 7.77869 -1.04071 0
M  V30 5668 O 778.627 8.09533 1.41463 0
M  V30 5669 C 778.467 9.0349 2.53943 0
M  V30 5670 C 779.007 8.35226 3.79016 0
M  V30 5671 O 777.951 7.57992 4.15078 0
M  V30 5672 C 780.225 7.45087 3.67298 0
M  V30 5673 O 780.963 7.27796 4.85194 0
M  V30 5674 C 779.556 6.17323 3.12027 0
M  V30 5675 O 780.355 5.04231 3.47188 0
M  V30 5676 C 778.219 6.19961 3.81809 0
M  V30 5677 H 778.251 5.58218 4.73051 0
M  V30 5678 H 779.434 6.21726 2.02589 0
M  V30 5679 H 780.918 7.86112 2.9231 0
M  V30 5680 H 779.224 9.11627 4.55076 0
M  V30 5681 H 779.034 9.9573 2.34194 0
M  V30 5682 H 777.404 9.2792 2.67832 0
M  V30 5683 H 780.043 4.67702 4.28772 0
M  V30 5684 P 781.901 7.39546 4.75277 0
M  V30 5685 O 783.323 7.81777 5.05738 0
M  V30 5686 O 781.541 7.1065 3.32998 0
M  V30 5687 O 781.578 6.04542 5.56673 0
M  V30 5688 C 781.418 6.22772 7.02095 0
M  V30 5689 C 781.958 4.97725 7.70406 0
M  V30 5690 O 780.902 4.13256 7.58987 0
M  V30 5691 C 783.176 4.28231 7.11815 0
M  V30 5692 O 783.914 3.49945 8.01648 0
M  V30 5693 C 782.507 3.5063 5.96244 0
M  V30 5694 O 783.306 2.36482 5.64681 0
M  V30 5695 C 781.17 3.15122 6.56374 0
M  V30 5696 H 781.202 2.13853 6.99751 0
M  V30 5697 H 782.385 4.13501 5.06559 0
M  V30 5698 H 783.869 5.03285 6.70911 0
M  V30 5699 H 782.175 5.20877 8.75697 0
M  V30 5700 H 781.985 7.11046 7.35349 0
M  V30 5701 H 780.355 6.35815 7.26986 0
M  V30 5702 H 782.994 1.61644 6.13565 0
M  V30 5703 P 784.852 3.65191 7.99657 0
M  V30 5704 O 786.273 3.84292 8.48206 0
M  V30 5705 O 784.492 4.17805 6.64342 0
M  V30 5706 O 784.529 2.07613 7.95143 0
M  V30 5707 C 784.368 1.44344 9.27435 0
M  V30 5708 C 784.909 0.0220036 9.17197 0
M  V30 5709 O 783.854 -0.626794 8.61824 0
M  V30 5710 C 786.127 -0.24586 8.30336 0
M  V30 5711 O 786.865 -1.39011 8.63583 0
M  V30 5712 C 785.459 -0.273849 6.91158 0
M  V30 5713 O 786.257 -1.05728 6.029 0
M  V30 5714 C 784.121 -0.897649 7.22545 0
M  V30 5715 N 783.078 -0.292839 6.41732 0
M  V30 5716 C 783.247 0.950603 5.91308 0
M  V30 5717 N 782.22 1.37732 5.21105 0
M  V30 5718 C 781.335 0.318109 5.26039 0
M  V30 5719 C 780.068 0.146766 4.6727 0
M  V30 5720 N 779.503 -1.06525 4.95887 0
M  V30 5721 C 780.105 -2.0378 5.71347 0
M  V30 5722 N 781.282 -1.92445 6.27451 0
M  V30 5723 C 781.857 -0.715382 6.00353 0
M  V30 5724 H 785.336 0.733318 6.49674 0
M  V30 5725 H 786.819 0.60668 8.36503 0
M  V30 5726 H 785.125 -0.362662 10.1825 0
M  V30 5727 H 784.935 2.00611 10.0304 0
M  V30 5728 H 783.305 1.41843 9.55327 0
M  V30 5729 H 784.147 1.54076 6.07465 0
M  V30 5730 H 785.945 -1.95704 6.0346 0
M  V30 5731 P 787.802 -1.25109 8.70152 0
M  V30 5732 O 789.224 -1.35274 9.21221 0
M  V30 5733 O 787.442 -0.0769065 7.84762 0
M  V30 5734 O 787.479 -2.55232 7.81161 0
M  V30 5735 C 787.319 -3.79939 8.58154 0
M  V30 5736 C 787.859 -4.94023 7.72785 0
M  V30 5737 O 786.803 -5.18726 6.91205 0
M  V30 5738 C 789.077 -4.69597 6.85231 0
M  V30 5739 O 789.815 -5.83832 6.51337 0
M  V30 5740 C 788.408 -3.96706 5.66633 0
M  V30 5741 O 789.207 -4.15414 4.49689 0
M  V30 5742 C 787.071 -4.66153 5.59313 0
M  V30 5743 H 787.103 -5.47679 4.85214 0
M  V30 5744 H 788.286 -2.89008 5.86566 0
M  V30 5745 H 789.77 -4.0121 7.36511 0
M  V30 5746 H 788.076 -5.80182 8.37584 0
M  V30 5747 H 787.886 -3.73517 9.52265 0
M  V30 5748 H 786.256 -3.97163 8.80359 0
M  V30 5749 H 788.895 -4.90969 4.01921 0
M  V30 5750 P 790.753 -5.75688 6.64379 0
M  V30 5751 O 792.175 -6.11849 7.01846 0
M  V30 5752 O 790.393 -4.30744 6.56026 0
M  V30 5753 O 790.43 -6.37042 5.19165 0
M  V30 5754 C 790.27 -7.83578 5.16515 0
M  V30 5755 C 790.81 -8.33398 3.83019 0
M  V30 5756 O 789.754 -8.10074 3.01034 0
M  V30 5757 C 792.028 -7.65514 3.2257 0
M  V30 5758 O 792.766 -8.4329 2.32297 0
M  V30 5759 C 791.359 -6.40075 2.62207 0
M  V30 5760 O 792.158 -5.92589 1.53712 0
M  V30 5761 C 790.022 -6.9454 2.18503 0
M  V30 5762 H 790.054 -7.23063 1.12091 0
M  V30 5763 H 791.237 -5.6025 3.37201 0
M  V30 5764 H 792.721 -7.35707 4.02681 0
M  V30 5765 H 791.027 -9.40912 3.9095 0
M  V30 5766 H 790.837 -8.29056 5.99158 0
M  V30 5767 H 789.207 -8.10073 5.25882 0
M  V30 5768 H 791.846 -6.30324 0.726794 0
M  V30 5769 P 793.703 -8.4349 2.47671 0
M  V30 5770 O 795.104 -8.98227 2.65696 0
M  V30 5771 O 793.325 -7.20409 3.23964 0
M  V30 5772 O 793.38 -8.16496 0.923275 0
M  V30 5773 C 793.22 -9.38437 0.108857 0
M  V30 5774 C 793.76 -9.08076 -1.28339 0
M  V30 5775 O 792.704 -8.44131 -1.84692 0
M  V30 5776 C 794.977 -8.18386 -1.42505 0
M  V30 5777 O 795.716 -8.3501 -2.60497 0
M  V30 5778 C 794.31 -6.80225 -1.25468 0
M  V30 5779 O 795.108 -5.81526 -1.91035 0
M  V30 5780 C 792.972 -7.02416 -1.9168 0
M  V30 5781 N 791.929 -6.31033 -1.20314 0
M  V30 5782 C 790.894 -5.77149 -1.928 0
M  V30 5783 O 790.933 -5.8521 -3.17729 0
M  V30 5784 N 789.882 -5.15445 -1.27997 0
M  V30 5785 C 789.93 -5.04472 0.0534726 0
M  V30 5786 N 788.92 -4.44183 0.669496 0
M  V30 5787 C 791.026 -5.55244 0.808522 0
M  V30 5788 C 791.992 -6.18542 0.13981 0
M  V30 5789 H 793.004 -6.68789 -2.9658 0
M  V30 5790 H 794.187 -6.53498 -0.198729 0
M  V30 5791 H 795.671 -8.36663 -0.5984 0
M  V30 5792 H 793.977 -10.0273 -1.8081 0
M  V30 5793 H 793.786 -10.2138 0.558219 0
M  V30 5794 H 792.156 -9.6569 0.0444156 0
M  V30 5795 H 791.074 -5.43017 1.88792 0
M  V30 5796 H 792.838 -6.60539 0.686773 0
M  V30 5797 H 788.13 -4.07222 0.12057 0
M  V30 5798 H 788.925 -4.34288 1.69244 0
M  V30 5799 H 794.892 -5.79638 -2.8315 0
M  V30 5800 P 796.654 -8.4349 -2.47671 0
M  V30 5801 O 798.076 -8.92593 -2.65 0
M  V30 5802 O 796.294 -7.7568 -1.19296 0
M  V30 5803 O 796.331 -7.36886 -3.63805 0
M  V30 5804 C 796.171 -7.95349 -4.982 0
M  V30 5805 C 796.711 -6.94612 -5.98974 0
M  V30 5806 O 795.655 -6.10347 -6.11815 0
M  V30 5807 C 797.929 -6.11426 -5.62335 0
M  V30 5808 O 798.667 -5.6162 -6.70584 0
M  V30 5809 C 797.26 -5.04409 -4.73308 0
M  V30 5810 O 798.059 -3.85992 -4.75183 0
M  V30 5811 C 795.923 -4.8728 -5.41006 0
M  V30 5812 H 795.955 -4.02333 -6.11157 0
M  V30 5813 H 797.138 -5.39466 -3.69543 0
M  V30 5814 H 798.622 -6.71916 -5.01943 0
M  V30 5815 H 796.928 -7.4649 -6.93477 0
M  V30 5816 H 796.738 -8.89416 -5.05237 0
M  V30 5817 H 795.108 -8.14876 -5.18409 0
M  V30 5818 H 797.747 -3.27957 -5.4317 0
M  V30 5819 P 799.604 -5.75688 -6.64379 0
M  V30 5820 O 801.026 -6.07627 -7.05504 0
M  V30 5821 O 799.244 -5.88047 -5.19722 0
M  V30 5822 O 799.281 -4.2322 -7.04443 0
M  V30 5823 C 799.121 -3.99743 -8.4911 0
M  V30 5824 C 799.661 -2.60516 -8.79425 0
M  V30 5825 O 798.605 -1.82684 -8.4467 0
M  V30 5826 C 800.879 -2.10343 -8.03628 0
M  V30 5827 O 801.617 -1.09919 -8.67766 0
M  V30 5828 C 800.21 -1.68446 -6.70876 0
M  V30 5829 O 801.009 -0.678137 -6.08433 0
M  V30 5830 C 798.873 -1.17436 -7.18567 0
M  V30 5831 H 798.905 -0.0804732 -7.31656 0
M  V30 5832 H 800.088 -2.54037 -6.02537 0
M  V30 5833 H 801.572 -2.93881 -7.85526 0
M  V30 5834 H 799.878 -2.53065 -9.86973 0
M  V30 5835 H 799.688 -4.75072 -9.05887 0
M  V30 5836 H 798.058 -4.05244 -8.76668 0
M  V30 5837 H 800.697 0.177647 -6.34251 0
M  V30 5838 P 802.555 -1.25109 -8.70152 0
M  V30 5839 O 803.977 -1.29744 -9.22016 0
M  V30 5840 O 802.195 -2.13714 -7.55141 0
M  V30 5841 O 802.232 0.248149 -8.21425 0
M  V30 5842 C 802.072 1.22779 -9.30434 0
M  V30 5843 C 802.612 2.56293 -8.80664 0
M  V30 5844 O 801.556 3.02979 -8.09349 0
M  V30 5845 C 803.83 2.57523 -7.89775 0
M  V30 5846 O 804.568 3.7668 -7.89438 0
M  V30 5847 C 803.161 2.20997 -6.55446 0
M  V30 5848 O 803.96 2.71895 -5.48509 0
M  V30 5849 C 801.824 2.89693 -6.67988 0
M  V30 5850 H 801.856 3.88793 -6.19859 0
M  V30 5851 H 803.039 1.12046 -6.44229 0
M  V30 5852 H 804.523 1.7746 -8.19711 0
M  V30 5853 H 802.829 3.20706 -9.67112 0
M  V30 5854 H 802.639 0.901032 -10.1892 0
M  V30 5855 H 801.009 1.33049 -9.56592 0
M  V30 5856 H 803.648 3.57847 -5.23962 0
M  V30 5857 P 805.506 3.65191 -7.99657 0
M  V30 5858 O 806.928 3.89332 -8.45794 0
M  V30 5859 O 805.146 2.28472 -7.50807 0
M  V30 5860 O 805.183 4.64972 -6.77611 0
M  V30 5861 C 805.023 6.06319 -7.16352 0
M  V30 5862 C 805.563 6.91731 -6.02299 0
M  V30 5863 O 804.507 6.92449 -5.17064 0
M  V30 5864 C 806.781 6.43627 -5.25174 0
M  V30 5865 O 807.519 7.43686 -4.60469 0
M  V30 5866 C 806.112 5.40275 -4.31916 0
M  V30 5867 O 806.911 5.25279 -3.14438 0
M  V30 5868 C 804.775 6.04847 -4.05327 0
M  V30 5869 H 804.807 6.62195 -3.11261 0
M  V30 5870 H 805.99 4.42556 -4.81383 0
M  V30 5871 H 807.474 5.92458 -5.93643 0
M  V30 5872 H 805.78 7.92655 -6.402 0
M  V30 5873 H 805.59 6.26671 -8.0846 0
M  V30 5874 H 803.96 6.29101 -7.32804 0
M  V30 5875 H 806.599 5.84315 -2.47318 0
M  V30 5876 P 808.456 7.39546 -4.75277 0
M  V30 5877 O 809.878 7.84798 -5.01039 0
M  V30 5878 O 808.096 5.9812 -5.08098 0
M  V30 5879 O 808.133 7.57503 -3.1866 0
M  V30 5880 C 807.973 8.97357 -2.74833 0
M  V30 5881 C 808.513 9.07548 -1.32709 0
M  V30 5882 O 807.457 8.62072 -0.606159 0
M  V30 5883 C 809.731 8.25383 -0.938334 0
M  V30 5884 O 810.469 8.74577 0.146954 0
M  V30 5885 C 809.062 6.8802 -0.712559 0
M  V30 5886 O 809.861 6.1189 0.194655 0
M  V30 5887 C 807.725 7.27966 -0.139777 0
M  V30 5888 H 807.757 7.25354 0.961601 0
M  V30 5889 H 808.94 6.32557 -1.65702 0
M  V30 5890 H 810.424 8.19355 -1.79097 0
M  V30 5891 H 808.73 10.1294 -1.10029 0
M  V30 5892 H 808.54 9.64276 -3.41316 0
M  V30 5893 H 806.91 9.25417 -2.76357 0
M  V30 5894 H 809.549 6.25267 1.07847 0
M  V30 5895 P 811.407 8.791 6.00516e-12 0
M  V30 5896 O 812.829 9.31096 0.027933 0
M  V30 5897 O 811.047 7.77869 -1.04071 0
M  V30 5898 O 811.084 8.09533 1.41463 0
M  V30 5899 C 810.924 9.0349 2.53943 0
M  V30 5900 C 811.464 8.35226 3.79016 0
M  V30 5901 O 810.408 7.57992 4.15078 0
M  V30 5902 C 812.682 7.45087 3.67298 0
M  V30 5903 O 813.42 7.27796 4.85194 0
M  V30 5904 C 812.013 6.17323 3.12027 0
M  V30 5905 O 812.812 5.04231 3.47188 0
M  V30 5906 C 810.676 6.19961 3.81809 0
M  V30 5907 H 810.708 5.58218 4.73051 0
M  V30 5908 H 811.891 6.21726 2.02589 0
M  V30 5909 H 813.375 7.86112 2.9231 0
M  V30 5910 H 811.681 9.11627 4.55076 0
M  V30 5911 H 811.491 9.9573 2.34194 0
M  V30 5912 H 809.861 9.2792 2.67832 0
M  V30 5913 H 812.5 4.67702 4.28772 0
M  V30 5914 P 814.357 7.39546 4.75277 0
M  V30 5915 O 815.779 7.81777 5.05738 0
M  V30 5916 O 813.997 7.1065 3.32998 0
M  V30 5917 O 814.034 6.04542 5.56673 0
M  V30 5918 C 813.874 6.22772 7.02095 0
M  V30 5919 C 814.414 4.97725 7.70406 0
M  V30 5920 O 813.358 4.13256 7.58987 0
M  V30 5921 C 815.632 4.28231 7.11815 0
M  V30 5922 O 816.37 3.49945 8.01648 0
M  V30 5923 C 814.963 3.5063 5.96244 0
M  V30 5924 O 815.762 2.36482 5.64681 0
M  V30 5925 C 813.626 3.15122 6.56374 0
M  V30 5926 H 813.658 2.13853 6.99751 0
M  V30 5927 H 814.841 4.13501 5.06559 0
M  V30 5928 H 816.325 5.03285 6.70911 0
M  V30 5929 H 814.631 5.20877 8.75697 0
M  V30 5930 H 814.441 7.11046 7.35349 0
M  V30 5931 H 812.811 6.35815 7.26986 0
M  V30 5932 H 815.45 1.61644 6.13565 0
M  V30 5933 P 817.308 3.65191 7.99657 0
M  V30 5934 O 818.73 3.8425 8.48115 0
M  V30 5935 O 816.948 4.17805 6.64342 0
M  V30 5936 O 816.985 2.07613 7.95143 0
M  V30 5937 C 816.825 1.44328 9.27336 0
M  V30 5938 C 817.365 0.0220036 9.17197 0
M  V30 5939 O 816.309 -0.626867 8.61923 0
M  V30 5940 C 818.583 -0.24586 8.30336 0
M  V30 5941 O 819.321 -1.39011 8.63583 0
M  V30 5942 C 817.914 -0.273849 6.91158 0
M  V30 5943 O 818.713 -1.06348 6.02892 0
M  V30 5944 C 816.577 -0.897649 7.22545 0
M  V30 5945 H 816.609 -1.9841 7.04286 0
M  V30 5946 H 817.792 0.739928 6.497 0
M  V30 5947 H 819.276 0.60668 8.36503 0
M  V30 5948 H 817.582 -0.352479 10.1829 0
M  V30 5949 H 817.392 2.00611 10.0304 0
M  V30 5950 H 815.762 1.41843 9.55327 0
M  V30 5951 H 818.401 -1.95734 6.03555 0
M  V30 5952 P 820.258 -1.25109 8.70152 0
M  V30 5953 O 821.68 -1.35274 9.21221 0
M  V30 5954 O 819.898 -0.0769065 7.84762 0
M  V30 5955 O 819.935 -2.55232 7.81161 0
M  V30 5956 C 819.775 -3.79939 8.58154 0
M  V30 5957 C 820.315 -4.94023 7.72785 0
M  V30 5958 O 819.259 -5.18726 6.91205 0
M  V30 5959 C 821.533 -4.69597 6.85231 0
M  V30 5960 O 822.271 -5.83832 6.51337 0
M  V30 5961 C 820.864 -3.96706 5.66633 0
M  V30 5962 O 821.663 -4.15414 4.49689 0
M  V30 5963 C 819.527 -4.66153 5.59313 0
M  V30 5964 H 819.559 -5.47679 4.85214 0
M  V30 5965 H 820.742 -2.89008 5.86566 0
M  V30 5966 H 822.226 -4.0121 7.36511 0
M  V30 5967 H 820.532 -5.80182 8.37584 0
M  V30 5968 H 820.342 -3.73517 9.52265 0
M  V30 5969 H 818.712 -3.97163 8.80359 0
M  V30 5970 H 821.351 -4.90969 4.01921 0
M  V30 5971 P 823.209 -5.75688 6.64379 0
M  V30 5972 O 824.631 -6.11849 7.01846 0
M  V30 5973 O 822.849 -4.30744 6.56026 0
M  V30 5974 O 822.886 -6.37042 5.19165 0
M  V30 5975 C 822.726 -7.83578 5.16515 0
M  V30 5976 C 823.266 -8.33398 3.83019 0
M  V30 5977 O 822.21 -8.10074 3.01034 0
M  V30 5978 C 824.484 -7.65514 3.2257 0
M  V30 5979 O 825.222 -8.4329 2.32297 0
M  V30 5980 C 823.815 -6.40075 2.62207 0
M  V30 5981 O 824.614 -5.92589 1.53712 0
M  V30 5982 C 822.478 -6.9454 2.18503 0
M  V30 5983 H 822.51 -7.23063 1.12091 0
M  V30 5984 H 823.693 -5.6025 3.37201 0
M  V30 5985 H 825.177 -7.35707 4.02681 0
M  V30 5986 H 823.483 -9.40912 3.9095 0
M  V30 5987 H 823.293 -8.29056 5.99158 0
M  V30 5988 H 821.663 -8.10073 5.25882 0
M  V30 5989 H 824.302 -6.30324 0.726794 0
M  V30 5990 P 826.16 -8.4349 2.47671 0
M  V30 5991 O 827.582 -8.94167 2.5964 0
M  V30 5992 O 825.8 -7.1704 3.19006 0
M  V30 5993 O 825.837 -8.16596 0.923387 0
M  V30 5994 C 825.677 -9.38437 0.108857 0
M  V30 5995 C 826.217 -9.08175 -1.28353 0
M  V30 5996 O 825.161 -8.44229 -1.84713 0
M  V30 5997 C 827.435 -8.18386 -1.42505 0
M  V30 5998 O 828.173 -8.3501 -2.60497 0
M  V30 5999 C 826.766 -6.80225 -1.25468 0
M  V30 6000 O 827.565 -5.81621 -1.91066 0
M  V30 6001 C 825.429 -7.02416 -1.9168 0
M  V30 6002 H 825.461 -6.6888 -2.96621 0
M  V30 6003 H 826.644 -6.53617 -0.192223 0
M  V30 6004 H 828.128 -8.36622 -0.589963 0
M  V30 6005 H 826.434 -10.0291 -1.79807 0
M  V30 6006 H 826.244 -10.2138 0.558219 0
M  V30 6007 H 824.614 -9.6579 0.0444202 0
M  V30 6008 H 827.253 -5.69556 -2.79637 0
M  V30 6009 P 829.11 -8.4349 -2.47671 0
M  V30 6010 O 830.532 -8.92593 -2.65 0
M  V30 6011 O 828.75 -7.7568 -1.19296 0
M  V30 6012 O 828.787 -7.36886 -3.63805 0
M  V30 6013 C 828.627 -7.95349 -4.982 0
M  V30 6014 C 829.167 -6.94612 -5.98974 0
M  V30 6015 O 828.111 -6.10347 -6.11815 0
M  V30 6016 C 830.385 -6.11426 -5.62335 0
M  V30 6017 O 831.123 -5.6162 -6.70584 0
M  V30 6018 C 829.716 -5.04409 -4.73308 0
M  V30 6019 O 830.515 -3.85992 -4.75183 0
M  V30 6020 C 828.379 -4.8728 -5.41006 0
M  V30 6021 H 828.411 -4.02333 -6.11157 0
M  V30 6022 H 829.594 -5.39466 -3.69543 0
M  V30 6023 H 831.078 -6.71916 -5.01943 0
M  V30 6024 H 829.384 -7.4649 -6.93477 0
M  V30 6025 H 829.194 -8.89416 -5.05237 0
M  V30 6026 H 827.564 -8.14876 -5.18409 0
M  V30 6027 H 830.203 -3.27957 -5.4317 0
M  V30 6028 P 832.061 -5.75688 -6.64379 0
M  V30 6029 O 833.483 -6.07627 -7.05504 0
M  V30 6030 O 831.701 -5.88047 -5.19722 0
M  V30 6031 O 831.738 -4.2322 -7.04443 0
M  V30 6032 C 831.578 -3.99743 -8.4911 0
M  V30 6033 C 832.118 -2.60516 -8.79425 0
M  V30 6034 O 831.062 -1.82684 -8.4467 0
M  V30 6035 C 833.336 -2.10343 -8.03628 0
M  V30 6036 O 834.074 -1.09919 -8.67766 0
M  V30 6037 C 832.667 -1.68446 -6.70876 0
M  V30 6038 O 833.466 -0.678137 -6.08433 0
M  V30 6039 C 831.33 -1.17436 -7.18567 0
M  V30 6040 H 831.362 -0.0804732 -7.31656 0
M  V30 6041 H 832.545 -2.54037 -6.02537 0
M  V30 6042 H 834.029 -2.93881 -7.85526 0
M  V30 6043 H 832.335 -2.53065 -9.86973 0
M  V30 6044 H 832.145 -4.75072 -9.05887 0
M  V30 6045 H 830.515 -4.05244 -8.76668 0
M  V30 6046 H 833.154 0.177647 -6.34251 0
M  V30 6047 P 835.011 -1.25109 -8.70152 0
M  V30 6048 O 836.433 -1.29744 -9.22016 0
M  V30 6049 O 834.651 -2.13714 -7.55141 0
M  V30 6050 O 834.688 0.248149 -8.21425 0
M  V30 6051 C 834.528 1.22779 -9.30434 0
M  V30 6052 C 835.068 2.56293 -8.80664 0
M  V30 6053 O 834.012 3.02979 -8.09349 0
M  V30 6054 C 836.286 2.57523 -7.89775 0
M  V30 6055 O 837.024 3.7668 -7.89438 0
M  V30 6056 C 835.617 2.20997 -6.55446 0
M  V30 6057 O 836.416 2.71895 -5.48509 0
M  V30 6058 C 834.28 2.89693 -6.67988 0
M  V30 6059 H 834.312 3.88793 -6.19859 0
M  V30 6060 H 835.495 1.12046 -6.44229 0
M  V30 6061 H 836.979 1.7746 -8.19711 0
M  V30 6062 H 835.285 3.20706 -9.67112 0
M  V30 6063 H 835.095 0.901032 -10.1892 0
M  V30 6064 H 833.465 1.33049 -9.56592 0
M  V30 6065 H 836.104 3.57847 -5.23962 0
M  V30 6066 P 837.962 3.65191 -7.99657 0
M  V30 6067 O 839.384 3.89332 -8.45794 0
M  V30 6068 O 837.602 2.28472 -7.50807 0
M  V30 6069 O 837.639 4.64972 -6.77611 0
M  V30 6070 C 837.479 6.06319 -7.16352 0
M  V30 6071 C 838.019 6.91731 -6.02299 0
M  V30 6072 O 836.963 6.92449 -5.17064 0
M  V30 6073 C 839.237 6.43627 -5.25174 0
M  V30 6074 O 839.975 7.43686 -4.60469 0
M  V30 6075 C 838.568 5.40275 -4.31916 0
M  V30 6076 O 839.367 5.25279 -3.14438 0
M  V30 6077 C 837.231 6.04847 -4.05327 0
M  V30 6078 H 837.263 6.62195 -3.11261 0
M  V30 6079 H 838.446 4.42556 -4.81383 0
M  V30 6080 H 839.93 5.92458 -5.93643 0
M  V30 6081 H 838.236 7.92655 -6.402 0
M  V30 6082 H 838.046 6.26671 -8.0846 0
M  V30 6083 H 836.416 6.29101 -7.32804 0
M  V30 6084 H 839.055 5.84315 -2.47318 0
M  V30 6085 P 840.912 7.39546 -4.75277 0
M  V30 6086 O 842.333 7.84882 -5.01092 0
M  V30 6087 O 840.552 5.9812 -5.08098 0
M  V30 6088 O 840.589 7.57503 -3.1866 0
M  V30 6089 C 840.428 8.97452 -2.74862 0
M  V30 6090 C 840.969 9.07548 -1.32709 0
M  V30 6091 O 839.914 8.61972 -0.606089 0
M  V30 6092 C 842.187 8.25383 -0.938334 0
M  V30 6093 O 842.925 8.74577 0.146954 0
M  V30 6094 C 841.519 6.8802 -0.712559 0
M  V30 6095 O 842.317 6.1181 0.188505 0
M  V30 6096 C 840.181 7.27966 -0.139777 0
M  V30 6097 N 839.138 6.39368 -0.623421 0
M  V30 6098 C 839.307 5.71761 -1.78245 0
M  V30 6099 N 838.28 4.962 -2.10491 0
M  V30 6100 C 837.395 5.16158 -1.0635 0
M  V30 6101 C 836.128 4.60425 -0.810266 0
M  V30 6102 N 835.529 3.7057 -1.62914 0
M  V30 6103 N 835.563 5.06 0.348685 0
M  V30 6104 C 836.165 5.94532 1.20395 0
M  V30 6105 N 837.342 6.48452 1.01191 0
M  V30 6106 C 837.917 6.04423 -0.146291 0
M  V30 6107 H 840.213 7.25255 0.961469 0
M  V30 6108 H 841.396 6.32625 -1.65044 0
M  V30 6109 H 842.879 8.19355 -1.79097 0
M  V30 6110 H 841.185 10.1305 -1.09016 0
M  V30 6111 H 840.995 9.64276 -3.41316 0
M  V30 6112 H 839.365 9.25417 -2.76357 0
M  V30 6113 H 835.629 6.21659 2.10714 0
M  V30 6114 H 840.207 5.79354 -2.38959 0
M  V30 6115 H 834.599 3.33174 -1.38982 0
M  V30 6116 H 836.003 3.39714 -2.48836 0
M  V30 6117 H 842.005 6.25169 1.0783 0
M  V30 6118 P 843.863 8.791 6.31533e-12 0
M  V30 6119 O 845.285 9.31096 0.027933 0
M  V30 6120 O 843.503 7.77869 -1.04071 0
M  V30 6121 O 843.54 8.09533 1.41463 0
M  V30 6122 C 843.38 9.0349 2.53943 0
M  V30 6123 C 843.92 8.35226 3.79016 0
M  V30 6124 O 842.864 7.57992 4.15078 0
M  V30 6125 C 845.138 7.45087 3.67298 0
M  V30 6126 O 845.876 7.27796 4.85194 0
M  V30 6127 C 844.469 6.17323 3.12027 0
M  V30 6128 O 845.268 5.04231 3.47188 0
M  V30 6129 C 843.132 6.19961 3.81809 0
M  V30 6130 H 843.164 5.58218 4.73051 0
M  V30 6131 H 844.347 6.21726 2.02589 0
M  V30 6132 H 845.831 7.86112 2.9231 0
M  V30 6133 H 844.137 9.11627 4.55076 0
M  V30 6134 H 843.947 9.9573 2.34194 0
M  V30 6135 H 842.317 9.2792 2.67832 0
M  V30 6136 H 844.956 4.67702 4.28772 0
M  V30 6137 P 846.814 7.39546 4.75277 0
M  V30 6138 O 848.236 7.81777 5.05738 0
M  V30 6139 O 846.454 7.1065 3.32998 0
M  V30 6140 O 846.491 6.04542 5.56673 0
M  V30 6141 C 846.331 6.22772 7.02095 0
M  V30 6142 C 846.871 4.97725 7.70406 0
M  V30 6143 O 845.815 4.13256 7.58987 0
M  V30 6144 C 848.089 4.28231 7.11815 0
M  V30 6145 O 848.827 3.49945 8.01648 0
M  V30 6146 C 847.42 3.5063 5.96244 0
M  V30 6147 O 848.219 2.36482 5.64681 0
M  V30 6148 C 846.083 3.15122 6.56374 0
M  V30 6149 H 846.115 2.13853 6.99751 0
M  V30 6150 H 847.298 4.13501 5.06559 0
M  V30 6151 H 848.782 5.03285 6.70911 0
M  V30 6152 H 847.088 5.20877 8.75697 0
M  V30 6153 H 846.898 7.11046 7.35349 0
M  V30 6154 H 845.268 6.35815 7.26986 0
M  V30 6155 H 847.907 1.61644 6.13565 0
M  V30 6156 P 849.764 3.65191 7.99657 0
M  V30 6157 O 851.186 3.8425 8.48115 0
M  V30 6158 O 849.404 4.17805 6.64342 0
M  V30 6159 O 849.441 2.07613 7.95143 0
M  V30 6160 C 849.281 1.44328 9.27336 0
M  V30 6161 C 849.821 0.0220036 9.17197 0
M  V30 6162 O 848.765 -0.626867 8.61923 0
M  V30 6163 C 851.039 -0.24586 8.30336 0
M  V30 6164 O 851.777 -1.39011 8.63583 0
M  V30 6165 C 850.37 -0.273849 6.91158 0
M  V30 6166 O 851.169 -1.06348 6.02892 0
M  V30 6167 C 849.033 -0.897649 7.22545 0
M  V30 6168 H 849.065 -1.9841 7.04286 0
M  V30 6169 H 850.248 0.739928 6.497 0
M  V30 6170 H 851.732 0.60668 8.36503 0
M  V30 6171 H 850.038 -0.352479 10.1829 0
M  V30 6172 H 849.848 2.00611 10.0304 0
M  V30 6173 H 848.218 1.41843 9.55327 0
M  V30 6174 H 850.857 -1.95734 6.03555 0
M  V30 6175 P 852.715 -1.25109 8.70152 0
M  V30 6176 O 854.137 -1.35274 9.21221 0
M  V30 6177 O 852.355 -0.0769065 7.84762 0
M  V30 6178 O 852.392 -2.55232 7.81161 0
M  V30 6179 C 852.232 -3.79939 8.58154 0
M  V30 6180 C 852.772 -4.94023 7.72785 0
M  V30 6181 O 851.716 -5.18726 6.91205 0
M  V30 6182 C 853.99 -4.69597 6.85231 0
M  V30 6183 O 854.728 -5.83832 6.51337 0
M  V30 6184 C 853.321 -3.96706 5.66633 0
M  V30 6185 O 854.12 -4.15414 4.49689 0
M  V30 6186 C 851.984 -4.66153 5.59313 0
M  V30 6187 H 852.016 -5.47679 4.85214 0
M  V30 6188 H 853.199 -2.89008 5.86566 0
M  V30 6189 H 854.683 -4.0121 7.36511 0
M  V30 6190 H 852.989 -5.80182 8.37584 0
M  V30 6191 H 852.799 -3.73517 9.52265 0
M  V30 6192 H 851.169 -3.97163 8.80359 0
M  V30 6193 H 853.808 -4.90969 4.01921 0
M  V30 6194 P 855.665 -5.75688 6.64379 0
M  V30 6195 O 857.087 -6.11849 7.01846 0
M  V30 6196 O 855.305 -4.30744 6.56026 0
M  V30 6197 O 855.342 -6.37042 5.19165 0
M  V30 6198 C 855.182 -7.83578 5.16515 0
M  V30 6199 C 855.722 -8.33398 3.83019 0
M  V30 6200 O 854.666 -8.10074 3.01034 0
M  V30 6201 C 856.94 -7.65514 3.2257 0
M  V30 6202 O 857.678 -8.4329 2.32297 0
M  V30 6203 C 856.271 -6.40075 2.62207 0
M  V30 6204 O 857.07 -5.92589 1.53712 0
M  V30 6205 C 854.934 -6.9454 2.18503 0
M  V30 6206 H 854.966 -7.23063 1.12091 0
M  V30 6207 H 856.149 -5.6025 3.37201 0
M  V30 6208 H 857.633 -7.35707 4.02681 0
M  V30 6209 H 855.939 -9.40912 3.9095 0
M  V30 6210 H 855.749 -8.29056 5.99158 0
M  V30 6211 H 854.119 -8.10073 5.25882 0
M  V30 6212 H 856.758 -6.30324 0.726794 0
M  V30 6213 P 858.616 -8.4349 2.47671 0
M  V30 6214 O 860.038 -8.94359 2.59696 0
M  V30 6215 O 858.256 -7.1704 3.19006 0
M  V30 6216 O 858.293 -8.16596 0.923387 0
M  V30 6217 C 858.133 -9.38437 0.108857 0
M  V30 6218 C 858.673 -9.08076 -1.28339 0
M  V30 6219 O 857.618 -8.44229 -1.84713 0
M  V30 6220 C 859.891 -8.18386 -1.42505 0
M  V30 6221 O 860.629 -8.3501 -2.60497 0
M  V30 6222 C 859.223 -6.80225 -1.25468 0
M  V30 6223 O 860.021 -5.81526 -1.91035 0
M  V30 6224 C 857.885 -7.02416 -1.9168 0
M  V30 6225 N 856.842 -6.31033 -1.20314 0
M  V30 6226 C 856.904 -6.18781 0.121293 0
M  V30 6227 N 855.859 -5.49762 0.588272 0
M  V30 6228 C 855.125 -5.22015 -0.488988 0
M  V30 6229 C 853.819 -4.61966 -0.596448 0
M  V30 6230 O 853.086 -4.19162 0.309059 0
M  V30 6231 N 853.389 -4.53773 -1.878 0
M  V30 6232 C 854.138 -4.99623 -2.99082 0
M  V30 6233 N 853.541 -4.78912 -4.21227 0
M  V30 6234 N 855.291 -5.59957 -2.91093 0
M  V30 6235 C 855.748 -5.70225 -1.64218 0
M  V30 6236 H 857.917 -6.6888 -2.96621 0
M  V30 6237 H 859.1 -6.53517 -0.192194 0
M  V30 6238 H 860.585 -8.36563 -0.598329 0
M  V30 6239 H 858.89 -10.0291 -1.79807 0
M  V30 6240 H 858.7 -10.2138 0.558219 0
M  V30 6241 H 857.069 -9.6579 0.0444202 0
M  V30 6242 H 852.493 -4.12883 -2.05283 0
M  V30 6243 H 857.7 -6.59596 0.745856 0
M  V30 6244 H 852.63 -4.31425 -4.2628 0
M  V30 6245 H 854.006 -5.11219 -5.07148 0
M  V30 6246 H 859.71 -5.69466 -2.79593 0
M  V30 6247 P 861.566 -8.4349 -2.47671 0
M  V30 6248 O 862.988 -8.92593 -2.65 0
M  V30 6249 O 861.206 -7.7568 -1.19296 0
M  V30 6250 O 861.243 -7.36886 -3.63805 0
M  V30 6251 C 861.083 -7.95349 -4.982 0
M  V30 6252 C 861.623 -6.94612 -5.98974 0
M  V30 6253 O 860.567 -6.10347 -6.11815 0
M  V30 6254 C 862.841 -6.11426 -5.62335 0
M  V30 6255 O 863.579 -5.6162 -6.70584 0
M  V30 6256 C 862.172 -5.04409 -4.73308 0
M  V30 6257 O 862.971 -3.85992 -4.75183 0
M  V30 6258 C 860.835 -4.8728 -5.41006 0
M  V30 6259 H 860.867 -4.02333 -6.11157 0
M  V30 6260 H 862.05 -5.39466 -3.69543 0
M  V30 6261 H 863.534 -6.71916 -5.01943 0
M  V30 6262 H 861.84 -7.4649 -6.93477 0
M  V30 6263 H 861.65 -8.89416 -5.05237 0
M  V30 6264 H 860.02 -8.14876 -5.18409 0
M  V30 6265 H 862.659 -3.27957 -5.4317 0
M  V30 6266 P 864.517 -5.75688 -6.64379 0
M  V30 6267 O 865.939 -6.07627 -7.05504 0
M  V30 6268 O 864.157 -5.88047 -5.19722 0
M  V30 6269 O 864.194 -4.2322 -7.04443 0
M  V30 6270 C 864.034 -3.99743 -8.4911 0
M  V30 6271 C 864.574 -2.60516 -8.79425 0
M  V30 6272 O 863.518 -1.82684 -8.4467 0
M  V30 6273 C 865.792 -2.10343 -8.03628 0
M  V30 6274 O 866.53 -1.09919 -8.67766 0
M  V30 6275 C 865.123 -1.68446 -6.70876 0
M  V30 6276 O 865.922 -0.678137 -6.08433 0
M  V30 6277 C 863.786 -1.17436 -7.18567 0
M  V30 6278 H 863.818 -0.0804732 -7.31656 0
M  V30 6279 H 865.001 -2.54037 -6.02537 0
M  V30 6280 H 866.485 -2.93881 -7.85526 0
M  V30 6281 H 864.791 -2.53065 -9.86973 0
M  V30 6282 H 864.601 -4.75072 -9.05887 0
M  V30 6283 H 862.971 -4.05244 -8.76668 0
M  V30 6284 H 865.61 0.177647 -6.34251 0
M  V30 6285 P 867.468 -1.25109 -8.70152 0
M  V30 6286 O 868.89 -1.29744 -9.22016 0
M  V30 6287 O 867.108 -2.13714 -7.55141 0
M  V30 6288 O 867.145 0.248149 -8.21425 0
M  V30 6289 C 866.985 1.22779 -9.30434 0
M  V30 6290 C 867.525 2.56293 -8.80664 0
M  V30 6291 O 866.469 3.02979 -8.09349 0
M  V30 6292 C 868.743 2.57523 -7.89775 0
M  V30 6293 O 869.481 3.7668 -7.89438 0
M  V30 6294 C 868.074 2.20997 -6.55446 0
M  V30 6295 O 868.873 2.71895 -5.48509 0
M  V30 6296 C 866.737 2.89693 -6.67988 0
M  V30 6297 H 866.769 3.88793 -6.19859 0
M  V30 6298 H 867.952 1.12046 -6.44229 0
M  V30 6299 H 869.436 1.7746 -8.19711 0
M  V30 6300 H 867.742 3.20706 -9.67112 0
M  V30 6301 H 867.552 0.901032 -10.1892 0
M  V30 6302 H 865.922 1.33049 -9.56592 0
M  V30 6303 H 868.561 3.57847 -5.23962 0
M  V30 6304 P 870.418 3.65191 -7.99657 0
M  V30 6305 O 871.84 3.89332 -8.45794 0
M  V30 6306 O 870.058 2.28472 -7.50807 0
M  V30 6307 O 870.095 4.64972 -6.77611 0
M  V30 6308 C 869.935 6.06319 -7.16352 0
M  V30 6309 C 870.475 6.91731 -6.02299 0
M  V30 6310 O 869.419 6.92449 -5.17064 0
M  V30 6311 C 871.693 6.43627 -5.25174 0
M  V30 6312 O 872.431 7.43686 -4.60469 0
M  V30 6313 C 871.024 5.40275 -4.31916 0
M  V30 6314 O 871.823 5.25279 -3.14438 0
M  V30 6315 C 869.687 6.04847 -4.05327 0
M  V30 6316 H 869.719 6.62195 -3.11261 0
M  V30 6317 H 870.902 4.42556 -4.81383 0
M  V30 6318 H 872.386 5.92458 -5.93643 0
M  V30 6319 H 870.692 7.92655 -6.402 0
M  V30 6320 H 870.502 6.26671 -8.0846 0
M  V30 6321 H 868.872 6.29101 -7.32804 0
M  V30 6322 H 871.511 5.84315 -2.47318 0
M  V30 6323 P 873.369 7.39546 -4.75277 0
M  V30 6324 O 874.77 7.86988 -5.07993 0
M  V30 6325 O 872.991 5.99957 -5.13804 0
M  V30 6326 O 873.046 7.57411 -3.18621 0
M  V30 6327 C 872.886 8.97357 -2.74833 0
M  V30 6328 C 873.426 9.0745 -1.32694 0
M  V30 6329 O 872.37 8.61972 -0.606089 0
M  V30 6330 C 874.643 8.25383 -0.938334 0
M  V30 6331 O 875.382 8.74577 0.146954 0
M  V30 6332 C 873.976 6.8802 -0.712559 0
M  V30 6333 O 874.774 6.11791 0.194623 0
M  V30 6334 C 872.638 7.27966 -0.139777 0
M  V30 6335 N 871.595 6.39368 -0.623421 0
M  V30 6336 C 870.56 6.08088 0.223886 0
M  V30 6337 O 870.599 6.5102 1.39986 0
M  V30 6338 N 869.548 5.30627 -0.224051 0
M  V30 6339 C 869.596 4.82531 -1.47257 0
M  V30 6340 C 870.692 5.09974 -2.34008 0
M  V30 6341 C 871.658 5.89548 -1.87678 0
M  V30 6342 H 872.67 7.25255 0.961469 0
M  V30 6343 H 873.853 6.32625 -1.65044 0
M  V30 6344 H 875.337 8.19631 -1.78299 0
M  V30 6345 H 873.643 10.1305 -1.09016 0
M  V30 6346 H 873.452 9.64276 -3.41316 0
M  V30 6347 H 871.822 9.25321 -2.76328 0
M  V30 6348 H 870.74 4.67832 -3.3413 0
M  V30 6349 H 872.504 6.14434 -2.51991 0
M  V30 6350 H 874.558 6.35931 1.08377 0
M  V30 6351 P 876.319 8.791 6.62549e-12 0
M  V30 6352 O 877.741 9.31096 0.027933 0
M  V30 6353 O 875.959 7.77869 -1.04071 0
M  V30 6354 O 875.996 8.09533 1.41463 0
M  V30 6355 C 875.836 9.0349 2.53943 0
M  V30 6356 C 876.376 8.35226 3.79016 0
M  V30 6357 O 875.32 7.57992 4.15078 0
M  V30 6358 C 877.594 7.45087 3.67298 0
M  V30 6359 O 878.332 7.27796 4.85194 0
M  V30 6360 C 876.925 6.17323 3.12027 0
M  V30 6361 O 877.724 5.04231 3.47188 0
M  V30 6362 C 875.588 6.19961 3.81809 0
M  V30 6363 H 875.62 5.58218 4.73051 0
M  V30 6364 H 876.803 6.21726 2.02589 0
M  V30 6365 H 878.287 7.86112 2.9231 0
M  V30 6366 H 876.593 9.11627 4.55076 0
M  V30 6367 H 876.403 9.9573 2.34194 0
M  V30 6368 H 874.773 9.2792 2.67832 0
M  V30 6369 H 877.412 4.67702 4.28772 0
M  V30 6370 P 879.27 7.39546 4.75277 0
M  V30 6371 O 880.692 7.81777 5.05738 0
M  V30 6372 O 878.91 7.1065 3.32998 0
M  V30 6373 O 878.947 6.04542 5.56673 0
M  V30 6374 C 878.787 6.22772 7.02095 0
M  V30 6375 C 879.327 4.97725 7.70406 0
M  V30 6376 O 878.271 4.13256 7.58987 0
M  V30 6377 C 880.545 4.28231 7.11815 0
M  V30 6378 O 881.283 3.49945 8.01648 0
M  V30 6379 C 879.876 3.5063 5.96244 0
M  V30 6380 O 880.675 2.36482 5.64681 0
M  V30 6381 C 878.539 3.15122 6.56374 0
M  V30 6382 H 878.571 2.13853 6.99751 0
M  V30 6383 H 879.754 4.13501 5.06559 0
M  V30 6384 H 881.238 5.03285 6.70911 0
M  V30 6385 H 879.544 5.20877 8.75697 0
M  V30 6386 H 879.354 7.11046 7.35349 0
M  V30 6387 H 877.724 6.35815 7.26986 0
M  V30 6388 H 880.363 1.61644 6.13565 0
M  V30 6389 P 882.22 3.65191 7.99657 0
M  V30 6390 O 883.642 3.8425 8.48115 0
M  V30 6391 O 881.86 4.17805 6.64342 0
M  V30 6392 O 881.897 2.07613 7.95143 0
M  V30 6393 C 881.737 1.44328 9.27336 0
M  V30 6394 C 882.277 0.0220036 9.17197 0
M  V30 6395 O 881.221 -0.626867 8.61923 0
M  V30 6396 C 883.495 -0.24586 8.30336 0
M  V30 6397 O 884.233 -1.39011 8.63583 0
M  V30 6398 C 882.826 -0.273849 6.91158 0
M  V30 6399 O 883.625 -1.06348 6.02892 0
M  V30 6400 C 881.489 -0.897649 7.22545 0
M  V30 6401 H 881.521 -1.9841 7.04286 0
M  V30 6402 H 882.704 0.739928 6.497 0
M  V30 6403 H 884.188 0.60668 8.36503 0
M  V30 6404 H 882.494 -0.352479 10.1829 0
M  V30 6405 H 882.304 2.00611 10.0304 0
M  V30 6406 H 880.674 1.41843 9.55327 0
M  V30 6407 H 883.313 -1.95734 6.03555 0
M  V30 6408 P 885.171 -1.25109 8.70152 0
M  V30 6409 O 886.593 -1.35274 9.21221 0
M  V30 6410 O 884.811 -0.0769065 7.84762 0
M  V30 6411 O 884.848 -2.55232 7.81161 0
M  V30 6412 C 884.688 -3.79939 8.58154 0
M  V30 6413 C 885.228 -4.94023 7.72785 0
M  V30 6414 O 884.172 -5.18726 6.91205 0
M  V30 6415 C 886.446 -4.69597 6.85231 0
M  V30 6416 O 887.184 -5.83832 6.51337 0
M  V30 6417 C 885.777 -3.96706 5.66633 0
M  V30 6418 O 886.576 -4.15414 4.49689 0
M  V30 6419 C 884.44 -4.66153 5.59313 0
M  V30 6420 H 884.472 -5.47679 4.85214 0
M  V30 6421 H 885.655 -2.89008 5.86566 0
M  V30 6422 H 887.139 -4.0121 7.36511 0
M  V30 6423 H 885.445 -5.80182 8.37584 0
M  V30 6424 H 885.255 -3.73517 9.52265 0
M  V30 6425 H 883.625 -3.97163 8.80359 0
M  V30 6426 H 886.264 -4.90969 4.01921 0
M  V30 6427 P 888.122 -5.75688 6.64379 0
M  V30 6428 O 889.544 -6.11849 7.01846 0
M  V30 6429 O 887.762 -4.30744 6.56026 0
M  V30 6430 O 887.799 -6.37042 5.19165 0
M  V30 6431 C 887.639 -7.83578 5.16515 0
M  V30 6432 C 888.179 -8.33398 3.83019 0
M  V30 6433 O 887.123 -8.10074 3.01034 0
M  V30 6434 C 889.397 -7.65514 3.2257 0
M  V30 6435 O 890.135 -8.4329 2.32297 0
M  V30 6436 C 888.728 -6.40075 2.62207 0
M  V30 6437 O 889.527 -5.92589 1.53712 0
M  V30 6438 C 887.391 -6.9454 2.18503 0
M  V30 6439 H 887.423 -7.23063 1.12091 0
M  V30 6440 H 888.606 -5.6025 3.37201 0
M  V30 6441 H 890.09 -7.35707 4.02681 0
M  V30 6442 H 888.396 -9.40912 3.9095 0
M  V30 6443 H 888.206 -8.29056 5.99158 0
M  V30 6444 H 886.576 -8.10073 5.25882 0
M  V30 6445 H 889.215 -6.30324 0.726794 0
M  V30 6446 P 891.072 -8.4349 2.47671 0
M  V30 6447 O 892.494 -8.94167 2.5964 0
M  V30 6448 O 890.712 -7.1704 3.19006 0
M  V30 6449 O 890.749 -8.16596 0.923387 0
M  V30 6450 C 890.589 -9.38437 0.108857 0
M  V30 6451 C 891.129 -9.08175 -1.28353 0
M  V30 6452 O 890.073 -8.44229 -1.84713 0
M  V30 6453 C 892.347 -8.18386 -1.42505 0
M  V30 6454 O 893.085 -8.3501 -2.60497 0
M  V30 6455 C 891.678 -6.80225 -1.25468 0
M  V30 6456 O 892.477 -5.81621 -1.91066 0
M  V30 6457 C 890.341 -7.02416 -1.9168 0
M  V30 6458 H 890.373 -6.6888 -2.96621 0
M  V30 6459 H 891.556 -6.53617 -0.192223 0
M  V30 6460 H 893.04 -8.36622 -0.589963 0
M  V30 6461 H 891.346 -10.0291 -1.79807 0
M  V30 6462 H 891.156 -10.2138 0.558219 0
M  V30 6463 H 889.526 -9.6579 0.0444202 0
M  V30 6464 H 892.165 -5.69556 -2.79637 0
M  V30 6465 P 894.023 -8.4349 -2.47671 0
M  V30 6466 O 895.445 -8.92593 -2.65 0
M  V30 6467 O 893.663 -7.7568 -1.19296 0
M  V30 6468 O 893.7 -7.36886 -3.63805 0
M  V30 6469 C 893.54 -7.95349 -4.982 0
M  V30 6470 C 894.08 -6.94612 -5.98974 0
M  V30 6471 O 893.024 -6.10347 -6.11815 0
M  V30 6472 C 895.298 -6.11426 -5.62335 0
M  V30 6473 O 896.036 -5.6162 -6.70584 0
M  V30 6474 C 894.629 -5.04409 -4.73308 0
M  V30 6475 O 895.428 -3.85992 -4.75183 0
M  V30 6476 C 893.292 -4.8728 -5.41006 0
M  V30 6477 H 893.324 -4.02333 -6.11157 0
M  V30 6478 H 894.507 -5.39466 -3.69543 0
M  V30 6479 H 895.991 -6.71916 -5.01943 0
M  V30 6480 H 894.297 -7.4649 -6.93477 0
M  V30 6481 H 894.107 -8.89416 -5.05237 0
M  V30 6482 H 892.477 -8.14876 -5.18409 0
M  V30 6483 H 895.116 -3.27957 -5.4317 0
M  V30 6484 P 896.973 -5.75688 -6.64379 0
M  V30 6485 O 898.395 -6.07627 -7.05504 0
M  V30 6486 O 896.613 -5.88047 -5.19722 0
M  V30 6487 O 896.65 -4.2322 -7.04443 0
M  V30 6488 C 896.49 -3.99743 -8.4911 0
M  V30 6489 C 897.03 -2.60516 -8.79425 0
M  V30 6490 O 895.974 -1.82684 -8.4467 0
M  V30 6491 C 898.248 -2.10343 -8.03628 0
M  V30 6492 O 898.986 -1.09919 -8.67766 0
M  V30 6493 C 897.579 -1.68446 -6.70876 0
M  V30 6494 O 898.378 -0.678137 -6.08433 0
M  V30 6495 C 896.242 -1.17436 -7.18567 0
M  V30 6496 H 896.274 -0.0804732 -7.31656 0
M  V30 6497 H 897.457 -2.54037 -6.02537 0
M  V30 6498 H 898.941 -2.93881 -7.85526 0
M  V30 6499 H 897.247 -2.53065 -9.86973 0
M  V30 6500 H 897.057 -4.75072 -9.05887 0
M  V30 6501 H 895.427 -4.05244 -8.76668 0
M  V30 6502 H 898.066 0.177647 -6.34251 0
M  V30 6503 P 899.924 -1.25109 -8.70152 0
M  V30 6504 O 901.346 -1.29744 -9.22016 0
M  V30 6505 O 899.564 -2.13714 -7.55141 0
M  V30 6506 O 899.601 0.248149 -8.21425 0
M  V30 6507 C 899.441 1.22779 -9.30434 0
M  V30 6508 C 899.981 2.56293 -8.80664 0
M  V30 6509 O 898.925 3.02979 -8.09349 0
M  V30 6510 C 901.199 2.57523 -7.89775 0
M  V30 6511 O 901.937 3.7668 -7.89438 0
M  V30 6512 C 900.53 2.20997 -6.55446 0
M  V30 6513 O 901.329 2.71895 -5.48509 0
M  V30 6514 C 899.193 2.89693 -6.67988 0
M  V30 6515 H 899.225 3.88793 -6.19859 0
M  V30 6516 H 900.408 1.12046 -6.44229 0
M  V30 6517 H 901.892 1.7746 -8.19711 0
M  V30 6518 H 900.198 3.20706 -9.67112 0
M  V30 6519 H 900.008 0.901032 -10.1892 0
M  V30 6520 H 898.378 1.33049 -9.56592 0
M  V30 6521 H 901.017 3.57847 -5.23962 0
M  V30 6522 P 902.874 3.65191 -7.99657 0
M  V30 6523 O 904.295 3.89374 -8.45885 0
M  V30 6524 O 902.514 2.28472 -7.50807 0
M  V30 6525 O 902.551 4.64972 -6.77611 0
M  V30 6526 C 902.39 6.06383 -7.16428 0
M  V30 6527 C 902.931 6.91731 -6.02299 0
M  V30 6528 O 901.876 6.92369 -5.17005 0
M  V30 6529 C 904.149 6.43627 -5.25174 0
M  V30 6530 O 904.887 7.43686 -4.60469 0
M  V30 6531 C 903.481 5.40275 -4.31916 0
M  V30 6532 O 904.279 5.24878 -3.14911 0
M  V30 6533 C 902.143 6.04847 -4.05327 0
M  V30 6534 N 901.1 5.04166 -3.98114 0
M  V30 6535 C 901.269 3.84629 -4.59066 0
M  V30 6536 N 900.242 3.0363 -4.45343 0
M  V30 6537 C 899.357 3.76722 -3.68523 0
M  V30 6538 C 898.09 3.43528 -3.17088 0
M  V30 6539 N 897.525 4.44526 -2.44231 0
M  V30 6540 C 898.127 5.65243 -2.20146 0
M  V30 6541 N 899.304 6.00221 -2.65453 0
M  V30 6542 C 899.879 5.00564 -3.39083 0
M  V30 6543 H 903.358 4.42969 -4.80867 0
M  V30 6544 H 904.841 5.92458 -5.93643 0
M  V30 6545 H 903.147 7.93295 -6.39407 0
M  V30 6546 H 902.957 6.26671 -8.0846 0
M  V30 6547 H 901.327 6.29101 -7.32804 0
M  V30 6548 H 902.169 3.58193 -5.14248 0
M  V30 6549 H 903.967 5.84223 -2.47279 0
M  V30 6550 P 905.825 7.39546 -4.75277 0
M  V30 6551 O 907.247 7.84798 -5.01039 0
M  V30 6552 O 905.465 5.9812 -5.08098 0
M  V30 6553 O 905.502 7.57503 -3.1866 0
M  V30 6554 C 905.342 8.97357 -2.74833 0
M  V30 6555 C 905.882 9.07548 -1.32709 0
M  V30 6556 O 904.826 8.62072 -0.606159 0
M  V30 6557 C 907.1 8.25383 -0.938334 0
M  V30 6558 O 907.838 8.74577 0.146954 0
M  V30 6559 C 906.431 6.8802 -0.712559 0
M  V30 6560 O 907.23 6.1189 0.194655 0
M  V30 6561 C 905.094 7.27966 -0.139777 0
M  V30 6562 H 905.126 7.25354 0.961601 0
M  V30 6563 H 906.309 6.32557 -1.65702 0
M  V30 6564 H 907.793 8.19355 -1.79097 0
M  V30 6565 H 906.099 10.1294 -1.10029 0
M  V30 6566 H 905.909 9.64276 -3.41316 0
M  V30 6567 H 904.279 9.25417 -2.76357 0
M  V30 6568 H 906.918 6.25267 1.07847 0
M  V30 6569 P 908.776 8.791 6.93566e-12 0
M  V30 6570 O 910.198 9.31096 0.027933 0
M  V30 6571 O 908.416 7.77869 -1.04071 0
M  V30 6572 O 908.453 8.09533 1.41463 0
M  V30 6573 C 908.293 9.0349 2.53943 0
M  V30 6574 C 908.833 8.35226 3.79016 0
M  V30 6575 O 907.777 7.57992 4.15078 0
M  V30 6576 C 910.051 7.45087 3.67298 0
M  V30 6577 O 910.789 7.27796 4.85194 0
M  V30 6578 C 909.382 6.17323 3.12027 0
M  V30 6579 O 910.181 5.04231 3.47188 0
M  V30 6580 C 908.045 6.19961 3.81809 0
M  V30 6581 H 908.077 5.58218 4.73051 0
M  V30 6582 H 909.26 6.21726 2.02589 0
M  V30 6583 H 910.744 7.86112 2.9231 0
M  V30 6584 H 909.05 9.11627 4.55076 0
M  V30 6585 H 908.86 9.9573 2.34194 0
M  V30 6586 H 907.23 9.2792 2.67832 0
M  V30 6587 H 909.869 4.67702 4.28772 0
M  V30 6588 P 911.726 7.39546 4.75277 0
M  V30 6589 O 913.148 7.81777 5.05738 0
M  V30 6590 O 911.366 7.1065 3.32998 0
M  V30 6591 O 911.403 6.04542 5.56673 0
M  V30 6592 C 911.243 6.22772 7.02095 0
M  V30 6593 C 911.783 4.97725 7.70406 0
M  V30 6594 O 910.727 4.13256 7.58987 0
M  V30 6595 C 913.001 4.28231 7.11815 0
M  V30 6596 O 913.739 3.49945 8.01648 0
M  V30 6597 C 912.332 3.5063 5.96244 0
M  V30 6598 O 913.131 2.36482 5.64681 0
M  V30 6599 C 910.995 3.15122 6.56374 0
M  V30 6600 H 911.027 2.13853 6.99751 0
M  V30 6601 H 912.21 4.13501 5.06559 0
M  V30 6602 H 913.694 5.03285 6.70911 0
M  V30 6603 H 912 5.20877 8.75697 0
M  V30 6604 H 911.81 7.11046 7.35349 0
M  V30 6605 H 910.18 6.35815 7.26986 0
M  V30 6606 H 912.819 1.61644 6.13565 0
M  V30 6607 P 914.677 3.65191 7.99657 0
M  V30 6608 O 916.099 3.8425 8.48115 0
M  V30 6609 O 914.317 4.17805 6.64342 0
M  V30 6610 O 914.354 2.07613 7.95143 0
M  V30 6611 C 914.194 1.44328 9.27336 0
M  V30 6612 C 914.734 0.0220036 9.17197 0
M  V30 6613 O 913.678 -0.626867 8.61923 0
M  V30 6614 C 915.952 -0.24586 8.30336 0
M  V30 6615 O 916.69 -1.39011 8.63583 0
M  V30 6616 C 915.283 -0.273849 6.91158 0
M  V30 6617 O 916.082 -1.06348 6.02892 0
M  V30 6618 C 913.946 -0.897649 7.22545 0
M  V30 6619 H 913.978 -1.9841 7.04286 0
M  V30 6620 H 915.161 0.739928 6.497 0
M  V30 6621 H 916.645 0.60668 8.36503 0
M  V30 6622 H 914.951 -0.352479 10.1829 0
M  V30 6623 H 914.761 2.00611 10.0304 0
M  V30 6624 H 913.131 1.41843 9.55327 0
M  V30 6625 H 915.77 -1.95734 6.03555 0
M  V30 6626 P 917.627 -1.25109 8.70152 0
M  V30 6627 O 919.049 -1.35274 9.21221 0
M  V30 6628 O 917.267 -0.0769065 7.84762 0
M  V30 6629 O 917.304 -2.55232 7.81161 0
M  V30 6630 C 917.144 -3.79939 8.58154 0
M  V30 6631 C 917.684 -4.94023 7.72785 0
M  V30 6632 O 916.628 -5.18726 6.91205 0
M  V30 6633 C 918.902 -4.69597 6.85231 0
M  V30 6634 O 919.64 -5.83832 6.51337 0
M  V30 6635 C 918.233 -3.96706 5.66633 0
M  V30 6636 O 919.032 -4.15414 4.49689 0
M  V30 6637 C 916.896 -4.66153 5.59313 0
M  V30 6638 H 916.928 -5.47679 4.85214 0
M  V30 6639 H 918.111 -2.89008 5.86566 0
M  V30 6640 H 919.595 -4.0121 7.36511 0
M  V30 6641 H 917.901 -5.80182 8.37584 0
M  V30 6642 H 917.711 -3.73517 9.52265 0
M  V30 6643 H 916.081 -3.97163 8.80359 0
M  V30 6644 H 918.72 -4.90969 4.01921 0
M  V30 6645 P 920.578 -5.75688 6.64379 0
M  V30 6646 O 922 -6.11849 7.01846 0
M  V30 6647 O 920.218 -4.30744 6.56026 0
M  V30 6648 O 920.255 -6.37042 5.19165 0
M  V30 6649 C 920.095 -7.83578 5.16515 0
M  V30 6650 C 920.635 -8.33398 3.83019 0
M  V30 6651 O 919.579 -8.10074 3.01034 0
M  V30 6652 C 921.853 -7.65514 3.2257 0
M  V30 6653 O 922.591 -8.4329 2.32297 0
M  V30 6654 C 921.184 -6.40075 2.62207 0
M  V30 6655 O 921.983 -5.92589 1.53712 0
M  V30 6656 C 919.847 -6.9454 2.18503 0
M  V30 6657 H 919.879 -7.23063 1.12091 0
M  V30 6658 H 921.062 -5.6025 3.37201 0
M  V30 6659 H 922.546 -7.35707 4.02681 0
M  V30 6660 H 920.852 -9.40912 3.9095 0
M  V30 6661 H 920.662 -8.29056 5.99158 0
M  V30 6662 H 919.032 -8.10073 5.25882 0
M  V30 6663 H 921.671 -6.30324 0.726794 0
M  V30 6664 P 923.528 -8.4349 2.47671 0
M  V30 6665 O 924.95 -8.94167 2.5964 0
M  V30 6666 O 923.168 -7.1704 3.19006 0
M  V30 6667 O 923.205 -8.16596 0.923387 0
M  V30 6668 C 923.045 -9.38437 0.108857 0
M  V30 6669 C 923.585 -9.08175 -1.28353 0
M  V30 6670 O 922.529 -8.44229 -1.84713 0
M  V30 6671 C 924.803 -8.18386 -1.42505 0
M  V30 6672 O 925.541 -8.3501 -2.60497 0
M  V30 6673 C 924.134 -6.80225 -1.25468 0
M  V30 6674 O 924.933 -5.81621 -1.91066 0
M  V30 6675 C 922.797 -7.02416 -1.9168 0
M  V30 6676 H 922.829 -6.6888 -2.96621 0
M  V30 6677 H 924.012 -6.53617 -0.192223 0
M  V30 6678 H 925.496 -8.36622 -0.589963 0
M  V30 6679 H 923.802 -10.0291 -1.79807 0
M  V30 6680 H 923.612 -10.2138 0.558219 0
M  V30 6681 H 921.982 -9.6579 0.0444202 0
M  V30 6682 H 924.621 -5.69556 -2.79637 0
M  V30 6683 P 926.479 -8.4349 -2.47671 0
M  V30 6684 O 927.9 -8.92689 -2.65029 0
M  V30 6685 O 926.119 -7.7568 -1.19296 0
M  V30 6686 O 926.156 -7.36886 -3.63805 0
M  V30 6687 C 925.995 -7.95433 -4.98253 0
M  V30 6688 C 926.536 -6.94612 -5.98974 0
M  V30 6689 O 925.481 -6.10277 -6.11744 0
M  V30 6690 C 927.754 -6.11426 -5.62335 0
M  V30 6691 O 928.492 -5.6162 -6.70584 0
M  V30 6692 C 927.086 -5.04409 -4.73308 0
M  V30 6693 O 927.884 -3.86404 -4.74719 0
M  V30 6694 C 925.748 -4.8728 -5.41006 0
M  V30 6695 N 924.705 -4.65812 -4.42377 0
M  V30 6696 C 924.874 -5.09132 -3.15382 0
M  V30 6697 N 923.847 -4.84021 -2.3716 0
M  V30 6698 C 922.962 -4.18386 -3.20441 0
M  V30 6699 C 921.695 -3.6275 -2.94905 0
M  V30 6700 N 921.096 -3.65794 -1.73372 0
M  V30 6701 N 921.13 -3.05008 -4.05243 0
M  V30 6702 C 921.732 -2.98348 -5.28159 0
M  V30 6703 N 922.909 -3.48171 -5.56333 0
M  V30 6704 C 923.484 -4.06869 -4.47212 0
M  V30 6705 H 925.78 -4.02278 -6.11074 0
M  V30 6706 H 926.963 -5.39013 -3.70026 0
M  V30 6707 H 928.446 -6.71916 -5.01943 0
M  V30 6708 H 926.752 -7.45796 -6.94223 0
M  V30 6709 H 926.562 -8.89416 -5.05237 0
M  V30 6710 H 924.932 -8.14876 -5.18409 0
M  V30 6711 H 921.196 -2.47853 -6.07807 0
M  V30 6712 H 925.774 -5.59989 -2.81362 0
M  V30 6713 H 920.166 -3.23218 -1.60782 0
M  V30 6714 H 921.57 -4.10523 -0.937856 0
M  V30 6715 H 927.572 -3.27906 -5.43085 0
M  V30 6716 P 929.43 -5.75688 -6.64379 0
M  V30 6717 O 930.852 -6.07627 -7.05504 0
M  V30 6718 O 929.07 -5.88047 -5.19722 0
M  V30 6719 O 929.107 -4.2322 -7.04443 0
M  V30 6720 C 928.947 -3.99743 -8.4911 0
M  V30 6721 C 929.487 -2.60516 -8.79425 0
M  V30 6722 O 928.431 -1.82684 -8.4467 0
M  V30 6723 C 930.705 -2.10343 -8.03628 0
M  V30 6724 O 931.443 -1.09919 -8.67766 0
M  V30 6725 C 930.036 -1.68446 -6.70876 0
M  V30 6726 O 930.835 -0.678137 -6.08433 0
M  V30 6727 C 928.699 -1.17436 -7.18567 0
M  V30 6728 H 928.731 -0.0804732 -7.31656 0
M  V30 6729 H 929.914 -2.54037 -6.02537 0
M  V30 6730 H 931.398 -2.93881 -7.85526 0
M  V30 6731 H 929.704 -2.53065 -9.86973 0
M  V30 6732 H 929.514 -4.75072 -9.05887 0
M  V30 6733 H 927.884 -4.05244 -8.76668 0
M  V30 6734 H 930.523 0.177647 -6.34251 0
M  V30 6735 P 932.38 -1.25109 -8.70152 0
M  V30 6736 O 933.802 -1.29744 -9.22016 0
M  V30 6737 O 932.02 -2.13714 -7.55141 0
M  V30 6738 O 932.057 0.248149 -8.21425 0
M  V30 6739 C 931.897 1.22779 -9.30434 0
M  V30 6740 C 932.437 2.56293 -8.80664 0
M  V30 6741 O 931.381 3.02979 -8.09349 0
M  V30 6742 C 933.655 2.57523 -7.89775 0
M  V30 6743 O 934.393 3.7668 -7.89438 0
M  V30 6744 C 932.986 2.20997 -6.55446 0
M  V30 6745 O 933.785 2.71895 -5.48509 0
M  V30 6746 C 931.649 2.89693 -6.67988 0
M  V30 6747 H 931.681 3.88793 -6.19859 0
M  V30 6748 H 932.864 1.12046 -6.44229 0
M  V30 6749 H 934.348 1.7746 -8.19711 0
M  V30 6750 H 932.654 3.20706 -9.67112 0
M  V30 6751 H 932.464 0.901032 -10.1892 0
M  V30 6752 H 930.834 1.33049 -9.56592 0
M  V30 6753 H 933.473 3.57847 -5.23962 0
M  V30 6754 P 935.331 3.65191 -7.99657 0
M  V30 6755 O 936.753 3.89332 -8.45794 0
M  V30 6756 O 934.971 2.28472 -7.50807 0
M  V30 6757 O 935.008 4.64972 -6.77611 0
M  V30 6758 C 934.848 6.06319 -7.16352 0
M  V30 6759 C 935.388 6.91731 -6.02299 0
M  V30 6760 O 934.332 6.92449 -5.17064 0
M  V30 6761 C 936.606 6.43627 -5.25174 0
M  V30 6762 O 937.344 7.43686 -4.60469 0
M  V30 6763 C 935.937 5.40275 -4.31916 0
M  V30 6764 O 936.736 5.25279 -3.14438 0
M  V30 6765 C 934.6 6.04847 -4.05327 0
M  V30 6766 H 934.632 6.62195 -3.11261 0
M  V30 6767 H 935.815 4.42556 -4.81383 0
M  V30 6768 H 937.299 5.92458 -5.93643 0
M  V30 6769 H 935.605 7.92655 -6.402 0
M  V30 6770 H 935.415 6.26671 -8.0846 0
M  V30 6771 H 933.785 6.29101 -7.32804 0
M  V30 6772 H 936.424 5.84315 -2.47318 0
M  V30 6773 P 938.281 7.39546 -4.75277 0
M  V30 6774 O 939.703 7.84798 -5.01039 0
M  V30 6775 O 937.921 5.9812 -5.08098 0
M  V30 6776 O 937.958 7.57503 -3.1866 0
M  V30 6777 C 937.798 8.97357 -2.74833 0
M  V30 6778 C 938.338 9.07548 -1.32709 0
M  V30 6779 O 937.282 8.62072 -0.606159 0
M  V30 6780 C 939.556 8.25383 -0.938334 0
M  V30 6781 O 940.294 8.74577 0.146954 0
M  V30 6782 C 938.887 6.8802 -0.712559 0
M  V30 6783 O 939.686 6.1189 0.194655 0
M  V30 6784 C 937.55 7.27966 -0.139777 0
M  V30 6785 H 937.582 7.25354 0.961601 0
M  V30 6786 H 938.765 6.32557 -1.65702 0
M  V30 6787 H 940.249 8.19355 -1.79097 0
M  V30 6788 H 938.555 10.1294 -1.10029 0
M  V30 6789 H 938.365 9.64276 -3.41316 0
M  V30 6790 H 936.735 9.25417 -2.76357 0
M  V30 6791 H 939.374 6.25267 1.07847 0
M  V30 6792 P 941.232 8.791 7.24582e-12 0
M  V30 6793 O 942.654 9.31096 0.027933 0
M  V30 6794 O 940.872 7.77869 -1.04071 0
M  V30 6795 O 940.909 8.09533 1.41463 0
M  V30 6796 C 940.749 9.0349 2.53943 0
M  V30 6797 C 941.289 8.35226 3.79016 0
M  V30 6798 O 940.233 7.57992 4.15078 0
M  V30 6799 C 942.507 7.45087 3.67298 0
M  V30 6800 O 943.245 7.27796 4.85194 0
M  V30 6801 C 941.838 6.17323 3.12027 0
M  V30 6802 O 942.637 5.04231 3.47188 0
M  V30 6803 C 940.501 6.19961 3.81809 0
M  V30 6804 H 940.533 5.58218 4.73051 0
M  V30 6805 H 941.716 6.21726 2.02589 0
M  V30 6806 H 943.2 7.86112 2.9231 0
M  V30 6807 H 941.506 9.11627 4.55076 0
M  V30 6808 H 941.316 9.9573 2.34194 0
M  V30 6809 H 939.686 9.2792 2.67832 0
M  V30 6810 H 942.325 4.67702 4.28772 0
M  V30 6811 P 944.182 7.39546 4.75277 0
M  V30 6812 O 945.604 7.81777 5.05738 0
M  V30 6813 O 943.822 7.1065 3.32998 0
M  V30 6814 O 943.859 6.04542 5.56673 0
M  V30 6815 C 943.699 6.22772 7.02095 0
M  V30 6816 C 944.239 4.97725 7.70406 0
M  V30 6817 O 943.183 4.13256 7.58987 0
M  V30 6818 C 945.457 4.28231 7.11815 0
M  V30 6819 O 946.195 3.49945 8.01648 0
M  V30 6820 C 944.788 3.5063 5.96244 0
M  V30 6821 O 945.587 2.36482 5.64681 0
M  V30 6822 C 943.451 3.15122 6.56374 0
M  V30 6823 H 943.483 2.13853 6.99751 0
M  V30 6824 H 944.666 4.13501 5.06559 0
M  V30 6825 H 946.15 5.03285 6.70911 0
M  V30 6826 H 944.456 5.20877 8.75697 0
M  V30 6827 H 944.266 7.11046 7.35349 0
M  V30 6828 H 942.636 6.35815 7.26986 0
M  V30 6829 H 945.275 1.61644 6.13565 0
M  V30 6830 P 947.133 3.65191 7.99657 0
M  V30 6831 O 948.555 3.8425 8.48115 0
M  V30 6832 O 946.773 4.17805 6.64342 0
M  V30 6833 O 946.81 2.07613 7.95143 0
M  V30 6834 C 946.65 1.44328 9.27336 0
M  V30 6835 C 947.19 0.0220036 9.17197 0
M  V30 6836 O 946.134 -0.626867 8.61923 0
M  V30 6837 C 948.408 -0.24586 8.30336 0
M  V30 6838 O 949.146 -1.39011 8.63583 0
M  V30 6839 C 947.739 -0.273849 6.91158 0
M  V30 6840 O 948.538 -1.06348 6.02892 0
M  V30 6841 C 946.402 -0.897649 7.22545 0
M  V30 6842 H 946.434 -1.9841 7.04286 0
M  V30 6843 H 947.617 0.739928 6.497 0
M  V30 6844 H 949.101 0.60668 8.36503 0
M  V30 6845 H 947.407 -0.352479 10.1829 0
M  V30 6846 H 947.217 2.00611 10.0304 0
M  V30 6847 H 945.587 1.41843 9.55327 0
M  V30 6848 H 948.226 -1.95734 6.03555 0
M  V30 6849 P 950.084 -1.25109 8.70152 0
M  V30 6850 O 951.506 -1.35274 9.21221 0
M  V30 6851 O 949.724 -0.0769065 7.84762 0
M  V30 6852 O 949.761 -2.55232 7.81161 0
M  V30 6853 C 949.601 -3.79939 8.58154 0
M  V30 6854 C 950.141 -4.94023 7.72785 0
M  V30 6855 O 949.085 -5.18726 6.91205 0
M  V30 6856 C 951.359 -4.69597 6.85231 0
M  V30 6857 O 952.097 -5.83832 6.51337 0
M  V30 6858 C 950.69 -3.96706 5.66633 0
M  V30 6859 O 951.489 -4.15414 4.49689 0
M  V30 6860 C 949.353 -4.66153 5.59313 0
M  V30 6861 H 949.385 -5.47679 4.85214 0
M  V30 6862 H 950.568 -2.89008 5.86566 0
M  V30 6863 H 952.052 -4.0121 7.36511 0
M  V30 6864 H 950.358 -5.80182 8.37584 0
M  V30 6865 H 950.168 -3.73517 9.52265 0
M  V30 6866 H 948.538 -3.97163 8.80359 0
M  V30 6867 H 951.177 -4.90969 4.01921 0
M  V30 6868 P 953.034 -5.75688 6.64379 0
M  V30 6869 O 954.456 -6.11849 7.01846 0
M  V30 6870 O 952.674 -4.30744 6.56026 0
M  V30 6871 O 952.711 -6.37042 5.19165 0
M  V30 6872 C 952.551 -7.83578 5.16515 0
M  V30 6873 C 953.091 -8.33398 3.83019 0
M  V30 6874 O 952.035 -8.10074 3.01034 0
M  V30 6875 C 954.309 -7.65514 3.2257 0
M  V30 6876 O 955.047 -8.4329 2.32297 0
M  V30 6877 C 953.64 -6.40075 2.62207 0
M  V30 6878 O 954.439 -5.92589 1.53712 0
M  V30 6879 C 952.303 -6.9454 2.18503 0
M  V30 6880 H 952.335 -7.23063 1.12091 0
M  V30 6881 H 953.518 -5.6025 3.37201 0
M  V30 6882 H 955.002 -7.35707 4.02681 0
M  V30 6883 H 953.308 -9.40912 3.9095 0
M  V30 6884 H 953.118 -8.29056 5.99158 0
M  V30 6885 H 951.488 -8.10073 5.25882 0
M  V30 6886 H 954.127 -6.30324 0.726794 0
M  V30 6887 P 955.985 -8.4349 2.47671 0
M  V30 6888 O 957.407 -8.94167 2.5964 0
M  V30 6889 O 955.625 -7.1704 3.19006 0
M  V30 6890 O 955.662 -8.16596 0.923387 0
M  V30 6891 C 955.502 -9.38437 0.108857 0
M  V30 6892 C 956.042 -9.08175 -1.28353 0
M  V30 6893 O 954.986 -8.44229 -1.84713 0
M  V30 6894 C 957.26 -8.18386 -1.42505 0
M  V30 6895 O 957.998 -8.3501 -2.60497 0
M  V30 6896 C 956.591 -6.80225 -1.25468 0
M  V30 6897 O 957.39 -5.81621 -1.91066 0
M  V30 6898 C 955.254 -7.02416 -1.9168 0
M  V30 6899 H 955.286 -6.6888 -2.96621 0
M  V30 6900 H 956.469 -6.53617 -0.192223 0
M  V30 6901 H 957.953 -8.36622 -0.589963 0
M  V30 6902 H 956.259 -10.0291 -1.79807 0
M  V30 6903 H 956.069 -10.2138 0.558219 0
M  V30 6904 H 954.439 -9.6579 0.0444202 0
M  V30 6905 H 957.078 -5.69556 -2.79637 0
M  V30 6906 P 958.935 -8.4349 -2.47671 0
M  V30 6907 O 960.357 -8.92593 -2.65 0
M  V30 6908 O 958.575 -7.7568 -1.19296 0
M  V30 6909 O 958.612 -7.36886 -3.63805 0
M  V30 6910 C 958.452 -7.95349 -4.982 0
M  V30 6911 C 958.992 -6.94612 -5.98974 0
M  V30 6912 O 957.936 -6.10347 -6.11815 0
M  V30 6913 C 960.21 -6.11426 -5.62335 0
M  V30 6914 O 960.948 -5.6162 -6.70584 0
M  V30 6915 C 959.541 -5.04409 -4.73308 0
M  V30 6916 O 960.34 -3.85992 -4.75183 0
M  V30 6917 C 958.204 -4.8728 -5.41006 0
M  V30 6918 H 958.236 -4.02333 -6.11157 0
M  V30 6919 H 959.419 -5.39466 -3.69543 0
M  V30 6920 H 960.903 -6.71916 -5.01943 0
M  V30 6921 H 959.209 -7.4649 -6.93477 0
M  V30 6922 H 959.019 -8.89416 -5.05237 0
M  V30 6923 H 957.389 -8.14876 -5.18409 0
M  V30 6924 H 960.028 -3.27957 -5.4317 0
M  V30 6925 P 961.886 -5.75688 -6.64379 0
M  V30 6926 O 963.308 -6.07627 -7.05504 0
M  V30 6927 O 961.526 -5.88047 -5.19722 0
M  V30 6928 O 961.563 -4.2322 -7.04443 0
M  V30 6929 C 961.403 -3.99743 -8.4911 0
M  V30 6930 C 961.943 -2.60516 -8.79425 0
M  V30 6931 O 960.887 -1.82684 -8.4467 0
M  V30 6932 C 963.161 -2.10343 -8.03628 0
M  V30 6933 O 963.899 -1.09919 -8.67766 0
M  V30 6934 C 962.492 -1.68446 -6.70876 0
M  V30 6935 O 963.291 -0.678137 -6.08433 0
M  V30 6936 C 961.155 -1.17436 -7.18567 0
M  V30 6937 H 961.187 -0.0804732 -7.31656 0
M  V30 6938 H 962.37 -2.54037 -6.02537 0
M  V30 6939 H 963.854 -2.93881 -7.85526 0
M  V30 6940 H 962.16 -2.53065 -9.86973 0
M  V30 6941 H 961.97 -4.75072 -9.05887 0
M  V30 6942 H 960.34 -4.05244 -8.76668 0
M  V30 6943 H 962.979 0.177647 -6.34251 0
M  V30 6944 P 964.836 -1.25109 -8.70152 0
M  V30 6945 O 966.258 -1.29744 -9.22016 0
M  V30 6946 O 964.476 -2.13714 -7.55141 0
M  V30 6947 O 964.513 0.248149 -8.21425 0
M  V30 6948 C 964.353 1.22779 -9.30434 0
M  V30 6949 C 964.893 2.56293 -8.80664 0
M  V30 6950 O 963.837 3.02979 -8.09349 0
M  V30 6951 C 966.111 2.57523 -7.89775 0
M  V30 6952 O 966.849 3.7668 -7.89438 0
M  V30 6953 C 965.442 2.20997 -6.55446 0
M  V30 6954 O 966.241 2.71895 -5.48509 0
M  V30 6955 C 964.105 2.89693 -6.67988 0
M  V30 6956 H 964.137 3.88793 -6.19859 0
M  V30 6957 H 965.32 1.12046 -6.44229 0
M  V30 6958 H 966.804 1.7746 -8.19711 0
M  V30 6959 H 965.11 3.20706 -9.67112 0
M  V30 6960 H 964.92 0.901032 -10.1892 0
M  V30 6961 H 963.29 1.33049 -9.56592 0
M  V30 6962 H 965.929 3.57847 -5.23962 0
M  V30 6963 P 967.787 3.65191 -7.99657 0
M  V30 6964 O 969.209 3.89332 -8.45794 0
M  V30 6965 O 967.427 2.28472 -7.50807 0
M  V30 6966 O 967.464 4.64972 -6.77611 0
M  V30 6967 C 967.304 6.06319 -7.16352 0
M  V30 6968 C 967.844 6.91731 -6.02299 0
M  V30 6969 O 966.788 6.92449 -5.17064 0
M  V30 6970 C 969.062 6.43627 -5.25174 0
M  V30 6971 O 969.8 7.43686 -4.60469 0
M  V30 6972 C 968.393 5.40275 -4.31916 0
M  V30 6973 O 969.192 5.25279 -3.14438 0
M  V30 6974 C 967.056 6.04847 -4.05327 0
M  V30 6975 H 967.088 6.62195 -3.11261 0
M  V30 6976 H 968.271 4.42556 -4.81383 0
M  V30 6977 H 969.755 5.92458 -5.93643 0
M  V30 6978 H 968.061 7.92655 -6.402 0
M  V30 6979 H 967.871 6.26671 -8.0846 0
M  V30 6980 H 966.241 6.29101 -7.32804 0
M  V30 6981 H 968.88 5.84315 -2.47318 0
M  V30 6982 P 970.738 7.39546 -4.75277 0
M  V30 6983 O 972.159 7.84882 -5.01092 0
M  V30 6984 O 970.378 5.9812 -5.08098 0
M  V30 6985 O 970.415 7.57503 -3.1866 0
M  V30 6986 C 970.254 8.97452 -2.74862 0
M  V30 6987 C 970.795 9.07548 -1.32709 0
M  V30 6988 O 969.74 8.61972 -0.606089 0
M  V30 6989 C 972.013 8.25383 -0.938334 0
M  V30 6990 O 972.751 8.74577 0.146954 0
M  V30 6991 C 971.345 6.8802 -0.712559 0
M  V30 6992 O 972.143 6.1181 0.188505 0
M  V30 6993 C 970.007 7.27966 -0.139777 0
M  V30 6994 N 968.964 6.39368 -0.623421 0
M  V30 6995 C 969.133 5.71761 -1.78245 0
M  V30 6996 N 968.106 4.962 -2.10491 0
M  V30 6997 C 967.221 5.16158 -1.0635 0
M  V30 6998 C 965.954 4.60425 -0.810266 0
M  V30 6999 N 965.389 5.06 0.348685 0
M  V30 7000 C 965.991 5.94532 1.20395 0
M  V30 7001 N 967.168 6.48452 1.01191 0
M  V30 7002 C 967.743 6.04423 -0.146291 0
M  V30 7003 H 971.222 6.32625 -1.65044 0
M  V30 7004 H 972.705 8.19355 -1.79097 0
M  V30 7005 H 971.011 10.1305 -1.09016 0
M  V30 7006 H 970.821 9.64276 -3.41316 0
M  V30 7007 H 969.191 9.25417 -2.76357 0
M  V30 7008 H 970.033 5.79354 -2.38959 0
M  V30 7009 H 971.831 6.25169 1.0783 0
M  V30 7010 P 973.688 8.791 7.55599e-12 0
M  V30 7011 O 975.109 9.31196 0.027936 0
M  V30 7012 O 973.328 7.77869 -1.04071 0
M  V30 7013 O 973.365 8.09533 1.41463 0
M  V30 7014 C 973.204 9.03587 2.5397 0
M  V30 7015 C 973.745 8.35226 3.79016 0
M  V30 7016 O 972.69 7.57904 4.1503 0
M  V30 7017 C 974.963 7.45087 3.67298 0
M  V30 7018 O 975.701 7.27796 4.85194 0
M  V30 7019 C 974.295 6.17323 3.12027 0
M  V30 7020 O 975.093 5.04496 3.46627 0
M  V30 7021 C 972.957 6.19961 3.81809 0
M  V30 7022 N 971.914 5.71575 2.93223 0
M  V30 7023 C 972.083 5.77362 1.59168 0
M  V30 7024 N 971.056 5.3123 0.911893 0
M  V30 7025 C 970.171 4.91717 1.89588 0
M  V30 7026 C 968.904 4.3114 1.8076 0
M  V30 7027 N 968.305 3.99821 0.632928 0
M  V30 7028 N 968.339 4.06823 3.02898 0
M  V30 7029 C 968.941 4.35062 4.22711 0
M  V30 7030 N 970.118 4.90805 4.35707 0
M  V30 7031 C 970.693 5.16382 3.14469 0
M  V30 7032 H 972.989 5.58142 4.72986 0
M  V30 7033 H 974.172 6.21428 2.0318 0
M  V30 7034 H 975.655 7.86112 2.9231 0
M  V30 7035 H 973.961 9.11171 4.55987 0
M  V30 7036 H 973.771 9.9573 2.34194 0
M  V30 7037 H 972.141 9.2792 2.67832 0
M  V30 7038 H 968.405 4.09052 5.13359 0
M  V30 7039 H 972.983 6.16575 1.12198 0
M  V30 7040 H 967.375 3.55423 0.632085 0
M  V30 7041 H 968.779 4.20317 -0.256712 0
M  V30 7042 H 974.781 4.67628 4.28704 0
M  V30 7043 P 976.639 7.39546 4.75277 0
M  V30 7044 O 978.061 7.81777 5.05738 0
M  V30 7045 O 976.279 7.1065 3.32998 0
M  V30 7046 O 976.316 6.04542 5.56673 0
M  V30 7047 C 976.156 6.22772 7.02095 0
M  V30 7048 C 976.696 4.97725 7.70406 0
M  V30 7049 O 975.64 4.13256 7.58987 0
M  V30 7050 C 977.914 4.28231 7.11815 0
M  V30 7051 O 978.652 3.49945 8.01648 0
M  V30 7052 C 977.245 3.5063 5.96244 0
M  V30 7053 O 978.044 2.36482 5.64681 0
M  V30 7054 C 975.908 3.15122 6.56374 0
M  V30 7055 H 975.94 2.13853 6.99751 0
M  V30 7056 H 977.123 4.13501 5.06559 0
M  V30 7057 H 978.607 5.03285 6.70911 0
M  V30 7058 H 976.913 5.20877 8.75697 0
M  V30 7059 H 976.723 7.11046 7.35349 0
M  V30 7060 H 975.093 6.35815 7.26986 0
M  V30 7061 H 977.732 1.61644 6.13565 0
M  V30 7062 P 979.589 3.65191 7.99657 0
M  V30 7063 O 981.011 3.8425 8.48115 0
M  V30 7064 O 979.229 4.17805 6.64342 0
M  V30 7065 O 979.266 2.07613 7.95143 0
M  V30 7066 C 979.106 1.44328 9.27336 0
M  V30 7067 C 979.646 0.0220036 9.17197 0
M  V30 7068 O 978.59 -0.626867 8.61923 0
M  V30 7069 C 980.864 -0.24586 8.30336 0
M  V30 7070 O 981.602 -1.39011 8.63583 0
M  V30 7071 C 980.195 -0.273849 6.91158 0
M  V30 7072 O 980.994 -1.06348 6.02892 0
M  V30 7073 C 978.858 -0.897649 7.22545 0
M  V30 7074 H 978.89 -1.9841 7.04286 0
M  V30 7075 H 980.073 0.739928 6.497 0
M  V30 7076 H 981.557 0.60668 8.36503 0
M  V30 7077 H 979.863 -0.352479 10.1829 0
M  V30 7078 H 979.673 2.00611 10.0304 0
M  V30 7079 H 978.043 1.41843 9.55327 0
M  V30 7080 H 980.682 -1.95734 6.03555 0
M  V30 7081 P 982.54 -1.25109 8.70152 0
M  V30 7082 O 983.962 -1.35274 9.21221 0
M  V30 7083 O 982.18 -0.0769065 7.84762 0
M  V30 7084 O 982.217 -2.55232 7.81161 0
M  V30 7085 C 982.057 -3.79939 8.58154 0
M  V30 7086 C 982.597 -4.94023 7.72785 0
M  V30 7087 O 981.541 -5.18726 6.91205 0
M  V30 7088 C 983.815 -4.69597 6.85231 0
M  V30 7089 O 984.553 -5.83832 6.51337 0
M  V30 7090 C 983.146 -3.96706 5.66633 0
M  V30 7091 O 983.945 -4.15414 4.49689 0
M  V30 7092 C 981.809 -4.66153 5.59313 0
M  V30 7093 H 981.841 -5.47679 4.85214 0
M  V30 7094 H 983.024 -2.89008 5.86566 0
M  V30 7095 H 984.508 -4.0121 7.36511 0
M  V30 7096 H 982.814 -5.80182 8.37584 0
M  V30 7097 H 982.624 -3.73517 9.52265 0
M  V30 7098 H 980.994 -3.97163 8.80359 0
M  V30 7099 H 983.633 -4.90969 4.01921 0
M  V30 7100 P 985.49 -5.75688 6.64379 0
M  V30 7101 O 986.912 -6.11849 7.01846 0
M  V30 7102 O 985.13 -4.30744 6.56026 0
M  V30 7103 O 985.167 -6.37042 5.19165 0
M  V30 7104 C 985.007 -7.83578 5.16515 0
M  V30 7105 C 985.547 -8.33398 3.83019 0
M  V30 7106 O 984.491 -8.10074 3.01034 0
M  V30 7107 C 986.765 -7.65514 3.2257 0
M  V30 7108 O 987.503 -8.4329 2.32297 0
M  V30 7109 C 986.096 -6.40075 2.62207 0
M  V30 7110 O 986.895 -5.92589 1.53712 0
M  V30 7111 C 984.759 -6.9454 2.18503 0
M  V30 7112 H 984.791 -7.23063 1.12091 0
M  V30 7113 H 985.974 -5.6025 3.37201 0
M  V30 7114 H 987.458 -7.35707 4.02681 0
M  V30 7115 H 985.764 -9.40912 3.9095 0
M  V30 7116 H 985.574 -8.29056 5.99158 0
M  V30 7117 H 983.944 -8.10073 5.25882 0
M  V30 7118 H 986.583 -6.30324 0.726794 0
M  V30 7119 P 988.441 -8.4349 2.47671 0
M  V30 7120 O 989.863 -8.94167 2.5964 0
M  V30 7121 O 988.081 -7.1704 3.19006 0
M  V30 7122 O 988.118 -8.16596 0.923387 0
M  V30 7123 C 987.958 -9.38437 0.108857 0
M  V30 7124 C 988.498 -9.08175 -1.28353 0
M  V30 7125 O 987.442 -8.44229 -1.84713 0
M  V30 7126 C 989.716 -8.18386 -1.42505 0
M  V30 7127 O 990.454 -8.3501 -2.60497 0
M  V30 7128 C 989.047 -6.80225 -1.25468 0
M  V30 7129 O 989.846 -5.81621 -1.91066 0
M  V30 7130 C 987.71 -7.02416 -1.9168 0
M  V30 7131 H 987.742 -6.6888 -2.96621 0
M  V30 7132 H 988.925 -6.53617 -0.192223 0
M  V30 7133 H 990.409 -8.36622 -0.589963 0
M  V30 7134 H 988.715 -10.0291 -1.79807 0
M  V30 7135 H 988.525 -10.2138 0.558219 0
M  V30 7136 H 986.895 -9.6579 0.0444202 0
M  V30 7137 H 989.534 -5.69556 -2.79637 0
M  V30 7138 P 991.392 -8.4349 -2.47671 0
M  V30 7139 O 992.814 -8.92593 -2.65 0
M  V30 7140 O 991.032 -7.7568 -1.19296 0
M  V30 7141 O 991.069 -7.36886 -3.63805 0
M  V30 7142 C 990.909 -7.95349 -4.982 0
M  V30 7143 C 991.449 -6.94612 -5.98974 0
M  V30 7144 O 990.393 -6.10347 -6.11815 0
M  V30 7145 C 992.667 -6.11426 -5.62335 0
M  V30 7146 O 993.405 -5.6162 -6.70584 0
M  V30 7147 C 991.998 -5.04409 -4.73308 0
M  V30 7148 O 992.797 -3.85992 -4.75183 0
M  V30 7149 C 990.661 -4.8728 -5.41006 0
M  V30 7150 H 990.693 -4.02333 -6.11157 0
M  V30 7151 H 991.876 -5.39466 -3.69543 0
M  V30 7152 H 993.36 -6.71916 -5.01943 0
M  V30 7153 H 991.666 -7.4649 -6.93477 0
M  V30 7154 H 991.476 -8.89416 -5.05237 0
M  V30 7155 H 989.846 -8.14876 -5.18409 0
M  V30 7156 H 992.485 -3.27957 -5.4317 0
M  V30 7157 P 994.342 -5.75688 -6.64379 0
M  V30 7158 O 995.764 -6.07627 -7.05504 0
M  V30 7159 O 993.982 -5.88047 -5.19722 0
M  V30 7160 O 994.019 -4.2322 -7.04443 0
M  V30 7161 C 993.859 -3.99743 -8.4911 0
M  V30 7162 C 994.399 -2.60516 -8.79425 0
M  V30 7163 O 993.343 -1.82684 -8.4467 0
M  V30 7164 C 995.617 -2.10343 -8.03628 0
M  V30 7165 O 996.355 -1.09919 -8.67766 0
M  V30 7166 C 994.948 -1.68446 -6.70876 0
M  V30 7167 O 995.747 -0.678137 -6.08433 0
M  V30 7168 C 993.611 -1.17436 -7.18567 0
M  V30 7169 H 993.643 -0.0804732 -7.31656 0
M  V30 7170 H 994.826 -2.54037 -6.02537 0
M  V30 7171 H 996.31 -2.93881 -7.85526 0
M  V30 7172 H 994.616 -2.53065 -9.86973 0
M  V30 7173 H 994.426 -4.75072 -9.05887 0
M  V30 7174 H 992.796 -4.05244 -8.76668 0
M  V30 7175 H 995.435 0.177647 -6.34251 0
M  V30 7176 P 997.293 -1.25109 -8.70152 0
M  V30 7177 O 998.715 -1.29744 -9.22016 0
M  V30 7178 O 996.933 -2.13714 -7.55141 0
M  V30 7179 O 996.97 0.248149 -8.21425 0
M  V30 7180 C 996.81 1.22779 -9.30434 0
M  V30 7181 C 997.35 2.56293 -8.80664 0
M  V30 7182 O 996.294 3.02979 -8.09349 0
M  V30 7183 C 998.568 2.57523 -7.89775 0
M  V30 7184 O 999.306 3.7668 -7.89438 0
M  V30 7185 C 997.899 2.20997 -6.55446 0
M  V30 7186 O 998.698 2.71895 -5.48509 0
M  V30 7187 C 996.562 2.89693 -6.67988 0
M  V30 7188 H 996.594 3.88793 -6.19859 0
M  V30 7189 H 997.777 1.12046 -6.44229 0
M  V30 7190 H 999.261 1.7746 -8.19711 0
M  V30 7191 H 997.567 3.20706 -9.67112 0
M  V30 7192 H 997.377 0.901032 -10.1892 0
M  V30 7193 H 995.747 1.33049 -9.56592 0
M  V30 7194 H 998.386 3.57847 -5.23962 0
M  V30 7195 P 1000.24 3.65191 -7.99657 0
M  V30 7196 O 1001.67 3.89332 -8.45794 0
M  V30 7197 O 999.883 2.28472 -7.50807 0
M  V30 7198 O 999.92 4.64972 -6.77611 0
M  V30 7199 C 999.76 6.06319 -7.16352 0
M  V30 7200 C 1000.3 6.91731 -6.02299 0
M  V30 7201 O 999.244 6.92449 -5.17064 0
M  V30 7202 C 1001.52 6.43627 -5.25174 0
M  V30 7203 O 1002.26 7.43686 -4.60469 0
M  V30 7204 C 1000.85 5.40275 -4.31916 0
M  V30 7205 O 1001.65 5.25279 -3.14438 0
M  V30 7206 C 999.512 6.04847 -4.05327 0
M  V30 7207 H 999.544 6.62195 -3.11261 0
M  V30 7208 H 1000.73 4.42556 -4.81383 0
M  V30 7209 H 1002.21 5.92458 -5.93643 0
M  V30 7210 H 1000.52 7.92655 -6.402 0
M  V30 7211 H 1000.33 6.26671 -8.0846 0
M  V30 7212 H 998.697 6.29101 -7.32804 0
M  V30 7213 H 1001.34 5.84315 -2.47318 0
M  V30 7214 P 1003.19 7.39546 -4.75277 0
M  V30 7215 O 1004.59 7.86988 -5.07993 0
M  V30 7216 O 1002.82 5.99957 -5.13804 0
M  V30 7217 O 1002.87 7.57411 -3.18621 0
M  V30 7218 C 1002.71 8.97357 -2.74833 0
M  V30 7219 C 1003.25 9.0745 -1.32694 0
M  V30 7220 O 1002.19 8.61972 -0.606089 0
M  V30 7221 C 1004.47 8.25383 -0.938334 0
M  V30 7222 O 1005.21 8.74577 0.146954 0
M  V30 7223 C 1003.8 6.8802 -0.712559 0
M  V30 7224 O 1004.6 6.11791 0.194623 0
M  V30 7225 C 1002.46 7.27966 -0.139777 0
M  V30 7226 N 1001.42 6.39368 -0.623421 0
M  V30 7227 C 1000.38 6.08088 0.223886 0
M  V30 7228 O 1000.42 6.5102 1.39986 0
M  V30 7229 N 999.373 5.30627 -0.224051 0
M  V30 7230 C 999.421 4.82531 -1.47257 0
M  V30 7231 N 998.411 4.07328 -1.89378 0
M  V30 7232 C 1000.52 5.09974 -2.34008 0
M  V30 7233 C 1001.48 5.89548 -1.87678 0
M  V30 7234 H 1002.49 7.25255 0.961469 0
M  V30 7235 H 1003.68 6.32625 -1.65044 0
M  V30 7236 H 1005.16 8.19631 -1.78299 0
M  V30 7237 H 1003.47 10.1305 -1.09016 0
M  V30 7238 H 1003.28 9.64276 -3.41316 0
M  V30 7239 H 1001.65 9.25321 -2.76328 0
M  V30 7240 H 1000.56 4.67832 -3.3413 0
M  V30 7241 H 1002.33 6.14434 -2.51991 0
M  V30 7242 H 997.621 3.87329 -1.26296 0
M  V30 7243 H 998.416 3.69014 -2.84741 0
M  V30 7244 H 1004.38 6.35931 1.08377 0
M  V30 7245 P 1006.14 8.791 7.86616e-12 0
M  V30 7246 O 1007.57 9.31096 0.027933 0
M  V30 7247 O 1005.78 7.77869 -1.04071 0
M  V30 7248 O 1005.82 8.09533 1.41463 0
M  V30 7249 C 1005.66 9.0349 2.53943 0
M  V30 7250 C 1006.2 8.35226 3.79016 0
M  V30 7251 O 1005.15 7.57992 4.15078 0
M  V30 7252 C 1007.42 7.45087 3.67298 0
M  V30 7253 O 1008.16 7.27796 4.85194 0
M  V30 7254 C 1006.75 6.17323 3.12027 0
M  V30 7255 O 1007.55 5.04231 3.47188 0
M  V30 7256 C 1005.41 6.19961 3.81809 0
M  V30 7257 H 1005.45 5.58218 4.73051 0
M  V30 7258 H 1006.63 6.21726 2.02589 0
M  V30 7259 H 1008.11 7.86112 2.9231 0
M  V30 7260 H 1006.42 9.11627 4.55076 0
M  V30 7261 H 1006.23 9.9573 2.34194 0
M  V30 7262 H 1004.6 9.2792 2.67832 0
M  V30 7263 H 1007.24 4.67702 4.28772 0
M  V30 7264 P 1009.09 7.39546 4.75277 0
M  V30 7265 O 1010.52 7.81777 5.05738 0
M  V30 7266 O 1008.73 7.1065 3.32998 0
M  V30 7267 O 1008.77 6.04542 5.56673 0
M  V30 7268 C 1008.61 6.22772 7.02095 0
M  V30 7269 C 1009.15 4.97725 7.70406 0
M  V30 7270 O 1008.1 4.13256 7.58987 0
M  V30 7271 C 1010.37 4.28231 7.11815 0
M  V30 7272 O 1011.11 3.49945 8.01648 0
M  V30 7273 C 1009.7 3.5063 5.96244 0
M  V30 7274 O 1010.5 2.36482 5.64681 0
M  V30 7275 C 1008.36 3.15122 6.56374 0
M  V30 7276 H 1008.4 2.13853 6.99751 0
M  V30 7277 H 1009.58 4.13501 5.06559 0
M  V30 7278 H 1011.06 5.03285 6.70911 0
M  V30 7279 H 1009.37 5.20877 8.75697 0
M  V30 7280 H 1009.18 7.11046 7.35349 0
M  V30 7281 H 1007.55 6.35815 7.26986 0
M  V30 7282 H 1010.19 1.61644 6.13565 0
M  V30 7283 P 1012.05 3.65191 7.99657 0
M  V30 7284 O 1013.47 3.8425 8.48115 0
M  V30 7285 O 1011.69 4.17805 6.64342 0
M  V30 7286 O 1011.72 2.07613 7.95143 0
M  V30 7287 C 1011.56 1.44328 9.27336 0
M  V30 7288 C 1012.1 0.0220036 9.17197 0
M  V30 7289 O 1011.05 -0.626867 8.61923 0
M  V30 7290 C 1013.32 -0.24586 8.30336 0
M  V30 7291 O 1014.06 -1.39011 8.63583 0
M  V30 7292 C 1012.65 -0.273849 6.91158 0
M  V30 7293 O 1013.45 -1.06348 6.02892 0
M  V30 7294 C 1011.31 -0.897649 7.22545 0
M  V30 7295 H 1011.35 -1.9841 7.04286 0
M  V30 7296 H 1012.53 0.739928 6.497 0
M  V30 7297 H 1014.01 0.60668 8.36503 0
M  V30 7298 H 1012.32 -0.352479 10.1829 0
M  V30 7299 H 1012.13 2.00611 10.0304 0
M  V30 7300 H 1010.5 1.41843 9.55327 0
M  V30 7301 H 1013.14 -1.95734 6.03555 0
M  V30 7302 P 1015 -1.25109 8.70152 0
M  V30 7303 O 1016.42 -1.35274 9.21221 0
M  V30 7304 O 1014.64 -0.0769065 7.84762 0
M  V30 7305 O 1014.67 -2.55232 7.81161 0
M  V30 7306 C 1014.51 -3.79939 8.58154 0
M  V30 7307 C 1015.05 -4.94023 7.72785 0
M  V30 7308 O 1014 -5.18726 6.91205 0
M  V30 7309 C 1016.27 -4.69597 6.85231 0
M  V30 7310 O 1017.01 -5.83832 6.51337 0
M  V30 7311 C 1015.6 -3.96706 5.66633 0
M  V30 7312 O 1016.4 -4.15414 4.49689 0
M  V30 7313 C 1014.27 -4.66153 5.59313 0
M  V30 7314 H 1014.3 -5.47679 4.85214 0
M  V30 7315 H 1015.48 -2.89008 5.86566 0
M  V30 7316 H 1016.96 -4.0121 7.36511 0
M  V30 7317 H 1015.27 -5.80182 8.37584 0
M  V30 7318 H 1015.08 -3.73517 9.52265 0
M  V30 7319 H 1013.45 -3.97163 8.80359 0
M  V30 7320 H 1016.09 -4.90969 4.01921 0
M  V30 7321 P 1017.95 -5.75688 6.64379 0
M  V30 7322 O 1019.37 -6.11849 7.01846 0
M  V30 7323 O 1017.59 -4.30744 6.56026 0
M  V30 7324 O 1017.62 -6.37042 5.19165 0
M  V30 7325 C 1017.46 -7.83578 5.16515 0
M  V30 7326 C 1018 -8.33398 3.83019 0
M  V30 7327 O 1016.95 -8.10074 3.01034 0
M  V30 7328 C 1019.22 -7.65514 3.2257 0
M  V30 7329 O 1019.96 -8.4329 2.32297 0
M  V30 7330 C 1018.55 -6.40075 2.62207 0
M  V30 7331 O 1019.35 -5.92589 1.53712 0
M  V30 7332 C 1017.22 -6.9454 2.18503 0
M  V30 7333 H 1017.25 -7.23063 1.12091 0
M  V30 7334 H 1018.43 -5.6025 3.37201 0
M  V30 7335 H 1019.91 -7.35707 4.02681 0
M  V30 7336 H 1018.22 -9.40912 3.9095 0
M  V30 7337 H 1018.03 -8.29056 5.99158 0
M  V30 7338 H 1016.4 -8.10073 5.25882 0
M  V30 7339 H 1019.04 -6.30324 0.726794 0
M  V30 7340 P 1020.9 -8.4349 2.47671 0
M  V30 7341 O 1022.32 -8.94263 2.59668 0
M  V30 7342 O 1020.54 -7.1704 3.19006 0
M  V30 7343 O 1020.57 -8.16596 0.923387 0
M  V30 7344 C 1020.41 -9.38537 0.108869 0
M  V30 7345 C 1020.95 -9.08175 -1.28353 0
M  V30 7346 O 1019.9 -8.44131 -1.84692 0
M  V30 7347 C 1022.17 -8.18386 -1.42505 0
M  V30 7348 O 1022.91 -8.3501 -2.60497 0
M  V30 7349 C 1021.5 -6.80225 -1.25468 0
M  V30 7350 O 1022.3 -5.81716 -1.90454 0
M  V30 7351 C 1020.17 -7.02416 -1.9168 0
M  V30 7352 N 1019.12 -6.31033 -1.20314 0
M  V30 7353 C 1019.29 -5.98817 0.0994088 0
M  V30 7354 N 1018.27 -5.35403 0.621694 0
M  V30 7355 C 1017.38 -5.25212 -0.43376 0
M  V30 7356 C 1016.11 -4.64602 -0.519722 0
M  V30 7357 N 1015.51 -4.01457 0.519136 0
M  V30 7358 N 1015.55 -4.7568 -1.76013 0
M  V30 7359 C 1016.15 -5.3653 -2.83017 0
M  V30 7360 N 1017.33 -5.93676 -2.79782 0
M  V30 7361 C 1017.9 -5.84061 -1.56249 0
M  V30 7362 H 1020.2 -6.68789 -2.9658 0
M  V30 7363 H 1021.38 -6.53498 -0.198729 0
M  V30 7364 H 1022.86 -8.36622 -0.589963 0
M  V30 7365 H 1021.17 -10.0273 -1.8081 0
M  V30 7366 H 1020.98 -10.2138 0.558219 0
M  V30 7367 H 1019.35 -9.6579 0.0444202 0
M  V30 7368 H 1015.61 -5.37113 -3.77321 0
M  V30 7369 H 1020.19 -6.23209 0.660562 0
M  V30 7370 H 1014.58 -3.58834 0.394862 0
M  V30 7371 H 1015.99 -3.96059 1.43048 0
M  V30 7372 H 1021.99 -5.69466 -2.79593 0
M  V30 7373 P 1023.85 -8.4349 -2.47671 0
M  V30 7374 O 1025.27 -8.92593 -2.65 0
M  V30 7375 O 1023.49 -7.7568 -1.19296 0
M  V30 7376 O 1023.52 -7.36886 -3.63805 0
M  V30 7377 C 1023.36 -7.95349 -4.982 0
M  V30 7378 C 1023.9 -6.94612 -5.98974 0
M  V30 7379 O 1022.85 -6.10347 -6.11815 0
M  V30 7380 C 1025.12 -6.11426 -5.62335 0
M  V30 7381 O 1025.86 -5.6162 -6.70584 0
M  V30 7382 C 1024.45 -5.04409 -4.73308 0
M  V30 7383 O 1025.25 -3.85992 -4.75183 0
M  V30 7384 C 1023.12 -4.8728 -5.41006 0
M  V30 7385 H 1023.15 -4.02333 -6.11157 0
M  V30 7386 H 1024.33 -5.39466 -3.69543 0
M  V30 7387 H 1025.82 -6.71916 -5.01943 0
M  V30 7388 H 1024.12 -7.4649 -6.93477 0
M  V30 7389 H 1023.93 -8.89416 -5.05237 0
M  V30 7390 H 1022.3 -8.14876 -5.18409 0
M  V30 7391 H 1024.94 -3.27957 -5.4317 0
M  V30 7392 P 1026.8 -5.75688 -6.64379 0
M  V30 7393 O 1028.22 -6.07627 -7.05504 0
M  V30 7394 O 1026.44 -5.88047 -5.19722 0
M  V30 7395 O 1026.48 -4.2322 -7.04443 0
M  V30 7396 C 1026.32 -3.99743 -8.4911 0
M  V30 7397 C 1026.86 -2.60516 -8.79425 0
M  V30 7398 O 1025.8 -1.82684 -8.4467 0
M  V30 7399 C 1028.07 -2.10343 -8.03628 0
M  V30 7400 O 1028.81 -1.09919 -8.67766 0
M  V30 7401 C 1027.4 -1.68446 -6.70876 0
M  V30 7402 O 1028.2 -0.678137 -6.08433 0
M  V30 7403 C 1026.07 -1.17436 -7.18567 0
M  V30 7404 H 1026.1 -0.0804732 -7.31656 0
M  V30 7405 H 1027.28 -2.54037 -6.02537 0
M  V30 7406 H 1028.77 -2.93881 -7.85526 0
M  V30 7407 H 1027.07 -2.53065 -9.86973 0
M  V30 7408 H 1026.88 -4.75072 -9.05887 0
M  V30 7409 H 1025.25 -4.05244 -8.76668 0
M  V30 7410 H 1027.89 0.177647 -6.34251 0
M  V30 7411 P 1029.75 -1.25109 -8.70152 0
M  V30 7412 O 1031.17 -1.29772 -9.22214 0
M  V30 7413 O 1029.39 -2.13714 -7.55141 0
M  V30 7414 O 1029.43 0.248149 -8.21425 0
M  V30 7415 C 1029.27 1.22779 -9.30434 0
M  V30 7416 C 1029.81 2.56265 -8.80568 0
M  V30 7417 O 1028.75 3.02979 -8.09349 0
M  V30 7418 C 1031.02 2.57523 -7.89775 0
M  V30 7419 O 1031.76 3.7668 -7.89438 0
M  V30 7420 C 1030.36 2.20997 -6.55446 0
M  V30 7421 O 1031.15 2.71851 -5.48419 0
M  V30 7422 C 1029.02 2.89693 -6.67988 0
M  V30 7423 N 1027.97 2.08895 -6.07487 0
M  V30 7424 C 1028.04 0.760559 -6.14209 0
M  V30 7425 N 1026.99 0.200108 -5.52538 0
M  V30 7426 C 1026.26 1.22692 -5.09742 0
M  V30 7427 C 1024.95 1.24782 -4.48775 0
M  V30 7428 O 1024.22 0.290617 -4.19294 0
M  V30 7429 N 1024.52 2.50468 -4.22428 0
M  V30 7430 C 1025.27 3.67142 -4.51974 0
M  V30 7431 N 1024.67 4.85096 -4.14091 0
M  V30 7432 N 1026.42 3.67821 -5.12831 0
M  V30 7433 C 1026.88 2.43698 -5.4105 0
M  V30 7434 H 1029.05 3.88793 -6.19859 0
M  V30 7435 H 1030.23 1.12029 -6.4413 0
M  V30 7436 H 1031.72 1.78279 -8.19533 0
M  V30 7437 H 1030.02 3.20706 -9.67112 0
M  V30 7438 H 1029.83 0.901032 -10.1892 0
M  V30 7439 H 1028.2 1.33049 -9.56592 0
M  V30 7440 H 1023.63 2.61953 -3.79465 0
M  V30 7441 H 1028.83 0.200439 -6.63497 0
M  V30 7442 H 1023.76 4.8334 -3.66367 0
M  V30 7443 H 1025.14 5.7474 -4.33841 0
M  V30 7444 H 1030.84 3.5779 -5.23879 0
M  V30 7445 P 1032.7 3.65191 -7.99657 0
M  V30 7446 O 1034.12 3.89416 -8.45976 0
M  V30 7447 O 1032.34 2.28472 -7.50807 0
M  V30 7448 O 1032.38 4.64972 -6.77611 0
M  V30 7449 C 1032.22 6.06319 -7.16352 0
M  V30 7450 C 1032.76 6.91655 -6.02234 0
M  V30 7451 O 1031.7 6.92449 -5.17064 0
M  V30 7452 C 1033.97 6.43627 -5.25174 0
M  V30 7453 O 1034.71 7.43686 -4.60469 0
M  V30 7454 C 1033.31 5.40275 -4.31916 0
M  V30 7455 O 1034.1 5.25193 -3.14386 0
M  V30 7456 C 1031.97 6.04847 -4.05327 0
M  V30 7457 N 1030.93 5.04166 -3.98114 0
M  V30 7458 C 1030.99 3.96049 -4.75587 0
M  V30 7459 N 1029.94 3.15559 -4.54006 0
M  V30 7460 C 1029.21 3.78802 -3.62491 0
M  V30 7461 C 1027.9 3.476 -3.10071 0
M  V30 7462 O 1027.17 2.51136 -3.37021 0
M  V30 7463 N 1027.47 4.39088 -2.19956 0
M  V30 7464 C 1028.22 5.53215 -1.81733 0
M  V30 7465 N 1027.62 6.31963 -0.860928 0
M  V30 7466 N 1029.37 5.86688 -2.32562 0
M  V30 7467 C 1029.83 4.97525 -3.23407 0
M  V30 7468 H 1032 6.62195 -3.11261 0
M  V30 7469 H 1033.18 4.42488 -4.8131 0
M  V30 7470 H 1034.67 5.93051 -5.9305 0
M  V30 7471 H 1032.97 7.92655 -6.402 0
M  V30 7472 H 1032.78 6.26671 -8.0846 0
M  V30 7473 H 1031.15 6.29101 -7.32804 0
M  V30 7474 H 1026.58 4.25523 -1.77604 0
M  V30 7475 H 1031.78 3.75576 -5.47333 0
M  V30 7476 H 1026.71 6.04684 -0.468946 0
M  V30 7477 H 1028.09 7.18054 -0.542422 0
M  V30 7478 H 1033.79 5.84223 -2.47279 0
M  V30 7479 P 1035.65 7.39546 -4.75277 0
M  V30 7480 O 1037.07 7.84798 -5.01039 0
M  V30 7481 O 1035.29 5.9812 -5.08098 0
M  V30 7482 O 1035.33 7.57503 -3.1866 0
M  V30 7483 C 1035.17 8.97357 -2.74833 0
M  V30 7484 C 1035.71 9.07548 -1.32709 0
M  V30 7485 O 1034.65 8.62072 -0.606159 0
M  V30 7486 C 1036.93 8.25383 -0.938334 0
M  V30 7487 O 1037.66 8.74577 0.146954 0
M  V30 7488 C 1036.26 6.8802 -0.712559 0
M  V30 7489 O 1037.06 6.1189 0.194655 0
M  V30 7490 C 1034.92 7.27966 -0.139777 0
M  V30 7491 H 1034.95 7.25354 0.961601 0
M  V30 7492 H 1036.13 6.32557 -1.65702 0
M  V30 7493 H 1037.62 8.19355 -1.79097 0
M  V30 7494 H 1035.92 10.1294 -1.10029 0
M  V30 7495 H 1035.73 9.64276 -3.41316 0
M  V30 7496 H 1034.1 9.25417 -2.76357 0
M  V30 7497 H 1036.74 6.25267 1.07847 0
M  V30 7498 P 1038.6 8.791 8.17632e-12 0
M  V30 7499 O 1040.02 9.31096 0.027933 0
M  V30 7500 O 1038.24 7.77869 -1.04071 0
M  V30 7501 O 1038.28 8.09533 1.41463 0
M  V30 7502 C 1038.12 9.0349 2.53943 0
M  V30 7503 C 1038.66 8.35226 3.79016 0
M  V30 7504 O 1037.6 7.57992 4.15078 0
M  V30 7505 C 1039.88 7.45087 3.67298 0
M  V30 7506 O 1040.61 7.27796 4.85194 0
M  V30 7507 C 1039.21 6.17323 3.12027 0
M  V30 7508 O 1040.01 5.04231 3.47188 0
M  V30 7509 C 1037.87 6.19961 3.81809 0
M  V30 7510 H 1037.9 5.58218 4.73051 0
M  V30 7511 H 1039.08 6.21726 2.02589 0
M  V30 7512 H 1040.57 7.86112 2.9231 0
M  V30 7513 H 1038.87 9.11627 4.55076 0
M  V30 7514 H 1038.68 9.9573 2.34194 0
M  V30 7515 H 1037.05 9.2792 2.67832 0
M  V30 7516 H 1039.69 4.67702 4.28772 0
M  V30 7517 P 1041.55 7.39546 4.75277 0
M  V30 7518 O 1042.97 7.81777 5.05738 0
M  V30 7519 O 1041.19 7.1065 3.32998 0
M  V30 7520 O 1041.23 6.04542 5.56673 0
M  V30 7521 C 1041.07 6.22772 7.02095 0
M  V30 7522 C 1041.61 4.97725 7.70406 0
M  V30 7523 O 1040.55 4.13256 7.58987 0
M  V30 7524 C 1042.83 4.28231 7.11815 0
M  V30 7525 O 1043.56 3.49945 8.01648 0
M  V30 7526 C 1042.16 3.5063 5.96244 0
M  V30 7527 O 1042.96 2.36482 5.64681 0
M  V30 7528 C 1040.82 3.15122 6.56374 0
M  V30 7529 H 1040.85 2.13853 6.99751 0
M  V30 7530 H 1042.04 4.13501 5.06559 0
M  V30 7531 H 1043.52 5.03285 6.70911 0
M  V30 7532 H 1041.83 5.20877 8.75697 0
M  V30 7533 H 1041.64 7.11046 7.35349 0
M  V30 7534 H 1040.01 6.35815 7.26986 0
M  V30 7535 H 1042.64 1.61644 6.13565 0
M  V30 7536 P 1044.5 3.65191 7.99657 0
M  V30 7537 O 1045.92 3.8425 8.48115 0
M  V30 7538 O 1044.14 4.17805 6.64342 0
M  V30 7539 O 1044.18 2.07613 7.95143 0
M  V30 7540 C 1044.02 1.44328 9.27336 0
M  V30 7541 C 1044.56 0.0220036 9.17197 0
M  V30 7542 O 1043.5 -0.626867 8.61923 0
M  V30 7543 C 1045.78 -0.24586 8.30336 0
M  V30 7544 O 1046.51 -1.39011 8.63583 0
M  V30 7545 C 1045.11 -0.273849 6.91158 0
M  V30 7546 O 1045.91 -1.06348 6.02892 0
M  V30 7547 C 1043.77 -0.897649 7.22545 0
M  V30 7548 H 1043.8 -1.9841 7.04286 0
M  V30 7549 H 1044.99 0.739928 6.497 0
M  V30 7550 H 1046.47 0.60668 8.36503 0
M  V30 7551 H 1044.78 -0.352479 10.1829 0
M  V30 7552 H 1044.59 2.00611 10.0304 0
M  V30 7553 H 1042.96 1.41843 9.55327 0
M  V30 7554 H 1045.59 -1.95734 6.03555 0
M  V30 7555 P 1047.45 -1.25109 8.70152 0
M  V30 7556 O 1048.87 -1.35274 9.21221 0
M  V30 7557 O 1047.09 -0.0769065 7.84762 0
M  V30 7558 O 1047.13 -2.55232 7.81161 0
M  V30 7559 C 1046.97 -3.79939 8.58154 0
M  V30 7560 C 1047.51 -4.94023 7.72785 0
M  V30 7561 O 1046.45 -5.18726 6.91205 0
M  V30 7562 C 1048.73 -4.69597 6.85231 0
M  V30 7563 O 1049.47 -5.83832 6.51337 0
M  V30 7564 C 1048.06 -3.96706 5.66633 0
M  V30 7565 O 1048.86 -4.15414 4.49689 0
M  V30 7566 C 1046.72 -4.66153 5.59313 0
M  V30 7567 H 1046.75 -5.47679 4.85214 0
M  V30 7568 H 1047.94 -2.89008 5.86566 0
M  V30 7569 H 1049.42 -4.0121 7.36511 0
M  V30 7570 H 1047.73 -5.80182 8.37584 0
M  V30 7571 H 1047.54 -3.73517 9.52265 0
M  V30 7572 H 1045.91 -3.97163 8.80359 0
M  V30 7573 H 1048.55 -4.90969 4.01921 0
M  V30 7574 P 1050.4 -5.75688 6.64379 0
M  V30 7575 O 1051.82 -6.11915 7.01921 0
M  V30 7576 O 1050.04 -4.30744 6.56026 0
M  V30 7577 O 1050.08 -6.37042 5.19165 0
M  V30 7578 C 1049.92 -7.83662 5.1657 0
M  V30 7579 C 1050.46 -8.33398 3.83019 0
M  V30 7580 O 1049.4 -8.0998 3.00999 0
M  V30 7581 C 1051.68 -7.65514 3.2257 0
M  V30 7582 O 1052.42 -8.4329 2.32297 0
M  V30 7583 C 1051.01 -6.40075 2.62207 0
M  V30 7584 O 1051.81 -5.92338 1.5428 0
M  V30 7585 C 1049.67 -6.9454 2.18503 0
M  V30 7586 N 1048.63 -5.95905 2.39948 0
M  V30 7587 C 1048.8 -4.98383 3.32108 0
M  V30 7588 N 1047.77 -4.16798 3.41761 0
M  V30 7589 C 1046.89 -4.65287 2.47461 0
M  V30 7590 C 1045.62 -4.18946 2.07461 0
M  V30 7591 N 1045.05 -4.95327 1.09101 0
M  V30 7592 C 1045.66 -6.04369 0.519812 0
M  V30 7593 N 1046.83 -6.50694 0.855982 0
M  V30 7594 C 1047.41 -5.75818 1.84322 0
M  V30 7595 H 1050.89 -5.60502 3.36589 0
M  V30 7596 H 1052.37 -7.35707 4.02681 0
M  V30 7597 H 1050.68 -9.41302 3.90009 0
M  V30 7598 H 1050.49 -8.29056 5.99158 0
M  V30 7599 H 1048.86 -8.10073 5.25882 0
M  V30 7600 H 1049.7 -4.88564 3.92502 0
M  V30 7601 H 1051.5 -6.30224 0.72668 0
M  V30 7602 P 1053.35 -8.4349 2.47671 0
M  V30 7603 O 1054.78 -8.94167 2.5964 0
M  V30 7604 O 1052.99 -7.1704 3.19006 0
M  V30 7605 O 1053.03 -8.16596 0.923387 0
M  V30 7606 C 1052.87 -9.38437 0.108857 0
M  V30 7607 C 1053.41 -9.08175 -1.28353 0
M  V30 7608 O 1052.35 -8.44229 -1.84713 0
M  V30 7609 C 1054.63 -8.18386 -1.42505 0
M  V30 7610 O 1055.37 -8.3501 -2.60497 0
M  V30 7611 C 1053.96 -6.80225 -1.25468 0
M  V30 7612 O 1054.76 -5.81621 -1.91066 0
M  V30 7613 C 1052.62 -7.02416 -1.9168 0
M  V30 7614 H 1052.65 -6.6888 -2.96621 0
M  V30 7615 H 1053.84 -6.53617 -0.192223 0
M  V30 7616 H 1055.32 -8.36622 -0.589963 0
M  V30 7617 H 1053.63 -10.0291 -1.79807 0
M  V30 7618 H 1053.44 -10.2138 0.558219 0
M  V30 7619 H 1051.81 -9.6579 0.0444202 0
M  V30 7620 H 1054.45 -5.69556 -2.79637 0
M  V30 7621 P 1056.3 -8.4349 -2.47671 0
M  V30 7622 O 1057.73 -8.92593 -2.65 0
M  V30 7623 O 1055.94 -7.7568 -1.19296 0
M  V30 7624 O 1055.98 -7.36886 -3.63805 0
M  V30 7625 C 1055.82 -7.95349 -4.982 0
M  V30 7626 C 1056.36 -6.94612 -5.98974 0
M  V30 7627 O 1055.31 -6.10347 -6.11815 0
M  V30 7628 C 1057.58 -6.11426 -5.62335 0
M  V30 7629 O 1058.32 -5.6162 -6.70584 0
M  V30 7630 C 1056.91 -5.04409 -4.73308 0
M  V30 7631 O 1057.71 -3.85992 -4.75183 0
M  V30 7632 C 1055.57 -4.8728 -5.41006 0
M  V30 7633 H 1055.61 -4.02333 -6.11157 0
M  V30 7634 H 1056.79 -5.39466 -3.69543 0
M  V30 7635 H 1058.27 -6.71916 -5.01943 0
M  V30 7636 H 1056.58 -7.4649 -6.93477 0
M  V30 7637 H 1056.39 -8.89416 -5.05237 0
M  V30 7638 H 1054.76 -8.14876 -5.18409 0
M  V30 7639 H 1057.4 -3.27957 -5.4317 0
M  V30 7640 P 1059.25 -5.75688 -6.64379 0
M  V30 7641 O 1060.68 -6.07692 -7.0558 0
M  V30 7642 O 1058.89 -5.88047 -5.19722 0
M  V30 7643 O 1058.93 -4.2322 -7.04443 0
M  V30 7644 C 1058.77 -3.99785 -8.49201 0
M  V30 7645 C 1059.31 -2.60516 -8.79425 0
M  V30 7646 O 1058.26 -1.82663 -8.44573 0
M  V30 7647 C 1060.53 -2.10343 -8.03628 0
M  V30 7648 O 1061.27 -1.09919 -8.67766 0
M  V30 7649 C 1059.86 -1.68446 -6.70876 0
M  V30 7650 O 1060.66 -0.684109 -6.08265 0
M  V30 7651 C 1058.52 -1.17436 -7.18567 0
M  V30 7652 N 1057.48 -1.52699 -6.23988 0
M  V30 7653 C 1057.65 -2.578 -5.40574 0
M  V30 7654 N 1056.62 -2.78966 -4.61193 0
M  V30 7655 C 1055.74 -1.78725 -4.95769 0
M  V30 7656 C 1054.47 -1.45727 -4.44207 0
M  V30 7657 N 1053.91 -0.374977 -5.05812 0
M  V30 7658 C 1054.51 0.345585 -6.05615 0
M  V30 7659 N 1055.68 0.0787651 -6.56253 0
M  V30 7660 C 1056.26 -1.00499 -5.96189 0
M  V30 7661 H 1059.74 -2.53396 -6.02698 0
M  V30 7662 H 1061.22 -2.93881 -7.85526 0
M  V30 7663 H 1059.53 -2.52078 -9.87225 0
M  V30 7664 H 1059.34 -4.75072 -9.05887 0
M  V30 7665 H 1057.71 -4.05244 -8.76668 0
M  V30 7666 H 1058.55 -3.18977 -5.3945 0
M  V30 7667 H 1060.35 0.177619 -6.34151 0
M  V30 7668 P 1062.21 -1.25109 -8.70152 0
M  V30 7669 O 1063.61 -1.3516 -9.26897 0
M  V30 7670 O 1061.83 -2.18141 -7.59181 0
M  V30 7671 O 1061.88 0.248118 -8.21325 0
M  V30 7672 C 1061.72 1.22779 -9.30434 0
M  V30 7673 C 1062.26 2.56265 -8.80568 0
M  V30 7674 O 1061.21 3.02944 -8.09255 0
M  V30 7675 C 1063.48 2.57523 -7.89775 0
M  V30 7676 O 1064.22 3.7668 -7.89438 0
M  V30 7677 C 1062.81 2.20997 -6.55446 0
M  V30 7678 O 1063.61 2.71851 -5.48419 0
M  V30 7679 C 1061.47 2.89693 -6.67988 0
M  V30 7680 N 1060.43 2.08895 -6.07487 0
M  V30 7681 C 1059.4 2.72974 -5.43836 0
M  V30 7682 O 1059.44 3.97779 -5.34036 0
M  V30 7683 N 1058.38 2.0005 -4.91983 0
M  V30 7684 C 1058.43 0.66501 -5.00098 0
M  V30 7685 C 1059.53 -0.0100979 -5.61099 0
M  V30 7686 C 1060.49 0.74189 -6.14236 0
M  V30 7687 H 1061.51 3.8874 -6.19774 0
M  V30 7688 H 1062.69 1.12673 -6.44018 0
M  V30 7689 H 1064.17 1.783 -8.19631 0
M  V30 7690 H 1062.48 3.21673 -9.66791 0
M  V30 7691 H 1062.29 0.901032 -10.1892 0
M  V30 7692 H 1060.66 1.33036 -9.56493 0
M  V30 7693 H 1059.58 -1.09591 -5.64358 0
M  V30 7694 H 1061.34 0.260263 -6.6359 0
M  V30 7695 H 1063.39 3.62759 -5.33442 0
M  V30 7696 P 1065.16 3.65191 -7.99657 0
M  V30 7697 O 1066.58 3.89332 -8.45794 0
M  V30 7698 O 1064.8 2.28472 -7.50807 0
M  V30 7699 O 1064.83 4.64972 -6.77611 0
M  V30 7700 C 1064.67 6.06319 -7.16352 0
M  V30 7701 C 1065.21 6.91731 -6.02299 0
M  V30 7702 O 1064.16 6.92449 -5.17064 0
M  V30 7703 C 1066.43 6.43627 -5.25174 0
M  V30 7704 O 1067.17 7.43686 -4.60469 0
M  V30 7705 C 1065.76 5.40275 -4.31916 0
M  V30 7706 O 1066.56 5.25279 -3.14438 0
M  V30 7707 C 1064.42 6.04847 -4.05327 0
M  V30 7708 H 1064.46 6.62195 -3.11261 0
M  V30 7709 H 1065.64 4.42556 -4.81383 0
M  V30 7710 H 1067.12 5.92458 -5.93643 0
M  V30 7711 H 1065.43 7.92655 -6.402 0
M  V30 7712 H 1065.24 6.26671 -8.0846 0
M  V30 7713 H 1063.61 6.29101 -7.32804 0
M  V30 7714 H 1066.25 5.84315 -2.47318 0
M  V30 7715 P 1068.11 7.39546 -4.75277 0
M  V30 7716 O 1069.53 7.84798 -5.01039 0
M  V30 7717 O 1067.75 5.9812 -5.08098 0
M  V30 7718 O 1067.78 7.57503 -3.1866 0
M  V30 7719 C 1067.62 8.97357 -2.74833 0
M  V30 7720 C 1068.16 9.07548 -1.32709 0
M  V30 7721 O 1067.11 8.62072 -0.606159 0
M  V30 7722 C 1069.38 8.25383 -0.938334 0
M  V30 7723 O 1070.12 8.74577 0.146954 0
M  V30 7724 C 1068.71 6.8802 -0.712559 0
M  V30 7725 O 1069.51 6.1189 0.194655 0
M  V30 7726 C 1067.38 7.27966 -0.139777 0
M  V30 7727 H 1067.41 7.25354 0.961601 0
M  V30 7728 H 1068.59 6.32557 -1.65702 0
M  V30 7729 H 1070.07 8.19355 -1.79097 0
M  V30 7730 H 1068.38 10.1294 -1.10029 0
M  V30 7731 H 1068.19 9.64276 -3.41316 0
M  V30 7732 H 1066.56 9.25417 -2.76357 0
M  V30 7733 H 1069.2 6.25267 1.07847 0
M  V30 7734 P 1071.06 8.791 8.48649e-12 0
M  V30 7735 O 1072.48 9.31096 0.027933 0
M  V30 7736 O 1070.7 7.77869 -1.04071 0
M  V30 7737 O 1070.73 8.09533 1.41463 0
M  V30 7738 C 1070.57 9.0349 2.53943 0
M  V30 7739 C 1071.11 8.35226 3.79016 0
M  V30 7740 O 1070.06 7.57992 4.15078 0
M  V30 7741 C 1072.33 7.45087 3.67298 0
M  V30 7742 O 1073.07 7.27796 4.85194 0
M  V30 7743 C 1071.66 6.17323 3.12027 0
M  V30 7744 O 1072.46 5.04231 3.47188 0
M  V30 7745 C 1070.33 6.19961 3.81809 0
M  V30 7746 H 1070.36 5.58218 4.73051 0
M  V30 7747 H 1071.54 6.21726 2.02589 0
M  V30 7748 H 1073.02 7.86112 2.9231 0
M  V30 7749 H 1071.33 9.11627 4.55076 0
M  V30 7750 H 1071.14 9.9573 2.34194 0
M  V30 7751 H 1069.51 9.2792 2.67832 0
M  V30 7752 H 1072.15 4.67702 4.28772 0
M  V30 7753 P 1074.01 7.39546 4.75277 0
M  V30 7754 O 1075.43 7.81777 5.05738 0
M  V30 7755 O 1073.65 7.1065 3.32998 0
M  V30 7756 O 1073.68 6.04542 5.56673 0
M  V30 7757 C 1073.52 6.22772 7.02095 0
M  V30 7758 C 1074.06 4.97725 7.70406 0
M  V30 7759 O 1073.01 4.13256 7.58987 0
M  V30 7760 C 1075.28 4.28231 7.11815 0
M  V30 7761 O 1076.02 3.49945 8.01648 0
M  V30 7762 C 1074.61 3.5063 5.96244 0
M  V30 7763 O 1075.41 2.36482 5.64681 0
M  V30 7764 C 1073.28 3.15122 6.56374 0
M  V30 7765 H 1073.31 2.13853 6.99751 0
M  V30 7766 H 1074.49 4.13501 5.06559 0
M  V30 7767 H 1075.98 5.03285 6.70911 0
M  V30 7768 H 1074.28 5.20877 8.75697 0
M  V30 7769 H 1074.09 7.11046 7.35349 0
M  V30 7770 H 1072.46 6.35815 7.26986 0
M  V30 7771 H 1075.1 1.61644 6.13565 0
M  V30 7772 P 1076.96 3.65191 7.99657 0
M  V30 7773 O 1078.38 3.8425 8.48115 0
M  V30 7774 O 1076.6 4.17805 6.64342 0
M  V30 7775 O 1076.64 2.07613 7.95143 0
M  V30 7776 C 1076.48 1.44328 9.27336 0
M  V30 7777 C 1077.02 0.0220036 9.17197 0
M  V30 7778 O 1075.96 -0.626867 8.61923 0
M  V30 7779 C 1078.23 -0.24586 8.30336 0
M  V30 7780 O 1078.97 -1.39011 8.63583 0
M  V30 7781 C 1077.56 -0.273849 6.91158 0
M  V30 7782 O 1078.36 -1.06348 6.02892 0
M  V30 7783 C 1076.23 -0.897649 7.22545 0
M  V30 7784 H 1076.26 -1.9841 7.04286 0
M  V30 7785 H 1077.44 0.739928 6.497 0
M  V30 7786 H 1078.93 0.60668 8.36503 0
M  V30 7787 H 1077.23 -0.352479 10.1829 0
M  V30 7788 H 1077.04 2.00611 10.0304 0
M  V30 7789 H 1075.41 1.41843 9.55327 0
M  V30 7790 H 1078.05 -1.95734 6.03555 0
M  V30 7791 P 1079.91 -1.25109 8.70152 0
M  V30 7792 O 1081.33 -1.35274 9.21221 0
M  V30 7793 O 1079.55 -0.0769065 7.84762 0
M  V30 7794 O 1079.59 -2.55232 7.81161 0
M  V30 7795 C 1079.43 -3.79939 8.58154 0
M  V30 7796 C 1079.97 -4.94023 7.72785 0
M  V30 7797 O 1078.91 -5.18726 6.91205 0
M  V30 7798 C 1081.18 -4.69597 6.85231 0
M  V30 7799 O 1081.92 -5.83832 6.51337 0
M  V30 7800 C 1080.51 -3.96706 5.66633 0
M  V30 7801 O 1081.31 -4.15414 4.49689 0
M  V30 7802 C 1079.18 -4.66153 5.59313 0
M  V30 7803 H 1079.21 -5.47679 4.85214 0
M  V30 7804 H 1080.39 -2.89008 5.86566 0
M  V30 7805 H 1081.88 -4.0121 7.36511 0
M  V30 7806 H 1080.18 -5.80182 8.37584 0
M  V30 7807 H 1079.99 -3.73517 9.52265 0
M  V30 7808 H 1078.36 -3.97163 8.80359 0
M  V30 7809 H 1081 -4.90969 4.01921 0
M  V30 7810 P 1082.86 -5.75688 6.64379 0
M  V30 7811 O 1084.28 -6.11849 7.01846 0
M  V30 7812 O 1082.5 -4.30744 6.56026 0
M  V30 7813 O 1082.54 -6.37042 5.19165 0
M  V30 7814 C 1082.38 -7.83578 5.16515 0
M  V30 7815 C 1082.92 -8.33398 3.83019 0
M  V30 7816 O 1081.86 -8.10074 3.01034 0
M  V30 7817 C 1084.13 -7.65514 3.2257 0
M  V30 7818 O 1084.87 -8.4329 2.32297 0
M  V30 7819 C 1083.47 -6.40075 2.62207 0
M  V30 7820 O 1084.26 -5.92589 1.53712 0
M  V30 7821 C 1082.13 -6.9454 2.18503 0
M  V30 7822 H 1082.16 -7.23063 1.12091 0
M  V30 7823 H 1083.34 -5.6025 3.37201 0
M  V30 7824 H 1084.83 -7.35707 4.02681 0
M  V30 7825 H 1083.13 -9.40912 3.9095 0
M  V30 7826 H 1082.94 -8.29056 5.99158 0
M  V30 7827 H 1081.31 -8.10073 5.25882 0
M  V30 7828 H 1083.95 -6.30324 0.726794 0
M  V30 7829 P 1085.81 -8.4349 2.47671 0
M  V30 7830 O 1087.23 -8.94167 2.5964 0
M  V30 7831 O 1085.45 -7.1704 3.19006 0
M  V30 7832 O 1085.49 -8.16596 0.923387 0
M  V30 7833 C 1085.33 -9.38437 0.108857 0
M  V30 7834 C 1085.87 -9.08175 -1.28353 0
M  V30 7835 O 1084.81 -8.44229 -1.84713 0
M  V30 7836 C 1087.08 -8.18386 -1.42505 0
M  V30 7837 O 1087.82 -8.3501 -2.60497 0
M  V30 7838 C 1086.42 -6.80225 -1.25468 0
M  V30 7839 O 1087.21 -5.81621 -1.91066 0
M  V30 7840 C 1085.08 -7.02416 -1.9168 0
M  V30 7841 H 1085.11 -6.6888 -2.96621 0
M  V30 7842 H 1086.29 -6.53617 -0.192223 0
M  V30 7843 H 1087.78 -8.36622 -0.589963 0
M  V30 7844 H 1086.08 -10.0291 -1.79807 0
M  V30 7845 H 1085.89 -10.2138 0.558219 0
M  V30 7846 H 1084.26 -9.6579 0.0444202 0
M  V30 7847 H 1086.9 -5.69556 -2.79637 0
M  V30 7848 P 1088.76 -8.4349 -2.47671 0
M  V30 7849 O 1090.18 -8.92689 -2.65029 0
M  V30 7850 O 1088.4 -7.7568 -1.19296 0
M  V30 7851 O 1088.44 -7.36886 -3.63805 0
M  V30 7852 C 1088.28 -7.95433 -4.98253 0
M  V30 7853 C 1088.82 -6.94612 -5.98974 0
M  V30 7854 O 1087.76 -6.10277 -6.11744 0
M  V30 7855 C 1090.04 -6.11426 -5.62335 0
M  V30 7856 O 1090.77 -5.6162 -6.70584 0
M  V30 7857 C 1089.37 -5.04409 -4.73308 0
M  V30 7858 O 1090.17 -3.86404 -4.74719 0
M  V30 7859 C 1088.03 -4.8728 -5.41006 0
M  V30 7860 N 1086.99 -4.65812 -4.42377 0
M  V30 7861 C 1087.16 -5.09132 -3.15382 0
M  V30 7862 N 1086.13 -4.84021 -2.3716 0
M  V30 7863 C 1085.24 -4.18386 -3.20441 0
M  V30 7864 C 1083.98 -3.6275 -2.94905 0
M  V30 7865 N 1083.41 -3.05008 -4.05243 0
M  V30 7866 C 1084.01 -2.98348 -5.28159 0
M  V30 7867 N 1085.19 -3.48171 -5.56333 0
M  V30 7868 C 1085.77 -4.06869 -4.47212 0
M  V30 7869 H 1089.24 -5.39013 -3.70026 0
M  V30 7870 H 1090.73 -6.71916 -5.01943 0
M  V30 7871 H 1089.03 -7.45796 -6.94223 0
M  V30 7872 H 1088.84 -8.89416 -5.05237 0
M  V30 7873 H 1087.21 -8.14876 -5.18409 0
M  V30 7874 H 1088.06 -5.59989 -2.81362 0
M  V30 7875 H 1089.85 -3.27906 -5.43085 0
M  V30 7876 P 1091.71 -5.75688 -6.64379 0
M  V30 7877 O 1093.13 -6.07627 -7.05504 0
M  V30 7878 O 1091.35 -5.88047 -5.19722 0
M  V30 7879 O 1091.39 -4.2322 -7.04443 0
M  V30 7880 C 1091.23 -3.99743 -8.4911 0
M  V30 7881 C 1091.77 -2.60516 -8.79425 0
M  V30 7882 O 1090.71 -1.82684 -8.4467 0
M  V30 7883 C 1092.99 -2.10343 -8.03628 0
M  V30 7884 O 1093.72 -1.09919 -8.67766 0
M  V30 7885 C 1092.32 -1.68446 -6.70876 0
M  V30 7886 O 1093.12 -0.678137 -6.08433 0
M  V30 7887 C 1090.98 -1.17436 -7.18567 0
M  V30 7888 H 1091.01 -0.0804732 -7.31656 0
M  V30 7889 H 1092.19 -2.54037 -6.02537 0
M  V30 7890 H 1093.68 -2.93881 -7.85526 0
M  V30 7891 H 1091.98 -2.53065 -9.86973 0
M  V30 7892 H 1091.79 -4.75072 -9.05887 0
M  V30 7893 H 1090.16 -4.05244 -8.76668 0
M  V30 7894 H 1092.8 0.177647 -6.34251 0
M  V30 7895 P 1094.66 -1.25109 -8.70152 0
M  V30 7896 O 1096.08 -1.29744 -9.22016 0
M  V30 7897 O 1094.3 -2.13714 -7.55141 0
M  V30 7898 O 1094.34 0.248149 -8.21425 0
M  V30 7899 C 1094.18 1.22779 -9.30434 0
M  V30 7900 C 1094.72 2.56293 -8.80664 0
M  V30 7901 O 1093.66 3.02979 -8.09349 0
M  V30 7902 C 1095.94 2.57523 -7.89775 0
M  V30 7903 O 1096.67 3.7668 -7.89438 0
M  V30 7904 C 1095.27 2.20997 -6.55446 0
M  V30 7905 O 1096.07 2.71895 -5.48509 0
M  V30 7906 C 1093.93 2.89693 -6.67988 0
M  V30 7907 H 1093.96 3.88793 -6.19859 0
M  V30 7908 H 1095.15 1.12046 -6.44229 0
M  V30 7909 H 1096.63 1.7746 -8.19711 0
M  V30 7910 H 1094.94 3.20706 -9.67112 0
M  V30 7911 H 1094.75 0.901032 -10.1892 0
M  V30 7912 H 1093.12 1.33049 -9.56592 0
M  V30 7913 H 1095.75 3.57847 -5.23962 0
M  V30 7914 P 1097.61 3.65191 -7.99657 0
M  V30 7915 O 1099.03 3.89332 -8.45794 0
M  V30 7916 O 1097.25 2.28472 -7.50807 0
M  V30 7917 O 1097.29 4.64972 -6.77611 0
M  V30 7918 C 1097.13 6.06319 -7.16352 0
M  V30 7919 C 1097.67 6.91731 -6.02299 0
M  V30 7920 O 1096.61 6.92449 -5.17064 0
M  V30 7921 C 1098.89 6.43627 -5.25174 0
M  V30 7922 O 1099.63 7.43686 -4.60469 0
M  V30 7923 C 1098.22 5.40275 -4.31916 0
M  V30 7924 O 1099.02 5.25279 -3.14438 0
M  V30 7925 C 1096.88 6.04847 -4.05327 0
M  V30 7926 H 1096.91 6.62195 -3.11261 0
M  V30 7927 H 1098.1 4.42556 -4.81383 0
M  V30 7928 H 1099.58 5.92458 -5.93643 0
M  V30 7929 H 1097.89 7.92655 -6.402 0
M  V30 7930 H 1097.7 6.26671 -8.0846 0
M  V30 7931 H 1096.07 6.29101 -7.32804 0
M  V30 7932 H 1098.71 5.84315 -2.47318 0
M  V30 7933 P 1100.56 7.39546 -4.75277 0
M  V30 7934 O 1101.98 7.84798 -5.01039 0
M  V30 7935 O 1100.2 5.9812 -5.08098 0
M  V30 7936 O 1100.24 7.57503 -3.1866 0
M  V30 7937 C 1100.08 8.97357 -2.74833 0
M  V30 7938 C 1100.62 9.07548 -1.32709 0
M  V30 7939 O 1099.56 8.62072 -0.606159 0
M  V30 7940 C 1101.84 8.25383 -0.938334 0
M  V30 7941 O 1102.58 8.74577 0.146954 0
M  V30 7942 C 1101.17 6.8802 -0.712559 0
M  V30 7943 O 1101.97 6.1189 0.194655 0
M  V30 7944 C 1099.83 7.27966 -0.139777 0
M  V30 7945 H 1099.86 7.25354 0.961601 0
M  V30 7946 H 1101.05 6.32557 -1.65702 0
M  V30 7947 H 1102.53 8.19355 -1.79097 0
M  V30 7948 H 1100.84 10.1294 -1.10029 0
M  V30 7949 H 1100.65 9.64276 -3.41316 0
M  V30 7950 H 1099.02 9.25417 -2.76357 0
M  V30 7951 H 1101.66 6.25267 1.07847 0
M  V30 7952 P 1103.51 8.791 8.79665e-12 0
M  V30 7953 O 1104.94 9.31096 0.027933 0
M  V30 7954 O 1103.15 7.77869 -1.04071 0
M  V30 7955 O 1103.19 8.09533 1.41463 0
M  V30 7956 C 1103.03 9.0349 2.53943 0
M  V30 7957 C 1103.57 8.35226 3.79016 0
M  V30 7958 O 1102.51 7.57992 4.15078 0
M  V30 7959 C 1104.79 7.45087 3.67298 0
M  V30 7960 O 1105.53 7.27796 4.85194 0
M  V30 7961 C 1104.12 6.17323 3.12027 0
M  V30 7962 O 1104.92 5.04231 3.47188 0
M  V30 7963 C 1102.78 6.19961 3.81809 0
M  V30 7964 H 1102.81 5.58218 4.73051 0
M  V30 7965 H 1104 6.21726 2.02589 0
M  V30 7966 H 1105.48 7.86112 2.9231 0
M  V30 7967 H 1103.79 9.11627 4.55076 0
M  V30 7968 H 1103.6 9.9573 2.34194 0
M  V30 7969 H 1101.97 9.2792 2.67832 0
M  V30 7970 H 1104.61 4.67702 4.28772 0
M  V30 7971 P 1106.46 7.39546 4.75277 0
M  V30 7972 O 1107.89 7.81777 5.05738 0
M  V30 7973 O 1106.1 7.1065 3.32998 0
M  V30 7974 O 1106.14 6.04542 5.56673 0
M  V30 7975 C 1105.98 6.22772 7.02095 0
M  V30 7976 C 1106.52 4.97725 7.70406 0
M  V30 7977 O 1105.46 4.13256 7.58987 0
M  V30 7978 C 1107.74 4.28231 7.11815 0
M  V30 7979 O 1108.48 3.49945 8.01648 0
M  V30 7980 C 1107.07 3.5063 5.96244 0
M  V30 7981 O 1107.87 2.36482 5.64681 0
M  V30 7982 C 1105.73 3.15122 6.56374 0
M  V30 7983 H 1105.76 2.13853 6.99751 0
M  V30 7984 H 1106.95 4.13501 5.06559 0
M  V30 7985 H 1108.43 5.03285 6.70911 0
M  V30 7986 H 1106.74 5.20877 8.75697 0
M  V30 7987 H 1106.55 7.11046 7.35349 0
M  V30 7988 H 1104.92 6.35815 7.26986 0
M  V30 7989 H 1107.56 1.61644 6.13565 0
M  V30 7990 P 1109.41 3.65191 7.99657 0
M  V30 7991 O 1110.84 3.8425 8.48115 0
M  V30 7992 O 1109.05 4.17805 6.64342 0
M  V30 7993 O 1109.09 2.07613 7.95143 0
M  V30 7994 C 1108.93 1.44328 9.27336 0
M  V30 7995 C 1109.47 0.0220036 9.17197 0
M  V30 7996 O 1108.42 -0.626867 8.61923 0
M  V30 7997 C 1110.69 -0.24586 8.30336 0
M  V30 7998 O 1111.43 -1.39011 8.63583 0
M  V30 7999 C 1110.02 -0.273849 6.91158 0
M  V30 8000 O 1110.82 -1.06348 6.02892 0
M  V30 8001 C 1108.68 -0.897649 7.22545 0
M  V30 8002 H 1108.72 -1.9841 7.04286 0
M  V30 8003 H 1109.9 0.739928 6.497 0
M  V30 8004 H 1111.38 0.60668 8.36503 0
M  V30 8005 H 1109.69 -0.352479 10.1829 0
M  V30 8006 H 1109.5 2.00611 10.0304 0
M  V30 8007 H 1107.87 1.41843 9.55327 0
M  V30 8008 H 1110.51 -1.95734 6.03555 0
M  V30 8009 P 1112.36 -1.25109 8.70152 0
M  V30 8010 O 1113.79 -1.35274 9.21221 0
M  V30 8011 O 1112 -0.0769065 7.84762 0
M  V30 8012 O 1112.04 -2.55232 7.81161 0
M  V30 8013 C 1111.88 -3.79939 8.58154 0
M  V30 8014 C 1112.42 -4.94023 7.72785 0
M  V30 8015 O 1111.37 -5.18726 6.91205 0
M  V30 8016 C 1113.64 -4.69597 6.85231 0
M  V30 8017 O 1114.38 -5.83832 6.51337 0
M  V30 8018 C 1112.97 -3.96706 5.66633 0
M  V30 8019 O 1113.77 -4.15414 4.49689 0
M  V30 8020 C 1111.63 -4.66153 5.59313 0
M  V30 8021 H 1111.67 -5.47679 4.85214 0
M  V30 8022 H 1112.85 -2.89008 5.86566 0
M  V30 8023 H 1114.33 -4.0121 7.36511 0
M  V30 8024 H 1112.64 -5.80182 8.37584 0
M  V30 8025 H 1112.45 -3.73517 9.52265 0
M  V30 8026 H 1110.82 -3.97163 8.80359 0
M  V30 8027 H 1113.46 -4.90969 4.01921 0
M  V30 8028 P 1115.32 -5.75688 6.64379 0
M  V30 8029 O 1116.74 -6.11981 7.01997 0
M  V30 8030 O 1114.96 -4.30744 6.56026 0
M  V30 8031 O 1114.99 -6.37042 5.19165 0
M  V30 8032 C 1114.83 -7.83578 5.16515 0
M  V30 8033 C 1115.37 -8.33307 3.82977 0
M  V30 8034 O 1114.32 -8.10074 3.01034 0
M  V30 8035 C 1116.59 -7.65514 3.2257 0
M  V30 8036 O 1117.33 -8.4329 2.32297 0
M  V30 8037 C 1115.92 -6.40075 2.62207 0
M  V30 8038 O 1116.72 -5.92492 1.53687 0
M  V30 8039 C 1114.58 -6.9454 2.18503 0
M  V30 8040 N 1113.54 -5.95905 2.39948 0
M  V30 8041 C 1113.6 -5.13994 3.44742 0
M  V30 8042 N 1112.56 -4.30684 3.46712 0
M  V30 8043 C 1111.82 -4.65583 2.41086 0
M  V30 8044 C 1110.52 -4.20877 1.99581 0
M  V30 8045 O 1109.79 -3.35913 2.52616 0
M  V30 8046 N 1110.09 -4.83271 0.873406 0
M  V30 8047 C 1110.84 -5.82006 0.185129 0
M  V30 8048 N 1110.24 -6.30619 -0.95439 0
M  V30 8049 N 1111.99 -6.28443 0.578524 0
M  V30 8050 C 1112.45 -5.68486 1.70138 0
M  V30 8051 H 1114.62 -7.23063 1.12091 0
M  V30 8052 H 1115.8 -5.60165 3.3715 0
M  V30 8053 H 1117.28 -7.3611 4.01946 0
M  V30 8054 H 1115.59 -9.40912 3.9095 0
M  V30 8055 H 1115.4 -8.29056 5.99158 0
M  V30 8056 H 1113.77 -8.10073 5.25882 0
M  V30 8057 H 1109.19 -4.58323 0.505262 0
M  V30 8058 H 1114.4 -5.14564 4.1935 0
M  V30 8059 H 1109.33 -5.93402 -1.25364 0
M  V30 8060 H 1110.71 -7.0425 -1.50254 0
M  V30 8061 H 1116.41 -6.30224 0.72668 0
M  V30 8062 P 1118.27 -8.4349 2.47671 0
M  V30 8063 O 1119.69 -8.94263 2.59668 0
M  V30 8064 O 1117.91 -7.1704 3.19006 0
M  V30 8065 O 1117.94 -8.16596 0.923387 0
M  V30 8066 C 1117.78 -9.38537 0.108869 0
M  V30 8067 C 1118.32 -9.08175 -1.28353 0
M  V30 8068 O 1117.27 -8.44131 -1.84692 0
M  V30 8069 C 1119.54 -8.18386 -1.42505 0
M  V30 8070 O 1120.28 -8.3501 -2.60497 0
M  V30 8071 C 1118.87 -6.80225 -1.25468 0
M  V30 8072 O 1119.67 -5.81716 -1.90454 0
M  V30 8073 C 1117.54 -7.02416 -1.9168 0
M  V30 8074 N 1116.49 -6.31033 -1.20314 0
M  V30 8075 C 1116.66 -5.98817 0.0994088 0
M  V30 8076 N 1115.63 -5.35403 0.621694 0
M  V30 8077 C 1114.75 -5.25212 -0.43376 0
M  V30 8078 C 1113.48 -4.64602 -0.519722 0
M  V30 8079 N 1112.92 -4.7568 -1.76013 0
M  V30 8080 C 1113.52 -5.3653 -2.83017 0
M  V30 8081 N 1114.7 -5.93676 -2.79782 0
M  V30 8082 C 1115.27 -5.84061 -1.56249 0
M  V30 8083 H 1118.75 -6.53498 -0.198729 0
M  V30 8084 H 1120.23 -8.36622 -0.589963 0
M  V30 8085 H 1118.54 -10.0273 -1.8081 0
M  V30 8086 H 1118.35 -10.2138 0.558219 0
M  V30 8087 H 1116.72 -9.6579 0.0444202 0
M  V30 8088 H 1117.56 -6.23209 0.660562 0
M  V30 8089 H 1119.36 -5.69466 -2.79593 0
M  V30 8090 P 1121.22 -8.4349 -2.47671 0
M  V30 8091 O 1122.64 -8.92785 -2.65057 0
M  V30 8092 O 1120.86 -7.7568 -1.19296 0
M  V30 8093 O 1120.89 -7.36886 -3.63805 0
M  V30 8094 C 1120.73 -7.95349 -4.982 0
M  V30 8095 C 1121.27 -6.94537 -5.98908 0
M  V30 8096 O 1120.22 -6.10347 -6.11815 0
M  V30 8097 C 1122.49 -6.11426 -5.62335 0
M  V30 8098 O 1123.23 -5.6162 -6.70584 0
M  V30 8099 C 1121.82 -5.04409 -4.73308 0
M  V30 8100 O 1122.62 -3.85929 -4.75106 0
M  V30 8101 C 1120.49 -4.8728 -5.41006 0
M  V30 8102 N 1119.44 -4.65812 -4.42377 0
M  V30 8103 C 1119.5 -5.27109 -3.24335 0
M  V30 8104 N 1118.46 -4.94293 -2.47735 0
M  V30 8105 C 1117.73 -4.1271 -3.23359 0
M  V30 8106 C 1116.42 -3.56384 -2.99934 0
M  V30 8107 O 1115.69 -3.69331 -2.00616 0
M  V30 8108 N 1115.99 -2.80206 -4.03316 0
M  V30 8109 C 1116.74 -2.58614 -5.2172 0
M  V30 8110 N 1116.14 -1.75154 -6.13278 0
M  V30 8111 N 1117.89 -3.13689 -5.47619 0
M  V30 8112 C 1118.35 -3.90921 -4.46436 0
M  V30 8113 H 1120.52 -4.02333 -6.11157 0
M  V30 8114 H 1121.7 -5.39383 -3.69487 0
M  V30 8115 H 1123.19 -6.71414 -5.02615 0
M  V30 8116 H 1121.49 -7.4649 -6.93477 0
M  V30 8117 H 1121.3 -8.89416 -5.05237 0
M  V30 8118 H 1119.67 -8.14876 -5.18409 0
M  V30 8119 H 1115.09 -2.36355 -3.95916 0
M  V30 8120 H 1120.3 -5.95212 -2.93859 0
M  V30 8121 H 1115.23 -1.32473 -5.91856 0
M  V30 8122 H 1116.61 -1.5588 -7.03026 0
M  V30 8123 H 1122.31 -3.27906 -5.43085 0
M  V30 8124 P 1124.17 -5.75688 -6.64379 0
M  V30 8125 O 1125.59 -6.07627 -7.05504 0
M  V30 8126 O 1123.81 -5.88047 -5.19722 0
M  V30 8127 O 1123.84 -4.2322 -7.04443 0
M  V30 8128 C 1123.68 -3.99743 -8.4911 0
M  V30 8129 C 1124.22 -2.60516 -8.79425 0
M  V30 8130 O 1123.17 -1.82684 -8.4467 0
M  V30 8131 C 1125.44 -2.10343 -8.03628 0
M  V30 8132 O 1126.18 -1.09919 -8.67766 0
M  V30 8133 C 1124.77 -1.68446 -6.70876 0
M  V30 8134 O 1125.57 -0.678137 -6.08433 0
M  V30 8135 C 1123.44 -1.17436 -7.18567 0
M  V30 8136 H 1123.47 -0.0804732 -7.31656 0
M  V30 8137 H 1124.65 -2.54037 -6.02537 0
M  V30 8138 H 1126.14 -2.93881 -7.85526 0
M  V30 8139 H 1124.44 -2.53065 -9.86973 0
M  V30 8140 H 1124.25 -4.75072 -9.05887 0
M  V30 8141 H 1122.62 -4.05244 -8.76668 0
M  V30 8142 H 1125.26 0.177647 -6.34251 0
M  V30 8143 P 1127.12 -1.25109 -8.70152 0
M  V30 8144 O 1128.54 -1.29744 -9.22016 0
M  V30 8145 O 1126.76 -2.13714 -7.55141 0
M  V30 8146 O 1126.79 0.248149 -8.21425 0
M  V30 8147 C 1126.63 1.22779 -9.30434 0
M  V30 8148 C 1127.17 2.56293 -8.80664 0
M  V30 8149 O 1126.12 3.02979 -8.09349 0
M  V30 8150 C 1128.39 2.57523 -7.89775 0
M  V30 8151 O 1129.13 3.7668 -7.89438 0
M  V30 8152 C 1127.72 2.20997 -6.55446 0
M  V30 8153 O 1128.52 2.71895 -5.48509 0
M  V30 8154 C 1126.39 2.89693 -6.67988 0
M  V30 8155 H 1126.42 3.88793 -6.19859 0
M  V30 8156 H 1127.6 1.12046 -6.44229 0
M  V30 8157 H 1129.09 1.7746 -8.19711 0
M  V30 8158 H 1127.39 3.20706 -9.67112 0
M  V30 8159 H 1127.2 0.901032 -10.1892 0
M  V30 8160 H 1125.57 1.33049 -9.56592 0
M  V30 8161 H 1128.21 3.57847 -5.23962 0
M  V30 8162 P 1130.07 3.65191 -7.99657 0
M  V30 8163 O 1131.49 3.89332 -8.45794 0
M  V30 8164 O 1129.71 2.28472 -7.50807 0
M  V30 8165 O 1129.75 4.64972 -6.77611 0
M  V30 8166 C 1129.59 6.06319 -7.16352 0
M  V30 8167 C 1130.13 6.91731 -6.02299 0
M  V30 8168 O 1129.07 6.92449 -5.17064 0
M  V30 8169 C 1131.34 6.43627 -5.25174 0
M  V30 8170 O 1132.08 7.43686 -4.60469 0
M  V30 8171 C 1130.67 5.40275 -4.31916 0
M  V30 8172 O 1131.47 5.25279 -3.14438 0
M  V30 8173 C 1129.34 6.04847 -4.05327 0
M  V30 8174 H 1129.37 6.62195 -3.11261 0
M  V30 8175 H 1130.55 4.42556 -4.81383 0
M  V30 8176 H 1132.04 5.92458 -5.93643 0
M  V30 8177 H 1130.34 7.92655 -6.402 0
M  V30 8178 H 1130.15 6.26671 -8.0846 0
M  V30 8179 H 1128.52 6.29101 -7.32804 0
M  V30 8180 H 1131.16 5.84315 -2.47318 0
M  V30 8181 P 1133.02 7.39546 -4.75277 0
M  V30 8182 O 1134.44 7.84798 -5.01039 0
M  V30 8183 O 1132.66 5.9812 -5.08098 0
M  V30 8184 O 1132.7 7.57503 -3.1866 0
M  V30 8185 C 1132.54 8.97357 -2.74833 0
M  V30 8186 C 1133.08 9.07548 -1.32709 0
M  V30 8187 O 1132.02 8.62072 -0.606159 0
M  V30 8188 C 1134.29 8.25383 -0.938334 0
M  V30 8189 O 1135.03 8.74577 0.146954 0
M  V30 8190 C 1133.62 6.8802 -0.712559 0
M  V30 8191 O 1134.42 6.1189 0.194655 0
M  V30 8192 C 1132.29 7.27966 -0.139777 0
M  V30 8193 H 1132.32 7.25354 0.961601 0
M  V30 8194 H 1133.5 6.32557 -1.65702 0
M  V30 8195 H 1134.99 8.19355 -1.79097 0
M  V30 8196 H 1133.29 10.1294 -1.10029 0
M  V30 8197 H 1133.1 9.64276 -3.41316 0
M  V30 8198 H 1131.47 9.25417 -2.76357 0
M  V30 8199 H 1134.11 6.25267 1.07847 0
M  V30 8200 P 1135.97 8.791 9.10682e-12 0
M  V30 8201 O 1137.39 9.31196 0.027936 0
M  V30 8202 O 1135.61 7.77869 -1.04071 0
M  V30 8203 O 1135.65 8.09533 1.41463 0
M  V30 8204 C 1135.49 9.03587 2.5397 0
M  V30 8205 C 1136.03 8.35226 3.79016 0
M  V30 8206 O 1134.97 7.57904 4.1503 0
M  V30 8207 C 1137.24 7.45087 3.67298 0
M  V30 8208 O 1137.98 7.27796 4.85194 0
M  V30 8209 C 1136.58 6.17323 3.12027 0
M  V30 8210 O 1137.37 5.04496 3.46627 0
M  V30 8211 C 1135.24 6.19961 3.81809 0
M  V30 8212 N 1134.2 5.71575 2.93223 0
M  V30 8213 C 1134.36 5.77362 1.59168 0
M  V30 8214 N 1133.34 5.3123 0.911893 0
M  V30 8215 C 1132.45 4.91717 1.89588 0
M  V30 8216 C 1131.19 4.3114 1.8076 0
M  V30 8217 N 1130.62 4.06823 3.02898 0
M  V30 8218 C 1131.22 4.35062 4.22711 0
M  V30 8219 N 1132.4 4.90805 4.35707 0
M  V30 8220 C 1132.97 5.16382 3.14469 0
M  V30 8221 H 1136.45 6.21428 2.0318 0
M  V30 8222 H 1137.94 7.86112 2.9231 0
M  V30 8223 H 1136.24 9.11171 4.55987 0
M  V30 8224 H 1136.05 9.9573 2.34194 0
M  V30 8225 H 1134.42 9.2792 2.67832 0
M  V30 8226 H 1135.26 6.16575 1.12198 0
M  V30 8227 H 1137.06 4.67628 4.28704 0
M  V30 8228 P 1138.92 7.39546 4.75277 0
M  V30 8229 O 1140.34 7.81777 5.05738 0
M  V30 8230 O 1138.56 7.1065 3.32998 0
M  V30 8231 O 1138.6 6.04542 5.56673 0
M  V30 8232 C 1138.44 6.22772 7.02095 0
M  V30 8233 C 1138.98 4.97725 7.70406 0
M  V30 8234 O 1137.92 4.13256 7.58987 0
M  V30 8235 C 1140.2 4.28231 7.11815 0
M  V30 8236 O 1140.93 3.49945 8.01648 0
M  V30 8237 C 1139.53 3.5063 5.96244 0
M  V30 8238 O 1140.33 2.36482 5.64681 0
M  V30 8239 C 1138.19 3.15122 6.56374 0
M  V30 8240 H 1138.22 2.13853 6.99751 0
M  V30 8241 H 1139.4 4.13501 5.06559 0
M  V30 8242 H 1140.89 5.03285 6.70911 0
M  V30 8243 H 1139.19 5.20877 8.75697 0
M  V30 8244 H 1139 7.11046 7.35349 0
M  V30 8245 H 1137.37 6.35815 7.26986 0
M  V30 8246 H 1140.01 1.61644 6.13565 0
M  V30 8247 P 1141.87 3.65191 7.99657 0
M  V30 8248 O 1143.29 3.8425 8.48115 0
M  V30 8249 O 1141.51 4.17805 6.64342 0
M  V30 8250 O 1141.55 2.07613 7.95143 0
M  V30 8251 C 1141.39 1.44328 9.27336 0
M  V30 8252 C 1141.93 0.0220036 9.17197 0
M  V30 8253 O 1140.87 -0.626867 8.61923 0
M  V30 8254 C 1143.15 -0.24586 8.30336 0
M  V30 8255 O 1143.88 -1.39011 8.63583 0
M  V30 8256 C 1142.48 -0.273849 6.91158 0
M  V30 8257 O 1143.28 -1.06348 6.02892 0
M  V30 8258 C 1141.14 -0.897649 7.22545 0
M  V30 8259 H 1141.17 -1.9841 7.04286 0
M  V30 8260 H 1142.35 0.739928 6.497 0
M  V30 8261 H 1143.84 0.60668 8.36503 0
M  V30 8262 H 1142.14 -0.352479 10.1829 0
M  V30 8263 H 1141.95 2.00611 10.0304 0
M  V30 8264 H 1140.32 1.41843 9.55327 0
M  V30 8265 H 1142.96 -1.95734 6.03555 0
M  V30 8266 P 1144.82 -1.25109 8.70152 0
M  V30 8267 O 1146.24 -1.35274 9.21221 0
M  V30 8268 O 1144.46 -0.0769065 7.84762 0
M  V30 8269 O 1144.5 -2.55232 7.81161 0
M  V30 8270 C 1144.34 -3.79939 8.58154 0
M  V30 8271 C 1144.88 -4.94023 7.72785 0
M  V30 8272 O 1143.82 -5.18726 6.91205 0
M  V30 8273 C 1146.1 -4.69597 6.85231 0
M  V30 8274 O 1146.83 -5.83832 6.51337 0
M  V30 8275 C 1145.43 -3.96706 5.66633 0
M  V30 8276 O 1146.23 -4.15414 4.49689 0
M  V30 8277 C 1144.09 -4.66153 5.59313 0
M  V30 8278 H 1144.12 -5.47679 4.85214 0
M  V30 8279 H 1145.31 -2.89008 5.86566 0
M  V30 8280 H 1146.79 -4.0121 7.36511 0
M  V30 8281 H 1145.1 -5.80182 8.37584 0
M  V30 8282 H 1144.91 -3.73517 9.52265 0
M  V30 8283 H 1143.28 -3.97163 8.80359 0
M  V30 8284 H 1145.91 -4.90969 4.01921 0
M  V30 8285 P 1147.77 -5.75688 6.64379 0
M  V30 8286 O 1149.19 -6.11849 7.01846 0
M  V30 8287 O 1147.41 -4.30744 6.56026 0
M  V30 8288 O 1147.45 -6.37042 5.19165 0
M  V30 8289 C 1147.29 -7.83578 5.16515 0
M  V30 8290 C 1147.83 -8.33398 3.83019 0
M  V30 8291 O 1146.77 -8.10074 3.01034 0
M  V30 8292 C 1149.05 -7.65514 3.2257 0
M  V30 8293 O 1149.78 -8.4329 2.32297 0
M  V30 8294 C 1148.38 -6.40075 2.62207 0
M  V30 8295 O 1149.18 -5.92589 1.53712 0
M  V30 8296 C 1147.04 -6.9454 2.18503 0
M  V30 8297 H 1147.07 -7.23063 1.12091 0
M  V30 8298 H 1148.26 -5.6025 3.37201 0
M  V30 8299 H 1149.74 -7.35707 4.02681 0
M  V30 8300 H 1148.05 -9.40912 3.9095 0
M  V30 8301 H 1147.86 -8.29056 5.99158 0
M  V30 8302 H 1146.23 -8.10073 5.25882 0
M  V30 8303 H 1148.86 -6.30324 0.726794 0
M  V30 8304 P 1150.72 -8.4349 2.47671 0
M  V30 8305 O 1152.14 -8.94167 2.5964 0
M  V30 8306 O 1150.36 -7.1704 3.19006 0
M  V30 8307 O 1150.4 -8.16596 0.923387 0
M  V30 8308 C 1150.24 -9.38437 0.108857 0
M  V30 8309 C 1150.78 -9.08175 -1.28353 0
M  V30 8310 O 1149.72 -8.44229 -1.84713 0
M  V30 8311 C 1152 -8.18386 -1.42505 0
M  V30 8312 O 1152.74 -8.3501 -2.60497 0
M  V30 8313 C 1151.33 -6.80225 -1.25468 0
M  V30 8314 O 1152.13 -5.81621 -1.91066 0
M  V30 8315 C 1149.99 -7.02416 -1.9168 0
M  V30 8316 H 1150.02 -6.6888 -2.96621 0
M  V30 8317 H 1151.21 -6.53617 -0.192223 0
M  V30 8318 H 1152.69 -8.36622 -0.589963 0
M  V30 8319 H 1151 -10.0291 -1.79807 0
M  V30 8320 H 1150.81 -10.2138 0.558219 0
M  V30 8321 H 1149.18 -9.6579 0.0444202 0
M  V30 8322 H 1151.82 -5.69556 -2.79637 0
M  V30 8323 P 1153.67 -8.4349 -2.47671 0
M  V30 8324 O 1155.09 -8.92593 -2.65 0
M  V30 8325 O 1153.31 -7.7568 -1.19296 0
M  V30 8326 O 1153.35 -7.36886 -3.63805 0
M  V30 8327 C 1153.19 -7.95349 -4.982 0
M  V30 8328 C 1153.73 -6.94612 -5.98974 0
M  V30 8329 O 1152.67 -6.10347 -6.11815 0
M  V30 8330 C 1154.95 -6.11426 -5.62335 0
M  V30 8331 O 1155.69 -5.6162 -6.70584 0
M  V30 8332 C 1154.28 -5.04409 -4.73308 0
M  V30 8333 O 1155.08 -3.85992 -4.75183 0
M  V30 8334 C 1152.94 -4.8728 -5.41006 0
M  V30 8335 H 1152.97 -4.02333 -6.11157 0
M  V30 8336 H 1154.16 -5.39466 -3.69543 0
M  V30 8337 H 1155.64 -6.71916 -5.01943 0
M  V30 8338 H 1153.95 -7.4649 -6.93477 0
M  V30 8339 H 1153.76 -8.89416 -5.05237 0
M  V30 8340 H 1152.13 -8.14876 -5.18409 0
M  V30 8341 H 1154.77 -3.27957 -5.4317 0
M  V30 8342 P 1156.62 -5.75688 -6.64379 0
M  V30 8343 O 1158.02 -6.14823 -7.06682 0
M  V30 8344 O 1156.25 -5.93957 -5.20728 0
M  V30 8345 O 1156.3 -4.23169 -7.04357 0
M  V30 8346 C 1156.14 -3.99743 -8.4911 0
M  V30 8347 C 1156.68 -2.60487 -8.79329 0
M  V30 8348 O 1155.62 -1.82663 -8.44573 0
M  V30 8349 C 1157.9 -2.10343 -8.03628 0
M  V30 8350 O 1158.64 -1.09919 -8.67766 0
M  V30 8351 C 1157.23 -1.68446 -6.70876 0
M  V30 8352 O 1158.03 -0.678026 -6.08333 0
M  V30 8353 C 1155.89 -1.17436 -7.18567 0
M  V30 8354 N 1154.85 -1.52699 -6.23988 0
M  V30 8355 C 1153.81 -0.643793 -6.05085 0
M  V30 8356 O 1153.85 0.459118 -6.64315 0
M  V30 8357 N 1152.8 -0.976931 -5.22038 0
M  V30 8358 C 1152.85 -2.14429 -4.56662 0
M  V30 8359 C 1153.95 -3.04203 -4.71481 0
M  V30 8360 C 1154.91 -2.69669 -5.56838 0
M  V30 8361 H 1155.92 -0.0804622 -7.31556 0
M  V30 8362 H 1157.11 -2.53396 -6.02698 0
M  V30 8363 H 1158.59 -2.9313 -7.85914 0
M  V30 8364 H 1156.9 -2.52078 -9.87225 0
M  V30 8365 H 1156.71 -4.75072 -9.05887 0
M  V30 8366 H 1155.08 -4.05202 -8.76577 0
M  V30 8367 H 1153.99 -3.97309 -4.15519 0
M  V30 8368 H 1155.76 -3.36869 -5.72318 0
M  V30 8369 H 1157.81 0.167718 -6.44882 0
M  V30 8370 P 1159.57 -1.25109 -8.70152 0
M  V30 8371 O 1161 -1.29744 -9.22016 0
M  V30 8372 O 1159.21 -2.13714 -7.55141 0
M  V30 8373 O 1159.25 0.248149 -8.21425 0
M  V30 8374 C 1159.09 1.22779 -9.30434 0
M  V30 8375 C 1159.63 2.56293 -8.80664 0
M  V30 8376 O 1158.58 3.02979 -8.09349 0
M  V30 8377 C 1160.85 2.57523 -7.89775 0
M  V30 8378 O 1161.59 3.7668 -7.89438 0
M  V30 8379 C 1160.18 2.20997 -6.55446 0
M  V30 8380 O 1160.98 2.71895 -5.48509 0
M  V30 8381 C 1158.84 2.89693 -6.67988 0
M  V30 8382 H 1158.88 3.88793 -6.19859 0
M  V30 8383 H 1160.06 1.12046 -6.44229 0
M  V30 8384 H 1161.54 1.7746 -8.19711 0
M  V30 8385 H 1159.85 3.20706 -9.67112 0
M  V30 8386 H 1159.66 0.901032 -10.1892 0
M  V30 8387 H 1158.03 1.33049 -9.56592 0
M  V30 8388 H 1160.67 3.57847 -5.23962 0
M  V30 8389 P 1162.52 3.65191 -7.99657 0
M  V30 8390 O 1163.95 3.89332 -8.45794 0
M  V30 8391 O 1162.16 2.28472 -7.50807 0
M  V30 8392 O 1162.2 4.64972 -6.77611 0
M  V30 8393 C 1162.04 6.06319 -7.16352 0
M  V30 8394 C 1162.58 6.91731 -6.02299 0
M  V30 8395 O 1161.53 6.92449 -5.17064 0
M  V30 8396 C 1163.8 6.43627 -5.25174 0
M  V30 8397 O 1164.54 7.43686 -4.60469 0
M  V30 8398 C 1163.13 5.40275 -4.31916 0
M  V30 8399 O 1163.93 5.25279 -3.14438 0
M  V30 8400 C 1161.79 6.04847 -4.05327 0
M  V30 8401 H 1161.83 6.62195 -3.11261 0
M  V30 8402 H 1163.01 4.42556 -4.81383 0
M  V30 8403 H 1164.49 5.92458 -5.93643 0
M  V30 8404 H 1162.8 7.92655 -6.402 0
M  V30 8405 H 1162.61 6.26671 -8.0846 0
M  V30 8406 H 1160.98 6.29101 -7.32804 0
M  V30 8407 H 1163.62 5.84315 -2.47318 0
M  V30 8408 P 1165.48 7.39546 -4.75277 0
M  V30 8409 O 1166.9 7.84798 -5.01039 0
M  V30 8410 O 1165.12 5.9812 -5.08098 0
M  V30 8411 O 1165.15 7.57503 -3.1866 0
M  V30 8412 C 1164.99 8.97357 -2.74833 0
M  V30 8413 C 1165.53 9.07548 -1.32709 0
M  V30 8414 O 1164.48 8.62072 -0.606159 0
M  V30 8415 C 1166.75 8.25383 -0.938334 0
M  V30 8416 O 1167.49 8.74577 0.146954 0
M  V30 8417 C 1166.08 6.8802 -0.712559 0
M  V30 8418 O 1166.88 6.1189 0.194655 0
M  V30 8419 C 1164.74 7.27966 -0.139777 0
M  V30 8420 H 1164.78 7.25354 0.961601 0
M  V30 8421 H 1165.96 6.32557 -1.65702 0
M  V30 8422 H 1167.44 8.19355 -1.79097 0
M  V30 8423 H 1165.75 10.1294 -1.10029 0
M  V30 8424 H 1165.56 9.64276 -3.41316 0
M  V30 8425 H 1163.93 9.25417 -2.76357 0
M  V30 8426 H 1166.57 6.25267 1.07847 0
M  V30 8427 P 1168.43 8.791 9.41699e-12 0
M  V30 8428 O 1169.85 9.31096 0.027933 0
M  V30 8429 O 1168.07 7.77869 -1.04071 0
M  V30 8430 O 1168.1 8.09533 1.41463 0
M  V30 8431 C 1167.94 9.0349 2.53943 0
M  V30 8432 C 1168.48 8.35226 3.79016 0
M  V30 8433 O 1167.43 7.57992 4.15078 0
M  V30 8434 C 1169.7 7.45087 3.67298 0
M  V30 8435 O 1170.44 7.27796 4.85194 0
M  V30 8436 C 1169.03 6.17323 3.12027 0
M  V30 8437 O 1169.83 5.04231 3.47188 0
M  V30 8438 C 1167.69 6.19961 3.81809 0
M  V30 8439 H 1167.73 5.58218 4.73051 0
M  V30 8440 H 1168.91 6.21726 2.02589 0
M  V30 8441 H 1170.39 7.86112 2.9231 0
M  V30 8442 H 1168.7 9.11627 4.55076 0
M  V30 8443 H 1168.51 9.9573 2.34194 0
M  V30 8444 H 1166.88 9.2792 2.67832 0
M  V30 8445 H 1169.52 4.67702 4.28772 0
M  V30 8446 P 1171.38 7.39546 4.75277 0
M  V30 8447 O 1172.8 7.81777 5.05738 0
M  V30 8448 O 1171.02 7.1065 3.32998 0
M  V30 8449 O 1171.05 6.04542 5.56673 0
M  V30 8450 C 1170.89 6.22772 7.02095 0
M  V30 8451 C 1171.43 4.97725 7.70406 0
M  V30 8452 O 1170.38 4.13256 7.58987 0
M  V30 8453 C 1172.65 4.28231 7.11815 0
M  V30 8454 O 1173.39 3.49945 8.01648 0
M  V30 8455 C 1171.98 3.5063 5.96244 0
M  V30 8456 O 1172.78 2.36482 5.64681 0
M  V30 8457 C 1170.65 3.15122 6.56374 0
M  V30 8458 H 1170.68 2.13853 6.99751 0
M  V30 8459 H 1171.86 4.13501 5.06559 0
M  V30 8460 H 1173.34 5.03285 6.70911 0
M  V30 8461 H 1171.65 5.20877 8.75697 0
M  V30 8462 H 1171.46 7.11046 7.35349 0
M  V30 8463 H 1169.83 6.35815 7.26986 0
M  V30 8464 H 1172.47 1.61644 6.13565 0
M  V30 8465 P 1174.33 3.65191 7.99657 0
M  V30 8466 O 1175.75 3.8425 8.48115 0
M  V30 8467 O 1173.97 4.17805 6.64342 0
M  V30 8468 O 1174 2.07613 7.95143 0
M  V30 8469 C 1173.84 1.44328 9.27336 0
M  V30 8470 C 1174.38 0.0220036 9.17197 0
M  V30 8471 O 1173.33 -0.626867 8.61923 0
M  V30 8472 C 1175.6 -0.24586 8.30336 0
M  V30 8473 O 1176.34 -1.39011 8.63583 0
M  V30 8474 C 1174.93 -0.273849 6.91158 0
M  V30 8475 O 1175.73 -1.06348 6.02892 0
M  V30 8476 C 1173.6 -0.897649 7.22545 0
M  V30 8477 H 1173.63 -1.9841 7.04286 0
M  V30 8478 H 1174.81 0.739928 6.497 0
M  V30 8479 H 1176.29 0.60668 8.36503 0
M  V30 8480 H 1174.6 -0.352479 10.1829 0
M  V30 8481 H 1174.41 2.00611 10.0304 0
M  V30 8482 H 1172.78 1.41843 9.55327 0
M  V30 8483 H 1175.42 -1.95734 6.03555 0
M  V30 8484 P 1177.28 -1.25109 8.70152 0
M  V30 8485 O 1178.7 -1.35274 9.21221 0
M  V30 8486 O 1176.92 -0.0769065 7.84762 0
M  V30 8487 O 1176.95 -2.55232 7.81161 0
M  V30 8488 C 1176.79 -3.79939 8.58154 0
M  V30 8489 C 1177.33 -4.94023 7.72785 0
M  V30 8490 O 1176.28 -5.18726 6.91205 0
M  V30 8491 C 1178.55 -4.69597 6.85231 0
M  V30 8492 O 1179.29 -5.83832 6.51337 0
M  V30 8493 C 1177.88 -3.96706 5.66633 0
M  V30 8494 O 1178.68 -4.15414 4.49689 0
M  V30 8495 C 1176.55 -4.66153 5.59313 0
M  V30 8496 H 1176.58 -5.47679 4.85214 0
M  V30 8497 H 1177.76 -2.89008 5.86566 0
M  V30 8498 H 1179.25 -4.0121 7.36511 0
M  V30 8499 H 1177.55 -5.80182 8.37584 0
M  V30 8500 H 1177.36 -3.73517 9.52265 0
M  V30 8501 H 1175.73 -3.97163 8.80359 0
M  V30 8502 H 1178.37 -4.90969 4.01921 0
M  V30 8503 P 1180.23 -5.75688 6.64379 0
M  V30 8504 O 1181.65 -6.11849 7.01846 0
M  V30 8505 O 1179.87 -4.30744 6.56026 0
M  V30 8506 O 1179.9 -6.37042 5.19165 0
M  V30 8507 C 1179.74 -7.83578 5.16515 0
M  V30 8508 C 1180.28 -8.33398 3.83019 0
M  V30 8509 O 1179.23 -8.10074 3.01034 0
M  V30 8510 C 1181.5 -7.65514 3.2257 0
M  V30 8511 O 1182.24 -8.4329 2.32297 0
M  V30 8512 C 1180.83 -6.40075 2.62207 0
M  V30 8513 O 1181.63 -5.92589 1.53712 0
M  V30 8514 C 1179.5 -6.9454 2.18503 0
M  V30 8515 H 1179.53 -7.23063 1.12091 0
M  V30 8516 H 1180.71 -5.6025 3.37201 0
M  V30 8517 H 1182.2 -7.35707 4.02681 0
M  V30 8518 H 1180.5 -9.40912 3.9095 0
M  V30 8519 H 1180.31 -8.29056 5.99158 0
M  V30 8520 H 1178.68 -8.10073 5.25882 0
M  V30 8521 H 1181.32 -6.30324 0.726794 0
M  V30 8522 P 1183.18 -8.4349 2.47671 0
M  V30 8523 O 1184.58 -8.98227 2.65696 0
M  V30 8524 O 1182.8 -7.20409 3.23964 0
M  V30 8525 O 1182.86 -8.16496 0.923275 0
M  V30 8526 C 1182.7 -9.38437 0.108857 0
M  V30 8527 C 1183.24 -9.08076 -1.28339 0
M  V30 8528 O 1182.18 -8.44131 -1.84692 0
M  V30 8529 C 1184.45 -8.18386 -1.42505 0
M  V30 8530 O 1185.19 -8.3501 -2.60497 0
M  V30 8531 C 1183.79 -6.80225 -1.25468 0
M  V30 8532 O 1184.58 -5.81526 -1.91035 0
M  V30 8533 C 1182.45 -7.02416 -1.9168 0
M  V30 8534 N 1181.4 -6.31033 -1.20314 0
M  V30 8535 C 1180.37 -5.77149 -1.928 0
M  V30 8536 O 1180.41 -5.8521 -3.17729 0
M  V30 8537 N 1179.36 -5.15445 -1.27997 0
M  V30 8538 C 1179.41 -5.04472 0.0534726 0
M  V30 8539 C 1180.5 -5.55244 0.808522 0
M  V30 8540 C 1181.47 -6.18542 0.13981 0
M  V30 8541 H 1182.48 -6.68789 -2.9658 0
M  V30 8542 H 1183.66 -6.53498 -0.198729 0
M  V30 8543 H 1185.15 -8.36663 -0.5984 0
M  V30 8544 H 1183.45 -10.0273 -1.8081 0
M  V30 8545 H 1183.26 -10.2138 0.558219 0
M  V30 8546 H 1181.63 -9.6569 0.0444156 0
M  V30 8547 H 1180.55 -5.43017 1.88792 0
M  V30 8548 H 1182.31 -6.60539 0.686773 0
M  V30 8549 H 1184.37 -5.79638 -2.8315 0
M  V30 8550 P 1186.13 -8.4349 -2.47671 0
M  V30 8551 O 1187.55 -8.92593 -2.65 0
M  V30 8552 O 1185.77 -7.7568 -1.19296 0
M  V30 8553 O 1185.81 -7.36886 -3.63805 0
M  V30 8554 C 1185.65 -7.95349 -4.982 0
M  V30 8555 C 1186.19 -6.94612 -5.98974 0
M  V30 8556 O 1185.13 -6.10347 -6.11815 0
M  V30 8557 C 1187.4 -6.11426 -5.62335 0
M  V30 8558 O 1188.14 -5.6162 -6.70584 0
M  V30 8559 C 1186.74 -5.04409 -4.73308 0
M  V30 8560 O 1187.53 -3.85992 -4.75183 0
M  V30 8561 C 1185.4 -4.8728 -5.41006 0
M  V30 8562 H 1185.43 -4.02333 -6.11157 0
M  V30 8563 H 1186.61 -5.39466 -3.69543 0
M  V30 8564 H 1188.1 -6.71916 -5.01943 0
M  V30 8565 H 1186.4 -7.4649 -6.93477 0
M  V30 8566 H 1186.21 -8.89416 -5.05237 0
M  V30 8567 H 1184.58 -8.14876 -5.18409 0
M  V30 8568 H 1187.22 -3.27957 -5.4317 0
M  V30 8569 P 1189.08 -5.75688 -6.64379 0
M  V30 8570 O 1190.5 -6.07627 -7.05504 0
M  V30 8571 O 1188.72 -5.88047 -5.19722 0
M  V30 8572 O 1188.76 -4.2322 -7.04443 0
M  V30 8573 C 1188.6 -3.99743 -8.4911 0
M  V30 8574 C 1189.14 -2.60516 -8.79425 0
M  V30 8575 O 1188.08 -1.82684 -8.4467 0
M  V30 8576 C 1190.35 -2.10343 -8.03628 0
M  V30 8577 O 1191.09 -1.09919 -8.67766 0
M  V30 8578 C 1189.69 -1.68446 -6.70876 0
M  V30 8579 O 1190.48 -0.678137 -6.08433 0
M  V30 8580 C 1188.35 -1.17436 -7.18567 0
M  V30 8581 H 1188.38 -0.0804732 -7.31656 0
M  V30 8582 H 1189.56 -2.54037 -6.02537 0
M  V30 8583 H 1191.05 -2.93881 -7.85526 0
M  V30 8584 H 1189.35 -2.53065 -9.86973 0
M  V30 8585 H 1189.16 -4.75072 -9.05887 0
M  V30 8586 H 1187.53 -4.05244 -8.76668 0
M  V30 8587 H 1190.17 0.177647 -6.34251 0
M  V30 8588 P 1192.03 -1.25109 -8.70152 0
M  V30 8589 O 1193.45 -1.29758 -9.22115 0
M  V30 8590 O 1191.67 -2.13714 -7.55141 0
M  V30 8591 O 1191.71 0.248149 -8.21425 0
M  V30 8592 C 1191.55 1.22792 -9.30533 0
M  V30 8593 C 1192.09 2.56293 -8.80664 0
M  V30 8594 O 1191.03 3.02944 -8.09255 0
M  V30 8595 C 1193.31 2.57523 -7.89775 0
M  V30 8596 O 1194.04 3.7668 -7.89438 0
M  V30 8597 C 1192.64 2.20997 -6.55446 0
M  V30 8598 O 1193.44 2.71302 -5.48691 0
M  V30 8599 C 1191.3 2.89693 -6.67988 0
M  V30 8600 N 1190.26 2.08895 -6.07487 0
M  V30 8601 C 1190.43 0.753809 -5.94137 0
M  V30 8602 N 1189.4 0.146592 -5.38801 0
M  V30 8603 C 1188.51 1.1768 -5.13693 0
M  V30 8604 C 1187.25 1.17563 -4.52477 0
M  V30 8605 N 1186.68 2.41918 -4.45789 0
M  V30 8606 C 1187.28 3.56493 -4.90792 0
M  V30 8607 N 1188.46 3.61423 -5.47817 0
M  V30 8608 C 1189.04 2.37779 -5.5588 0
M  V30 8609 H 1192.51 1.12673 -6.44018 0
M  V30 8610 H 1194 1.7746 -8.19711 0
M  V30 8611 H 1192.3 3.21673 -9.66791 0
M  V30 8612 H 1192.11 0.901032 -10.1892 0
M  V30 8613 H 1190.48 1.33049 -9.56592 0
M  V30 8614 H 1191.33 0.233081 -6.26266 0
M  V30 8615 H 1193.12 3.5779 -5.23879 0
M  V30 8616 P 1194.98 3.65191 -7.99657 0
M  V30 8617 O 1196.4 3.89332 -8.45794 0
M  V30 8618 O 1194.62 2.28472 -7.50807 0
M  V30 8619 O 1194.66 4.64972 -6.77611 0
M  V30 8620 C 1194.5 6.06319 -7.16352 0
M  V30 8621 C 1195.04 6.91731 -6.02299 0
M  V30 8622 O 1193.98 6.92449 -5.17064 0
M  V30 8623 C 1196.26 6.43627 -5.25174 0
M  V30 8624 O 1196.99 7.43686 -4.60469 0
M  V30 8625 C 1195.59 5.40275 -4.31916 0
M  V30 8626 O 1196.39 5.25279 -3.14438 0
M  V30 8627 C 1194.25 6.04847 -4.05327 0
M  V30 8628 H 1194.28 6.62195 -3.11261 0
M  V30 8629 H 1195.46 4.42556 -4.81383 0
M  V30 8630 H 1196.95 5.92458 -5.93643 0
M  V30 8631 H 1195.25 7.92655 -6.402 0
M  V30 8632 H 1195.06 6.26671 -8.0846 0
M  V30 8633 H 1193.43 6.29101 -7.32804 0
M  V30 8634 H 1196.07 5.84315 -2.47318 0
M  V30 8635 P 1197.93 7.39546 -4.75277 0
M  V30 8636 O 1199.35 7.84966 -5.01146 0
M  V30 8637 O 1197.57 5.9812 -5.08098 0
M  V30 8638 O 1197.61 7.57503 -3.1866 0
M  V30 8639 C 1197.45 8.97357 -2.74833 0
M  V30 8640 C 1197.99 9.0745 -1.32694 0
M  V30 8641 O 1196.93 8.62072 -0.606159 0
M  V30 8642 C 1199.21 8.25383 -0.938334 0
M  V30 8643 O 1199.94 8.74577 0.146954 0
M  V30 8644 C 1198.54 6.8802 -0.712559 0
M  V30 8645 O 1199.34 6.11791 0.194623 0
M  V30 8646 C 1197.2 7.27966 -0.139777 0
M  V30 8647 N 1196.16 6.39368 -0.623421 0
M  V30 8648 C 1196.22 5.90299 -1.85969 0
M  V30 8649 N 1195.17 5.10919 -2.1133 0
M  V30 8650 C 1194.44 5.14646 -1.0015 0
M  V30 8651 C 1193.13 4.60057 -0.729219 0
M  V30 8652 O 1192.4 3.93476 -1.47746 0
M  V30 8653 N 1192.7 4.88302 0.523505 0
M  V30 8654 C 1193.45 5.63646 1.46207 0
M  V30 8655 N 1192.86 5.78186 2.69239 0
M  V30 8656 N 1194.61 6.19285 1.21544 0
M  V30 8657 C 1195.06 5.93392 -0.0308487 0
M  V30 8658 H 1197.23 7.25354 0.961601 0
M  V30 8659 H 1198.42 6.3246 -1.65676 0
M  V30 8660 H 1199.9 8.19533 -1.78278 0
M  V30 8661 H 1198.21 10.1294 -1.10029 0
M  V30 8662 H 1198.02 9.64276 -3.41316 0
M  V30 8663 H 1196.38 9.25417 -2.76357 0
M  V30 8664 H 1191.81 4.53993 0.806451 0
M  V30 8665 H 1197.02 6.11865 -2.57394 0
M  V30 8666 H 1191.95 5.34046 2.87467 0
M  V30 8667 H 1193.32 6.33391 3.42578 0
M  V30 8668 H 1199.03 6.25169 1.0783 0
M  V30 8669 P 1200.88 8.791 9.72715e-12 0
M  V30 8670 O 1202.3 9.31196 0.027936 0
M  V30 8671 O 1200.52 7.77869 -1.04071 0
M  V30 8672 O 1200.56 8.09533 1.41463 0
M  V30 8673 C 1200.4 9.03587 2.5397 0
M  V30 8674 C 1200.94 8.35226 3.79016 0
M  V30 8675 O 1199.88 7.57904 4.1503 0
M  V30 8676 C 1202.16 7.45087 3.67298 0
M  V30 8677 O 1202.89 7.27796 4.85194 0
M  V30 8678 C 1201.49 6.17323 3.12027 0
M  V30 8679 O 1202.29 5.04496 3.46627 0
M  V30 8680 C 1200.15 6.19961 3.81809 0
M  V30 8681 N 1199.11 5.71575 2.93223 0
M  V30 8682 C 1199.28 5.77362 1.59168 0
M  V30 8683 N 1198.25 5.3123 0.911893 0
M  V30 8684 C 1197.36 4.91717 1.89588 0
M  V30 8685 C 1196.1 4.3114 1.8076 0
M  V30 8686 N 1195.53 4.06823 3.02898 0
M  V30 8687 C 1196.13 4.35062 4.22711 0
M  V30 8688 N 1197.31 4.90805 4.35707 0
M  V30 8689 C 1197.89 5.16382 3.14469 0
M  V30 8690 H 1201.37 6.21428 2.0318 0
M  V30 8691 H 1202.85 7.86112 2.9231 0
M  V30 8692 H 1201.15 9.11171 4.55987 0
M  V30 8693 H 1200.96 9.9573 2.34194 0
M  V30 8694 H 1199.33 9.2792 2.67832 0
M  V30 8695 H 1200.18 6.16575 1.12198 0
M  V30 8696 H 1201.97 4.67628 4.28704 0
M  V30 8697 P 1203.83 7.39546 4.75277 0
M  V30 8698 O 1205.25 7.81861 5.05793 0
M  V30 8699 O 1203.47 7.1065 3.32998 0
M  V30 8700 O 1203.51 6.04542 5.56673 0
M  V30 8701 C 1203.35 6.22839 7.02169 0
M  V30 8702 C 1203.89 4.97725 7.70406 0
M  V30 8703 O 1202.83 4.13208 7.58899 0
M  V30 8704 C 1205.11 4.28231 7.11815 0
M  V30 8705 O 1205.85 3.49945 8.01648 0
M  V30 8706 C 1204.44 3.5063 5.96244 0
M  V30 8707 O 1205.24 2.37008 5.64352 0
M  V30 8708 C 1203.1 3.15122 6.56374 0
M  V30 8709 N 1202.06 3.22311 5.55692 0
M  V30 8710 C 1202.23 3.99655 4.46046 0
M  V30 8711 N 1201.2 3.97599 3.63918 0
M  V30 8712 C 1200.32 3.11159 4.25334 0
M  V30 8713 C 1199.05 2.64972 3.85157 0
M  V30 8714 N 1198.45 3.02132 2.69405 0
M  V30 8715 N 1198.48 1.78482 4.74759 0
M  V30 8716 C 1199.09 1.37463 5.90819 0
M  V30 8717 N 1200.26 1.7733 6.31889 0
M  V30 8718 C 1200.84 2.64393 5.43725 0
M  V30 8719 H 1203.13 2.13823 6.99656 0
M  V30 8720 H 1204.32 4.12931 5.06895 0
M  V30 8721 H 1205.8 5.03285 6.70911 0
M  V30 8722 H 1204.11 5.20001 8.76217 0
M  V30 8723 H 1203.92 7.11046 7.35349 0
M  V30 8724 H 1202.29 6.35815 7.26986 0
M  V30 8725 H 1198.55 0.66574 6.53015 0
M  V30 8726 H 1203.13 4.58037 4.27732 0
M  V30 8727 H 1197.52 2.64828 2.45331 0
M  V30 8728 H 1198.92 3.67472 2.05644 0
M  V30 8729 H 1204.93 1.61619 6.13468 0
M  V30 8730 P 1206.78 3.65191 7.99657 0
M  V30 8731 O 1208.21 3.84333 8.48297 0
M  V30 8732 O 1206.42 4.17805 6.64342 0
M  V30 8733 O 1206.46 2.07613 7.95143 0
M  V30 8734 C 1206.3 1.44328 9.27336 0
M  V30 8735 C 1206.84 0.0220012 9.17097 0
M  V30 8736 O 1205.79 -0.626867 8.61923 0
M  V30 8737 C 1208.06 -0.24586 8.30336 0
M  V30 8738 O 1208.8 -1.39011 8.63583 0
M  V30 8739 C 1207.39 -0.273849 6.91158 0
M  V30 8740 O 1208.19 -1.06331 6.02794 0
M  V30 8741 C 1206.05 -0.897649 7.22545 0
M  V30 8742 N 1205.01 -0.292839 6.41732 0
M  V30 8743 C 1205.07 1.00068 6.10757 0
M  V30 8744 N 1204.03 1.36468 5.35794 0
M  V30 8745 C 1203.29 0.258894 5.2366 0
M  V30 8746 C 1201.99 0.0670682 4.65752 0
M  V30 8747 O 1201.25 0.902443 4.10497 0
M  V30 8748 N 1201.56 -1.2131 4.75881 0
M  V30 8749 C 1202.31 -2.24934 5.37101 0
M  V30 8750 N 1201.71 -3.48783 5.33984 0
M  V30 8751 N 1203.46 -2.0844 5.95684 0
M  V30 8752 C 1203.92 -0.81395 5.87791 0
M  V30 8753 H 1206.08 -1.9841 7.04286 0
M  V30 8754 H 1207.27 0.739815 6.49601 0
M  V30 8755 H 1208.75 0.598315 8.36563 0
M  V30 8756 H 1207.06 -0.352479 10.1829 0
M  V30 8757 H 1206.87 2.00611 10.0304 0
M  V30 8758 H 1205.24 1.41843 9.55327 0
M  V30 8759 H 1200.66 -1.44434 4.37895 0
M  V30 8760 H 1205.87 1.67697 6.42268 0
M  V30 8761 H 1200.8 -3.60543 4.87699 0
M  V30 8762 H 1202.17 -4.29232 5.7819 0
M  V30 8763 H 1207.88 -1.95704 6.0346 0
M  V30 8764 P 1209.73 -1.25109 8.70152 0
M  V30 8765 O 1211.15 -1.35288 9.2132 0
M  V30 8766 O 1209.37 -0.0769065 7.84762 0
M  V30 8767 O 1209.41 -2.55232 7.81161 0
M  V30 8768 C 1209.25 -3.79979 8.58246 0
M  V30 8769 C 1209.79 -4.94023 7.72785 0
M  V30 8770 O 1208.74 -5.18666 6.91125 0
M  V30 8771 C 1211.01 -4.69597 6.85231 0
M  V30 8772 O 1211.75 -5.83832 6.51337 0
M  V30 8773 C 1210.34 -3.96706 5.66633 0
M  V30 8774 O 1211.14 -4.14896 4.5003 0
M  V30 8775 C 1209 -4.66153 5.59313 0
M  V30 8776 N 1207.96 -3.71582 5.24027 0
M  V30 8777 C 1208.13 -2.39715 5.48833 0
M  V30 8778 N 1207.1 -1.65863 5.12845 0
M  V30 8779 C 1206.22 -2.57637 4.5973 0
M  V30 8780 C 1204.95 -2.40278 4.01027 0
M  V30 8781 N 1204.38 -3.57711 3.59575 0
M  V30 8782 C 1204.99 -4.80324 3.70476 0
M  V30 8783 N 1206.16 -5.01121 4.23801 0
M  V30 8784 C 1206.74 -3.84757 4.66372 0
M  V30 8785 H 1210.22 -2.8955 5.86187 0
M  V30 8786 H 1211.7 -4.0121 7.36511 0
M  V30 8787 H 1210.01 -5.81019 8.37003 0
M  V30 8788 H 1209.82 -3.73517 9.52265 0
M  V30 8789 H 1208.19 -3.97163 8.80359 0
M  V30 8790 H 1209.03 -1.98804 5.94332 0
M  V30 8791 H 1210.83 -4.90891 4.01857 0
M  V30 8792 P 1212.68 -5.75688 6.64379 0
M  V30 8793 O 1214.11 -6.11849 7.01846 0
M  V30 8794 O 1212.32 -4.30744 6.56026 0
M  V30 8795 O 1212.36 -6.37042 5.19165 0
M  V30 8796 C 1212.2 -7.83578 5.16515 0
M  V30 8797 C 1212.74 -8.33398 3.83019 0
M  V30 8798 O 1211.69 -8.10074 3.01034 0
M  V30 8799 C 1213.96 -7.65514 3.2257 0
M  V30 8800 O 1214.7 -8.4329 2.32297 0
M  V30 8801 C 1213.29 -6.40075 2.62207 0
M  V30 8802 O 1214.09 -5.92589 1.53712 0
M  V30 8803 C 1211.95 -6.9454 2.18503 0
M  V30 8804 H 1211.99 -7.23063 1.12091 0
M  V30 8805 H 1213.17 -5.6025 3.37201 0
M  V30 8806 H 1214.65 -7.35707 4.02681 0
M  V30 8807 H 1212.96 -9.40912 3.9095 0
M  V30 8808 H 1212.77 -8.29056 5.99158 0
M  V30 8809 H 1211.14 -8.10073 5.25882 0
M  V30 8810 H 1213.78 -6.30324 0.726794 0
M  V30 8811 P 1215.63 -8.4349 2.47671 0
M  V30 8812 O 1217.06 -8.94359 2.59696 0
M  V30 8813 O 1215.27 -7.1704 3.19006 0
M  V30 8814 O 1215.31 -8.16596 0.923387 0
M  V30 8815 C 1215.15 -9.38437 0.108857 0
M  V30 8816 C 1215.69 -9.08076 -1.28339 0
M  V30 8817 O 1214.64 -8.44229 -1.84713 0
M  V30 8818 C 1216.91 -8.18386 -1.42505 0
M  V30 8819 O 1217.65 -8.3501 -2.60497 0
M  V30 8820 C 1216.24 -6.80225 -1.25468 0
M  V30 8821 O 1217.04 -5.81526 -1.91035 0
M  V30 8822 C 1214.9 -7.02416 -1.9168 0
M  V30 8823 N 1213.86 -6.31033 -1.20314 0
M  V30 8824 C 1213.92 -6.18781 0.121293 0
M  V30 8825 N 1212.88 -5.49762 0.588272 0
M  V30 8826 C 1212.14 -5.22015 -0.488988 0
M  V30 8827 C 1210.84 -4.61966 -0.596448 0
M  V30 8828 O 1210.1 -4.19162 0.309059 0
M  V30 8829 N 1210.41 -4.53773 -1.878 0
M  V30 8830 C 1211.16 -4.99623 -2.99082 0
M  V30 8831 N 1210.56 -4.78912 -4.21227 0
M  V30 8832 N 1212.31 -5.59957 -2.91093 0
M  V30 8833 C 1212.77 -5.70225 -1.64218 0
M  V30 8834 H 1214.94 -6.6888 -2.96621 0
M  V30 8835 H 1216.12 -6.53517 -0.192194 0
M  V30 8836 H 1217.6 -8.36563 -0.598329 0
M  V30 8837 H 1215.91 -10.0291 -1.79807 0
M  V30 8838 H 1215.72 -10.2138 0.558219 0
M  V30 8839 H 1214.09 -9.6579 0.0444202 0
M  V30 8840 H 1209.51 -4.12883 -2.05283 0
M  V30 8841 H 1214.72 -6.59596 0.745856 0
M  V30 8842 H 1209.65 -4.31425 -4.2628 0
M  V30 8843 H 1211.02 -5.11219 -5.07148 0
M  V30 8844 H 1216.73 -5.69466 -2.79593 0
M  V30 8845 P 1218.59 -8.4349 -2.47671 0
M  V30 8846 O 1220.01 -8.92593 -2.65 0
M  V30 8847 O 1218.23 -7.7568 -1.19296 0
M  V30 8848 O 1218.26 -7.36886 -3.63805 0
M  V30 8849 C 1218.1 -7.95349 -4.982 0
M  V30 8850 C 1218.64 -6.94612 -5.98974 0
M  V30 8851 O 1217.59 -6.10347 -6.11815 0
M  V30 8852 C 1219.86 -6.11426 -5.62335 0
M  V30 8853 O 1220.6 -5.6162 -6.70584 0
M  V30 8854 C 1219.19 -5.04409 -4.73308 0
M  V30 8855 O 1219.99 -3.85992 -4.75183 0
M  V30 8856 C 1217.85 -4.8728 -5.41006 0
M  V30 8857 H 1217.89 -4.02333 -6.11157 0
M  V30 8858 H 1219.07 -5.39466 -3.69543 0
M  V30 8859 H 1220.55 -6.71916 -5.01943 0
M  V30 8860 H 1218.86 -7.4649 -6.93477 0
M  V30 8861 H 1218.67 -8.89416 -5.05237 0
M  V30 8862 H 1217.04 -8.14876 -5.18409 0
M  V30 8863 H 1219.68 -3.27957 -5.4317 0
M  V30 8864 P 1221.54 -5.75688 -6.64379 0
M  V30 8865 O 1222.96 -6.07627 -7.05504 0
M  V30 8866 O 1221.18 -5.88047 -5.19722 0
M  V30 8867 O 1221.21 -4.2322 -7.04443 0
M  V30 8868 C 1221.05 -3.99743 -8.4911 0
M  V30 8869 C 1221.59 -2.60516 -8.79425 0
M  V30 8870 O 1220.54 -1.82684 -8.4467 0
M  V30 8871 C 1222.81 -2.10343 -8.03628 0
M  V30 8872 O 1223.55 -1.09919 -8.67766 0
M  V30 8873 C 1222.14 -1.68446 -6.70876 0
M  V30 8874 O 1222.94 -0.678137 -6.08433 0
M  V30 8875 C 1220.8 -1.17436 -7.18567 0
M  V30 8876 H 1220.84 -0.0804732 -7.31656 0
M  V30 8877 H 1222.02 -2.54037 -6.02537 0
M  V30 8878 H 1223.5 -2.93881 -7.85526 0
M  V30 8879 H 1221.81 -2.53065 -9.86973 0
M  V30 8880 H 1221.62 -4.75072 -9.05887 0
M  V30 8881 H 1219.99 -4.05244 -8.76668 0
M  V30 8882 H 1222.63 0.177647 -6.34251 0
M  V30 8883 P 1224.49 -1.25109 -8.70152 0
M  V30 8884 O 1225.91 -1.29772 -9.22214 0
M  V30 8885 O 1224.13 -2.13714 -7.55141 0
M  V30 8886 O 1224.16 0.248149 -8.21425 0
M  V30 8887 C 1224 1.22779 -9.30434 0
M  V30 8888 C 1224.54 2.56265 -8.80568 0
M  V30 8889 O 1223.49 3.02979 -8.09349 0
M  V30 8890 C 1225.76 2.57523 -7.89775 0
M  V30 8891 O 1226.5 3.7668 -7.89438 0
M  V30 8892 C 1225.09 2.20997 -6.55446 0
M  V30 8893 O 1225.89 2.71851 -5.48419 0
M  V30 8894 C 1223.76 2.89693 -6.67988 0
M  V30 8895 N 1222.71 2.08895 -6.07487 0
M  V30 8896 C 1222.77 0.760559 -6.14209 0
M  V30 8897 N 1221.73 0.200108 -5.52538 0
M  V30 8898 C 1221 1.22692 -5.09742 0
M  V30 8899 C 1219.69 1.24782 -4.48775 0
M  V30 8900 O 1218.96 0.290617 -4.19294 0
M  V30 8901 N 1219.26 2.50468 -4.22428 0
M  V30 8902 C 1220.01 3.67142 -4.51974 0
M  V30 8903 N 1219.41 4.85096 -4.14091 0
M  V30 8904 N 1221.16 3.67821 -5.12831 0
M  V30 8905 C 1221.62 2.43698 -5.4105 0
M  V30 8906 H 1223.79 3.88793 -6.19859 0
M  V30 8907 H 1224.97 1.12029 -6.4413 0
M  V30 8908 H 1226.46 1.78279 -8.19533 0
M  V30 8909 H 1224.76 3.20706 -9.67112 0
M  V30 8910 H 1224.57 0.901032 -10.1892 0
M  V30 8911 H 1222.94 1.33049 -9.56592 0
M  V30 8912 H 1218.36 2.61953 -3.79465 0
M  V30 8913 H 1223.57 0.200439 -6.63497 0
M  V30 8914 H 1218.5 4.8334 -3.66367 0
M  V30 8915 H 1219.88 5.7474 -4.33841 0
M  V30 8916 H 1225.58 3.5779 -5.23879 0
M  V30 8917 P 1227.44 3.65191 -7.99657 0
M  V30 8918 O 1228.86 3.89332 -8.45794 0
M  V30 8919 O 1227.08 2.28472 -7.50807 0
M  V30 8920 O 1227.11 4.64972 -6.77611 0
M  V30 8921 C 1226.95 6.06319 -7.16352 0
M  V30 8922 C 1227.49 6.91731 -6.02299 0
M  V30 8923 O 1226.44 6.92449 -5.17064 0
M  V30 8924 C 1228.71 6.43627 -5.25174 0
M  V30 8925 O 1229.45 7.43686 -4.60469 0
M  V30 8926 C 1228.04 5.40275 -4.31916 0
M  V30 8927 O 1228.84 5.25279 -3.14438 0
M  V30 8928 C 1226.71 6.04847 -4.05327 0
M  V30 8929 H 1226.74 6.62195 -3.11261 0
M  V30 8930 H 1227.92 4.42556 -4.81383 0
M  V30 8931 H 1229.41 5.92458 -5.93643 0
M  V30 8932 H 1227.71 7.92655 -6.402 0
M  V30 8933 H 1227.52 6.26671 -8.0846 0
M  V30 8934 H 1225.89 6.29101 -7.32804 0
M  V30 8935 H 1228.53 5.84315 -2.47318 0
M  V30 8936 P 1230.39 7.39546 -4.75277 0
M  V30 8937 O 1231.81 7.84882 -5.01092 0
M  V30 8938 O 1230.03 5.9812 -5.08098 0
M  V30 8939 O 1230.06 7.57503 -3.1866 0
M  V30 8940 C 1229.9 8.97452 -2.74862 0
M  V30 8941 C 1230.44 9.07548 -1.32709 0
M  V30 8942 O 1229.39 8.61972 -0.606089 0
M  V30 8943 C 1231.66 8.25383 -0.938334 0
M  V30 8944 O 1232.4 8.74577 0.146954 0
M  V30 8945 C 1230.99 6.8802 -0.712559 0
M  V30 8946 O 1231.79 6.1181 0.188505 0
M  V30 8947 C 1229.66 7.27966 -0.139777 0
M  V30 8948 N 1228.61 6.39368 -0.623421 0
M  V30 8949 C 1228.78 5.71761 -1.78245 0
M  V30 8950 N 1227.76 4.962 -2.10491 0
M  V30 8951 C 1226.87 5.16158 -1.0635 0
M  V30 8952 C 1225.6 4.60425 -0.810266 0
M  V30 8953 N 1225 3.7057 -1.62914 0
M  V30 8954 N 1225.04 5.06 0.348685 0
M  V30 8955 C 1225.64 5.94532 1.20395 0
M  V30 8956 N 1226.82 6.48452 1.01191 0
M  V30 8957 C 1227.39 6.04423 -0.146291 0
M  V30 8958 H 1229.69 7.25255 0.961469 0
M  V30 8959 H 1230.87 6.32625 -1.65044 0
M  V30 8960 H 1232.35 8.19355 -1.79097 0
M  V30 8961 H 1230.66 10.1305 -1.09016 0
M  V30 8962 H 1230.47 9.64276 -3.41316 0
M  V30 8963 H 1228.84 9.25417 -2.76357 0
M  V30 8964 H 1225.1 6.21659 2.10714 0
M  V30 8965 H 1229.68 5.79354 -2.38959 0
M  V30 8966 H 1224.07 3.33174 -1.38982 0
M  V30 8967 H 1225.48 3.39714 -2.48836 0
M  V30 8968 H 1231.48 6.25169 1.0783 0
M  V30 8969 P 1233.34 8.791 1.00373e-11 0
M  V30 8970 O 1234.76 9.31096 0.027933 0
M  V30 8971 O 1232.98 7.77869 -1.04071 0
M  V30 8972 O 1233.02 8.09533 1.41463 0
M  V30 8973 C 1232.86 9.0349 2.53943 0
M  V30 8974 C 1233.4 8.35226 3.79016 0
M  V30 8975 O 1232.34 7.57992 4.15078 0
M  V30 8976 C 1234.61 7.45087 3.67298 0
M  V30 8977 O 1235.35 7.27796 4.85194 0
M  V30 8978 C 1233.94 6.17323 3.12027 0
M  V30 8979 O 1234.74 5.04231 3.47188 0
M  V30 8980 C 1232.61 6.19961 3.81809 0
M  V30 8981 H 1232.64 5.58218 4.73051 0
M  V30 8982 H 1233.82 6.21726 2.02589 0
M  V30 8983 H 1235.31 7.86112 2.9231 0
M  V30 8984 H 1233.61 9.11627 4.55076 0
M  V30 8985 H 1233.42 9.9573 2.34194 0
M  V30 8986 H 1231.79 9.2792 2.67832 0
M  V30 8987 H 1234.43 4.67702 4.28772 0
M  V30 8988 P 1236.29 7.39546 4.75277 0
M  V30 8989 O 1237.71 7.81777 5.05738 0
M  V30 8990 O 1235.93 7.1065 3.32998 0
M  V30 8991 O 1235.97 6.04542 5.56673 0
M  V30 8992 C 1235.81 6.22772 7.02095 0
M  V30 8993 C 1236.35 4.97725 7.70406 0
M  V30 8994 O 1235.29 4.13256 7.58987 0
M  V30 8995 C 1237.56 4.28231 7.11815 0
M  V30 8996 O 1238.3 3.49945 8.01648 0
M  V30 8997 C 1236.89 3.5063 5.96244 0
M  V30 8998 O 1237.69 2.36482 5.64681 0
M  V30 8999 C 1235.56 3.15122 6.56374 0
M  V30 9000 H 1235.59 2.13853 6.99751 0
M  V30 9001 H 1236.77 4.13501 5.06559 0
M  V30 9002 H 1238.26 5.03285 6.70911 0
M  V30 9003 H 1236.56 5.20877 8.75697 0
M  V30 9004 H 1236.37 7.11046 7.35349 0
M  V30 9005 H 1234.74 6.35815 7.26986 0
M  V30 9006 H 1237.38 1.61644 6.13565 0
M  V30 9007 P 1239.24 3.65191 7.99657 0
M  V30 9008 O 1240.66 3.8425 8.48115 0
M  V30 9009 O 1238.88 4.17805 6.64342 0
M  V30 9010 O 1238.92 2.07613 7.95143 0
M  V30 9011 C 1238.76 1.44328 9.27336 0
M  V30 9012 C 1239.3 0.0220036 9.17197 0
M  V30 9013 O 1238.24 -0.626867 8.61923 0
M  V30 9014 C 1240.51 -0.24586 8.30336 0
M  V30 9015 O 1241.25 -1.39011 8.63583 0
M  V30 9016 C 1239.85 -0.273849 6.91158 0
M  V30 9017 O 1240.64 -1.06348 6.02892 0
M  V30 9018 C 1238.51 -0.897649 7.22545 0
M  V30 9019 H 1238.54 -1.9841 7.04286 0
M  V30 9020 H 1239.72 0.739928 6.497 0
M  V30 9021 H 1241.21 0.60668 8.36503 0
M  V30 9022 H 1239.51 -0.352479 10.1829 0
M  V30 9023 H 1239.32 2.00611 10.0304 0
M  V30 9024 H 1237.69 1.41843 9.55327 0
M  V30 9025 H 1240.33 -1.95734 6.03555 0
M  V30 9026 P 1242.19 -1.25109 8.70152 0
M  V30 9027 O 1243.61 -1.35274 9.21221 0
M  V30 9028 O 1241.83 -0.0769065 7.84762 0
M  V30 9029 O 1241.87 -2.55232 7.81161 0
M  V30 9030 C 1241.71 -3.79939 8.58154 0
M  V30 9031 C 1242.25 -4.94023 7.72785 0
M  V30 9032 O 1241.19 -5.18726 6.91205 0
M  V30 9033 C 1243.46 -4.69597 6.85231 0
M  V30 9034 O 1244.2 -5.83832 6.51337 0
M  V30 9035 C 1242.8 -3.96706 5.66633 0
M  V30 9036 O 1243.59 -4.15414 4.49689 0
M  V30 9037 C 1241.46 -4.66153 5.59313 0
M  V30 9038 H 1241.49 -5.47679 4.85214 0
M  V30 9039 H 1242.67 -2.89008 5.86566 0
M  V30 9040 H 1244.16 -4.0121 7.36511 0
M  V30 9041 H 1242.46 -5.80182 8.37584 0
M  V30 9042 H 1242.27 -3.73517 9.52265 0
M  V30 9043 H 1240.64 -3.97163 8.80359 0
M  V30 9044 H 1243.28 -4.90969 4.01921 0
M  V30 9045 P 1245.14 -5.75688 6.64379 0
M  V30 9046 O 1246.56 -6.11849 7.01846 0
M  V30 9047 O 1244.78 -4.30744 6.56026 0
M  V30 9048 O 1244.82 -6.37042 5.19165 0
M  V30 9049 C 1244.66 -7.83578 5.16515 0
M  V30 9050 C 1245.2 -8.33398 3.83019 0
M  V30 9051 O 1244.14 -8.10074 3.01034 0
M  V30 9052 C 1246.42 -7.65514 3.2257 0
M  V30 9053 O 1247.15 -8.4329 2.32297 0
M  V30 9054 C 1245.75 -6.40075 2.62207 0
M  V30 9055 O 1246.55 -5.92589 1.53712 0
M  V30 9056 C 1244.41 -6.9454 2.18503 0
M  V30 9057 H 1244.44 -7.23063 1.12091 0
M  V30 9058 H 1245.62 -5.6025 3.37201 0
M  V30 9059 H 1247.11 -7.35707 4.02681 0
M  V30 9060 H 1245.41 -9.40912 3.9095 0
M  V30 9061 H 1245.22 -8.29056 5.99158 0
M  V30 9062 H 1243.59 -8.10073 5.25882 0
M  V30 9063 H 1246.23 -6.30324 0.726794 0
M  V30 9064 P 1248.09 -8.4349 2.47671 0
M  V30 9065 O 1249.51 -8.94167 2.5964 0
M  V30 9066 O 1247.73 -7.1704 3.19006 0
M  V30 9067 O 1247.77 -8.16596 0.923387 0
M  V30 9068 C 1247.61 -9.38437 0.108857 0
M  V30 9069 C 1248.15 -9.08175 -1.28353 0
M  V30 9070 O 1247.09 -8.44229 -1.84713 0
M  V30 9071 C 1249.37 -8.18386 -1.42505 0
M  V30 9072 O 1250.1 -8.3501 -2.60497 0
M  V30 9073 C 1248.7 -6.80225 -1.25468 0
M  V30 9074 O 1249.5 -5.81621 -1.91066 0
M  V30 9075 C 1247.36 -7.02416 -1.9168 0
M  V30 9076 H 1247.39 -6.6888 -2.96621 0
M  V30 9077 H 1248.58 -6.53617 -0.192223 0
M  V30 9078 H 1250.06 -8.36622 -0.589963 0
M  V30 9079 H 1248.37 -10.0291 -1.79807 0
M  V30 9080 H 1248.18 -10.2138 0.558219 0
M  V30 9081 H 1246.55 -9.6579 0.0444202 0
M  V30 9082 H 1249.18 -5.69556 -2.79637 0
M  V30 9083 P 1251.04 -8.4349 -2.47671 0
M  V30 9084 O 1252.46 -8.92593 -2.65 0
M  V30 9085 O 1250.68 -7.7568 -1.19296 0
M  V30 9086 O 1250.72 -7.36886 -3.63805 0
M  V30 9087 C 1250.56 -7.95349 -4.982 0
M  V30 9088 C 1251.1 -6.94612 -5.98974 0
M  V30 9089 O 1250.04 -6.10347 -6.11815 0
M  V30 9090 C 1252.32 -6.11426 -5.62335 0
M  V30 9091 O 1253.05 -5.6162 -6.70584 0
M  V30 9092 C 1251.65 -5.04409 -4.73308 0
M  V30 9093 O 1252.45 -3.85992 -4.75183 0
M  V30 9094 C 1250.31 -4.8728 -5.41006 0
M  V30 9095 H 1250.34 -4.02333 -6.11157 0
M  V30 9096 H 1251.53 -5.39466 -3.69543 0
M  V30 9097 H 1253.01 -6.71916 -5.01943 0
M  V30 9098 H 1251.32 -7.4649 -6.93477 0
M  V30 9099 H 1251.13 -8.89416 -5.05237 0
M  V30 9100 H 1249.5 -8.14876 -5.18409 0
M  V30 9101 H 1252.13 -3.27957 -5.4317 0
M  V30 9102 P 1253.99 -5.75688 -6.64379 0
M  V30 9103 O 1255.41 -6.07627 -7.05504 0
M  V30 9104 O 1253.63 -5.88047 -5.19722 0
M  V30 9105 O 1253.67 -4.2322 -7.04443 0
M  V30 9106 C 1253.51 -3.99743 -8.4911 0
M  V30 9107 C 1254.05 -2.60516 -8.79425 0
M  V30 9108 O 1252.99 -1.82684 -8.4467 0
M  V30 9109 C 1255.27 -2.10343 -8.03628 0
M  V30 9110 O 1256.01 -1.09919 -8.67766 0
M  V30 9111 C 1254.6 -1.68446 -6.70876 0
M  V30 9112 O 1255.4 -0.678137 -6.08433 0
M  V30 9113 C 1253.26 -1.17436 -7.18567 0
M  V30 9114 H 1253.29 -0.0804732 -7.31656 0
M  V30 9115 H 1254.48 -2.54037 -6.02537 0
M  V30 9116 H 1255.96 -2.93881 -7.85526 0
M  V30 9117 H 1254.27 -2.53065 -9.86973 0
M  V30 9118 H 1254.08 -4.75072 -9.05887 0
M  V30 9119 H 1252.45 -4.05244 -8.76668 0
M  V30 9120 H 1255.09 0.177647 -6.34251 0
M  V30 9121 P 1256.94 -1.25109 -8.70152 0
M  V30 9122 O 1258.36 -1.29744 -9.22016 0
M  V30 9123 O 1256.58 -2.13714 -7.55141 0
M  V30 9124 O 1256.62 0.248149 -8.21425 0
M  V30 9125 C 1256.46 1.22779 -9.30434 0
M  V30 9126 C 1257 2.56293 -8.80664 0
M  V30 9127 O 1255.94 3.02979 -8.09349 0
M  V30 9128 C 1258.22 2.57523 -7.89775 0
M  V30 9129 O 1258.96 3.7668 -7.89438 0
M  V30 9130 C 1257.55 2.20997 -6.55446 0
M  V30 9131 O 1258.35 2.71895 -5.48509 0
M  V30 9132 C 1256.21 2.89693 -6.67988 0
M  V30 9133 H 1256.24 3.88793 -6.19859 0
M  V30 9134 H 1257.43 1.12046 -6.44229 0
M  V30 9135 H 1258.91 1.7746 -8.19711 0
M  V30 9136 H 1257.22 3.20706 -9.67112 0
M  V30 9137 H 1257.03 0.901032 -10.1892 0
M  V30 9138 H 1255.4 1.33049 -9.56592 0
M  V30 9139 H 1258.04 3.57847 -5.23962 0
M  V30 9140 P 1259.89 3.65191 -7.99657 0
M  V30 9141 O 1261.32 3.89332 -8.45794 0
M  V30 9142 O 1259.53 2.28472 -7.50807 0
M  V30 9143 O 1259.57 4.64972 -6.77611 0
M  V30 9144 C 1259.41 6.06319 -7.16352 0
M  V30 9145 C 1259.95 6.91731 -6.02299 0
M  V30 9146 O 1258.89 6.92449 -5.17064 0
M  V30 9147 C 1261.17 6.43627 -5.25174 0
M  V30 9148 O 1261.91 7.43686 -4.60469 0
M  V30 9149 C 1260.5 5.40275 -4.31916 0
M  V30 9150 O 1261.3 5.25279 -3.14438 0
M  V30 9151 C 1259.16 6.04847 -4.05327 0
M  V30 9152 H 1259.19 6.62195 -3.11261 0
M  V30 9153 H 1260.38 4.42556 -4.81383 0
M  V30 9154 H 1261.86 5.92458 -5.93643 0
M  V30 9155 H 1260.17 7.92655 -6.402 0
M  V30 9156 H 1259.98 6.26671 -8.0846 0
M  V30 9157 H 1258.35 6.29101 -7.32804 0
M  V30 9158 H 1260.99 5.84315 -2.47318 0
M  V30 9159 P 1262.84 7.39546 -4.75277 0
M  V30 9160 O 1264.27 7.84798 -5.01039 0
M  V30 9161 O 1262.48 5.9812 -5.08098 0
M  V30 9162 O 1262.52 7.57503 -3.1866 0
M  V30 9163 C 1262.36 8.97357 -2.74833 0
M  V30 9164 C 1262.9 9.07548 -1.32709 0
M  V30 9165 O 1261.84 8.62072 -0.606159 0
M  V30 9166 C 1264.12 8.25383 -0.938334 0
M  V30 9167 O 1264.86 8.74577 0.146954 0
M  V30 9168 C 1263.45 6.8802 -0.712559 0
M  V30 9169 O 1264.25 6.1189 0.194655 0
M  V30 9170 C 1262.11 7.27966 -0.139777 0
M  V30 9171 H 1262.14 7.25354 0.961601 0
M  V30 9172 H 1263.33 6.32557 -1.65702 0
M  V30 9173 H 1264.81 8.19355 -1.79097 0
M  V30 9174 H 1263.12 10.1294 -1.10029 0
M  V30 9175 H 1262.93 9.64276 -3.41316 0
M  V30 9176 H 1261.3 9.25417 -2.76357 0
M  V30 9177 H 1263.94 6.25267 1.07847 0
M  V30 9178 P 1265.79 8.791 1.03475e-11 0
M  V30 9179 O 1267.22 9.31196 0.027936 0
M  V30 9180 O 1265.43 7.77869 -1.04071 0
M  V30 9181 O 1265.47 8.09533 1.41463 0
M  V30 9182 C 1265.31 9.03587 2.5397 0
M  V30 9183 C 1265.85 8.35226 3.79016 0
M  V30 9184 O 1264.8 7.57904 4.1503 0
M  V30 9185 C 1267.07 7.45087 3.67298 0
M  V30 9186 O 1267.81 7.27796 4.85194 0
M  V30 9187 C 1266.4 6.17323 3.12027 0
M  V30 9188 O 1267.2 5.04496 3.46627 0
M  V30 9189 C 1265.06 6.19961 3.81809 0
M  V30 9190 N 1264.02 5.71575 2.93223 0
M  V30 9191 C 1264.19 5.77362 1.59168 0
M  V30 9192 N 1263.16 5.3123 0.911893 0
M  V30 9193 C 1262.28 4.91717 1.89588 0
M  V30 9194 C 1261.01 4.3114 1.8076 0
M  V30 9195 N 1260.41 3.99821 0.632928 0
M  V30 9196 N 1260.45 4.06823 3.02898 0
M  V30 9197 C 1261.05 4.35062 4.22711 0
M  V30 9198 N 1262.22 4.90805 4.35707 0
M  V30 9199 C 1262.8 5.16382 3.14469 0
M  V30 9200 H 1265.1 5.58142 4.72986 0
M  V30 9201 H 1266.28 6.21428 2.0318 0
M  V30 9202 H 1267.76 7.86112 2.9231 0
M  V30 9203 H 1266.07 9.11171 4.55987 0
M  V30 9204 H 1265.88 9.9573 2.34194 0
M  V30 9205 H 1264.25 9.2792 2.67832 0
M  V30 9206 H 1260.51 4.09052 5.13359 0
M  V30 9207 H 1265.09 6.16575 1.12198 0
M  V30 9208 H 1259.48 3.55423 0.632085 0
M  V30 9209 H 1260.89 4.20317 -0.256712 0
M  V30 9210 H 1266.89 4.67628 4.28704 0
M  V30 9211 P 1268.75 7.39546 4.75277 0
M  V30 9212 O 1270.17 7.81777 5.05738 0
M  V30 9213 O 1268.39 7.1065 3.32998 0
M  V30 9214 O 1268.42 6.04542 5.56673 0
M  V30 9215 C 1268.26 6.22772 7.02095 0
M  V30 9216 C 1268.8 4.97725 7.70406 0
M  V30 9217 O 1267.75 4.13256 7.58987 0
M  V30 9218 C 1270.02 4.28231 7.11815 0
M  V30 9219 O 1270.76 3.49945 8.01648 0
M  V30 9220 C 1269.35 3.5063 5.96244 0
M  V30 9221 O 1270.15 2.36482 5.64681 0
M  V30 9222 C 1268.01 3.15122 6.56374 0
M  V30 9223 H 1268.05 2.13853 6.99751 0
M  V30 9224 H 1269.23 4.13501 5.06559 0
M  V30 9225 H 1270.71 5.03285 6.70911 0
M  V30 9226 H 1269.02 5.20877 8.75697 0
M  V30 9227 H 1268.83 7.11046 7.35349 0
M  V30 9228 H 1267.2 6.35815 7.26986 0
M  V30 9229 H 1269.84 1.61644 6.13565 0
M  V30 9230 P 1271.7 3.65191 7.99657 0
M  V30 9231 O 1273.12 3.8425 8.48115 0
M  V30 9232 O 1271.34 4.17805 6.64342 0
M  V30 9233 O 1271.37 2.07613 7.95143 0
M  V30 9234 C 1271.21 1.44328 9.27336 0
M  V30 9235 C 1271.75 0.0220036 9.17197 0
M  V30 9236 O 1270.7 -0.626867 8.61923 0
M  V30 9237 C 1272.97 -0.24586 8.30336 0
M  V30 9238 O 1273.71 -1.39011 8.63583 0
M  V30 9239 C 1272.3 -0.273849 6.91158 0
M  V30 9240 O 1273.1 -1.06348 6.02892 0
M  V30 9241 C 1270.96 -0.897649 7.22545 0
M  V30 9242 H 1271 -1.9841 7.04286 0
M  V30 9243 H 1272.18 0.739928 6.497 0
M  V30 9244 H 1273.66 0.60668 8.36503 0
M  V30 9245 H 1271.97 -0.352479 10.1829 0
M  V30 9246 H 1271.78 2.00611 10.0304 0
M  V30 9247 H 1270.15 1.41843 9.55327 0
M  V30 9248 H 1272.79 -1.95734 6.03555 0
M  V30 9249 P 1274.65 -1.25109 8.70152 0
M  V30 9250 O 1276.07 -1.35274 9.21221 0
M  V30 9251 O 1274.29 -0.0769065 7.84762 0
M  V30 9252 O 1274.32 -2.55232 7.81161 0
M  V30 9253 C 1274.16 -3.79939 8.58154 0
M  V30 9254 C 1274.7 -4.94023 7.72785 0
M  V30 9255 O 1273.65 -5.18726 6.91205 0
M  V30 9256 C 1275.92 -4.69597 6.85231 0
M  V30 9257 O 1276.66 -5.83832 6.51337 0
M  V30 9258 C 1275.25 -3.96706 5.66633 0
M  V30 9259 O 1276.05 -4.15414 4.49689 0
M  V30 9260 C 1273.92 -4.66153 5.59313 0
M  V30 9261 H 1273.95 -5.47679 4.85214 0
M  V30 9262 H 1275.13 -2.89008 5.86566 0
M  V30 9263 H 1276.61 -4.0121 7.36511 0
M  V30 9264 H 1274.92 -5.80182 8.37584 0
M  V30 9265 H 1274.73 -3.73517 9.52265 0
M  V30 9266 H 1273.1 -3.97163 8.80359 0
M  V30 9267 H 1275.74 -4.90969 4.01921 0
M  V30 9268 P 1277.6 -5.75688 6.64379 0
M  V30 9269 O 1279.02 -6.11849 7.01846 0
M  V30 9270 O 1277.24 -4.30744 6.56026 0
M  V30 9271 O 1277.27 -6.37042 5.19165 0
M  V30 9272 C 1277.11 -7.83578 5.16515 0
M  V30 9273 C 1277.65 -8.33398 3.83019 0
M  V30 9274 O 1276.6 -8.10074 3.01034 0
M  V30 9275 C 1278.87 -7.65514 3.2257 0
M  V30 9276 O 1279.61 -8.4329 2.32297 0
M  V30 9277 C 1278.2 -6.40075 2.62207 0
M  V30 9278 O 1279 -5.92589 1.53712 0
M  V30 9279 C 1276.87 -6.9454 2.18503 0
M  V30 9280 H 1276.9 -7.23063 1.12091 0
M  V30 9281 H 1278.08 -5.6025 3.37201 0
M  V30 9282 H 1279.56 -7.35707 4.02681 0
M  V30 9283 H 1277.87 -9.40912 3.9095 0
M  V30 9284 H 1277.68 -8.29056 5.99158 0
M  V30 9285 H 1276.05 -8.10073 5.25882 0
M  V30 9286 H 1278.69 -6.30324 0.726794 0
M  V30 9287 P 1280.55 -8.4349 2.47671 0
M  V30 9288 O 1281.97 -8.94167 2.5964 0
M  V30 9289 O 1280.19 -7.1704 3.19006 0
M  V30 9290 O 1280.22 -8.16596 0.923387 0
M  V30 9291 C 1280.06 -9.38437 0.108857 0
M  V30 9292 C 1280.6 -9.08175 -1.28353 0
M  V30 9293 O 1279.55 -8.44229 -1.84713 0
M  V30 9294 C 1281.82 -8.18386 -1.42505 0
M  V30 9295 O 1282.56 -8.3501 -2.60497 0
M  V30 9296 C 1281.15 -6.80225 -1.25468 0
M  V30 9297 O 1281.95 -5.81621 -1.91066 0
M  V30 9298 C 1279.82 -7.02416 -1.9168 0
M  V30 9299 H 1279.85 -6.6888 -2.96621 0
M  V30 9300 H 1281.03 -6.53617 -0.192223 0
M  V30 9301 H 1282.52 -8.36622 -0.589963 0
M  V30 9302 H 1280.82 -10.0291 -1.79807 0
M  V30 9303 H 1280.63 -10.2138 0.558219 0
M  V30 9304 H 1279 -9.6579 0.0444202 0
M  V30 9305 H 1281.64 -5.69556 -2.79637 0
M  V30 9306 P 1283.5 -8.4349 -2.47671 0
M  V30 9307 O 1284.92 -8.92593 -2.65 0
M  V30 9308 O 1283.14 -7.7568 -1.19296 0
M  V30 9309 O 1283.17 -7.36886 -3.63805 0
M  V30 9310 C 1283.01 -7.95349 -4.982 0
M  V30 9311 C 1283.55 -6.94612 -5.98974 0
M  V30 9312 O 1282.5 -6.10347 -6.11815 0
M  V30 9313 C 1284.77 -6.11426 -5.62335 0
M  V30 9314 O 1285.51 -5.6162 -6.70584 0
M  V30 9315 C 1284.1 -5.04409 -4.73308 0
M  V30 9316 O 1284.9 -3.85992 -4.75183 0
M  V30 9317 C 1282.77 -4.8728 -5.41006 0
M  V30 9318 H 1282.8 -4.02333 -6.11157 0
M  V30 9319 H 1283.98 -5.39466 -3.69543 0
M  V30 9320 H 1285.47 -6.71916 -5.01943 0
M  V30 9321 H 1283.77 -7.4649 -6.93477 0
M  V30 9322 H 1283.58 -8.89416 -5.05237 0
M  V30 9323 H 1281.95 -8.14876 -5.18409 0
M  V30 9324 H 1284.59 -3.27957 -5.4317 0
M  V30 9325 P 1286.45 -5.75688 -6.64379 0
M  V30 9326 O 1287.87 -6.07692 -7.0558 0
M  V30 9327 O 1286.09 -5.88047 -5.19722 0
M  V30 9328 O 1286.13 -4.2322 -7.04443 0
M  V30 9329 C 1285.96 -3.99785 -8.49201 0
M  V30 9330 C 1286.51 -2.60516 -8.79425 0
M  V30 9331 O 1285.45 -1.82663 -8.44573 0
M  V30 9332 C 1287.72 -2.10343 -8.03628 0
M  V30 9333 O 1288.46 -1.09919 -8.67766 0
M  V30 9334 C 1287.06 -1.68446 -6.70876 0
M  V30 9335 O 1287.85 -0.684109 -6.08265 0
M  V30 9336 C 1285.72 -1.17436 -7.18567 0
M  V30 9337 N 1284.67 -1.52699 -6.23988 0
M  V30 9338 C 1284.84 -2.578 -5.40574 0
M  V30 9339 N 1283.82 -2.78966 -4.61193 0
M  V30 9340 C 1282.93 -1.78725 -4.95769 0
M  V30 9341 C 1281.66 -1.45727 -4.44207 0
M  V30 9342 N 1281.1 -0.374977 -5.05812 0
M  V30 9343 C 1281.7 0.345585 -6.05615 0
M  V30 9344 N 1282.88 0.0787651 -6.56253 0
M  V30 9345 C 1283.45 -1.00499 -5.96189 0
M  V30 9346 H 1286.93 -2.53396 -6.02698 0
M  V30 9347 H 1288.42 -2.93881 -7.85526 0
M  V30 9348 H 1286.72 -2.52078 -9.87225 0
M  V30 9349 H 1286.53 -4.75072 -9.05887 0
M  V30 9350 H 1284.9 -4.05244 -8.76668 0
M  V30 9351 H 1285.74 -3.18977 -5.3945 0
M  V30 9352 H 1287.54 0.177619 -6.34151 0
M  V30 9353 P 1289.4 -1.25109 -8.70152 0
M  V30 9354 O 1290.82 -1.29744 -9.22016 0
M  V30 9355 O 1289.04 -2.13714 -7.55141 0
M  V30 9356 O 1289.08 0.248149 -8.21425 0
M  V30 9357 C 1288.92 1.22779 -9.30434 0
M  V30 9358 C 1289.46 2.56293 -8.80664 0
M  V30 9359 O 1288.4 3.02979 -8.09349 0
M  V30 9360 C 1290.67 2.57523 -7.89775 0
M  V30 9361 O 1291.41 3.7668 -7.89438 0
M  V30 9362 C 1290.01 2.20997 -6.55446 0
M  V30 9363 O 1290.8 2.71895 -5.48509 0
M  V30 9364 C 1288.67 2.89693 -6.67988 0
M  V30 9365 H 1288.7 3.88793 -6.19859 0
M  V30 9366 H 1289.88 1.12046 -6.44229 0
M  V30 9367 H 1291.37 1.7746 -8.19711 0
M  V30 9368 H 1289.67 3.20706 -9.67112 0
M  V30 9369 H 1289.48 0.901032 -10.1892 0
M  V30 9370 H 1287.85 1.33049 -9.56592 0
M  V30 9371 H 1290.49 3.57847 -5.23962 0
M  V30 9372 P 1292.35 3.65191 -7.99657 0
M  V30 9373 O 1293.77 3.89332 -8.45794 0
M  V30 9374 O 1291.99 2.28472 -7.50807 0
M  V30 9375 O 1292.03 4.64972 -6.77611 0
M  V30 9376 C 1291.87 6.06319 -7.16352 0
M  V30 9377 C 1292.41 6.91731 -6.02299 0
M  V30 9378 O 1291.35 6.92449 -5.17064 0
M  V30 9379 C 1293.62 6.43627 -5.25174 0
M  V30 9380 O 1294.36 7.43686 -4.60469 0
M  V30 9381 C 1292.96 5.40275 -4.31916 0
M  V30 9382 O 1293.75 5.25279 -3.14438 0
M  V30 9383 C 1291.62 6.04847 -4.05327 0
M  V30 9384 H 1291.65 6.62195 -3.11261 0
M  V30 9385 H 1292.83 4.42556 -4.81383 0
M  V30 9386 H 1294.32 5.92458 -5.93643 0
M  V30 9387 H 1292.62 7.92655 -6.402 0
M  V30 9388 H 1292.43 6.26671 -8.0846 0
M  V30 9389 H 1290.8 6.29101 -7.32804 0
M  V30 9390 H 1293.44 5.84315 -2.47318 0
M  V30 9391 P 1295.3 7.39546 -4.75277 0
M  V30 9392 O 1296.72 7.84798 -5.01039 0
M  V30 9393 O 1294.94 5.9812 -5.08098 0
M  V30 9394 O 1294.98 7.57503 -3.1866 0
M  V30 9395 C 1294.82 8.97357 -2.74833 0
M  V30 9396 C 1295.36 9.07548 -1.32709 0
M  V30 9397 O 1294.3 8.62072 -0.606159 0
M  V30 9398 C 1296.58 8.25383 -0.938334 0
M  V30 9399 O 1297.31 8.74577 0.146954 0
M  V30 9400 C 1295.91 6.8802 -0.712559 0
M  V30 9401 O 1296.71 6.1189 0.194655 0
M  V30 9402 C 1294.57 7.27966 -0.139777 0
M  V30 9403 H 1294.6 7.25354 0.961601 0
M  V30 9404 H 1295.78 6.32557 -1.65702 0
M  V30 9405 H 1297.27 8.19355 -1.79097 0
M  V30 9406 H 1295.57 10.1294 -1.10029 0
M  V30 9407 H 1295.38 9.64276 -3.41316 0
M  V30 9408 H 1293.75 9.25417 -2.76357 0
M  V30 9409 H 1296.39 6.25267 1.07847 0
M  V30 9410 P 1298.25 8.791 1.06576e-11 0
M  V30 9411 O 1299.67 9.31196 0.027936 0
M  V30 9412 O 1297.89 7.77869 -1.04071 0
M  V30 9413 O 1297.93 8.09533 1.41463 0
M  V30 9414 C 1297.77 9.03587 2.5397 0
M  V30 9415 C 1298.31 8.35226 3.79016 0
M  V30 9416 O 1297.25 7.57904 4.1503 0
M  V30 9417 C 1299.53 7.45087 3.67298 0
M  V30 9418 O 1300.26 7.27796 4.85194 0
M  V30 9419 C 1298.86 6.17323 3.12027 0
M  V30 9420 O 1299.66 5.04496 3.46627 0
M  V30 9421 C 1297.52 6.19961 3.81809 0
M  V30 9422 N 1296.48 5.71575 2.93223 0
M  V30 9423 C 1296.65 5.77362 1.59168 0
M  V30 9424 N 1295.62 5.3123 0.911893 0
M  V30 9425 C 1294.73 4.91717 1.89588 0
M  V30 9426 C 1293.47 4.3114 1.8076 0
M  V30 9427 N 1292.87 3.99821 0.632928 0
M  V30 9428 N 1292.9 4.06823 3.02898 0
M  V30 9429 C 1293.5 4.35062 4.22711 0
M  V30 9430 N 1294.68 4.90805 4.35707 0
M  V30 9431 C 1295.26 5.16382 3.14469 0
M  V30 9432 H 1297.55 5.58142 4.72986 0
M  V30 9433 H 1298.73 6.21428 2.0318 0
M  V30 9434 H 1300.22 7.86112 2.9231 0
M  V30 9435 H 1298.52 9.11171 4.55987 0
M  V30 9436 H 1298.33 9.9573 2.34194 0
M  V30 9437 H 1296.7 9.2792 2.67832 0
M  V30 9438 H 1292.97 4.09052 5.13359 0
M  V30 9439 H 1297.55 6.16575 1.12198 0
M  V30 9440 H 1291.94 3.55423 0.632085 0
M  V30 9441 H 1293.34 4.20317 -0.256712 0
M  V30 9442 H 1299.34 4.67628 4.28704 0
M  V30 9443 P 1301.2 7.39546 4.75277 0
M  V30 9444 O 1302.62 7.81777 5.05738 0
M  V30 9445 O 1300.84 7.1065 3.32998 0
M  V30 9446 O 1300.88 6.04542 5.56673 0
M  V30 9447 C 1300.72 6.22772 7.02095 0
M  V30 9448 C 1301.26 4.97725 7.70406 0
M  V30 9449 O 1300.2 4.13256 7.58987 0
M  V30 9450 C 1302.48 4.28231 7.11815 0
M  V30 9451 O 1303.21 3.49945 8.01648 0
M  V30 9452 C 1301.81 3.5063 5.96244 0
M  V30 9453 O 1302.61 2.36482 5.64681 0
M  V30 9454 C 1300.47 3.15122 6.56374 0
M  V30 9455 H 1300.5 2.13853 6.99751 0
M  V30 9456 H 1301.69 4.13501 5.06559 0
M  V30 9457 H 1303.17 5.03285 6.70911 0
M  V30 9458 H 1301.48 5.20877 8.75697 0
M  V30 9459 H 1301.29 7.11046 7.35349 0
M  V30 9460 H 1299.66 6.35815 7.26986 0
M  V30 9461 H 1302.29 1.61644 6.13565 0
M  V30 9462 P 1304.15 3.65191 7.99657 0
M  V30 9463 O 1305.57 3.8425 8.48115 0
M  V30 9464 O 1303.79 4.17805 6.64342 0
M  V30 9465 O 1303.83 2.07613 7.95143 0
M  V30 9466 C 1303.67 1.44328 9.27336 0
M  V30 9467 C 1304.21 0.0220036 9.17197 0
M  V30 9468 O 1303.15 -0.626867 8.61923 0
M  V30 9469 C 1305.43 -0.24586 8.30336 0
M  V30 9470 O 1306.16 -1.39011 8.63583 0
M  V30 9471 C 1304.76 -0.273849 6.91158 0
M  V30 9472 O 1305.56 -1.06348 6.02892 0
M  V30 9473 C 1303.42 -0.897649 7.22545 0
M  V30 9474 H 1303.45 -1.9841 7.04286 0
M  V30 9475 H 1304.64 0.739928 6.497 0
M  V30 9476 H 1306.12 0.60668 8.36503 0
M  V30 9477 H 1304.43 -0.352479 10.1829 0
M  V30 9478 H 1304.24 2.00611 10.0304 0
M  V30 9479 H 1302.61 1.41843 9.55327 0
M  V30 9480 H 1305.24 -1.95734 6.03555 0
M  V30 9481 P 1307.1 -1.25109 8.70152 0
M  V30 9482 O 1308.52 -1.35274 9.21221 0
M  V30 9483 O 1306.74 -0.0769065 7.84762 0
M  V30 9484 O 1306.78 -2.55232 7.81161 0
M  V30 9485 C 1306.62 -3.79939 8.58154 0
M  V30 9486 C 1307.16 -4.94023 7.72785 0
M  V30 9487 O 1306.1 -5.18726 6.91205 0
M  V30 9488 C 1308.38 -4.69597 6.85231 0
M  V30 9489 O 1309.12 -5.83832 6.51337 0
M  V30 9490 C 1307.71 -3.96706 5.66633 0
M  V30 9491 O 1308.51 -4.15414 4.49689 0
M  V30 9492 C 1306.37 -4.66153 5.59313 0
M  V30 9493 H 1306.4 -5.47679 4.85214 0
M  V30 9494 H 1307.59 -2.89008 5.86566 0
M  V30 9495 H 1309.07 -4.0121 7.36511 0
M  V30 9496 H 1307.38 -5.80182 8.37584 0
M  V30 9497 H 1307.19 -3.73517 9.52265 0
M  V30 9498 H 1305.56 -3.97163 8.80359 0
M  V30 9499 H 1308.2 -4.90969 4.01921 0
M  V30 9500 P 1310.05 -5.75688 6.64379 0
M  V30 9501 O 1311.48 -6.11849 7.01846 0
M  V30 9502 O 1309.69 -4.30744 6.56026 0
M  V30 9503 O 1309.73 -6.37042 5.19165 0
M  V30 9504 C 1309.57 -7.83578 5.16515 0
M  V30 9505 C 1310.11 -8.33398 3.83019 0
M  V30 9506 O 1309.05 -8.10074 3.01034 0
M  V30 9507 C 1311.33 -7.65514 3.2257 0
M  V30 9508 O 1312.07 -8.4329 2.32297 0
M  V30 9509 C 1310.66 -6.40075 2.62207 0
M  V30 9510 O 1311.46 -5.92589 1.53712 0
M  V30 9511 C 1309.32 -6.9454 2.18503 0
M  V30 9512 H 1309.35 -7.23063 1.12091 0
M  V30 9513 H 1310.54 -5.6025 3.37201 0
M  V30 9514 H 1312.02 -7.35707 4.02681 0
M  V30 9515 H 1310.33 -9.40912 3.9095 0
M  V30 9516 H 1310.14 -8.29056 5.99158 0
M  V30 9517 H 1308.51 -8.10073 5.25882 0
M  V30 9518 H 1311.15 -6.30324 0.726794 0
M  V30 9519 P 1313 -8.4349 2.47671 0
M  V30 9520 O 1314.43 -8.94167 2.5964 0
M  V30 9521 O 1312.64 -7.1704 3.19006 0
M  V30 9522 O 1312.68 -8.16596 0.923387 0
M  V30 9523 C 1312.52 -9.38437 0.108857 0
M  V30 9524 C 1313.06 -9.08175 -1.28353 0
M  V30 9525 O 1312 -8.44229 -1.84713 0
M  V30 9526 C 1314.28 -8.18386 -1.42505 0
M  V30 9527 O 1315.02 -8.3501 -2.60497 0
M  V30 9528 C 1313.61 -6.80225 -1.25468 0
M  V30 9529 O 1314.41 -5.81621 -1.91066 0
M  V30 9530 C 1312.27 -7.02416 -1.9168 0
M  V30 9531 H 1312.3 -6.6888 -2.96621 0
M  V30 9532 H 1313.49 -6.53617 -0.192223 0
M  V30 9533 H 1314.97 -8.36622 -0.589963 0
M  V30 9534 H 1313.28 -10.0291 -1.79807 0
M  V30 9535 H 1313.09 -10.2138 0.558219 0
M  V30 9536 H 1311.46 -9.6579 0.0444202 0
M  V30 9537 H 1314.1 -5.69556 -2.79637 0
M  V30 9538 P 1315.95 -8.4349 -2.47671 0
M  V30 9539 O 1317.38 -8.92593 -2.65 0
M  V30 9540 O 1315.59 -7.7568 -1.19296 0
M  V30 9541 O 1315.63 -7.36886 -3.63805 0
M  V30 9542 C 1315.47 -7.95349 -4.982 0
M  V30 9543 C 1316.01 -6.94612 -5.98974 0
M  V30 9544 O 1314.96 -6.10347 -6.11815 0
M  V30 9545 C 1317.23 -6.11426 -5.62335 0
M  V30 9546 O 1317.97 -5.6162 -6.70584 0
M  V30 9547 C 1316.56 -5.04409 -4.73308 0
M  V30 9548 O 1317.36 -3.85992 -4.75183 0
M  V30 9549 C 1315.22 -4.8728 -5.41006 0
M  V30 9550 H 1315.26 -4.02333 -6.11157 0
M  V30 9551 H 1316.44 -5.39466 -3.69543 0
M  V30 9552 H 1317.92 -6.71916 -5.01943 0
M  V30 9553 H 1316.23 -7.4649 -6.93477 0
M  V30 9554 H 1316.04 -8.89416 -5.05237 0
M  V30 9555 H 1314.41 -8.14876 -5.18409 0
M  V30 9556 H 1317.05 -3.27957 -5.4317 0
M  V30 9557 P 1318.9 -5.75688 -6.64379 0
M  V30 9558 O 1320.33 -6.07627 -7.05504 0
M  V30 9559 O 1318.54 -5.88047 -5.19722 0
M  V30 9560 O 1318.58 -4.2322 -7.04443 0
M  V30 9561 C 1318.42 -3.99743 -8.4911 0
M  V30 9562 C 1318.96 -2.60516 -8.79425 0
M  V30 9563 O 1317.91 -1.82684 -8.4467 0
M  V30 9564 C 1320.18 -2.10343 -8.03628 0
M  V30 9565 O 1320.92 -1.09919 -8.67766 0
M  V30 9566 C 1319.51 -1.68446 -6.70876 0
M  V30 9567 O 1320.31 -0.678137 -6.08433 0
M  V30 9568 C 1318.17 -1.17436 -7.18567 0
M  V30 9569 H 1318.21 -0.0804732 -7.31656 0
M  V30 9570 H 1319.39 -2.54037 -6.02537 0
M  V30 9571 H 1320.87 -2.93881 -7.85526 0
M  V30 9572 H 1319.18 -2.53065 -9.86973 0
M  V30 9573 H 1318.99 -4.75072 -9.05887 0
M  V30 9574 H 1317.36 -4.05244 -8.76668 0
M  V30 9575 H 1320 0.177647 -6.34251 0
M  V30 9576 P 1321.86 -1.25109 -8.70152 0
M  V30 9577 O 1323.28 -1.29744 -9.22016 0
M  V30 9578 O 1321.5 -2.13714 -7.55141 0
M  V30 9579 O 1321.53 0.248149 -8.21425 0
M  V30 9580 C 1321.37 1.22779 -9.30434 0
M  V30 9581 C 1321.91 2.56293 -8.80664 0
M  V30 9582 O 1320.86 3.02979 -8.09349 0
M  V30 9583 C 1323.13 2.57523 -7.89775 0
M  V30 9584 O 1323.87 3.7668 -7.89438 0
M  V30 9585 C 1322.46 2.20997 -6.55446 0
M  V30 9586 O 1323.26 2.71895 -5.48509 0
M  V30 9587 C 1321.12 2.89693 -6.67988 0
M  V30 9588 H 1321.16 3.88793 -6.19859 0
M  V30 9589 H 1322.34 1.12046 -6.44229 0
M  V30 9590 H 1323.82 1.7746 -8.19711 0
M  V30 9591 H 1322.13 3.20706 -9.67112 0
M  V30 9592 H 1321.94 0.901032 -10.1892 0
M  V30 9593 H 1320.31 1.33049 -9.56592 0
M  V30 9594 H 1322.95 3.57847 -5.23962 0
M  V30 9595 P 1324.81 3.65191 -7.99657 0
M  V30 9596 O 1326.23 3.89332 -8.45794 0
M  V30 9597 O 1324.45 2.28472 -7.50807 0
M  V30 9598 O 1324.48 4.64972 -6.77611 0
M  V30 9599 C 1324.32 6.06319 -7.16352 0
M  V30 9600 C 1324.86 6.91731 -6.02299 0
M  V30 9601 O 1323.81 6.92449 -5.17064 0
M  V30 9602 C 1326.08 6.43627 -5.25174 0
M  V30 9603 O 1326.82 7.43686 -4.60469 0
M  V30 9604 C 1325.41 5.40275 -4.31916 0
M  V30 9605 O 1326.21 5.25279 -3.14438 0
M  V30 9606 C 1324.07 6.04847 -4.05327 0
M  V30 9607 H 1324.11 6.62195 -3.11261 0
M  V30 9608 H 1325.29 4.42556 -4.81383 0
M  V30 9609 H 1326.77 5.92458 -5.93643 0
M  V30 9610 H 1325.08 7.92655 -6.402 0
M  V30 9611 H 1324.89 6.26671 -8.0846 0
M  V30 9612 H 1323.26 6.29101 -7.32804 0
M  V30 9613 H 1325.9 5.84315 -2.47318 0
M  V30 9614 P 1327.76 7.39546 -4.75277 0
M  V30 9615 O 1329.16 7.86988 -5.07993 0
M  V30 9616 O 1327.38 5.99957 -5.13804 0
M  V30 9617 O 1327.43 7.57411 -3.18621 0
M  V30 9618 C 1327.27 8.97357 -2.74833 0
M  V30 9619 C 1327.81 9.0745 -1.32694 0
M  V30 9620 O 1326.76 8.61972 -0.606089 0
M  V30 9621 C 1329.03 8.25383 -0.938334 0
M  V30 9622 O 1329.77 8.74577 0.146954 0
M  V30 9623 C 1328.36 6.8802 -0.712559 0
M  V30 9624 O 1329.16 6.11791 0.194623 0
M  V30 9625 C 1327.03 7.27966 -0.139777 0
M  V30 9626 N 1325.98 6.39368 -0.623421 0
M  V30 9627 C 1324.95 6.08088 0.223886 0
M  V30 9628 O 1324.99 6.5102 1.39986 0
M  V30 9629 N 1323.94 5.30627 -0.224051 0
M  V30 9630 C 1323.98 4.82531 -1.47257 0
M  V30 9631 N 1322.97 4.07328 -1.89378 0
M  V30 9632 C 1325.08 5.09974 -2.34008 0
M  V30 9633 C 1326.05 5.89548 -1.87678 0
M  V30 9634 H 1327.06 7.25255 0.961469 0
M  V30 9635 H 1328.24 6.32625 -1.65044 0
M  V30 9636 H 1329.72 8.19631 -1.78299 0
M  V30 9637 H 1328.03 10.1305 -1.09016 0
M  V30 9638 H 1327.84 9.64276 -3.41316 0
M  V30 9639 H 1326.21 9.25321 -2.76328 0
M  V30 9640 H 1325.13 4.67832 -3.3413 0
M  V30 9641 H 1326.89 6.14434 -2.51991 0
M  V30 9642 H 1322.18 3.87329 -1.26296 0
M  V30 9643 H 1322.98 3.69014 -2.84741 0
M  V30 9644 H 1328.95 6.35931 1.08377 0
M  V30 9645 P 1330.71 8.791 1.0718e-11 0
M  V30 9646 O 1332.13 9.31096 0.027933 0
M  V30 9647 O 1330.35 7.77869 -1.04071 0
M  V30 9648 O 1330.38 8.09533 1.41463 0
M  V30 9649 C 1330.22 9.0349 2.53943 0
M  V30 9650 C 1330.76 8.35226 3.79016 0
M  V30 9651 O 1329.71 7.57992 4.15078 0
M  V30 9652 C 1331.98 7.45087 3.67298 0
M  V30 9653 O 1332.72 7.27796 4.85194 0
M  V30 9654 C 1331.31 6.17323 3.12027 0
M  V30 9655 O 1332.11 5.04231 3.47188 0
M  V30 9656 C 1329.98 6.19961 3.81809 0
M  V30 9657 H 1330.01 5.58218 4.73051 0
M  V30 9658 H 1331.19 6.21726 2.02589 0
M  V30 9659 H 1332.68 7.86112 2.9231 0
M  V30 9660 H 1330.98 9.11627 4.55076 0
M  V30 9661 H 1330.79 9.9573 2.34194 0
M  V30 9662 H 1329.16 9.2792 2.67832 0
M  V30 9663 H 1331.8 4.67702 4.28772 0
M  V30 9664 P 1333.66 7.39546 4.75277 0
M  V30 9665 O 1335.08 7.81777 5.05738 0
M  V30 9666 O 1333.3 7.1065 3.32998 0
M  V30 9667 O 1333.33 6.04542 5.56673 0
M  V30 9668 C 1333.17 6.22772 7.02095 0
M  V30 9669 C 1333.71 4.97725 7.70406 0
M  V30 9670 O 1332.66 4.13256 7.58987 0
M  V30 9671 C 1334.93 4.28231 7.11815 0
M  V30 9672 O 1335.67 3.49945 8.01648 0
M  V30 9673 C 1334.26 3.5063 5.96244 0
M  V30 9674 O 1335.06 2.36482 5.64681 0
M  V30 9675 C 1332.93 3.15122 6.56374 0
M  V30 9676 H 1332.96 2.13853 6.99751 0
M  V30 9677 H 1334.14 4.13501 5.06559 0
M  V30 9678 H 1335.63 5.03285 6.70911 0
M  V30 9679 H 1333.93 5.20877 8.75697 0
M  V30 9680 H 1333.74 7.11046 7.35349 0
M  V30 9681 H 1332.11 6.35815 7.26986 0
M  V30 9682 H 1334.75 1.61644 6.13565 0
M  V30 9683 P 1336.61 3.65191 7.99657 0
M  V30 9684 O 1338.01 3.90823 8.51272 0
M  V30 9685 O 1336.23 4.23191 6.66972 0
M  V30 9686 O 1336.29 2.07587 7.95046 0
M  V30 9687 C 1336.13 1.44328 9.27336 0
M  V30 9688 C 1336.67 0.0220012 9.17097 0
M  V30 9689 O 1335.61 -0.626794 8.61824 0
M  V30 9690 C 1337.88 -0.24586 8.30336 0
M  V30 9691 O 1338.62 -1.39011 8.63583 0
M  V30 9692 C 1337.22 -0.273849 6.91158 0
M  V30 9693 O 1338.01 -1.06331 6.02794 0
M  V30 9694 C 1335.88 -0.897649 7.22545 0
M  V30 9695 N 1334.83 -0.292839 6.41732 0
M  V30 9696 C 1333.8 -1.08701 5.98712 0
M  V30 9697 O 1333.84 -2.31211 6.24471 0
M  V30 9698 N 1332.79 -0.533391 5.28415 0
M  V30 9699 C 1332.84 0.770866 4.98576 0
M  V30 9700 C 1333.93 1.59049 5.38086 0
M  V30 9701 C 1334.9 1.01866 6.10256 0
M  V30 9702 H 1335.91 -1.98383 7.04189 0
M  V30 9703 H 1337.09 0.733318 6.49674 0
M  V30 9704 H 1338.58 0.598386 8.36663 0
M  V30 9705 H 1336.88 -0.362662 10.1825 0
M  V30 9706 H 1336.69 2.00611 10.0304 0
M  V30 9707 H 1335.06 1.41828 9.55228 0
M  V30 9708 H 1333.98 2.6415 5.10622 0
M  V30 9709 H 1335.74 1.61983 6.44042 0
M  V30 9710 H 1337.8 -1.97777 6.14035 0
M  V30 9711 P 1339.56 -1.25109 8.70152 0
M  V30 9712 O 1340.98 -1.35274 9.21221 0
M  V30 9713 O 1339.2 -0.0769065 7.84762 0
M  V30 9714 O 1339.24 -2.55232 7.81161 0
M  V30 9715 C 1339.08 -3.79939 8.58154 0
M  V30 9716 C 1339.62 -4.94023 7.72785 0
M  V30 9717 O 1338.56 -5.18726 6.91205 0
M  V30 9718 C 1340.83 -4.69597 6.85231 0
M  V30 9719 O 1341.57 -5.83832 6.51337 0
M  V30 9720 C 1340.16 -3.96706 5.66633 0
M  V30 9721 O 1340.96 -4.15414 4.49689 0
M  V30 9722 C 1338.83 -4.66153 5.59313 0
M  V30 9723 H 1338.86 -5.47679 4.85214 0
M  V30 9724 H 1340.04 -2.89008 5.86566 0
M  V30 9725 H 1341.53 -4.0121 7.36511 0
M  V30 9726 H 1339.83 -5.80182 8.37584 0
M  V30 9727 H 1339.64 -3.73517 9.52265 0
M  V30 9728 H 1338.01 -3.97163 8.80359 0
M  V30 9729 H 1340.65 -4.90969 4.01921 0
M  V30 9730 P 1342.51 -5.75688 6.64379 0
M  V30 9731 O 1343.93 -6.11849 7.01846 0
M  V30 9732 O 1342.15 -4.30744 6.56026 0
M  V30 9733 O 1342.19 -6.37042 5.19165 0
M  V30 9734 C 1342.03 -7.83578 5.16515 0
M  V30 9735 C 1342.57 -8.33398 3.83019 0
M  V30 9736 O 1341.51 -8.10074 3.01034 0
M  V30 9737 C 1343.78 -7.65514 3.2257 0
M  V30 9738 O 1344.52 -8.4329 2.32297 0
M  V30 9739 C 1343.12 -6.40075 2.62207 0
M  V30 9740 O 1343.91 -5.92589 1.53712 0
M  V30 9741 C 1341.78 -6.9454 2.18503 0
M  V30 9742 H 1341.81 -7.23063 1.12091 0
M  V30 9743 H 1342.99 -5.6025 3.37201 0
M  V30 9744 H 1344.48 -7.35707 4.02681 0
M  V30 9745 H 1342.78 -9.40912 3.9095 0
M  V30 9746 H 1342.59 -8.29056 5.99158 0
M  V30 9747 H 1340.96 -8.10073 5.25882 0
M  V30 9748 H 1343.6 -6.30324 0.726794 0
M  V30 9749 P 1345.46 -8.4349 2.47671 0
M  V30 9750 O 1346.88 -8.94167 2.5964 0
M  V30 9751 O 1345.1 -7.1704 3.19006 0
M  V30 9752 O 1345.14 -8.16596 0.923387 0
M  V30 9753 C 1344.98 -9.38437 0.108857 0
M  V30 9754 C 1345.52 -9.08175 -1.28353 0
M  V30 9755 O 1344.46 -8.44229 -1.84713 0
M  V30 9756 C 1346.73 -8.18386 -1.42505 0
M  V30 9757 O 1347.47 -8.3501 -2.60497 0
M  V30 9758 C 1346.07 -6.80225 -1.25468 0
M  V30 9759 O 1346.86 -5.81621 -1.91066 0
M  V30 9760 C 1344.73 -7.02416 -1.9168 0
M  V30 9761 H 1344.76 -6.6888 -2.96621 0
M  V30 9762 H 1345.94 -6.53617 -0.192223 0
M  V30 9763 H 1347.43 -8.36622 -0.589963 0
M  V30 9764 H 1345.73 -10.0291 -1.79807 0
M  V30 9765 H 1345.54 -10.2138 0.558219 0
M  V30 9766 H 1343.91 -9.6579 0.0444202 0
M  V30 9767 H 1346.55 -5.69556 -2.79637 0
M  V30 9768 H 1349.11 -7.91782 -2.28882 0
M  V30 END ATOM
M  V30 BEGIN BOND
M  V30 END BOND
M  V30 END CTAB
M  END
$$$$
