drugbank_target|P62658 30S ribosomal protein S17 (DB08185)
 OpenBabel12092120483D

  0  0  0     0  0            999 V3000
M  V30 BEGIN CTAB
M  V30 COUNTS 1806 1819 0 0 0
M  V30 BEGIN ATOM
M  V30 1 H -0.908 1.98254 -0.117106 0
M  V30 2 N 0 1.576 0 0
M  V30 3 C 0.933 2.03868 1.02534 0
M  V30 4 C 1.911 0.928543 1.3348 0
M  V30 5 O 3.095 1.19667 1.45644 0
M  V30 6 C 0.222 2.43627 2.35294 0
M  V30 7 C -0.732 3.65373 2.2001 0
M  V30 8 S 0.101 5.13292 1.52614 0
M  V30 9 C 1.257 5.56322 2.86805 0
M  V30 10 H 1.49 2.90518 0.631377 0
M  V30 11 H -0.977 1.52953 0.210867 0
M  V30 12 H 0.981 2.67203 3.11629 0
M  V30 13 H -0.358 1.57376 2.7183 0
M  V30 14 H -1.165 3.90944 3.18086 0
M  V30 15 H -1.563 3.418 1.51819 0
M  V30 16 H 0.729 5.58782 3.83104 0
M  V30 17 H 1.672 6.56266 2.65933 0
M  V30 18 H 2.08 4.83886 2.90714 0
M  V30 19 N 1.4781 -0.272755 1.55222 0
M  V30 20 C 2.8891 -0.84378 1.66545 0
M  V30 21 C 3.2401 -1.87035 0.592641 0
M  V30 22 O 2.3651 -2.14761 -0.265818 0
M  V30 23 C 2.9601 -1.53723 3.01918 0
M  V30 24 C 1.5191 -2.05628 3.15268 0
M  V30 25 C 0.6661 -0.898424 2.62343 0
M  V30 26 H 3.6171 -0.0490998 1.58624 0
M  V30 27 H 3.6381 -2.40421 2.94921 0
M  V30 28 H 3.1501 -0.78983 3.79978 0
M  V30 29 H 1.2511 -2.83329 2.41983 0
M  V30 30 H 1.3641 -2.27142 4.21833 0
M  V30 31 H -0.2719 -1.29186 2.19506 0
M  V30 32 H 0.5111 -0.164528 3.42906 0
M  V30 33 N 2.9562 -1.48159 -0.537278 0
M  V30 34 C 3.9032 -1.62138 -1.64256 0
M  V30 35 C 4.8732 -0.463668 -1.59497 0
M  V30 36 O 6.0582 -0.686241 -1.78032 0
M  V30 37 C 3.1982 -1.66028 -3.02537 0
M  V30 38 C 2.3112 -2.92855 -3.17585 0
M  V30 39 C 1.4462 -2.87952 -4.46382 0
M  V30 40 C 0.4852 -4.09516 -4.54932 0
M  V30 41 N -0.3778 -4.02733 -5.75109 0
M  V30 42 H 4.4622 -2.56529 -1.51647 0
M  V30 43 H 1.9992 -1.27224 -0.738414 0
M  V30 44 H 3.9572 -1.66265 -3.82638 0
M  V30 45 H 2.5872 -0.751331 -3.13934 0
M  V30 46 H 1.6392 -3.02395 -2.30784 0
M  V30 47 H 2.9512 -3.82822 -3.19764 0
M  V30 48 H 2.1052 -2.8655 -5.34765 0
M  V30 49 H 0.8442 -1.95702 -4.46712 0
M  V30 50 H -0.1508 -4.11201 -3.64957 0
M  V30 51 H 1.0742 -5.02917 -4.56346 0
M  V30 52 H -0.9798 -3.13299 -5.76351 0
M  V30 53 H -1.0628 -4.86397 -5.78752 0
M  V30 54 H 0.2052 -4.05379 -6.65799 0
M  V30 55 N 4.4343 0.785586 -1.36625 0
M  V30 56 C 5.3813 1.89838 -1.31264 0
M  V30 57 C 6.3513 1.65115 -0.180633 0
M  V30 58 O 7.5363 1.87222 -0.36777 0
M  V30 59 C 4.6763 3.26706 -1.11163 0
M  V30 60 C 3.7893 3.63476 -2.33472 0
M  V30 61 C 2.9243 4.89481 -2.06353 0
M  V30 62 C 1.9633 5.18941 -3.24602 0
M  V30 63 N 1.1003 6.36131 -2.97123 0
M  V30 64 H 5.9403 1.93756 -2.26413 0
M  V30 65 H 3.4773 0.947454 -1.12524 0
M  V30 66 H 5.4353 4.05639 -0.975337 0
M  V30 67 H 4.0653 3.222 -0.196674 0
M  V30 68 H 3.1173 2.79636 -2.57891 0
M  V30 69 H 4.4293 3.81193 -3.21704 0
M  V30 70 H 3.5833 5.76288 -1.89675 0
M  V30 71 H 2.3223 4.73841 -1.15437 0
M  V30 72 H 1.3273 4.30615 -3.41834 0
M  V30 73 H 2.5523 5.36498 -4.16349 0
M  V30 74 H 0.4983 6.21875 -2.08823 0
M  V30 75 H 0.4153 6.54198 -3.78894 0
M  V30 76 H 1.6833 7.2591 -2.84033 0
M  V30 77 N 5.9124 1.20967 1.01018 0
M  V30 78 C 7.1584 1.02526 1.74975 0
M  V30 79 C 7.4914 -0.4408 1.89131 0
M  V30 80 O 6.7664 -1.32718 1.42184 0
M  V30 81 C 7.0494 1.71699 3.1653 0
M  V30 82 C 6.9024 3.25791 3.10129 0
M  V30 83 C 8.2214 1.45531 4.15342 0
M  V30 84 H 5.3404 0.373863 0.635134 0
M  V30 85 H 7.9824 1.49071 1.17805 0
M  V30 86 H 6.1324 1.32128 3.65341 0
M  V30 87 H 7.8044 3.74697 2.69072 0
M  V30 88 H 6.0474 3.56363 2.47362 0
M  V30 89 H 6.7184 3.69353 4.10222 0
M  V30 90 H 9.1944 1.79872 3.75213 0
M  V30 91 H 8.0704 1.96453 5.1254 0
M  V30 92 H 8.3314 0.384237 4.40427 0
M  V30 93 N 7.3905 -1.2043 1.01659 0
M  V30 94 C 8.3205 -2.25466 0.607226 0
M  V30 95 C 9.3015 -1.65853 -0.377716 0
M  V30 96 O 10.4865 -1.92409 -0.263149 0
M  V30 97 C 7.6165 -3.47256 -0.0552949 0
M  V30 98 C 6.5705 -4.19462 0.850632 0
M  V30 99 C 5.8965 -5.34673 0.0538859 0
M  V30 100 C 7.1965 -4.75603 2.15868 0
M  V30 101 H 8.8905 -2.59962 1.48526 0
M  V30 102 H 6.4365 -1.2496 0.715605 0
M  V30 103 H 8.3895 -4.19917 -0.353233 0
M  V30 104 H 7.1135 -3.11924 -0.968045 0
M  V30 105 H 5.7725 -3.48667 1.13257 0
M  V30 106 H 5.4205 -4.95585 -0.860514 0
M  V30 107 H 5.1205 -5.83913 0.657192 0
M  V30 108 H 6.6445 -6.10138 -0.237598 0
M  V30 109 H 8.0585 -5.40083 1.92311 0
M  V30 110 H 6.4555 -5.3528 2.71284 0
M  V30 111 H 7.5255 -3.94346 2.82169 0
M  V30 112 N 8.8686 -0.792821 -1.36206 0
M  V30 113 C 10.0966 -0.378825 -2.03402 0
M  V30 114 C 10.5116 1.00586 -1.59774 0
M  V30 115 O 9.8686 1.64574 -0.788764 0
M  V30 116 C 9.9196 -0.43683 -3.58851 0
M  V30 117 O 9.6406 -1.76691 -4.00889 0
M  V30 118 C 11.1416 -0.0138943 -4.43298 0
M  V30 119 H 8.3616 -0.155673 -0.652692 0
M  V30 120 H 10.9056 -1.07261 -1.74113 0
M  V30 121 H 9.0606 0.208575 -3.86838 0
M  V30 122 H 9.4746 -1.72011 -4.95492 0
M  V30 123 H 10.9486 -0.105615 -5.51899 0
M  V30 124 H 11.4256 1.03915 -4.2673 0
M  V30 125 H 12.0316 -0.63192 -4.20579 0
M  V30 126 N 10.3467 1.47872 -0.545128 0
M  V30 127 C 11.5947 2.02093 -0.016553 0
M  V30 128 C 11.9157 1.42305 1.3332 0
M  V30 129 O 11.1857 0.593853 1.86682 0
M  V30 130 H 9.7657 0.746993 -0.00313038 0
M  V30 131 H 12.4277 1.81414 -0.712397 0
M  V30 132 H 11.5237 3.11996 0.0805422 0
M  V30 133 N 11.8248 0.280983 1.55075 0
M  V30 134 C 13.0708 -0.33461 2.00021 0
M  V30 135 C 13.4038 -1.55063 1.16915 0
M  V30 136 O 12.6788 -1.93006 0.240646 0
M  V30 137 C 12.9618 -0.711007 3.53011 0
M  V30 138 C 12.8148 0.512766 4.46868 0
M  V30 139 C 14.1338 -1.54522 4.12081 0
M  V30 140 H 11.2528 -0.120147 0.727141 0
M  V30 141 H 13.8948 0.389097 1.85973 0
M  V30 142 H 12.0448 -1.32761 3.65112 0
M  V30 143 H 13.7168 1.15131 4.46702 0
M  V30 144 H 11.9598 1.14975 4.18286 0
M  V30 145 H 12.6308 0.205556 5.51617 0
M  V30 146 H 15.1068 -1.02442 4.03293 0
M  V30 147 H 13.9828 -1.77739 5.19327 0
M  V30 148 H 14.2438 -2.52813 3.62682 0
M  V30 149 N 13.3029 -1.57598 0.00835791 0
M  V30 150 C 14.5489 -1.91211 -0.675732 0
M  V30 151 C 14.8819 -0.883139 -1.72958 0
M  V30 152 O 14.1569 0.097016 -1.94258 0
M  V30 153 C 14.4399 -3.35379 -1.31123 0
M  V30 154 C 14.2929 -4.48999 -0.268356 0
M  V30 155 C 15.6119 -3.7912 -2.23508 0
M  V30 156 H 12.7309 -0.695374 -0.244179 0
M  V30 157 H 15.3729 -1.89901 0.0613655 0
M  V30 158 H 13.5229 -3.36626 -1.93946 0
M  V30 159 H 15.1949 -4.59887 0.360844 0
M  V30 160 H 13.4379 -4.31873 0.408482 0
M  V30 161 H 14.1089 -5.46851 -0.752218 0
M  V30 162 H 16.5849 -3.79477 -1.70693 0
M  V30 163 H 15.4609 -4.80729 -2.64936 0
M  V30 164 H 15.7219 -3.13455 -3.11766 0
M  V30 165 N 14.781 0.264519 -1.55364 0
M  V30 166 C 16.027 0.99646 -1.76631 0
M  V30 167 C 16.36 1.85632 -0.570478 0
M  V30 168 O 15.635 1.89647 0.43175 0
M  V30 169 C 15.918 1.87187 -3.07625 0
M  V30 170 C 15.771 1.04138 -4.37579 0
M  V30 171 C 17.09 2.85749 -3.34717 0
M  V30 172 H 14.209 0.360841 -0.642622 0
M  V30 173 H 16.851 0.268218 -1.88097 0
M  V30 174 H 15.001 2.49279 -2.9798 0
M  V30 175 H 16.673 0.440517 -4.59192 0
M  V30 176 H 14.916 0.345115 -4.32425 0
M  V30 177 H 15.587 1.68729 -5.2558 0
M  V30 178 H 18.063 2.33793 -3.4421 0
M  V30 179 H 16.939 3.44136 -4.27623 0
M  V30 180 H 17.2 3.61311 -2.54768 0
M  V30 181 N 16.2591 1.48442 0.529413 0
M  V30 182 C 17.4841 1.60406 1.31471 0
M  V30 183 C 17.9091 0.264738 1.86228 0
M  V30 184 O 17.2671 -0.763668 1.64432 0
M  V30 185 C 17.3151 2.65419 2.44101 0
M  V30 186 O 16.4191 2.22618 3.47153 0
M  V30 187 H 15.7601 0.537863 0.389357 0
M  V30 188 H 18.2901 1.94432 0.636965 0
M  V30 189 H 18.3001 2.86709 2.90279 0
M  V30 190 H 16.9751 3.62652 2.03608 0
M  V30 191 H 15.5521 2.11543 3.0709 0
M  V30 192 N 17.7372 -0.778329 1.37039 0
M  V30 193 C 19.0142 -1.52551 1.22424 0
M  V30 194 C 19.3942 -2.10288 -0.184964 0
M  V30 195 O 18.7422 -1.94953 -1.19187 0
M  V30 196 C 18.9522 -2.61164 2.31504 0
M  V30 197 C 20.3002 -3.28746 2.68721 0
M  V30 198 O 21.3242 -2.71455 2.30631 0
M  V30 199 O 20.1832 -4.3231 3.3432 0
M  V30 200 H 17.2772 -0.675343 0.477326 0
M  V30 201 H 19.8232 -0.815859 1.48801 0
M  V30 202 H 18.5952 -2.16574 3.25901 0
M  V30 203 H 18.2182 -3.39737 2.06554 0
M  V30 204 N 19.2153 -1.21501 -1.00376 0
M  V30 205 C 20.1623 -0.975387 -2.09177 0
M  V30 206 C 21.1323 0.0990615 -1.65804 0
M  V30 207 O 22.3173 -0.0483147 -1.90739 0
M  V30 208 C 19.4573 -0.547507 -3.40729 0
M  V30 209 C 18.5703 -1.69153 -3.97506 0
M  V30 210 C 17.7053 -1.2127 -5.17172 0
M  V30 211 C 16.7443 -2.32897 -5.66061 0
M  V30 212 N 15.8813 -1.86138 -6.76976 0
M  V30 213 H 20.7213 -1.9068 -2.29009 0
M  V30 214 H 18.2583 -0.950257 -1.12288 0
M  V30 215 H 20.2163 -0.280667 -4.16255 0
M  V30 216 H 18.8463 0.346904 -3.20931 0
M  V30 217 H 17.8983 -2.07298 -3.18954 0
M  V30 218 H 19.2103 -2.5316 -4.29781 0
M  V30 219 H 18.3643 -0.902591 -5.99948 0
M  V30 220 H 17.1033 -0.342692 -4.86495 0
M  V30 221 H 16.1083 -2.64709 -4.81881 0
M  V30 222 H 17.3333 -3.20396 -5.98768 0
M  V30 223 H 15.2793 -1.01484 -6.48103 0
M  V30 224 H 15.1963 -2.63717 -7.08512 0
M  V30 225 H 16.4643 -1.58165 -7.63285 0
M  V30 226 N 20.6934 1.19889 -1.02296 0
M  V30 227 C 21.6264 2.21639 -0.543282 0
M  V30 228 C 22.6044 1.57275 0.412698 0
M  V30 229 O 23.7884 1.85568 0.331198 0
M  V30 230 C 20.9154 3.38057 0.208571 0
M  V30 231 C 19.9614 4.20751 -0.697933 0
M  V30 232 S 20.7944 4.89529 -2.17075 0
M  V30 233 C 21.9504 6.09363 -1.42923 0
M  V30 234 H 22.1834 2.61984 -1.40541 0
M  V30 235 H 19.7164 1.30041 -0.832387 0
M  V30 236 H 21.6744 4.05539 0.63624 0
M  V30 237 H 20.3354 2.96159 1.04635 0
M  V30 238 H 19.5284 5.03862 -0.117831 0
M  V30 239 H 19.1304 3.58556 -1.06366 0
M  V30 240 H 21.4224 6.73742 -0.712637 0
M  V30 241 H 22.3654 6.71845 -2.23673 0
M  V30 242 H 22.7734 5.56798 -0.929327 0
M  V30 243 N 22.1715 0.800033 1.35784 0
M  V30 244 C 23.1035 0.163596 2.28615 0
M  V30 245 C 24.1165 -0.633317 1.49976 0
M  V30 246 O 25.3055 -0.466754 1.72289 0
M  V30 247 C 22.4055 -0.790958 3.29541 0
M  V30 248 C 21.5785 -0.0418255 4.3738 0
M  V30 249 C 20.6375 -0.91389 5.18203 0
M  V30 250 O 19.6635 -0.367234 5.68014 0
M  V30 251 N 20.8655 -2.23682 5.35674 0
M  V30 252 H 23.6305 0.96105 2.83873 0
M  V30 253 H 21.1915 0.654894 1.48063 0
M  V30 254 H 23.1835 -1.37844 3.80501 0
M  V30 255 H 21.7535 -1.48925 2.74846 0
M  V30 256 H 20.9735 0.726813 3.87442 0
M  V30 257 H 22.2615 0.474719 5.06581 0
M  V30 258 H 21.6595 -2.70497 4.96838 0
M  V30 259 H 20.2165 -2.77369 5.89839 0
M  V30 260 N 23.6496 -1.47581 0.552962 0
M  V30 261 C 24.5966 -2.29957 -0.197108 0
M  V30 262 C 25.5666 -1.38799 -0.912359 0
M  V30 263 O 26.7516 -1.67761 -0.908888 0
M  V30 264 C 23.8916 -3.22672 -1.22379 0
M  V30 265 C 23.0046 -4.28919 -0.515038 0
M  V30 266 C 22.1396 -5.0879 -1.52664 0
M  V30 267 C 21.1786 -6.06815 -0.802631 0
M  V30 268 N 20.3156 -6.7966 -1.76086 0
M  V30 269 H 25.1556 -2.93578 0.511486 0
M  V30 270 H 22.6926 -1.4471 0.264067 0
M  V30 271 H 24.6506 -3.74845 -1.83159 0
M  V30 272 H 23.2806 -2.60925 -1.90047 0
M  V30 273 H 22.3326 -3.79835 0.207192 0
M  V30 274 H 23.6446 -4.98773 0.0523425 0
M  V30 275 H 22.7986 -5.65091 -2.20809 0
M  V30 276 H 21.5376 -4.38828 -2.12794 0
M  V30 277 H 20.5426 -5.49695 -0.107238 0
M  V30 278 H 21.7676 -6.78784 -0.207135 0
M  V30 279 H 19.7136 -6.12432 -2.35081 0
M  V30 280 H 19.6306 -7.45669 -1.24552 0
M  V30 281 H 20.8986 -7.40538 -2.43359 0
M  V30 282 N 25.1277 -0.289203 -1.54924 0
M  V30 283 C 26.3557 0.326463 -2.04308 0
M  V30 284 C 26.7707 1.48413 -1.16701 0
M  V30 285 O 26.1277 1.81507 -0.190087 0
M  V30 286 C 26.1787 0.794014 -3.52672 0
M  V30 287 O 25.8997 -0.317564 -4.36948 0
M  V30 288 C 27.4007 1.47605 -4.18004 0
M  V30 289 H 24.6207 0.0726272 -0.667058 0
M  V30 290 H 27.1647 -0.425401 -2.00026 0
M  V30 291 H 25.3197 1.49593 -3.57352 0
M  V30 292 H 25.7337 0.0443186 -5.24481 0
M  V30 293 H 27.2077 1.75447 -5.23376 0
M  V30 294 H 27.6847 2.41224 -3.67025 0
M  V30 295 H 28.2907 0.81762 -4.17367 0
M  V30 296 N 26.6058 1.57591 -0.0167156 0
M  V30 297 C 27.8518 1.91567 0.665582 0
M  V30 298 C 28.1848 0.892298 1.72487 0
M  V30 299 O 27.4598 -0.0867127 1.94307 0
M  V30 300 C 27.7428 3.36069 1.29342 0
M  V30 301 C 27.5958 4.49135 0.244541 0
M  V30 302 C 28.9148 3.803 2.21495 0
M  V30 303 H 26.0338 0.69666 0.240488 0
M  V30 304 H 28.6758 1.89866 -0.0714356 0
M  V30 305 H 26.8258 3.3765 1.92158 0
M  V30 306 H 28.4978 4.59689 -0.385228 0
M  V30 307 H 26.7408 4.3165 -0.431379 0
M  V30 308 H 27.4118 5.47242 0.723207 0
M  V30 309 H 29.8878 3.80377 1.68678 0
M  V30 310 H 28.7638 4.82127 2.62382 0
M  V30 311 H 29.0248 3.15104 3.101 0
M  V30 312 N 28.0839 -0.256276 1.55502 0
M  V30 313 C 29.3119 -1.00342 1.8094 0
M  V30 314 C 29.7269 -1.79307 0.59114 0
M  V30 315 O 29.0839 -1.77114 -0.440081 0
M  V30 316 C 29.1349 -1.94875 3.04476 0
M  V30 317 O 28.8559 -1.19107 4.21598 0
M  V30 318 C 30.3569 -2.81266 3.42644 0
M  V30 319 H 27.5769 -0.295685 0.602338 0
M  V30 320 H 30.1209 -0.281998 2.02546 0
M  V30 321 H 28.2759 -2.62457 2.84947 0
M  V30 322 H 28.6899 -1.82969 4.91551 0
M  V30 323 H 30.1639 -3.43362 4.32211 0
M  V30 324 H 30.6409 -3.51897 2.62802 0
M  V30 325 H 31.2469 -2.1915 3.64491 0
M  V30 326 N 29.562 -1.4872 -0.521534 0
M  V30 327 C 30.808 -1.574 -1.27879 0
M  V30 328 C 31.141 -0.250817 -1.92573 0
M  V30 329 O 30.416 0.743934 -1.79711 0
M  V30 330 C 30.699 -2.71843 -2.36164 0
M  V30 331 C 30.552 -4.13893 -1.76105 0
M  V30 332 C 31.871 -2.82008 -3.37875 0
M  V30 333 H 28.99 -0.572941 -0.463581 0
M  V30 334 H 31.632 -1.80927 -0.580119 0
M  V30 335 H 29.782 -2.51914 -2.95756 0
M  V30 336 H 31.454 -4.45284 -1.20499 0
M  V30 337 H 29.697 -4.20498 -1.06601 0
M  V30 338 H 30.368 -4.89804 -2.5455 0
M  V30 339 H 32.844 -3.00086 -2.88249 0
M  V30 340 H 31.72 -3.63796 -4.11028 0
M  V30 341 H 31.981 -1.90511 -3.98946 0
M  V30 342 N 31.0401 0.771051 -1.3745 0
M  V30 343 C 31.9701 1.89827 -1.3597 0
M  V30 344 C 32.9511 1.68562 -0.228216 0
M  V30 345 O 34.1361 1.8941 -0.428675 0
M  V30 346 C 31.2661 3.2712 -1.16662 0
M  V30 347 C 30.2201 3.6295 -2.2683 0
M  V30 348 C 29.5461 4.98791 -1.92644 0
M  V30 349 C 30.8461 3.69627 -3.69017 0
M  V30 350 H 32.5401 1.91323 -2.30295 0
M  V30 351 H 30.0861 0.919082 -1.10855 0
M  V30 352 H 32.0391 4.05615 -1.14256 0
M  V30 353 H 30.7631 3.26059 -0.187926 0
M  V30 354 H 29.4221 2.86763 -2.28392 0
M  V30 355 H 29.0701 4.94271 -0.933021 0
M  V30 356 H 28.7701 5.23733 -2.66416 0
M  V30 357 H 30.2941 5.79685 -1.91826 0
M  V30 358 H 31.7081 4.38273 -3.69581 0
M  V30 359 H 30.1051 4.06067 -4.41848 0
M  V30 360 H 31.1751 2.70273 -4.02592 0
M  V30 361 N 32.5182 1.22032 0.997298 0
M  V30 362 C 33.7642 1.04376 1.73878 0
M  V30 363 C 34.0972 -0.420716 1.89588 0
M  V30 364 O 33.3722 -1.31202 1.43583 0
M  V30 365 C 33.6552 1.75047 3.14691 0
M  V30 366 C 33.5082 3.29062 3.06656 0
M  V30 367 C 34.8272 1.49928 4.13775 0
M  V30 368 H 31.9462 0.380578 0.631133 0
M  V30 369 H 34.5882 1.50312 1.16217 0
M  V30 370 H 32.7382 1.35996 3.63919 0
M  V30 371 H 34.4102 3.7753 2.65083 0
M  V30 372 H 32.6532 3.58967 2.43568 0
M  V30 373 H 33.3242 3.73683 4.06282 0
M  V30 374 H 35.8002 1.83842 3.73285 0
M  V30 375 H 34.6762 2.01878 5.10428 0
M  V30 376 H 34.9372 0.430929 4.39995 0
M  V30 377 N 33.9963 -1.19345 1.0293 0
M  V30 378 C 34.9063 -2.26245 0.620515 0
M  V30 379 C 35.9223 -1.70486 -0.347928 0
M  V30 380 O 37.0983 -2.00347 -0.205704 0
M  V30 381 C 34.1633 -3.46693 -0.0218957 0
M  V30 382 C 33.2243 -4.17632 0.994102 0
M  V30 383 C 32.4573 -5.32329 0.382253 0
M  V30 384 O 32.6803 -5.64552 -0.814676 0
M  V30 385 O 31.6143 -5.91664 1.10531 0
M  V30 386 H 35.4403 -2.63453 1.51083 0
M  V30 387 H 33.0253 -1.26207 0.799513 0
M  V30 388 H 34.9073 -4.19683 -0.380072 0
M  V30 389 H 33.5823 -3.11333 -0.886209 0
M  V30 390 H 32.4893 -3.4676 1.40387 0
M  V30 391 H 33.8223 -4.56964 1.8288 0
M  V30 392 N 35.4744 -0.807222 -1.35358 0
M  V30 393 C 36.8904 -0.491038 -1.51858 0
M  V30 394 C 37.0904 0.987648 -1.75635 0
M  V30 395 O 36.1464 1.77265 -1.79815 0
M  V30 396 C 37.4594 -1.33695 -2.69344 0
M  V30 397 C 39.0074 -1.33246 -2.83222 0
M  V30 398 C 39.4824 -2.1625 -4.03733 0
M  V30 399 N 40.9734 -2.1379 -4.10911 0
M  V30 400 C 41.7084 -2.74772 -5.03277 0
M  V30 401 N 41.2044 -3.44684 -6.0097 0
M  V30 402 N 42.9974 -2.6441 -4.96028 0
M  V30 403 H 35.1484 -1.76485 -1.18181 0
M  V30 404 H 37.4114 -0.751199 -0.578276 0
M  V30 405 H 37.1174 -2.38634 -2.58354 0
M  V30 406 H 36.9914 -0.990618 -3.6396 0
M  V30 407 H 39.3784 -0.290911 -2.93663 0
M  V30 408 H 39.4594 -1.71866 -1.89461 0
M  V30 409 H 39.1034 -3.20445 -3.94052 0
M  V30 410 H 39.0334 -1.74989 -4.96675 0
M  V30 411 H 41.5244 -1.62923 -3.40976 0
M  V30 412 H 41.8374 -3.88501 -6.68047 0
M  V30 413 H 40.1824 -3.48788 -6.01142 0
M  V30 414 H 43.3734 -2.0938 -4.18662 0
M  V30 415 H 43.5464 -3.12225 -5.6782 0
M  V30 416 N 36.9525 1.47285 -0.560781 0
M  V30 417 C 37.8845 2.28118 0.222438 0
M  V30 418 C 38.8975 1.37219 0.876056 0
M  V30 419 O 40.0865 1.62011 0.749307 0
M  V30 420 C 37.1865 3.1159 1.33285 0
M  V30 421 C 36.3595 4.30473 0.77534 0
M  V30 422 C 35.4185 4.95513 1.77069 0
M  V30 423 O 34.4445 5.53792 1.31539 0
M  V30 424 N 35.6465 4.90531 3.10418 0
M  V30 425 H 38.4115 2.95976 -0.470958 0
M  V30 426 H 35.9725 1.56955 -0.39709 0
M  V30 427 H 37.9645 3.51967 1.99752 0
M  V30 428 H 36.5345 2.45951 1.92943 0
M  V30 429 H 35.7545 3.94144 -0.0662113 0
M  V30 430 H 37.0425 5.07362 0.382272 0
M  V30 431 H 36.4405 4.44389 3.5005 0
M  V30 432 H 34.9975 5.34917 3.72434 0
M  V30 433 N 38.4306 0.297415 1.54768 0
M  V30 434 C 39.6776 -0.312913 2.00068 0
M  V30 435 C 40.0056 -1.54171 1.18582 0
M  V30 436 O 39.2606 -1.94108 0.249133 0
M  V30 437 C 39.5596 -0.717561 3.50123 0
M  V30 438 C 39.2256 0.409095 4.4904 0
M  V30 439 C 37.8876 0.718399 4.75807 0
M  V30 440 C 40.2396 1.16717 5.07963 0
M  V30 441 C 37.5676 1.78896 5.5876 0
M  V30 442 C 39.9196 2.22762 5.92081 0
M  V30 443 C 38.5836 2.54303 6.1716 0
M  V30 444 H 37.8536 -0.114503 0.7321 0
M  V30 445 H 40.5006 0.415767 1.86932 0
M  V30 446 H 38.8056 -1.52627 3.60849 0
M  V30 447 H 40.5026 -1.20091 3.82595 0
M  V30 448 H 37.0926 0.157918 4.28309 0
M  V30 449 H 41.2766 0.941466 4.87289 0
M  V30 450 H 36.5326 2.0381 5.7643 0
M  V30 451 H 40.7066 2.81962 6.36765 0
M  V30 452 H 38.3336 3.3739 6.81229 0
M  V30 453 N 39.9087 -1.5758 0.0250728 0
M  V30 454 C 41.3197 -1.79476 -0.514323 0
M  V30 455 C 41.6707 -0.934956 -1.72491 0
M  V30 456 O 40.7957 -0.144245 -2.15919 0
M  V30 457 C 41.3907 -3.25503 -0.939842 0
M  V30 458 C 39.9497 -3.48408 -1.42438 0
M  V30 459 C 39.0967 -2.74583 -0.387201 0
M  V30 460 H 42.0477 -1.567 0.25113 0
M  V30 461 H 42.0687 -3.34992 -1.80445 0
M  V30 462 H 41.5807 -3.88056 -0.0585628 0
M  V30 463 H 39.6817 -2.91103 -2.32572 0
M  V30 464 H 39.7947 -4.57119 -1.43455 0
M  V30 465 H 38.1587 -2.39942 -0.854409 0
M  V30 466 H 38.9417 -3.39849 0.485543 0
M  V30 467 N 41.3868 0.248026 -1.55636 0
M  V30 468 C 42.3368 1.30994 -1.86614 0
M  V30 469 C 43.3208 1.43543 -0.726918 0
M  V30 470 O 44.5128 1.46804 -0.988818 0
M  V30 471 C 41.6418 2.6656 -2.16335 0
M  V30 472 C 40.7278 2.58019 -3.36581 0
M  V30 473 N 41.1188 2.1911 -4.55878 0
M  V30 474 C 39.4168 2.89035 -3.39669 0
M  V30 475 C 40.1178 2.21174 -5.38012 0
M  V30 476 N 39.0938 2.60632 -4.77045 0
M  V30 477 H 42.8958 0.999583 -2.76379 0
M  V30 478 H 40.4098 0.456652 -1.55848 0
M  V30 479 H 42.4068 3.43194 -2.36692 0
M  V30 480 H 41.0668 2.98463 -1.27867 0
M  V30 481 H 42.0778 1.90672 -4.81523 0
M  V30 482 H 38.7548 3.25485 -2.61469 0
M  V30 483 H 40.1448 1.9344 -6.43452 0
M  V30 484 N 42.8649 1.48995 0.513639 0
M  V30 485 C 44.2759 1.5119 1.09537 0
M  V30 486 C 44.6269 0.290906 1.94031 0
M  V30 487 O 43.7519 -0.60049 2.07902 0
M  V30 488 C 44.3469 2.73964 1.99322 0
M  V30 489 C 42.9059 2.78978 2.52682 0
M  V30 490 C 42.0529 2.44934 1.30009 0
M  V30 491 H 45.0039 1.55875 0.298125 0
M  V30 492 H 45.0249 2.53409 2.83838 0
M  V30 493 H 44.5369 3.62813 1.37799 0
M  V30 494 H 42.6379 1.94378 3.1788 0
M  V30 495 H 42.7509 3.8083 2.90698 0
M  V30 496 H 41.1149 1.9644 1.62122 0
M  V30 497 H 41.8979 3.36043 0.702131 0
M  V30 498 N 44.343 -0.763751 1.37857 0
M  V30 499 C 45.273 -1.89103 1.36975 0
M  V30 500 C 46.254 -1.68439 0.237152 0
M  V30 501 O 47.439 -1.8918 0.438713 0
M  V30 502 C 44.569 -3.26496 1.18395 0
M  V30 503 C 43.523 -3.61741 2.28751 0
M  V30 504 C 42.849 -4.97762 1.95286 0
M  V30 505 C 44.149 -3.67665 3.70972 0
M  V30 506 H 45.843 -1.90099 2.31307 0
M  V30 507 H 43.389 -0.91319 1.11341 0
M  V30 508 H 45.342 -4.05003 1.16406 0
M  V30 509 H 44.066 -3.25955 0.205215 0
M  V30 510 H 42.725 -2.85547 2.29909 0
M  V30 511 H 42.373 -4.93769 0.959221 0
M  V30 512 H 42.073 -5.22313 2.69189 0
M  V30 513 H 43.597 -5.7866 1.94898 0
M  V30 514 H 45.011 -4.36307 3.719 0
M  V30 515 H 43.408 -4.03718 4.43995 0
M  V30 516 H 44.478 -2.68134 4.0402 0
M  V30 517 N 45.8211 -1.22559 -0.990812 0
M  V30 518 C 47.0511 -1.07623 -1.76355 0
M  V30 519 C 47.4591 0.37601 -1.85426 0
M  V30 520 O 46.8021 1.27228 -1.32509 0
M  V30 521 C 46.8641 -1.61507 -3.21179 0
M  V30 522 C 46.5281 -3.10146 -3.35646 0
M  V30 523 C 47.5251 -4.07553 -3.22796 0
M  V30 524 C 45.2101 -3.49644 -3.60631 0
M  V30 525 C 47.2041 -5.42442 -3.34716 0
M  V30 526 C 44.8911 -4.84682 -3.72192 0
M  V30 527 C 45.8891 -5.8089 -3.59243 0
M  V30 528 O 45.5771 -7.13476 -3.70415 0
M  V30 529 H 45.3091 -0.377745 -0.560611 0
M  V30 530 H 47.8631 -1.62658 -1.25425 0
M  V30 531 H 46.0931 -1.00881 -3.73309 0
M  V30 532 H 47.7821 -1.42202 -3.80175 0
M  V30 533 H 48.5481 -3.78381 -3.03403 0
M  V30 534 H 44.4271 -2.75282 -3.69785 0
M  V30 535 H 47.9711 -6.17518 -3.24526 0
M  V30 536 H 43.8681 -5.13534 -3.91092 0
M  V30 537 H 44.6361 -7.21083 -3.87275 0
M  V30 538 N 47.2992 1.18797 -1.03562 0
M  V30 539 C 48.5472 1.88278 -0.734569 0
M  V30 540 C 48.8682 1.8043 0.739586 0
M  V30 541 O 48.1382 1.21925 1.53333 0
M  V30 542 H 46.7182 0.696991 -0.268725 0
M  V30 543 H 49.3802 1.44192 -1.31129 0
M  V30 544 H 48.4762 2.94443 -1.03489 0
M  V30 545 N 48.7773 0.814389 1.34928 0
M  V30 546 C 49.7243 0.22822 2.29669 0
M  V30 547 C 50.6943 -0.642164 1.53184 0
M  V30 548 O 51.8793 -0.585605 1.81591 0
M  V30 549 C 49.0193 -0.61089 3.3965 0
M  V30 550 C 48.1323 0.280792 4.31086 0
M  V30 551 C 47.2673 -0.567067 5.28165 0
M  V30 552 C 46.3063 0.324531 6.11239 0
M  V30 553 N 45.4433 -0.483756 7.00431 0
M  V30 554 H 50.2833 1.04153 2.79206 0
M  V30 555 H 47.8203 0.525133 1.37407 0
M  V30 556 H 49.7783 -1.11263 4.0209 0
M  V30 557 H 48.4083 -1.38939 2.91369 0
M  V30 558 H 47.4603 0.900688 3.69583 0
M  V30 559 H 48.7723 0.966723 4.89342 0
M  V30 560 H 47.9263 -1.13363 5.96015 0
M  V30 561 H 46.6653 -1.28654 4.70425 0
M  V30 562 H 45.6703 0.903298 5.42329 0
M  V30 563 H 46.8953 1.04198 6.71059 0
M  V30 564 H 44.8413 -1.18706 6.45171 0
M  V30 565 H 44.7583 0.143965 7.55863 0
M  V30 566 H 46.0263 -1.03334 7.7262 0
M  V30 567 N 50.2554 -1.46986 0.568584 0
M  V30 568 C 51.5014 -2.02741 0.0488709 0
M  V30 569 C 51.8344 -1.44077 -1.30214 0
M  V30 570 O 51.1094 -0.600552 -1.84996 0
M  V30 571 C 51.3924 -3.60086 -0.032047 0
M  V30 572 C 51.2454 -4.29162 1.34686 0
M  V30 573 C 52.5644 -4.33838 -0.739798 0
M  V30 574 H 49.6834 -0.736749 0.0192338 0
M  V30 575 H 52.3254 -1.75289 0.733065 0
M  V30 576 H 50.4754 -3.83606 -0.61473 0
M  V30 577 H 52.1474 -4.16948 1.97362 0
M  V30 578 H 50.3904 -3.89073 1.91846 0
M  V30 579 H 51.0614 -5.37826 1.24285 0
M  V30 580 H 53.5374 -4.15378 -0.244939 0
M  V30 581 H 52.4134 -5.43537 -0.765406 0
M  V30 582 H 52.6744 -4.03875 -1.79827 0
M  V30 583 N 51.7335 -0.305618 -1.54608 0
M  V30 584 C 52.9825 0.303098 -1.9941 0
M  V30 585 C 53.2955 1.54648 -1.19764 0
M  V30 586 O 54.5015 2.23007 -1.54855 0
M  V30 587 C 52.9575 0.590588 -3.55021 0
M  V30 588 C 52.5655 -0.634719 -4.43481 0
M  V30 589 C 54.3095 1.16025 -4.08336 0
M  V30 590 C 52.2165 -0.320126 -5.90533 0
M  V30 591 H 51.1465 0.117031 -0.744862 0
M  V30 592 H 53.7975 -0.415045 -1.78745 0
M  V30 593 H 52.1795 1.36845 -3.71604 0
M  V30 594 H 53.3535 -1.41079 -4.38672 0
M  V30 595 H 51.6685 -1.12333 -4.00962 0
M  V30 596 H 54.2655 1.40994 -5.15776 0
M  V30 597 H 54.6085 2.10397 -3.5922 0
M  V30 598 H 55.1415 0.443985 -3.95315 0
M  V30 599 H 51.8805 -1.23254 -6.43808 0
M  V30 600 H 51.4005 0.418579 -5.98338 0
M  V30 601 H 53.0795 0.0766241 -6.46955 0
M  V30 602 N 53.2116 1.57565 -0.0334293 0
M  V30 603 C 54.1586 2.10478 0.946981 0
M  V30 604 C 55.1286 1.00787 1.32027 0
M  V30 605 O 56.3136 1.28232 1.41284 0
M  V30 606 C 53.4536 2.63994 2.22263 0
M  V30 607 C 52.5666 3.87709 1.90541 0
M  V30 608 C 51.7016 4.29604 3.12433 0
M  V30 609 C 50.7406 5.46065 2.76549 0
M  V30 610 N 49.8776 5.83096 3.9108 0
M  V30 611 H 54.7176 2.93963 0.488846 0
M  V30 612 H 52.2546 1.45296 0.22969 0
M  V30 613 H 54.2126 2.93114 2.96884 0
M  V30 614 H 52.8426 1.83333 2.65685 0
M  V30 615 H 51.8946 3.65291 1.06144 0
M  V30 616 H 53.2066 4.72403 1.60116 0
M  V30 617 H 52.3606 4.60182 3.9537 0
M  V30 618 H 51.0996 3.43685 3.46023 0
M  V30 619 H 50.1046 5.15176 1.92026 0
M  V30 620 H 51.3296 6.33685 2.44171 0
M  V30 621 H 49.2756 5.00132 4.24504 0
M  V30 622 H 49.1926 6.6244 3.64293 0
M  V30 623 H 50.4606 6.18282 4.74708 0
M  V30 624 N 54.6897 -0.239769 1.55765 0
M  V30 625 C 56.1057 -0.588624 1.48349 0
M  V30 626 C 56.3057 -1.88005 0.72502 0
M  V30 627 O 55.3617 -2.51186 0.257269 0
M  V30 628 C 56.6747 -0.68474 2.928 0
M  V30 629 C 58.2227 -0.77659 3.03213 0
M  V30 630 C 58.6977 -0.904207 4.48986 0
M  V30 631 N 60.1887 -0.968896 4.52953 0
M  V30 632 C 60.9237 -1.08703 5.63002 0
M  V30 633 N 60.4197 -1.17026 6.82845 0
M  V30 634 N 62.2127 -1.12074 5.50814 0
M  V30 635 H 54.3637 0.607911 2.03515 0
M  V30 636 H 56.6267 0.21083 0.924259 0
M  V30 637 H 56.3327 0.194284 3.51163 0
M  V30 638 H 56.2067 -1.55435 3.43686 0
M  V30 639 H 58.5937 -1.64606 2.44926 0
M  V30 640 H 58.6747 0.118315 2.55526 0
M  V30 641 H 58.3187 -0.0392633 5.07885 0
M  V30 642 H 58.2487 -1.81426 4.9436 0
M  V30 643 H 60.7397 -0.915633 3.6664 0
M  V30 644 H 61.0527 -1.25966 7.62465 0
M  V30 645 H 59.3977 -1.13971 6.85591 0
M  V30 646 H 62.5887 -1.05226 4.5612 0
M  V30 647 H 62.7617 -1.20936 6.36615 0
M  V30 648 N 56.1678 -1.49265 -0.50573 0
M  V30 649 C 57.3928 -1.62478 -1.28902 0
M  V30 650 C 57.8178 -0.294332 -1.85783 0
M  V30 651 O 57.1758 0.737412 -1.65626 0
M  V30 652 C 57.2238 -2.69268 -2.39848 0
M  V30 653 O 56.3278 -2.28113 -3.43567 0
M  V30 654 H 55.6688 -0.54399 -0.380751 0
M  V30 655 H 58.1988 -1.95421 -0.605952 0
M  V30 656 H 58.2088 -2.91291 -2.85681 0
M  V30 657 H 56.8838 -3.65846 -1.97812 0
M  V30 658 H 55.4608 -2.16401 -3.03685 0
M  V30 659 N 57.6459 0.756429 -1.3826 0
M  V30 660 C 58.5929 1.87011 -1.35261 0
M  V30 661 C 59.5629 1.64695 -0.215616 0
M  V30 662 O 60.7479 1.864 -0.407399 0
M  V30 663 C 57.8879 3.24275 -1.18068 0
M  V30 664 C 57.0009 3.58442 -2.41129 0
M  V30 665 C 56.1359 4.84994 -2.16689 0
M  V30 666 C 55.1749 5.11939 -3.35537 0
M  V30 667 N 54.3119 6.29685 -3.10549 0
M  V30 668 H 59.1519 1.8891 -2.30472 0
M  V30 669 H 56.6889 0.923373 -1.14509 0
M  V30 670 H 58.6469 4.03479 -1.06116 0
M  V30 671 H 57.2769 3.21711 -0.264973 0
M  V30 672 H 56.3289 2.74103 -2.63764 0
M  V30 673 H 57.6409 3.74283 -3.29717 0
M  V30 674 H 56.7949 5.72135 -2.01857 0
M  V30 675 H 55.5339 4.71286 -1.25462 0
M  V30 676 H 54.5389 4.23268 -3.50891 0
M  V30 677 H 55.7639 5.27546 -4.27635 0
M  V30 678 H 53.7099 6.17306 -2.21967 0
M  V30 679 H 53.6269 6.46014 -3.92686 0
M  V30 680 H 54.8949 7.19722 -2.99367 0
M  V30 681 N 59.124 1.23083 0.984299 0
M  V30 682 C 60.071 1.00854 2.07598 0
M  V30 683 C 61.041 -0.0726709 1.65941 0
M  V30 684 O 62.226 0.0786535 1.90638 0
M  V30 685 C 59.366 0.601645 3.39815 0
M  V30 686 C 58.479 1.75456 3.94765 0
M  V30 687 C 57.614 1.29482 5.15177 0
M  V30 688 C 56.653 2.41873 5.62284 0
M  V30 689 N 55.79 1.96885 6.73929 0
M  V30 690 H 60.63 1.943 2.25946 0
M  V30 691 H 58.167 0.968001 1.10762 0
M  V30 692 H 60.125 0.346854 4.15756 0
M  V30 693 H 58.755 -0.295803 3.21442 0
M  V30 694 H 57.807 2.12346 3.15616 0
M  V30 695 H 59.119 2.59965 4.25699 0
M  V30 696 H 58.273 0.997923 5.98437 0
M  V30 697 H 57.012 0.420046 4.85888 0
M  V30 698 H 56.017 2.72342 4.77608 0
M  V30 699 H 57.242 3.29881 5.93595 0
M  V30 700 H 55.188 1.11782 6.46406 0
M  V30 701 H 55.105 2.74956 7.04227 0
M  V30 702 H 56.373 1.70289 7.60672 0
M  V30 703 N 60.6021 -1.18246 1.0419 0
M  V30 704 C 61.8321 -1.91916 0.764961 0
M  V30 705 C 62.2401 -1.76485 -0.681898 0
M  V30 706 O 61.5831 -1.09275 -1.47664 0
M  V30 707 C 61.6451 -3.4373 1.05309 0
M  V30 708 C 61.3091 -3.8294 2.4941 0
M  V30 709 C 62.3061 -3.86621 3.47592 0
M  V30 710 C 59.9911 -4.142 2.84155 0
M  V30 711 C 61.9851 -4.21013 4.78568 0
M  V30 712 C 59.6721 -4.48262 4.15337 0
M  V30 713 C 60.6701 -4.51645 5.12353 0
M  V30 714 O 60.3581 -4.84911 6.41183 0
M  V30 715 H 60.0901 -0.61606 0.278292 0
M  V30 716 H 62.6441 -1.50947 1.39299 0
M  V30 717 H 60.8741 -3.84946 0.367933 0
M  V30 718 H 62.5631 -3.9865 0.763752 0
M  V30 719 H 63.3291 -3.62607 3.22089 0
M  V30 720 H 59.2081 -4.10743 2.09311 0
M  V30 721 H 62.7521 -4.23568 5.54289 0
M  V30 722 H 58.6491 -4.71737 4.40607 0
M  V30 723 H 59.4171 -5.02809 6.45852 0
M  V30 724 N 62.0802 -0.821533 -1.34494 0
M  V30 725 C 63.0102 -0.257138 -2.3208 0
M  V30 726 C 63.9912 0.625645 -1.58176 0
M  V30 727 O 65.1762 0.552811 -1.86166 0
M  V30 728 C 62.3062 0.582958 -3.42372 0
M  V30 729 C 61.2602 -0.202571 -4.2752 0
M  V30 730 C 60.5862 0.760179 -5.29269 0
M  V30 731 C 61.8862 -1.40998 -5.02908 0
M  V30 732 H 63.5802 -1.07247 -2.79532 0
M  V30 733 H 61.1262 -0.517163 -1.34393 0
M  V30 734 H 63.0792 0.987972 -4.09655 0
M  V30 735 H 61.8032 1.43133 -2.93565 0
M  V30 736 H 60.4622 -0.588936 -3.61838 0
M  V30 737 H 60.1102 1.60447 -4.76724 0
M  V30 738 H 59.8102 0.238809 -5.87115 0
M  V30 739 H 61.3342 1.16308 -5.9942 0
M  V30 740 H 62.7482 -1.07905 -5.63054 0
M  V30 741 H 61.1452 -1.86689 -5.70322 0
M  V30 742 H 62.2152 -2.1889 -4.32684 0
M  V30 743 N 63.5583 1.46682 -0.576371 0
M  V30 744 C 64.5213 2.28707 0.150239 0
M  V30 745 C 65.5213 1.38035 0.824794 0
M  V30 746 O 66.7113 1.60476 0.677719 0
M  V30 747 C 63.8433 3.18248 1.22192 0
M  V30 748 H 65.0363 2.94423 -0.570521 0
M  V30 749 H 62.5893 1.52688 -0.334078 0
M  V30 750 H 63.3243 2.57265 1.97447 0
M  V30 751 H 63.1093 3.85 0.742812 0
M  V30 752 H 64.5993 3.80001 1.73172 0
M  V30 753 N 65.0364 0.313813 1.54444 0
M  V30 754 C 65.9864 -0.571898 2.20711 0
M  V30 755 C 66.9704 -1.08913 1.18435 0
M  V30 756 O 68.1624 -1.02777 1.44104 0
M  V30 757 C 65.2914 -1.7371 2.96108 0
M  V30 758 C 64.3774 -1.23522 4.05713 0
M  V30 759 N 64.7684 -0.452288 5.03774 0
M  V30 760 C 63.0664 -1.51482 4.19487 0
M  V30 761 C 63.7674 -0.183438 5.81411 0
M  V30 762 N 62.7434 -0.766845 5.38164 0
M  V30 763 H 66.5454 0.0336802 2.93881 0
M  V30 764 H 64.0594 0.119192 1.61962 0
M  V30 765 H 66.0564 -2.38329 3.4206 0
M  V30 766 H 64.7164 -2.34625 2.24458 0
M  V30 767 H 65.7274 -0.0960131 5.17811 0
M  V30 768 H 62.4044 -2.13053 3.59047 0
M  V30 769 H 63.7944 0.446216 6.70417 0
M  V30 770 N 66.5145 -1.57545 0.0417849 0
M  V30 771 C 67.7915 -1.83642 -0.673433 0
M  V30 772 C 68.1715 -0.928298 -1.89594 0
M  V30 773 O 67.5195 0.0129955 -2.28496 0
M  V30 774 C 67.7295 -3.33155 -1.03964 0
M  V30 775 C 69.0775 -3.99941 -1.42592 0
M  V30 776 O 70.1015 -3.37725 -1.13226 0
M  V30 777 O 68.9605 -5.09619 -1.9736 0
M  V30 778 H 66.0545 -0.757638 -0.331533 0
M  V30 779 H 68.6005 -1.69554 0.070433 0
M  V30 780 H 67.3725 -3.9093 -0.170098 0
M  V30 781 H 66.9955 -3.52396 -1.84126 0
M  V30 782 N 67.9926 0.231505 -1.5589 0
M  V30 783 C 69.4036 0.799327 -1.68724 0
M  V30 784 C 69.7546 1.85398 -0.642022 0
M  V30 785 O 68.8796 2.1539 0.208784 0
M  V30 786 C 69.4746 1.45664 -3.05888 0
M  V30 787 C 68.0336 1.97197 -3.20609 0
M  V30 788 C 67.1806 0.828552 -2.64632 0
M  V30 789 H 70.1316 0.00702616 -1.58698 0
M  V30 790 H 70.1526 2.32517 -3.01191 0
M  V30 791 H 69.6646 0.688808 -3.81939 0
M  V30 792 H 67.7656 2.76813 -2.4941 0
M  V30 793 H 67.8786 2.15878 -4.27707 0
M  V30 794 H 66.2426 1.23321 -2.22854 0
M  V30 795 H 67.0256 0.0735544 -3.43221 0
M  V30 796 N 69.4707 1.49531 0.497807 0
M  V30 797 C 70.3807 1.69176 1.62532 0
M  V30 798 C 71.3967 0.5744 1.64246 0
M  V30 799 O 72.5727 0.849497 1.82608 0
M  V30 800 C 69.6377 1.75695 2.98885 0
M  V30 801 C 68.6987 2.9929 3.07773 0
M  V30 802 C 67.9317 3.05488 4.37622 0
M  V30 803 O 68.1547 2.19192 5.26603 0
M  V30 804 O 67.0887 3.9798 4.51548 0
M  V30 805 H 70.9147 2.647 1.48887 0
M  V30 806 H 68.4997 1.3331 0.674441 0
M  V30 807 H 70.3817 1.82317 3.79919 0
M  V30 808 H 69.0567 0.8335 3.12785 0
M  V30 809 H 67.9637 2.98183 2.25915 0
M  V30 810 H 69.2967 3.91125 2.98801 0
M  V30 811 N 70.9488 -0.749086 1.3866 0
M  V30 812 C 71.8588 -1.89358 1.38494 0
M  V30 813 C 72.8748 -1.71708 0.281476 0
M  V30 814 O 74.0508 -1.94554 0.520643 0
M  V30 815 C 71.1158 -3.24782 1.21316 0
M  V30 816 C 70.1768 -3.54926 2.41508 0
M  V30 817 C 69.4098 -4.83888 2.2514 0
M  V30 818 O 69.6328 -5.56592 1.24746 0
M  V30 819 O 68.5668 -5.13612 3.13826 0
M  V30 820 H 72.3928 -1.92452 2.34938 0
M  V30 821 H 69.9778 -0.894981 1.19626 0
M  V30 822 H 71.8598 -4.05739 1.13814 0
M  V30 823 H 70.5348 -3.2249 0.279592 0
M  V30 824 H 69.4418 -2.74112 2.54585 0
M  V30 825 H 70.7748 -3.61983 3.3351 0
M  V30 826 N 72.4269 -1.23603 -0.977757 0
M  V30 827 C 73.3739 -1.01954 -2.07061 0
M  V30 828 C 74.3439 0.0638697 -1.65977 0
M  V30 829 O 75.5289 -0.0887624 -1.90593 0
M  V30 830 C 72.6689 -0.619658 -3.39491 0
M  V30 831 C 71.7819 -1.77547 -3.93829 0
M  V30 832 C 70.9169 -1.32212 -5.14484 0
M  V30 833 C 69.9559 -2.44852 -5.60994 0
M  V30 834 N 69.0929 -2.00456 -6.72876 0
M  V30 835 H 73.9329 -1.95495 -2.24913 0
M  V30 836 H 71.4699 -0.973861 -1.10247 0
M  V30 837 H 73.4279 -0.368898 -4.15566 0
M  V30 838 H 72.0579 0.278752 -3.21594 0
M  V30 839 H 71.1099 -2.14016 -3.14486 0
M  V30 840 H 72.4219 -2.62219 -4.24314 0
M  V30 841 H 71.5759 -1.02965 -5.97899 0
M  V30 842 H 70.3149 -0.445808 -4.85658 0
M  V30 843 H 69.3199 -2.74871 -4.76157 0
M  V30 844 H 70.5449 -3.33024 -5.91837 0
M  V30 845 H 68.4909 -1.15208 -6.45804 0
M  V30 846 H 68.4079 -2.78687 -7.02759 0
M  V30 847 H 69.6759 -1.7432 -7.59758 0
M  V30 848 N 73.905 1.17692 -1.04816 0
M  V30 849 C 75.135 1.91508 -0.775128 0
M  V30 850 C 75.543 1.76844 0.67253 0
M  V30 851 O 74.886 1.10057 1.47082 0
M  V30 852 C 74.948 3.43167 -1.0713 0
M  V30 853 C 74.612 3.81612 -2.51438 0
M  V30 854 C 75.609 3.84772 -3.49638 0
M  V30 855 C 73.294 4.12687 -2.86348 0
M  V30 856 C 75.288 4.18469 -4.80794 0
M  V30 857 C 72.975 4.46053 -4.17708 0
M  V30 858 C 73.973 4.48921 -5.14741 0
M  V30 859 O 73.661 4.81504 -6.43746 0
M  V30 860 H 73.393 0.614575 -0.281555 0
M  V30 861 H 75.947 1.50206 -1.40098 0
M  V30 862 H 74.177 3.84745 -0.388342 0
M  V30 863 H 75.866 3.98239 -0.784883 0
M  V30 864 H 76.632 3.60893 -3.24008 0
M  V30 865 H 72.511 4.09627 -2.11486 0
M  V30 866 H 76.055 4.20623 -5.56527 0
M  V30 867 H 71.952 4.69393 -4.43103 0
M  V30 868 H 72.72 4.99377 -6.4851 0
M  V30 869 N 75.3831 0.828654 1.34056 0
M  V30 870 C 76.3301 0.252567 2.29414 0
M  V30 871 C 77.3001 -0.62588 1.53857 0
M  V30 872 O 78.4851 -0.566312 1.82202 0
M  V30 873 C 75.6251 -0.574831 3.40279 0
M  V30 874 C 74.7381 0.326499 4.30764 0
M  V30 875 C 73.8731 -0.511016 5.28736 0
M  V30 876 C 72.9121 0.389342 6.1086 0
M  V30 877 N 72.0491 -0.409439 7.00905 0
M  V30 878 H 76.8891 1.07108 2.78086 0
M  V30 879 H 74.4261 0.539677 1.36843 0
M  V30 880 H 76.3841 -1.06992 4.03248 0
M  V30 881 H 75.0141 -1.35841 2.92826 0
M  V30 882 H 74.0661 0.939837 3.68607 0
M  V30 883 H 75.3781 1.01857 4.88289 0
M  V30 884 H 74.5321 -1.07035 5.97184 0
M  V30 885 H 73.2711 -1.23657 4.71763 0
M  V30 886 H 72.2761 0.960769 5.4134 0
M  V30 887 H 73.5011 1.1131 6.69916 0
M  V30 888 H 71.4471 -1.11856 6.46393 0
M  V30 889 H 71.3641 0.224126 7.55668 0
M  V30 890 H 72.6321 -0.951336 7.73673 0
M  V30 891 N 76.8612 -1.46375 0.584142 0
M  V30 892 C 77.7912 -2.33103 -0.136037 0
M  V30 893 C 78.7722 -1.45431 -0.882255 0
M  V30 894 O 79.9572 -1.74246 -0.857434 0
M  V30 895 C 77.0872 -3.27731 -1.14933 0
M  V30 896 C 76.0412 -4.24855 -0.517862 0
M  V30 897 C 75.3672 -5.09001 -1.63773 0
M  V30 898 C 76.6672 -5.19439 0.545886 0
M  V30 899 H 78.3612 -2.93568 0.588086 0
M  V30 900 H 75.9072 -1.41166 0.284259 0
M  V30 901 H 77.8602 -3.87261 -1.66153 0
M  V30 902 H 76.5842 -2.65377 -1.90375 0
M  V30 903 H 75.2432 -3.6659 -0.0267361 0
M  V30 904 H 74.8912 -4.43031 -2.38185 0
M  V30 905 H 74.5912 -5.74777 -1.22085 0
M  V30 906 H 76.1152 -5.71396 -2.15266 0
M  V30 907 H 77.5292 -5.73177 0.118704 0
M  V30 908 H 75.9262 -5.93566 0.88317 0
M  V30 909 H 76.9962 -4.63285 1.43162 0
M  V30 910 N 78.3393 -0.321999 -1.54275 0
M  V30 911 C 79.5873 0.280489 -2.00144 0
M  V30 912 C 79.9083 1.52777 -1.21178 0
M  V30 913 O 79.1783 1.9338 -0.313187 0
M  V30 914 H 77.7583 0.106632 -0.73935 0
M  V30 915 H 80.4203 -0.438184 -1.8991 0
M  V30 916 H 79.5163 0.537972 -3.07428 0
M  V30 917 N 79.8174 1.5752 -0.0501392 0
M  V30 918 C 81.0944 1.83996 0.663685 0
M  V30 919 C 81.4744 0.938339 1.89099 0
M  V30 920 O 80.8224 -0.00087759 2.285 0
M  V30 921 C 81.0324 3.33702 1.02196 0
M  V30 922 C 82.3804 4.00691 1.40469 0
M  V30 923 O 83.4044 3.38321 1.11433 0
M  V30 924 O 82.2634 5.10658 1.94654 0
M  V30 925 H 79.3574 0.759385 0.32751 0
M  V30 926 H 81.9034 1.69514 -0.0794238 0
M  V30 927 H 80.6754 3.91015 0.149364 0
M  V30 928 H 80.2984 3.53368 1.82255 0
M  V30 929 N 81.2955 -0.223234 1.56011 0
M  V30 930 C 82.5415 -0.949279 1.79211 0
M  V30 931 C 82.8745 -1.84054 0.619494 0
M  V30 932 O 82.1495 -1.90726 -0.381317 0
M  V30 933 C 82.4325 -1.78965 3.12479 0
M  V30 934 C 82.2855 -0.924997 4.40186 0
M  V30 935 C 83.6045 -2.76774 3.42175 0
M  V30 936 H 80.7235 -0.343676 0.651963 0
M  V30 937 H 83.3655 -0.218253 1.88742 0
M  V30 938 H 81.5155 -2.41291 3.04485 0
M  V30 939 H 83.1875 -0.318615 4.60198 0
M  V30 940 H 81.4305 -0.230344 4.33188 0
M  V30 941 H 82.1015 -1.54735 5.29869 0
M  V30 942 H 84.5775 -2.24584 3.50287 0
M  V30 943 H 83.4535 -3.32678 4.36597 0
M  V30 944 H 83.7145 -3.54429 2.64258 0
M  V30 945 N 82.7736 -1.49793 -0.48987 0
M  V30 946 C 84.0196 -1.60078 -1.24511 0
M  V30 947 C 84.3526 -0.291608 -1.91998 0
M  V30 948 O 83.6276 0.705647 -1.81248 0
M  V30 949 C 83.9106 -2.76791 -2.30345 0
M  V30 950 C 83.7636 -4.17535 -1.67286 0
M  V30 951 C 85.0826 -2.89111 -3.31817 0
M  V30 952 H 82.2016 -0.582645 -0.451324 0
M  V30 953 H 84.8436 -1.82117 -0.541612 0
M  V30 954 H 82.9936 -2.5813 -2.90346 0
M  V30 955 H 84.6656 -4.4774 -1.11026 0
M  V30 956 H 82.9086 -4.22665 -0.976577 0
M  V30 957 H 83.5796 -4.95094 -2.44103 0
M  V30 958 H 86.0556 -3.06133 -2.81819 0
M  V30 959 H 84.9316 -3.72433 -4.03219 0
M  V30 960 H 85.1926 -1.9893 -3.94815 0
M  V30 961 N 84.2517 0.741722 -1.39055 0
M  V30 962 C 85.1617 1.88621 -1.39496 0
M  V30 963 C 86.1777 1.71557 -0.290578 0
M  V30 964 O 87.3537 1.94275 -0.530954 0
M  V30 965 C 84.4187 3.24134 -1.23037 0
M  V30 966 C 83.4797 3.5364 -2.43387 0
M  V30 967 C 82.7127 4.82687 -2.27703 0
M  V30 968 O 82.9357 5.55922 -1.27696 0
M  V30 969 O 81.8697 5.1194 -3.16545 0
M  V30 970 H 85.6957 1.91203 -2.35956 0
M  V30 971 H 83.2807 0.888625 -1.20099 0
M  V30 972 H 85.1627 4.0513 -1.15964 0
M  V30 973 H 83.8377 3.22337 -0.296691 0
M  V30 974 H 82.7447 2.72758 -2.56035 0
M  V30 975 H 84.0777 3.60209 -3.35425 0
M  V30 976 N 85.7298 1.2412 0.971189 0
M  V30 977 C 86.9788 1.07284 1.70801 0
M  V30 978 C 87.2918 -0.388902 1.91695 0
M  V30 979 O 88.4978 -0.677379 2.62914 0
M  V30 980 C 86.9538 1.87145 3.07416 0
M  V30 981 C 86.5618 3.37707 2.94377 0
M  V30 982 C 88.3058 1.78828 3.84995 0
M  V30 983 C 86.2128 4.09925 4.26281 0
M  V30 984 H 85.1428 0.397854 0.64049 0
M  V30 985 H 87.7938 1.4817 1.0825 0
M  V30 986 H 86.1758 1.39071 3.70777 0
M  V30 987 H 87.3498 3.93335 2.4005 0
M  V30 988 H 85.6648 3.46938 2.30267 0
M  V30 989 H 88.2618 2.30089 4.82662 0
M  V30 990 H 88.6048 0.75284 4.09436 0
M  V30 991 H 89.1378 2.24563 3.28354 0
M  V30 992 H 85.8768 5.13813 4.07033 0
M  V30 993 H 85.3968 3.59083 4.80437 0
M  V30 994 H 87.0758 4.1673 4.94919 0
M  V30 995 N 87.2079 -1.17134 1.05439 0
M  V30 996 C 88.4569 -1.86791 0.761049 0
M  V30 997 C 88.7699 -1.82072 -0.714795 0
M  V30 998 O 89.9759 -2.47223 -1.12218 0
M  V30 999 C 88.4319 -3.35166 1.31117 0
M  V30 1000 C 88.0399 -3.48381 2.81664 0
M  V30 1001 C 89.7839 -4.10134 1.09499 0
M  V30 1002 C 87.6909 -4.90793 3.29964 0
M  V30 1003 H 86.6209 -0.699681 0.281002 0
M  V30 1004 H 89.2719 -1.3226 1.27199 0
M  V30 1005 H 87.6539 -3.8925 0.72803 0
M  V30 1006 H 88.8279 -3.04502 3.45855 0
M  V30 1007 H 87.1429 -2.86836 3.01851 0
M  V30 1008 H 89.7399 -5.152 1.43084 0
M  V30 1009 H 90.0829 -4.16287 0.0328772 0
M  V30 1010 H 90.6159 -3.62264 1.64346 0
M  V30 1011 H 87.3549 -4.89816 4.35616 0
M  V30 1012 H 86.8749 -5.35333 2.70516 0
M  V30 1013 H 88.5539 -5.59573 3.24787 0
M  V30 1014 N 88.686 -0.835752 -1.33615 0
M  V30 1015 C 89.596 -0.269088 -2.33052 0
M  V30 1016 C 90.612 0.603251 -1.63208 0
M  V30 1017 O 91.788 0.508112 -1.94885 0
M  V30 1018 C 88.853 0.549091 -3.42324 0
M  V30 1019 C 87.914 -0.347156 -4.27894 0
M  V30 1020 C 87.147 0.43207 -5.31948 0
M  V30 1021 O 87.37 1.66409 -5.45586 0
M  V30 1022 O 86.304 -0.192298 -6.01593 0
M  V30 1023 H 90.13 -1.09243 -2.83372 0
M  V30 1024 H 87.715 -0.598198 -1.36901 0
M  V30 1025 H 89.597 1.01414 -4.09015 0
M  V30 1026 H 88.272 1.34955 -2.94226 0
M  V30 1027 H 87.179 -0.859979 -3.64081 0
M  V30 1028 H 88.512 -1.1123 -4.79467 0
M  V30 1029 N 90.1641 1.46063 -0.591896 0
M  V30 1030 C 91.3891 2.07226 -0.0850314 0
M  V30 1031 C 91.8141 1.43625 1.21463 0
M  V30 1032 O 91.1721 0.523305 1.73583 0
M  V30 1033 C 91.2201 3.60554 0.0576567 0
M  V30 1034 O 90.3241 3.97128 1.11188 0
M  V30 1035 H 89.6651 0.660615 -0.0669568 0
M  V30 1036 H 92.1951 1.8756 -0.81745 0
M  V30 1037 H 92.2051 4.07165 0.2609 0
M  V30 1038 H 90.8801 4.06235 -0.891416 0
M  V30 1039 H 89.4571 3.62213 0.886356 0
M  V30 1040 N 91.6422 0.330177 1.54103 0
M  V30 1041 C 93.0582 -0.0222371 1.59585 0
M  V30 1042 C 93.2582 -1.49902 1.34654 0
M  V30 1043 O 92.3142 -2.25592 1.13421 0
M  V30 1044 C 93.6272 0.401932 2.98002 0
M  V30 1045 C 95.1752 0.353145 3.11001 0
M  V30 1046 C 95.6502 0.752576 4.51775 0
M  V30 1047 N 97.1412 0.706239 4.57784 0
M  V30 1048 C 97.8762 0.987417 5.64834 0
M  V30 1049 N 97.3722 1.33607 6.79795 0
M  V30 1050 N 99.1652 0.91254 5.54643 0
M  V30 1051 H 91.3162 1.29228 1.68564 0
M  V30 1052 H 93.5792 0.525906 0.78875 0
M  V30 1053 H 93.2852 1.4311 3.21267 0
M  V30 1054 H 93.1592 -0.229699 3.765 0
M  V30 1055 H 95.5462 -0.666822 2.87467 0
M  V30 1056 H 95.6272 1.0198 2.34593 0
M  V30 1057 H 95.2712 1.77049 4.76042 0
M  V30 1058 H 95.2012 0.0635409 5.26562 0
M  V30 1059 H 97.6922 0.44889 3.75224 0
M  V30 1060 H 98.0052 1.53582 7.57385 0
M  V30 1061 H 96.3502 1.37439 6.81275 0
M  V30 1062 H 99.5412 0.639601 4.6371 0
M  V30 1063 H 99.7142 1.13503 6.37982 0
M  V30 1064 N 93.1203 -1.57491 0.0584922 0
M  V30 1065 C 94.5313 -1.80526 -0.476138 0
M  V30 1066 C 94.8823 -0.971334 -1.70469 0
M  V30 1067 O 94.0073 -0.190012 -2.15564 0
M  V30 1068 C 94.6023 -3.27424 -0.870587 0
M  V30 1069 C 93.1613 -3.51351 -1.35015 0
M  V30 1070 C 92.3083 -2.75343 -0.32887 0
M  V30 1071 H 95.2593 -1.56133 0.284312 0
M  V30 1072 H 95.2803 -3.38745 -1.73299 0
M  V30 1073 H 94.7923 -3.88093 0.0237627 0
M  V30 1074 H 92.8933 -2.95971 -2.26345 0
M  V30 1075 H 93.0063 -4.60059 -1.33726 0
M  V30 1076 H 91.3703 -2.417 -0.803321 0
M  V30 1077 H 92.1533 -3.38743 0.557521 0
M  V30 1078 N 94.5984 0.214957 -1.56127 0
M  V30 1079 C 95.8474 0.936451 -1.78643 0
M  V30 1080 C 96.1604 1.85237 -0.628229 0
M  V30 1081 O 97.3664 2.613 -0.737186 0
M  V30 1082 C 95.8224 1.7154 -3.16389 0
M  V30 1083 C 95.4304 0.845299 -4.39953 0
M  V30 1084 C 97.1744 2.42772 -3.48227 0
M  V30 1085 C 95.0814 1.62198 -5.68723 0
M  V30 1086 H 94.0114 0.353401 -0.666051 0
M  V30 1087 H 96.6624 0.190169 -1.82512 0
M  V30 1088 H 95.0444 2.50484 -3.06715 0
M  V30 1089 H 96.2184 0.0959353 -4.607 0
M  V30 1090 H 94.5334 0.244789 -4.1568 0
M  V30 1091 H 97.1304 3.01394 -4.41663 0
M  V30 1092 H 97.4734 3.15984 -2.71035 0
M  V30 1093 H 98.0064 1.70813 -3.5926 0
M  V30 1094 H 94.7454 0.933011 -6.48826 0
M  V30 1095 H 94.2654 2.34579 -5.52026 0
M  V30 1096 H 95.9444 2.18095 -6.09133 0
M  V30 1097 N 96.0765 1.50051 0.48192 0
M  V30 1098 C 97.3015 1.64508 1.26301 0
M  V30 1099 C 97.7265 0.323851 1.85291 0
M  V30 1100 O 97.0845 -0.710969 1.66778 0
M  V30 1101 C 97.1325 2.7305 2.35533 0
M  V30 1102 O 96.2365 2.3355 3.39895 0
M  V30 1103 H 95.5775 0.549978 0.372048 0
M  V30 1104 H 98.1075 1.9636 0.574786 0
M  V30 1105 H 98.1175 2.95799 2.8101 0
M  V30 1106 H 96.7925 3.68946 1.91967 0
M  V30 1107 H 95.3695 2.21205 3.00204 0
M  V30 1108 N 97.5546 -0.734337 1.39446 0
M  V30 1109 C 98.5016 -1.84835 1.38219 0
M  V30 1110 C 99.4716 -1.64331 0.24179 0
M  V30 1111 O 100.657 -1.85728 0.437002 0
M  V30 1112 C 97.7966 -3.22355 1.23212 0
M  V30 1113 C 96.9096 -3.5456 2.46801 0
M  V30 1114 C 96.0446 -4.81485 2.24377 0
M  V30 1115 C 95.0836 -5.06536 3.43639 0
M  V30 1116 N 94.2206 -6.24665 3.20528 0
M  V30 1117 H 99.0606 -1.85219 2.33448 0
M  V30 1118 H 96.5976 -0.905039 1.15963 0
M  V30 1119 H 98.5556 -4.0174 1.12522 0
M  V30 1120 H 97.1856 -3.21248 0.316121 0
M  V30 1121 H 96.2376 -2.69872 2.68092 0
M  V30 1122 H 97.5496 -3.6899 3.3563 0
M  V30 1123 H 96.7036 -5.68852 2.10933 0
M  V30 1124 H 95.4426 -4.6923 1.32944 0
M  V30 1125 H 94.4476 -4.17632 3.5758 0
M  V30 1126 H 95.6726 -5.20676 4.35974 0
M  V30 1127 H 93.6186 -6.13696 2.3176 0
M  V30 1128 H 93.5356 -6.39685 4.02913 0
M  V30 1129 H 94.8036 -7.14868 3.10779 0
M  V30 1130 N 99.0327 -1.24633 -0.964593 0
M  V30 1131 C 100.449 -1.01239 -1.2338 0
M  V30 1132 C 100.649 0.2769 -1.99588 0
M  V30 1133 O 99.7047 0.992241 -2.32187 0
M  V30 1134 C 101.018 -2.22937 -2.01791 0
M  V30 1135 C 102.566 -2.27594 -2.14872 0
M  V30 1136 C 103.041 -3.48921 -2.96678 0
M  V30 1137 N 104.532 -3.49257 -3.04259 0
M  V30 1138 C 105.267 -4.39795 -3.67924 0
M  V30 1139 N 104.763 -5.40591 -4.33281 0
M  V30 1140 N 106.556 -4.275 -3.64966 0
M  V30 1141 H 98.7067 -2.0748 -0.454502 0
M  V30 1142 H 100.97 -0.910647 -0.26349 0
M  V30 1143 H 100.676 -3.16587 -1.53184 0
M  V30 1144 H 100.55 -2.25306 -3.02518 0
M  V30 1145 H 102.937 -1.34473 -2.6268 0
M  V30 1146 H 103.018 -2.2925 -1.13482 0
M  V30 1147 H 102.662 -4.42359 -2.49562 0
M  V30 1148 H 102.592 -3.4451 -3.98272 0
M  V30 1149 H 105.083 -2.76337 -2.57771 0
M  V30 1150 H 105.396 -6.05904 -4.79687 0
M  V30 1151 H 103.741 -5.44475 -4.3194 0
M  V30 1152 H 106.932 -3.47987 -3.13086 0
M  V30 1153 H 107.105 -4.98258 -4.14298 0
M  V30 1154 N 100.511 1.16574 -1.06058 0
M  V30 1155 C 101.458 2.20883 -0.669263 0
M  V30 1156 C 102.428 1.62729 0.332918 0
M  V30 1157 O 103.613 1.895 0.222346 0
M  V30 1158 C 100.753 3.45049 -0.0593572 0
M  V30 1159 C 99.8658 4.17458 -1.11143 0
M  V30 1160 C 99.0008 5.29135 -0.467916 0
M  V30 1161 C 98.0398 5.93343 -1.50369 0
M  V30 1162 N 97.1768 6.96516 -0.883706 0
M  V30 1163 H 102.017 2.53709 -1.5632 0
M  V30 1164 H 99.5538 1.24616 -0.781625 0
M  V30 1165 H 101.512 4.16033 0.311771 0
M  V30 1166 H 100.142 3.12781 0.797992 0
M  V30 1167 H 99.1938 3.45101 -1.60029 0
M  V30 1168 H 100.506 4.61307 -1.89731 0
M  V30 1169 H 99.6598 6.06684 -0.0436871 0
M  V30 1170 H 98.3988 4.86443 0.349864 0
M  V30 1171 H 97.4038 5.14517 -1.93784 0
M  V30 1172 H 98.6288 6.38114 -2.32352 0
M  V30 1173 H 96.5748 6.55943 -0.086595 0
M  V30 1174 H 96.4918 7.38723 -1.607 0
M  V30 1175 H 97.7598 7.77993 -0.484543 0
M  V30 1176 N 101.989 0.842826 1.3317 0
M  V30 1177 C 103.405 0.531128 1.50503 0
M  V30 1178 C 103.605 -0.940734 1.78192 0
M  V30 1179 O 102.661 -1.72436 1.84451 0
M  V30 1180 C 103.974 1.40789 2.65705 0
M  V30 1181 C 105.522 1.40708 2.79589 0
M  V30 1182 C 105.997 2.26878 3.97857 0
M  V30 1183 N 107.488 2.24609 4.05099 0
M  V30 1184 C 108.223 2.88019 4.95815 0
M  V30 1185 N 107.719 3.60496 5.9162 0
M  V30 1186 N 109.512 2.77469 4.88843 0
M  V30 1187 H 101.663 1.79557 1.1346 0
M  V30 1188 H 103.926 0.766267 0.558156 0
M  V30 1189 H 103.632 2.454 2.51936 0
M  V30 1190 H 103.506 1.08677 3.61205 0
M  V30 1191 H 105.893 0.368668 2.92788 0
M  V30 1192 H 105.974 1.76829 1.84838 0
M  V30 1193 H 105.618 3.3078 3.85418 0
M  V30 1194 H 105.548 1.88096 4.91861 0
M  V30 1195 H 108.039 1.71906 3.36536 0
M  V30 1196 H 108.352 4.06076 6.57512 0
M  V30 1197 H 106.697 3.64604 5.91683 0
M  V30 1198 H 109.888 2.20406 4.12963 0
M  V30 1199 H 110.061 3.2717 5.59342 0
M  V30 1200 N 103.467 -1.45747 0.599634 0
M  V30 1201 C 104.714 -2.02292 0.0917284 0
M  V30 1202 C 105.042 -1.46906 -1.27472 0
M  V30 1203 O 104.297 -0.630652 -1.8526 0
M  V30 1204 C 104.596 -3.57399 -0.00602758 0
M  V30 1205 C 104.262 -4.31902 1.29503 0
M  V30 1206 C 102.924 -4.51974 1.65144 0
M  V30 1207 C 105.276 -4.74551 2.15525 0
M  V30 1208 C 102.604 -5.11949 2.86574 0
M  V30 1209 C 104.956 -5.35868 3.36196 0
M  V30 1210 C 103.62 -5.54165 3.72099 0
M  V30 1211 H 102.89 -0.740239 0.0335658 0
M  V30 1212 H 105.537 -1.7491 0.779661 0
M  V30 1213 H 103.842 -3.84014 -0.777183 0
M  V30 1214 H 105.539 -3.98846 -0.415038 0
M  V30 1215 H 102.129 -4.16588 1.00761 0
M  V30 1216 H 106.313 -4.58784 1.8929 0
M  V30 1217 H 101.569 -5.24305 3.14507 0
M  V30 1218 H 105.743 -5.6787 4.03109 0
M  V30 1219 H 103.37 -6.00406 4.6628 0
M  V30 1220 N 104.945 -0.338344 -1.53925 0
M  V30 1221 C 106.361 0.0137736 -1.59594 0
M  V30 1222 C 106.561 1.49186 -1.35447 0
M  V30 1223 O 105.617 2.24987 -1.14616 0
M  V30 1224 C 106.93 -0.41773 -2.97784 0
M  V30 1225 C 108.478 -0.369633 -3.1081 0
M  V30 1226 C 108.953 -0.776524 -4.51369 0
M  V30 1227 N 110.444 -0.730506 -4.57403 0
M  V30 1228 C 111.179 -1.01736 -5.64303 0
M  V30 1229 N 110.675 -1.3721 -6.79077 0
M  V30 1230 N 112.468 -0.941942 -5.54151 0
M  V30 1231 H 104.619 -1.3012 -1.67876 0
M  V30 1232 H 106.882 -0.530082 -0.78595 0
M  V30 1233 H 106.588 -1.44811 -3.20504 0
M  V30 1234 H 106.462 0.209729 -3.76616 0
M  V30 1235 H 108.849 0.651568 -2.87817 0
M  V30 1236 H 108.93 -1.03223 -2.34049 0
M  V30 1237 H 108.574 -1.79571 -4.75096 0
M  V30 1238 H 108.504 -0.0914649 -5.26521 0
M  V30 1239 H 110.995 -0.468783 -3.74981 0
M  V30 1240 H 111.308 -1.57597 -7.5656 0
M  V30 1241 H 109.653 -1.4105 -6.80536 0
M  V30 1242 H 112.844 -0.664184 -4.63364 0
M  V30 1243 H 113.017 -1.16884 -6.37371 0
M  V30 1244 N 106.423 1.57458 -0.0668435 0
M  V30 1245 C 107.669 1.93587 0.6043 0
M  V30 1246 C 108.002 0.946722 1.69561 0
M  V30 1247 O 107.277 -0.0248516 1.94484 0
M  V30 1248 C 107.56 3.40014 1.18585 0
M  V30 1249 C 107.413 4.49685 0.101529 0
M  V30 1250 C 108.732 3.87154 2.09284 0
M  V30 1251 H 105.851 0.703958 0.218202 0
M  V30 1252 H 108.493 1.89542 -0.131804 0
M  V30 1253 H 106.643 3.43592 1.81319 0
M  V30 1254 H 108.315 4.5823 -0.531279 0
M  V30 1255 H 106.558 4.30059 -0.568487 0
M  V30 1256 H 107.229 5.49266 0.54874 0
M  V30 1257 H 109.705 3.85551 1.56491 0
M  V30 1258 H 108.581 4.90231 2.46911 0
M  V30 1259 H 108.842 3.2481 2.99918 0
M  V30 1260 N 107.901 -0.206675 1.56239 0
M  V30 1261 C 108.831 -1.25909 1.96645 0
M  V30 1262 C 109.812 -1.48097 0.836734 0
M  V30 1263 O 110.997 -1.6003 1.10019 0
M  V30 1264 C 108.127 -2.6058 2.29599 0
M  V30 1265 C 107.081 -2.53024 3.452 0
M  V30 1266 C 106.407 -3.91861 3.63798 0
M  V30 1267 C 107.707 -2.06524 4.79734 0
M  V30 1268 H 109.401 -0.923369 2.84806 0
M  V30 1269 H 106.947 -0.442735 1.37025 0
M  V30 1270 H 108.9 -3.34375 2.56459 0
M  V30 1271 H 107.624 -2.95869 1.38307 0
M  V30 1272 H 106.283 -1.81684 3.18412 0
M  V30 1273 H 105.931 -4.24483 2.69857 0
M  V30 1274 H 105.631 -3.87683 4.4156 0
M  V30 1275 H 107.155 -4.67296 3.93022 0
M  V30 1276 H 108.569 -2.70072 5.05702 0
M  V30 1277 H 106.966 -2.13374 5.60885 0
M  V30 1278 H 108.036 -1.01802 4.74093 0
M  V30 1279 N 109.379 -1.50304 -0.473955 0
M  V30 1280 C 110.795 -1.37667 -0.807466 0
M  V30 1281 C 110.995 -0.430555 -1.96846 0
M  V30 1282 O 110.051 0.127874 -2.52176 0
M  V30 1283 C 111.364 -2.78974 -1.12223 0
M  V30 1284 C 112.912 -2.87868 -1.22885 0
M  V30 1285 C 113.387 -4.30003 -1.57676 0
M  V30 1286 N 114.878 -4.3294 -1.64673 0
M  V30 1287 C 115.613 -5.3991 -1.93091 0
M  V30 1288 N 115.109 -6.57092 -2.1955 0
M  V30 1289 N 116.902 -5.27351 -1.94569 0
M  V30 1290 H 109.053 -2.10394 0.291212 0
M  V30 1291 H 111.316 -0.945575 0.0677609 0
M  V30 1292 H 111.022 -3.50031 -0.342229 0
M  V30 1293 H 110.896 -3.16038 -2.05913 0
M  V30 1294 H 113.283 -2.17032 -1.99953 0
M  V30 1295 H 113.364 -2.54352 -0.271814 0
M  V30 1296 H 113.008 -5.01375 -0.81149 0
M  V30 1297 H 112.938 -4.61004 -2.54525 0
M  V30 1298 H 115.429 -3.48441 -1.46277 0
M  V30 1299 H 115.742 -7.34425 -2.405 0
M  V30 1300 H 114.087 -6.60272 -2.16948 0
M  V30 1301 H 117.278 -4.34801 -1.73394 0
M  V30 1302 H 117.451 -6.10805 -2.16381 0
M  V30 1303 N 110.857 0.726932 -1.39834 0
M  V30 1304 C 111.787 1.85405 -1.41941 0
M  V30 1305 C 112.768 1.67751 -0.281728 0
M  V30 1306 O 113.953 1.8795 -0.488717 0
M  V30 1307 C 111.083 3.23243 -1.2701 0
M  V30 1308 C 110.037 3.55549 -2.38262 0
M  V30 1309 C 109.363 4.9241 -2.08415 0
M  V30 1310 C 110.663 3.577 -3.80589 0
M  V30 1311 H 112.357 1.83899 -2.36266 0
M  V30 1312 H 109.903 0.883349 -1.13723 0
M  V30 1313 H 111.856 4.01775 -1.27103 0
M  V30 1314 H 110.58 3.25296 -0.291564 0
M  V30 1315 H 109.239 2.79351 -2.37399 0
M  V30 1316 H 108.887 4.91052 -1.0898 0
M  V30 1317 H 108.587 5.14992 -2.82943 0
M  V30 1318 H 110.111 5.73289 -2.10171 0
M  V30 1319 H 111.525 4.26293 -3.83337 0
M  V30 1320 H 109.922 3.91804 -4.54543 0
M  V30 1321 H 110.992 2.57328 -4.10987 0
M  V30 1322 N 112.336 1.25143 0.95797 0
M  V30 1323 C 113.582 1.09855 1.70469 0
M  V30 1324 C 113.915 -0.360187 1.90831 0
M  V30 1325 O 113.19 -1.26568 1.47685 0
M  V30 1326 C 113.473 1.8497 3.08963 0
M  V30 1327 C 113.326 3.38652 2.96032 0
M  V30 1328 C 114.645 1.63016 4.08795 0
M  V30 1329 H 111.764 0.400465 0.618706 0
M  V30 1330 H 114.406 1.53933 1.11376 0
M  V30 1331 H 112.556 1.47505 3.59409 0
M  V30 1332 H 114.228 3.85772 2.52938 0
M  V30 1333 H 112.471 3.66534 2.32025 0
M  V30 1334 H 113.142 3.8642 3.94187 0
M  V30 1335 H 115.618 1.95625 3.67247 0
M  V30 1336 H 114.494 2.18015 5.03747 0
M  V30 1337 H 114.755 0.570692 4.38401 0
M  V30 1338 N 113.814 -1.1601 1.06675 0
M  V30 1339 C 114.724 -2.24156 0.692179 0
M  V30 1340 C 115.74 -1.71507 -0.293513 0
M  V30 1341 O 116.916 -2.009 -0.141861 0
M  V30 1342 C 113.981 -3.46587 0.0884131 0
M  V30 1343 C 113.042 -4.14257 1.12646 0
M  V30 1344 C 112.275 -5.30844 0.551416 0
M  V30 1345 O 112.498 -5.66858 -0.634656 0
M  V30 1346 O 111.432 -5.87848 1.29298 0
M  V30 1347 H 115.258 -2.58513 1.59388 0
M  V30 1348 H 112.843 -1.23599 0.83926 0
M  V30 1349 H 114.725 -4.20679 -0.246361 0
M  V30 1350 H 113.4 -3.13994 -0.786712 0
M  V30 1351 H 112.307 -3.42118 1.51348 0
M  V30 1352 H 113.64 -4.50914 1.97325 0
M  V30 1353 N 115.292 -0.849877 -1.32721 0
M  V30 1354 C 116.517 -0.463856 -2.02146 0
M  V30 1355 C 116.942 0.930449 -1.63476 0
M  V30 1356 O 116.3 1.61033 -0.832952 0
M  V30 1357 C 116.348 -0.604955 -3.55489 0
M  V30 1358 O 115.452 0.36425 -4.10788 0
M  V30 1359 H 114.793 -0.187046 -0.637111 0
M  V30 1360 H 117.323 -1.14775 -1.69375 0
M  V30 1361 H 117.333 -0.490696 -4.05038 0
M  V30 1362 H 116.008 -1.62174 -3.82978 0
M  V30 1363 H 114.585 0.206628 -3.72327 0
M  V30 1364 N 116.77 1.45427 -0.607355 0
M  V30 1365 C 118.018 2.01841 -0.102253 0
M  V30 1366 C 118.339 1.47832 1.27164 0
M  V30 1367 O 117.609 0.672497 1.83995 0
M  V30 1368 H 116.189 0.746188 -0.0348101 0
M  V30 1369 H 118.851 1.78229 -0.7887 0
M  V30 1370 H 117.947 3.12057 -0.0518585 0
M  V30 1371 N 118.248 0.346503 1.53744 0
M  V30 1372 C 119.664 -0.00530975 1.59599 0
M  V30 1373 C 119.864 -1.48465 1.36236 0
M  V30 1374 O 118.92 -2.24376 1.15808 0
M  V30 1375 C 120.233 0.433516 2.97559 0
M  V30 1376 C 121.781 0.386111 3.10609 0
M  V30 1377 C 122.256 0.800451 4.50951 0
M  V30 1378 N 123.747 0.754753 4.5701 0
M  V30 1379 C 124.482 1.04727 5.63755 0
M  V30 1380 N 123.978 1.4081 6.7834 0
M  V30 1381 N 125.771 0.971316 5.53644 0
M  V30 1382 H 117.922 1.31009 1.67184 0
M  V30 1383 H 120.185 0.534242 0.783128 0
M  V30 1384 H 119.891 1.46509 3.19731 0
M  V30 1385 H 119.765 -0.189753 3.76722 0
M  V30 1386 H 122.152 -0.636295 2.88158 0
M  V30 1387 H 122.233 1.04462 2.33498 0
M  V30 1388 H 121.877 1.82088 4.74137 0
M  V30 1389 H 121.807 0.119386 5.26465 0
M  V30 1390 H 124.298 0.488662 3.74727 0
M  V30 1391 H 124.611 1.61607 7.55714 0
M  V30 1392 H 122.956 1.44657 6.79779 0
M  V30 1393 H 126.147 0.688748 4.63005 0
M  V30 1394 H 126.32 1.20263 6.36742 0
M  V30 1395 N 119.726 -1.57421 0.075193 0
M  V30 1396 C 120.659 -2.08528 -0.926904 0
M  V30 1397 C 121.637 -0.991171 -1.28898 0
M  V30 1398 O 122.821 -1.26479 -1.39769 0
M  V30 1399 C 119.948 -2.54576 -2.23402 0
M  V30 1400 C 118.994 -3.75454 -2.02327 0
M  V30 1401 S 119.827 -5.19989 -1.27951 0
M  V30 1402 C 120.983 -5.69372 -2.59935 0
M  V30 1403 H 121.216 -2.932 -0.492048 0
M  V30 1404 H 118.749 -1.53785 -0.137651 0
M  V30 1405 H 120.707 -2.81767 -2.98526 0
M  V30 1406 H 119.368 -1.70166 -2.64012 0
M  V30 1407 H 118.561 -4.05675 -2.99071 0
M  V30 1408 H 118.163 -3.48654 -1.35339 0
M  V30 1409 H 120.455 -5.76424 -3.56008 0
M  V30 1410 H 121.398 -6.68207 -2.34319 0
M  V30 1411 H 121.806 -4.97205 -2.67296 0
M  V30 1412 N 121.204 0.198386 -1.56346 0
M  V30 1413 C 122.481 0.944982 -1.71258 0
M  V30 1414 C 122.861 2.0151 -0.629048 0
M  V30 1415 O 122.209 2.25639 0.360473 0
M  V30 1416 C 122.419 1.5344 -3.1346 0
M  V30 1417 C 123.767 2.01778 -3.73591 0
M  V30 1418 O 124.791 1.63288 -3.16568 0
M  V30 1419 O 123.65 2.72594 -4.73661 0
M  V30 1420 H 120.744 0.442939 -0.69838 0
M  V30 1421 H 123.29 0.188342 -1.68652 0
M  V30 1422 H 122.062 0.762869 -3.83792 0
M  V30 1423 H 121.685 2.35596 -3.20282 0
M  V30 1424 N 122.682 1.50554 0.465978 0
M  V30 1425 C 123.612 1.72722 1.57128 0
M  V30 1426 C 124.593 0.576294 1.6004 0
M  V30 1427 O 125.778 0.81598 1.76225 0
M  V30 1428 C 122.908 1.82605 2.95419 0
M  V30 1429 C 121.862 2.97835 3.07373 0
M  V30 1430 C 121.188 2.92867 4.47363 0
M  V30 1431 C 122.488 4.38265 2.84114 0
M  V30 1432 H 124.182 2.65267 1.38829 0
M  V30 1433 H 121.728 1.2765 0.666441 0
M  V30 1434 H 123.681 1.96698 3.72677 0
M  V30 1435 H 122.405 0.866858 3.14886 0
M  V30 1436 H 121.064 2.83401 2.3255 0
M  V30 1437 H 120.712 1.94783 4.63755 0
M  V30 1438 H 120.412 3.70227 4.56296 0
M  V30 1439 H 121.936 3.09015 5.26633 0
M  V30 1440 H 123.35 4.53198 3.51118 0
M  V30 1441 H 121.747 5.17115 3.04487 0
M  V30 1442 H 122.817 4.50281 1.7993 0
M  V30 1443 N 124.16 -0.719506 1.40217 0
M  V30 1444 C 125.406 -1.48152 1.38488 0
M  V30 1445 C 125.739 -1.94195 -0.0141867 0
M  V30 1446 O 125.014 -1.67884 -0.982096 0
M  V30 1447 C 125.297 -2.71035 2.37091 0
M  V30 1448 C 125.15 -2.30912 3.86005 0
M  V30 1449 C 126.469 -3.73182 2.33288 0
M  V30 1450 H 123.588 -0.537395 0.504357 0
M  V30 1451 H 126.23 -0.821472 1.71324 0
M  V30 1452 H 124.38 -3.27352 2.0922 0
M  V30 1453 H 126.052 -1.80107 4.24687 0
M  V30 1454 H 124.295 -1.62958 4.02029 0
M  V30 1455 H 124.966 -3.18978 4.50508 0
M  V30 1456 H 127.442 -3.26485 2.57966 0
M  V30 1457 H 126.318 -4.56806 3.04334 0
M  V30 1458 H 126.579 -4.21202 1.34317 0
M  V30 1459 N 125.638 -1.25649 -0.95132 0
M  V30 1460 C 126.548 -1.08073 -2.08224 0
M  V30 1461 C 127.564 -0.0169666 -1.73992 0
M  V30 1462 O 128.74 -0.218593 -2.0021 0
M  V30 1463 C 125.805 -0.704922 -3.39458 0
M  V30 1464 C 124.866 -1.84699 -3.87537 0
M  V30 1465 C 124.099 -1.48902 -5.12508 0
M  V30 1466 O 124.322 -0.386156 -5.69091 0
M  V30 1467 O 123.256 -2.32033 -5.55378 0
M  V30 1468 H 127.082 -2.02924 -2.25954 0
M  V30 1469 H 124.667 -1.04618 -1.06656 0
M  V30 1470 H 126.549 -0.507609 -4.18332 0
M  V30 1471 H 125.224 0.214291 -3.2299 0
M  V30 1472 H 124.131 -2.09919 -3.09653 0
M  V30 1473 H 125.464 -2.74557 -4.08509 0
M  V30 1474 N 127.117 1.15442 -1.07289 0
M  V30 1475 C 128.064 2.20161 -0.692653 0
M  V30 1476 C 129.034 1.63073 0.31564 0
M  V30 1477 O 130.219 1.89725 0.202235 0
M  V30 1478 C 127.359 3.44967 -0.0959509 0
M  V30 1479 C 126.472 4.16256 -1.15564 0
M  V30 1480 C 125.607 5.28609 -0.524011 0
M  V30 1481 C 124.646 5.91715 -1.56653 0
M  V30 1482 N 123.783 6.9554 -0.957531 0
M  V30 1483 H 128.623 2.52037 -1.59002 0
M  V30 1484 H 126.16 1.2378 -0.794798 0
M  V30 1485 H 128.118 4.16341 0.267628 0
M  V30 1486 H 126.748 3.1361 0.764772 0
M  V30 1487 H 125.8 3.43385 -1.6368 0
M  V30 1488 H 127.112 4.59268 -1.94613 0
M  V30 1489 H 126.266 6.06604 -0.108032 0
M  V30 1490 H 125.005 4.86787 0.29825 0
M  V30 1491 H 124.01 5.12433 -1.9923 0
M  V30 1492 H 125.235 6.35614 -2.39107 0
M  V30 1493 H 123.181 6.55814 -0.156162 0
M  V30 1494 H 123.098 7.36977 -1.68526 0
M  V30 1495 H 124.366 7.77435 -0.567032 0
M  V30 1496 N 128.595 0.856903 1.32268 0
M  V30 1497 C 129.825 0.47475 2.01071 0
M  V30 1498 C 130.233 -0.933746 1.64553 0
M  V30 1499 O 129.576 -1.62114 0.863989 0
M  V30 1500 C 129.638 0.536746 3.55471 0
M  V30 1501 C 129.302 1.90453 4.15423 0
M  V30 1502 C 130.299 2.87029 4.33486 0
M  V30 1503 C 127.984 2.20229 4.51447 0
M  V30 1504 C 129.978 4.11532 4.86744 0
M  V30 1505 C 127.665 3.44984 5.0441 0
M  V30 1506 C 128.663 4.40452 5.22007 0
M  V30 1507 O 128.351 5.62998 5.73837 0
M  V30 1508 H 128.083 0.184778 0.650256 0
M  V30 1509 H 130.637 1.15615 1.69771 0
M  V30 1510 H 128.867 -0.20152 3.86175 0
M  V30 1511 H 130.556 0.169875 4.05544 0
M  V30 1512 H 131.322 2.6533 4.05986 0
M  V30 1513 H 127.201 1.46705 4.37034 0
M  V30 1514 H 130.745 4.86056 5.00395 0
M  V30 1515 H 126.642 3.66532 5.31342 0
M  V30 1516 H 127.41 5.64987 5.92226 0
M  V30 1517 N 130.073 -1.45103 0.615059 0
M  V30 1518 C 131.003 -2.33339 -0.0865619 0
M  V30 1519 C 131.984 -1.4727 -0.851209 0
M  V30 1520 O 133.169 -1.76026 -0.820281 0
M  V30 1521 C 130.299 -3.30095 -1.07956 0
M  V30 1522 C 129.253 -4.25858 -0.427628 0
M  V30 1523 C 128.579 -5.12361 -1.5294 0
M  V30 1524 C 129.879 -5.18165 0.655944 0
M  V30 1525 H 131.573 -2.92254 0.650224 0
M  V30 1526 H 129.119 -1.40532 0.314138 0
M  V30 1527 H 131.072 -3.90698 -1.57901 0
M  V30 1528 H 129.796 -2.69355 -1.84703 0
M  V30 1529 H 128.455 -3.66564 0.0510292 0
M  V30 1530 H 128.103 -4.47984 -2.28734 0
M  V30 1531 H 127.803 -5.77238 -1.09865 0
M  V30 1532 H 129.327 -5.75833 -2.03098 0
M  V30 1533 H 130.741 -5.72796 0.240257 0
M  V30 1534 H 129.138 -5.91559 1.00888 0
M  V30 1535 H 130.208 -4.60144 1.52957 0
M  V30 1536 N 131.551 -0.354651 -1.53558 0
M  V30 1537 C 132.8 0.239504 -2.00273 0
M  V30 1538 C 133.113 1.50759 -1.24623 0
M  V30 1539 O 134.319 2.17968 -1.61871 0
M  V30 1540 C 132.775 0.477341 -3.5672 0
M  V30 1541 C 132.383 -0.775488 -4.41237 0
M  V30 1542 C 134.127 1.02975 -4.11821 0
M  V30 1543 C 132.034 -0.507838 -5.89216 0
M  V30 1544 H 130.964 0.0932743 -0.748208 0
M  V30 1545 H 133.615 -0.471701 -1.77334 0
M  V30 1546 H 131.997 1.24953 -3.7577 0
M  V30 1547 H 133.171 -1.54963 -4.33962 0
M  V30 1548 H 131.486 -1.25033 -3.97185 0
M  V30 1549 H 134.083 1.24513 -5.2 0
M  V30 1550 H 134.426 1.98862 -3.65731 0
M  V30 1551 H 134.959 0.317994 -3.96527 0
M  V30 1552 H 131.698 -1.43674 -6.39561 0
M  V30 1553 H 131.218 0.228011 -5.99366 0
M  V30 1554 H 132.897 -0.129238 -6.46871 0
M  V30 1555 N 133.029 1.57378 -0.0835403 0
M  V30 1556 C 134.445 1.57246 0.273109 0
M  V30 1557 C 134.645 1.09385 1.69225 0
M  V30 1558 O 133.701 0.765051 2.40631 0
M  V30 1559 C 135.014 3.00614 0.0720628 0
M  V30 1560 C 136.562 3.12684 0.1407 0
M  V30 1561 C 137.037 4.57989 -0.0322094 0
M  V30 1562 N 138.528 4.63194 0.0230085 0
M  V30 1563 C 139.263 5.73335 -0.0861941 0
M  V30 1564 N 138.759 6.9235 -0.24958 0
M  V30 1565 N 140.552 5.62093 -0.0282886 0
M  V30 1566 H 132.703 1.86801 -1.0109 0
M  V30 1567 H 134.966 0.861687 -0.395222 0
M  V30 1568 H 134.672 3.39786 -0.907662 0
M  V30 1569 H 134.546 3.68193 0.81936 0
M  V30 1570 H 136.933 2.73391 1.11092 0
M  V30 1571 H 137.014 2.47719 -0.637896 0
M  V30 1572 H 136.658 4.97973 -0.999247 0
M  V30 1573 H 136.588 5.21 0.765937 0
M  V30 1574 H 139.079 3.77613 0.14722 0
M  V30 1575 H 139.392 7.72117 -0.324733 0
M  V30 1576 H 137.737 6.94415 -0.285097 0
M  V30 1577 H 140.928 4.67997 0.0981408 0
M  V30 1578 H 141.101 6.47895 -0.116845 0
M  V30 1579 N 134.507 -0.190092 1.56449 0
M  V30 1580 C 135.923 -0.54113 1.50146 0
M  V30 1581 C 136.123 -1.85603 0.784465 0
M  V30 1582 O 135.179 -2.5024 0.337051 0
M  V30 1583 C 136.492 -0.591241 2.9483 0
M  V30 1584 C 138.04 -0.679732 3.0553 0
M  V30 1585 C 138.515 -0.760908 4.51635 0
M  V30 1586 N 140.006 -0.824302 4.55806 0
M  V30 1587 C 140.741 -0.907365 5.66175 0
M  V30 1588 N 140.237 -0.952422 6.86222 0
M  V30 1589 N 142.03 -0.94494 5.541 0
M  V30 1590 H 134.181 0.67235 2.01478 0
M  V30 1591 H 136.444 0.240127 0.917084 0
M  V30 1592 H 136.15 0.305905 3.50367 0
M  V30 1593 H 136.024 -1.44422 3.48457 0
M  V30 1594 H 138.411 -1.56731 2.50039 0
M  V30 1595 H 138.492 0.199549 2.5502 0
M  V30 1596 H 138.136 0.122336 5.07753 0
M  V30 1597 H 138.066 -1.65606 4.99882 0
M  V30 1598 H 140.557 -0.798526 3.69367 0
M  V30 1599 H 140.87 -1.01645 7.66086 0
M  V30 1600 H 139.215 -0.921014 6.8887 0
M  V30 1601 H 142.406 -0.906612 4.59236 0
M  V30 1602 H 142.579 -1.00622 6.4014 0
M  V30 1603 N 135.985 -1.50799 -0.457987 0
M  V30 1604 C 136.917 -1.66786 -1.57211 0
M  V30 1605 C 137.93 -0.548962 -1.53265 0
M  V30 1606 O 139.119 -0.8226 -1.58416 0
M  V30 1607 C 136.219 -1.64834 -2.96113 0
M  V30 1608 C 135.392 -2.92971 -3.24787 0
M  V30 1609 C 134.451 -2.83485 -4.43309 0
M  V30 1610 O 133.477 -3.5744 -4.42973 0
M  V30 1611 N 134.679 -1.97929 -5.45714 0
M  V30 1612 H 137.444 -2.62889 -1.43909 0
M  V30 1613 H 135.005 -1.48427 -0.646617 0
M  V30 1614 H 136.997 -1.56084 -3.7339 0
M  V30 1615 H 135.567 -0.764118 -3.03117 0
M  V30 1616 H 134.787 -3.15749 -2.36 0
M  V30 1617 H 136.075 -3.77834 -3.40762 0
M  V30 1618 H 135.473 -1.37182 -5.48815 0
M  V30 1619 H 134.03 -1.95073 -6.21924 0
M  V30 1620 N 137.463 0.71206 -1.40597 0
M  V30 1621 C 138.411 1.84746 -1.41321 0
M  V30 1622 C 139.405 1.66842 -0.293268 0
M  V30 1623 O 140.611 1.73904 -0.464481 0
M  V30 1624 H 136.986 0.608522 -0.441819 0
M  V30 1625 H 138.957 1.81252 -2.37045 0
M  V30 1626 C 137.706 3.22638 -1.29614 0
M  V30 1627 H 137.029 3.37023 -2.15071 0
M  V30 1628 H 138.469 4.02209 -1.3418 0
M  V30 1629 C 136.928 3.36899 -0.00673121 0
M  V30 1630 O 137.458 3.90186 0.954859 0
M  V30 1631 N 135.664 2.9053 0.0639327 0
M  V30 1632 H 135.211 2.47353 -0.719311 0
M  V30 1633 H 135.169 3.0045 0.926118 0
M  V30 1634 N 138.941 1.26152 0.944643 0
M  V30 1635 C 140.171 1.14094 1.72239 0
M  V30 1636 C 140.579 -0.306931 1.86694 0
M  V30 1637 O 139.922 -1.22222 1.3714 0
M  V30 1638 C 139.984 1.73316 3.14963 0
M  V30 1639 C 139.648 3.2239 3.23904 0
M  V30 1640 C 140.645 4.19252 3.07447 0
M  V30 1641 C 138.33 3.62788 3.47405 0
M  V30 1642 C 140.324 5.54491 3.14353 0
M  V30 1643 C 138.011 4.98162 3.53947 0
M  V30 1644 C 139.009 5.93823 3.37436 0
M  V30 1645 O 138.697 7.26732 3.43679 0
M  V30 1646 H 138.429 0.398292 0.546205 0
M  V30 1647 H 140.983 1.67201 1.19301 0
M  V30 1648 H 139.213 1.14667 3.69308 0
M  V30 1649 H 140.902 1.56214 3.74636 0
M  V30 1650 H 141.668 3.8938 2.8915 0
M  V30 1651 H 137.547 2.88816 3.59313 0
M  V30 1652 H 141.091 6.29137 3.01384 0
M  V30 1653 H 136.988 5.27695 3.71763 0
M  V30 1654 H 137.756 7.3496 3.60245 0
M  V30 1655 N 140.419 -1.14872 1.07899 0
M  V30 1656 C 141.351 -2.19425 0.662231 0
M  V30 1657 C 142.364 -1.60231 -0.288079 0
M  V30 1658 O 143.553 -1.78336 -0.076534 0
M  V30 1659 C 140.653 -3.38867 -0.0470695 0
M  V30 1660 C 139.826 -4.27597 0.920831 0
M  V30 1661 C 138.885 -5.25616 0.247805 0
M  V30 1662 O 137.911 -5.62189 0.890599 0
M  V30 1663 N 139.113 -5.71746 -1.00435 0
M  V30 1664 H 141.878 -2.55797 1.56166 0
M  V30 1665 H 139.439 -1.30042 0.964404 0
M  V30 1666 H 141.431 -4.01497 -0.50813 0
M  V30 1667 H 140.001 -3.00864 -0.848523 0
M  V30 1668 H 139.221 -3.61982 1.56087 0
M  V30 1669 H 140.509 -4.83748 1.57688 0
M  V30 1670 H 139.907 -5.44153 -1.54642 0
M  V30 1671 H 138.464 -6.36389 -1.40899 0
M  V30 1672 N 141.898 -0.863906 -1.31812 0
M  V30 1673 C 143.123 -0.48527 -2.01643 0
M  V30 1674 C 143.548 0.913058 -1.64453 0
M  V30 1675 O 142.906 1.6014 -0.849985 0
M  V30 1676 C 142.954 -0.642625 -3.54828 0
M  V30 1677 O 142.058 0.320659 -4.11151 0
M  V30 1678 H 141.399 -0.193793 -0.635091 0
M  V30 1679 H 143.929 -1.16565 -1.68148 0
M  V30 1680 H 143.939 -0.533628 -4.04495 0
M  V30 1681 H 142.614 -1.66227 -3.81237 0
M  V30 1682 H 141.191 0.167126 -3.72525 0
M  V30 1683 N 143.376 1.44774 -0.622745 0
M  V30 1684 C 144.306 2.33382 0.0741861 0
M  V30 1685 C 145.287 1.47719 0.843387 0
M  V30 1686 O 146.472 1.76458 0.810934 0
M  V30 1687 C 143.602 3.30663 1.06204 0
M  V30 1688 C 142.556 4.26079 0.405037 0
M  V30 1689 C 141.882 5.13165 1.5022 0
M  V30 1690 C 143.182 5.1781 -0.683414 0
M  V30 1691 H 144.876 2.91905 -0.665713 0
M  V30 1692 H 142.422 1.40363 -0.321587 0
M  V30 1693 H 144.375 3.9153 1.55827 0
M  V30 1694 H 143.099 2.70331 1.83272 0
M  V30 1695 H 141.758 3.66532 -0.0704683 0
M  V30 1696 H 141.406 4.49191 2.26355 0
M  V30 1697 H 141.106 5.77812 1.06803 0
M  V30 1698 H 142.63 5.76902 2.00041 0
M  V30 1699 H 144.044 5.72661 -0.270631 0
M  V30 1700 H 142.441 5.91015 -1.04023 0
M  V30 1701 H 143.511 4.59326 -1.55395 0
M  V30 1702 N 144.854 0.36279 1.53368 0
M  V30 1703 C 146.079 -0.231226 2.06107 0
M  V30 1704 C 146.504 -1.419 1.23474 0
M  V30 1705 O 145.862 -1.79524 0.253128 0
M  V30 1706 C 145.91 -0.605523 3.5548 0
M  V30 1707 O 145.014 -1.70312 3.7559 0
M  V30 1708 H 144.355 -0.034327 0.663112 0
M  V30 1709 H 146.885 0.522584 1.97814 0
M  V30 1710 H 146.895 -0.877314 3.98456 0
M  V30 1711 H 145.57 0.263004 4.15068 0
M  V30 1712 H 144.147 -1.4271 3.44512 0
M  V30 1713 N 146.332 -1.57332 0.0918853 0
M  V30 1714 C 147.279 -2.13847 -0.868211 0
M  V30 1715 C 148.249 -1.05618 -1.28196 0
M  V30 1716 O 149.434 -1.33387 -1.36427 0
M  V30 1717 C 146.574 -2.72062 -2.12312 0
M  V30 1718 C 145.687 -3.94514 -1.7602 0
M  V30 1719 C 144.822 -4.40903 -2.96273 0
M  V30 1720 C 143.861 -5.55953 -2.56092 0
M  V30 1721 N 142.998 -5.97209 -3.69169 0
M  V30 1722 H 147.838 -2.95575 -0.379406 0
M  V30 1723 H 145.375 -1.46048 -0.175606 0
M  V30 1724 H 147.333 -3.03931 -2.858 0
M  V30 1725 H 145.963 -1.93068 -2.58698 0
M  V30 1726 H 145.015 -3.68979 -0.925135 0
M  V30 1727 H 146.327 -4.7802 -1.42472 0
M  V30 1728 H 145.481 -4.74539 -3.78018 0
M  V30 1729 H 144.22 -3.56291 -3.33029 0
M  V30 1730 H 143.225 -5.21948 -1.72773 0
M  V30 1731 H 144.45 -6.42311 -2.20484 0
M  V30 1732 H 142.396 -5.15543 -4.05649 0
M  V30 1733 H 142.313 -6.75504 -3.39456 0
M  V30 1734 H 143.581 -6.35475 -4.51434 0
M  V30 1735 N 147.81 0.181792 -1.56548 0
M  V30 1736 C 149.226 0.53316 -1.50431 0
M  V30 1737 C 149.426 1.85184 -0.794297 0
M  V30 1738 O 148.482 2.50058 -0.350318 0
M  V30 1739 C 149.795 0.575597 -2.9514 0
M  V30 1740 C 151.343 0.663519 -3.05886 0
M  V30 1741 C 151.818 0.736946 -4.52032 0
M  V30 1742 N 153.309 0.800118 -4.56237 0
M  V30 1743 C 154.044 0.877327 -5.66649 0
M  V30 1744 N 153.54 0.916016 -6.86718 0
M  V30 1745 N 155.333 0.915542 -5.54594 0
M  V30 1746 H 147.484 -0.683025 -2.01118 0
M  V30 1747 H 149.747 -0.244988 -0.915797 0
M  V30 1748 H 149.453 -0.324482 -3.502 0
M  V30 1749 H 149.327 1.42572 -3.49218 0
M  V30 1750 H 151.714 1.55403 -2.50867 0
M  V30 1751 H 151.795 -0.21307 -2.54911 0
M  V30 1752 H 151.439 -0.149262 -5.07681 0
M  V30 1753 H 151.369 1.62953 -5.00753 0
M  V30 1754 H 153.86 0.778926 -3.69785 0
M  V30 1755 H 154.173 0.975813 -7.66614 0
M  V30 1756 H 152.518 0.884469 -6.89349 0
M  V30 1757 H 155.709 0.882245 -4.59711 0
M  V30 1758 H 155.882 0.972253 -6.40665 0
M  V30 1759 N 149.288 1.51039 0.449983 0
M  V30 1760 C 150.536 1.62759 1.19808 0
M  V30 1761 C 150.857 0.339981 1.92013 0
M  V30 1762 O 150.127 -0.643606 1.85026 0
M  V30 1763 H 148.707 0.599811 0.445237 0
M  V30 1764 H 151.369 1.87914 0.517138 0
M  V30 1765 H 150.465 2.44911 1.93455 0
M  V30 1766 N 150.766 -0.704594 1.40972 0
M  V30 1767 C 152.014 -1.46169 1.39568 0
M  V30 1768 C 152.335 -1.95 0.00253745 0
M  V30 1769 O 151.605 -1.71095 -0.954114 0
M  V30 1770 H 150.185 -0.542326 0.513704 0
M  V30 1771 H 152.847 -0.834553 1.76128 0
M  V30 1772 H 151.943 -2.32922 2.07735 0
M  V30 1773 N 152.244 -1.26651 -0.937939 0
M  V30 1774 C 153.191 -1.0849 -2.03712 0
M  V30 1775 C 154.161 0.011033 -1.66096 0
M  V30 1776 O 155.346 -0.149353 -1.90215 0
M  V30 1777 C 152.486 -0.72735 -3.37348 0
M  V30 1778 C 151.599 -1.89986 -3.87981 0
M  V30 1779 C 150.734 -1.48513 -5.10017 0
M  V30 1780 C 149.773 -2.62575 -5.5292 0
M  V30 1781 N 148.91 -2.21762 -6.66158 0
M  V30 1782 H 153.75 -2.02551 -2.18579 0
M  V30 1783 H 151.287 -1.00844 -1.07093 0
M  V30 1784 H 153.245 -0.50092 -4.14182 0
M  V30 1785 H 151.875 0.176298 -3.22318 0
M  V30 1786 H 150.927 -2.23913 -3.07518 0
M  V30 1787 H 152.239 -2.75586 -4.15757 0
M  V30 1788 H 151.393 -1.21934 -5.94321 0
M  V30 1789 H 150.132 -0.60009 -4.83994 0
M  V30 1790 H 149.137 -2.8988 -4.67172 0
M  V30 1791 H 150.362 -3.51685 -5.80943 0
M  V30 1792 H 148.308 -1.35696 -6.41812 0
M  V30 1793 H 148.225 -3.00903 -6.93537 0
M  V30 1794 H 149.493 -1.98403 -7.53828 0
M  V30 1795 N 153.722 1.14298 -1.08507 0
M  V30 1796 C 154.685 2.17607 -0.719711 0
M  V30 1797 C 155.685 1.58907 0.245997 0
M  V30 1798 O 156.875 1.74181 0.0254081 0
M  V30 1799 C 154.007 3.40842 -0.0627695 0
M  V30 1800 H 155.2 2.51443 -1.63452 0
M  V30 1801 H 152.753 1.28963 -0.88307 0
M  V30 1802 H 153.488 3.12587 0.863716 0
M  V30 1803 H 153.273 3.84713 -0.757504 0
M  V30 1804 H 154.763 4.17221 0.177786 0
M  V30 1805 O 155.239 1.00442 1.26466 0
M  V30 1806 H 155.93 0.659114 1.82141 0
M  V30 END ATOM
M  V30 BEGIN BOND
M  V30 END BOND
M  V30 END CTAB
M  END
$$$$
