drugbank_target|P04211 Ig lambda chain V region 4A (DB08273; DB08295)
 OpenBabel12092120503D

  0  0  0     0  0            999 V3000
M  V30 BEGIN CTAB
M  V30 COUNTS 1714 1740 0 0 0
M  V30 BEGIN ATOM
M  V30 1 H -0.908 1.98254 -0.117106 0
M  V30 2 N 0 1.576 0 0
M  V30 3 C 0.933 2.03868 1.02534 0
M  V30 4 C 1.911 0.928543 1.3348 0
M  V30 5 O 3.095 1.19667 1.45644 0
M  V30 6 C 0.222 2.43627 2.35294 0
M  V30 7 C -0.732 3.65373 2.2001 0
M  V30 8 S 0.101 5.13292 1.52614 0
M  V30 9 C 1.257 5.56322 2.86805 0
M  V30 10 H 1.49 2.90518 0.631377 0
M  V30 11 H -0.977 1.52953 0.210867 0
M  V30 12 H 0.981 2.67203 3.11629 0
M  V30 13 H -0.358 1.57376 2.7183 0
M  V30 14 H -1.165 3.90944 3.18086 0
M  V30 15 H -1.563 3.418 1.51819 0
M  V30 16 H 0.729 5.58782 3.83104 0
M  V30 17 H 1.672 6.56266 2.65933 0
M  V30 18 H 2.08 4.83886 2.90714 0
M  V30 19 N 1.4781 -0.272755 1.55222 0
M  V30 20 C 2.4411 -1.32041 1.87344 0
M  V30 21 C 3.4411 -1.42342 0.74803 0
M  V30 22 O 4.6311 -1.41488 1.0162 0
M  V30 23 C 1.7631 -2.70173 2.07893 0
M  V30 24 H 2.9561 -1.04789 2.80997 0
M  V30 25 H 0.5091 -0.51083 1.47717 0
M  V30 26 H 1.2441 -3.02605 1.16622 0
M  V30 27 H 1.0291 -2.64082 2.89833 0
M  V30 28 H 2.5191 -3.45869 2.34017 0
M  V30 29 N 2.9562 -1.48159 -0.537278 0
M  V30 30 C 4.2022 -1.57015 -1.29297 0
M  V30 31 C 4.5572 -0.237791 -1.90925 0
M  V30 32 O 3.8502 0.758621 -1.75942 0
M  V30 33 C 4.0442 -2.63956 -2.40961 0
M  V30 34 C 3.8732 -4.07461 -1.90278 0
M  V30 35 C 2.6432 -4.74685 -1.73213 0
M  V30 36 C 4.8412 -4.93858 -1.43556 0
M  V30 37 N 2.8232 -6.02633 -1.17078 0
M  V30 38 C 4.1942 -6.11993 -0.993204 0
M  V30 39 C 6.2492 -4.80141 -1.31792 0
M  V30 40 C 4.9522 -7.17923 -0.444872 0
M  V30 41 C 6.9782 -5.86186 -0.783585 0
M  V30 42 C 6.3402 -7.03524 -0.351261 0
M  V30 43 H 2.4392 -0.629154 -0.464423 0
M  V30 44 H 5.0232 -1.85006 -0.606705 0
M  V30 45 H 3.1942 -2.378 -3.07093 0
M  V30 46 H 4.9262 -2.62539 -3.07986 0
M  V30 47 H 1.6812 -4.30902 -1.9652 0
M  V30 48 H 2.1052 -6.7085 -0.910421 0
M  V30 49 H 6.7472 -3.89772 -1.63823 0
M  V30 50 H 4.4652 -8.08022 -0.11222 0
M  V30 51 H 8.0512 -5.77624 -0.695835 0
M  V30 52 H 6.9312 -7.8418 0.055777 0
M  V30 53 N 4.4343 0.785586 -1.36625 0
M  V30 54 C 5.6623 1.57448 -1.3423 0
M  V30 55 C 6.0773 1.88649 0.0755653 0
M  V30 56 O 5.4343 1.50414 1.03354 0
M  V30 57 C 5.4853 2.89316 -2.16745 0
M  V30 58 O 5.2063 2.59459 -3.53005 0
M  V30 59 C 6.7073 3.83606 -2.22174 0
M  V30 60 H 3.9273 0.488226 -0.4603 0
M  V30 61 H 6.4713 0.974733 -1.79775 0
M  V30 62 H 4.6263 3.4575 -1.74745 0
M  V30 63 H 5.0403 3.43804 -3.96105 0
M  V30 64 H 6.5143 4.73181 -2.8426 0
M  V30 65 H 6.9913 4.21734 -1.22627 0
M  V30 66 H 7.5973 3.33104 -2.64427 0
M  V30 67 N 5.9124 1.20967 1.01018 0
M  V30 68 C 7.3234 1.02319 1.56165 0
M  V30 69 C 7.6744 -0.418546 1.91684 0
M  V30 70 O 6.7994 -1.30096 1.72928 0
M  V30 71 C 7.3944 1.85109 2.8376 0
M  V30 72 C 5.9534 1.70809 3.35412 0
M  V30 73 C 5.1004 1.82643 2.08655 0
M  V30 74 H 8.0514 1.35065 0.833255 0
M  V30 75 H 8.0724 1.35827 3.55431 0
M  V30 76 H 7.5844 2.90035 2.57878 0
M  V30 77 H 5.6854 0.685464 3.66241 0
M  V30 78 H 5.7984 2.52467 4.07182 0
M  V30 79 H 4.1624 1.25896 2.21409 0
M  V30 80 H 4.9454 2.89066 1.85191 0
M  V30 81 N 7.3905 -1.2043 1.01659 0
M  V30 82 C 8.3205 -2.25466 0.607226 0
M  V30 83 C 9.3015 -1.65853 -0.377716 0
M  V30 84 O 10.4865 -1.92409 -0.263149 0
M  V30 85 C 7.6165 -3.47256 -0.0552949 0
M  V30 86 C 6.5705 -4.19462 0.850632 0
M  V30 87 C 5.8965 -5.34673 0.0538859 0
M  V30 88 C 7.1965 -4.75603 2.15868 0
M  V30 89 H 8.8905 -2.59962 1.48526 0
M  V30 90 H 6.4365 -1.2496 0.715605 0
M  V30 91 H 8.3895 -4.19917 -0.353233 0
M  V30 92 H 7.1135 -3.11924 -0.968045 0
M  V30 93 H 5.7725 -3.48667 1.13257 0
M  V30 94 H 5.4205 -4.95585 -0.860514 0
M  V30 95 H 5.1205 -5.83913 0.657192 0
M  V30 96 H 6.6445 -6.10138 -0.237598 0
M  V30 97 H 8.0585 -5.40083 1.92311 0
M  V30 98 H 6.4555 -5.3528 2.71284 0
M  V30 99 H 7.5255 -3.94346 2.82169 0
M  V30 100 N 8.8686 -0.792821 -1.36206 0
M  V30 101 C 10.1156 -0.366786 -1.99151 0
M  V30 102 C 10.4436 1.06243 -1.62919 0
M  V30 103 O 9.6986 1.74927 -0.877442 0
M  V30 104 C 9.9976 -0.481501 -3.54142 0
M  V30 105 C 9.6636 -1.87202 -4.10203 0
M  V30 106 C 8.3256 -2.25248 -4.25226 0
M  V30 107 C 10.6776 -2.78237 -4.40719 0
M  V30 108 C 8.0056 -3.53723 -4.68078 0
M  V30 109 C 10.3576 -4.06144 -4.85005 0
M  V30 110 C 9.0216 -4.44207 -4.98234 0
M  V30 111 H 8.2916 -0.134217 -0.728743 0
M  V30 112 H 10.9386 -1.01094 -1.62641 0
M  V30 113 H 9.2436 0.246146 -3.91026 0
M  V30 114 H 10.9406 -0.132844 -4.0078 0
M  V30 115 H 7.5306 -1.56639 -3.98951 0
M  V30 116 H 11.7146 -2.50097 -4.28679 0
M  V30 117 H 6.9706 -3.8308 -4.76508 0
M  V30 118 H 11.1446 -4.76796 -5.07581 0
M  V30 119 H 8.7716 -5.43814 -5.31197 0
M  V30 120 N 10.3467 1.47872 -0.545128 0
M  V30 121 C 11.2767 2.32661 0.197793 0
M  V30 122 C 12.2577 1.43041 0.920504 0
M  V30 123 O 13.4427 1.71912 0.90333 0
M  V30 124 C 10.5727 3.24569 1.23582 0
M  V30 125 C 9.5267 4.23333 0.630323 0
M  V30 126 C 8.8527 5.0448 1.77211 0
M  V30 127 C 10.1527 5.20704 -0.407974 0
M  V30 128 H 11.8467 2.95024 -0.510045 0
M  V30 129 H 9.3927 1.4187 -0.246731 0
M  V30 130 H 11.3457 3.8272 1.76362 0
M  V30 131 H 10.0697 2.60236 1.97344 0
M  V30 132 H 8.7287 3.6639 0.123922 0
M  V30 133 H 8.3767 4.36561 2.49847 0
M  V30 134 H 8.0767 5.71339 1.37281 0
M  V30 135 H 9.6007 5.65487 2.3034 0
M  V30 136 H 11.0147 5.7329 0.033305 0
M  V30 137 H 9.4117 5.95699 -0.725486 0
M  V30 138 H 10.4817 4.66917 -1.30828 0
M  V30 139 N 11.8248 0.280983 1.55075 0
M  V30 140 C 13.0718 -0.334115 1.99725 0
M  V30 141 C 13.3998 -1.5542 1.1694 0
M  V30 142 O 12.6548 -1.94361 0.228531 0
M  V30 143 C 12.9538 -0.754656 3.49342 0
M  V30 144 C 12.6198 0.361445 4.49449 0
M  V30 145 C 11.2818 0.667893 4.76542 0
M  V30 146 C 13.6338 1.11322 5.09173 0
M  V30 147 C 10.9618 1.7296 5.60626 0
M  V30 148 C 13.3138 2.1647 5.9441 0
M  V30 149 C 11.9778 2.47742 6.19822 0
M  V30 150 H 11.2478 -0.122261 0.730844 0
M  V30 151 H 13.8948 0.395917 1.87363 0
M  V30 152 H 12.1998 -1.56446 3.5921 0
M  V30 153 H 13.8968 -1.24142 3.813 0
M  V30 154 H 10.4868 0.112481 4.28452 0
M  V30 155 H 14.6708 0.88973 4.8826 0
M  V30 156 H 9.9268 1.97684 5.78559 0
M  V30 157 H 14.1008 2.75193 6.3972 0
M  V30 158 H 11.7278 3.30145 6.84769 0
M  V30 159 N 13.3029 -1.57598 0.00835791 0
M  V30 160 C 14.2329 -2.1198 -0.979113 0
M  V30 161 C 15.2139 -1.03091 -1.35301 0
M  V30 162 O 16.3989 -1.30818 -1.43528 0
M  V30 163 C 13.5289 -2.62995 -2.26828 0
M  V30 164 C 12.4829 -3.76485 -2.03576 0
M  V30 165 C 11.8089 -4.13846 -3.38579 0
M  V30 166 C 13.1089 -5.0342 -1.39161 0
M  V30 167 H 14.8029 -2.94738 -0.526281 0
M  V30 168 H 12.3489 -1.41783 -0.251704 0
M  V30 169 H 14.3019 -2.99669 -2.96271 0
M  V30 170 H 13.0259 -1.7737 -2.7424 0
M  V30 171 H 11.6849 -3.40217 -1.36557 0
M  V30 172 H 11.3329 -3.25232 -3.83709 0
M  V30 173 H 11.0329 -4.90312 -3.23834 0
M  V30 174 H 12.5569 -4.53086 -4.09323 0
M  V30 175 H 13.9709 -5.37812 -1.98573 0
M  V30 176 H 12.3679 -5.84746 -1.34878 0
M  V30 177 H 13.4379 -4.83548 -0.361868 0
M  V30 178 N 14.781 0.264519 -1.55364 0
M  V30 179 C 15.711 1.33121 -1.91836 0
M  V30 180 C 16.692 1.51101 -0.781192 0
M  V30 181 O 17.877 1.64003 -1.04003 0
M  V30 182 C 15.007 2.68921 -2.19769 0
M  V30 183 C 13.961 2.65661 -3.35571 0
M  V30 184 C 13.287 4.05093 -3.49004 0
M  V30 185 C 14.587 2.24187 -4.71739 0
M  V30 186 H 16.281 1.02844 -2.81182 0
M  V30 187 H 13.827 0.493286 -1.35287 0
M  V30 188 H 15.78 3.43663 -2.43872 0
M  V30 189 H 14.504 3.00799 -1.27231 0
M  V30 190 H 13.163 1.93377 -3.1145 0
M  V30 191 H 12.811 4.34206 -2.53917 0
M  V30 192 H 12.511 4.03804 -4.26868 0
M  V30 193 H 14.035 4.81561 -3.75408 0
M  V30 194 H 15.449 2.88654 -4.9533 0
M  V30 195 H 13.846 2.34044 -5.52579 0
M  V30 196 H 14.916 1.19327 -4.69988 0
M  V30 197 N 16.2591 1.48442 0.529413 0
M  V30 198 C 17.4871 1.60151 1.30994 0
M  V30 199 C 17.9021 0.261985 1.86973 0
M  V30 200 O 17.2591 -0.748805 1.66431 0
M  V30 201 C 17.3101 2.64854 2.46038 0
M  V30 202 O 17.0311 3.93608 1.92365 0
M  V30 203 C 18.5321 2.87007 3.37849 0
M  V30 204 H 15.7521 0.539971 0.398338 0
M  V30 205 H 18.2961 1.94273 0.638597 0
M  V30 206 H 16.4511 2.33589 3.09055 0
M  V30 207 H 16.8651 4.51055 2.67675 0
M  V30 208 H 18.3391 3.64068 4.14919 0
M  V30 209 H 18.8161 1.95852 3.93114 0
M  V30 210 H 19.4221 3.19579 2.80623 0
M  V30 211 N 17.7372 -0.778329 1.37039 0
M  V30 212 C 18.9772 -1.54973 1.33276 0
M  V30 213 C 19.3412 -1.91816 -0.0839376 0
M  V30 214 O 20.5422 -2.6767 -0.246228 0
M  V30 215 C 18.8132 -2.78517 2.23971 0
M  V30 216 S 20.3722 -3.6865 2.37997 0
M  V30 217 H 17.1902 -0.530639 0.473226 0
M  V30 218 H 19.7922 -0.915806 1.72723 0
M  V30 219 H 18.4962 -2.4952 3.25835 0
M  V30 220 H 18.0272 -3.46875 1.85584 0
M  V30 221 H 20.0422 -4.70182 1.58567 0
M  V30 222 N 19.2153 -1.21501 -1.00376 0
M  V30 223 C 20.4553 -1.04444 -1.75701 0
M  V30 224 C 20.8193 0.414644 -1.87469 0
M  V30 225 O 22.0203 0.705763 -2.59369 0
M  V30 226 C 20.2913 -1.72389 -3.13077 0
M  V30 227 S 21.8503 -1.70604 -4.04277 0
M  V30 228 H 18.6683 -0.374249 -0.604532 0
M  V30 229 H 21.2703 -1.54267 -1.20091 0
M  V30 230 H 19.9743 -2.77734 -3.02146 0
M  V30 231 H 19.5053 -1.22751 -3.73759 0
M  V30 232 H 21.5203 -0.748012 -4.9053 0
M  V30 233 N 20.6934 1.19889 -1.02296 0
M  V30 234 C 22.1044 1.71124 -0.746568 0
M  V30 235 C 22.4554 1.81939 0.734335 0
M  V30 236 O 21.5804 1.48639 1.57275 0
M  V30 237 C 22.1754 3.10804 -1.34857 0
M  V30 238 C 20.7344 3.59323 -1.1209 0
M  V30 239 C 19.8814 2.3635 -1.45031 0
M  V30 240 H 22.8324 1.04813 -1.19163 0
M  V30 241 H 22.8534 3.73186 -0.742437 0
M  V30 242 H 22.3654 3.029 -2.42638 0
M  V30 243 H 20.4664 3.7255 -0.0610337 0
M  V30 244 H 20.5794 4.4378 -1.80544 0
M  V30 245 H 18.9434 2.39399 -0.869487 0
M  V30 246 H 19.7264 2.31081 -2.53883 0
M  V30 247 N 22.1715 0.800033 1.35784 0
M  V30 248 C 23.4195 0.376597 1.9856 0
M  V30 249 C 23.7405 -1.05812 1.63795 0
M  V30 250 O 23.0105 -1.73103 0.917171 0
M  V30 251 H 21.5905 0.136261 0.734467 0
M  V30 252 H 24.2525 1.02442 1.65806 0
M  V30 253 H 23.3485 0.477002 3.08433 0
M  V30 254 N 23.6496 -1.47581 0.552962 0
M  V30 255 C 24.8976 -2.02082 0.0272703 0
M  V30 256 C 25.2186 -1.4301 -1.32563 0
M  V30 257 O 24.4886 -0.603745 -1.86365 0
M  V30 258 H 23.0686 -0.746966 0.00709182 0
M  V30 259 H 25.7306 -1.81033 0.722008 0
M  V30 260 H 24.8266 -3.12034 -0.0639951 0
M  V30 261 N 25.1277 -0.289203 -1.54924 0
M  V30 262 C 26.3527 0.329299 -2.04769 0
M  V30 263 C 26.7777 1.4763 -1.16564 0
M  V30 264 O 26.1357 1.80527 -0.167186 0
M  V30 265 C 26.1837 0.774438 -3.52186 0
M  V30 266 O 25.2877 1.88038 -3.67036 0
M  V30 267 H 24.6287 0.0659259 -0.660719 0
M  V30 268 H 27.1587 -0.42761 -2.00082 0
M  V30 269 H 27.1687 1.06642 -3.93816 0
M  V30 270 H 25.8437 -0.0646707 -4.1585 0
M  V30 271 H 24.4207 1.58985 -3.3731 0
M  V30 272 N 26.6058 1.57591 -0.0167156 0
M  V30 273 C 27.5538 2.10604 0.987353 0
M  V30 274 C 28.5478 1.02977 1.34507 0
M  V30 275 O 29.7538 1.21425 1.32875 0
M  V30 276 H 26.1288 0.672695 0.336134 0
M  V30 277 H 28.0998 2.93925 0.514817 0
M  V30 278 C 26.8488 2.6382 2.26483 0
M  V30 279 H 26.1718 3.46278 1.99829 0
M  V30 280 H 27.6118 3.04573 2.94977 0
M  V30 281 C 26.0708 1.55992 2.9861 0
M  V30 282 O 26.6008 0.952521 3.90243 0
M  V30 283 N 24.8068 1.28335 2.60727 0
M  V30 284 H 24.3538 1.77914 1.86291 0
M  V30 285 H 24.3118 0.564115 3.09298 0
M  V30 286 N 28.0839 -0.256276 1.55502 0
M  V30 287 C 29.3089 -1.00766 1.81276 0
M  V30 288 C 29.7339 -1.78524 0.59252 0
M  V30 289 O 29.0919 -1.75413 -0.45827 0
M  V30 290 C 29.1399 -1.92869 3.04687 0
M  V30 291 O 28.2439 -3.019 2.80945 0
M  V30 292 H 27.5849 -0.287224 0.598664 0
M  V30 293 H 30.1149 -0.280109 2.02674 0
M  V30 294 H 30.1249 -2.34511 3.33869 0
M  V30 295 H 28.7999 -1.35689 3.93143 0
M  V30 296 H 27.3769 -2.64454 2.62904 0
M  V30 297 N 29.562 -1.4872 -0.521534 0
M  V30 298 C 30.494 -1.59968 -1.64143 0
M  V30 299 C 31.507 -0.483463 -1.55456 0
M  V30 300 O 32.696 -0.75467 -1.61762 0
M  V30 301 C 29.796 -1.52127 -3.02838 0
M  V30 302 C 28.969 -2.78932 -3.36921 0
M  V30 303 C 28.028 -2.64428 -4.54933 0
M  V30 304 O 27.054 -3.38331 -4.57735 0
M  V30 305 N 28.256 -1.74606 -5.53618 0
M  V30 306 H 31.021 -2.56548 -1.54929 0
M  V30 307 H 28.582 -1.45551 -0.708988 0
M  V30 308 H 30.574 -1.40106 -3.79674 0
M  V30 309 H 29.144 -0.634868 -3.06085 0
M  V30 310 H 28.364 -3.05455 -2.4918 0
M  V30 311 H 29.652 -3.63041 -3.56481 0
M  V30 312 H 29.05 -1.13782 -5.54139 0
M  V30 313 H 27.607 -1.6852 -6.29638 0
M  V30 314 N 31.0401 0.771051 -1.3745 0
M  V30 315 C 32.2681 1.56015 -1.35893 0
M  V30 316 C 32.6831 1.88718 0.0555523 0
M  V30 317 O 32.0401 1.51502 1.01752 0
M  V30 318 C 32.0911 2.87001 -2.19801 0
M  V30 319 O 31.8121 2.557 -3.55738 0
M  V30 320 C 33.3131 3.81228 -2.26231 0
M  V30 321 H 30.5331 0.483317 -0.465453 0
M  V30 322 H 33.0771 0.955611 -1.80799 0
M  V30 323 H 31.2321 3.43877 -1.78402 0
M  V30 324 H 31.6461 3.39584 -3.99729 0
M  V30 325 H 33.1201 4.70139 -2.89263 0
M  V30 326 H 33.5971 4.20409 -1.27093 0
M  V30 327 H 34.2031 3.30281 -2.67945 0
M  V30 328 N 32.5182 1.22032 0.997298 0
M  V30 329 C 33.7642 1.04376 1.73878 0
M  V30 330 C 34.0972 -0.420716 1.89588 0
M  V30 331 O 33.3722 -1.31202 1.43583 0
M  V30 332 C 33.6552 1.75047 3.14691 0
M  V30 333 C 33.5082 3.29062 3.06656 0
M  V30 334 C 34.8272 1.49928 4.13775 0
M  V30 335 H 31.9462 0.380578 0.631133 0
M  V30 336 H 34.5882 1.50312 1.16217 0
M  V30 337 H 32.7382 1.35996 3.63919 0
M  V30 338 H 34.4102 3.7753 2.65083 0
M  V30 339 H 32.6532 3.58967 2.43568 0
M  V30 340 H 33.3242 3.73683 4.06282 0
M  V30 341 H 35.8002 1.83842 3.73285 0
M  V30 342 H 34.6762 2.01878 5.10428 0
M  V30 343 H 34.9372 0.430929 4.39995 0
M  V30 344 N 33.9963 -1.19345 1.0293 0
M  V30 345 C 35.2423 -1.89318 0.727083 0
M  V30 346 C 35.5753 -1.79446 -0.742483 0
M  V30 347 O 34.8503 -1.1871 -1.54072 0
M  V30 348 C 35.1333 -3.40238 1.17942 0
M  V30 349 C 34.9863 -3.58979 2.71024 0
M  V30 350 C 36.3053 -4.33479 0.760548 0
M  V30 351 H 33.4243 -0.687475 0.265606 0
M  V30 352 H 36.0663 -1.40477 1.2793 0
M  V30 353 H 34.2163 -3.81964 0.709608 0
M  V30 354 H 35.8883 -3.26421 3.25955 0
M  V30 355 H 34.1313 -3.02018 3.11396 0
M  V30 356 H 34.8023 -4.64823 2.9773 0
M  V30 357 H 37.2783 -3.99469 1.16464 0
M  V30 358 H 36.1543 -5.37664 1.10493 0
M  V30 359 H 36.4153 -4.40813 -0.337063 0
M  V30 360 N 35.4744 -0.807222 -1.35358 0
M  V30 361 C 36.7024 -0.400377 -2.02989 0
M  V30 362 C 37.1174 0.988859 -1.60832 0
M  V30 363 O 36.4744 1.63729 -0.806175 0
M  V30 364 C 36.5254 -0.474867 -3.58368 0
M  V30 365 O 36.2464 -1.80933 -3.98992 0
M  V30 366 C 37.7474 -0.0609112 -4.43258 0
M  V30 367 H 34.9674 -0.162587 -0.651004 0
M  V30 368 H 37.5114 -1.09102 -1.72965 0
M  V30 369 H 35.6664 0.167534 -3.87038 0
M  V30 370 H 36.0804 -1.77256 -4.9364 0
M  V30 371 H 37.5544 -0.164145 -5.51756 0
M  V30 372 H 38.0314 0.993831 -4.27808 0
M  V30 373 H 38.6374 -0.676492 -4.19885 0
M  V30 374 N 36.9525 1.47285 -0.560781 0
M  V30 375 C 37.8845 2.28118 0.222438 0
M  V30 376 C 38.8975 1.37219 0.876056 0
M  V30 377 O 40.0865 1.62011 0.749307 0
M  V30 378 C 37.1865 3.1159 1.33285 0
M  V30 379 C 36.3595 4.30473 0.77534 0
M  V30 380 C 35.4185 4.95513 1.77069 0
M  V30 381 O 34.4445 5.53792 1.31539 0
M  V30 382 N 35.6465 4.90531 3.10418 0
M  V30 383 H 38.4115 2.95976 -0.470958 0
M  V30 384 H 35.9725 1.56955 -0.39709 0
M  V30 385 H 37.9645 3.51967 1.99752 0
M  V30 386 H 36.5345 2.45951 1.92943 0
M  V30 387 H 35.7545 3.94144 -0.0662113 0
M  V30 388 H 37.0425 5.07362 0.382272 0
M  V30 389 H 36.4405 4.44389 3.5005 0
M  V30 390 H 34.9975 5.34917 3.72434 0
M  V30 391 N 38.4306 0.297415 1.54768 0
M  V30 392 C 39.3406 -0.58983 2.27064 0
M  V30 393 C 40.3566 -1.15144 1.30453 0
M  V30 394 O 41.5326 -1.17699 1.63428 0
M  V30 395 C 38.5976 -1.74714 2.9946 0
M  V30 396 C 37.6586 -1.21997 4.11601 0
M  V30 397 C 36.8916 -2.32212 4.80535 0
M  V30 398 O 37.1146 -3.52036 4.48806 0
M  V30 399 O 36.0486 -1.99106 5.68014 0
M  V30 400 H 39.8746 -0.00348199 3.037 0
M  V30 401 H 37.4596 0.0640035 1.49263 0
M  V30 402 H 39.3416 -2.42147 3.44881 0
M  V30 403 H 38.0166 -2.32016 2.25722 0
M  V30 404 H 36.9236 -0.511458 3.70587 0
M  V30 405 H 38.2566 -0.692419 4.87305 0
M  V30 406 N 39.9087 -1.5758 0.0250728 0
M  V30 407 C 41.3197 -1.79476 -0.514323 0
M  V30 408 C 41.6707 -0.934956 -1.72491 0
M  V30 409 O 40.7957 -0.144245 -2.15919 0
M  V30 410 C 41.3907 -3.25503 -0.939842 0
M  V30 411 C 39.9497 -3.48408 -1.42438 0
M  V30 412 C 39.0967 -2.74583 -0.387201 0
M  V30 413 H 42.0477 -1.567 0.25113 0
M  V30 414 H 42.0687 -3.34992 -1.80445 0
M  V30 415 H 41.5807 -3.88056 -0.0585628 0
M  V30 416 H 39.6817 -2.91103 -2.32572 0
M  V30 417 H 39.7947 -4.57119 -1.43455 0
M  V30 418 H 38.1587 -2.39942 -0.854409 0
M  V30 419 H 38.9417 -3.39849 0.485543 0
M  V30 420 N 41.3868 0.248026 -1.55636 0
M  V30 421 C 42.6118 0.998028 -1.81808 0
M  V30 422 C 43.0368 1.78207 -0.601979 0
M  V30 423 O 42.3948 1.75653 0.448961 0
M  V30 424 C 42.4428 1.9125 -3.05705 0
M  V30 425 O 41.5468 3.00406 -2.82542 0
M  V30 426 H 40.8878 0.284045 -0.600179 0
M  V30 427 H 43.4178 0.269357 -2.02819 0
M  V30 428 H 43.4278 2.32737 -3.35108 0
M  V30 429 H 42.1028 1.33602 -3.93857 0
M  V30 430 H 40.6798 2.63056 -2.64303 0
M  V30 431 N 42.8649 1.48995 0.513639 0
M  V30 432 C 43.7949 1.67636 1.62544 0
M  V30 433 C 44.7759 0.525087 1.61793 0
M  V30 434 O 45.9609 0.759502 1.78732 0
M  V30 435 C 43.0909 1.73114 3.01079 0
M  V30 436 C 42.0449 2.87905 3.16693 0
M  V30 437 C 41.3709 2.78486 4.56453 0
M  V30 438 C 42.6709 4.29005 2.97913 0
M  V30 439 H 44.3649 2.60716 1.47198 0
M  V30 440 H 41.9109 1.25465 0.706714 0
M  V30 441 H 43.8639 1.84742 3.78746 0
M  V30 442 H 42.5879 0.766241 3.17484 0
M  V30 443 H 41.2469 2.75859 2.41448 0
M  V30 444 H 40.8949 1.7993 4.69717 0
M  V30 445 H 40.5949 3.55523 4.67843 0
M  V30 446 H 42.1189 2.92104 5.36197 0
M  V30 447 H 43.5329 4.41798 3.65359 0
M  V30 448 H 41.9299 5.07166 3.20785 0
M  V30 449 H 42.9999 4.44329 1.94165 0
M  V30 450 N 44.343 -0.763751 1.37857 0
M  V30 451 C 45.571 -1.55293 1.36718 0
M  V30 452 C 45.986 -1.88745 -0.0455434 0
M  V30 453 O 45.343 -1.52039 -1.00947 0
M  V30 454 C 45.394 -2.85831 2.2132 0
M  V30 455 O 45.115 -2.5381 3.57089 0
M  V30 456 C 46.616 -3.80023 2.28249 0
M  V30 457 H 43.836 -0.480841 0.468009 0
M  V30 458 H 46.38 -0.946009 1.81303 0
M  V30 459 H 44.535 -3.42926 1.80223 0
M  V30 460 H 44.949 -3.37459 4.01524 0
M  V30 461 H 46.423 -4.68599 2.91752 0
M  V30 462 H 46.9 -4.1973 1.2932 0
M  V30 463 H 47.506 -3.28855 2.69693 0
M  V30 464 N 45.8211 -1.22559 -0.990812 0
M  V30 465 C 47.0671 -1.05297 -1.73322 0
M  V30 466 C 47.4001 0.410655 -1.89808 0
M  V30 467 O 46.6751 1.30439 -1.44277 0
M  V30 468 C 46.9581 -1.76713 -3.13759 0
M  V30 469 C 46.8111 -3.30684 -3.04907 0
M  V30 470 C 48.1301 -1.52121 -4.12974 0
M  V30 471 H 45.2491 -0.38392 -0.629106 0
M  V30 472 H 47.8911 -1.50926 -1.15418 0
M  V30 473 H 46.0411 -1.37924 -3.63193 0
M  V30 474 H 47.7131 -3.7893 -2.63077 0
M  V30 475 H 45.9561 -3.60253 -2.41661 0
M  V30 476 H 46.6271 -3.75833 -4.04294 0
M  V30 477 H 49.1031 -1.85819 -3.72304 0
M  V30 478 H 47.9791 -2.04582 -5.0935 0
M  V30 479 H 48.2401 -0.454257 -4.3976 0
M  V30 480 N 47.2992 1.18797 -1.03562 0
M  V30 481 C 48.5242 1.9314 -0.755764 0
M  V30 482 C 48.9492 1.7537 0.68022 0
M  V30 483 O 48.3072 1.06046 1.47051 0
M  V30 484 C 48.3552 3.42747 -1.12058 0
M  V30 485 O 47.4592 4.11683 -0.243124 0
M  V30 486 H 46.8002 0.602724 -0.278604 0
M  V30 487 H 49.3302 1.50678 -1.3841 0
M  V30 488 H 49.3402 3.93437 -1.08035 0
M  V30 489 H 48.0152 3.55002 -2.16672 0
M  V30 490 H 46.5922 3.71323 -0.342539 0
M  V30 491 N 48.7773 0.814389 1.34928 0
M  V30 492 C 50.1883 0.458364 1.80986 0
M  V30 493 C 50.5393 -1.02042 1.67577 0
M  V30 494 O 49.6643 -1.79352 1.21086 0
M  V30 495 C 50.2593 0.825212 3.28597 0
M  V30 496 C 48.8183 0.521677 3.72767 0
M  V30 497 C 47.9653 1.04668 2.56788 0
M  V30 498 H 50.9163 1.00533 1.22795 0
M  V30 499 H 50.9373 0.12571 3.80292 0
M  V30 500 H 50.4493 1.90154 3.38324 0
M  V30 501 H 48.5503 -0.545589 3.68584 0
M  V30 502 H 48.6633 1.05977 4.67232 0
M  V30 503 H 47.0273 0.468622 2.50352 0
M  V30 504 H 47.8103 2.12927 2.6929 0
M  V30 505 N 50.2554 -1.46986 0.568584 0
M  V30 506 C 51.5034 -2.02041 0.0487022 0
M  V30 507 C 51.8244 -1.44408 -1.31039 0
M  V30 508 O 51.0944 -0.623477 -1.85714 0
M  V30 509 H 49.6744 -0.746849 0.015014 0
M  V30 510 H 52.3364 -1.80257 0.741168 0
M  V30 511 H 51.4324 -3.12085 -0.0308961 0
M  V30 512 N 51.7335 -0.305618 -1.54608 0
M  V30 513 C 52.9815 0.301701 -1.99835 0
M  V30 514 C 53.3025 1.54054 -1.19551 0
M  V30 515 O 52.5725 1.93702 -0.292658 0
M  V30 516 H 51.1525 0.114468 -0.738178 0
M  V30 517 H 53.8145 -0.418016 -1.90364 0
M  V30 518 H 52.9105 0.570548 -3.06841 0
M  V30 519 N 53.2116 1.57565 -0.0334293 0
M  V30 520 C 54.4396 1.9628 0.654347 0
M  V30 521 C 54.8546 0.910138 1.65414 0
M  V30 522 O 54.2116 -0.107595 1.82183 0
M  V30 523 C 54.2626 3.35067 1.35693 0
M  V30 524 O 53.9836 4.36296 0.397191 0
M  V30 525 C 55.4846 3.88439 2.13613 0
M  V30 526 H 52.7046 0.646369 0.180132 0
M  V30 527 H 55.2486 2.04282 -0.0944721 0
M  V30 528 H 53.4036 3.2827 2.05712 0
M  V30 529 H 53.8176 5.1678 0.896597 0
M  V30 530 H 55.2916 4.8788 2.58219 0
M  V30 531 H 55.7686 3.22914 2.97696 0
M  V30 532 H 56.3746 3.98516 1.48543 0
M  V30 533 N 54.6897 -0.239769 1.55765 0
M  V30 534 C 55.9357 -0.968234 1.78194 0
M  V30 535 C 56.2687 -1.84701 0.599938 0
M  V30 536 O 55.5437 -1.9031 -0.401524 0
M  V30 537 C 55.8267 -1.8227 3.10564 0
M  V30 538 C 55.6797 -0.971633 4.3918 0
M  V30 539 C 56.9987 -2.80388 3.39221 0
M  V30 540 H 54.1177 -0.350572 0.648281 0
M  V30 541 H 56.7597 -0.238259 1.885 0
M  V30 542 H 54.9097 -2.44507 3.01908 0
M  V30 543 H 56.5817 -0.367408 4.59835 0
M  V30 544 H 54.8247 -0.276276 4.32919 0
M  V30 545 H 55.4957 -1.60346 5.28198 0
M  V30 546 H 57.9717 -2.28287 3.47885 0
M  V30 547 H 56.8477 -3.3729 4.33044 0
M  V30 548 H 57.1087 -3.57212 2.60484 0
M  V30 549 N 56.1678 -1.49265 -0.50573 0
M  V30 550 C 57.3958 -1.62215 -1.28429 0
M  V30 551 C 57.8108 -0.291697 -1.86533 0
M  V30 552 O 57.1678 0.722233 -1.67601 0
M  V30 553 C 57.2188 -2.68735 -2.41793 0
M  V30 554 O 56.9398 -3.96619 -1.86078 0
M  V30 555 C 58.4408 -2.92346 -3.3324 0
M  V30 556 H 55.6608 -0.546239 -0.389697 0
M  V30 557 H 58.2048 -1.95265 -0.607609 0
M  V30 558 H 56.3598 -2.38476 -3.053 0
M  V30 559 H 56.7738 -4.55256 -2.60465 0
M  V30 560 H 58.2478 -3.70623 -4.09075 0
M  V30 561 H 58.7248 -2.02081 -3.89948 0
M  V30 562 H 59.3308 -3.24003 -2.75503 0
M  V30 563 N 57.6459 0.756429 -1.3826 0
M  V30 564 C 58.5759 1.88374 -1.37976 0
M  V30 565 C 59.5569 1.68311 -0.246082 0
M  V30 566 O 60.7419 1.88944 -0.44874 0
M  V30 567 C 57.8719 3.25864 -1.20125 0
M  V30 568 C 56.8259 3.60523 -2.30666 0
M  V30 569 C 56.1519 4.9672 -1.97923 0
M  V30 570 C 57.4519 3.65692 -3.72916 0
M  V30 571 H 59.1459 1.88869 -2.32312 0
M  V30 572 H 56.6919 0.907272 -1.11824 0
M  V30 573 H 58.6449 4.0438 -1.18552 0
M  V30 574 H 57.3689 3.25841 -0.222498 0
M  V30 575 H 56.0279 2.84324 -2.3142 0
M  V30 576 H 55.6759 4.93253 -0.985393 0
M  V30 577 H 55.3759 5.20878 -2.71955 0
M  V30 578 H 56.8999 5.77618 -1.97964 0
M  V30 579 H 58.3139 4.34328 -3.74208 0
M  V30 580 H 56.7109 4.01358 -4.4613 0
M  V30 581 H 57.7809 2.65987 -4.05436 0
M  V30 582 N 59.124 1.23083 0.984299 0
M  V30 583 C 60.352 1.08714 1.76037 0
M  V30 584 C 60.767 -0.361691 1.85303 0
M  V30 585 O 60.124 -1.25034 1.32939 0
M  V30 586 C 60.175 1.70206 3.18923 0
M  V30 587 O 59.896 3.09423 3.10144 0
M  V30 588 C 61.397 1.61227 4.12941 0
M  V30 589 H 58.617 0.380664 0.552572 0
M  V30 590 H 61.161 1.62853 1.23689 0
M  V30 591 H 59.316 1.20109 3.6831 0
M  V30 592 H 59.73 3.39188 4.00065 0
M  V30 593 H 61.204 2.08962 5.10919 0
M  V30 594 H 61.681 0.570375 4.35481 0
M  V30 595 H 62.287 2.10671 3.69456 0
M  V30 596 N 60.6021 -1.18246 1.0419 0
M  V30 597 C 61.8421 -1.89948 0.754916 0
M  V30 598 C 62.2061 -1.78608 -0.70451 0
M  V30 599 O 63.4071 -2.4503 -1.10516 0
M  V30 600 C 61.6781 -3.36305 1.20969 0
M  V30 601 S 63.2371 -4.26088 1.04854 0
M  V30 602 H 60.0551 -0.655897 0.274446 0
M  V30 603 H 62.6571 -1.42873 1.33445 0
M  V30 604 H 61.3611 -3.42089 2.26722 0
M  V30 605 H 60.8921 -3.8842 0.624004 0
M  V30 606 H 62.9071 -4.96189 -0.0332896 0
M  V30 607 N 62.0802 -0.821533 -1.34494 0
M  V30 608 C 63.0432 -0.247847 -2.27856 0
M  V30 609 C 64.0432 0.573453 -1.50227 0
M  V30 610 O 65.2332 0.389759 -1.69784 0
M  V30 611 C 62.3652 0.652698 -3.34593 0
M  V30 612 H 63.5582 -1.07146 -2.80107 0
M  V30 613 H 61.1112 -0.593291 -1.44602 0
M  V30 614 H 61.8462 1.49943 -2.87555 0
M  V30 615 H 61.6312 0.065292 -3.92046 0
M  V30 616 H 63.1212 1.04793 -4.04238 0
M  V30 617 N 63.5583 1.46682 -0.576371 0
M  V30 618 C 64.7833 2.07304 -0.0630475 0
M  V30 619 C 65.2083 1.42329 1.2298 0
M  V30 620 O 64.5663 0.504865 1.74129 0
M  V30 621 C 64.6143 3.60472 0.095895 0
M  V30 622 O 63.7183 3.95927 1.15394 0
M  V30 623 H 63.0593 0.661288 -0.0599463 0
M  V30 624 H 65.5893 1.88417 -0.797511 0
M  V30 625 H 65.5993 4.06865 0.304071 0
M  V30 626 H 64.2743 4.07157 -0.84828 0
M  V30 627 H 62.8513 3.61252 0.924724 0
M  V30 628 N 65.0364 0.313813 1.54444 0
M  V30 629 C 66.2614 -0.296681 2.05267 0
M  V30 630 C 66.6864 -1.45757 1.18897 0
M  V30 631 O 66.0444 -1.80239 0.195886 0
M  V30 632 C 66.0924 -0.71831 3.53373 0
M  V30 633 O 65.1964 -1.82175 3.69981 0
M  V30 634 H 64.5374 -0.0554061 0.661684 0
M  V30 635 H 67.0674 0.459387 1.99376 0
M  V30 636 H 67.0774 -1.00364 3.95463 0
M  V30 637 H 65.7524 0.130821 4.15694 0
M  V30 638 H 64.3294 -1.53598 3.39797 0
M  V30 639 N 66.5145 -1.57545 0.0417849 0
M  V30 640 C 67.7425 -1.96624 -0.643928 0
M  V30 641 C 68.1575 -0.918897 -1.64929 0
M  V30 642 O 67.5145 0.0979323 -1.82237 0
M  V30 643 C 67.5655 -3.35781 -1.33914 0
M  V30 644 O 67.2865 -4.365 -0.374048 0
M  V30 645 C 68.7875 -3.89566 -2.1155 0
M  V30 646 H 66.0075 -0.647316 -0.176702 0
M  V30 647 H 68.5515 -2.04229 0.105304 0
M  V30 648 H 66.7065 -3.29357 -2.03968 0
M  V30 649 H 67.1205 -5.17248 -0.869179 0
M  V30 650 H 68.5945 -4.89242 -2.55628 0
M  V30 651 H 69.0715 -3.24488 -2.9598 0
M  V30 652 H 69.6775 -3.99298 -1.46427 0
M  V30 653 N 67.9926 0.231505 -1.5589 0
M  V30 654 C 69.2406 0.955461 -1.78088 0
M  V30 655 C 69.5616 1.85262 -0.608533 0
M  V30 656 O 68.8316 1.92277 0.375035 0
M  V30 657 H 67.4116 0.355787 -0.656829 0
M  V30 658 H 70.0736 0.245751 -1.93344 0
M  V30 659 H 69.1696 1.56814 -2.69844 0
M  V30 660 N 69.4707 1.49531 0.497807 0
M  V30 661 C 70.4337 1.65916 1.58128 0
M  V30 662 C 71.4337 0.530825 1.51786 0
M  V30 663 O 72.6237 0.797342 1.54881 0
M  V30 664 C 69.7557 1.65951 2.9778 0
M  V30 665 H 70.9487 2.62556 1.44929 0
M  V30 666 H 68.5017 1.38611 0.722275 0
M  V30 667 H 69.2367 0.709065 3.16453 0
M  V30 668 H 69.0217 2.47897 3.03792 0
M  V30 669 H 70.5117 1.80673 3.76493 0
M  V30 670 N 70.9488 -0.749086 1.3866 0
M  V30 671 C 72.1948 -1.51056 1.35314 0
M  V30 672 C 72.5278 -1.94121 -0.0553751 0
M  V30 673 O 71.8028 -1.65763 -1.01749 0
M  V30 674 C 72.0858 -2.76003 2.31288 0
M  V30 675 C 71.9388 -2.39047 3.8102 0
M  V30 676 C 73.2578 -3.78046 2.2532 0
M  V30 677 H 70.3768 -0.547972 0.492844 0
M  V30 678 H 73.0188 -0.857628 1.69543 0
M  V30 679 H 71.1688 -3.31716 2.02229 0
M  V30 680 H 72.8408 -1.89074 4.20771 0
M  V30 681 H 71.0838 -1.71449 3.98482 0
M  V30 682 H 71.7548 -3.28462 4.4364 0
M  V30 683 H 74.2308 -3.31884 2.50983 0
M  V30 684 H 73.1068 -4.63159 2.94576 0
M  V30 685 H 73.3678 -4.23957 1.25352 0
M  V30 686 N 72.4269 -1.23603 -0.977757 0
M  V30 687 C 73.6549 -1.09646 -1.75458 0
M  V30 688 C 74.0699 0.351859 -1.85492 0
M  V30 689 O 73.4269 1.24327 -1.336 0
M  V30 690 C 73.4779 -1.71895 -3.18016 0
M  V30 691 O 73.1989 -3.11063 -3.08498 0
M  V30 692 C 74.6999 -1.63415 -4.12081 0
M  V30 693 H 71.9199 -0.38359 -0.550545 0
M  V30 694 H 74.4639 -1.63507 -1.22824 0
M  V30 695 H 72.6189 -1.22061 -3.67668 0
M  V30 696 H 73.0329 -3.41305 -3.9826 0
M  V30 697 H 74.5069 -2.11669 -5.09804 0
M  V30 698 H 74.9839 -0.593462 -4.35172 0
M  V30 699 H 75.5899 -2.12628 -3.68334 0
M  V30 700 N 73.905 1.17692 -1.04816 0
M  V30 701 C 75.13 1.92327 -0.776207 0
M  V30 702 C 75.555 1.76082 0.661581 0
M  V30 703 O 74.913 1.076 1.45917 0
M  V30 704 C 74.961 3.41539 -1.15687 0
M  V30 705 O 74.065 4.11402 -0.286775 0
M  V30 706 H 73.406 0.599735 -0.284981 0
M  V30 707 H 75.936 1.49201 -1.4 0
M  V30 708 H 75.946 3.92269 -1.12202 0
M  V30 709 H 74.621 3.52684 -2.20425 0
M  V30 710 H 73.198 3.70939 -0.381903 0
M  V30 711 N 75.3831 0.828654 1.34056 0
M  V30 712 C 76.6311 0.41863 1.97717 0
M  V30 713 C 76.9521 -1.02314 1.66002 0
M  V30 714 O 76.2221 -1.71119 0.953683 0
M  V30 715 H 74.8021 0.151809 0.731412 0
M  V30 716 H 77.4641 1.05936 1.63596 0
M  V30 717 H 76.5601 0.542318 3.07352 0
M  V30 718 N 76.8612 -1.46375 0.584142 0
M  V30 719 C 78.0912 -2.06461 0.0758195 0
M  V30 720 C 78.4992 -1.43322 -1.23512 0
M  V30 721 O 77.8422 -0.533216 -1.75791 0
M  V30 722 C 77.9042 -3.59131 -0.162773 0
M  V30 723 C 77.5682 -4.4447 1.06279 0
M  V30 724 C 78.5652 -4.80918 1.97519 0
M  V30 725 C 76.2502 -4.85584 1.28504 0
M  V30 726 C 78.2442 -5.57309 3.09331 0
M  V30 727 C 75.9312 -5.61734 2.4062 0
M  V30 728 C 76.9292 -5.9751 3.30863 0
M  V30 729 O 76.6172 -6.72121 4.41032 0
M  V30 730 H 76.3492 -0.673745 0.0551725 0
M  V30 731 H 78.9032 -1.88969 0.804984 0
M  V30 732 H 77.1332 -3.74936 -0.946565 0
M  V30 733 H 78.8222 -4.0114 -0.619782 0
M  V30 734 H 79.5882 -4.49732 1.81565 0
M  V30 735 H 75.4672 -4.57187 0.591702 0
M  V30 736 H 79.0112 -5.85152 3.79793 0
M  V30 737 H 74.9082 -5.92334 2.56537 0
M  V30 738 H 75.6762 -6.90547 4.39417 0
M  V30 739 N 78.3393 -0.321999 -1.54275 0
M  V30 740 C 79.5693 0.282642 -2.04658 0
M  V30 741 C 79.9773 1.46453 -1.19784 0
M  V30 742 O 79.3203 1.82367 -0.220932 0
M  V30 743 C 79.3823 0.781857 -3.50895 0
M  V30 744 C 79.0463 -0.277517 -4.56157 0
M  V30 745 C 80.0433 -1.11307 -5.07845 0
M  V30 746 C 77.7283 -0.425256 -5.00497 0
M  V30 747 C 79.7223 -2.08211 -6.02434 0
M  V30 748 C 77.4093 -1.39771 -5.94901 0
M  V30 749 C 78.4073 -2.2246 -6.45756 0
M  V30 750 O 78.0953 -3.18054 -7.38307 0
M  V30 751 H 77.8273 0.0622636 -0.673126 0
M  V30 752 H 80.3813 -0.465792 -2.00049 0
M  V30 753 H 78.6113 1.58118 -3.52896 0
M  V30 754 H 80.3003 1.30467 -3.84361 0
M  V30 755 H 81.0663 -1.00991 -4.74369 0
M  V30 756 H 76.9453 0.20847 -4.60528 0
M  V30 757 H 80.4893 -2.72791 -6.42052 0
M  V30 758 H 76.3863 -1.50152 -6.27794 0
M  V30 759 H 77.1543 -3.13275 -7.56175 0
M  V30 760 N 79.8174 1.5752 -0.0501392 0
M  V30 761 C 81.2284 1.80271 0.485705 0
M  V30 762 C 81.5794 0.96228 1.70981 0
M  V30 763 O 80.7044 0.178578 2.15662 0
M  V30 764 C 81.2994 3.26957 0.887938 0
M  V30 765 C 79.8584 3.5063 1.36877 0
M  V30 766 C 79.0054 2.75165 0.343468 0
M  V30 767 H 81.9564 1.56281 -0.276028 0
M  V30 768 H 81.9774 3.37821 1.75093 0
M  V30 769 H 81.4894 3.881 -0.0031809 0
M  V30 770 H 79.5904 2.94766 2.27911 0
M  V30 771 H 79.7034 4.59343 1.36164 0
M  V30 772 H 78.0674 2.4127 0.816128 0
M  V30 773 H 78.8504 3.39034 -0.539548 0
M  V30 774 N 81.2955 -0.223234 1.56011 0
M  V30 775 C 82.2435 -1.29627 1.93131 0
M  V30 776 C 83.2375 -1.48608 0.813146 0
M  V30 777 O 84.4435 -1.49802 0.997966 0
M  V30 778 H 80.8185 -0.434563 0.613726 0
M  V30 779 H 82.7895 -0.955995 2.82672 0
M  V30 780 C 81.5385 -2.63983 2.26292 0
M  V30 781 H 80.8615 -2.50185 3.11846 0
M  V30 782 H 82.3015 -3.3788 2.56151 0
M  V30 783 C 80.7605 -3.18866 1.08747 0
M  V30 784 O 81.2905 -4.00192 0.347727 0
M  V30 785 N 79.4965 -2.77217 0.871743 0
M  V30 786 H 79.0435 -2.1119 1.47501 0
M  V30 787 H 79.0015 -3.1428 0.0869905 0
M  V30 788 N 82.7736 -1.49793 -0.48987 0
M  V30 789 C 84.0196 -1.61049 -1.24236 0
M  V30 790 C 84.3746 -0.298412 -1.90072 0
M  V30 791 O 83.6676 0.702262 -1.78266 0
M  V30 792 C 83.8616 -2.71488 -2.32441 0
M  V30 793 C 83.6906 -4.13308 -1.77218 0
M  V30 794 C 82.4606 -4.79955 -1.58023 0
M  V30 795 C 84.6586 -4.98176 -1.27772 0
M  V30 796 N 82.6406 -6.06052 -0.978465 0
M  V30 797 C 84.0116 -6.14843 -0.798 0
M  V30 798 C 86.0666 -4.84091 -1.16449 0
M  V30 799 C 84.7696 -7.18975 -0.216245 0
M  V30 800 C 86.7956 -5.88382 -0.596698 0
M  V30 801 C 86.1576 -7.04285 -0.127262 0
M  V30 802 H 82.2566 -0.643611 -0.444172 0
M  V30 803 H 84.8406 -1.86842 -0.54754 0
M  V30 804 H 83.0116 -2.47449 -2.99372 0
M  V30 805 H 84.7436 -2.72205 -2.99477 0
M  V30 806 H 81.4986 -4.36936 -1.82712 0
M  V30 807 H 81.9226 -6.73407 -0.696534 0
M  V30 808 H 86.5646 -3.94786 -1.5134 0
M  V30 809 H 84.2826 -8.0797 0.144903 0
M  V30 810 H 87.8686 -5.79545 -0.511716 0
M  V30 811 H 86.7486 -7.83606 0.30523 0
M  V30 812 N 84.2517 0.741722 -1.39055 0
M  V30 813 C 85.4987 1.50114 -1.35912 0
M  V30 814 C 85.8267 1.94443 0.0470937 0
M  V30 815 O 85.0817 1.66612 1.02659 0
M  V30 816 C 85.3807 2.7592 -2.27163 0
M  V30 817 C 85.0467 2.50493 -3.74919 0
M  V30 818 C 83.7087 2.43267 -4.1518 0
M  V30 819 C 86.0607 2.28585 -4.684 0
M  V30 820 C 83.3887 2.12166 -5.46994 0
M  V30 821 C 85.7407 1.99002 -6.00484 0
M  V30 822 C 84.4047 1.90241 -6.39816 0
M  V30 823 H 83.6747 0.549306 -0.497336 0
M  V30 824 H 86.3217 0.851896 -1.71508 0
M  V30 825 H 84.6267 3.45553 -1.84663 0
M  V30 826 H 86.3237 3.33923 -2.22028 0
M  V30 827 H 82.9137 2.56992 -3.43006 0
M  V30 828 H 87.0977 2.33139 -4.38132 0
M  V30 829 H 82.3537 2.03901 -5.76398 0
M  V30 830 H 86.5277 1.81057 -6.72452 0
M  V30 831 H 84.1547 1.65907 -7.41875 0
M  V30 832 N 85.7298 1.2412 0.971189 0
M  V30 833 C 86.6618 0.988349 2.06795 0
M  V30 834 C 87.6748 -0.0409541 1.62748 0
M  V30 835 O 88.8638 0.195673 1.77424 0
M  V30 836 C 85.9638 0.469023 3.35639 0
M  V30 837 C 85.1368 1.56065 4.08611 0
M  V30 838 C 84.1958 1.04458 5.15728 0
M  V30 839 O 83.2218 1.73553 5.42096 0
M  V30 840 N 84.4238 -0.122817 5.8037 0
M  V30 841 H 87.1888 1.93265 2.29061 0
M  V30 842 H 84.7498 1.15102 1.13856 0
M  V30 843 H 86.7418 0.108613 4.04554 0
M  V30 844 H 85.3118 -0.380919 3.1027 0
M  V30 845 H 84.5318 2.09341 3.34021 0
M  V30 846 H 85.8198 2.29449 4.54126 0
M  V30 847 H 85.2178 -0.700563 5.61345 0
M  V30 848 H 83.7748 -0.424404 6.50417 0
M  V30 849 N 87.2079 -1.17134 1.05439 0
M  V30 850 C 88.1399 -2.2078 0.615539 0
M  V30 851 C 89.1529 -1.59584 -0.322001 0
M  V30 852 O 90.3419 -1.78133 -0.114344 0
M  V30 853 C 87.4419 -3.38691 -0.118938 0
M  V30 854 C 86.6149 -4.29454 0.829924 0
M  V30 855 C 85.6739 -5.26024 0.136258 0
M  V30 856 O 84.6999 -5.63952 0.77115 0
M  V30 857 N 85.9019 -5.69487 -1.1254 0
M  V30 858 H 88.6669 -2.59052 1.50705 0
M  V30 859 H 86.2279 -1.32058 0.936603 0
M  V30 860 H 88.2199 -4.00329 -0.593179 0
M  V30 861 H 86.7899 -2.98996 -0.91215 0
M  V30 862 H 86.0099 -3.65211 1.48373 0
M  V30 863 H 87.2979 -4.86984 1.47392 0
M  V30 864 H 86.6959 -5.4075 -1.6615 0
M  V30 865 H 85.2529 -6.33257 -1.54366 0
M  V30 866 N 88.686 -0.835752 -1.33615 0
M  V30 867 C 89.633 -0.26473 -2.29277 0
M  V30 868 C 90.603 0.617712 -1.54187 0
M  V30 869 O 91.788 0.556641 -1.825 0
M  V30 870 C 88.928 0.556777 -3.40579 0
M  V30 871 C 88.041 -0.349339 -4.30585 0
M  V30 872 C 87.176 0.482969 -5.29 0
M  V30 873 C 86.215 -0.421732 -6.10645 0
M  V30 874 N 85.352 0.372262 -7.01112 0
M  V30 875 H 90.192 -1.08582 -2.77514 0
M  V30 876 H 87.729 -0.546927 -1.36554 0
M  V30 877 H 89.687 1.04852 -4.03809 0
M  V30 878 H 88.317 1.34286 -2.93542 0
M  V30 879 H 87.369 -0.959372 -3.68104 0
M  V30 880 H 88.681 -1.04445 -4.87742 0
M  V30 881 H 87.835 1.03866 -5.97743 0
M  V30 882 H 86.574 1.21153 -4.72412 0
M  V30 883 H 85.579 -0.989464 -5.40823 0
M  V30 884 H 86.804 -1.14861 -6.69316 0
M  V30 885 H 84.75 1.08426 -6.46977 0
M  V30 886 H 84.667 -0.264198 -7.55538 0
M  V30 887 H 85.935 0.910293 -7.74167 0
M  V30 888 N 90.1641 1.46063 -0.591896 0
M  V30 889 C 91.5751 1.85944 -0.167822 0
M  V30 890 C 91.9261 1.49429 1.27143 0
M  V30 891 O 91.0511 0.913515 1.96173 0
M  V30 892 C 91.6461 3.37489 -0.297794 0
M  V30 893 C 90.2051 3.76332 0.0714732 0
M  V30 894 C 89.3521 2.7006 -0.629509 0
M  V30 895 H 92.3031 1.37087 -0.799555 0
M  V30 896 H 92.3241 3.77532 0.474349 0
M  V30 897 H 91.8361 3.64034 -1.3454 0
M  V30 898 H 89.9371 3.55405 1.11886 0
M  V30 899 H 90.0501 4.78088 -0.311245 0
M  V30 900 H 88.4141 2.54607 -0.0687867 0
M  V30 901 H 89.1971 2.99444 -1.67894 0
M  V30 902 N 91.6422 0.330177 1.54103 0
M  V30 903 C 92.8902 -0.269871 2.0029 0
M  V30 904 C 93.2112 -1.52133 1.21986 0
M  V30 905 O 92.4812 -1.93212 0.323438 0
M  V30 906 H 91.0612 -0.10271 0.739905 0
M  V30 907 H 93.7232 0.448249 1.89675 0
M  V30 908 H 92.8192 -0.52166 3.07709 0
M  V30 909 N 93.1203 -1.57491 0.0584922 0
M  V30 910 C 94.0523 -2.08916 -0.942694 0
M  V30 911 C 95.0653 -1.0185 -1.27006 0
M  V30 912 O 96.2543 -1.29398 -1.22957 0
M  V30 913 C 93.3543 -2.52341 -2.26224 0
M  V30 914 C 92.5273 -3.82827 -2.1157 0
M  V30 915 C 91.5863 -4.12487 -3.26712 0
M  V30 916 O 90.6123 -4.82295 -3.02292 0
M  V30 917 N 91.8143 -3.64978 -4.5141 0
M  V30 918 H 94.5793 -2.95437 -0.503722 0
M  V30 919 H 92.1403 -1.61397 -0.12757 0
M  V30 920 H 94.1323 -2.69254 -3.02133 0
M  V30 921 H 92.7023 -1.7103 -2.61663 0
M  V30 922 H 91.9223 -3.75425 -1.20208 0
M  V30 923 H 93.2103 -4.68263 -1.99015 0
M  V30 924 H 92.6083 -3.08558 -4.7414 0
M  V30 925 H 91.1653 -3.87115 -5.2439 0
M  V30 926 N 94.5984 0.214957 -1.56127 0
M  V30 927 C 95.5614 1.24997 -1.92116 0
M  V30 928 C 96.5614 1.39467 -0.800344 0
M  V30 929 O 97.7514 1.37619 -1.06802 0
M  V30 930 C 94.8834 2.62271 -2.17777 0
M  V30 931 H 96.0764 0.942875 -2.84693 0
M  V30 932 H 93.6294 0.455654 -1.49511 0
M  V30 933 H 94.3644 2.98068 -1.27773 0
M  V30 934 H 94.1494 2.53143 -2.99434 0
M  V30 935 H 95.6394 3.36946 -2.46693 0
M  V30 936 N 96.0765 1.50051 0.48192 0
M  V30 937 C 97.4875 1.5348 1.06305 0
M  V30 938 C 97.8385 0.331997 1.93371 0
M  V30 939 O 96.9635 -0.556256 2.09129 0
M  V30 940 C 97.5585 2.7813 1.93466 0
M  V30 941 C 96.1175 2.84275 2.46707 0
M  V30 942 C 95.2645 2.47637 1.24785 0
M  V30 943 H 98.2155 1.56472 0.264995 0
M  V30 944 H 98.2365 2.59372 2.78399 0
M  V30 945 H 97.7485 3.65654 1.30072 0
M  V30 946 H 95.8495 2.01077 3.13686 0
M  V30 947 H 95.9625 3.8691 2.82555 0
M  V30 948 H 94.3265 1.99835 1.57918 0
M  V30 949 H 95.1095 3.37457 0.630694 0
M  V30 950 N 97.5546 -0.734337 1.39446 0
M  V30 951 C 98.9706 -1.03997 1.21065 0
M  V30 952 C 99.1706 -2.01369 0.0727019 0
M  V30 953 O 98.2266 -2.45856 -0.575426 0
M  V30 954 C 99.5396 -1.60163 2.54496 0
M  V30 955 C 101.088 -1.7224 2.61347 0
M  V30 956 C 101.563 -2.31814 3.95002 0
M  V30 957 N 103.054 -2.39223 3.96644 0
M  V30 958 C 103.789 -2.86258 4.96834 0
M  V30 959 N 103.285 -3.33184 6.07421 0
M  V30 960 N 105.078 -2.85473 4.84213 0
M  V30 961 H 97.2286 -0.0885624 2.12215 0
M  V30 962 H 99.4916 -0.10191 0.942506 0
M  V30 963 H 99.1976 -0.960811 3.38321 0
M  V30 964 H 99.0716 -2.5896 2.74262 0
M  V30 965 H 101.459 -2.35443 1.77906 0
M  V30 966 H 101.54 -0.720939 2.4543 0
M  V30 967 H 101.184 -1.69238 4.78875 0
M  V30 968 H 101.114 -3.32638 4.08239 0
M  V30 969 H 103.605 -2.06057 3.16779 0
M  V30 970 H 103.918 -3.67586 6.7978 0
M  V30 971 H 102.263 -3.31191 6.11013 0
M  V30 972 H 105.454 -2.48136 3.96921 0
M  V30 973 H 105.627 -3.21814 5.62441 0
M  V30 974 N 99.0327 -1.24633 -0.964593 0
M  V30 975 C 99.9957 -1.0424 -2.04124 0
M  V30 976 C 100.996 0.00137563 -1.608 0
M  V30 977 O 102.186 -0.239883 -1.7254 0
M  V30 978 C 99.3177 -0.580588 -3.3592 0
M  V30 979 H 100.511 -1.99803 -2.23649 0
M  V30 980 H 98.0637 -1.06899 -1.14027 0
M  V30 981 H 98.7987 0.3781 -3.22088 0
M  V30 982 H 98.5837 -1.33398 -3.6871 0
M  V30 983 H 100.074 -0.459034 -4.15069 0
M  V30 984 N 100.511 1.16574 -1.06058 0
M  V30 985 C 101.441 2.23057 -0.690488 0
M  V30 986 C 102.422 1.67141 0.315901 0
M  V30 987 O 103.607 1.93253 0.191556 0
M  V30 988 C 100.737 3.47222 -0.073625 0
M  V30 989 C 99.6908 4.16016 -1.00573 0
M  V30 990 C 99.0168 5.34104 -0.252289 0
M  V30 991 C 100.317 4.67264 -2.33371 0
M  V30 992 H 102.011 2.54271 -1.58072 0
M  V30 993 H 99.5568 1.22218 -0.76149 0
M  V30 994 H 101.51 4.20939 0.19714 0
M  V30 995 H 100.234 3.15302 0.85161 0
M  V30 996 H 98.8928 3.44223 -1.2612 0
M  V30 997 H 98.5408 4.98437 0.675988 0
M  V30 998 H 98.2408 5.81072 -0.873455 0
M  V30 999 H 99.7648 6.10599 0.0109857 0
M  V30 1000 H 101.179 5.32573 -2.12223 0
M  V30 1001 H 99.5758 5.24843 -2.90963 0
M  V30 1002 H 100.646 3.83602 -2.96611 0
M  V30 1003 N 101.989 0.842826 1.3317 0
M  V30 1004 C 103.238 0.436738 1.96915 0
M  V30 1005 C 103.551 -1.01025 1.67491 0
M  V30 1006 O 104.757 -1.5212 2.24881 0
M  V30 1007 C 103.213 0.730021 3.52418 0
M  V30 1008 C 102.821 2.19195 3.90714 0
M  V30 1009 C 104.565 0.391076 4.22695 0
M  V30 1010 C 102.472 2.42907 5.39212 0
M  V30 1011 H 101.402 0.15958 0.736919 0
M  V30 1012 H 104.053 1.03196 1.51733 0
M  V30 1013 H 102.435 0.0643755 3.95948 0
M  V30 1014 H 103.609 2.8984 3.58231 0
M  V30 1015 H 101.924 2.49425 3.33431 0
M  V30 1016 H 104.521 0.545817 5.31907 0
M  V30 1017 H 104.864 -0.666294 4.10933 0
M  V30 1018 H 105.397 1.01212 3.84709 0
M  V30 1019 H 102.136 3.47224 5.55982 0
M  V30 1020 H 101.656 1.76827 5.73142 0
M  V30 1021 H 103.335 2.2626 6.06148 0
M  V30 1022 N 103.467 -1.45747 0.599634 0
M  V30 1023 C 104.697 -2.06369 0.0977132 0
M  V30 1024 C 105.105 -1.44624 -1.21985 0
M  V30 1025 O 104.448 -0.551831 -1.75216 0
M  V30 1026 C 104.51 -3.59284 -0.124673 0
M  V30 1027 C 104.174 -4.43318 1.10987 0
M  V30 1028 C 105.171 -4.78796 2.02609 0
M  V30 1029 C 102.856 -4.84194 1.33647 0
M  V30 1030 C 104.85 -5.53997 3.15224 0
M  V30 1031 C 102.537 -5.5915 2.46565 0
M  V30 1032 C 103.535 -5.93968 3.37182 0
M  V30 1033 O 103.223 -6.67405 4.48136 0
M  V30 1034 H 102.955 -0.673122 0.0623153 0
M  V30 1035 H 105.509 -1.88104 0.824981 0
M  V30 1036 H 103.739 -3.75919 -0.906745 0
M  V30 1037 H 105.428 -4.01775 -0.577201 0
M  V30 1038 H 106.194 -4.47781 1.86325 0
M  V30 1039 H 102.073 -4.56534 0.64016 0
M  V30 1040 H 105.617 -5.81091 3.85978 0
M  V30 1041 H 101.514 -5.89579 2.62805 0
M  V30 1042 H 102.282 -6.85847 4.46717 0
M  V30 1043 N 104.945 -0.338344 -1.53925 0
M  V30 1044 C 106.17 0.263987 -2.05713 0
M  V30 1045 C 106.595 1.43847 -1.21201 0
M  V30 1046 O 105.953 1.79904 -0.224535 0
M  V30 1047 C 106.001 0.662 -3.54471 0
M  V30 1048 O 105.105 1.76265 -3.72833 0
M  V30 1049 H 104.446 0.0448722 -0.662482 0
M  V30 1050 H 106.976 -0.491048 -1.9862 0
M  V30 1051 H 106.986 0.940594 -3.9701 0
M  V30 1052 H 105.661 -0.196937 -4.15433 0
M  V30 1053 H 104.238 1.48173 -3.42198 0
M  V30 1054 N 106.423 1.57458 -0.0668435 0
M  V30 1055 C 107.651 1.97624 0.612565 0
M  V30 1056 C 108.066 0.94502 1.63447 0
M  V30 1057 O 107.423 -0.0689276 1.8237 0
M  V30 1058 C 107.474 3.37869 1.28555 0
M  V30 1059 O 107.195 4.3704 0.304557 0
M  V30 1060 C 108.696 3.92882 2.05325 0
M  V30 1061 H 105.916 0.650045 0.166381 0
M  V30 1062 H 108.46 2.04035 -0.137782 0
M  V30 1063 H 106.615 3.3256 1.98702 0
M  V30 1064 H 107.029 5.18565 0.786779 0
M  V30 1065 H 108.503 4.93247 2.47812 0
M  V30 1066 H 108.98 3.29156 2.9078 0
M  V30 1067 H 109.586 4.01577 1.40056 0
M  V30 1068 N 107.901 -0.206675 1.56239 0
M  V30 1069 C 109.126 -0.949474 1.8439 0
M  V30 1070 C 109.551 -1.76549 0.649016 0
M  V30 1071 O 108.909 -1.76782 -0.402231 0
M  V30 1072 C 108.957 -1.83078 3.10668 0
M  V30 1073 O 108.061 -2.9281 2.90407 0
M  V30 1074 H 107.402 -0.268033 0.607499 0
M  V30 1075 H 109.932 -0.215488 2.03462 0
M  V30 1076 H 109.942 -2.2377 3.41161 0
M  V30 1077 H 108.617 -1.23112 3.97261 0
M  V30 1078 H 107.194 -2.55956 2.71184 0
M  V30 1079 N 109.379 -1.50304 -0.473955 0
M  V30 1080 C 110.327 -1.69482 -1.59307 0
M  V30 1081 C 111.321 -0.560669 -1.59853 0
M  V30 1082 O 112.527 -0.741087 -1.64036 0
M  V30 1083 H 108.902 -0.534892 -0.528578 0
M  V30 1084 H 110.873 -2.63364 -1.40293 0
M  V30 1085 C 109.622 -1.80354 -2.97267 0
M  V30 1086 H 108.945 -2.67012 -2.97564 0
M  V30 1087 H 110.385 -1.97798 -3.75036 0
M  V30 1088 C 108.844 -0.55448 -3.32306 0
M  V30 1089 O 109.374 0.307661 -4.0052 0
M  V30 1090 N 107.58 -0.409354 -2.87702 0
M  V30 1091 H 107.127 -1.11196 -2.32364 0
M  V30 1092 H 107.085 0.425223 -3.11511 0
M  V30 1093 N 110.857 0.726932 -1.39834 0
M  V30 1094 C 111.804 1.841 -1.39197 0
M  V30 1095 C 112.774 1.642 -0.250502 0
M  V30 1096 O 113.959 1.85494 -0.446846 0
M  V30 1097 C 111.099 3.21697 -1.24919 0
M  V30 1098 C 110.212 3.53247 -2.48678 0
M  V30 1099 C 109.347 4.80289 -2.26928 0
M  V30 1100 C 108.386 5.04707 -3.4632 0
M  V30 1101 N 107.523 6.22956 -3.23836 0
M  V30 1102 H 112.363 1.83979 -2.34427 0
M  V30 1103 H 109.9 0.898876 -1.16442 0
M  V30 1104 H 111.858 4.01137 -1.1465 0
M  V30 1105 H 110.488 3.21076 -0.333153 0
M  V30 1106 H 109.54 2.68447 -2.69519 0
M  V30 1107 H 110.852 3.67205 -3.37582 0
M  V30 1108 H 110.006 5.67725 -2.13947 0
M  V30 1109 H 108.745 4.68519 -1.35431 0
M  V30 1110 H 107.75 4.1573 -3.5979 0
M  V30 1111 H 108.975 5.18357 -4.38729 0
M  V30 1112 H 106.921 6.12459 -2.35011 0
M  V30 1113 H 106.838 6.37539 -4.063 0
M  V30 1114 H 108.106 7.1321 -3.14566 0
M  V30 1115 N 112.336 1.25143 0.95797 0
M  V30 1116 C 113.286 1.01924 2.0395 0
M  V30 1117 C 114.27 -0.0427175 1.60843 0
M  V30 1118 O 115.462 0.17221 1.7616 0
M  V30 1119 C 112.591 0.636373 3.3735 0
M  V30 1120 C 111.677 1.73492 3.8699 0
M  V30 1121 N 112.068 2.96945 4.0946 0
M  V30 1122 C 110.366 1.61467 4.15746 0
M  V30 1123 C 111.067 3.68228 4.50315 0
M  V30 1124 N 110.043 2.95833 4.56053 0
M  V30 1125 H 113.845 1.95653 2.19311 0
M  V30 1126 H 111.359 1.15413 1.14253 0
M  V30 1127 H 113.356 0.451233 4.14451 0
M  V30 1128 H 112.016 -0.293621 3.2337 0
M  V30 1129 H 113.027 3.33025 3.96629 0
M  V30 1130 H 109.704 0.753394 4.10646 0
M  V30 1131 H 111.094 4.74178 4.76031 0
M  V30 1132 N 113.814 -1.1601 1.06675 0
M  V30 1133 C 115.039 -1.91068 0.806706 0
M  V30 1134 C 115.464 -1.77112 -0.633485 0
M  V30 1135 O 114.822 -1.09908 -1.44187 0
M  V30 1136 C 114.87 -3.39655 1.21106 0
M  V30 1137 O 113.974 -4.10893 0.352189 0
M  V30 1138 H 113.315 -0.595125 0.294486 0
M  V30 1139 H 115.845 -1.46955 1.42356 0
M  V30 1140 H 115.855 -3.90434 1.18428 0
M  V30 1141 H 114.53 -3.49132 2.26008 0
M  V30 1142 H 113.107 -3.70285 0.440868 0
M  V30 1143 N 115.292 -0.849877 -1.32721 0
M  V30 1144 C 116.538 -0.460855 -1.9811 0
M  V30 1145 C 116.893 0.971716 -1.66059 0
M  V30 1146 O 116.186 1.67184 -0.935944 0
M  V30 1147 C 116.38 -0.631272 -3.51781 0
M  V30 1148 C 116.209 -2.07886 -3.98765 0
M  V30 1149 C 114.979 -2.71637 -4.26077 0
M  V30 1150 C 117.177 -3.04889 -4.14182 0
M  V30 1151 N 115.159 -4.07356 -4.59276 0
M  V30 1152 C 116.53 -4.25583 -4.50865 0
M  V30 1153 C 118.585 -3.01148 -3.96503 0
M  V30 1154 C 117.288 -5.43027 -4.71714 0
M  V30 1155 C 119.314 -4.17832 -4.18533 0
M  V30 1156 C 118.676 -5.37284 -4.55528 0
M  V30 1157 H 114.775 -0.217283 -0.751207 0
M  V30 1158 H 117.359 -1.10026 -1.60631 0
M  V30 1159 H 115.53 -0.0215966 -3.88394 0
M  V30 1160 H 117.262 -0.212614 -4.04141 0
M  V30 1161 H 114.017 -2.22705 -4.17971 0
M  V30 1162 H 114.441 -4.77351 -4.80068 0
M  V30 1163 H 119.083 -2.0992 -3.67006 0
M  V30 1164 H 116.801 -6.34791 -5.00066 0
M  V30 1165 H 120.387 -4.16368 -4.06361 0
M  V30 1166 H 119.267 -6.26071 -4.72234 0
M  V30 1167 N 116.77 1.45427 -0.607355 0
M  V30 1168 C 117.998 2.06614 -0.108814 0
M  V30 1169 C 118.413 1.45204 1.2067 0
M  V30 1170 O 117.77 0.566132 1.73497 0
M  V30 1171 C 117.821 3.61481 0.0375347 0
M  V30 1172 O 117.542 4.20598 -1.22593 0
M  V30 1173 C 119.043 4.39652 0.567561 0
M  V30 1174 H 116.263 0.66747 -0.0687351 0
M  V30 1175 H 118.807 1.86675 -0.835022 0
M  V30 1176 H 116.962 3.80762 0.714068 0
M  V30 1177 H 117.376 5.1377 -1.05547 0
M  V30 1178 H 118.85 5.48518 0.61905 0
M  V30 1179 H 119.327 4.09417 1.58978 0
M  V30 1180 H 119.933 4.25234 -0.0749202 0
M  V30 1181 N 118.248 0.346503 1.53744 0
M  V30 1182 C 119.659 -0.136779 1.86198 0
M  V30 1183 C 120.01 -1.49749 1.26766 0
M  V30 1184 O 119.135 -2.08417 0.582355 0
M  V30 1185 C 119.73 -0.254966 3.37839 0
M  V30 1186 C 118.289 -0.682482 3.70161 0
M  V30 1187 C 117.436 0.181981 2.76702 0
M  V30 1188 H 120.387 0.565994 1.48264 0
M  V30 1189 H 120.408 -1.08195 3.64793 0
M  V30 1190 H 119.92 0.735526 3.81066 0
M  V30 1191 H 118.021 -1.68189 3.3248 0
M  V30 1192 H 118.134 -0.470326 4.76786 0
M  V30 1193 H 116.498 -0.34615 2.52337 0
M  V30 1194 H 117.281 1.16966 3.2276 0
M  V30 1195 N 119.726 -1.57421 0.075193 0
M  V30 1196 C 120.689 -2.11791 -0.876203 0
M  V30 1197 C 121.689 -1.04268 -1.22412 0
M  V30 1198 O 122.879 -1.30242 -1.15684 0
M  V30 1199 C 120.011 -2.62207 -2.17854 0
M  V30 1200 H 121.204 -2.9716 -0.40444 0
M  V30 1201 H 118.757 -1.55333 -0.173557 0
M  V30 1202 H 119.492 -1.803 -2.6956 0
M  V30 1203 H 119.277 -3.40802 -1.93897 0
M  V30 1204 H 120.767 -3.04335 -2.85955 0
M  V30 1205 N 121.204 0.198386 -1.56346 0
M  V30 1206 C 122.62 0.549085 -1.49857 0
M  V30 1207 C 122.82 1.86016 -0.774611 0
M  V30 1208 O 121.876 2.50416 -0.323776 0
M  V30 1209 C 123.189 0.606868 -2.94512 0
M  V30 1210 C 124.737 0.695925 -3.05165 0
M  V30 1211 C 125.212 0.784848 -4.51225 0
M  V30 1212 N 126.703 0.848463 -4.55363 0
M  V30 1213 C 127.438 0.937378 -5.65686 0
M  V30 1214 N 126.934 0.9888 -6.85707 0
M  V30 1215 N 128.727 0.974312 -5.53592 0
M  V30 1216 H 120.878 -0.661655 -2.01831 0
M  V30 1217 H 123.141 -0.235261 -0.918344 0
M  V30 1218 H 122.847 -0.28732 -3.50524 0
M  V30 1219 H 122.721 1.46268 -3.47686 0
M  V30 1220 H 125.108 1.58055 -2.49204 0
M  V30 1221 H 125.189 -0.186022 -2.55123 0
M  V30 1222 H 124.833 -0.0954072 -5.0781 0
M  V30 1223 H 124.763 1.68255 -4.98997 0
M  V30 1224 H 127.254 0.818103 -3.68938 0
M  V30 1225 H 127.567 1.05707 -7.65536 0
M  V30 1226 H 125.912 0.957534 -6.88372 0
M  V30 1227 H 129.103 0.930954 -4.58749 0
M  V30 1228 H 129.276 1.04015 -6.39597 0
M  V30 1229 N 122.682 1.50554 0.465978 0
M  V30 1230 C 123.929 1.61798 1.21768 0
M  V30 1231 C 124.257 0.320696 1.91838 0
M  V30 1232 O 123.512 -0.693724 1.82992 0
M  V30 1233 C 123.811 2.75152 2.28093 0
M  V30 1234 C 123.477 4.15454 1.75239 0
M  V30 1235 C 122.139 4.53628 1.60546 0
M  V30 1236 C 124.491 5.03121 1.36083 0
M  V30 1237 C 121.819 5.77204 1.05128 0
M  V30 1238 C 124.171 6.27249 0.821056 0
M  V30 1239 C 122.835 6.64221 0.660795 0
M  V30 1240 H 122.105 0.592063 0.445582 0
M  V30 1241 H 124.752 1.84503 0.512927 0
M  V30 1242 H 123.057 2.46556 3.04496 0
M  V30 1243 H 124.754 2.81055 2.86023 0
M  V30 1244 H 121.344 3.85341 1.87644 0
M  V30 1245 H 125.528 4.74257 1.46267 0
M  V30 1246 H 120.784 6.0452 0.91462 0
M  V30 1247 H 124.958 6.94537 0.509018 0
M  V30 1248 H 122.585 7.59854 0.229226 0
M  V30 1249 N 124.16 -0.719506 1.40217 0
M  V30 1250 C 125.385 -1.51371 1.4178 0
M  V30 1251 C 125.81 -1.88091 0.0182355 0
M  V30 1252 O 125.168 -1.52997 -0.972707 0
M  V30 1253 C 125.216 -2.768 2.31115 0
M  V30 1254 O 124.32 -3.73349 1.7517 0
M  V30 1255 H 123.661 -0.456529 0.482159 0
M  V30 1256 H 126.191 -0.88644 1.844 0
M  V30 1257 H 126.201 -3.25371 2.46167 0
M  V30 1258 H 124.876 -2.49407 3.3282 0
M  V30 1259 H 123.453 -3.32179 1.69444 0
M  V30 1260 N 125.638 -1.25649 -0.95132 0
M  V30 1261 C 126.886 -1.10375 -1.69298 0
M  V30 1262 C 127.207 0.355339 -1.91735 0
M  V30 1263 O 126.477 1.25188 -1.50681 0
M  V30 1264 H 125.057 -0.405461 -0.627384 0
M  V30 1265 H 127.719 -1.57823 -1.14358 0
M  V30 1266 H 126.815 -1.61465 -2.67087 0
M  V30 1267 N 127.117 1.15442 -1.07289 0
M  V30 1268 C 128.342 1.90638 -0.816828 0
M  V30 1269 C 128.767 1.77445 0.624083 0
M  V30 1270 O 128.125 1.10671 1.43602 0
M  V30 1271 C 128.173 3.39008 -1.22906 0
M  V30 1272 O 127.277 4.10701 -0.373975 0
M  V30 1273 H 126.618 0.593555 -0.297638 0
M  V30 1274 H 129.148 1.46198 -1.43134 0
M  V30 1275 H 129.158 3.89801 -1.20497 0
M  V30 1276 H 127.833 3.47929 -2.27856 0
M  V30 1277 H 126.41 3.70046 -0.460499 0
M  V30 1278 N 128.595 0.856903 1.32268 0
M  V30 1279 C 129.525 0.31858 2.31316 0
M  V30 1280 C 130.506 -0.583487 1.59779 0
M  V30 1281 O 131.691 -0.503259 1.87566 0
M  V30 1282 C 128.821 -0.491979 3.43798 0
M  V30 1283 C 127.775 0.315849 4.26833 0
M  V30 1284 C 127.101 -0.619586 5.31098 0
M  V30 1285 C 128.401 1.54282 4.98993 0
M  V30 1286 H 130.095 1.14621 2.76591 0
M  V30 1287 H 127.641 0.552613 1.32974 0
M  V30 1288 H 129.594 -0.879012 4.1213 0
M  V30 1289 H 128.318 -1.35299 2.97257 0
M  V30 1290 H 126.977 0.684664 3.6015 0
M  V30 1291 H 126.625 -1.47751 4.8081 0
M  V30 1292 H 126.325 -0.0830621 5.87541 0
M  V30 1293 H 127.849 -1.00375 6.02293 0
M  V30 1294 H 129.263 1.22796 5.59995 0
M  V30 1295 H 127.66 2.01745 5.65172 0
M  V30 1296 H 128.73 2.30285 4.26728 0
M  V30 1297 N 130.073 -1.45103 0.615059 0
M  V30 1298 C 131.003 -2.33339 -0.0865619 0
M  V30 1299 C 131.984 -1.4727 -0.851209 0
M  V30 1300 O 133.169 -1.76026 -0.820281 0
M  V30 1301 C 130.299 -3.30095 -1.07956 0
M  V30 1302 C 129.253 -4.25858 -0.427628 0
M  V30 1303 C 128.579 -5.12361 -1.5294 0
M  V30 1304 C 129.879 -5.18165 0.655944 0
M  V30 1305 H 131.573 -2.92254 0.650224 0
M  V30 1306 H 129.119 -1.40532 0.314138 0
M  V30 1307 H 131.072 -3.90698 -1.57901 0
M  V30 1308 H 129.796 -2.69355 -1.84703 0
M  V30 1309 H 128.455 -3.66564 0.0510292 0
M  V30 1310 H 128.103 -4.47984 -2.28734 0
M  V30 1311 H 127.803 -5.77238 -1.09865 0
M  V30 1312 H 129.327 -5.75833 -2.03098 0
M  V30 1313 H 130.741 -5.72796 0.240257 0
M  V30 1314 H 129.138 -5.91559 1.00888 0
M  V30 1315 H 130.208 -4.60144 1.52957 0
M  V30 1316 N 131.551 -0.354651 -1.53558 0
M  V30 1317 C 132.799 0.237972 -2.00694 0
M  V30 1318 C 133.12 1.50173 -1.24391 0
M  V30 1319 O 132.39 1.92673 -0.354135 0
M  V30 1320 H 130.97 0.0909256 -0.741446 0
M  V30 1321 H 133.632 -0.478368 -1.88938 0
M  V30 1322 H 132.728 0.47264 -3.085 0
M  V30 1323 N 133.029 1.57378 -0.0835403 0
M  V30 1324 C 134.277 1.93547 0.581718 0
M  V30 1325 C 134.598 0.96524 1.69435 0
M  V30 1326 O 133.868 0.0153369 1.95894 0
M  V30 1327 H 132.448 0.714521 0.217874 0
M  V30 1328 H 135.11 1.94366 -0.144158 0
M  V30 1329 H 134.206 2.95665 0.999423 0
M  V30 1330 N 134.507 -0.190092 1.56449 0
M  V30 1331 C 135.454 -1.23557 1.94942 0
M  V30 1332 C 136.424 -1.44972 0.810696 0
M  V30 1333 O 137.609 -1.58023 1.06927 0
M  V30 1334 C 134.749 -2.57416 2.2985 0
M  V30 1335 C 133.862 -2.43537 3.5681 0
M  V30 1336 C 132.997 -3.70134 3.81017 0
M  V30 1337 C 132.036 -3.51109 5.01387 0
M  V30 1338 N 131.173 -4.6973 5.21822 0
M  V30 1339 H 136.013 -0.900304 2.84075 0
M  V30 1340 H 133.55 -0.43318 1.40577 0
M  V30 1341 H 135.508 -3.35409 2.48106 0
M  V30 1342 H 134.138 -2.88975 1.43852 0
M  V30 1343 H 133.19 -1.56816 3.46573 0
M  V30 1344 H 134.502 -2.25415 4.4496 0
M  V30 1345 H 133.656 -4.56566 3.9954 0
M  V30 1346 H 132.395 -3.91215 2.91207 0
M  V30 1347 H 131.4 -2.63063 4.82782 0
M  V30 1348 H 132.625 -3.31468 5.9271 0
M  V30 1349 H 130.571 -4.91065 4.34961 0
M  V30 1350 H 130.488 -4.54452 6.0416 0
M  V30 1351 H 131.756 -5.57499 5.44808 0
M  V30 1352 N 135.985 -1.50799 -0.457987 0
M  V30 1353 C 136.948 -1.7005 -1.53674 0
M  V30 1354 C 137.948 -0.570881 -1.50325 0
M  V30 1355 O 139.138 -0.838126 -1.52712 0
M  V30 1356 C 136.27 -1.73788 -2.93276 0
M  V30 1357 H 137.463 -2.66306 -1.37917 0
M  V30 1358 H 135.016 -1.40477 -0.685271 0
M  V30 1359 H 135.751 -0.792717 -3.14462 0
M  V30 1360 H 135.536 -2.55864 -2.97113 0
M  V30 1361 H 137.026 -1.90591 -3.71571 0
M  V30 1362 N 137.463 0.71206 -1.40597 0
M  V30 1363 C 138.426 1.80785 -1.40888 0
M  V30 1364 C 139.426 1.57937 -0.302103 0
M  V30 1365 O 140.616 1.64913 -0.561182 0
M  V30 1366 C 137.748 3.18927 -1.20409 0
M  V30 1367 H 138.941 1.81924 -2.38419 0
M  V30 1368 H 136.494 0.91805 -1.26497 0
M  V30 1369 H 137.229 3.23436 -0.236522 0
M  V30 1370 H 137.014 3.36911 -2.00582 0
M  V30 1371 H 138.504 3.98949 -1.23408 0
M  V30 1372 N 138.941 1.26152 0.944643 0
M  V30 1373 C 139.871 1.09902 2.06019 0
M  V30 1374 C 140.852 0.00519538 1.70099 0
M  V30 1375 O 142.037 0.176583 1.93396 0
M  V30 1376 C 139.167 0.727562 3.39594 0
M  V30 1377 C 138.121 1.77274 3.89561 0
M  V30 1378 C 137.447 1.25569 5.19747 0
M  V30 1379 C 138.747 3.17357 4.14827 0
M  V30 1380 H 140.441 2.03217 2.19871 0
M  V30 1381 H 137.987 0.978452 1.05652 0
M  V30 1382 H 139.94 0.600777 4.17095 0
M  V30 1383 H 138.664 -0.241287 3.25707 0
M  V30 1384 H 137.323 1.88814 3.14237 0
M  V30 1385 H 136.971 0.276783 5.02238 0
M  V30 1386 H 136.671 1.95433 5.54148 0
M  V30 1387 H 138.195 1.1415 5.99835 0
M  V30 1388 H 139.609 3.08914 4.82954 0
M  V30 1389 H 138.006 3.84781 4.60504 0
M  V30 1390 H 139.076 3.63673 3.20734 0
M  V30 1391 N 140.419 -1.14872 1.07899 0
M  V30 1392 C 141.647 -1.89661 0.82683 0
M  V30 1393 C 142.062 -1.78312 -0.620519 0
M  V30 1394 O 141.419 -1.13888 -1.42604 0
M  V30 1395 C 141.47 -3.39817 1.23316 0
M  V30 1396 O 141.191 -3.50845 2.62372 0
M  V30 1397 C 142.692 -4.31615 1.0111 0
M  V30 1398 H 139.912 -0.60092 0.298557 0
M  V30 1399 H 142.456 -1.4551 1.43691 0
M  V30 1400 H 140.611 -3.8161 0.667286 0
M  V30 1401 H 141.025 -4.44076 2.79101 0
M  V30 1402 H 142.499 -5.35367 1.34486 0
M  V30 1403 H 142.976 -4.39169 -0.0522168 0
M  V30 1404 H 143.582 -3.95572 1.56215 0
M  V30 1405 N 141.898 -0.863906 -1.31812 0
M  V30 1406 C 142.828 -0.330843 -2.31144 0
M  V30 1407 C 143.809 0.575005 -1.60087 0
M  V30 1408 O 144.994 0.493304 -1.8783 0
M  V30 1409 C 142.124 0.47374 -3.44054 0
M  V30 1410 C 141.078 -0.338481 -4.26659 0
M  V30 1411 C 140.404 0.591412 -5.31419 0
M  V30 1412 C 141.704 -1.56926 -4.98168 0
M  V30 1413 H 143.398 -1.16086 -2.75979 0
M  V30 1414 H 140.944 -0.559657 -1.32679 0
M  V30 1415 H 142.897 0.857143 -4.12591 0
M  V30 1416 H 141.621 1.33721 -2.9797 0
M  V30 1417 H 140.28 -0.703754 -3.59782 0
M  V30 1418 H 139.928 1.45199 -4.81587 0
M  V30 1419 H 139.628 0.0519022 -5.87577 0
M  V30 1420 H 141.152 0.97179 -6.02817 0
M  V30 1421 H 142.566 -1.25764 -5.59336 0
M  V30 1422 H 140.963 -2.04739 -5.64094 0
M  V30 1423 H 142.033 -2.32544 -4.25501 0
M  V30 1424 N 143.376 1.44774 -0.622745 0
M  V30 1425 C 144.601 2.06999 -0.128968 0
M  V30 1426 C 145.026 1.4617 1.1839 0
M  V30 1427 O 144.384 0.560007 1.72434 0
M  V30 1428 C 144.432 3.60595 -0.0188351 0
M  V30 1429 O 143.536 3.99398 1.02739 0
M  V30 1430 H 142.877 0.659047 -0.0809544 0
M  V30 1431 H 145.407 1.85784 -0.85705 0
M  V30 1432 H 145.417 4.07627 0.174476 0
M  V30 1433 H 144.092 4.04252 -0.977384 0
M  V30 1434 H 142.669 3.64011 0.809326 0
M  V30 1435 N 144.854 0.36279 1.53368 0
M  V30 1436 C 146.102 -0.227326 2.00817 0
M  V30 1437 C 146.423 -1.49511 1.25186 0
M  V30 1438 O 145.693 -1.92482 0.364348 0
M  V30 1439 H 144.273 -0.0869923 0.741917 0
M  V30 1440 H 146.935 0.488381 1.88682 0
M  V30 1441 H 146.031 -0.456273 3.08747 0
M  V30 1442 N 146.332 -1.57332 0.0918853 0
M  V30 1443 C 147.578 -1.94524 -0.573425 0
M  V30 1444 C 147.911 -0.973578 -1.68033 0
M  V30 1445 O 147.186 -0.00609226 -1.94499 0
M  V30 1446 C 147.469 -3.41858 -1.13161 0
M  V30 1447 C 147.322 -4.4979 -0.0299747 0
M  V30 1448 C 148.641 -3.90435 -2.03098 0
M  V30 1449 H 145.76 -0.70734 -0.206975 0
M  V30 1450 H 148.402 -1.89309 0.161942 0
M  V30 1451 H 146.552 -3.46433 -1.7583 0
M  V30 1452 H 148.224 -4.57327 0.604112 0
M  V30 1453 H 146.467 -4.291 0.636833 0
M  V30 1454 H 147.138 -5.50069 -0.461287 0
M  V30 1455 H 149.614 -3.87992 -1.50338 0
M  V30 1456 H 148.49 -4.94097 -2.39081 0
M  V30 1457 H 148.751 -3.29541 -2.94712 0
M  V30 1458 N 147.81 0.181792 -1.56548 0
M  V30 1459 C 148.742 1.24956 -1.92142 0
M  V30 1460 C 149.755 1.41022 -0.813422 0
M  V30 1461 O 150.944 1.41212 -1.09186 0
M  V30 1462 C 148.044 2.61981 -2.14987 0
M  V30 1463 C 147.217 2.6735 -3.46183 0
M  V30 1464 C 146.276 3.85664 -3.5798 0
M  V30 1465 O 145.302 3.72148 -4.30691 0
M  V30 1466 N 146.504 5.01683 -2.92053 0
M  V30 1467 H 149.269 0.947329 -2.84334 0
M  V30 1468 H 146.83 0.371629 -1.57577 0
M  V30 1469 H 148.822 3.3958 -2.20154 0
M  V30 1470 H 147.392 2.84637 -1.2923 0
M  V30 1471 H 146.612 1.75925 -3.52766 0
M  V30 1472 H 147.9 2.67939 -4.32534 0
M  V30 1473 H 147.298 5.15564 -2.32832 0
M  V30 1474 H 145.855 5.77181 -3.0283 0
M  V30 1475 N 149.288 1.51039 0.449983 0
M  V30 1476 C 150.699 1.557 1.03026 0
M  V30 1477 C 151.05 0.372939 1.92623 0
M  V30 1478 O 150.175 -0.511771 2.10261 0
M  V30 1479 C 150.77 2.82171 1.87523 0
M  V30 1480 C 149.329 2.89444 2.40622 0
M  V30 1481 C 148.476 2.50228 1.19504 0
M  V30 1482 H 151.427 1.56999 0.231745 0
M  V30 1483 H 151.448 2.65219 2.72835 0
M  V30 1484 H 150.96 3.68331 1.22286 0
M  V30 1485 H 149.061 2.07685 3.0935 0
M  V30 1486 H 149.174 3.92816 2.74285 0
M  V30 1487 H 147.538 2.03139 1.53644 0
M  V30 1488 H 148.321 3.38719 0.558972 0
M  V30 1489 N 150.766 -0.704594 1.40972 0
M  V30 1490 C 151.676 -1.84856 1.44448 0
M  V30 1491 C 152.692 -1.70726 0.335961 0
M  V30 1492 O 153.868 -1.92799 0.582276 0
M  V30 1493 C 150.933 -3.20758 1.31587 0
M  V30 1494 C 149.994 -3.47063 2.52677 0
M  V30 1495 C 149.227 -4.76481 2.4042 0
M  V30 1496 O 149.45 -5.52341 1.42391 0
M  V30 1497 O 148.384 -5.03367 3.30007 0
M  V30 1498 H 152.21 -1.8488 2.40942 0
M  V30 1499 H 149.795 -0.85647 1.22413 0
M  V30 1500 H 151.677 -4.01913 1.26665 0
M  V30 1501 H 150.352 -3.21438 0.382049 0
M  V30 1502 H 149.259 -2.65873 2.63177 0
M  V30 1503 H 150.592 -3.5119 3.44858 0
M  V30 1504 N 152.244 -1.26651 -0.937939 0
M  V30 1505 C 153.521 -1.0313 -1.66204 0
M  V30 1506 C 153.901 0.437256 -2.06522 0
M  V30 1507 O 153.249 1.41831 -1.79154 0
M  V30 1508 C 153.459 -1.98314 -2.87181 0
M  V30 1509 C 154.807 -2.27107 -3.58758 0
M  V30 1510 O 155.831 -1.96205 -2.97291 0
M  V30 1511 O 154.69 -2.79736 -4.69479 0
M  V30 1512 H 151.784 -0.392384 -0.727986 0
M  V30 1513 H 154.33 -1.37874 -0.989382 0
M  V30 1514 H 153.102 -2.97399 -2.54302 0
M  V30 1515 H 152.725 -1.64068 -3.6217 0
M  V30 1516 N 153.722 1.14298 -1.08507 0
M  V30 1517 C 154.632 2.23027 -0.727753 0
M  V30 1518 C 155.648 1.71952 0.26619 0
M  V30 1519 O 156.824 2.011 0.109882 0
M  V30 1520 C 153.889 3.46403 -0.143541 0
M  V30 1521 C 152.95 4.12413 -1.19223 0
M  V30 1522 C 152.183 5.29899 -0.635798 0
M  V30 1523 O 152.406 5.67796 0.544393 0
M  V30 1524 O 151.34 5.85717 -1.38634 0
M  V30 1525 H 155.166 2.55945 -1.63481 0
M  V30 1526 H 152.751 1.22248 -0.858817 0
M  V30 1527 H 154.633 4.21018 0.179404 0
M  V30 1528 H 153.308 3.15206 0.736659 0
M  V30 1529 H 152.215 3.39667 -1.56772 0
M  V30 1530 H 153.548 4.47718 -2.04474 0
M  V30 1531 N 155.201 0.870884 1.31352 0
M  V30 1532 C 156.164 0.332243 2.26779 0
M  V30 1533 C 157.164 -0.517302 1.52252 0
M  V30 1534 O 158.354 -0.326477 1.71113 0
M  V30 1535 C 155.486 -0.528066 3.36785 0
M  V30 1536 H 156.679 1.17469 2.75937 0
M  V30 1537 H 154.232 0.64655 1.423 0
M  V30 1538 H 154.967 -1.39167 2.92922 0
M  V30 1539 H 154.752 0.0802582 3.92018 0
M  V30 1540 H 156.242 -0.897179 4.07849 0
M  V30 1541 N 156.679 -1.44442 0.630414 0
M  V30 1542 C 157.589 -2.34476 -0.0761693 0
M  V30 1543 C 158.605 -1.52576 -0.836449 0
M  V30 1544 O 159.781 -1.85307 -0.788874 0
M  V30 1545 C 156.846 -3.30545 -1.04599 0
M  V30 1546 C 155.907 -4.28352 -0.28516 0
M  V30 1547 C 155.14 -5.19831 -1.20878 0
M  V30 1548 O 155.363 -5.15223 -2.44747 0
M  V30 1549 O 154.297 -5.97892 -0.693491 0
M  V30 1550 H 158.123 -2.96345 0.664324 0
M  V30 1551 H 155.708 -1.44203 0.39061 0
M  V30 1552 H 157.59 -3.89681 -1.60396 0
M  V30 1553 H 156.265 -2.7121 -1.76711 0
M  V30 1554 H 155.172 -3.72764 0.315837 0
M  V30 1555 H 156.505 -4.90605 0.395924 0
M  V30 1556 N 158.157 -0.370918 -1.53173 0
M  V30 1557 C 159.387 0.217389 -2.05453 0
M  V30 1558 C 159.795 1.42568 -1.24382 0
M  V30 1559 O 159.138 1.81571 -0.278839 0
M  V30 1560 C 159.2 0.669827 -3.53205 0
M  V30 1561 C 158.864 -0.4225 -4.55043 0
M  V30 1562 C 159.861 -1.27407 -5.04047 0
M  V30 1563 C 157.546 -0.58427 -4.9889 0
M  V30 1564 C 159.54 -2.27271 -5.95505 0
M  V30 1565 C 157.227 -1.58627 -5.90153 0
M  V30 1566 C 158.225 -2.42892 -6.38351 0
M  V30 1567 O 157.913 -3.41382 -7.27814 0
M  V30 1568 H 157.645 0.0408171 -0.674767 0
M  V30 1569 H 160.199 -0.5292 -1.98466 0
M  V30 1570 H 158.429 1.4681 -3.57748 0
M  V30 1571 H 160.118 1.18173 -3.88317 0
M  V30 1572 H 160.884 -1.16031 -4.70916 0
M  V30 1573 H 156.763 0.061851 -4.60959 0
M  V30 1574 H 160.307 -2.93079 -6.33049 0
M  V30 1575 H 156.204 -1.70048 -6.22699 0
M  V30 1576 H 156.972 -3.37173 -7.45826 0
M  V30 1577 N 159.635 1.57281 -0.100228 0
M  V30 1578 C 160.865 1.98591 0.569681 0
M  V30 1579 C 161.273 0.978315 1.61943 0
M  V30 1580 O 160.616 -0.0396108 1.83657 0
M  V30 1581 C 160.678 3.36282 1.271 0
M  V30 1582 C 160.342 4.55488 0.371409 0
M  V30 1583 C 161.339 5.18491 -0.382504 0
M  V30 1584 C 159.024 5.01474 0.287965 0
M  V30 1585 C 161.018 6.25852 -1.20779 0
M  V30 1586 C 158.705 6.08701 -0.540965 0
M  V30 1587 C 159.703 6.70755 -1.28749 0
M  V30 1588 O 159.391 7.75914 -2.10269 0
M  V30 1589 H 159.123 0.65752 0.156982 0
M  V30 1590 H 161.677 2.0463 -0.177734 0
M  V30 1591 H 159.907 3.26941 2.0651 0
M  V30 1592 H 161.596 3.62005 1.83595 0
M  V30 1593 H 162.362 4.83891 -0.3278 0
M  V30 1594 H 158.241 4.52932 0.858689 0
M  V30 1595 H 161.785 6.74218 -1.79096 0
M  V30 1596 H 157.682 6.42732 -0.597131 0
M  V30 1597 H 158.45 7.92925 -2.03007 0
M  V30 1598 N 161.113 -0.173488 1.56642 0
M  V30 1599 C 162.353 -0.896984 1.83667 0
M  V30 1600 C 162.717 -1.79523 0.680842 0
M  V30 1601 O 163.918 -2.55616 0.831488 0
M  V30 1602 C 162.189 -1.67351 3.15798 0
M  V30 1603 S 163.748 -2.44607 3.64298 0
M  V30 1604 H 160.566 -0.300464 0.644393 0
M  V30 1605 H 163.168 -0.158775 1.94854 0
M  V30 1606 H 161.872 -1.00462 3.97914 0
M  V30 1607 H 161.403 -2.45313 3.07546 0
M  V30 1608 H 163.418 -3.69261 3.31452 0
M  V30 1609 N 162.591 -1.51276 -0.441967 0
M  V30 1610 C 163.521 -1.752 -1.54361 0
M  V30 1611 C 164.502 -0.601682 -1.59103 0
M  V30 1612 O 165.687 -0.843913 -1.74905 0
M  V30 1613 C 162.817 -1.87282 -2.92477 0
M  V30 1614 C 161.771 -3.02687 -3.02596 0
M  V30 1615 C 161.097 -2.99947 -4.42647 0
M  V30 1616 C 162.397 -4.4273 -2.77106 0
M  V30 1617 H 164.091 -2.67442 -1.34592 0
M  V30 1618 H 161.637 -1.28694 -0.646048 0
M  V30 1619 H 163.59 -2.02602 -3.695 0
M  V30 1620 H 162.314 -0.916844 -3.13467 0
M  V30 1621 H 160.973 -2.87065 -2.28012 0
M  V30 1622 H 160.621 -2.02136 -4.60597 0
M  V30 1623 H 160.321 -3.77439 -4.50348 0
M  V30 1624 H 161.845 -3.17354 -5.2165 0
M  V30 1625 H 163.259 -4.58727 -3.43864 0
M  V30 1626 H 161.656 -5.21893 -2.96222 0
M  V30 1627 H 162.726 -4.53087 -1.72744 0
M  V30 1628 N 164.069 0.697108 -1.41344 0
M  V30 1629 C 164.999 1.82353 -1.45841 0
M  V30 1630 C 165.98 1.67115 -0.317247 0
M  V30 1631 O 167.165 1.86871 -0.528474 0
M  V30 1632 C 164.295 3.20476 -1.33838 0
M  V30 1633 C 163.249 3.50415 -2.4575 0
M  V30 1634 C 162.575 4.87878 -2.18813 0
M  V30 1635 C 163.875 3.49546 -3.88091 0
M  V30 1636 H 165.569 1.78846 -2.40113 0
M  V30 1637 H 163.115 0.859028 -1.15571 0
M  V30 1638 H 165.068 3.98988 -1.35596 0
M  V30 1639 H 163.792 3.24604 -0.360498 0
M  V30 1640 H 162.451 2.74253 -2.43271 0
M  V30 1641 H 162.099 4.8863 -1.19371 0
M  V30 1642 H 161.799 5.08875 -2.93803 0
M  V30 1643 H 163.323 5.68702 -2.22284 0
M  V30 1644 H 164.737 4.18066 -3.92293 0
M  V30 1645 H 163.134 3.82075 -4.62751 0
M  V30 1646 H 164.204 2.48552 -4.16353 0
M  V30 1647 N 165.547 1.27147 0.931209 0
M  V30 1648 C 166.777 1.15914 1.71019 0
M  V30 1649 C 167.185 -0.287112 1.87009 0
M  V30 1650 O 166.528 -1.20761 1.38429 0
M  V30 1651 C 166.59 1.76647 3.13107 0
M  V30 1652 C 166.254 3.25807 3.20467 0
M  V30 1653 C 167.251 4.22489 3.02983 0
M  V30 1654 C 164.936 3.66452 3.43538 0
M  V30 1655 C 166.93 5.57794 3.08454 0
M  V30 1656 C 164.617 5.01888 3.48643 0
M  V30 1657 C 165.615 5.97369 3.31119 0
M  V30 1658 O 165.303 7.30337 3.35952 0
M  V30 1659 H 165.035 0.404062 0.54195 0
M  V30 1660 H 167.589 1.68457 1.17521 0
M  V30 1661 H 165.819 1.18578 3.68071 0
M  V30 1662 H 167.508 1.60179 3.72958 0
M  V30 1663 H 168.274 3.92425 2.85004 0
M  V30 1664 H 164.153 2.92611 3.5623 0
M  V30 1665 H 167.697 6.32298 2.94694 0
M  V30 1666 H 163.594 5.31609 3.66145 0
M  V30 1667 H 164.362 7.38739 3.5243 0
M  V30 1668 N 167.025 -1.13721 1.09112 0
M  V30 1669 C 168.255 -1.88499 0.845671 0
M  V30 1670 C 168.663 -1.79218 -0.606432 0
M  V30 1671 O 168.006 -1.1544 -1.42896 0
M  V30 1672 C 168.068 -3.38954 1.19793 0
M  V30 1673 C 167.732 -3.72018 2.65428 0
M  V30 1674 C 168.729 -3.7153 3.63677 0
M  V30 1675 C 166.414 -4.01775 3.01467 0
M  V30 1676 C 168.408 -4.00336 4.95994 0
M  V30 1677 C 166.095 -4.30243 4.33975 0
M  V30 1678 C 167.093 -4.29508 5.31048 0
M  V30 1679 O 166.781 -4.5728 6.61173 0
M  V30 1680 H 166.513 -0.603702 0.304171 0
M  V30 1681 H 169.067 -1.44903 1.45576 0
M  V30 1682 H 167.297 -3.83039 0.530871 0
M  V30 1683 H 168.986 -3.95052 0.932146 0
M  V30 1684 H 169.752 -3.4862 3.37179 0
M  V30 1685 H 165.631 -4.01496 2.26544 0
M  V30 1686 H 169.175 -3.99678 5.71755 0
M  V30 1687 H 165.072 -4.52625 4.60219 0
M  V30 1688 H 165.84 -4.74964 6.66597 0
M  V30 1689 N 168.503 -0.877838 -1.30888 0
M  V30 1690 C 169.751 -0.491723 -1.96027 0
M  V30 1691 C 170.072 0.960827 -1.69685 0
M  V30 1692 O 169.342 1.67462 -1.01654 0
M  V30 1693 H 167.922 -0.17885 -0.725273 0
M  V30 1694 H 170.584 -1.11935 -1.59551 0
M  V30 1695 H 169.68 -0.656016 -3.05128 0
M  V30 1696 N 169.982 1.44106 -0.638065 0
M  V30 1697 C 171.23 2.01579 -0.145043 0
M  V30 1698 C 171.551 1.50496 1.24 0
M  V30 1699 O 170.821 0.711374 1.82527 0
M  V30 1700 H 169.401 0.745282 -0.05063 0
M  V30 1701 H 172.063 1.76516 -0.826327 0
M  V30 1702 H 171.159 3.11877 -0.118039 0
M  V30 1703 N 171.46 0.379036 1.52974 0
M  V30 1704 C 172.423 -0.448865 2.24762 0
M  V30 1705 C 173.423 -0.998689 1.26027 0
M  V30 1706 O 174.613 -0.882313 1.50203 0
M  V30 1707 C 171.745 -1.62872 2.99476 0
M  V30 1708 H 172.938 0.179491 2.99362 0
M  V30 1709 H 170.491 0.13096 1.5575 0
M  V30 1710 H 171.226 -2.29479 2.29151 0
M  V30 1711 H 171.011 -1.24128 3.71934 0
M  V30 1712 H 172.501 -2.2151 3.5401 0
M  V30 1713 O 172.977 -1.59572 0.248817 0
M  V30 1714 H 173.668 -1.9093 -0.326403 0
M  V30 END ATOM
M  V30 BEGIN BOND
M  V30 END BOND
M  V30 END CTAB
M  END
$$$$
