drugbank_target|P10613 Lanosterol 14-alpha demethylase (DB00196; DB00239; DB00251; DB00257; DB00582; DB01007; DB01110; DB01127; DB01153; DB01263; DB04794; DB08933)
 OpenBabel12092119273D

  0  0  0     0  0            999 V3000
M  V30 BEGIN CTAB
M  V30 COUNTS 8521 8640 0 0 0
M  V30 BEGIN ATOM
M  V30 1 H -0.908 1.98254 -0.117106 0
M  V30 2 N 0 1.576 0 0
M  V30 3 C 0.933 2.03868 1.02534 0
M  V30 4 C 1.911 0.928543 1.3348 0
M  V30 5 O 3.095 1.19667 1.45644 0
M  V30 6 C 0.222 2.43627 2.35294 0
M  V30 7 C -0.732 3.65373 2.2001 0
M  V30 8 S 0.101 5.13292 1.52614 0
M  V30 9 C 1.257 5.56322 2.86805 0
M  V30 10 H 1.49 2.90518 0.631377 0
M  V30 11 H -0.977 1.52953 0.210867 0
M  V30 12 H 0.981 2.67203 3.11629 0
M  V30 13 H -0.358 1.57376 2.7183 0
M  V30 14 H -1.165 3.90944 3.18086 0
M  V30 15 H -1.563 3.418 1.51819 0
M  V30 16 H 0.729 5.58782 3.83104 0
M  V30 17 H 1.672 6.56266 2.65933 0
M  V30 18 H 2.08 4.83886 2.90714 0
M  V30 19 N 1.4781 -0.272755 1.55222 0
M  V30 20 C 2.4411 -1.32041 1.87344 0
M  V30 21 C 3.4411 -1.42342 0.74803 0
M  V30 22 O 4.6311 -1.41488 1.0162 0
M  V30 23 C 1.7631 -2.70173 2.07893 0
M  V30 24 H 2.9561 -1.04789 2.80997 0
M  V30 25 H 0.5091 -0.51083 1.47717 0
M  V30 26 H 1.2441 -3.02605 1.16622 0
M  V30 27 H 1.0291 -2.64082 2.89833 0
M  V30 28 H 2.5191 -3.45869 2.34017 0
M  V30 29 N 2.9562 -1.48159 -0.537278 0
M  V30 30 C 4.2052 -1.5506 -1.28993 0
M  V30 31 C 4.5182 -0.226211 -1.94288 0
M  V30 32 O 5.7242 -0.173395 -2.70946 0
M  V30 33 C 4.1802 -2.73429 -2.34018 0
M  V30 34 C 3.7882 -4.1248 -1.74825 0
M  V30 35 C 5.5322 -2.89638 -3.10339 0
M  V30 36 C 3.4392 -5.22121 -2.77747 0
M  V30 37 H 2.3692 -0.577231 -0.485098 0
M  V30 38 H 5.0202 -1.74478 -0.568317 0
M  V30 39 H 3.4022 -2.47431 -3.09182 0
M  V30 40 H 4.5762 -4.48466 -1.05899 0
M  V30 41 H 2.8912 -4.01327 -1.11022 0
M  V30 42 H 5.4882 -3.68718 -3.87235 0
M  V30 43 H 5.8312 -1.9882 -3.65754 0
M  V30 44 H 6.3642 -3.15502 -2.42288 0
M  V30 45 H 3.1032 -6.1488 -2.27161 0
M  V30 46 H 2.6232 -4.90631 -3.45024 0
M  V30 47 H 4.3022 -5.49924 -3.4087 0
M  V30 48 N 4.4343 0.785586 -1.36625 0
M  V30 49 C 5.6803 1.54591 -1.31261 0
M  V30 50 C 6.0133 1.93906 0.106823 0
M  V30 51 O 5.2883 1.63007 1.06108 0
M  V30 52 C 5.5713 2.82038 -2.23889 0
M  V30 53 C 5.4243 2.49066 -3.74548 0
M  V30 54 C 6.7433 3.83887 -2.15217 0
M  V30 55 H 3.8623 0.560846 -0.478143 0
M  V30 56 H 6.5043 0.902278 -1.67209 0
M  V30 57 H 4.6543 3.36961 -1.93363 0
M  V30 58 H 6.3263 2.00164 -4.15611 0
M  V30 59 H 4.5693 1.81954 -3.93796 0
M  V30 60 H 5.2403 3.40109 -4.34776 0
M  V30 61 H 7.7163 3.38421 -2.42096 0
M  V30 62 H 6.5923 4.70806 -2.82193 0
M  V30 63 H 6.8533 4.27131 -1.14068 0
M  V30 64 N 5.9124 1.20967 1.01018 0
M  V30 65 C 6.8224 0.980157 2.13143 0
M  V30 66 C 7.8384 -0.0660665 1.73875 0
M  V30 67 O 9.0144 0.122821 2.01025 0
M  V30 68 C 6.0794 0.54216 3.42435 0
M  V30 69 C 5.1404 1.65999 3.95908 0
M  V30 70 C 4.3734 1.2428 5.19028 0
M  V30 71 O 4.5964 0.114196 5.70286 0
M  V30 72 O 3.5304 2.05271 5.65816 0
M  V30 73 H 7.3564 1.91913 2.35379 0
M  V30 74 H 4.9414 0.994099 1.11526 0
M  V30 75 H 6.8234 0.30744 4.20277 0
M  V30 76 H 5.4984 -0.36815 3.216 0
M  V30 77 H 4.4054 1.94906 3.19316 0
M  V30 78 H 5.7384 2.54753 4.21143 0
M  V30 79 N 7.3905 -1.2043 1.01659 0
M  V30 80 C 8.6185 -1.93777 0.725132 0
M  V30 81 C 9.0335 -1.74772 -0.714166 0
M  V30 82 O 8.3905 -1.06169 -1.4844 0
M  V30 83 C 8.4415 -3.45876 1.05129 0
M  V30 84 O 8.1625 -3.6426 2.43406 0
M  V30 85 C 9.6635 -4.36368 0.780891 0
M  V30 86 H 6.8835 -0.615901 0.266284 0
M  V30 87 H 9.4275 -1.52922 1.35776 0
M  V30 88 H 7.5825 -3.8461 0.464065 0
M  V30 89 H 7.9965 -4.58246 2.55169 0
M  V30 90 H 9.4705 -5.41743 1.05918 0
M  V30 91 H 9.9475 -4.38275 -0.284937 0
M  V30 92 H 10.5535 -4.03296 1.35027 0
M  V30 93 N 8.8686 -0.792821 -1.36206 0
M  V30 94 C 10.1146 -0.36733 -1.99446 0
M  V30 95 C 10.4476 1.05917 -1.62774 0
M  V30 96 O 9.7226 1.7324 -0.88421 0
M  V30 97 C 10.0056 -0.535044 -3.56103 0
M  V30 98 C 9.8586 -2.00548 -4.02617 0
M  V30 99 C 11.1776 0.0478191 -4.40074 0
M  V30 100 H 8.2966 -0.134941 -0.724541 0
M  V30 101 H 10.9386 -0.999794 -1.61568 0
M  V30 102 H 9.0886 0.00336329 -3.885 0
M  V30 103 H 10.7606 -2.60521 -3.80692 0
M  V30 104 H 9.0036 -2.50686 -3.54032 0
M  V30 105 H 9.6746 -2.07377 -5.11565 0
M  V30 106 H 12.1506 -0.411822 -4.14057 0
M  V30 107 H 11.0266 -0.0995336 -5.4881 0
M  V30 108 H 11.2876 1.14025 -4.27142 0
M  V30 109 N 10.3467 1.47872 -0.545128 0
M  V30 110 C 11.5957 2.01695 -0.0145033 0
M  V30 111 C 11.9087 1.42609 1.33873 0
M  V30 112 O 13.1147 1.88021 1.95858 0
M  V30 113 C 11.5707 3.59892 0.0245068 0
M  V30 114 C 11.1787 4.27966 -1.32475 0
M  V30 115 C 12.9227 4.21507 0.50316 0
M  V30 116 C 10.8297 5.78136 -1.2455 0
M  V30 117 H 9.7597 0.753998 -0.00165172 0
M  V30 118 H 12.4107 1.69985 -0.691175 0
M  V30 119 H 10.7927 3.88509 0.766575 0
M  V30 120 H 11.9667 4.11003 -2.08357 0
M  V30 121 H 10.2817 3.78286 -1.74036 0
M  V30 122 H 12.8787 5.31538 0.580656 0
M  V30 123 H 13.2217 3.87855 1.51243 0
M  V30 124 H 13.7547 3.97376 -0.183681 0
M  V30 125 H 10.4937 6.16388 -2.23039 0
M  V30 126 H 10.0137 5.97469 -0.528282 0
M  V30 127 H 11.6927 6.40099 -0.942488 0
M  V30 128 N 11.8248 0.280983 1.55075 0
M  V30 129 C 13.1018 -0.386207 1.91749 0
M  V30 130 C 13.4818 -1.73264 1.20594 0
M  V30 131 O 12.8298 -2.26034 0.334784 0
M  V30 132 C 13.0398 -0.520687 3.45094 0
M  V30 133 C 14.3878 -0.800865 4.16979 0
M  V30 134 O 15.4118 -0.605271 3.5102 0
M  V30 135 O 14.2708 -1.1753 5.33712 0
M  V30 136 H 11.3648 -0.212408 0.799257 0
M  V30 137 H 13.9108 0.327568 1.66509 0
M  V30 138 H 12.6828 0.426633 3.88967 0
M  V30 139 H 12.3058 -1.2837 3.76307 0
M  V30 140 N 13.3029 -1.57598 0.00835791 0
M  V30 141 C 14.5509 -1.90551 -0.6734 0
M  V30 142 C 14.8719 -0.883301 -1.73847 0
M  V30 143 O 14.1419 0.0781442 -1.95744 0
M  V30 144 H 12.7219 -0.703312 -0.251717 0
M  V30 145 H 15.3839 -1.94833 0.0512592 0
M  V30 146 H 14.4799 -2.9056 -1.13935 0
M  V30 147 N 14.781 0.264519 -1.55364 0
M  V30 148 C 16.03 0.992812 -1.75574 0
M  V30 149 C 16.343 1.87142 -0.568979 0
M  V30 150 O 17.549 2.63513 -0.653682 0
M  V30 151 C 16.005 1.81519 -3.10771 0
M  V30 152 C 15.613 0.984839 -4.37041 0
M  V30 153 C 17.357 2.53727 -3.40327 0
M  V30 154 C 15.264 1.80209 -5.63275 0
M  V30 155 H 14.194 0.374412 -0.65447 0
M  V30 156 H 16.845 0.248138 -1.81815 0
M  V30 157 H 15.227 2.60115 -2.98591 0
M  V30 158 H 16.401 0.242455 -4.60162 0
M  V30 159 H 14.716 0.37691 -4.14691 0
M  V30 160 H 17.313 3.15292 -4.3185 0
M  V30 161 H 17.656 3.24447 -2.60845 0
M  V30 162 H 18.189 1.82156 -3.53644 0
M  V30 163 H 14.928 1.13896 -6.45529 0
M  V30 164 H 14.448 2.52022 -5.44284 0
M  V30 165 H 16.127 2.37364 -6.01887 0
M  V30 166 N 16.2591 1.48442 0.529413 0
M  V30 167 C 17.2071 1.63452 1.65487 0
M  V30 168 C 18.2011 0.500955 1.61823 0
M  V30 169 O 19.4071 0.679695 1.66674 0
M  V30 170 H 15.7821 0.514905 0.548066 0
M  V30 171 H 17.7531 2.57975 1.49971 0
M  V30 172 C 16.5021 1.69196 3.03756 0
M  V30 173 H 15.8251 2.55784 3.07269 0
M  V30 174 H 17.2651 1.83743 3.82119 0
M  V30 175 C 15.7241 0.430765 3.34135 0
M  V30 176 O 16.2541 -0.4561 3.99102 0
M  V30 177 N 14.4601 0.302293 2.89023 0
M  V30 178 H 14.0071 1.02496 2.36331 0
M  V30 179 H 13.9651 -0.540546 3.09718 0
M  V30 180 N 17.7372 -0.778329 1.37039 0
M  V30 181 C 18.9672 -1.56507 1.34868 0
M  V30 182 C 19.3752 -1.89072 -0.0694802 0
M  V30 183 O 18.7182 -1.51434 -1.03987 0
M  V30 184 C 18.7802 -2.90641 2.11585 0
M  V30 185 C 18.4442 -2.80746 3.60598 0
M  V30 186 C 19.4412 -2.52226 4.54618 0
M  V30 187 C 17.1262 -2.98974 4.03633 0
M  V30 188 C 19.1202 -2.42054 5.89651 0
M  V30 189 C 16.8072 -2.88423 5.38754 0
M  V30 190 C 17.8052 -2.60002 6.31576 0
M  V30 191 O 17.4932 -2.49465 7.64214 0
M  V30 192 H 17.2252 -0.491723 0.463879 0
M  V30 193 H 19.7792 -0.973053 1.80889 0
M  V30 194 H 18.0092 -3.51936 1.60243 0
M  V30 195 H 19.6982 -3.51992 2.0213 0
M  V30 196 H 20.4642 -2.37835 4.22681 0
M  V30 197 H 16.3432 -3.20099 3.31749 0
M  V30 198 H 19.8872 -2.19791 6.62071 0
M  V30 199 H 15.7842 -3.0238 5.70295 0
M  V30 200 H 16.5522 -2.64864 7.74461 0
M  V30 201 N 19.2153 -1.21501 -1.00376 0
M  V30 202 C 20.4623 -1.03299 -1.74171 0
M  V30 203 C 20.7903 0.433326 -1.89612 0
M  V30 204 O 20.0453 1.33779 -1.42834 0
M  V30 205 C 20.3443 -1.67673 -3.15627 0
M  V30 206 C 20.0103 -3.17533 -3.2013 0
M  V30 207 C 18.6723 -3.58427 -3.21067 0
M  V30 208 C 21.0243 -4.13504 -3.17275 0
M  V30 209 C 18.3523 -4.93794 -3.16835 0
M  V30 210 C 20.7043 -5.48834 -3.14585 0
M  V30 211 C 19.3683 -5.89123 -3.13831 0
M  V30 212 H 18.6383 -0.377999 -0.637336 0
M  V30 213 H 21.2853 -1.51111 -1.17634 0
M  V30 214 H 19.5903 -1.12158 -3.75404 0
M  V30 215 H 21.2873 -1.51091 -3.71446 0
M  V30 216 H 17.8773 -2.84965 -3.20145 0
M  V30 217 H 22.0613 -3.82936 -3.15711 0
M  V30 218 H 17.3173 -5.24255 -3.1459 0
M  V30 219 H 21.4913 -6.22934 -3.1133 0
M  V30 220 H 19.1183 -6.93984 -3.10307 0
M  V30 221 N 20.6934 1.19889 -1.02296 0
M  V30 222 C 21.6234 2.25141 -0.619174 0
M  V30 223 C 22.6044 1.66051 0.368915 0
M  V30 224 O 23.7894 1.92546 0.252941 0
M  V30 225 C 20.9194 3.4728 0.0368783 0
M  V30 226 C 19.8734 4.19005 -0.872865 0
M  V30 227 C 19.1994 5.34637 -0.0822402 0
M  V30 228 C 20.4994 4.74452 -2.18387 0
M  V30 229 H 22.1934 2.59171 -1.49903 0
M  V30 230 H 19.7394 1.24579 -0.722222 0
M  V30 231 H 21.6924 4.20098 0.330958 0
M  V30 232 H 20.4164 3.12433 0.95149 0
M  V30 233 H 19.0754 3.48061 -1.15105 0
M  V30 234 H 18.7234 4.96034 0.83422 0
M  V30 235 H 18.4234 5.83557 -0.688149 0
M  V30 236 H 19.9474 6.10255 0.205238 0
M  V30 237 H 21.3614 5.39055 -1.95172 0
M  V30 238 H 19.7584 5.33834 -2.74119 0
M  V30 239 H 20.8284 3.92844 -2.84257 0
M  V30 240 N 22.1715 0.800033 1.35784 0
M  V30 241 C 23.3965 0.388511 2.03729 0
M  V30 242 C 23.8215 -0.990481 1.5991 0
M  V30 243 O 23.1795 -1.64013 0.772612 0
M  V30 244 C 23.2275 0.4726 3.5749 0
M  V30 245 O 22.3315 -0.51646 4.09153 0
M  V30 246 H 21.6725 0.163271 0.643614 0
M  V30 247 H 24.2025 1.0841 1.73518 0
M  V30 248 H 24.2125 0.34003 4.06581 0
M  V30 249 H 22.8875 1.47848 3.88734 0
M  V30 250 H 21.4645 -0.344673 3.71304 0
M  V30 251 N 23.6496 -1.47581 0.552962 0
M  V30 252 C 24.5796 -2.32762 -0.185451 0
M  V30 253 C 25.5606 -1.43527 -0.912905 0
M  V30 254 O 26.7456 -1.72388 -0.894201 0
M  V30 255 C 23.8756 -3.25219 -1.21859 0
M  V30 256 C 22.8296 -4.23661 -0.607864 0
M  V30 257 C 22.1556 -5.05413 -1.74533 0
M  V30 258 C 23.4556 -5.20481 0.435582 0
M  V30 259 H 25.1496 -2.94749 0.525684 0
M  V30 260 H 22.6956 -1.41738 0.254251 0
M  V30 261 H 24.6486 -3.8365 -1.7433 0
M  V30 262 H 23.3726 -2.61279 -1.95961 0
M  V30 263 H 22.0316 -3.66451 -0.104489 0
M  V30 264 H 21.6796 -4.3788 -2.47529 0
M  V30 265 H 21.3796 -5.72059 -1.34249 0
M  V30 266 H 22.9036 -5.66701 -2.27338 0
M  V30 267 H 24.3176 -5.733 -0.00290157 0
M  V30 268 H 22.7146 -5.95305 0.757067 0
M  V30 269 H 23.7846 -4.66217 1.33303 0
M  V30 270 N 25.1277 -0.289203 -1.54924 0
M  V30 271 C 26.3527 0.329299 -2.04769 0
M  V30 272 C 26.7777 1.4763 -1.16564 0
M  V30 273 O 26.1357 1.80527 -0.167186 0
M  V30 274 C 26.1837 0.774438 -3.52186 0
M  V30 275 O 25.2877 1.88038 -3.67036 0
M  V30 276 H 24.6287 0.0659259 -0.660719 0
M  V30 277 H 27.1587 -0.42761 -2.00082 0
M  V30 278 H 27.1687 1.06642 -3.93816 0
M  V30 279 H 25.8437 -0.0646707 -4.1585 0
M  V30 280 H 24.4207 1.58985 -3.3731 0
M  V30 281 N 26.6058 1.57591 -0.0167156 0
M  V30 282 C 27.8518 1.91567 0.665582 0
M  V30 283 C 28.1848 0.892298 1.72487 0
M  V30 284 O 27.4598 -0.0867127 1.94307 0
M  V30 285 C 27.7428 3.36069 1.29342 0
M  V30 286 C 27.5958 4.49135 0.244541 0
M  V30 287 C 28.9148 3.803 2.21495 0
M  V30 288 H 26.0338 0.69666 0.240488 0
M  V30 289 H 28.6758 1.89866 -0.0714356 0
M  V30 290 H 26.8258 3.3765 1.92158 0
M  V30 291 H 28.4978 4.59689 -0.385228 0
M  V30 292 H 26.7408 4.3165 -0.431379 0
M  V30 293 H 27.4118 5.47242 0.723207 0
M  V30 294 H 29.8878 3.80377 1.68678 0
M  V30 295 H 28.7638 4.82127 2.62382 0
M  V30 296 H 29.0248 3.15104 3.101 0
M  V30 297 N 28.0839 -0.256276 1.55502 0
M  V30 298 C 29.3119 -1.00342 1.8094 0
M  V30 299 C 29.7269 -1.79307 0.59114 0
M  V30 300 O 29.0839 -1.77114 -0.440081 0
M  V30 301 C 29.1349 -1.94875 3.04476 0
M  V30 302 O 28.8559 -1.19107 4.21598 0
M  V30 303 C 30.3569 -2.81266 3.42644 0
M  V30 304 H 27.5769 -0.295685 0.602338 0
M  V30 305 H 30.1209 -0.281998 2.02546 0
M  V30 306 H 28.2759 -2.62457 2.84947 0
M  V30 307 H 28.6899 -1.82969 4.91551 0
M  V30 308 H 30.1639 -3.43362 4.32211 0
M  V30 309 H 30.6409 -3.51897 2.62802 0
M  V30 310 H 31.2469 -2.1915 3.64491 0
M  V30 311 N 29.562 -1.4872 -0.521534 0
M  V30 312 C 30.494 -1.59968 -1.64143 0
M  V30 313 C 31.507 -0.483463 -1.55456 0
M  V30 314 O 32.696 -0.75467 -1.61762 0
M  V30 315 C 29.796 -1.52127 -3.02838 0
M  V30 316 C 28.969 -2.78932 -3.36921 0
M  V30 317 C 28.028 -2.64428 -4.54933 0
M  V30 318 O 27.054 -3.38331 -4.57735 0
M  V30 319 N 28.256 -1.74606 -5.53618 0
M  V30 320 H 31.021 -2.56548 -1.54929 0
M  V30 321 H 28.582 -1.45551 -0.708988 0
M  V30 322 H 30.574 -1.40106 -3.79674 0
M  V30 323 H 29.144 -0.634868 -3.06085 0
M  V30 324 H 28.364 -3.05455 -2.4918 0
M  V30 325 H 29.652 -3.63041 -3.56481 0
M  V30 326 H 29.05 -1.13782 -5.54139 0
M  V30 327 H 27.607 -1.6852 -6.29638 0
M  V30 328 N 31.0401 0.771051 -1.3745 0
M  V30 329 C 31.9721 1.89352 -1.29146 0
M  V30 330 C 32.9851 1.61477 -0.207124 0
M  V30 331 O 34.1741 1.72382 -0.463324 0
M  V30 332 C 31.2741 3.24596 -0.974195 0
M  V30 333 C 30.4471 3.80111 -2.16413 0
M  V30 334 C 29.5061 4.93832 -1.81703 0
M  V30 335 O 28.5321 5.09382 -2.54006 0
M  V30 336 N 29.7341 5.75483 -0.761573 0
M  V30 337 H 32.4991 1.96991 -2.25864 0
M  V30 338 H 30.0601 0.950191 -1.31084 0
M  V30 339 H 32.0521 3.98193 -0.722828 0
M  V30 340 H 30.6221 3.12454 -0.0955527 0
M  V30 341 H 29.8421 2.98284 -2.57721 0
M  V30 342 H 31.1301 4.13932 -2.95867 0
M  V30 343 H 30.5281 5.65469 -0.161609 0
M  V30 344 H 29.0851 6.49302 -0.570064 0
M  V30 345 N 32.5182 1.22032 0.997298 0
M  V30 346 C 33.7672 1.03637 1.73038 0
M  V30 347 C 34.0802 -0.429475 1.90827 0
M  V30 348 O 35.2862 -0.732995 2.61418 0
M  V30 349 C 33.7422 1.80582 3.11317 0
M  V30 350 C 33.3502 3.31387 3.01474 0
M  V30 351 C 35.0942 1.70621 3.88701 0
M  V30 352 C 33.0012 4.00791 4.3488 0
M  V30 353 H 31.9312 0.384179 0.648785 0
M  V30 354 H 34.5822 1.4584 1.11368 0
M  V30 355 H 32.9642 1.31175 3.73643 0
M  V30 356 H 34.1382 3.88155 2.4834 0
M  V30 357 H 32.4532 3.41976 2.37575 0
M  V30 358 H 35.0502 2.19799 4.87434 0
M  V30 359 H 35.3932 0.665823 4.10941 0
M  V30 360 H 35.9262 2.17547 3.33044 0
M  V30 361 H 32.6652 5.05064 4.1784 0
M  V30 362 H 32.1852 3.48811 4.87945 0
M  V30 363 H 33.8642 4.06139 5.03647 0
M  V30 364 N 33.9963 -1.19345 1.0293 0
M  V30 365 C 35.2213 -1.93538 0.745511 0
M  V30 366 C 35.6463 -1.75007 -0.689511 0
M  V30 367 O 35.0043 -1.05265 -1.47611 0
M  V30 368 C 35.0523 -3.43336 1.10239 0
M  V30 369 O 34.1563 -4.11806 0.221289 0
M  V30 370 H 33.4973 -0.604193 0.275404 0
M  V30 371 H 36.0273 -1.5141 1.37609 0
M  V30 372 H 36.0373 -3.94004 1.05947 0
M  V30 373 H 34.7123 -3.56146 2.14786 0
M  V30 374 H 33.2893 -3.715 0.322842 0
M  V30 375 N 35.4744 -0.807222 -1.35358 0
M  V30 376 C 36.7234 -0.384376 -1.98004 0
M  V30 377 C 37.0364 1.0543 -1.64754 0
M  V30 378 O 38.2424 1.58029 -2.20769 0
M  V30 379 C 36.6984 -0.636326 -3.5423 0
M  V30 380 C 36.3064 -2.08759 -3.96388 0
M  V30 381 C 38.0504 -0.278869 -4.23583 0
M  V30 382 C 35.9574 -2.28525 -5.45463 0
M  V30 383 H 34.8874 -0.139986 -0.740891 0
M  V30 384 H 37.5384 -0.991369 -1.54415 0
M  V30 385 H 35.9204 0.0406256 -3.95979 0
M  V30 386 H 37.0944 -2.8024 -3.6579 0
M  V30 387 H 35.4094 -2.40497 -3.39926 0
M  V30 388 H 38.0064 -0.404599 -5.33167 0
M  V30 389 H 38.3494 0.775012 -4.09022 0
M  V30 390 H 38.8824 -0.909764 -3.87257 0
M  V30 391 H 35.6214 -3.32361 -5.64992 0
M  V30 392 H 35.1414 -1.61569 -5.77629 0
M  V30 393 H 36.8204 -2.10109 -6.11934 0
M  V30 394 N 36.9525 1.47285 -0.560781 0
M  V30 395 C 37.8825 2.32857 0.173105 0
M  V30 396 C 38.8635 1.44009 0.905281 0
M  V30 397 O 40.0485 1.7286 0.885046 0
M  V30 398 C 37.1785 3.25861 1.20133 0
M  V30 399 C 36.1325 4.23978 0.585388 0
M  V30 400 C 35.4585 5.06332 1.7185 0
M  V30 401 C 36.7585 5.20242 -0.463178 0
M  V30 402 H 38.4525 2.94466 -0.541307 0
M  V30 403 H 35.9985 1.41601 -0.261764 0
M  V30 404 H 37.9515 3.84569 1.72293 0
M  V30 405 H 36.6755 2.62315 1.94573 0
M  V30 406 H 35.3345 3.66501 0.085054 0
M  V30 407 H 34.9825 4.39186 2.45203 0
M  V30 408 H 34.6825 5.72762 1.31213 0
M  V30 409 H 36.2065 5.67899 2.24329 0
M  V30 410 H 37.6205 5.73293 -0.027502 0
M  V30 411 H 36.0175 5.94896 -0.788627 0
M  V30 412 H 37.0875 4.65504 -1.35773 0
M  V30 413 N 38.4306 0.297415 1.54768 0
M  V30 414 C 39.3606 -0.573494 2.26348 0
M  V30 415 C 40.3416 -1.14085 1.26169 0
M  V30 416 O 41.5266 -1.17086 1.54934 0
M  V30 417 C 38.6566 -1.74716 3.00153 0
M  V30 418 C 37.6106 -1.31032 4.07449 0
M  V30 419 C 36.9366 -2.56887 4.68949 0
M  V30 420 C 38.2366 -0.444183 5.20408 0
M  V30 421 H 39.9306 0.0235131 2.99391 0
M  V30 422 H 37.4766 0.0127488 1.43994 0
M  V30 423 H 39.4296 -2.3625 3.48947 0
M  V30 424 H 38.1536 -2.37035 2.24682 0
M  V30 425 H 36.8126 -0.718066 3.59499 0
M  V30 426 H 36.4606 -3.17512 3.90122 0
M  V30 427 H 36.1606 -2.2836 5.41411 0
M  V30 428 H 37.6846 -3.19229 5.20505 0
M  V30 429 H 39.0986 -0.9651 5.65118 0
M  V30 430 H 37.4956 -0.252846 5.99567 0
M  V30 431 H 38.5656 0.531609 4.81977 0
M  V30 432 N 39.9087 -1.5758 0.0250728 0
M  V30 433 C 41.1567 -1.91255 -0.653151 0
M  V30 434 C 41.4777 -0.901691 -1.729 0
M  V30 435 O 40.7477 0.0573785 -1.95816 0
M  V30 436 H 39.3277 -0.705942 -0.244243 0
M  V30 437 H 41.9897 -1.94767 0.0719209 0
M  V30 438 H 41.0857 -2.91752 -1.10847 0
M  V30 439 N 41.3868 0.248026 -1.55636 0
M  V30 440 C 42.6328 0.97767 -1.77678 0
M  V30 441 C 42.9658 1.85016 -0.590135 0
M  V30 442 O 42.2408 1.90095 0.411611 0
M  V30 443 C 42.5238 1.83914 -3.09593 0
M  V30 444 C 42.3768 0.99491 -4.38659 0
M  V30 445 C 43.6958 2.82183 -3.37729 0
M  V30 446 H 40.8148 0.354005 -0.646413 0
M  V30 447 H 43.4568 0.248253 -1.88371 0
M  V30 448 H 41.6068 2.46104 -3.00608 0
M  V30 449 H 43.2788 0.391789 -4.59633 0
M  V30 450 H 41.5218 0.299231 -4.32767 0
M  V30 451 H 42.1928 1.63145 -5.2734 0
M  V30 452 H 44.6688 2.30129 -3.4667 0
M  V30 453 H 43.5448 3.39582 -4.31249 0
M  V30 454 H 43.8058 3.58588 -2.58586 0
M  V30 455 N 42.8649 1.48995 0.513639 0
M  V30 456 C 44.2759 1.5119 1.09537 0
M  V30 457 C 44.6269 0.290906 1.94031 0
M  V30 458 O 43.7519 -0.60049 2.07902 0
M  V30 459 C 44.3469 2.73964 1.99322 0
M  V30 460 C 42.9059 2.78978 2.52682 0
M  V30 461 C 42.0529 2.44934 1.30009 0
M  V30 462 H 45.0039 1.55875 0.298125 0
M  V30 463 H 45.0249 2.53409 2.83838 0
M  V30 464 H 44.5369 3.62813 1.37799 0
M  V30 465 H 42.6379 1.94378 3.1788 0
M  V30 466 H 42.7509 3.8083 2.90698 0
M  V30 467 H 41.1149 1.9644 1.62122 0
M  V30 468 H 41.8979 3.36043 0.702131 0
M  V30 469 N 44.343 -0.763751 1.37857 0
M  V30 470 C 45.59 -1.52257 1.33506 0
M  V30 471 C 45.918 -1.94343 -0.078022 0
M  V30 472 O 45.173 -1.64958 -1.05297 0
M  V30 473 C 45.472 -2.79499 2.22745 0
M  V30 474 C 45.138 -2.56426 3.70886 0
M  V30 475 C 43.8 -2.49842 4.11257 0
M  V30 476 C 46.152 -2.36008 4.64704 0
M  V30 477 C 43.48 -2.20841 5.43549 0
M  V30 478 C 45.832 -2.0853 5.97242 0
M  V30 479 C 44.496 -2.00396 6.36709 0
M  V30 480 H 43.766 -0.557149 0.488534 0
M  V30 481 H 46.413 -0.879073 1.70131 0
M  V30 482 H 44.718 -3.48447 1.79142 0
M  V30 483 H 46.415 -3.37413 2.16688 0
M  V30 484 H 43.005 -2.62416 3.38874 0
M  V30 485 H 47.189 -2.40079 4.34368 0
M  V30 486 H 42.445 -2.13045 5.73081 0
M  V30 487 H 46.619 -1.91732 6.69486 0
M  V30 488 H 44.246 -1.77688 7.39142 0
M  V30 489 N 45.8211 -1.22559 -0.990812 0
M  V30 490 C 47.0671 -1.05297 -1.73322 0
M  V30 491 C 47.4001 0.410655 -1.89808 0
M  V30 492 O 46.6751 1.30439 -1.44277 0
M  V30 493 C 46.9581 -1.76713 -3.13759 0
M  V30 494 C 46.8111 -3.30684 -3.04907 0
M  V30 495 C 48.1301 -1.52121 -4.12974 0
M  V30 496 H 45.2491 -0.38392 -0.629106 0
M  V30 497 H 47.8911 -1.50926 -1.15418 0
M  V30 498 H 46.0411 -1.37924 -3.63193 0
M  V30 499 H 47.7131 -3.7893 -2.63077 0
M  V30 500 H 45.9561 -3.60253 -2.41661 0
M  V30 501 H 46.6271 -3.75833 -4.04294 0
M  V30 502 H 49.1031 -1.85819 -3.72304 0
M  V30 503 H 47.9791 -2.04582 -5.0935 0
M  V30 504 H 48.2401 -0.454257 -4.3976 0
M  V30 505 N 47.2992 1.18797 -1.03562 0
M  V30 506 C 48.5292 1.92319 -0.754773 0
M  V30 507 C 48.9372 1.7612 0.691248 0
M  V30 508 O 48.2802 1.08491 1.48241 0
M  V30 509 C 48.3422 3.44284 -1.03484 0
M  V30 510 C 48.0062 3.84258 -2.47376 0
M  V30 511 C 49.0032 3.88459 -3.45537 0
M  V30 512 C 46.6882 4.15701 -2.81954 0
M  V30 513 C 48.6822 4.23545 -4.76328 0
M  V30 514 C 46.3692 4.50458 -4.12954 0
M  V30 515 C 47.3672 4.54356 -5.09951 0
M  V30 516 O 47.0552 4.88305 -6.38603 0
M  V30 517 H 46.7872 0.617527 -0.275021 0
M  V30 518 H 49.3412 1.51683 -1.38497 0
M  V30 519 H 47.5712 3.85135 -0.347513 0
M  V30 520 H 49.2602 3.99049 -0.7426 0
M  V30 521 H 50.0262 3.6431 -3.20162 0
M  V30 522 H 45.9052 4.11847 -2.0713 0
M  V30 523 H 49.4492 4.26502 -5.52035 0
M  V30 524 H 45.3462 4.74067 -4.38099 0
M  V30 525 H 46.1142 5.06227 -6.43177 0
M  V30 526 N 48.7773 0.814389 1.34928 0
M  V30 527 C 49.7253 0.218424 2.31572 0
M  V30 528 C 50.7193 -0.636128 1.57002 0
M  V30 529 O 51.9253 -0.52842 1.72069 0
M  V30 530 H 48.3003 0.0518799 0.750208 0
M  V30 531 H 50.2713 1.04852 2.79372 0
M  V30 532 C 49.0203 -0.61207 3.4227 0
M  V30 533 H 48.3433 0.0361578 3.99784 0
M  V30 534 H 49.7833 -0.995317 4.12152 0
M  V30 535 C 48.2423 -1.78087 2.85984 0
M  V30 536 O 48.7723 -2.8787 2.80168 0
M  V30 537 N 46.9783 -1.59488 2.42924 0
M  V30 538 H 46.5253 -0.701874 2.47854 0
M  V30 539 H 46.4833 -2.37846 2.05613 0
M  V30 540 N 50.2554 -1.46986 0.568584 0
M  V30 541 C 51.1854 -2.32946 -0.160753 0
M  V30 542 C 52.1664 -1.44487 -0.897631 0
M  V30 543 O 53.3514 -1.73327 -0.875867 0
M  V30 544 C 50.4814 -3.26494 -1.18403 0
M  V30 545 C 49.4354 -4.24282 -0.562895 0
M  V30 546 C 48.7614 -5.07236 -1.69163 0
M  V30 547 C 50.0614 -5.19989 0.490761 0
M  V30 548 H 51.7554 -2.94175 0.556916 0
M  V30 549 H 49.3014 -1.4146 0.26927 0
M  V30 550 H 51.2544 -3.85477 -1.70251 0
M  V30 551 H 49.9784 -2.63343 -1.93179 0
M  V30 552 H 48.6374 -3.66541 -0.0656164 0
M  V30 553 H 48.2854 -4.4048 -2.42871 0
M  V30 554 H 47.9854 -5.7345 -1.28174 0
M  V30 555 H 49.5094 -5.6908 -2.21314 0
M  V30 556 H 50.9234 -5.73271 0.0579047 0
M  V30 557 H 49.3204 -5.94469 0.820165 0
M  V30 558 H 50.3904 -4.64777 1.3824 0
M  V30 559 N 51.7335 -0.305618 -1.54608 0
M  V30 560 C 52.9795 0.302746 -2.00528 0
M  V30 561 C 53.3125 1.53184 -1.19367 0
M  V30 562 O 52.5875 1.92598 -0.271321 0
M  V30 563 C 52.8705 0.654756 -3.54097 0
M  V30 564 C 52.7235 -0.583793 -4.45995 0
M  V30 565 C 54.0425 1.47947 -4.14487 0
M  V30 566 H 51.1615 0.108564 -0.72896 0
M  V30 567 H 53.8035 -0.418634 -1.85331 0
M  V30 568 H 51.9535 1.26935 -3.67178 0
M  V30 569 H 53.6255 -1.22224 -4.44814 0
M  V30 570 H 51.8685 -1.21615 -4.16404 0
M  V30 571 H 52.5395 -0.293287 -5.5122 0
M  V30 572 H 55.0155 0.96013 -4.04871 0
M  V30 573 H 53.8915 1.69454 -5.22088 0
M  V30 574 H 54.1525 2.47011 -3.66658 0
M  V30 575 N 53.2116 1.57565 -0.0334293 0
M  V30 576 C 54.4576 1.93088 0.639417 0
M  V30 577 C 54.8126 0.910589 1.69488 0
M  V30 578 O 54.1056 -0.0727725 1.91462 0
M  V30 579 C 54.2996 3.33112 1.29504 0
M  V30 580 C 54.1286 4.48667 0.304604 0
M  V30 581 C 52.8986 5.05207 -0.0970777 0
M  V30 582 C 55.0966 5.1239 -0.442845 0
M  V30 583 N 53.0786 6.04286 -1.08223 0
M  V30 584 C 54.4496 6.06609 -1.28161 0
M  V30 585 C 56.5046 4.95352 -0.50308 0
M  V30 586 C 55.2076 6.85622 -2.17519 0
M  V30 587 C 57.2336 5.74978 -1.38401 0
M  V30 588 C 56.5956 6.68816 -2.21054 0
M  V30 589 H 52.6946 0.754335 0.206161 0
M  V30 590 H 55.2786 1.94435 -0.101613 0
M  V30 591 H 53.4496 3.32576 2.00618 0
M  V30 592 H 55.1816 3.55972 1.92525 0
M  V30 593 H 51.9366 4.72782 0.278255 0
M  V30 594 H 52.3606 6.58516 -1.57117 0
M  V30 595 H 57.0026 4.22625 0.121694 0
M  V30 596 H 54.7206 7.57652 -2.81049 0
M  V30 597 H 58.3066 5.63826 -1.43496 0
M  V30 598 H 57.1866 7.29355 -2.88116 0
M  V30 599 N 54.6897 -0.239769 1.55765 0
M  V30 600 C 55.6217 -1.32001 1.87372 0
M  V30 601 C 56.6347 -1.43944 0.760522 0
M  V30 602 O 57.8237 -1.45167 1.0387 0
M  V30 603 C 54.9237 -2.69779 2.05115 0
M  V30 604 C 54.0967 -2.80014 3.36022 0
M  V30 605 C 53.1557 -3.98684 3.4342 0
M  V30 606 O 52.1817 -3.87877 4.16582 0
M  V30 607 N 53.3837 -5.12176 2.73232 0
M  V30 608 H 56.1487 -1.0522 2.80622 0
M  V30 609 H 53.7097 -0.429857 1.56089 0
M  V30 610 H 55.7017 -3.47517 2.07399 0
M  V30 611 H 54.2717 -2.89237 1.18577 0
M  V30 612 H 53.4917 -1.88896 3.45994 0
M  V30 613 H 54.7797 -2.83808 4.22292 0
M  V30 614 H 54.1777 -5.2385 2.13536 0
M  V30 615 H 52.7347 -5.88022 2.81199 0
M  V30 616 N 56.1678 -1.49265 -0.50573 0
M  V30 617 C 57.3978 -1.61979 -1.28243 0
M  V30 618 C 57.8058 -0.288576 -1.86986 0
M  V30 619 O 57.1488 0.735408 -1.68337 0
M  V30 620 C 57.2108 -2.62632 -2.45489 0
M  V30 621 C 56.8748 -4.071 -2.07651 0
M  V30 622 C 57.8718 -4.94049 -1.61901 0
M  V30 623 C 55.5568 -4.52801 -2.17431 0
M  V30 624 C 57.5508 -6.24736 -1.26428 0
M  V30 625 C 55.2378 -5.83503 -1.8157 0
M  V30 626 C 56.2358 -6.69294 -1.36142 0
M  V30 627 O 55.9238 -7.9756 -1.00764 0
M  V30 628 H 55.6558 -0.54834 -0.395347 0
M  V30 629 H 58.2098 -1.96002 -0.614204 0
M  V30 630 H 56.4398 -2.2378 -3.15372 0
M  V30 631 H 58.1288 -2.64925 -3.07522 0
M  V30 632 H 58.8948 -4.5997 -1.53795 0
M  V30 633 H 54.7738 -3.86196 -2.51742 0
M  V30 634 H 58.3178 -6.91652 -0.908992 0
M  V30 635 H 54.2148 -6.17112 -1.89324 0
M  V30 636 H 54.9828 -8.10529 -1.13952 0
M  V30 637 N 57.6459 0.756429 -1.3826 0
M  V30 638 C 58.5759 1.88374 -1.37976 0
M  V30 639 C 59.5569 1.68311 -0.246082 0
M  V30 640 O 60.7419 1.88944 -0.44874 0
M  V30 641 C 57.8719 3.25864 -1.20125 0
M  V30 642 C 56.8259 3.60523 -2.30666 0
M  V30 643 C 56.1519 4.9672 -1.97923 0
M  V30 644 C 57.4519 3.65692 -3.72916 0
M  V30 645 H 59.1459 1.88869 -2.32312 0
M  V30 646 H 56.6919 0.907272 -1.11824 0
M  V30 647 H 58.6449 4.0438 -1.18552 0
M  V30 648 H 57.3689 3.25841 -0.222498 0
M  V30 649 H 56.0279 2.84324 -2.3142 0
M  V30 650 H 55.6759 4.93253 -0.985393 0
M  V30 651 H 55.3759 5.20878 -2.71955 0
M  V30 652 H 56.8999 5.77618 -1.97964 0
M  V30 653 H 58.3139 4.34328 -3.74208 0
M  V30 654 H 56.7109 4.01358 -4.4613 0
M  V30 655 H 57.7809 2.65987 -4.05436 0
M  V30 656 N 59.124 1.23083 0.984299 0
M  V30 657 C 60.354 1.08556 1.75781 0
M  V30 658 C 60.762 -0.366171 1.85623 0
M  V30 659 O 60.105 -1.26524 1.33182 0
M  V30 660 C 60.167 1.63208 3.20318 0
M  V30 661 C 59.831 3.11922 3.33997 0
M  V30 662 C 60.828 4.09259 3.2063 0
M  V30 663 C 58.513 3.51552 3.58771 0
M  V30 664 C 60.507 5.4421 3.31835 0
M  V30 665 C 58.194 4.86649 3.69616 0
M  V30 666 C 59.192 5.82787 3.56157 0
M  V30 667 O 58.88 7.15431 3.66626 0
M  V30 668 H 58.612 0.380713 0.5586 0
M  V30 669 H 61.166 1.63321 1.2456 0
M  V30 670 H 59.396 1.0286 3.72769 0
M  V30 671 H 61.085 1.44216 3.79416 0
M  V30 672 H 61.851 3.79984 3.01392 0
M  V30 673 H 57.73 2.77239 3.6832 0
M  V30 674 H 61.274 6.1923 3.21247 0
M  V30 675 H 57.171 5.15601 3.88363 0
M  V30 676 H 57.939 7.23127 3.83445 0
M  V30 677 N 60.6021 -1.18246 1.0419 0
M  V30 678 C 61.8271 -1.92736 0.765996 0
M  V30 679 C 62.2521 -1.75728 -0.67091 0
M  V30 680 O 61.6101 -1.06825 -1.46486 0
M  V30 681 C 61.6581 -3.42148 1.13875 0
M  V30 682 O 60.7621 -4.11548 0.264954 0
M  V30 683 H 60.1031 -0.601238 0.281797 0
M  V30 684 H 62.6331 -1.49942 1.39207 0
M  V30 685 H 62.6431 -3.92858 1.1012 0
M  V30 686 H 61.3181 -3.53848 2.18551 0
M  V30 687 H 59.8951 -3.71137 0.362226 0
M  V30 688 N 62.0802 -0.821533 -1.34494 0
M  V30 689 C 63.0102 -0.257138 -2.3208 0
M  V30 690 C 63.9912 0.625645 -1.58176 0
M  V30 691 O 65.1762 0.552811 -1.86166 0
M  V30 692 C 62.3062 0.582958 -3.42372 0
M  V30 693 C 61.2602 -0.202571 -4.2752 0
M  V30 694 C 60.5862 0.760179 -5.29269 0
M  V30 695 C 61.8862 -1.40998 -5.02908 0
M  V30 696 H 63.5802 -1.07247 -2.79532 0
M  V30 697 H 61.1262 -0.517163 -1.34393 0
M  V30 698 H 63.0792 0.987972 -4.09655 0
M  V30 699 H 61.8032 1.43133 -2.93565 0
M  V30 700 H 60.4622 -0.588936 -3.61838 0
M  V30 701 H 60.1102 1.60447 -4.76724 0
M  V30 702 H 59.8102 0.238809 -5.87115 0
M  V30 703 H 61.3342 1.16308 -5.9942 0
M  V30 704 H 62.7482 -1.07905 -5.63054 0
M  V30 705 H 61.1452 -1.86689 -5.70322 0
M  V30 706 H 62.2152 -2.1889 -4.32684 0
M  V30 707 N 63.5583 1.46682 -0.576371 0
M  V30 708 C 64.9743 1.57822 -0.237562 0
M  V30 709 C 65.1743 1.57237 1.26011 0
M  V30 710 O 64.2303 1.48596 2.04146 0
M  V30 711 C 65.5433 2.87499 -0.881168 0
M  V30 712 C 67.0913 3.01119 -0.85417 0
M  V30 713 C 67.5663 4.33524 -1.4772 0
M  V30 714 N 69.0573 4.40207 -1.44125 0
M  V30 715 C 69.7923 5.4126 -1.89276 0
M  V30 716 N 69.2883 6.49021 -2.42371 0
M  V30 717 N 71.0813 5.32422 -1.80231 0
M  V30 718 H 63.2323 1.45306 -1.54919 0
M  V30 719 H 65.4953 0.692733 -0.647167 0
M  V30 720 H 65.2013 2.9372 -1.93447 0
M  V30 721 H 65.0753 3.75224 -0.385592 0
M  V30 722 H 67.4623 2.94485 0.190491 0
M  V30 723 H 67.5433 2.14887 -1.3877 0
M  V30 724 H 67.1873 4.40916 -2.52103 0
M  V30 725 H 67.1173 5.1852 -0.918947 0
M  V30 726 H 69.6083 3.62931 -1.05307 0
M  V30 727 H 69.9213 7.2233 -2.74698 0
M  V30 728 H 68.2663 6.49858 -2.46393 0
M  V30 729 H 71.4573 4.47137 -1.38514 0
M  V30 730 H 71.6303 6.11034 -2.15735 0
M  V30 731 N 65.0364 0.313813 1.54444 0
M  V30 732 C 65.9834 -0.55655 2.23989 0
M  V30 733 C 66.9534 -1.11943 1.22711 0
M  V30 734 O 68.1384 -1.16158 1.51367 0
M  V30 735 C 65.2784 -1.71635 2.99392 0
M  V30 736 C 64.3914 -1.18364 4.15468 0
M  V30 737 C 63.5264 -2.30834 4.78424 0
M  V30 738 C 62.5654 -1.74762 5.86622 0
M  V30 739 N 61.7024 -2.80855 6.43479 0
M  V30 740 H 66.5424 0.0430893 2.97969 0
M  V30 741 H 64.0794 0.0330359 1.47063 0
M  V30 742 H 66.0374 -2.39868 3.41349 0
M  V30 743 H 64.6674 -2.28742 2.27765 0
M  V30 744 H 63.7194 -0.393163 3.78363 0
M  V30 745 H 65.0314 -0.733262 4.93381 0
M  V30 746 H 64.1854 -3.0699 5.23299 0
M  V30 747 H 62.9244 -2.79204 3.99871 0
M  V30 748 H 61.9294 -0.970995 5.41158 0
M  V30 749 H 63.1544 -1.2728 6.67066 0
M  V30 750 H 61.1004 -3.28535 5.67804 0
M  V30 751 H 61.0174 -2.40351 7.16776 0
M  V30 752 H 62.2854 -3.5687 6.93011 0
M  V30 753 N 66.5145 -1.57545 0.0417849 0
M  V30 754 C 67.7915 -1.83642 -0.673433 0
M  V30 755 C 68.1715 -0.928298 -1.89594 0
M  V30 756 O 67.5195 0.0129955 -2.28496 0
M  V30 757 C 67.7295 -3.33155 -1.03964 0
M  V30 758 C 69.0775 -3.99941 -1.42592 0
M  V30 759 O 70.1015 -3.37725 -1.13226 0
M  V30 760 O 68.9605 -5.09619 -1.9736 0
M  V30 761 H 66.0545 -0.757638 -0.331533 0
M  V30 762 H 68.6005 -1.69554 0.070433 0
M  V30 763 H 67.3725 -3.9093 -0.170098 0
M  V30 764 H 66.9955 -3.52396 -1.84126 0
M  V30 765 N 67.9926 0.231505 -1.5589 0
M  V30 766 C 69.4086 0.580748 -1.48659 0
M  V30 767 C 69.6086 1.87617 -0.73498 0
M  V30 768 O 68.6646 2.51046 -0.270586 0
M  V30 769 C 69.9776 0.669202 -2.93159 0
M  V30 770 C 71.5256 0.760499 -3.03621 0
M  V30 771 C 72.0006 0.880383 -4.49459 0
M  V30 772 N 73.4916 0.944861 -4.53461 0
M  V30 773 C 74.2266 1.05716 -5.63571 0
M  V30 774 N 73.7226 1.13403 -6.83456 0
M  V30 775 N 75.5156 1.09152 -5.514 0
M  V30 776 H 67.6666 -0.618695 -2.03189 0
M  V30 777 H 69.9296 -0.215728 -0.923128 0
M  V30 778 H 69.6356 -0.212904 -3.51055 0
M  V30 779 H 69.5096 1.5361 -3.44505 0
M  V30 780 H 71.8966 1.63305 -2.45796 0
M  V30 781 H 71.9776 -0.131864 -2.5546 0
M  V30 782 H 71.6216 0.0123284 -5.07899 0
M  V30 783 H 71.5516 1.78802 -4.95316 0
M  V30 784 H 74.0426 0.896176 -3.6712 0
M  V30 785 H 74.3556 1.21921 -7.63122 0
M  V30 786 H 72.7006 1.10333 -6.86186 0
M  V30 787 H 75.8916 1.02805 -4.56671 0
M  V30 788 H 76.0646 1.17558 -6.37247 0
M  V30 789 N 69.4707 1.49531 0.497807 0
M  V30 790 C 70.4337 1.65916 1.58128 0
M  V30 791 C 71.4337 0.530825 1.51786 0
M  V30 792 O 72.6237 0.797342 1.54881 0
M  V30 793 C 69.7557 1.65951 2.9778 0
M  V30 794 H 70.9487 2.62556 1.44929 0
M  V30 795 H 68.5017 1.38611 0.722275 0
M  V30 796 H 69.2367 0.709065 3.16453 0
M  V30 797 H 69.0217 2.47897 3.03792 0
M  V30 798 H 70.5117 1.80673 3.76493 0
M  V30 799 N 70.9488 -0.749086 1.3866 0
M  V30 800 C 72.3598 -1.32664 1.31366 0
M  V30 801 C 72.7108 -1.96179 -0.028484 0
M  V30 802 O 71.8358 -1.9537 -0.93057 0
M  V30 803 C 72.4308 -2.41219 2.37905 0
M  V30 804 C 70.9898 -2.94684 2.34176 0
M  V30 805 C 70.1368 -1.68108 2.20533 0
M  V30 806 H 73.0878 -0.547628 1.48952 0
M  V30 807 H 73.1088 -3.21268 2.0388 0
M  V30 808 H 72.6208 -1.94962 3.35576 0
M  V30 809 H 70.7218 -3.45258 1.401 0
M  V30 810 H 70.8348 -3.48757 3.2849 0
M  V30 811 H 69.1988 -1.91907 1.67463 0
M  V30 812 H 69.9818 -1.23923 3.20153 0
M  V30 813 N 72.4269 -1.23603 -0.977757 0
M  V30 814 C 73.3569 -1.04401 -2.0886 0
M  V30 815 C 74.3379 0.0399052 -1.70053 0
M  V30 816 O 75.5229 -0.125246 -1.93796 0
M  V30 817 C 72.6529 -0.637269 -3.41403 0
M  V30 818 C 71.6069 -1.66883 -3.94124 0
M  V30 819 C 70.9329 -1.11745 -5.22893 0
M  V30 820 C 72.2329 -3.06247 -4.23096 0
M  V30 821 H 73.9269 -1.97316 -2.25182 0
M  V30 822 H 71.4729 -0.950096 -1.08209 0
M  V30 823 H 73.4259 -0.48998 -4.18542 0
M  V30 824 H 72.1499 0.327557 -3.24953 0
M  V30 825 H 70.8089 -1.80416 -3.19133 0
M  V30 826 H 70.4569 -0.143527 -5.02795 0
M  V30 827 H 70.1569 -1.80672 -5.59134 0
M  V30 828 H 71.6809 -0.982067 -6.02651 0
M  V30 829 H 73.0949 -2.96001 -4.90975 0
M  V30 830 H 71.4919 -3.72436 -4.70544 0
M  V30 831 H 72.5619 -3.55041 -3.30263 0
M  V30 832 N 73.905 1.17692 -1.04816 0
M  V30 833 C 75.151 1.88137 -0.75711 0
M  V30 834 C 75.484 1.80604 0.713841 0
M  V30 835 O 74.759 1.21146 1.52164 0
M  V30 836 C 75.042 3.38318 -1.2334 0
M  V30 837 C 74.895 3.54622 -2.76701 0
M  V30 838 C 76.214 4.32214 -0.829415 0
M  V30 839 H 73.333 0.683163 -0.27651 0
M  V30 840 H 75.975 1.38424 -1.30149 0
M  V30 841 H 74.125 3.80787 -0.770286 0
M  V30 842 H 75.797 3.21194 -3.31107 0
M  V30 843 H 74.04 2.97026 -3.16161 0
M  V30 844 H 74.711 4.60028 -3.05088 0
M  V30 845 H 77.187 3.97565 -1.22805 0
M  V30 846 H 76.063 5.35838 -1.19033 0
M  V30 847 H 76.324 4.41294 0.266891 0
M  V30 848 N 75.3831 0.828654 1.34056 0
M  V30 849 C 76.6301 0.419458 1.98108 0
M  V30 850 C 76.9581 -1.01886 1.65679 0
M  V30 851 O 76.2131 -1.72539 0.923512 0
M  V30 852 C 76.5121 0.575226 3.52741 0
M  V30 853 C 76.1781 1.98012 4.05095 0
M  V30 854 C 74.8401 2.36442 4.19104 0
M  V30 855 C 77.1921 2.89824 4.33188 0
M  V30 856 C 74.5201 3.66009 4.58535 0
M  V30 857 C 76.8721 4.1886 4.74066 0
M  V30 858 C 75.5361 4.5726 4.86281 0
M  V30 859 H 74.8061 0.153491 0.724929 0
M  V30 860 H 77.4531 1.05371 1.59904 0
M  V30 861 H 75.7581 -0.142385 3.91541 0
M  V30 862 H 77.4551 0.239057 4.00287 0
M  V30 863 H 74.0451 1.67162 3.94658 0
M  V30 864 H 78.2291 2.61375 4.21897 0
M  V30 865 H 73.4851 3.95579 4.66184 0
M  V30 866 H 77.6591 4.90086 4.94761 0
M  V30 867 H 75.2861 5.57707 5.16592 0
M  V30 868 N 76.8612 -1.46375 0.584142 0
M  V30 869 C 78.0912 -2.06461 0.0758195 0
M  V30 870 C 78.4992 -1.43322 -1.23512 0
M  V30 871 O 77.8422 -0.533216 -1.75791 0
M  V30 872 C 77.9042 -3.59131 -0.162773 0
M  V30 873 C 77.5682 -4.4447 1.06279 0
M  V30 874 C 78.5652 -4.80918 1.97519 0
M  V30 875 C 76.2502 -4.85584 1.28504 0
M  V30 876 C 78.2442 -5.57309 3.09331 0
M  V30 877 C 75.9312 -5.61734 2.4062 0
M  V30 878 C 76.9292 -5.9751 3.30863 0
M  V30 879 O 76.6172 -6.72121 4.41032 0
M  V30 880 H 76.3492 -0.673745 0.0551725 0
M  V30 881 H 78.9032 -1.88969 0.804984 0
M  V30 882 H 77.1332 -3.74936 -0.946565 0
M  V30 883 H 78.8222 -4.0114 -0.619782 0
M  V30 884 H 79.5882 -4.49732 1.81565 0
M  V30 885 H 75.4672 -4.57187 0.591702 0
M  V30 886 H 79.0112 -5.85152 3.79793 0
M  V30 887 H 74.9082 -5.92334 2.56537 0
M  V30 888 H 75.6762 -6.90547 4.39417 0
M  V30 889 N 78.3393 -0.321999 -1.54275 0
M  V30 890 C 79.5853 0.274234 -2.01543 0
M  V30 891 C 79.9403 1.499 -1.20614 0
M  V30 892 O 79.2333 1.89546 -0.279804 0
M  V30 893 C 79.4273 0.661769 -3.5122 0
M  V30 894 C 79.2563 -0.523892 -4.46638 0
M  V30 895 C 78.0263 -1.02251 -4.94846 0
M  V30 896 C 80.2243 -1.37558 -4.95563 0
M  V30 897 N 78.2063 -2.17274 -5.74165 0
M  V30 898 C 79.5773 -2.37301 -5.7279 0
M  V30 899 C 81.6323 -1.40353 -4.77709 0
M  V30 900 C 80.3353 -3.3964 -6.34064 0
M  V30 901 C 82.3613 -2.41562 -5.39817 0
M  V30 902 C 81.7233 -3.40031 -6.16894 0
M  V30 903 H 77.8223 0.0642367 -0.779357 0
M  V30 904 H 80.4063 -0.456683 -1.89268 0
M  V30 905 H 78.5773 1.36182 -3.63743 0
M  V30 906 H 80.3093 1.23934 -3.85256 0
M  V30 907 H 77.0643 -0.594046 -4.6986 0
M  V30 908 H 77.4883 -2.75289 -6.18502 0
M  V30 909 H 82.1303 -0.655907 -4.17681 0
M  V30 910 H 79.8483 -4.15309 -6.93213 0
M  V30 911 H 83.4343 -2.44524 -5.2792 0
M  V30 912 H 82.3143 -4.17063 -6.64099 0
M  V30 913 N 79.8174 1.5752 -0.0501392 0
M  V30 914 C 81.0664 1.91827 0.623328 0
M  V30 915 C 81.3794 0.930222 1.72065 0
M  V30 916 O 82.5854 1.1653 2.4522 0
M  V30 917 C 81.0414 3.40692 1.16003 0
M  V30 918 C 80.6494 4.479 0.0948811 0
M  V30 919 C 82.3934 3.84034 1.80881 0
M  V30 920 C 80.3004 5.87879 0.644411 0
M  V30 921 H 79.2304 0.715918 0.236596 0
M  V30 922 H 81.8814 1.83115 -0.118861 0
M  V30 923 H 80.2634 3.44405 1.9545 0
M  V30 924 H 81.4374 4.55775 -0.678675 0
M  V30 925 H 79.7524 4.13892 -0.45637 0
M  V30 926 H 82.3494 4.85984 2.22988 0
M  V30 927 H 82.6924 3.20225 2.6601 0
M  V30 928 H 83.2254 3.82833 1.0809 0
M  V30 929 H 79.9644 6.55282 -0.169229 0
M  V30 930 H 79.4844 5.83567 1.38598 0
M  V30 931 H 81.1634 6.37098 1.12763 0
M  V30 932 N 81.2955 -0.223234 1.56011 0
M  V30 933 C 82.7065 -0.790368 1.69145 0
M  V30 934 C 83.0575 -1.85055 0.651845 0
M  V30 935 O 82.1825 -2.15498 -0.197359 0
M  V30 936 C 82.7775 -1.4404 3.06656 0
M  V30 937 C 81.3365 -1.95494 3.2165 0
M  V30 938 C 80.4835 -0.814506 2.65068 0
M  V30 939 H 83.4345 0.00139011 1.587 0
M  V30 940 H 83.4555 -2.30916 3.0242 0
M  V30 941 H 82.9675 -0.668543 3.82298 0
M  V30 942 H 81.0685 -2.75487 2.50874 0
M  V30 943 H 81.1815 -2.13607 4.28846 0
M  V30 944 H 79.5455 -1.22137 2.23505 0
M  V30 945 H 80.3285 -0.0553515 3.43255 0
M  V30 946 N 82.7736 -1.49793 -0.48987 0
M  V30 947 C 84.0196 -1.61049 -1.24236 0
M  V30 948 C 84.3746 -0.298412 -1.90072 0
M  V30 949 O 83.6676 0.702262 -1.78266 0
M  V30 950 C 83.8616 -2.71488 -2.32441 0
M  V30 951 C 83.6906 -4.13308 -1.77218 0
M  V30 952 C 82.4606 -4.79955 -1.58023 0
M  V30 953 C 84.6586 -4.98176 -1.27772 0
M  V30 954 N 82.6406 -6.06052 -0.978465 0
M  V30 955 C 84.0116 -6.14843 -0.798 0
M  V30 956 C 86.0666 -4.84091 -1.16449 0
M  V30 957 C 84.7696 -7.18975 -0.216245 0
M  V30 958 C 86.7956 -5.88382 -0.596698 0
M  V30 959 C 86.1576 -7.04285 -0.127262 0
M  V30 960 H 82.2566 -0.643611 -0.444172 0
M  V30 961 H 84.8406 -1.86842 -0.54754 0
M  V30 962 H 83.0116 -2.47449 -2.99372 0
M  V30 963 H 84.7436 -2.72205 -2.99477 0
M  V30 964 H 81.4986 -4.36936 -1.82712 0
M  V30 965 H 81.9226 -6.73407 -0.696534 0
M  V30 966 H 86.5646 -3.94786 -1.5134 0
M  V30 967 H 84.2826 -8.0797 0.144903 0
M  V30 968 H 87.8686 -5.79545 -0.511716 0
M  V30 969 H 86.7486 -7.83606 0.30523 0
M  V30 970 N 84.2517 0.741722 -1.39055 0
M  V30 971 C 85.4987 1.50114 -1.35912 0
M  V30 972 C 85.8267 1.94443 0.0470937 0
M  V30 973 O 85.0817 1.66612 1.02659 0
M  V30 974 C 85.3807 2.7592 -2.27163 0
M  V30 975 C 85.0467 2.50493 -3.74919 0
M  V30 976 C 83.7087 2.43267 -4.1518 0
M  V30 977 C 86.0607 2.28585 -4.684 0
M  V30 978 C 83.3887 2.12166 -5.46994 0
M  V30 979 C 85.7407 1.99002 -6.00484 0
M  V30 980 C 84.4047 1.90241 -6.39816 0
M  V30 981 H 83.6747 0.549306 -0.497336 0
M  V30 982 H 86.3217 0.851896 -1.71508 0
M  V30 983 H 84.6267 3.45553 -1.84663 0
M  V30 984 H 86.3237 3.33923 -2.22028 0
M  V30 985 H 82.9137 2.56992 -3.43006 0
M  V30 986 H 87.0977 2.33139 -4.38132 0
M  V30 987 H 82.3537 2.03901 -5.76398 0
M  V30 988 H 86.5277 1.81057 -6.72452 0
M  V30 989 H 84.1547 1.65907 -7.41875 0
M  V30 990 N 85.7298 1.2412 0.971189 0
M  V30 991 C 86.9778 1.07668 1.71032 0
M  V30 992 C 87.2988 -0.385797 1.91146 0
M  V30 993 O 86.5688 -1.27569 1.4867 0
M  V30 994 H 85.1488 0.395429 0.633755 0
M  V30 995 H 87.8108 1.55984 1.16855 0
M  V30 996 H 86.9068 1.57195 2.69622 0
M  V30 997 N 87.2079 -1.17134 1.05439 0
M  V30 998 C 88.4329 -1.91913 0.786396 0
M  V30 999 C 88.8579 -1.7643 -0.652234 0
M  V30 1000 O 88.2159 -1.08372 -1.45345 0
M  V30 1001 C 88.2639 -3.40921 1.17497 0
M  V30 1002 O 87.3679 -4.11244 0.308589 0
M  V30 1003 H 86.7089 -0.598215 0.288158 0
M  V30 1004 H 89.2389 -1.48457 1.4079 0
M  V30 1005 H 89.2489 -3.91668 1.14281 0
M  V30 1006 H 87.9239 -3.5151 2.22292 0
M  V30 1007 H 86.5009 -3.70731 0.40157 0
M  V30 1008 N 88.686 -0.835752 -1.33615 0
M  V30 1009 C 89.649 -0.272 -2.2758 0
M  V30 1010 C 90.649 0.557487 -1.50827 0
M  V30 1011 O 91.839 0.37173 -1.70188 0
M  V30 1012 C 88.971 0.617173 -3.35267 0
M  V30 1013 H 90.164 -1.10111 -2.78954 0
M  V30 1014 H 87.717 -0.608594 -1.43965 0
M  V30 1015 H 88.452 1.46884 -2.89129 0
M  V30 1016 H 88.237 0.0237066 -3.92093 0
M  V30 1017 H 89.727 1.005 -4.05326 0
M  V30 1018 N 90.1641 1.46063 -0.591896 0
M  V30 1019 C 91.1271 2.28854 0.125973 0
M  V30 1020 C 92.1271 1.38903 0.810107 0
M  V30 1021 O 93.3171 1.61186 0.66066 0
M  V30 1022 C 90.4491 3.19526 1.1881 0
M  V30 1023 H 91.6421 2.93802 -0.601717 0
M  V30 1024 H 89.1951 1.52325 -0.350254 0
M  V30 1025 H 89.9301 2.59345 1.94707 0
M  V30 1026 H 89.7151 3.85766 0.701936 0
M  V30 1027 H 91.2051 3.81817 1.69132 0
M  V30 1028 N 91.6422 0.330177 1.54103 0
M  V30 1029 C 92.8672 -0.274893 2.0557 0
M  V30 1030 C 93.2922 -1.44487 1.20437 0
M  V30 1031 O 92.6502 -1.80021 0.214991 0
M  V30 1032 C 92.6982 -0.68079 3.54115 0
M  V30 1033 O 91.8022 -1.7824 3.71893 0
M  V30 1034 H 91.1432 -0.0483849 0.662235 0
M  V30 1035 H 93.6732 0.480508 1.98878 0
M  V30 1036 H 93.6832 -0.961635 3.96505 0
M  V30 1037 H 92.3582 0.174903 4.15532 0
M  V30 1038 H 90.9352 -1.49985 3.41407 0
M  V30 1039 N 93.1203 -1.57491 0.0584922 0
M  V30 1040 C 94.3503 -1.9701 -0.622134 0
M  V30 1041 C 94.7583 -0.935034 -1.6448 0
M  V30 1042 O 94.1013 0.0882904 -1.83488 0
M  V30 1043 C 94.1633 -3.32794 -1.35972 0
M  V30 1044 C 93.8273 -4.54343 -0.492043 0
M  V30 1045 C 94.8243 -5.19323 0.244901 0
M  V30 1046 C 92.5093 -5.00534 -0.420821 0
M  V30 1047 C 94.5033 -6.28835 1.04143 0
M  V30 1048 C 92.1903 -6.09921 0.379389 0
M  V30 1049 C 93.1883 -6.73933 1.10919 0
M  V30 1050 O 92.8763 -7.81216 1.89623 0
M  V30 1051 H 92.6083 -0.653127 -0.174359 0
M  V30 1052 H 95.1623 -2.05029 0.123418 0
M  V30 1053 H 93.3923 -3.21351 -2.15105 0
M  V30 1054 H 95.0813 -3.5701 -1.93129 0
M  V30 1055 H 95.8473 -4.8459 0.19939 0
M  V30 1056 H 91.7263 -4.50496 -0.978474 0
M  V30 1057 H 95.2703 -6.7873 1.61157 0
M  V30 1058 H 91.1673 -6.44089 0.426512 0
M  V30 1059 H 91.9353 -7.98029 1.81913 0
M  V30 1060 N 94.5984 0.214957 -1.56127 0
M  V30 1061 C 95.8464 0.936518 -1.79091 0
M  V30 1062 C 96.1674 1.84606 -0.628148 0
M  V30 1063 O 95.4374 1.92664 0.35462 0
M  V30 1064 H 94.0174 0.3488 -0.660566 0
M  V30 1065 H 96.6794 0.22523 -1.93594 0
M  V30 1066 H 95.7754 1.53943 -2.71492 0
M  V30 1067 N 96.0765 1.50051 0.48192 0
M  V30 1068 C 97.0085 1.64263 1.59844 0
M  V30 1069 C 98.0215 0.52451 1.54119 0
M  V30 1070 O 99.2105 0.797293 1.59704 0
M  V30 1071 C 96.3105 1.60102 2.98698 0
M  V30 1072 C 95.4835 2.87767 3.29407 0
M  V30 1073 C 94.5425 2.76397 4.47762 0
M  V30 1074 O 93.5685 3.50348 4.48603 0
M  V30 1075 N 94.7705 1.89222 5.48794 0
M  V30 1076 H 97.5355 2.60566 1.48073 0
M  V30 1077 H 95.0965 1.47379 0.670149 0
M  V30 1078 H 97.0885 1.50123 3.75826 0
M  V30 1079 H 95.6585 0.715798 3.04294 0
M  V30 1080 H 94.8785 3.11954 2.40994 0
M  V30 1081 H 96.1665 3.72365 3.4673 0
M  V30 1082 H 95.5645 1.28434 5.50928 0
M  V30 1083 H 94.1215 1.85154 6.24949 0
M  V30 1084 N 97.5546 -0.734337 1.39446 0
M  V30 1085 C 98.4866 -1.85861 1.34121 0
M  V30 1086 C 99.4996 -1.60871 0.249864 0
M  V30 1087 O 100.689 -1.71093 0.508865 0
M  V30 1088 C 97.7886 -3.21899 1.05991 0
M  V30 1089 C 96.9616 -3.74239 2.26415 0
M  V30 1090 C 96.0206 -4.88841 1.94733 0
M  V30 1091 O 95.0466 -5.02468 2.67422 0
M  V30 1092 N 96.2486 -5.73261 0.913884 0
M  V30 1093 H 99.0136 -1.90934 2.31007 0
M  V30 1094 H 96.5746 -0.915102 1.33557 0
M  V30 1095 H 98.5666 -3.96136 0.828147 0
M  V30 1096 H 97.1366 -3.12091 0.178361 0
M  V30 1097 H 96.3566 -2.91347 2.65539 0
M  V30 1098 H 97.6446 -4.05942 3.06738 0
M  V30 1099 H 97.0426 -5.64842 0.311476 0
M  V30 1100 H 95.5996 -6.47563 0.742015 0
M  V30 1101 N 99.0327 -1.24633 -0.964593 0
M  V30 1102 C 100.444 -1.08045 -1.5226 0
M  V30 1103 C 100.795 0.347116 -1.93105 0
M  V30 1104 O 99.9197 1.23588 -1.77637 0
M  V30 1105 C 100.515 -1.95514 -2.76695 0
M  V30 1106 C 99.0737 -1.8314 -3.28841 0
M  V30 1107 C 98.2207 -1.90262 -2.01732 0
M  V30 1108 H 101.172 -1.38064 -0.782553 0
M  V30 1109 H 101.193 -1.48925 -3.50145 0
M  V30 1110 H 100.705 -2.99407 -2.46936 0
M  V30 1111 H 98.8057 -0.82092 -3.63444 0
M  V30 1112 H 98.9187 -2.67406 -3.97531 0
M  V30 1113 H 97.2827 -1.34027 -2.16584 0
M  V30 1114 H 98.0657 -2.9574 -1.74334 0
M  V30 1115 N 100.511 1.16574 -1.06058 0
M  V30 1116 C 101.741 1.90675 -0.795397 0
M  V30 1117 C 102.149 1.77547 0.653735 0
M  V30 1118 O 101.492 1.11611 1.45907 0
M  V30 1119 C 101.554 3.42011 -1.10764 0
M  V30 1120 C 101.218 3.78924 -2.55471 0
M  V30 1121 C 102.215 3.81042 -3.53699 0
M  V30 1122 C 99.8998 4.09626 -2.90708 0
M  V30 1123 C 101.894 4.13346 -4.85205 0
M  V30 1124 C 99.5808 4.41597 -4.22416 0
M  V30 1125 C 100.579 4.43436 -5.19474 0
M  V30 1126 O 100.267 4.74649 -6.48817 0
M  V30 1127 H 99.9988 0.611554 -0.288058 0
M  V30 1128 H 102.553 1.48711 -1.41683 0
M  V30 1129 H 100.783 3.84312 -0.429128 0
M  V30 1130 H 102.472 3.97384 -0.827077 0
M  V30 1131 H 103.238 3.57437 -3.27817 0
M  V30 1132 H 99.1168 4.07361 -2.15819 0
M  V30 1133 H 102.661 4.14696 -5.60957 0
M  V30 1134 H 98.5578 4.64667 -4.48056 0
M  V30 1135 H 99.3258 4.9247 -6.5377 0
M  V30 1136 N 101.989 0.842826 1.3317 0
M  V30 1137 C 102.899 0.281444 2.32906 0
M  V30 1138 C 103.915 -0.594587 1.63526 0
M  V30 1139 O 105.091 -0.49777 1.95152 0
M  V30 1140 C 102.156 -0.530929 3.42611 0
M  V30 1141 C 101.217 0.369843 4.27704 0
M  V30 1142 C 100.45 -0.403853 5.3217 0
M  V30 1143 O 100.673 -1.63513 5.46461 0
M  V30 1144 O 99.6069 0.224199 6.01482 0
M  V30 1145 H 103.433 1.10744 2.82789 0
M  V30 1146 H 101.018 0.60545 1.36582 0
M  V30 1147 H 102.9 -0.992437 4.09547 0
M  V30 1148 H 101.575 -1.33392 2.94938 0
M  V30 1149 H 100.482 0.879275 3.6362 0
M  V30 1150 H 101.815 1.13771 4.78871 0
M  V30 1151 N 103.467 -1.45747 0.599634 0
M  V30 1152 C 104.714 -2.02292 0.0917284 0
M  V30 1153 C 105.042 -1.46906 -1.27472 0
M  V30 1154 O 104.297 -0.630652 -1.8526 0
M  V30 1155 C 104.596 -3.57399 -0.00602758 0
M  V30 1156 C 104.262 -4.31902 1.29503 0
M  V30 1157 C 102.924 -4.51974 1.65144 0
M  V30 1158 C 105.276 -4.74551 2.15525 0
M  V30 1159 C 102.604 -5.11949 2.86574 0
M  V30 1160 C 104.956 -5.35868 3.36196 0
M  V30 1161 C 103.62 -5.54165 3.72099 0
M  V30 1162 H 102.89 -0.740239 0.0335658 0
M  V30 1163 H 105.537 -1.7491 0.779661 0
M  V30 1164 H 103.842 -3.84014 -0.777183 0
M  V30 1165 H 105.539 -3.98846 -0.415038 0
M  V30 1166 H 102.129 -4.16588 1.00761 0
M  V30 1167 H 106.313 -4.58784 1.8929 0
M  V30 1168 H 101.569 -5.24305 3.14507 0
M  V30 1169 H 105.743 -5.6787 4.03109 0
M  V30 1170 H 103.37 -6.00406 4.6628 0
M  V30 1171 N 104.945 -0.338344 -1.53925 0
M  V30 1172 C 106.192 0.259758 -2.00827 0
M  V30 1173 C 106.52 1.50973 -1.22628 0
M  V30 1174 O 105.775 1.93379 -0.300509 0
M  V30 1175 C 106.074 0.62448 -3.51902 0
M  V30 1176 C 105.74 -0.528006 -4.47798 0
M  V30 1177 C 104.402 -0.844298 -4.73735 0
M  V30 1178 C 106.754 -1.30143 -5.0469 0
M  V30 1179 C 104.082 -1.93648 -5.53821 0
M  V30 1180 C 106.434 -2.38382 -5.85967 0
M  V30 1181 C 105.098 -2.70576 -6.10201 0
M  V30 1182 H 104.368 0.0950523 -0.734878 0
M  V30 1183 H 107.015 -0.465182 -1.85764 0
M  V30 1184 H 105.32 1.43006 -3.64769 0
M  V30 1185 H 107.017 1.09905 -3.85645 0
M  V30 1186 H 103.607 -0.271421 -4.2774 0
M  V30 1187 H 107.791 -1.07033 -4.84621 0
M  V30 1188 H 103.047 -2.19021 -5.70824 0
M  V30 1189 H 107.221 -2.98746 -6.29066 0
M  V30 1190 H 104.848 -3.55333 -6.72044 0
M  V30 1191 N 106.423 1.57458 -0.0668435 0
M  V30 1192 C 107.333 2.15937 0.916975 0
M  V30 1193 C 108.349 1.12123 1.33058 0
M  V30 1194 O 109.525 1.44366 1.40429 0
M  V30 1195 C 106.59 2.70547 2.16807 0
M  V30 1196 C 105.651 3.89215 1.81135 0
M  V30 1197 C 104.884 4.41211 3.0028 0
M  V30 1198 O 105.107 3.92225 4.14144 0
M  V30 1199 O 104.041 5.32605 2.80384 0
M  V30 1200 H 107.867 3.00354 0.449561 0
M  V30 1201 H 105.452 1.48584 0.155949 0
M  V30 1202 H 107.334 3.0557 2.90181 0
M  V30 1203 H 106.009 1.89192 2.62656 0
M  V30 1204 H 104.916 3.59054 1.05028 0
M  V30 1205 H 106.249 4.71848 1.40073 0
M  V30 1206 N 107.901 -0.206675 1.56239 0
M  V30 1207 C 109.126 -0.949474 1.8439 0
M  V30 1208 C 109.551 -1.76549 0.649016 0
M  V30 1209 O 108.909 -1.76782 -0.402231 0
M  V30 1210 C 108.957 -1.83078 3.10668 0
M  V30 1211 O 108.061 -2.9281 2.90407 0
M  V30 1212 H 107.402 -0.268033 0.607499 0
M  V30 1213 H 109.932 -0.215488 2.03462 0
M  V30 1214 H 109.942 -2.2377 3.41161 0
M  V30 1215 H 108.617 -1.23112 3.97261 0
M  V30 1216 H 107.194 -2.55956 2.71184 0
M  V30 1217 N 109.379 -1.50304 -0.473955 0
M  V30 1218 C 110.619 -1.62786 -1.23612 0
M  V30 1219 C 110.983 -0.319786 -1.89318 0
M  V30 1220 O 112.184 -0.320012 -2.66888 0
M  V30 1221 C 110.455 -2.77351 -2.25414 0
M  V30 1222 S 112.014 -3.09948 -3.10608 0
M  V30 1223 H 108.832 -0.573895 -0.419721 0
M  V30 1224 H 111.434 -1.88076 -0.533623 0
M  V30 1225 H 110.138 -3.70879 -1.75719 0
M  V30 1226 H 109.669 -2.54137 -3.00296 0
M  V30 1227 H 111.684 -2.53553 -4.26527 0
M  V30 1228 N 110.857 0.726932 -1.39834 0
M  V30 1229 C 112.273 1.03354 -1.21615 0
M  V30 1230 C 112.473 2.01327 -0.08338 0
M  V30 1231 O 111.529 2.46158 0.56238 0
M  V30 1232 C 112.842 1.58811 -2.55342 0
M  V30 1233 C 114.39 1.70851 -2.62257 0
M  V30 1234 C 114.865 2.29716 -3.96225 0
M  V30 1235 N 116.356 2.37116 -3.97907 0
M  V30 1236 C 117.091 2.83619 -4.98345 0
M  V30 1237 N 116.587 3.29958 -6.09179 0
M  V30 1238 N 118.38 2.82901 -4.8572 0
M  V30 1239 H 110.531 0.0773069 -2.12259 0
M  V30 1240 H 112.794 0.0969102 -0.943034 0
M  V30 1241 H 112.5 0.942855 -3.38826 0
M  V30 1242 H 112.374 2.57502 -2.75632 0
M  V30 1243 H 114.761 2.34497 -1.79152 0
M  V30 1244 H 114.842 0.707913 -2.45809 0
M  V30 1245 H 114.486 1.66696 -4.79765 0
M  V30 1246 H 114.416 3.30469 -4.09997 0
M  V30 1247 H 116.907 2.04374 -3.17868 0
M  V30 1248 H 117.22 3.63976 -6.8172 0
M  V30 1249 H 115.565 3.27946 -6.12761 0
M  V30 1250 H 118.756 2.46027 -3.98231 0
M  V30 1251 H 118.929 3.18827 -5.6414 0
M  V30 1252 N 112.336 1.25143 0.95797 0
M  V30 1253 C 113.268 1.01023 2.05735 0
M  V30 1254 C 114.281 -0.0236902 1.62783 0
M  V30 1255 O 115.47 0.21448 1.77207 0
M  V30 1256 C 112.57 0.504595 3.35122 0
M  V30 1257 C 111.743 1.6039 4.06932 0
M  V30 1258 C 110.802 1.09922 5.14591 0
M  V30 1259 O 109.828 1.79293 5.40225 0
M  V30 1260 N 111.03 -0.0612545 5.80468 0
M  V30 1261 H 113.795 1.95683 2.26998 0
M  V30 1262 H 111.356 1.16303 1.12629 0
M  V30 1263 H 113.348 0.151516 4.04416 0
M  V30 1264 H 111.918 -0.347989 3.10657 0
M  V30 1265 H 111.138 2.12872 3.31782 0
M  V30 1266 H 112.426 2.34252 4.51667 0
M  V30 1267 H 111.824 -0.640985 5.62057 0
M  V30 1268 H 110.381 -0.355395 6.5083 0
M  V30 1269 N 113.814 -1.1601 1.06675 0
M  V30 1270 C 114.761 -2.20525 0.680967 0
M  V30 1271 C 115.731 -1.62904 -0.324283 0
M  V30 1272 O 116.916 -1.89615 -0.212294 0
M  V30 1273 C 114.056 -3.45013 0.0776551 0
M  V30 1274 C 113.169 -4.16863 1.13355 0
M  V30 1275 C 112.304 -5.2888 0.49597 0
M  V30 1276 C 111.343 -5.92537 1.53513 0
M  V30 1277 N 110.48 -6.96038 0.920631 0
M  V30 1278 H 115.32 -2.52876 1.57663 0
M  V30 1279 H 112.857 -1.24199 0.788223 0
M  V30 1280 H 114.815 -4.16193 -0.289704 0
M  V30 1281 H 113.445 -3.132 -0.781393 0
M  V30 1282 H 112.497 -3.44248 1.61857 0
M  V30 1283 H 113.809 -4.60294 1.92174 0
M  V30 1284 H 112.963 -6.06653 0.0758604 0
M  V30 1285 H 111.702 -4.86622 -0.324062 0
M  V30 1286 H 110.707 -5.13482 1.9651 0
M  V30 1287 H 111.932 -6.36873 2.35733 0
M  V30 1288 H 109.878 -6.55888 0.12138 0
M  V30 1289 H 109.795 -7.3786 1.64616 0
M  V30 1290 H 111.063 -7.77725 0.525795 0
M  V30 1291 N 115.292 -0.849877 -1.32721 0
M  V30 1292 C 116.522 -0.46408 -2.0132 0
M  V30 1293 C 116.93 0.94246 -1.64056 0
M  V30 1294 O 116.273 1.6257 -0.855379 0
M  V30 1295 C 116.335 -0.517887 -3.5575 0
M  V30 1296 C 115.999 -1.88248 -4.16427 0
M  V30 1297 C 116.996 -2.84726 -4.35002 0
M  V30 1298 C 114.681 -2.17832 -4.52609 0
M  V30 1299 C 116.675 -4.08945 -4.8892 0
M  V30 1300 C 114.362 -3.42304 -5.06232 0
M  V30 1301 C 115.36 -4.37677 -5.24335 0
M  V30 1302 O 115.048 -5.59946 -5.76815 0
M  V30 1303 H 114.78 -0.181327 -0.651227 0
M  V30 1304 H 117.334 -1.14713 -1.70382 0
M  V30 1305 H 115.564 0.221997 -3.86062 0
M  V30 1306 H 117.253 -0.148366 -4.05629 0
M  V30 1307 H 118.019 -2.63174 -4.07388 0
M  V30 1308 H 113.898 -1.44385 -4.37806 0
M  V30 1309 H 117.442 -4.83396 -5.02966 0
M  V30 1310 H 113.339 -3.63709 -5.33278 0
M  V30 1311 H 114.107 -5.61838 -5.95214 0
M  V30 1312 N 116.77 1.45427 -0.607355 0
M  V30 1313 C 118.018 2.01841 -0.102253 0
M  V30 1314 C 118.339 1.47832 1.27164 0
M  V30 1315 O 117.609 0.672497 1.83995 0
M  V30 1316 H 116.189 0.746188 -0.0348101 0
M  V30 1317 H 118.851 1.78229 -0.7887 0
M  V30 1318 H 117.947 3.12057 -0.0518585 0
M  V30 1319 N 118.248 0.346503 1.53744 0
M  V30 1320 C 119.525 -0.304532 1.93215 0
M  V30 1321 C 119.905 -1.67993 1.27834 0
M  V30 1322 O 119.253 -2.24411 0.430352 0
M  V30 1323 C 119.463 -0.373852 3.46992 0
M  V30 1324 C 120.811 -0.62329 4.2 0
M  V30 1325 O 121.835 -0.455847 3.53271 0
M  V30 1326 O 120.694 -0.947879 5.38217 0
M  V30 1327 H 117.788 -0.178318 0.807547 0
M  V30 1328 H 120.334 0.397895 1.64969 0
M  V30 1329 H 119.106 0.591224 3.86808 0
M  V30 1330 H 118.729 -1.12294 3.81413 0
M  V30 1331 N 119.726 -1.57421 0.075193 0
M  V30 1332 C 120.972 -1.93905 -0.594025 0
M  V30 1333 C 121.305 -0.955701 -1.69056 0
M  V30 1334 O 120.58 0.0145373 -1.94495 0
M  V30 1335 C 120.863 -3.40638 -1.1678 0
M  V30 1336 C 120.716 -4.49733 -0.0776792 0
M  V30 1337 C 122.035 -3.88259 -2.07228 0
M  V30 1338 H 119.154 -0.705105 -0.214466 0
M  V30 1339 H 121.796 -1.8947 0.141854 0
M  V30 1340 H 119.946 -3.44549 -1.79494 0
M  V30 1341 H 121.618 -4.57942 0.555573 0
M  V30 1342 H 119.861 -4.29751 0.591286 0
M  V30 1343 H 120.532 -5.49549 -0.519603 0
M  V30 1344 H 123.008 -3.86376 -1.54445 0
M  V30 1345 H 121.884 -4.91533 -2.44308 0
M  V30 1346 H 122.145 -3.26396 -2.98191 0
M  V30 1347 N 121.204 0.198386 -1.56346 0
M  V30 1348 C 122.451 0.919286 -1.80431 0
M  V30 1349 C 122.779 1.83393 -0.647866 0
M  V30 1350 O 122.034 1.92236 0.366556 0
M  V30 1351 C 122.333 1.77031 -3.10475 0
M  V30 1352 C 121.999 1.00693 -4.39513 0
M  V30 1353 C 120.661 0.796145 -4.74568 0
M  V30 1354 C 123.013 0.469559 -5.19081 0
M  V30 1355 C 120.341 0.0364588 -5.86689 0
M  V30 1356 C 122.693 -0.2769 -6.31994 0
M  V30 1357 C 121.357 -0.49873 -6.65634 0
M  V30 1358 H 120.627 0.336391 -0.660244 0
M  V30 1359 H 123.274 0.185872 -1.90596 0
M  V30 1360 H 121.579 2.5723 -2.95533 0
M  V30 1361 H 123.276 2.33065 -3.26315 0
M  V30 1362 H 119.866 1.18122 -4.12001 0
M  V30 1363 H 124.05 0.619816 -4.92414 0
M  V30 1364 H 119.306 -0.145412 -6.11227 0
M  V30 1365 H 123.48 -0.700684 -6.92866 0
M  V30 1366 H 121.107 -1.0893 -7.52355 0
M  V30 1367 N 122.682 1.50554 0.465978 0
M  V30 1368 C 123.907 1.65838 1.24549 0
M  V30 1369 C 124.332 0.343486 1.84937 0
M  V30 1370 O 123.69 -0.69324 1.67523 0
M  V30 1371 C 123.738 2.75533 2.32624 0
M  V30 1372 O 122.842 2.37142 3.37398 0
M  V30 1373 H 122.183 0.553893 0.366194 0
M  V30 1374 H 124.713 1.96959 0.553927 0
M  V30 1375 H 124.723 2.98763 2.77857 0
M  V30 1376 H 123.398 3.70962 1.88043 0
M  V30 1377 H 121.975 2.24377 2.97841 0
M  V30 1378 N 124.16 -0.719506 1.40217 0
M  V30 1379 C 125.407 -1.47933 1.38283 0
M  V30 1380 C 125.735 -1.94493 -0.0161536 0
M  V30 1381 O 124.99 -1.68224 -0.999956 0
M  V30 1382 C 125.289 -2.72271 2.31524 0
M  V30 1383 C 124.955 -2.44496 3.78857 0
M  V30 1384 C 123.617 -2.36631 4.18998 0
M  V30 1385 C 125.969 -2.21104 4.71977 0
M  V30 1386 C 123.297 -2.03437 5.503 0
M  V30 1387 C 125.649 -1.89423 6.03574 0
M  V30 1388 C 124.313 -1.80038 6.42762 0
M  V30 1389 H 123.583 -0.541325 0.506012 0
M  V30 1390 H 126.23 -0.824502 1.72842 0
M  V30 1391 H 124.535 -3.42572 1.90137 0
M  V30 1392 H 126.232 -3.30348 2.27313 0
M  V30 1393 H 122.822 -2.51503 3.47051 0
M  V30 1394 H 127.006 -2.26139 4.41786 0
M  V30 1395 H 122.262 -1.94705 5.79569 0
M  V30 1396 H 126.436 -1.70336 6.75247 0
M  V30 1397 H 124.063 -1.54083 7.44421 0
M  V30 1398 N 125.638 -1.25649 -0.95132 0
M  V30 1399 C 126.571 -1.00644 -2.04807 0
M  V30 1400 C 127.549 0.0654271 -1.62468 0
M  V30 1401 O 128.733 -0.074911 -1.88351 0
M  V30 1402 C 125.86 -0.522052 -3.34653 0
M  V30 1403 C 124.906 -1.58495 -3.95957 0
M  V30 1404 S 125.739 -3.17108 -4.31512 0
M  V30 1405 C 126.895 -2.70412 -5.64471 0
M  V30 1406 H 127.128 -1.93508 -2.25703 0
M  V30 1407 H 124.661 -1.09216 -1.09139 0
M  V30 1408 H 126.619 -0.24923 -4.09743 0
M  V30 1409 H 125.28 0.386146 -3.11717 0
M  V30 1410 H 124.473 -1.1968 -4.89584 0
M  V30 1411 H 124.075 -1.80862 -3.2736 0
M  V30 1412 H 126.367 -2.14245 -6.42733 0
M  V30 1413 H 127.31 -3.62693 -6.08161 0
M  V30 1414 H 127.718 -2.10302 -5.23864 0
M  V30 1415 N 127.117 1.15442 -1.07289 0
M  V30 1416 C 128.047 2.22312 -0.714107 0
M  V30 1417 C 129.028 1.67467 0.298155 0
M  V30 1418 O 130.213 1.93445 0.171048 0
M  V30 1419 C 127.343 3.47124 -0.110448 0
M  V30 1420 C 126.297 4.14926 -1.04979 0
M  V30 1421 C 125.623 5.33807 -0.308924 0
M  V30 1422 C 126.923 4.64762 -2.38314 0
M  V30 1423 H 128.617 2.5258 -1.6076 0
M  V30 1424 H 126.163 1.21404 -0.77441 0
M  V30 1425 H 128.116 4.21124 0.152482 0
M  V30 1426 H 126.84 3.16187 0.81812 0
M  V30 1427 H 125.499 3.42866 -1.29764 0
M  V30 1428 H 125.147 4.99126 0.623084 0
M  V30 1429 H 124.847 5.80113 -0.935036 0
M  V30 1430 H 126.371 6.10576 -0.0537771 0
M  V30 1431 H 127.785 5.30292 -2.1786 0
M  V30 1432 H 126.182 5.21728 -2.96514 0
M  V30 1433 H 127.252 3.80434 -3.00663 0
M  V30 1434 N 128.595 0.856903 1.32268 0
M  V30 1435 C 129.525 0.31858 2.31316 0
M  V30 1436 C 130.506 -0.583487 1.59779 0
M  V30 1437 O 131.691 -0.503259 1.87566 0
M  V30 1438 C 128.821 -0.491979 3.43798 0
M  V30 1439 C 127.775 0.315849 4.26833 0
M  V30 1440 C 127.101 -0.619586 5.31098 0
M  V30 1441 C 128.401 1.54282 4.98993 0
M  V30 1442 H 130.095 1.14621 2.76591 0
M  V30 1443 H 127.641 0.552613 1.32974 0
M  V30 1444 H 129.594 -0.879012 4.1213 0
M  V30 1445 H 128.318 -1.35299 2.97257 0
M  V30 1446 H 126.977 0.684664 3.6015 0
M  V30 1447 H 126.625 -1.47751 4.8081 0
M  V30 1448 H 126.325 -0.0830621 5.87541 0
M  V30 1449 H 127.849 -1.00375 6.02293 0
M  V30 1450 H 129.263 1.22796 5.59995 0
M  V30 1451 H 127.66 2.01745 5.65172 0
M  V30 1452 H 128.73 2.30285 4.26728 0
M  V30 1453 N 130.073 -1.45103 0.615059 0
M  V30 1454 C 131.321 -2.01784 0.112955 0
M  V30 1455 C 131.642 -1.48504 -1.26378 0
M  V30 1456 O 130.912 -0.682245 -1.83636 0
M  V30 1457 H 129.492 -0.745993 0.0387668 0
M  V30 1458 H 132.154 -1.77808 0.798141 0
M  V30 1459 H 131.25 -3.12025 0.0684069 0
M  V30 1460 N 131.551 -0.354651 -1.53558 0
M  V30 1461 C 132.498 0.496968 -2.25386 0
M  V30 1462 C 133.468 1.0865 -1.25636 0
M  V30 1463 O 134.653 1.12104 -1.54394 0
M  V30 1464 C 131.793 1.63637 -3.03837 0
M  V30 1465 C 130.906 1.07307 -4.18461 0
M  V30 1466 C 130.041 2.18068 -4.84376 0
M  V30 1467 C 129.08 1.59147 -5.91049 0
M  V30 1468 N 128.217 2.63695 -6.50699 0
M  V30 1469 H 133.057 -0.122075 -2.9775 0
M  V30 1470 H 130.594 -0.0720154 -1.46924 0
M  V30 1471 H 132.552 2.30734 -3.47589 0
M  V30 1472 H 131.182 2.22623 -2.33749 0
M  V30 1473 H 130.234 0.292708 -3.79272 0
M  V30 1474 H 131.546 0.602193 -4.95152 0
M  V30 1475 H 130.7 2.93007 -5.31255 0
M  V30 1476 H 129.439 2.68504 -4.07133 0
M  V30 1477 H 128.444 0.827175 -5.43542 0
M  V30 1478 H 129.669 1.09549 -6.70206 0
M  V30 1479 H 127.615 3.13365 -5.76315 0
M  V30 1480 H 127.532 2.21263 -7.22896 0
M  V30 1481 H 128.8 3.3837 -7.02229 0
M  V30 1482 N 133.029 1.57378 -0.0835403 0
M  V30 1483 C 134.278 1.93106 0.582498 0
M  V30 1484 C 134.591 0.96651 1.70053 0
M  V30 1485 O 135.797 1.21705 2.42693 0
M  V30 1486 C 134.253 3.43076 1.08751 0
M  V30 1487 C 133.861 4.48 -0.000146404 0
M  V30 1488 C 135.605 3.87785 1.72694 0
M  V30 1489 C 133.512 5.89113 0.519568 0
M  V30 1490 H 132.442 0.720775 0.221358 0
M  V30 1491 H 135.093 1.82821 -0.157675 0
M  V30 1492 H 133.475 3.48474 1.88101 0
M  V30 1493 H 134.649 4.54233 -0.775199 0
M  V30 1494 H 132.964 4.1283 -0.54406 0
M  V30 1495 H 135.561 4.90604 2.1263 0
M  V30 1496 H 135.904 3.25796 2.59158 0
M  V30 1497 H 136.437 3.8504 0.999457 0
M  V30 1498 H 133.176 6.54775 -0.308186 0
M  V30 1499 H 132.696 5.86376 1.26188 0
M  V30 1500 H 134.375 6.39346 0.992237 0
M  V30 1501 N 134.507 -0.190092 1.56449 0
M  V30 1502 C 135.44 -1.26375 1.90012 0
M  V30 1503 C 136.418 -1.43705 0.760765 0
M  V30 1504 O 137.602 -1.59014 1.01226 0
M  V30 1505 C 134.729 -2.62962 2.13468 0
M  V30 1506 C 133.775 -2.62474 3.36169 0
M  V30 1507 S 134.608 -2.13412 4.91137 0
M  V30 1508 C 135.764 -3.51812 5.17667 0
M  V30 1509 H 135.997 -0.977181 2.80782 0
M  V30 1510 H 133.53 -0.393814 1.49293 0
M  V30 1511 H 135.488 -3.41583 2.27664 0
M  V30 1512 H 134.149 -2.88828 1.23439 0
M  V30 1513 H 133.342 -3.62918 3.49723 0
M  V30 1514 H 132.944 -1.91937 3.20992 0
M  V30 1515 H 135.236 -4.47706 5.08494 0
M  V30 1516 H 136.179 -3.43148 6.19399 0
M  V30 1517 H 136.587 -3.46956 4.45288 0
M  V30 1518 N 135.985 -1.50799 -0.457987 0
M  V30 1519 C 137.213 -1.66218 -1.23203 0
M  V30 1520 C 137.628 -0.350894 -1.85511 0
M  V30 1521 O 136.985 0.668546 -1.69814 0
M  V30 1522 C 137.036 -2.76291 -2.33121 0
M  V30 1523 O 136.757 -4.02338 -1.73366 0
M  V30 1524 C 138.258 -3.028 -3.2377 0
M  V30 1525 H 135.478 -0.558361 -0.372121 0
M  V30 1526 H 138.022 -1.97099 -0.545179 0
M  V30 1527 H 136.177 -2.48068 -2.97558 0
M  V30 1528 H 136.591 -4.63312 -2.4585 0
M  V30 1529 H 138.065 -3.8345 -3.97077 0
M  V30 1530 H 138.542 -2.14385 -3.83322 0
M  V30 1531 H 139.148 -3.32604 -2.65056 0
M  V30 1532 N 137.463 0.71206 -1.40597 0
M  V30 1533 C 138.709 1.47416 -1.39271 0
M  V30 1534 C 139.042 1.942 0.00388791 0
M  V30 1535 O 138.317 1.68403 0.973179 0
M  V30 1536 C 138.6 2.69774 -2.38525 0
M  V30 1537 C 138.453 2.28861 -3.87224 0
M  V30 1538 C 139.772 3.71939 -2.35264 0
M  V30 1539 H 136.891 0.534713 -0.5072 0
M  V30 1540 H 139.533 0.812375 -1.71757 0
M  V30 1541 H 137.683 3.26238 -2.10953 0
M  V30 1542 H 139.355 1.77852 -4.25636 0
M  V30 1543 H 137.598 1.60824 -4.02887 0
M  V30 1544 H 138.269 3.16584 -4.52193 0
M  V30 1545 H 140.745 3.25113 -2.59694 0
M  V30 1546 H 139.621 4.55186 -3.06753 0
M  V30 1547 H 139.882 4.20484 -1.36549 0
M  V30 1548 N 138.941 1.26152 0.944643 0
M  V30 1549 C 140.171 1.14094 1.72239 0
M  V30 1550 C 140.579 -0.306931 1.86694 0
M  V30 1551 O 139.922 -1.22222 1.3714 0
M  V30 1552 C 139.984 1.73316 3.14963 0
M  V30 1553 C 139.648 3.2239 3.23904 0
M  V30 1554 C 140.645 4.19252 3.07447 0
M  V30 1555 C 138.33 3.62788 3.47405 0
M  V30 1556 C 140.324 5.54491 3.14353 0
M  V30 1557 C 138.011 4.98162 3.53947 0
M  V30 1558 C 139.009 5.93823 3.37436 0
M  V30 1559 O 138.697 7.26732 3.43679 0
M  V30 1560 H 138.429 0.398292 0.546205 0
M  V30 1561 H 140.983 1.67201 1.19301 0
M  V30 1562 H 139.213 1.14667 3.69308 0
M  V30 1563 H 140.902 1.56214 3.74636 0
M  V30 1564 H 141.668 3.8938 2.8915 0
M  V30 1565 H 137.547 2.88816 3.59313 0
M  V30 1566 H 141.091 6.29137 3.01384 0
M  V30 1567 H 136.988 5.27695 3.71763 0
M  V30 1568 H 137.756 7.3496 3.60245 0
M  V30 1569 N 140.419 -1.14872 1.07899 0
M  V30 1570 C 141.349 -2.2193 0.725887 0
M  V30 1571 C 142.33 -1.67622 -0.28927 0
M  V30 1572 O 143.515 -1.93533 -0.160787 0
M  V30 1573 C 140.645 -3.47061 0.128856 0
M  V30 1574 C 139.599 -4.14363 1.07178 0
M  V30 1575 C 138.925 -5.33636 0.337229 0
M  V30 1576 C 140.225 -4.63492 2.40775 0
M  V30 1577 H 141.919 -2.51724 1.62097 0
M  V30 1578 H 139.465 -1.20991 0.780838 0
M  V30 1579 H 141.418 -4.21199 -0.130147 0
M  V30 1580 H 140.142 -3.16617 -0.80134 0
M  V30 1581 H 138.801 -3.42173 1.3158 0
M  V30 1582 H 138.449 -4.99449 -0.596606 0
M  V30 1583 H 138.149 -5.79609 0.965788 0
M  V30 1584 H 139.673 -6.10539 0.0861567 0
M  V30 1585 H 141.087 -5.2913 2.20669 0
M  V30 1586 H 139.484 -5.20148 2.99276 0
M  V30 1587 H 140.554 -3.78834 3.02676 0
M  V30 1588 N 141.898 -0.863906 -1.31812 0
M  V30 1589 C 143.146 -0.470904 -1.96537 0
M  V30 1590 C 143.467 0.978771 -1.68657 0
M  V30 1591 O 142.737 1.6853 -0.998717 0
M  V30 1592 H 141.317 -0.171148 -0.72713 0
M  V30 1593 H 143.979 -1.10236 -1.60729 0
M  V30 1594 H 143.075 -0.623616 -3.05806 0
M  V30 1595 N 143.376 1.44774 -0.622745 0
M  V30 1596 C 144.787 1.85546 -0.207226 0
M  V30 1597 C 145.138 1.52093 1.23944 0
M  V30 1598 O 144.263 0.95492 1.94191 0
M  V30 1599 C 144.858 3.36781 -0.369313 0
M  V30 1600 C 143.417 3.76399 -0.00836847 0
M  V30 1601 C 142.564 2.68664 -0.686651 0
M  V30 1602 H 145.515 1.3536 -0.828454 0
M  V30 1603 H 145.536 3.78453 0.394162 0
M  V30 1604 H 145.048 3.61098 -1.42231 0
M  V30 1605 H 143.149 3.57698 1.04322 0
M  V30 1606 H 143.262 4.7732 -0.412584 0
M  V30 1607 H 141.626 2.54404 -0.122777 0
M  V30 1608 H 142.409 2.95815 -1.74208 0
M  V30 1609 N 144.854 0.36279 1.53368 0
M  V30 1610 C 145.801 -0.485008 2.25646 0
M  V30 1611 C 146.771 -1.07982 1.2621 0
M  V30 1612 O 147.956 -1.11284 1.54986 0
M  V30 1613 C 145.096 -1.62023 3.04701 0
M  V30 1614 C 144.209 -1.05086 4.19024 0
M  V30 1615 C 143.344 -2.15496 4.85525 0
M  V30 1616 C 142.383 -1.5601 5.91884 0
M  V30 1617 N 141.52 -2.60241 6.52088 0
M  V30 1618 H 146.36 0.137864 2.97681 0
M  V30 1619 H 143.897 0.0798061 1.46883 0
M  V30 1620 H 145.855 -2.28887 3.48807 0
M  V30 1621 H 144.485 -2.2138 2.34927 0
M  V30 1622 H 143.537 -0.27259 3.79422 0
M  V30 1623 H 144.849 -0.575926 4.95464 0
M  V30 1624 H 144.003 -2.90186 5.32801 0
M  V30 1625 H 142.742 -2.66341 4.08551 0
M  V30 1626 H 141.747 -0.798338 5.43973 0
M  V30 1627 H 142.972 -1.05994 6.70777 0
M  V30 1628 H 140.918 -3.10304 5.77968 0
M  V30 1629 H 140.835 -2.17426 7.24059 0
M  V30 1630 H 142.103 -3.34641 7.04014 0
M  V30 1631 N 146.332 -1.57332 0.0918853 0
M  V30 1632 C 147.58 -1.93853 -0.571446 0
M  V30 1633 C 147.901 -0.974212 -1.6892 0
M  V30 1634 O 147.171 -0.0257254 -1.95883 0
M  V30 1635 H 145.751 -0.715666 -0.214082 0
M  V30 1636 H 148.413 -1.94287 0.154464 0
M  V30 1637 H 147.509 -2.96191 -0.983729 0
M  V30 1638 N 147.81 0.181792 -1.56548 0
M  V30 1639 C 148.76 1.22961 -1.92002 0
M  V30 1640 C 149.744 1.40331 -0.787146 0
M  V30 1641 O 150.936 1.42478 -1.05019 0
M  V30 1642 C 148.065 2.57144 -2.27446 0
M  V30 1643 C 147.151 2.43512 -3.47222 0
M  V30 1644 N 147.542 1.99577 -4.64761 0
M  V30 1645 C 145.84 2.74368 -3.51622 0
M  V30 1646 C 146.541 1.98156 -5.46909 0
M  V30 1647 N 145.517 2.40164 -4.8767 0
M  V30 1648 H 149.319 0.881462 -2.8037 0
M  V30 1649 H 146.833 0.390141 -1.57644 0
M  V30 1650 H 148.83 3.32847 -2.51035 0
M  V30 1651 H 147.49 2.92771 -1.40411 0
M  V30 1652 H 148.501 1.70078 -4.89177 0
M  V30 1653 H 145.178 3.14102 -2.75038 0
M  V30 1654 H 146.568 1.65975 -6.51077 0
M  V30 1655 N 149.288 1.51039 0.449983 0
M  V30 1656 C 150.198 1.74261 1.57067 0
M  V30 1657 C 151.214 0.626363 1.62335 0
M  V30 1658 O 152.39 0.907162 1.79812 0
M  V30 1659 C 149.455 1.85114 2.93144 0
M  V30 1660 C 148.516 3.0893 2.98095 0
M  V30 1661 C 147.749 3.19256 4.27681 0
M  V30 1662 O 147.972 2.35835 5.19363 0
M  V30 1663 O 146.906 4.12144 4.38658 0
M  V30 1664 H 150.732 2.69303 1.40391 0
M  V30 1665 H 148.317 1.35389 0.631688 0
M  V30 1666 H 150.199 1.94311 3.73926 0
M  V30 1667 H 148.874 0.932588 3.09975 0
M  V30 1668 H 147.781 3.0522 2.16314 0
M  V30 1669 H 149.114 4.00433 2.86206 0
M  V30 1670 N 150.766 -0.704594 1.40972 0
M  V30 1671 C 152.013 -1.46458 1.39844 0
M  V30 1672 C 152.341 -1.94499 0.00447594 0
M  V30 1673 O 151.596 -1.69275 -0.982057 0
M  V30 1674 C 151.895 -2.698 2.34399 0
M  V30 1675 C 151.561 -2.40464 3.81429 0
M  V30 1676 C 150.223 -2.32174 4.21484 0
M  V30 1677 C 152.575 -2.16086 4.74296 0
M  V30 1678 C 149.903 -1.97589 5.52427 0
M  V30 1679 C 152.255 -1.83011 6.05549 0
M  V30 1680 C 150.919 -1.7321 6.44635 0
M  V30 1681 H 150.189 -0.535927 0.511725 0
M  V30 1682 H 152.836 -0.806124 1.73706 0
M  V30 1683 H 151.141 -3.40536 1.93759 0
M  V30 1684 H 152.838 -3.27919 2.30804 0
M  V30 1685 H 149.428 -2.47808 3.49699 0
M  V30 1686 H 153.612 -2.2144 4.4416 0
M  V30 1687 H 148.868 -1.88547 5.81601 0
M  V30 1688 H 153.042 -1.63164 6.77016 0
M  V30 1689 H 150.669 -1.46179 7.46013 0
M  V30 1690 N 152.244 -1.26651 -0.937939 0
M  V30 1691 C 153.49 -1.12553 -1.687 0
M  V30 1692 C 153.823 0.329782 -1.91379 0
M  V30 1693 O 153.098 1.24202 -1.4968 0
M  V30 1694 C 153.381 -1.89862 -3.05981 0
M  V30 1695 C 153.234 -3.43318 -2.90607 0
M  V30 1696 C 154.553 -1.69499 -4.0615 0
M  V30 1697 H 151.672 -0.410257 -0.612257 0
M  V30 1698 H 154.314 -1.55685 -1.08913 0
M  V30 1699 H 152.464 -1.53204 -3.57017 0
M  V30 1700 H 154.136 -3.89747 -2.46769 0
M  V30 1701 H 152.379 -3.70179 -2.26164 0
M  V30 1702 H 153.05 -3.92642 -3.8799 0
M  V30 1703 H 155.526 -2.01442 -3.64088 0
M  V30 1704 H 154.402 -2.26002 -5.00214 0
M  V30 1705 H 154.663 -0.640365 -4.37438 0
M  V30 1706 N 153.722 1.14298 -1.08507 0
M  V30 1707 C 154.969 1.85359 -0.815373 0
M  V30 1708 C 155.297 1.83001 0.658865 0
M  V30 1709 O 154.552 1.25655 1.50031 0
M  V30 1710 C 154.851 3.33547 -1.28379 0
M  V30 1711 C 154.517 3.56093 -2.76602 0
M  V30 1712 C 153.179 3.61955 -3.17084 0
M  V30 1713 C 155.531 3.64834 -3.72217 0
M  V30 1714 C 152.859 3.74082 -4.51973 0
M  V30 1715 C 155.211 3.78487 -5.06883 0
M  V30 1716 C 153.875 3.82598 -5.46969 0
M  V30 1717 H 153.145 0.678276 -0.298366 0
M  V30 1718 H 155.792 1.35002 -1.35819 0
M  V30 1719 H 154.097 3.86191 -0.660593 0
M  V30 1720 H 155.794 3.86959 -1.05186 0
M  V30 1721 H 152.384 3.52179 -2.4427 0
M  V30 1722 H 156.568 3.59595 -3.42061 0
M  V30 1723 H 151.824 3.75527 -4.82483 0
M  V30 1724 H 155.998 3.84193 -5.80834 0
M  V30 1725 H 153.625 3.91747 -6.51489 0
M  V30 1726 N 155.201 0.870884 1.31352 0
M  V30 1727 C 156.149 0.316445 2.30437 0
M  V30 1728 C 157.143 -0.568965 1.59559 0
M  V30 1729 O 158.349 -0.454964 1.74155 0
M  V30 1730 H 154.724 0.0836521 0.747333 0
M  V30 1731 H 156.695 1.16606 2.74673 0
M  V30 1732 C 155.444 -0.46635 3.44558 0
M  V30 1733 H 154.767 0.205687 3.99271 0
M  V30 1734 H 156.207 -0.819614 4.16003 0
M  V30 1735 C 154.666 -1.65797 2.9328 0
M  V30 1736 O 155.196 -2.75728 2.92125 0
M  V30 1737 N 153.402 -1.49041 2.4947 0
M  V30 1738 H 152.949 -0.59612 2.50608 0
M  V30 1739 H 152.907 -2.28911 2.15516 0
M  V30 1740 N 156.679 -1.44442 0.630414 0
M  V30 1741 C 157.642 -2.29107 -0.0652523 0
M  V30 1742 C 158.642 -1.41002 -0.772995 0
M  V30 1743 O 159.832 -1.62881 -0.617692 0
M  V30 1744 C 156.964 -3.22564 -1.10296 0
M  V30 1745 H 158.157 -2.92103 0.679401 0
M  V30 1746 H 155.71 -1.51343 0.390517 0
M  V30 1747 H 156.445 -2.64416 -1.87762 0
M  V30 1748 H 156.23 -3.87491 -0.59941 0
M  V30 1749 H 157.72 -3.86167 -1.5895 0
M  V30 1750 N 158.157 -0.370918 -1.53173 0
M  V30 1751 C 159.104 0.473035 -2.259 0
M  V30 1752 C 160.074 1.07311 -1.26781 0
M  V30 1753 O 161.259 1.1046 -1.55574 0
M  V30 1754 C 158.399 1.60405 -3.05556 0
M  V30 1755 C 157.512 1.02863 -4.19575 0
M  V30 1756 C 156.647 2.12918 -4.86661 0
M  V30 1757 C 155.686 1.52869 -5.92704 0
M  V30 1758 N 154.823 2.56779 -6.53459 0
M  V30 1759 H 159.663 -0.153649 -2.97604 0
M  V30 1760 H 157.2 -0.0875946 -1.46839 0
M  V30 1761 H 159.158 2.27034 -3.50016 0
M  V30 1762 H 157.788 2.20131 -2.36097 0
M  V30 1763 H 156.84 0.252465 -3.79561 0
M  V30 1764 H 158.152 0.549642 -4.95762 0
M  V30 1765 H 157.306 2.87356 -5.34333 0
M  V30 1766 H 156.045 2.6417 -4.09958 0
M  V30 1767 H 155.05 0.769479 -5.44389 0
M  V30 1768 H 156.275 1.02435 -6.7133 0
M  V30 1769 H 154.221 3.07235 -5.79606 0
M  V30 1770 H 154.138 2.13583 -7.25202 0
M  V30 1771 H 155.406 3.30903 -7.05779 0
M  V30 1772 N 159.635 1.57281 -0.100228 0
M  V30 1773 C 160.565 2.17328 0.853857 0
M  V30 1774 C 161.546 1.10804 1.2906 0
M  V30 1775 O 162.731 1.38963 1.35657 0
M  V30 1776 C 159.861 2.75772 2.11109 0
M  V30 1777 C 158.815 3.87713 1.81279 0
M  V30 1778 C 158.141 4.32882 3.13874 0
M  V30 1779 C 159.441 5.10677 1.09574 0
M  V30 1780 H 161.135 2.97305 0.353545 0
M  V30 1781 H 158.681 1.43009 0.168612 0
M  V30 1782 H 160.634 3.16433 2.78296 0
M  V30 1783 H 159.358 1.93057 2.63432 0
M  V30 1784 H 158.017 3.476 1.16489 0
M  V30 1785 H 157.665 3.47051 3.64095 0
M  V30 1786 H 157.365 5.08358 2.94696 0
M  V30 1787 H 158.889 4.7618 3.82211 0
M  V30 1788 H 160.303 5.48474 1.66879 0
M  V30 1789 H 158.7 5.91615 1.00557 0
M  V30 1790 H 159.77 4.84835 0.0793299 0
M  V30 1791 N 161.113 -0.173488 1.56642 0
M  V30 1792 C 162.338 -0.910149 1.86363 0
M  V30 1793 C 162.763 -1.75132 0.686318 0
M  V30 1794 O 162.121 -1.77595 -0.364643 0
M  V30 1795 C 162.169 -1.76447 3.14482 0
M  V30 1796 O 161.273 -2.86584 2.96553 0
M  V30 1797 H 160.614 -0.255086 0.613047 0
M  V30 1798 H 163.144 -0.172283 2.03873 0
M  V30 1799 H 163.154 -2.16483 3.45831 0
M  V30 1800 H 161.829 -1.14658 3.99783 0
M  V30 1801 H 160.406 -2.50146 2.76553 0
M  V30 1802 N 162.591 -1.51276 -0.441967 0
M  V30 1803 C 163.868 -1.54252 -1.20273 0
M  V30 1804 C 164.248 -0.30408 -2.08898 0
M  V30 1805 O 163.596 0.711084 -2.17154 0
M  V30 1806 C 163.806 -2.85406 -2.00859 0
M  V30 1807 C 165.154 -3.37181 -2.58059 0
M  V30 1808 O 166.178 -2.86925 -2.11074 0
M  V30 1809 O 165.037 -4.24858 -3.43741 0
M  V30 1810 H 162.131 -0.619969 -0.547328 0
M  V30 1811 H 164.677 -1.63586 -0.451413 0
M  V30 1812 H 163.449 -3.67003 -1.35736 0
M  V30 1813 H 163.072 -2.79213 -2.83065 0
M  V30 1814 N 164.069 0.697108 -1.41344 0
M  V30 1815 C 165.315 1.4593 -1.40827 0
M  V30 1816 C 165.648 1.94193 -0.0167098 0
M  V30 1817 O 164.923 1.69425 0.955263 0
M  V30 1818 C 165.206 2.67229 -2.41373 0
M  V30 1819 C 165.059 2.24741 -3.8963 0
M  V30 1820 C 166.378 3.69423 -2.39196 0
M  V30 1821 H 163.497 0.529303 -0.512842 0
M  V30 1822 H 166.139 0.794112 -1.72609 0
M  V30 1823 H 164.289 3.23982 -2.14401 0
M  V30 1824 H 165.961 1.73327 -4.27499 0
M  V30 1825 H 164.204 1.56542 -4.0457 0
M  V30 1826 H 164.875 3.1177 -4.55525 0
M  V30 1827 H 167.351 3.2234 -2.63128 0
M  V30 1828 H 166.227 4.51907 -3.11563 0
M  V30 1829 H 166.488 4.19012 -1.41001 0
M  V30 1830 N 165.547 1.27147 0.931209 0
M  V30 1831 C 166.772 1.16191 1.71797 0
M  V30 1832 C 167.197 -0.278004 1.86034 0
M  V30 1833 O 166.555 -1.20137 1.35782 0
M  V30 1834 C 166.603 1.84673 3.09723 0
M  V30 1835 O 165.707 1.14231 3.96264 0
M  V30 1836 H 165.048 0.404303 0.526721 0
M  V30 1837 H 167.578 1.68152 1.1656 0
M  V30 1838 H 167.588 1.91893 3.60057 0
M  V30 1839 H 166.263 2.89421 2.98677 0
M  V30 1840 H 164.84 1.15056 3.54706 0
M  V30 1841 N 167.025 -1.13721 1.09112 0
M  V30 1842 C 167.988 -2.17222 0.731241 0
M  V30 1843 C 168.988 -1.59035 -0.237566 0
M  V30 1844 O 170.178 -1.74192 -0.0161704 0
M  V30 1845 C 167.31 -3.40804 0.0808443 0
M  V30 1846 H 168.503 -2.50573 1.64783 0
M  V30 1847 H 166.056 -1.28493 0.889897 0
M  V30 1848 H 166.791 -3.1304 -0.847127 0
M  V30 1849 H 166.576 -3.84306 0.777896 0
M  V30 1850 H 168.066 -4.1731 -0.155657 0
M  V30 1851 N 168.503 -0.877838 -1.30888 0
M  V30 1852 C 169.413 -0.343096 -2.32078 0
M  V30 1853 C 170.429 0.551022 -1.65045 0
M  V30 1854 O 171.605 0.445854 -1.96403 0
M  V30 1855 C 168.67 0.439905 -3.43898 0
M  V30 1856 C 167.731 -0.483111 -4.26573 0
M  V30 1857 C 166.964 0.262616 -5.33053 0
M  V30 1858 O 167.187 1.48967 -5.50604 0
M  V30 1859 O 166.121 -0.383593 -6.00676 0
M  V30 1860 H 169.947 -1.18203 -2.79753 0
M  V30 1861 H 167.532 -0.64145 -1.34929 0
M  V30 1862 H 169.414 0.883504 -4.12034 0
M  V30 1863 H 168.089 1.25526 -2.98371 0
M  V30 1864 H 166.996 -0.975374 -3.61161 0
M  V30 1865 H 168.329 -1.26427 -4.75686 0
M  V30 1866 N 169.982 1.44106 -0.638065 0
M  V30 1867 C 171.259 1.95453 -0.0759321 0
M  V30 1868 C 171.639 1.57984 1.40015 0
M  V30 1869 O 170.987 0.857361 2.11806 0
M  V30 1870 C 171.197 3.47655 -0.306132 0
M  V30 1871 C 172.545 4.24114 -0.203008 0
M  V30 1872 O 173.569 3.55405 -0.237871 0
M  V30 1873 O 172.428 5.46381 -0.113827 0
M  V30 1874 H 169.522 0.826797 0.0183332 0
M  V30 1875 H 172.068 1.54122 -0.710251 0
M  V30 1876 H 170.84 3.68 -1.3301 0
M  V30 1877 H 170.463 3.95949 0.361991 0
M  V30 1878 N 171.46 0.379036 1.52974 0
M  V30 1879 C 172.423 -0.448865 2.24762 0
M  V30 1880 C 173.423 -0.998689 1.26027 0
M  V30 1881 O 174.613 -0.882313 1.50203 0
M  V30 1882 C 171.745 -1.62872 2.99476 0
M  V30 1883 H 172.938 0.179491 2.99362 0
M  V30 1884 H 170.491 0.13096 1.5575 0
M  V30 1885 H 171.226 -2.29479 2.29151 0
M  V30 1886 H 171.011 -1.24128 3.71934 0
M  V30 1887 H 172.501 -2.2151 3.5401 0
M  V30 1888 N 172.938 -1.57226 0.108567 0
M  V30 1889 C 174.168 -1.9889 -0.559142 0
M  V30 1890 C 174.576 -0.986889 -1.61422 0
M  V30 1891 O 173.919 0.0298705 -1.83676 0
M  V30 1892 C 173.981 -3.36952 -1.25315 0
M  V30 1893 C 173.645 -4.55679 -0.347248 0
M  V30 1894 C 174.642 -5.18281 0.409996 0
M  V30 1895 C 172.327 -5.0162 -0.261367 0
M  V30 1896 C 174.321 -6.25203 1.24096 0
M  V30 1897 C 172.008 -6.08405 0.573238 0
M  V30 1898 C 173.006 -6.70063 1.32304 0
M  V30 1899 O 172.694 -7.74788 2.14381 0
M  V30 1900 H 172.426 -0.658343 -0.153492 0
M  V30 1901 H 174.98 -2.04532 0.188584 0
M  V30 1902 H 173.21 -3.28032 -2.04773 0
M  V30 1903 H 174.899 -3.62974 -1.81673 0
M  V30 1904 H 175.665 -4.8371 0.353457 0
M  V30 1905 H 171.544 -4.53381 -0.834656 0
M  V30 1906 H 175.088 -6.73259 1.82669 0
M  V30 1907 H 170.985 -6.42406 0.631208 0
M  V30 1908 H 171.753 -7.91837 2.07209 0
M  V30 1909 N 174.416 0.165178 -1.56732 0
M  V30 1910 C 175.363 1.2044 -1.96883 0
M  V30 1911 C 176.333 1.43664 -0.833657 0
M  V30 1912 O 177.518 1.56302 -1.09427 0
M  V30 1913 C 174.658 2.53727 -2.33916 0
M  V30 1914 C 173.771 2.3783 -3.6064 0
M  V30 1915 C 172.906 3.64026 -3.86857 0
M  V30 1916 C 171.945 3.43088 -5.06909 0
M  V30 1917 N 171.082 4.61369 -5.29229 0
M  V30 1918 H 175.922 0.854996 -2.85471 0
M  V30 1919 H 173.459 0.41076 -1.41249 0
M  V30 1920 H 175.417 3.31419 -2.53411 0
M  V30 1921 H 174.047 2.8665 -1.48431 0
M  V30 1922 H 173.099 1.51282 -3.49024 0
M  V30 1923 H 174.411 2.18308 -4.4849 0
M  V30 1924 H 173.565 4.50152 -4.06753 0
M  V30 1925 H 172.304 3.86533 -2.97394 0
M  V30 1926 H 171.309 2.55349 -4.86906 0
M  V30 1927 H 172.534 3.21997 -5.97909 0
M  V30 1928 H 170.48 4.84084 -4.42718 0
M  V30 1929 H 170.397 4.44783 -6.11313 0
M  V30 1930 H 171.665 5.48761 -5.53608 0
M  V30 1931 N 175.894 1.51508 0.433938 0
M  V30 1932 C 176.844 1.69451 1.52546 0
M  V30 1933 C 177.828 0.548474 1.51263 0
M  V30 1934 O 179.02 0.804529 1.57659 0
M  V30 1935 C 176.149 1.82604 2.90707 0
M  V30 1936 C 175.235 3.03002 2.96733 0
M  V30 1937 N 175.626 4.26121 2.72496 0
M  V30 1938 C 173.924 3.02327 3.27894 0
M  V30 1939 C 174.625 5.07407 2.84452 0
M  V30 1940 N 173.601 4.42126 3.16269 0
M  V30 1941 H 177.403 2.62305 1.32564 0
M  V30 1942 H 174.917 1.49202 0.641297 0
M  V30 1943 H 176.914 1.93569 3.69238 0
M  V30 1944 H 175.574 0.909339 3.11707 0
M  V30 1945 H 176.585 4.55009 2.4736 0
M  V30 1946 H 173.262 2.20301 3.54646 0
M  V30 1947 H 174.652 6.15422 2.69639 0
M  V30 1948 N 177.372 -0.689602 1.41712 0
M  V30 1949 C 178.302 -1.81577 1.46806 0
M  V30 1950 C 179.283 -1.66945 0.326105 0
M  V30 1951 O 180.468 -1.86588 0.538377 0
M  V30 1952 C 177.598 -3.19762 1.35535 0
M  V30 1953 C 176.552 -3.49107 2.47605 0
M  V30 1954 C 175.878 -4.86711 2.21397 0
M  V30 1955 C 177.178 -3.47483 3.89939 0
M  V30 1956 H 178.872 -1.7757 2.41058 0
M  V30 1957 H 176.418 -0.852887 1.16025 0
M  V30 1958 H 178.371 -3.98263 1.3771 0
M  V30 1959 H 177.095 -3.24409 0.377708 0
M  V30 1960 H 175.754 -2.72959 2.44722 0
M  V30 1961 H 175.402 -4.8799 1.21961 0
M  V30 1962 H 175.102 -5.0731 2.96497 0
M  V30 1963 H 176.626 -5.67515 2.25297 0
M  V30 1964 H 178.04 -4.1598 3.94505 0
M  V30 1965 H 176.437 -3.79615 4.64771 0
M  V30 1966 H 177.507 -2.46341 4.17665 0
M  V30 1967 N 178.85 -1.27639 -0.924453 0
M  V30 1968 C 180.078 -1.16989 -1.70649 0
M  V30 1969 C 180.493 0.272869 -1.86818 0
M  V30 1970 O 179.85 1.18549 -1.38753 0
M  V30 1971 C 179.901 -1.85229 -3.10439 0
M  V30 1972 O 179.622 -3.23868 -2.95028 0
M  V30 1973 C 181.123 -1.80746 -4.04779 0
M  V30 1974 H 178.343 -0.406595 -0.53378 0
M  V30 1975 H 180.887 -1.68569 -1.15778 0
M  V30 1976 H 179.042 -1.37545 -3.6216 0
M  V30 1977 H 179.456 -3.57889 -3.83426 0
M  V30 1978 H 180.93 -2.33101 -5.00368 0
M  V30 1979 H 181.407 -0.777499 -4.32263 0
M  V30 1980 H 182.013 -2.28059 -3.58984 0
M  V30 1981 N 180.328 1.1314 -1.09713 0
M  V30 1982 C 181.556 1.88321 -0.856898 0
M  V30 1983 C 181.971 1.79276 0.592073 0
M  V30 1984 O 181.328 1.16142 1.40774 0
M  V30 1985 C 181.379 3.37812 -1.28706 0
M  V30 1986 O 181.1 3.46627 -2.67921 0
M  V30 1987 C 182.601 4.29952 -1.07964 0
M  V30 1988 H 179.821 0.596094 -0.308079 0
M  V30 1989 H 182.365 1.43205 -1.45988 0
M  V30 1990 H 180.52 3.805 -0.727912 0
M  V30 1991 H 180.934 4.39579 -2.8613 0
M  V30 1992 H 182.408 5.33159 -1.42986 0
M  V30 1993 H 182.885 4.39196 -0.0176577 0
M  V30 1994 H 183.491 3.93036 -1.62489 0
M  V30 1995 N 181.806 0.884767 1.30421 0
M  V30 1996 C 183.217 0.553656 1.78302 0
M  V30 1997 C 183.568 -0.930153 1.7275 0
M  V30 1998 O 182.693 -1.72681 1.30423 0
M  V30 1999 C 183.288 0.998234 3.2376 0
M  V30 2000 C 181.847 0.71854 3.69478 0
M  V30 2001 C 180.994 1.18132 2.50879 0
M  V30 2002 H 183.945 1.06901 1.17294 0
M  V30 2003 H 183.966 0.327118 3.79091 0
M  V30 2004 H 183.478 2.0782 3.27769 0
M  V30 2005 H 181.579 -0.349444 3.70958 0
M  V30 2006 H 181.692 1.30595 4.60958 0
M  V30 2007 H 180.056 0.600669 2.47516 0
M  V30 2008 H 180.839 2.26902 2.57624 0
M  V30 2009 N 183.284 -1.43765 0.645699 0
M  V30 2010 C 184.53 -2.02197 0.156271 0
M  V30 2011 C 184.863 -1.50776 -1.22393 0
M  V30 2012 O 184.138 -0.697771 -1.81553 0
M  V30 2013 C 184.421 -3.59749 0.158872 0
M  V30 2014 C 184.274 -4.21419 1.57245 0
M  V30 2015 C 185.593 -4.37149 -0.50879 0
M  V30 2016 H 182.712 -0.734694 0.0582602 0
M  V30 2017 H 185.354 -1.71157 0.824951 0
M  V30 2018 H 183.504 -3.86325 -0.410525 0
M  V30 2019 H 185.176 -4.059 2.19186 0
M  V30 2020 H 183.419 -3.78356 2.122 0
M  V30 2021 H 184.09 -5.30482 1.52619 0
M  V30 2022 H 186.566 -4.16093 -0.024412 0
M  V30 2023 H 185.442 -5.4683 -0.476213 0
M  V30 2024 H 185.703 -4.12839 -1.58165 0
M  V30 2025 N 184.763 -0.387143 -1.52771 0
M  V30 2026 C 186.01 0.195735 -2.01552 0
M  V30 2027 C 186.338 1.46995 -1.27369 0
M  V30 2028 O 185.593 1.92325 -0.361879 0
M  V30 2029 C 185.892 0.512209 -3.53711 0
M  V30 2030 C 185.558 -0.670202 -4.45891 0
M  V30 2031 C 184.22 -0.994586 -4.70809 0
M  V30 2032 C 186.572 -1.46134 -5.00294 0
M  V30 2033 C 183.9 -2.11169 -5.4738 0
M  V30 2034 C 186.252 -2.56903 -5.78086 0
M  V30 2035 C 184.916 -2.89852 -6.01284 0
M  V30 2036 H 184.186 0.0716246 -0.73753 0
M  V30 2037 H 186.833 -0.524046 -1.8419 0
M  V30 2038 H 185.138 1.31329 -3.69134 0
M  V30 2039 H 186.835 0.975804 -3.88946 0
M  V30 2040 H 183.425 -0.407366 -4.2666 0
M  V30 2041 H 187.609 -1.22397 -4.80971 0
M  V30 2042 H 182.865 -2.3707 -5.63567 0
M  V30 2043 H 187.039 -3.18608 -6.19243 0
M  V30 2044 H 184.666 -3.76533 -6.60399 0
M  V30 2045 N 186.241 1.57166 -0.116904 0
M  V30 2046 C 187.489 1.94737 0.540533 0
M  V30 2047 C 187.81 1.00096 1.67349 0
M  V30 2048 O 187.08 0.0568854 1.95817 0
M  V30 2049 H 185.66 0.718981 0.202669 0
M  V30 2050 H 188.322 1.94017 -0.185353 0
M  V30 2051 H 187.418 2.97719 0.936483 0
M  V30 2052 N 187.719 -0.156864 1.56817 0
M  V30 2053 C 188.666 -1.19394 1.97519 0
M  V30 2054 C 189.636 -1.4322 0.841265 0
M  V30 2055 O 190.821 -1.55719 1.10255 0
M  V30 2056 C 187.961 -2.52483 2.35258 0
M  V30 2057 C 187.074 -2.35914 3.61896 0
M  V30 2058 C 186.209 -3.61969 3.88782 0
M  V30 2059 C 185.248 -3.40395 5.08722 0
M  V30 2060 N 184.385 -4.58556 5.31668 0
M  V30 2061 H 189.225 -0.839845 2.85921 0
M  V30 2062 H 186.762 -0.403264 1.41464 0
M  V30 2063 H 188.72 -3.30071 2.55165 0
M  V30 2064 H 187.35 -2.85859 1.49949 0
M  V30 2065 H 186.402 -1.49429 3.49821 0
M  V30 2066 H 187.714 -2.15926 4.49641 0
M  V30 2067 H 186.868 -4.47989 4.09135 0
M  V30 2068 H 185.607 -3.84951 2.9944 0
M  V30 2069 H 184.612 -2.52763 4.88253 0
M  V30 2070 H 185.837 -3.18822 5.99608 0
M  V30 2071 H 183.783 -4.81729 4.45279 0
M  V30 2072 H 183.7 -4.41535 6.13664 0
M  V30 2073 H 184.968 -5.45817 5.5651 0
M  V30 2074 N 189.197 -1.51736 -0.425897 0
M  V30 2075 C 190.445 -1.64644 -1.17204 0
M  V30 2076 C 190.766 -0.370486 -1.91448 0
M  V30 2077 O 190.036 0.614088 -1.86026 0
M  V30 2078 H 188.616 -0.606819 -0.435638 0
M  V30 2079 H 191.278 -1.88713 -0.487177 0
M  V30 2080 H 190.374 -2.47958 -1.89534 0
M  V30 2081 N 190.675 0.682077 -1.42076 0
M  V30 2082 C 191.921 1.44428 -1.42367 0
M  V30 2083 C 192.254 1.94164 -0.0373056 0
M  V30 2084 O 191.529 1.70429 0.937239 0
M  V30 2085 C 191.812 2.64654 -2.44194 0
M  V30 2086 C 191.665 2.20596 -3.91991 0
M  V30 2087 C 192.984 3.66865 -2.431 0
M  V30 2088 H 190.103 0.523834 -0.518428 0
M  V30 2089 H 192.745 0.77576 -1.73442 0
M  V30 2090 H 190.895 3.2169 -2.17826 0
M  V30 2091 H 192.567 1.68783 -4.29313 0
M  V30 2092 H 190.81 1.52242 -4.06208 0
M  V30 2093 H 191.481 3.06921 -4.58807 0
M  V30 2094 H 193.957 3.19531 -2.66532 0
M  V30 2095 H 192.833 4.48577 -3.16339 0
M  V30 2096 H 193.094 4.17493 -1.45437 0
M  V30 2097 N 192.153 1.28127 0.917671 0
M  V30 2098 C 193.402 1.14432 1.66097 0
M  V30 2099 C 193.715 -0.307247 1.93172 0
M  V30 2100 O 194.921 -0.565259 2.65551 0
M  V30 2101 C 193.377 2.00015 2.99202 0
M  V30 2102 C 192.985 3.49889 2.79789 0
M  V30 2103 C 194.729 1.94996 3.77064 0
M  V30 2104 C 192.636 4.27636 4.08511 0
M  V30 2105 H 191.566 0.424662 0.62304 0
M  V30 2106 H 194.217 1.52628 1.01868 0
M  V30 2107 H 192.599 1.54672 3.64544 0
M  V30 2108 H 193.773 4.03162 2.23152 0
M  V30 2109 H 192.088 3.56392 2.15345 0
M  V30 2110 H 194.685 2.50354 4.72469 0
M  V30 2111 H 195.028 0.925819 4.05875 0
M  V30 2112 H 195.561 2.38287 3.18534 0
M  V30 2113 H 192.3 5.30615 3.84874 0
M  V30 2114 H 191.82 3.79137 4.64774 0
M  V30 2115 H 193.499 4.37346 4.76799 0
M  V30 2116 N 193.631 -1.12557 1.10312 0
M  V30 2117 C 194.861 -1.87592 0.865617 0
M  V30 2118 C 195.269 -1.79851 -0.587389 0
M  V30 2119 O 194.612 -1.16949 -1.41664 0
M  V30 2120 C 194.674 -3.37665 1.23381 0
M  V30 2121 C 194.338 -3.69181 2.69359 0
M  V30 2122 C 195.335 -3.67652 3.67597 0
M  V30 2123 C 193.02 -3.98555 3.05711 0
M  V30 2124 C 195.014 -3.95053 5.00212 0
M  V30 2125 C 192.701 -4.25616 4.38514 0
M  V30 2126 C 193.699 -4.23851 5.35574 0
M  V30 2127 O 193.387 -4.50242 6.65986 0
M  V30 2128 H 193.119 -0.600442 0.310557 0
M  V30 2129 H 195.673 -1.4335 1.47105 0
M  V30 2130 H 193.903 -3.82454 0.571467 0
M  V30 2131 H 195.592 -3.94041 0.973994 0
M  V30 2132 H 196.358 -3.45024 3.40857 0
M  V30 2133 H 192.237 -3.99071 2.30789 0
M  V30 2134 H 195.781 -3.93591 5.75962 0
M  V30 2135 H 191.678 -4.47718 4.64994 0
M  V30 2136 H 192.446 -4.67867 6.71597 0
M  V30 2137 N 195.109 -0.891671 -1.2995 0
M  V30 2138 C 196.386 -0.433307 -1.9074 0
M  V30 2139 C 196.766 1.08646 -1.80995 0
M  V30 2140 O 196.114 1.92476 -1.23147 0
M  V30 2141 C 196.324 -0.938895 -3.36134 0
M  V30 2142 C 197.672 -0.977829 -4.13187 0
M  V30 2143 O 198.696 -0.886015 -3.45005 0
M  V30 2144 O 197.555 -1.11453 -5.35015 0
M  V30 2145 H 194.649 -0.133699 -0.816121 0
M  V30 2146 H 197.195 -0.981011 -1.38471 0
M  V30 2147 H 195.967 -1.98281 -3.37343 0
M  V30 2148 H 195.59 -0.37074 -3.95868 0
M  V30 2149 N 196.587 1.43421 -0.653314 0
M  V30 2150 C 197.827 2.03689 -0.170346 0
M  V30 2151 C 198.191 1.50427 1.19314 0
M  V30 2152 O 199.392 2.0234 1.76952 0
M  V30 2153 C 197.663 3.56946 -0.180183 0
M  V30 2154 S 199.222 4.38171 0.234925 0
M  V30 2155 H 196.04 0.707345 -0.0719976 0
M  V30 2156 H 198.642 1.75486 -0.86167 0
M  V30 2157 H 197.346 3.93212 -1.17526 0
M  V30 2158 H 196.877 3.89791 0.531675 0
M  V30 2159 H 198.892 4.73808 1.47378 0
M  V30 2160 N 198.065 0.39524 1.52563 0
M  V30 2161 C 199.476 -0.0774719 1.86539 0
M  V30 2162 C 199.827 -1.45641 1.31466 0
M  V30 2163 O 198.952 -2.06459 0.648367 0
M  V30 2164 C 199.547 -0.147356 3.38479 0
M  V30 2165 C 198.106 -0.564373 3.72145 0
M  V30 2166 C 197.253 0.269919 2.75983 0
M  V30 2167 H 200.204 0.612876 1.46388 0
M  V30 2168 H 200.225 -0.965343 3.68051 0
M  V30 2169 H 199.737 0.856387 3.78534 0
M  V30 2170 H 197.838 -1.57527 3.37663 0
M  V30 2171 H 197.951 -0.318402 4.78041 0
M  V30 2172 H 196.315 -0.265696 2.5331 0
M  V30 2173 H 197.098 1.27175 3.18875 0
M  V30 2174 N 199.544 -1.57102 0.125237 0
M  V30 2175 C 200.492 -2.16905 -0.839927 0
M  V30 2176 C 201.486 -1.11998 -1.27094 0
M  V30 2177 O 202.692 -1.3029 -1.24195 0
M  V30 2178 H 199.067 -0.694252 -0.288995 0
M  V30 2179 H 201.038 -2.96774 -0.311115 0
M  V30 2180 C 199.787 -2.78795 -2.07771 0
M  V30 2181 H 199.11 -3.59221 -1.755 0
M  V30 2182 H 200.55 -3.2417 -2.73295 0
M  V30 2183 C 199.009 -1.76193 -2.87155 0
M  V30 2184 O 199.539 -1.21909 -3.82755 0
M  V30 2185 N 197.745 -1.45991 -2.51267 0
M  V30 2186 H 197.292 -1.90325 -1.73592 0
M  V30 2187 H 197.25 -0.775844 -3.04677 0
M  V30 2188 N 201.022 0.148545 -1.56898 0
M  V30 2189 C 202.247 0.880385 -1.87787 0
M  V30 2190 C 202.672 1.74018 -0.714093 0
M  V30 2191 O 202.03 1.78153 0.336343 0
M  V30 2192 C 202.078 1.71422 -3.17249 0
M  V30 2193 O 201.182 2.8183 -3.01074 0
M  V30 2194 H 200.523 0.245301 -0.617028 0
M  V30 2195 H 203.053 0.139826 -2.04122 0
M  V30 2196 H 203.063 2.10954 -3.49231 0
M  V30 2197 H 201.738 1.08284 -4.01556 0
M  V30 2198 H 200.315 2.45715 -2.80497 0
M  V30 2199 N 202.5 1.5196 0.417844 0
M  V30 2200 C 203.916 1.40569 0.755816 0
M  V30 2201 C 204.116 0.503316 1.95113 0
M  V30 2202 O 203.172 -0.0341925 2.52477 0
M  V30 2203 C 204.485 2.82947 1.01791 0
M  V30 2204 C 206.033 2.92231 1.12116 0
M  V30 2205 C 206.508 4.35559 1.41608 0
M  V30 2206 N 207.999 4.38753 1.48491 0
M  V30 2207 C 208.734 5.46705 1.7292 0
M  V30 2208 N 208.23 6.64788 1.95011 0
M  V30 2209 N 210.023 5.34209 1.74863 0
M  V30 2210 H 202.174 2.09168 -0.369098 0
M  V30 2211 H 204.437 0.942409 -0.102809 0
M  V30 2212 H 204.143 3.5106 0.212081 0
M  V30 2213 H 204.017 3.23462 1.94042 0
M  V30 2214 H 206.404 2.24304 1.9176 0
M  V30 2215 H 206.485 2.55185 0.177225 0
M  V30 2216 H 206.129 5.04042 0.624848 0
M  V30 2217 H 206.059 4.70133 2.37239 0
M  V30 2218 H 208.55 3.5363 1.33244 0
M  V30 2219 H 208.863 7.42845 2.13076 0
M  V30 2220 H 207.208 6.67869 1.92293 0
M  V30 2221 H 210.399 4.40937 1.57137 0
M  V30 2222 H 210.572 6.18415 1.93563 0
M  V30 2223 N 203.978 -0.674533 1.42435 0
M  V30 2224 C 204.908 -1.80009 1.48724 0
M  V30 2225 C 205.889 -1.6659 0.343793 0
M  V30 2226 O 207.074 -1.86007 0.558137 0
M  V30 2227 C 204.204 -3.18306 1.38919 0
M  V30 2228 C 203.158 -3.46461 2.51294 0
M  V30 2229 C 202.484 -4.84335 2.26547 0
M  V30 2230 C 203.784 -3.43328 3.93603 0
M  V30 2231 H 205.478 -1.75004 2.42928 0
M  V30 2232 H 203.024 -0.840533 1.16923 0
M  V30 2233 H 204.977 -3.9678 1.41927 0
M  V30 2234 H 203.701 -3.2399 0.412094 0
M  V30 2235 H 202.36 -2.70348 2.47604 0
M  V30 2236 H 202.008 -4.86669 1.2713 0
M  V30 2237 H 201.708 -5.04136 3.01861 0
M  V30 2238 H 203.232 -5.65094 2.31304 0
M  V30 2239 H 204.646 -4.11772 3.98894 0
M  V30 2240 H 203.043 -3.74664 4.68771 0
M  V30 2241 H 204.113 -2.41897 4.20255 0
M  V30 2242 N 205.456 -1.28612 -0.910864 0
M  V30 2243 C 206.389 -1.07109 -2.01502 0
M  V30 2244 C 207.367 0.013706 -1.62594 0
M  V30 2245 O 208.551 -0.134796 -1.88017 0
M  V30 2246 C 205.678 -0.628255 -3.32822 0
M  V30 2247 C 204.724 -1.71012 -3.90714 0
M  V30 2248 S 205.557 -3.30676 -4.21205 0
M  V30 2249 C 206.713 -2.88234 -5.55583 0
M  V30 2250 H 206.946 -2.00591 -2.19432 0
M  V30 2251 H 204.479 -1.12633 -1.05609 0
M  V30 2252 H 206.437 -0.37946 -4.08742 0
M  V30 2253 H 205.098 0.28678 -3.12788 0
M  V30 2254 H 204.291 -1.35195 -4.85529 0
M  V30 2255 H 203.893 -1.91186 -3.21441 0
M  V30 2256 H 206.185 -2.34584 -6.35591 0
M  V30 2257 H 207.128 -3.81857 -5.96314 0
M  V30 2258 H 207.536 -2.26862 -5.16908 0
M  V30 2259 N 206.934 1.1197 -1.10907 0
M  V30 2260 C 207.844 2.21433 -0.774896 0
M  V30 2261 C 208.86 1.72478 0.229657 0
M  V30 2262 O 210.036 2.01288 0.0672008 0
M  V30 2263 C 207.101 3.4602 -0.216986 0
M  V30 2264 C 206.162 4.09791 -1.27944 0
M  V30 2265 C 205.395 5.28431 -0.748055 0
M  V30 2266 O 205.618 5.68823 0.423833 0
M  V30 2267 O 204.552 5.82644 -1.51027 0
M  V30 2268 H 208.378 2.5242 -1.68873 0
M  V30 2269 H 205.963 1.20399 -0.884555 0
M  V30 2270 H 207.845 4.21304 0.090059 0
M  V30 2271 H 206.52 3.16698 0.669633 0
M  V30 2272 H 205.427 3.36265 -1.63941 0
M  V30 2273 H 206.76 4.4328 -2.13925 0
M  V30 2274 N 208.412 0.89855 1.29475 0
M  V30 2275 C 209.344 0.332726 2.26772 0
M  V30 2276 C 210.357 -0.520323 1.54261 0
M  V30 2277 O 211.546 -0.337668 1.75277 0
M  V30 2278 C 208.646 -0.544334 3.345 0
M  V30 2279 C 207.819 0.282728 4.36485 0
M  V30 2280 C 206.878 -0.526982 5.23555 0
M  V30 2281 O 205.904 0.0551165 5.69173 0
M  V30 2282 N 207.106 -1.83331 5.5079 0
M  V30 2283 H 209.871 1.16897 2.75962 0
M  V30 2284 H 207.432 0.762919 1.42798 0
M  V30 2285 H 209.424 -1.09239 3.89678 0
M  V30 2286 H 207.994 -1.28127 2.85136 0
M  V30 2287 H 207.214 1.01221 3.80983 0
M  V30 2288 H 208.502 0.84918 5.01664 0
M  V30 2289 H 207.9 -2.32898 5.15534 0
M  V30 2290 H 206.457 -2.32852 6.08788 0
M  V30 2291 N 209.89 -1.43072 0.660911 0
M  V30 2292 C 210.837 -2.30785 -0.0259884 0
M  V30 2293 C 211.807 -1.45184 -0.806888 0
M  V30 2294 O 212.992 -1.74041 -0.781943 0
M  V30 2295 C 210.132 -3.30861 -0.981067 0
M  V30 2296 C 209.245 -4.31558 -0.195458 0
M  V30 2297 C 208.38 -5.18712 -1.14503 0
M  V30 2298 C 207.419 -6.11097 -0.350299 0
M  V30 2299 N 206.556 -6.90849 -1.25186 0
M  V30 2300 H 211.396 -2.88975 0.727846 0
M  V30 2301 H 208.933 -1.42353 0.370682 0
M  V30 2302 H 210.891 -3.87399 -1.54849 0
M  V30 2303 H 209.521 -2.74304 -1.70169 0
M  V30 2304 H 208.573 -3.77252 0.488374 0
M  V30 2305 H 209.885 -4.9701 0.422176 0
M  V30 2306 H 209.039 -5.79914 -1.78284 0
M  V30 2307 H 207.778 -4.53404 -1.79656 0
M  V30 2308 H 206.783 -5.48976 0.300808 0
M  V30 2309 H 208.008 -6.7845 0.296941 0
M  V30 2310 H 205.954 -6.28182 -1.89005 0
M  V30 2311 H 205.871 -7.52854 -0.688971 0
M  V30 2312 H 207.139 -7.5655 -1.87757 0
M  V30 2313 N 211.368 -0.403325 -1.52352 0
M  V30 2314 C 212.315 0.425011 -2.26853 0
M  V30 2315 C 213.285 1.04598 -1.29029 0
M  V30 2316 O 214.47 1.07135 -1.57882 0
M  V30 2317 C 211.61 1.53888 -3.08889 0
M  V30 2318 C 210.723 0.939396 -4.21663 0
M  V30 2319 C 209.858 2.02547 -4.91068 0
M  V30 2320 C 208.897 1.40263 -5.95813 0
M  V30 2321 N 208.034 2.4286 -6.58759 0
M  V30 2322 H 212.874 -0.21674 -2.97211 0
M  V30 2323 H 210.411 -0.118722 -1.4662 0
M  V30 2324 H 212.369 2.19558 -3.54753 0
M  V30 2325 H 210.999 2.15074 -2.40714 0
M  V30 2326 H 210.051 0.171898 -3.80011 0
M  V30 2327 H 211.363 0.44436 -4.96817 0
M  V30 2328 H 210.517 2.75958 -5.40308 0
M  V30 2329 H 209.256 2.55415 -4.15469 0
M  V30 2330 H 208.261 0.653833 -5.45898 0
M  V30 2331 H 209.486 0.881719 -6.73352 0
M  V30 2332 H 207.432 2.94871 -5.85992 0
M  V30 2333 H 207.349 1.98152 -7.2957 0
M  V30 2334 H 208.617 3.15858 -7.12639 0
M  V30 2335 N 212.846 1.57033 -0.133567 0
M  V30 2336 C 214.093 1.95686 0.520877 0
M  V30 2337 C 214.421 1.0177 1.6575 0
M  V30 2338 O 213.676 0.0443195 1.9565 0
M  V30 2339 C 213.975 3.40674 1.08057 0
M  V30 2340 C 213.641 4.50855 0.0637899 0
M  V30 2341 C 212.303 4.80716 -0.215757 0
M  V30 2342 C 214.655 5.17398 -0.62835 0
M  V30 2343 C 211.983 5.74433 -1.19348 0
M  V30 2344 C 214.335 6.12167 -1.5948 0
M  V30 2345 C 212.999 6.40414 -1.88218 0
M  V30 2346 H 212.269 0.716067 0.190602 0
M  V30 2347 H 214.916 1.9026 -0.217556 0
M  V30 2348 H 213.221 3.42865 1.89606 0
M  V30 2349 H 214.918 3.67902 1.59529 0
M  V30 2350 H 211.508 4.27605 0.291855 0
M  V30 2351 H 215.692 4.94472 -0.425562 0
M  V30 2352 H 210.948 5.94616 -1.42272 0
M  V30 2353 H 215.122 6.6281 -2.13671 0
M  V30 2354 H 212.749 7.12838 -2.64133 0
M  V30 2355 N 214.325 -0.140222 1.56975 0
M  V30 2356 C 215.288 -1.15689 1.97861 0
M  V30 2357 C 216.288 -1.3549 0.865974 0
M  V30 2358 O 217.478 -1.32367 1.13246 0
M  V30 2359 C 214.61 -2.51582 2.30042 0
M  V30 2360 H 215.803 -0.805971 2.88867 0
M  V30 2361 H 213.356 -0.383801 1.51515 0
M  V30 2362 H 214.091 -2.91632 1.41849 0
M  V30 2363 H 213.876 -2.38569 3.11171 0
M  V30 2364 H 215.366 -3.24792 2.62488 0
M  V30 2365 N 215.803 -1.52179 -0.40978 0
M  V30 2366 C 216.75 -1.75475 -1.49924 0
M  V30 2367 C 217.72 -0.597175 -1.54994 0
M  V30 2368 O 218.905 -0.834655 -1.71575 0
M  V30 2369 C 216.045 -1.9107 -2.87378 0
M  V30 2370 C 215.158 -3.18717 -2.91622 0
M  V30 2371 C 214.293 -3.24747 -4.20372 0
M  V30 2372 C 213.332 -4.46598 -4.18588 0
M  V30 2373 N 212.469 -4.50025 -5.38908 0
M  V30 2374 H 217.309 -2.68458 -1.29361 0
M  V30 2375 H 214.846 -1.33024 -0.627934 0
M  V30 2376 H 216.804 -1.98096 -3.6717 0
M  V30 2377 H 215.434 -1.01469 -3.06437 0
M  V30 2378 H 214.486 -3.20866 -2.04326 0
M  V30 2379 H 215.798 -4.08544 -2.86169 0
M  V30 2380 H 214.952 -3.30841 -5.08556 0
M  V30 2381 H 213.691 -2.32857 -4.28519 0
M  V30 2382 H 212.696 -4.40652 -3.28794 0
M  V30 2383 H 213.921 -5.39783 -4.12081 0
M  V30 2384 H 211.867 -3.61017 -5.47725 0
M  V30 2385 H 211.784 -5.33697 -5.35447 0
M  V30 2386 H 213.052 -4.60347 -6.29048 0
M  V30 2387 N 217.281 0.66697 -1.42791 0
M  V30 2388 C 218.528 1.42699 -1.43678 0
M  V30 2389 C 218.856 1.94419 -0.0560425 0
M  V30 2390 O 218.111 1.7182 0.936831 0
M  V30 2391 C 218.41 2.6349 -2.4147 0
M  V30 2392 C 218.076 2.30267 -3.8767 0
M  V30 2393 C 216.738 2.20918 -4.27491 0
M  V30 2394 C 219.09 2.03435 -4.79858 0
M  V30 2395 C 216.418 1.82873 -5.57471 0
M  V30 2396 C 218.77 1.66892 -6.10188 0
M  V30 2397 C 217.434 1.56058 -6.49001 0
M  V30 2398 H 216.704 0.522171 -0.525755 0
M  V30 2399 H 219.351 0.759785 -1.75783 0
M  V30 2400 H 217.656 3.35279 -2.0272 0
M  V30 2401 H 219.353 3.21684 -2.39417 0
M  V30 2402 H 215.943 2.38449 -3.56146 0
M  V30 2403 H 220.127 2.09586 -4.49875 0
M  V30 2404 H 215.383 1.7306 -5.86396 0
M  V30 2405 H 219.557 1.45157 -6.81104 0
M  V30 2406 H 217.184 1.26348 -7.49627 0
M  V30 2407 N 218.759 1.29093 0.90403 0
M  V30 2408 C 219.722 1.1386 1.98919 0
M  V30 2409 C 220.722 0.0753457 1.60623 0
M  V30 2410 O 221.912 0.321931 1.71199 0
M  V30 2411 C 219.044 0.740198 3.32767 0
M  V30 2412 H 220.237 2.10246 2.13861 0
M  V30 2413 H 217.79 1.12218 1.08797 0
M  V30 2414 H 218.525 -0.223997 3.23525 0
M  V30 2415 H 218.31 1.50838 3.61926 0
M  V30 2416 H 219.8 0.656546 4.12407 0
M  V30 2417 N 220.237 -1.11381 1.11499 0
M  V30 2418 C 221.167 -2.19509 0.796125 0
M  V30 2419 C 222.148 -1.68458 -0.235796 0
M  V30 2420 O 223.333 -1.93947 -0.0991344 0
M  V30 2421 C 220.463 -3.46475 0.239205 0
M  V30 2422 C 219.417 -4.10744 1.20307 0
M  V30 2423 C 218.743 -5.32293 0.50683 0
M  V30 2424 C 220.043 -4.55597 2.55399 0
M  V30 2425 H 221.737 -2.46439 1.70024 0
M  V30 2426 H 219.283 -1.18446 0.818935 0
M  V30 2427 H 221.236 -4.214 0.00392006 0
M  V30 2428 H 219.96 -3.19006 -0.700206 0
M  V30 2429 H 218.619 -3.37813 1.42399 0
M  V30 2430 H 218.267 -5.01095 -0.437408 0
M  V30 2431 H 217.967 -5.76243 1.1497 0
M  V30 2432 H 219.491 -6.09956 0.280351 0
M  V30 2433 H 220.905 -5.21841 2.37391 0
M  V30 2434 H 219.302 -5.10363 3.15673 0
M  V30 2435 H 220.372 -3.69013 3.14575 0
M  V30 2436 N 221.715 -0.905404 -1.28997 0
M  V30 2437 C 222.943 -0.549846 -1.9946 0
M  V30 2438 C 223.358 0.866834 -1.67724 0
M  V30 2439 O 222.715 1.57298 -0.925404 0
M  V30 2440 C 222.766 -0.739387 -3.53858 0
M  V30 2441 O 222.487 -2.10031 -3.84472 0
M  V30 2442 C 223.988 -0.389541 -4.41585 0
M  V30 2443 H 221.208 -0.210429 -0.637151 0
M  V30 2444 H 223.752 -1.21632 -1.64396 0
M  V30 2445 H 221.907 -0.120023 -3.87214 0
M  V30 2446 H 222.321 -2.13385 -4.79132 0
M  V30 2447 H 223.795 -0.572972 -5.49018 0
M  V30 2448 H 224.272 0.673756 -4.34001 0
M  V30 2449 H 224.878 -0.986089 -4.1371 0
M  V30 2450 N 223.193 1.4272 -0.668489 0
M  V30 2451 C 224.421 2.05966 -0.196348 0
M  V30 2452 C 224.836 1.50191 1.14403 0
M  V30 2453 O 224.193 0.639208 1.7094 0
M  V30 2454 C 224.244 3.61314 -0.115815 0
M  V30 2455 O 223.965 4.1502 -1.40322 0
M  V30 2456 C 225.466 4.41663 0.380579 0
M  V30 2457 H 222.686 0.663954 -0.0969829 0
M  V30 2458 H 225.23 1.82966 -0.913446 0
M  V30 2459 H 223.385 3.83448 0.551931 0
M  V30 2460 H 223.799 5.08832 -1.27243 0
M  V30 2461 H 225.273 5.5065 0.385848 0
M  V30 2462 H 225.75 4.15792 1.41471 0
M  V30 2463 H 226.356 4.24534 -0.255209 0
M  V30 2464 N 224.671 0.411399 1.52136 0
M  V30 2465 C 225.948 -0.222308 1.94333 0
M  V30 2466 C 226.328 -1.6242 1.34844 0
M  V30 2467 O 225.676 -2.22384 0.525145 0
M  V30 2468 C 225.886 -0.226345 3.48265 0
M  V30 2469 C 227.234 -0.444592 4.22266 0
M  V30 2470 O 228.258 -0.305602 3.54887 0
M  V30 2471 O 227.117 -0.718749 5.41753 0
M  V30 2472 H 224.211 -0.143907 0.814383 0
M  V30 2473 H 226.757 0.467506 1.63133 0
M  V30 2474 H 225.529 0.75475 3.83952 0
M  V30 2475 H 225.152 -0.960163 3.85832 0
M  V30 2476 N 226.149 -1.5696 0.141893 0
M  V30 2477 C 227.374 -2.00754 -0.520838 0
M  V30 2478 C 227.799 -1.0213 -1.57959 0
M  V30 2479 O 227.157 0.00371324 -1.813 0
M  V30 2480 C 227.205 -3.43318 -1.10294 0
M  V30 2481 O 226.309 -3.47679 -2.21795 0
M  V30 2482 H 225.65 -0.651564 -0.127908 0
M  V30 2483 H 228.18 -2.03221 0.23712 0
M  V30 2484 H 228.19 -3.82012 -1.43287 0
M  V30 2485 H 226.865 -4.14608 -0.327574 0
M  V30 2486 H 225.442 -3.20824 -1.9007 0
M  V30 2487 N 227.627 0.131896 -1.57047 0
M  V30 2488 C 228.874 0.841932 -1.84168 0
M  V30 2489 C 229.202 1.8048 -0.725066 0
M  V30 2490 O 228.457 1.93618 0.284692 0
M  V30 2491 C 228.756 1.63703 -3.17704 0
M  V30 2492 C 228.422 0.81961 -4.43388 0
M  V30 2493 C 227.084 0.594148 -4.77518 0
M  V30 2494 C 229.436 0.248977 -5.20605 0
M  V30 2495 C 226.764 -0.212409 -5.86315 0
M  V30 2496 C 229.116 -0.544701 -6.30251 0
M  V30 2497 C 227.78 -0.780599 -6.6292 0
M  V30 2498 H 227.05 0.308085 -0.673917 0
M  V30 2499 H 229.697 0.104867 -1.91213 0
M  V30 2500 H 228.002 2.44464 -3.06177 0
M  V30 2501 H 229.699 2.19015 -3.35907 0
M  V30 2502 H 226.289 1.00542 -4.16641 0
M  V30 2503 H 230.473 0.410408 -4.946 0
M  V30 2504 H 225.729 -0.404524 -6.1006 0
M  V30 2505 H 229.903 -0.993922 -6.89271 0
M  V30 2506 H 227.53 -1.40742 -7.47058 0
M  V30 2507 N 229.106 1.52395 0.401703 0
M  V30 2508 C 230.053 1.76268 1.48991 0
M  V30 2509 C 231.023 0.605386 1.54675 0
M  V30 2510 O 232.208 0.843742 1.7113 0
M  V30 2511 C 229.348 1.92592 2.86361 0
M  V30 2512 C 228.461 3.20259 2.89928 0
M  V30 2513 C 227.596 3.26972 4.18644 0
M  V30 2514 C 226.635 4.48812 4.16214 0
M  V30 2515 N 225.772 4.52877 5.36514 0
M  V30 2516 H 230.612 2.6914 1.27935 0
M  V30 2517 H 228.149 1.33355 0.620871 0
M  V30 2518 H 230.107 2.0004 3.66115 0
M  V30 2519 H 228.737 1.03093 3.05895 0
M  V30 2520 H 227.789 3.21945 2.02621 0
M  V30 2521 H 229.101 4.10056 2.83999 0
M  V30 2522 H 228.255 3.33533 5.06794 0
M  V30 2523 H 226.994 2.35126 4.27278 0
M  V30 2524 H 225.999 4.4239 3.26453 0
M  V30 2525 H 227.224 5.41961 4.09213 0
M  V30 2526 H 225.17 3.63917 5.45802 0
M  V30 2527 H 225.087 5.36529 5.32609 0
M  V30 2528 H 226.355 4.63676 6.26597 0
M  V30 2529 N 230.584 -0.659388 1.43143 0
M  V30 2530 C 232 -0.974337 1.26407 0
M  V30 2531 C 232.2 -2.007 0.179341 0
M  V30 2532 O 231.256 -2.4856 -0.444295 0
M  V30 2533 C 232.569 -1.46447 2.62628 0
M  V30 2534 C 234.117 -1.58144 2.7011 0
M  V30 2535 C 234.592 -2.1055 4.06734 0
M  V30 2536 N 236.083 -2.17861 4.08767 0
M  V30 2537 C 236.818 -2.59519 5.1131 0
M  V30 2538 N 236.314 -3.00518 6.24228 0
M  V30 2539 N 238.107 -2.59404 4.98664 0
M  V30 2540 H 230.258 0.0240528 2.12386 0
M  V30 2541 H 232.521 -0.0518065 0.946583 0
M  V30 2542 H 232.227 -0.780123 3.42939 0
M  V30 2543 H 232.101 -2.44058 2.87603 0
M  V30 2544 H 234.488 -2.25682 1.90136 0
M  V30 2545 H 234.569 -0.589828 2.48907 0
M  V30 2546 H 234.213 -1.43616 4.87172 0
M  V30 2547 H 234.143 -3.10531 4.25298 0
M  V30 2548 H 236.634 -1.88975 3.27257 0
M  V30 2549 H 236.947 -3.31036 6.98309 0
M  V30 2550 H 235.292 -2.98337 6.2771 0
M  V30 2551 H 238.483 -2.26747 4.09516 0
M  V30 2552 H 238.656 -2.91548 5.78709 0
M  V30 2553 N 232.062 -1.29571 -0.897171 0
M  V30 2554 C 233.292 -1.20408 -1.67886 0
M  V30 2555 C 233.7 0.237429 -1.87704 0
M  V30 2556 O 233.043 1.17048 -1.41582 0
M  V30 2557 C 233.105 -1.84887 -3.08314 0
M  V30 2558 C 232.769 -3.34189 -3.11716 0
M  V30 2559 C 233.766 -4.30374 -2.91675 0
M  V30 2560 C 231.451 -3.75431 -3.33701 0
M  V30 2561 C 233.445 -5.65776 -2.93557 0
M  V30 2562 C 231.132 -5.10955 -3.35214 0
M  V30 2563 C 232.13 -6.05938 -3.15164 0
M  V30 2564 O 231.818 -7.38987 -3.1647 0
M  V30 2565 H 231.55 -0.418289 -0.531046 0
M  V30 2566 H 234.104 -1.71514 -1.13014 0
M  V30 2567 H 232.334 -1.28295 -3.64798 0
M  V30 2568 H 234.023 -1.70011 -3.6858 0
M  V30 2569 H 234.789 -3.99844 -2.74499 0
M  V30 2570 H 230.668 -3.01953 -3.48347 0
M  V30 2571 H 234.212 -6.39889 -2.77826 0
M  V30 2572 H 230.109 -5.4113 -3.51922 0
M  V30 2573 H 230.877 -7.47823 -3.3272 0
M  V30 2574 N 233.54 1.10788 -1.12088 0
M  V30 2575 C 234.786 1.82942 -0.875226 0
M  V30 2576 C 235.119 1.84779 0.597538 0
M  V30 2577 O 234.394 1.30578 1.44152 0
M  V30 2578 C 234.677 3.29789 -1.44606 0
M  V30 2579 C 234.53 3.36307 -2.98693 0
M  V30 2580 C 235.849 4.26064 -1.10261 0
M  V30 2581 H 232.968 0.664195 -0.319397 0
M  V30 2582 H 235.61 1.29867 -1.38689 0
M  V30 2583 H 233.76 3.75118 -1.01089 0
M  V30 2584 H 235.432 2.99487 -3.50864 0
M  V30 2585 H 233.675 2.76318 -3.34411 0
M  V30 2586 H 234.346 4.39694 -3.33726 0
M  V30 2587 H 236.822 3.88951 -1.4784 0
M  V30 2588 H 235.698 5.27183 -1.52869 0
M  V30 2589 H 235.959 4.42098 -0.0142953 0
M  V30 2590 N 235.018 0.912232 1.28515 0
M  V30 2591 C 236.429 0.591352 1.77087 0
M  V30 2592 C 236.78 -0.8933 1.74684 0
M  V30 2593 O 235.905 -1.69876 1.34056 0
M  V30 2594 C 236.5 1.06668 3.2157 0
M  V30 2595 C 235.059 0.79675 3.67871 0
M  V30 2596 C 234.206 1.23427 2.48316 0
M  V30 2597 H 237.157 1.09365 1.15 0
M  V30 2598 H 237.178 0.407455 3.78312 0
M  V30 2599 H 236.69 2.14726 3.23287 0
M  V30 2600 H 234.791 -0.270679 3.71616 0
M  V30 2601 H 234.904 1.40343 4.58084 0
M  V30 2602 H 233.268 0.653036 2.46186 0
M  V30 2603 H 234.051 2.32316 2.52753 0
M  V30 2604 N 236.496 -1.42363 0.676048 0
M  V30 2605 C 237.443 -2.308 -0.00150904 0
M  V30 2606 C 238.413 -1.46032 -0.791444 0
M  V30 2607 O 239.598 -1.74861 -0.76344 0
M  V30 2608 C 236.738 -3.31883 -0.945919 0
M  V30 2609 C 235.851 -4.31741 -0.149675 0
M  V30 2610 C 234.986 -5.19898 -1.08995 0
M  V30 2611 C 234.025 -6.11434 -0.285465 0
M  V30 2612 N 233.162 -6.92138 -1.17851 0
M  V30 2613 H 238.002 -2.88187 0.758455 0
M  V30 2614 H 235.539 -1.41952 0.38576 0
M  V30 2615 H 237.497 -3.89019 -1.50731 0
M  V30 2616 H 236.127 -2.76093 -1.6725 0
M  V30 2617 H 235.179 -3.76713 0.528359 0
M  V30 2618 H 236.491 -4.96534 0.474866 0
M  V30 2619 H 235.645 -5.81772 -1.72123 0
M  V30 2620 H 234.384 -4.55284 -1.74837 0
M  V30 2621 H 233.389 -5.48627 0.359018 0
M  V30 2622 H 234.614 -6.78097 0.368883 0
M  V30 2623 H 232.56 -6.30152 -1.82332 0
M  V30 2624 H 232.477 -7.53542 -0.609082 0
M  V30 2625 H 233.745 -7.58499 -1.79722 0
M  V30 2626 N 237.974 -0.419461 -1.51915 0
M  V30 2627 C 239.223 0.154346 -2.01109 0
M  V30 2628 C 239.536 1.45338 -1.30905 0
M  V30 2629 O 240.742 2.10906 -1.7097 0
M  V30 2630 C 239.198 0.325615 -3.58424 0
M  V30 2631 C 238.806 -0.961934 -4.37551 0
M  V30 2632 C 240.55 0.854155 -4.15818 0
M  V30 2633 C 238.457 -0.757287 -5.86531 0
M  V30 2634 H 237.387 0.0614563 -0.751491 0
M  V30 2635 H 240.038 -0.54649 -1.75173 0
M  V30 2636 H 238.42 1.08903 -3.80731 0
M  V30 2637 H 239.594 -1.7323 -4.26999 0
M  V30 2638 H 237.909 -1.41766 -3.91524 0
M  V30 2639 H 240.506 1.02346 -5.24814 0
M  V30 2640 H 240.849 1.83172 -3.73837 0
M  V30 2641 H 241.382 0.149528 -3.97519 0
M  V30 2642 H 238.121 -1.70671 -6.32892 0
M  V30 2643 H 237.641 -0.0264061 -5.99794 0
M  V30 2644 H 239.32 -0.403482 -6.45741 0
M  V30 2645 N 239.452 1.56882 -0.150215 0
M  V30 2646 C 240.868 1.58263 0.20617 0
M  V30 2647 C 241.068 1.16464 1.64434 0
M  V30 2648 O 240.124 0.866422 2.3717 0
M  V30 2649 C 241.437 3.00649 -0.0555025 0
M  V30 2650 C 242.985 3.12999 0.00795388 0
M  V30 2651 C 243.46 4.5744 -0.226429 0
M  V30 2652 N 244.951 4.62875 -0.173469 0
M  V30 2653 C 245.686 5.72454 -0.329288 0
M  V30 2654 N 245.182 6.90669 -0.543005 0
M  V30 2655 N 246.975 5.61467 -0.266666 0
M  V30 2656 H 239.126 1.82345 -1.08922 0
M  V30 2657 H 241.389 0.844149 -0.431413 0
M  V30 2658 H 241.095 3.3563 -1.05096 0
M  V30 2659 H 240.969 3.71337 0.66246 0
M  V30 2660 H 243.356 2.77857 0.993966 0
M  V30 2661 H 243.437 2.4479 -0.742388 0
M  V30 2662 H 243.081 4.93287 -1.20956 0
M  V30 2663 H 243.011 5.2378 0.544274 0
M  V30 2664 H 245.502 3.77898 -0.0130709 0
M  V30 2665 H 245.815 7.70045 -0.651922 0
M  V30 2666 H 244.16 6.92581 -0.579366 0
M  V30 2667 H 247.351 4.67992 -0.100441 0
M  V30 2668 H 247.524 6.46816 -0.391535 0
M  V30 2669 N 240.93 -0.123565 1.57115 0
M  V30 2670 C 241.84 -1.17074 2.033 0
M  V30 2671 C 242.856 -1.4561 0.952559 0
M  V30 2672 O 244.032 -1.56817 1.26374 0
M  V30 2673 C 241.097 -2.47857 2.42421 0
M  V30 2674 C 240.158 -2.26758 3.64526 0
M  V30 2675 C 239.391 -3.51305 4.01771 0
M  V30 2676 O 239.614 -4.5843 3.39409 0
M  V30 2677 O 238.548 -3.42578 4.94898 0
M  V30 2678 H 242.374 -0.808555 2.92739 0
M  V30 2679 H 239.959 -0.334027 1.45618 0
M  V30 2680 H 241.841 -3.2492 2.68338 0
M  V30 2681 H 240.516 -2.83558 1.5613 0
M  V30 2682 H 239.423 -1.47569 3.43765 0
M  V30 2683 H 240.756 -1.95963 4.51508 0
M  V30 2684 N 242.408 -1.52605 -0.393616 0
M  V30 2685 C 243.318 -1.79971 -1.50492 0
M  V30 2686 C 244.334 -0.686181 -1.59899 0
M  V30 2687 O 245.51 -0.973274 -1.76322 0
M  V30 2688 C 242.575 -1.95867 -2.86072 0
M  V30 2689 C 241.636 -3.19781 -2.86424 0
M  V30 2690 C 240.869 -3.34909 -4.15538 0
M  V30 2691 O 241.092 -2.54948 -5.10253 0
M  V30 2692 O 240.026 -4.28141 -4.23059 0
M  V30 2693 H 243.852 -2.74328 -1.30299 0
M  V30 2694 H 241.437 -1.3764 -0.581005 0
M  V30 2695 H 243.319 -2.08056 -3.66457 0
M  V30 2696 H 241.994 -1.04699 -3.063 0
M  V30 2697 H 240.901 -3.13038 -2.04837 0
M  V30 2698 H 242.234 -4.1078 -2.71147 0
M  V30 2699 N 243.887 0.651787 -1.4349 0
M  V30 2700 C 245.136 1.40754 -1.44469 0
M  V30 2701 C 245.449 1.95463 -0.0731845 0
M  V30 2702 O 246.655 2.71471 0.0395721 0
M  V30 2703 C 245.111 2.54735 -2.5424 0
M  V30 2704 C 244.719 2.06628 -3.97504 0
M  V30 2705 C 246.463 3.32092 -2.64414 0
M  V30 2706 C 244.37 3.17829 -4.98737 0
M  V30 2707 H 243.3 0.528862 -0.53742 0
M  V30 2708 H 245.951 0.703365 -1.69485 0
M  V30 2709 H 244.333 3.2763 -2.22428 0
M  V30 2710 H 245.507 1.40734 -4.38783 0
M  V30 2711 H 243.822 1.42146 -3.91387 0
M  V30 2712 H 246.419 4.14952 -3.37223 0
M  V30 2713 H 246.762 3.80217 -1.69532 0
M  V30 2714 H 247.295 2.66279 -2.95534 0
M  V30 2715 H 244.034 2.74671 -5.95177 0
M  V30 2716 H 243.554 3.82429 -4.62069 0
M  V30 2717 H 245.233 3.82937 -5.21505 0
M  V30 2718 N 245.365 1.30045 0.890287 0
M  V30 2719 C 246.295 1.18541 2.01172 0
M  V30 2720 C 247.276 0.0773356 1.69924 0
M  V30 2721 O 248.461 0.25845 1.92473 0
M  V30 2722 C 245.591 0.870941 3.36202 0
M  V30 2723 C 244.545 1.93637 3.81692 0
M  V30 2724 C 243.871 1.475 5.13953 0
M  V30 2725 C 245.171 3.34666 4.00994 0
M  V30 2726 H 246.865 2.12359 2.11054 0
M  V30 2727 H 244.411 1.02238 1.01407 0
M  V30 2728 H 246.364 0.777141 4.14172 0
M  V30 2729 H 245.088 -0.102926 3.26438 0
M  V30 2730 H 243.747 2.01972 3.05946 0
M  V30 2731 H 243.395 0.489551 5.00612 0
M  V30 2732 H 243.095 2.1876 5.4536 0
M  V30 2733 H 244.619 1.39489 5.94454 0
M  V30 2734 H 246.033 3.2912 4.69417 0
M  V30 2735 H 244.43 4.03966 4.43769 0
M  V30 2736 H 245.5 3.76949 3.05021 0
M  V30 2737 N 246.843 -1.10192 1.12674 0
M  V30 2738 C 247.791 -2.18694 0.792196 0
M  V30 2739 C 248.785 -1.67938 -0.222058 0
M  V30 2740 O 249.991 -1.79822 -0.0800074 0
M  V30 2741 H 246.366 -0.713223 0.238364 0
M  V30 2742 H 248.337 -2.44149 1.71564 0
M  V30 2743 C 247.086 -3.46682 0.265859 0
M  V30 2744 H 246.409 -3.86101 1.03761 0
M  V30 2745 H 247.849 -4.23942 0.0701128 0
M  V30 2746 C 246.308 -3.21506 -1.00675 0
M  V30 2747 O 246.838 -3.43408 -2.08408 0
M  V30 2748 N 245.044 -2.75158 -0.934692 0
M  V30 2749 H 244.591 -2.57535 -0.0578604 0
M  V30 2750 H 244.549 -2.58691 -1.7868 0
M  V30 2751 N 248.321 -0.919034 -1.28029 0
M  V30 2752 C 249.551 -0.570143 -1.98577 0
M  V30 2753 C 249.959 0.854172 -1.68821 0
M  V30 2754 O 249.302 1.57807 -0.940351 0
M  V30 2755 C 249.364 -0.705734 -3.52505 0
M  V30 2756 C 249.028 -2.10057 -4.05863 0
M  V30 2757 C 250.025 -3.07385 -4.19298 0
M  V30 2758 C 247.71 -2.41517 -4.40426 0
M  V30 2759 C 249.704 -4.34287 -4.66555 0
M  V30 2760 C 247.391 -3.68657 -4.87376 0
M  V30 2761 C 248.389 -4.64856 -5.00398 0
M  V30 2762 O 248.077 -5.89735 -5.46322 0
M  V30 2763 H 247.809 -0.215592 -0.6407 0
M  V30 2764 H 250.363 -1.23583 -1.64062 0
M  V30 2765 H 248.593 0.0170414 -3.86696 0
M  V30 2766 H 250.282 -0.363172 -4.04272 0
M  V30 2767 H 251.048 -2.84398 -3.92865 0
M  V30 2768 H 246.927 -1.67389 -4.29537 0
M  V30 2769 H 250.471 -5.09377 -4.76635 0
M  V30 2770 H 246.368 -3.91466 -5.13249 0
M  V30 2771 H 247.136 -5.92599 -5.64596 0
M  V30 2772 N 249.799 1.42003 -0.683588 0
M  V30 2773 C 251.046 2.01413 -0.209514 0
M  V30 2774 C 251.374 1.54088 1.1869 0
M  V30 2775 O 250.629 0.737591 1.81268 0
M  V30 2776 C 250.928 3.56827 -0.202357 0
M  V30 2777 C 250.594 4.23617 -1.54464 0
M  V30 2778 C 249.256 4.41577 -1.91215 0
M  V30 2779 C 251.608 4.61178 -2.42826 0
M  V30 2780 C 248.936 4.9437 -3.15935 0
M  V30 2781 C 251.288 5.15355 -3.66867 0
M  V30 2782 C 249.952 5.31528 -4.03776 0
M  V30 2783 H 249.222 0.737023 -0.0766668 0
M  V30 2784 H 251.869 1.70067 -0.880312 0
M  V30 2785 H 250.174 3.87892 0.551969 0
M  V30 2786 H 251.871 4.00588 0.181793 0
M  V30 2787 H 248.461 4.10004 -1.24877 0
M  V30 2788 H 252.645 4.46968 -2.15717 0
M  V30 2789 H 247.901 5.05076 -3.44541 0
M  V30 2790 H 252.075 5.43402 -4.35531 0
M  V30 2791 H 249.702 5.72199 -5.00492 0
M  V30 2792 N 251.277 0.427512 1.51691 0
M  V30 2793 C 252.523 -0.142439 2.02299 0
M  V30 2794 C 252.856 -1.43214 1.31162 0
M  V30 2795 O 252.131 -1.89833 0.423511 0
M  V30 2796 C 252.414 -0.371301 3.58181 0
M  V30 2797 C 252.267 0.936358 4.39946 0
M  V30 2798 C 253.586 -1.14542 4.24933 0
M  V30 2799 H 250.705 -0.0502937 0.735282 0
M  V30 2800 H 253.347 0.564584 1.81418 0
M  V30 2801 H 251.497 -0.973559 3.76104 0
M  V30 2802 H 253.169 1.57184 4.33694 0
M  V30 2803 H 251.412 1.5432 4.05423 0
M  V30 2804 H 252.083 0.730388 5.47147 0
M  V30 2805 H 254.559 -0.635362 4.11221 0
M  V30 2806 H 253.435 -1.27431 5.33903 0
M  V30 2807 H 253.696 -2.17093 3.85127 0
M  V30 2808 N 252.755 -1.56801 0.158532 0
M  V30 2809 C 253.983 -2.00859 -0.496303 0
M  V30 2810 C 254.398 -1.03871 -1.57659 0
M  V30 2811 O 253.755 -0.0375165 -1.82461 0
M  V30 2812 C 253.806 -3.4479 -1.08638 0
M  V30 2813 O 253.527 -4.38072 -0.0492322 0
M  V30 2814 C 255.028 -4.04185 -1.8207 0
M  V30 2815 H 252.248 -0.65864 -0.128199 0
M  V30 2816 H 254.792 -2.02885 0.256506 0
M  V30 2817 H 252.947 -3.43579 -1.78975 0
M  V30 2818 H 253.361 -5.2227 -0.483102 0
M  V30 2819 H 254.835 -5.06857 -2.18633 0
M  V30 2820 H 255.312 -3.45549 -2.71095 0
M  V30 2821 H 255.918 -4.0906 -1.16405 0
M  V30 2822 N 254.233 0.115231 -1.57178 0
M  V30 2823 C 255.51 0.852873 -1.76027 0
M  V30 2824 C 255.89 1.97892 -0.73498 0
M  V30 2825 O 255.238 2.27232 0.24036 0
M  V30 2826 C 255.448 1.36608 -3.21153 0
M  V30 2827 C 256.796 1.81692 -3.83762 0
M  V30 2828 O 257.82 1.46278 -3.24779 0
M  V30 2829 O 256.679 2.47104 -4.87444 0
M  V30 2830 H 253.773 0.405296 -0.720877 0
M  V30 2831 H 256.319 0.0986785 -1.69413 0
M  V30 2832 H 255.091 0.558357 -3.87296 0
M  V30 2833 H 254.714 2.18287 -3.3232 0
M  V30 2834 N 255.711 1.52812 0.385517 0
M  V30 2835 C 256.621 1.80766 1.49535 0
M  V30 2836 C 257.637 0.694651 1.59532 0
M  V30 2837 O 258.813 0.982611 1.75803 0
M  V30 2838 C 255.878 1.97381 2.85029 0
M  V30 2839 C 254.939 3.21295 2.84724 0
M  V30 2840 C 254.172 3.37108 4.13756 0
M  V30 2841 O 254.395 2.5765 5.08893 0
M  V30 2842 O 253.329 4.30378 4.20783 0
M  V30 2843 H 257.155 2.75015 1.28842 0
M  V30 2844 H 254.74 1.37946 0.573697 0
M  V30 2845 H 256.622 2.09996 3.65349 0
M  V30 2846 H 255.297 1.06322 3.05741 0
M  V30 2847 H 254.204 3.1412 2.03174 0
M  V30 2848 H 255.537 4.12212 2.68965 0
M  V30 2849 N 257.189 -0.644168 1.43834 0
M  V30 2850 C 258.414 -1.43642 1.49605 0
M  V30 2851 C 258.839 -1.8773 0.117913 0
M  V30 2852 O 258.197 -1.57938 -0.890239 0
M  V30 2853 C 258.245 -2.6416 2.45463 0
M  V30 2854 O 257.349 -3.63538 1.94714 0
M  V30 2855 H 256.69 -0.430329 0.50568 0
M  V30 2856 H 259.22 -0.787448 1.8884 0
M  V30 2857 H 259.23 -3.11864 2.63068 0
M  V30 2858 H 257.905 -2.31414 3.45572 0
M  V30 2859 H 256.482 -3.2273 1.86814 0
M  V30 2860 N 258.668 -1.30515 -0.883378 0
M  V30 2861 C 259.915 -1.1943 -1.63532 0
M  V30 2862 C 260.243 0.250627 -1.92878 0
M  V30 2863 O 259.498 1.19556 -1.54935 0
M  V30 2864 C 259.797 -1.96994 -2.98209 0
M  V30 2865 C 259.463 -3.466 -2.88408 0
M  V30 2866 C 258.125 -3.87397 -2.85442 0
M  V30 2867 C 260.477 -4.41863 -2.76418 0
M  V30 2868 C 257.805 -5.21745 -2.68327 0
M  V30 2869 C 260.157 -5.7632 -2.60841 0
M  V30 2870 C 258.821 -6.16354 -2.56251 0
M  V30 2871 H 258.091 -0.437025 -0.598406 0
M  V30 2872 H 260.738 -1.61635 -1.02696 0
M  V30 2873 H 259.043 -1.47429 -3.63004 0
M  V30 2874 H 260.74 -1.85808 -3.55354 0
M  V30 2875 H 257.33 -3.14182 -2.91527 0
M  V30 2876 H 261.514 -4.11285 -2.77775 0
M  V30 2877 H 256.77 -5.51853 -2.63189 0
M  V30 2878 H 260.944 -6.49772 -2.50538 0
M  V30 2879 H 258.571 -7.20401 -2.42748 0
M  V30 2880 N 260.146 1.09593 -1.13257 0
M  V30 2881 C 261.093 2.1618 -0.808381 0
M  V30 2882 C 262.063 1.64517 0.228754 0
M  V30 2883 O 263.248 1.9053 0.101381 0
M  V30 2884 C 260.388 3.43973 -0.278675 0
M  V30 2885 C 259.501 4.09545 -1.37466 0
M  V30 2886 C 258.636 5.25088 -0.803479 0
M  V30 2887 C 257.675 5.82579 -1.87799 0
M  V30 2888 N 256.812 6.89486 -1.32488 0
M  V30 2889 H 261.652 2.43254 -1.72138 0
M  V30 2890 H 259.189 1.19392 -0.859294 0
M  V30 2891 H 261.147 4.17174 0.0465583 0
M  V30 2892 H 259.777 3.17223 0.597459 0
M  V30 2893 H 258.829 3.34226 -1.81652 0
M  V30 2894 H 260.141 4.48307 -2.18684 0
M  V30 2895 H 259.295 6.05178 -0.429427 0
M  V30 2896 H 258.034 4.87684 0.0397956 0
M  V30 2897 H 257.039 5.01152 -2.26113 0
M  V30 2898 H 258.264 6.22045 -2.72463 0
M  V30 2899 H 256.21 6.54064 -0.503575 0
M  V30 2900 H 256.127 7.27007 -2.07355 0
M  V30 2901 H 257.395 7.73336 -0.978336 0
M  V30 2902 N 261.624 0.925811 1.2754 0
M  V30 2903 C 262.554 0.440748 2.29303 0
M  V30 2904 C 263.535 -0.497971 1.62648 0
M  V30 2905 O 264.72 -0.403126 1.8997 0
M  V30 2906 C 261.85 -0.309048 3.45922 0
M  V30 2907 C 260.804 0.54166 4.24559 0
M  V30 2908 C 260.13 -0.337191 5.33636 0
M  V30 2909 C 261.43 1.80516 4.90114 0
M  V30 2910 H 263.124 1.29121 2.70126 0
M  V30 2911 H 260.67 0.622323 1.29858 0
M  V30 2912 H 262.623 -0.659315 4.1621 0
M  V30 2913 H 261.347 -1.19352 3.04011 0
M  V30 2914 H 260.006 0.874609 3.56014 0
M  V30 2915 H 259.654 -1.22056 4.87966 0
M  V30 2916 H 259.354 0.228497 5.87156 0
M  V30 2917 H 260.878 -0.683072 6.06767 0
M  V30 2918 H 262.292 1.52307 5.52698 0
M  V30 2919 H 260.689 2.3142 5.53683 0
M  V30 2920 H 261.759 2.52581 4.13921 0
M  V30 2921 N 263.102 -1.41638 0.69111 0
M  V30 2922 C 264.049 -2.30789 0.0229705 0
M  V30 2923 C 265.019 -1.46863 -0.775911 0
M  V30 2924 O 266.204 -1.75661 -0.74485 0
M  V30 2925 C 263.344 -3.32868 -0.910666 0
M  V30 2926 C 262.457 -4.31875 -0.103874 0
M  V30 2927 C 261.592 -5.21024 -1.03475 0
M  V30 2928 C 260.631 -6.11702 -0.220598 0
M  V30 2929 N 259.768 -6.93349 -1.10504 0
M  V30 2930 H 264.608 -2.87366 0.788978 0
M  V30 2931 H 262.145 -1.41535 0.400794 0
M  V30 2932 H 264.103 -3.90596 -1.46597 0
M  V30 2933 H 262.733 -2.77851 -1.64312 0
M  V30 2934 H 261.785 -3.76131 0.568285 0
M  V30 2935 H 263.097 -4.96003 0.527504 0
M  V30 2936 H 262.251 -5.83565 -1.65943 0
M  V30 2937 H 260.99 -4.57112 -1.69999 0
M  V30 2938 H 259.995 -5.48215 0.417187 0
M  V30 2939 H 261.22 -6.77668 0.440784 0
M  V30 2940 H 259.166 -6.3205 -1.75638 0
M  V30 2941 H 259.083 -7.54146 -0.529125 0
M  V30 2942 H 260.351 -7.60362 -1.71667 0
M  V30 2943 N 264.58 -0.43555 -1.51462 0
M  V30 2944 C 265.49 0.383001 -2.31453 0
M  V30 2945 C 266.506 1.02931 -1.4029 0
M  V30 2946 O 267.682 1.02507 -1.73362 0
M  V30 2947 C 264.747 1.47043 -3.13973 0
M  V30 2948 C 263.808 0.844433 -4.20913 0
M  V30 2949 C 263.041 1.88004 -4.9949 0
M  V30 2950 O 263.264 3.10199 -4.78678 0
M  V30 2951 O 262.198 1.47157 -5.83634 0
M  V30 2952 H 266.024 -0.269964 -3.02498 0
M  V30 2953 H 263.609 -0.19813 -1.4808 0
M  V30 2954 H 265.491 2.10113 -3.65281 0
M  V30 2955 H 264.166 2.10751 -2.45695 0
M  V30 2956 H 263.073 0.175729 -3.73687 0
M  V30 2957 H 264.406 0.250869 -4.9156 0
M  V30 2958 N 266.058 1.56714 -0.166846 0
M  V30 2959 C 267.005 2.17746 0.765193 0
M  V30 2960 C 267.975 1.11614 1.23011 0
M  V30 2961 O 269.16 1.39745 1.29908 0
M  V30 2962 C 266.3 2.81882 1.9909 0
M  V30 2963 C 265.413 4.02462 1.56997 0
M  V30 2964 C 264.548 4.54537 2.749 0
M  V30 2965 C 263.587 5.67538 2.29275 0
M  V30 2966 N 262.724 6.14142 3.40255 0
M  V30 2967 H 267.564 2.97048 0.237952 0
M  V30 2968 H 265.101 1.4672 0.105725 0
M  V30 2969 H 267.059 3.17221 2.70974 0
M  V30 2970 H 265.689 2.05191 2.49192 0
M  V30 2971 H 264.741 3.72973 0.748037 0
M  V30 2972 H 266.053 4.84273 1.19503 0
M  V30 2973 H 265.207 4.92035 3.54946 0
M  V30 2974 H 263.946 3.71774 3.1565 0
M  V30 2975 H 262.951 5.29597 1.47674 0
M  V30 2976 H 264.176 6.52099 1.89588 0
M  V30 2977 H 262.122 5.3431 3.8059 0
M  V30 2978 H 262.039 6.9093 3.06841 0
M  V30 2979 H 263.307 6.56289 4.206 0
M  V30 2980 N 267.536 -0.106894 1.57237 0
M  V30 2981 C 268.764 -0.826389 1.8968 0
M  V30 2982 C 269.179 -1.72856 0.759353 0
M  V30 2983 O 268.536 -1.80503 -0.269263 0
M  V30 2984 C 268.587 -1.64967 3.21665 0
M  V30 2985 O 268.308 -0.783804 4.31031 0
M  V30 2986 C 269.809 -2.47326 3.67892 0
M  V30 2987 H 267.029 -0.236927 0.627779 0
M  V30 2988 H 269.573 -0.0876593 2.04312 0
M  V30 2989 H 267.728 -2.34103 3.08666 0
M  V30 2990 H 268.142 -1.35284 5.06753 0
M  V30 2991 H 269.616 -3.00604 4.6297 0
M  V30 2992 H 270.093 -3.25247 2.95146 0
M  V30 2993 H 270.699 -1.83411 3.83719 0
M  V30 2994 N 269.014 -1.53014 -0.377408 0
M  V30 2995 C 269.964 -1.74996 -1.46152 0
M  V30 2996 C 270.948 -0.604236 -1.49123 0
M  V30 2997 O 272.14 -0.862489 -1.54564 0
M  V30 2998 C 269.269 -1.93267 -2.8373 0
M  V30 2999 C 268.355 -3.13807 -2.85283 0
M  V30 3000 N 268.746 -4.35941 -2.56493 0
M  V30 3001 C 267.044 -3.14288 -3.16448 0
M  V30 3002 C 267.745 -5.17615 -2.65424 0
M  V30 3003 N 266.721 -4.53559 -2.99641 0
M  V30 3004 H 270.523 -2.67044 -1.22738 0
M  V30 3005 H 268.037 -1.51479 -0.585479 0
M  V30 3006 H 270.034 -2.0714 -3.61799 0
M  V30 3007 H 268.694 -1.0244 -3.08117 0
M  V30 3008 H 269.705 -4.63876 -2.30302 0
M  V30 3009 H 266.382 -2.33312 -3.46225 0
M  V30 3010 H 267.772 -6.25006 -2.46612 0
M  V30 3011 N 270.492 0.636531 -1.44174 0
M  V30 3012 C 271.74 1.39343 -1.46383 0
M  V30 3013 C 272.061 1.94766 -0.0955715 0
M  V30 3014 O 271.331 1.75452 0.871395 0
M  V30 3015 H 269.911 0.517199 -0.538994 0
M  V30 3016 H 272.573 0.74957 -1.7991 0
M  V30 3017 H 271.669 2.22746 -2.18611 0
M  V30 3018 N 271.97 1.30982 0.876444 0
M  V30 3019 C 273.216 1.20474 1.63138 0
M  V30 3020 C 273.549 -0.238096 1.92735 0
M  V30 3021 O 272.824 -1.1692 1.55435 0
M  V30 3022 C 273.107 2.04244 2.96574 0
M  V30 3023 C 272.96 3.56793 2.73896 0
M  V30 3024 C 274.279 1.88684 3.97601 0
M  V30 3025 H 271.398 0.439001 0.591985 0
M  V30 3026 H 274.04 1.60704 1.01361 0
M  V30 3027 H 272.19 1.70063 3.493 0
M  V30 3028 H 273.862 4.01077 2.27892 0
M  V30 3029 H 272.105 3.80548 2.08245 0
M  V30 3030 H 272.776 4.10706 3.68815 0
M  V30 3031 H 275.252 2.18584 3.54062 0
M  V30 3032 H 274.128 2.4961 4.88862 0
M  V30 3033 H 274.389 0.848343 4.33884 0
M  V30 3034 N 273.449 -1.08991 1.13837 0
M  V30 3035 C 274.412 -2.13925 0.822715 0
M  V30 3036 C 275.412 -1.599 -0.1699 0
M  V30 3037 O 276.602 -1.74104 0.0577251 0
M  V30 3038 C 273.734 -3.40155 0.225318 0
M  V30 3039 H 274.927 -2.43358 1.75262 0
M  V30 3040 H 272.48 -1.24603 0.943594 0
M  V30 3041 H 273.215 -3.16352 -0.713594 0
M  V30 3042 H 273 -3.80661 0.940193 0
M  V30 3043 H 274.49 -4.17594 0.0214784 0
M  V30 3044 N 274.927 -0.932562 -1.27047 0
M  V30 3045 C 275.875 -0.42603 -2.28665 0
M  V30 3046 C 276.869 0.49219 -1.62092 0
M  V30 3047 O 278.075 0.371355 -1.76128 0
M  V30 3048 H 274.45 -0.119213 -0.742491 0
M  V30 3049 H 276.421 -1.29579 -2.68797 0
M  V30 3050 C 275.17 0.301426 -3.46391 0
M  V30 3051 H 274.493 -0.39595 -3.97834 0
M  V30 3052 H 275.933 0.6202 -4.1944 0
M  V30 3053 C 274.392 1.51616 -3.00856 0
M  V30 3054 O 274.922 2.61476 -3.04948 0
M  V30 3055 N 273.128 1.36969 -2.56296 0
M  V30 3056 H 272.675 0.475873 -2.53166 0
M  V30 3057 H 272.633 2.18368 -2.26192 0
M  V30 3058 N 276.405 1.4127 -0.698611 0
M  V30 3059 C 277.651 2.01478 -0.231207 0
M  V30 3060 C 277.984 1.55215 1.16713 0
M  V30 3061 O 277.259 0.764672 1.78838 0
M  V30 3062 C 277.542 3.58912 -0.292281 0
M  V30 3063 C 277.395 4.15293 -1.72778 0
M  V30 3064 C 278.714 4.38736 0.346194 0
M  V30 3065 H 275.833 0.732025 -0.0854878 0
M  V30 3066 H 278.475 1.67977 -0.887906 0
M  V30 3067 H 276.625 3.87582 0.26686 0
M  V30 3068 H 278.297 3.97486 -2.341 0
M  V30 3069 H 276.54 3.7022 -2.26096 0
M  V30 3070 H 277.211 5.24452 -1.72202 0
M  V30 3071 H 279.687 4.15897 -0.130035 0
M  V30 3072 H 278.563 5.48221 0.272932 0
M  V30 3073 H 278.824 4.18425 1.42734 0
M  V30 3074 N 277.883 0.443576 1.51229 0
M  V30 3075 C 278.816 -0.410089 2.24485 0
M  V30 3076 C 279.794 -1.01949 1.26669 0
M  V30 3077 O 280.978 -1.06075 1.55821 0
M  V30 3078 C 278.105 -1.57211 3.00004 0
M  V30 3079 C 277.151 -1.08279 4.12526 0
M  V30 3080 S 277.984 -0.0197476 5.35496 0
M  V30 3081 C 279.14 -1.18629 6.14555 0
M  V30 3082 H 279.373 0.211832 2.96544 0
M  V30 3083 H 276.906 0.228156 1.52705 0
M  V30 3084 H 278.864 -2.23825 3.44111 0
M  V30 3085 H 277.525 -2.16547 2.27522 0
M  V30 3086 H 276.718 -1.95193 4.64667 0
M  V30 3087 H 276.32 -0.494797 3.70713 0
M  V30 3088 H 278.612 -2.10344 6.4402 0
M  V30 3089 H 279.555 -0.70472 7.04584 0
M  V30 3090 H 279.963 -1.42768 5.46148 0
M  V30 3091 N 279.361 -1.56624 0.175154 0
M  V30 3092 C 280.308 -2.18149 -0.753634 0
M  V30 3093 C 281.278 -1.12265 -1.22417 0
M  V30 3094 O 282.463 -1.40432 -1.29165 0
M  V30 3095 C 279.603 -2.82933 -1.97592 0
M  V30 3096 C 278.716 -4.03289 -1.5486 0
M  V30 3097 C 277.851 -4.55988 -2.72485 0
M  V30 3098 C 276.89 -5.68746 -2.26262 0
M  V30 3099 N 276.027 -6.15938 -3.36994 0
M  V30 3100 H 280.867 -2.9717 -0.222195 0
M  V30 3101 H 278.404 -1.46774 -0.0979422 0
M  V30 3102 H 280.362 -3.18653 -2.69288 0
M  V30 3103 H 278.992 -2.06509 -2.481 0
M  V30 3104 H 278.044 -3.73364 -0.728246 0
M  V30 3105 H 279.356 -4.849 -1.16933 0
M  V30 3106 H 278.51 -4.9391 -3.52332 0
M  V30 3107 H 277.249 -3.73443 -3.13674 0
M  V30 3108 H 276.254 -5.30372 -1.44863 0
M  V30 3109 H 277.479 -6.53095 -1.86127 0
M  V30 3110 H 275.425 -5.36321 -3.77751 0
M  V30 3111 H 275.342 -6.92548 -3.03172 0
M  V30 3112 H 276.61 -6.58511 -4.17114 0
M  V30 3113 N 280.839 0.0985539 -1.57292 0
M  V30 3114 C 282.067 0.816318 -1.90115 0
M  V30 3115 C 282.482 1.72451 -0.768509 0
M  V30 3116 O 281.839 1.80643 0.259687 0
M  V30 3117 C 281.89 1.63259 -3.22535 0
M  V30 3118 O 281.611 0.760934 -4.31441 0
M  V30 3119 C 283.112 2.45372 -3.69199 0
M  V30 3120 H 280.332 0.233595 -0.629027 0
M  V30 3121 H 282.876 0.0768229 -2.04356 0
M  V30 3122 H 281.031 2.32463 -3.09903 0
M  V30 3123 H 281.445 1.32595 -5.07463 0
M  V30 3124 H 282.919 2.98144 -4.64558 0
M  V30 3125 H 283.396 3.23677 -2.96867 0
M  V30 3126 H 284.002 1.81373 -3.84687 0
M  V30 3127 N 282.317 1.53212 0.369288 0
M  V30 3128 C 283.249 1.75668 1.47219 0
M  V30 3129 C 284.262 0.637387 1.49804 0
M  V30 3130 O 285.451 0.913561 1.5335 0
M  V30 3131 C 282.551 1.81818 2.85999 0
M  V30 3132 C 281.724 3.11409 3.07153 0
M  V30 3133 C 280.783 3.08849 4.26026 0
M  V30 3134 O 279.809 3.82659 4.2138 0
M  V30 3135 N 281.011 2.29409 5.33246 0
M  V30 3136 H 283.776 2.70832 1.28337 0
M  V30 3137 H 281.337 1.51944 0.55898 0
M  V30 3138 H 283.329 1.77588 3.63655 0
M  V30 3139 H 281.899 0.939544 2.98146 0
M  V30 3140 H 281.119 3.28971 2.1719 0
M  V30 3141 H 282.407 3.97059 3.18154 0
M  V30 3142 H 281.805 1.68946 5.39883 0
M  V30 3143 H 280.362 2.31001 6.09493 0
M  V30 3144 N 283.795 -0.628877 1.44509 0
M  V30 3145 C 285.206 -1.21054 1.42137 0
M  V30 3146 C 285.557 -1.95715 0.137881 0
M  V30 3147 O 284.682 -2.02554 -0.761645 0
M  V30 3148 C 285.277 -2.20189 2.57493 0
M  V30 3149 C 283.836 -2.73777 2.58308 0
M  V30 3150 C 282.983 -1.48813 2.33987 0
M  V30 3151 H 285.934 -0.41942 1.53057 0
M  V30 3152 H 285.955 -3.02833 2.30375 0
M  V30 3153 H 285.467 -1.6582 3.50892 0
M  V30 3154 H 283.568 -3.32142 1.68856 0
M  V30 3155 H 283.681 -3.19662 3.56865 0
M  V30 3156 H 282.045 -1.77024 1.83124 0
M  V30 3157 H 282.828 -0.963442 3.29504 0
M  V30 3158 N 285.273 -1.31445 -0.869486 0
M  V30 3159 C 286.183 -1.21097 -2.0093 0
M  V30 3160 C 287.199 -0.127584 -1.73532 0
M  V30 3161 O 288.375 -0.345477 -1.98415 0
M  V30 3162 C 285.44 -0.919378 -3.34288 0
M  V30 3163 C 284.501 -2.08971 -3.75006 0
M  V30 3164 C 283.734 -1.81194 -5.02001 0
M  V30 3165 O 283.957 -0.747296 -5.65484 0
M  V30 3166 O 282.891 -2.66883 -5.39497 0
M  V30 3167 H 286.717 -2.16883 -2.12592 0
M  V30 3168 H 284.302 -1.11189 -0.997868 0
M  V30 3169 H 286.184 -0.772625 -4.14257 0
M  V30 3170 H 284.859 0.00844772 -3.23699 0
M  V30 3171 H 283.766 -2.29187 -2.95676 0
M  V30 3172 H 285.099 -2.9998 -3.90221 0
M  V30 3173 N 286.751 1.08385 -1.14413 0
M  V30 3174 C 288 1.80153 -0.907076 0
M  V30 3175 C 288.313 1.87176 0.567851 0
M  V30 3176 O 289.519 2.55359 0.922172 0
M  V30 3177 C 287.975 3.23687 -1.57336 0
M  V30 3178 C 287.583 3.24897 -3.08457 0
M  V30 3179 C 289.327 4.00136 -1.41744 0
M  V30 3180 C 287.234 4.6302 -3.67921 0
M  V30 3181 H 286.164 0.675139 -0.335714 0
M  V30 3182 H 288.815 1.21733 -1.37307 0
M  V30 3183 H 287.197 3.82234 -1.03505 0
M  V30 3184 H 288.371 2.76055 -3.68958 0
M  V30 3185 H 286.686 2.61943 -3.2369 0
M  V30 3186 H 289.283 5.02201 -1.83572 0
M  V30 3187 H 289.626 4.14709 -0.363576 0
M  V30 3188 H 290.159 3.48058 -1.92614 0
M  V30 3189 H 286.898 4.5365 -4.73161 0
M  V30 3190 H 286.418 5.12143 -3.12201 0
M  V30 3191 H 288.097 5.31994 -3.68227 0
M  V30 3192 N 288.23 0.939286 1.26551 0
M  V30 3193 C 289.458 0.602536 1.97932 0
M  V30 3194 C 289.873 -0.82206 1.69964 0
M  V30 3195 O 289.23 -1.54789 0.966784 0
M  V30 3196 C 289.281 0.832946 3.51773 0
M  V30 3197 O 289.002 2.20151 3.78768 0
M  V30 3198 C 290.503 0.506483 4.40397 0
M  V30 3199 H 287.723 0.227248 0.631347 0
M  V30 3200 H 290.267 1.25948 1.61113 0
M  V30 3201 H 288.422 0.222644 3.8676 0
M  V30 3202 H 288.836 2.26013 4.73306 0
M  V30 3203 H 290.31 0.718333 5.47306 0
M  V30 3204 H 290.787 -0.558451 4.35635 0
M  V30 3205 H 291.393 1.09543 4.10951 0
M  V30 3206 N 289.708 -1.40897 0.706093 0
M  V30 3207 C 290.957 -2.00284 0.238574 0
M  V30 3208 C 291.27 -1.56604 -1.17194 0
M  V30 3209 O 292.476 -2.08624 -1.73748 0
M  V30 3210 C 290.932 -3.57934 0.375623 0
M  V30 3211 C 290.54 -4.10591 1.79217 0
M  V30 3212 C 292.284 -4.24488 -0.0315857 0
M  V30 3213 C 290.191 -5.60712 1.88032 0
M  V30 3214 H 289.121 -0.749144 0.0854398 0
M  V30 3215 H 291.772 -1.61251 0.875813 0
M  V30 3216 H 290.154 -3.94622 -0.330042 0
M  V30 3217 H 291.328 -3.85301 2.52745 0
M  V30 3218 H 289.643 -3.56601 2.15 0
M  V30 3219 H 292.24 -5.34698 0.0136842 0
M  V30 3220 H 292.583 -4.02261 -1.072 0
M  V30 3221 H 293.116 -3.92873 0.624181 0
M  V30 3222 H 289.855 -5.87781 2.90161 0
M  V30 3223 H 289.375 -5.87896 1.18903 0
M  V30 3224 H 291.054 -6.25658 1.64805 0
M  V30 3225 N 291.186 -0.45159 -1.50991 0
M  V30 3226 C 292.433 0.110074 -2.02201 0
M  V30 3227 C 292.761 1.4146 -1.33489 0
M  V30 3228 O 292.016 1.90617 -0.443125 0
M  V30 3229 C 292.315 0.361728 -3.55565 0
M  V30 3230 C 291.981 -0.858717 -4.42648 0
M  V30 3231 C 290.643 -1.19338 -4.66167 0
M  V30 3232 C 292.995 -1.67221 -4.93646 0
M  V30 3233 C 290.323 -2.34195 -5.37931 0
M  V30 3234 C 292.675 -2.8119 -5.6667 0
M  V30 3235 C 291.339 -3.15094 -5.88449 0
M  V30 3236 H 290.609 0.040279 -0.739904 0
M  V30 3237 H 293.256 -0.601696 -1.81802 0
M  V30 3238 H 291.561 1.15554 -3.74372 0
M  V30 3239 H 293.258 0.80996 -3.92735 0
M  V30 3240 H 289.848 -0.58796 -4.24548 0
M  V30 3241 H 294.032 -1.42686 -4.75347 0
M  V30 3242 H 289.288 -2.6076 -5.53005 0
M  V30 3243 H 293.462 -3.44585 -6.05173 0
M  V30 3244 H 291.089 -4.04204 -6.43835 0
M  V30 3245 N 292.664 1.56529 -0.183458 0
M  V30 3246 C 293.892 2.01623 0.464285 0
M  V30 3247 C 294.307 1.06366 1.55986 0
M  V30 3248 O 293.664 0.0665398 1.82379 0
M  V30 3249 C 293.715 3.46475 1.03139 0
M  V30 3250 O 293.436 4.38095 -0.0204675 0
M  V30 3251 C 294.937 4.0703 1.75617 0
M  V30 3252 H 292.157 0.660596 0.117704 0
M  V30 3253 H 294.701 2.02451 -0.288751 0
M  V30 3254 H 292.856 3.46383 1.73486 0
M  V30 3255 H 293.27 5.22973 0.399952 0
M  V30 3256 H 294.744 5.10271 2.10542 0
M  V30 3257 H 295.221 3.49819 2.65563 0
M  V30 3258 H 295.827 4.1086 1.09882 0
M  V30 3259 N 294.142 -0.090211 1.57342 0
M  V30 3260 C 295.105 -1.09335 2.01441 0
M  V30 3261 C 296.105 -1.32666 0.908641 0
M  V30 3262 O 297.295 -1.28697 1.174 0
M  V30 3263 C 294.427 -2.44136 2.3793 0
M  V30 3264 H 295.62 -0.713662 2.91285 0
M  V30 3265 H 293.173 -0.335404 1.52659 0
M  V30 3266 H 293.908 -2.86972 1.51055 0
M  V30 3267 H 293.693 -2.28548 3.18603 0
M  V30 3268 H 295.183 -3.16277 2.72688 0
M  V30 3269 N 295.62 -1.53406 -0.361157 0
M  V30 3270 C 296.845 -1.74024 -1.12829 0
M  V30 3271 C 297.27 -0.470069 -1.82132 0
M  V30 3272 O 296.628 0.57619 -1.719 0
M  V30 3273 C 296.676 -2.90903 -2.13091 0
M  V30 3274 O 295.78 -2.59821 -3.20261 0
M  V30 3275 H 295.121 -0.577804 -0.327168 0
M  V30 3276 H 297.651 -2.00307 -0.41693 0
M  V30 3277 H 297.661 -3.17194 -2.56616 0
M  V30 3278 H 296.336 -3.83034 -1.62042 0
M  V30 3279 H 294.913 -2.44362 -2.81677 0
M  V30 3280 N 297.098 0.621204 -1.44841 0
M  V30 3281 C 298.514 0.94048 -1.28946 0
M  V30 3282 C 298.714 2.00154 -0.23249 0
M  V30 3283 O 297.77 2.49651 0.378237 0
M  V30 3284 C 299.083 1.39433 -2.66419 0
M  V30 3285 C 300.631 1.50927 -2.74208 0
M  V30 3286 C 301.106 1.99692 -4.12174 0
M  V30 3287 N 302.597 2.06947 -4.144 0
M  V30 3288 C 303.332 2.45871 -5.1801 0
M  V30 3289 N 302.828 2.83862 -6.31977 0
M  V30 3290 N 304.621 2.46092 -5.05366 0
M  V30 3291 H 296.772 -0.0803548 -2.12248 0
M  V30 3292 H 299.035 0.0266913 -0.947624 0
M  V30 3293 H 298.741 0.688925 -3.44887 0
M  V30 3294 H 298.615 2.36347 -2.93973 0
M  V30 3295 H 301.002 2.20561 -1.96053 0
M  V30 3296 H 301.083 0.523627 -2.50383 0
M  V30 3297 H 300.727 1.30649 -4.90809 0
M  V30 3298 H 300.657 2.99146 -4.33381 0
M  V30 3299 H 303.148 1.80232 -3.32152 0
M  V30 3300 H 303.461 3.12405 -7.0684 0
M  V30 3301 H 301.806 2.8159 -6.35399 0
M  V30 3302 H 304.997 2.1581 -4.15384 0
M  V30 3303 H 305.17 2.76102 -5.86235 0
M  V30 3304 N 298.576 1.31904 0.862503 0
M  V30 3305 C 299.801 1.25135 1.65397 0
M  V30 3306 C 300.226 -0.179 1.87246 0
M  V30 3307 O 299.584 -1.1277 1.4196 0
M  V30 3308 C 299.632 2.00832 2.99498 0
M  V30 3309 O 298.736 1.35075 3.89652 0
M  V30 3310 H 298.077 0.431655 0.504549 0
M  V30 3311 H 300.607 1.74094 1.07483 0
M  V30 3312 H 300.617 2.10709 3.49379 0
M  V30 3313 H 299.292 3.04847 2.82916 0
M  V30 3314 H 297.869 1.33696 3.48109 0
M  V30 3315 N 300.054 -1.07777 1.14986 0
M  V30 3316 C 300.984 -2.16865 0.865557 0
M  V30 3317 C 301.965 -1.69123 -0.182083 0
M  V30 3318 O 303.15 -1.94164 -0.0373815 0
M  V30 3319 C 300.28 -3.45539 0.349313 0
M  V30 3320 C 299.234 -4.06708 1.33313 0
M  V30 3321 C 298.56 -5.30411 0.675918 0
M  V30 3322 C 299.86 -4.47241 2.69764 0
M  V30 3323 H 301.554 -2.40905 1.77778 0
M  V30 3324 H 299.1 -1.15781 0.856203 0
M  V30 3325 H 301.053 -4.21174 0.137983 0
M  V30 3326 H 299.777 -3.21072 -0.598362 0
M  V30 3327 H 298.436 -3.33112 1.53075 0
M  V30 3328 H 298.084 -5.02232 -0.277767 0
M  V30 3329 H 297.784 -5.72293 1.33244 0
M  V30 3330 H 299.308 -6.08755 0.474262 0
M  V30 3331 H 300.722 -5.14025 2.53873 0
M  V30 3332 H 299.119 -5.00062 3.3175 0
M  V30 3333 H 300.189 -3.58818 3.26156 0
M  V30 3334 N 301.532 -0.945985 -1.26051 0
M  V30 3335 C 302.779 -0.596118 -1.93527 0
M  V30 3336 C 303.107 0.865559 -1.74179 0
M  V30 3337 O 302.362 1.63524 -1.0751 0
M  V30 3338 C 302.661 -0.890475 -3.46129 0
M  V30 3339 C 302.327 -2.3368 -3.85622 0
M  V30 3340 C 300.989 -2.73216 -3.96114 0
M  V30 3341 C 303.341 -3.27648 -4.05334 0
M  V30 3342 C 300.669 -4.05806 -4.2372 0
M  V30 3343 C 303.021 -4.59841 -4.3443 0
M  V30 3344 C 301.685 -4.99185 -4.43137 0
M  V30 3345 H 300.955 -0.218135 -0.708165 0
M  V30 3346 H 303.602 -1.1934 -1.49768 0
M  V30 3347 H 301.907 -0.210711 -3.91233 0
M  V30 3348 H 303.604 -0.598478 -3.96509 0
M  V30 3349 H 300.194 -2.02015 -3.78005 0
M  V30 3350 H 304.378 -2.98298 -3.96651 0
M  V30 3351 H 299.634 -4.35945 -4.28675 0
M  V30 3352 H 303.808 -5.32641 -4.48628 0
M  V30 3353 H 301.435 -6.01952 -4.64282 0
M  V30 3354 N 303.011 1.40521 -0.713556 0
M  V30 3355 C 304.259 2.00527 -0.251692 0
M  V30 3356 C 304.58 1.56857 1.15848 0
M  V30 3357 O 303.85 0.807127 1.785 0
M  V30 3358 H 302.43 0.741551 -0.0900646 0
M  V30 3359 H 305.092 1.71887 -0.918733 0
M  V30 3360 H 304.188 3.10813 -0.283192 0
M  V30 3361 N 304.489 0.459591 1.5075 0
M  V30 3362 C 305.766 -0.160371 1.94941 0
M  V30 3363 C 306.146 -1.58048 1.39943 0
M  V30 3364 O 305.494 -2.206 0.595629 0
M  V30 3365 C 305.704 -0.115432 3.48809 0
M  V30 3366 C 307.052 -0.310026 4.23467 0
M  V30 3367 O 308.076 -0.192543 3.55679 0
M  V30 3368 O 306.935 -0.546031 5.43765 0
M  V30 3369 H 304.029 -0.117925 0.818549 0
M  V30 3370 H 306.575 0.519169 1.61563 0
M  V30 3371 H 305.347 0.87652 3.81357 0
M  V30 3372 H 304.97 -0.836928 3.88692 0
M  V30 3373 N 305.967 -1.56429 0.191757 0
M  V30 3374 C 306.877 -2.22541 -0.742481 0
M  V30 3375 C 307.893 -1.22342 -1.23727 0
M  V30 3376 O 309.069 -1.55069 -1.28513 0
M  V30 3377 C 306.134 -2.8692 -1.94623 0
M  V30 3378 C 305.195 -4.02378 -1.49633 0
M  V30 3379 C 304.428 -4.63678 -2.6427 0
M  V30 3380 O 304.651 -4.23895 -3.81666 0
M  V30 3381 O 303.585 -5.53202 -2.37174 0
M  V30 3382 H 307.411 -3.02977 -0.209462 0
M  V30 3383 H 304.996 -1.49353 -0.0373832 0
M  V30 3384 H 306.878 -3.27663 -2.64982 0
M  V30 3385 H 305.553 -2.09466 -2.46791 0
M  V30 3386 H 304.46 -3.66265 -0.761636 0
M  V30 3387 H 305.793 -4.81487 -1.02134 0
M  V30 3388 N 307.445 0.0818655 -1.57387 0
M  V30 3389 C 308.378 1.12986 -1.98266 0
M  V30 3390 C 309.356 1.38123 -0.857954 0
M  V30 3391 O 310.54 1.51663 -1.1194 0
M  V30 3392 C 307.667 2.47632 -2.31076 0
M  V30 3393 C 306.713 2.38693 -3.53452 0
M  V30 3394 S 307.546 1.79071 -5.04672 0
M  V30 3395 C 308.702 3.15316 -5.40673 0
M  V30 3396 H 308.935 0.781435 -2.86846 0
M  V30 3397 H 306.468 0.290034 -1.51651 0
M  V30 3398 H 308.426 3.25089 -2.50654 0
M  V30 3399 H 307.087 2.79638 -1.43043 0
M  V30 3400 H 306.28 3.37964 -3.73893 0
M  V30 3401 H 305.882 1.69369 -3.33452 0
M  V30 3402 H 308.174 4.11613 -5.38127 0
M  V30 3403 H 309.117 2.99664 -6.41566 0
M  V30 3404 H 309.525 3.15457 -4.68132 0
M  V30 3405 N 308.923 1.53595 0.353017 0
M  V30 3406 C 310.339 1.43648 0.695516 0
M  V30 3407 C 310.539 0.585617 1.92802 0
M  V30 3408 O 309.595 0.0729223 2.52395 0
M  V30 3409 C 310.908 2.8701 0.896991 0
M  V30 3410 C 312.456 2.96723 0.996209 0
M  V30 3411 C 312.931 4.41173 1.23007 0
M  V30 3412 N 314.422 4.44657 1.29749 0
M  V30 3413 C 315.157 5.53547 1.49577 0
M  V30 3414 N 314.653 6.72461 1.66639 0
M  V30 3415 N 316.446 5.41145 1.52048 0
M  V30 3416 H 308.597 2.07415 -0.457481 0
M  V30 3417 H 310.86 0.9372 -0.142687 0
M  V30 3418 H 310.566 3.51644 0.0629938 0
M  V30 3419 H 310.44 3.31401 1.80148 0
M  V30 3420 H 312.827 2.32235 1.82074 0
M  V30 3421 H 312.908 2.55707 0.0688331 0
M  V30 3422 H 312.552 5.06238 0.410505 0
M  V30 3423 H 312.482 4.79772 2.17086 0
M  V30 3424 H 314.973 3.58963 1.18126 0
M  V30 3425 H 315.286 7.51214 1.81378 0
M  V30 3426 H 313.631 6.75423 1.63794 0
M  V30 3427 H 316.822 4.47205 1.38294 0
M  V30 3428 H 316.995 6.26068 1.67159 0
M  V30 3429 N 310.401 -0.613514 1.45168 0
M  V30 3430 C 311.817 -0.933629 1.29443 0
M  V30 3431 C 312.017 -2.00028 0.243101 0
M  V30 3432 O 311.073 -2.49848 -0.364992 0
M  V30 3433 C 312.386 -1.38018 2.67155 0
M  V30 3434 C 313.934 -1.49471 2.75004 0
M  V30 3435 C 314.409 -1.97503 4.13227 0
M  V30 3436 N 315.9 -2.04746 4.15491 0
M  V30 3437 C 316.635 -2.43121 5.19307 0
M  V30 3438 N 316.131 -2.80506 6.33473 0
M  V30 3439 N 317.924 -2.43408 5.06664 0
M  V30 3440 H 310.075 0.0916097 2.12202 0
M  V30 3441 H 312.338 -0.0216655 0.947752 0
M  V30 3442 H 312.044 -0.670625 3.45247 0
M  V30 3443 H 311.918 -2.34784 2.95222 0
M  V30 3444 H 314.305 -2.19519 1.9722 0
M  V30 3445 H 314.386 -0.510342 2.50657 0
M  V30 3446 H 314.03 -1.28045 4.91495 0
M  V30 3447 H 313.96 -2.96843 4.34962 0
M  V30 3448 H 316.451 -1.78468 3.33103 0
M  V30 3449 H 316.764 -3.08652 7.08487 0
M  V30 3450 H 315.109 -2.78216 6.36884 0
M  V30 3451 H 318.3 -2.13604 4.16523 0
M  V30 3452 H 318.473 -2.72989 5.87691 0
M  V30 3453 N 311.879 -1.3236 -0.855495 0
M  V30 3454 C 313.128 -1.22226 -1.60448 0
M  V30 3455 C 313.441 0.214733 -1.94418 0
M  V30 3456 O 314.647 0.437917 -2.67945 0
M  V30 3457 C 313.103 -2.14063 -2.89318 0
M  V30 3458 C 312.711 -3.62839 -2.62777 0
M  V30 3459 C 314.455 -2.12764 -3.67331 0
M  V30 3460 C 312.362 -4.4664 -3.87643 0
M  V30 3461 H 311.292 -0.453904 -0.602069 0
M  V30 3462 H 313.943 -1.57314 -0.944698 0
M  V30 3463 H 312.325 -1.71889 -3.5675 0
M  V30 3464 H 313.499 -4.1335 -2.03662 0
M  V30 3465 H 311.814 -3.66261 -1.98096 0
M  V30 3466 H 314.411 -2.72611 -4.59987 0
M  V30 3467 H 314.754 -1.11841 -4.00995 0
M  V30 3468 H 315.287 -2.53214 -3.06802 0
M  V30 3469 H 312.026 -5.48373 -3.5912 0
M  V30 3470 H 311.546 -4.0088 -4.46156 0
M  V30 3471 H 313.225 -4.59597 -4.55389 0
M  V30 3472 N 313.357 1.07166 -1.15556 0
M  V30 3473 C 314.604 1.79798 -0.931604 0
M  V30 3474 C 314.932 1.8682 0.54115 0
M  V30 3475 O 314.187 1.34942 1.41736 0
M  V30 3476 C 314.486 3.24707 -1.49332 0
M  V30 3477 C 314.152 3.37781 -2.98688 0
M  V30 3478 C 312.814 3.41057 -3.39461 0
M  V30 3479 C 315.166 3.40424 -3.94665 0
M  V30 3480 C 312.494 3.4458 -4.74849 0
M  V30 3481 C 314.846 3.45485 -5.29927 0
M  V30 3482 C 313.51 3.47039 -5.70193 0
M  V30 3483 H 312.78 0.657928 -0.340898 0
M  V30 3484 H 315.427 1.26091 -1.44129 0
M  V30 3485 H 313.732 3.81208 -0.904859 0
M  V30 3486 H 315.429 3.79486 -1.29582 0
M  V30 3487 H 312.019 3.35932 -2.66172 0
M  V30 3488 H 316.203 3.37113 -3.64237 0
M  V30 3489 H 311.459 3.44083 -5.05388 0
M  V30 3490 H 315.633 3.46476 -6.04092 0
M  V30 3491 H 313.26 3.49522 -6.75084 0
M  V30 3492 N 314.835 0.952656 1.25548 0
M  V30 3493 C 316.112 0.523818 1.88456 0
M  V30 3494 C 316.492 -0.998871 1.85973 0
M  V30 3495 O 315.84 -1.86381 1.3219 0
M  V30 3496 C 316.05 1.0982 3.31271 0
M  V30 3497 C 317.398 1.17385 4.08051 0
M  V30 3498 O 318.422 1.04961 3.40384 0
M  V30 3499 O 317.281 1.36852 5.29088 0
M  V30 3500 H 314.375 0.172485 0.808813 0
M  V30 3501 H 316.921 1.04596 1.33633 0
M  V30 3502 H 315.693 2.1415 3.27499 0
M  V30 3503 H 315.316 0.559191 3.93648 0
M  V30 3504 N 316.313 -1.40141 0.720998 0
M  V30 3505 C 317.729 -1.54632 0.395113 0
M  V30 3506 C 317.929 -1.69115 -1.09555 0
M  V30 3507 O 316.985 -1.68377 -1.88163 0
M  V30 3508 C 318.298 -2.77177 1.1659 0
M  V30 3509 C 319.846 -2.91 1.15274 0
M  V30 3510 C 320.321 -4.16465 1.90579 0
M  V30 3511 N 321.812 -4.23476 1.87675 0
M  V30 3512 C 322.547 -5.19475 2.42762 0
M  V30 3513 N 322.043 -6.21348 3.06428 0
M  V30 3514 N 323.836 -5.11592 2.32874 0
M  V30 3515 H 315.987 -1.28986 1.68749 0
M  V30 3516 H 318.25 -0.62412 0.713567 0
M  V30 3517 H 317.956 -2.72771 2.22011 0
M  V30 3518 H 317.83 -3.69442 0.76108 0
M  V30 3519 H 320.217 -2.94907 0.106702 0
M  V30 3520 H 320.298 -1.99838 1.59682 0
M  V30 3521 H 319.942 -4.1332 2.95176 0
M  V30 3522 H 319.872 -5.06646 1.43587 0
M  V30 3523 H 322.363 -3.50497 1.41281 0
M  V30 3524 H 322.676 -6.91034 3.45965 0
M  V30 3525 H 321.021 -6.21777 3.10514 0
M  V30 3526 H 324.212 -4.30936 1.82789 0
M  V30 3527 H 324.385 -5.86233 2.76106 0
M  V30 3528 N 317.792 -0.46758 -1.50504 0
M  V30 3529 C 319.017 0.0886943 -2.0721 0
M  V30 3530 C 319.442 1.33057 -1.32956 0
M  V30 3531 O 318.8 1.77354 -0.376197 0
M  V30 3532 C 318.848 0.359202 -3.58806 0
M  V30 3533 O 317.952 1.44034 -3.8643 0
M  V30 3534 H 317.293 -0.0114349 -0.663902 0
M  V30 3535 H 319.823 -0.657613 -1.93744 0
M  V30 3536 H 319.833 0.600742 -4.03553 0
M  V30 3537 H 318.508 -0.548311 -4.1227 0
M  V30 3538 H 317.085 1.18638 -3.53524 0
M  V30 3539 N 319.27 1.56325 -0.20005 0
M  V30 3540 C 320.517 1.97719 0.437411 0
M  V30 3541 C 320.845 1.08709 1.61284 0
M  V30 3542 O 320.1 0.127261 1.95286 0
M  V30 3543 C 320.399 3.4495 0.935103 0
M  V30 3544 C 320.065 4.5072 -0.12749 0
M  V30 3545 C 318.727 4.79368 -0.419451 0
M  V30 3546 C 321.079 5.14268 -0.847231 0
M  V30 3547 C 318.407 5.68854 -1.43604 0
M  V30 3548 C 320.759 6.04852 -1.85301 0
M  V30 3549 C 319.423 6.31855 -2.15211 0
M  V30 3550 H 318.693 0.723507 0.16006 0
M  V30 3551 H 321.34 1.89166 -0.298056 0
M  V30 3552 H 319.645 3.50599 1.74894 0
M  V30 3553 H 321.342 3.74337 1.43781 0
M  V30 3554 H 317.932 4.28458 0.11023 0
M  V30 3555 H 322.116 4.92222 -0.634901 0
M  V30 3556 H 317.372 5.88047 -1.67364 0
M  V30 3557 H 321.546 6.53152 -2.41591 0
M  V30 3558 H 319.173 7.00994 -2.94129 0
M  V30 3559 N 320.748 -0.0735177 1.57428 0
M  V30 3560 C 321.711 -1.07192 2.02589 0
M  V30 3561 C 322.711 -1.31695 0.922661 0
M  V30 3562 O 323.901 -1.27445 1.18758 0
M  V30 3563 C 321.033 -2.41599 2.40506 0
M  V30 3564 H 322.226 -0.682727 2.92025 0
M  V30 3565 H 319.779 -0.319193 1.53006 0
M  V30 3566 H 320.514 -2.85354 1.5409 0
M  V30 3567 H 320.299 -2.25156 3.21009 0
M  V30 3568 H 321.789 -3.13367 2.76027 0
M  V30 3569 N 322.226 -1.5378 -0.344866 0
M  V30 3570 C 323.158 -1.77988 -1.44406 0
M  V30 3571 C 324.171 -0.661138 -1.48771 0
M  V30 3572 O 325.36 -0.937842 -1.51877 0
M  V30 3573 C 322.46 -1.86345 -2.8307 0
M  V30 3574 C 321.633 -3.16256 -3.0216 0
M  V30 3575 C 320.692 -3.15588 -4.21059 0
M  V30 3576 O 319.718 -3.89314 -4.15239 0
M  V30 3577 N 320.92 -2.37864 -5.29529 0
M  V30 3578 H 323.685 -2.72839 -1.24012 0
M  V30 3579 H 321.246 -1.52814 -0.534737 0
M  V30 3580 H 323.238 -1.83351 -3.60783 0
M  V30 3581 H 321.808 -0.986858 -2.96614 0
M  V30 3582 H 321.028 -3.32385 -2.11929 0
M  V30 3583 H 322.316 -4.0207 -3.11797 0
M  V30 3584 H 321.714 -1.77514 -5.37127 0
M  V30 3585 H 320.271 -2.40668 -6.05741 0
M  V30 3586 N 323.704 0.605807 -1.45491 0
M  V30 3587 C 324.634 1.72709 -1.57143 0
M  V30 3588 C 325.615 1.6476 -0.422884 0
M  V30 3589 O 326.8 1.83132 -0.646247 0
M  V30 3590 C 323.93 3.11316 -1.53948 0
M  V30 3591 C 322.884 3.34077 -2.67537 0
M  V30 3592 C 322.21 4.72975 -2.49397 0
M  V30 3593 C 323.51 3.24158 -4.09535 0
M  V30 3594 H 325.204 1.63214 -2.51001 0
M  V30 3595 H 322.75 0.78379 -1.208 0
M  V30 3596 H 324.703 3.89557 -1.60696 0
M  V30 3597 H 323.427 3.21655 -0.566205 0
M  V30 3598 H 322.086 2.58227 -2.6022 0
M  V30 3599 H 321.734 4.8005 -1.50205 0
M  V30 3600 H 321.434 4.8916 -3.25571 0
M  V30 3601 H 322.958 5.53414 -2.58002 0
M  V30 3602 H 324.372 3.92271 -4.18086 0
M  V30 3603 H 322.769 3.51872 -4.86113 0
M  V30 3604 H 323.839 2.2157 -4.31317 0
M  V30 3605 N 325.182 1.32811 0.848464 0
M  V30 3606 C 326.412 1.26556 1.63301 0
M  V30 3607 C 326.82 -0.1676 1.88456 0
M  V30 3608 O 326.163 -1.11713 1.45828 0
M  V30 3609 C 326.225 1.96202 3.01239 0
M  V30 3610 C 325.889 3.45528 2.99098 0
M  V30 3611 C 326.886 4.40903 2.75501 0
M  V30 3612 C 324.571 3.87558 3.19537 0
M  V30 3613 C 326.565 5.76282 2.72356 0
M  V30 3614 C 324.252 5.23044 3.16019 0
M  V30 3615 C 325.25 6.17217 2.92458 0
M  V30 3616 O 324.938 7.50223 2.88825 0
M  V30 3617 H 324.67 0.43771 0.515156 0
M  V30 3618 H 327.224 1.7559 1.0657 0
M  V30 3619 H 325.454 1.41746 3.59785 0
M  V30 3620 H 327.143 1.83573 3.62016 0
M  V30 3621 H 327.909 4.09756 2.5947 0
M  V30 3622 H 323.788 3.14674 3.369 0
M  V30 3623 H 327.332 6.4976 2.53886 0
M  V30 3624 H 323.229 5.53818 3.31596 0
M  V30 3625 H 323.997 7.59657 3.04735 0
M  V30 3626 N 326.66 -1.06551 1.16123 0
M  V30 3627 C 327.885 -1.83544 0.965735 0
M  V30 3628 C 328.31 -1.81843 -0.481102 0
M  V30 3629 O 327.668 -1.21732 -1.34354 0
M  V30 3630 C 327.716 -3.28169 1.49457 0
M  V30 3631 O 326.82 -4.0643 0.699157 0
M  V30 3632 H 326.161 -0.568026 0.343864 0
M  V30 3633 H 328.691 -1.34362 1.54299 0
M  V30 3634 H 328.701 -3.78992 1.51092 0
M  V30 3635 H 327.376 -3.28722 2.54784 0
M  V30 3636 H 325.953 -3.65216 0.7531 0
M  V30 3637 N 328.138 -0.959301 -1.25041 0
M  V30 3638 C 329.415 -0.533805 -1.88175 0
M  V30 3639 C 329.795 0.988994 -1.865 0
M  V30 3640 O 329.143 1.85677 -1.33177 0
M  V30 3641 C 329.353 -1.11575 -3.30684 0
M  V30 3642 C 330.701 -1.19548 -4.07423 0
M  V30 3643 O 331.725 -1.06765 -3.39823 0
M  V30 3644 O 330.584 -1.39656 -5.28354 0
M  V30 3645 H 327.678 -0.176772 -0.807887 0
M  V30 3646 H 330.224 -1.05303 -1.33076 0
M  V30 3647 H 328.996 -2.15884 -3.26358 0
M  V30 3648 H 328.619 -0.580059 -3.93346 0
M  V30 3649 N 329.616 1.39756 -0.72842 0
M  V30 3650 C 330.546 2.33289 -0.0991354 0
M  V30 3651 C 331.527 1.53568 0.731489 0
M  V30 3652 O 332.712 1.81987 0.677807 0
M  V30 3653 C 329.842 3.3763 0.813834 0
M  V30 3654 C 328.796 4.2791 0.0878663 0
M  V30 3655 C 328.122 5.22894 1.11741 0
M  V30 3656 C 329.422 5.11314 -1.06563 0
M  V30 3657 H 331.116 2.86163 -0.880408 0
M  V30 3658 H 328.662 1.37591 -0.424819 0
M  V30 3659 H 330.615 4.0201 1.26355 0
M  V30 3660 H 329.339 2.83181 1.62715 0
M  V30 3661 H 327.998 3.65 -0.342159 0
M  V30 3662 H 327.646 4.64744 1.92412 0
M  V30 3663 H 327.346 5.84143 0.636477 0
M  V30 3664 H 328.87 5.90151 1.56697 0
M  V30 3665 H 330.284 5.69076 -0.694671 0
M  V30 3666 H 328.681 5.81671 -1.47577 0
M  V30 3667 H 329.751 4.46534 -1.89038 0
M  V30 3668 N 331.094 0.475555 1.50254 0
M  V30 3669 C 332.371 -0.139685 1.95101 0
M  V30 3670 C 332.751 -1.56555 1.41611 0
M  V30 3671 O 332.099 -2.19956 0.618993 0
M  V30 3672 C 332.309 -0.0784298 3.48912 0
M  V30 3673 C 333.657 -0.265095 4.23772 0
M  V30 3674 O 334.681 -0.154808 3.55863 0
M  V30 3675 O 333.54 -0.488327 5.44314 0
M  V30 3676 H 330.634 -0.109236 0.819754 0
M  V30 3677 H 333.18 0.536276 1.61004 0
M  V30 3678 H 331.952 0.916918 3.80405 0
M  V30 3679 H 331.575 -0.795655 3.89558 0
M  V30 3680 N 332.573 -1.56217 0.208337 0
M  V30 3681 C 333.52 -2.19699 -0.707192 0
M  V30 3682 C 334.49 -1.14836 -1.20008 0
M  V30 3683 O 335.675 -1.4314 -1.26157 0
M  V30 3684 C 332.815 -2.87061 -1.91546 0
M  V30 3685 C 331.928 -4.06483 -1.46271 0
M  V30 3686 C 331.063 -4.61665 -2.62752 0
M  V30 3687 C 330.102 -5.73417 -2.14147 0
M  V30 3688 N 329.239 -6.22948 -3.23853 0
M  V30 3689 H 334.079 -2.97575 -0.159111 0
M  V30 3690 H 331.616 -1.46948 -0.0667874 0
M  V30 3691 H 333.574 -3.24294 -2.62468 0
M  V30 3692 H 332.204 -2.11725 -2.43664 0
M  V30 3693 H 331.256 -3.74825 -0.648886 0
M  V30 3694 H 332.568 -4.87271 -1.06622 0
M  V30 3695 H 331.722 -5.01272 -3.41776 0
M  V30 3696 H 330.461 -3.80013 -3.05682 0
M  V30 3697 H 329.466 -5.33326 -1.33581 0
M  V30 3698 H 330.691 -6.56897 -1.72232 0
M  V30 3699 H 328.637 -5.44213 -3.6629 0
M  V30 3700 H 328.554 -6.98823 -2.88414 0
M  V30 3701 H 329.822 -6.6721 -4.03052 0
M  V30 3702 N 334.051 0.0651679 -1.57465 0
M  V30 3703 C 335.299 0.761555 -1.87202 0
M  V30 3704 C 335.62 1.77778 -0.801243 0
M  V30 3705 O 334.89 1.95166 0.16937 0
M  V30 3706 H 333.47 0.284251 -0.690804 0
M  V30 3707 H 336.132 0.0396827 -1.9486 0
M  V30 3708 H 335.228 1.27365 -2.84929 0
M  V30 3709 N 335.529 1.53961 0.336706 0
M  V30 3710 C 336.776 1.71536 1.07618 0
M  V30 3711 C 337.104 0.482125 1.8843 0
M  V30 3712 O 336.359 -0.536142 1.88213 0
M  V30 3713 C 336.658 2.93493 2.03953 0
M  V30 3714 C 336.324 4.28811 1.39399 0
M  V30 3715 C 334.986 4.65602 1.21523 0
M  V30 3716 C 337.338 5.12844 0.929541 0
M  V30 3717 C 334.666 5.84037 0.558312 0
M  V30 3718 C 337.018 6.31951 0.286505 0
M  V30 3719 C 335.682 6.67432 0.0954869 0
M  V30 3720 H 334.952 0.627696 0.393801 0
M  V30 3721 H 337.599 1.88186 0.354715 0
M  V30 3722 H 335.904 2.71475 2.82504 0
M  V30 3723 H 337.601 3.04285 2.61174 0
M  V30 3724 H 334.191 3.99858 1.54311 0
M  V30 3725 H 338.375 4.84947 1.05548 0
M  V30 3726 H 333.631 6.10097 0.398995 0
M  V30 3727 H 337.805 6.96352 -0.0814376 0
M  V30 3728 H 335.432 7.59063 -0.415579 0
M  V30 3729 N 337.007 -0.598083 1.45811 0
M  V30 3730 C 338.235 -1.38322 1.53866 0
M  V30 3731 C 338.65 -1.87992 0.174479 0
M  V30 3732 O 338.007 -1.62756 -0.825627 0
M  V30 3733 C 338.058 -2.58125 2.53089 0
M  V30 3734 O 337.779 -2.10516 3.84206 0
M  V30 3735 C 339.28 -3.50869 2.70935 0
M  V30 3736 H 336.5 -0.423093 0.520801 0
M  V30 3737 H 339.044 -0.728527 1.91083 0
M  V30 3738 H 337.199 -3.19615 2.18917 0
M  V30 3739 H 337.613 -2.88425 4.38077 0
M  V30 3740 H 339.087 -4.31451 3.44317 0
M  V30 3741 H 339.564 -4.01822 1.77301 0
M  V30 3742 H 340.17 -2.95225 3.06141 0
M  V30 3743 N 338.485 -1.33259 -0.841409 0
M  V30 3744 C 339.896 -1.22066 -1.41269 0
M  V30 3745 C 340.247 0.161479 -1.95534 0
M  V30 3746 O 339.372 1.06094 -1.88608 0
M  V30 3747 C 339.967 -2.20996 -2.568 0
M  V30 3748 C 338.526 -2.13649 -3.09888 0
M  V30 3749 C 337.673 -2.08623 -1.82679 0
M  V30 3750 H 340.624 -1.44895 -0.647395 0
M  V30 3751 H 340.645 -1.81621 -3.34356 0
M  V30 3752 H 340.157 -3.2158 -2.17274 0
M  V30 3753 H 338.258 -1.16359 -3.53965 0
M  V30 3754 H 338.371 -3.04079 -3.70234 0
M  V30 3755 H 336.735 -1.54061 -2.02824 0
M  V30 3756 H 337.518 -3.1101 -1.45353 0
M  V30 3757 N 339.963 1.05934 -1.16686 0
M  V30 3758 C 341.212 1.78188 -0.945085 0
M  V30 3759 C 341.525 1.88338 0.528021 0
M  V30 3760 O 342.731 2.57258 0.867799 0
M  V30 3761 C 341.187 3.20277 -1.64167 0
M  V30 3762 C 340.795 3.18281 -3.15279 0
M  V30 3763 C 342.539 3.97039 -1.502 0
M  V30 3764 C 340.446 4.55112 -3.7766 0
M  V30 3765 H 339.376 0.667866 -0.349959 0
M  V30 3766 H 342.027 1.18794 -1.39858 0
M  V30 3767 H 340.409 3.79952 -1.11589 0
M  V30 3768 H 341.583 2.68167 -3.74731 0
M  V30 3769 H 339.898 2.55018 -3.29173 0
M  V30 3770 H 342.495 4.98194 -1.94183 0
M  V30 3771 H 342.838 4.13845 -0.451461 0
M  V30 3772 H 343.371 3.43894 -1.99954 0
M  V30 3773 H 340.11 4.43512 -4.82677 0
M  V30 3774 H 339.63 5.05406 -3.22994 0
M  V30 3775 H 341.309 5.24064 -3.79428 0
M  V30 3776 N 341.441 0.965919 1.2453 0
M  V30 3777 C 342.389 0.486506 2.27455 0
M  V30 3778 C 343.383 -0.449041 1.6334 0
M  V30 3779 O 344.589 -0.324527 1.7705 0
M  V30 3780 H 340.964 0.138857 0.739069 0
M  V30 3781 H 342.935 1.3666 2.65267 0
M  V30 3782 C 341.684 -0.209481 3.47068 0
M  V30 3783 H 341.007 0.50129 3.96645 0
M  V30 3784 H 342.447 -0.508775 4.20936 0
M  V30 3785 C 340.906 -1.43586 3.0477 0
M  V30 3786 O 341.436 -2.53299 3.11773 0
M  V30 3787 N 339.642 -1.30126 2.59838 0
M  V30 3788 H 339.189 -0.408583 2.54339 0
M  V30 3789 H 339.147 -2.12294 2.31902 0
M  V30 3790 N 342.919 -1.39368 0.735821 0
M  V30 3791 C 344.166 -2.00497 0.284123 0
M  V30 3792 C 344.494 -1.58387 -1.12889 0
M  V30 3793 O 343.749 -0.804359 -1.78406 0
M  V30 3794 C 344.048 -3.5583 0.334651 0
M  V30 3795 C 343.714 -4.17593 1.7008 0
M  V30 3796 C 342.376 -4.34176 2.07472 0
M  V30 3797 C 344.728 -4.51848 2.59775 0
M  V30 3798 C 342.056 -4.82304 3.34065 0
M  V30 3799 C 344.408 -5.01384 3.85741 0
M  V30 3800 C 343.072 -5.16175 4.23225 0
M  V30 3801 H 342.342 -0.73367 0.103968 0
M  V30 3802 H 344.989 -1.66683 0.942825 0
M  V30 3803 H 343.294 -3.89674 -0.407625 0
M  V30 3804 H 344.991 -4.00986 -0.0329927 0
M  V30 3805 H 341.581 -4.05087 1.40008 0
M  V30 3806 H 345.765 -4.38653 2.32157 0
M  V30 3807 H 341.021 -4.91941 3.63049 0
M  V30 3808 H 345.195 -5.26863 4.55399 0
M  V30 3809 H 342.822 -5.5323 5.21384 0
M  V30 3810 N 344.397 -0.483516 -1.5 0
M  V30 3811 C 345.643 0.0672592 -2.02688 0
M  V30 3812 C 345.976 1.38247 -1.36387 0
M  V30 3813 O 345.251 1.88131 -0.493675 0
M  V30 3814 C 345.534 0.238109 -3.59312 0
M  V30 3815 C 345.387 -1.099 -4.36168 0
M  V30 3816 C 346.706 0.986916 -4.28892 0
M  V30 3817 H 343.825 0.0229696 -0.736642 0
M  V30 3818 H 346.467 -0.631527 -1.79197 0
M  V30 3819 H 344.617 0.8333 -3.79458 0
M  V30 3820 H 346.289 -1.73172 -4.27562 0
M  V30 3821 H 344.532 -1.69261 -3.99416 0
M  V30 3822 H 345.203 -0.932954 -5.44059 0
M  V30 3823 H 347.679 0.482302 -4.13295 0
M  V30 3824 H 346.555 1.07527 -5.38265 0
M  V30 3825 H 346.816 2.0265 -3.92919 0
M  V30 3826 N 345.875 1.56104 -0.216619 0
M  V30 3827 C 347.122 1.98172 0.416416 0
M  V30 3828 C 347.45 1.10413 1.60122 0
M  V30 3829 O 346.705 0.147967 1.9514 0
M  V30 3830 C 347.004 3.45923 0.898464 0
M  V30 3831 C 346.67 4.50559 -0.175288 0
M  V30 3832 C 345.332 4.78897 -0.470271 0
M  V30 3833 C 347.684 5.1334 -0.901728 0
M  V30 3834 C 345.012 5.67299 -1.4963 0
M  V30 3835 C 347.364 6.02853 -1.91705 0
M  V30 3836 C 346.028 6.29537 -2.21901 0
M  V30 3837 H 345.298 0.725164 0.152377 0
M  V30 3838 H 347.945 1.88839 -0.318103 0
M  V30 3839 H 346.25 3.52434 1.71165 0
M  V30 3840 H 347.947 3.75841 1.39803 0
M  V30 3841 H 344.537 4.28551 0.0647806 0
M  V30 3842 H 348.721 4.91521 -0.687072 0
M  V30 3843 H 343.977 5.86239 -1.73592 0
M  V30 3844 H 348.151 6.50552 -2.48505 0
M  V30 3845 H 345.778 6.97835 -3.01548 0
M  V30 3846 N 347.353 -0.0568162 1.57498 0
M  V30 3847 C 348.764 -0.606858 1.76562 0
M  V30 3848 C 349.115 -1.77114 0.844094 0
M  V30 3849 O 348.24 -2.16376 0.0318911 0
M  V30 3850 C 348.835 -1.10766 3.20182 0
M  V30 3851 C 347.394 -1.60344 3.40539 0
M  V30 3852 C 346.541 -0.529311 2.72201 0
M  V30 3853 H 349.492 0.169393 1.57793 0
M  V30 3854 H 349.513 -1.97602 3.25167 0
M  V30 3855 H 349.025 -0.26006 3.87228 0
M  V30 3856 H 347.126 -2.47379 2.78629 0
M  V30 3857 H 347.239 -1.67006 4.4905 0
M  V30 3858 H 345.603 -0.977893 2.35179 0
M  V30 3859 H 346.386 0.308352 3.41912 0
M  V30 3860 N 348.832 -1.54138 -0.328536 0
M  V30 3861 C 349.78 -1.83894 -1.42428 0
M  V30 3862 C 350.774 -0.710478 -1.53781 0
M  V30 3863 O 351.98 -0.894062 -1.56226 0
M  V30 3864 H 348.355 -0.582837 -0.475189 0
M  V30 3865 H 350.326 -2.75537 -1.14552 0
M  V30 3866 C 349.075 -2.07866 -2.78724 0
M  V30 3867 H 348.398 -2.94158 -2.7076 0
M  V30 3868 H 349.838 -2.32644 -3.54476 0
M  V30 3869 C 348.297 -0.868689 -3.25508 0
M  V30 3870 O 348.827 -0.0754908 -4.01629 0
M  V30 3871 N 347.033 -0.681711 -2.82491 0
M  V30 3872 H 346.58 -1.32838 -2.20708 0
M  V30 3873 H 346.538 0.126374 -3.14146 0
M  V30 3874 N 350.31 0.590341 -1.46126 0
M  V30 3875 C 351.24 1.71032 -1.58966 0
M  V30 3876 C 352.221 1.64302 -0.440335 0
M  V30 3877 O 353.406 1.82436 -0.665634 0
M  V30 3878 C 350.536 3.09665 -1.57241 0
M  V30 3879 C 349.49 3.31221 -2.71066 0
M  V30 3880 C 348.816 4.70303 -2.54399 0
M  V30 3881 C 350.116 3.19796 -4.1295 0
M  V30 3882 H 351.81 1.60543 -2.52718 0
M  V30 3883 H 349.356 0.770933 -1.21625 0
M  V30 3884 H 351.309 3.87831 -1.64819 0
M  V30 3885 H 350.033 3.21036 -0.600289 0
M  V30 3886 H 348.692 2.55452 -2.62944 0
M  V30 3887 H 348.34 4.78429 -1.55288 0
M  V30 3888 H 348.04 4.85679 -3.30741 0
M  V30 3889 H 349.564 5.50647 -2.63857 0
M  V30 3890 H 350.978 3.87815 -4.22223 0
M  V30 3891 H 349.375 3.46696 -4.89818 0
M  V30 3892 H 350.445 2.16983 -4.33643 0
M  V30 3893 N 351.788 1.33704 0.83433 0
M  V30 3894 C 353.199 1.22813 1.4062 0
M  V30 3895 C 353.55 -0.151107 1.95617 0
M  V30 3896 O 352.675 -1.05092 1.89168 0
M  V30 3897 C 353.27 2.22355 2.55624 0
M  V30 3898 C 351.829 2.1529 3.08751 0
M  V30 3899 C 350.976 2.09589 1.8157 0
M  V30 3900 H 353.927 1.45236 0.639702 0
M  V30 3901 H 353.948 1.83391 3.33389 0
M  V30 3902 H 353.46 3.22728 2.15566 0
M  V30 3903 H 351.561 1.18235 3.53343 0
M  V30 3904 H 351.674 3.06038 3.68616 0
M  V30 3905 H 350.038 1.55134 2.02004 0
M  V30 3906 H 350.821 3.11777 1.43701 0
M  V30 3907 N 353.266 -1.05314 1.17247 0
M  V30 3908 C 354.196 -2.1498 0.911362 0
M  V30 3909 C 355.177 -1.69471 -0.146169 0
M  V30 3910 O 356.362 -1.942 0.003812 0
M  V30 3911 C 353.492 -3.4472 0.422528 0
M  V30 3912 C 352.446 -4.03789 1.4191 0
M  V30 3913 C 351.772 -5.28858 0.788274 0
M  V30 3914 C 353.072 -4.41418 2.7919 0
M  V30 3915 H 354.766 -2.3708 1.82848 0
M  V30 3916 H 352.312 -1.13938 0.880569 0
M  V30 3917 H 354.265 -4.20787 0.227289 0
M  V30 3918 H 352.989 -3.22269 -0.530123 0
M  V30 3919 H 351.648 -3.2979 1.60106 0
M  V30 3920 H 351.296 -5.02709 -0.171173 0
M  V30 3921 H 350.996 -5.69338 1.45353 0
M  V30 3922 H 352.52 -6.07612 0.603282 0
M  V30 3923 H 353.934 -5.08524 2.64719 0
M  V30 3924 H 352.331 -4.92913 3.42282 0
M  V30 3925 H 353.401 -3.51819 3.33693 0
M  V30 3926 N 354.744 -0.972509 -1.24016 0
M  V30 3927 C 356.155 -0.67517 -1.74064 0
M  V30 3928 C 356.506 0.808939 -1.78747 0
M  V30 3929 O 355.631 1.63286 -1.42009 0
M  V30 3930 C 356.226 -1.21889 -3.16115 0
M  V30 3931 C 354.785 -0.971358 -3.6365 0
M  V30 3932 C 353.932 -1.35134 -2.42145 0
M  V30 3933 H 356.883 -1.14727 -1.09651 0
M  V30 3934 H 356.904 -0.587489 -3.75937 0
M  V30 3935 H 356.416 -2.29906 -3.12674 0
M  V30 3936 H 354.517 0.0930686 -3.72484 0
M  V30 3937 H 354.63 -1.62039 -4.50866 0
M  V30 3938 H 352.994 -0.769751 -2.4279 0
M  V30 3939 H 353.777 -2.4411 -2.41381 0
M  V30 3940 N 356.222 1.38976 -0.743202 0
M  V30 3941 C 357.172 2.27843 -0.084513 0
M  V30 3942 C 358.156 1.44677 0.704094 0
M  V30 3943 O 359.348 1.67511 0.571755 0
M  V30 3944 C 356.477 3.33466 0.815781 0
M  V30 3945 C 355.563 4.24095 0.0208844 0
M  V30 3946 N 355.954 4.95609 -1.0102 0
M  V30 3947 C 354.252 4.45303 0.249293 0
M  V30 3948 C 354.953 5.62287 -1.49024 0
M  V30 3949 N 353.929 5.37571 -0.807377 0
M  V30 3950 H 357.731 2.80593 -0.87436 0
M  V30 3951 H 355.245 1.51755 -0.578283 0
M  V30 3952 H 357.242 3.96008 1.30321 0
M  V30 3953 H 355.902 2.82276 1.6047 0
M  V30 3954 H 356.913 4.98849 -1.39176 0
M  V30 3955 H 353.59 4.0504 1.01237 0
M  V30 3956 H 354.98 6.29519 -2.34853 0
M  V30 3957 N 357.7 0.491464 1.49741 0
M  V30 3958 C 358.93 -0.0534375 2.06531 0
M  V30 3959 C 359.338 -1.32233 1.35318 0
M  V30 3960 O 358.681 -1.78781 0.422243 0
M  V30 3961 C 358.743 -0.387034 3.57411 0
M  V30 3962 C 358.407 0.782764 4.50246 0
M  V30 3963 C 359.404 1.67059 4.92329 0
M  V30 3964 C 357.089 0.978866 4.9267 0
M  V30 3965 C 359.083 2.73874 5.75562 0
M  V30 3966 C 356.77 2.05022 5.75682 0
M  V30 3967 C 357.768 2.92851 6.17031 0
M  V30 3968 O 357.456 3.98138 6.98385 0
M  V30 3969 H 357.188 0.0129324 0.675876 0
M  V30 3970 H 359.742 0.685238 1.93633 0
M  V30 3971 H 357.972 -1.17918 3.68283 0
M  V30 3972 H 359.661 -0.869419 3.96479 0
M  V30 3973 H 360.427 1.53086 4.60206 0
M  V30 3974 H 356.306 0.304646 4.59992 0
M  V30 3975 H 359.85 3.42458 6.07757 0
M  V30 3976 H 355.747 2.18993 6.07217 0
M  V30 3977 H 356.515 3.95374 7.16674 0
M  V30 3978 N 359.178 -1.55987 0.224894 0
M  V30 3979 C 360.424 -1.99433 -0.39973 0
M  V30 3980 C 360.779 -1.11004 -1.57149 0
M  V30 3981 O 360.072 -0.160725 -1.90925 0
M  V30 3982 C 360.266 -3.46394 -0.880106 0
M  V30 3983 C 360.095 -4.4904 0.243565 0
M  V30 3984 C 358.865 -5.00272 0.711056 0
M  V30 3985 C 361.063 -5.03195 1.06299 0
M  V30 3986 N 359.045 -5.86628 1.80944 0
M  V30 3987 C 360.416 -5.86508 2.01017 0
M  V30 3988 C 362.471 -4.8555 1.10205 0
M  V30 3989 C 361.174 -6.54062 2.99324 0
M  V30 3990 C 363.2 -5.53866 2.07332 0
M  V30 3991 C 362.562 -6.3695 3.00789 0
M  V30 3992 H 358.661 -0.773815 -0.112847 0
M  V30 3993 H 361.245 -1.91754 0.337432 0
M  V30 3994 H 359.416 -3.54515 -1.58662 0
M  V30 3995 H 361.148 -3.76752 -1.47783 0
M  V30 3996 H 357.903 -4.72655 0.29906 0
M  V30 3997 H 358.327 -6.34507 2.36073 0
M  V30 3998 H 362.969 -4.20966 0.39343 0
M  V30 3999 H 360.687 -7.17827 3.71147 0
M  V30 4000 H 364.273 -5.42178 2.11032 0
M  V30 4001 H 363.153 -6.8888 3.74718 0
M  V30 4002 N 360.656 0.0484629 -1.57525 0
M  V30 4003 C 362.072 0.40375 -1.54409 0
M  V30 4004 C 362.272 1.77786 -0.948384 0
M  V30 4005 O 361.328 2.46189 -0.560983 0
M  V30 4006 C 362.641 0.323394 -2.98956 0
M  V30 4007 C 364.189 0.401892 -3.10409 0
M  V30 4008 C 364.664 0.351195 -4.56652 0
M  V30 4009 N 366.155 0.410576 -4.61377 0
M  V30 4010 C 366.89 0.393933 -5.72045 0
M  V30 4011 N 366.386 0.330724 -6.9201 0
M  V30 4012 N 368.179 0.442227 -5.60358 0
M  V30 4013 H 360.33 -0.851016 -1.94606 0
M  V30 4014 H 362.593 -0.321721 -0.89174 0
M  V30 4015 H 362.299 -0.62011 -3.4619 0
M  V30 4016 H 362.173 1.12463 -3.60044 0
M  V30 4017 H 364.56 1.33582 -2.63134 0
M  V30 4018 H 364.641 -0.428342 -2.52188 0
M  V30 4019 H 364.285 -0.578987 -5.04589 0
M  V30 4020 H 364.215 1.19928 -5.12762 0
M  V30 4021 H 366.706 0.462729 -3.75056 0
M  V30 4022 H 367.019 0.322592 -7.72126 0
M  V30 4023 H 365.364 0.29706 -6.94365 0
M  V30 4024 H 368.555 0.489464 -4.65534 0
M  V30 4025 H 368.728 0.425788 -6.466 0
M  V30 4026 N 362.134 1.5431 0.320358 0
M  V30 4027 C 363.55 1.45091 0.664889 0
M  V30 4028 C 363.75 0.626382 1.91517 0
M  V30 4029 O 362.806 0.126443 2.52183 0
M  V30 4030 C 364.119 2.88848 0.83591 0
M  V30 4031 C 365.667 2.9877 0.933046 0
M  V30 4032 C 366.142 4.43683 1.13621 0
M  V30 4033 N 367.633 4.47309 1.20287 0
M  V30 4034 C 368.368 5.56595 1.37801 0
M  V30 4035 N 367.864 6.75844 1.52338 0
M  V30 4036 N 369.657 5.44248 1.40535 0
M  V30 4037 H 361.808 2.06398 -0.501374 0
M  V30 4038 H 364.071 0.933963 -0.162534 0
M  V30 4039 H 363.777 3.51698 -0.0116092 0
M  V30 4040 H 363.651 3.35148 1.73078 0
M  V30 4041 H 366.038 2.36045 1.77107 0
M  V30 4042 H 366.119 2.55796 0.0145782 0
M  V30 4043 H 365.763 5.06995 0.303032 0
M  V30 4044 H 365.693 4.84269 2.0686 0
M  V30 4045 H 368.184 3.61388 1.10485 0
M  V30 4046 H 368.497 7.54892 1.65403 0
M  V30 4047 H 366.842 6.78746 1.4943 0
M  V30 4048 H 370.033 4.50038 1.28777 0
M  V30 4049 H 370.206 6.29473 1.53842 0
M  V30 4050 N 363.613 -0.582584 1.46437 0
M  V30 4051 C 364.89 -1.34276 1.4223 0
M  V30 4052 C 365.27 -2.10835 0.10583 0
M  V30 4053 O 364.618 -2.09485 -0.912596 0
M  V30 4054 C 364.828 -2.26865 2.65204 0
M  V30 4055 C 366.176 -2.88691 3.11356 0
M  V30 4056 O 367.2 -2.37178 2.65753 0
M  V30 4057 O 366.059 -3.82255 3.90568 0
M  V30 4058 H 363.153 -0.603326 0.565621 0
M  V30 4059 H 365.699 -0.603591 1.58603 0
M  V30 4060 H 364.471 -1.69724 3.52576 0
M  V30 4061 H 364.094 -3.08122 2.5129 0
M  V30 4062 N 365.091 -1.34144 -0.827227 0
M  V30 4063 C 366.054 -1.25264 -1.91942 0
M  V30 4064 C 367.054 -0.168866 -1.59911 0
M  V30 4065 O 368.244 -0.421198 -1.69031 0
M  V30 4066 C 365.376 -0.932952 -3.27885 0
M  V30 4067 H 366.569 -2.22357 -2.0124 0
M  V30 4068 H 364.122 -1.1837 -1.0207 0
M  V30 4069 H 364.857 0.0349917 -3.24281 0
M  V30 4070 H 364.642 -1.71682 -3.52516 0
M  V30 4071 H 366.132 -0.895874 -4.07877 0
M  V30 4072 N 366.569 1.04691 -1.17803 0
M  V30 4073 C 367.532 2.10724 -0.901545 0
M  V30 4074 C 368.532 1.6042 0.110437 0
M  V30 4075 O 369.722 1.7377 -0.122303 0
M  V30 4076 C 366.854 3.39084 -0.351409 0
M  V30 4077 H 368.047 2.36686 -1.84174 0
M  V30 4078 H 365.6 1.21015 -0.98919 0
M  V30 4079 H 366.335 3.18782 0.59569 0
M  V30 4080 H 366.12 3.76909 -1.08083 0
M  V30 4081 H 367.61 4.17227 -0.176451 0
M  V30 4082 N 368.047 0.979072 1.23499 0
M  V30 4083 C 368.979 0.476271 2.24197 0
M  V30 4084 C 369.992 -0.421166 1.57258 0
M  V30 4085 O 371.181 -0.225515 1.7707 0
M  V30 4086 C 368.281 -0.330503 3.37285 0
M  V30 4087 C 367.454 0.559744 4.33804 0
M  V30 4088 C 366.513 -0.192954 5.25846 0
M  V30 4089 O 365.539 0.416978 5.67671 0
M  V30 4090 N 366.741 -1.47932 5.61334 0
M  V30 4091 H 369.506 1.34211 2.67969 0
M  V30 4092 H 367.067 0.852189 1.37657 0
M  V30 4093 H 369.059 -0.842361 3.95836 0
M  V30 4094 H 367.629 -1.09734 2.92707 0
M  V30 4095 H 366.849 1.25245 3.73775 0
M  V30 4096 H 368.137 1.1665 4.95248 0
M  V30 4097 H 367.535 -1.9964 5.29302 0
M  V30 4098 H 366.092 -1.93664 6.22364 0
M  V30 4099 N 369.525 -1.3858 0.750561 0
M  V30 4100 C 370.472 -2.30483 0.120835 0
M  V30 4101 C 371.442 -1.50022 -0.712923 0
M  V30 4102 O 372.627 -1.78662 -0.669676 0
M  V30 4103 C 369.767 -3.36431 -0.768666 0
M  V30 4104 C 368.88 -4.31927 0.0793922 0
M  V30 4105 C 368.015 -5.24944 -0.81283 0
M  V30 4106 C 367.054 -6.12088 0.0390447 0
M  V30 4107 N 366.191 -6.97412 -0.809969 0
M  V30 4108 H 371.031 -2.83761 0.91015 0
M  V30 4109 H 368.568 -1.39707 0.460463 0
M  V30 4110 H 370.526 -3.96462 -1.29898 0
M  V30 4111 H 369.156 -2.8457 -1.5238 0
M  V30 4112 H 368.208 -3.73382 0.727303 0
M  V30 4113 H 369.52 -4.93319 0.737401 0
M  V30 4114 H 368.674 -5.90078 -1.41042 0
M  V30 4115 H 367.413 -4.63911 -1.50458 0
M  V30 4116 H 366.418 -5.45952 0.649328 0
M  V30 4117 H 367.643 -6.75189 0.727809 0
M  V30 4118 H 365.589 -6.38931 -1.48672 0
M  V30 4119 H 365.506 -7.55712 -0.208789 0
M  V30 4120 H 366.774 -7.66959 -1.39263 0
M  V30 4121 N 371.003 -0.499398 -1.49478 0
M  V30 4122 C 371.95 0.279881 -2.29097 0
M  V30 4123 C 372.92 0.961805 -1.3542 0
M  V30 4124 O 374.105 0.968777 -1.64376 0
M  V30 4125 C 371.245 1.33932 -3.18051 0
M  V30 4126 C 370.358 0.669333 -4.26783 0
M  V30 4127 C 369.493 1.70907 -5.02955 0
M  V30 4128 C 368.532 1.02087 -6.03527 0
M  V30 4129 N 367.669 2.00474 -6.7287 0
M  V30 4130 H 372.509 -0.405317 -2.95231 0
M  V30 4131 H 370.046 -0.211726 -1.45568 0
M  V30 4132 H 372.004 1.96553 -3.67998 0
M  V30 4133 H 370.634 1.9933 -2.53904 0
M  V30 4134 H 369.686 -0.0701234 -3.80335 0
M  V30 4135 H 370.998 0.127503 -4.98637 0
M  V30 4136 H 370.152 2.41037 -5.56764 0
M  V30 4137 H 368.891 2.28476 -4.30871 0
M  V30 4138 H 367.896 0.305338 -5.48951 0
M  V30 4139 H 369.121 0.451708 -6.77596 0
M  V30 4140 H 367.067 2.57007 -6.03559 0
M  V30 4141 H 366.984 1.51353 -7.40694 0
M  V30 4142 H 368.252 2.69897 -7.31284 0
M  V30 4143 N 372.481 1.55866 -0.233164 0
M  V30 4144 C 373.73 1.97779 0.39579 0
M  V30 4145 C 374.043 1.12419 1.60066 0
M  V30 4146 O 375.249 1.44283 2.29988 0
M  V30 4147 C 373.705 3.5188 0.755556 0
M  V30 4148 C 373.313 4.45959 -0.427152 0
M  V30 4149 C 375.057 4.02479 1.34946 0
M  V30 4150 C 372.964 5.91383 -0.0443043 0
M  V30 4151 H 371.894 0.738592 0.15165 0
M  V30 4152 H 374.545 1.80486 -0.331212 0
M  V30 4153 H 372.927 3.64816 1.5403 0
M  V30 4154 H 374.101 4.44776 -1.20462 0
M  V30 4155 H 372.416 4.05765 -0.935068 0
M  V30 4156 H 375.013 5.08637 1.649 0
M  V30 4157 H 375.356 3.49014 2.26925 0
M  V30 4158 H 375.889 3.92813 0.62791 0
M  V30 4159 H 372.628 6.48857 -0.930874 0
M  V30 4160 H 372.148 5.95734 0.697238 0
M  V30 4161 H 373.827 6.45893 0.378334 0
M  V30 4162 N 373.959 -0.0401083 1.57549 0
M  V30 4163 C 375.184 -0.748931 1.93406 0
M  V30 4164 C 375.609 -1.68686 0.832274 0
M  V30 4165 O 374.967 -1.80047 -0.212818 0
M  V30 4166 C 375.015 -1.4916 3.28304 0
M  V30 4167 O 374.119 -2.6042 3.19774 0
M  V30 4168 H 373.46 -0.202212 0.63246 0
M  V30 4169 H 375.99 0.00112086 2.046 0
M  V30 4170 H 376 -1.86395 3.62934 0
M  V30 4171 H 374.675 -0.80364 4.08062 0
M  V30 4172 H 373.252 -2.25808 2.96758 0
M  V30 4173 N 375.437 -1.54477 -0.31217 0
M  V30 4174 C 376.4 -1.83923 -1.36766 0
M  V30 4175 C 377.4 -0.711563 -1.44199 0
M  V30 4176 O 378.59 -0.979866 -1.44029 0
M  V30 4177 C 375.722 -2.0095 -2.75376 0
M  V30 4178 H 376.915 -2.78239 -1.11906 0
M  V30 4179 H 374.468 -1.46369 -0.548257 0
M  V30 4180 H 375.203 -1.08883 -3.05475 0
M  V30 4181 H 374.988 -2.83018 -2.71373 0
M  V30 4182 H 376.478 -2.2514 -3.51713 0
M  V30 4183 N 376.915 0.57481 -1.46744 0
M  V30 4184 C 378.143 1.35856 -1.56047 0
M  V30 4185 C 378.558 1.87691 -0.204365 0
M  V30 4186 O 377.915 1.64049 0.79963 0
M  V30 4187 C 377.966 2.54066 -2.57163 0
M  V30 4188 O 377.687 2.04377 -3.87507 0
M  V30 4189 C 379.188 3.46514 -2.76483 0
M  V30 4190 H 376.408 0.414754 -0.527466 0
M  V30 4191 H 378.952 0.698035 -1.92218 0
M  V30 4192 H 377.107 3.16092 -2.23974 0
M  V30 4193 H 377.521 2.81419 -4.4261 0
M  V30 4194 H 378.995 4.25919 -3.51137 0
M  V30 4195 H 379.472 3.98951 -1.83671 0
M  V30 4196 H 380.078 2.90318 -3.10799 0
M  V30 4197 N 378.394 1.34581 0.820102 0
M  V30 4198 C 379.624 1.29991 1.6058 0
M  V30 4199 C 380.032 -0.127588 1.88769 0
M  V30 4200 O 379.375 -1.08595 1.48165 0
M  V30 4201 C 379.437 2.02548 2.9701 0
M  V30 4202 C 379.101 3.51794 2.91701 0
M  V30 4203 C 380.098 4.46647 2.66087 0
M  V30 4204 C 377.783 3.94249 3.11245 0
M  V30 4205 C 379.777 5.81929 2.60071 0
M  V30 4206 C 377.464 5.2963 3.04853 0
M  V30 4207 C 378.462 6.23282 2.793 0
M  V30 4208 O 378.15 7.56181 2.72847 0
M  V30 4209 H 377.882 0.448539 0.505756 0
M  V30 4210 H 380.436 1.77811 1.02822 0
M  V30 4211 H 378.666 1.49345 3.56697 0
M  V30 4212 H 380.355 1.91211 3.58041 0
M  V30 4213 H 381.121 4.15168 2.5072 0
M  V30 4214 H 377 3.21749 3.30149 0
M  V30 4215 H 380.544 6.54999 2.40046 0
M  V30 4216 H 376.441 5.60727 3.19774 0
M  V30 4217 H 377.209 7.6595 2.88553 0
M  V30 4218 N 379.872 -1.04064 1.18357 0
M  V30 4219 C 380.805 -2.11618 0.854 0
M  V30 4220 C 381.783 -1.61555 -0.184043 0
M  V30 4221 O 382.967 -1.88395 -0.0630048 0
M  V30 4222 C 380.094 -3.37574 0.27597 0
M  V30 4223 C 379.14 -4.06485 1.2912 0
M  V30 4224 S 379.973 -4.53543 2.84709 0
M  V30 4225 C 381.129 -5.82732 2.28417 0
M  V30 4226 H 381.362 -2.39247 1.76488 0
M  V30 4227 H 378.895 -1.16832 1.00944 0
M  V30 4228 H 380.853 -4.10468 -0.051026 0
M  V30 4229 H 379.514 -3.0806 -0.613028 0
M  V30 4230 H 378.707 -4.97024 0.835633 0
M  V30 4231 H 378.309 -3.39708 1.56443 0
M  V30 4232 H 380.601 -6.56677 1.66677 0
M  V30 4233 H 381.544 -6.33052 3.17256 0
M  V30 4234 H 381.952 -5.37838 1.71436 0
M  V30 4235 N 381.35 -0.985608 -1.22978 0
M  V30 4236 C 382.297 -0.529825 -2.24636 0
M  V30 4237 C 383.267 0.434028 -1.60329 0
M  V30 4238 O 384.452 0.340414 -1.87739 0
M  V30 4239 C 381.592 0.156533 -3.44745 0
M  V30 4240 C 380.705 -0.848197 -4.23591 0
M  V30 4241 C 379.84 -0.136109 -5.31026 0
M  V30 4242 C 378.879 -1.1297 -6.01585 0
M  V30 4243 N 378.016 -0.446415 -7.00679 0
M  V30 4244 H 382.856 -1.40148 -2.62988 0
M  V30 4245 H 380.393 -0.702168 -1.29259 0
M  V30 4246 H 382.351 0.571324 -4.1327 0
M  V30 4247 H 380.981 0.992025 -3.07179 0
M  V30 4248 H 380.033 -1.38135 -3.54433 0
M  V30 4249 H 381.345 -1.60512 -4.72268 0
M  V30 4250 H 380.499 0.335784 -6.0577 0
M  V30 4251 H 379.238 0.653373 -4.83304 0
M  V30 4252 H 378.243 -1.6123 -5.25628 0
M  V30 4253 H 379.468 -1.91993 -6.51395 0
M  V30 4254 H 377.414 0.323763 -6.55201 0
M  V30 4255 H 377.331 -1.1419 -7.47326 0
M  V30 4256 H 378.599 0.00291697 -7.795 0
M  V30 4257 N 382.828 1.3818 -0.7579 0
M  V30 4258 C 383.738 2.3421 -0.135247 0
M  V30 4259 C 384.754 1.59487 0.695683 0
M  V30 4260 O 385.93 1.91657 0.618832 0
M  V30 4261 C 382.995 3.3862 0.744139 0
M  V30 4262 C 382.056 4.2918 -0.101658 0
M  V30 4263 C 381.289 5.28603 0.735851 0
M  V30 4264 O 381.512 5.35166 1.97366 0
M  V30 4265 O 380.446 6.01707 0.152372 0
M  V30 4266 H 384.272 2.8916 -0.928436 0
M  V30 4267 H 381.857 1.40101 -0.518855 0
M  V30 4268 H 383.739 4.02539 1.2466 0
M  V30 4269 H 382.414 2.86019 1.51575 0
M  V30 4270 H 381.321 3.68407 -0.650167 0
M  V30 4271 H 382.654 4.85048 -0.836024 0
M  V30 4272 N 384.306 0.507319 1.49211 0
M  V30 4273 C 385.555 -0.0368315 2.01666 0
M  V30 4274 C 385.868 -1.37459 1.39156 0
M  V30 4275 O 387.074 -2.00579 1.82976 0
M  V30 4276 C 385.53 -0.116089 3.59713 0
M  V30 4277 C 385.138 1.2154 4.31198 0
M  V30 4278 C 386.882 -0.610268 4.2009 0
M  V30 4279 C 384.789 1.09796 5.81119 0
M  V30 4280 H 383.719 -0.0175376 0.753796 0
M  V30 4281 H 386.37 0.647691 1.71689 0
M  V30 4282 H 384.752 -0.8652 3.86433 0
M  V30 4283 H 385.926 1.9783 4.16173 0
M  V30 4284 H 384.241 1.64352 3.82593 0
M  V30 4285 H 386.838 -0.715742 5.29888 0
M  V30 4286 H 387.181 -1.61064 3.8388 0
M  V30 4287 H 387.714 0.0824916 3.97714 0
M  V30 4288 H 384.453 2.0728 6.21864 0
M  V30 4289 H 383.973 0.376058 5.9862 0
M  V30 4290 H 385.652 0.779281 6.4229 0
M  V30 4291 N 385.784 -1.5574 0.241426 0
M  V30 4292 C 386.731 -2.21149 -0.660432 0
M  V30 4293 C 387.701 -1.17356 -1.17545 0
M  V30 4294 O 388.886 -1.45784 -1.23093 0
M  V30 4295 C 386.026 -2.91059 -1.85414 0
M  V30 4296 C 385.139 -4.09495 -1.37616 0
M  V30 4297 C 384.274 -4.67135 -2.529 0
M  V30 4298 C 383.313 -5.77831 -2.01936 0
M  V30 4299 N 382.45 -6.29677 -3.10566 0
M  V30 4300 H 387.29 -2.97845 -0.095955 0
M  V30 4301 H 384.827 -1.47057 -0.0356024 0
M  V30 4302 H 386.785 -3.29788 -2.5553 0
M  V30 4303 H 385.415 -2.16846 -2.39118 0
M  V30 4304 H 384.467 -3.76117 -0.569235 0
M  V30 4305 H 385.779 -4.89423 -0.962618 0
M  V30 4306 H 384.933 -5.08409 -3.31067 0
M  V30 4307 H 383.672 -3.86411 -2.97553 0
M  V30 4308 H 382.677 -5.36039 -1.22238 0
M  V30 4309 H 383.902 -6.60402 -1.58259 0
M  V30 4310 H 381.848 -5.5186 -3.54664 0
M  V30 4311 H 381.765 -7.04783 -2.73526 0
M  V30 4312 H 383.033 -6.75609 -3.88809 0
M  V30 4313 N 387.262 0.0317525 -1.57568 0
M  V30 4314 C 388.487 0.738664 -1.938 0
M  V30 4315 C 388.912 1.68242 -0.841208 0
M  V30 4316 O 388.27 1.80157 0.203267 0
M  V30 4317 C 388.318 1.47417 -3.29091 0
M  V30 4318 O 387.422 2.5872 -3.2115 0
M  V30 4319 H 386.763 0.198856 -0.633524 0
M  V30 4320 H 389.293 -0.0119713 -2.04596 0
M  V30 4321 H 389.303 1.84468 -3.63917 0
M  V30 4322 H 387.978 0.781988 -4.08482 0
M  V30 4323 H 386.555 2.24231 -2.97951 0
M  V30 4324 N 388.74 1.54641 0.303973 0
M  V30 4325 C 390.156 1.45788 0.649463 0
M  V30 4326 C 390.356 0.64666 1.90842 0
M  V30 4327 O 389.412 0.153183 2.52035 0
M  V30 4328 C 390.725 2.89718 0.805227 0
M  V30 4329 C 392.273 2.99742 0.901305 0
M  V30 4330 C 392.748 4.44863 1.08909 0
M  V30 4331 N 394.239 4.48559 1.15536 0
M  V30 4332 C 394.974 5.58026 1.3189 0
M  V30 4333 N 394.47 6.77422 1.45161 0
M  V30 4334 N 396.263 5.45708 1.34755 0
M  V30 4335 H 388.414 2.05854 -0.523237 0
M  V30 4336 H 390.677 0.932186 -0.172431 0
M  V30 4337 H 390.383 3.51666 -0.0489108 0
M  V30 4338 H 390.257 3.36964 1.69513 0
M  V30 4339 H 392.644 2.3791 1.74593 0
M  V30 4340 H 392.725 2.55797 -0.0125531 0
M  V30 4341 H 392.369 5.07288 0.249241 0
M  V30 4342 H 392.299 4.86436 2.01713 0
M  V30 4343 H 394.79 3.6254 1.06646 0
M  V30 4344 H 395.103 7.56604 1.57387 0
M  V30 4345 H 393.448 6.80292 1.42223 0
M  V30 4346 H 396.639 4.51378 1.23996 0
M  V30 4347 H 396.812 6.3107 1.47157 0
M  V30 4348 N 390.218 -0.567019 1.47046 0
M  V30 4349 C 391.634 -0.891975 1.32348 0
M  V30 4350 C 391.834 -1.99154 0.306616 0
M  V30 4351 O 390.89 -2.50883 -0.28532 0
M  V30 4352 C 392.203 -1.29449 2.7141 0
M  V30 4353 C 393.751 -1.40646 2.79621 0
M  V30 4354 C 394.226 -1.84257 4.19301 0
M  V30 4355 N 395.717 -1.91424 4.21795 0
M  V30 4356 C 396.452 -2.26476 5.26779 0
M  V30 4357 N 395.948 -2.60211 6.42077 0
M  V30 4358 N 397.741 -2.27166 5.14152 0
M  V30 4359 H 389.892 0.159074 2.11803 0
M  V30 4360 H 392.155 0.00849752 0.947962 0
M  V30 4361 H 391.861 -0.560448 3.47206 0
M  V30 4362 H 391.735 -2.25273 3.02542 0
M  V30 4363 H 394.122 -2.13133 2.04104 0
M  V30 4364 H 394.203 -0.430339 2.52154 0
M  V30 4365 H 393.847 -1.12343 4.95319 0
M  V30 4366 H 393.777 -2.82855 4.44185 0
M  V30 4367 H 396.268 -1.6778 3.38612 0
M  V30 4368 H 396.581 -2.85956 7.17948 0
M  V30 4369 H 394.926 -2.57813 6.45413 0
M  V30 4370 H 398.117 -2.00244 4.23107 0
M  V30 4371 H 398.29 -2.54154 5.96079 0
M  V30 4372 N 391.696 -1.35014 -0.812953 0
M  V30 4373 C 392.606 -1.2951 -1.95613 0
M  V30 4374 C 393.622 -0.20107 -1.72834 0
M  V30 4375 O 394.798 -0.42932 -1.96771 0
M  V30 4376 C 391.863 -1.06033 -3.30088 0
M  V30 4377 C 390.924 -2.24688 -3.65805 0
M  V30 4378 C 390.157 -2.02322 -4.93864 0
M  V30 4379 O 390.38 -0.986464 -5.61805 0
M  V30 4380 O 389.314 -2.89525 -5.27692 0
M  V30 4381 H 393.14 -2.25705 -2.03202 0
M  V30 4382 H 390.725 -1.15321 -0.949811 0
M  V30 4383 H 392.607 -0.94763 -4.10607 0
M  V30 4384 H 391.282 -0.128852 -3.23443 0
M  V30 4385 H 390.189 -2.41521 -2.85689 0
M  V30 4386 H 391.522 -3.16261 -3.77147 0
M  V30 4387 N 393.175 1.03435 -1.18907 0
M  V30 4388 C 394.591 1.28973 -0.940111 0
M  V30 4389 C 394.791 1.97676 0.390691 0
M  V30 4390 O 393.847 2.26127 1.12352 0
M  V30 4391 C 395.16 2.14221 -2.11021 0
M  V30 4392 C 396.708 2.27547 -2.14922 0
M  V30 4393 C 397.183 3.16164 -3.31367 0
M  V30 4394 N 398.674 3.23752 -3.31269 0
M  V30 4395 C 399.409 3.92495 -4.18014 0
M  V30 4396 N 398.905 4.63515 -5.14904 0
M  V30 4397 N 400.698 3.88838 -4.05908 0
M  V30 4398 H 392.849 0.57252 -2.04538 0
M  V30 4399 H 395.112 0.315184 -0.894071 0
M  V30 4400 H 394.818 1.71054 -3.073 0
M  V30 4401 H 394.692 3.14919 -2.0762 0
M  V30 4402 H 397.079 2.69947 -1.19217 0
M  V30 4403 H 397.16 1.26418 -2.22378 0
M  V30 4404 H 396.804 2.74474 -4.27348 0
M  V30 4405 H 396.734 4.17339 -3.21148 0
M  V30 4406 H 399.225 2.73167 -2.61129 0
M  V30 4407 H 399.538 5.13583 -5.77453 0
M  V30 4408 H 397.883 4.62398 -5.18857 0
M  V30 4409 H 401.074 3.32491 -3.29495 0
M  V30 4410 H 401.247 4.4214 -4.73726 0
M  V30 4411 N 394.653 0.992116 1.22453 0
M  V30 4412 C 395.901 0.666215 1.90804 0
M  V30 4413 C 396.222 -0.804152 1.77647 0
M  V30 4414 O 395.492 -1.57629 1.16318 0
M  V30 4415 H 394.072 0.243423 0.706225 0
M  V30 4416 H 396.734 1.25845 1.48825 0
M  V30 4417 H 395.83 0.928069 2.97982 0
M  V30 4418 N 396.131 -1.37776 0.765217 0
M  V30 4419 C 397.408 -1.93975 0.251596 0
M  V30 4420 C 397.788 -1.69949 -1.25222 0
M  V30 4421 O 397.136 -1.04457 -2.03226 0
M  V30 4422 C 397.346 -3.43487 0.617895 0
M  V30 4423 C 398.694 -4.20564 0.584029 0
M  V30 4424 O 399.718 -3.5182 0.556888 0
M  V30 4425 O 398.577 -5.43138 0.605291 0
M  V30 4426 H 395.671 -0.82509 0.0561806 0
M  V30 4427 H 398.217 -1.47101 0.846128 0
M  V30 4428 H 396.989 -3.5453 1.65602 0
M  V30 4429 H 396.612 -3.976 -0.00403411 0
M  V30 4430 N 397.609 -0.515225 -1.4894 0
M  V30 4431 C 398.858 0.0261361 -2.01683 0
M  V30 4432 C 399.171 1.36719 -1.39883 0
M  V30 4433 O 400.377 1.99606 -1.84037 0
M  V30 4434 C 398.833 0.0970111 -3.59769 0
M  V30 4435 C 398.441 -1.23825 -4.30548 0
M  V30 4436 C 400.185 0.587981 -4.20408 0
M  V30 4437 C 398.092 -1.12877 -5.80528 0
M  V30 4438 H 397.022 0.0135398 -0.753878 0
M  V30 4439 H 399.673 -0.656787 -1.71343 0
M  V30 4440 H 398.055 0.844694 -3.86886 0
M  V30 4441 H 399.229 -2.00034 -4.15118 0
M  V30 4442 H 397.544 -1.66379 -3.81716 0
M  V30 4443 H 400.141 0.68763 -5.3026 0
M  V30 4444 H 400.484 1.59026 -3.84729 0
M  V30 4445 H 401.017 -0.103582 -3.97665 0
M  V30 4446 H 397.756 -2.10575 -6.20756 0
M  V30 4447 H 397.276 -0.407799 -5.98412 0
M  V30 4448 H 398.955 -0.813332 -6.41868 0
M  V30 4449 N 399.087 1.5561 -0.249682 0
M  V30 4450 C 400.364 1.90932 0.424761 0
M  V30 4451 C 400.744 1.17078 1.75658 0
M  V30 4452 O 400.092 0.289176 2.26663 0
M  V30 4453 C 400.302 3.43975 0.590109 0
M  V30 4454 C 401.65 4.15281 0.884714 0
M  V30 4455 O 402.674 3.49729 0.67587 0
M  V30 4456 O 401.533 5.31236 1.28259 0
M  V30 4457 H 398.627 0.794815 0.228468 0
M  V30 4458 H 401.173 1.67135 -0.293954 0
M  V30 4459 H 399.945 3.89748 -0.34818 0
M  V30 4460 H 399.568 3.73644 1.35926 0
M  V30 4461 N 400.565 -0.0233959 1.57583 0
M  V30 4462 C 401.976 -0.56927 1.77809 0
M  V30 4463 C 402.327 -1.75284 0.881472 0
M  V30 4464 O 401.452 -2.1626 0.0777805 0
M  V30 4465 C 402.047 -1.03949 3.22459 0
M  V30 4466 C 400.606 -1.53084 3.43864 0
M  V30 4467 C 399.753 -0.471454 2.73263 0
M  V30 4468 H 402.704 0.202825 1.57399 0
M  V30 4469 H 402.725 -1.90661 3.29285 0
M  V30 4470 H 402.237 -0.177865 3.87692 0
M  V30 4471 H 400.338 -2.41414 2.83814 0
M  V30 4472 H 400.451 -1.57443 4.52491 0
M  V30 4473 H 398.815 -0.927788 2.37201 0
M  V30 4474 H 399.598 0.380808 3.41181 0
M  V30 4475 N 402.043 -1.548 -0.295768 0
M  V30 4476 C 402.991 -1.86874 -1.38495 0
M  V30 4477 C 403.985 -0.742938 -1.52239 0
M  V30 4478 O 405.191 -0.926999 -1.54294 0
M  V30 4479 H 401.566 -0.592786 -0.462719 0
M  V30 4480 H 403.537 -2.77904 -1.08682 0
M  V30 4481 C 402.286 -2.13732 -2.74252 0
M  V30 4482 H 401.609 -2.99835 -2.64459 0
M  V30 4483 H 403.049 -2.4011 -3.49461 0
M  V30 4484 C 401.508 -0.937539 -3.23592 0
M  V30 4485 O 402.038 -0.160665 -4.01379 0
M  V30 4486 N 400.244 -0.741478 -2.80981 0
M  V30 4487 H 399.791 -1.37489 -2.1784 0
M  V30 4488 H 399.749 0.0597103 -3.14343 0
M  V30 4489 N 403.521 0.559213 -1.47345 0
M  V30 4490 C 404.937 0.884943 -1.32819 0
M  V30 4491 C 405.137 1.98988 -0.317173 0
M  V30 4492 O 404.193 2.51031 0.272011 0
M  V30 4493 C 405.506 1.28007 -2.72093 0
M  V30 4494 C 407.054 1.39161 -2.80363 0
M  V30 4495 C 407.529 1.82031 -4.20272 0
M  V30 4496 N 409.02 1.89185 -4.22804 0
M  V30 4497 C 409.755 2.2368 -5.27973 0
M  V30 4498 N 409.251 2.56802 -6.43447 0
M  V30 4499 N 411.044 2.24436 -5.15349 0
M  V30 4500 H 403.195 -0.170304 -2.11716 0
M  V30 4501 H 405.458 -0.0135247 -0.947904 0
M  V30 4502 H 405.164 0.542027 -3.47498 0
M  V30 4503 H 405.038 2.23665 -3.03733 0
M  V30 4504 H 407.425 2.12048 -2.05231 0
M  V30 4505 H 407.506 0.41696 -2.52379 0
M  V30 4506 H 407.15 1.09715 -4.95908 0
M  V30 4507 H 407.08 2.80495 -4.45679 0
M  V30 4508 H 409.571 1.65982 -3.39497 0
M  V30 4509 H 409.884 2.82144 -7.19454 0
M  V30 4510 H 408.229 2.54387 -6.46771 0
M  V30 4511 H 411.42 1.97998 -4.24163 0
M  V30 4512 H 411.593 2.50989 -5.97418 0
M  V30 4513 N 404.999 1.35443 0.805782 0
M  V30 4514 C 406.276 1.19325 1.54987 0
M  V30 4515 C 406.656 -0.227294 2.09873 0
M  V30 4516 O 406.004 -1.2309 1.92512 0
M  V30 4517 C 406.214 2.26196 2.65775 0
M  V30 4518 C 407.562 2.62043 3.34094 0
M  V30 4519 O 408.586 2.25115 2.76046 0
M  V30 4520 O 407.445 3.25542 4.38958 0
M  V30 4521 H 404.539 0.463623 0.684823 0
M  V30 4522 H 407.085 1.47127 0.845674 0
M  V30 4523 H 405.857 3.21471 2.23096 0
M  V30 4524 H 405.48 1.99667 3.43829 0
M  V30 4525 N 406.477 -1.02803 1.19454 0
M  V30 4526 C 407.407 -2.12999 0.956758 0
M  V30 4527 C 408.388 -1.69743 -0.110188 0
M  V30 4528 O 409.573 -1.94148 0.0450038 0
M  V30 4529 C 406.703 -3.43746 0.495553 0
M  V30 4530 C 405.657 -4.00688 1.50443 0
M  V30 4531 C 404.983 -5.27067 0.900275 0
M  V30 4532 C 406.283 -4.35397 2.8849 0
M  V30 4533 H 407.977 -2.33148 1.87836 0
M  V30 4534 H 405.523 -1.12045 0.904539 0
M  V30 4535 H 407.476 -4.2021 0.316493 0
M  V30 4536 H 406.2 -3.23321 -0.461646 0
M  V30 4537 H 404.859 -3.2632 1.67065 0
M  V30 4538 H 404.507 -5.02959 -0.064503 0
M  V30 4539 H 404.207 -5.66127 1.57397 0
M  V30 4540 H 405.731 -6.06196 0.73203 0
M  V30 4541 H 407.145 -5.02795 2.75446 0
M  V30 4542 H 405.542 -4.85541 3.52661 0
M  V30 4543 H 406.612 -3.44662 3.41081 0
M  V30 4544 N 407.956 -0.998596 -1.21925 0
M  V30 4545 C 409.205 -0.673085 -1.90138 0
M  V30 4546 C 409.518 0.79895 -1.78539 0
M  V30 4547 O 410.724 1.23628 -2.4172 0
M  V30 4548 C 409.18 -1.15339 -3.40918 0
M  V30 4549 C 408.788 -2.65106 -3.61141 0
M  V30 4550 C 410.532 -0.902476 -4.14796 0
M  V30 4551 C 408.439 -3.0671 -5.05651 0
M  V30 4552 H 407.369 -0.248057 -0.712028 0
M  V30 4553 H 410.02 -1.20891 -1.38049 0
M  V30 4554 H 408.402 -0.545658 -3.92223 0
M  V30 4555 H 409.576 -3.31274 -3.20304 0
M  V30 4556 H 407.891 -2.88142 -3.00605 0
M  V30 4557 H 410.488 -1.18895 -5.21314 0
M  V30 4558 H 410.831 0.161349 -4.15987 0
M  V30 4559 H 411.364 -1.47269 -3.69536 0
M  V30 4560 H 408.103 -4.12292 -5.09603 0
M  V30 4561 H 407.623 -2.45249 -5.47369 0
M  V30 4562 H 409.302 -2.9833 -5.74115 0
M  V30 4563 N 409.434 1.37368 -0.772513 0
M  V30 4564 C 410.711 1.93839 -0.26188 0
M  V30 4565 C 411.091 1.7061 1.24319 0
M  V30 4566 O 410.439 1.05534 2.02669 0
M  V30 4567 C 410.649 3.43154 -0.636102 0
M  V30 4568 C 411.997 4.20249 -0.606324 0
M  V30 4569 O 413.021 3.5152 -0.575538 0
M  V30 4570 O 411.88 5.42809 -0.634086 0
M  V30 4571 H 408.974 0.82478 -0.0605555 0
M  V30 4572 H 411.52 1.4665 -0.853917 0
M  V30 4573 H 410.292 3.53647 -1.6748 0
M  V30 4574 H 409.915 3.97596 -0.0170516 0
M  V30 4575 N 410.912 0.523116 1.48665 0
M  V30 4576 C 412.137 -0.0117284 2.07397 0
M  V30 4577 C 412.562 -1.28031 1.37803 0
M  V30 4578 O 411.92 -1.75836 0.441762 0
M  V30 4579 C 411.968 -0.225786 3.59892 0
M  V30 4580 O 411.072 -1.29592 3.91509 0
M  V30 4581 H 410.413 0.0360673 0.66302 0
M  V30 4582 H 412.943 0.729066 1.9117 0
M  V30 4583 H 412.953 -0.450552 4.05505 0
M  V30 4584 H 411.628 0.700944 4.09951 0
M  V30 4585 H 410.205 -1.05436 3.57684 0
M  V30 4586 N 412.39 -1.55475 0.257931 0
M  V30 4587 C 413.32 -2.24815 -0.630912 0
M  V30 4588 C 414.301 -1.23224 -1.17259 0
M  V30 4589 O 415.486 -1.51904 -1.20991 0
M  V30 4590 C 412.616 -2.95609 -1.82298 0
M  V30 4591 C 411.57 -4.03982 -1.41359 0
M  V30 4592 C 410.896 -4.6226 -2.68738 0
M  V30 4593 C 412.196 -5.19109 -0.57648 0
M  V30 4594 H 413.89 -2.99354 -0.0526878 0
M  V30 4595 H 411.436 -1.4398 -0.023901 0
M  V30 4596 H 413.389 -3.42822 -2.45054 0
M  V30 4597 H 412.113 -2.18577 -2.42676 0
M  V30 4598 H 410.772 -3.57555 -0.809324 0
M  V30 4599 H 410.42 -3.81915 -3.27338 0
M  V30 4600 H 410.12 -5.35424 -2.42065 0
M  V30 4601 H 411.644 -5.12212 -3.32372 0
M  V30 4602 H 413.058 -5.62479 -1.10861 0
M  V30 4603 H 411.455 -5.98729 -0.405351 0
M  V30 4604 H 412.525 -4.83174 0.408776 0
M  V30 4605 N 413.868 0.0150385 -1.57593 0
M  V30 4606 C 414.798 1.01047 -2.10503 0
M  V30 4607 C 415.779 1.36816 -1.01071 0
M  V30 4608 O 416.964 1.45455 -1.28672 0
M  V30 4609 C 414.094 2.30708 -2.59598 0
M  V30 4610 C 413.048 2.09142 -3.73421 0
M  V30 4611 C 412.374 3.44685 -4.08774 0
M  V30 4612 C 413.674 1.46619 -5.01298 0
M  V30 4613 H 415.368 0.569978 -2.93925 0
M  V30 4614 H 412.914 0.272724 -1.41394 0
M  V30 4615 H 414.867 3.00687 -2.95238 0
M  V30 4616 H 413.591 2.76843 -1.73279 0
M  V30 4617 H 412.25 1.41592 -3.38153 0
M  V30 4618 H 411.898 3.88495 -3.195 0
M  V30 4619 H 411.598 3.31077 -4.8545 0
M  V30 4620 H 413.122 4.16004 -4.4696 0
M  V30 4621 H 414.536 2.06535 -5.34805 0
M  V30 4622 H 412.933 1.43544 -5.82679 0
M  V30 4623 H 414.003 0.433611 -4.82957 0
M  V30 4624 N 415.346 1.54954 0.287554 0
M  V30 4625 C 416.595 1.74081 1.01877 0
M  V30 4626 C 416.908 0.541135 1.87966 0
M  V30 4627 O 418.114 0.614491 2.64455 0
M  V30 4628 C 416.57 3.08042 1.86113 0
M  V30 4629 C 416.178 4.35531 1.04961 0
M  V30 4630 C 417.922 3.36523 2.58752 0
M  V30 4631 C 415.829 5.60538 1.88551 0
M  V30 4632 H 414.759 0.64884 0.384087 0
M  V30 4633 H 417.41 1.81426 0.275101 0
M  V30 4634 H 415.792 2.94696 2.64519 0
M  V30 4635 H 416.966 4.59751 0.31074 0
M  V30 4636 H 415.281 4.14085 0.43843 0
M  V30 4637 H 417.878 4.27122 3.21668 0
M  V30 4638 H 418.221 2.56 3.28283 0
M  V30 4639 H 418.754 3.50901 1.87386 0
M  V30 4640 H 415.493 6.43767 1.23466 0
M  V30 4641 H 415.013 5.40483 2.60074 0
M  V30 4642 H 416.692 5.98297 2.46273 0
M  V30 4643 N 416.824 -0.551391 1.4764 0
M  V30 4644 C 417.774 -1.65362 1.56969 0
M  V30 4645 C 418.758 -1.55098 0.428189 0
M  V30 4646 O 419.95 -1.63481 0.678441 0
M  V30 4647 C 417.079 -3.04129 1.59249 0
M  V30 4648 C 416.165 -3.19576 2.78804 0
M  V30 4649 N 416.556 -3.05067 4.03445 0
M  V30 4650 C 414.854 -3.50588 2.75688 0
M  V30 4651 C 415.555 -3.2336 4.83543 0
M  V30 4652 N 414.531 -3.4996 4.15968 0
M  V30 4653 H 418.333 -1.52722 2.51104 0
M  V30 4654 H 415.847 -0.756303 1.43714 0
M  V30 4655 H 417.844 -3.83278 1.64024 0
M  V30 4656 H 416.504 -3.17877 0.662148 0
M  V30 4657 H 417.515 -2.82273 4.34215 0
M  V30 4658 H 414.192 -3.70827 1.91817 0
M  V30 4659 H 415.582 -3.17061 5.92387 0
M  V30 4660 N 418.302 -1.35869 -0.798587 0
M  V30 4661 C 419.527 -1.32883 -1.59238 0
M  V30 4662 C 419.952 0.0894587 -1.87887 0
M  V30 4663 O 419.31 1.05869 -1.47178 0
M  V30 4664 C 419.358 -2.14892 -2.89575 0
M  V30 4665 O 418.462 -1.53512 -3.82763 0
M  V30 4666 H 417.803 -0.455236 -0.48338 0
M  V30 4667 H 420.333 -1.79024 -0.990539 0
M  V30 4668 H 420.343 -2.27139 -3.38928 0
M  V30 4669 H 419.018 -3.17998 -2.68049 0
M  V30 4670 H 417.595 -1.50153 -3.41334 0
M  V30 4671 N 419.78 1.02168 -1.19998 0
M  V30 4672 C 421.008 1.79296 -1.03249 0
M  V30 4673 C 421.423 1.84103 0.418502 0
M  V30 4674 O 420.78 1.29031 1.29063 0
M  V30 4675 C 420.831 3.24007 -1.60319 0
M  V30 4676 O 420.552 3.19512 -2.99739 0
M  V30 4677 C 422.053 4.17704 -1.48453 0
M  V30 4678 H 419.273 0.564016 -0.363493 0
M  V30 4679 H 421.817 1.28639 -1.58973 0
M  V30 4680 H 419.972 3.7183 -1.08727 0
M  V30 4681 H 420.386 4.10306 -3.26725 0
M  V30 4682 H 421.86 5.17104 -1.93153 0
M  V30 4683 H 422.337 4.37029 -0.436193 0
M  V30 4684 H 422.943 3.7576 -1.99211 0
M  V30 4685 N 421.258 1.00505 1.21394 0
M  V30 4686 C 422.488 0.705584 1.94178 0
M  V30 4687 C 422.896 -0.735846 1.74304 0
M  V30 4688 O 422.239 -1.50954 1.04683 0
M  V30 4689 C 422.301 0.94689 3.46806 0
M  V30 4690 C 421.965 2.37517 3.90429 0
M  V30 4691 C 422.962 3.35539 3.97127 0
M  V30 4692 C 420.647 2.71284 4.22742 0
M  V30 4693 C 422.641 4.65395 4.3553 0
M  V30 4694 C 420.328 4.01356 4.60822 0
M  V30 4695 C 421.326 4.98223 4.67186 0
M  V30 4696 O 421.014 6.25969 5.04399 0
M  V30 4697 H 420.746 0.259216 0.624326 0
M  V30 4698 H 423.3 1.34592 1.55159 0
M  V30 4699 H 421.53 0.249386 3.85895 0
M  V30 4700 H 423.219 0.640804 4.0081 0
M  V30 4701 H 423.985 3.10786 3.7234 0
M  V30 4702 H 419.864 1.96581 4.16985 0
M  V30 4703 H 423.408 5.41002 4.40412 0
M  V30 4704 H 419.305 4.25893 4.85063 0
M  V30 4705 H 420.073 6.30085 5.22431 0
M  V30 4706 N 422.737 -1.36956 0.779787 0
M  V30 4707 C 423.684 -2.30175 0.169697 0
M  V30 4708 C 424.654 -1.51501 -0.68094 0
M  V30 4709 O 425.839 -1.80042 -0.631629 0
M  V30 4710 C 422.979 -3.37985 -0.697131 0
M  V30 4711 C 422.092 -4.31661 0.170992 0
M  V30 4712 C 421.227 -5.2655 -0.701298 0
M  V30 4713 C 420.266 -6.11867 0.168869 0
M  V30 4714 N 419.403 -6.98973 -0.661855 0
M  V30 4715 H 424.243 -2.81767 0.970135 0
M  V30 4716 H 421.78 -1.38699 0.489994 0
M  V30 4717 H 423.738 -3.99128 -1.2146 0
M  V30 4718 H 422.368 -2.87739 -1.46309 0
M  V30 4719 H 421.42 -3.71756 0.80634 0
M  V30 4720 H 422.732 -4.91644 0.841875 0
M  V30 4721 H 421.886 -5.92937 -1.28494 0
M  V30 4722 H 420.625 -4.66998 -1.40584 0
M  V30 4723 H 419.63 -5.44452 0.764986 0
M  V30 4724 H 420.855 -6.73493 0.870863 0
M  V30 4725 H 418.801 -6.41941 -1.35086 0
M  V30 4726 H 418.718 -7.55984 -0.0484447 0
M  V30 4727 H 419.986 -7.6974 -1.22963 0
M  V30 4728 N 424.215 -0.530993 -1.48385 0
M  V30 4729 C 425.492 0.0671788 -1.95485 0
M  V30 4730 C 425.872 1.51191 -1.47324 0
M  V30 4731 O 425.22 2.17507 -0.700202 0
M  V30 4732 C 425.43 -0.0511206 -3.48963 0
M  V30 4733 C 426.778 0.107632 -4.24464 0
M  V30 4734 O 427.802 0.0226248 -3.56193 0
M  V30 4735 O 426.661 0.285972 -5.45751 0
M  V30 4736 H 423.755 0.0787365 -0.823243 0
M  V30 4737 H 426.301 -0.595662 -1.58902 0
M  V30 4738 H 425.073 -1.05747 -3.7674 0
M  V30 4739 H 424.696 0.650525 -3.92242 0
M  V30 4740 N 425.693 1.55336 -0.266172 0
M  V30 4741 C 426.941 1.99003 0.35246 0
M  V30 4742 C 427.262 1.15591 1.57047 0
M  V30 4743 O 426.532 0.243268 1.94384 0
M  V30 4744 H 425.112 0.735025 0.133217 0
M  V30 4745 H 427.774 1.91367 -0.369434 0
M  V30 4746 H 426.87 3.05289 0.648453 0
M  V30 4747 N 427.171 -0.0066808 1.57599 0
M  V30 4748 C 428.417 -0.693947 1.90558 0
M  V30 4749 C 428.75 -1.73792 0.866594 0
M  V30 4750 O 428.025 -1.94156 -0.115548 0
M  V30 4751 C 428.308 -1.34317 3.34112 0
M  V30 4752 C 428.161 -0.311189 4.48722 0
M  V30 4753 C 429.48 -2.27116 3.7697 0
M  V30 4754 H 426.599 -0.250803 0.693013 0
M  V30 4755 H 429.241 0.043242 1.89951 0
M  V30 4756 H 427.391 -1.9715 3.3476 0
M  V30 4757 H 429.063 0.316944 4.6021 0
M  V30 4758 H 427.306 0.367253 4.32243 0
M  V30 4759 H 427.977 -0.804366 5.46108 0
M  V30 4760 H 430.453 -1.74306 3.77831 0
M  V30 4761 H 429.329 -2.69511 4.78179 0
M  V30 4762 H 429.59 -3.14743 3.10466 0
M  V30 4763 N 428.649 -1.55105 -0.279332 0
M  V30 4764 C 429.596 -1.8755 -1.34513 0
M  V30 4765 C 430.566 -0.726384 -1.49375 0
M  V30 4766 O 431.751 -0.977063 -1.63884 0
M  V30 4767 C 428.891 -2.14738 -2.70151 0
M  V30 4768 C 428.004 -3.42285 -2.63562 0
M  V30 4769 C 427.139 -3.59206 -3.91337 0
M  V30 4770 C 426.178 -4.80467 -3.79233 0
M  V30 4771 N 425.315 -4.94079 -4.98829 0
M  V30 4772 H 430.155 -2.78456 -1.06143 0
M  V30 4773 H 427.692 -1.37867 -0.512936 0
M  V30 4774 H 429.65 -2.28501 -3.49061 0
M  V30 4775 H 428.28 -1.27075 -2.96735 0
M  V30 4776 H 427.332 -3.37029 -1.76397 0
M  V30 4777 H 428.644 -4.31328 -2.50515 0
M  V30 4778 H 427.798 -3.72751 -4.78687 0
M  V30 4779 H 426.537 -2.68337 -4.07243 0
M  V30 4780 H 425.542 -4.66932 -2.90266 0
M  V30 4781 H 426.767 -5.72765 -3.64852 0
M  V30 4782 H 424.713 -4.06139 -5.15158 0
M  V30 4783 H 424.63 -5.77156 -4.8829 0
M  V30 4784 H 425.898 -5.12003 -5.8777 0
M  V30 4785 N 430.127 0.543554 -1.4793 0
M  V30 4786 C 431.06 1.66556 -1.55995 0
M  V30 4787 C 432.038 1.57315 -0.411205 0
M  V30 4788 O 433.222 1.7798 -0.620922 0
M  V30 4789 C 430.349 3.04883 -1.47527 0
M  V30 4790 C 429.395 3.32526 -2.67074 0
M  V30 4791 S 430.228 3.20282 -4.29162 0
M  V30 4792 C 431.384 4.61079 -4.23269 0
M  V30 4793 H 431.617 1.59462 -2.50917 0
M  V30 4794 H 429.15 0.725456 -1.36296 0
M  V30 4795 H 431.108 3.84665 -1.43328 0
M  V30 4796 H 429.769 3.09429 -0.539665 0
M  V30 4797 H 428.962 4.33403 -2.5725 0
M  V30 4798 H 428.564 2.60389 -2.68466 0
M  V30 4799 H 430.856 5.52318 -3.92365 0
M  V30 4800 H 431.799 4.75959 -5.24279 0
M  V30 4801 H 432.207 4.39766 -3.5393 0
M  V30 4802 N 431.605 1.3629 0.791371 0
M  V30 4803 C 432.833 1.33562 1.58016 0
M  V30 4804 C 433.248 -0.0835616 1.88615 0
M  V30 4805 O 432.605 -1.0399 1.49974 0
M  V30 4806 C 432.656 2.15517 2.90232 0
M  V30 4807 O 432.377 3.51902 2.60953 0
M  V30 4808 C 433.878 2.20546 3.84544 0
M  V30 4809 H 431.098 0.458226 0.490173 0
M  V30 4810 H 433.642 1.79361 0.982345 0
M  V30 4811 H 431.797 1.73278 3.46487 0
M  V30 4812 H 432.211 3.94644 3.4548 0
M  V30 4813 H 433.685 2.82252 4.74382 0
M  V30 4814 H 434.162 1.20838 4.2225 0
M  V30 4815 H 434.768 2.63013 3.34222 0
M  V30 4816 N 433.083 -1.0153 1.20538 0
M  V30 4817 C 434.36 -1.72327 0.925343 0
M  V30 4818 C 434.74 -2.03383 -0.565547 0
M  V30 4819 O 434.088 -1.69934 -1.52757 0
M  V30 4820 C 434.298 -2.9902 1.79967 0
M  V30 4821 C 435.646 -3.72258 2.04228 0
M  V30 4822 O 436.67 -3.08979 1.77231 0
M  V30 4823 O 435.529 -4.86053 2.4983 0
M  V30 4824 H 432.623 -0.751099 0.346092 0
M  V30 4825 H 435.169 -1.07366 1.31417 0
M  V30 4826 H 433.941 -2.72402 2.80915 0
M  V30 4827 H 433.564 -3.71721 1.41099 0
M  V30 4828 N 434.561 -1.01147 -1.20859 0
M  V30 4829 C 435.493 -0.535546 -2.22855 0
M  V30 4830 C 436.506 0.379323 -1.58319 0
M  V30 4831 O 437.695 0.178489 -1.77605 0
M  V30 4832 C 434.795 0.240962 -3.38042 0
M  V30 4833 C 433.968 -0.674562 -4.32167 0
M  V30 4834 C 433.027 0.053467 -5.26173 0
M  V30 4835 O 432.053 -0.567339 -5.66366 0
M  V30 4836 N 433.255 1.32997 -5.65059 0
M  V30 4837 H 436.02 -1.41268 -2.64317 0
M  V30 4838 H 433.581 -0.888386 -1.35349 0
M  V30 4839 H 435.573 0.737115 -3.97931 0
M  V30 4840 H 434.143 1.01935 -2.95513 0
M  V30 4841 H 433.363 -1.35111 -3.70322 0
M  V30 4842 H 434.651 -1.2974 -4.91981 0
M  V30 4843 H 434.049 1.85536 -5.34409 0
M  V30 4844 H 432.606 1.77095 -6.2728 0
M  V30 4845 N 436.039 1.36541 -0.78704 0
M  V30 4846 C 436.949 2.3387 -0.184896 0
M  V30 4847 C 437.965 1.60927 0.661697 0
M  V30 4848 O 439.141 1.92927 0.57804 0
M  V30 4849 C 436.206 3.40122 0.672145 0
M  V30 4850 C 435.267 4.28867 -0.19267 0
M  V30 4851 C 434.5 5.30045 0.623561 0
M  V30 4852 O 434.723 5.39232 1.8597 0
M  V30 4853 O 433.657 6.01895 0.0247068 0
M  V30 4854 H 437.483 2.87126 -0.989562 0
M  V30 4855 H 435.068 1.38969 -0.548455 0
M  V30 4856 H 436.95 4.05093 1.16094 0
M  V30 4857 H 435.625 2.89169 1.45474 0
M  V30 4858 H 434.532 3.66945 -0.728166 0
M  V30 4859 H 435.865 4.83165 -0.938722 0
M  V30 4860 N 437.518 0.538854 1.48102 0
M  V30 4861 C 438.767 0.0059532 2.01699 0
M  V30 4862 C 439.08 -1.34476 1.42041 0
M  V30 4863 O 440.286 -1.96653 1.87189 0
M  V30 4864 C 438.742 -0.0397627 3.59878 0
M  V30 4865 C 438.35 1.30659 4.28523 0
M  V30 4866 C 440.094 -0.521024 4.2129 0
M  V30 4867 C 438.001 1.22098 5.78659 0
M  V30 4868 H 436.931 -0.00154456 0.753998 0
M  V30 4869 H 439.582 0.683963 1.70277 0
M  V30 4870 H 437.964 -0.783037 3.88181 0
M  V30 4871 H 439.138 2.06613 4.11883 0
M  V30 4872 H 437.453 1.7243 3.79021 0
M  V30 4873 H 440.05 -0.603184 5.31287 0
M  V30 4874 H 440.393 -1.52885 3.8721 0
M  V30 4875 H 440.926 0.166834 3.9745 0
M  V30 4876 H 437.665 2.20424 6.17328 0
M  V30 4877 H 437.185 0.50295 5.97688 0
M  V30 4878 H 438.864 0.915345 6.40492 0
M  V30 4879 N 438.996 -1.55193 0.274407 0
M  V30 4880 C 439.959 -2.212 -0.600279 0
M  V30 4881 C 440.959 -1.18963 -1.08187 0
M  V30 4882 O 442.149 -1.43873 -0.982158 0
M  V30 4883 C 439.281 -2.87739 -1.82809 0
M  V30 4884 H 440.474 -2.9989 -0.0239682 0
M  V30 4885 H 438.027 -1.5628 0.0250192 0
M  V30 4886 H 438.762 -2.13058 -2.44493 0
M  V30 4887 H 438.547 -3.62658 -1.49069 0
M  V30 4888 H 440.037 -3.38171 -2.45011 0
M  V30 4889 N 440.474 -0.00167713 -1.576 0
M  V30 4890 C 441.422 1.0074 -2.09652 0
M  V30 4891 C 442.416 1.35483 -1.01689 0
M  V30 4892 O 443.622 1.34028 -1.20152 0
M  V30 4893 H 439.997 0.342537 -0.669457 0
M  V30 4894 H 441.968 0.542841 -2.93421 0
M  V30 4895 C 440.717 2.2899 -2.61647 0
M  V30 4896 H 440.04 2.03124 -3.44355 0
M  V30 4897 H 441.48 2.9787 -3.01744 0
M  V30 4898 C 439.939 3.00085 -1.53136 0
M  V30 4899 O 440.469 3.91135 -0.91524 0
M  V30 4900 N 438.675 2.6194 -1.25841 0
M  V30 4901 H 438.222 1.8798 -1.76129 0
M  V30 4902 H 438.18 3.09822 -0.534576 0
M  V30 4903 N 441.952 1.55251 0.271103 0
M  V30 4904 C 442.882 1.9127 1.33933 0
M  V30 4905 C 443.863 0.77478 1.5143 0
M  V30 4906 O 445.048 1.03307 1.64442 0
M  V30 4907 C 442.178 2.18627 2.69851 0
M  V30 4908 C 441.132 3.34442 2.67081 0
M  V30 4909 C 440.458 3.47284 4.06569 0
M  V30 4910 C 441.758 4.70784 2.26185 0
M  V30 4911 H 443.452 2.80744 1.04035 0
M  V30 4912 H 440.998 1.35077 0.499017 0
M  V30 4913 H 442.951 2.42413 3.44694 0
M  V30 4914 H 441.675 1.25955 3.01335 0
M  V30 4915 H 440.334 3.10627 1.94695 0
M  V30 4916 H 439.982 2.52074 4.35279 0
M  V30 4917 H 439.682 4.25152 4.0561 0
M  V30 4918 H 441.206 3.73363 4.83148 0
M  V30 4919 H 442.62 4.94102 2.90751 0
M  V30 4920 H 441.017 5.51582 2.36384 0
M  V30 4921 H 442.087 4.69478 1.21319 0
M  V30 4922 N 443.43 -0.535701 1.48216 0
M  V30 4923 C 444.36 -1.65014 1.65204 0
M  V30 4924 C 445.341 -1.62554 0.501011 0
M  V30 4925 O 446.526 -1.7984 0.732886 0
M  V30 4926 C 443.656 -3.03616 1.68626 0
M  V30 4927 C 442.61 -3.20932 2.83172 0
M  V30 4928 C 441.936 -4.60537 2.71679 0
M  V30 4929 C 443.236 -3.04249 4.24535 0
M  V30 4930 H 444.93 -1.51053 2.58502 0
M  V30 4931 H 442.476 -0.725262 1.24402 0
M  V30 4932 H 444.429 -3.81446 1.79099 0
M  V30 4933 H 443.153 -3.18587 0.719026 0
M  V30 4934 H 441.812 -2.45517 2.72244 0
M  V30 4935 H 441.46 -4.72336 1.72937 0
M  V30 4936 H 441.16 -4.73069 3.48538 0
M  V30 4937 H 442.684 -5.40475 2.84112 0
M  V30 4938 H 444.098 -3.71877 4.36326 0
M  V30 4939 H 442.495 -3.28278 5.02348 0
M  V30 4940 H 443.565 -2.00739 4.41397 0
M  V30 4941 N 444.908 -1.36708 -0.784132 0
M  V30 4942 C 446.157 -1.30559 -1.53744 0
M  V30 4943 C 446.47 0.111374 -1.95283 0
M  V30 4944 O 447.676 0.29527 -2.6989 0
M  V30 4945 C 446.132 -2.29098 -2.77565 0
M  V30 4946 C 445.74 -3.76258 -2.43174 0
M  V30 4947 C 447.484 -2.31936 -3.55536 0
M  V30 4948 C 445.391 -4.6656 -3.63422 0
M  V30 4949 H 444.321 -0.48518 -0.577162 0
M  V30 4950 H 446.972 -1.62101 -0.859981 0
M  V30 4951 H 445.354 -1.90557 -3.47137 0
M  V30 4952 H 446.528 -4.23565 -1.81465 0
M  V30 4953 H 444.843 -3.76246 -1.78403 0
M  V30 4954 H 447.44 -2.9661 -4.44889 0
M  V30 4955 H 447.783 -1.3294 -3.94503 0
M  V30 4956 H 448.316 -2.6912 -2.92949 0
M  V30 4957 H 445.055 -5.66638 -3.29547 0
M  V30 4958 H 444.575 -4.23966 -4.24279 0
M  V30 4959 H 446.254 -4.8309 -4.30387 0
M  V30 4960 N 446.386 1.0089 -1.21074 0
M  V30 4961 C 447.634 1.74262 -1.02358 0
M  V30 4962 C 447.955 1.89869 0.444393 0
M  V30 4963 O 447.225 1.44677 1.32081 0
M  V30 4964 H 445.805 0.645615 -0.375754 0
M  V30 4965 H 448.467 1.21596 -1.52317 0
M  V30 4966 H 447.563 2.74328 -1.4883 0
M  V30 4967 N 447.864 1.01787 1.20321 0
M  V30 4968 C 449.113 0.703249 1.89043 0
M  V30 4969 C 449.426 -0.770445 1.79787 0
M  V30 4970 O 450.632 -1.19767 2.43656 0
M  V30 4971 C 449.088 1.20749 3.3904 0
M  V30 4972 C 448.696 2.70817 3.56878 0
M  V30 4973 C 450.44 0.968352 4.13308 0
M  V30 4974 C 448.347 3.14716 5.00708 0
M  V30 4975 H 447.277 0.259354 0.707991 0
M  V30 4976 H 449.928 1.23072 1.36108 0
M  V30 4977 H 448.31 0.607989 3.91305 0
M  V30 4978 H 449.484 3.36327 3.14993 0
M  V30 4979 H 447.799 2.92888 2.95983 0
M  V30 4980 H 450.396 1.27173 5.19356 0
M  V30 4981 H 450.739 -0.095149 4.16191 0
M  V30 4982 H 451.272 1.53129 3.67146 0
M  V30 4983 H 448.011 4.20347 5.02979 0
M  V30 4984 H 447.531 2.53927 5.43398 0
M  V30 4985 H 449.21 3.07426 5.69296 0
M  V30 4986 N 449.342 -1.36122 0.79427 0
M  V30 4987 C 450.272 -2.32551 0.210328 0
M  V30 4988 C 451.253 -1.56884 -0.657386 0
M  V30 4989 O 452.438 -1.85014 -0.590207 0
M  V30 4990 C 449.568 -3.41128 -0.651819 0
M  V30 4991 C 448.522 -4.27842 0.116395 0
M  V30 4992 C 447.848 -5.2763 -0.86666 0
M  V30 4993 C 449.148 -5.05647 1.30837 0
M  V30 4994 H 450.842 -2.81636 1.01594 0
M  V30 4995 H 448.388 -1.35407 0.489981 0
M  V30 4996 H 450.341 -4.07581 -1.07031 0
M  V30 4997 H 449.065 -2.90622 -1.49019 0
M  V30 4998 H 447.724 -3.62952 0.515915 0
M  V30 4999 H 447.372 -4.73395 -1.70019 0
M  V30 5000 H 447.072 -5.86514 -0.35705 0
M  V30 5001 H 448.596 -5.96955 -1.28361 0
M  V30 5002 H 450.01 -5.65113 0.965393 0
M  V30 5003 H 448.407 -5.73967 1.75161 0
M  V30 5004 H 449.477 -4.37006 2.10128 0
M  V30 5005 N 450.82 -0.546701 -1.47814 0
M  V30 5006 C 451.753 0.254472 -2.26777 0
M  V30 5007 C 452.731 0.929809 -1.33392 0
M  V30 5008 O 453.915 0.950889 -1.62759 0
M  V30 5009 C 451.042 1.36171 -3.10121 0
M  V30 5010 C 450.088 0.796038 -4.19005 0
M  V30 5011 S 450.921 -0.349191 -5.3436 0
M  V30 5012 C 452.077 0.760122 -6.21267 0
M  V30 5013 H 452.31 -0.415612 -2.94381 0
M  V30 5014 H 449.843 -0.332809 -1.5077 0
M  V30 5015 H 451.801 1.99588 -3.58713 0
M  V30 5016 H 450.462 2.00359 -2.41899 0
M  V30 5017 H 449.655 1.62719 -4.7701 0
M  V30 5018 H 449.257 0.238246 -3.7324 0
M  V30 5019 H 451.549 1.65479 -6.5698 0
M  V30 5020 H 452.492 0.217673 -7.07765 0
M  V30 5021 H 452.9 1.04806 -5.54685 0
M  V30 5022 N 452.299 1.55045 -0.282633 0
M  V30 5023 C 453.547 1.99365 0.331334 0
M  V30 5024 C 453.868 1.1725 1.55812 0
M  V30 5025 O 453.138 0.263871 1.94115 0
M  V30 5026 H 451.718 0.736397 0.125414 0
M  V30 5027 H 454.38 1.90964 -0.389711 0
M  V30 5028 H 453.476 3.0596 0.616036 0
M  V30 5029 N 453.777 0.010035 1.57597 0
M  V30 5030 C 455.025 -0.671371 1.90623 0
M  V30 5031 C 455.346 -1.73753 0.885151 0
M  V30 5032 O 454.616 -1.95752 -0.0760611 0
M  V30 5033 H 453.196 -0.250968 0.703579 0
M  V30 5034 H 455.858 0.0533325 1.94827 0
M  V30 5035 H 454.954 -1.13626 2.90681 0
M  V30 5036 N 455.255 -1.55392 -0.262866 0
M  V30 5037 C 456.187 -1.85392 -1.34768 0
M  V30 5038 C 457.2 -0.739069 -1.45057 0
M  V30 5039 O 458.389 -1.01703 -1.46693 0
M  V30 5040 C 455.489 -2.01088 -2.72795 0
M  V30 5041 C 454.662 -3.31828 -2.84972 0
M  V30 5042 C 453.721 -3.37464 -4.03738 0
M  V30 5043 O 452.747 -4.10778 -3.94018 0
M  V30 5044 N 453.949 -2.65599 -5.16176 0
M  V30 5045 H 456.714 -2.79029 -1.09375 0
M  V30 5046 H 454.275 -1.55434 -0.452981 0
M  V30 5047 H 456.267 -2.02217 -3.50557 0
M  V30 5048 H 454.837 -1.1427 -2.90966 0
M  V30 5049 H 454.057 -3.43152 -1.94012 0
M  V30 5050 H 455.345 -4.18032 -2.90045 0
M  V30 5051 H 454.743 -2.05736 -5.26962 0
M  V30 5052 H 453.3 -2.72439 -5.92132 0
M  V30 5053 N 456.733 0.527833 -1.48498 0
M  V30 5054 C 457.683 1.62844 -1.5958 0
M  V30 5055 C 458.667 1.54397 -0.452809 0
M  V30 5056 O 459.859 1.62381 -0.704364 0
M  V30 5057 C 456.988 3.01557 -1.64067 0
M  V30 5058 C 456.074 3.151 -2.83853 0
M  V30 5059 N 456.465 2.9861 -4.08247 0
M  V30 5060 C 454.763 3.46158 -2.8123 0
M  V30 5061 C 455.464 3.15626 -4.88626 0
M  V30 5062 N 454.44 3.43298 -4.21483 0
M  V30 5063 H 458.242 1.48708 -2.53502 0
M  V30 5064 H 455.756 0.733343 -1.44899 0
M  V30 5065 H 457.753 3.8062 -1.70101 0
M  V30 5066 H 456.413 3.16783 -0.712636 0
M  V30 5067 H 457.424 2.75329 -4.3865 0
M  V30 5068 H 454.101 3.67728 -1.97692 0
M  V30 5069 H 455.491 3.07596 -5.97356 0
M  V30 5070 N 458.211 1.37122 0.776871 0
M  V30 5071 C 459.439 1.3523 1.5659 0
M  V30 5072 C 459.854 -0.0635518 1.88693 0
M  V30 5073 O 459.211 -1.02394 1.51069 0
M  V30 5074 C 459.262 2.18583 2.8793 0
M  V30 5075 O 458.983 3.5465 2.57206 0
M  V30 5076 C 460.484 2.24612 3.82183 0
M  V30 5077 H 457.704 0.4634 0.485285 0
M  V30 5078 H 460.248 1.80392 0.963266 0
M  V30 5079 H 458.403 1.76943 3.4463 0
M  V30 5080 H 458.817 3.98286 3.41275 0
M  V30 5081 H 460.291 2.87267 4.71361 0
M  V30 5082 H 460.768 1.25309 4.20944 0
M  V30 5083 H 461.374 2.66543 3.31414 0
M  V30 5084 N 459.689 -1.00246 1.21608 0
M  V30 5085 C 460.914 -1.78167 1.06167 0
M  V30 5086 C 461.339 -1.84138 -0.384035 0
M  V30 5087 O 460.697 -1.28683 -1.27712 0
M  V30 5088 C 460.745 -3.19786 1.66642 0
M  V30 5089 O 459.849 -4.02153 0.913613 0
M  V30 5090 H 459.19 -0.549 0.37349 0
M  V30 5091 H 461.72 -1.25994 1.61204 0
M  V30 5092 H 461.73 -3.70451 1.70969 0
M  V30 5093 H 460.405 -3.14754 2.7185 0
M  V30 5094 H 458.982 -3.60711 0.945635 0
M  V30 5095 N 461.167 -1.02423 -1.1978 0
M  V30 5096 C 462.13 -0.605703 -2.21052 0
M  V30 5097 C 463.13 0.328209 -1.57415 0
M  V30 5098 O 464.32 0.115853 -1.73814 0
M  V30 5099 C 461.452 0.114366 -3.40708 0
M  V30 5100 H 462.645 -1.5017 -2.59594 0
M  V30 5101 H 460.198 -0.814888 -1.33376 0
M  V30 5102 H 460.933 1.02492 -3.07678 0
M  V30 5103 H 460.718 -0.556641 -3.88129 0
M  V30 5104 H 462.208 0.394272 -4.15735 0
M  V30 5105 N 462.645 1.35699 -0.801477 0
M  V30 5106 C 463.87 2.03687 -0.390678 0
M  V30 5107 C 464.295 1.60015 0.988778 0
M  V30 5108 O 463.653 0.774357 1.63931 0
M  V30 5109 C 463.701 3.57439 -0.476404 0
M  V30 5110 O 462.805 4.09208 0.512106 0
M  V30 5111 H 462.146 0.64344 -0.163956 0
M  V30 5112 H 464.676 1.73403 -1.08594 0
M  V30 5113 H 464.686 4.06544 -0.344357 0
M  V30 5114 H 463.361 3.88576 -1.48262 0
M  V30 5115 H 461.938 3.7134 0.340721 0
M  V30 5116 N 464.123 0.554532 1.47522 0
M  V30 5117 C 465.351 0.034257 2.06872 0
M  V30 5118 C 465.766 -1.25826 1.40759 0
M  V30 5119 O 465.123 -1.75425 0.503217 0
M  V30 5120 C 465.174 -0.167827 3.6111 0
M  V30 5121 O 464.895 1.07351 4.24744 0
M  V30 5122 C 466.396 -0.72569 4.3732 0
M  V30 5123 H 463.616 0.0446275 0.669514 0
M  V30 5124 H 466.16 0.767181 1.89564 0
M  V30 5125 H 464.315 -0.850872 3.7794 0
M  V30 5126 H 464.729 0.869563 5.17242 0
M  V30 5127 H 466.203 -0.816394 5.45929 0
M  V30 5128 H 466.68 -1.73635 4.0342 0
M  V30 5129 H 467.286 -0.0784292 4.25228 0
M  V30 5130 N 465.601 -1.54893 0.290851 0
M  V30 5131 C 466.826 -2.04804 -0.32712 0
M  V30 5132 C 467.251 -1.16721 -1.47506 0
M  V30 5133 O 466.609 -0.169107 -1.8051 0
M  V30 5134 C 466.657 -3.52268 -0.770689 0
M  V30 5135 O 465.761 -3.67236 -1.87647 0
M  V30 5136 H 465.102 -0.660789 -0.0652227 0
M  V30 5137 H 467.632 -2.00036 0.429739 0
M  V30 5138 H 467.642 -3.9393 -1.06223 0
M  V30 5139 H 466.317 -4.15843 0.069096 0
M  V30 5140 H 464.894 -3.37479 -1.58626 0
M  V30 5141 N 467.08 -0.0183926 -1.57589 0
M  V30 5142 C 468.043 0.951986 -2.08494 0
M  V30 5143 C 469.043 1.26092 -0.997874 0
M  V30 5144 O 470.233 1.20304 -1.25987 0
M  V30 5145 C 467.365 2.27165 -2.54182 0
M  V30 5146 H 468.558 0.511307 -2.95509 0
M  V30 5147 H 466.111 0.229444 -1.54607 0
M  V30 5148 H 466.846 2.75884 -1.70465 0
M  V30 5149 H 466.631 2.06057 -3.33591 0
M  V30 5150 H 468.121 2.9674 -2.93828 0
M  V30 5151 N 468.558 1.5553 0.254621 0
M  V30 5152 C 469.804 1.7818 0.980989 0
M  V30 5153 C 470.159 0.586059 1.83257 0
M  V30 5154 O 469.452 -0.420889 1.8692 0
M  V30 5155 C 469.646 3.03891 1.88109 0
M  V30 5156 C 469.475 4.35578 1.11812 0
M  V30 5157 C 468.245 4.98497 0.826343 0
M  V30 5158 C 470.443 5.11869 0.499486 0
M  V30 5159 N 468.425 6.13888 0.0385095 0
M  V30 5160 C 469.796 6.1981 -0.153292 0
M  V30 5161 C 471.851 4.96216 0.409175 0
M  V30 5162 C 470.554 7.13801 -0.8877 0
M  V30 5163 C 472.58 5.90578 -0.311683 0
M  V30 5164 C 471.942 6.97922 -0.953129 0
M  V30 5165 H 468.041 0.704057 0.340335 0
M  V30 5166 H 470.625 1.93025 0.254855 0
M  V30 5167 H 468.796 2.90389 2.57932 0
M  V30 5168 H 470.528 3.14869 2.54244 0
M  V30 5169 H 467.283 4.59769 1.13621 0
M  V30 5170 H 467.707 6.76129 -0.343275 0
M  V30 5171 H 472.349 4.1331 0.890765 0
M  V30 5172 H 470.067 7.96214 -1.38092 0
M  V30 5173 H 473.653 5.80544 -0.382125 0
M  V30 5174 H 472.533 7.69681 -1.50203 0
M  V30 5175 N 470.036 -0.519951 1.48776 0
M  V30 5176 C 471.283 -1.27522 1.57303 0
M  V30 5177 C 471.611 -1.92869 0.251328 0
M  V30 5178 O 470.866 -1.80372 -0.759243 0
M  V30 5179 C 471.165 -2.37864 2.6675 0
M  V30 5180 C 470.831 -1.90103 4.08867 0
M  V30 5181 C 469.493 -1.76795 4.47546 0
M  V30 5182 C 471.845 -1.54133 4.97888 0
M  V30 5183 C 469.173 -1.25868 5.73039 0
M  V30 5184 C 471.525 -1.04665 6.23881 0
M  V30 5185 C 470.189 -0.899823 6.61407 0
M  V30 5186 H 469.459 -0.466636 0.575614 0
M  V30 5187 H 472.106 -0.579109 1.82534 0
M  V30 5188 H 470.411 -3.13186 2.35418 0
M  V30 5189 H 472.108 -2.95969 2.70561 0
M  V30 5190 H 468.698 -2.01414 3.78326 0
M  V30 5191 H 472.882 -1.6327 4.68675 0
M  V30 5192 H 468.138 -1.13196 6.0083 0
M  V30 5193 H 472.312 -0.759074 6.92251 0
M  V30 5194 H 469.939 -0.503011 7.58534 0
M  V30 5195 N 471.514 -1.37532 -0.769588 0
M  V30 5196 C 472.444 -1.36172 -1.89682 0
M  V30 5197 C 473.425 -0.23001 -1.68538 0
M  V30 5198 O 474.61 -0.43069 -1.89364 0
M  V30 5199 C 471.74 -1.1701 -3.26995 0
M  V30 5200 C 470.694 -2.27216 -3.62708 0
M  V30 5201 C 470.02 -1.93174 -4.98586 0
M  V30 5202 C 471.32 -3.6941 -3.69234 0
M  V30 5203 H 473.014 -2.30499 -1.91078 0
M  V30 5204 H 470.56 -1.10953 -0.917902 0
M  V30 5205 H 472.513 -1.14688 -4.05493 0
M  V30 5206 H 471.237 -0.191395 -3.26039 0
M  V30 5207 H 469.896 -2.28697 -2.86519 0
M  V30 5208 H 469.544 -0.938281 -4.94171 0
M  V30 5209 H 469.244 -2.66973 -5.23449 0
M  V30 5210 H 470.768 -1.92443 -5.79481 0
M  V30 5211 H 472.182 -3.70047 -4.37879 0
M  V30 5212 H 470.579 -4.4228 -4.05597 0
M  V30 5213 H 471.649 -4.0288 -2.69844 0
M  V30 5214 N 472.992 0.995999 -1.22138 0
M  V30 5215 C 473.922 2.10387 -1.01289 0
M  V30 5216 C 474.903 1.69975 0.0651454 0
M  V30 5217 O 476.088 1.9396 -0.0964628 0
M  V30 5218 C 473.218 3.42312 -0.586517 0
M  V30 5219 C 472.172 3.96558 -1.61014 0
M  V30 5220 C 471.498 5.24494 -1.0397 0
M  V30 5221 C 472.798 4.27595 -2.99933 0
M  V30 5222 H 474.492 2.28086 -1.93951 0
M  V30 5223 H 472.038 1.09607 -0.933928 0
M  V30 5224 H 473.991 4.19223 -0.427793 0
M  V30 5225 H 472.715 3.24431 0.375761 0
M  V30 5226 H 471.374 3.21776 -1.75658 0
M  V30 5227 H 471.022 5.02953 -0.0688703 0
M  V30 5228 H 470.722 5.61755 -1.72352 0
M  V30 5229 H 472.246 6.04042 -0.892494 0
M  V30 5230 H 473.66 4.95315 -2.8868 0
M  V30 5231 H 472.057 4.76021 -3.6541 0
M  V30 5232 H 473.127 3.35498 -3.50099 0
M  V30 5233 N 474.47 1.03057 1.19235 0
M  V30 5234 C 475.42 0.583386 2.2041 0
M  V30 5235 C 476.404 -0.368776 1.56617 0
M  V30 5236 O 477.596 -0.189471 1.75983 0
M  V30 5237 C 474.725 -0.0626534 3.43243 0
M  V30 5238 C 473.811 0.91205 4.14177 0
M  V30 5239 N 474.202 2.07514 4.61272 0
M  V30 5240 C 472.5 0.735859 4.39888 0
M  V30 5241 C 473.201 2.69003 5.15764 0
M  V30 5242 N 472.177 1.96954 5.06666 0
M  V30 5243 H 475.979 1.46988 2.54503 0
M  V30 5244 H 473.493 0.897785 1.35328 0
M  V30 5245 H 475.49 -0.400653 4.1497 0
M  V30 5246 H 474.15 -0.944813 3.1065 0
M  V30 5247 H 475.161 2.45448 4.56043 0
M  V30 5248 H 471.838 -0.0970656 4.17387 0
M  V30 5249 H 473.228 3.67514 5.6248 0
M  V30 5250 N 475.948 -1.35272 0.808662 0
M  V30 5251 C 476.878 -2.32315 0.234981 0
M  V30 5252 C 477.859 -1.57572 -0.64071 0
M  V30 5253 O 479.044 -1.8563 -0.570551 0
M  V30 5254 C 476.174 -3.41801 -0.615601 0
M  V30 5255 C 475.128 -4.27694 0.161767 0
M  V30 5256 C 474.454 -5.28519 -0.810649 0
M  V30 5257 C 475.754 -5.04231 1.36193 0
M  V30 5258 H 477.448 -2.80543 1.04575 0
M  V30 5259 H 474.994 -1.3488 0.504315 0
M  V30 5260 H 476.947 -4.08693 -1.02702 0
M  V30 5261 H 475.671 -2.92186 -1.45928 0
M  V30 5262 H 474.33 -3.62384 0.554382 0
M  V30 5263 H 473.978 -4.75171 -1.64988 0
M  V30 5264 H 473.678 -5.8686 -0.294822 0
M  V30 5265 H 475.202 -5.98283 -1.22023 0
M  V30 5266 H 476.616 -5.64058 1.02528 0
M  V30 5267 H 475.013 -5.72077 1.81239 0
M  V30 5268 H 476.083 -4.34753 2.14751 0
M  V30 5269 N 477.426 -0.562348 -1.47226 0
M  V30 5270 C 478.674 -0.0401371 -2.0206 0
M  V30 5271 C 478.995 1.3165 -1.43852 0
M  V30 5272 O 478.265 1.85976 -0.615599 0
M  V30 5273 H 476.845 -0.0118479 -0.746906 0
M  V30 5274 H 479.507 -0.73352 -1.8057 0
M  V30 5275 H 478.603 0.0441254 -3.12069 0
M  V30 5276 N 478.904 1.54736 -0.299062 0
M  V30 5277 C 479.814 2.27127 0.587413 0
M  V30 5278 C 480.83 1.30575 1.15005 0
M  V30 5279 O 482.006 1.63554 1.17525 0
M  V30 5280 C 479.071 2.99645 1.74395 0
M  V30 5281 C 478.132 4.11731 1.21559 0
M  V30 5282 C 477.365 4.80781 2.317 0
M  V30 5283 O 477.588 4.4918 3.51558 0
M  V30 5284 O 476.522 5.68226 1.98501 0
M  V30 5285 H 480.348 3.037 0.000250109 0
M  V30 5286 H 477.933 1.49256 -0.0655919 0
M  V30 5287 H 479.815 3.45138 2.4178 0
M  V30 5288 H 478.49 2.25969 2.31775 0
M  V30 5289 H 477.397 3.70641 0.507514 0
M  V30 5290 H 478.73 4.87379 0.687233 0
M  V30 5291 N 480.382 0.0267497 1.57577 0
M  V30 5292 C 481.329 -0.955894 2.10075 0
M  V30 5293 C 482.299 -1.32453 1.00226 0
M  V30 5294 O 483.484 -1.41826 1.27632 0
M  V30 5295 C 480.624 -2.2338 2.6305 0
M  V30 5296 C 479.737 -1.92183 3.86898 0
M  V30 5297 C 478.872 -3.14251 4.28275 0
M  V30 5298 C 477.911 -2.78862 5.44888 0
M  V30 5299 N 477.048 -3.93548 5.81433 0
M  V30 5300 H 481.888 -0.501303 2.93753 0
M  V30 5301 H 479.425 -0.235847 1.45197 0
M  V30 5302 H 481.383 -2.98124 2.91853 0
M  V30 5303 H 480.013 -2.6646 1.82205 0
M  V30 5304 H 479.065 -1.07692 3.64838 0
M  V30 5305 H 480.377 -1.62117 4.7172 0
M  V30 5306 H 479.531 -3.97317 4.58502 0
M  V30 5307 H 478.27 -3.47476 3.42215 0
M  V30 5308 H 477.275 -1.94208 5.14357 0
M  V30 5309 H 478.5 -2.46855 6.32645 0
M  V30 5310 H 476.446 -4.2662 4.98328 0
M  V30 5311 H 476.363 -3.67098 6.6089 0
M  V30 5312 H 477.631 -4.77325 6.16264 0
M  V30 5313 N 481.861 -1.55662 -0.24637 0
M  V30 5314 C 483.272 -1.67953 -0.81539 0
M  V30 5315 C 483.623 -0.624302 -1.86002 0
M  V30 5316 O 482.748 0.229328 -2.15181 0
M  V30 5317 C 483.343 -3.04484 -1.48576 0
M  V30 5318 C 481.902 -3.18713 -2.00248 0
M  V30 5319 C 481.049 -2.6383 -0.853766 0
M  V30 5320 H 484 -1.58685 -0.0221692 0
M  V30 5321 H 484.021 -2.98959 -2.3538 0
M  V30 5322 H 483.533 -3.81264 -0.725222 0
M  V30 5323 H 481.634 -2.46757 -2.79181 0
M  V30 5324 H 481.747 -4.25628 -2.1995 0
M  V30 5325 H 480.111 -2.21667 -1.25442 0
M  V30 5326 H 480.894 -3.43135 -0.106302 0
M  V30 5327 N 483.339 0.512053 -1.4905 0
M  V30 5328 C 484.289 1.61142 -1.61298 0
M  V30 5329 C 485.273 1.53908 -0.46916 0
M  V30 5330 O 486.465 1.61625 -0.721547 0
M  V30 5331 C 483.594 2.998 -1.67256 0
M  V30 5332 C 482.68 3.12072 -2.87179 0
M  V30 5333 N 483.071 2.94263 -4.11391 0
M  V30 5334 C 481.369 3.43156 -2.84886 0
M  V30 5335 C 482.07 3.10426 -4.91946 0
M  V30 5336 N 481.046 3.38808 -4.251 0
M  V30 5337 H 484.848 1.46011 -2.55065 0
M  V30 5338 H 482.362 0.717934 -1.45669 0
M  V30 5339 H 484.359 3.78794 -1.74128 0
M  V30 5340 H 483.019 3.1601 -0.746195 0
M  V30 5341 H 484.03 2.70661 -4.41546 0
M  V30 5342 H 480.707 3.65611 -2.01581 0
M  V30 5343 H 482.097 3.01243 -6.00585 0
M  V30 5344 N 484.817 1.37938 0.762283 0
M  V30 5345 C 485.747 1.37176 1.88958 0
M  V30 5346 C 486.728 0.238945 1.68413 0
M  V30 5347 O 487.913 0.440726 1.89133 0
M  V30 5348 C 485.043 1.18742 3.2637 0
M  V30 5349 C 483.997 2.29136 3.61498 0
M  V30 5350 C 483.323 1.95816 4.97554 0
M  V30 5351 C 484.623 3.71363 3.6727 0
M  V30 5352 H 486.317 2.31509 1.89853 0
M  V30 5353 H 483.863 1.11438 0.912005 0
M  V30 5354 H 485.816 1.16837 4.04879 0
M  V30 5355 H 484.54 0.208683 3.25933 0
M  V30 5356 H 483.199 2.30213 2.85303 0
M  V30 5357 H 482.847 0.964475 4.93667 0
M  V30 5358 H 482.547 2.69745 5.22026 0
M  V30 5359 H 484.071 1.95513 5.78452 0
M  V30 5360 H 485.485 3.72364 4.35911 0
M  V30 5361 H 483.882 4.44425 4.03245 0
M  V30 5362 H 484.952 4.04305 2.67704 0
M  V30 5363 N 486.295 -0.989507 1.22664 0
M  V30 5364 C 487.227 -2.0824 0.957542 0
M  V30 5365 C 488.24 -1.6267 -0.0651098 0
M  V30 5366 O 489.429 -1.77695 0.169312 0
M  V30 5367 C 486.529 -3.36298 0.419145 0
M  V30 5368 C 485.702 -4.10882 1.49982 0
M  V30 5369 C 484.761 -5.17221 0.967904 0
M  V30 5370 O 483.787 -5.44613 1.65487 0
M  V30 5371 N 484.989 -5.80124 -0.20896 0
M  V30 5372 H 487.754 -2.31904 1.89843 0
M  V30 5373 H 485.315 -1.15552 1.13399 0
M  V30 5374 H 487.307 -4.04671 0.0485451 0
M  V30 5375 H 485.877 -3.09671 -0.426937 0
M  V30 5376 H 485.097 -3.37092 2.04359 0
M  V30 5377 H 486.385 -4.57482 2.22682 0
M  V30 5378 H 485.783 -5.60244 -0.783818 0
M  V30 5379 H 484.34 -6.49715 -0.520913 0
M  V30 5380 N 487.773 -1.03688 -1.18687 0
M  V30 5381 C 489.05 -0.652397 -1.84399 0
M  V30 5382 C 489.43 0.868386 -1.92412 0
M  V30 5383 O 488.778 1.76832 -1.44716 0
M  V30 5384 C 488.988 -1.3238 -3.22919 0
M  V30 5385 C 490.336 -1.45216 -3.98996 0
M  V30 5386 O 491.36 -1.2816 -3.32345 0
M  V30 5387 O 490.219 -1.72975 -5.18403 0
M  V30 5388 H 487.313 -0.227793 -0.795009 0
M  V30 5389 H 489.859 -1.13553 -1.2611 0
M  V30 5390 H 488.631 -2.36202 -3.11968 0
M  V30 5391 H 488.254 -0.829039 -3.88861 0
M  V30 5392 N 489.251 1.34841 -0.815825 0
M  V30 5393 C 490.497 1.98793 -0.401129 0
M  V30 5394 C 490.83 1.64548 1.03139 0
M  V30 5395 O 490.105 0.913487 1.71714 0
M  V30 5396 C 490.388 3.55143 -0.595409 0
M  V30 5397 C 490.241 3.99155 -2.07352 0
M  V30 5398 C 491.56 4.40092 -0.0268823 0
M  V30 5399 H 488.679 0.722146 -0.14722 0
M  V30 5400 H 491.321 1.59847 -1.02707 0
M  V30 5401 H 489.471 3.8845 -0.0625779 0
M  V30 5402 H 491.143 3.76216 -2.66945 0
M  V30 5403 H 489.386 3.49726 -2.56659 0
M  V30 5404 H 490.057 5.07971 -2.1603 0
M  V30 5405 H 492.533 4.13298 -0.482042 0
M  V30 5406 H 491.409 5.48562 -0.19267 0
M  V30 5407 H 491.67 4.29016 1.06759 0
M  V30 5408 N 490.729 0.570148 1.46925 0
M  V30 5409 C 491.978 0.0487352 2.01641 0
M  V30 5410 C 492.291 -1.31433 1.44861 0
M  V30 5411 O 493.497 -1.92638 1.91318 0
M  V30 5412 C 491.953 0.0365817 3.59881 0
M  V30 5413 C 491.561 1.39719 4.25655 0
M  V30 5414 C 493.305 -0.431545 4.22301 0
M  V30 5415 C 491.212 1.34345 5.75939 0
M  V30 5416 H 490.142 0.0144492 0.753862 0
M  V30 5417 H 492.793 0.719928 1.68788 0
M  V30 5418 H 491.175 -0.700522 3.89755 0
M  V30 5419 H 492.349 2.15303 4.07408 0
M  V30 5420 H 490.664 1.80431 3.75278 0
M  V30 5421 H 493.261 -0.490354 5.32447 0
M  V30 5422 H 493.604 -1.44638 3.90366 0
M  V30 5423 H 494.137 0.251102 3.97007 0
M  V30 5424 H 490.876 2.33469 6.12513 0
M  V30 5425 H 490.396 0.629615 5.96486 0
M  V30 5426 H 492.075 1.051 6.38407 0
M  V30 5427 N 492.207 -1.54576 0.307264 0
M  V30 5428 C 493.437 -2.04378 -0.302158 0
M  V30 5429 C 493.845 -1.18381 -1.47589 0
M  V30 5430 O 493.188 -0.20352 -1.82569 0
M  V30 5431 C 493.25 -3.50133 -0.815305 0
M  V30 5432 C 492.914 -4.56401 0.233977 0
M  V30 5433 C 493.911 -5.08884 1.06456 0
M  V30 5434 C 491.596 -5.0088 0.377478 0
M  V30 5435 C 493.59 -6.04394 2.02452 0
M  V30 5436 C 491.277 -5.96208 1.34088 0
M  V30 5437 C 492.275 -6.47849 2.16288 0
M  V30 5438 O 491.963 -7.41308 3.10994 0
M  V30 5439 H 491.695 -0.672502 -0.0686839 0
M  V30 5440 H 494.249 -2.00484 0.446682 0
M  V30 5441 H 492.479 -3.51371 -1.61478 0
M  V30 5442 H 494.168 -3.83098 -1.34129 0
M  V30 5443 H 494.934 -4.75311 0.964596 0
M  V30 5444 H 490.813 -4.60309 -0.252405 0
M  V30 5445 H 494.357 -6.44626 2.66652 0
M  V30 5446 H 490.254 -6.29198 1.44154 0
M  V30 5447 H 491.022 -7.5913 3.06045 0
M  V30 5448 N 493.685 -0.035106 -1.57561 0
M  V30 5449 C 494.617 0.973604 -2.07494 0
M  V30 5450 C 495.63 1.28504 -0.999534 0
M  V30 5451 O 496.819 1.24864 -1.27559 0
M  V30 5452 C 493.919 2.29945 -2.48955 0
M  V30 5453 C 493.092 2.1723 -3.79644 0
M  V30 5454 C 492.151 3.328 -4.07592 0
M  V30 5455 O 491.177 3.09418 -4.77754 0
M  V30 5456 N 492.379 4.56779 -3.58236 0
M  V30 5457 H 495.144 0.547525 -2.94656 0
M  V30 5458 H 492.705 0.151515 -1.61189 0
M  V30 5459 H 494.697 3.06097 -2.64739 0
M  V30 5460 H 493.267 2.64173 -1.67126 0
M  V30 5461 H 492.487 1.25768 -3.73599 0
M  V30 5462 H 493.775 2.05945 -4.65257 0
M  V30 5463 H 493.173 4.78668 -3.01485 0
M  V30 5464 H 491.73 5.30079 -3.79288 0
M  V30 5465 N 495.163 1.55791 0.238111 0
M  V30 5466 C 496.073 1.94196 1.31625 0
M  V30 5467 C 497.089 0.843545 1.52185 0
M  V30 5468 O 498.265 1.1457 1.65637 0
M  V30 5469 C 495.33 2.2365 2.64918 0
M  V30 5470 C 494.391 3.46971 2.52804 0
M  V30 5471 C 493.624 3.7501 3.79741 0
M  V30 5472 O 493.847 3.04982 4.82019 0
M  V30 5473 O 492.781 4.68525 3.77846 0
M  V30 5474 H 496.607 2.86044 1.02043 0
M  V30 5475 H 494.192 1.42786 0.439603 0
M  V30 5476 H 496.074 2.43863 3.4367 0
M  V30 5477 H 494.749 1.34979 2.94215 0
M  V30 5478 H 493.656 3.32055 1.72309 0
M  V30 5479 H 494.989 4.35971 2.28451 0
M  V30 5480 N 496.642 -0.504142 1.49319 0
M  V30 5481 C 497.888 -1.26033 1.58882 0
M  V30 5482 C 498.221 -1.92268 0.273274 0
M  V30 5483 O 497.496 -1.80567 -0.72291 0
M  V30 5484 C 497.779 -2.32976 2.7458 0
M  V30 5485 C 497.632 -1.71263 4.1592 0
M  V30 5486 C 498.951 -3.34561 2.85932 0
M  V30 5487 H 496.07 -0.456863 0.578312 0
M  V30 5488 H 498.712 -0.558965 1.81592 0
M  V30 5489 H 496.862 -2.92796 2.55348 0
M  V30 5490 H 498.534 -1.15294 4.4666 0
M  V30 5491 H 496.777 -1.01686 4.21714 0
M  V30 5492 H 497.448 -2.48816 4.92742 0
M  V30 5493 H 499.924 -2.84727 3.0343 0
M  V30 5494 H 498.8 -4.06754 3.68568 0
M  V30 5495 H 499.061 -3.96695 1.95154 0
M  V30 5496 N 498.12 -1.38341 -0.754957 0
M  V30 5497 C 499.366 -1.34672 -1.51628 0
M  V30 5498 C 499.699 0.0636036 -1.94096 0
M  V30 5499 O 498.974 1.0245 -1.6533 0
M  V30 5500 C 499.257 -2.30116 -2.76981 0
M  V30 5501 C 499.11 -3.80003 -2.4066 0
M  V30 5502 C 500.429 -2.23715 -3.78998 0
M  V30 5503 H 497.548 -0.490517 -0.550056 0
M  V30 5504 H 500.19 -1.69178 -0.864807 0
M  V30 5505 H 498.34 -2.00821 -3.3257 0
M  V30 5506 H 500.012 -4.19966 -1.90856 0
M  V30 5507 H 498.255 -3.97751 -1.73137 0
M  V30 5508 H 498.926 -4.42244 -3.30339 0
M  V30 5509 H 501.402 -2.49574 -3.32945 0
M  V30 5510 H 500.278 -2.9261 -4.64403 0
M  V30 5511 H 500.539 -1.23554 -4.24484 0
M  V30 5512 N 499.598 0.982988 -1.23187 0
M  V30 5513 C 500.508 2.10907 -1.02739 0
M  V30 5514 C 501.524 1.73979 0.0273188 0
M  V30 5515 O 502.7 2.00702 -0.16757 0
M  V30 5516 C 499.765 3.41142 -0.618304 0
M  V30 5517 C 498.826 3.92112 -1.74777 0
M  V30 5518 C 498.059 5.16131 -1.3581 0
M  V30 5519 O 498.282 5.6989 -0.241201 0
M  V30 5520 O 497.216 5.61103 -2.17824 0
M  V30 5521 H 501.042 2.31046 -1.97108 0
M  V30 5522 H 498.627 1.09284 -1.01869 0
M  V30 5523 H 500.509 4.19488 -0.400982 0
M  V30 5524 H 499.184 3.2234 0.296421 0
M  V30 5525 H 498.091 3.14895 -2.0197 0
M  V30 5526 H 499.424 4.15364 -2.64071 0
M  V30 5527 N 501.076 1.04316 1.18135 0
M  V30 5528 C 502.006 0.657299 2.24058 0
M  V30 5529 C 502.987 -0.340678 1.66654 0
M  V30 5530 O 504.172 -0.220223 1.92947 0
M  V30 5531 C 501.302 0.0220715 3.47293 0
M  V30 5532 C 500.256 0.943857 4.17463 0
M  V30 5533 C 499.582 0.172973 5.3442 0
M  V30 5534 C 500.882 2.26409 4.70677 0
M  V30 5535 H 502.576 1.5428 2.56589 0
M  V30 5536 H 500.122 0.743263 1.23335 0
M  V30 5537 H 502.075 -0.259607 4.206 0
M  V30 5538 H 500.799 -0.898323 3.14003 0
M  V30 5539 H 499.458 1.20996 3.46057 0
M  V30 5540 H 499.106 -0.749907 4.97379 0
M  V30 5541 H 498.806 0.787098 5.82304 0
M  V30 5542 H 500.33 -0.101628 6.10515 0
M  V30 5543 H 501.744 2.04294 5.35665 0
M  V30 5544 H 500.141 2.8314 5.29105 0
M  V30 5545 H 501.211 2.90883 3.87962 0
M  V30 5546 N 502.554 -1.34406 0.822964 0
M  V30 5547 C 503.484 -2.32052 0.259608 0
M  V30 5548 C 504.465 -1.58243 -0.623961 0
M  V30 5549 O 505.65 -1.86224 -0.55083 0
M  V30 5550 C 502.78 -3.42434 -0.579314 0
M  V30 5551 C 501.734 -4.27499 0.20712 0
M  V30 5552 C 501.06 -5.29349 -0.754547 0
M  V30 5553 C 502.36 -5.02758 1.41533 0
M  V30 5554 H 504.054 -2.79418 1.07545 0
M  V30 5555 H 501.6 -1.34338 0.518593 0
M  V30 5556 H 503.553 -4.0976 -0.983612 0
M  V30 5557 H 502.277 -2.93717 -1.4282 0
M  V30 5558 H 500.936 -3.61776 0.592787 0
M  V30 5559 H 500.584 -4.76895 -1.59939 0
M  V30 5560 H 500.284 -5.8714 -0.232561 0
M  V30 5561 H 501.808 -5.99544 -1.1567 0
M  V30 5562 H 503.222 -5.62938 1.08504 0
M  V30 5563 H 501.619 -5.70123 1.87296 0
M  V30 5564 H 502.689 -4.32451 2.1935 0
M  V30 5565 N 504.032 -0.577932 -1.46621 0
M  V30 5566 C 504.979 0.158048 -2.30258 0
M  V30 5567 C 505.949 0.888669 -1.40328 0
M  V30 5568 O 507.134 0.880283 -1.6928 0
M  V30 5569 C 504.274 1.16884 -3.24703 0
M  V30 5570 C 503.387 0.442163 -4.29731 0
M  V30 5571 C 502.522 1.44007 -5.11308 0
M  V30 5572 C 501.561 0.69952 -6.0809 0
M  V30 5573 N 500.698 1.64525 -6.82551 0
M  V30 5574 H 505.538 -0.561242 -2.92667 0
M  V30 5575 H 503.075 -0.288591 -1.44241 0
M  V30 5576 H 505.033 1.7677 -3.779 0
M  V30 5577 H 503.663 1.85591 -2.64113 0
M  V30 5578 H 502.715 -0.271632 -3.79429 0
M  V30 5579 H 504.027 -0.136992 -4.98612 0
M  V30 5580 H 503.181 2.11186 -5.68758 0
M  V30 5581 H 501.92 2.05315 -4.42377 0
M  V30 5582 H 500.925 0.0139217 -5.49798 0
M  V30 5583 H 502.15 0.091894 -6.79038 0
M  V30 5584 H 500.096 2.24653 -6.16334 0
M  V30 5585 H 500.013 1.11878 -7.47676 0
M  V30 5586 H 501.281 2.30754 -7.44562 0
M  V30 5587 N 505.51 1.54411 -0.315457 0
M  V30 5588 C 506.42 2.27737 0.56329 0
M  V30 5589 C 507.436 1.31787 1.13614 0
M  V30 5590 O 508.612 1.64791 1.15784 0
M  V30 5591 C 505.677 3.01478 1.71207 0
M  V30 5592 C 504.738 4.12997 1.17185 0
M  V30 5593 C 503.971 4.83212 2.26588 0
M  V30 5594 O 504.194 4.52884 3.46775 0
M  V30 5595 O 503.128 5.70299 1.92463 0
M  V30 5596 H 506.954 3.03683 -0.0319614 0
M  V30 5597 H 504.539 1.49178 -0.0814188 0
M  V30 5598 H 506.421 3.47683 2.38106 0
M  V30 5599 H 505.096 2.28414 2.29366 0
M  V30 5600 H 504.003 3.71159 0.468174 0
M  V30 5601 H 505.336 4.8808 0.635501 0
M  V30 5602 N 506.988 0.0434614 1.5754 0
M  V30 5603 C 507.935 -0.93356 2.11077 0
M  V30 5604 C 508.905 -1.31383 1.01626 0
M  V30 5605 O 510.09 -1.40465 1.29129 0
M  V30 5606 C 507.23 -2.20578 2.65404 0
M  V30 5607 C 506.343 -1.88068 3.88914 0
M  V30 5608 C 505.478 -3.09691 4.31584 0
M  V30 5609 C 504.517 -2.73067 5.47815 0
M  V30 5610 N 503.654 -3.87359 5.85574 0
M  V30 5611 H 508.494 -0.470118 2.94268 0
M  V30 5612 H 506.031 -0.220434 1.45439 0
M  V30 5613 H 507.989 -2.95011 2.94999 0
M  V30 5614 H 506.619 -2.64513 1.85021 0
M  V30 5615 H 505.671 -1.03816 3.6596 0
M  V30 5616 H 506.983 -1.57104 4.73413 0
M  V30 5617 H 506.137 -3.92431 4.62691 0
M  V30 5618 H 504.876 -3.43827 3.45882 0
M  V30 5619 H 503.881 -1.88742 5.16388 0
M  V30 5620 H 505.106 -2.40131 6.35227 0
M  V30 5621 H 503.052 -4.21311 5.02825 0
M  V30 5622 H 502.969 -3.60068 6.64746 0
M  V30 5623 H 504.237 -4.70761 6.21292 0
M  V30 5624 N 508.466 -1.55915 -0.229846 0
M  V30 5625 C 509.714 -1.7819 -0.953565 0
M  V30 5626 C 510.035 -0.610504 -1.85197 0
M  V30 5627 O 509.305 0.372988 -1.92316 0
M  V30 5628 H 507.885 -0.657208 -0.355087 0
M  V30 5629 H 510.547 -1.9337 -0.243693 0
M  V30 5630 H 509.643 -2.70011 -1.56527 0
M  V30 5631 N 509.944 0.496216 -1.49584 0
M  V30 5632 C 511.192 1.24756 -1.58998 0
M  V30 5633 C 511.513 1.92968 -0.280775 0
M  V30 5634 O 510.783 1.82959 0.700198 0
M  V30 5635 H 509.363 0.463471 -0.585836 0
M  V30 5636 H 512.025 0.574678 -1.86235 0
M  V30 5637 H 511.121 2.00895 -2.38847 0
M  V30 5638 N 511.423 1.38739 0.74761 0
M  V30 5639 C 512.7 1.25791 1.49786 0
M  V30 5640 C 513.08 -0.138075 2.10648 0
M  V30 5641 O 512.428 -1.14815 1.9756 0
M  V30 5642 C 512.638 2.37265 2.55942 0
M  V30 5643 C 513.986 2.75978 3.22679 0
M  V30 5644 O 515.01 2.36621 2.6625 0
M  V30 5645 O 513.869 3.43867 4.24756 0
M  V30 5646 H 510.963 0.492251 0.664543 0
M  V30 5647 H 513.509 1.50582 0.782511 0
M  V30 5648 H 512.281 3.30644 2.0926 0
M  V30 5649 H 511.904 2.14071 3.35051 0
M  V30 5650 N 512.901 -0.976442 1.23707 0
M  V30 5651 C 513.831 -2.08749 1.04624 0
M  V30 5652 C 514.812 -1.70057 -0.0380956 0
M  V30 5653 O 515.997 -1.93782 0.127308 0
M  V30 5654 C 513.127 -3.41335 0.640902 0
M  V30 5655 C 512.081 -3.93947 1.67302 0
M  V30 5656 C 511.407 -5.22774 1.12301 0
M  V30 5657 C 512.707 -4.22769 3.06697 0
M  V30 5658 H 514.401 -2.24972 1.97555 0
M  V30 5659 H 511.947 -1.08108 0.951247 0
M  V30 5660 H 513.9 -4.18489 0.494434 0
M  V30 5661 H 512.624 -3.24988 -0.324099 0
M  V30 5662 H 511.283 -3.18941 1.80755 0
M  V30 5663 H 510.931 -5.0278 0.148877 0
M  V30 5664 H 510.631 -5.58942 1.81267 0
M  V30 5665 H 512.155 -6.02546 0.988479 0
M  V30 5666 H 513.569 -4.90659 2.96524 0
M  V30 5667 H 511.966 -4.70147 3.72937 0
M  V30 5668 H 513.036 -3.29885 3.55392 0
M  V30 5669 N 514.379 -1.04941 -1.1758 0
M  V30 5670 C 515.327 -0.64204 -2.23563 0
M  V30 5671 C 516.321 0.335453 -1.66045 0
M  V30 5672 O 517.527 0.20179 -1.78865 0
M  V30 5673 H 513.902 -0.18944 -0.727748 0
M  V30 5674 H 515.873 -1.54609 -2.55223 0
M  V30 5675 C 514.622 -0.0301051 -3.47687 0
M  V30 5676 H 513.945 -0.773339 -3.92249 0
M  V30 5677 H 515.385 0.217592 -4.23441 0
M  V30 5678 C 513.844 1.2225 -3.13937 0
M  V30 5679 O 514.374 2.3122 -3.28482 0
M  V30 5680 N 512.58 1.11917 -2.68185 0
M  V30 5681 H 512.127 0.232403 -2.5655 0
M  V30 5682 H 512.085 1.95814 -2.45976 0
M  V30 5683 N 515.857 1.33968 -0.830081 0
M  V30 5684 C 517.134 1.92554 -0.343858 0
M  V30 5685 C 517.514 1.7573 1.16971 0
M  V30 5686 O 516.862 1.14035 1.98011 0
M  V30 5687 C 517.072 3.40147 -0.781073 0
M  V30 5688 C 518.42 4.17299 -0.78402 0
M  V30 5689 O 519.444 3.48762 -0.724112 0
M  V30 5690 O 518.303 5.39631 -0.863739 0
M  V30 5691 H 515.397 0.821469 -0.0954827 0
M  V30 5692 H 517.943 1.42897 -0.915348 0
M  V30 5693 H 516.715 3.46225 -1.82329 0
M  V30 5694 H 516.338 3.97166 -0.18567 0
M  V30 5695 N 517.335 0.585699 1.46312 0
M  V30 5696 C 518.265 -0.133556 2.33118 0
M  V30 5697 C 519.246 -0.880707 1.45525 0
M  V30 5698 O 520.431 -0.855579 1.74337 0
M  V30 5699 C 517.561 -1.14585 3.27853 0
M  V30 5700 C 516.515 -0.513341 4.2491 0
M  V30 5701 C 515.841 -1.63231 5.09175 0
M  V30 5702 C 517.141 0.551413 5.19381 0
M  V30 5703 H 518.835 0.59121 2.93505 0
M  V30 5704 H 516.381 0.285761 1.41136 0
M  V30 5705 H 518.334 -1.65741 3.87438 0
M  V30 5706 H 517.058 -1.90093 2.65579 0
M  V30 5707 H 515.717 -0.0228349 3.66593 0
M  V30 5708 H 515.365 -2.37713 4.43285 0
M  V30 5709 H 515.065 -1.21473 5.74907 0
M  V30 5710 H 516.589 -2.14658 5.71624 0
M  V30 5711 H 518.003 0.124804 5.73164 0
M  V30 5712 H 516.4 0.889486 5.93471 0
M  V30 5713 H 517.47 1.43655 4.63132 0
M  V30 5714 N 518.813 -1.54241 0.323641 0
M  V30 5715 C 520.041 -2.04985 -0.280871 0
M  V30 5716 C 520.456 -1.19978 -1.45777 0
M  V30 5717 O 519.813 -0.230471 -1.81039 0
M  V30 5718 C 519.864 -3.54353 -0.715258 0
M  V30 5719 O 519.585 -4.36132 0.414817 0
M  V30 5720 C 521.086 -4.21189 -1.38257 0
M  V30 5721 H 518.306 -0.66851 -0.0577502 0
M  V30 5722 H 520.85 -1.99029 0.469852 0
M  V30 5723 H 519.005 -3.60596 -1.41596 0
M  V30 5724 H 519.419 -5.2445 0.0725227 0
M  V30 5725 H 520.893 -5.27154 -1.63745 0
M  V30 5726 H 521.37 -3.72307 -2.32989 0
M  V30 5727 H 521.976 -4.19085 -0.724447 0
M  V30 5728 N 520.291 -0.0518155 -1.57515 0
M  V30 5729 C 521.521 0.63048 -1.96745 0
M  V30 5730 C 521.929 1.64875 -0.928054 0
M  V30 5731 O 521.272 1.83449 0.0960678 0
M  V30 5732 C 521.334 1.37381 -3.32215 0
M  V30 5733 C 520.998 0.511298 -4.54131 0
M  V30 5734 C 521.995 -0.222884 -5.19422 0
M  V30 5735 C 519.68 0.442035 -5.00351 0
M  V30 5736 C 521.674 -1.01476 -6.2927 0
M  V30 5737 C 519.361 -0.35353 -6.10077 0
M  V30 5738 C 520.359 -1.08062 -6.74397 0
M  V30 5739 O 520.047 -1.8631 -7.82013 0
M  V30 5740 H 519.779 0.177126 -0.652382 0
M  V30 5741 H 522.333 -0.114726 -2.05079 0
M  V30 5742 H 520.563 2.16466 -3.20436 0
M  V30 5743 H 522.252 1.9464 -3.56188 0
M  V30 5744 H 523.018 -0.178846 -4.8467 0
M  V30 5745 H 518.897 0.997562 -4.50077 0
M  V30 5746 H 522.441 -1.58279 -6.79407 0
M  V30 5747 H 518.338 -0.399205 -6.44264 0
M  V30 5748 H 519.106 -1.78528 -7.98793 0
M  V30 5749 N 521.769 1.56035 0.221574 0
M  V30 5750 C 522.679 1.95581 1.29558 0
M  V30 5751 C 523.695 0.859639 1.51282 0
M  V30 5752 O 524.871 1.16321 1.64413 0
M  V30 5753 C 521.936 2.26447 2.62531 0
M  V30 5754 C 520.997 3.49632 2.4911 0
M  V30 5755 C 520.23 3.79017 3.75742 0
M  V30 5756 O 520.453 3.10077 4.78757 0
M  V30 5757 O 519.387 4.72507 3.72855 0
M  V30 5758 H 523.213 2.8711 0.990035 0
M  V30 5759 H 520.798 1.43244 0.424434 0
M  V30 5760 H 522.68 2.47494 3.41064 0
M  V30 5761 H 521.355 1.38092 2.92766 0
M  V30 5762 H 520.262 3.33864 1.68777 0
M  V30 5763 H 521.595 4.3837 2.23814 0
M  V30 5764 N 523.247 -0.488276 1.49845 0
M  V30 5765 C 524.524 -1.24959 1.50481 0
M  V30 5766 C 524.904 -2.09735 0.239698 0
M  V30 5767 O 524.252 -2.14865 -0.777524 0
M  V30 5768 C 524.462 -2.0954 2.79095 0
M  V30 5769 C 525.81 -2.68305 3.29086 0
M  V30 5770 O 526.834 -2.19797 2.80299 0
M  V30 5771 O 525.693 -3.56643 4.14087 0
M  V30 5772 H 522.787 -0.566133 0.602845 0
M  V30 5773 H 525.333 -0.501504 1.6212 0
M  V30 5774 H 524.105 -1.46958 3.62656 0
M  V30 5775 H 523.728 -2.91517 2.70377 0
M  V30 5776 N 524.725 -1.39134 -0.740242 0
M  V30 5777 C 525.655 -1.40165 -1.86751 0
M  V30 5778 C 526.636 -0.265708 -1.68012 0
M  V30 5779 O 527.821 -0.47076 -1.88408 0
M  V30 5780 C 524.951 -1.2392 -3.2444 0
M  V30 5781 C 523.905 -2.34858 -3.57807 0
M  V30 5782 C 523.231 -2.03707 -4.94376 0
M  V30 5783 C 524.531 -3.77159 -3.61315 0
M  V30 5784 H 526.225 -2.345 -1.86145 0
M  V30 5785 H 523.771 -1.12875 -0.89416 0
M  V30 5786 H 525.724 -1.23263 -4.02969 0
M  V30 5787 H 524.448 -0.26051 -3.25559 0
M  V30 5788 H 523.107 -2.34723 -2.81604 0
M  V30 5789 H 522.755 -1.04289 -4.9207 0
M  V30 5790 H 522.455 -2.78016 -5.17669 0
M  V30 5791 H 523.979 -2.04691 -5.75268 0
M  V30 5792 H 525.393 -3.79252 -4.29931 0
M  V30 5793 H 523.79 -4.50784 -3.96124 0
M  V30 5794 H 524.86 -4.08513 -2.61238 0
M  V30 5795 N 526.204 0.969867 -1.24223 0
M  V30 5796 C 527.136 2.0669 -0.99055 0
M  V30 5797 C 528.149 1.62753 0.0392222 0
M  V30 5798 O 529.338 1.77403 -0.197561 0
M  V30 5799 C 526.438 3.35589 -0.472594 0
M  V30 5800 C 525.611 4.08444 -1.56499 0
M  V30 5801 C 524.67 5.15616 -1.05007 0
M  V30 5802 O 523.696 5.41911 -1.7413 0
M  V30 5803 N 524.898 5.80383 0.116641 0
M  V30 5804 H 527.663 2.28855 -1.93508 0
M  V30 5805 H 525.224 1.13733 -1.15223 0
M  V30 5806 H 527.216 4.04542 -0.112919 0
M  V30 5807 H 525.786 3.10311 0.377617 0
M  V30 5808 H 525.006 3.33798 -2.09696 0
M  V30 5809 H 526.294 4.53882 -2.29932 0
M  V30 5810 H 525.692 5.6142 0.694589 0
M  V30 5811 H 524.249 6.50462 0.417483 0
M  V30 5812 N 527.682 1.05563 1.17022 0
M  V30 5813 C 528.629 0.659893 2.21165 0
M  V30 5814 C 529.599 -0.339813 1.62587 0
M  V30 5815 O 530.784 -0.230378 1.89404 0
M  V30 5816 C 527.924 0.0447297 3.45071 0
M  V30 5817 C 527.037 1.09372 4.17926 0
M  V30 5818 C 526.172 0.445481 5.29329 0
M  V30 5819 C 525.211 1.47852 5.93975 0
M  V30 5820 N 524.348 0.854172 6.96885 0
M  V30 5821 H 529.188 1.55243 2.54369 0
M  V30 5822 H 526.725 0.776336 1.24946 0
M  V30 5823 H 528.683 -0.329404 4.15898 0
M  V30 5824 H 527.313 -0.811244 3.1244 0
M  V30 5825 H 526.365 1.58564 3.45777 0
M  V30 5826 H 527.677 1.87773 4.62107 0
M  V30 5827 H 526.831 0.0179688 6.06697 0
M  V30 5828 H 525.57 -0.370481 4.86291 0
M  V30 5829 H 524.575 1.91601 5.15334 0
M  V30 5830 H 525.8 2.29645 6.39093 0
M  V30 5831 H 523.746 0.0587882 6.55974 0
M  V30 5832 H 523.663 1.57567 7.39397 0
M  V30 5833 H 524.931 0.451559 7.78191 0
M  V30 5834 N 529.16 -1.33526 0.837174 0
M  V30 5835 C 530.09 -2.31764 0.284206 0
M  V30 5836 C 531.071 -1.58896 -0.607142 0
M  V30 5837 O 532.256 -1.86798 -0.531047 0
M  V30 5838 C 529.386 -3.43029 -0.542962 0
M  V30 5839 C 528.34 -4.27255 0.252451 0
M  V30 5840 C 527.666 -5.3012 -0.69836 0
M  V30 5841 C 528.966 -5.01229 1.46858 0
M  V30 5842 H 530.66 -2.78262 1.10502 0
M  V30 5843 H 528.206 -1.3378 0.532812 0
M  V30 5844 H 530.159 -4.1078 -0.940096 0
M  V30 5845 H 528.883 -2.95216 -1.39697 0
M  V30 5846 H 527.542 -3.61127 0.631124 0
M  V30 5847 H 527.19 -4.78564 -1.54872 0
M  V30 5848 H 526.89 -5.87353 -0.170274 0
M  V30 5849 H 528.414 -6.00737 -1.09305 0
M  V30 5850 H 529.828 -5.61756 1.14469 0
M  V30 5851 H 528.225 -5.68104 1.93333 0
M  V30 5852 H 529.295 -4.301 2.23924 0
M  V30 5853 N 530.638 -0.59345 -1.46 0
M  V30 5854 C 532.049 -0.169801 -1.85926 0
M  V30 5855 C 532.4 1.26984 -1.49565 0
M  V30 5856 O 531.525 1.96076 -0.915602 0
M  V30 5857 C 532.12 -0.301385 -3.37457 0
M  V30 5858 C 530.679 0.0674684 -3.7634 0
M  V30 5859 C 529.826 -0.632383 -2.69993 0
M  V30 5860 H 532.777 -0.801014 -1.37002 0
M  V30 5861 H 532.798 0.470331 -3.77582 0
M  V30 5862 H 532.31 -1.34927 -3.63891 0
M  V30 5863 H 530.411 1.11507 -3.55523 0
M  V30 5864 H 530.524 -0.316332 -4.78055 0
M  V30 5865 H 528.888 -0.0714961 -2.546 0
M  V30 5866 H 529.671 -1.68212 -2.99265 0
M  V30 5867 N 532.116 1.54067 -0.331816 0
M  V30 5868 C 533.341 2.05599 0.272705 0
M  V30 5869 C 533.766 1.2059 1.44359 0
M  V30 5870 O 533.124 0.216907 1.79998 0
M  V30 5871 C 533.172 3.54188 0.677021 0
M  V30 5872 O 532.276 3.72082 1.77844 0
M  V30 5873 H 531.617 0.662286 0.0476801 0
M  V30 5874 H 534.147 1.98826 -0.482624 0
M  V30 5875 H 534.157 3.96608 0.957415 0
M  V30 5876 H 532.832 4.15513 -0.179325 0
M  V30 5877 H 531.409 3.41566 1.49622 0
M  V30 5878 N 533.594 0.0601682 1.57485 0
M  V30 5879 C 534.84 -0.612501 1.93329 0
M  V30 5880 C 535.173 -1.6996 0.939526 0
M  V30 5881 O 534.448 -1.94472 -0.0330957 0
M  V30 5882 C 534.731 -1.20025 3.39508 0
M  V30 5883 C 534.584 -0.12059 4.49638 0
M  V30 5884 C 535.903 -2.10923 3.86264 0
M  V30 5885 H 533.022 -0.221185 0.703027 0
M  V30 5886 H 535.664 0.123768 1.89596 0
M  V30 5887 H 533.814 -1.82774 3.42821 0
M  V30 5888 H 535.486 0.51185 4.58452 0
M  V30 5889 H 533.729 0.550251 4.30296 0
M  V30 5890 H 534.4 -0.572019 5.49028 0
M  V30 5891 H 536.876 -1.58124 3.84884 0
M  V30 5892 H 535.752 -2.48987 4.8918 0
M  V30 5893 H 536.013 -3.01292 3.23536 0
M  V30 5894 N 535.072 -1.5615 -0.213296 0
M  V30 5895 C 536.02 -1.93953 -1.28394 0
M  V30 5896 C 537.014 -0.822592 -1.48087 0
M  V30 5897 O 538.22 -1.00748 -1.49164 0
M  V30 5898 H 534.595 -0.61648 -0.430646 0
M  V30 5899 H 536.566 -2.83275 -0.937977 0
M  V30 5900 C 535.315 -2.27969 -2.62537 0
M  V30 5901 H 534.638 -3.13432 -2.48194 0
M  V30 5902 H 536.078 -2.58297 -3.36242 0
M  V30 5903 C 534.537 -1.10775 -3.18167 0
M  V30 5904 O 535.067 -0.373201 -3.99963 0
M  V30 5905 N 533.273 -0.889377 -2.76656 0
M  V30 5906 H 532.82 -1.48843 -2.10246 0
M  V30 5907 H 532.778 -0.107 -3.14218 0
M  V30 5908 N 536.55 0.480323 -1.50102 0
M  V30 5909 C 537.498 1.60024 -1.68805 0
M  V30 5910 C 538.492 1.60089 -0.553888 0
M  V30 5911 O 539.698 1.64349 -0.734127 0
M  V30 5912 H 536.073 0.530841 -0.532646 0
M  V30 5913 H 538.044 1.41408 -2.62767 0
M  V30 5914 C 536.793 2.98029 -1.79092 0
M  V30 5915 H 536.116 2.98694 -2.65748 0
M  V30 5916 H 537.556 3.75871 -1.96206 0
M  V30 5917 C 536.015 3.32538 -0.540388 0
M  V30 5918 O 536.545 4.00386 0.324637 0
M  V30 5919 N 534.751 2.87873 -0.397154 0
M  V30 5920 H 534.298 2.32834 -1.1021 0
M  V30 5921 H 534.256 3.11328 0.438425 0
M  V30 5922 N 538.028 1.39524 0.732853 0
M  V30 5923 C 539.256 1.40143 1.52209 0
M  V30 5924 C 539.671 -0.00348836 1.888 0
M  V30 5925 O 539.028 -0.975357 1.5425 0
M  V30 5926 C 539.079 2.27632 2.8083 0
M  V30 5927 O 538.8 3.62654 2.45792 0
M  V30 5928 C 540.301 2.36658 3.74844 0
M  V30 5929 H 537.521 0.478604 0.470297 0
M  V30 5930 H 540.065 1.83366 0.905388 0
M  V30 5931 H 538.22 1.87818 3.38826 0
M  V30 5932 H 538.634 4.08941 3.28431 0
M  V30 5933 H 540.108 3.02118 4.61984 0
M  V30 5934 H 540.585 1.38638 4.16745 0
M  V30 5935 H 541.191 2.76951 3.22766 0
M  V30 5936 N 539.506 -0.963266 1.24736 0
M  V30 5937 C 540.755 -1.70115 1.08369 0
M  V30 5938 C 541.068 -1.91939 -0.376688 0
M  V30 5939 O 542.274 -2.6334 -0.660624 0
M  V30 5940 C 540.73 -3.06218 1.89099 0
M  V30 5941 C 540.338 -2.92221 3.39574 0
M  V30 5942 C 542.082 -3.83848 1.81275 0
M  V30 5943 C 539.989 -4.23662 4.12631 0
M  V30 5944 H 538.919 -0.637944 0.401924 0
M  V30 5945 H 541.57 -1.07304 1.48856 0
M  V30 5946 H 539.952 -3.69884 1.41429 0
M  V30 5947 H 541.126 -2.37541 3.94856 0
M  V30 5948 H 539.441 -2.28054 3.48397 0
M  V30 5949 H 542.038 -4.81188 2.33158 0
M  V30 5950 H 542.381 -4.08949 0.778895 0
M  V30 5951 H 542.914 -3.26918 2.26649 0
M  V30 5952 H 539.653 -4.03753 5.16395 0
M  V30 5953 H 539.173 -4.78141 3.62135 0
M  V30 5954 H 540.852 -4.92256 4.19873 0
M  V30 5955 N 540.985 -1.06182 -1.16461 0
M  V30 5956 C 541.932 -0.671613 -2.20812 0
M  V30 5957 C 542.902 0.331186 -1.62765 0
M  V30 5958 O 544.087 0.22033 -1.89524 0
M  V30 5959 C 541.227 -0.063029 -3.45042 0
M  V30 5960 C 540.34 -1.11587 -4.1734 0
M  V30 5961 C 539.475 -0.473546 -5.29085 0
M  V30 5962 C 538.514 -1.51 -5.93182 0
M  V30 5963 N 537.651 -0.891118 -6.96422 0
M  V30 5964 H 542.491 -1.56589 -2.53542 0
M  V30 5965 H 540.028 -0.782951 -1.24532 0
M  V30 5966 H 541.986 0.307344 -4.16066 0
M  V30 5967 H 540.616 0.794663 -3.12866 0
M  V30 5968 H 539.668 -1.60396 -3.44931 0
M  V30 5969 H 540.98 -1.90221 -4.61104 0
M  V30 5970 H 540.134 -0.0501432 -6.06679 0
M  V30 5971 H 538.873 0.344687 -4.8648 0
M  V30 5972 H 537.878 -1.94331 -5.14311 0
M  V30 5973 H 539.103 -2.33031 -6.37866 0
M  V30 5974 H 537.049 -0.0935753 -6.55933 0
M  V30 5975 H 536.966 -1.61486 -7.38551 0
M  V30 5976 H 538.234 -0.492822 -7.77941 0
M  V30 5977 N 542.463 1.3308 -0.844243 0
M  V30 5978 C 543.373 2.32876 -0.283922 0
M  V30 5979 C 544.389 1.63589 0.592846 0
M  V30 5980 O 545.565 1.95205 0.495693 0
M  V30 5981 C 542.63 3.42667 0.527283 0
M  V30 5982 C 541.691 4.27664 -0.374394 0
M  V30 5983 C 540.924 5.32212 0.39819 0
M  V30 5984 O 541.147 5.46635 1.62932 0
M  V30 5985 O 540.081 6.01458 -0.2306 0
M  V30 5986 H 543.907 2.82671 -1.11045 0
M  V30 5987 H 541.492 1.36518 -0.606903 0
M  V30 5988 H 543.374 4.09652 0.988078 0
M  V30 5989 H 542.049 2.95079 1.33078 0
M  V30 5990 H 540.956 3.63526 -0.883144 0
M  V30 5991 H 542.289 4.78749 -1.1428 0
M  V30 5992 N 543.941 0.601185 1.45683 0
M  V30 5993 C 545.169 0.100054 2.06658 0
M  V30 5994 C 545.584 -1.21285 1.44691 0
M  V30 5995 O 544.941 -1.73735 0.558772 0
M  V30 5996 C 544.992 -0.0528579 3.61461 0
M  V30 5997 O 544.713 1.20809 4.21114 0
M  V30 5998 C 546.214 -0.586193 4.39407 0
M  V30 5999 H 543.434 0.065905 0.667756 0
M  V30 6000 H 545.978 0.827101 1.87028 0
M  V30 6001 H 544.133 -0.730203 3.80456 0
M  V30 6002 H 544.547 1.03368 5.14213 0
M  V30 6003 H 546.021 -0.642297 5.4825 0
M  V30 6004 H 546.498 -1.60713 4.0874 0
M  V30 6005 H 547.104 0.0568935 4.25262 0
M  V30 6006 N 545.419 -1.53889 0.339982 0
M  V30 6007 C 546.349 -2.27843 -0.510856 0
M  V30 6008 C 547.33 -1.29267 -1.10563 0
M  V30 6009 O 548.515 -1.58104 -1.12768 0
M  V30 6010 C 545.645 -3.04857 -1.66372 0
M  V30 6011 C 544.599 -4.10907 -1.19746 0
M  V30 6012 C 543.925 -4.75855 -2.43857 0
M  V30 6013 C 545.225 -5.21435 -0.300501 0
M  V30 6014 H 546.919 -2.99212 0.106067 0
M  V30 6015 H 544.465 -1.43904 0.0524533 0
M  V30 6016 H 546.418 -3.5533 -2.26537 0
M  V30 6017 H 545.142 -2.31133 -2.30749 0
M  V30 6018 H 543.801 -3.61342 -0.618654 0
M  V30 6019 H 543.449 -3.9873 -3.06633 0
M  V30 6020 H 543.149 -5.47502 -2.13343 0
M  V30 6021 H 544.673 -5.2911 -3.04754 0
M  V30 6022 H 546.087 -5.67565 -0.80889 0
M  V30 6023 H 544.484 -6.00036 -0.0874076 0
M  V30 6024 H 545.554 -4.80328 0.664321 0
M  V30 6025 N 546.897 -0.0685191 -1.57451 0
M  V30 6026 C 548.313 0.288101 -1.56978 0
M  V30 6027 C 548.513 1.70262 -1.07765 0
M  V30 6028 O 547.569 2.4135 -0.742054 0
M  V30 6029 C 548.882 0.100745 -3.00531 0
M  V30 6030 C 550.43 0.170531 -3.12535 0
M  V30 6031 C 550.905 0.0114944 -4.57999 0
M  V30 6032 N 552.396 0.0672065 -4.63151 0
M  V30 6033 C 553.131 -0.0314813 -5.73391 0
M  V30 6034 N 552.627 -0.183503 -6.92557 0
M  V30 6035 N 554.42 0.0253489 -5.62094 0
M  V30 6036 H 546.571 -0.993026 -1.87757 0
M  V30 6037 H 548.834 -0.386981 -0.865419 0
M  V30 6038 H 548.54 -0.875197 -3.40636 0
M  V30 6039 H 548.414 0.854457 -3.67395 0
M  V30 6040 H 550.801 1.13696 -2.72318 0
M  V30 6041 H 550.882 -0.614229 -2.48316 0
M  V30 6042 H 550.526 -0.951684 -4.98904 0
M  V30 6043 H 550.456 0.815617 -5.20245 0
M  V30 6044 H 552.947 0.183246 -3.77455 0
M  V30 6045 H 553.26 -0.251041 -7.72392 0
M  V30 6046 H 551.605 -0.218822 -6.94655 0
M  V30 6047 H 554.796 0.142794 -4.67882 0
M  V30 6048 H 554.969 -0.0550166 -6.47977 0
M  V30 6049 N 548.375 1.56261 0.205012 0
M  V30 6050 C 549.308 1.88797 1.28183 0
M  V30 6051 C 550.286 0.747018 1.44424 0
M  V30 6052 O 551.47 0.997039 1.59973 0
M  V30 6053 C 548.597 2.10949 2.64987 0
M  V30 6054 C 547.643 3.33649 2.6567 0
M  V30 6055 S 548.476 4.89078 2.18088 0
M  V30 6056 C 549.632 5.14286 3.56736 0
M  V30 6057 H 549.865 2.79837 1.00393 0
M  V30 6058 H 547.398 1.48911 0.408042 0
M  V30 6059 H 549.356 2.24395 3.4374 0
M  V30 6060 H 548.017 1.20678 2.89993 0
M  V30 6061 H 547.21 3.46245 3.66239 0
M  V30 6062 H 546.812 3.19146 1.94992 0
M  V30 6063 H 549.104 5.04198 4.52537 0
M  V30 6064 H 550.047 6.16096 3.49043 0
M  V30 6065 H 550.455 4.41957 3.51189 0
M  V30 6066 N 549.853 -0.472356 1.50355 0
M  V30 6067 C 550.803 -1.56809 1.65514 0
M  V30 6068 C 551.787 -1.5261 0.509801 0
M  V30 6069 O 552.979 -1.59655 0.764145 0
M  V30 6070 C 550.108 -2.9526 1.75146 0
M  V30 6071 C 549.194 -3.04348 2.95353 0
M  V30 6072 N 549.585 -2.83253 4.19048 0
M  V30 6073 C 547.883 -3.35482 2.93884 0
M  V30 6074 C 548.584 -2.97273 5.00003 0
M  V30 6075 N 547.56 -3.27418 4.33934 0
M  V30 6076 H 551.362 -1.39197 2.58846 0
M  V30 6077 H 548.876 -0.67906 1.47521 0
M  V30 6078 H 550.873 -3.74044 1.8411 0
M  V30 6079 H 549.533 -3.1392 0.829717 0
M  V30 6080 H 550.544 -2.5886 4.48567 0
M  V30 6081 H 547.221 -3.60138 2.11204 0
M  V30 6082 H 548.611 -2.85214 6.08361 0
M  V30 6083 N 551.331 -1.39911 -0.725443 0
M  V30 6084 C 552.264 -1.33788 -1.84867 0
M  V30 6085 C 553.242 -0.209907 -1.61239 0
M  V30 6086 O 554.426 -0.391943 -1.8438 0
M  V30 6087 C 551.553 -1.07975 -3.21028 0
M  V30 6088 C 550.599 -2.23092 -3.635 0
M  V30 6089 S 551.432 -3.85431 -3.71757 0
M  V30 6090 C 552.588 -3.61862 -5.10692 0
M  V30 6091 H 552.821 -2.28848 -1.89779 0
M  V30 6092 H 550.354 -1.26079 -0.891254 0
M  V30 6093 H 552.312 -0.937669 -3.99647 0
M  V30 6094 H 550.973 -0.145865 -3.13761 0
M  V30 6095 H 550.166 -2.00647 -4.62338 0
M  V30 6096 H 549.768 -2.33553 -2.92112 0
M  V30 6097 H 552.06 -3.19719 -5.97316 0
M  V30 6098 H 553.003 -4.60196 -5.38169 0
M  V30 6099 H 553.411 -2.95757 -4.8082 0
M  V30 6100 N 552.809 0.956637 -1.25245 0
M  V30 6101 C 554.22 1.51569 -1.09012 0
M  V30 6102 C 554.571 1.93322 0.334813 0
M  V30 6103 O 553.696 1.78421 1.22454 0
M  V30 6104 C 554.291 2.75444 -1.97271 0
M  V30 6105 C 552.85 3.27669 -1.8523 0
M  V30 6106 C 551.997 2.00517 -1.91542 0
M  V30 6107 H 554.948 0.773746 -1.3856 0
M  V30 6108 H 554.969 3.4919 -1.51151 0
M  V30 6109 H 554.481 2.45024 -3.00973 0
M  V30 6110 H 552.582 3.62914 -0.844045 0
M  V30 6111 H 552.695 3.9582 -2.69932 0
M  V30 6112 H 551.059 2.15727 -1.35404 0
M  V30 6113 H 551.842 1.72448 -2.96844 0
M  V30 6114 N 554.287 1.06798 1.15896 0
M  V30 6115 C 555.217 0.704677 2.22613 0
M  V30 6116 C 556.198 -0.305252 1.67339 0
M  V30 6117 O 557.383 -0.179247 1.93371 0
M  V30 6118 C 554.513 0.0957325 3.47168 0
M  V30 6119 C 553.467 1.0322 4.15367 0
M  V30 6120 C 552.793 0.286293 5.33933 0
M  V30 6121 C 554.093 2.36341 4.65768 0
M  V30 6122 H 555.787 1.59688 2.53259 0
M  V30 6123 H 553.333 0.769257 1.21731 0
M  V30 6124 H 555.286 -0.170333 4.21056 0
M  V30 6125 H 554.01 -0.831516 3.15838 0
M  V30 6126 H 552.669 1.28309 3.43413 0
M  V30 6127 H 552.317 -0.644237 4.98857 0
M  V30 6128 H 552.017 0.910436 5.80504 0
M  V30 6129 H 553.541 0.0278938 6.10594 0
M  V30 6130 H 554.955 2.1561 5.31211 0
M  V30 6131 H 553.352 2.94299 5.2298 0
M  V30 6132 H 554.422 2.99047 3.81705 0
M  V30 6133 N 555.766 -1.3263 0.851289 0
M  V30 6134 C 556.716 -2.26451 0.265302 0
M  V30 6135 C 557.7 -1.49814 -0.586899 0
M  V30 6136 O 558.892 -1.71525 -0.436834 0
M  V30 6137 C 556.021 -3.38895 -0.548212 0
M  V30 6138 C 555.107 -4.2292 0.316189 0
M  V30 6139 N 555.498 -4.86014 1.40084 0
M  V30 6140 C 553.796 -4.45876 0.105356 0
M  V30 6141 C 554.497 -5.48667 1.93235 0
M  V30 6142 N 553.473 -5.29455 1.232 0
M  V30 6143 H 557.275 -2.72757 1.09457 0
M  V30 6144 H 554.789 -1.4668 0.697047 0
M  V30 6145 H 556.786 -4.05111 -0.984402 0
M  V30 6146 H 555.446 -2.94135 -1.37531 0
M  V30 6147 H 556.457 -4.86212 1.78377 0
M  V30 6148 H 553.134 -4.11804 -0.687299 0
M  V30 6149 H 554.524 -6.08865 2.84135 0
M  V30 6150 N 557.244 -0.608902 -1.45362 0
M  V30 6151 C 558.469 -0.10921 -2.07112 0
M  V30 6152 C 558.894 1.19779 -1.45033 0
M  V30 6153 O 558.252 1.72961 -0.543527 0
M  V30 6154 C 558.3 0.0155745 -3.60597 0
M  V30 6155 O 557.404 1.06546 -3.98399 0
M  V30 6156 H 556.745 -0.0746619 -0.659789 0
M  V30 6157 H 559.275 -0.839283 -1.86594 0
M  V30 6158 H 559.285 0.213364 -4.07442 0
M  V30 6159 H 557.96 -0.938765 -4.05167 0
M  V30 6160 H 556.537 0.844024 -3.63223 0
M  V30 6161 N 558.722 1.53707 -0.348139 0
M  V30 6162 C 559.971 2.0017 0.247992 0
M  V30 6163 C 560.284 1.23983 1.51286 0
M  V30 6164 O 561.49 1.60946 2.18652 0
M  V30 6165 C 559.946 3.56515 0.492459 0
M  V30 6166 C 559.554 4.41562 -0.756777 0
M  V30 6167 C 561.298 4.11381 1.0472 0
M  V30 6168 C 559.205 5.89426 -0.482856 0
M  V30 6169 H 558.135 0.747806 0.0964452 0
M  V30 6170 H 560.786 1.77532 -0.464179 0
M  V30 6171 H 559.168 3.75236 1.26545 0
M  V30 6172 H 560.342 4.34615 -1.53122 0
M  V30 6173 H 558.657 3.97711 -1.23348 0
M  V30 6174 H 561.254 5.19468 1.26717 0
M  V30 6175 H 561.597 3.64885 2.00411 0
M  V30 6176 H 562.13 3.96389 0.334801 0
M  V30 6177 H 558.869 6.40164 -1.40962 0
M  V30 6178 H 558.389 5.99264 0.253416 0
M  V30 6179 H 560.068 6.4692 -0.101816 0
M  V30 6180 N 560.2 0.0768682 1.57412 0
M  V30 6181 C 561.447 -0.591085 1.93681 0
M  V30 6182 C 561.775 -1.69311 0.957286 0
M  V30 6183 O 561.03 -1.95682 -0.0262428 0
M  V30 6184 C 561.329 -1.20268 3.36557 0
M  V30 6185 C 560.995 -0.226286 4.50332 0
M  V30 6186 C 559.657 0.0423142 4.81181 0
M  V30 6187 C 562.009 0.441415 5.19327 0
M  V30 6188 C 559.337 0.985616 5.78362 0
M  V30 6189 C 561.689 1.37307 6.17519 0
M  V30 6190 C 560.353 1.65009 6.46783 0
M  V30 6191 H 559.623 -0.216293 0.70873 0
M  V30 6192 H 562.27 0.148824 1.90921 0
M  V30 6193 H 560.575 -2.01844 3.35807 0
M  V30 6194 H 562.272 -1.72688 3.61911 0
M  V30 6195 H 558.862 -0.445821 4.26275 0
M  V30 6196 H 563.046 0.247023 4.95685 0
M  V30 6197 H 558.302 1.20743 5.99359 0
M  V30 6198 H 562.476 1.89637 6.70083 0
M  V30 6199 H 560.103 2.38263 7.21897 0
M  V30 6200 N 561.678 -1.56367 -0.196722 0
M  V30 6201 C 563.094 -1.49916 -0.54749 0
M  V30 6202 C 563.294 -0.77659 -1.85934 0
M  V30 6203 O 562.35 -0.32644 -2.50381 0
M  V30 6204 C 563.663 -2.94577 -0.603734 0
M  V30 6205 C 565.211 -3.05239 -0.692677 0
M  V30 6206 C 565.686 -4.51308 -0.780046 0
M  V30 6207 N 567.177 -4.55453 -0.843616 0
M  V30 6208 C 567.912 -5.65786 -0.931358 0
M  V30 6209 N 567.408 -6.85812 -0.981503 0
M  V30 6210 N 569.201 -5.53695 -0.968421 0
M  V30 6211 H 561.352 -2.01761 0.663803 0
M  V30 6212 H 563.615 -0.918094 0.236238 0
M  V30 6213 H 563.321 -3.50494 0.29105 0
M  V30 6214 H 563.195 -3.47841 -1.45898 0
M  V30 6215 H 565.582 -2.49372 -1.57789 0
M  V30 6216 H 565.663 -2.55103 0.188736 0
M  V30 6217 H 565.307 -5.078 0.100811 0
M  V30 6218 H 565.237 -4.99176 -1.67724 0
M  V30 6219 H 567.728 -3.69025 -0.814176 0
M  V30 6220 H 568.041 -7.65648 -1.04892 0
M  V30 6221 H 566.386 -6.88474 -0.950208 0
M  V30 6222 H 569.577 -4.58848 -0.926072 0
M  V30 6223 H 569.75 -6.39708 -1.03334 0
M  V30 6224 N 563.156 0.464375 -1.50603 0
M  V30 6225 C 564.103 1.56152 -1.69956 0
M  V30 6226 C 565.073 1.57046 -0.54091 0
M  V30 6227 O 566.258 1.74473 -0.772258 0
M  V30 6228 C 563.398 2.94079 -1.80586 0
M  V30 6229 C 562.511 3.02923 -3.07996 0
M  V30 6230 C 561.646 4.31806 -3.09382 0
M  V30 6231 C 560.685 4.34417 -4.31218 0
M  V30 6232 N 559.822 5.54782 -4.30304 0
M  V30 6233 H 564.662 1.38955 -2.6362 0
M  V30 6234 H 562.199 0.675482 -1.30674 0
M  V30 6235 H 564.157 3.74073 -1.8473 0
M  V30 6236 H 562.787 3.09896 -0.903556 0
M  V30 6237 H 561.839 2.1576 -3.13292 0
M  V30 6238 H 563.151 3.00712 -3.97962 0
M  V30 6239 H 562.305 5.20153 -3.12292 0
M  V30 6240 H 561.044 4.36636 -2.17257 0
M  V30 6241 H 560.049 3.44467 -4.28512 0
M  V30 6242 H 561.274 4.31273 -5.24576 0
M  V30 6243 H 559.22 5.60384 -3.41037 0
M  V30 6244 H 559.137 5.54339 -5.14047 0
M  V30 6245 H 560.405 6.45235 -4.3737 0
M  V30 6246 N 564.634 1.40294 0.718013 0
M  V30 6247 C 565.88 1.38645 1.48005 0
M  V30 6248 C 566.213 -0.0121202 1.94196 0
M  V30 6249 O 565.488 -0.980309 1.67989 0
M  V30 6250 C 565.771 2.37379 2.70782 0
M  V30 6251 C 565.624 3.8625 2.30501 0
M  V30 6252 C 566.943 2.33685 3.72933 0
M  V30 6253 H 564.062 0.504928 0.536858 0
M  V30 6254 H 566.704 1.71411 0.819649 0
M  V30 6255 H 564.854 2.09568 3.27129 0
M  V30 6256 H 566.526 4.24879 1.79655 0
M  V30 6257 H 564.769 4.02202 1.6253 0
M  V30 6258 H 565.44 4.50847 3.18498 0
M  V30 6259 H 567.916 2.58314 3.2621 0
M  V30 6260 H 566.792 3.0482 4.56482 0
M  V30 6261 H 567.053 1.34765 4.21059 0
M  V30 6262 N 566.112 -0.949982 1.2575 0
M  V30 6263 C 567.34 -1.72972 1.13527 0
M  V30 6264 C 567.755 -1.8623 -0.310453 0
M  V30 6265 O 567.112 -1.36336 -1.2132 0
M  V30 6266 C 567.163 -3.14108 1.78936 0
M  V30 6267 O 566.884 -3.01493 3.17858 0
M  V30 6268 C 568.385 -4.08338 1.72554 0
M  V30 6269 H 565.605 -0.541864 0.395758 0
M  V30 6270 H 568.149 -1.19151 1.66202 0
M  V30 6271 H 566.304 -3.64858 1.30221 0
M  V30 6272 H 566.718 -3.90559 3.50092 0
M  V30 6273 H 568.192 -5.04963 2.22973 0
M  V30 6274 H 568.669 -4.33742 0.690251 0
M  V30 6275 H 569.275 -3.63506 2.2078 0
M  V30 6276 N 567.59 -1.07411 -1.15328 0
M  V30 6277 C 568.538 -0.689316 -2.22151 0
M  V30 6278 C 569.532 0.300156 -1.6672 0
M  V30 6279 O 570.738 0.163804 -1.79253 0
M  V30 6280 H 567.113 -0.204834 -0.723566 0
M  V30 6281 H 569.084 -1.59988 -2.51886 0
M  V30 6282 C 567.833 -0.103848 -3.47545 0
M  V30 6283 H 567.156 -0.856367 -3.90521 0
M  V30 6284 H 568.596 0.127725 -4.23808 0
M  V30 6285 C 567.055 1.15563 -3.1646 0
M  V30 6286 O 567.585 2.242 -3.33312 0
M  V30 6287 N 565.791 1.06203 -2.70498 0
M  V30 6288 H 565.338 0.177933 -2.56985 0
M  V30 6289 H 565.296 1.90553 -2.50074 0
M  V30 6290 N 569.068 1.32177 -0.85831 0
M  V30 6291 C 570.479 1.79381 -0.517621 0
M  V30 6292 C 570.83 1.70841 0.964769 0
M  V30 6293 O 569.955 1.26917 1.75274 0
M  V30 6294 C 570.55 3.25706 -0.932801 0
M  V30 6295 C 569.109 3.70851 -0.643953 0
M  V30 6296 C 568.256 2.53208 -1.13054 0
M  V30 6297 H 571.207 1.19424 -1.04516 0
M  V30 6298 H 571.228 3.79673 -0.250674 0
M  V30 6299 H 570.74 3.31889 -2.01174 0
M  V30 6300 H 568.841 3.70178 0.424112 0
M  V30 6301 H 568.954 4.63495 -1.21281 0
M  V30 6302 H 567.318 2.48676 -0.550679 0
M  V30 6303 H 568.101 2.62143 -2.21666 0
M  V30 6304 N 570.547 0.616602 1.45037 0
M  V30 6305 C 571.477 -0.0840787 2.33349 0
M  V30 6306 C 572.458 -0.849641 1.4736 0
M  V30 6307 O 573.643 -0.818407 1.76113 0
M  V30 6308 C 570.773 -1.07604 3.3021 0
M  V30 6309 C 569.727 -0.423096 4.25904 0
M  V30 6310 C 569.053 -1.52394 5.12523 0
M  V30 6311 C 570.353 0.661457 5.18095 0
M  V30 6312 H 572.047 0.653333 2.92185 0
M  V30 6313 H 569.593 0.315634 1.40498 0
M  V30 6314 H 571.546 -1.57485 3.90866 0
M  V30 6315 H 570.27 -1.84416 2.69552 0
M  V30 6316 H 568.929 0.05493 3.66559 0
M  V30 6317 H 568.577 -2.28257 4.48227 0
M  V30 6318 H 568.277 -1.09251 5.77354 0
M  V30 6319 H 569.801 -2.02485 5.76049 0
M  V30 6320 H 571.215 0.246353 5.7277 0
M  V30 6321 H 569.612 1.01517 5.91451 0
M  V30 6322 H 570.682 1.53446 4.59981 0
M  V30 6323 N 572.025 -1.5352 0.356285 0
M  V30 6324 C 573.441 -1.59599 0.00485267 0
M  V30 6325 C 573.641 -1.37179 -1.47595 0
M  V30 6326 O 572.697 -1.17234 -2.23635 0
M  V30 6327 C 574.01 -2.97277 0.452454 0
M  V30 6328 C 575.558 -3.10357 0.405881 0
M  V30 6329 C 576.033 -4.50432 0.829148 0
M  V30 6330 N 577.524 -4.5652 0.783838 0
M  V30 6331 C 578.259 -5.63077 1.08315 0
M  V30 6332 N 577.755 -6.77429 1.45126 0
M  V30 6333 N 579.548 -5.53014 1.00655 0
M  V30 6334 H 571.699 -1.66346 1.32071 0
M  V30 6335 H 573.962 -0.77971 0.539218 0
M  V30 6336 H 573.668 -3.18792 1.48542 0
M  V30 6337 H 573.542 -3.76836 -0.165762 0
M  V30 6338 H 575.929 -2.88558 -0.617934 0
M  V30 6339 H 576.01 -2.32828 1.05947 0
M  V30 6340 H 575.654 -4.72968 1.85103 0
M  V30 6341 H 575.584 -5.26378 0.152906 0
M  V30 6342 H 578.075 -3.74408 0.512513 0
M  V30 6343 H 578.388 -7.54669 1.66415 0
M  V30 6344 H 576.733 -6.78844 1.48983 0
M  V30 6345 H 579.924 -4.62557 0.718215 0
M  V30 6346 H 580.097 -6.35964 1.24315 0
M  V30 6347 N 573.503 -0.0852151 -1.57369 0
M  V30 6348 C 574.752 0.580443 -1.93168 0
M  V30 6349 C 575.065 1.6995 -0.968319 0
M  V30 6350 O 576.271 2.42564 -1.21963 0
M  V30 6351 C 574.727 1.08386 -3.43192 0
M  V30 6352 C 574.335 -0.00491388 -4.48 0
M  V30 6353 C 576.079 1.72281 -3.87968 0
M  V30 6354 C 573.986 0.513299 -5.89168 0
M  V30 6355 H 572.916 0.22059 -0.72101 0
M  V30 6356 H 575.567 -0.159621 -1.82804 0
M  V30 6357 H 573.949 1.8773 -3.48674 0
M  V30 6358 H 575.123 -0.780032 -4.5415 0
M  V30 6359 H 573.438 -0.548453 -4.12772 0
M  V30 6360 H 576.035 2.12108 -4.9083 0
M  V30 6361 H 576.378 2.58811 -3.26071 0
M  V30 6362 H 576.911 0.995359 -3.85146 0
M  V30 6363 H 573.65 -0.315153 -6.54742 0
M  V30 6364 H 573.17 1.25564 -5.8651 0
M  V30 6365 H 574.849 0.985433 -6.39451 0
M  V30 6366 N 574.981 1.5647 0.188427 0
M  V30 6367 C 576.392 1.70864 0.752494 0
M  V30 6368 C 576.743 0.692905 1.83557 0
M  V30 6369 O 575.868 -0.149307 2.15884 0
M  V30 6370 C 576.463 3.09789 1.37173 0
M  V30 6371 C 575.022 3.25925 1.88281 0
M  V30 6372 C 574.169 2.66817 0.755259 0
M  V30 6373 H 577.12 1.58657 -0.0367408 0
M  V30 6374 H 577.141 3.07489 2.24122 0
M  V30 6375 H 576.653 3.83693 0.583219 0
M  V30 6376 H 574.754 2.56948 2.6983 0
M  V30 6377 H 574.867 4.33498 2.04001 0
M  V30 6378 H 573.231 2.2617 1.17128 0
M  V30 6379 H 574.014 3.43294 -0.0211237 0
M  V30 6380 N 576.459 -0.456382 1.50847 0
M  V30 6381 C 577.369 -1.57805 1.73594 0
M  V30 6382 C 578.385 -1.62599 0.619476 0
M  V30 6383 O 579.561 -1.80195 0.899532 0
M  V30 6384 C 576.626 -2.93926 1.8387 0
M  V30 6385 C 575.687 -2.99402 3.07663 0
M  V30 6386 C 574.92 -4.29031 3.1744 0
M  V30 6387 O 575.143 -5.20358 2.33631 0
M  V30 6388 O 574.077 -4.40401 4.10281 0
M  V30 6389 H 577.903 -1.41531 2.68705 0
M  V30 6390 H 575.488 -0.637422 1.3512 0
M  V30 6391 H 577.37 -3.74747 1.92725 0
M  V30 6392 H 576.045 -3.10368 0.91944 0
M  V30 6393 H 574.952 -2.17606 3.043 0
M  V30 6394 H 576.285 -2.87901 3.99216 0
M  V30 6395 N 577.937 -1.40673 -0.710563 0
M  V30 6396 C 579.165 -1.42547 -1.4996 0
M  V30 6397 C 579.58 -0.0265485 -1.88781 0
M  V30 6398 O 578.937 0.950694 -1.55782 0
M  V30 6399 C 578.988 -2.32071 -2.77173 0
M  V30 6400 O 578.709 -3.66518 -2.39992 0
M  V30 6401 C 580.21 -2.42591 -3.71032 0
M  V30 6402 H 577.43 -0.486025 -0.462623 0
M  V30 6403 H 579.974 -1.84783 -0.876102 0
M  V30 6404 H 578.129 -1.93184 -3.35795 0
M  V30 6405 H 578.543 -4.14115 -3.21884 0
M  V30 6406 H 580.017 -3.09429 -4.57119 0
M  V30 6407 H 580.494 -1.4525 -4.14486 0
M  V30 6408 H 581.1 -2.82051 -3.18319 0
M  V30 6409 N 579.415 0.9433 -1.26252 0
M  V30 6410 C 580.363 2.06302 -1.07434 0
M  V30 6411 C 581.357 1.694 -0.00189471 0
M  V30 6412 O 582.563 1.79302 -0.158408 0
M  V30 6413 H 578.938 0.675453 -0.330556 0
M  V30 6414 H 580.909 2.19326 -2.02333 0
M  V30 6415 C 579.658 3.40125 -0.721817 0
M  V30 6416 H 578.981 3.68996 -1.5389 0
M  V30 6417 H 580.421 4.19295 -0.629922 0
M  V30 6418 C 578.88 3.31993 0.572902 0
M  V30 6419 O 579.41 3.67945 1.61182 0
M  V30 6420 N 577.616 2.85099 0.562748 0
M  V30 6421 H 577.163 2.5604 -0.283092 0
M  V30 6422 H 577.121 2.80041 1.42915 0
M  V30 6423 N 580.893 1.08022 1.14757 0
M  V30 6424 C 582.123 0.827646 1.89298 0
M  V30 6425 C 582.531 -0.623506 1.78631 0
M  V30 6426 O 581.874 -1.43991 1.14071 0
M  V30 6427 C 581.936 1.16553 3.40082 0
M  V30 6428 C 581.6 2.61866 3.74533 0
M  V30 6429 C 582.597 3.60116 3.74984 0
M  V30 6430 C 580.282 2.97619 4.04633 0
M  V30 6431 C 582.276 4.92151 4.05051 0
M  V30 6432 C 579.963 4.2985 4.34364 0
M  V30 6433 C 580.961 5.26926 4.34555 0
M  V30 6434 O 580.649 6.5678 4.63568 0
M  V30 6435 H 580.381 0.298396 0.606577 0
M  V30 6436 H 582.935 1.44187 1.46285 0
M  V30 6437 H 581.165 0.494296 3.83528 0
M  V30 6438 H 582.854 0.894407 3.95923 0
M  V30 6439 H 583.62 3.33837 3.51821 0
M  V30 6440 H 579.499 2.22702 4.03639 0
M  V30 6441 H 583.043 5.67915 4.05115 0
M  V30 6442 H 578.94 4.55879 4.56995 0
M  V30 6443 H 579.708 6.62035 4.81303 0
M  V30 6444 N 582.371 -1.3172 0.865308 0
M  V30 6445 C 583.62 -1.96145 0.470098 0
M  V30 6446 C 583.933 -1.69182 -0.981674 0
M  V30 6447 O 585.139 -2.27431 -1.48281 0
M  V30 6448 C 583.595 -3.51129 0.789732 0
M  V30 6449 C 583.203 -3.86938 2.25795 0
M  V30 6450 C 584.947 -4.2197 0.462765 0
M  V30 6451 C 582.854 -5.35012 2.52024 0
M  V30 6452 H 581.784 -0.734105 0.172065 0
M  V30 6453 H 584.435 -1.49959 1.05757 0
M  V30 6454 H 582.817 -3.95781 0.131571 0
M  V30 6455 H 583.991 -3.5326 2.95879 0
M  V30 6456 H 582.306 -3.29149 2.55049 0
M  V30 6457 H 584.903 -5.30904 0.636019 0
M  V30 6458 H 585.246 -4.12005 -0.59645 0
M  V30 6459 H 585.779 -3.82936 1.07727 0
M  V30 6460 H 582.518 -5.50008 3.56611 0
M  V30 6461 H 582.038 -5.70058 1.8653 0
M  V30 6462 H 583.717 -6.0222 2.36515 0
M  V30 6463 N 583.85 -0.624285 -1.44708 0
M  V30 6464 C 585.096 -0.126237 -2.02407 0
M  V30 6465 C 585.428 1.24618 -1.48943 0
M  V30 6466 O 584.704 1.82569 -0.670742 0
M  V30 6467 C 584.986 -0.105449 -3.59946 0
M  V30 6468 C 584.84 -1.50972 -4.23707 0
M  V30 6469 C 586.159 0.573629 -4.36346 0
M  V30 6470 H 583.278 -0.0473472 -0.735478 0
M  V30 6471 H 585.92 -0.799452 -1.72362 0
M  V30 6472 H 584.07 0.46783 -3.85673 0
M  V30 6473 H 585.742 -2.13136 -4.0911 0
M  V30 6474 H 583.985 -2.0656 -3.81465 0
M  V30 6475 H 584.656 -1.44727 -5.32689 0
M  V30 6476 H 587.132 0.0861787 -4.16011 0
M  V30 6477 H 586.008 0.557338 -5.46063 0
M  V30 6478 H 586.269 1.64276 -4.10446 0
M  V30 6479 N 585.328 1.53329 -0.364422 0
M  V30 6480 C 586.739 1.86345 0.115039 0
M  V30 6481 C 587.09 1.28505 1.4826 0
M  V30 6482 O 586.215 0.606639 2.07723 0
M  V30 6483 C 586.81 3.38114 0.215522 0
M  V30 6484 C 585.369 3.70932 0.639237 0
M  V30 6485 C 584.516 2.76471 -0.214261 0
M  V30 6486 H 587.467 1.47593 -0.583258 0
M  V30 6487 H 587.488 3.66031 1.0393 0
M  V30 6488 H 587 3.80182 -0.779948 0
M  V30 6489 H 585.101 3.3442 1.64298 0
M  V30 6490 H 585.214 4.77302 0.41465 0
M  V30 6491 H 583.578 2.52724 0.316678 0
M  V30 6492 H 584.361 3.21373 -1.20725 0
M  V30 6493 N 586.806 0.0935595 1.57322 0
M  V30 6494 C 587.753 -0.865935 2.1394 0
M  V30 6495 C 588.723 -1.28083 1.05754 0
M  V30 6496 O 589.908 -1.36285 1.33533 0
M  V30 6497 C 587.048 -2.12023 2.72287 0
M  V30 6498 C 586.161 -1.756 3.94701 0
M  V30 6499 C 585.296 -2.95804 4.41218 0
M  V30 6500 C 584.335 -2.555 5.56225 0
M  V30 6501 N 583.472 -3.68534 5.97601 0
M  V30 6502 H 588.312 -0.376261 2.95615 0
M  V30 6503 H 585.849 -0.174052 1.46067 0
M  V30 6504 H 587.807 -2.85477 3.04235 0
M  V30 6505 H 586.437 -2.58492 1.93343 0
M  V30 6506 H 585.489 -0.921208 3.69077 0
M  V30 6507 H 586.801 -1.41964 4.78171 0
M  V30 6508 H 585.955 -3.77513 4.74941 0
M  V30 6509 H 584.694 -3.32649 3.56645 0
M  V30 6510 H 583.699 -1.72218 5.22131 0
M  V30 6511 H 584.924 -2.19801 6.42545 0
M  V30 6512 H 582.87 -4.051 5.15974 0
M  V30 6513 H 582.787 -3.38737 6.75865 0
M  V30 6514 H 584.055 -4.50757 6.35955 0
M  V30 6515 N 588.284 -1.56567 -0.180126 0
M  V30 6516 C 589.532 -1.81133 -0.896392 0
M  V30 6517 C 589.853 -0.669114 -1.83161 0
M  V30 6518 O 589.123 0.311616 -1.93406 0
M  V30 6519 H 587.703 -0.668172 -0.333999 0
M  V30 6520 H 590.365 -1.94048 -0.182051 0
M  V30 6521 H 589.461 -2.74854 -1.47857 0
M  V30 6522 N 589.762 0.448376 -1.51087 0
M  V30 6523 C 590.712 1.54156 -1.67988 0
M  V30 6524 C 591.696 1.5178 -0.534015 0
M  V30 6525 O 592.888 1.58419 -0.789448 0
M  V30 6526 C 590.017 2.92437 -1.79822 0
M  V30 6527 C 589.103 2.99611 -3.00157 0
M  V30 6528 N 589.494 2.7655 -4.23502 0
M  V30 6529 C 587.792 3.30764 -2.99184 0
M  V30 6530 C 588.493 2.89281 -5.0467 0
M  V30 6531 N 587.469 3.20473 -4.39088 0
M  V30 6532 H 591.271 1.35061 -2.61028 0
M  V30 6533 H 588.785 0.655504 -1.48583 0
M  V30 6534 H 590.782 3.71068 -1.90037 0
M  V30 6535 H 589.442 3.1256 -0.879554 0
M  V30 6536 H 590.453 2.5169 -4.52628 0
M  V30 6537 H 587.13 3.56732 -2.16907 0
M  V30 6538 H 588.52 2.75499 -6.12821 0
M  V30 6539 N 591.24 1.41047 0.703093 0
M  V30 6540 C 592.47 1.43133 1.48985 0
M  V30 6541 C 592.878 0.0328537 1.89171 0
M  V30 6542 O 592.221 -0.956469 1.56835 0
M  V30 6543 C 592.283 2.26991 2.78775 0
M  V30 6544 C 591.947 3.7525 2.60837 0
M  V30 6545 C 592.944 4.67591 2.27276 0
M  V30 6546 C 590.629 4.19208 2.76712 0
M  V30 6547 C 592.623 6.01877 2.09817 0
M  V30 6548 C 590.31 5.53561 2.5887 0
M  V30 6549 C 591.308 6.4471 2.25472 0
M  V30 6550 O 590.996 7.76584 2.07778 0
M  V30 6551 H 590.728 0.489788 0.465922 0
M  V30 6552 H 593.282 1.85886 0.873822 0
M  V30 6553 H 591.512 1.79038 3.42757 0
M  V30 6554 H 593.201 2.20867 3.40547 0
M  V30 6555 H 593.967 4.34923 2.14633 0
M  V30 6556 H 589.846 3.48572 3.01693 0
M  V30 6557 H 593.39 6.72986 1.83671 0
M  V30 6558 H 589.287 5.85811 2.71102 0
M  V30 6559 H 590.055 7.87649 2.22601 0
M  V30 6560 N 592.718 -0.936591 1.26751 0
M  V30 6561 C 593.964 -1.6858 1.12733 0
M  V30 6562 C 594.297 -1.91414 -0.327745 0
M  V30 6563 O 593.572 -1.49812 -1.24043 0
M  V30 6564 C 593.855 -3.05779 1.90187 0
M  V30 6565 C 593.708 -2.90242 3.43627 0
M  V30 6566 C 595.027 -4.0597 1.69931 0
M  V30 6567 H 592.146 -0.61182 0.410908 0
M  V30 6568 H 594.788 -1.08747 1.55801 0
M  V30 6569 H 592.938 -3.56853 1.53584 0
M  V30 6570 H 594.61 -2.46354 3.9001 0
M  V30 6571 H 592.853 -2.2577 3.70419 0
M  V30 6572 H 593.524 -3.87572 3.93055 0
M  V30 6573 H 596 -3.63874 2.0183 0
M  V30 6574 H 594.876 -4.99974 2.26534 0
M  V30 6575 H 595.137 -4.37369 0.64502 0
M  V30 6576 N 594.196 -1.08629 -1.14182 0
M  V30 6577 C 595.126 -0.740003 -2.21464 0
M  V30 6578 C 596.107 0.278591 -1.67803 0
M  V30 6579 O 597.292 0.148461 -1.93632 0
M  V30 6580 C 594.422 -0.150952 -3.46972 0
M  V30 6581 C 593.376 -1.09815 -4.13672 0
M  V30 6582 C 592.702 -0.3712 -5.3341 0
M  V30 6583 C 594.002 -2.43722 -4.61949 0
M  V30 6584 H 595.696 -1.63697 -2.50686 0
M  V30 6585 H 593.242 -0.788526 -1.20492 0
M  V30 6586 H 595.195 0.103325 -4.21273 0
M  V30 6587 H 593.919 0.781164 -3.1712 0
M  V30 6588 H 592.578 -1.33756 -3.41328 0
M  V30 6589 H 592.226 0.564792 -4.99819 0
M  V30 6590 H 591.926 -1.00267 -5.78982 0
M  V30 6591 H 593.45 -0.12503 -6.10472 0
M  V30 6592 H 594.864 -2.24034 -5.27714 0
M  V30 6593 H 593.261 -3.02582 -5.18232 0
M  V30 6594 H 594.331 -3.05082 -3.76899 0
M  V30 6595 N 595.674 1.31259 -0.872281 0
M  V30 6596 C 596.92 1.96913 -0.485083 0
M  V30 6597 C 597.253 1.68774 0.960667 0
M  V30 6598 O 596.528 0.985495 1.67685 0
M  V30 6599 C 596.811 3.52299 -0.745502 0
M  V30 6600 C 596.664 3.90002 -2.24095 0
M  V30 6601 C 597.983 4.39582 -0.213516 0
M  V30 6602 H 595.102 0.715252 -0.177716 0
M  V30 6603 H 597.744 1.55347 -1.09395 0
M  V30 6604 H 595.894 3.87835 -0.227276 0
M  V30 6605 H 597.566 3.64555 -2.82661 0
M  V30 6606 H 595.809 3.38526 -2.71261 0
M  V30 6607 H 596.48 4.98352 -2.37381 0
M  V30 6608 H 598.956 4.10882 -0.656902 0
M  V30 6609 H 597.832 5.47251 -0.42516 0
M  V30 6610 H 598.093 4.33158 0.884666 0
M  V30 6611 N 597.152 0.631951 1.44375 0
M  V30 6612 C 598.377 0.142146 2.06912 0
M  V30 6613 C 598.802 -1.17456 1.4692 0
M  V30 6614 O 598.16 -1.72074 0.570975 0
M  V30 6615 C 598.208 0.0417952 3.60576 0
M  V30 6616 O 597.312 -1.00194 4.00044 0
M  V30 6617 H 596.653 0.0851491 0.658518 0
M  V30 6618 H 599.183 0.868863 1.85235 0
M  V30 6619 H 599.193 -0.148517 4.0773 0
M  V30 6620 H 597.868 1.0031 4.03622 0
M  V30 6621 H 596.445 -0.786131 3.64519 0
M  V30 6622 N 598.631 -1.53133 0.372548 0
M  V30 6623 C 600.042 -1.86404 -0.105155 0
M  V30 6624 C 600.393 -1.29289 -1.47576 0
M  V30 6625 O 599.518 -0.617646 -2.07398 0
M  V30 6626 C 600.113 -3.38223 -0.197588 0
M  V30 6627 C 598.672 -3.71266 -0.619556 0
M  V30 6628 C 597.819 -2.76353 0.228919 0
M  V30 6629 H 600.77 -1.47282 0.591077 0
M  V30 6630 H 600.791 -3.66577 -1.01987 0
M  V30 6631 H 600.303 -3.79763 0.800099 0
M  V30 6632 H 598.404 -3.35287 -1.62522 0
M  V30 6633 H 598.517 -4.77515 -0.389332 0
M  V30 6634 H 596.881 -2.52888 -0.303271 0
M  V30 6635 H 597.664 -3.20728 1.22428 0
M  V30 6636 N 600.109 -0.101901 -1.5727 0
M  V30 6637 C 601.357 0.559091 -1.94213 0
M  V30 6638 C 601.678 1.68297 -0.984948 0
M  V30 6639 O 600.948 1.95863 -0.0381975 0
M  V30 6640 H 599.528 0.20952 -0.717015 0
M  V30 6641 H 602.19 -0.166831 -1.94185 0
M  V30 6642 H 601.286 0.96485 -2.96811 0
M  V30 6643 N 601.587 1.56661 0.17182 0
M  V30 6644 C 602.817 1.85831 0.902804 0
M  V30 6645 C 603.225 0.685157 1.76358 0
M  V30 6646 O 602.568 -0.354947 1.80238 0
M  V30 6647 C 602.63 3.09406 1.83053 0
M  V30 6648 C 602.294 4.4231 1.1494 0
M  V30 6649 C 603.291 5.17342 0.515104 0
M  V30 6650 C 600.976 4.89045 1.14631 0
M  V30 6651 C 602.97 6.37299 -0.113194 0
M  V30 6652 C 600.657 6.08933 0.514184 0
M  V30 6653 C 601.655 6.82904 -0.114463 0
M  V30 6654 O 601.343 8.00518 -0.736622 0
M  V30 6655 H 601.075 0.620715 0.267748 0
M  V30 6656 H 603.629 2.04637 0.176918 0
M  V30 6657 H 601.859 2.86544 2.59672 0
M  V30 6658 H 603.548 3.25027 2.4313 0
M  V30 6659 H 604.314 4.82317 0.509474 0
M  V30 6660 H 600.193 4.31409 1.62502 0
M  V30 6661 H 603.737 6.94976 -0.604477 0
M  V30 6662 H 599.634 6.43423 0.517395 0
M  V30 6663 H 600.402 8.16027 -0.635822 0
M  V30 6664 N 603.065 -0.440357 1.51323 0
M  V30 6665 C 604.028 -1.51679 1.71832 0
M  V30 6666 C 605.028 -1.49648 0.588386 0
M  V30 6667 O 606.218 -1.51724 0.855891 0
M  V30 6668 C 603.35 -2.91228 1.77199 0
M  V30 6669 H 604.543 -1.34799 2.67898 0
M  V30 6670 H 602.096 -0.66883 1.41267 0
M  V30 6671 H 602.831 -3.13516 0.829363 0
M  V30 6672 H 602.616 -2.94107 2.59314 0
M  V30 6673 H 604.106 -3.69321 1.94915 0
M  V30 6674 N 604.543 -1.41418 -0.695603 0
M  V30 6675 C 605.493 -1.39731 -1.80165 0
M  V30 6676 C 606.477 -0.271689 -1.5859 0
M  V30 6677 O 607.669 -0.512354 -1.69422 0
M  V30 6678 C 604.798 -1.28187 -3.1847 0
M  V30 6679 C 603.884 -2.45612 -3.45739 0
M  V30 6680 N 604.275 -3.71077 -3.43708 0
M  V30 6681 C 602.573 -2.39424 -3.76288 0
M  V30 6682 C 603.274 -4.48957 -3.69882 0
M  V30 6683 N 602.25 -3.7907 -3.89624 0
M  V30 6684 H 606.052 -2.34656 -1.76957 0
M  V30 6685 H 603.566 -1.35473 -0.89559 0
M  V30 6686 H 605.563 -1.2506 -3.977 0
M  V30 6687 H 604.223 -0.342468 -3.22889 0
M  V30 6688 H 605.234 -4.03963 -3.2409 0
M  V30 6689 H 601.911 -1.53955 -3.88077 0
M  V30 6690 H 603.301 -5.57887 -3.74448 0
M  V30 6691 N 606.021 0.929856 -1.27246 0
M  V30 6692 C 607.249 1.71144 -1.16265 0
M  V30 6693 C 607.664 1.867 0.280786 0
M  V30 6694 O 607.021 1.38249 1.19136 0
M  V30 6695 C 607.072 3.11222 -1.83911 0
M  V30 6696 O 606.793 2.96398 -3.22614 0
M  V30 6697 C 608.294 4.05541 -1.79028 0
M  V30 6698 H 605.514 0.535499 -0.404328 0
M  V30 6699 H 608.058 1.16492 -1.68077 0
M  V30 6700 H 606.213 3.6274 -1.36009 0
M  V30 6701 H 606.627 3.8494 -3.56261 0
M  V30 6702 H 608.101 5.01351 -2.30978 0
M  V30 6703 H 608.578 4.32589 -0.759168 0
M  V30 6704 H 609.184 3.59947 -2.26535 0
M  V30 6705 N 607.499 1.09233 1.13605 0
M  V30 6706 C 608.724 0.849067 1.89224 0
M  V30 6707 C 609.149 -0.593875 1.78479 0
M  V30 6708 O 608.507 -1.41703 1.13092 0
M  V30 6709 C 608.555 1.28642 3.36873 0
M  V30 6710 O 607.659 0.44363 4.10007 0
M  V30 6711 H 607 0.30767 0.588417 0
M  V30 6712 H 609.53 1.45595 1.43748 0
M  V30 6713 H 609.54 1.27096 3.87699 0
M  V30 6714 H 608.215 2.33729 3.44011 0
M  V30 6715 H 606.792 0.523241 3.69211 0
M  V30 6716 N 608.977 -1.30795 0.87923 0
M  V30 6717 C 609.887 -2.32041 0.345565 0
M  V30 6718 C 610.903 -1.65103 -0.549265 0
M  V30 6719 O 612.079 -1.9645 -0.443763 0
M  V30 6720 C 609.144 -3.43944 -0.436245 0
M  V30 6721 C 608.205 -4.26521 0.48765 0
M  V30 6722 C 607.438 -5.33081 -0.256943 0
M  V30 6723 O 607.661 -5.50762 -1.48381 0
M  V30 6724 O 606.595 -6.00635 0.389985 0
M  V30 6725 H 610.421 -2.79627 1.18501 0
M  V30 6726 H 608.006 -1.3486 0.642885 0
M  V30 6727 H 609.888 -4.12128 -0.879119 0
M  V30 6728 H 608.563 -2.98504 -1.25208 0
M  V30 6729 H 607.47 -3.61057 0.979216 0
M  V30 6730 H 608.803 -4.75551 1.26933 0
M  V30 6731 N 610.455 -0.639598 -1.44038 0
M  V30 6732 C 611.871 -0.305953 -1.5664 0
M  V30 6733 C 612.071 1.19055 -1.62567 0
M  V30 6734 O 611.127 1.97492 -1.57331 0
M  V30 6735 C 612.44 -1.00533 -2.83397 0
M  V30 6736 C 613.988 -0.984278 -2.97121 0
M  V30 6737 C 614.463 -1.66428 -4.26691 0
M  V30 6738 N 615.954 -1.63127 -4.33525 0
M  V30 6739 C 616.689 -2.12629 -5.32519 0
M  V30 6740 N 616.185 -2.70359 -6.3787 0
M  V30 6741 N 617.978 -2.03208 -5.24083 0
M  V30 6742 H 610.129 -1.6109 -1.38434 0
M  V30 6743 H 612.392 -0.676672 -0.663942 0
M  V30 6744 H 612.098 -2.06034 -2.85032 0
M  V30 6745 H 611.972 -0.548362 -3.73193 0
M  V30 6746 H 614.359 0.0622792 -2.95034 0
M  V30 6747 H 614.44 -1.47981 -2.08651 0
M  V30 6748 H 614.084 -2.71034 -4.29538 0
M  V30 6749 H 614.014 -1.14351 -5.14034 0
M  V30 6750 H 616.505 -1.20987 -3.58009 0
M  V30 6751 H 616.818 -3.05842 -7.09704 0
M  V30 6752 H 615.163 -2.74414 -6.38531 0
M  V30 6753 H 618.354 -1.57823 -4.40692 0
M  V30 6754 H 618.527 -2.42097 -6.01077 0
M  V30 6755 N 611.933 1.52934 -0.380664 0
M  V30 6756 C 613.163 2.05587 0.204302 0
M  V30 6757 C 613.571 1.25288 1.41773 0
M  V30 6758 O 612.914 0.290394 1.8139 0
M  V30 6759 C 612.976 3.53624 0.647324 0
M  V30 6760 C 612.64 4.54765 -0.451465 0
M  V30 6761 C 613.637 5.03226 -1.30614 0
M  V30 6762 C 611.322 4.98508 -0.616025 0
M  V30 6763 C 613.316 5.94046 -2.31058 0
M  V30 6764 C 611.003 5.89131 -1.62381 0
M  V30 6765 C 612.001 6.36792 -2.46952 0
M  V30 6766 O 611.689 7.25626 -3.46009 0
M  V30 6767 H 611.421 0.675013 0.0365198 0
M  V30 6768 H 613.975 1.98125 -0.541827 0
M  V30 6769 H 612.205 3.58676 1.44529 0
M  V30 6770 H 613.894 3.89061 1.15698 0
M  V30 6771 H 614.66 4.70167 -1.19027 0
M  V30 6772 H 610.539 4.60989 0.0324987 0
M  V30 6773 H 614.083 6.3117 -2.97104 0
M  V30 6774 H 609.98 6.21603 -1.7401 0
M  V30 6775 H 610.748 7.43664 -3.41916 0
M  V30 6776 N 613.412 0.11024 1.57214 0
M  V30 6777 C 614.659 -0.54987 1.94891 0
M  V30 6778 C 614.987 -1.67243 0.992984 0
M  V30 6779 O 614.242 -1.95694 0.0152703 0
M  V30 6780 C 614.541 -1.13102 3.39032 0
M  V30 6781 C 614.207 -0.130713 4.5071 0
M  V30 6782 C 612.869 0.14437 4.80983 0
M  V30 6783 C 615.221 0.551472 5.18274 0
M  V30 6784 C 612.549 1.10807 5.76141 0
M  V30 6785 C 614.901 1.50375 6.14467 0
M  V30 6786 C 613.565 1.78691 6.43138 0
M  V30 6787 H 612.835 -0.201212 0.713158 0
M  V30 6788 H 615.482 0.189288 1.90562 0
M  V30 6789 H 613.787 -1.94675 3.40013 0
M  V30 6790 H 615.484 -1.64973 3.65493 0
M  V30 6791 H 612.074 -0.355301 4.27125 0
M  V30 6792 H 616.258 0.35211 4.95049 0
M  V30 6793 H 611.514 1.3343 5.96663 0
M  V30 6794 H 615.688 2.03808 6.65909 0
M  V30 6795 H 613.315 2.53522 7.1668 0
M  V30 6796 N 614.89 -1.56749 -0.16351 0
M  V30 6797 C 616.167 -1.73321 -0.906599 0
M  V30 6798 C 616.547 -0.673779 -2.00059 0
M  V30 6799 O 615.895 0.310121 -2.26386 0
M  V30 6800 C 616.105 -3.168 -1.46419 0
M  V30 6801 C 617.453 -3.77993 -1.93407 0
M  V30 6802 O 618.477 -3.20127 -1.56196 0
M  V30 6803 O 617.336 -4.79615 -2.61976 0
M  V30 6804 H 614.43 -0.708073 -0.427272 0
M  V30 6805 H 616.976 -1.69029 -0.150727 0
M  V30 6806 H 615.748 -3.85396 -0.677189 0
M  V30 6807 H 615.371 -3.2545 -2.28403 0
M  V30 6808 N 616.368 0.432326 -1.51554 0
M  V30 6809 C 617.316 1.54572 -1.73811 0
M  V30 6810 C 618.31 1.58246 -0.604539 0
M  V30 6811 O 619.516 1.6193 -0.786041 0
M  V30 6812 H 615.891 0.513626 -0.549265 0
M  V30 6813 H 617.862 1.32977 -2.67132 0
M  V30 6814 C 616.611 2.92181 -1.88483 0
M  V30 6815 H 615.934 2.90088 -2.75116 0
M  V30 6816 H 617.374 3.69439 -2.08065 0
M  V30 6817 C 615.833 3.3065 -0.645909 0
M  V30 6818 O 616.363 4.01216 0.197093 0
M  V30 6819 N 614.569 2.86464 -0.488538 0
M  V30 6820 H 614.116 2.29209 -1.17562 0
M  V30 6821 H 614.074 3.12565 0.339156 0
M  V30 6822 N 617.846 1.41785 0.688094 0
M  V30 6823 C 619.257 1.3701 1.26828 0
M  V30 6824 C 619.608 0.056835 1.96118 0
M  V30 6825 O 618.733 -0.84475 1.99231 0
M  V30 6826 C 619.328 2.48168 2.30648 0
M  V30 6827 C 617.887 2.46766 2.84224 0
M  V30 6828 C 617.034 2.27633 1.58361 0
M  V30 6829 H 619.985 1.51192 0.482351 0
M  V30 6830 H 620.006 2.17655 3.121 0
M  V30 6831 H 619.518 3.43735 1.80188 0
M  V30 6832 H 617.619 1.54978 3.3884 0
M  V30 6833 H 617.732 3.43342 3.34145 0
M  V30 6834 H 616.096 1.75648 1.84445 0
M  V30 6835 H 616.879 3.25238 1.09887 0
M  V30 6836 N 619.324 -0.923095 1.27737 0
M  V30 6837 C 620.234 -2.05765 1.12685 0
M  V30 6838 C 621.25 -1.73911 0.0557197 0
M  V30 6839 O 622.426 -1.99674 0.263137 0
M  V30 6840 C 619.491 -3.37804 0.780363 0
M  V30 6841 C 618.552 -3.83326 1.93286 0
M  V30 6842 C 617.785 -5.09064 1.60281 0
M  V30 6843 O 618.008 -5.6809 0.512828 0
M  V30 6844 O 616.942 -5.50071 2.44347 0
M  V30 6845 H 620.768 -2.21378 2.07907 0
M  V30 6846 H 618.353 -1.04299 1.06968 0
M  V30 6847 H 620.235 -4.17097 0.600668 0
M  V30 6848 H 618.91 -3.23387 -0.142291 0
M  V30 6849 H 617.817 -3.049 2.16764 0
M  V30 6850 H 619.15 -4.02292 2.83588 0
M  V30 6851 N 620.802 -1.09834 -1.13024 0
M  V30 6852 C 622.079 -0.749225 -1.80682 0
M  V30 6853 C 622.459 0.765171 -1.96744 0
M  V30 6854 O 621.807 1.68912 -1.53886 0
M  V30 6855 C 622.017 -1.49311 -3.15448 0
M  V30 6856 C 623.365 -1.66162 -3.90737 0
M  V30 6857 O 624.389 -1.45597 -3.25085 0
M  V30 6858 O 623.248 -2.00211 -5.08505 0
M  V30 6859 H 620.342 -0.269614 -0.781817 0
M  V30 6860 H 622.888 -1.20078 -1.19914 0
M  V30 6861 H 621.66 -2.52407 -2.99009 0
M  V30 6862 H 621.283 -1.034 -3.8392 0
M  V30 6863 N 622.28 1.30327 -0.886154 0
M  V30 6864 C 623.527 1.96097 -0.505192 0
M  V30 6865 C 623.855 1.69952 0.945868 0
M  V30 6866 O 623.11 0.997653 1.68361 0
M  V30 6867 C 623.409 3.49906 -0.728042 0
M  V30 6868 C 623.075 3.96103 -2.15437 0
M  V30 6869 C 621.737 4.08428 -2.5444 0
M  V30 6870 C 624.089 4.20177 -3.08384 0
M  V30 6871 C 621.417 4.42189 -3.85598 0
M  V30 6872 C 623.769 4.55407 -4.39075 0
M  V30 6873 C 622.433 4.65941 -4.7797 0
M  V30 6874 H 621.703 0.71757 -0.184863 0
M  V30 6875 H 624.35 1.55171 -1.12223 0
M  V30 6876 H 622.655 3.9179 -0.027978 0
M  V30 6877 H 624.352 3.98869 -0.412862 0
M  V30 6878 H 620.942 3.87017 -1.84162 0
M  V30 6879 H 625.126 4.10134 -2.7947 0
M  V30 6880 H 620.382 4.48544 -4.15473 0
M  V30 6881 H 624.556 4.72986 -5.11133 0
M  V30 6882 H 622.183 4.91856 -5.79639 0
M  V30 6883 N 623.758 0.647228 1.43697 0
M  V30 6884 C 625.035 0.0883758 1.954 0
M  V30 6885 C 625.415 -1.39006 1.58873 0
M  V30 6886 O 624.763 -2.11255 0.87083 0
M  V30 6887 C 624.973 0.328263 3.47453 0
M  V30 6888 C 626.321 0.230009 4.23977 0
M  V30 6889 O 627.345 0.260496 3.55246 0
M  V30 6890 O 626.204 0.148615 5.46298 0
M  V30 6891 H 623.298 -0.0130683 0.826897 0
M  V30 6892 H 625.844 0.72005 1.53666 0
M  V30 6893 H 624.616 1.3535 3.67146 0
M  V30 6894 H 624.239 -0.336772 3.96171 0
M  V30 6895 N 625.236 -1.5273 0.388769 0
M  V30 6896 C 626.647 -1.86505 -0.0853788 0
M  V30 6897 C 626.998 -1.30847 -1.46197 0
M  V30 6898 O 626.123 -0.639609 -2.06732 0
M  V30 6899 C 626.718 -3.38414 -0.161703 0
M  V30 6900 C 625.277 -3.71902 -0.580144 0
M  V30 6901 C 624.424 -2.76095 0.258218 0
M  V30 6902 H 627.375 -1.46647 0.606665 0
M  V30 6903 H 627.396 -3.67638 -0.980936 0
M  V30 6904 H 626.908 -3.78893 0.840333 0
M  V30 6905 H 625.009 -3.36992 -1.58957 0
M  V30 6906 H 625.122 -4.77902 -0.338663 0
M  V30 6907 H 623.486 -2.53195 -0.276432 0
M  V30 6908 H 624.269 -3.19411 1.25822 0
M  V30 6909 N 626.714 -0.118576 -1.57153 0
M  V30 6910 C 627.942 0.54726 -1.99531 0
M  V30 6911 C 628.357 1.60251 -0.998246 0
M  V30 6912 O 627.714 1.82498 0.00893106 0
M  V30 6913 C 627.765 1.17378 -3.41913 0
M  V30 6914 O 627.486 0.160703 -4.37805 0
M  V30 6915 C 628.987 1.92297 -3.9942 0
M  V30 6916 H 626.207 0.144919 -0.655164 0
M  V30 6917 H 628.751 -0.20479 -2.03472 0
M  V30 6918 H 626.906 1.87661 -3.38913 0
M  V30 6919 H 627.32 0.61586 -5.20872 0
M  V30 6920 H 628.794 2.31462 -5.01128 0
M  V30 6921 H 629.271 2.79801 -3.38538 0
M  V30 6922 H 629.877 1.26777 -4.05965 0
M  V30 6923 N 628.193 1.56834 0.155195 0
M  V30 6924 C 629.609 1.51315 0.50755 0
M  V30 6925 C 629.809 0.825614 1.83809 0
M  V30 6926 O 628.865 0.39271 2.49427 0
M  V30 6927 C 630.178 2.96074 0.52542 0
M  V30 6928 C 631.726 3.06968 0.611505 0
M  V30 6929 C 632.201 4.53218 0.660115 0
M  V30 6930 N 633.692 4.5753 0.722564 0
M  V30 6931 C 634.427 5.68056 0.781023 0
M  V30 6932 N 633.923 6.88173 0.799327 0
M  V30 6933 N 635.716 5.56068 0.821278 0
M  V30 6934 H 627.867 1.9993 -0.717063 0
M  V30 6935 H 630.13 0.911507 -0.260496 0
M  V30 6936 H 629.836 3.49599 -0.383875 0
M  V30 6937 H 629.71 3.51587 1.36624 0
M  V30 6938 H 632.097 2.53468 1.51122 0
M  V30 6939 H 632.178 2.54513 -0.256306 0
M  V30 6940 H 631.822 5.07354 -0.23541 0
M  V30 6941 H 631.752 5.03447 1.5443 0
M  V30 6942 H 634.243 3.71054 0.716049 0
M  V30 6943 H 634.556 7.6816 0.845553 0
M  V30 6944 H 632.901 6.90751 0.767337 0
M  V30 6945 H 636.092 4.61142 0.804091 0
M  V30 6946 H 636.265 6.42223 0.863372 0
M  V30 6947 N 629.671 -0.424282 1.51781 0
M  V30 6948 C 630.917 -1.17117 1.66298 0
M  V30 6949 C 631.272 -1.88595 0.380767 0
M  V30 6950 O 630.565 -1.81151 -0.624094 0
M  V30 6951 C 630.759 -2.20418 2.81337 0
M  V30 6952 C 630.588 -1.59081 4.20622 0
M  V30 6953 C 629.358 -1.37007 4.86371 0
M  V30 6954 C 631.556 -1.05992 5.0326 0
M  V30 6955 N 629.538 -0.714049 6.09733 0
M  V30 6956 C 630.909 -0.529933 6.17731 0
M  V30 6957 C 632.964 -0.952927 4.88696 0
M  V30 6958 C 631.667 0.0965457 7.19235 0
M  V30 6959 C 633.693 -0.340325 5.9042 0
M  V30 6960 C 633.055 0.179057 7.04172 0
M  V30 6961 H 629.154 -0.41577 0.662314 0
M  V30 6962 H 631.738 -0.46579 1.89046 0
M  V30 6963 H 629.909 -2.8833 2.60231 0
M  V30 6964 H 631.641 -2.8736 2.84968 0
M  V30 6965 H 628.396 -1.63543 4.44467 0
M  V30 6966 H 628.82 -0.403101 6.75799 0
M  V30 6967 H 633.462 -1.34033 4.00993 0
M  V30 6968 H 631.18 0.496044 8.06576 0
M  V30 6969 H 634.766 -0.259266 5.81222 0
M  V30 6970 H 633.646 0.645626 7.81538 0
M  V30 6971 N 631.149 -1.42148 -0.680565 0
M  V30 6972 C 632.426 -1.32795 -1.43614 0
M  V30 6973 C 632.806 0.037415 -2.11067 0
M  V30 6974 O 632.154 1.05258 -2.02813 0
M  V30 6975 C 632.364 -2.49206 -2.44331 0
M  V30 6976 C 633.712 -2.91059 -3.09144 0
M  V30 6977 O 634.736 -2.49054 -2.54657 0
M  V30 6978 O 633.595 -3.63741 -4.07866 0
M  V30 6979 H 630.689 -0.523397 -0.640301 0
M  V30 6980 H 633.235 -1.54144 -0.709775 0
M  V30 6981 H 632.007 -3.40252 -1.93247 0
M  V30 6982 H 631.63 -2.29813 -3.24456 0
M  V30 6983 N 632.627 0.916307 -1.28225 0
M  V30 6984 C 633.855 1.69901 -1.18073 0
M  V30 6985 C 634.27 1.86988 0.260968 0
M  V30 6986 O 633.627 1.39505 1.17663 0
M  V30 6987 C 633.678 3.09254 -1.87201 0
M  V30 6988 O 633.399 2.92959 -3.2574 0
M  V30 6989 C 634.9 4.0362 -1.83319 0
M  V30 6990 H 632.12 0.531181 -0.409985 0
M  V30 6991 H 634.664 1.14703 -1.69303 0
M  V30 6992 H 632.819 3.61277 -1.39848 0
M  V30 6993 H 633.233 3.81139 -3.60324 0
M  V30 6994 H 634.707 4.98873 -2.36282 0
M  V30 6995 H 635.184 4.3176 -0.805007 0
M  V30 6996 H 635.79 3.57524 -2.3034 0
M  V30 6997 N 634.105 1.10431 1.1244 0
M  V30 6998 C 635.068 0.756542 2.16354 0
M  V30 6999 C 636.068 -0.21899 1.59302 0
M  V30 7000 O 637.258 0.00415969 1.742 0
M  V30 7001 C 634.39 0.120612 3.40687 0
M  V30 7002 H 635.583 1.67696 2.48632 0
M  V30 7003 H 633.136 0.904832 1.27446 0
M  V30 7004 H 633.871 -0.810536 3.14008 0
M  V30 7005 H 633.656 0.822693 3.83372 0
M  V30 7006 H 635.146 -0.106945 4.17463 0
M  V30 7007 N 635.583 -1.29855 0.893053 0
M  V30 7008 C 636.546 -2.26183 0.370687 0
M  V30 7009 C 637.546 -1.53108 -0.491385 0
M  V30 7010 O 638.736 -1.71643 -0.297386 0
M  V30 7011 C 635.868 -3.37633 -0.470827 0
M  V30 7012 H 637.061 -2.73903 1.22135 0
M  V30 7013 H 634.614 -1.41183 0.67061 0
M  V30 7014 H 635.349 -2.95241 -1.34175 0
M  V30 7015 H 635.134 -3.91825 0.146784 0
M  V30 7016 H 636.624 -4.09313 -0.827825 0
M  V30 7017 N 637.061 -0.65484 -1.43351 0
M  V30 7018 C 638.024 0.0263562 -2.29185 0
M  V30 7019 C 639.024 0.748951 -1.42293 0
M  V30 7020 O 640.214 0.589957 -1.63906 0
M  V30 7021 C 637.346 1.04806 -3.2439 0
M  V30 7022 H 638.539 -0.728883 -2.90908 0
M  V30 7023 H 636.092 -0.416149 -1.50658 0
M  V30 7024 H 636.827 1.83247 -2.67565 0
M  V30 7025 H 636.612 0.533554 -3.88453 0
M  V30 7026 H 638.102 1.52372 -3.88809 0
M  V30 7027 N 638.539 1.52521 -0.396863 0
M  V30 7028 C 639.486 2.26671 0.434624 0
M  V30 7029 C 640.456 1.28584 1.05144 0
M  V30 7030 O 641.641 1.57426 1.07804 0
M  V30 7031 C 638.781 3.08234 1.55196 0
M  V30 7032 C 637.894 4.21261 0.957262 0
M  V30 7033 C 637.029 4.90205 2.04627 0
M  V30 7034 C 636.068 5.95213 1.42787 0
M  V30 7035 N 635.205 6.57723 2.45651 0
M  V30 7036 H 640.045 2.973 -0.204139 0
M  V30 7037 H 637.582 1.46669 -0.112505 0
M  V30 7038 H 639.54 3.53819 2.2106 0
M  V30 7039 H 638.17 2.398 2.16092 0
M  V30 7040 H 637.222 3.79935 0.188005 0
M  V30 7041 H 638.534 4.96624 0.465416 0
M  V30 7042 H 637.688 5.39133 2.78246 0
M  V30 7043 H 636.427 4.14383 2.57174 0
M  V30 7044 H 635.432 5.45616 0.676968 0
M  V30 7045 H 636.657 6.72972 0.910255 0
M  V30 7046 H 634.603 5.84737 2.97353 0
M  V30 7047 H 634.52 7.28723 2.01243 0
M  V30 7048 H 635.788 7.11293 3.18876 0
M  V30 7049 N 640.017 0.126909 1.57088 0
M  V30 7050 C 640.98 -0.806097 2.14557 0
M  V30 7051 C 641.98 -1.18918 1.08236 0
M  V30 7052 O 643.17 -1.11339 1.33975 0
M  V30 7053 C 640.302 -2.09116 2.69227 0
M  V30 7054 H 641.495 -0.306522 2.98329 0
M  V30 7055 H 639.048 -0.122393 1.5582 0
M  V30 7056 H 639.783 -2.63486 1.89065 0
M  V30 7057 H 639.568 -1.82588 3.46993 0
M  V30 7058 H 641.058 -2.75794 3.13572 0
M  V30 7059 N 641.495 -1.56914 -0.146875 0
M  V30 7060 C 642.443 -1.99224 -1.20053 0
M  V30 7061 C 643.437 -0.884661 -1.44465 0
M  V30 7062 O 644.643 -1.06984 -1.44756 0
M  V30 7063 H 641.018 -0.634191 -0.404112 0
M  V30 7064 H 642.989 -2.86998 -0.816987 0
M  V30 7065 C 641.738 -2.38899 -2.52632 0
M  V30 7066 H 641.061 -3.23677 -2.34677 0
M  V30 7067 H 642.501 -2.72326 -3.24984 0
M  V30 7068 C 640.96 -1.2417 -3.13183 0
M  V30 7069 O 641.49 -0.542503 -3.9802 0
M  V30 7070 N 639.696 -1.00592 -2.72635 0
M  V30 7071 H 639.243 -1.57627 -2.03744 0
M  V30 7072 H 639.201 -0.240174 -3.13481 0
M  V30 7073 N 642.974 0.416227 -1.52004 0
M  V30 7074 C 644.199 1.19029 -1.69843 0
M  V30 7075 C 644.624 1.83708 -0.404103 0
M  V30 7076 O 643.982 1.69711 0.637787 0
M  V30 7077 C 644.03 2.23439 -2.83032 0
M  V30 7078 O 643.134 3.29419 -2.48106 0
M  V30 7079 H 642.475 0.347785 -0.565634 0
M  V30 7080 H 645.005 0.488871 -1.98674 0
M  V30 7081 H 645.015 2.67884 -3.07737 0
M  V30 7082 H 643.69 1.75745 -3.76944 0
M  V30 7083 H 642.267 2.90303 -2.34048 0
M  V30 7084 N 644.452 1.42507 0.673017 0
M  V30 7085 C 645.698 1.43284 1.43519 0
M  V30 7086 C 646.031 0.049668 1.94136 0
M  V30 7087 O 645.306 -0.926369 1.71022 0
M  V30 7088 C 645.589 2.45874 2.63093 0
M  V30 7089 C 645.442 3.93388 2.18096 0
M  V30 7090 C 646.761 2.45431 3.6531 0
M  V30 7091 H 643.88 0.521752 0.520522 0
M  V30 7092 H 646.522 1.73932 0.764701 0
M  V30 7093 H 644.672 2.19869 3.20296 0
M  V30 7094 H 646.344 4.30379 1.66046 0
M  V30 7095 H 644.587 4.07169 1.49652 0
M  V30 7096 H 645.258 4.60752 3.03993 0
M  V30 7097 H 647.734 2.68561 3.17827 0
M  V30 7098 H 646.61 3.19189 4.46553 0
M  V30 7099 H 646.871 1.48092 4.16559 0
M  V30 7100 N 645.93 -0.909495 1.28709 0
M  V30 7101 C 647.155 -1.69801 1.1909 0
M  V30 7102 C 647.58 -1.86479 -0.246388 0
M  V30 7103 O 646.938 -1.37802 -1.17815 0
M  V30 7104 C 646.986 -3.06543 1.89904 0
M  V30 7105 O 646.09 -3.94268 1.2094 0
M  V30 7106 H 645.431 -0.519783 0.413185 0
M  V30 7107 H 647.961 -1.13689 1.70106 0
M  V30 7108 H 647.971 -3.56748 1.97977 0
M  V30 7109 H 646.646 -2.93722 2.94449 0
M  V30 7110 H 645.223 -3.52702 1.2106 0
M  V30 7111 N 647.408 -1.11026 -1.11852 0
M  V30 7112 C 648.655 -0.85646 -1.83497 0
M  V30 7113 C 648.983 0.617938 -1.84423 0
M  V30 7114 O 648.238 1.47194 -1.28966 0
M  V30 7115 C 648.537 -1.35777 -3.30604 0
M  V30 7116 C 648.203 -2.84465 -3.49843 0
M  V30 7117 C 646.865 -3.25068 -3.54802 0
M  V30 7118 C 649.217 -3.80251 -3.56453 0
M  V30 7119 C 646.545 -4.60194 -3.63921 0
M  V30 7120 C 648.897 -5.15188 -3.67102 0
M  V30 7121 C 647.561 -5.55356 -3.70319 0
M  V30 7122 H 646.831 -0.313401 -0.671462 0
M  V30 7123 H 649.478 -1.38792 -1.31943 0
M  V30 7124 H 647.783 -0.746455 -3.84624 0
M  V30 7125 H 649.48 -1.13779 -3.8452 0
M  V30 7126 H 646.07 -2.52054 -3.46651 0
M  V30 7127 H 650.254 -3.49986 -3.51886 0
M  V30 7128 H 645.51 -4.90728 -3.64686 0
M  V30 7129 H 649.684 -5.89248 -3.71159 0
M  V30 7130 H 647.311 -6.60054 -3.77138 0
M  V30 7131 N 648.886 1.2938 -0.899927 0
M  V30 7132 C 649.834 2.29675 -0.367698 0
M  V30 7133 C 650.828 1.60787 0.533282 0
M  V30 7134 O 652.034 1.75126 0.416058 0
M  V30 7135 H 648.409 0.745284 -0.100279 0
M  V30 7136 H 650.38 2.72008 -1.22696 0
M  V30 7137 C 649.129 3.45512 0.389483 0
M  V30 7138 H 648.452 3.98713 -0.294575 0
M  V30 7139 H 649.892 4.17725 0.726744 0
M  V30 7140 C 648.351 2.969 1.59223 0
M  V30 7141 O 648.881 2.98195 2.69152 0
M  V30 7142 N 647.087 2.52728 1.43447 0
M  V30 7143 H 646.634 2.51873 0.540148 0
M  V30 7144 H 646.592 2.20561 2.24054 0
M  V30 7145 N 650.364 0.662433 1.43002 0
M  V30 7146 C 651.589 0.186003 2.06564 0
M  V30 7147 C 652.014 -1.14314 1.49379 0
M  V30 7148 O 651.372 -1.70824 0.607346 0
M  V30 7149 C 651.42 0.118269 3.60406 0
M  V30 7150 O 650.524 -0.916859 4.02079 0
M  V30 7151 H 649.865 0.0990981 0.656563 0
M  V30 7152 H 652.395 0.907958 1.8335 0
M  V30 7153 H 652.405 -0.0619981 4.07953 0
M  V30 7154 H 651.08 1.08849 4.01403 0
M  V30 7155 H 649.657 -0.708635 3.66105 0
M  V30 7156 N 651.842 -1.52309 0.404946 0
M  V30 7157 C 653.067 -2.06666 -0.1743 0
M  V30 7158 C 653.492 -1.27341 -1.38441 0
M  V30 7159 O 652.85 -0.302539 -1.78758 0
M  V30 7160 C 652.898 -3.57014 -0.507262 0
M  V30 7161 O 652.002 -3.80144 -1.59889 0
M  V30 7162 H 651.343 -0.663807 -0.0160273 0
M  V30 7163 H 653.873 -1.96297 0.576937 0
M  V30 7164 H 653.883 -4.00724 -0.767098 0
M  V30 7165 H 652.558 -4.14184 0.377368 0
M  V30 7166 H 651.135 -3.48316 -1.33155 0
M  V30 7167 N 653.32 -0.135238 -1.57019 0
M  V30 7168 C 654.597 0.563227 -1.87316 0
M  V30 7169 C 654.977 1.83749 -1.03921 0
M  V30 7170 O 654.325 2.2817 -0.122675 0
M  V30 7171 C 654.535 0.840031 -3.3874 0
M  V30 7172 C 655.883 1.18598 -4.077 0
M  V30 7173 O 656.907 0.92977 -3.43851 0
M  V30 7174 O 655.766 1.66758 -5.20436 0
M  V30 7175 H 652.86 0.285971 -0.775983 0
M  V30 7176 H 655.406 -0.170965 -1.68837 0
M  V30 7177 H 654.178 -0.0622785 -3.9125 0
M  V30 7178 H 653.801 1.62882 -3.62706 0
M  V30 7179 N 654.798 1.5699 0.138552 0
M  V30 7180 C 655.708 2.02174 1.19008 0
M  V30 7181 C 656.724 0.938622 1.46512 0
M  V30 7182 O 657.9 1.24872 1.58016 0
M  V30 7183 C 654.965 2.40045 2.50159 0
M  V30 7184 C 654.026 3.62346 2.30226 0
M  V30 7185 C 653.259 3.98401 3.55123 0
M  V30 7186 O 653.482 3.35019 4.61647 0
M  V30 7187 O 652.416 4.91606 3.47285 0
M  V30 7188 H 656.242 2.91954 0.836452 0
M  V30 7189 H 653.827 1.45293 0.347907 0
M  V30 7190 H 655.709 2.65225 3.27465 0
M  V30 7191 H 654.384 1.53417 2.85035 0
M  V30 7192 H 653.291 3.42341 1.50843 0
M  V30 7193 H 654.624 4.49617 2.00262 0
M  V30 7194 N 656.276 -0.40816 1.52223 0
M  V30 7195 C 657.522 -1.15673 1.66576 0
M  V30 7196 C 657.855 -1.90141 0.394996 0
M  V30 7197 O 657.13 -1.84798 -0.606613 0
M  V30 7198 C 657.413 -2.15042 2.88841 0
M  V30 7199 C 657.266 -1.44465 4.25969 0
M  V30 7200 C 658.585 -3.15699 3.0663 0
M  V30 7201 H 655.704 -0.41916 0.606196 0
M  V30 7202 H 658.346 -0.442348 1.84779 0
M  V30 7203 H 656.496 -2.75964 2.73452 0
M  V30 7204 H 658.168 -0.866544 4.53088 0
M  V30 7205 H 656.411 -0.746612 4.27327 0
M  V30 7206 H 657.082 -2.16976 5.07568 0
M  V30 7207 H 659.558 -2.64854 3.20923 0
M  V30 7208 H 658.434 -3.82491 3.9369 0
M  V30 7209 H 658.695 -3.83481 2.19987 0
M  V30 7210 N 657.755 -1.42862 -0.66545 0
M  V30 7211 C 659.032 -1.3431 -1.42197 0
M  V30 7212 C 659.412 0.0150265 -2.11095 0
M  V30 7213 O 658.76 1.03101 -2.03918 0
M  V30 7214 C 658.97 -2.51783 -2.41674 0
M  V30 7215 C 660.318 -2.94321 -3.0604 0
M  V30 7216 O 661.342 -2.51741 -2.52001 0
M  V30 7217 O 660.201 -3.68047 -4.03985 0
M  V30 7218 H 657.295 -0.530159 -0.634713 0
M  V30 7219 H 659.841 -1.54888 -0.693386 0
M  V30 7220 H 658.613 -3.42282 -1.89627 0
M  V30 7221 H 658.236 -2.33241 -3.22001 0
M  V30 7222 N 659.233 0.902656 -1.29189 0
M  V30 7223 C 660.463 1.68394 -1.19695 0
M  V30 7224 C 660.871 1.87602 0.245384 0
M  V30 7225 O 660.214 1.41084 1.17648 0
M  V30 7226 C 660.276 3.09094 -1.83578 0
M  V30 7227 C 659.94 3.1313 -3.32864 0
M  V30 7228 C 660.937 2.93497 -4.29134 0
M  V30 7229 C 658.622 3.3529 -3.74013 0
M  V30 7230 C 660.616 2.95953 -5.64527 0
M  V30 7231 C 658.303 3.37377 -5.09529 0
M  V30 7232 C 659.301 3.1773 -6.04596 0
M  V30 7233 O 658.989 3.196 -7.37639 0
M  V30 7234 H 658.721 0.532815 -0.416034 0
M  V30 7235 H 661.275 1.1374 -1.71033 0
M  V30 7236 H 659.505 3.65338 -1.26747 0
M  V30 7237 H 661.194 3.69297 -1.68447 0
M  V30 7238 H 661.96 2.76192 -3.98677 0
M  V30 7239 H 657.839 3.49623 -3.00474 0
M  V30 7240 H 661.383 2.80536 -6.38706 0
M  V30 7241 H 657.28 3.54213 -5.39633 0
M  V30 7242 H 658.048 3.35887 -7.46406 0
M  V30 7243 N 660.711 1.11618 1.11262 0
M  V30 7244 C 661.959 0.864469 1.82678 0
M  V30 7245 C 662.28 -0.611564 1.85162 0
M  V30 7246 O 661.55 -1.44429 1.32352 0
M  V30 7247 H 660.13 0.316821 0.676486 0
M  V30 7248 H 662.792 1.40894 1.34666 0
M  V30 7249 H 661.888 1.23832 2.86482 0
M  V30 7250 N 662.189 -1.289 0.906776 0
M  V30 7251 C 663.436 -1.95269 0.536326 0
M  V30 7252 C 663.764 -1.71435 -0.918711 0
M  V30 7253 O 663.019 -1.02431 -1.66752 0
M  V30 7254 C 663.318 -3.48704 0.783617 0
M  V30 7255 C 662.984 -3.92626 2.21711 0
M  V30 7256 C 661.646 -4.04329 2.60906 0
M  V30 7257 C 663.998 -4.15218 3.15029 0
M  V30 7258 C 661.326 -4.35998 3.92584 0
M  V30 7259 C 663.678 -4.48365 4.46264 0
M  V30 7260 C 662.342 -4.58278 4.85322 0
M  V30 7261 H 661.612 -0.714538 0.196256 0
M  V30 7262 H 664.259 -1.53366 1.14678 0
M  V30 7263 H 662.564 -3.91696 0.0903048 0
M  V30 7264 H 664.261 -3.98162 0.476267 0
M  V30 7265 H 660.851 -3.84038 1.90296 0
M  V30 7266 H 665.035 -4.05636 2.8596 0
M  V30 7267 H 660.291 -4.41878 4.22557 0
M  V30 7268 H 664.465 -4.64795 5.18593 0
M  V30 7269 H 662.092 -4.82573 5.87391 0
M  V30 7270 N 663.667 -0.670007 -1.42649 0
M  V30 7271 C 664.915 -0.18991 -2.01206 0
M  V30 7272 C 665.236 1.20617 -1.53221 0
M  V30 7273 O 664.506 1.80898 -0.751856 0
M  V30 7274 H 663.086 -0.0672189 -0.743969 0
M  V30 7275 H 665.748 -0.865442 -1.74631 0
M  V30 7276 H 664.844 -0.187481 -3.11536 0
M  V30 7277 N 665.145 1.52092 -0.413018 0
M  V30 7278 C 666.092 2.27119 0.410558 0
M  V30 7279 C 667.062 1.29692 1.03774 0
M  V30 7280 O 668.247 1.58561 1.06128 0
M  V30 7281 C 665.387 3.09863 1.51918 0
M  V30 7282 C 664.5 4.22252 0.912528 0
M  V30 7283 C 663.635 4.92348 1.99417 0
M  V30 7284 C 662.674 5.96694 1.36466 0
M  V30 7285 N 661.811 6.60292 2.38661 0
M  V30 7286 H 666.651 2.97067 -0.235661 0
M  V30 7287 H 664.188 1.46542 -0.128055 0
M  V30 7288 H 666.146 3.56144 2.17295 0
M  V30 7289 H 664.776 2.42078 2.13537 0
M  V30 7290 H 663.828 3.80113 0.147697 0
M  V30 7291 H 665.14 4.9709 0.412717 0
M  V30 7292 H 664.294 5.42054 2.72512 0
M  V30 7293 H 663.033 4.17087 2.52764 0
M  V30 7294 H 662.038 5.46304 0.61906 0
M  V30 7295 H 663.263 6.73899 0.838827 0
M  V30 7296 H 661.209 5.87858 2.91134 0
M  V30 7297 H 661.126 7.30816 1.93503 0
M  V30 7298 H 662.394 7.14635 3.11314 0
M  V30 7299 N 666.623 0.143563 1.56945 0
M  V30 7300 C 667.869 -0.50916 1.96304 0
M  V30 7301 C 668.202 -1.64741 1.0283 0
M  V30 7302 O 667.477 -1.94374 0.0700361 0
M  V30 7303 C 667.76 -1.0186 3.45393 0
M  V30 7304 C 667.613 0.117923 4.49645 0
M  V30 7305 C 668.932 -1.90151 3.96901 0
M  V30 7306 H 666.051 -0.183608 0.713763 0
M  V30 7307 H 668.693 0.224095 1.88674 0
M  V30 7308 H 666.843 -1.64345 3.52027 0
M  V30 7309 H 668.515 0.754145 4.55094 0
M  V30 7310 H 666.758 0.777568 4.26774 0
M  V30 7311 H 667.429 -0.280187 5.51288 0
M  V30 7312 H 669.905 -1.375 3.92725 0
M  V30 7313 H 668.781 -2.22707 5.0169 0
M  V30 7314 H 669.042 -2.83718 3.39052 0
M  V30 7315 N 668.101 -1.57061 -0.130224 0
M  V30 7316 C 669.326 -1.88802 -0.858409 0
M  V30 7317 C 669.751 -0.734353 -1.73173 0
M  V30 7318 O 669.109 0.315529 -1.78533 0
M  V30 7319 C 669.157 -3.19228 -1.67708 0
M  V30 7320 O 668.261 -3.04343 -2.78297 0
M  V30 7321 H 667.602 -0.619849 -0.238083 0
M  V30 7322 H 670.132 -2.04271 -0.115995 0
M  V30 7323 H 670.142 -3.51669 -2.06864 0
M  V30 7324 H 668.817 -4.02793 -1.0359 0
M  V30 7325 H 667.394 -2.83346 -2.42425 0
M  V30 7326 N 669.579 0.400081 -1.52437 0
M  V30 7327 C 670.526 1.48803 -1.76426 0
M  V30 7328 C 671.496 1.5461 -0.607032 0
M  V30 7329 O 672.681 1.71041 -0.845563 0
M  V30 7330 C 669.821 2.86156 -1.92896 0
M  V30 7331 C 668.934 2.89587 -3.20567 0
M  V30 7332 C 668.069 4.18296 -3.27417 0
M  V30 7333 C 667.108 4.15736 -4.49255 0
M  V30 7334 N 666.245 5.36032 -4.53447 0
M  V30 7335 H 671.085 1.27649 -2.69276 0
M  V30 7336 H 668.622 0.619451 -1.33421 0
M  V30 7337 H 670.58 3.65901 -2.00429 0
M  V30 7338 H 669.21 3.05785 -1.03418 0
M  V30 7339 H 668.262 2.02278 -3.22161 0
M  V30 7340 H 669.574 2.83562 -4.10358 0
M  V30 7341 H 668.728 5.06439 -3.34072 0
M  V30 7342 H 667.467 4.27028 -2.35581 0
M  V30 7343 H 666.472 3.25982 -4.42737 0
M  V30 7344 H 667.697 4.08636 -5.42396 0
M  V30 7345 H 665.643 5.45415 -3.64498 0
M  V30 7346 H 665.56 5.32038 -5.37096 0
M  V30 7347 H 666.828 6.26104 -4.64343 0
M  V30 7348 N 671.057 1.43213 0.657864 0
M  V30 7349 C 672.305 1.44298 1.41501 0
M  V30 7350 C 672.626 0.0666478 1.94886 0
M  V30 7351 O 671.896 -0.897345 1.74139 0
M  V30 7352 H 670.476 0.531257 0.525143 0
M  V30 7353 H 673.138 1.78777 0.776195 0
M  V30 7354 H 672.234 2.1528 2.25966 0
M  V30 7355 N 672.536 -0.895792 1.29666 0
M  V30 7356 C 673.782 -1.64908 1.18039 0
M  V30 7357 C 674.115 -1.9236 -0.266682 0
M  V30 7358 O 673.39 -1.53682 -1.19214 0
M  V30 7359 C 673.673 -2.99574 1.99819 0
M  V30 7360 C 673.526 -2.79163 3.52687 0
M  V30 7361 C 674.845 -4.00358 1.82761 0
M  V30 7362 H 671.964 -0.598437 0.430165 0
M  V30 7363 H 674.606 -1.03736 1.59182 0
M  V30 7364 H 672.756 -3.51786 1.64859 0
M  V30 7365 H 674.428 -2.33821 3.9765 0
M  V30 7366 H 672.671 -2.13871 3.77414 0
M  V30 7367 H 673.342 -3.74871 4.05186 0
M  V30 7368 H 675.818 -3.57268 2.13304 0
M  V30 7369 H 674.694 -4.92514 2.42325 0
M  V30 7370 H 674.955 -4.35096 0.783839 0
M  V30 7371 N 674.014 -1.12206 -1.10668 0
M  V30 7372 C 675.239 -0.898938 -1.86906 0
M  V30 7373 C 675.664 0.546346 -1.79991 0
M  V30 7374 O 675.022 1.38655 -1.1681 0
M  V30 7375 C 675.07 -1.37529 -3.33344 0
M  V30 7376 O 674.174 -0.55218 -4.08687 0
M  V30 7377 H 673.515 -0.323163 -0.580053 0
M  V30 7378 H 676.045 -1.49355 -1.39837 0
M  V30 7379 H 676.055 -1.3733 -3.84193 0
M  V30 7380 H 674.73 -2.42767 -3.37693 0
M  V30 7381 H 673.307 -0.620947 -3.67694 0
M  V30 7382 N 675.492 1.28418 -0.913599 0
M  V30 7383 C 676.717 1.99643 -0.561899 0
M  V30 7384 C 677.142 1.67819 0.849608 0
M  V30 7385 O 676.5 0.910503 1.56779 0
M  V30 7386 C 676.548 3.52116 -0.777622 0
M  V30 7387 O 675.652 4.12076 0.163457 0
M  V30 7388 H 674.993 0.627229 -0.217898 0
M  V30 7389 H 677.523 1.63575 -1.229 0
M  V30 7390 H 677.533 4.02163 -0.687666 0
M  V30 7391 H 676.208 3.74613 -1.8066 0
M  V30 7392 H 674.785 3.72892 0.0247827 0
M  V30 7393 N 676.97 0.677563 1.42291 0
M  V30 7394 C 678.381 0.277912 1.8462 0
M  V30 7395 C 678.732 -1.18048 1.56714 0
M  V30 7396 O 677.857 -1.90404 1.02836 0
M  V30 7397 C 678.452 0.497619 3.35126 0
M  V30 7398 C 677.011 0.152063 3.76093 0
M  V30 7399 C 676.158 0.78872 2.65847 0
M  V30 7400 H 679.109 0.879527 1.32098 0
M  V30 7401 H 679.13 -0.24939 3.79682 0
M  V30 7402 H 678.642 1.55913 3.55405 0
M  V30 7403 H 676.743 -0.905896 3.6142 0
M  V30 7404 H 676.856 0.594514 4.75397 0
M  V30 7405 H 675.22 0.219813 2.5375 0
M  V30 7406 H 676.003 1.85374 2.88949 0
M  V30 7407 N 678.448 -1.51871 0.421078 0
M  V30 7408 C 679.678 -2.06057 -0.149723 0
M  V30 7409 C 680.086 -1.29002 -1.38402 0
M  V30 7410 O 679.429 -0.338385 -1.80556 0
M  V30 7411 C 679.491 -3.55216 -0.553339 0
M  V30 7412 C 679.155 -4.53408 0.571879 0
M  V30 7413 C 680.152 -4.99586 1.4391 0
M  V30 7414 C 677.837 -4.967 0.747979 0
M  V30 7415 C 679.831 -5.87711 2.46727 0
M  V30 7416 C 677.518 -5.84619 1.77944 0
M  V30 7417 C 678.516 -6.30021 2.63748 0
M  V30 7418 O 678.204 -7.16197 3.65126 0
M  V30 7419 H 677.936 -0.675744 -0.0186102 0
M  V30 7420 H 680.49 -1.96618 0.594166 0
M  V30 7421 H 678.72 -3.62381 -1.34969 0
M  V30 7422 H 680.409 -3.91992 -1.05342 0
M  V30 7423 H 681.175 -4.66846 1.31451 0
M  V30 7424 H 677.054 -4.60913 0.0897357 0
M  V30 7425 H 680.598 -6.2307 3.13734 0
M  V30 7426 H 676.495 -6.16771 1.90429 0
M  V30 7427 H 677.263 -7.34337 3.61512 0
M  V30 7428 N 679.926 -0.151884 -1.56866 0
M  V30 7429 C 680.856 0.781943 -2.20018 0
M  V30 7430 C 681.837 1.25347 -1.14987 0
M  V30 7431 O 683.022 1.31015 -1.43348 0
M  V30 7432 C 680.152 2.01928 -2.82564 0
M  V30 7433 C 679.106 1.68434 -3.93464 0
M  V30 7434 C 678.432 2.99472 -4.42968 0
M  V30 7435 C 679.732 0.927244 -5.14003 0
M  V30 7436 H 681.426 0.255607 -2.98307 0
M  V30 7437 H 678.972 0.121502 -1.43486 0
M  V30 7438 H 680.925 2.67741 -3.25411 0
M  V30 7439 H 679.649 2.56943 -2.01614 0
M  V30 7440 H 678.308 1.04998 -3.51242 0
M  V30 7441 H 677.956 3.52488 -3.58834 0
M  V30 7442 H 677.656 2.77823 -5.17772 0
M  V30 7443 H 679.18 3.66348 -4.88489 0
M  V30 7444 H 680.594 1.48756 -5.53665 0
M  V30 7445 H 678.991 0.810513 -5.94601 0
M  V30 7446 H 680.061 -0.0801163 -4.84834 0
M  V30 7447 N 681.404 1.57128 0.121893 0
M  V30 7448 C 682.815 1.73902 0.679348 0
M  V30 7449 C 683.166 0.770135 1.80453 0
M  V30 7450 O 682.291 -0.0576083 2.16323 0
M  V30 7451 C 682.886 3.15328 1.2391 0
M  V30 7452 C 681.445 3.33618 1.74288 0
M  V30 7453 C 680.592 2.6978 0.641414 0
M  V30 7454 H 683.543 1.58359 -0.104 0
M  V30 7455 H 683.564 3.16718 2.10879 0
M  V30 7456 H 683.076 3.85821 0.419957 0
M  V30 7457 H 681.177 2.68162 2.58689 0
M  V30 7458 H 681.29 4.4176 1.85432 0
M  V30 7459 H 679.654 2.30935 1.0743 0
M  V30 7460 H 680.437 3.42895 -0.166707 0
M  V30 7461 N 682.882 -0.391992 1.52647 0
M  V30 7462 C 684.129 -1.13732 1.67545 0
M  V30 7463 C 684.457 -1.90045 0.413881 0
M  V30 7464 O 683.712 -1.86157 -0.603646 0
M  V30 7465 C 684.011 -2.14401 2.85949 0
M  V30 7466 C 683.677 -1.54767 4.23507 0
M  V30 7467 C 682.339 -1.38229 4.60919 0
M  V30 7468 C 684.691 -1.11382 5.0916 0
M  V30 7469 C 682.019 -0.7685 5.81645 0
M  V30 7470 C 684.371 -0.514143 6.30507 0
M  V30 7471 C 683.035 -0.33604 6.66654 0
M  V30 7472 H 682.305 -0.416174 0.613091 0
M  V30 7473 H 684.952 -0.422327 1.86785 0
M  V30 7474 H 683.257 -2.92108 2.61114 0
M  V30 7475 H 684.954 -2.71974 2.94671 0
M  V30 7476 H 681.544 -1.68626 3.94035 0
M  V30 7477 H 685.728 -1.22962 4.80826 0
M  V30 7478 H 680.984 -0.618681 6.08262 0
M  V30 7479 H 685.158 -0.169657 6.96193 0
M  V30 7480 H 682.785 0.14166 7.60068 0
M  V30 7481 N 684.36 -1.4356 -0.65026 0
M  V30 7482 C 685.608 -1.45046 -1.40734 0
M  V30 7483 C 685.929 -0.0769822 -1.94848 0
M  V30 7484 O 685.199 0.888098 -1.74613 0
M  V30 7485 H 683.779 -0.534034 -0.522318 0
M  V30 7486 H 686.441 -1.79186 -0.766703 0
M  V30 7487 H 685.537 -2.16476 -2.24822 0
M  V30 7488 N 685.838 0.888903 -1.30139 0
M  V30 7489 C 687.086 1.63713 -1.18501 0
M  V30 7490 C 687.407 1.9324 0.261399 0
M  V30 7491 O 686.677 1.56608 1.17689 0
M  V30 7492 H 685.257 0.606861 -0.435579 0
M  V30 7493 H 687.919 1.06525 -1.63213 0
M  V30 7494 H 687.015 2.58894 -1.743 0
M  V30 7495 N 687.317 1.12792 1.10072 0
M  V30 7496 C 688.565 0.883796 1.81751 0
M  V30 7497 C 688.886 -0.591891 1.858 0
M  V30 7498 O 688.156 -1.43017 1.33876 0
M  V30 7499 H 686.736 0.323978 0.673088 0
M  V30 7500 H 689.398 1.42314 1.33164 0
M  V30 7501 H 688.494 1.26863 2.85153 0
M  V30 7502 N 688.795 -1.27931 0.920396 0
M  V30 7503 C 690.211 -1.47085 0.619537 0
M  V30 7504 C 690.411 -1.83463 -0.833291 0
M  V30 7505 O 689.467 -1.94363 -1.61181 0
M  V30 7506 C 690.78 -2.56878 1.56314 0
M  V30 7507 C 692.328 -2.70743 1.57058 0
M  V30 7508 C 692.803 -3.83687 2.50097 0
M  V30 7509 N 694.294 -3.9105 2.48262 0
M  V30 7510 C 695.029 -4.77842 3.16945 0
M  V30 7511 N 694.525 -5.69176 3.94982 0
M  V30 7512 N 696.318 -4.71509 3.06 0
M  V30 7513 H 688.469 -1.02601 1.85975 0
M  V30 7514 H 690.732 -0.511682 0.798051 0
M  V30 7515 H 690.438 -2.36923 2.59923 0
M  V30 7516 H 690.312 -3.54117 1.29928 0
M  V30 7517 H 692.699 -2.90083 0.541832 0
M  V30 7518 H 692.78 -1.74015 1.8749 0
M  V30 7519 H 692.424 -3.65101 3.53077 0
M  V30 7520 H 692.354 -4.79827 2.16964 0
M  V30 7521 H 694.845 -3.25738 1.91581 0
M  V30 7522 H 695.158 -6.32245 4.44394 0
M  V30 7523 H 693.503 -5.68995 3.99086 0
M  V30 7524 H 696.694 -3.99151 2.44533 0
M  V30 7525 H 696.867 -5.38933 3.59799 0
M  V30 7526 N 690.273 -0.685099 -1.4193 0
M  V30 7527 C 691.223 0.00977295 -2.27998 0
M  V30 7528 C 692.207 0.763315 -1.41641 0
M  V30 7529 O 693.399 0.640532 -1.65004 0
M  V30 7530 C 690.528 0.952972 -3.29808 0
M  V30 7531 C 689.614 0.196231 -4.23646 0
M  V30 7532 N 690.005 -0.804401 -4.99363 0
M  V30 7533 C 688.303 0.433213 -4.43891 0
M  V30 7534 C 689.004 -1.25646 -5.67968 0
M  V30 7535 N 687.98 -0.5844 -5.4045 0
M  V30 7536 H 691.782 -0.757586 -2.83968 0
M  V30 7537 H 689.296 -0.515037 -1.54017 0
M  V30 7538 H 691.293 1.46585 -3.9028 0
M  V30 7539 H 689.953 1.72004 -2.75399 0
M  V30 7540 H 690.964 -1.18429 -5.04177 0
M  V30 7541 H 687.641 1.17899 -4.00507 0
M  V30 7542 H 689.031 -2.08622 -6.38691 0
M  V30 7543 N 691.751 1.51645 -0.429126 0
M  V30 7544 C 693.167 1.59394 -0.080994 0
M  V30 7545 C 693.367 1.44064 1.40882 0
M  V30 7546 O 692.423 1.27771 2.17786 0
M  V30 7547 C 693.736 2.94779 -0.593773 0
M  V30 7548 C 695.284 3.08067 -0.553494 0
M  V30 7549 C 695.759 4.45963 -1.04311 0
M  V30 7550 N 697.25 4.5226 -1.00076 0
M  V30 7551 C 697.985 5.57268 -1.35056 0
M  V30 7552 N 697.481 6.69734 -1.77282 0
M  V30 7553 N 699.274 5.47582 -1.26925 0
M  V30 7554 H 691.425 1.59856 -1.39857 0
M  V30 7555 H 693.688 0.753095 -0.575805 0
M  V30 7556 H 693.394 3.11342 -1.63583 0
M  V30 7557 H 693.268 3.77197 -0.0142202 0
M  V30 7558 H 695.655 2.91177 0.479556 0
M  V30 7559 H 695.736 2.27508 -1.16935 0
M  V30 7560 H 695.38 4.63598 -2.07459 0
M  V30 7561 H 695.31 5.25049 -0.403873 0
M  V30 7562 H 697.801 3.71537 -0.690564 0
M  V30 7563 H 698.114 7.4587 -2.02232 0
M  V30 7564 H 696.459 6.70963 -1.81202 0
M  V30 7565 H 699.65 4.58604 -0.93809 0
M  V30 7566 H 699.823 6.29308 -1.54516 0
M  V30 7567 N 693.229 0.160201 1.56784 0
M  V30 7568 C 694.469 -0.490179 1.98435 0
M  V30 7569 C 694.833 -1.61164 1.04355 0
M  V30 7570 O 696.034 -2.3238 1.35103 0
M  V30 7571 C 694.305 -0.971106 3.43954 0
M  V30 7572 S 695.864 -1.62423 4.07632 0
M  V30 7573 H 692.682 -0.158056 0.693209 0
M  V30 7574 H 695.284 0.255036 1.93829 0
M  V30 7575 H 693.988 -0.144323 4.10146 0
M  V30 7576 H 693.519 -1.75063 3.52302 0
M  V30 7577 H 695.534 -2.91199 4.01768 0
M  V30 7578 N 694.707 -1.5719 -0.113559 0
M  V30 7579 C 695.956 -1.84325 -0.818984 0
M  V30 7580 C 696.269 -0.746685 -1.80787 0
M  V30 7581 O 697.475 -0.904596 -2.55987 0
M  V30 7582 C 695.931 -3.26818 -1.50724 0
M  V30 7583 C 695.539 -4.44498 -0.559065 0
M  V30 7584 C 697.283 -3.63196 -2.19748 0
M  V30 7585 C 695.19 -5.7802 -1.25086 0
M  V30 7586 H 694.12 -0.687507 -0.309596 0
M  V30 7587 H 696.771 -1.8336 -0.0717621 0
M  V30 7588 H 695.153 -3.22269 -2.30128 0
M  V30 7589 H 696.327 -4.60356 0.202146 0
M  V30 7590 H 694.642 -4.16393 0.024495 0
M  V30 7591 H 697.239 -4.60226 -2.72206 0
M  V30 7592 H 697.582 -2.90899 -2.97798 0
M  V30 7593 H 698.115 -3.69553 -1.47226 0
M  V30 7594 H 694.854 -6.53501 -0.511539 0
M  V30 7595 H 694.374 -5.66038 -1.98395 0
M  V30 7596 H 696.053 -6.2196 -1.78253 0
M  V30 7597 N 696.185 0.383891 -1.52853 0
M  V30 7598 C 697.433 1.12619 -1.67814 0
M  V30 7599 C 697.754 1.90354 -0.423141 0
M  V30 7600 O 697.024 1.87649 0.562554 0
M  V30 7601 H 695.604 0.418738 -0.618601 0
M  V30 7602 H 698.266 0.43495 -1.89985 0
M  V30 7603 H 697.362 1.82624 -2.5309 0
M  V30 7604 N 697.663 1.43903 0.642637 0
M  V30 7605 C 698.573 1.52349 1.78401 0
M  V30 7606 C 699.589 0.409869 1.69104 0
M  V30 7607 O 700.765 0.665548 1.90085 0
M  V30 7608 C 697.83 1.45408 3.14734 0
M  V30 7609 C 696.891 2.67528 3.35749 0
M  V30 7610 C 696.124 2.60909 4.65577 0
M  V30 7611 O 696.347 1.6627 5.45628 0
M  V30 7612 O 695.281 3.5158 4.88544 0
M  V30 7613 H 699.107 2.48752 1.7423 0
M  V30 7614 H 696.692 1.26021 0.802439 0
M  V30 7615 H 698.574 1.44019 3.96026 0
M  V30 7616 H 697.249 0.521437 3.19473 0
M  V30 7617 H 696.156 2.74487 2.5418 0
M  V30 7618 H 697.489 3.598 3.35864 0
M  V30 7619 N 699.141 -0.881989 1.30609 0
M  V30 7620 C 700.073 -1.99375 1.13058 0
M  V30 7621 C 701.086 -1.62636 0.0729879 0
M  V30 7622 O 702.275 -1.75621 0.319301 0
M  V30 7623 C 699.375 -3.31536 0.702651 0
M  V30 7624 C 698.548 -3.96693 1.84265 0
M  V30 7625 C 697.607 -5.07158 1.40277 0
M  V30 7626 O 696.633 -5.28628 2.11048 0
M  V30 7627 N 697.835 -5.79808 0.283449 0
M  V30 7628 H 700.6 -2.14981 2.08814 0
M  V30 7629 H 698.161 -1.05526 1.22784 0
M  V30 7630 H 700.153 -4.02804 0.391331 0
M  V30 7631 H 698.723 -3.12175 -0.162954 0
M  V30 7632 H 697.943 -3.1856 2.32192 0
M  V30 7633 H 699.231 -4.36964 2.60653 0
M  V30 7634 H 698.629 -5.64871 -0.306189 0
M  V30 7635 H 697.186 -6.51792 0.0315985 0
M  V30 7636 N 700.619 -1.13374 -1.09472 0
M  V30 7637 C 701.866 -0.89519 -1.81639 0
M  V30 7638 C 702.194 0.57868 -1.85692 0
M  V30 7639 O 701.449 1.44426 -1.32059 0
M  V30 7640 C 701.748 -1.42759 -3.2765 0
M  V30 7641 C 701.414 -2.91822 -3.43731 0
M  V30 7642 C 700.076 -3.32521 -3.47827 0
M  V30 7643 C 702.428 -3.87727 -3.48307 0
M  V30 7644 C 699.756 -4.6781 -3.54078 0
M  V30 7645 C 702.108 -5.22859 -3.56091 0
M  V30 7646 C 700.772 -5.63086 -3.58456 0
M  V30 7647 H 700.042 -0.327573 -0.664663 0
M  V30 7648 H 702.689 -1.4156 -1.28969 0
M  V30 7649 H 700.994 -0.827871 -3.82954 0
M  V30 7650 H 702.691 -1.2191 -3.8202 0
M  V30 7651 H 699.281 -2.5935 -3.41226 0
M  V30 7652 H 703.465 -3.57371 -3.44383 0
M  V30 7653 H 698.721 -4.98353 -3.54195 0
M  V30 7654 H 702.895 -5.96989 -3.58577 0
M  V30 7655 H 700.522 -6.67905 -3.63052 0
M  V30 7656 N 702.098 1.27442 -0.927168 0
M  V30 7657 C 703.061 2.2512 -0.430525 0
M  V30 7658 C 704.061 1.54357 0.450619 0
M  V30 7659 O 705.251 1.72371 0.251774 0
M  V30 7660 C 702.383 3.38763 0.381144 0
M  V30 7661 H 703.576 2.70569 -1.29354 0
M  V30 7662 H 701.129 1.39355 -0.707806 0
M  V30 7663 H 701.864 2.98695 1.263 0
M  V30 7664 H 701.649 3.91298 -0.250618 0
M  V30 7665 H 703.139 4.11364 0.719012 0
M  V30 7666 N 703.576 0.692616 1.41565 0
M  V30 7667 C 704.806 0.230943 2.05305 0
M  V30 7668 C 705.214 -1.12379 1.52209 0
M  V30 7669 O 704.557 -1.71281 0.663968 0
M  V30 7670 C 704.619 0.107894 3.59338 0
M  V30 7671 C 704.283 1.39419 4.35214 0
M  V30 7672 C 705.28 2.33143 4.64694 0
M  V30 7673 C 702.965 1.64674 4.74539 0
M  V30 7674 C 704.959 3.50385 5.32456 0
M  V30 7675 C 702.646 2.82202 5.42038 0
M  V30 7676 C 703.644 3.74881 5.70923 0
M  V30 7677 O 703.332 4.90351 6.37033 0
M  V30 7678 H 703.064 0.105708 0.667684 0
M  V30 7679 H 705.618 0.94488 1.82376 0
M  V30 7680 H 703.848 -0.661785 3.80995 0
M  V30 7681 H 705.537 -0.316213 4.04666 0
M  V30 7682 H 706.303 2.14887 4.34797 0
M  V30 7683 H 702.182 0.934007 4.51439 0
M  V30 7684 H 705.726 4.22743 5.54918 0
M  V30 7685 H 701.623 3.00376 5.71353 0
M  V30 7686 H 702.391 4.90128 6.55528 0
M  V30 7687 N 705.054 -1.51416 0.437162 0
M  V30 7688 C 706.3 -2.02386 -0.129555 0
M  V30 7689 C 706.633 -1.32071 -1.42376 0
M  V30 7690 O 705.908 -0.43559 -1.8956 0
M  V30 7691 C 706.191 -3.5841 -0.348487 0
M  V30 7692 C 706.044 -4.39341 0.964352 0
M  V30 7693 C 707.363 -4.25654 -1.11834 0
M  V30 7694 H 704.482 -0.735587 -0.0456109 0
M  V30 7695 H 707.124 -1.81055 0.576124 0
M  V30 7696 H 705.274 -3.76716 -0.949592 0
M  V30 7697 H 706.946 -4.32685 1.59942 0
M  V30 7698 H 705.189 -4.04432 1.56898 0
M  V30 7699 H 705.86 -5.4667 0.765212 0
M  V30 7700 H 708.336 -4.11617 -0.609165 0
M  V30 7701 H 707.212 -5.34704 -1.24029 0
M  V30 7702 H 707.473 -3.86502 -2.14636 0
M  V30 7703 N 706.532 -0.168513 -1.56696 0
M  V30 7704 C 707.464 0.794249 -2.14998 0
M  V30 7705 C 708.477 1.1957 -1.10485 0
M  V30 7706 O 709.666 1.13604 -1.37682 0
M  V30 7707 C 706.766 2.08018 -2.67547 0
M  V30 7708 C 705.939 1.84274 -3.96689 0
M  V30 7709 C 704.998 2.97059 -4.3433 0
M  V30 7710 O 704.024 2.67815 -5.02259 0
M  V30 7711 N 705.226 4.24775 -3.9566 0
M  V30 7712 H 707.991 0.295832 -2.98236 0
M  V30 7713 H 705.552 0.0143611 -1.61894 0
M  V30 7714 H 707.544 2.82559 -2.89729 0
M  V30 7715 H 706.114 2.49059 -1.88914 0
M  V30 7716 H 705.334 0.936528 -3.82914 0
M  V30 7717 H 706.622 1.65773 -4.81037 0
M  V30 7718 H 706.02 4.51395 -3.40968 0
M  V30 7719 H 704.577 4.96027 -4.22848 0
M  V30 7720 N 708.01 1.57248 0.105221 0
M  V30 7721 C 708.94 2.04374 1.12931 0
M  V30 7722 C 709.921 0.93074 1.42377 0
M  V30 7723 O 711.106 1.20136 1.52581 0
M  V30 7724 C 708.236 2.45967 2.45189 0
M  V30 7725 C 707.19 3.60838 2.30174 0
M  V30 7726 C 706.516 3.88374 3.67518 0
M  V30 7727 C 707.816 4.92084 1.75073 0
M  V30 7728 H 709.51 2.9018 0.737287 0
M  V30 7729 H 707.056 1.39601 0.353211 0
M  V30 7730 H 709.009 2.77542 3.17094 0
M  V30 7731 H 707.733 1.57148 2.86308 0
M  V30 7732 H 706.392 3.29493 1.60716 0
M  V30 7733 H 706.04 2.96739 4.06147 0
M  V30 7734 H 705.74 4.65703 3.58321 0
M  V30 7735 H 707.264 4.22415 4.40906 0
M  V30 7736 H 708.678 5.22106 2.36809 0
M  V30 7737 H 707.075 5.73507 1.76662 0
M  V30 7738 H 708.145 4.79684 0.709347 0
M  V30 7739 N 709.488 -0.375779 1.53054 0
M  V30 7740 C 710.736 -1.11727 1.68409 0
M  V30 7741 C 711.057 -1.90127 0.43323 0
M  V30 7742 O 710.327 -1.87945 -0.552595 0
M  V30 7743 H 708.907 -0.415451 0.620813 0
M  V30 7744 H 711.569 -0.424869 1.90213 0
M  V30 7745 H 710.665 -1.8128 2.54055 0
M  V30 7746 N 710.966 -1.44241 -0.634997 0
M  V30 7747 C 712.194 -1.50296 -1.42193 0
M  V30 7748 C 712.609 -0.12658 -1.88375 0
M  V30 7749 O 711.966 0.86678 -1.60603 0
M  V30 7750 C 712.017 -2.46437 -2.64482 0
M  V30 7751 O 711.738 -3.78724 -2.20226 0
M  V30 7752 C 713.239 -2.61918 -3.57651 0
M  V30 7753 H 710.459 -0.509865 -0.43621 0
M  V30 7754 H 713.003 -1.89167 -0.776921 0
M  V30 7755 H 711.158 -2.10712 -3.25083 0
M  V30 7756 H 711.572 -4.30595 -2.9948 0
M  V30 7757 H 713.046 -3.33225 -4.40074 0
M  V30 7758 H 713.523 -1.67017 -4.06204 0
M  V30 7759 H 714.129 -2.98528 -3.02921 0
M  V30 7760 N 712.444 0.87505 -1.31075 0
M  V30 7761 C 713.693 1.62245 -1.19831 0
M  V30 7762 C 714.006 1.94078 0.24357 0
M  V30 7763 O 715.212 2.67265 0.477646 0
M  V30 7764 C 713.668 2.92464 -2.09744 0
M  V30 7765 C 713.276 2.68134 -3.58898 0
M  V30 7766 C 715.02 3.70449 -2.07287 0
M  V30 7767 C 712.927 3.9423 -4.40836 0
M  V30 7768 H 711.857 0.608741 -0.444916 0
M  V30 7769 H 714.508 0.967947 -1.55894 0
M  V30 7770 H 712.89 3.59262 -1.66574 0
M  V30 7771 H 714.064 2.09776 -4.10281 0
M  V30 7772 H 712.379 2.03511 -3.6328 0
M  V30 7773 H 714.976 4.63983 -2.65752 0
M  V30 7774 H 715.319 4.02611 -1.05876 0
M  V30 7775 H 715.852 3.10528 -2.48631 0
M  V30 7776 H 712.591 3.67221 -5.42982 0
M  V30 7777 H 712.111 4.52058 -3.94213 0
M  V30 7778 H 713.79 4.62162 -4.52786 0
M  V30 7779 N 713.922 1.13953 1.08869 0
M  V30 7780 C 714.852 0.844824 2.17681 0
M  V30 7781 C 715.833 -0.198213 1.68941 0
M  V30 7782 O 717.018 -0.0559073 1.9412 0
M  V30 7783 C 714.148 0.316325 3.45856 0
M  V30 7784 C 713.102 1.29426 4.07962 0
M  V30 7785 C 712.428 0.625275 5.31031 0
M  V30 7786 C 713.728 2.65484 4.49795 0
M  V30 7787 H 715.422 1.75471 2.42591 0
M  V30 7788 H 712.968 0.845116 1.16592 0
M  V30 7789 H 714.921 0.0977876 4.21287 0
M  V30 7790 H 713.645 -0.628972 3.20486 0
M  V30 7791 H 712.304 1.49889 3.34558 0
M  V30 7792 H 711.952 -0.325678 5.01945 0
M  V30 7793 H 711.652 1.27777 5.73539 0
M  V30 7794 H 713.176 0.416152 6.0918 0
M  V30 7795 H 714.59 2.48957 5.16424 0
M  V30 7796 H 712.987 3.26963 5.03205 0
M  V30 7797 H 714.057 3.22717 3.61914 0
M  V30 7798 N 715.4 -1.26948 0.933913 0
M  V30 7799 C 716.628 -1.98186 0.59414 0
M  V30 7800 C 717.043 -1.69614 -0.829257 0
M  V30 7801 O 716.4 -0.960213 -1.55197 0
M  V30 7802 C 716.451 -3.52123 0.818026 0
M  V30 7803 O 716.172 -3.79698 2.18543 0
M  V30 7804 C 717.673 -4.40608 0.48781 0
M  V30 7805 H 714.893 -0.632305 0.224569 0
M  V30 7806 H 717.437 -1.61646 1.25263 0
M  V30 7807 H 715.592 -3.86851 0.206246 0
M  V30 7808 H 716.006 -4.7426 2.24005 0
M  V30 7809 H 717.48 -5.47606 0.695126 0
M  V30 7810 H 717.957 -4.35394 -0.576913 0
M  V30 7811 H 718.563 -4.11411 1.078 0
M  V30 7812 N 716.879 -0.700114 -1.41195 0
M  V30 7813 C 718.107 -0.242179 -2.05478 0
M  V30 7814 C 718.522 1.11029 -1.52702 0
M  V30 7815 O 717.879 1.69473 -0.677127 0
M  V30 7816 C 717.93 -0.196271 -3.60967 0
M  V30 7817 O 717.651 -1.49532 -4.11791 0
M  V30 7818 C 719.152 0.282102 -4.42401 0
M  V30 7819 H 716.372 -0.111749 -0.661629 0
M  V30 7820 H 718.916 -0.953975 -1.80885 0
M  V30 7821 H 717.071 0.46638 -3.84582 0
M  V30 7822 H 717.485 -1.38545 -5.05871 0
M  V30 7823 H 718.959 0.263093 -5.51373 0
M  V30 7824 H 719.436 1.32174 -4.1884 0
M  V30 7825 H 720.042 -0.349712 -4.2386 0
M  V30 7826 N 718.357 1.51182 -0.445186 0
M  V30 7827 C 719.604 2.02152 0.118645 0
M  V30 7828 C 719.932 1.32888 1.42025 0
M  V30 7829 O 719.187 0.435041 1.90803 0
M  V30 7830 C 719.486 3.55408 0.376797 0
M  V30 7831 C 719.152 4.43008 -0.839945 0
M  V30 7832 C 717.814 4.66669 -1.17361 0
M  V30 7833 C 720.166 4.9435 -1.65127 0
M  V30 7834 C 717.494 5.38919 -2.31913 0
M  V30 7835 C 719.846 5.67857 -2.78786 0
M  V30 7836 C 718.51 5.89779 -3.12597 0
M  V30 7837 H 717.78 0.739727 0.0434152 0
M  V30 7838 H 720.427 1.82055 -0.593984 0
M  V30 7839 H 718.732 3.73879 1.1714 0
M  V30 7840 H 720.429 3.92388 0.826602 0
M  V30 7841 H 717.019 4.24793 -0.569958 0
M  V30 7842 H 721.203 4.75947 -1.4067 0
M  V30 7843 H 716.459 5.54105 -2.58413 0
M  V30 7844 H 720.633 6.06628 -3.42017 0
M  V30 7845 H 718.26 6.45542 -4.01471 0
M  V30 7846 N 719.835 0.176821 1.56605 0
M  V30 7847 C 721.081 -0.467406 1.9734 0
M  V30 7848 C 721.414 -1.62523 1.06301 0
M  V30 7849 O 720.689 -1.94182 0.11125 0
M  V30 7850 C 720.972 -0.945106 3.47476 0
M  V30 7851 C 720.825 0.213273 4.49294 0
M  V30 7852 C 722.144 -1.8169 4.00845 0
M  V30 7853 H 719.263 -0.168426 0.717497 0
M  V30 7854 H 721.905 0.264065 1.88156 0
M  V30 7855 H 720.055 -1.56841 3.55434 0
M  V30 7856 H 721.727 0.850508 4.53392 0
M  V30 7857 H 719.97 0.867918 4.25029 0
M  V30 7858 H 720.641 -0.163187 5.51759 0
M  V30 7859 H 723.117 -1.29139 3.95553 0
M  V30 7860 H 721.993 -2.12015 5.06301 0
M  V30 7861 H 722.254 -2.76463 3.44994 0
M  V30 7862 N 721.313 -1.57302 -0.09688 0
M  V30 7863 C 722.543 -1.89926 -0.813114 0
M  V30 7864 C 722.951 -0.76852 -1.72888 0
M  V30 7865 O 722.294 0.268549 -1.81726 0
M  V30 7866 C 722.356 -3.17787 -1.68082 0
M  V30 7867 C 722.02 -4.4729 -0.937061 0
M  V30 7868 C 723.017 -5.1921 -0.267687 0
M  V30 7869 C 720.702 -4.93957 -0.911671 0
M  V30 7870 C 722.696 -6.36034 0.417129 0
M  V30 7871 C 720.383 -6.10693 -0.223068 0
M  V30 7872 C 721.381 -6.8158 0.440155 0
M  V30 7873 O 721.069 -7.96092 1.11772 0
M  V30 7874 H 720.801 -0.632783 -0.237828 0
M  V30 7875 H 723.355 -2.05248 -0.0790818 0
M  V30 7876 H 721.585 -2.98607 -2.45705 0
M  V30 7877 H 723.274 -3.36257 -2.27346 0
M  V30 7878 H 724.04 -4.84198 -0.278774 0
M  V30 7879 H 719.919 -4.38671 -1.41734 0
M  V30 7880 H 723.463 -6.91301 0.93537 0
M  V30 7881 H 719.36 -6.45159 -0.209821 0
M  V30 7882 H 720.128 -8.12064 1.02443 0
M  V30 7883 N 722.791 0.367657 -1.53252 0
M  V30 7884 C 723.739 1.47061 -1.8021 0
M  V30 7885 C 724.733 1.55539 -0.671112 0
M  V30 7886 O 725.939 1.58451 -0.854014 0
M  V30 7887 H 722.314 0.489868 -0.570555 0
M  V30 7888 H 724.285 1.21527 -2.72532 0
M  V30 7889 C 723.034 2.83924 -2.00706 0
M  V30 7890 H 722.357 2.78158 -2.87172 0
M  V30 7891 H 723.797 3.60281 -2.23547 0
M  V30 7892 C 722.256 3.27613 -0.785568 0
M  V30 7893 O 722.786 4.01691 0.0267459 0
M  V30 7894 N 720.992 2.84134 -0.609597 0
M  V30 7895 H 720.539 2.24017 -1.27178 0
M  V30 7896 H 720.497 3.13723 0.206281 0
M  V30 7897 N 724.269 1.44576 0.627338 0
M  V30 7898 C 725.199 1.54562 1.75022 0
M  V30 7899 C 726.18 0.398378 1.65369 0
M  V30 7900 O 727.365 0.61899 1.84071 0
M  V30 7901 C 724.495 1.49309 3.13567 0
M  V30 7902 C 723.449 2.62549 3.38012 0
M  V30 7903 C 722.775 2.42348 4.76625 0
M  V30 7904 C 724.075 4.04678 3.30202 0
M  V30 7905 H 725.769 2.4855 1.66922 0
M  V30 7906 H 723.315 1.19624 0.801636 0
M  V30 7907 H 725.268 1.54895 3.919 0
M  V30 7908 H 723.992 0.518392 3.2246 0
M  V30 7909 H 722.651 2.56358 2.62061 0
M  V30 7910 H 722.299 1.43062 4.82226 0
M  V30 7911 H 721.999 3.18273 4.93939 0
M  V30 7912 H 723.523 2.49758 5.57183 0
M  V30 7913 H 724.937 4.12217 3.98435 0
M  V30 7914 H 723.334 4.80836 3.5905 0
M  V30 7915 H 724.404 4.2798 2.27949 0
M  V30 7916 N 725.747 -0.868086 1.31537 0
M  V30 7917 C 727.163 -1.15414 1.10235 0
M  V30 7918 C 727.363 -2.01106 -0.125947 0
M  V30 7919 O 726.419 -2.38994 -0.814734 0
M  V30 7920 C 727.732 -1.84445 2.37488 0
M  V30 7921 C 729.28 -1.97139 2.43116 0
M  V30 7922 C 729.755 -2.69585 3.70254 0
M  V30 7923 N 731.246 -2.77119 3.71159 0
M  V30 7924 C 731.981 -3.33791 4.6623 0
M  V30 7925 N 731.477 -3.9138 5.71659 0
M  V30 7926 N 733.27 -3.31767 4.53747 0
M  V30 7927 H 725.421 -0.297109 2.10312 0
M  V30 7928 H 727.684 -0.194227 0.92789 0
M  V30 7929 H 727.39 -1.2893 3.27215 0
M  V30 7930 H 727.264 -2.84709 2.47428 0
M  V30 7931 H 729.651 -2.51818 1.53856 0
M  V30 7932 H 729.732 -0.95912 2.37138 0
M  V30 7933 H 729.376 -2.15572 4.59881 0
M  V30 7934 H 729.306 -3.71223 3.73499 0
M  V30 7935 H 731.797 -2.3625 2.94948 0
M  V30 7936 H 732.11 -4.3274 6.40278 0
M  V30 7937 H 730.455 -3.8975 5.7543 0
M  V30 7938 H 733.646 -2.86016 3.70557 0
M  V30 7939 H 733.819 -3.75636 5.28017 0
M  V30 7940 N 727.225 -1.14528 -1.08264 0
M  V30 7941 C 728.471 -0.925721 -1.81113 0
M  V30 7942 C 728.826 0.54185 -1.84612 0
M  V30 7943 O 728.119 1.39628 -1.31205 0
M  V30 7944 C 728.313 -1.46226 -3.26117 0
M  V30 7945 C 728.142 -2.98047 -3.36746 0
M  V30 7946 C 726.912 -3.66508 -3.4785 0
M  V30 7947 C 729.11 -3.95903 -3.28277 0
M  V30 7948 N 727.092 -5.06227 -3.47285 0
M  V30 7949 C 728.463 -5.21883 -3.34721 0
M  V30 7950 C 730.518 -3.88002 -3.12024 0
M  V30 7951 C 729.221 -6.40886 -3.26585 0
M  V30 7952 C 731.247 -5.06553 -3.05219 0
M  V30 7953 C 730.609 -6.31403 -3.12266 0
M  V30 7954 H 726.708 -0.392294 -0.676483 0
M  V30 7955 H 729.292 -1.45567 -1.293 0
M  V30 7956 H 727.463 -0.959076 -3.76373 0
M  V30 7957 H 729.195 -1.18247 -3.8704 0
M  V30 7958 H 725.95 -3.17067 -3.51804 0
M  V30 7959 H 726.374 -5.79172 -3.50555 0
M  V30 7960 H 731.016 -2.9235 -3.05436 0
M  V30 7961 H 728.734 -7.36781 -3.31934 0
M  V30 7962 H 732.32 -5.02191 -2.93761 0
M  V30 7963 H 731.2 -7.21596 -3.07032 0
M  V30 7964 N 728.703 1.26451 -0.940633 0
M  V30 7965 C 729.931 1.97868 -0.604642 0
M  V30 7966 C 730.346 1.70051 0.820251 0
M  V30 7967 O 729.703 0.96843 1.54686 0
M  V30 7968 C 729.754 3.51684 -0.836689 0
M  V30 7969 O 729.475 3.78533 -2.20554 0
M  V30 7970 C 730.976 4.40343 -0.511169 0
M  V30 7971 H 728.196 0.631105 -0.227919 0
M  V30 7972 H 730.74 1.60979 -1.26119 0
M  V30 7973 H 728.895 3.86736 -0.226759 0
M  V30 7974 H 729.309 4.73065 -2.26517 0
M  V30 7975 H 730.783 5.47229 -0.724157 0
M  V30 7976 H 731.26 4.35694 0.553815 0
M  V30 7977 H 731.866 4.10834 -1.0998 0
M  V30 7978 N 730.181 0.707592 1.40822 0
M  V30 7979 C 731.43 0.240705 2.00259 0
M  V30 7980 C 731.743 -1.17027 1.56729 0
M  V30 7981 O 732.949 -1.73526 2.08809 0
M  V30 7982 C 731.405 0.379432 3.57894 0
M  V30 7983 C 731.013 1.79654 4.104 0
M  V30 7984 C 732.757 -0.0270684 4.24491 0
M  V30 7985 C 730.664 1.88628 5.60512 0
M  V30 7986 H 729.594 0.0862369 0.749052 0
M  V30 7987 H 732.245 0.877528 1.61157 0
M  V30 7988 H 730.627 -0.325842 3.94657 0
M  V30 7989 H 731.801 2.53155 3.85032 0
M  V30 7990 H 730.116 2.15379 3.56372 0
M  V30 7991 H 732.713 0.0193743 5.34696 0
M  V30 7992 H 733.056 -1.06772 4.02375 0
M  V30 7993 H 733.589 0.628361 3.92806 0
M  V30 7994 H 730.328 2.90787 5.87472 0
M  V30 7995 H 729.848 1.19528 5.8777 0
M  V30 7996 H 731.527 1.6547 6.25483 0
M  V30 7997 N 731.66 -1.50943 0.453197 0
M  V30 7998 C 732.937 -1.94872 -0.168633 0
M  V30 7999 C 733.317 -1.39272 -1.5864 0
M  V30 8000 O 732.665 -0.586272 -2.20851 0
M  V30 8001 C 732.875 -3.48757 -0.130217 0
M  V30 8002 C 734.223 -4.23331 -0.327975 0
M  V30 8003 O 735.247 -3.55594 -0.207619 0
M  V30 8004 O 734.106 -5.43529 -0.569077 0
M  V30 8005 H 731.2 -0.818042 -0.121394 0
M  V30 8006 H 733.746 -1.61782 0.512316 0
M  V30 8007 H 732.518 -3.81725 0.860346 0
M  V30 8008 H 732.141 -3.88333 -0.853397 0
M  V30 8009 N 733.138 -0.185124 -1.56509 0
M  V30 8010 C 734.386 0.455357 -1.96903 0
M  V30 8011 C 734.707 1.62839 -1.07277 0
M  V30 8012 O 733.977 1.95385 -0.141966 0
M  V30 8013 H 732.557 0.171218 -0.727113 0
M  V30 8014 H 735.219 -0.26953 -1.93027 0
M  V30 8015 H 734.315 0.80616 -3.01509 0
M  V30 8016 N 734.616 1.57351 0.0885366 0
M  V30 8017 C 735.846 1.90355 0.80303 0
M  V30 8018 C 736.254 0.777678 1.72478 0
M  V30 8019 O 735.597 -0.258908 1.81866 0
M  V30 8020 C 735.659 3.18674 1.66395 0
M  V30 8021 C 735.323 4.4778 0.913327 0
M  V30 8022 C 736.32 5.19345 0.240148 0
M  V30 8023 C 734.005 4.94434 0.885462 0
M  V30 8024 C 735.999 6.35803 -0.450854 0
M  V30 8025 C 733.686 6.10802 0.190679 0
M  V30 8026 C 734.684 6.81337 -0.476295 0
M  V30 8027 O 734.372 7.95488 -1.15992 0
M  V30 8028 H 734.104 0.634035 0.234469 0
M  V30 8029 H 736.658 2.05287 0.0681959 0
M  V30 8030 H 734.888 2.99906 2.44117 0
M  V30 8031 H 736.577 3.37458 2.2556 0
M  V30 8032 H 737.343 4.84339 0.253092 0
M  V30 8033 H 733.222 4.39417 1.39406 0
M  V30 8034 H 736.766 6.90795 -0.972019 0
M  V30 8035 H 732.663 6.45261 0.175603 0
M  V30 8036 H 733.431 8.11509 -1.06749 0
M  V30 8037 N 736.094 -0.359525 1.53444 0
M  V30 8038 C 737.041 -1.44073 1.8031 0
M  V30 8039 C 738.011 -1.52946 0.647811 0
M  V30 8040 O 739.196 -1.68739 0.890614 0
M  V30 8041 C 736.336 -2.80941 2.00416 0
M  V30 8042 C 735.449 -2.80986 3.28132 0
M  V30 8043 C 734.584 -4.09468 3.38393 0
M  V30 8044 C 733.623 -4.03679 4.60119 0
M  V30 8045 N 732.76 -5.23821 4.675 0
M  V30 8046 H 737.6 -1.20464 2.72566 0
M  V30 8047 H 735.137 -0.583859 1.35017 0
M  V30 8048 H 737.095 -3.60459 2.1006 0
M  V30 8049 H 735.725 -3.02936 1.11489 0
M  V30 8050 H 734.777 -1.93666 3.27411 0
M  V30 8051 H 736.089 -2.72583 4.17732 0
M  V30 8052 H 735.243 -4.97404 3.47382 0
M  V30 8053 H 733.982 -4.20632 2.4682 0
M  V30 8054 H 732.987 -3.14129 4.51224 0
M  V30 8055 H 734.212 -3.94112 5.5304 0
M  V30 8056 H 732.158 -5.35559 3.7883 0
M  V30 8057 H 732.075 -5.17611 5.51013 0
M  V30 8058 H 733.343 -6.13572 4.8078 0
M  V30 8059 N 737.572 -1.44907 -0.619662 0
M  V30 8060 C 738.818 -1.48512 -1.38102 0
M  V30 8061 C 739.151 -0.121686 -1.93818 0
M  V30 8062 O 738.426 0.862256 -1.74343 0
M  V30 8063 C 738.709 -2.55469 -2.53787 0
M  V30 8064 C 738.562 -4.01212 -2.03345 0
M  V30 8065 C 739.881 -2.58821 -3.55949 0
M  V30 8066 H 737 -0.540712 -0.500799 0
M  V30 8067 H 739.642 -1.7665 -0.69962 0
M  V30 8068 H 737.792 -2.31606 -3.11915 0
M  V30 8069 H 739.464 -4.36245 -1.49959 0
M  V30 8070 H 737.707 -4.12443 -1.34438 0
M  V30 8071 H 738.378 -4.71717 -2.86683 0
M  V30 8072 H 740.854 -2.80172 -3.07641 0
M  V30 8073 H 739.73 -3.35542 -4.34399 0
M  V30 8074 H 739.991 -1.63451 -4.10775 0
M  V30 8075 N 739.05 0.861098 -1.31996 0
M  V30 8076 C 740.461 1.43065 -1.19955 0
M  V30 8077 C 740.812 1.95273 0.190489 0
M  V30 8078 O 739.937 1.87012 1.08882 0
M  V30 8079 C 740.532 2.60052 -2.1716 0
M  V30 8080 C 739.091 3.13026 -2.09026 0
M  V30 8081 C 738.238 1.85756 -2.05888 0
M  V30 8082 H 741.189 0.668834 -1.43918 0
M  V30 8083 H 741.21 3.37016 -1.76637 0
M  V30 8084 H 740.722 2.22024 -3.18319 0
M  V30 8085 H 738.823 3.55653 -1.11092 0
M  V30 8086 H 738.936 3.74707 -2.98549 0
M  V30 8087 H 737.3 2.05088 -1.51033 0
M  V30 8088 H 738.083 1.49954 -3.08818 0
M  V30 8089 N 740.528 1.15101 1.07655 0
M  V30 8090 C 741.805 0.834578 1.76902 0
M  V30 8091 C 742.185 -0.670431 2.00171 0
M  V30 8092 O 741.533 -1.61378 1.6177 0
M  V30 8093 C 741.743 1.64191 3.07965 0
M  V30 8094 C 743.091 1.84615 3.82364 0
M  V30 8095 O 744.115 1.60941 3.17768 0
M  V30 8096 O 742.974 2.24244 4.98374 0
M  V30 8097 H 740.068 0.306608 0.768063 0
M  V30 8098 H 742.614 1.25663 1.14048 0
M  V30 8099 H 741.386 2.66386 2.86626 0
M  V30 8100 H 741.009 1.216 3.78549 0
M  V30 8101 N 742.006 -1.2595 0.947325 0
M  V30 8102 C 743.417 -1.75389 0.639963 0
M  V30 8103 C 743.768 -1.77081 -0.844788 0
M  V30 8104 O 742.893 -1.3869 -1.66114 0
M  V30 8105 C 743.488 -3.18506 1.15496 0
M  V30 8106 C 742.047 -3.65534 0.897894 0
M  V30 8107 C 741.194 -2.44818 1.30228 0
M  V30 8108 H 744.145 -1.1194 1.12495 0
M  V30 8109 H 744.166 -3.77045 0.511627 0
M  V30 8110 H 743.678 -3.17243 2.23559 0
M  V30 8111 H 741.779 -3.72221 -0.168096 0
M  V30 8112 H 741.892 -4.54039 1.52922 0
M  V30 8113 H 740.256 -2.44291 0.720678 0
M  V30 8114 H 741.039 -2.46251 2.39198 0
M  V30 8115 N 743.484 -0.715051 -1.40445 0
M  V30 8116 C 744.761 -0.181503 -1.94756 0
M  V30 8117 C 745.141 1.31268 -1.65324 0
M  V30 8118 O 744.489 2.0686 -0.970631 0
M  V30 8119 C 744.699 -0.493663 -3.45491 0
M  V30 8120 C 746.047 -0.432032 -4.22396 0
M  V30 8121 O 747.071 -0.429692 -3.53599 0
M  V30 8122 O 745.93 -0.409091 -5.44967 0
M  V30 8123 H 743.024 -0.0263989 -0.826579 0
M  V30 8124 H 745.57 -0.792546 -1.50056 0
M  V30 8125 H 744.342 -1.52713 -3.6027 0
M  V30 8126 H 743.965 0.14737 -3.97327 0
M  V30 8127 N 744.962 1.50701 -0.461195 0
M  V30 8128 C 746.192 2.06381 0.0950376 0
M  V30 8129 C 746.6 1.32627 1.34933 0
M  V30 8130 O 745.943 0.386137 1.79596 0
M  V30 8131 C 746.005 3.56558 0.458965 0
M  V30 8132 C 745.669 4.51732 -0.691891 0
M  V30 8133 C 746.666 4.95594 -1.57105 0
M  V30 8134 C 744.351 4.94542 -0.879407 0
M  V30 8135 C 746.345 5.80963 -2.62223 0
M  V30 8136 C 744.032 5.79695 -1.93382 0
M  V30 8137 C 745.03 6.22806 -2.80359 0
M  V30 8138 O 744.718 7.06265 -3.83986 0
M  V30 8139 H 744.45 0.676 0.000687488 0
M  V30 8140 H 747.004 1.94974 -0.646087 0
M  V30 8141 H 745.234 3.65832 1.25314 0
M  V30 8142 H 746.923 3.94647 0.949124 0
M  V30 8143 H 747.689 4.63197 -1.43783 0
M  V30 8144 H 743.568 4.60513 -0.211907 0
M  V30 8145 H 747.112 6.14533 -3.30143 0
M  V30 8146 H 743.009 6.11506 -2.06715 0
M  V30 8147 H 743.777 7.24494 -3.80855 0
M  V30 8148 N 746.441 0.193421 1.56409 0
M  V30 8149 C 747.666 -0.454552 2.02358 0
M  V30 8150 C 748.091 -1.54516 1.07268 0
M  V30 8151 O 747.449 -1.81214 0.0558962 0
M  V30 8152 C 747.497 -0.989469 3.46759 0
M  V30 8153 O 746.601 -2.10244 3.54783 0
M  V30 8154 H 745.942 -0.106417 0.655417 0
M  V30 8155 H 748.472 0.303807 2.02332 0
M  V30 8156 H 748.482 -1.30649 3.86516 0
M  V30 8157 H 747.157 -0.191083 4.15461 0
M  V30 8158 H 745.734 -1.79419 3.26899 0
M  V30 8159 N 747.919 -1.57396 -0.0801906 0
M  V30 8160 C 749.144 -1.91437 -0.797909 0
M  V30 8161 C 749.569 -0.789075 -1.70749 0
M  V30 8162 O 748.927 0.25857 -1.79447 0
M  V30 8163 C 748.975 -3.24402 -1.57467 0
M  V30 8164 O 748.079 -3.13043 -2.68473 0
M  V30 8165 H 747.42 -0.627109 -0.218243 0
M  V30 8166 H 749.95 -2.04537 -0.050949 0
M  V30 8167 H 749.96 -3.58072 -1.95571 0
M  V30 8168 H 748.635 -4.05884 -0.907229 0
M  V30 8169 H 747.212 -2.90915 -2.33287 0
M  V30 8170 N 749.397 0.351382 -1.53633 0
M  V30 8171 C 750.33 1.45407 -1.75875 0
M  V30 8172 C 751.308 1.50822 -0.607566 0
M  V30 8173 O 752.492 1.68658 -0.841818 0
M  V30 8174 C 749.619 2.8369 -1.85034 0
M  V30 8175 C 748.665 2.95935 -3.07123 0
M  V30 8176 S 749.498 2.63215 -4.66345 0
M  V30 8177 C 750.654 4.03622 -4.78373 0
M  V30 8178 H 750.887 1.26322 -2.69128 0
M  V30 8179 H 748.42 0.546581 -1.44402 0
M  V30 8180 H 750.378 3.6336 -1.90996 0
M  V30 8181 H 749.039 3.00076 -0.928074 0
M  V30 8182 H 748.232 3.97243 -3.10183 0
M  V30 8183 H 747.834 2.24205 -2.99346 0
M  V30 8184 H 750.126 4.98046 -4.593 0
M  V30 8185 H 751.069 4.05559 -5.80454 0
M  V30 8186 H 751.477 3.91282 -4.06889 0
M  V30 8187 N 750.875 1.45233 0.611969 0
M  V30 8188 C 752.121 1.49242 1.37312 0
M  V30 8189 C 752.454 0.131963 1.93751 0
M  V30 8190 O 751.729 -0.852999 1.74798 0
M  V30 8191 C 752.012 2.56811 2.52428 0
M  V30 8192 C 751.865 4.02284 2.01215 0
M  V30 8193 C 753.184 2.60705 3.54572 0
M  V30 8194 H 750.303 0.54336 0.497925 0
M  V30 8195 H 752.945 1.77019 0.690242 0
M  V30 8196 H 751.095 2.33256 3.10683 0
M  V30 8197 H 752.767 4.37035 1.47643 0
M  V30 8198 H 751.01 4.1315 1.32248 0
M  V30 8199 H 751.681 4.7323 2.84178 0
M  V30 8200 H 754.157 2.81799 3.06151 0
M  V30 8201 H 753.033 3.37841 4.32614 0
M  V30 8202 H 753.294 1.65627 4.09903 0
M  V30 8203 N 752.353 -0.854086 1.3245 0
M  V30 8204 C 753.599 -1.61069 1.23225 0
M  V30 8205 C 753.932 -1.93111 -0.205349 0
M  V30 8206 O 753.207 -1.57397 -1.14265 0
M  V30 8207 C 753.49 -2.93065 2.09249 0
M  V30 8208 C 753.343 -2.67801 3.6139 0
M  V30 8209 C 754.662 -3.94341 1.95406 0
M  V30 8210 H 751.781 -0.584449 0.448986 0
M  V30 8211 H 754.423 -0.986189 1.62402 0
M  V30 8212 H 752.573 -3.46364 1.75967 0
M  V30 8213 H 754.245 -2.21052 4.04887 0
M  V30 8214 H 752.488 -2.01756 3.84027 0
M  V30 8215 H 753.159 -3.6179 4.16907 0
M  V30 8216 H 755.635 -3.50301 2.24562 0
M  V30 8217 H 754.511 -4.84555 2.57872 0
M  V30 8218 H 754.772 -4.32382 0.921865 0
M  V30 8219 N 753.831 -1.1567 -1.07043 0
M  V30 8220 C 754.761 -0.879348 -2.16309 0
M  V30 8221 C 755.742 0.171311 -1.69235 0
M  V30 8222 O 756.927 0.0250175 -1.94184 0
M  V30 8223 C 754.057 -0.371307 -3.45309 0
M  V30 8224 C 753.011 -1.359 -4.05851 0
M  V30 8225 C 752.337 -0.709678 -5.29969 0
M  V30 8226 C 753.637 -2.72606 -4.45514 0
M  V30 8227 H 755.331 -1.79308 -2.39768 0
M  V30 8228 H 752.877 -0.863558 -1.15233 0
M  V30 8229 H 754.83 -0.164798 -4.21078 0
M  V30 8230 H 753.554 0.577906 -3.21446 0
M  V30 8231 H 752.213 -1.55193 -3.32131 0
M  V30 8232 H 751.861 0.245782 -5.02399 0
M  V30 8233 H 751.561 -1.36886 -5.71433 0
M  V30 8234 H 753.085 -0.513015 -6.08441 0
M  V30 8235 H 754.499 -2.57141 -5.12398 0
M  V30 8236 H 752.896 -3.34927 -4.97939 0
M  V30 8237 H 753.966 -3.28434 -3.56734 0
M  V30 8238 N 755.309 1.25446 -0.953992 0
M  V30 8239 C 756.72 1.75047 -0.649255 0
M  V30 8240 C 757.071 1.77527 0.835385 0
M  V30 8241 O 756.196 1.39569 1.65377 0
M  V30 8242 C 756.791 3.17889 -1.17183 0
M  V30 8243 C 755.35 3.65052 -0.917267 0
M  V30 8244 C 754.497 2.44124 -1.31525 0
M  V30 8245 H 757.448 1.11342 -1.13087 0
M  V30 8246 H 757.469 3.76768 -0.531616 0
M  V30 8247 H 756.981 3.16052 -2.25239 0
M  V30 8248 H 755.082 3.72305 0.148354 0
M  V30 8249 H 755.195 4.53222 -1.55328 0
M  V30 8250 H 753.559 2.43906 -0.733624 0
M  V30 8251 H 754.342 2.44979 -2.405 0
M  V30 8252 N 756.787 0.722489 1.40064 0
M  V30 8253 C 758.015 0.274838 2.05066 0
M  V30 8254 C 758.43 -1.08586 1.54449 0
M  V30 8255 O 757.787 -1.68375 0.704003 0
M  V30 8256 C 757.838 0.253673 3.60609 0
M  V30 8257 O 757.559 1.56064 4.0936 0
M  V30 8258 C 759.06 -0.211684 4.42794 0
M  V30 8259 H 756.28 0.12226 0.659768 0
M  V30 8260 H 758.824 0.982632 1.79345 0
M  V30 8261 H 756.979 -0.405137 3.85276 0
M  V30 8262 H 757.393 1.46576 5.03603 0
M  V30 8263 H 758.867 -0.175341 5.51721 0
M  V30 8264 H 759.344 -1.25493 4.2089 0
M  V30 8265 H 759.95 0.4171 4.2325 0
M  V30 8266 N 758.265 -1.50454 0.469181 0
M  V30 8267 C 759.175 -2.32248 -0.331349 0
M  V30 8268 C 760.191 -1.42548 -0.997807 0
M  V30 8269 O 761.367 -1.75602 -0.9862 0
M  V30 8270 C 758.432 -3.17171 -1.40012 0
M  V30 8271 C 757.493 -4.2269 -0.750463 0
M  V30 8272 C 756.726 -5.03554 -1.76831 0
M  V30 8273 O 756.949 -4.85469 -2.99459 0
M  V30 8274 O 755.883 -5.86767 -1.3412 0
M  V30 8275 H 759.709 -3.01821 0.337279 0
M  V30 8276 H 757.294 -1.47602 0.231066 0
M  V30 8277 H 759.176 -3.69871 -2.01924 0
M  V30 8278 H 757.851 -2.50328 -2.05226 0
M  V30 8279 H 756.758 -3.73986 -0.0924446 0
M  V30 8280 H 758.091 -4.91997 -0.14131 0
M  V30 8281 N 759.743 -0.201713 -1.56304 0
M  V30 8282 C 761.154 0.309711 -1.84113 0
M  V30 8283 C 761.505 1.60912 -1.12258 0
M  V30 8284 O 760.63 2.12937 -0.385587 0
M  V30 8285 C 761.225 0.568706 -3.33993 0
M  V30 8286 C 759.784 1.02448 -3.6219 0
M  V30 8287 C 758.931 0.0766842 -2.77194 0
M  V30 8288 H 761.882 -0.425356 -1.52893 0
M  V30 8289 H 761.903 1.41721 -3.53122 0
M  V30 8290 H 761.415 -0.37719 -3.86263 0
M  V30 8291 H 759.516 1.98443 -3.15359 0
M  V30 8292 H 759.629 0.912619 -4.70328 0
M  V30 8293 H 757.993 0.579809 -2.48013 0
M  V30 8294 H 758.776 -0.863774 -3.32256 0
M  V30 8295 N 761.222 1.57436 0.0718424 0
M  V30 8296 C 762.185 2.02703 1.06977 0
M  V30 8297 C 763.185 0.924062 1.31597 0
M  V30 8298 O 764.375 1.18894 1.27318 0
M  V30 8299 C 761.507 2.40763 2.41342 0
M  V30 8300 H 762.7 2.92098 0.679619 0
M  V30 8301 H 760.253 1.5304 0.317565 0
M  V30 8302 H 760.988 1.54394 2.8519 0
M  V30 8303 H 760.773 3.21249 2.24814 0
M  V30 8304 H 762.263 2.76361 3.13073 0
M  V30 8305 N 762.7 -0.34323 1.53817 0
M  V30 8306 C 763.61 -1.44493 1.84821 0
M  V30 8307 C 764.626 -1.57556 0.738381 0
M  V30 8308 O 765.802 -1.73026 1.03072 0
M  V30 8309 C 762.867 -2.79478 2.05166 0
M  V30 8310 C 761.928 -2.75756 3.29025 0
M  V30 8311 C 761.161 -4.04302 3.4839 0
M  V30 8312 O 761.384 -5.01595 2.71586 0
M  V30 8313 O 760.318 -4.08754 4.41819 0
M  V30 8314 H 764.144 -1.21209 2.78464 0
M  V30 8315 H 761.729 -0.535437 1.39476 0
M  V30 8316 H 763.611 -3.59419 2.19991 0
M  V30 8317 H 762.286 -3.02692 1.14713 0
M  V30 8318 H 761.193 -1.94434 3.19603 0
M  V30 8319 H 762.526 -2.57495 4.19472 0
M  V30 8320 N 764.178 -1.45556 -0.604258 0
M  V30 8321 C 765.427 -1.49019 -1.35928 0
M  V30 8322 C 765.74 -0.137409 -1.95117 0
M  V30 8323 O 766.946 -0.0497032 -2.71455 0
M  V30 8324 C 765.402 -2.62477 -2.46239 0
M  V30 8325 C 765.01 -4.04082 -1.93447 0
M  V30 8326 C 766.754 -2.7519 -3.23219 0
M  V30 8327 C 764.661 -5.08917 -3.0126 0
M  V30 8328 H 763.591 -0.554518 -0.510907 0
M  V30 8329 H 766.242 -1.71705 -0.647262 0
M  V30 8330 H 764.624 -2.3308 -3.2014 0
M  V30 8331 H 765.798 -4.43173 -1.26232 0
M  V30 8332 H 764.113 -3.95849 -1.29201 0
M  V30 8333 H 766.71 -3.50683 -4.0364 0
M  V30 8334 H 767.053 -1.81941 -3.74437 0
M  V30 8335 H 767.586 -3.04129 -2.56418 0
M  V30 8336 H 764.325 -6.03886 -2.54955 0
M  V30 8337 H 763.845 -4.74393 -3.67031 0
M  V30 8338 H 765.524 -5.33814 -3.65584 0
M  V30 8339 N 765.656 0.84705 -1.32902 0
M  V30 8340 C 766.905 1.59667 -1.23245 0
M  V30 8341 C 767.218 1.94551 0.202349 0
M  V30 8342 O 768.424 2.68218 0.420847 0
M  V30 8343 C 766.88 2.8795 -2.15901 0
M  V30 8344 C 766.488 2.60461 -3.64505 0
M  V30 8345 C 768.232 3.65968 -2.15098 0
M  V30 8346 C 766.139 3.84791 -4.49099 0
M  V30 8347 H 765.069 0.599167 -0.457728 0
M  V30 8348 H 767.72 0.934662 -1.57912 0
M  V30 8349 H 766.102 3.55648 -1.74157 0
M  V30 8350 H 767.276 2.01026 -4.14639 0
M  V30 8351 H 765.591 1.9576 -3.67515 0
M  V30 8352 H 768.188 4.58241 -2.75534 0
M  V30 8353 H 768.531 4.00275 -1.14392 0
M  V30 8354 H 769.064 3.05184 -2.55162 0
M  V30 8355 H 765.803 3.55621 -5.50649 0
M  V30 8356 H 765.323 4.43594 -4.03713 0
M  V30 8357 H 767.002 4.52454 -4.62487 0
M  V30 8358 N 767.134 1.16236 1.06428 0
M  V30 8359 C 768.38 0.954417 1.79617 0
M  V30 8360 C 768.735 -0.512411 1.85451 0
M  V30 8361 O 768.028 -1.37523 1.33409 0
M  V30 8362 C 768.222 1.51396 3.2375 0
M  V30 8363 C 768.051 3.03367 3.31962 0
M  V30 8364 C 766.821 3.71996 3.41975 0
M  V30 8365 C 769.019 4.01075 3.21937 0
M  V30 8366 N 767.001 5.11688 3.39187 0
M  V30 8367 C 768.372 5.27142 3.26376 0
M  V30 8368 C 770.427 3.92917 3.05812 0
M  V30 8369 C 769.13 6.46 3.16348 0
M  V30 8370 C 771.156 5.11344 2.97121 0
M  V30 8371 C 770.518 6.36291 3.02181 0
M  V30 8372 H 766.617 0.403007 0.670156 0
M  V30 8373 H 769.201 1.47605 1.26968 0
M  V30 8374 H 767.372 1.01883 3.74799 0
M  V30 8375 H 769.104 1.2439 3.85109 0
M  V30 8376 H 765.859 3.22623 3.46715 0
M  V30 8377 H 766.283 5.84676 3.41297 0
M  V30 8378 H 770.925 2.97172 3.00746 0
M  V30 8379 H 768.643 7.41968 3.2017 0
M  V30 8380 H 772.229 5.06801 2.85734 0
M  V30 8381 H 771.109 7.26389 2.95513 0
M  V30 8382 N 768.612 -1.24939 0.960631 0
M  V30 8383 C 769.522 -2.29374 0.492435 0
M  V30 8384 C 770.538 -1.68262 -0.443154 0
M  V30 8385 O 771.714 -1.98875 -0.31793 0
M  V30 8386 C 768.779 -3.46023 -0.216626 0
M  V30 8387 C 767.84 -4.22557 0.757915 0
M  V30 8388 C 767.073 -5.33636 0.0825969 0
M  V30 8389 O 767.296 -5.59084 -1.13054 0
M  V30 8390 O 766.23 -5.96939 0.771177 0
M  V30 8391 H 770.056 -2.71525 1.36044 0
M  V30 8392 H 767.641 -1.30499 0.72735 0
M  V30 8393 H 769.523 -4.16885 -0.615241 0
M  V30 8394 H 768.198 -3.05862 -1.05971 0
M  V30 8395 H 767.105 -3.54099 1.20685 0
M  V30 8396 H 768.438 -4.66516 1.5692 0
M  V30 8397 N 770.09 -0.729906 -1.39679 0
M  V30 8398 C 771.037 -0.0866063 -2.30637 0
M  V30 8399 C 772.007 0.735115 -1.48947 0
M  V30 8400 O 773.192 0.696125 -1.77648 0
M  V30 8401 C 770.332 0.818524 -3.35252 0
M  V30 8402 C 769.445 -0.0152635 -4.31997 0
M  V30 8403 C 768.58 0.890669 -5.2368 0
M  V30 8404 C 767.619 0.0518246 -6.12078 0
M  V30 8405 N 766.756 0.913411 -6.96133 0
M  V30 8406 H 771.596 -0.867925 -2.85081 0
M  V30 8407 H 769.133 -0.439673 -1.40376 0
M  V30 8408 H 771.091 1.3577 -3.9449 0
M  V30 8409 H 769.721 1.56587 -2.82277 0
M  V30 8410 H 768.773 -0.671794 -3.74421 0
M  V30 8411 H 770.085 -0.664086 -4.9436 0
M  V30 8412 H 769.239 1.49787 -5.87919 0
M  V30 8413 H 767.978 1.57328 -4.61627 0
M  V30 8414 H 766.983 -0.568209 -5.46856 0
M  V30 8415 H 768.208 -0.627497 -6.76195 0
M  V30 8416 H 766.154 1.58141 -6.36653 0
M  V30 8417 H 766.071 0.320952 -7.55318 0
M  V30 8418 H 767.339 1.50633 -7.64807 0
M  V30 8419 N 771.568 1.50203 -0.477153 0
M  V30 8420 C 772.984 1.59056 -0.131663 0
M  V30 8421 C 773.184 1.48473 1.36227 0
M  V30 8422 O 772.24 1.34635 2.13611 0
M  V30 8423 C 773.553 2.92741 -0.687254 0
M  V30 8424 C 775.101 3.0615 -0.651223 0
M  V30 8425 C 775.576 4.42419 -1.18446 0
M  V30 8426 N 777.067 4.48847 -1.14413 0
M  V30 8427 C 777.802 5.52689 -1.52717 0
M  V30 8428 N 777.298 6.63754 -1.98499 0
M  V30 8429 N 779.091 5.43267 -1.44282 0
M  V30 8430 H 771.242 1.55325 -1.44872 0
M  V30 8431 H 773.505 0.734395 -0.599473 0
M  V30 8432 H 773.211 3.0598 -1.73405 0
M  V30 8433 H 773.085 3.76961 -0.134215 0
M  V30 8434 H 775.472 2.92556 0.386677 0
M  V30 8435 H 775.553 2.23673 -1.24114 0
M  V30 8436 H 775.197 4.56763 -2.22103 0
M  V30 8437 H 775.127 5.23498 -0.570709 0
M  V30 8438 H 777.618 3.69152 -0.808416 0
M  V30 8439 H 777.931 7.39059 -2.25859 0
M  V30 8440 H 776.276 6.64858 -2.02456 0
M  V30 8441 H 779.467 4.55387 -1.08352 0
M  V30 8442 H 779.64 6.24074 -1.74459 0
M  V30 8443 N 773.046 0.209999 1.56195 0
M  V30 8444 C 773.956 -0.716459 2.23392 0
M  V30 8445 C 774.972 -1.22291 1.23778 0
M  V30 8446 O 776.148 -1.26694 1.56558 0
M  V30 8447 C 773.213 -1.91261 2.89172 0
M  V30 8448 C 772.274 -1.44927 4.04097 0
M  V30 8449 C 771.507 -2.5884 4.66731 0
M  V30 8450 O 771.73 -3.76693 4.2832 0
M  V30 8451 O 770.664 -2.30701 5.55932 0
M  V30 8452 H 774.49 -0.174089 3.03201 0
M  V30 8453 H 772.075 -0.0199505 1.49387 0
M  V30 8454 H 773.957 -2.6114 3.30733 0
M  V30 8455 H 772.632 -2.4433 2.12331 0
M  V30 8456 H 771.539 -0.718839 3.67129 0
M  V30 8457 H 772.872 -0.965084 4.82646 0
M  V30 8458 N 774.524 -1.57472 -0.0634922 0
M  V30 8459 C 775.752 -1.91887 -0.773767 0
M  V30 8460 C 776.167 -0.806733 -1.70696 0
M  V30 8461 O 775.524 0.219383 -1.81177 0
M  V30 8462 C 775.575 -3.26092 -1.56034 0
M  V30 8463 O 775.296 -4.33029 -0.66464 0
M  V30 8464 C 776.797 -3.74573 -2.37087 0
M  V30 8465 H 774.017 -0.634074 -0.219525 0
M  V30 8466 H 776.561 -2.04476 -0.0312828 0
M  V30 8467 H 774.716 -3.15004 -2.25502 0
M  V30 8468 H 775.13 -5.10291 -1.21258 0
M  V30 8469 H 776.604 -4.71084 -2.87722 0
M  V30 8470 H 777.081 -3.04003 -3.16984 0
M  V30 8471 H 777.687 -3.88631 -1.72759 0
M  V30 8472 N 776.003 0.335068 -1.53997 0
M  V30 8473 C 777.243 1.0827 -1.7337 0
M  V30 8474 C 777.607 1.85618 -0.490913 0
M  V30 8475 O 778.808 2.62864 -0.561799 0
M  V30 8476 C 777.079 1.99212 -2.96731 0
M  V30 8477 S 778.638 2.81083 -3.36954 0
M  V30 8478 H 775.456 0.365698 -0.609743 0
M  V30 8479 H 778.058 0.360079 -1.92155 0
M  V30 8480 H 776.762 1.41204 -3.85344 0
M  V30 8481 H 776.293 2.75898 -2.80436 0
M  V30 8482 H 778.308 4.01657 -2.91352 0
M  V30 8483 N 777.481 1.45874 0.596531 0
M  V30 8484 C 778.414 1.49889 1.72071 0
M  V30 8485 C 779.392 0.354224 1.58695 0
M  V30 8486 O 780.576 0.556355 1.80103 0
M  V30 8487 C 777.703 1.3644 3.10003 0
M  V30 8488 C 776.749 2.54913 3.41938 0
M  V30 8489 S 777.582 4.17336 3.35545 0
M  V30 8490 C 778.738 4.06372 4.76039 0
M  V30 8491 H 778.971 2.45005 1.68404 0
M  V30 8492 H 776.504 1.33592 0.77412 0
M  V30 8493 H 778.462 1.29368 3.89582 0
M  V30 8494 H 777.123 0.427762 3.11174 0
M  V30 8495 H 776.316 2.41458 4.42396 0
M  V30 8496 H 775.918 2.58904 2.69898 0
M  V30 8497 H 778.21 3.72199 5.66105 0
M  V30 8498 H 779.153 5.0678 4.9455 0
M  V30 8499 H 779.561 3.37846 4.52239 0
M  V30 8500 N 778.959 -0.83999 1.33349 0
M  V30 8501 C 780.206 -1.59517 1.24742 0
M  V30 8502 C 780.534 -1.93598 -0.187077 0
M  V30 8503 O 779.789 -1.58782 -1.14398 0
M  V30 8504 C 780.088 -2.91571 2.06691 0
M  V30 8505 C 779.754 -2.76856 3.55895 0
M  V30 8506 C 778.416 -2.72551 3.96572 0
M  V30 8507 C 780.768 -2.61741 4.50712 0
M  V30 8508 C 778.096 -2.51028 5.30285 0
M  V30 8509 C 780.448 -2.41752 5.84584 0
M  V30 8510 C 779.112 -2.35848 6.24445 0
M  V30 8511 H 778.382 -0.583714 0.456463 0
M  V30 8512 H 781.029 -0.973261 1.64924 0
M  V30 8513 H 779.334 -3.57961 1.59284 0
M  V30 8514 H 781.031 -3.49053 1.9739 0
M  V30 8515 H 777.621 -2.81039 3.23597 0
M  V30 8516 H 781.805 -2.64102 4.20195 0
M  V30 8517 H 777.061 -2.44903 5.60208 0
M  V30 8518 H 781.235 -2.2904 6.57658 0
M  V30 8519 H 778.862 -2.18931 7.27993 0
M  V30 8520 O 780.476 -1.28535 -0.977803 0
M  V30 8521 H 781.167 -1.08805 -1.60253 0
M  V30 END ATOM
M  V30 BEGIN BOND
M  V30 END BOND
M  V30 END CTAB
M  END
$$$$
