drugbank_target|Q9X519 2,3-bisphosphoglycerate-independent phosphoglycerate mutase (DB01709; DB04510)
 OpenBabel12092119503D

  0  0  0     0  0            999 V3000
M  V30 BEGIN CTAB
M  V30 COUNTS 8011 8102 0 0 0
M  V30 BEGIN ATOM
M  V30 1 H -0.908 1.98254 -0.117106 0
M  V30 2 N 0 1.576 0 0
M  V30 3 C 0.933 2.03868 1.02534 0
M  V30 4 C 1.911 0.928543 1.3348 0
M  V30 5 O 3.095 1.19667 1.45644 0
M  V30 6 C 0.222 2.43627 2.35294 0
M  V30 7 C -0.732 3.65373 2.2001 0
M  V30 8 S 0.101 5.13292 1.52614 0
M  V30 9 C 1.257 5.56322 2.86805 0
M  V30 10 H 1.49 2.90518 0.631377 0
M  V30 11 H -0.977 1.52953 0.210867 0
M  V30 12 H 0.981 2.67203 3.11629 0
M  V30 13 H -0.358 1.57376 2.7183 0
M  V30 14 H -1.165 3.90944 3.18086 0
M  V30 15 H -1.563 3.418 1.51819 0
M  V30 16 H 0.729 5.58782 3.83104 0
M  V30 17 H 1.672 6.56266 2.65933 0
M  V30 18 H 2.08 4.83886 2.90714 0
M  V30 19 N 1.4781 -0.272755 1.55222 0
M  V30 20 C 2.7031 -1.02683 1.80197 0
M  V30 21 C 3.1281 -1.79142 0.573551 0
M  V30 22 O 2.4861 -1.74917 -0.476849 0
M  V30 23 C 2.5341 -1.9609 3.02624 0
M  V30 24 O 1.6381 -3.04863 2.77727 0
M  V30 25 H 0.9791 -0.293557 0.595584 0
M  V30 26 H 3.5091 -0.30159 2.02365 0
M  V30 27 H 3.5191 -2.38039 3.31363 0
M  V30 28 H 2.1941 -1.39851 3.91682 0
M  V30 29 H 0.7711 -2.67228 2.60084 0
M  V30 30 N 2.9562 -1.48159 -0.537278 0
M  V30 31 C 3.9032 -1.62138 -1.64256 0
M  V30 32 C 4.8732 -0.463668 -1.59497 0
M  V30 33 O 6.0582 -0.686241 -1.78032 0
M  V30 34 C 3.1982 -1.66028 -3.02537 0
M  V30 35 C 2.3112 -2.92855 -3.17585 0
M  V30 36 C 1.4462 -2.87952 -4.46382 0
M  V30 37 C 0.4852 -4.09516 -4.54932 0
M  V30 38 N -0.3778 -4.02733 -5.75109 0
M  V30 39 H 4.4622 -2.56529 -1.51647 0
M  V30 40 H 1.9992 -1.27224 -0.738414 0
M  V30 41 H 3.9572 -1.66265 -3.82638 0
M  V30 42 H 2.5872 -0.751331 -3.13934 0
M  V30 43 H 1.6392 -3.02395 -2.30784 0
M  V30 44 H 2.9512 -3.82822 -3.19764 0
M  V30 45 H 2.1052 -2.8655 -5.34765 0
M  V30 46 H 0.8442 -1.95702 -4.46712 0
M  V30 47 H -0.1508 -4.11201 -3.64957 0
M  V30 48 H 1.0742 -5.02917 -4.56346 0
M  V30 49 H -0.9798 -3.13299 -5.76351 0
M  V30 50 H -1.0628 -4.86397 -5.78752 0
M  V30 51 H 0.2052 -4.05379 -6.65799 0
M  V30 52 N 4.4343 0.785586 -1.36625 0
M  V30 53 C 5.3813 1.89838 -1.31264 0
M  V30 54 C 6.3513 1.65115 -0.180633 0
M  V30 55 O 7.5363 1.87222 -0.36777 0
M  V30 56 C 4.6763 3.26706 -1.11163 0
M  V30 57 C 3.7893 3.63476 -2.33472 0
M  V30 58 C 2.9243 4.89481 -2.06353 0
M  V30 59 C 1.9633 5.18941 -3.24602 0
M  V30 60 N 1.1003 6.36131 -2.97123 0
M  V30 61 H 5.9403 1.93756 -2.26413 0
M  V30 62 H 3.4773 0.947454 -1.12524 0
M  V30 63 H 5.4353 4.05639 -0.975337 0
M  V30 64 H 4.0653 3.222 -0.196674 0
M  V30 65 H 3.1173 2.79636 -2.57891 0
M  V30 66 H 4.4293 3.81193 -3.21704 0
M  V30 67 H 3.5833 5.76288 -1.89675 0
M  V30 68 H 2.3223 4.73841 -1.15437 0
M  V30 69 H 1.3273 4.30615 -3.41834 0
M  V30 70 H 2.5523 5.36498 -4.16349 0
M  V30 71 H 0.4983 6.21875 -2.08823 0
M  V30 72 H 0.4153 6.54198 -3.78894 0
M  V30 73 H 1.6833 7.2591 -2.84033 0
M  V30 74 N 5.9124 1.20967 1.01018 0
M  V30 75 C 7.3234 1.02319 1.56165 0
M  V30 76 C 7.6744 -0.418546 1.91684 0
M  V30 77 O 6.7994 -1.30096 1.72928 0
M  V30 78 C 7.3944 1.85109 2.8376 0
M  V30 79 C 5.9534 1.70809 3.35412 0
M  V30 80 C 5.1004 1.82643 2.08655 0
M  V30 81 H 8.0514 1.35065 0.833255 0
M  V30 82 H 8.0724 1.35827 3.55431 0
M  V30 83 H 7.5844 2.90035 2.57878 0
M  V30 84 H 5.6854 0.685464 3.66241 0
M  V30 85 H 5.7984 2.52467 4.07182 0
M  V30 86 H 4.1624 1.25896 2.21409 0
M  V30 87 H 4.9454 2.89066 1.85191 0
M  V30 88 N 7.3905 -1.2043 1.01659 0
M  V30 89 C 8.6365 -1.90079 0.706963 0
M  V30 90 C 8.9695 -1.78648 -0.761474 0
M  V30 91 O 8.2445 -1.17069 -1.55323 0
M  V30 92 C 8.5275 -3.41469 1.14327 0
M  V30 93 C 8.3805 -3.61833 2.67201 0
M  V30 94 C 9.6995 -4.34261 0.714529 0
M  V30 95 H 6.8185 -0.690254 0.2583 0
M  V30 96 H 9.4605 -1.41826 1.26433 0
M  V30 97 H 7.6105 -3.82696 0.669056 0
M  V30 98 H 9.2825 -3.2986 3.22475 0
M  V30 99 H 7.5255 -3.05304 3.08175 0
M  V30 100 H 8.1965 -4.67955 2.92783 0
M  V30 101 H 10.6725 -4.00682 1.12221 0
M  V30 102 H 9.5485 -5.38806 1.04784 0
M  V30 103 H 9.8095 -4.40431 -0.383799 0
M  V30 104 N 8.8686 -0.792821 -1.36206 0
M  V30 105 C 9.8316 -0.199459 -2.2833 0
M  V30 106 C 10.8316 0.605189 -1.48977 0
M  V30 107 O 12.0216 0.425685 -1.68919 0
M  V30 108 C 9.1536 0.723523 -3.33134 0
M  V30 109 H 10.3466 -1.01181 -2.82316 0
M  V30 110 H 7.8996 -0.562485 -1.45828 0
M  V30 111 H 8.6346 1.56008 -2.84309 0
M  V30 112 H 8.4196 0.148436 -3.91819 0
M  V30 113 H 9.9096 1.13344 -4.01924 0
M  V30 114 N 10.3467 1.47872 -0.545128 0
M  V30 115 C 11.2767 2.32661 0.197793 0
M  V30 116 C 12.2577 1.43041 0.920504 0
M  V30 117 O 13.4427 1.71912 0.90333 0
M  V30 118 C 10.5727 3.24569 1.23582 0
M  V30 119 C 9.5267 4.23333 0.630323 0
M  V30 120 C 8.8527 5.0448 1.77211 0
M  V30 121 C 10.1527 5.20704 -0.407974 0
M  V30 122 H 11.8467 2.95024 -0.510045 0
M  V30 123 H 9.3927 1.4187 -0.246731 0
M  V30 124 H 11.3457 3.8272 1.76362 0
M  V30 125 H 10.0697 2.60236 1.97344 0
M  V30 126 H 8.7287 3.6639 0.123922 0
M  V30 127 H 8.3767 4.36561 2.49847 0
M  V30 128 H 8.0767 5.71339 1.37281 0
M  V30 129 H 9.6007 5.65487 2.3034 0
M  V30 130 H 11.0147 5.7329 0.033305 0
M  V30 131 H 9.4117 5.95699 -0.725486 0
M  V30 132 H 10.4817 4.66917 -1.30828 0
M  V30 133 N 11.8248 0.280983 1.55075 0
M  V30 134 C 13.0738 -0.334784 1.98902 0
M  V30 135 C 13.3868 -1.56534 1.17288 0
M  V30 136 O 14.5928 -2.25443 1.51287 0
M  V30 137 C 13.0488 -0.646994 3.54037 0
M  V30 138 C 12.6568 0.564085 4.44435 0
M  V30 139 C 14.4008 -1.22506 4.06439 0
M  V30 140 C 12.3078 0.226137 5.90967 0
M  V30 141 H 11.2378 -0.128866 0.742906 0
M  V30 142 H 13.8888 0.386556 1.79382 0
M  V30 143 H 12.2708 -1.42739 3.6938 0
M  V30 144 H 13.4448 1.34082 4.40861 0
M  V30 145 H 11.7598 1.0594 4.02698 0
M  V30 146 H 14.3568 -1.49182 5.13468 0
M  V30 147 H 14.6998 -2.16085 3.55827 0
M  V30 148 H 15.2328 -0.50682 3.94558 0
M  V30 149 H 11.9718 1.12996 6.45687 0
M  V30 150 H 11.4918 -0.513717 5.97596 0
M  V30 151 H 13.1708 -0.179539 6.46751 0
M  V30 152 N 13.3029 -1.57598 0.00835791 0
M  V30 153 C 14.5519 -1.90107 -0.673968 0
M  V30 154 C 14.8649 -0.884275 -1.7447 0
M  V30 155 O 16.0709 -1.09987 -2.48224 0
M  V30 156 C 14.5269 -3.37497 -1.24995 0
M  V30 157 C 14.1349 -4.47491 -0.2136 0
M  V30 158 C 15.8789 -3.79104 -1.90999 0
M  V30 159 C 13.7859 -5.85963 -0.80005 0
M  V30 160 H 12.7159 -0.709393 -0.255495 0
M  V30 161 H 15.3669 -1.83365 0.0702693 0
M  V30 162 H 13.7489 -3.39102 -2.04513 0
M  V30 163 H 14.9229 -4.57414 0.557596 0
M  V30 164 H 13.2379 -4.14956 0.346474 0
M  V30 165 H 15.8349 -4.79901 -2.35795 0
M  V30 166 H 16.1779 -3.1306 -2.74407 0
M  V30 167 H 16.7109 -3.79833 -1.18203 0
M  V30 168 H 13.4499 -6.555 -0.00456708 0
M  V30 169 H 12.9699 -5.79687 -1.54021 0
M  V30 170 H 14.6489 -6.33884 -1.29615 0
M  V30 171 N 14.781 0.264519 -1.55364 0
M  V30 172 C 15.711 1.33121 -1.91836 0
M  V30 173 C 16.692 1.51101 -0.781192 0
M  V30 174 O 17.877 1.64003 -1.04003 0
M  V30 175 C 15.007 2.68921 -2.19769 0
M  V30 176 C 13.961 2.65661 -3.35571 0
M  V30 177 C 13.287 4.05093 -3.49004 0
M  V30 178 C 14.587 2.24187 -4.71739 0
M  V30 179 H 16.281 1.02844 -2.81182 0
M  V30 180 H 13.827 0.493286 -1.35287 0
M  V30 181 H 15.78 3.43663 -2.43872 0
M  V30 182 H 14.504 3.00799 -1.27231 0
M  V30 183 H 13.163 1.93377 -3.1145 0
M  V30 184 H 12.811 4.34206 -2.53917 0
M  V30 185 H 12.511 4.03804 -4.26868 0
M  V30 186 H 14.035 4.81561 -3.75408 0
M  V30 187 H 15.449 2.88654 -4.9533 0
M  V30 188 H 13.846 2.34044 -5.52579 0
M  V30 189 H 14.916 1.19327 -4.69988 0
M  V30 190 N 16.2591 1.48442 0.529413 0
M  V30 191 C 17.5361 1.46978 1.29062 0
M  V30 192 C 17.9161 0.181769 2.10316 0
M  V30 193 O 17.2641 -0.836481 2.12639 0
M  V30 194 C 17.4741 2.7321 2.17157 0
M  V30 195 C 18.8221 3.21562 2.77278 0
M  V30 196 O 19.8461 2.74131 2.27444 0
M  V30 197 O 18.7051 4.04094 3.67927 0
M  V30 198 H 15.7991 0.587003 0.582543 0
M  V30 199 H 18.3451 1.60676 0.546021 0
M  V30 200 H 17.1171 3.58465 1.56903 0
M  V30 201 H 16.7401 2.62235 2.98862 0
M  V30 202 N 17.7372 -0.778329 1.37039 0
M  V30 203 C 18.9852 -1.53361 1.31623 0
M  V30 204 C 19.3062 -1.94739 -0.100831 0
M  V30 205 O 18.5762 -1.65797 -1.04347 0
M  V30 206 H 17.1562 -0.568794 0.484234 0
M  V30 207 H 19.8182 -0.926742 1.71457 0
M  V30 208 H 18.9142 -2.43606 1.95096 0
M  V30 209 N 19.2153 -1.21501 -1.00376 0
M  V30 210 C 20.4623 -1.03299 -1.74171 0
M  V30 211 C 20.7903 0.433326 -1.89612 0
M  V30 212 O 20.0453 1.33779 -1.42834 0
M  V30 213 C 20.3443 -1.67673 -3.15627 0
M  V30 214 C 20.0103 -3.17533 -3.2013 0
M  V30 215 C 18.6723 -3.58427 -3.21067 0
M  V30 216 C 21.0243 -4.13504 -3.17275 0
M  V30 217 C 18.3523 -4.93794 -3.16835 0
M  V30 218 C 20.7043 -5.48834 -3.14585 0
M  V30 219 C 19.3683 -5.89123 -3.13831 0
M  V30 220 H 18.6383 -0.377999 -0.637336 0
M  V30 221 H 21.2853 -1.51111 -1.17634 0
M  V30 222 H 19.5903 -1.12158 -3.75404 0
M  V30 223 H 21.2873 -1.51091 -3.71446 0
M  V30 224 H 17.8773 -2.84965 -3.20145 0
M  V30 225 H 22.0613 -3.82936 -3.15711 0
M  V30 226 H 17.3173 -5.24255 -3.1459 0
M  V30 227 H 21.4913 -6.22934 -3.1133 0
M  V30 228 H 19.1183 -6.93984 -3.10307 0
M  V30 229 N 20.6934 1.19889 -1.02296 0
M  V30 230 C 21.6564 2.21116 -0.603351 0
M  V30 231 C 22.6564 1.5738 0.329884 0
M  V30 232 O 23.8464 1.73802 0.117702 0
M  V30 233 C 20.9784 3.40696 0.117992 0
M  V30 234 H 22.1714 2.59754 -1.49893 0
M  V30 235 H 19.7244 1.33463 -0.813468 0
M  V30 236 H 20.4594 3.07569 1.0282 0
M  V30 237 H 20.2444 3.88188 -0.552511 0
M  V30 238 H 21.7344 4.15692 0.398696 0
M  V30 239 N 22.1715 0.800033 1.35784 0
M  V30 240 C 23.1015 0.220184 2.3246 0
M  V30 241 C 24.0825 -0.65073 1.57161 0
M  V30 242 O 25.2675 -0.582359 1.85263 0
M  V30 243 C 22.3975 -0.637353 3.41402 0
M  V30 244 C 21.3515 0.134531 4.27789 0
M  V30 245 C 20.6775 -0.844285 5.27992 0
M  V30 246 C 21.9775 1.32979 5.05088 0
M  V30 247 H 23.6715 1.02787 2.81203 0
M  V30 248 H 21.2175 0.495717 1.35199 0
M  V30 249 H 23.1705 -1.05302 4.08031 0
M  V30 250 H 21.8945 -1.47785 2.91251 0
M  V30 251 H 20.5535 0.531296 3.6273 0
M  V30 252 H 20.2015 -1.68011 4.74111 0
M  V30 253 H 19.9015 -0.332184 5.8666 0
M  V30 254 H 21.4255 -1.2583 5.97494 0
M  V30 255 H 22.8395 0.98934 5.64699 0
M  V30 256 H 21.2365 1.77593 5.7322 0
M  V30 257 H 22.3065 2.11978 4.36111 0
M  V30 258 N 23.6496 -1.47581 0.552962 0
M  V30 259 C 25.0656 -1.5818 0.212424 0
M  V30 260 C 25.2656 -1.55213 -1.28496 0
M  V30 261 O 24.3216 -1.45329 -2.06484 0
M  V30 262 C 25.6346 -2.88865 0.835318 0
M  V30 263 C 27.1826 -3.0244 0.806156 0
M  V30 264 C 27.6576 -4.35819 1.40804 0
M  V30 265 N 29.1486 -4.42444 1.37103 0
M  V30 266 C 29.8836 -5.44202 1.80641 0
M  V30 267 N 29.3796 -6.52795 2.32015 0
M  V30 268 N 31.1726 -5.35222 1.71738 0
M  V30 269 H 23.3236 -1.47753 1.52587 0
M  V30 270 H 25.5866 -0.702941 0.636064 0
M  V30 271 H 25.2926 -2.9676 1.88749 0
M  V30 272 H 25.1666 -3.7579 0.325848 0
M  V30 273 H 27.5536 -2.94144 -0.237317 0
M  V30 274 H 27.6346 -2.17068 1.35334 0
M  V30 275 H 27.2786 -4.44871 2.45056 0
M  V30 276 H 27.2086 -5.19916 0.836338 0
M  V30 277 H 29.6996 -3.6456 0.995202 0
M  V30 278 H 30.0126 -7.26609 2.63171 0
M  V30 279 H 28.3576 -6.53696 2.36023 0
M  V30 280 H 31.5486 -4.49284 1.31382 0
M  V30 281 H 31.7216 -6.14389 2.05987 0
M  V30 282 N 25.1277 -0.289203 -1.54924 0
M  V30 283 C 26.4047 0.376032 -1.91951 0
M  V30 284 C 26.7847 1.72622 -1.21511 0
M  V30 285 O 26.1327 2.25853 -0.346767 0
M  V30 286 C 26.3427 0.502378 -3.45365 0
M  V30 287 C 27.6907 0.778741 -4.17398 0
M  V30 288 O 28.7147 0.586647 -3.51336 0
M  V30 289 O 27.5737 1.14698 -5.34328 0
M  V30 290 H 24.6677 0.208167 -0.800372 0
M  V30 291 H 27.2137 -0.336394 -1.66332 0
M  V30 292 H 25.9857 -0.447255 -3.88736 0
M  V30 293 H 25.6087 1.26373 -3.76982 0
M  V30 294 N 26.6058 1.57591 -0.0167156 0
M  V30 295 C 27.5158 2.1291 0.98521 0
M  V30 296 C 28.5318 1.07834 1.36557 0
M  V30 297 O 29.7078 1.39826 1.44951 0
M  V30 298 C 26.7728 2.63512 2.25305 0
M  V30 299 C 25.8338 3.83256 1.93426 0
M  V30 300 C 25.0668 4.31435 3.14165 0
M  V30 301 O 25.2898 3.78851 4.26413 0
M  V30 302 O 24.2238 5.23416 2.97186 0
M  V30 303 H 28.0498 2.98772 0.544888 0
M  V30 304 H 25.6348 1.48012 0.203141 0
M  V30 305 H 27.5168 2.96183 2.99756 0
M  V30 306 H 26.1918 1.8074 2.68542 0
M  V30 307 H 25.0988 3.55531 1.16398 0
M  V30 308 H 26.4318 4.67153 1.55013 0
M  V30 309 N 28.0839 -0.256276 1.55502 0
M  V30 310 C 29.3119 -1.00342 1.8094 0
M  V30 311 C 29.7269 -1.79307 0.59114 0
M  V30 312 O 29.0839 -1.77114 -0.440081 0
M  V30 313 C 29.1349 -1.94875 3.04476 0
M  V30 314 O 28.8559 -1.19107 4.21598 0
M  V30 315 C 30.3569 -2.81266 3.42644 0
M  V30 316 H 27.5769 -0.295685 0.602338 0
M  V30 317 H 30.1209 -0.281998 2.02546 0
M  V30 318 H 28.2759 -2.62457 2.84947 0
M  V30 319 H 28.6899 -1.82969 4.91551 0
M  V30 320 H 30.1639 -3.43362 4.32211 0
M  V30 321 H 30.6409 -3.51897 2.62802 0
M  V30 322 H 31.2469 -2.1915 3.64491 0
M  V30 323 N 29.562 -1.4872 -0.521534 0
M  V30 324 C 30.792 -1.6061 -1.29954 0
M  V30 325 C 31.2 -0.268728 -1.87282 0
M  V30 326 O 30.543 0.753221 -1.67548 0
M  V30 327 C 30.605 -2.60013 -2.48261 0
M  V30 328 C 30.269 -4.04874 -2.11957 0
M  V30 329 C 31.266 -4.92304 -1.67132 0
M  V30 330 C 28.951 -4.5047 -2.22221 0
M  V30 331 C 30.945 -6.2336 -1.33047 0
M  V30 332 C 28.632 -5.81544 -1.87748 0
M  V30 333 C 29.63 -6.67812 -1.43234 0
M  V30 334 O 29.318 -7.96446 -1.09217 0
M  V30 335 H 29.05 -0.544116 -0.401141 0
M  V30 336 H 31.604 -1.95339 -0.634958 0
M  V30 337 H 29.834 -2.20422 -3.17728 0
M  V30 338 H 31.523 -2.61648 -3.10315 0
M  V30 339 H 32.289 -4.58312 -1.58665 0
M  V30 340 H 28.168 -3.83504 -2.55823 0
M  V30 341 H 31.712 -6.90649 -0.982299 0
M  V30 342 H 27.609 -6.15069 -1.95858 0
M  V30 343 H 28.377 -8.09275 -1.22542 0
M  V30 344 N 31.0401 0.771051 -1.3745 0
M  V30 345 C 32.2881 1.52661 -1.32435 0
M  V30 346 C 32.6091 1.9479 0.0905024 0
M  V30 347 O 31.8791 1.66348 1.03466 0
M  V30 348 H 30.4591 0.566218 -0.487244 0
M  V30 349 H 33.1211 0.917636 -1.71946 0
M  V30 350 H 32.2171 2.42568 -1.96385 0
M  V30 351 N 32.5182 1.22032 0.997298 0
M  V30 352 C 33.4662 0.983634 2.10778 0
M  V30 353 C 34.4602 -0.0717564 1.69248 0
M  V30 354 O 35.6662 0.080304 1.79821 0
M  V30 355 H 32.0412 0.300877 0.689186 0
M  V30 356 H 34.0122 1.92606 2.27916 0
M  V30 357 C 32.7612 0.57326 3.42942 0
M  V30 358 H 32.0842 1.37702 3.75338 0
M  V30 359 H 33.5242 0.447031 4.21637 0
M  V30 360 C 31.9832 -0.7167 3.29188 0
M  V30 361 O 32.5132 -1.77027 3.60589 0
M  V30 362 N 30.7192 -0.686167 2.82383 0
M  V30 363 H 30.2662 0.171507 2.57028 0
M  V30 364 H 30.2242 -1.54955 2.73562 0
M  V30 365 N 33.9963 -1.19345 1.0293 0
M  V30 366 C 34.9593 -2.20793 0.615069 0
M  V30 367 C 35.9593 -1.57553 -0.321533 0
M  V30 368 O 37.1493 -1.73862 -0.108483 0
M  V30 369 C 34.2813 -3.40754 -0.0999222 0
M  V30 370 H 35.4743 -2.58955 1.51269 0
M  V30 371 H 33.0273 -1.3303 0.820534 0
M  V30 372 H 33.7623 -3.0811 -1.01187 0
M  V30 373 H 33.5473 -3.87889 0.57309 0
M  V30 374 H 35.0373 -4.15898 -0.376645 0
M  V30 375 N 35.4744 -0.807222 -1.35358 0
M  V30 376 C 36.7204 -0.388463 -1.99045 0
M  V30 377 C 37.0534 1.04184 -1.63888 0
M  V30 378 O 36.3284 1.72292 -0.902535 0
M  V30 379 C 36.6114 -0.572783 -3.55515 0
M  V30 380 C 36.4644 -2.04807 -4.00468 0
M  V30 381 C 37.7834 0.00114064 -4.401 0
M  V30 382 H 34.9024 -0.142619 -0.723069 0
M  V30 383 H 37.5444 -1.01687 -1.60498 0
M  V30 384 H 35.6944 -0.0378425 -3.88482 0
M  V30 385 H 37.3664 -2.64544 -3.77908 0
M  V30 386 H 35.6094 -2.54427 -3.51353 0
M  V30 387 H 36.2804 -2.12792 -5.09337 0
M  V30 388 H 38.7564 -0.455716 -4.13597 0
M  V30 389 H 37.6324 -0.157737 -5.48673 0
M  V30 390 H 37.8934 1.09488 -4.28328 0
M  V30 391 N 36.9525 1.47285 -0.560781 0
M  V30 392 C 37.9155 2.28535 0.174488 0
M  V30 393 C 38.9155 1.37153 0.839388 0
M  V30 394 O 40.1055 1.59748 0.694702 0
M  V30 395 C 37.2375 3.16934 1.25561 0
M  V30 396 H 38.4305 2.95012 -0.539262 0
M  V30 397 H 35.9835 1.53034 -0.317865 0
M  V30 398 H 36.7185 2.55157 2.00164 0
M  V30 399 H 36.5035 3.8419 0.783604 0
M  V30 400 H 37.9935 3.78143 1.77193 0
M  V30 401 N 38.4306 0.297415 1.54768 0
M  V30 402 C 39.3626 -0.613881 2.20826 0
M  V30 403 C 40.3756 -1.10032 1.19987 0
M  V30 404 O 41.5646 -1.01839 1.46598 0
M  V30 405 C 38.6646 -1.852 2.83821 0
M  V30 406 C 37.8376 -1.50865 4.10559 0
M  V30 407 C 36.8966 -2.60154 4.57391 0
M  V30 408 O 35.9226 -2.25398 5.2267 0
M  V30 409 N 37.1246 -3.90629 4.29406 0
M  V30 410 H 39.8896 -0.048389 2.99661 0
M  V30 411 H 37.4506 0.11946 1.61459 0
M  V30 412 H 39.4426 -2.57652 3.12086 0
M  V30 413 H 38.0126 -2.32597 2.08847 0
M  V30 414 H 37.2326 -0.616925 3.89343 0
M  V30 415 H 38.5206 -1.25458 4.9309 0
M  V30 416 H 37.9186 -4.21677 3.77101 0
M  V30 417 H 36.4756 -4.59391 4.62388 0
M  V30 418 N 39.9087 -1.5758 0.0250728 0
M  V30 419 C 40.8717 -2.08896 -0.943139 0
M  V30 420 C 41.8717 -1.00321 -1.25668 0
M  V30 421 O 43.0617 -1.26495 -1.19769 0
M  V30 422 C 40.1937 -2.55143 -2.26086 0
M  V30 423 H 41.3867 -2.95723 -0.498775 0
M  V30 424 H 38.9397 -1.54703 -0.222888 0
M  V30 425 H 39.6747 -1.71633 -2.75159 0
M  V30 426 H 39.4597 -3.34461 -2.04641 0
M  V30 427 H 40.9497 -2.95083 -2.95492 0
M  V30 428 N 41.3868 0.248026 -1.55636 0
M  V30 429 C 42.3348 1.32683 -1.91045 0
M  V30 430 C 43.3288 1.49883 -0.789401 0
M  V30 431 O 44.5348 1.51371 -0.974007 0
M  V30 432 H 40.9098 0.444272 -0.606734 0
M  V30 433 H 42.8808 1.00085 -2.81115 0
M  V30 434 C 41.6298 2.6755 -2.22064 0
M  V30 435 H 40.9528 2.55114 -3.07826 0
M  V30 436 H 42.3928 3.41912 -2.50743 0
M  V30 437 C 40.8518 3.20556 -1.0366 0
M  V30 438 O 41.3818 4.00695 -0.284016 0
M  V30 439 N 39.5878 2.78568 -0.82753 0
M  V30 440 H 39.1348 2.1351 -1.44123 0
M  V30 441 H 39.0928 3.14378 -0.0369803 0
M  V30 442 N 42.8649 1.48995 0.513639 0
M  V30 443 C 43.8119 1.6473 1.61656 0
M  V30 444 C 44.7819 0.488984 1.58739 0
M  V30 445 O 45.9669 0.714478 1.76918 0
M  V30 446 C 43.1069 1.7082 2.99858 0
M  V30 447 C 42.2199 2.9787 3.12885 0
M  V30 448 C 41.3549 2.95017 4.41744 0
M  V30 449 C 40.3939 4.16702 4.48359 0
M  V30 450 N 39.5309 4.11832 5.68629 0
M  V30 451 H 44.3709 2.58909 1.47547 0
M  V30 452 H 41.9079 1.28382 0.71808 0
M  V30 453 H 43.8659 1.72331 3.79944 0
M  V30 454 H 42.4959 0.801181 3.12699 0
M  V30 455 H 41.5479 3.06029 2.25944 0
M  V30 456 H 42.8599 3.8786 3.13633 0
M  V30 457 H 42.0139 2.95021 5.30139 0
M  V30 458 H 40.7529 2.02784 4.43542 0
M  V30 459 H 39.7579 4.16955 3.58369 0
M  V30 460 H 40.9829 5.10113 4.48287 0
M  V30 461 H 38.9289 3.22428 5.71293 0
M  V30 462 H 38.8459 4.95543 5.7094 0
M  V30 463 H 40.1139 4.1592 6.59266 0
M  V30 464 N 44.343 -0.763751 1.37857 0
M  V30 465 C 45.754 -1.3405 1.29952 0
M  V30 466 C 46.105 -1.96138 -0.0492898 0
M  V30 467 O 45.23 -1.94372 -0.951239 0
M  V30 468 C 45.825 -2.43729 2.35333 0
M  V30 469 C 44.384 -2.97151 2.31037 0
M  V30 470 C 43.531 -1.70438 2.18738 0
M  V30 471 H 46.482 -0.563396 1.48363 0
M  V30 472 H 46.503 -3.23412 2.00462 0
M  V30 473 H 46.015 -1.9851 3.33489 0
M  V30 474 H 44.116 -3.46724 1.3643 0
M  V30 475 H 44.229 -3.52221 3.24772 0
M  V30 476 H 42.593 -1.93673 1.65418 0
M  V30 477 H 43.376 -1.27312 3.18821 0
M  V30 478 N 45.8211 -1.22559 -0.990812 0
M  V30 479 C 46.7691 -0.994798 -2.10253 0
M  V30 480 C 47.7631 0.0627798 -1.69284 0
M  V30 481 O 48.9691 -0.0898392 -1.79776 0
M  V30 482 H 45.3441 -0.304527 -0.687581 0
M  V30 483 H 47.3151 -1.93812 -2.26891 0
M  V30 484 C 46.0641 -0.591439 -3.42633 0
M  V30 485 H 45.3871 -1.3969 -3.74602 0
M  V30 486 H 46.8271 -0.469385 -4.21394 0
M  V30 487 C 45.2861 0.699232 -3.29564 0
M  V30 488 O 45.8161 1.75112 -3.61523 0
M  V30 489 N 44.0221 0.671182 -2.82743 0
M  V30 490 H 43.5691 -0.185136 -2.56934 0
M  V30 491 H 43.5271 1.53502 -2.7438 0
M  V30 492 N 47.2992 1.18797 -1.03562 0
M  V30 493 C 48.5462 1.8865 -0.736023 0
M  V30 494 C 48.8742 1.80041 0.735889 0
M  V30 495 O 48.1292 1.19179 1.55225 0
M  V30 496 C 48.4282 3.38692 -1.14117 0
M  V30 497 C 48.0942 3.67504 -2.6125 0
M  V30 498 C 46.7562 3.75078 -3.01447 0
M  V30 499 C 49.1082 3.80293 -3.56408 0
M  V30 500 C 46.4362 3.92915 -4.35701 0
M  V30 501 C 48.7882 3.99645 -4.90374 0
M  V30 502 C 47.4522 4.05453 -5.30249 0
M  V30 503 H 46.7222 0.690321 -0.26933 0
M  V30 504 H 49.3692 1.40641 -1.29971 0
M  V30 505 H 47.6742 3.88645 -0.496202 0
M  V30 506 H 49.3712 3.91072 -0.886789 0
M  V30 507 H 45.9612 3.62223 -2.29113 0
M  V30 508 H 50.1452 3.73779 -3.26501 0
M  V30 509 H 45.4012 3.95653 -4.66121 0
M  V30 510 H 49.5752 4.08482 -5.64017 0
M  V30 511 H 47.2022 4.19027 -6.34288 0
M  V30 512 N 48.7773 0.814389 1.34928 0
M  V30 513 C 50.0543 0.321363 1.92942 0
M  V30 514 C 50.4343 -1.19014 1.74353 0
M  V30 515 O 49.7823 -1.99328 1.11716 0
M  V30 516 C 49.9923 0.741323 3.41036 0
M  V30 517 C 51.3403 0.735266 4.18185 0
M  V30 518 O 52.3643 0.68336 3.49584 0
M  V30 519 O 51.2233 0.800703 5.40602 0
M  V30 520 H 48.3173 0.0858893 0.822528 0
M  V30 521 H 50.8633 0.898609 1.43955 0
M  V30 522 H 49.6353 1.78276 3.4833 0
M  V30 523 H 49.2583 0.139307 3.97356 0
M  V30 524 N 50.2554 -1.46986 0.568584 0
M  V30 525 C 51.6714 -1.57946 0.229189 0
M  V30 526 C 51.8714 -1.56567 -1.26843 0
M  V30 527 O 50.9274 -1.47511 -2.04931 0
M  V30 528 C 52.2404 -2.87963 0.865909 0
M  V30 529 C 53.7884 -3.01568 0.838188 0
M  V30 530 C 54.2634 -4.34301 1.45419 0
M  V30 531 N 55.7544 -4.40965 1.41788 0
M  V30 532 C 56.4894 -5.42256 1.86403 0
M  V30 533 N 55.9854 -6.50297 2.38926 0
M  V30 534 N 57.7784 -5.3337 1.77405 0
M  V30 535 H 49.9294 -1.46126 1.54146 0
M  V30 536 H 52.1924 -0.696156 0.643484 0
M  V30 537 H 51.8984 -2.94742 1.91886 0
M  V30 538 H 51.7724 -3.75423 0.365687 0
M  V30 539 H 54.1594 -2.94379 -0.206106 0
M  V30 540 H 54.2404 -2.1562 1.37629 0
M  V30 541 H 53.8844 -4.42247 2.49761 0
M  V30 542 H 53.8144 -5.19 0.891435 0
M  V30 543 H 56.3054 -3.63484 1.03381 0
M  V30 544 H 56.6184 -7.23777 2.70863 0
M  V30 545 H 54.9634 -6.51155 2.42944 0
M  V30 546 H 58.1544 -4.47865 1.3614 0
M  V30 547 H 58.3274 -6.12169 2.12492 0
M  V30 548 N 51.7335 -0.305618 -1.54608 0
M  V30 549 C 52.9635 0.304333 -2.04346 0
M  V30 550 C 53.3715 1.47715 -1.18224 0
M  V30 551 O 52.7145 1.82591 -0.201577 0
M  V30 552 C 52.7765 0.819031 -3.50046 0
M  V30 553 C 52.4405 -0.22912 -4.56425 0
M  V30 554 C 53.4375 -1.05914 -5.08997 0
M  V30 555 C 51.1225 -0.372148 -5.0092 0
M  V30 556 C 53.1165 -2.01809 -6.04609 0
M  V30 557 C 50.8035 -1.33454 -5.9635 0
M  V30 558 C 51.8015 -2.15599 -6.48079 0
M  V30 559 O 51.4895 -3.10205 -7.41639 0
M  V30 560 H 51.2215 0.0693996 -0.672428 0
M  V30 561 H 53.7755 -0.444548 -2.00532 0
M  V30 562 H 52.0055 1.61852 -3.51199 0
M  V30 563 H 53.6945 1.34537 -3.82955 0
M  V30 564 H 54.4605 -0.959538 -4.75413 0
M  V30 565 H 50.3395 0.257304 -4.60281 0
M  V30 566 H 53.8835 -2.65966 -6.44909 0
M  V30 567 H 49.7805 -1.43485 -6.29351 0
M  V30 568 H 50.5485 -3.05237 -7.59455 0
M  V30 569 N 53.2116 1.57565 -0.0334293 0
M  V30 570 C 54.4576 1.93088 0.639417 0
M  V30 571 C 54.8126 0.910589 1.69488 0
M  V30 572 O 54.1056 -0.0727725 1.91462 0
M  V30 573 C 54.2996 3.33112 1.29504 0
M  V30 574 C 54.1286 4.48667 0.304604 0
M  V30 575 C 52.8986 5.05207 -0.0970777 0
M  V30 576 C 55.0966 5.1239 -0.442845 0
M  V30 577 N 53.0786 6.04286 -1.08223 0
M  V30 578 C 54.4496 6.06609 -1.28161 0
M  V30 579 C 56.5046 4.95352 -0.50308 0
M  V30 580 C 55.2076 6.85622 -2.17519 0
M  V30 581 C 57.2336 5.74978 -1.38401 0
M  V30 582 C 56.5956 6.68816 -2.21054 0
M  V30 583 H 52.6946 0.754335 0.206161 0
M  V30 584 H 55.2786 1.94435 -0.101613 0
M  V30 585 H 53.4496 3.32576 2.00618 0
M  V30 586 H 55.1816 3.55972 1.92525 0
M  V30 587 H 51.9366 4.72782 0.278255 0
M  V30 588 H 52.3606 6.58516 -1.57117 0
M  V30 589 H 57.0026 4.22625 0.121694 0
M  V30 590 H 54.7206 7.57652 -2.81049 0
M  V30 591 H 58.3066 5.63826 -1.43496 0
M  V30 592 H 57.1866 7.29355 -2.88116 0
M  V30 593 N 54.6897 -0.239769 1.55765 0
M  V30 594 C 55.6377 -1.31668 1.91745 0
M  V30 595 C 56.6317 -1.49462 0.797338 0
M  V30 596 O 57.8377 -1.50852 0.982021 0
M  V30 597 H 54.2127 -0.441048 0.609082 0
M  V30 598 H 56.1837 -0.985923 2.81642 0
M  V30 599 C 54.9327 -2.66368 2.2348 0
M  V30 600 H 54.2557 -2.53478 3.09175 0
M  V30 601 H 55.6957 -3.40578 2.52553 0
M  V30 602 C 54.1547 -3.20002 1.05359 0
M  V30 603 O 54.6847 -4.00538 0.305261 0
M  V30 604 N 52.8907 -2.78126 0.842292 0
M  V30 605 H 52.4377 -2.12742 1.45253 0
M  V30 606 H 52.3957 -3.14354 0.053652 0
M  V30 607 N 56.1678 -1.49265 -0.50573 0
M  V30 608 C 57.0778 -1.68312 -1.63427 0
M  V30 609 C 58.0938 -0.565682 -1.64548 0
M  V30 610 O 59.2698 -0.839801 -1.83055 0
M  V30 611 C 56.3348 -1.74107 -2.99813 0
M  V30 612 C 55.3958 -2.97653 -3.09356 0
M  V30 613 C 54.6288 -3.03163 -4.39236 0
M  V30 614 O 54.8518 -2.16396 -5.27758 0
M  V30 615 O 53.7858 -3.9558 -4.53652 0
M  V30 616 H 57.6118 -2.63907 -1.50289 0
M  V30 617 H 55.1968 -1.32951 -0.681502 0
M  V30 618 H 57.0788 -1.803 -3.80881 0
M  V30 619 H 55.7538 -0.816901 -3.13223 0
M  V30 620 H 54.6608 -2.96981 -2.27493 0
M  V30 621 H 55.9938 -3.89535 -3.00871 0
M  V30 622 N 57.6459 0.756429 -1.3826 0
M  V30 623 C 58.8759 1.54341 -1.3734 0
M  V30 624 C 59.2839 1.89159 0.0393917 0
M  V30 625 O 58.6269 1.5307 1.01565 0
M  V30 626 C 58.6889 2.87238 -2.16182 0
M  V30 627 C 58.3529 2.74973 -3.65019 0
M  V30 628 C 59.3499 2.44962 -4.58574 0
M  V30 629 C 57.0349 2.92515 -4.08338 0
M  V30 630 C 59.0289 2.32642 -5.93428 0
M  V30 631 C 56.7159 2.79815 -5.43274 0
M  V30 632 C 57.7139 2.49921 -6.35632 0
M  V30 633 O 57.4019 2.37275 -7.68086 0
M  V30 634 H 57.1339 0.484281 -0.471643 0
M  V30 635 H 59.6879 0.944152 -1.82414 0
M  V30 636 H 57.9179 3.49342 -1.65822 0
M  V30 637 H 59.6069 3.48731 -2.07705 0
M  V30 638 H 60.3729 2.31081 -4.26412 0
M  V30 639 H 56.2519 3.14781 -3.368 0
M  V30 640 H 59.7959 2.0923 -6.65484 0
M  V30 641 H 55.6929 2.93269 -5.75034 0
M  V30 642 H 56.4609 2.52509 -7.78577 0
M  V30 643 N 59.124 1.23083 0.984299 0
M  V30 644 C 60.535 1.05609 1.5396 0
M  V30 645 C 60.886 -0.377793 1.92528 0
M  V30 646 O 60.011 -1.26398 1.75649 0
M  V30 647 C 60.606 1.91087 2.7977 0
M  V30 648 C 59.165 1.77885 3.31713 0
M  V30 649 C 58.312 1.87028 2.04733 0
M  V30 650 H 61.263 1.36802 0.804419 0
M  V30 651 H 61.284 1.43336 3.5247 0
M  V30 652 H 60.796 2.9544 2.51668 0
M  V30 653 H 58.897 0.762995 3.64704 0
M  V30 654 H 59.01 2.61047 4.01735 0
M  V30 655 H 57.374 1.30565 2.18689 0
M  V30 656 H 58.157 2.92929 1.79017 0
M  V30 657 N 60.6021 -1.18246 1.0419 0
M  V30 658 C 61.5521 -2.19843 0.604392 0
M  V30 659 C 62.5361 -1.56962 -0.353814 0
M  V30 660 O 63.7281 -1.76156 -0.17267 0
M  V30 661 C 60.8571 -3.43287 -0.0298975 0
M  V30 662 C 59.9431 -4.13288 0.951531 0
M  V30 663 N 60.3341 -4.59271 2.11906 0
M  V30 664 C 58.6321 -4.39165 0.7778 0
M  V30 665 C 59.3331 -5.13173 2.73912 0
M  V30 666 N 58.3091 -5.04763 2.01779 0
M  V30 667 H 62.1111 -2.53089 1.4941 0
M  V30 668 H 59.6251 -1.34465 0.910658 0
M  V30 669 H 61.6221 -4.15334 -0.361037 0
M  V30 670 H 60.2821 -3.11537 -0.915127 0
M  V30 671 H 61.2931 -4.5368 2.49789 0
M  V30 672 H 57.9701 -4.17461 -0.0572331 0
M  V30 673 H 59.3601 -5.58947 3.72864 0
M  V30 674 N 62.0802 -0.821533 -1.34494 0
M  V30 675 C 63.3082 -0.421884 -2.02553 0
M  V30 676 C 63.7232 0.971745 -1.61872 0
M  V30 677 O 63.0802 1.62864 -0.823496 0
M  V30 678 C 63.1312 -0.51285 -3.57844 0
M  V30 679 O 62.8522 -1.85155 -3.97051 0
M  V30 680 C 64.3532 -0.107921 -4.43169 0
M  V30 681 H 61.5732 -0.169482 -0.649243 0
M  V30 682 H 64.1172 -1.1093 -1.71798 0
M  V30 683 H 62.2722 0.126474 -3.87193 0
M  V30 684 H 62.6862 -1.82482 -4.91732 0
M  V30 685 H 64.1602 -0.222657 -5.51551 0
M  V30 686 H 64.6372 0.948401 -4.28838 0
M  V30 687 H 65.2432 -0.720989 -4.19144 0
M  V30 688 N 63.5583 1.46682 -0.576371 0
M  V30 689 C 64.7863 2.06798 -0.0649635 0
M  V30 690 C 65.2013 1.42612 1.23723 0
M  V30 691 O 64.5583 0.529203 1.74659 0
M  V30 692 C 64.6093 3.6132 0.114202 0
M  V30 693 O 64.3303 4.23104 -1.13644 0
M  V30 694 C 65.8313 4.38349 0.66069 0
M  V30 695 H 63.0513 0.668778 -0.0545616 0
M  V30 696 H 65.5953 1.88404 -0.795237 0
M  V30 697 H 63.7503 3.79162 0.794673 0
M  V30 698 H 64.1643 5.15894 -0.946253 0
M  V30 699 H 65.6383 5.47081 0.73526 0
M  V30 700 H 66.1153 4.05953 1.67627 0
M  V30 701 H 66.7213 4.25297 0.0152951 0
M  V30 702 N 65.0364 0.313813 1.54444 0
M  V30 703 C 65.9664 -0.549454 2.26943 0
M  V30 704 C 66.9474 -1.12741 1.27372 0
M  V30 705 O 68.1324 -1.15436 1.56167 0
M  V30 706 C 65.2624 -1.71523 3.01989 0
M  V30 707 C 64.2164 -1.26703 4.08816 0
M  V30 708 C 63.5424 -2.51898 4.71647 0
M  V30 709 C 64.8424 -0.388962 5.2085 0
M  V30 710 H 66.5364 0.0552661 2.99349 0
M  V30 711 H 64.0824 0.0280207 1.43973 0
M  V30 712 H 66.0354 -2.32535 3.51433 0
M  V30 713 H 64.7594 -2.34639 2.27183 0
M  V30 714 H 63.4184 -0.679896 3.6024 0
M  V30 715 H 63.0664 -3.13356 3.93468 0
M  V30 716 H 62.7664 -2.22605 5.43802 0
M  V30 717 H 64.2904 -3.1369 5.23861 0
M  V30 718 H 65.7044 -0.905107 5.6611 0
M  V30 719 H 64.1014 -0.18924 5.99802 0
M  V30 720 H 65.1714 0.582699 4.81386 0
M  V30 721 N 66.5145 -1.57545 0.0417849 0
M  V30 722 C 67.4615 -2.10977 -0.935805 0
M  V30 723 C 68.4315 -1.01486 -1.31491 0
M  V30 724 O 69.6165 -1.2898 -1.40602 0
M  V30 725 C 66.7565 -2.65169 -2.2086 0
M  V30 726 C 65.8695 -3.88714 -1.88482 0
M  V30 727 C 65.0045 -4.31254 -3.1015 0
M  V30 728 C 64.0435 -5.47524 -2.7365 0
M  V30 729 N 63.1805 -5.85162 -3.87982 0
M  V30 730 H 68.0205 -2.94218 -0.473249 0
M  V30 731 H 65.5575 -1.45415 -0.221981 0
M  V30 732 H 67.5155 -2.94685 -2.95325 0
M  V30 733 H 66.1455 -1.8474 -2.64709 0
M  V30 734 H 65.1975 -3.65849 -1.04205 0
M  V30 735 H 66.5095 -4.73245 -1.57608 0
M  V30 736 H 65.6635 -4.62273 -3.92923 0
M  V30 737 H 64.4025 -3.45516 -3.44195 0
M  V30 738 H 63.4075 -5.16187 -1.89291 0
M  V30 739 H 64.6325 -6.34971 -2.40807 0
M  V30 740 H 62.5785 -5.02377 -4.21846 0
M  V30 741 H 62.4955 -6.64362 -3.60775 0
M  V30 742 H 63.7635 -6.20791 -4.71422 0
M  V30 743 N 67.9926 0.231505 -1.5589 0
M  V30 744 C 68.9556 1.27028 -1.90779 0
M  V30 745 C 69.9556 1.40308 -0.785507 0
M  V30 746 O 71.1456 1.38744 -1.05336 0
M  V30 747 C 68.2776 2.64566 -2.14983 0
M  V30 748 H 69.4706 0.973017 -2.83677 0
M  V30 749 H 67.0236 0.471486 -1.49019 0
M  V30 750 H 67.7586 2.99406 -1.24604 0
M  V30 751 H 67.5436 2.56305 -2.96732 0
M  V30 752 H 69.0336 3.39543 -2.43105 0
M  V30 753 N 69.4707 1.49531 0.497807 0
M  V30 754 C 70.7107 1.60799 1.26187 0
M  V30 755 C 71.0747 0.289627 1.89803 0
M  V30 756 O 72.2757 0.277512 2.67364 0
M  V30 757 C 70.5467 2.73729 2.29798 0
M  V30 758 S 72.1057 3.04968 3.155 0
M  V30 759 H 68.9237 0.567145 0.428798 0
M  V30 760 H 71.5257 1.87204 0.563477 0
M  V30 761 H 70.2297 3.68036 1.81597 0
M  V30 762 H 69.7607 2.49328 3.04301 0
M  V30 763 H 71.7757 2.46735 4.30507 0
M  V30 764 N 70.9488 -0.749086 1.3866 0
M  V30 765 C 72.1968 -1.50535 1.34847 0
M  V30 766 C 72.5178 -1.94909 -0.0595016 0
M  V30 767 O 71.7878 -1.67973 -1.00806 0
M  V30 768 H 70.3678 -0.558395 0.49619 0
M  V30 769 H 73.0298 -0.890165 1.73384 0
M  V30 770 H 72.1258 -2.39413 2.00219 0
M  V30 771 N 72.4269 -1.23603 -0.977757 0
M  V30 772 C 73.3369 -1.03632 -2.1047 0
M  V30 773 C 74.3529 0.0199435 -1.73989 0
M  V30 774 O 75.5289 -0.176076 -2.00629 0
M  V30 775 C 72.5939 -0.63276 -3.40877 0
M  V30 776 C 71.6549 -1.76437 -3.91367 0
M  V30 777 C 70.8879 -1.37997 -5.15551 0
M  V30 778 O 71.1109 -0.265357 -5.69782 0
M  V30 779 O 70.0449 -2.20201 -5.60174 0
M  V30 780 H 73.8709 -1.98086 -2.30208 0
M  V30 781 H 71.4559 -1.02332 -1.08851 0
M  V30 782 H 73.3379 -0.418761 -4.19314 0
M  V30 783 H 72.0129 0.282754 -3.22463 0
M  V30 784 H 70.9199 -2.03304 -3.14036 0
M  V30 785 H 72.2529 -2.6583 -4.14241 0
M  V30 786 N 73.905 1.17692 -1.04816 0
M  V30 787 C 74.868 2.19787 -0.650117 0
M  V30 788 C 75.868 1.58044 0.296427 0
M  V30 789 O 77.058 1.74012 0.0808097 0
M  V30 790 C 74.19 3.40869 0.0456987 0
M  V30 791 H 75.383 2.56516 -1.5537 0
M  V30 792 H 72.936 1.31708 -0.841594 0
M  V30 793 H 73.671 3.09681 0.962726 0
M  V30 794 H 73.456 3.86928 -0.634727 0
M  V30 795 H 74.946 4.16445 0.310432 0
M  V30 796 N 75.3831 0.828654 1.34056 0
M  V30 797 C 76.6291 0.42008 1.98402 0
M  V30 798 C 76.9621 -1.01564 1.65525 0
M  V30 799 O 76.2371 -1.70834 0.929831 0
M  V30 800 C 76.5201 0.62927 3.54559 0
M  V30 801 C 76.3731 2.11152 3.97159 0
M  V30 802 C 77.6921 0.0688756 4.40046 0
M  V30 803 H 74.8111 0.154104 0.720709 0
M  V30 804 H 77.4531 1.04228 1.5886 0
M  V30 805 H 75.6031 0.0996418 3.88372 0
M  V30 806 H 77.2751 2.70522 3.73651 0
M  V30 807 H 75.5181 2.59985 3.47261 0
M  V30 808 H 76.1891 2.20868 5.05887 0
M  V30 809 H 78.6651 0.521458 4.1282 0
M  V30 810 H 77.5411 0.245006 5.48353 0
M  V30 811 H 77.8021 -1.0266 4.30015 0
M  V30 812 N 76.8612 -1.46375 0.584142 0
M  V30 813 C 78.1092 -2.01978 0.0701287 0
M  V30 814 C 78.4302 -1.4579 -1.295 0
M  V30 815 O 77.7002 -0.64314 -1.85042 0
M  V30 816 H 76.2802 -0.746648 0.0229345 0
M  V30 817 H 78.9422 -1.79461 0.760245 0
M  V30 818 H 78.0382 -3.121 0.0022064 0
M  V30 819 N 78.3393 -0.321999 -1.54275 0
M  V30 820 C 79.2693 0.537411 -2.27231 0
M  V30 821 C 80.2503 1.12064 -1.27968 0
M  V30 822 O 81.4353 1.14606 -1.56777 0
M  V30 823 C 78.5653 1.69919 -3.02894 0
M  V30 824 C 77.5193 1.24534 -4.09482 0
M  V30 825 C 76.8453 2.49394 -4.72977 0
M  V30 826 C 78.1453 0.361335 -5.21049 0
M  V30 827 H 79.8393 -0.0711406 -2.99315 0
M  V30 828 H 77.3853 -0.0356555 -1.43956 0
M  V30 829 H 79.3383 2.30668 -3.52662 0
M  V30 830 H 78.0623 2.33431 -2.28424 0
M  V30 831 H 76.7213 0.660782 -3.60596 0
M  V30 832 H 76.3693 3.11265 -3.95124 0
M  V30 833 H 76.0693 2.19718 -5.44975 0
M  V30 834 H 77.5933 3.10908 -5.25517 0
M  V30 835 H 79.0073 0.875072 -5.66582 0
M  V30 836 H 77.4043 0.157428 -5.99893 0
M  V30 837 H 78.4743 -0.60822 -4.8107 0
M  V30 838 N 79.8174 1.5752 -0.0501392 0
M  V30 839 C 81.2284 1.80271 0.485705 0
M  V30 840 C 81.5794 0.96228 1.70981 0
M  V30 841 O 80.7044 0.178578 2.15662 0
M  V30 842 C 81.2994 3.26957 0.887938 0
M  V30 843 C 79.8584 3.5063 1.36877 0
M  V30 844 C 79.0054 2.75165 0.343468 0
M  V30 845 H 81.9564 1.56281 -0.276028 0
M  V30 846 H 81.9774 3.37821 1.75093 0
M  V30 847 H 81.4894 3.881 -0.0031809 0
M  V30 848 H 79.5904 2.94766 2.27911 0
M  V30 849 H 79.7034 4.59343 1.36164 0
M  V30 850 H 78.0674 2.4127 0.816128 0
M  V30 851 H 78.8504 3.39034 -0.539548 0
M  V30 852 N 81.2955 -0.223234 1.56011 0
M  V30 853 C 82.2055 -1.29766 1.95443 0
M  V30 854 C 83.2215 -1.51373 0.858028 0
M  V30 855 O 84.3975 -1.64536 1.16146 0
M  V30 856 C 81.4625 -2.62772 2.26167 0
M  V30 857 C 80.5235 -2.49482 3.49367 0
M  V30 858 C 79.7565 -3.76145 3.78616 0
M  V30 859 O 79.9795 -4.79087 3.09568 0
M  V30 860 O 78.9135 -3.73358 4.72109 0
M  V30 861 H 82.7395 -0.99309 2.87004 0
M  V30 862 H 80.3245 -0.425958 1.43199 0
M  V30 863 H 82.2065 -3.41327 2.47131 0
M  V30 864 H 80.8815 -2.92913 1.37781 0
M  V30 865 H 79.7885 -1.69133 3.33684 0
M  V30 866 H 81.1215 -2.2428 4.38131 0
M  V30 867 N 82.7736 -1.49793 -0.48987 0
M  V30 868 C 84.0216 -1.59525 -1.24081 0
M  V30 869 C 84.3426 -0.288953 -1.92847 0
M  V30 870 O 83.6126 0.692436 -1.83254 0
M  V30 871 H 82.1926 -0.587796 -0.460983 0
M  V30 872 H 84.8546 -1.86477 -0.566778 0
M  V30 873 H 83.9506 -2.39696 -1.99881 0
M  V30 874 N 84.2517 0.741722 -1.39055 0
M  V30 875 C 85.1837 1.8657 -1.33133 0
M  V30 876 C 86.1967 1.61001 -0.241329 0
M  V30 877 O 87.3857 1.7136 -0.499784 0
M  V30 878 C 84.4857 3.22457 -1.04283 0
M  V30 879 C 83.6587 3.75435 -2.24427 0
M  V30 880 C 82.7177 4.89867 -1.92138 0
M  V30 881 O 81.7437 5.03879 -2.64754 0
M  V30 882 N 82.9457 5.73738 -0.88347 0
M  V30 883 H 85.7107 1.92156 -2.29991 0
M  V30 884 H 83.2717 0.922172 -1.3307 0
M  V30 885 H 85.2637 3.9657 -0.807128 0
M  V30 886 H 83.8337 3.12181 -0.161807 0
M  V30 887 H 83.0537 2.92751 -2.6399 0
M  V30 888 H 84.3417 4.07563 -3.04581 0
M  V30 889 H 83.7397 5.64999 -0.281517 0
M  V30 890 H 82.2967 6.47947 -0.707662 0
M  V30 891 N 85.7298 1.2412 0.971189 0
M  V30 892 C 86.6628 0.97373 2.06382 0
M  V30 893 C 87.6408 -0.0912662 1.62344 0
M  V30 894 O 88.8248 0.0449365 1.88446 0
M  V30 895 C 85.9518 0.468746 3.35441 0
M  V30 896 C 84.9978 1.52176 3.98428 0
M  V30 897 S 85.8308 3.10203 4.36503 0
M  V30 898 C 86.9868 2.61398 5.68702 0
M  V30 899 H 87.2198 1.89893 2.28753 0
M  V30 900 H 84.7528 1.07466 1.10862 0
M  V30 901 H 86.7108 0.184012 4.10087 0
M  V30 902 H 85.3718 -0.435688 3.11064 0
M  V30 903 H 84.5648 1.11876 4.91426 0
M  V30 904 H 84.1668 1.75632 3.30196 0
M  V30 905 H 86.4588 2.03992 6.4606 0
M  V30 906 H 87.4018 3.52972 6.13854 0
M  V30 907 H 87.8098 2.01941 5.27143 0
M  V30 908 N 87.2079 -1.17134 1.05439 0
M  V30 909 C 88.4559 -1.87085 0.764429 0
M  V30 910 C 88.7769 -1.81584 -0.710787 0
M  V30 911 O 88.0469 -1.24349 -1.51374 0
M  V30 912 H 86.6269 -0.692627 0.279779 0
M  V30 913 H 89.2889 -1.42087 1.33406 0
M  V30 914 H 88.3849 -2.92759 1.0816 0
M  V30 915 N 88.686 -0.835752 -1.33615 0
M  V30 916 C 89.634 -0.255238 -2.31195 0
M  V30 917 C 90.628 0.61107 -1.57995 0
M  V30 918 O 91.834 0.500979 -1.72888 0
M  V30 919 H 88.209 -0.0638085 -0.749288 0
M  V30 920 H 90.18 -1.09283 -2.77669 0
M  V30 921 C 88.929 0.55754 -3.43201 0
M  V30 922 H 88.252 -0.0997553 -3.99676 0
M  V30 923 H 89.692 0.929622 -4.13683 0
M  V30 924 C 88.151 1.73515 -2.88781 0
M  V30 925 O 88.681 2.83376 -2.84712 0
M  V30 926 N 86.887 1.55603 -2.4543 0
M  V30 927 H 86.434 0.662354 -2.48939 0
M  V30 928 H 86.392 2.34545 -2.09371 0
M  V30 929 N 90.1641 1.46063 -0.591896 0
M  V30 930 C 91.3891 2.07226 -0.0850314 0
M  V30 931 C 91.8141 1.43625 1.21463 0
M  V30 932 O 91.1721 0.523305 1.73583 0
M  V30 933 C 91.2201 3.60554 0.0576567 0
M  V30 934 O 90.3241 3.97128 1.11188 0
M  V30 935 H 89.6651 0.660615 -0.0669568 0
M  V30 936 H 92.1951 1.8756 -0.81745 0
M  V30 937 H 92.2051 4.07165 0.2609 0
M  V30 938 H 90.8801 4.06235 -0.891416 0
M  V30 939 H 89.4571 3.62213 0.886356 0
M  V30 940 N 91.6422 0.330177 1.54103 0
M  V30 941 C 92.5522 -0.541534 2.28264 0
M  V30 942 C 93.5682 -1.12351 1.32866 0
M  V30 943 O 94.7442 -1.14206 1.65888 0
M  V30 944 C 91.8092 -1.68322 3.03098 0
M  V30 945 C 90.8702 -1.13238 4.14096 0
M  V30 946 C 90.1032 -2.21966 4.85352 0
M  V30 947 O 90.3262 -3.42437 4.56172 0
M  V30 948 O 89.2602 -1.87013 5.7211 0
M  V30 949 H 93.0862 0.060938 3.03639 0
M  V30 950 H 90.6712 0.09565 1.49093 0
M  V30 951 H 92.5532 -2.34777 3.49939 0
M  V30 952 H 91.2282 -2.27176 2.30593 0
M  V30 953 H 90.1352 -0.432736 3.71589 0
M  V30 954 H 91.4682 -0.588898 4.88664 0
M  V30 955 N 93.1203 -1.57491 0.0584922 0
M  V30 956 C 94.3663 -1.93264 -0.614558 0
M  V30 957 C 94.6993 -0.937717 -1.7006 0
M  V30 958 O 93.9743 0.0351652 -1.94468 0
M  V30 959 C 94.2573 -3.3938 -1.20386 0
M  V30 960 C 94.1103 -4.49625 -0.125375 0
M  V30 961 C 95.4293 -3.86039 -2.11334 0
M  V30 962 H 92.5483 -0.702791 -0.221933 0
M  V30 963 H 95.1903 -1.8961 0.12175 0
M  V30 964 H 93.3403 -3.42626 -1.83139 0
M  V30 965 H 95.0123 -4.58506 0.506971 0
M  V30 966 H 93.2553 -4.30354 0.545672 0
M  V30 967 H 93.9263 -5.48967 -0.577861 0
M  V30 968 H 96.4023 -3.84716 -1.58534 0
M  V30 969 H 95.2783 -4.88914 -2.49507 0
M  V30 970 H 95.5393 -3.23215 -3.01636 0
M  V30 971 N 94.5984 0.214957 -1.56127 0
M  V30 972 C 95.8464 0.936518 -1.79091 0
M  V30 973 C 96.1674 1.84606 -0.628148 0
M  V30 974 O 95.4374 1.92664 0.35462 0
M  V30 975 H 94.0174 0.3488 -0.660566 0
M  V30 976 H 96.6794 0.22523 -1.93594 0
M  V30 977 H 95.7754 1.53943 -2.71492 0
M  V30 978 N 96.0765 1.50051 0.48192 0
M  V30 979 C 97.0265 1.64512 1.5786 0
M  V30 980 C 98.0105 0.500073 1.52932 0
M  V30 981 O 99.2025 0.753964 1.60139 0
M  V30 982 C 96.3315 1.73263 2.9637 0
M  V30 983 C 95.4175 2.93409 3.06222 0
M  V30 984 N 95.8085 4.17236 2.85915 0
M  V30 985 C 94.1065 2.91742 3.37346 0
M  V30 986 C 94.8075 4.981 3.00451 0
M  V30 987 N 93.7835 4.3184 3.30174 0
M  V30 988 H 97.5855 2.57955 1.40842 0
M  V30 989 H 95.0995 1.47086 0.688439 0
M  V30 990 H 97.0965 1.81724 3.75209 0
M  V30 991 H 95.7565 0.809711 3.14442 0
M  V30 992 H 96.7675 4.46909 2.6171 0
M  V30 993 H 93.4445 2.08907 3.61475 0
M  V30 994 H 94.8345 6.06532 2.89082 0
M  V30 995 N 97.5546 -0.734337 1.39446 0
M  V30 996 C 98.4846 -1.86155 1.40955 0
M  V30 997 C 99.4656 -1.67898 0.272827 0
M  V30 998 O 100.651 -1.88207 0.478743 0
M  V30 999 C 97.7806 -3.23912 1.25294 0
M  V30 1000 C 96.7346 -3.56808 2.36373 0
M  V30 1001 C 96.0606 -4.93508 2.058 0
M  V30 1002 C 97.3606 -3.59713 3.78687 0
M  V30 1003 H 99.0546 -1.8515 2.35287 0
M  V30 1004 H 96.6006 -0.889367 1.13253 0
M  V30 1005 H 98.5536 -4.02443 1.2497 0
M  V30 1006 H 97.2776 -3.25446 0.274308 0
M  V30 1007 H 95.9366 -2.80606 2.35914 0
M  V30 1008 H 95.5846 -4.91623 1.06374 0
M  V30 1009 H 95.2846 -5.16486 2.80208 0
M  V30 1010 H 96.8086 -5.74396 2.07128 0
M  V30 1011 H 98.2226 -4.2832 3.81071 0
M  V30 1012 H 96.6196 -3.94209 4.52459 0
M  V30 1013 H 97.6896 -2.59504 4.09617 0
M  V30 1014 N 99.0327 -1.24633 -0.964593 0
M  V30 1015 C 99.9807 -1.03917 -2.08096 0
M  V30 1016 C 100.975 0.0268581 -1.69379 0
M  V30 1017 O 102.181 -0.127952 -1.79545 0
M  V30 1018 H 98.5557 -0.319044 -0.680966 0
M  V30 1019 H 100.527 -1.98581 -2.22729 0
M  V30 1020 C 99.2757 -0.663983 -3.41301 0
M  V30 1021 H 98.5987 -1.47605 -3.71555 0
M  V30 1022 H 100.039 -0.558663 -4.20303 0
M  V30 1023 C 98.4977 0.629169 -3.30973 0
M  V30 1024 O 99.0277 1.67404 -3.65156 0
M  V30 1025 N 97.2337 0.611057 -2.84103 0
M  V30 1026 H 96.7807 -0.239593 -2.56483 0
M  V30 1027 H 96.7387 1.47647 -2.77575 0
M  V30 1028 N 100.511 1.16574 -1.06058 0
M  V30 1029 C 101.76 1.86385 -0.770944 0
M  V30 1030 C 102.073 1.82448 0.705129 0
M  V30 1031 O 103.279 2.47815 1.10905 0
M  V30 1032 C 101.735 3.34466 -1.32893 0
M  V30 1033 C 101.343 3.46883 -2.83507 0
M  V30 1034 C 103.087 4.09548 -1.11672 0
M  V30 1035 C 100.994 4.89036 -3.32562 0
M  V30 1036 H 99.9238 0.698181 -0.284709 0
M  V30 1037 H 102.575 1.31583 -1.27899 0
M  V30 1038 H 100.957 3.88859 -0.748662 0
M  V30 1039 H 102.131 3.02663 -3.47465 0
M  V30 1040 H 100.446 2.85232 -3.03368 0
M  V30 1041 H 103.043 5.14434 -1.45814 0
M  V30 1042 H 103.386 4.16264 -0.0549535 0
M  V30 1043 H 103.919 3.61387 -1.66265 0
M  V30 1044 H 100.658 4.87499 -4.38207 0
M  V30 1045 H 100.178 5.3389 -2.73351 0
M  V30 1046 H 101.857 5.57843 -3.2775 0
M  V30 1047 N 101.989 0.842826 1.3317 0
M  V30 1048 C 103.237 0.439577 1.97262 0
M  V30 1049 C 103.558 -1.00548 1.67078 0
M  V30 1050 O 102.828 -1.70098 0.971779 0
M  V30 1051 H 101.408 0.159558 0.72976 0
M  V30 1052 H 104.07 1.07665 1.62463 0
M  V30 1053 H 103.166 0.574886 3.0676 0
M  V30 1054 N 103.467 -1.45747 0.599634 0
M  V30 1055 C 104.43 -2.28917 -0.113835 0
M  V30 1056 C 105.43 -1.3933 -0.802729 0
M  V30 1057 O 106.62 -1.61534 -0.652103 0
M  V30 1058 C 103.752 -3.20152 -1.17114 0
M  V30 1059 H 104.945 -2.93478 0.617289 0
M  V30 1060 H 102.498 -1.52137 0.358327 0
M  V30 1061 H 103.233 -2.60374 -1.93329 0
M  V30 1062 H 103.018 -3.86133 -0.681468 0
M  V30 1063 H 104.508 -3.82708 -1.67105 0
M  V30 1064 N 104.945 -0.338344 -1.53925 0
M  V30 1065 C 106.193 0.259245 -2.0043 0
M  V30 1066 C 106.514 1.51484 -1.22791 0
M  V30 1067 O 105.784 1.93037 -0.33368 0
M  V30 1068 H 104.364 0.0987845 -0.740439 0
M  V30 1069 H 107.026 -0.458302 -1.89435 0
M  V30 1070 H 106.122 0.505334 -3.07982 0
M  V30 1071 N 106.423 1.57458 -0.0668435 0
M  V30 1072 C 107.839 1.56947 0.289772 0
M  V30 1073 C 108.039 1.07584 1.70376 0
M  V30 1074 O 107.095 0.739486 2.41429 0
M  V30 1075 C 108.408 3.0052 0.103943 0
M  V30 1076 C 109.956 3.12517 0.173857 0
M  V30 1077 C 110.431 4.57997 0.0163682 0
M  V30 1078 N 111.922 4.63144 0.0721352 0
M  V30 1079 C 112.657 5.73394 -0.0253794 0
M  V30 1080 N 112.153 6.92576 -0.176133 0
M  V30 1081 N 113.946 5.62091 0.0313305 0
M  V30 1082 H 106.097 1.87863 -0.991027 0
M  V30 1083 H 108.36 0.86583 -0.38606 0
M  V30 1084 H 108.066 3.40729 -0.871572 0
M  V30 1085 H 107.94 3.67304 0.858366 0
M  V30 1086 H 110.327 2.72197 1.13985 0
M  V30 1087 H 110.408 2.48381 -0.611586 0
M  V30 1088 H 110.052 4.99005 -0.946374 0
M  V30 1089 H 109.982 5.20158 0.821153 0
M  V30 1090 H 112.473 3.77436 0.187263 0
M  V30 1091 H 112.786 7.72418 -0.242821 0
M  V30 1092 H 111.131 6.94678 -0.211429 0
M  V30 1093 H 114.322 4.67867 0.147773 0
M  V30 1094 H 114.495 6.47982 -0.048121 0
M  V30 1095 N 107.901 -0.206675 1.56239 0
M  V30 1096 C 109.15 -0.926964 1.79138 0
M  V30 1097 C 109.463 -1.84901 0.638043 0
M  V30 1098 O 110.669 -2.60906 0.751033 0
M  V30 1099 C 109.125 -1.6986 3.17294 0
M  V30 1100 C 108.733 -0.821956 4.40395 0
M  V30 1101 C 110.477 -2.40922 3.4951 0
M  V30 1102 C 108.384 -1.59179 5.69575 0
M  V30 1103 H 107.314 -0.349864 0.667915 0
M  V30 1104 H 109.965 -0.180487 1.8261 0
M  V30 1105 H 108.347 -2.48853 3.08039 0
M  V30 1106 H 109.521 -0.0715019 4.60745 0
M  V30 1107 H 107.836 -0.222741 4.15804 0
M  V30 1108 H 110.433 -2.99047 4.43255 0
M  V30 1109 H 110.776 -3.14542 2.72707 0
M  V30 1110 H 111.309 -1.68905 3.60161 0
M  V30 1111 H 108.048 -0.898589 6.49312 0
M  V30 1112 H 107.568 -2.31648 5.53262 0
M  V30 1113 H 109.247 -2.14862 6.10281 0
M  V30 1114 N 109.379 -1.50304 -0.473955 0
M  V30 1115 C 110.625 -1.61389 -1.22806 0
M  V30 1116 C 110.958 -0.311955 -1.91678 0
M  V30 1117 O 110.233 0.686384 -1.81986 0
M  V30 1118 C 110.516 -2.79219 -2.27396 0
M  V30 1119 C 110.369 -4.19286 -1.62848 0
M  V30 1120 C 111.688 -2.92614 -3.28732 0
M  V30 1121 H 108.807 -0.587399 -0.445119 0
M  V30 1122 H 111.449 -1.82681 -0.522265 0
M  V30 1123 H 109.599 -2.61195 -2.87592 0
M  V30 1124 H 111.271 -4.48892 -1.06271 0
M  V30 1125 H 109.514 -4.23677 -0.931693 0
M  V30 1126 H 110.185 -4.97655 -2.38838 0
M  V30 1127 H 112.661 -3.09105 -2.78556 0
M  V30 1128 H 111.537 -3.76688 -3.99246 0
M  V30 1129 H 111.798 -2.03107 -3.92683 0
M  V30 1130 N 110.857 0.726932 -1.39834 0
M  V30 1131 C 112.087 1.51393 -1.40583 0
M  V30 1132 C 112.495 1.892 -0.000740625 0
M  V30 1133 O 111.838 1.55189 0.982951 0
M  V30 1134 C 111.9 2.82588 -2.22226 0
M  V30 1135 C 111.564 2.67169 -3.70769 0
M  V30 1136 C 112.561 2.3518 -4.63666 0
M  V30 1137 C 110.246 2.83788 -4.14451 0
M  V30 1138 C 112.24 2.20002 -5.98229 0
M  V30 1139 C 109.927 2.68229 -5.49087 0
M  V30 1140 C 110.925 2.36382 -6.4079 0
M  V30 1141 O 110.613 2.2093 -7.72946 0
M  V30 1142 H 110.345 0.474168 -0.48181 0
M  V30 1143 H 112.899 0.905247 -1.84376 0
M  V30 1144 H 111.129 3.45746 -1.73195 0
M  V30 1145 H 112.818 3.44247 -2.15055 0
M  V30 1146 H 113.584 2.21984 -4.31217 0
M  V30 1147 H 109.463 3.07566 -3.43401 0
M  V30 1148 H 113.007 1.95067 -6.69772 0
M  V30 1149 H 108.904 2.81006 -5.81125 0
M  V30 1150 H 109.672 2.35937 -7.83757 0
M  V30 1151 N 112.336 1.25143 0.95797 0
M  V30 1152 C 113.268 1.01023 2.05735 0
M  V30 1153 C 114.281 -0.0236902 1.62783 0
M  V30 1154 O 115.47 0.21448 1.77207 0
M  V30 1155 C 112.57 0.504595 3.35122 0
M  V30 1156 C 111.743 1.6039 4.06932 0
M  V30 1157 C 110.802 1.09922 5.14591 0
M  V30 1158 O 109.828 1.79293 5.40225 0
M  V30 1159 N 111.03 -0.0612545 5.80468 0
M  V30 1160 H 113.795 1.95683 2.26998 0
M  V30 1161 H 111.356 1.16303 1.12629 0
M  V30 1162 H 113.348 0.151516 4.04416 0
M  V30 1163 H 111.918 -0.347989 3.10657 0
M  V30 1164 H 111.138 2.12872 3.31782 0
M  V30 1165 H 112.426 2.34252 4.51667 0
M  V30 1166 H 111.824 -0.640985 5.62057 0
M  V30 1167 H 110.381 -0.355395 6.5083 0
M  V30 1168 N 113.814 -1.1601 1.06675 0
M  V30 1169 C 115.039 -1.91068 0.806706 0
M  V30 1170 C 115.464 -1.77112 -0.633485 0
M  V30 1171 O 114.822 -1.09908 -1.44187 0
M  V30 1172 C 114.87 -3.39655 1.21106 0
M  V30 1173 O 113.974 -4.10893 0.352189 0
M  V30 1174 H 113.315 -0.595125 0.294486 0
M  V30 1175 H 115.845 -1.46955 1.42356 0
M  V30 1176 H 115.855 -3.90434 1.18428 0
M  V30 1177 H 114.53 -3.49132 2.26008 0
M  V30 1178 H 113.107 -3.70285 0.440868 0
M  V30 1179 N 115.292 -0.849877 -1.32721 0
M  V30 1180 C 116.222 -0.306308 -2.31482 0
M  V30 1181 C 117.203 0.591952 -1.59468 0
M  V30 1182 O 118.388 0.513199 -1.87296 0
M  V30 1183 C 115.518 0.510204 -3.43532 0
M  V30 1184 C 114.472 -0.293209 -4.26994 0
M  V30 1185 C 113.798 0.647743 -5.30762 0
M  V30 1186 C 115.098 -1.51634 -4.99804 0
M  V30 1187 H 116.792 -1.13153 -2.77195 0
M  V30 1188 H 114.338 -0.545553 -1.33266 0
M  V30 1189 H 116.291 0.900856 -4.11658 0
M  V30 1190 H 115.015 1.36874 -2.96535 0
M  V30 1191 H 113.674 -0.665555 -3.60508 0
M  V30 1192 H 113.322 1.50299 -4.8002 0
M  V30 1193 H 113.022 0.11422 -5.87489 0
M  V30 1194 H 114.546 1.03567 -6.01753 0
M  V30 1195 H 115.96 -1.19824 -5.60638 0
M  V30 1196 H 114.357 -1.98745 -5.66234 0
M  V30 1197 H 115.427 -2.28018 -4.27943 0
M  V30 1198 N 116.77 1.45427 -0.607355 0
M  V30 1199 C 117.998 2.06614 -0.108814 0
M  V30 1200 C 118.413 1.45204 1.2067 0
M  V30 1201 O 117.77 0.566132 1.73497 0
M  V30 1202 C 117.821 3.61481 0.0375347 0
M  V30 1203 O 117.542 4.20598 -1.22593 0
M  V30 1204 C 119.043 4.39652 0.567561 0
M  V30 1205 H 116.263 0.66747 -0.0687351 0
M  V30 1206 H 118.807 1.86675 -0.835022 0
M  V30 1207 H 116.962 3.80762 0.714068 0
M  V30 1208 H 117.376 5.1377 -1.05547 0
M  V30 1209 H 118.85 5.48518 0.61905 0
M  V30 1210 H 119.327 4.09417 1.58978 0
M  V30 1211 H 119.933 4.25234 -0.0749202 0
M  V30 1212 N 118.248 0.346503 1.53744 0
M  V30 1213 C 119.664 -0.00530975 1.59599 0
M  V30 1214 C 119.864 -1.48465 1.36236 0
M  V30 1215 O 118.92 -2.24376 1.15808 0
M  V30 1216 C 120.233 0.433516 2.97559 0
M  V30 1217 C 121.781 0.386111 3.10609 0
M  V30 1218 C 122.256 0.800451 4.50951 0
M  V30 1219 N 123.747 0.754753 4.5701 0
M  V30 1220 C 124.482 1.04727 5.63755 0
M  V30 1221 N 123.978 1.4081 6.7834 0
M  V30 1222 N 125.771 0.971316 5.53644 0
M  V30 1223 H 117.922 1.31009 1.67184 0
M  V30 1224 H 120.185 0.534242 0.783128 0
M  V30 1225 H 119.891 1.46509 3.19731 0
M  V30 1226 H 119.765 -0.189753 3.76722 0
M  V30 1227 H 122.152 -0.636295 2.88158 0
M  V30 1228 H 122.233 1.04462 2.33498 0
M  V30 1229 H 121.877 1.82088 4.74137 0
M  V30 1230 H 121.807 0.119386 5.26465 0
M  V30 1231 H 124.298 0.488662 3.74727 0
M  V30 1232 H 124.611 1.61607 7.55714 0
M  V30 1233 H 122.956 1.44657 6.79779 0
M  V30 1234 H 126.147 0.688748 4.63005 0
M  V30 1235 H 126.32 1.20263 6.36742 0
M  V30 1236 N 119.726 -1.57421 0.075193 0
M  V30 1237 C 120.975 -1.92794 -0.592731 0
M  V30 1238 C 121.288 -0.957478 -1.70563 0
M  V30 1239 O 122.494 -1.20417 -2.43335 0
M  V30 1240 C 120.95 -3.42495 -1.10569 0
M  V30 1241 C 120.558 -4.47994 -0.0236121 0
M  V30 1242 C 122.302 -3.86864 -1.74748 0
M  V30 1243 C 120.209 -5.88829 -0.550803 0
M  V30 1244 H 119.139 -0.719591 -0.225177 0
M  V30 1245 H 121.79 -1.82902 0.147978 0
M  V30 1246 H 120.172 -3.47471 -1.89947 0
M  V30 1247 H 121.346 -4.54637 0.751099 0
M  V30 1248 H 119.661 -4.13113 0.522159 0
M  V30 1249 H 122.258 -4.8947 -2.15229 0
M  V30 1250 H 122.601 -3.24417 -2.60882 0
M  V30 1251 H 123.134 -3.84504 -1.01986 0
M  V30 1252 H 119.873 -6.54929 0.273457 0
M  V30 1253 H 119.393 -5.85698 -1.29296 0
M  V30 1254 H 121.072 -6.38811 -1.02613 0
M  V30 1255 N 121.204 0.198386 -1.56346 0
M  V30 1256 C 122.152 1.26538 -1.95169 0
M  V30 1257 C 123.146 1.47295 -0.836685 0
M  V30 1258 O 124.352 1.48195 -1.02167 0
M  V30 1259 H 120.727 0.424744 -0.620561 0
M  V30 1260 H 122.698 0.910904 -2.84157 0
M  V30 1261 C 121.447 2.6035 -2.30463 0
M  V30 1262 H 120.77 2.45192 -3.15786 0
M  V30 1263 H 122.21 3.33762 -2.61494 0
M  V30 1264 C 120.669 3.17096 -1.13806 0
M  V30 1265 O 121.199 3.99588 -0.41135 0
M  V30 1266 N 119.405 2.75795 -0.915736 0
M  V30 1267 H 118.952 2.08816 -1.50843 0
M  V30 1268 H 118.91 3.14101 -0.136979 0
M  V30 1269 N 122.682 1.50554 0.465978 0
M  V30 1270 C 123.931 1.61038 1.21448 0
M  V30 1271 C 124.244 0.31865 1.92987 0
M  V30 1272 O 125.45 0.302469 2.6981 0
M  V30 1273 C 123.906 2.84283 2.20706 0
M  V30 1274 C 123.514 4.20352 1.54946 0
M  V30 1275 C 125.258 3.04115 2.96166 0
M  V30 1276 C 123.165 5.34778 2.5252 0
M  V30 1277 H 122.095 0.599718 0.457005 0
M  V30 1278 H 124.746 1.7699 0.484424 0
M  V30 1279 H 123.128 2.61901 2.97025 0
M  V30 1280 H 124.302 4.53008 0.843811 0
M  V30 1281 H 122.617 4.06167 0.917475 0
M  V30 1282 H 125.214 3.86774 3.69202 0
M  V30 1283 H 125.557 2.16045 3.55852 0
M  V30 1284 H 126.09 3.26702 2.26959 0
M  V30 1285 H 122.829 6.25018 1.97566 0
M  V30 1286 H 122.349 5.06534 3.21222 0
M  V30 1287 H 124.028 5.65561 3.14245 0
M  V30 1288 N 124.16 -0.719506 1.40217 0
M  V30 1289 C 125.123 -1.8153 1.39927 0
M  V30 1290 C 126.123 -1.58095 0.293723 0
M  V30 1291 O 127.313 -1.65209 0.552429 0
M  V30 1292 C 124.445 -3.19561 1.18716 0
M  V30 1293 H 125.638 -1.83186 2.37451 0
M  V30 1294 H 123.191 -0.924746 1.26008 0
M  V30 1295 H 123.926 -3.23557 0.219366 0
M  V30 1296 H 123.711 -3.3797 1.98793 0
M  V30 1297 H 125.201 -3.99598 1.21291 0
M  V30 1298 N 125.638 -1.25649 -0.95132 0
M  V30 1299 C 126.887 -1.09988 -1.69073 0
M  V30 1300 C 127.2 0.358355 -1.92289 0
M  V30 1301 O 128.406 0.635466 -2.63958 0
M  V30 1302 C 126.862 -1.92012 -3.044 0
M  V30 1303 C 126.47 -3.42347 -2.88968 0
M  V30 1304 C 128.214 -1.8493 -3.82101 0
M  V30 1305 C 126.121 -4.16655 -4.19705 0
M  V30 1306 H 125.051 -0.407993 -0.63408 0
M  V30 1307 H 127.702 -1.49873 -1.05879 0
M  V30 1308 H 126.084 -1.44952 -3.68517 0
M  V30 1309 H 127.258 -3.97104 -2.33762 0
M  V30 1310 H 125.573 -3.50557 -2.24719 0
M  V30 1311 H 128.17 -2.37739 -4.78941 0
M  V30 1312 H 128.513 -0.817883 -4.08187 0
M  V30 1313 H 129.046 -2.29758 -3.2474 0
M  V30 1314 H 125.785 -5.20224 -3.98807 0
M  V30 1315 H 125.305 -3.66681 -4.74663 0
M  V30 1316 H 126.984 -4.24551 -4.88227 0
M  V30 1317 N 127.117 1.15442 -1.07289 0
M  V30 1318 C 128.533 1.38201 -0.798288 0
M  V30 1319 C 128.733 1.92429 0.597769 0
M  V30 1320 O 127.789 2.12962 1.3566 0
M  V30 1321 C 129.102 2.35357 -1.87156 0
M  V30 1322 C 130.65 2.49021 -1.89624 0
M  V30 1323 C 131.125 3.49468 -2.96034 0
M  V30 1324 N 132.616 3.57003 -2.95132 0
M  V30 1325 C 133.351 4.34543 -3.74112 0
M  V30 1326 N 132.847 5.15421 -4.6294 0
M  V30 1327 N 134.64 4.29625 -3.62462 0
M  V30 1328 H 126.791 0.78584 -1.97328 0
M  V30 1329 H 129.054 0.408065 -0.855679 0
M  V30 1330 H 128.76 2.02626 -2.87464 0
M  V30 1331 H 128.634 3.35129 -1.73114 0
M  V30 1332 H 131.021 2.81051 -0.899687 0
M  V30 1333 H 131.102 1.4925 -2.07745 0
M  V30 1334 H 130.746 3.18173 -3.95889 0
M  V30 1335 H 130.676 4.48992 -2.75161 0
M  V30 1336 H 133.167 2.99276 -2.30743 0
M  V30 1337 H 133.48 5.7183 -5.19837 0
M  V30 1338 H 131.825 5.14729 -4.66989 0
M  V30 1339 H 135.016 3.65505 -2.92444 0
M  V30 1340 H 135.189 4.89807 -4.24256 0
M  V30 1341 N 128.595 0.856903 1.32268 0
M  V30 1342 C 129.505 0.306131 2.32594 0
M  V30 1343 C 130.521 -0.577209 1.64147 0
M  V30 1344 O 131.697 -0.477043 1.95669 0
M  V30 1345 C 128.762 -0.494561 3.43154 0
M  V30 1346 C 127.823 0.415186 4.27288 0
M  V30 1347 C 127.056 -0.347387 5.32568 0
M  V30 1348 O 127.279 -1.57708 5.48165 0
M  V30 1349 O 126.213 0.287982 6.01211 0
M  V30 1350 H 130.039 1.13737 2.81598 0
M  V30 1351 H 127.624 0.619902 1.35932 0
M  V30 1352 H 129.506 -0.948944 4.10576 0
M  V30 1353 H 128.181 -1.30257 2.96336 0
M  V30 1354 H 127.088 0.917793 3.62667 0
M  V30 1355 H 128.421 1.18844 4.77637 0
M  V30 1356 N 130.073 -1.45103 0.615059 0
M  V30 1357 C 131.321 -2.01784 0.112955 0
M  V30 1358 C 131.642 -1.48504 -1.26378 0
M  V30 1359 O 130.912 -0.682245 -1.83636 0
M  V30 1360 H 129.492 -0.745993 0.0387668 0
M  V30 1361 H 132.154 -1.77808 0.798141 0
M  V30 1362 H 131.25 -3.12025 0.0684069 0
M  V30 1363 N 131.551 -0.354651 -1.53558 0
M  V30 1364 C 132.461 0.50515 -2.29097 0
M  V30 1365 C 133.477 1.10223 -1.34636 0
M  V30 1366 O 134.653 1.11553 -1.67684 0
M  V30 1367 C 131.718 1.63479 -3.05738 0
M  V30 1368 C 130.779 1.06636 -4.15845 0
M  V30 1369 C 130.012 2.14217 -4.88822 0
M  V30 1370 O 130.235 3.35137 -4.61562 0
M  V30 1371 O 129.169 1.77887 -5.75013 0
M  V30 1372 H 132.995 -0.109237 -3.03503 0
M  V30 1373 H 130.58 -0.119357 -1.48922 0
M  V30 1374 H 132.462 2.2918 -3.5363 0
M  V30 1375 H 131.137 2.23478 -2.34178 0
M  V30 1376 H 130.044 0.373565 -3.7223 0
M  V30 1377 H 131.377 0.511081 -4.89539 0
M  V30 1378 N 133.029 1.57378 -0.0835403 0
M  V30 1379 C 134.276 1.9393 0.58287 0
M  V30 1380 C 134.604 0.964455 1.68904 0
M  V30 1381 O 133.859 -0.0179474 1.95692 0
M  V30 1382 C 134.158 3.37063 1.1884 0
M  V30 1383 C 133.824 4.50424 0.207194 0
M  V30 1384 C 132.486 4.81159 -0.0627115 0
M  V30 1385 C 134.838 5.19136 -0.463426 0
M  V30 1386 C 132.166 5.77939 -1.01012 0
M  V30 1387 C 134.518 6.16931 -1.39924 0
M  V30 1388 C 133.182 6.46078 -1.67749 0
M  V30 1389 H 132.452 0.70964 0.213287 0
M  V30 1390 H 135.099 1.90856 -0.156916 0
M  V30 1391 H 133.404 3.3666 2.00418 0
M  V30 1392 H 135.101 3.6264 1.71153 0
M  V30 1393 H 131.691 4.2646 0.427747 0
M  V30 1394 H 135.875 4.95576 -0.268034 0
M  V30 1395 H 131.131 5.98842 -1.23283 0
M  V30 1396 H 135.305 6.69273 -1.92476 0
M  V30 1397 H 132.932 7.2088 -2.41321 0
M  V30 1398 N 134.507 -0.190092 1.56449 0
M  V30 1399 C 135.784 -0.935886 1.71757 0
M  V30 1400 C 136.164 -2.01173 0.639726 0
M  V30 1401 O 135.512 -2.25827 -0.348502 0
M  V30 1402 C 135.722 -1.51775 3.1427 0
M  V30 1403 C 137.07 -1.99794 3.74656 0
M  V30 1404 O 138.094 -1.61607 3.1743 0
M  V30 1405 O 136.953 -2.70079 4.751 0
M  V30 1406 H 134.047 -0.439229 0.700719 0
M  V30 1407 H 136.593 -0.179395 1.68749 0
M  V30 1408 H 135.365 -0.742505 3.84191 0
M  V30 1409 H 134.988 -2.33894 3.21527 0
M  V30 1410 N 135.985 -1.50799 -0.457987 0
M  V30 1411 C 137.401 -1.38515 -0.792819 0
M  V30 1412 C 137.601 -0.451409 -1.96379 0
M  V30 1413 O 136.657 0.10112 -2.52297 0
M  V30 1414 C 137.97 -2.80149 -1.09258 0
M  V30 1415 C 139.518 -2.89156 -1.19825 0
M  V30 1416 C 139.993 -4.31651 -1.53106 0
M  V30 1417 N 141.484 -4.34662 -1.60072 0
M  V30 1418 C 142.219 -5.41928 -1.87354 0
M  V30 1419 N 141.715 -6.59384 -2.12568 0
M  V30 1420 N 143.508 -5.29385 -1.88965 0
M  V30 1421 H 135.659 -2.10073 0.313511 0
M  V30 1422 H 137.922 -0.944803 0.0777862 0
M  V30 1423 H 137.628 -3.50374 -0.305084 0
M  V30 1424 H 137.502 -3.18204 -2.02549 0
M  V30 1425 H 139.889 -2.19141 -1.97639 0
M  V30 1426 H 139.97 -2.54626 -0.244821 0
M  V30 1427 H 139.614 -5.02208 -0.758266 0
M  V30 1428 H 139.544 -4.63678 -2.49621 0
M  V30 1429 H 142.035 -3.49973 -1.42573 0
M  V30 1430 H 142.348 -7.36934 -2.32696 0
M  V30 1431 H 140.693 -6.62535 -2.09933 0
M  V30 1432 H 143.884 -4.36616 -1.68772 0
M  V30 1433 H 144.057 -6.13066 -2.09891 0
M  V30 1434 N 137.463 0.71206 -1.40597 0
M  V30 1435 C 138.411 1.84746 -1.41321 0
M  V30 1436 C 139.405 1.66842 -0.293268 0
M  V30 1437 O 140.611 1.73904 -0.464481 0
M  V30 1438 H 136.986 0.608522 -0.441819 0
M  V30 1439 H 138.957 1.81252 -2.37045 0
M  V30 1440 C 137.706 3.22638 -1.29614 0
M  V30 1441 H 137.029 3.37023 -2.15071 0
M  V30 1442 H 138.469 4.02209 -1.3418 0
M  V30 1443 C 136.928 3.36899 -0.00673121 0
M  V30 1444 O 137.458 3.90186 0.954859 0
M  V30 1445 N 135.664 2.9053 0.0639327 0
M  V30 1446 H 135.211 2.47353 -0.719311 0
M  V30 1447 H 135.169 3.0045 0.926118 0
M  V30 1448 N 138.941 1.26152 0.944643 0
M  V30 1449 C 139.851 1.09176 2.07648 0
M  V30 1450 C 140.867 0.0261935 1.7398 0
M  V30 1451 O 142.043 0.229208 2.00091 0
M  V30 1452 C 139.108 0.722915 3.39079 0
M  V30 1453 C 138.169 1.86752 3.86552 0
M  V30 1454 C 137.402 1.51617 5.11711 0
M  V30 1455 O 137.625 0.416331 5.68879 0
M  V30 1456 O 136.559 2.34975 5.54139 0
M  V30 1457 H 140.385 2.0412 2.24875 0
M  V30 1458 H 137.97 1.05182 1.061 0
M  V30 1459 H 139.852 0.529787 4.18056 0
M  V30 1460 H 138.527 -0.197159 3.23099 0
M  V30 1461 H 137.434 2.11558 3.08535 0
M  V30 1462 H 138.767 2.76719 4.07047 0
M  V30 1463 N 140.419 -1.14872 1.07899 0
M  V30 1464 C 141.647 -1.89661 0.82683 0
M  V30 1465 C 142.062 -1.78312 -0.620519 0
M  V30 1466 O 141.419 -1.13888 -1.42604 0
M  V30 1467 C 141.47 -3.39817 1.23316 0
M  V30 1468 O 141.191 -3.50845 2.62372 0
M  V30 1469 C 142.692 -4.31615 1.0111 0
M  V30 1470 H 139.912 -0.60092 0.298557 0
M  V30 1471 H 142.456 -1.4551 1.43691 0
M  V30 1472 H 140.611 -3.8161 0.667286 0
M  V30 1473 H 141.025 -4.44076 2.79101 0
M  V30 1474 H 142.499 -5.35367 1.34486 0
M  V30 1475 H 142.976 -4.39169 -0.0522168 0
M  V30 1476 H 143.582 -3.95572 1.56215 0
M  V30 1477 N 141.898 -0.863906 -1.31812 0
M  V30 1478 C 143.145 -0.471836 -1.96926 0
M  V30 1479 C 143.473 0.974578 -1.68322 0
M  V30 1480 O 142.728 1.7003 -0.968933 0
M  V30 1481 C 143.027 -0.668547 -3.51091 0
M  V30 1482 C 142.693 -2.08683 -3.99703 0
M  V30 1483 C 141.355 -2.47471 -4.12688 0
M  V30 1484 C 143.707 -3.01207 -4.25351 0
M  V30 1485 C 141.035 -3.78037 -4.4867 0
M  V30 1486 C 143.387 -4.31282 -4.62794 0
M  V30 1487 C 142.051 -4.69992 -4.73987 0
M  V30 1488 H 141.321 -0.172657 -0.720604 0
M  V30 1489 H 143.968 -1.09573 -1.57054 0
M  V30 1490 H 142.273 0.0385252 -3.91781 0
M  V30 1491 H 143.97 -0.345102 -3.99512 0
M  V30 1492 H 140.56 -1.77566 -3.90087 0
M  V30 1493 H 144.744 -2.72469 -4.14819 0
M  V30 1494 H 140 -4.078 -4.55532 0
M  V30 1495 H 144.174 -5.03031 -4.81594 0
M  V30 1496 H 141.801 -5.71207 -5.01624 0
M  V30 1497 N 143.376 1.44774 -0.622745 0
M  V30 1498 C 144.306 2.33382 0.0741861 0
M  V30 1499 C 145.287 1.47719 0.843387 0
M  V30 1500 O 146.472 1.76458 0.810934 0
M  V30 1501 C 143.602 3.30663 1.06204 0
M  V30 1502 C 142.556 4.26079 0.405037 0
M  V30 1503 C 141.882 5.13165 1.5022 0
M  V30 1504 C 143.182 5.1781 -0.683414 0
M  V30 1505 H 144.876 2.91905 -0.665713 0
M  V30 1506 H 142.422 1.40363 -0.321587 0
M  V30 1507 H 144.375 3.9153 1.55827 0
M  V30 1508 H 143.099 2.70331 1.83272 0
M  V30 1509 H 141.758 3.66532 -0.0704683 0
M  V30 1510 H 141.406 4.49191 2.26355 0
M  V30 1511 H 141.106 5.77812 1.06803 0
M  V30 1512 H 142.63 5.76902 2.00041 0
M  V30 1513 H 144.044 5.72661 -0.270631 0
M  V30 1514 H 142.441 5.91015 -1.04023 0
M  V30 1515 H 143.511 4.59326 -1.55395 0
M  V30 1516 N 144.854 0.36279 1.53368 0
M  V30 1517 C 145.817 -0.472679 2.24273 0
M  V30 1518 C 146.817 -1.012 1.24961 0
M  V30 1519 O 148.007 -0.898194 1.49259 0
M  V30 1520 C 145.139 -1.66039 2.97731 0
M  V30 1521 H 146.332 0.14773 2.99536 0
M  V30 1522 H 143.885 0.114434 1.55881 0
M  V30 1523 H 144.62 -2.31896 2.26704 0
M  V30 1524 H 144.405 -1.28066 3.70596 0
M  V30 1525 H 145.895 -2.25252 3.51641 0
M  V30 1526 N 146.332 -1.57332 0.0918853 0
M  V30 1527 C 147.295 -2.12708 -0.85369 0
M  V30 1528 C 148.295 -1.05561 -1.213 0
M  V30 1529 O 149.485 -1.31461 -1.14296 0
M  V30 1530 C 146.617 -2.64503 -2.15061 0
M  V30 1531 H 147.81 -2.97573 -0.3729 0
M  V30 1532 H 145.363 -1.55509 -0.157072 0
M  V30 1533 H 146.098 -1.83149 -2.67632 0
M  V30 1534 H 145.883 -3.4284 -1.90272 0
M  V30 1535 H 147.373 -3.07351 -2.82711 0
M  V30 1536 N 147.81 0.181792 -1.56548 0
M  V30 1537 C 148.743 1.25366 -1.90679 0
M  V30 1538 C 149.721 1.43299 -0.768376 0
M  V30 1539 O 150.905 1.58475 -1.02068 0
M  V30 1540 C 148.032 2.61826 -2.1486 0
M  V30 1541 C 147.078 2.60688 -3.37556 0
M  V30 1542 S 147.911 2.10804 -4.92262 0
M  V30 1543 C 149.067 3.49062 -5.19525 0
M  V30 1544 H 149.3 0.962277 -2.81296 0
M  V30 1545 H 146.833 0.385892 -1.495 0
M  V30 1546 H 148.791 3.40371 -2.29473 0
M  V30 1547 H 147.452 2.88169 -1.24969 0
M  V30 1548 H 146.645 3.61058 -3.51643 0
M  V30 1549 H 146.247 1.90232 -3.22006 0
M  V30 1550 H 148.539 4.45003 -5.10861 0
M  V30 1551 H 149.482 3.39859 -6.2121 0
M  V30 1552 H 149.89 3.4459 -4.47122 0
M  V30 1553 N 149.288 1.51039 0.449983 0
M  V30 1554 C 150.236 1.71995 1.5659 0
M  V30 1555 C 151.23 0.586029 1.5894 0
M  V30 1556 O 152.436 0.76709 1.62837 0
M  V30 1557 H 148.811 0.543233 0.520001 0
M  V30 1558 H 150.782 2.65562 1.36085 0
M  V30 1559 C 149.531 1.8506 2.9436 0
M  V30 1560 H 148.854 2.71712 2.93279 0
M  V30 1561 H 150.294 2.0374 3.71842 0
M  V30 1562 C 148.753 0.607277 3.31382 0
M  V30 1563 O 149.283 -0.243903 4.00959 0
M  V30 1564 N 147.489 0.455073 2.87015 0
M  V30 1565 H 147.036 1.14879 2.30566 0
M  V30 1566 H 146.994 -0.375611 3.12148 0
M  V30 1567 N 150.766 -0.704594 1.40972 0
M  V30 1568 C 151.716 -1.81051 1.38581 0
M  V30 1569 C 152.7 -1.58759 0.261585 0
M  V30 1570 O 153.892 -1.69745 0.501556 0
M  V30 1571 C 151.021 -3.19279 1.26157 0
M  V30 1572 C 150.107 -3.47296 2.43405 0
M  V30 1573 N 150.498 -3.46064 3.68881 0
M  V30 1574 C 148.796 -3.77804 2.37023 0
M  V30 1575 C 149.497 -3.72733 4.46592 0
M  V30 1576 N 148.473 -3.9203 3.76581 0
M  V30 1577 H 152.275 -1.78448 2.33525 0
M  V30 1578 H 149.789 -0.904198 1.349 0
M  V30 1579 H 151.786 -3.98488 1.22526 0
M  V30 1580 H 150.446 -3.231 0.321902 0
M  V30 1581 H 151.457 -3.26656 4.01891 0
M  V30 1582 H 148.134 -3.8905 1.51481 0
M  V30 1583 H 149.524 -3.77993 5.55492 0
M  V30 1584 N 152.244 -1.26651 -0.937939 0
M  V30 1585 C 153.49 -1.12553 -1.687 0
M  V30 1586 C 153.823 0.329782 -1.91379 0
M  V30 1587 O 153.098 1.24202 -1.4968 0
M  V30 1588 C 153.381 -1.89862 -3.05981 0
M  V30 1589 C 153.234 -3.43318 -2.90607 0
M  V30 1590 C 154.553 -1.69499 -4.0615 0
M  V30 1591 H 151.672 -0.410257 -0.612257 0
M  V30 1592 H 154.314 -1.55685 -1.08913 0
M  V30 1593 H 152.464 -1.53204 -3.57017 0
M  V30 1594 H 154.136 -3.89747 -2.46769 0
M  V30 1595 H 152.379 -3.70179 -2.26164 0
M  V30 1596 H 153.05 -3.92642 -3.8799 0
M  V30 1597 H 155.526 -2.01442 -3.64088 0
M  V30 1598 H 154.402 -2.26002 -5.00214 0
M  V30 1599 H 154.663 -0.640365 -4.37438 0
M  V30 1600 N 153.722 1.14298 -1.08507 0
M  V30 1601 C 154.669 2.19414 -0.715965 0
M  V30 1602 C 155.639 1.63399 0.298326 0
M  V30 1603 O 156.824 1.89929 0.182101 0
M  V30 1604 C 153.964 3.44845 -0.132534 0
M  V30 1605 C 153.077 4.15007 -1.19973 0
M  V30 1606 C 152.212 5.28024 -0.580048 0
M  V30 1607 C 151.251 5.9002 -1.62921 0
M  V30 1608 N 150.388 6.94485 -1.03125 0
M  V30 1609 H 155.228 2.50336 -1.61666 0
M  V30 1610 H 152.765 1.2293 -0.807882 0
M  V30 1611 H 154.723 4.16601 0.223454 0
M  V30 1612 H 153.353 3.14403 0.731467 0
M  V30 1613 H 152.405 3.41629 -1.67313 0
M  V30 1614 H 153.717 4.57178 -1.99473 0
M  V30 1615 H 152.871 6.06455 -0.172364 0
M  V30 1616 H 151.61 4.87076 0.246603 0
M  V30 1617 H 150.615 5.10291 -2.04654 0
M  V30 1618 H 151.84 6.33042 -2.45835 0
M  V30 1619 H 149.786 6.55612 -0.225711 0
M  V30 1620 H 149.703 7.35148 -1.76334 0
M  V30 1621 H 150.971 7.7679 -0.649458 0
M  V30 1622 N 155.201 0.870884 1.31352 0
M  V30 1623 C 156.133 0.28455 2.27427 0
M  V30 1624 C 157.146 -0.552927 1.53123 0
M  V30 1625 O 158.335 -0.374771 1.74521 0
M  V30 1626 C 155.435 -0.615164 3.3327 0
M  V30 1627 C 154.608 0.190079 4.36987 0
M  V30 1628 C 153.667 -0.637917 5.22319 0
M  V30 1629 O 152.693 -0.065626 5.69162 0
M  V30 1630 N 153.895 -1.94973 5.46778 0
M  V30 1631 H 156.66 1.11017 2.7838 0
M  V30 1632 H 154.221 0.732458 1.44384 0
M  V30 1633 H 156.213 -1.1748 3.87273 0
M  V30 1634 H 154.783 -1.34146 2.82354 0
M  V30 1635 H 154.003 0.931165 3.83044 0
M  V30 1636 H 155.291 0.742579 5.03352 0
M  V30 1637 H 154.689 -2.4378 5.10478 0
M  V30 1638 H 153.246 -2.45713 6.03712 0
M  V30 1639 N 156.679 -1.44442 0.630414 0
M  V30 1640 C 157.629 -2.27794 -0.0968103 0
M  V30 1641 C 158.613 -1.38624 -0.816834 0
M  V30 1642 O 159.805 -1.62438 -0.70306 0
M  V30 1643 C 156.934 -3.25929 -1.07819 0
M  V30 1644 C 156.02 -4.22588 -0.357826 0
M  V30 1645 N 156.411 -5.0207 0.613169 0
M  V30 1646 C 154.709 -4.41914 -0.602365 0
M  V30 1647 C 155.41 -5.72351 1.03871 0
M  V30 1648 N 154.386 -5.42287 0.377642 0
M  V30 1649 H 158.188 -2.86653 0.648621 0
M  V30 1650 H 155.702 -1.55871 0.455862 0
M  V30 1651 H 157.699 -3.84399 -1.61378 0
M  V30 1652 H 156.359 -2.68631 -1.82393 0
M  V30 1653 H 157.37 -5.08331 0.990947 0
M  V30 1654 H 154.047 -3.95714 -1.33103 0
M  V30 1655 H 155.437 -6.4619 1.84086 0
M  V30 1656 N 158.157 -0.370918 -1.53173 0
M  V30 1657 C 159.405 0.216673 -2.00935 0
M  V30 1658 C 159.726 1.48845 -1.25977 0
M  V30 1659 O 158.996 1.92286 -0.374551 0
M  V30 1660 H 157.576 0.0830565 -0.742368 0
M  V30 1661 H 160.238 -0.49838 -1.8842 0
M  V30 1662 H 159.334 0.439893 -3.08984 0
M  V30 1663 N 159.635 1.57281 -0.100228 0
M  V30 1664 C 160.863 1.98879 0.570509 0
M  V30 1665 C 161.278 0.979476 1.61405 0
M  V30 1666 O 160.635 -0.0302288 1.82475 0
M  V30 1667 C 160.686 3.4052 1.2136 0
M  V30 1668 O 160.407 4.37588 0.211786 0
M  V30 1669 C 161.908 3.97149 1.96945 0
M  V30 1670 H 159.128 0.653428 0.152555 0
M  V30 1671 H 161.672 2.03697 -0.18103 0
M  V30 1672 H 159.827 3.367 1.91603 0
M  V30 1673 H 160.241 5.20118 0.676607 0
M  V30 1674 H 161.715 4.98393 2.37294 0
M  V30 1675 H 162.192 3.3525 2.83733 0
M  V30 1676 H 162.798 4.04458 1.31506 0
M  V30 1677 N 161.113 -0.173488 1.56642 0
M  V30 1678 C 162.338 -0.910149 1.86363 0
M  V30 1679 C 162.763 -1.75132 0.686318 0
M  V30 1680 O 162.121 -1.77595 -0.364643 0
M  V30 1681 C 162.169 -1.76447 3.14482 0
M  V30 1682 O 161.273 -2.86584 2.96553 0
M  V30 1683 H 160.614 -0.255086 0.613047 0
M  V30 1684 H 163.144 -0.172283 2.03873 0
M  V30 1685 H 163.154 -2.16483 3.45831 0
M  V30 1686 H 161.829 -1.14658 3.99783 0
M  V30 1687 H 160.406 -2.50146 2.76553 0
M  V30 1688 N 162.591 -1.51276 -0.441967 0
M  V30 1689 C 163.521 -1.752 -1.54361 0
M  V30 1690 C 164.502 -0.601682 -1.59103 0
M  V30 1691 O 165.687 -0.843913 -1.74905 0
M  V30 1692 C 162.817 -1.87282 -2.92477 0
M  V30 1693 C 161.771 -3.02687 -3.02596 0
M  V30 1694 C 161.097 -2.99947 -4.42647 0
M  V30 1695 C 162.397 -4.4273 -2.77106 0
M  V30 1696 H 164.091 -2.67442 -1.34592 0
M  V30 1697 H 161.637 -1.28694 -0.646048 0
M  V30 1698 H 163.59 -2.02602 -3.695 0
M  V30 1699 H 162.314 -0.916844 -3.13467 0
M  V30 1700 H 160.973 -2.87065 -2.28012 0
M  V30 1701 H 160.621 -2.02136 -4.60597 0
M  V30 1702 H 160.321 -3.77439 -4.50348 0
M  V30 1703 H 161.845 -3.17354 -5.2165 0
M  V30 1704 H 163.259 -4.58727 -3.43864 0
M  V30 1705 H 161.656 -5.21893 -2.96222 0
M  V30 1706 H 162.726 -4.53087 -1.72744 0
M  V30 1707 N 164.069 0.697108 -1.41344 0
M  V30 1708 C 165.019 1.80313 -1.39539 0
M  V30 1709 C 166.003 1.58618 -0.270001 0
M  V30 1710 O 167.195 1.69477 -0.510551 0
M  V30 1711 C 164.324 3.18606 -1.27848 0
M  V30 1712 C 163.41 3.46001 -2.45244 0
M  V30 1713 N 163.801 3.44103 -3.70711 0
M  V30 1714 C 162.099 3.76542 -2.39023 0
M  V30 1715 C 162.8 3.7036 -4.48563 0
M  V30 1716 N 161.776 3.90027 -3.78655 0
M  V30 1717 H 165.578 1.77207 -2.34468 0
M  V30 1718 H 163.092 0.897031 -1.35378 0
M  V30 1719 H 165.089 3.97833 -1.24637 0
M  V30 1720 H 163.749 3.22925 -0.339032 0
M  V30 1721 H 164.76 3.2452 -4.03618 0
M  V30 1722 H 161.437 3.88241 -1.53542 0
M  V30 1723 H 162.827 3.75042 -5.57488 0
M  V30 1724 N 165.547 1.27147 0.931209 0
M  V30 1725 C 166.477 1.12081 2.04842 0
M  V30 1726 C 167.458 0.0232364 1.70084 0
M  V30 1727 O 168.643 0.197085 1.93197 0
M  V30 1728 C 165.773 0.76354 3.38803 0
M  V30 1729 C 164.727 1.81396 3.87659 0
M  V30 1730 C 164.053 1.31075 5.18385 0
M  V30 1731 C 165.353 3.21739 4.11438 0
M  V30 1732 H 167.047 2.05537 2.17703 0
M  V30 1733 H 164.593 0.989603 1.04608 0
M  V30 1734 H 166.546 0.644982 4.16435 0
M  V30 1735 H 165.27 -0.206727 3.25945 0
M  V30 1736 H 163.929 1.92136 3.12217 0
M  V30 1737 H 163.577 0.330037 5.01916 0
M  V30 1738 H 163.277 2.013 5.52044 0
M  V30 1739 H 164.801 1.20506 5.98591 0
M  V30 1740 H 166.215 3.14019 4.79651 0
M  V30 1741 H 164.612 3.89644 4.56397 0
M  V30 1742 H 165.682 3.67054 3.16859 0
M  V30 1743 N 167.025 -1.13721 1.09112 0
M  V30 1744 C 168.272 -1.84924 0.825192 0
M  V30 1745 C 168.6 -1.83347 -0.649151 0
M  V30 1746 O 167.855 -1.26449 -1.49362 0
M  V30 1747 C 168.154 -3.32861 1.30146 0
M  V30 1748 C 167.82 -3.54621 2.78486 0
M  V30 1749 C 166.482 -3.60268 3.18999 0
M  V30 1750 C 168.834 -3.62855 3.74146 0
M  V30 1751 C 166.162 -3.71679 4.53951 0
M  V30 1752 C 168.514 -3.75793 5.08883 0
M  V30 1753 C 167.178 -3.79692 5.4899 0
M  V30 1754 H 166.448 -0.676684 0.301959 0
M  V30 1755 H 169.095 -1.3428 1.36533 0
M  V30 1756 H 167.4 -3.85835 0.681064 0
M  V30 1757 H 169.097 -3.86395 1.07236 0
M  V30 1758 H 165.687 -3.50879 2.46134 0
M  V30 1759 H 169.871 -3.57775 3.43963 0
M  V30 1760 H 165.127 -3.72963 4.84467 0
M  V30 1761 H 169.301 -3.81107 5.82864 0
M  V30 1762 H 166.928 -3.88287 6.53558 0
M  V30 1763 N 168.503 -0.877838 -1.30888 0
M  V30 1764 C 169.751 -0.491723 -1.96027 0
M  V30 1765 C 170.072 0.960827 -1.69685 0
M  V30 1766 O 169.342 1.67462 -1.01654 0
M  V30 1767 H 167.922 -0.17885 -0.725273 0
M  V30 1768 H 170.584 -1.11935 -1.59551 0
M  V30 1769 H 169.68 -0.656016 -3.05128 0
M  V30 1770 N 169.982 1.44106 -0.638065 0
M  V30 1771 C 170.912 2.33448 0.0494287 0
M  V30 1772 C 171.893 1.48606 0.827672 0
M  V30 1773 O 173.078 1.77308 0.792173 0
M  V30 1774 C 170.208 3.31771 1.02691 0
M  V30 1775 C 169.162 4.26485 0.359823 0
M  V30 1776 C 168.488 5.14729 1.44769 0
M  V30 1777 C 169.788 5.17056 -0.738296 0
M  V30 1778 H 171.482 2.91183 -0.696636 0
M  V30 1779 H 169.028 1.40014 -0.336456 0
M  V30 1780 H 170.981 3.93161 1.51666 0
M  V30 1781 H 169.705 2.7226 1.80395 0
M  V30 1782 H 168.364 3.66437 -0.10934 0
M  V30 1783 H 168.012 4.51566 2.21578 0
M  V30 1784 H 167.712 5.78913 1.00668 0
M  V30 1785 H 169.236 5.78991 1.93911 0
M  V30 1786 H 170.65 5.72342 -0.331354 0
M  V30 1787 H 169.047 5.89879 -1.10286 0
M  V30 1788 H 170.117 4.57652 -1.60258 0
M  V30 1789 N 171.46 0.379036 1.52974 0
M  V30 1790 C 172.39 -0.452706 2.29069 0
M  V30 1791 C 173.371 -1.07237 1.32039 0
M  V30 1792 O 174.556 -1.08708 1.60923 0
M  V30 1793 C 171.686 -1.5856 3.08992 0
M  V30 1794 C 170.64 -1.0925 4.13822 0
M  V30 1795 C 169.966 -2.31668 4.81907 0
M  V30 1796 C 171.266 -0.167702 5.22031 0
M  V30 1797 H 172.96 0.182181 2.98845 0
M  V30 1798 H 170.506 0.0890592 1.43724 0
M  V30 1799 H 172.459 -2.1742 3.6098 0
M  V30 1800 H 171.183 -2.24792 2.36931 0
M  V30 1801 H 169.842 -0.526494 3.628 0
M  V30 1802 H 169.49 -2.96386 4.06404 0
M  V30 1803 H 169.19 -1.9934 5.52754 0
M  V30 1804 H 170.714 -2.91189 5.36695 0
M  V30 1805 H 172.128 -0.664186 5.6944 0
M  V30 1806 H 170.525 0.0653265 6.00064 0
M  V30 1807 H 171.595 0.786347 4.78482 0
M  V30 1808 N 172.938 -1.57226 0.108567 0
M  V30 1809 C 174.163 -1.99604 -0.563303 0
M  V30 1810 C 174.588 -0.987563 -1.6009 0
M  V30 1811 O 173.946 0.0421687 -1.81251 0
M  V30 1812 C 173.994 -3.40902 -1.17552 0
M  V30 1813 O 173.098 -3.42896 -2.2912 0
M  V30 1814 H 172.439 -0.648704 -0.1417 0
M  V30 1815 H 174.969 -2.03679 0.193961 0
M  V30 1816 H 174.979 -3.78886 -1.51357 0
M  V30 1817 H 173.654 -4.1382 -0.415445 0
M  V30 1818 H 172.231 -3.1672 -1.96832 0
M  V30 1819 N 174.416 0.165178 -1.56732 0
M  V30 1820 C 175.693 0.908443 -1.73224 0
M  V30 1821 C 176.073 2.0013 -0.67165 0
M  V30 1822 O 175.421 2.26353 0.31253 0
M  V30 1823 C 175.631 1.46756 -3.16644 0
M  V30 1824 C 176.979 1.93809 -3.77787 0
M  V30 1825 O 178.003 1.56537 -3.1996 0
M  V30 1826 O 176.862 2.62486 -4.79336 0
M  V30 1827 H 173.956 0.428025 -0.707618 0
M  V30 1828 H 176.502 0.152526 -1.69013 0
M  V30 1829 H 175.274 0.68129 -3.85323 0
M  V30 1830 H 174.897 2.28749 -3.25207 0
M  V30 1831 N 175.894 1.51508 0.433938 0
M  V30 1832 C 177.142 1.6402 1.18075 0
M  V30 1833 C 177.463 0.360328 1.91642 0
M  V30 1834 O 176.733 -0.623945 1.85698 0
M  V30 1835 H 175.313 0.6045 0.43885 0
M  V30 1836 H 177.975 1.88452 0.497178 0
M  V30 1837 H 177.071 2.46949 1.90847 0
M  V30 1838 N 177.372 -0.689602 1.41712 0
M  V30 1839 C 178.62 -1.4468 1.4111 0
M  V30 1840 C 178.941 -1.94986 0.0232196 0
M  V30 1841 O 178.211 -1.72097 -0.935913 0
M  V30 1842 H 176.791 -0.536847 0.519427 0
M  V30 1843 H 179.453 -0.815825 1.77004 0
M  V30 1844 H 178.549 -2.30706 2.10193 0
M  V30 1845 N 178.85 -1.27639 -0.924453 0
M  V30 1846 C 180.096 -1.14336 -1.67497 0
M  V30 1847 C 180.429 0.309465 -1.91718 0
M  V30 1848 O 179.704 1.22608 -1.50989 0
M  V30 1849 C 179.987 -1.93096 -3.0395 0
M  V30 1850 C 179.84 -3.46381 -2.8695 0
M  V30 1851 C 181.159 -1.73798 -4.0433 0
M  V30 1852 H 178.278 -0.416728 -0.607871 0
M  V30 1853 H 180.92 -1.56832 -1.07256 0
M  V30 1854 H 179.07 -1.56982 -3.55372 0
M  V30 1855 H 180.742 -3.92343 -2.42621 0
M  V30 1856 H 178.985 -3.72557 -2.22225 0
M  V30 1857 H 179.656 -3.96735 -3.83804 0
M  V30 1858 H 182.132 -2.05293 -3.61931 0
M  V30 1859 H 181.008 -2.31294 -4.97789 0
M  V30 1860 H 181.269 -0.686725 -4.36734 0
M  V30 1861 N 180.328 1.1314 -1.09713 0
M  V30 1862 C 181.278 2.16709 -0.708593 0
M  V30 1863 C 182.262 1.58471 0.278523 0
M  V30 1864 O 183.454 1.76779 0.088427 0
M  V30 1865 C 180.583 3.43039 -0.133923 0
M  V30 1866 C 179.669 4.08277 -1.14763 0
M  V30 1867 N 180.06 4.48637 -2.33577 0
M  V30 1868 C 178.358 4.34954 -0.986446 0
M  V30 1869 C 179.059 4.9952 -2.98085 0
M  V30 1870 N 178.035 4.94561 -2.25632 0
M  V30 1871 H 181.837 2.45672 -1.61315 0
M  V30 1872 H 179.351 1.29967 -0.973775 0
M  V30 1873 H 181.348 4.16583 0.162465 0
M  V30 1874 H 180.008 3.15549 0.765447 0
M  V30 1875 H 181.019 4.41246 -2.7115 0
M  V30 1876 H 177.696 4.17258 -0.142008 0
M  V30 1877 H 179.086 5.40521 -3.99108 0
M  V30 1878 N 181.806 0.884767 1.30421 0
M  V30 1879 C 183.031 0.517288 2.00845 0
M  V30 1880 C 183.456 -0.886779 1.65885 0
M  V30 1881 O 182.814 -1.58768 0.875354 0
M  V30 1882 C 182.862 0.698994 3.5376 0
M  V30 1883 O 181.966 -0.255208 4.1161 0
M  V30 1884 H 181.307 0.203872 0.631927 0
M  V30 1885 H 183.837 1.19225 1.66272 0
M  V30 1886 H 183.847 0.597912 4.03595 0
M  V30 1887 H 182.522 1.72271 3.78544 0
M  V30 1888 H 181.099 -0.10784 3.72744 0
M  V30 1889 N 183.284 -1.43765 0.645699 0
M  V30 1890 C 184.234 -2.27884 -0.0726442 0
M  V30 1891 C 185.218 -1.39483 -0.802086 0
M  V30 1892 O 186.41 -1.63174 -0.685791 0
M  V30 1893 C 183.539 -3.27055 -1.04356 0
M  V30 1894 C 182.625 -4.22944 -0.312985 0
M  V30 1895 N 183.016 -5.01391 0.666386 0
M  V30 1896 C 181.314 -4.42528 -0.55546 0
M  V30 1897 C 182.015 -5.71217 1.09935 0
M  V30 1898 N 180.991 -5.41856 0.435137 0
M  V30 1899 H 184.793 -2.85949 0.678988 0
M  V30 1900 H 182.307 -1.55378 0.472368 0
M  V30 1901 H 184.304 -3.86089 -1.57292 0
M  V30 1902 H 182.964 -2.70551 -1.79534 0
M  V30 1903 H 183.975 -5.07252 1.04481 0
M  V30 1904 H 180.652 -3.97104 -1.28899 0
M  V30 1905 H 182.042 -6.44202 1.90929 0
M  V30 1906 N 184.763 -0.387143 -1.52771 0
M  V30 1907 C 186.012 0.19697 -2.00736 0
M  V30 1908 C 186.325 1.48082 -1.27793 0
M  V30 1909 O 187.531 2.14485 -1.66458 0
M  V30 1910 C 185.987 0.401568 -3.57653 0
M  V30 1911 C 185.595 -0.868907 -4.39493 0
M  V30 1912 C 187.339 0.942164 -4.13912 0
M  V30 1913 C 185.246 -0.632705 -5.88006 0
M  V30 1914 H 184.176 0.0773827 -0.750019 0
M  V30 1915 H 186.827 -0.50921 -1.76293 0
M  V30 1916 H 185.209 1.16954 -3.78335 0
M  V30 1917 H 186.383 -1.64133 -4.30577 0
M  V30 1918 H 184.698 -1.33429 -3.94443 0
M  V30 1919 H 187.295 1.13455 -5.22525 0
M  V30 1920 H 187.638 1.9106 -3.69867 0
M  V30 1921 H 188.171 0.233814 -3.97112 0
M  V30 1922 H 184.91 -1.57208 -6.36369 0
M  V30 1923 H 184.43 0.100825 -5.99715 0
M  V30 1924 H 186.109 -0.26642 -6.46451 0
M  V30 1925 N 186.241 1.57166 -0.116904 0
M  V30 1926 C 187.191 2.11756 0.845178 0
M  V30 1927 C 188.175 1.03783 1.22955 0
M  V30 1928 O 189.367 1.3002 1.20099 0
M  V30 1929 C 186.496 2.71886 2.09602 0
M  V30 1930 C 185.582 3.86937 1.7361 0
M  V30 1931 N 185.973 4.94073 1.08284 0
M  V30 1932 C 184.271 3.97082 2.03082 0
M  V30 1933 C 184.972 5.74477 0.913855 0
M  V30 1934 N 183.948 5.2423 1.43818 0
M  V30 1935 H 187.75 2.91967 0.336523 0
M  V30 1936 H 185.264 1.62174 0.0856332 0
M  V30 1937 H 187.261 3.09338 2.79492 0
M  V30 1938 H 185.921 1.93138 2.61013 0
M  V30 1939 H 186.932 5.12483 0.747067 0
M  V30 1940 H 183.609 3.29372 2.56554 0
M  V30 1941 H 184.999 6.70701 0.40125 0
M  V30 1942 N 187.719 -0.156864 1.56817 0
M  V30 1943 C 188.669 -1.19891 1.93934 0
M  V30 1944 C 189.653 -1.39061 0.809372 0
M  V30 1945 O 190.845 -1.40789 1.07273 0
M  V30 1946 C 187.974 -2.53493 2.31508 0
M  V30 1947 C 187.06 -2.37957 3.51052 0
M  V30 1948 N 187.451 -1.92158 4.67877 0
M  V30 1949 C 185.749 -2.68739 3.55943 0
M  V30 1950 C 186.45 -1.8943 5.49992 0
M  V30 1951 N 185.426 -2.32375 4.91429 0
M  V30 1952 H 189.228 -0.836746 2.81737 0
M  V30 1953 H 186.742 -0.365012 1.58245 0
M  V30 1954 H 188.739 -3.28811 2.56299 0
M  V30 1955 H 187.399 -2.905 1.45051 0
M  V30 1956 H 188.41 -1.62274 4.91821 0
M  V30 1957 H 185.087 -3.09687 2.80001 0
M  V30 1958 H 186.477 -1.55596 6.53636 0
M  V30 1959 N 189.197 -1.51736 -0.425897 0
M  V30 1960 C 190.127 -1.76827 -1.52494 0
M  V30 1961 C 191.108 -0.618524 -1.58456 0
M  V30 1962 O 192.293 -0.862416 -1.74 0
M  V30 1963 C 189.423 -1.90374 -2.90474 0
M  V30 1964 C 188.377 -3.0588 -2.99369 0
M  V30 1965 C 187.703 -3.04625 -4.3944 0
M  V30 1966 C 189.003 -4.45644 -2.72394 0
M  V30 1967 H 190.697 -2.68855 -1.31748 0
M  V30 1968 H 188.243 -1.29372 -0.632362 0
M  V30 1969 H 190.196 -2.0651 -3.6733 0
M  V30 1970 H 188.92 -0.95004 -3.12477 0
M  V30 1971 H 187.579 -2.89467 -2.24954 0
M  V30 1972 H 187.227 -2.0701 -4.58428 0
M  V30 1973 H 186.927 -3.82195 -4.46319 0
M  V30 1974 H 188.451 -3.22869 -5.18255 0
M  V30 1975 H 189.865 -4.62348 -3.38979 0
M  V30 1976 H 188.262 -5.25006 -2.9067 0
M  V30 1977 H 189.332 -4.54893 -1.67929 0
M  V30 1978 N 190.675 0.682077 -1.42076 0
M  V30 1979 C 191.905 1.46844 -1.45329 0
M  V30 1980 C 192.313 1.89102 -0.0609328 0
M  V30 1981 O 191.656 1.58238 0.933082 0
M  V30 1982 C 191.718 2.75375 -2.31104 0
M  V30 1983 C 191.382 2.55238 -3.79081 0
M  V30 1984 C 192.379 2.20309 -4.70914 0
M  V30 1985 C 190.064 2.70459 -4.2327 0
M  V30 1986 C 192.058 2.00859 -6.04925 0
M  V30 1987 C 189.745 2.50624 -5.57343 0
M  V30 1988 C 190.743 2.15876 -6.47986 0
M  V30 1989 O 190.431 1.96227 -7.79583 0
M  V30 1990 H 190.163 0.4586 -0.496651 0
M  V30 1991 H 192.717 0.846131 -1.87162 0
M  V30 1992 H 190.947 3.40061 -1.84107 0
M  V30 1993 H 192.636 3.37231 -2.25898 0
M  V30 1994 H 193.402 2.08153 -4.38061 0
M  V30 1995 H 189.281 2.96485 -3.53012 0
M  V30 1996 H 192.825 1.7366 -6.75639 0
M  V30 1997 H 188.722 2.62375 -5.89771 0
M  V30 1998 H 189.49 2.10883 -7.90867 0
M  V30 1999 N 192.153 1.28127 0.917671 0
M  V30 2000 C 193.116 1.11744 2.00115 0
M  V30 2001 C 194.116 0.0583052 1.60694 0
M  V30 2002 O 195.306 0.303755 1.71531 0
M  V30 2003 C 192.438 0.704862 3.33533 0
M  V30 2004 H 193.631 2.07966 2.16079 0
M  V30 2005 H 191.184 1.11058 1.09981 0
M  V30 2006 H 191.919 -0.258299 3.2327 0
M  V30 2007 H 191.704 1.4699 3.63505 0
M  V30 2008 H 193.194 0.612768 4.1308 0
M  V30 2009 N 193.631 -1.12557 1.10312 0
M  V30 2010 C 194.561 -2.20341 0.772798 0
M  V30 2011 C 195.542 -1.68198 -0.25365 0
M  V30 2012 O 196.727 -1.93831 -0.119699 0
M  V30 2013 C 193.857 -3.46709 0.202443 0
M  V30 2014 C 192.811 -4.11996 1.15943 0
M  V30 2015 C 192.137 -5.328 0.450345 0
M  V30 2016 C 193.437 -4.5828 2.50552 0
M  V30 2017 H 195.131 -2.48229 1.674 0
M  V30 2018 H 192.677 -1.19308 0.806326 0
M  V30 2019 H 194.63 -4.2138 -0.0407752 0
M  V30 2020 H 193.354 -3.18245 -0.734001 0
M  V30 2021 H 192.013 -3.39305 1.38808 0
M  V30 2022 H 191.661 -5.00602 -0.490531 0
M  V30 2023 H 191.361 -5.7743 1.08851 0
M  V30 2024 H 192.885 -6.10219 0.215642 0
M  V30 2025 H 194.299 -5.2433 2.31843 0
M  V30 2026 H 192.696 -5.13683 3.10242 0
M  V30 2027 H 193.766 -3.72329 3.10643 0
M  V30 2028 N 195.109 -0.891671 -1.2995 0
M  V30 2029 C 196.039 -0.379797 -2.30391 0
M  V30 2030 C 197.02 0.540919 -1.6127 0
M  V30 2031 O 198.205 0.453352 -1.88834 0
M  V30 2032 C 195.335 0.400654 -3.44981 0
M  V30 2033 C 194.289 -0.428905 -4.25846 0
M  V30 2034 C 193.615 0.478557 -5.32554 0
M  V30 2035 C 194.915 -1.67458 -4.94727 0
M  V30 2036 H 196.609 -1.21914 -2.73454 0
M  V30 2037 H 194.155 -0.587675 -1.31462 0
M  V30 2038 H 196.108 0.769434 -4.14316 0
M  V30 2039 H 194.832 1.27371 -3.0074 0
M  V30 2040 H 193.491 -0.779911 -3.58208 0
M  V30 2041 H 193.139 1.34951 -4.84559 0
M  V30 2042 H 192.839 -0.0727433 -5.87555 0
M  V30 2043 H 194.363 0.843705 -6.04743 0
M  V30 2044 H 195.777 -1.376 -5.56542 0
M  V30 2045 H 194.174 -2.16659 -5.59624 0
M  V30 2046 H 195.244 -2.41518 -4.20473 0
M  V30 2047 N 196.587 1.43421 -0.653314 0
M  V30 2048 C 198.003 1.56341 -0.320886 0
M  V30 2049 C 198.203 1.63696 1.17499 0
M  V30 2050 O 197.259 1.59208 1.95982 0
M  V30 2051 C 198.572 2.82424 -1.03233 0
M  V30 2052 C 200.12 2.96168 -1.01259 0
M  V30 2053 C 200.595 4.25084 -1.70492 0
M  V30 2054 N 202.086 4.31948 -1.67257 0
M  V30 2055 C 202.821 5.30466 -2.17701 0
M  V30 2056 N 202.317 6.35261 -2.76434 0
M  V30 2057 N 204.11 5.2212 -2.082 0
M  V30 2058 H 196.261 1.3689 -1.62403 0
M  V30 2059 H 198.524 0.657455 -0.682977 0
M  V30 2060 H 198.23 2.83053 -2.08744 0
M  V30 2061 H 198.104 3.72653 -0.583948 0
M  V30 2062 H 200.491 2.9508 0.0341235 0
M  V30 2063 H 200.572 2.07229 -1.49966 0
M  V30 2064 H 200.216 4.26932 -2.7512 0
M  V30 2065 H 200.146 5.1292 -1.19251 0
M  V30 2066 H 202.637 3.56838 -1.24398 0
M  V30 2067 H 202.95 7.06754 -3.12601 0
M  V30 2068 H 201.295 6.35884 -2.80495 0
M  V30 2069 H 204.486 4.39166 -1.62021 0
M  V30 2070 H 204.659 5.98739 -2.47822 0
M  V30 2071 N 198.065 0.39524 1.52563 0
M  V30 2072 C 198.995 -0.428384 2.29537 0
M  V30 2073 C 199.976 -1.05831 1.33169 0
M  V30 2074 O 201.161 -1.06995 1.62067 0
M  V30 2075 C 198.291 -1.55274 3.10656 0
M  V30 2076 C 197.245 -1.04855 4.14957 0
M  V30 2077 C 196.571 -2.26543 4.84337 0
M  V30 2078 C 197.871 -0.112324 5.22179 0
M  V30 2079 H 199.565 0.213867 2.98635 0
M  V30 2080 H 197.111 0.104298 1.43622 0
M  V30 2081 H 199.064 -2.1358 3.63265 0
M  V30 2082 H 197.788 -2.22266 2.39302 0
M  V30 2083 H 196.447 -0.487985 3.63338 0
M  V30 2084 H 196.095 -2.92059 4.09525 0
M  V30 2085 H 195.795 -1.93466 5.54837 0
M  V30 2086 H 197.319 -2.85481 5.39753 0
M  V30 2087 H 198.733 -0.603752 5.70112 0
M  V30 2088 H 197.13 0.128968 5.99961 0
M  V30 2089 H 198.2 0.837052 4.77621 0
M  V30 2090 N 199.544 -1.57102 0.125237 0
M  V30 2091 C 200.507 -2.14471 -0.80838 0
M  V30 2092 C 201.507 -1.0811 -1.19033 0
M  V30 2093 O 202.697 -1.33856 -1.11482 0
M  V30 2094 C 199.829 -2.69005 -2.09402 0
M  V30 2095 H 201.022 -2.98297 -0.309696 0
M  V30 2096 H 198.575 -1.55807 -0.124051 0
M  V30 2097 H 199.31 -1.88785 -2.63687 0
M  V30 2098 H 199.095 -3.46799 -1.82957 0
M  V30 2099 H 200.585 -3.13278 -2.76128 0
M  V30 2100 N 201.022 0.148545 -1.56898 0
M  V30 2101 C 201.985 1.16736 -1.97244 0
M  V30 2102 C 202.985 1.35947 -0.858777 0
M  V30 2103 O 204.175 1.32966 -1.12542 0
M  V30 2104 C 201.307 2.52798 -2.28705 0
M  V30 2105 H 202.5 0.821279 -2.88435 0
M  V30 2106 H 200.053 0.391831 -1.51309 0
M  V30 2107 H 200.788 2.92381 -1.403 0
M  V30 2108 H 200.573 2.40216 -3.09901 0
M  V30 2109 H 202.063 3.26179 -2.60762 0
M  V30 2110 N 202.5 1.5196 0.417844 0
M  V30 2111 C 203.447 1.74678 1.50852 0
M  V30 2112 C 204.417 0.588947 1.55308 0
M  V30 2113 O 205.602 0.825544 1.72016 0
M  V30 2114 C 202.742 1.89544 2.88387 0
M  V30 2115 C 201.855 3.17166 2.93309 0
M  V30 2116 C 200.99 3.22513 4.22088 0
M  V30 2117 C 200.029 4.44372 4.20951 0
M  V30 2118 N 199.166 4.47161 5.41287 0
M  V30 2119 H 204.006 2.67768 1.30783 0
M  V30 2120 H 201.543 1.32689 0.63498 0
M  V30 2121 H 203.501 1.96146 3.68216 0
M  V30 2122 H 202.131 0.998424 3.06971 0
M  V30 2123 H 201.183 3.19778 2.06024 0
M  V30 2124 H 202.495 4.07021 2.88332 0
M  V30 2125 H 201.649 3.28139 5.10303 0
M  V30 2126 H 200.388 2.30581 4.29748 0
M  V30 2127 H 199.393 4.38902 3.31127 0
M  V30 2128 H 200.618 5.3759 4.14938 0
M  V30 2129 H 198.564 3.58108 5.49632 0
M  V30 2130 H 198.481 5.3085 5.3827 0
M  V30 2131 H 199.749 4.57005 6.3148 0
M  V30 2132 N 203.978 -0.674533 1.42435 0
M  V30 2133 C 204.888 -1.81751 1.48337 0
M  V30 2134 C 205.904 -1.69975 0.372099 0
M  V30 2135 O 207.08 -1.91521 0.62304 0
M  V30 2136 C 204.145 -3.17895 1.38361 0
M  V30 2137 C 203.206 -3.41625 2.59982 0
M  V30 2138 C 202.439 -4.71274 2.50473 0
M  V30 2139 O 202.662 -5.49197 1.54075 0
M  V30 2140 O 201.596 -4.96254 3.4061 0
M  V30 2141 H 205.422 -1.79728 2.44809 0
M  V30 2142 H 203.007 -0.830312 1.24202 0
M  V30 2143 H 204.889 -3.99136 1.35161 0
M  V30 2144 H 203.564 -3.20555 0.450144 0
M  V30 2145 H 202.471 -2.60231 2.68757 0
M  V30 2146 H 203.804 -3.43796 3.52229 0
M  V30 2147 N 205.456 -1.28612 -0.910864 0
M  V30 2148 C 206.704 -1.15705 -1.65701 0
M  V30 2149 C 207.025 0.29416 -1.92769 0
M  V30 2150 O 206.295 1.20331 -1.54588 0
M  V30 2151 H 204.875 -0.425216 -0.614167 0
M  V30 2152 H 207.537 -1.61381 -1.0928 0
M  V30 2153 H 206.633 -1.6988 -2.61815 0
M  V30 2154 N 206.934 1.1197 -1.10907 0
M  V30 2155 C 208.18 1.8386 -0.855773 0
M  V30 2156 C 208.513 1.84134 0.617103 0
M  V30 2157 O 207.788 1.29041 1.45529 0
M  V30 2158 C 208.071 3.31305 -1.411 0
M  V30 2159 C 207.924 3.39456 -2.9511 0
M  V30 2160 C 209.243 4.2721 -1.05736 0
M  V30 2161 H 206.362 0.667545 -0.312334 0
M  V30 2162 H 209.004 1.31331 -1.37303 0
M  V30 2163 H 207.154 3.76169 -0.97105 0
M  V30 2164 H 208.826 3.03191 -3.47668 0
M  V30 2165 H 207.069 2.79849 -3.31462 0
M  V30 2166 H 207.74 4.43209 -3.29044 0
M  V30 2167 H 210.216 3.90497 -1.43706 0
M  V30 2168 H 209.092 5.28775 -1.47269 0
M  V30 2169 H 209.353 4.42088 0.0325958 0
M  V30 2170 N 208.412 0.89855 1.29475 0
M  V30 2171 C 209.359 0.373819 2.27753 0
M  V30 2172 C 210.329 -0.543444 1.56958 0
M  V30 2173 O 211.514 -0.468934 1.84948 0
M  V30 2174 C 208.654 -0.393648 3.42848 0
M  V30 2175 C 207.767 0.554379 4.28428 0
M  V30 2176 C 206.902 -0.230026 5.30702 0
M  V30 2177 C 205.941 0.712599 6.07938 0
M  V30 2178 N 205.078 -0.0373283 7.0209 0
M  V30 2179 H 209.918 1.21699 2.72017 0
M  V30 2180 H 207.455 0.611456 1.33789 0
M  V30 2181 H 209.413 -0.85466 4.08352 0
M  V30 2182 H 208.043 -1.20128 2.99615 0
M  V30 2183 H 207.095 1.13391 3.63107 0
M  V30 2184 H 208.407 1.27597 4.82204 0
M  V30 2185 H 207.561 -0.752288 6.02018 0
M  V30 2186 H 206.3 -0.984758 4.77654 0
M  V30 2187 H 205.305 1.24637 5.35486 0
M  V30 2188 H 206.53 1.46664 6.63074 0
M  V30 2189 H 204.476 -0.774348 6.51414 0
M  V30 2190 H 204.393 0.624374 7.53417 0
M  V30 2191 H 205.661 -0.539891 7.77628 0
M  V30 2192 N 209.89 -1.43072 0.660911 0
M  V30 2193 C 211.306 -1.56169 0.329173 0
M  V30 2194 C 211.506 -1.64317 -1.16629 0
M  V30 2195 O 210.562 -1.60245 -1.95135 0
M  V30 2196 C 211.875 -2.81873 1.04729 0
M  V30 2197 C 213.423 -2.95627 1.02828 0
M  V30 2198 C 213.898 -4.24174 1.72744 0
M  V30 2199 N 215.389 -4.31055 1.69545 0
M  V30 2200 C 216.124 -5.29304 2.20511 0
M  V30 2201 N 215.62 -6.33786 2.79799 0
M  V30 2202 N 217.413 -5.21008 2.10966 0
M  V30 2203 H 209.564 -1.36027 1.63127 0
M  V30 2204 H 211.827 -0.653823 0.686454 0
M  V30 2205 H 211.533 -2.81942 2.10242 0
M  V30 2206 H 211.407 -3.72338 0.603702 0
M  V30 2207 H 213.794 -2.95094 -0.0184742 0
M  V30 2208 H 213.875 -2.06431 1.51063 0
M  V30 2209 H 213.519 -4.25467 2.7738 0
M  V30 2210 H 213.449 -5.1228 1.2197 0
M  V30 2211 H 215.94 -3.56174 1.26288 0
M  V30 2212 H 216.253 -7.05086 3.16344 0
M  V30 2213 H 214.598 -6.34387 2.83863 0
M  V30 2214 H 217.789 -4.38301 1.64347 0
M  V30 2215 H 217.962 -5.97416 2.50993 0
M  V30 2216 N 211.368 -0.403325 -1.52352 0
M  V30 2217 C 212.614 0.174605 -2.02047 0
M  V30 2218 C 212.947 1.45282 -1.28867 0
M  V30 2219 O 212.222 1.90483 -0.393257 0
M  V30 2220 C 212.505 0.428238 -3.57545 0
M  V30 2221 C 212.358 -0.866248 -4.4138 0
M  V30 2222 C 213.677 1.21287 -4.23057 0
M  V30 2223 H 210.796 0.0619851 -0.734389 0
M  V30 2224 H 213.438 -0.53565 -1.82293 0
M  V30 2225 H 211.588 1.03327 -3.74507 0
M  V30 2226 H 213.26 -1.50265 -4.3614 0
M  V30 2227 H 211.503 -1.47851 -4.07827 0
M  V30 2228 H 212.174 -0.643249 -5.48239 0
M  V30 2229 H 214.65 0.700703 -4.10158 0
M  V30 2230 H 213.526 1.35909 -5.31808 0
M  V30 2231 H 213.787 2.23193 -3.81625 0
M  V30 2232 N 212.846 1.57033 -0.133567 0
M  V30 2233 C 214.076 1.99754 0.527429 0
M  V30 2234 C 214.484 1.01245 1.59832 0
M  V30 2235 O 213.827 -0.000645496 1.837 0
M  V30 2236 C 213.889 3.38903 1.19939 0
M  V30 2237 C 213.553 4.56174 0.274709 0
M  V30 2238 C 214.55 5.17563 -0.492398 0
M  V30 2239 C 212.235 5.01972 0.18153 0
M  V30 2240 C 214.229 6.2315 -1.34027 0
M  V30 2241 C 211.916 6.07416 -0.669958 0
M  V30 2242 C 212.914 6.67874 -1.42947 0
M  V30 2243 O 212.602 7.71279 -2.2668 0
M  V30 2244 H 212.334 0.660702 0.142999 0
M  V30 2245 H 214.888 2.04207 -0.221099 0
M  V30 2246 H 213.118 3.31248 1.99528 0
M  V30 2247 H 214.807 3.65818 1.75875 0
M  V30 2248 H 215.573 4.83087 -0.430367 0
M  V30 2249 H 211.452 4.54652 0.762422 0
M  V30 2250 H 214.996 6.70268 -1.93357 0
M  V30 2251 H 210.893 6.41321 -0.73333 0
M  V30 2252 H 211.661 7.88441 -2.1978 0
M  V30 2253 N 214.325 -0.140222 1.56975 0
M  V30 2254 C 215.574 -0.850152 1.82908 0
M  V30 2255 C 215.887 -1.82028 0.715892 0
M  V30 2256 O 217.093 -2.57485 0.861016 0
M  V30 2257 C 215.549 -1.5625 3.24213 0
M  V30 2258 C 215.157 -0.63443 4.43485 0
M  V30 2259 C 216.901 -2.25881 3.59413 0
M  V30 2260 C 214.808 -1.34879 5.75814 0
M  V30 2261 H 213.738 -0.321221 0.682153 0
M  V30 2262 H 216.389 -0.102874 1.83211 0
M  V30 2263 H 214.771 -2.35565 3.18316 0
M  V30 2264 H 215.945 0.12398 4.60633 0
M  V30 2265 H 214.26 -0.0461836 4.16374 0
M  V30 2266 H 216.857 -2.79978 4.5554 0
M  V30 2267 H 217.2 -3.02693 2.85802 0
M  V30 2268 H 217.733 -1.53477 3.67001 0
M  V30 2269 H 214.472 -0.622385 6.52539 0
M  V30 2270 H 213.992 -2.07974 5.6259 0
M  V30 2271 H 215.671 -1.88784 6.18845 0
M  V30 2272 N 215.803 -1.52179 -0.40978 0
M  V30 2273 C 216.753 -1.71857 -1.49831 0
M  V30 2274 C 217.737 -0.572469 -1.50372 0
M  V30 2275 O 218.929 -0.829509 -1.56359 0
M  V30 2276 C 216.058 -1.87206 -2.87765 0
M  V30 2277 C 215.144 -3.07685 -2.91875 0
M  V30 2278 N 215.535 -4.30403 -2.65683 0
M  V30 2279 C 213.833 -3.07505 -3.23043 0
M  V30 2280 C 214.534 -5.11868 -2.76344 0
M  V30 2281 N 213.51 -4.47101 -3.09195 0
M  V30 2282 H 217.312 -2.64381 -1.28375 0
M  V30 2283 H 214.826 -1.50203 -0.617479 0
M  V30 2284 H 216.823 -1.99419 -3.66111 0
M  V30 2285 H 215.483 -0.958814 -3.10221 0
M  V30 2286 H 216.494 -4.58887 -2.4009 0
M  V30 2287 H 213.171 -2.25915 -3.51096 0
M  V30 2288 H 214.561 -6.19634 -2.59814 0
M  V30 2289 N 217.281 0.66697 -1.42791 0
M  V30 2290 C 218.529 1.42417 -1.43394 0
M  V30 2291 C 218.85 1.94925 -0.0542373 0
M  V30 2292 O 218.12 1.73564 0.908415 0
M  V30 2293 H 216.7 0.528515 -0.527902 0
M  V30 2294 H 219.362 0.787562 -1.78279 0
M  V30 2295 H 218.458 2.27333 -2.13837 0
M  V30 2296 N 218.759 1.29093 0.90403 0
M  V30 2297 C 220.006 1.16813 1.65411 0
M  V30 2298 C 220.334 -0.28128 1.92455 0
M  V30 2299 O 219.589 -1.22006 1.53013 0
M  V30 2300 C 219.888 1.92224 3.01305 0
M  V30 2301 C 219.554 3.41968 2.93885 0
M  V30 2302 C 218.216 3.82807 2.91569 0
M  V30 2303 C 220.568 4.37409 2.83413 0
M  V30 2304 C 217.896 5.1741 2.76594 0
M  V30 2305 C 220.248 5.72097 2.69977 0
M  V30 2306 C 218.912 6.12199 2.66024 0
M  V30 2307 H 218.182 0.42745 0.605283 0
M  V30 2308 H 220.829 1.59981 1.05254 0
M  V30 2309 H 219.134 1.41635 3.65304 0
M  V30 2310 H 220.831 1.80131 3.58265 0
M  V30 2311 H 217.421 3.09504 2.96488 0
M  V30 2312 H 221.605 4.06813 2.84283 0
M  V30 2313 H 216.861 5.47596 2.71935 0
M  V30 2314 H 221.035 6.45704 2.60844 0
M  V30 2315 H 218.662 7.16448 2.54178 0
M  V30 2316 N 220.237 -1.11381 1.11499 0
M  V30 2317 C 221.167 -2.19509 0.796125 0
M  V30 2318 C 222.148 -1.68458 -0.235796 0
M  V30 2319 O 223.333 -1.93947 -0.0991344 0
M  V30 2320 C 220.463 -3.46475 0.239205 0
M  V30 2321 C 219.417 -4.10744 1.20307 0
M  V30 2322 C 218.743 -5.32293 0.50683 0
M  V30 2323 C 220.043 -4.55597 2.55399 0
M  V30 2324 H 221.737 -2.46439 1.70024 0
M  V30 2325 H 219.283 -1.18446 0.818935 0
M  V30 2326 H 221.236 -4.214 0.00392006 0
M  V30 2327 H 219.96 -3.19006 -0.700206 0
M  V30 2328 H 218.619 -3.37813 1.42399 0
M  V30 2329 H 218.267 -5.01095 -0.437408 0
M  V30 2330 H 217.967 -5.76243 1.1497 0
M  V30 2331 H 219.491 -6.09956 0.280351 0
M  V30 2332 H 220.905 -5.21841 2.37391 0
M  V30 2333 H 219.302 -5.10363 3.15673 0
M  V30 2334 H 220.372 -3.69013 3.14575 0
M  V30 2335 N 221.715 -0.905404 -1.28997 0
M  V30 2336 C 222.992 -0.453513 -1.9027 0
M  V30 2337 C 223.372 1.06721 -1.82137 0
M  V30 2338 O 222.72 1.91159 -1.25182 0
M  V30 2339 C 222.93 -0.974494 -3.35119 0
M  V30 2340 C 224.278 -1.0216 -4.12127 0
M  V30 2341 O 225.302 -0.922557 -3.44046 0
M  V30 2342 O 224.161 -1.17121 -5.33802 0
M  V30 2343 H 221.255 -0.142347 -0.814657 0
M  V30 2344 H 223.801 -0.995642 -1.37423 0
M  V30 2345 H 222.573 -2.01848 -3.35221 0
M  V30 2346 H 222.196 -0.412706 -3.95452 0
M  V30 2347 N 223.193 1.4272 -0.668489 0
M  V30 2348 C 224.441 2.01226 -0.187769 0
M  V30 2349 C 224.762 1.53092 1.2078 0
M  V30 2350 O 224.032 0.74993 1.80977 0
M  V30 2351 H 222.612 0.744041 -0.0664272 0
M  V30 2352 H 225.274 1.74723 -0.863583 0
M  V30 2353 H 224.37 3.11556 -0.184166 0
M  V30 2354 N 224.671 0.411399 1.52136 0
M  V30 2355 C 226.087 0.0623865 1.59478 0
M  V30 2356 C 226.287 -1.42554 1.4241 0
M  V30 2357 O 225.343 -2.19263 1.2522 0
M  V30 2358 C 226.656 0.559331 2.95452 0
M  V30 2359 C 228.204 0.517503 3.08692 0
M  V30 2360 C 228.679 0.990994 4.4715 0
M  V30 2361 N 230.17 0.947908 4.53397 0
M  V30 2362 C 230.905 1.28544 5.58806 0
M  V30 2363 N 230.401 1.69454 6.71757 0
M  V30 2364 N 232.194 1.20526 5.49026 0
M  V30 2365 H 224.345 1.37982 1.61477 0
M  V30 2366 H 226.608 0.566977 0.759764 0
M  V30 2367 H 226.314 1.59938 3.1323 0
M  V30 2368 H 226.188 -0.0298014 3.77188 0
M  V30 2369 H 228.575 -0.513505 2.90598 0
M  V30 2370 H 228.656 1.14272 2.28857 0
M  V30 2371 H 228.3 2.02034 4.65988 0
M  V30 2372 H 228.23 0.34257 5.25485 0
M  V30 2373 H 230.721 0.647157 3.72317 0
M  V30 2374 H 231.034 1.93513 7.48179 0
M  V30 2375 H 229.379 1.73359 6.73032 0
M  V30 2376 H 232.57 0.884505 4.59667 0
M  V30 2377 H 232.743 1.47161 6.31069 0
M  V30 2378 N 226.149 -1.5696 0.141893 0
M  V30 2379 C 227.426 -1.87553 -0.555281 0
M  V30 2380 C 227.806 -1.04699 -1.83306 0
M  V30 2381 O 227.154 -0.132346 -2.28116 0
M  V30 2382 C 227.364 -3.39093 -0.825664 0
M  V30 2383 C 228.712 -4.08199 -1.16869 0
M  V30 2384 O 229.736 -3.44242 -0.915185 0
M  V30 2385 O 228.595 -5.21139 -1.6455 0
M  V30 2386 H 225.689 -0.777188 -0.282679 0
M  V30 2387 H 228.235 -1.68763 0.17812 0
M  V30 2388 H 227.007 -3.91221 0.0788633 0
M  V30 2389 H 226.63 -3.63393 -1.61343 0
M  V30 2390 N 227.627 0.131896 -1.57047 0
M  V30 2391 C 228.873 0.843179 -1.84441 0
M  V30 2392 C 229.206 1.80129 -0.725749 0
M  V30 2393 O 228.481 1.92624 0.269469 0
M  V30 2394 C 228.764 1.60442 -3.22382 0
M  V30 2395 C 228.617 0.666782 -4.4483 0
M  V30 2396 C 229.936 2.56354 -3.5773 0
M  V30 2397 H 227.055 0.305081 -0.670891 0
M  V30 2398 H 229.697 0.107839 -1.89694 0
M  V30 2399 H 227.847 2.23128 -3.18035 0
M  V30 2400 H 229.519 0.0497646 -4.61273 0
M  V30 2401 H 227.762 -0.022609 -4.33794 0
M  V30 2402 H 228.433 1.23579 -5.37989 0
M  V30 2403 H 230.909 2.0378 -3.62785 0
M  V30 2404 H 229.785 3.06657 -4.5525 0
M  V30 2405 H 230.046 3.38419 -2.84473 0
M  V30 2406 N 229.106 1.52395 0.401703 0
M  V30 2407 C 230.354 1.66488 1.14569 0
M  V30 2408 C 230.675 0.400897 1.90835 0
M  V30 2409 O 229.945 -0.584415 1.8698 0
M  V30 2410 H 228.525 0.613672 0.425929 0
M  V30 2411 H 231.187 1.89464 0.457093 0
M  V30 2412 H 230.283 2.50942 1.85566 0
M  V30 2413 N 230.584 -0.659388 1.43143 0
M  V30 2414 C 231.995 -1.24041 1.39537 0
M  V30 2415 C 232.346 -1.95963 0.0963364 0
M  V30 2416 O 231.471 -2.00892 -0.804438 0
M  V30 2417 C 232.066 -2.25601 2.52764 0
M  V30 2418 C 230.625 -2.79195 2.52443 0
M  V30 2419 C 229.772 -1.53743 2.30778 0
M  V30 2420 H 232.723 -0.451792 1.52133 0
M  V30 2421 H 232.744 -3.07651 2.23899 0
M  V30 2422 H 232.256 -1.73226 3.47296 0
M  V30 2423 H 230.357 -3.35649 1.61773 0
M  V30 2424 H 230.47 -3.2716 3.50004 0
M  V30 2425 H 228.834 -1.80869 1.79328 0
M  V30 2426 H 229.617 -1.03312 3.27386 0
M  V30 2427 N 232.062 -1.29571 -0.897171 0
M  V30 2428 C 232.994 -1.10724 -2.00681 0
M  V30 2429 C 234.007 -0.0540026 -1.6271 0
M  V30 2430 O 235.196 -0.298783 -1.75982 0
M  V30 2431 C 232.296 -0.663912 -3.32333 0
M  V30 2432 C 231.469 -1.79622 -3.98816 0
M  V30 2433 C 230.528 -1.34349 -5.0876 0
M  V30 2434 O 229.554 -2.04864 -5.31055 0
M  V30 2435 N 230.756 -0.215764 -5.80099 0
M  V30 2436 H 233.521 -2.06291 -2.17403 0
M  V30 2437 H 231.082 -1.21544 -1.06951 0
M  V30 2438 H 233.074 -0.344295 -4.03233 0
M  V30 2439 H 231.644 0.199375 -3.11964 0
M  V30 2440 H 230.864 -2.28459 -3.21248 0
M  V30 2441 H 232.152 -2.55535 -4.39976 0
M  V30 2442 H 231.55 0.372091 -5.64475 0
M  V30 2443 H 230.107 0.0444707 -6.51785 0
M  V30 2444 N 233.54 1.10788 -1.12088 0
M  V30 2445 C 234.768 1.86461 -0.896651 0
M  V30 2446 C 235.183 1.80492 0.553912 0
M  V30 2447 O 234.54 1.19102 1.38278 0
M  V30 2448 C 234.591 3.35006 -1.35843 0
M  V30 2449 O 234.312 3.40866 -2.75213 0
M  V30 2450 C 235.813 4.27565 -1.1706 0
M  V30 2451 H 233.033 0.589425 -0.320654 0
M  V30 2452 H 235.577 1.40076 -1.48993 0
M  V30 2453 H 233.732 3.7887 -0.808458 0
M  V30 2454 H 234.146 4.33411 -2.9539 0
M  V30 2455 H 235.62 5.30007 -1.54263 0
M  V30 2456 H 236.097 4.3906 -0.110814 0
M  V30 2457 H 236.703 3.89501 -1.70789 0
M  V30 2458 N 235.018 0.912232 1.28515 0
M  V30 2459 C 235.981 0.404223 2.25607 0
M  V30 2460 C 236.981 -0.468602 1.53821 0
M  V30 2461 O 238.171 -0.271873 1.72065 0
M  V30 2462 C 235.303 -0.420653 3.38295 0
M  V30 2463 H 236.496 1.26188 2.7206 0
M  V30 2464 H 234.049 0.691495 1.40171 0
M  V30 2465 H 234.784 -1.29777 2.97201 0
M  V30 2466 H 234.569 0.204935 3.91564 0
M  V30 2467 H 236.059 -0.766971 4.10496 0
M  V30 2468 N 236.496 -1.42363 0.676048 0
M  V30 2469 C 237.907 -1.84649 0.275948 0
M  V30 2470 C 238.258 -1.56588 -1.18214 0
M  V30 2471 O 237.383 -1.02634 -1.90513 0
M  V30 2472 C 237.978 -3.35178 0.494053 0
M  V30 2473 C 236.537 -3.76109 0.148061 0
M  V30 2474 C 235.684 -2.65931 0.785891 0
M  V30 2475 H 238.635 -1.32192 0.878121 0
M  V30 2476 H 238.656 -3.79655 -0.25343 0
M  V30 2477 H 238.168 -3.55571 1.55535 0
M  V30 2478 H 236.269 -3.61323 -0.909742 0
M  V30 2479 H 236.382 -4.7546 0.589454 0
M  V30 2480 H 234.746 -2.53773 0.217113 0
M  V30 2481 H 235.529 -2.89146 1.85067 0
M  V30 2482 N 237.974 -0.419461 -1.51915 0
M  V30 2483 C 238.906 0.43646 -2.25006 0
M  V30 2484 C 239.919 1.00149 -1.28351 0
M  V30 2485 O 241.108 0.898674 -1.54227 0
M  V30 2486 C 238.208 1.6206 -2.9764 0
M  V30 2487 C 237.381 1.17763 -4.21249 0
M  V30 2488 C 236.44 2.22985 -4.76617 0
M  V30 2489 O 235.466 1.83151 -5.38929 0
M  V30 2490 N 236.668 3.55271 -4.59089 0
M  V30 2491 H 239.433 -0.18989 -2.99098 0
M  V30 2492 H 236.994 -0.247386 -1.59999 0
M  V30 2493 H 238.986 2.32038 -3.31573 0
M  V30 2494 H 237.556 2.15266 -2.2667 0
M  V30 2495 H 236.776 0.305582 -3.93014 0
M  V30 2496 H 238.064 0.858781 -5.015 0
M  V30 2497 H 237.462 3.90377 -4.09417 0
M  V30 2498 H 236.019 4.21195 -4.97432 0
M  V30 2499 N 239.452 1.56882 -0.150215 0
M  V30 2500 C 240.682 2.00302 0.506213 0
M  V30 2501 C 241.09 1.02934 1.58749 0
M  V30 2502 O 240.433 0.0188384 1.8369 0
M  V30 2503 C 240.495 3.40156 1.16337 0
M  V30 2504 C 240.159 4.56439 0.226311 0
M  V30 2505 C 241.156 5.17012 -0.547265 0
M  V30 2506 C 238.841 5.02136 0.128279 0
M  V30 2507 C 240.835 6.21693 -1.40629 0
M  V30 2508 C 238.522 6.06672 -0.734345 0
M  V30 2509 C 239.52 6.6632 -1.50023 0
M  V30 2510 O 239.208 7.68831 -2.34848 0
M  V30 2511 H 238.94 0.662182 0.135984 0
M  V30 2512 H 241.494 2.03961 -0.242746 0
M  V30 2513 H 239.724 3.33346 1.96004 0
M  V30 2514 H 241.413 3.67663 1.71985 0
M  V30 2515 H 242.179 4.82603 -0.48158 0
M  V30 2516 H 238.058 4.55435 0.714157 0
M  V30 2517 H 241.602 6.68179 -2.00455 0
M  V30 2518 H 237.499 6.40507 -0.801309 0
M  V30 2519 H 238.267 7.86065 -2.28131 0
M  V30 2520 N 240.93 -0.123565 1.57115 0
M  V30 2521 C 242.179 -0.830704 1.83799 0
M  V30 2522 C 242.492 -1.81259 0.735158 0
M  V30 2523 O 243.698 -2.56558 0.888278 0
M  V30 2524 C 242.154 -1.52802 3.25852 0
M  V30 2525 C 241.762 -0.587356 4.44133 0
M  V30 2526 C 243.506 -2.22056 3.61789 0
M  V30 2527 C 241.413 -1.28764 5.77212 0
M  V30 2528 H 240.343 -0.313967 0.685522 0
M  V30 2529 H 242.994 -0.0834359 1.8331 0
M  V30 2530 H 241.376 -2.32175 3.20797 0
M  V30 2531 H 242.55 0.172829 4.60476 0
M  V30 2532 H 240.865 -0.00201892 4.164 0
M  V30 2533 H 243.462 -2.75131 4.58483 0
M  V30 2534 H 243.805 -2.99644 2.88997 0
M  V30 2535 H 244.338 -1.49576 3.68608 0
M  V30 2536 H 241.077 -0.55314 6.53162 0
M  V30 2537 H 240.597 -2.01995 5.64764 0
M  V30 2538 H 242.276 -1.8221 6.20813 0
M  V30 2539 N 242.408 -1.52605 -0.393616 0
M  V30 2540 C 243.355 -1.77055 -1.48054 0
M  V30 2541 C 244.325 -0.61358 -1.54352 0
M  V30 2542 O 245.51 -0.852806 -1.70681 0
M  V30 2543 C 242.65 -1.94108 -2.85335 0
M  V30 2544 C 241.763 -3.21792 -2.88226 0
M  V30 2545 C 240.898 -3.29188 -4.16904 0
M  V30 2546 C 239.937 -4.51013 -4.13828 0
M  V30 2547 N 239.074 -4.55716 -5.34105 0
M  V30 2548 H 243.914 -2.69815 -1.26506 0
M  V30 2549 H 241.451 -1.33683 -0.61379 0
M  V30 2550 H 243.409 -2.01979 -3.65049 0
M  V30 2551 H 242.039 -1.04713 -3.05344 0
M  V30 2552 H 241.091 -3.23015 -2.00911 0
M  V30 2553 H 242.403 -4.11557 -2.8182 0
M  V30 2554 H 241.557 -3.36216 -5.05018 0
M  V30 2555 H 240.296 -2.37389 -4.26026 0
M  V30 2556 H 239.301 -4.44115 -3.24102 0
M  V30 2557 H 240.526 -5.44123 -4.06333 0
M  V30 2558 H 238.472 -3.66807 -5.43865 0
M  V30 2559 H 238.389 -5.39346 -5.29756 0
M  V30 2560 H 239.657 -4.66993 -6.2413 0
M  V30 2561 N 243.887 0.651787 -1.4349 0
M  V30 2562 C 244.797 1.79368 -1.5121 0
M  V30 2563 C 245.813 1.69361 -0.399093 0
M  V30 2564 O 246.989 1.90505 -0.653431 0
M  V30 2565 C 244.054 3.15653 -1.43401 0
M  V30 2566 C 243.115 3.37446 -2.65384 0
M  V30 2567 C 242.348 4.67229 -2.57939 0
M  V30 2568 O 242.571 5.46676 -1.62792 0
M  V30 2569 O 241.505 4.90773 -3.48462 0
M  V30 2570 H 245.331 1.7581 -2.47638 0
M  V30 2571 H 242.916 0.810447 -1.25507 0
M  V30 2572 H 244.798 3.96935 -1.41494 0
M  V30 2573 H 243.473 3.19798 -0.501085 0
M  V30 2574 H 242.38 2.55923 -2.72863 0
M  V30 2575 H 243.713 3.38148 -3.57654 0
M  V30 2576 N 245.365 1.30045 0.890287 0
M  V30 2577 C 246.295 1.18541 2.01172 0
M  V30 2578 C 247.276 0.0773356 1.69924 0
M  V30 2579 O 248.461 0.25845 1.92473 0
M  V30 2580 C 245.591 0.870941 3.36202 0
M  V30 2581 C 244.545 1.93637 3.81692 0
M  V30 2582 C 243.871 1.475 5.13953 0
M  V30 2583 C 245.171 3.34666 4.00994 0
M  V30 2584 H 246.865 2.12359 2.11054 0
M  V30 2585 H 244.411 1.02238 1.01407 0
M  V30 2586 H 246.364 0.777141 4.14172 0
M  V30 2587 H 245.088 -0.102926 3.26438 0
M  V30 2588 H 243.747 2.01972 3.05946 0
M  V30 2589 H 243.395 0.489551 5.00612 0
M  V30 2590 H 243.095 2.1876 5.4536 0
M  V30 2591 H 244.619 1.39489 5.94454 0
M  V30 2592 H 246.033 3.2912 4.69417 0
M  V30 2593 H 244.43 4.03966 4.43769 0
M  V30 2594 H 245.5 3.76949 3.05021 0
M  V30 2595 N 246.843 -1.10192 1.12674 0
M  V30 2596 C 247.775 -2.16418 0.754701 0
M  V30 2597 C 248.788 -1.61309 -0.21986 0
M  V30 2598 O 249.977 -1.785 -0.000826841 0
M  V30 2599 C 247.077 -3.38762 0.096698 0
M  V30 2600 C 246.25 -4.23307 1.10136 0
M  V30 2601 C 245.309 -5.24092 0.470513 0
M  V30 2602 O 244.335 -5.57906 1.12824 0
M  V30 2603 N 245.537 -5.75491 -0.760948 0
M  V30 2604 H 248.302 -2.48943 1.66875 0
M  V30 2605 H 245.863 -1.25834 1.01869 0
M  V30 2606 H 247.855 -4.03291 -0.337384 0
M  V30 2607 H 246.425 -3.04192 -0.720153 0
M  V30 2608 H 245.645 -3.55036 1.71299 0
M  V30 2609 H 246.933 -4.76624 1.78064 0
M  V30 2610 H 246.331 -5.50222 -1.31424 0
M  V30 2611 H 244.888 -6.41792 -1.13781 0
M  V30 2612 N 248.321 -0.919034 -1.28029 0
M  V30 2613 C 249.231 -0.416756 -2.30869 0
M  V30 2614 C 250.247 0.498235 -1.66714 0
M  V30 2615 O 251.423 0.383144 -1.97722 0
M  V30 2616 C 248.488 0.330274 -3.45123 0
M  V30 2617 C 247.549 -0.618578 -4.2482 0
M  V30 2618 C 246.782 0.0928959 -5.33619 0
M  V30 2619 O 247.005 1.31375 -5.55065 0
M  V30 2620 O 245.939 -0.574499 -5.99152 0
M  V30 2621 H 249.765 -1.27043 -2.75851 0
M  V30 2622 H 247.35 -0.684052 -1.3282 0
M  V30 2623 H 249.232 0.751972 -4.14636 0
M  V30 2624 H 247.907 1.1597 -3.02213 0
M  V30 2625 H 246.814 -1.08978 -3.57875 0
M  V30 2626 H 248.147 -1.41497 -4.71423 0
M  V30 2627 N 249.799 1.42003 -0.683588 0
M  V30 2628 C 250.746 2.30798 -0.0107309 0
M  V30 2629 C 251.716 1.4645 0.783688 0
M  V30 2630 O 252.901 1.75263 0.754156 0
M  V30 2631 C 250.041 3.3238 0.928306 0
M  V30 2632 C 249.154 4.31814 0.126776 0
M  V30 2633 C 248.289 5.20468 1.06236 0
M  V30 2634 C 247.328 6.11577 0.253035 0
M  V30 2635 N 246.465 6.92754 1.14179 0
M  V30 2636 H 251.305 2.8778 -0.773727 0
M  V30 2637 H 248.842 1.41745 -0.393283 0
M  V30 2638 H 250.8 3.89813 1.48666 0
M  V30 2639 H 249.43 2.76976 1.65783 0
M  V30 2640 H 248.482 3.76427 -0.54833 0
M  V30 2641 H 249.794 4.96276 -0.501192 0
M  V30 2642 H 248.948 5.82677 1.69035 0
M  V30 2643 H 247.687 4.56204 1.7242 0
M  V30 2644 H 246.692 5.48428 -0.388108 0
M  V30 2645 H 247.917 6.77892 -0.404839 0
M  V30 2646 H 245.863 6.3111 1.78987 0
M  V30 2647 H 245.78 7.53855 0.569111 0
M  V30 2648 H 247.048 7.59441 1.75697 0
M  V30 2649 N 251.277 0.427512 1.51691 0
M  V30 2650 C 252.526 -0.143679 2.01188 0
M  V30 2651 C 252.839 -1.44642 1.31674 0
M  V30 2652 O 254.045 -2.09997 1.72086 0
M  V30 2653 C 252.501 -0.306602 3.58592 0
M  V30 2654 C 252.109 0.985125 4.37035 0
M  V30 2655 C 253.853 -0.832091 4.16265 0
M  V30 2656 C 251.76 0.788382 5.86122 0
M  V30 2657 H 250.69 -0.0574701 0.751807 0
M  V30 2658 H 253.341 0.555772 1.74881 0
M  V30 2659 H 251.723 -1.06882 3.81303 0
M  V30 2660 H 252.897 1.75492 4.26074 0
M  V30 2661 H 251.212 1.4384 3.90767 0
M  V30 2662 H 253.809 -0.995617 5.25349 0
M  V30 2663 H 254.152 -1.81186 3.74803 0
M  V30 2664 H 254.685 -0.128444 3.97593 0
M  V30 2665 H 251.424 1.74025 6.31978 0
M  V30 2666 H 250.944 0.0582143 5.99772 0
M  V30 2667 H 252.623 0.437722 6.45518 0
M  V30 2668 N 252.755 -1.56801 0.158532 0
M  V30 2669 C 253.702 -2.17337 -0.776729 0
M  V30 2670 C 254.672 -1.1096 -1.23601 0
M  V30 2671 O 255.857 -1.39054 -1.30647 0
M  V30 2672 C 252.997 -2.80822 -2.00582 0
M  V30 2673 C 252.11 -4.01624 -1.59129 0
M  V30 2674 C 251.245 -4.53072 -2.77306 0
M  V30 2675 C 250.284 -5.66314 -2.32282 0
M  V30 2676 N 249.421 -6.12329 -3.43508 0
M  V30 2677 H 254.261 -2.96918 -0.253701 0
M  V30 2678 H 251.798 -1.46661 -0.113504 0
M  V30 2679 H 253.756 -3.15779 -2.72652 0
M  V30 2680 H 252.386 -2.03866 -2.50277 0
M  V30 2681 H 251.438 -3.72571 -0.767806 0
M  V30 2682 H 252.75 -4.83633 -1.2207 0
M  V30 2683 H 251.904 -4.90145 -3.57551 0
M  V30 2684 H 250.643 -3.70095 -3.17617 0
M  V30 2685 H 249.648 -5.28806 -1.5048 0
M  V30 2686 H 250.873 -6.51085 -1.93043 0
M  V30 2687 H 248.819 -5.32284 -3.83418 0
M  V30 2688 H 248.736 -6.89293 -3.105 0
M  V30 2689 H 250.004 -6.5405 -4.24075 0
M  V30 2690 N 254.233 0.115231 -1.57178 0
M  V30 2691 C 255.143 1.15994 -2.03918 0
M  V30 2692 C 256.159 1.45103 -0.960268 0
M  V30 2693 O 257.335 1.56144 -1.27204 0
M  V30 2694 C 254.4 2.46568 -2.43732 0
M  V30 2695 C 253.461 2.24822 -3.65723 0
M  V30 2696 C 252.694 3.4917 -4.03629 0
M  V30 2697 O 252.917 4.56623 -3.41835 0
M  V30 2698 O 251.851 3.39949 -4.96708 0
M  V30 2699 H 255.677 0.793019 -2.93164 0
M  V30 2700 H 253.262 0.3263 -1.45793 0
M  V30 2701 H 255.144 3.23492 -2.70057 0
M  V30 2702 H 253.819 2.82726 -1.57631 0
M  V30 2703 H 252.726 1.45744 -3.44542 0
M  V30 2704 H 254.059 1.93566 -4.52541 0
M  V30 2705 N 255.711 1.52812 0.385517 0
M  V30 2706 C 256.941 1.71658 1.14966 0
M  V30 2707 C 257.349 0.436253 1.84102 0
M  V30 2708 O 256.692 -0.599313 1.73649 0
M  V30 2709 C 256.754 2.81309 2.23843 0
M  V30 2710 C 256.418 4.22313 1.74644 0
M  V30 2711 C 257.415 5.05352 1.22129 0
M  V30 2712 C 255.1 4.68648 1.80761 0
M  V30 2713 C 257.094 6.32807 0.763838 0
M  V30 2714 C 254.781 5.96086 1.34627 0
M  V30 2715 C 255.779 6.77996 0.825264 0
M  V30 2716 O 255.467 8.03045 0.370669 0
M  V30 2717 H 255.199 0.578022 0.350523 0
M  V30 2718 H 257.753 2.00263 0.456509 0
M  V30 2719 H 255.983 2.48133 2.96592 0
M  V30 2720 H 257.672 2.88524 2.85497 0
M  V30 2721 H 258.438 4.70736 1.16758 0
M  V30 2722 H 254.317 4.04979 2.20256 0
M  V30 2723 H 257.861 6.96689 0.356494 0
M  V30 2724 H 253.758 6.30205 1.39686 0
M  V30 2725 H 254.526 8.17021 0.491829 0
M  V30 2726 N 257.189 -0.644168 1.43834 0
M  V30 2727 C 258.437 -1.40117 1.45642 0
M  V30 2728 C 258.758 -1.94814 0.0852413 0
M  V30 2729 O 258.028 -1.74988 -0.880688 0
M  V30 2730 H 256.608 -0.52005 0.536243 0
M  V30 2731 H 259.27 -0.7591 1.7951 0
M  V30 2732 H 258.366 -2.23902 2.17427 0
M  V30 2733 N 258.668 -1.30515 -0.883378 0
M  V30 2734 C 259.914 -1.19607 -1.63774 0
M  V30 2735 C 260.247 0.248314 -1.92606 0
M  V30 2736 O 259.522 1.17742 -1.54813 0
M  V30 2737 C 259.805 -2.02669 -2.97653 0
M  V30 2738 C 259.658 -3.55335 -2.75784 0
M  V30 2739 C 260.977 -1.86573 -3.98596 0
M  V30 2740 H 258.096 -0.435856 -0.594305 0
M  V30 2741 H 260.738 -1.60165 -1.02212 0
M  V30 2742 H 258.888 -1.68208 -3.50197 0
M  V30 2743 H 260.56 -3.99863 -2.30016 0
M  V30 2744 H 258.803 -3.79438 -2.1026 0
M  V30 2745 H 259.474 -4.08745 -3.70988 0
M  V30 2746 H 261.95 -2.16703 -3.55217 0
M  V30 2747 H 260.826 -2.47014 -4.90179 0
M  V30 2748 H 261.087 -0.825321 -4.34328 0
M  V30 2749 N 260.146 1.09593 -1.13257 0
M  V30 2750 C 261.394 1.81375 -0.891492 0
M  V30 2751 C 261.715 1.86049 0.584009 0
M  V30 2752 O 260.985 1.34481 1.42449 0
M  V30 2753 H 259.565 0.671708 -0.326828 0
M  V30 2754 H 262.227 1.3256 -1.42877 0
M  V30 2755 H 261.323 2.84612 -1.28071 0
M  V30 2756 N 261.624 0.925811 1.2754 0
M  V30 2757 C 262.534 0.428993 2.30644 0
M  V30 2758 C 263.55 -0.489387 1.66976 0
M  V30 2759 O 264.726 -0.372653 1.97922 0
M  V30 2760 C 261.791 -0.311967 3.45294 0
M  V30 2761 C 260.852 0.641098 4.24486 0
M  V30 2762 C 260.085 -0.0645955 5.33661 0
M  V30 2763 O 260.308 -1.28429 5.55754 0
M  V30 2764 O 259.242 0.606265 5.98839 0
M  V30 2765 H 263.068 1.28504 2.75173 0
M  V30 2766 H 260.653 0.691086 1.32455 0
M  V30 2767 H 262.535 -0.729972 4.15029 0
M  V30 2768 H 261.21 -1.14365 3.02824 0
M  V30 2769 H 260.117 1.10874 3.57292 0
M  V30 2770 H 261.45 1.43995 4.70666 0
M  V30 2771 N 263.102 -1.41638 0.69111 0
M  V30 2772 C 264.351 -2.00526 0.217318 0
M  V30 2773 C 264.664 -1.55353 -1.18848 0
M  V30 2774 O 265.87 -2.06769 -1.75951 0
M  V30 2775 C 264.326 -3.58313 0.337639 0
M  V30 2776 C 263.934 -4.12469 1.74852 0
M  V30 2777 C 265.678 -4.24431 -0.0766066 0
M  V30 2778 C 263.585 -5.62675 1.82074 0
M  V30 2779 H 262.515 -0.750008 0.0774893 0
M  V30 2780 H 265.166 -1.6217 0.858661 0
M  V30 2781 H 263.548 -3.9425 -0.371879 0
M  V30 2782 H 264.722 -3.8796 2.48644 0
M  V30 2783 H 263.037 -3.58861 2.11205 0
M  V30 2784 H 265.634 -5.34683 -0.0430284 0
M  V30 2785 H 265.977 -4.01101 -1.1146 0
M  V30 2786 H 266.51 -3.93512 0.582476 0
M  V30 2787 H 263.249 -5.90826 2.83911 0
M  V30 2788 H 262.769 -5.89124 1.12661 0
M  V30 2789 H 264.448 -6.27371 1.58159 0
M  V30 2790 N 264.58 -0.43555 -1.51462 0
M  V30 2791 C 265.543 0.365137 -2.26273 0
M  V30 2792 C 266.543 0.951227 -1.29647 0
M  V30 2793 O 267.733 0.825958 -1.53374 0
M  V30 2794 C 264.865 1.51645 -3.05314 0
M  V30 2795 H 266.058 -0.290474 -2.9849 0
M  V30 2796 H 263.611 -0.188676 -1.55157 0
M  V30 2797 H 264.346 2.20816 -2.3751 0
M  V30 2798 H 264.131 1.10238 -3.76284 0
M  V30 2799 H 265.621 2.08218 -3.61987 0
M  V30 2800 N 266.058 1.56714 -0.166846 0
M  V30 2801 C 267.286 2.0112 0.485644 0
M  V30 2802 C 267.701 1.04705 1.57106 0
M  V30 2803 O 267.058 0.0471923 1.82439 0
M  V30 2804 C 267.109 3.45361 1.06808 0
M  V30 2805 O 266.83 4.38092 0.0259995 0
M  V30 2806 C 268.331 4.05145 1.79924 0
M  V30 2807 H 265.551 0.65931 0.124704 0
M  V30 2808 H 268.095 2.02746 -0.267262 0
M  V30 2809 H 266.25 3.44524 1.7715 0
M  V30 2810 H 266.664 5.22519 0.455398 0
M  V30 2811 H 268.138 5.08009 2.15942 0
M  V30 2812 H 268.615 3.46982 2.69258 0
M  V30 2813 H 269.221 4.09672 1.14234 0
M  V30 2814 N 267.536 -0.106894 1.57237 0
M  V30 2815 C 268.466 -1.13148 2.04254 0
M  V30 2816 C 269.447 -1.42476 0.929224 0
M  V30 2817 O 270.632 -1.52709 1.19973 0
M  V30 2818 C 267.762 -2.4545 2.45706 0
M  V30 2819 C 266.716 -2.30558 3.60592 0
M  V30 2820 C 266.042 -3.67931 3.87983 0
M  V30 2821 C 267.342 -1.75597 4.91897 0
M  V30 2822 H 269.036 -0.740374 2.90101 0
M  V30 2823 H 266.582 -0.354696 1.39563 0
M  V30 2824 H 268.535 -3.17389 2.77205 0
M  V30 2825 H 267.259 -2.86475 1.56843 0
M  V30 2826 H 265.918 -1.61067 3.29322 0
M  V30 2827 H 265.566 -4.06462 2.96306 0
M  V30 2828 H 265.266 -3.58817 4.65322 0
M  V30 2829 H 266.79 -4.41356 4.21945 0
M  V30 2830 H 268.204 -2.37364 5.21854 0
M  V30 2831 H 266.601 -1.77272 5.73319 0
M  V30 2832 H 267.671 -0.714451 4.79608 0
M  V30 2833 N 269.014 -1.53014 -0.377408 0
M  V30 2834 C 270.239 -1.72818 -1.14668 0
M  V30 2835 C 270.664 -0.450725 -1.8262 0
M  V30 2836 O 270.022 0.59439 -1.7128 0
M  V30 2837 C 270.07 -2.88627 -2.16164 0
M  V30 2838 O 269.174 -2.56409 -3.22998 0
M  V30 2839 H 268.515 -0.574301 -0.333278 0
M  V30 2840 H 271.045 -1.99853 -0.438152 0
M  V30 2841 H 271.055 -3.14455 -2.59966 0
M  V30 2842 H 269.73 -3.81294 -1.66095 0
M  V30 2843 H 268.307 -2.4136 -2.84253 0
M  V30 2844 N 270.492 0.636531 -1.44174 0
M  V30 2845 C 271.74 1.39343 -1.46383 0
M  V30 2846 C 272.061 1.94766 -0.0955715 0
M  V30 2847 O 271.331 1.75452 0.871395 0
M  V30 2848 H 269.911 0.517199 -0.538994 0
M  V30 2849 H 272.573 0.74957 -1.7991 0
M  V30 2850 H 271.669 2.22746 -2.18611 0
M  V30 2851 N 271.97 1.30982 0.876444 0
M  V30 2852 C 273.386 1.09498 1.16113 0
M  V30 2853 C 273.586 -0.13875 2.01022 0
M  V30 2854 O 272.642 -0.829935 2.38471 0
M  V30 2855 C 273.955 2.36308 1.85954 0
M  V30 2856 C 275.503 2.41856 1.98683 0
M  V30 2857 C 275.978 3.6853 2.71937 0
M  V30 2858 N 277.469 3.69387 2.79477 0
M  V30 2859 C 278.204 4.64096 3.36753 0
M  V30 2860 N 277.7 5.69155 3.95012 0
M  V30 2861 N 279.493 4.51626 3.3465 0
M  V30 2862 H 271.644 2.10118 0.310494 0
M  V30 2863 H 273.907 0.926634 0.200131 0
M  V30 2864 H 273.613 3.26388 1.31011 0
M  V30 2865 H 273.487 2.4561 2.86278 0
M  V30 2866 H 275.874 1.52249 2.52793 0
M  V30 2867 H 275.955 2.36523 0.9742 0
M  V30 2868 H 275.599 4.58499 2.18496 0
M  V30 2869 H 275.529 3.71127 3.73593 0
M  V30 2870 H 278.02 2.93438 2.38123 0
M  V30 2871 H 278.333 6.3751 4.36808 0
M  V30 2872 H 276.678 5.72937 3.93406 0
M  V30 2873 H 279.869 3.68728 2.8837 0
M  V30 2874 H 280.042 5.25614 3.7899 0
M  V30 2875 N 273.449 -1.08991 1.13837 0
M  V30 2876 C 274.679 -1.84743 0.924859 0
M  V30 2877 C 275.087 -1.81629 -0.529874 0
M  V30 2878 O 274.43 -1.21397 -1.37872 0
M  V30 2879 C 274.492 -3.33568 1.34061 0
M  V30 2880 C 274.156 -3.60425 2.80968 0
M  V30 2881 C 275.153 -3.55771 3.79108 0
M  V30 2882 C 272.838 -3.88627 3.18236 0
M  V30 2883 C 274.832 -3.78939 5.12527 0
M  V30 2884 C 272.519 -4.11449 4.51833 0
M  V30 2885 C 273.517 -4.06598 5.48787 0
M  V30 2886 O 273.205 -4.28826 6.79973 0
M  V30 2887 H 272.937 -0.590258 0.329502 0
M  V30 2888 H 275.491 -1.38598 1.51591 0
M  V30 2889 H 273.721 -3.80442 0.692853 0
M  V30 2890 H 275.41 -3.90743 1.09886 0
M  V30 2891 H 276.176 -3.34005 3.51661 0
M  V30 2892 H 272.055 -3.91526 2.43369 0
M  V30 2893 H 275.599 -3.75068 5.88192 0
M  V30 2894 H 271.496 -4.32698 4.79002 0
M  V30 2895 H 272.264 -4.46264 6.86142 0
M  V30 2896 N 274.927 -0.932562 -1.27047 0
M  V30 2897 C 276.157 -0.591173 -1.97961 0
M  V30 2898 C 276.565 0.836219 -1.69717 0
M  V30 2899 O 275.908 1.56801 -0.957036 0
M  V30 2900 C 275.97 -0.743082 -3.51736 0
M  V30 2901 C 275.634 -2.1435 -4.03613 0
M  V30 2902 C 276.631 -3.11815 -4.16014 0
M  V30 2903 C 274.316 -2.46175 -4.37839 0
M  V30 2904 C 276.31 -4.39211 -4.61923 0
M  V30 2905 C 273.997 -3.73806 -4.83438 0
M  V30 2906 C 274.995 -4.70137 -4.95439 0
M  V30 2907 O 274.683 -5.95496 -5.40037 0
M  V30 2908 H 274.415 -0.222375 -0.638377 0
M  V30 2909 H 276.969 -1.25317 -1.62742 0
M  V30 2910 H 275.199 -0.0239739 -3.86693 0
M  V30 2911 H 276.888 -0.40603 -4.03864 0
M  V30 2912 H 277.654 -2.88549 -3.89826 0
M  V30 2913 H 273.533 -1.71936 -4.27737 0
M  V30 2914 H 277.077 -5.14404 -4.71205 0
M  V30 2915 H 272.974 -3.96888 -5.09068 0
M  V30 2916 H 273.742 -5.98554 -5.58279 0
M  V30 2917 N 276.405 1.4127 -0.698611 0
M  V30 2918 C 277.63 2.06024 -0.238512 0
M  V30 2919 C 278.055 1.5224 1.10475 0
M  V30 2920 O 277.413 0.650623 1.69223 0
M  V30 2921 C 277.461 3.59988 -0.209952 0
M  V30 2922 O 276.565 4.04282 0.814235 0
M  V30 2923 H 275.906 0.653829 -0.115775 0
M  V30 2924 H 278.436 1.8098 -0.954326 0
M  V30 2925 H 278.446 4.07979 -0.0418436 0
M  V30 2926 H 277.121 3.98503 -1.1903 0
M  V30 2927 H 275.698 3.6779 0.615234 0
M  V30 2928 N 277.883 0.443576 1.51229 0
M  V30 2929 C 278.816 -0.410089 2.24485 0
M  V30 2930 C 279.794 -1.01949 1.26669 0
M  V30 2931 O 280.978 -1.06075 1.55821 0
M  V30 2932 C 278.105 -1.57211 3.00004 0
M  V30 2933 C 277.151 -1.08279 4.12526 0
M  V30 2934 S 277.984 -0.0197476 5.35496 0
M  V30 2935 C 279.14 -1.18629 6.14555 0
M  V30 2936 H 279.373 0.211832 2.96544 0
M  V30 2937 H 276.906 0.228156 1.52705 0
M  V30 2938 H 278.864 -2.23825 3.44111 0
M  V30 2939 H 277.525 -2.16547 2.27522 0
M  V30 2940 H 276.718 -1.95193 4.64667 0
M  V30 2941 H 276.32 -0.494797 3.70713 0
M  V30 2942 H 278.612 -2.10344 6.4402 0
M  V30 2943 H 279.555 -0.70472 7.04584 0
M  V30 2944 H 279.963 -1.42768 5.46148 0
M  V30 2945 N 279.361 -1.56624 0.175154 0
M  V30 2946 C 280.638 -1.88688 -0.515373 0
M  V30 2947 C 281.018 -1.08564 -1.81044 0
M  V30 2948 O 280.366 -0.180703 -2.27784 0
M  V30 2949 C 280.576 -3.40768 -0.753552 0
M  V30 2950 C 281.924 -4.10587 -1.08184 0
M  V30 2951 O 282.948 -3.46106 -0.841961 0
M  V30 2952 O 281.807 -5.24512 -1.53459 0
M  V30 2953 H 278.901 -0.78301 -0.26613 0
M  V30 2954 H 281.447 -1.68347 0.213877 0
M  V30 2955 H 280.219 -3.90965 0.161829 0
M  V30 2956 H 279.842 -3.66733 -1.53598 0
M  V30 2957 N 280.839 0.0985539 -1.57292 0
M  V30 2958 C 282.255 0.45267 -1.53046 0
M  V30 2959 C 282.455 1.80713 -0.891342 0
M  V30 2960 O 281.511 2.4785 -0.482375 0
M  V30 2961 C 282.824 0.418341 -2.97776 0
M  V30 2962 C 284.372 0.500443 -3.08973 0
M  V30 2963 C 284.847 0.496297 -4.55303 0
M  V30 2964 N 286.338 0.557151 -4.59837 0
M  V30 2965 C 287.073 0.575726 -5.70502 0
M  V30 2966 N 286.569 0.550714 -6.90608 0
M  V30 2967 N 288.362 0.620277 -5.58667 0
M  V30 2968 H 280.513 -0.788673 -1.97215 0
M  V30 2969 H 282.776 -0.293188 -0.901524 0
M  V30 2970 H 282.482 -0.509659 -3.47988 0
M  V30 2971 H 282.356 1.2386 -3.56284 0
M  V30 2972 H 284.743 1.41886 -2.58751 0
M  V30 2973 H 284.824 -0.347894 -2.53423 0
M  V30 2974 H 284.468 -0.418162 -5.06176 0
M  V30 2975 H 284.398 1.3618 -5.08687 0
M  V30 2976 H 286.889 0.581816 -3.73394 0
M  V30 2977 H 287.202 0.568075 -7.70709 0
M  V30 2978 H 285.547 0.517816 -6.93068 0
M  V30 2979 H 288.738 0.637322 -4.63741 0
M  V30 2980 H 288.911 0.631283 -6.44918 0
M  V30 2981 N 282.317 1.53212 0.369288 0
M  V30 2982 C 283.594 1.59815 1.12776 0
M  V30 2983 C 283.974 0.403402 2.0721 0
M  V30 2984 O 283.322 -0.606667 2.20299 0
M  V30 2985 C 283.532 2.94664 1.87013 0
M  V30 2986 C 284.88 3.49109 2.41677 0
M  V30 2987 O 285.904 2.96669 1.97144 0
M  V30 2988 O 284.763 4.40775 3.23079 0
M  V30 2989 H 281.857 0.645376 0.517125 0
M  V30 2990 H 284.403 1.65553 0.37285 0
M  V30 2991 H 283.175 3.73061 1.18071 0
M  V30 2992 H 282.798 2.92401 2.69421 0
M  V30 2993 N 283.795 -0.628877 1.44509 0
M  V30 2994 C 284.742 -1.74074 1.51549 0
M  V30 2995 C 285.712 -1.62084 0.363021 0
M  V30 2996 O 286.897 -1.81975 0.573567 0
M  V30 2997 C 284.037 -3.12328 1.46784 0
M  V30 2998 C 283.15 -3.35277 2.72422 0
M  V30 2999 C 282.285 -4.63515 2.59475 0
M  V30 3000 C 281.324 -4.7965 3.80266 0
M  V30 3001 N 280.461 -5.99168 3.65981 0
M  V30 3002 H 285.301 -1.67392 2.46544 0
M  V30 3003 H 282.838 -0.816527 1.22357 0
M  V30 3004 H 284.796 -3.92286 1.42012 0
M  V30 3005 H 283.426 -3.18018 0.553544 0
M  V30 3006 H 282.478 -2.49242 2.87372 0
M  V30 3007 H 283.79 -3.43078 3.62076 0
M  V30 3008 H 282.944 -5.51638 2.52548 0
M  V30 3009 H 281.683 -4.58076 1.67384 0
M  V30 3010 H 280.688 -3.89957 3.87574 0
M  V30 3011 H 281.913 -4.86902 4.73395 0
M  V30 3012 H 279.859 -5.94814 2.76644 0
M  V30 3013 H 279.776 -6.08035 4.49254 0
M  V30 3014 H 281.044 -6.89846 3.6295 0
M  V30 3015 N 285.273 -1.31445 -0.869486 0
M  V30 3016 C 286.689 -1.10113 -1.15531 0
M  V30 3017 C 286.889 0.128087 -2.01092 0
M  V30 3018 O 285.945 0.817276 -2.38908 0
M  V30 3019 C 287.258 -2.37291 -1.84698 0
M  V30 3020 C 288.806 -2.42906 -1.97397 0
M  V30 3021 C 289.281 -3.69967 -2.69979 0
M  V30 3022 N 290.772 -3.70864 -2.77514 0
M  V30 3023 C 291.507 -4.65875 -3.34287 0
M  V30 3024 N 291.003 -5.71242 -3.91988 0
M  V30 3025 N 292.796 -4.53394 -3.3225 0
M  V30 3026 H 284.947 -2.1028 -0.299347 0
M  V30 3027 H 287.21 -0.927683 -0.195214 0
M  V30 3028 H 286.916 -3.27078 -1.29278 0
M  V30 3029 H 286.79 -2.47125 -2.84972 0
M  V30 3030 H 289.177 -1.53588 -2.51982 0
M  V30 3031 H 289.258 -2.37036 -0.961643 0
M  V30 3032 H 288.902 -4.59652 -2.16062 0
M  V30 3033 H 288.832 -3.73103 -3.7162 0
M  V30 3034 H 291.323 -2.94697 -2.36563 0
M  V30 3035 H 291.636 -6.39817 -4.33421 0
M  V30 3036 H 289.981 -5.75015 -3.90362 0
M  V30 3037 H 293.172 -3.70252 -2.8641 0
M  V30 3038 H 293.345 -5.27617 -3.76197 0
M  V30 3039 N 286.751 1.08385 -1.14413 0
M  V30 3040 C 287.997 1.81212 -0.923793 0
M  V30 3041 C 288.352 1.84555 0.543814 0
M  V30 3042 O 287.645 1.31056 1.39767 0
M  V30 3043 C 287.839 3.26273 -1.45879 0
M  V30 3044 C 287.668 3.37063 -2.97689 0
M  V30 3045 C 286.438 3.4824 -3.66138 0
M  V30 3046 C 288.636 3.28698 -3.95553 0
M  V30 3047 N 286.618 3.47824 -5.05858 0
M  V30 3048 C 287.989 3.35276 -5.21527 0
M  V30 3049 C 290.044 3.12437 -3.8767 0
M  V30 3050 C 288.747 3.27267 -6.40538 0
M  V30 3051 C 290.773 3.05757 -5.06228 0
M  V30 3052 C 290.135 3.12938 -6.3107 0
M  V30 3053 H 286.234 0.6769 -0.391574 0
M  V30 3054 H 288.818 1.29455 -1.45429 0
M  V30 3055 H 286.989 3.76474 -0.95507 0
M  V30 3056 H 288.721 3.87165 -1.17835 0
M  V30 3057 H 285.476 3.52141 -3.16692 0
M  V30 3058 H 285.9 3.51171 -5.78798 0
M  V30 3059 H 290.542 3.05747 -2.92025 0
M  V30 3060 H 288.26 3.32718 -7.36427 0
M  V30 3061 H 291.846 2.94295 -5.01878 0
M  V30 3062 H 290.726 3.078 -7.21269 0
M  V30 3063 N 288.23 0.939286 1.26551 0
M  V30 3064 C 289.507 0.5038 1.89001 0
M  V30 3065 C 289.887 -1.01854 1.84903 0
M  V30 3066 O 289.235 -1.87773 1.30206 0
M  V30 3067 C 289.445 1.063 3.32417 0
M  V30 3068 C 290.793 1.13051 4.09273 0
M  V30 3069 O 291.817 1.01345 3.41479 0
M  V30 3070 O 290.676 1.31233 5.30509 0
M  V30 3071 H 287.77 0.163897 0.810597 0
M  V30 3072 H 290.316 1.03173 1.34735 0
M  V30 3073 H 289.088 2.10665 3.29752 0
M  V30 3074 H 288.711 0.517408 3.94219 0
M  V30 3075 N 289.708 -1.40897 0.706093 0
M  V30 3076 C 291.124 -1.55042 0.37869 0
M  V30 3077 C 291.324 -1.67944 -1.11342 0
M  V30 3078 O 290.38 -1.66372 -1.89938 0
M  V30 3079 C 291.693 -2.78398 1.13643 0
M  V30 3080 C 293.241 -2.92206 1.12181 0
M  V30 3081 C 293.716 -4.18463 1.86152 0
M  V30 3082 N 295.207 -4.25443 1.83173 0
M  V30 3083 C 295.942 -5.2202 2.37239 0
M  V30 3084 N 295.438 -6.24563 2.99821 0
M  V30 3085 N 297.231 -5.14033 2.27435 0
M  V30 3086 H 289.382 -1.30769 1.67372 0
M  V30 3087 H 291.645 -0.631653 0.706907 0
M  V30 3088 H 291.351 -2.7511 2.19106 0
M  V30 3089 H 291.225 -3.70228 0.721853 0
M  V30 3090 H 293.612 -2.95004 0.0754171 0
M  V30 3091 H 293.693 -2.01521 1.57554 0
M  V30 3092 H 293.337 -4.16427 2.90776 0
M  V30 3093 H 293.267 -5.08141 1.38206 0
M  V30 3094 H 295.758 -3.51976 1.37556 0
M  V30 3095 H 296.071 -6.94665 3.38616 0
M  V30 3096 H 294.416 -6.25035 3.03902 0
M  V30 3097 H 297.607 -4.3285 1.78208 0
M  V30 3098 H 297.78 -5.89129 2.69873 0
M  V30 3099 N 291.186 -0.45159 -1.50991 0
M  V30 3100 C 292.432 0.110237 -2.025 0
M  V30 3101 C 292.765 1.41109 -1.33424 0
M  V30 3102 O 292.04 1.89135 -0.453659 0
M  V30 3103 C 292.323 0.314271 -3.58726 0
M  V30 3104 C 292.176 -1.00623 -4.38401 0
M  V30 3105 C 293.495 1.07767 -4.26702 0
M  V30 3106 H 290.614 0.0385897 -0.735989 0
M  V30 3107 H 293.256 -0.593374 -1.80497 0
M  V30 3108 H 291.406 0.913601 -3.77605 0
M  V30 3109 H 293.078 -1.64064 -4.31139 0
M  V30 3110 H 291.321 -1.6075 -4.02917 0
M  V30 3111 H 291.992 -0.817341 -5.45915 0
M  V30 3112 H 294.468 0.56986 -4.12179 0
M  V30 3113 H 293.344 1.18921 -5.35863 0
M  V30 3114 H 293.605 2.10939 -3.88532 0
M  V30 3115 N 292.664 1.56529 -0.183458 0
M  V30 3116 C 293.574 2.22144 0.754272 0
M  V30 3117 C 294.59 1.21684 1.24374 0
M  V30 3118 O 295.766 1.54385 1.29333 0
M  V30 3119 C 292.831 2.85884 1.96141 0
M  V30 3120 C 291.892 4.01579 1.51765 0
M  V30 3121 C 291.125 4.6227 2.66725 0
M  V30 3122 O 291.348 4.21865 3.83909 0
M  V30 3123 O 290.282 5.51936 2.40104 0
M  V30 3124 H 294.108 3.02861 0.225527 0
M  V30 3125 H 291.693 1.49331 0.0453032 0
M  V30 3126 H 293.575 3.26253 2.66715 0
M  V30 3127 H 292.25 2.08154 2.47899 0
M  V30 3128 H 291.157 3.65856 0.781049 0
M  V30 3129 H 292.49 4.80938 1.04686 0
M  V30 3130 N 294.142 -0.090211 1.57342 0
M  V30 3131 C 295.089 -1.10909 2.02405 0
M  V30 3132 C 296.059 -1.39523 0.901252 0
M  V30 3133 O 297.244 -1.50903 1.1676 0
M  V30 3134 C 294.384 -2.42277 2.45755 0
M  V30 3135 C 293.497 -2.20352 3.71576 0
M  V30 3136 C 292.632 -3.45154 4.03785 0
M  V30 3137 C 291.671 -3.18512 5.22701 0
M  V30 3138 N 290.808 -4.35593 5.50639 0
M  V30 3139 H 295.648 -0.71782 2.89225 0
M  V30 3140 H 293.185 -0.342901 1.43048 0
M  V30 3141 H 295.143 -3.18951 2.68935 0
M  V30 3142 H 293.773 -2.79242 1.61938 0
M  V30 3143 H 292.825 -1.34458 3.55844 0
M  V30 3144 H 294.137 -1.96661 4.58395 0
M  V30 3145 H 293.291 -4.30233 4.27767 0
M  V30 3146 H 292.03 -3.71904 3.15498 0
M  V30 3147 H 291.035 -2.31827 4.98534 0
M  V30 3148 H 292.26 -2.93103 6.12591 0
M  V30 3149 H 290.206 -4.6241 4.6531 0
M  V30 3150 H 290.123 -4.1511 6.31838 0
M  V30 3151 H 291.391 -5.21723 5.7916 0
M  V30 3152 N 295.62 -1.53406 -0.361157 0
M  V30 3153 C 296.583 -1.79479 -1.42548 0
M  V30 3154 C 297.583 -0.665327 -1.4639 0
M  V30 3155 O 298.773 -0.933549 -1.47073 0
M  V30 3156 C 295.905 -1.92087 -2.8163 0
M  V30 3157 H 297.098 -2.74538 -1.20701 0
M  V30 3158 H 294.651 -1.4455 -0.594546 0
M  V30 3159 H 295.386 -0.991099 -3.08784 0
M  V30 3160 H 295.171 -2.74241 -2.80239 0
M  V30 3161 H 296.661 -2.13836 -3.58697 0
M  V30 3162 N 297.098 0.621204 -1.44841 0
M  V30 3163 C 298.328 1.40548 -1.51426 0
M  V30 3164 C 298.736 1.88673 -0.141083 0
M  V30 3165 O 298.079 1.62053 0.865128 0
M  V30 3166 C 298.141 2.65325 -2.42576 0
M  V30 3167 C 297.805 2.3893 -3.89566 0
M  V30 3168 C 298.802 2.00138 -4.79834 0
M  V30 3169 C 296.487 2.52263 -4.3436 0
M  V30 3170 C 298.481 1.75021 -6.129 0
M  V30 3171 C 296.168 2.2676 -5.67471 0
M  V30 3172 C 297.166 1.88199 -6.56559 0
M  V30 3173 O 296.854 1.62986 -7.87204 0
M  V30 3174 H 296.586 0.437122 -0.515655 0
M  V30 3175 H 299.14 0.765987 -1.90583 0
M  V30 3176 H 297.37 3.31947 -1.98364 0
M  V30 3177 H 299.059 3.27347 -2.39998 0
M  V30 3178 H 299.825 1.89386 -4.46495 0
M  V30 3179 H 295.704 2.81246 -3.65269 0
M  V30 3180 H 299.248 1.44848 -6.82396 0
M  V30 3181 H 295.145 2.37125 -6.00368 0
M  V30 3182 H 295.913 1.7715 -7.991 0
M  V30 3183 N 298.576 1.31904 0.862503 0
M  V30 3184 C 299.992 1.10724 1.14945 0
M  V30 3185 C 300.192 -0.117421 2.01158 0
M  V30 3186 O 299.248 -0.804595 2.39338 0
M  V30 3187 C 300.561 2.38267 1.83437 0
M  V30 3188 C 302.109 2.43949 1.96106 0
M  V30 3189 C 302.584 3.71394 2.68013 0
M  V30 3190 N 304.075 3.72331 2.75543 0
M  V30 3191 C 304.81 4.67641 3.31812 0
M  V30 3192 N 304.306 5.73313 3.88953 0
M  V30 3193 N 306.099 4.5515 3.29841 0
M  V30 3194 H 298.25 2.10436 0.288191 0
M  V30 3195 H 300.513 0.928705 0.190292 0
M  V30 3196 H 300.219 3.27759 1.27542 0
M  V30 3197 H 300.093 2.48633 2.83657 0
M  V30 3198 H 302.48 1.54922 2.51164 0
M  V30 3199 H 302.561 2.37543 0.949059 0
M  V30 3200 H 302.205 4.60791 2.13621 0
M  V30 3201 H 302.135 3.75069 3.69636 0
M  V30 3202 H 304.626 2.95947 2.34997 0
M  V30 3203 H 304.939 6.42107 4.30022 0
M  V30 3204 H 303.284 5.77077 3.87308 0
M  V30 3205 H 306.475 3.71766 2.84443 0
M  V30 3206 H 306.648 5.29604 3.73394 0
M  V30 3207 N 300.054 -1.07777 1.14986 0
M  V30 3208 C 301.017 -2.13041 0.845358 0
M  V30 3209 C 302.017 -1.60071 -0.152931 0
M  V30 3210 O 303.207 -1.74033 0.0761879 0
M  V30 3211 C 300.339 -3.39896 0.261383 0
M  V30 3212 H 301.532 -2.41485 1.77834 0
M  V30 3213 H 299.085 -1.23595 0.956757 0
M  V30 3214 H 299.82 -3.17091 -0.68 0
M  V30 3215 H 299.605 -3.79642 0.980514 0
M  V30 3216 H 301.095 -4.17548 0.0657687 0
M  V30 3217 N 301.532 -0.945985 -1.26051 0
M  V30 3218 C 302.465 -0.403619 -2.24602 0
M  V30 3219 C 303.443 0.510241 -1.54387 0
M  V30 3220 O 304.627 0.446593 -1.83133 0
M  V30 3221 C 301.754 0.419564 -3.36091 0
M  V30 3222 C 300.8 -0.433454 -4.24292 0
M  V30 3223 S 301.633 -1.86037 -5.02146 0
M  V30 3224 C 302.789 -1.04538 -6.17108 0
M  V30 3225 H 303.022 -1.23883 -2.7026 0
M  V30 3226 H 300.555 -0.749438 -1.34992 0
M  V30 3227 H 302.513 0.888595 -4.00767 0
M  V30 3228 H 301.174 1.22951 -2.89036 0
M  V30 3229 H 300.367 0.197486 -5.03613 0
M  V30 3230 H 299.969 -0.837357 -3.64506 0
M  V30 3231 H 302.261 -0.289923 -6.76879 0
M  V30 3232 H 303.204 -1.81222 -6.84518 0
M  V30 3233 H 303.612 -0.579319 -5.61519 0
M  V30 3234 N 303.011 1.40521 -0.713556 0
M  V30 3235 C 304.257 2.01221 -0.252564 0
M  V30 3236 C 304.59 1.56444 1.1506 0
M  V30 3237 O 303.865 0.783597 1.78017 0
M  V30 3238 C 304.148 3.58582 -0.330332 0
M  V30 3239 C 304.001 4.13437 -1.77173 0
M  V30 3240 C 305.32 4.39079 0.299641 0
M  V30 3241 H 302.439 0.731077 -0.0932471 0
M  V30 3242 H 305.081 1.67026 -0.905673 0
M  V30 3243 H 303.231 3.87844 0.225737 0
M  V30 3244 H 304.903 3.9498 -2.38303 0
M  V30 3245 H 303.146 3.67801 -2.3001 0
M  V30 3246 H 303.817 5.22597 -1.77755 0
M  V30 3247 H 306.293 4.15735 -0.174139 0
M  V30 3248 H 305.169 5.4848 0.214771 0
M  V30 3249 H 305.43 4.19915 1.38288 0
M  V30 3250 N 304.489 0.459591 1.5075 0
M  V30 3251 C 305.719 -0.0972338 2.06371 0
M  V30 3252 C 306.127 -1.35074 1.32483 0
M  V30 3253 O 305.47 -1.79637 0.384226 0
M  V30 3254 C 305.532 -0.462759 3.56509 0
M  V30 3255 C 305.196 0.687084 4.51805 0
M  V30 3256 C 306.193 1.56578 4.95761 0
M  V30 3257 C 303.878 0.874144 4.94635 0
M  V30 3258 C 305.872 2.61604 5.81242 0
M  V30 3259 C 303.559 1.92765 5.79901 0
M  V30 3260 C 304.557 2.79697 6.23104 0
M  V30 3261 O 304.245 3.83235 7.06673 0
M  V30 3262 H 303.977 -0.00140687 0.675999 0
M  V30 3263 H 306.531 0.644011 1.95043 0
M  V30 3264 H 304.761 -1.25703 3.65699 0
M  V30 3265 H 306.45 -0.953323 3.94546 0
M  V30 3266 H 307.216 1.4329 4.6335 0
M  V30 3267 H 303.095 0.207006 4.60535 0
M  V30 3268 H 306.639 3.29489 6.14884 0
M  V30 3269 H 302.536 2.06064 6.11725 0
M  V30 3270 H 303.304 3.80084 7.24899 0
M  V30 3271 N 305.967 -1.56429 0.191757 0
M  V30 3272 C 307.215 -1.97095 -0.447006 0
M  V30 3273 C 307.536 -1.07967 -1.62383 0
M  V30 3274 O 306.806 -0.150248 -1.95323 0
M  V30 3275 H 305.386 -0.727832 -0.168135 0
M  V30 3276 H 308.048 -1.92911 0.27771 0
M  V30 3277 H 307.144 -3.01848 -0.793371 0
M  V30 3278 N 307.445 0.0818655 -1.57387 0
M  V30 3279 C 308.355 1.11642 -2.06333 0
M  V30 3280 C 309.371 1.43033 -0.99083 0
M  V30 3281 O 310.547 1.53411 -1.30488 0
M  V30 3282 C 307.612 2.41342 -2.48907 0
M  V30 3283 C 306.673 2.17014 -3.7041 0
M  V30 3284 C 305.906 3.4053 -4.10944 0
M  V30 3285 O 306.129 4.4927 -3.51444 0
M  V30 3286 O 305.063 3.29336 -5.03807 0
M  V30 3287 H 308.889 0.730657 -2.9478 0
M  V30 3288 H 306.474 0.295301 -1.46452 0
M  V30 3289 H 308.356 3.17691 -2.76858 0
M  V30 3290 H 307.031 2.79319 -1.63593 0
M  V30 3291 H 305.938 1.38403 -3.47556 0
M  V30 3292 H 307.271 1.83923 -4.56545 0
M  V30 3293 N 308.923 1.53595 0.353017 0
M  V30 3294 C 310.171 1.70049 1.09215 0
M  V30 3295 C 310.492 0.461406 1.89463 0
M  V30 3296 O 309.762 -0.524633 1.88744 0
M  V30 3297 H 308.342 0.626912 0.40619 0
M  V30 3298 H 311.004 1.90822 0.396585 0
M  V30 3299 H 310.1 2.56718 1.77488 0
M  V30 3300 N 310.401 -0.613514 1.45168 0
M  V30 3301 C 311.812 -1.19539 1.43413 0
M  V30 3302 C 312.163 -1.95558 0.158632 0
M  V30 3303 O 311.288 -2.0335 -0.740119 0
M  V30 3304 C 311.883 -2.17445 2.59813 0
M  V30 3305 C 310.442 -2.71022 2.61197 0
M  V30 3306 C 309.589 -1.46323 2.35552 0
M  V30 3307 H 312.54 -0.403163 1.53494 0
M  V30 3308 H 312.561 -3.00373 2.33574 0
M  V30 3309 H 312.073 -1.62089 3.52631 0
M  V30 3310 H 310.174 -3.30332 1.7237 0
M  V30 3311 H 310.287 -3.15859 3.60236 0
M  V30 3312 H 308.651 -1.75072 1.84992 0
M  V30 3313 H 309.434 -0.92844 3.30507 0
M  V30 3314 N 311.879 -1.3236 -0.855495 0
M  V30 3315 C 313.107 -1.2587 -1.64208 0
M  V30 3316 C 313.522 0.173457 -1.88002 0
M  V30 3317 O 312.879 1.11027 -1.44842 0
M  V30 3318 C 312.93 -2.01424 -3.00184 0
M  V30 3319 O 312.651 -3.39051 -2.77445 0
M  V30 3320 C 314.152 -2.01948 -3.94629 0
M  V30 3321 H 311.372 -0.434318 -0.511477 0
M  V30 3322 H 313.916 -1.74469 -1.0668 0
M  V30 3323 H 312.071 -1.56549 -3.5436 0
M  V30 3324 H 312.485 -3.77711 -3.63916 0
M  V30 3325 H 313.959 -2.59297 -4.87308 0
M  V30 3326 H 314.436 -1.00554 -4.27534 0
M  V30 3327 H 315.042 -2.46767 -3.4639 0
M  V30 3328 N 313.357 1.07166 -1.15556 0
M  V30 3329 C 314.587 1.83248 -0.954133 0
M  V30 3330 C 314.995 1.82449 0.500911 0
M  V30 3331 O 314.338 1.23575 1.35923 0
M  V30 3332 C 314.4 3.31393 -1.39351 0
M  V30 3333 C 314.064 3.5591 -2.86666 0
M  V30 3334 C 315.061 3.49695 -3.8472 0
M  V30 3335 C 312.746 3.83515 -3.24379 0
M  V30 3336 C 314.74 3.70737 -5.18491 0
M  V30 3337 C 312.427 4.04209 -4.58321 0
M  V30 3338 C 313.425 3.97815 -5.55186 0
M  V30 3339 O 313.113 4.17954 -6.86709 0
M  V30 3340 H 312.845 0.584941 -0.338851 0
M  V30 3341 H 315.399 1.36169 -1.53777 0
M  V30 3342 H 313.629 3.79292 -0.75329 0
M  V30 3343 H 315.318 3.88945 -1.16089 0
M  V30 3344 H 316.084 3.28368 -3.56931 0
M  V30 3345 H 311.963 3.87605 -2.49567 0
M  V30 3346 H 315.507 3.65663 -5.94085 0
M  V30 3347 H 311.404 4.25023 -4.85825 0
M  V30 3348 H 312.172 4.35291 -6.93155 0
M  V30 3349 N 314.835 0.952656 1.25548 0
M  V30 3350 C 316.251 0.656769 1.4546 0
M  V30 3351 C 316.451 -0.78633 1.85524 0
M  V30 3352 O 315.507 -1.56183 1.98402 0
M  V30 3353 C 316.82 1.62801 2.52817 0
M  V30 3354 C 318.368 1.63897 2.66659 0
M  V30 3355 C 318.843 2.5978 3.77198 0
M  V30 3356 N 320.334 2.58133 3.84606 0
M  V30 3357 C 321.069 3.29003 4.69621 0
M  V30 3358 N 320.565 4.09339 5.58939 0
M  V30 3359 N 322.358 3.179 4.63569 0
M  V30 3360 H 314.509 1.88526 0.978344 0
M  V30 3361 H 316.772 0.810815 0.491206 0
M  V30 3362 H 316.478 2.65869 2.30232 0
M  V30 3363 H 316.352 1.38898 3.50695 0
M  V30 3364 H 318.739 0.615481 2.8861 0
M  V30 3365 H 318.82 1.91858 1.69187 0
M  V30 3366 H 318.464 3.62254 3.55997 0
M  V30 3367 H 318.394 2.29105 4.7415 0
M  V30 3368 H 320.885 1.99809 3.20757 0
M  V30 3369 H 321.198 4.6034 6.20731 0
M  V30 3370 H 319.543 4.13438 5.58654 0
M  V30 3371 H 322.734 2.54612 3.92798 0
M  V30 3372 H 322.907 3.73398 5.29602 0
M  V30 3373 N 316.313 -1.40141 0.720998 0
M  V30 3374 C 317.59 -1.94677 0.189757 0
M  V30 3375 C 317.97 -1.65879 -1.30566 0
M  V30 3376 O 317.318 -0.979391 -2.06447 0
M  V30 3377 C 317.528 -3.45279 0.508304 0
M  V30 3378 C 318.876 -4.22209 0.449934 0
M  V30 3379 O 319.9 -3.53413 0.444677 0
M  V30 3380 O 318.759 -5.44788 0.432189 0
M  V30 3381 H 315.853 -0.826459 0.0299026 0
M  V30 3382 H 318.399 -1.49719 0.7989 0
M  V30 3383 H 317.171 -3.59619 1.54239 0
M  V30 3384 H 316.794 -3.97386 -0.130525 0
M  V30 3385 N 317.792 -0.46758 -1.50504 0
M  V30 3386 C 319.203 -0.0116166 -1.86696 0
M  V30 3387 C 319.554 1.39202 -1.38265 0
M  V30 3388 O 318.679 2.0313 -0.746132 0
M  V30 3389 C 319.274 -0.0143044 -3.38797 0
M  V30 3390 C 317.833 0.386175 -3.74414 0
M  V30 3391 C 316.98 -0.401287 -2.74381 0
M  V30 3392 H 319.931 -0.682022 -1.43297 0
M  V30 3393 H 319.952 0.788641 -3.72237 0
M  V30 3394 H 319.464 -1.03602 -3.74016 0
M  V30 3395 H 317.565 1.41237 -3.44794 0
M  V30 3396 H 317.678 0.0899596 -4.79016 0
M  V30 3397 H 316.042 0.144536 -2.5429 0
M  V30 3398 H 316.825 -1.42244 -3.12444 0
M  V30 3399 N 319.27 1.56325 -0.20005 0
M  V30 3400 C 320.2 2.22318 0.713916 0
M  V30 3401 C 321.181 1.18788 1.21752 0
M  V30 3402 O 322.366 1.47309 1.26545 0
M  V30 3403 C 319.496 2.88639 1.93144 0
M  V30 3404 C 318.45 3.98457 1.56255 0
M  V30 3405 C 317.776 4.51967 2.85709 0
M  V30 3406 C 319.076 5.16612 0.768747 0
M  V30 3407 H 320.77 2.98952 0.163755 0
M  V30 3408 H 318.316 1.43792 0.0773219 0
M  V30 3409 H 320.269 3.33491 2.57608 0
M  V30 3410 H 318.993 2.09419 2.50621 0
M  V30 3411 H 317.652 3.54305 0.941471 0
M  V30 3412 H 317.3 3.69503 3.41287 0
M  V30 3413 H 317 5.26071 2.6177 0
M  V30 3414 H 318.524 4.99523 3.51154 0
M  V30 3415 H 319.938 5.57977 1.3166 0
M  V30 3416 H 318.335 5.96812 0.627286 0
M  V30 3417 H 319.405 4.84358 -0.229168 0
M  V30 3418 N 320.748 -0.0735177 1.57428 0
M  V30 3419 C 321.658 -1.10547 2.06922 0
M  V30 3420 C 322.674 -1.42506 0.998402 0
M  V30 3421 O 323.85 -1.52717 1.31299 0
M  V30 3422 C 320.915 -2.40019 2.50184 0
M  V30 3423 C 319.976 -2.15046 3.71556 0
M  V30 3424 C 319.209 -3.38345 4.12745 0
M  V30 3425 O 319.432 -4.47399 3.53822 0
M  V30 3426 O 318.366 -3.2666 5.05546 0
M  V30 3427 H 322.192 -0.715013 2.95163 0
M  V30 3428 H 319.777 -0.287531 1.46607 0
M  V30 3429 H 321.659 -3.16218 2.78539 0
M  V30 3430 H 320.334 -2.78447 1.65072 0
M  V30 3431 H 319.241 -1.36558 3.48285 0
M  V30 3432 H 320.574 -1.81499 4.57514 0
M  V30 3433 N 322.226 -1.5378 -0.344866 0
M  V30 3434 C 323.466 -1.72677 -1.09371 0
M  V30 3435 C 323.83 -0.479084 -1.85927 0
M  V30 3436 O 325.031 -0.54505 -2.63216 0
M  V30 3437 C 323.302 -2.95457 -2.01097 0
M  V30 3438 S 324.861 -3.35158 -2.83222 0
M  V30 3439 H 321.679 -0.607402 -0.369573 0
M  V30 3440 H 324.281 -1.91922 -0.372307 0
M  V30 3441 H 322.985 -3.84437 -1.43655 0
M  V30 3442 H 322.516 -2.78673 -2.77678 0
M  V30 3443 H 324.531 -2.88789 -4.03504 0
M  V30 3444 N 323.704 0.605807 -1.45491 0
M  V30 3445 C 324.953 1.36086 -1.48874 0
M  V30 3446 C 325.266 1.95131 -0.135333 0
M  V30 3447 O 326.472 2.7146 -0.0468144 0
M  V30 3448 C 324.928 2.46518 -2.62215 0
M  V30 3449 C 324.536 1.93877 -4.03876 0
M  V30 3450 C 326.28 3.23512 -2.74846 0
M  V30 3451 C 324.187 3.01801 -5.08596 0
M  V30 3452 H 323.117 0.511497 -0.553974 0
M  V30 3453 H 325.768 0.649089 -1.71636 0
M  V30 3454 H 324.15 3.20388 -2.32739 0
M  V30 3455 H 325.324 1.26704 -4.43038 0
M  V30 3456 H 323.639 1.29622 -3.95711 0
M  V30 3457 H 326.236 4.04013 -3.50253 0
M  V30 3458 H 326.579 3.74631 -1.81542 0
M  V30 3459 H 327.112 2.56742 -3.03856 0
M  V30 3460 H 323.851 2.55597 -6.03614 0
M  V30 3461 H 323.371 3.67535 -4.74002 0
M  V30 3462 H 325.05 3.66152 -5.33424 0
M  V30 3463 N 325.182 1.32811 0.848464 0
M  V30 3464 C 326.092 1.24278 1.98978 0
M  V30 3465 C 327.108 0.155176 1.73307 0
M  V30 3466 O 328.284 0.376999 1.9784 0
M  V30 3467 C 325.349 0.972444 3.32783 0
M  V30 3468 C 324.41 2.14911 3.71634 0
M  V30 3469 C 323.643 1.89157 4.99054 0
M  V30 3470 O 323.866 0.837165 5.64223 0
M  V30 3471 O 322.8 2.75433 5.35183 0
M  V30 3472 H 326.626 2.20238 2.09115 0
M  V30 3473 H 324.211 1.12762 0.980052 0
M  V30 3474 H 326.093 0.838432 4.12975 0
M  V30 3475 H 324.768 0.043051 3.23671 0
M  V30 3476 H 323.675 2.33862 2.91992 0
M  V30 3477 H 325.008 3.06151 3.85399 0
M  V30 3478 N 326.66 -1.06551 1.16123 0
M  V30 3479 C 327.937 -1.76097 0.85142 0
M  V30 3480 C 328.317 -2.00802 -0.6513 0
M  V30 3481 O 327.665 -1.63302 -1.59827 0
M  V30 3482 C 327.875 -3.06384 1.67122 0
M  V30 3483 C 329.223 -3.80585 1.88255 0
M  V30 3484 O 330.247 -3.16218 1.63966 0
M  V30 3485 O 329.106 -4.96212 2.2899 0
M  V30 3486 H 326.2 -0.765102 0.313923 0
M  V30 3487 H 328.746 -1.12844 1.26745 0
M  V30 3488 H 327.518 -2.84071 2.69108 0
M  V30 3489 H 327.141 -3.77371 1.25206 0
M  V30 3490 N 328.138 -0.959301 -1.25041 0
M  V30 3491 C 329.363 -0.633507 -1.97488 0
M  V30 3492 C 329.788 0.788555 -1.70773 0
M  V30 3493 O 329.146 1.53394 -0.966431 0
M  V30 3494 C 329.194 -0.904057 -3.49083 0
M  V30 3495 O 328.298 0.0147939 -4.12397 0
M  V30 3496 H 327.639 -0.240368 -0.618966 0
M  V30 3497 H 330.169 -1.28717 -1.59038 0
M  V30 3498 H 330.179 -0.832203 -3.99423 0
M  V30 3499 H 328.854 -1.94048 -3.67856 0
M  V30 3500 H 327.431 -0.109664 -3.72739 0
M  V30 3501 N 329.616 1.39756 -0.72842 0
M  V30 3502 C 330.846 2.04651 -0.283117 0
M  V30 3503 C 331.254 1.5502 1.08469 0
M  V30 3504 O 330.597 0.707343 1.69536 0
M  V30 3505 C 330.659 3.58947 -0.199309 0
M  V30 3506 C 330.323 4.31525 -1.5045 0
M  V30 3507 C 331.32 4.5861 -2.44894 0
M  V30 3508 C 329.005 4.70195 -1.76698 0
M  V30 3509 C 330.999 5.23366 -3.63822 0
M  V30 3510 C 328.686 5.3468 -2.95906 0
M  V30 3511 C 329.684 5.61198 -3.89289 0
M  V30 3512 O 329.372 6.24347 -5.06404 0
M  V30 3513 H 329.104 0.664777 -0.122666 0
M  V30 3514 H 331.658 1.79913 -0.990987 0
M  V30 3515 H 329.888 3.82556 0.56461 0
M  V30 3516 H 331.577 4.0534 0.213125 0
M  V30 3517 H 332.343 4.29187 -2.25883 0
M  V30 3518 H 328.222 4.48916 -1.04859 0
M  V30 3519 H 331.766 5.4398 -4.36728 0
M  V30 3520 H 327.663 5.63524 -3.14819 0
M  V30 3521 H 328.431 6.42842 -5.06652 0
M  V30 3522 N 331.094 0.475555 1.50254 0
M  V30 3523 C 332.041 -0.316293 2.28622 0
M  V30 3524 C 333.011 -0.983227 1.33873 0
M  V30 3525 O 334.196 -0.994805 1.62814 0
M  V30 3526 C 331.336 -1.38975 3.1588 0
M  V30 3527 C 330.449 -0.737146 4.25664 0
M  V30 3528 C 329.584 -1.78887 5.00173 0
M  V30 3529 C 328.623 -1.11676 6.01826 0
M  V30 3530 N 327.76 -2.11154 6.69596 0
M  V30 3531 H 332.6 0.358297 2.95838 0
M  V30 3532 H 330.137 0.188541 1.45887 0
M  V30 3533 H 332.095 -2.02383 3.64825 0
M  V30 3534 H 330.725 -2.03344 2.50701 0
M  V30 3535 H 329.777 0.0096065 3.80399 0
M  V30 3536 H 331.089 -0.206816 4.98371 0
M  V30 3537 H 330.243 -2.49865 5.52859 0
M  V30 3538 H 328.982 -2.35302 4.27182 0
M  V30 3539 H 327.987 -0.392633 5.48396 0
M  V30 3540 H 329.212 -0.55945 6.76792 0
M  V30 3541 H 327.158 -2.66577 5.99394 0
M  V30 3542 H 327.075 -1.63118 7.38193 0
M  V30 3543 H 328.343 -2.81497 7.26897 0
M  V30 3544 N 332.573 -1.56217 0.208337 0
M  V30 3545 C 333.523 -2.16324 -0.720281 0
M  V30 3546 C 334.507 -1.10775 -1.16695 0
M  V30 3547 O 335.699 -1.36801 -1.12314 0
M  V30 3548 C 332.828 -2.83644 -1.93393 0
M  V30 3549 C 331.914 -3.96401 -1.50755 0
M  V30 3550 N 332.305 -4.99546 -0.792937 0
M  V30 3551 C 330.603 -4.08246 -1.79585 0
M  V30 3552 C 331.304 -5.78828 -0.577364 0
M  V30 3553 N 330.28 -5.31723 -1.1301 0
M  V30 3554 H 334.082 -2.93432 -0.165725 0
M  V30 3555 H 331.596 -1.62397 0.00906463 0
M  V30 3556 H 333.593 -3.25107 -2.60981 0
M  V30 3557 H 332.253 -2.08027 -2.49308 0
M  V30 3558 H 333.264 -5.15967 -0.447004 0
M  V30 3559 H 329.941 -3.4377 -2.36915 0
M  V30 3560 H 331.331 -6.71899 -0.00952956 0
M  V30 3561 N 334.051 0.0651679 -1.57465 0
M  V30 3562 C 335.299 0.761555 -1.87202 0
M  V30 3563 C 335.62 1.77778 -0.801243 0
M  V30 3564 O 334.89 1.95166 0.16937 0
M  V30 3565 H 333.47 0.284251 -0.690804 0
M  V30 3566 H 336.132 0.0396827 -1.9486 0
M  V30 3567 H 335.228 1.27365 -2.84929 0
M  V30 3568 N 335.529 1.53961 0.336706 0
M  V30 3569 C 336.778 1.70751 1.07363 0
M  V30 3570 C 337.091 0.481061 1.89592 0
M  V30 3571 O 338.297 0.530046 2.66276 0
M  V30 3572 C 336.753 3.01965 1.95818 0
M  V30 3573 C 336.361 4.31971 1.18764 0
M  V30 3574 C 338.105 3.28121 2.69327 0
M  V30 3575 C 336.012 5.54255 2.06289 0
M  V30 3576 H 334.942 0.636292 0.404535 0
M  V30 3577 H 337.593 1.80459 0.332681 0
M  V30 3578 H 335.975 2.86132 2.7376 0
M  V30 3579 H 337.149 4.5853 0.456849 0
M  V30 3580 H 335.464 4.12481 0.569946 0
M  V30 3581 H 338.061 4.16673 3.35094 0
M  V30 3582 H 338.404 2.45426 3.36261 0
M  V30 3583 H 338.937 3.44762 1.98454 0
M  V30 3584 H 335.676 6.39513 1.43885 0
M  V30 3585 H 335.196 5.31935 2.77138 0
M  V30 3586 H 336.875 5.90159 2.65182 0
M  V30 3587 N 337.007 -0.598083 1.45811 0
M  V30 3588 C 338.237 -1.38121 1.53643 0
M  V30 3589 C 338.645 -1.88425 0.171081 0
M  V30 3590 O 337.988 -1.63409 -0.839237 0
M  V30 3591 C 338.05 -2.61432 2.46766 0
M  V30 3592 C 337.714 -2.32702 3.93318 0
M  V30 3593 C 338.711 -1.92479 4.82957 0
M  V30 3594 C 336.396 -2.45321 4.38318 0
M  V30 3595 C 338.39 -1.65248 6.15607 0
M  V30 3596 C 336.077 -2.17703 5.71007 0
M  V30 3597 C 337.075 -1.7773 6.5947 0
M  V30 3598 O 336.763 -1.50441 7.89698 0
M  V30 3599 H 336.495 -0.428863 0.522544 0
M  V30 3600 H 339.049 -0.73557 1.91777 0
M  V30 3601 H 337.279 -3.28749 2.0362 0
M  V30 3602 H 338.968 -3.23487 2.45175 0
M  V30 3603 H 339.734 -1.82258 4.49452 0
M  V30 3604 H 335.613 -2.75399 3.69697 0
M  V30 3605 H 339.157 -1.33973 6.84614 0
M  V30 3606 H 335.054 -2.27544 6.04065 0
M  V30 3607 H 335.822 -1.64415 8.01817 0
M  V30 3608 N 338.485 -1.33259 -0.841409 0
M  V30 3609 C 339.762 -1.15174 -1.58096 0
M  V30 3610 C 340.142 0.282858 -2.09196 0
M  V30 3611 O 339.49 1.28151 -1.89181 0
M  V30 3612 C 339.7 -2.1907 -2.71679 0
M  V30 3613 C 341.048 -2.53093 -3.40924 0
M  V30 3614 O 342.072 -2.17717 -2.81918 0
M  V30 3615 O 340.931 -3.1379 -4.47435 0
M  V30 3616 H 338.025 -0.445303 -0.696875 0
M  V30 3617 H 340.571 -1.44833 -0.884385 0
M  V30 3618 H 339.343 -3.15443 -2.31541 0
M  V30 3619 H 338.966 -1.90481 -3.49002 0
M  V30 3620 N 339.963 1.05934 -1.16686 0
M  V30 3621 C 340.873 2.17014 -0.891183 0
M  V30 3622 C 341.889 1.73453 0.137907 0
M  V30 3623 O 343.065 2.01361 -0.039592 0
M  V30 3624 C 340.13 3.44384 -0.400099 0
M  V30 3625 C 339.191 4.02433 -1.49486 0
M  V30 3626 C 338.424 5.23723 -1.02711 0
M  V30 3627 O 338.647 5.7027 0.121716 0
M  V30 3628 O 337.581 5.7382 -1.81699 0
M  V30 3629 H 341.407 2.43113 -1.82015 0
M  V30 3630 H 338.992 1.15541 -0.947132 0
M  V30 3631 H 340.874 4.21189 -0.133392 0
M  V30 3632 H 339.549 3.19802 0.500817 0
M  V30 3633 H 338.456 3.27102 -1.81535 0
M  V30 3634 H 339.789 4.31317 -2.37121 0
M  V30 3635 N 341.441 0.965919 1.2453 0
M  V30 3636 C 342.688 0.626831 1.92554 0
M  V30 3637 C 343.016 -0.837739 1.75534 0
M  V30 3638 O 342.271 -1.61793 1.10098 0
M  V30 3639 C 342.57 0.945428 3.44669 0
M  V30 3640 C 342.236 2.39785 3.81856 0
M  V30 3641 C 340.898 2.79483 3.91718 0
M  V30 3642 C 343.25 3.34055 4.00071 0
M  V30 3643 C 340.578 4.12496 4.1721 0
M  V30 3644 C 342.93 4.66694 4.27059 0
M  V30 3645 C 341.594 5.06172 4.3514 0
M  V30 3646 H 340.864 0.229374 0.704605 0
M  V30 3647 H 343.511 1.21707 1.4785 0
M  V30 3648 H 341.816 0.272926 3.90848 0
M  V30 3649 H 343.513 0.661484 3.95507 0
M  V30 3650 H 340.103 2.08003 3.74743 0
M  V30 3651 H 344.287 3.04571 3.91855 0
M  V30 3652 H 339.543 4.42709 4.21685 0
M  V30 3653 H 343.717 5.3971 4.40097 0
M  V30 3654 H 341.344 6.09262 4.54646 0
M  V30 3655 N 342.919 -1.39368 0.735821 0
M  V30 3656 C 344.165 -2.00794 0.284544 0
M  V30 3657 C 344.498 -1.58255 -1.12557 0
M  V30 3658 O 343.773 -0.811819 -1.76748 0
M  V30 3659 C 344.056 -3.58011 0.387337 0
M  V30 3660 C 343.909 -4.10566 1.83728 0
M  V30 3661 C 345.228 -4.395 -0.22975 0
M  V30 3662 H 342.347 -0.729501 0.104866 0
M  V30 3663 H 344.989 -1.65564 0.93213 0
M  V30 3664 H 343.139 -3.88154 -0.164006 0
M  V30 3665 H 344.811 -3.91139 2.44556 0
M  V30 3666 H 343.054 -3.64095 2.35833 0
M  V30 3667 H 343.725 -5.19702 1.86047 0
M  V30 3668 H 346.201 -4.15406 0.240257 0
M  V30 3669 H 345.077 -5.48752 -0.127485 0
M  V30 3670 H 345.338 -4.22062 -1.3159 0
M  V30 3671 N 344.397 -0.483516 -1.5 0
M  V30 3672 C 345.327 0.293829 -2.31644 0
M  V30 3673 C 346.308 0.978864 -1.39112 0
M  V30 3674 O 347.493 0.973644 -1.68029 0
M  V30 3675 C 344.623 1.36897 -3.19181 0
M  V30 3676 C 343.577 0.804833 -4.20365 0
M  V30 3677 C 342.903 1.9792 -4.96721 0
M  V30 3678 C 344.203 -0.192313 -5.21946 0
M  V30 3679 H 345.897 -0.387616 -2.9688 0
M  V30 3680 H 343.443 -0.187856 -1.42769 0
M  V30 3681 H 345.396 1.92037 -3.751 0
M  V30 3682 H 344.12 2.07936 -2.51853 0
M  V30 3683 H 342.779 0.275319 -3.65565 0
M  V30 3684 H 342.427 2.67686 -4.25856 0
M  V30 3685 H 342.127 1.60789 -5.65173 0
M  V30 3686 H 343.651 2.53526 -5.55479 0
M  V30 3687 H 345.065 0.270333 -5.72662 0
M  V30 3688 H 343.462 -0.478543 -5.98189 0
M  V30 3689 H 344.532 -1.11409 -4.71928 0
M  V30 3690 N 345.875 1.56104 -0.216619 0
M  V30 3691 C 347.286 1.844 0.292128 0
M  V30 3692 C 347.637 1.13788 1.59833 0
M  V30 3693 O 346.762 0.405888 2.12559 0
M  V30 3694 C 347.357 3.3452 0.53681 0
M  V30 3695 C 345.916 3.63151 0.989876 0
M  V30 3696 C 345.063 2.77255 0.0502302 0
M  V30 3697 H 348.014 1.52481 -0.439926 0
M  V30 3698 H 348.035 3.54459 1.38345 0
M  V30 3699 H 347.547 3.85885 -0.414031 0
M  V30 3700 H 345.648 3.17238 1.95425 0
M  V30 3701 H 345.761 4.71177 0.867698 0
M  V30 3702 H 344.125 2.48555 0.556117 0
M  V30 3703 H 344.908 3.31416 -0.89544 0
M  V30 3704 N 347.353 -0.0568162 1.57498 0
M  V30 3705 C 348.578 -0.769402 1.92601 0
M  V30 3706 C 349.003 -1.69559 0.814336 0
M  V30 3707 O 348.361 -1.79811 -0.231903 0
M  V30 3708 C 348.409 -1.52634 3.26704 0
M  V30 3709 O 347.513 -2.63797 3.16994 0
M  V30 3710 H 346.854 -0.208909 0.63028 0
M  V30 3711 H 349.384 -0.0205798 2.0459 0
M  V30 3712 H 349.394 -1.90234 3.60936 0
M  V30 3713 H 348.069 -0.846875 4.07186 0
M  V30 3714 H 346.646 -2.28943 2.94346 0
M  V30 3715 N 348.832 -1.54138 -0.328536 0
M  V30 3716 C 350.078 -1.7236 -1.06865 0
M  V30 3717 C 350.411 -0.493231 -1.87832 0
M  V30 3718 O 349.686 0.5098 -1.877 0
M  V30 3719 C 349.969 -2.99621 -1.99747 0
M  V30 3720 C 349.822 -4.32899 -1.22143 0
M  V30 3721 C 351.141 -3.22615 -2.99345 0
M  V30 3722 H 348.26 -0.627151 -0.387105 0
M  V30 3723 H 350.902 -1.86827 -0.345767 0
M  V30 3724 H 349.052 -2.87418 -2.61387 0
M  V30 3725 H 350.724 -4.56978 -0.630017 0
M  V30 3726 H 348.967 -4.30628 -0.523628 0
M  V30 3727 H 349.638 -5.18154 -1.90318 0
M  V30 3728 H 352.114 -3.34248 -2.47826 0
M  V30 3729 H 350.99 -4.13027 -3.61524 0
M  V30 3730 H 351.251 -2.3961 -3.71536 0
M  V30 3731 N 350.31 0.590341 -1.46126 0
M  V30 3732 C 351.559 1.34499 -1.50309 0
M  V30 3733 C 351.872 1.94977 -0.156021 0
M  V30 3734 O 353.078 2.71395 -0.0756037 0
M  V30 3735 C 351.534 2.43723 -2.64815 0
M  V30 3736 C 351.142 1.89582 -4.0591 0
M  V30 3737 C 352.886 3.20579 -2.78262 0
M  V30 3738 C 350.793 2.9639 -5.11769 0
M  V30 3739 H 349.723 0.505593 -0.559368 0
M  V30 3740 H 352.374 0.630848 -1.72315 0
M  V30 3741 H 350.756 3.17902 -2.36124 0
M  V30 3742 H 351.93 1.21997 -4.44357 0
M  V30 3743 H 350.245 1.25418 -3.97063 0
M  V30 3744 H 352.842 4.00276 -3.54519 0
M  V30 3745 H 353.185 3.72684 -1.85505 0
M  V30 3746 H 353.718 2.53505 -3.06562 0
M  V30 3747 H 350.457 2.49181 -6.06291 0
M  V30 3748 H 349.977 3.62487 -4.77873 0
M  V30 3749 H 351.656 3.60474 -5.37278 0
M  V30 3750 N 351.788 1.33704 0.83433 0
M  V30 3751 C 353.034 1.25603 1.59222 0
M  V30 3752 C 353.367 -0.176659 1.93395 0
M  V30 3753 O 352.642 -1.11915 1.59076 0
M  V30 3754 C 352.925 2.13576 2.89926 0
M  V30 3755 C 352.778 3.65326 2.62406 0
M  V30 3756 C 354.097 2.01238 3.91397 0
M  V30 3757 H 351.216 0.457613 0.577719 0
M  V30 3758 H 353.858 1.63848 0.961972 0
M  V30 3759 H 352.008 1.8109 3.43713 0
M  V30 3760 H 353.68 4.08124 2.15017 0
M  V30 3761 H 351.923 3.8698 1.96033 0
M  V30 3762 H 352.594 4.22232 3.55562 0
M  V30 3763 H 355.07 2.29738 3.46929 0
M  V30 3764 H 353.946 2.65036 4.80673 0
M  V30 3765 H 354.207 0.985951 4.30966 0
M  V30 3766 N 353.266 -1.05314 1.17247 0
M  V30 3767 C 354.682 -1.30452 0.919473 0
M  V30 3768 C 354.882 -1.9703 -0.42209 0
M  V30 3769 O 353.938 -2.24311 -1.15935 0
M  V30 3770 C 355.251 -2.17551 2.07586 0
M  V30 3771 C 356.799 -2.30937 2.11275 0
M  V30 3772 C 357.274 -3.21396 3.26296 0
M  V30 3773 N 358.765 -3.28981 3.26076 0
M  V30 3774 C 359.5 -3.99095 4.11716 0
M  V30 3775 N 358.996 -4.71648 5.07465 0
M  V30 3776 N 360.789 -3.95247 3.9967 0
M  V30 3777 H 352.94 -0.604988 2.03602 0
M  V30 3778 H 355.203 -0.329368 0.888944 0
M  V30 3779 H 354.909 -1.75921 3.0454 0
M  V30 3780 H 354.783 -3.18182 2.02584 0
M  V30 3781 H 357.17 -2.71809 1.14907 0
M  V30 3782 H 357.251 -1.2994 2.20339 0
M  V30 3783 H 356.895 -2.81238 4.22927 0
M  V30 3784 H 356.825 -4.22395 3.14467 0
M  V30 3785 H 359.316 -2.77286 2.5675 0
M  V30 3786 H 359.629 -5.22705 5.6921 0
M  V30 3787 H 357.974 -4.70594 5.11435 0
M  V30 3788 H 361.165 -3.37691 3.24164 0
M  V30 3789 H 361.338 -4.4962 4.66632 0
M  V30 3790 N 354.744 -0.972509 -1.24016 0
M  V30 3791 C 355.654 -0.5143 -2.28893 0
M  V30 3792 C 356.67 0.427078 -1.68677 0
M  V30 3793 O 357.846 0.298939 -1.99169 0
M  V30 3794 C 354.911 0.183598 -3.46214 0
M  V30 3795 C 353.972 -0.798202 -4.21814 0
M  V30 3796 C 353.205 -0.133514 -5.33533 0
M  V30 3797 O 353.428 1.07714 -5.60137 0
M  V30 3798 O 352.362 -0.828103 -5.96176 0
M  V30 3799 H 356.188 -1.38629 -2.70214 0
M  V30 3800 H 353.773 -0.739769 -1.29799 0
M  V30 3801 H 355.655 0.575433 -4.17453 0
M  V30 3802 H 354.33 1.03048 -3.0686 0
M  V30 3803 H 353.237 -1.24059 -3.52931 0
M  V30 3804 H 354.57 -1.61364 -4.64997 0
M  V30 3805 N 356.222 1.38976 -0.743202 0
M  V30 3806 C 357.499 1.94351 -0.220705 0
M  V30 3807 C 357.879 1.67935 1.2791 0
M  V30 3808 O 357.227 1.01211 2.04862 0
M  V30 3809 C 357.437 3.44426 -0.563171 0
M  V30 3810 C 358.785 4.2144 -0.517046 0
M  V30 3811 O 359.809 3.52661 -0.500846 0
M  V30 3812 O 358.668 5.44032 -0.518806 0
M  V30 3813 H 355.762 0.825879 -0.043047 0
M  V30 3814 H 358.308 1.48429 -0.822618 0
M  V30 3815 H 357.08 3.5712 -1.59941 0
M  V30 3816 H 356.703 3.97543 0.0672883 0
M  V30 3817 N 357.7 0.491464 1.49741 0
M  V30 3818 C 358.948 -0.0563141 2.02022 0
M  V30 3819 C 359.269 -1.38363 1.37407 0
M  V30 3820 O 358.539 -1.88702 0.526166 0
M  V30 3821 H 357.119 -0.0238014 0.746621 0
M  V30 3822 H 359.781 0.646533 1.83864 0
M  V30 3823 H 358.877 -0.192967 3.11503 0
M  V30 3824 N 359.178 -1.55987 0.224894 0
M  V30 3825 C 360.594 -1.59066 -0.130426 0
M  V30 3826 C 360.794 -1.24176 -1.5869 0
M  V30 3827 O 359.85 -0.978592 -2.32766 0
M  V30 3828 C 361.163 -3.00042 0.198883 0
M  V30 3829 C 362.711 -3.1268 0.141391 0
M  V30 3830 C 363.186 -4.55839 0.444422 0
M  V30 3831 N 364.677 -4.6152 0.394115 0
M  V30 3832 C 365.412 -5.70231 0.602038 0
M  V30 3833 N 364.908 -6.87291 0.871914 0
M  V30 3834 N 366.701 -5.59555 0.534245 0
M  V30 3835 H 358.852 -1.76941 1.17497 0
M  V30 3836 H 361.115 -0.822604 0.471197 0
M  V30 3837 H 360.821 -3.30234 1.2099 0
M  V30 3838 H 360.695 -3.74075 -0.484535 0
M  V30 3839 H 363.082 -2.82283 -0.860265 0
M  V30 3840 H 363.163 -2.40969 0.858335 0
M  V30 3841 H 362.807 -4.86954 1.44353 0
M  V30 3842 H 362.737 -5.2578 -0.293752 0
M  V30 3843 H 365.228 -3.77405 0.193356 0
M  V30 3844 H 365.541 -7.66058 1.01858 0
M  V30 3845 H 363.886 -6.89028 0.909145 0
M  V30 3846 H 367.077 -4.6698 0.323612 0
M  V30 3847 H 367.25 -6.44211 0.699693 0
M  V30 3848 N 360.656 0.0484629 -1.57525 0
M  V30 3849 C 362.067 0.597486 -1.76881 0
M  V30 3850 C 362.418 1.76664 -0.853475 0
M  V30 3851 O 361.543 2.16357 -0.0433656 0
M  V30 3852 C 362.138 1.09066 -3.20765 0
M  V30 3853 C 360.697 1.58535 -3.41385 0
M  V30 3854 C 359.844 0.514868 -2.72478 0
M  V30 3855 H 362.795 -0.177758 -1.57701 0
M  V30 3856 H 362.816 1.95875 -3.2621 0
M  V30 3857 H 362.328 0.239521 -3.8736 0
M  V30 3858 H 360.429 2.45898 -2.79937 0
M  V30 3859 H 360.542 1.64622 -4.49929 0
M  V30 3860 H 358.906 0.965407 -2.35695 0
M  V30 3861 H 359.689 -0.32648 -3.41744 0
M  V30 3862 N 362.134 1.5431 0.320358 0
M  V30 3863 C 363.38 1.72924 1.05949 0
M  V30 3864 C 363.713 0.503185 1.87568 0
M  V30 3865 O 362.988 -0.499839 1.87968 0
M  V30 3866 C 363.271 3.00676 1.98156 0
M  V30 3867 C 363.124 4.3354 1.19845 0
M  V30 3868 C 364.443 3.24198 2.9763 0
M  V30 3869 H 361.562 0.629195 0.383774 0
M  V30 3870 H 364.204 1.87008 0.335854 0
M  V30 3871 H 362.354 2.888 2.59859 0
M  V30 3872 H 364.026 4.57305 0.605773 0
M  V30 3873 H 362.269 4.309 0.500784 0
M  V30 3874 H 362.94 5.19156 1.87567 0
M  V30 3875 H 365.416 3.35557 2.4605 0
M  V30 3876 H 364.292 4.14938 3.59329 0
M  V30 3877 H 364.553 2.41577 3.7026 0
M  V30 3878 N 363.613 -0.582584 1.46437 0
M  V30 3879 C 364.576 -1.67366 1.56592 0
M  V30 3880 C 365.576 -1.54575 0.443072 0
M  V30 3881 O 366.766 -1.59191 0.707381 0
M  V30 3882 C 363.898 -3.06791 1.48634 0
M  V30 3883 H 365.091 -1.5972 2.5383 0
M  V30 3884 H 362.644 -0.800432 1.34249 0
M  V30 3885 H 363.379 -3.19993 0.526763 0
M  V30 3886 H 363.164 -3.17484 2.30101 0
M  V30 3887 H 364.654 -3.86218 1.58826 0
M  V30 3888 N 365.091 -1.34144 -0.827227 0
M  V30 3889 C 366.319 -1.29325 -1.61501 0
M  V30 3890 C 366.734 0.13354 -1.88327 0
M  V30 3891 O 366.091 1.0793 -1.47164 0
M  V30 3892 C 366.142 -2.07746 -2.95844 0
M  V30 3893 O 365.863 -3.4486 -2.70191 0
M  V30 3894 C 367.364 -2.10273 -3.90256 0
M  V30 3895 H 364.584 -0.445069 -0.50215 0
M  V30 3896 H 367.128 -1.76693 -1.02955 0
M  V30 3897 H 365.283 -1.6403 -3.5096 0
M  V30 3898 H 365.697 -3.85345 -3.55822 0
M  V30 3899 H 367.171 -2.69575 -4.81698 0
M  V30 3900 H 367.648 -1.096 -4.25305 0
M  V30 3901 H 368.254 -2.54059 -3.41078 0
M  V30 3902 N 366.569 1.04691 -1.17803 0
M  V30 3903 C 367.818 1.77176 -0.963931 0
M  V30 3904 C 368.131 1.88888 0.508015 0
M  V30 3905 O 369.337 2.58164 0.840465 0
M  V30 3906 C 367.793 3.18518 -1.67555 0
M  V30 3907 C 367.401 3.14919 -3.18637 0
M  V30 3908 C 369.145 3.95424 -1.54402 0
M  V30 3909 C 367.052 4.51081 -3.82466 0
M  V30 3910 H 365.982 0.664116 -0.357023 0
M  V30 3911 H 368.633 1.17303 -1.4111 0
M  V30 3912 H 367.015 3.78748 -1.15613 0
M  V30 3913 H 368.189 2.64178 -3.77554 0
M  V30 3914 H 366.504 2.51512 -3.31859 0
M  V30 3915 H 369.101 4.96106 -1.99456 0
M  V30 3916 H 369.444 4.13343 -0.495329 0
M  V30 3917 H 369.977 3.41754 -2.0359 0
M  V30 3918 H 366.716 4.38368 -4.87354 0
M  V30 3919 H 366.236 5.01951 -3.28337 0
M  V30 3920 H 367.915 5.2001 -3.84965 0
M  V30 3921 N 368.047 0.979072 1.23499 0
M  V30 3922 C 368.979 0.476271 2.24197 0
M  V30 3923 C 369.992 -0.421166 1.57258 0
M  V30 3924 O 371.181 -0.225515 1.7707 0
M  V30 3925 C 368.281 -0.330503 3.37285 0
M  V30 3926 C 367.454 0.559744 4.33804 0
M  V30 3927 C 366.513 -0.192954 5.25846 0
M  V30 3928 O 365.539 0.416978 5.67671 0
M  V30 3929 N 366.741 -1.47932 5.61334 0
M  V30 3930 H 369.506 1.34211 2.67969 0
M  V30 3931 H 367.067 0.852189 1.37657 0
M  V30 3932 H 369.059 -0.842361 3.95836 0
M  V30 3933 H 367.629 -1.09734 2.92707 0
M  V30 3934 H 366.849 1.25245 3.73775 0
M  V30 3935 H 368.137 1.1665 4.95248 0
M  V30 3936 H 367.535 -1.9964 5.29302 0
M  V30 3937 H 366.092 -1.93664 6.22364 0
M  V30 3938 N 369.525 -1.3858 0.750561 0
M  V30 3939 C 370.802 -1.94231 0.231009 0
M  V30 3940 C 371.182 -1.68611 -1.27018 0
M  V30 3941 O 370.53 -1.02296 -2.04323 0
M  V30 3942 C 370.74 -3.44123 0.581428 0
M  V30 3943 C 372.088 -4.2116 0.539389 0
M  V30 3944 O 373.112 -3.52391 0.519541 0
M  V30 3945 O 371.971 -5.43749 0.54765 0
M  V30 3946 H 369.065 -0.825639 0.0474263 0
M  V30 3947 H 371.611 -1.4799 0.830478 0
M  V30 3948 H 370.383 -3.56267 1.61833 0
M  V30 3949 H 370.006 -3.97573 -0.0462047 0
M  V30 3950 N 371.003 -0.499398 -1.49478 0
M  V30 3951 C 371.951 0.293604 -2.3074 0
M  V30 3952 C 372.945 0.96427 -1.39277 0
M  V30 3953 O 374.151 0.892141 -1.56336 0
M  V30 3954 H 370.526 0.113541 -0.743379 0
M  V30 3955 H 372.497 -0.411772 -2.95545 0
M  V30 3956 C 371.246 1.3462 -3.20582 0
M  V30 3957 H 370.569 0.83954 -3.90886 0
M  V30 3958 H 372.009 1.87308 -3.80384 0
M  V30 3959 C 370.468 2.36351 -2.40083 0
M  V30 3960 O 370.998 3.422 -2.10385 0
M  V30 3961 N 369.204 2.0878 -2.02137 0
M  V30 3962 H 368.751 1.22723 -2.26488 0
M  V30 3963 H 368.709 2.77075 -1.48583 0
M  V30 3964 N 372.481 1.55866 -0.233164 0
M  V30 3965 C 373.758 1.90471 0.444988 0
M  V30 3966 C 374.138 1.15209 1.7689 0
M  V30 3967 O 373.486 0.265119 2.26957 0
M  V30 3968 C 373.696 3.4333 0.626559 0
M  V30 3969 C 375.044 4.14319 0.92871 0
M  V30 3970 O 376.068 3.48993 0.712926 0
M  V30 3971 O 374.927 5.29846 1.33887 0
M  V30 3972 H 372.021 0.792347 0.236885 0
M  V30 3973 H 374.567 1.67437 -0.276211 0
M  V30 3974 H 373.339 3.90095 -0.306822 0
M  V30 3975 H 372.962 3.72181 1.39881 0
M  V30 3976 N 373.959 -0.0401083 1.57549 0
M  V30 3977 C 374.922 -1.02871 2.04817 0
M  V30 3978 C 375.922 -1.29708 0.950388 0
M  V30 3979 O 377.112 -1.24897 1.21435 0
M  V30 3980 C 374.244 -2.36443 2.45576 0
M  V30 3981 H 375.437 -0.620631 2.93408 0
M  V30 3982 H 372.99 -0.286667 1.53649 0
M  V30 3983 H 373.725 -2.82021 1.60108 0
M  V30 3984 H 373.51 -2.18296 3.25713 0
M  V30 3985 H 375 -3.07441 2.82612 0
M  V30 3986 N 375.437 -1.54477 -0.31217 0
M  V30 3987 C 376.686 -1.72438 -1.04633 0
M  V30 3988 C 376.999 -0.511163 -1.88803 0
M  V30 3989 O 378.205 -0.572341 -2.65399 0
M  V30 3990 C 376.661 -3.05043 -1.9099 0
M  V30 3991 C 376.269 -4.33806 -1.11877 0
M  V30 3992 C 378.013 -3.32364 -2.64073 0
M  V30 3993 C 375.92 -5.57467 -1.97445 0
M  V30 3994 H 374.85 -0.642647 -0.394361 0
M  V30 3995 H 377.501 -1.80966 -0.303929 0
M  V30 3996 H 375.883 -2.90451 -2.69173 0
M  V30 3997 H 377.057 -4.59199 -0.383843 0
M  V30 3998 H 375.372 -4.13336 -0.504252 0
M  V30 3999 H 377.969 -4.21951 -3.28423 0
M  V30 4000 H 378.312 -2.50745 -3.32314 0
M  V30 4001 H 378.845 -3.47875 -1.92944 0
M  V30 4002 H 375.584 -6.41722 -1.33692 0
M  V30 4003 H 375.104 -5.36277 -2.6864 0
M  V30 4004 H 376.783 -5.94303 -2.5576 0
M  V30 4005 N 376.915 0.57481 -1.46744 0
M  V30 4006 C 378.164 1.32898 -1.51727 0
M  V30 4007 C 378.477 1.948 -0.176692 0
M  V30 4008 O 379.683 2.71299 -0.104385 0
M  V30 4009 C 378.139 2.40901 -2.67385 0
M  V30 4010 C 377.747 1.85266 -4.07898 0
M  V30 4011 C 379.491 3.17609 -2.81646 0
M  V30 4012 C 377.398 2.90945 -5.14883 0
M  V30 4013 H 376.328 0.499631 -0.564699 0
M  V30 4014 H 378.979 0.612536 -1.72975 0
M  V30 4015 H 377.361 3.15379 -2.39483 0
M  V30 4016 H 378.535 1.17278 -4.45626 0
M  V30 4017 H 376.85 1.21199 -3.98371 0
M  V30 4018 H 379.447 3.96493 -3.58744 0
M  V30 4019 H 379.79 3.70696 -1.89448 0
M  V30 4020 H 380.323 2.50239 -3.09233 0
M  V30 4021 H 377.062 2.42736 -6.089 0
M  V30 4022 H 376.582 3.57398 -4.81691 0
M  V30 4023 H 378.261 3.54755 -5.41071 0
M  V30 4024 N 378.394 1.34581 0.820102 0
M  V30 4025 C 379.641 1.27096 1.57648 0
M  V30 4026 C 379.969 -0.158317 1.93855 0
M  V30 4027 O 379.224 -1.12028 1.60463 0
M  V30 4028 C 379.523 2.10997 2.8847 0
M  V30 4029 C 379.189 3.59966 2.71543 0
M  V30 4030 C 377.851 4.00575 2.66634 0
M  V30 4031 C 380.203 4.54548 2.55021 0
M  V30 4032 C 377.531 5.33953 2.43128 0
M  V30 4033 C 379.883 5.88109 2.33047 0
M  V30 4034 C 378.547 6.27878 2.26552 0
M  V30 4035 H 377.817 0.465078 0.576874 0
M  V30 4036 H 380.464 1.6635 0.948671 0
M  V30 4037 H 378.769 1.6458 3.55557 0
M  V30 4038 H 380.466 2.0255 3.46084 0
M  V30 4039 H 377.056 3.27733 2.76205 0
M  V30 4040 H 381.24 4.24069 2.57835 0
M  V30 4041 H 376.496 5.63781 2.3656 0
M  V30 4042 H 380.67 6.60985 2.19251 0
M  V30 4043 H 378.297 7.31162 2.081 0
M  V30 4044 N 379.872 -1.04064 1.18357 0
M  V30 4045 C 381.102 -1.80654 1.00238 0
M  V30 4046 C 381.51 -1.83713 -0.452362 0
M  V30 4047 O 380.853 -1.27135 -1.32599 0
M  V30 4048 C 380.915 -3.27582 1.48088 0
M  V30 4049 C 380.579 -3.48184 2.96002 0
M  V30 4050 C 381.576 -3.39372 3.93856 0
M  V30 4051 C 379.261 -3.7478 3.34433 0
M  V30 4052 C 381.255 -3.5686 5.28138 0
M  V30 4053 C 378.942 -3.91915 4.68877 0
M  V30 4054 C 379.94 -3.82956 5.65539 0
M  V30 4055 O 379.628 -3.996 6.97549 0
M  V30 4056 H 379.36 -0.575751 0.354241 0
M  V30 4057 H 381.914 -1.32044 1.57333 0
M  V30 4058 H 380.144 -3.77161 0.853588 0
M  V30 4059 H 381.833 -3.8573 1.2636 0
M  V30 4060 H 382.599 -3.18789 3.65511 0
M  V30 4061 H 378.478 -3.80852 2.59756 0
M  V30 4062 H 382.022 -3.49783 6.03571 0
M  V30 4063 H 377.919 -4.11992 4.96923 0
M  V30 4064 H 378.687 -4.1676 7.04452 0
M  V30 4065 N 381.35 -0.985608 -1.22978 0
M  V30 4066 C 382.298 -0.522631 -2.26652 0
M  V30 4067 C 383.292 0.422998 -1.64034 0
M  V30 4068 O 384.498 0.296319 -1.77544 0
M  V30 4069 H 380.873 -0.150597 -0.736766 0
M  V30 4070 H 382.844 -1.40863 -2.63059 0
M  V30 4071 C 381.593 0.154238 -3.47358 0
M  V30 4072 H 380.916 -0.564329 -3.95797 0
M  V30 4073 H 382.356 0.441744 -4.21693 0
M  V30 4074 C 380.815 1.38719 -3.07016 0
M  V30 4075 O 381.345 2.48307 -3.15764 0
M  V30 4076 N 379.551 1.25975 -2.61875 0
M  V30 4077 H 379.098 0.368068 -2.54957 0
M  V30 4078 H 379.056 2.08578 -2.3525 0
M  V30 4079 N 382.828 1.3818 -0.7579 0
M  V30 4080 C 384.075 2.00019 -0.315985 0
M  V30 4081 C 384.403 1.60163 1.10355 0
M  V30 4082 O 383.658 0.83264 1.77103 0
M  V30 4083 C 383.957 3.55252 -0.391218 0
M  V30 4084 C 383.623 4.14834 -1.76702 0
M  V30 4085 C 382.285 4.30821 -2.14353 0
M  V30 4086 C 384.637 4.47658 -2.66931 0
M  V30 4087 C 381.965 4.76928 -3.41696 0
M  V30 4088 C 384.317 4.95184 -3.93669 0
M  V30 4089 C 382.981 5.09377 -4.31383 0
M  V30 4090 H 382.251 0.731923 -0.115627 0
M  V30 4091 H 384.898 1.65161 -0.969223 0
M  V30 4092 H 383.203 3.90273 0.34558 0
M  V30 4093 H 384.9 4.00988 -0.030805 0
M  V30 4094 H 381.49 4.02808 -1.46435 0
M  V30 4095 H 385.674 4.34904 -2.39106 0
M  V30 4096 H 380.93 4.86103 -3.70829 0
M  V30 4097 H 385.104 5.19551 -4.63724 0
M  V30 4098 H 382.731 5.44865 -5.30119 0
M  V30 4099 N 384.306 0.507319 1.49211 0
M  V30 4100 C 385.722 0.163682 1.58758 0
M  V30 4101 C 385.922 -1.33208 1.51188 0
M  V30 4102 O 384.978 -2.10855 1.38911 0
M  V30 4103 C 386.291 0.746095 2.91297 0
M  V30 4104 C 387.839 0.712773 3.04776 0
M  V30 4105 C 388.314 1.27336 4.39943 0
M  V30 4106 N 389.805 1.23433 4.46451 0
M  V30 4107 C 390.54 1.63821 5.495 0
M  V30 4108 N 390.036 2.11832 6.5962 0
M  V30 4109 N 391.829 1.55198 5.4025 0
M  V30 4110 H 383.98 1.47972 1.52375 0
M  V30 4111 H 386.243 0.614147 0.722168 0
M  V30 4112 H 385.949 1.79534 3.02424 0
M  V30 4113 H 385.823 0.210137 3.76614 0
M  V30 4114 H 388.21 -0.327656 2.93275 0
M  V30 4115 H 388.291 1.28595 2.21127 0
M  V30 4116 H 387.935 2.3126 4.52196 0
M  V30 4117 H 387.865 0.676066 5.22242 0
M  V30 4118 H 390.356 0.882627 3.67448 0
M  V30 4119 H 390.669 2.40703 7.34358 0
M  V30 4120 H 389.014 2.1581 6.60644 0
M  V30 4121 H 392.205 1.17505 4.53112 0
M  V30 4122 H 392.378 1.86997 6.20432 0
M  V30 4123 N 385.784 -1.5574 0.241426 0
M  V30 4124 C 387.195 -1.84842 -0.262755 0
M  V30 4125 C 387.546 -1.16317 -1.58003 0
M  V30 4126 O 386.671 -0.439653 -2.11887 0
M  V30 4127 C 387.266 -3.35332 -0.483523 0
M  V30 4128 C 385.825 -3.6468 -0.931977 0
M  V30 4129 C 384.972 -2.77299 -0.0061151 0
M  V30 4130 H 387.923 -1.51761 0.464129 0
M  V30 4131 H 387.944 -3.56615 -1.32688 0
M  V30 4132 H 387.456 -3.85178 0.47537 0
M  V30 4133 H 385.557 -3.20307 -1.90353 0
M  V30 4134 H 385.67 -4.72498 -0.792628 0
M  V30 4135 H 384.034 -2.49408 -0.516503 0
M  V30 4136 H 384.817 -3.2995 0.948052 0
M  V30 4137 N 387.262 0.0317525 -1.57568 0
M  V30 4138 C 388.539 0.758366 -1.803 0
M  V30 4139 C 388.919 1.93718 -0.838845 0
M  V30 4140 O 388.267 2.28187 0.119571 0
M  V30 4141 C 388.477 1.19392 -3.27943 0
M  V30 4142 C 389.825 1.61094 -3.92854 0
M  V30 4143 O 390.849 1.28857 -3.32076 0
M  V30 4144 O 389.708 2.20918 -4.99858 0
M  V30 4145 H 386.802 0.366514 -0.741348 0
M  V30 4146 H 389.348 0.00873765 -1.69698 0
M  V30 4147 H 388.12 0.352275 -3.89711 0
M  V30 4148 H 387.743 2.00365 -3.43424 0
M  V30 4149 N 388.74 1.54641 0.303973 0
M  V30 4150 C 390.156 1.45788 0.649463 0
M  V30 4151 C 390.356 0.64666 1.90842 0
M  V30 4152 O 389.412 0.153183 2.52035 0
M  V30 4153 C 390.725 2.89718 0.805227 0
M  V30 4154 C 392.273 2.99742 0.901305 0
M  V30 4155 C 392.748 4.44863 1.08909 0
M  V30 4156 N 394.239 4.48559 1.15536 0
M  V30 4157 C 394.974 5.58026 1.3189 0
M  V30 4158 N 394.47 6.77422 1.45161 0
M  V30 4159 N 396.263 5.45708 1.34755 0
M  V30 4160 H 388.414 2.05854 -0.523237 0
M  V30 4161 H 390.677 0.932186 -0.172431 0
M  V30 4162 H 390.383 3.51666 -0.0489108 0
M  V30 4163 H 390.257 3.36964 1.69513 0
M  V30 4164 H 392.644 2.3791 1.74593 0
M  V30 4165 H 392.725 2.55797 -0.0125531 0
M  V30 4166 H 392.369 5.07288 0.249241 0
M  V30 4167 H 392.299 4.86436 2.01713 0
M  V30 4168 H 394.79 3.6254 1.06646 0
M  V30 4169 H 395.103 7.56604 1.57387 0
M  V30 4170 H 393.448 6.80292 1.42223 0
M  V30 4171 H 396.639 4.51378 1.23996 0
M  V30 4172 H 396.812 6.3107 1.47157 0
M  V30 4173 N 390.218 -0.567019 1.47046 0
M  V30 4174 C 391.181 -1.65696 1.58359 0
M  V30 4175 C 392.181 -1.54097 0.459441 0
M  V30 4176 O 393.371 -1.58432 0.724225 0
M  V30 4177 C 390.503 -3.05197 1.51879 0
M  V30 4178 H 391.696 -1.57019 2.5551 0
M  V30 4179 H 389.249 -0.786148 1.3509 0
M  V30 4180 H 389.984 -3.19417 0.560673 0
M  V30 4181 H 389.769 -3.15025 2.33455 0
M  V30 4182 H 391.259 -3.84511 1.62913 0
M  V30 4183 N 391.696 -1.35014 -0.812953 0
M  V30 4184 C 392.945 -1.27269 -1.56479 0
M  V30 4185 C 393.258 0.152771 -1.95002 0
M  V30 4186 O 394.464 0.352451 -2.69203 0
M  V30 4187 C 392.92 -2.23159 -2.82362 0
M  V30 4188 C 392.528 -3.71016 -2.511 0
M  V30 4189 C 394.272 -2.24342 -3.60376 0
M  V30 4190 C 392.179 -4.58746 -3.73237 0
M  V30 4191 H 391.109 -0.472829 -0.587324 0
M  V30 4192 H 393.76 -1.6024 -0.894171 0
M  V30 4193 H 392.142 -1.83151 -3.51101 0
M  V30 4194 H 393.316 -4.1962 -1.90409 0
M  V30 4195 H 391.631 -3.72378 -1.86343 0
M  V30 4196 H 394.228 -2.87107 -4.51081 0
M  V30 4197 H 394.571 -1.24542 -3.97234 0
M  V30 4198 H 395.104 -2.62846 -2.98591 0
M  V30 4199 H 391.843 -5.59521 -3.41492 0
M  V30 4200 H 391.363 -4.14871 -4.33176 0
M  V30 4201 H 393.042 -4.73852 -4.40537 0
M  V30 4202 N 393.175 1.03435 -1.18907 0
M  V30 4203 C 394.107 2.1165 -0.879595 0
M  V30 4204 C 395.12 1.62316 0.125439 0
M  V30 4205 O 396.309 1.78201 -0.103245 0
M  V30 4206 C 393.409 3.37622 -0.294042 0
M  V30 4207 C 392.582 4.16166 -1.34629 0
M  V30 4208 C 391.641 5.20457 -0.775274 0
M  V30 4209 O 390.667 5.50379 -1.4516 0
M  V30 4210 N 391.869 5.78949 0.424126 0
M  V30 4211 H 394.634 2.38791 -1.81105 0
M  V30 4212 H 392.195 1.19681 -1.09032 0
M  V30 4213 H 394.187 4.04572 0.101679 0
M  V30 4214 H 392.757 3.07873 0.541575 0
M  V30 4215 H 391.977 3.44444 -1.91707 0
M  V30 4216 H 393.265 4.65432 -2.05549 0
M  V30 4217 H 392.663 5.56948 0.991209 0
M  V30 4218 H 391.22 6.47334 0.761691 0
M  V30 4219 N 394.653 0.992116 1.22453 0
M  V30 4220 C 395.902 0.662992 1.90492 0
M  V30 4221 C 396.215 -0.808407 1.78113 0
M  V30 4222 O 397.421 -1.24908 2.41061 0
M  V30 4223 C 395.877 1.1353 3.41524 0
M  V30 4224 C 395.485 2.63187 3.62542 0
M  V30 4225 C 397.229 0.880465 4.15269 0
M  V30 4226 C 395.136 3.04024 5.0727 0
M  V30 4227 H 394.066 0.244278 0.713333 0
M  V30 4228 H 396.717 1.20157 1.38688 0
M  V30 4229 H 395.099 0.52485 3.92506 0
M  V30 4230 H 396.273 3.2957 3.22056 0
M  V30 4231 H 394.588 2.86543 3.02129 0
M  V30 4232 H 397.185 1.16128 5.21937 0
M  V30 4233 H 397.528 -0.183408 4.15896 0
M  V30 4234 H 398.061 1.45307 3.70312 0
M  V30 4235 H 394.8 4.09584 5.11782 0
M  V30 4236 H 394.32 2.42343 5.48662 0
M  V30 4237 H 395.999 2.95282 5.75689 0
M  V30 4238 N 396.131 -1.37776 0.765217 0
M  V30 4239 C 397.356 -2.04651 0.336537 0
M  V30 4240 C 397.781 -1.57337 -1.03086 0
M  V30 4241 O 397.139 -0.730621 -1.65927 0
M  V30 4242 C 397.187 -3.58577 0.381468 0
M  V30 4243 O 396.291 -4.07706 -0.62042 0
M  V30 4244 H 395.632 -0.64756 0.146838 0
M  V30 4245 H 398.162 -1.76221 1.03959 0
M  V30 4246 H 398.172 -4.07314 0.236448 0
M  V30 4247 H 396.847 -3.9237 1.37907 0
M  V30 4248 H 395.424 -3.70306 -0.439056 0
M  V30 4249 N 397.609 -0.515225 -1.4894 0
M  V30 4250 C 398.557 0.269115 -2.31038 0
M  V30 4251 C 399.551 0.949443 -1.40292 0
M  V30 4252 O 400.757 0.87551 -1.57273 0
M  V30 4253 H 397.132 0.10565 -0.744542 0
M  V30 4254 H 399.103 -0.443096 -2.95092 0
M  V30 4255 C 397.852 1.31213 -3.21991 0
M  V30 4256 H 397.175 0.798034 -3.91754 0
M  V30 4257 H 398.615 1.83263 -3.82349 0
M  V30 4258 C 397.074 2.33791 -2.42576 0
M  V30 4259 O 397.604 3.3995 -2.14003 0
M  V30 4260 N 395.81 2.06625 -2.0434 0
M  V30 4261 H 395.357 1.20314 -2.27777 0
M  V30 4262 H 395.315 2.75483 -1.51514 0
M  V30 4263 N 399.087 1.5561 -0.249682 0
M  V30 4264 C 400.315 2.03411 0.378352 0
M  V30 4265 C 400.73 1.12886 1.51335 0
M  V30 4266 O 400.087 0.143833 1.81932 0
M  V30 4267 C 400.138 3.50537 0.88351 0
M  V30 4268 O 399.859 4.37614 -0.20626 0
M  V30 4269 C 401.36 4.14113 1.58195 0
M  V30 4270 H 398.58 0.664994 0.08958 0
M  V30 4271 H 401.124 2.01044 -0.374357 0
M  V30 4272 H 399.279 3.5343 1.58639 0
M  V30 4273 H 399.693 5.24199 0.177782 0
M  V30 4274 H 401.167 5.18741 1.8871 0
M  V30 4275 H 401.644 3.60767 2.50487 0
M  V30 4276 H 402.25 4.15151 0.923573 0
M  V30 4277 N 400.565 -0.0233959 1.57583 0
M  V30 4278 C 401.812 -0.713063 1.8953 0
M  V30 4279 C 402.14 -1.75056 0.847673 0
M  V30 4280 O 401.395 -1.95119 -0.150636 0
M  V30 4281 C 401.694 -1.41428 3.28227 0
M  V30 4282 C 401.36 -0.512222 4.47981 0
M  V30 4283 C 400.022 -0.263785 4.80476 0
M  V30 4284 C 402.374 0.110248 5.21083 0
M  V30 4285 C 399.702 0.615804 5.83459 0
M  V30 4286 C 402.054 0.977573 6.25001 0
M  V30 4287 C 400.718 1.23542 6.55968 0
M  V30 4288 H 399.988 -0.260928 0.69354 0
M  V30 4289 H 402.635 0.0271047 1.91481 0
M  V30 4290 H 400.94 -2.22791 3.22291 0
M  V30 4291 H 402.637 -1.95355 3.50196 0
M  V30 4292 H 399.227 -0.716013 4.22577 0
M  V30 4293 H 403.411 -0.0687137 4.96252 0
M  V30 4294 H 398.667 0.82382 6.05824 0
M  V30 4295 H 402.841 1.46638 6.80786 0
M  V30 4296 H 400.468 1.91871 7.35588 0
M  V30 4297 N 402.043 -1.548 -0.295768 0
M  V30 4298 C 403.271 -1.78327 -1.04914 0
M  V30 4299 C 403.686 -0.545316 -1.80753 0
M  V30 4300 O 403.043 0.485013 -1.75937 0
M  V30 4301 C 403.094 -2.99418 -2.02561 0
M  V30 4302 O 402.815 -4.18431 -1.29798 0
M  V30 4303 C 404.316 -3.35375 -2.89895 0
M  V30 4304 H 401.536 -0.594618 -0.310918 0
M  V30 4305 H 404.08 -2.01763 -0.333454 0
M  V30 4306 H 402.235 -2.78175 -2.69624 0
M  V30 4307 H 402.649 -4.86736 -1.95419 0
M  V30 4308 H 404.123 -4.23332 -3.54251 0
M  V30 4309 H 404.6 -2.53761 -3.58472 0
M  V30 4310 H 405.206 -3.58796 -2.28355 0
M  V30 4311 N 403.521 0.559213 -1.47345 0
M  V30 4312 C 404.469 1.68747 -1.60085 0
M  V30 4313 C 405.463 1.628 -0.46825 0
M  V30 4314 O 406.669 1.68009 -0.645977 0
M  V30 4315 H 403.044 0.558329 -0.503759 0
M  V30 4316 H 405.015 1.55138 -2.54902 0
M  V30 4317 C 403.764 3.07103 -1.63042 0
M  V30 4318 H 403.087 3.12361 -2.49541 0
M  V30 4319 H 404.527 3.85743 -1.76006 0
M  V30 4320 C 402.986 3.34935 -0.363357 0
M  V30 4321 O 403.516 3.98102 0.536416 0
M  V30 4322 N 401.722 2.89574 -0.244 0
M  V30 4323 H 401.269 2.38348 -0.977133 0
M  V30 4324 H 401.227 3.08566 0.602836 0
M  V30 4325 N 404.999 1.35443 0.805782 0
M  V30 4326 C 405.909 1.30546 1.94923 0
M  V30 4327 C 406.925 0.210233 1.72725 0
M  V30 4328 O 408.101 0.43975 1.9654 0
M  V30 4329 C 405.166 1.07782 3.29521 0
M  V30 4330 C 404.227 2.26625 3.64609 0
M  V30 4331 C 403.46 2.04938 4.92784 0
M  V30 4332 O 403.683 1.01624 5.61274 0
M  V30 4333 O 402.617 2.9232 5.26149 0
M  V30 4334 H 406.443 2.26779 2.02002 0
M  V30 4335 H 404.028 1.15823 0.943682 0
M  V30 4336 H 405.91 0.969392 4.10098 0
M  V30 4337 H 404.585 0.146003 3.23371 0
M  V30 4338 H 403.492 2.43033 2.84404 0
M  V30 4339 H 404.825 3.18257 3.75464 0
M  V30 4340 N 406.477 -1.02803 1.19454 0
M  V30 4341 C 407.754 -1.73299 0.907013 0
M  V30 4342 C 408.134 -2.02772 -0.587086 0
M  V30 4343 O 407.482 -1.68304 -1.54551 0
M  V30 4344 C 407.692 -3.00912 1.76785 0
M  V30 4345 C 409.04 -3.74403 2.00268 0
M  V30 4346 O 410.064 -3.10841 1.73943 0
M  V30 4347 O 408.923 -4.88675 2.4466 0
M  V30 4348 H 406.017 -0.754727 0.338106 0
M  V30 4349 H 408.563 -1.08754 1.30271 0
M  V30 4350 H 407.335 -2.75366 2.7801 0
M  V30 4351 H 406.958 -3.73197 1.37149 0
M  V30 4352 N 407.956 -0.998596 -1.21925 0
M  V30 4353 C 409.203 -0.677663 -1.90824 0
M  V30 4354 C 409.531 0.790905 -1.77693 0
M  V30 4355 O 408.786 1.58817 -1.14349 0
M  V30 4356 C 409.085 -1.03648 -3.42041 0
M  V30 4357 C 408.751 -2.49825 -3.75364 0
M  V30 4358 C 407.413 -2.8977 -3.8417 0
M  V30 4359 C 409.765 -3.44545 -3.91073 0
M  V30 4360 C 407.093 -4.23412 -4.06127 0
M  V30 4361 C 409.445 -4.77853 -4.14535 0
M  V30 4362 C 408.109 -5.17531 -4.21566 0
M  V30 4363 H 407.379 -0.247975 -0.698276 0
M  V30 4364 H 410.026 -1.25584 -1.44571 0
M  V30 4365 H 408.331 -0.376457 -3.89987 0
M  V30 4366 H 410.028 -0.766113 -3.93614 0
M  V30 4367 H 406.618 -2.17866 -3.69097 0
M  V30 4368 H 410.802 -3.14853 -3.83642 0
M  V30 4369 H 406.058 -4.53734 -4.09799 0
M  V30 4370 H 410.232 -5.51189 -4.25633 0
M  V30 4371 H 407.859 -6.21102 -4.38333 0
M  V30 4372 N 409.434 1.37368 -0.772513 0
M  V30 4373 C 410.85 1.53059 -0.452231 0
M  V30 4374 C 411.05 1.73065 1.03203 0
M  V30 4375 O 410.106 1.75245 1.81784 0
M  V30 4376 C 411.419 2.72659 -1.26797 0
M  V30 4377 C 412.967 2.86521 -1.25995 0
M  V30 4378 C 413.442 4.09105 -2.05905 0
M  V30 4379 N 414.933 4.16219 -2.03263 0
M  V30 4380 C 415.668 5.10107 -2.61875 0
M  V30 4381 N 415.164 6.09547 -3.29278 0
M  V30 4382 N 416.957 5.02596 -2.51701 0
M  V30 4383 H 409.108 1.22634 -1.7342 0
M  V30 4384 H 411.371 0.597206 -0.736239 0
M  V30 4385 H 411.077 2.64343 -2.31982 0
M  V30 4386 H 410.951 3.66363 -0.897672 0
M  V30 4387 H 413.338 2.94308 -0.216081 0
M  V30 4388 H 413.419 1.93774 -1.66989 0
M  V30 4389 H 413.063 4.0208 -3.10313 0
M  V30 4390 H 412.993 5.00968 -1.62292 0
M  V30 4391 H 415.484 3.45012 -1.54192 0
M  V30 4392 H 415.797 6.77718 -3.71374 0
M  V30 4393 H 414.142 6.09824 -3.33377 0
M  V30 4394 H 417.333 4.23855 -1.98657 0
M  V30 4395 H 417.506 5.75582 -2.97673 0
M  V30 4396 N 410.912 0.523116 1.48665 0
M  V30 4397 C 411.822 -0.247406 2.33292 0
M  V30 4398 C 412.838 -0.945769 1.46052 0
M  V30 4399 O 414.014 -0.922253 1.79043 0
M  V30 4400 C 411.079 -1.28487 3.22012 0
M  V30 4401 C 410.14 -0.597592 4.2512 0
M  V30 4402 C 409.373 -1.58563 5.09601 0
M  V30 4403 O 409.596 -2.81763 4.95949 0
M  V30 4404 O 408.53 -1.12879 5.91221 0
M  V30 4405 H 412.356 0.445869 3.00409 0
M  V30 4406 H 409.941 0.284128 1.46673 0
M  V30 4407 H 411.823 -1.88459 3.7691 0
M  V30 4408 H 410.498 -1.96068 2.57564 0
M  V30 4409 H 409.405 0.0424407 3.74076 0
M  V30 4410 H 410.738 0.0361517 4.92187 0
M  V30 4411 N 412.39 -1.55475 0.257931 0
M  V30 4412 C 413.637 -1.99207 -0.363728 0
M  V30 4413 C 413.965 -1.1462 -1.57139 0
M  V30 4414 O 413.22 -0.199653 -1.94679 0
M  V30 4415 C 413.519 -3.48183 -0.806433 0
M  V30 4416 C 413.185 -4.49936 0.294684 0
M  V30 4417 C 411.847 -4.77481 0.597076 0
M  V30 4418 C 414.199 -5.10769 1.03751 0
M  V30 4419 C 411.527 -5.63132 1.64618 0
M  V30 4420 C 413.879 -5.97558 2.07622 0
M  V30 4421 C 412.543 -6.23432 2.38514 0
M  V30 4422 H 411.813 -0.728949 -0.133097 0
M  V30 4423 H 414.46 -1.8793 0.368059 0
M  V30 4424 H 412.765 -3.56848 -1.61761 0
M  V30 4425 H 414.462 -3.79415 -1.29789 0
M  V30 4426 H 411.052 -4.28572 0.0488649 0
M  V30 4427 H 415.236 -4.89527 0.817149 0
M  V30 4428 H 410.492 -5.8143 1.89074 0
M  V30 4429 H 414.666 -6.43735 2.65666 0
M  V30 4430 H 412.293 -6.89594 3.19943 0
M  V30 4431 N 413.868 0.0150385 -1.57593 0
M  V30 4432 C 415.145 0.7392 -1.81094 0
M  V30 4433 C 415.525 1.92817 -0.859344 0
M  V30 4434 O 414.873 2.28301 0.095362 0
M  V30 4435 C 415.083 1.15907 -3.29191 0
M  V30 4436 C 416.431 1.56918 -3.9454 0
M  V30 4437 O 417.455 1.25328 -3.33424 0
M  V30 4438 O 416.314 2.15604 -5.02173 0
M  V30 4439 H 413.408 0.358631 -0.745193 0
M  V30 4440 H 415.954 -0.00926156 -1.69697 0
M  V30 4441 H 414.726 0.310921 -3.90063 0
M  V30 4442 H 414.349 1.96711 -3.45529 0
M  V30 4443 N 415.346 1.54954 0.287554 0
M  V30 4444 C 416.762 1.46469 0.633964 0
M  V30 4445 C 416.962 0.666865 1.90145 0
M  V30 4446 O 416.018 0.179906 2.51858 0
M  V30 4447 C 417.331 2.90556 0.774454 0
M  V30 4448 C 418.879 3.00681 0.869462 0
M  V30 4449 C 419.354 4.45993 1.04184 0
M  V30 4450 N 420.845 4.4976 1.10772 0
M  V30 4451 C 421.58 5.59393 1.25964 0
M  V30 4452 N 421.076 6.78923 1.37968 0
M  V30 4453 N 422.869 5.47107 1.28959 0
M  V30 4454 H 415.02 2.05288 -0.545041 0
M  V30 4455 H 417.283 0.930305 -0.182308 0
M  V30 4456 H 416.989 3.51594 -0.086207 0
M  V30 4457 H 416.863 3.38743 1.6593 0
M  V30 4458 H 419.25 2.39749 1.7206 0
M  V30 4459 H 419.331 2.55769 -0.0396831 0
M  V30 4460 H 418.975 5.07524 0.195422 0
M  V30 4461 H 418.905 4.88548 1.96542 0
M  V30 4462 H 421.396 3.63651 1.02794 0
M  V30 4463 H 421.709 7.58231 1.49353 0
M  V30 4464 H 420.054 6.81763 1.34999 0
M  V30 4465 H 423.245 4.52668 1.19202 0
M  V30 4466 H 423.418 6.32595 1.40455 0
M  V30 4467 N 416.824 -0.551391 1.4764 0
M  V30 4468 C 418.072 -1.30572 1.54258 0
M  V30 4469 C 418.393 -1.93877 0.208963 0
M  V30 4470 O 417.663 -1.80234 -0.767619 0
M  V30 4471 H 416.243 -0.484894 0.568231 0
M  V30 4472 H 418.905 -0.643402 1.83974 0
M  V30 4473 H 418.001 -2.09621 2.31226 0
M  V30 4474 N 418.302 -1.35869 -0.798587 0
M  V30 4475 C 419.713 -1.26498 -1.37314 0
M  V30 4476 C 420.064 0.0991899 -1.95949 0
M  V30 4477 O 419.189 1.0004 -1.91888 0
M  V30 4478 C 419.784 -2.29054 -2.49639 0
M  V30 4479 C 418.343 -2.234 -3.02935 0
M  V30 4480 C 417.49 -2.14329 -1.75949 0
M  V30 4481 H 420.441 -1.46881 -0.600971 0
M  V30 4482 H 420.462 -1.92166 -3.28409 0
M  V30 4483 H 419.974 -3.2833 -2.06933 0
M  V30 4484 H 418.075 -1.27562 -3.50084 0
M  V30 4485 H 418.188 -3.15703 -3.60372 0
M  V30 4486 H 416.552 -1.60435 -1.9782 0
M  V30 4487 H 417.335 -3.15477 -1.35384 0
M  V30 4488 N 419.78 1.02168 -1.19998 0
M  V30 4489 C 420.727 2.10601 -0.944228 0
M  V30 4490 C 421.697 1.65639 0.123664 0
M  V30 4491 O 422.882 1.9079 -0.0199941 0
M  V30 4492 C 420.022 3.41504 -0.496865 0
M  V30 4493 C 419.135 3.99973 -1.63234 0
M  V30 4494 C 418.27 5.18915 -1.13579 0
M  V30 4495 C 417.309 5.69456 -2.24468 0
M  V30 4496 N 416.446 6.79665 -1.76068 0
M  V30 4497 H 421.286 2.31814 -1.8726 0
M  V30 4498 H 418.823 1.13686 -0.933483 0
M  V30 4499 H 420.781 4.16626 -0.218843 0
M  V30 4500 H 419.411 3.2038 0.394508 0
M  V30 4501 H 418.463 3.21997 -2.0254 0
M  V30 4502 H 419.775 4.33492 -2.46752 0
M  V30 4503 H 418.929 6.01222 -0.813429 0
M  V30 4504 H 417.668 4.8695 -0.270434 0
M  V30 4505 H 416.673 4.85757 -2.57526 0
M  V30 4506 H 417.898 6.03459 -3.11472 0
M  V30 4507 H 415.844 6.49538 -0.918516 0
M  V30 4508 H 415.761 7.12349 -2.5317 0
M  V30 4509 H 417.029 7.65549 -1.46817 0
M  V30 4510 N 421.258 1.00505 1.21394 0
M  V30 4511 C 422.208 0.536503 2.21598 0
M  V30 4512 C 423.192 -0.401914 1.55799 0
M  V30 4513 O 424.384 -0.226757 1.75541 0
M  V30 4514 C 421.513 -0.135446 3.43033 0
M  V30 4515 C 420.599 0.823992 4.16018 0
M  V30 4516 N 420.99 1.97683 4.6557 0
M  V30 4517 C 419.288 0.642387 4.4135 0
M  V30 4518 C 419.989 2.58003 5.21354 0
M  V30 4519 N 418.965 1.86162 5.1073 0
M  V30 4520 H 422.767 1.41557 2.57563 0
M  V30 4521 H 420.281 0.868878 1.37202 0
M  V30 4522 H 422.278 -0.488584 4.14027 0
M  V30 4523 H 420.938 -1.01049 3.08576 0
M  V30 4524 H 421.949 2.3572 4.61147 0
M  V30 4525 H 418.626 -0.185578 4.17087 0
M  V30 4526 H 420.016 3.555 5.70149 0
M  V30 4527 N 422.737 -1.36956 0.779787 0
M  V30 4528 C 424.148 -1.82094 0.412156 0
M  V30 4529 C 424.499 -1.64926 -1.06273 0
M  V30 4530 O 423.624 -1.16483 -1.82375 0
M  V30 4531 C 424.219 -3.3059 0.741319 0
M  V30 4532 C 422.778 -3.73974 0.426641 0
M  V30 4533 C 421.925 -2.59368 0.980987 0
M  V30 4534 H 424.876 -1.25314 0.973758 0
M  V30 4535 H 424.897 -3.80489 0.028887 0
M  V30 4536 H 424.409 -3.43054 1.81482 0
M  V30 4537 H 422.51 -3.67076 -0.639215 0
M  V30 4538 H 422.623 -4.69778 0.940515 0
M  V30 4539 H 420.987 -2.51463 0.404757 0
M  V30 4540 H 421.77 -2.74621 2.06005 0
M  V30 4541 N 424.215 -0.530993 -1.48385 0
M  V30 4542 C 425.162 0.231223 -2.29639 0
M  V30 4543 C 426.132 0.932864 -1.37429 0
M  V30 4544 O 427.317 0.933692 -1.66394 0
M  V30 4545 C 424.457 1.27155 -3.2082 0
M  V30 4546 C 423.57 0.578655 -4.28107 0
M  V30 4547 C 422.705 1.602 -5.06467 0
M  V30 4548 C 421.744 0.892625 -6.05556 0
M  V30 4549 N 420.881 1.86157 -6.76971 0
M  V30 4550 H 425.721 -0.467848 -2.94305 0
M  V30 4551 H 423.258 -0.242556 -1.45086 0
M  V30 4552 H 425.216 1.88703 -3.72085 0
M  V30 4553 H 423.846 1.939 -2.58075 0
M  V30 4554 H 422.898 -0.150782 -3.80101 0
M  V30 4555 H 424.21 0.0217065 -4.98795 0
M  V30 4556 H 423.364 2.29173 -5.61751 0
M  V30 4557 H 422.103 2.19285 -4.35621 0
M  V30 4558 H 421.108 0.188829 -5.49476 0
M  V30 4559 H 422.333 0.307878 -6.78402 0
M  V30 4560 H 420.279 2.44147 -6.08875 0
M  V30 4561 H 420.196 1.35608 -7.43738 0
M  V30 4562 H 421.464 2.54325 -7.36844 0
M  V30 4563 N 425.693 1.55336 -0.266172 0
M  V30 4564 C 426.643 2.18848 0.639497 0
M  V30 4565 C 427.627 1.1503 1.12503 0
M  V30 4566 O 428.819 1.40875 1.0716 0
M  V30 4567 C 425.948 2.90626 1.82733 0
M  V30 4568 C 425.034 4.01723 1.35939 0
M  V30 4569 N 425.425 5.02145 0.606988 0
M  V30 4570 C 423.723 4.1463 1.6431 0
M  V30 4571 C 424.424 5.80572 0.362138 0
M  V30 4572 N 423.4 5.35551 0.931971 0
M  V30 4573 H 427.202 2.93845 0.0567057 0
M  V30 4574 H 424.716 1.62252 -0.0693312 0
M  V30 4575 H 426.713 3.34569 2.48735 0
M  V30 4576 H 425.373 2.17137 2.41416 0
M  V30 4577 H 426.384 5.17271 0.255198 0
M  V30 4578 H 423.061 3.52326 2.23993 0
M  V30 4579 H 424.451 6.71472 -0.239848 0
M  V30 4580 N 427.171 -0.0066808 1.57599 0
M  V30 4581 C 428.101 -0.999296 2.11036 0
M  V30 4582 C 429.082 -1.36278 1.01795 0
M  V30 4583 O 430.267 -1.4477 1.29442 0
M  V30 4584 C 427.397 -2.29328 2.60818 0
M  V30 4585 C 426.351 -2.07159 3.74525 0
M  V30 4586 C 425.677 -3.42512 4.10596 0
M  V30 4587 C 426.977 -1.43959 5.02069 0
M  V30 4588 H 428.671 -0.554382 2.94223 0
M  V30 4589 H 426.217 -0.265221 1.41536 0
M  V30 4590 H 428.17 -2.99117 2.96828 0
M  V30 4591 H 426.894 -2.7592 1.74745 0
M  V30 4592 H 425.553 -1.39797 3.38899 0
M  V30 4593 H 425.201 -3.86795 3.21556 0
M  V30 4594 H 424.901 -3.28498 4.87199 0
M  V30 4595 H 426.425 -4.13628 4.4916 0
M  V30 4596 H 427.839 -2.03696 5.35893 0
M  V30 4597 H 426.236 -1.40452 5.83432 0
M  V30 4598 H 427.306 -0.407992 4.83181 0
M  V30 4599 N 428.649 -1.55105 -0.279332 0
M  V30 4600 C 429.896 -1.75412 -1.01177 0
M  V30 4601 C 430.224 -0.551728 -1.86511 0
M  V30 4602 O 429.479 0.465919 -1.90073 0
M  V30 4603 C 429.778 -3.0086 -1.92919 0
M  V30 4604 C 429.444 -4.33689 -1.23387 0
M  V30 4605 C 428.106 -4.69792 -1.04159 0
M  V30 4606 C 430.458 -5.15941 -0.738562 0
M  V30 4607 C 427.786 -5.85707 -0.341166 0
M  V30 4608 C 430.138 -6.32579 -0.0517636 0
M  V30 4609 C 428.802 -6.67326 0.152292 0
M  V30 4610 H 428.072 -0.641879 -0.370233 0
M  V30 4611 H 430.719 -1.89373 -0.284627 0
M  V30 4612 H 429.024 -2.81773 -2.72234 0
M  V30 4613 H 430.721 -3.13768 -2.49701 0
M  V30 4614 H 427.311 -4.05309 -1.39364 0
M  V30 4615 H 431.495 -4.8853 -0.874764 0
M  V30 4616 H 426.751 -6.11157 -0.172287 0
M  V30 4617 H 430.925 -6.9557 0.339828 0
M  V30 4618 H 428.552 -7.56998 0.697014 0
M  V30 4619 N 430.127 0.543554 -1.4793 0
M  V30 4620 C 431.374 1.30008 -1.55255 0
M  V30 4621 C 431.702 1.93245 -0.220612 0
M  V30 4622 O 430.957 1.79141 0.787843 0
M  V30 4623 C 431.256 2.42078 -2.62932 0
M  V30 4624 C 430.922 1.96583 -4.0579 0
M  V30 4625 C 429.584 1.83893 -4.44676 0
M  V30 4626 C 431.936 1.62034 -4.95373 0
M  V30 4627 C 429.264 1.34969 -5.70964 0
M  V30 4628 C 431.616 1.14577 -6.22137 0
M  V30 4629 C 430.28 1.00493 -6.59892 0
M  V30 4630 H 429.55 0.475735 -0.568117 0
M  V30 4631 H 432.197 0.608075 -1.81589 0
M  V30 4632 H 430.502 3.16892 -2.30406 0
M  V30 4633 H 432.199 3.00236 -2.65818 0
M  V30 4634 H 428.789 2.07407 -3.75074 0
M  V30 4635 H 432.973 1.70705 -4.66019 0
M  V30 4636 H 428.229 1.2274 -5.98953 0
M  V30 4637 H 432.403 0.869109 -6.90955 0
M  V30 4638 H 430.03 0.623624 -7.57638 0
M  V30 4639 N 431.605 1.3629 0.791371 0
M  V30 4640 C 432.851 1.30605 1.55146 0
M  V30 4641 C 433.184 -0.115042 1.93859 0
M  V30 4642 O 432.459 -1.06798 1.62556 0
M  V30 4643 C 432.742 2.22692 2.82985 0
M  V30 4644 C 432.595 3.73489 2.50651 0
M  V30 4645 C 433.914 2.13588 3.84796 0
M  V30 4646 H 431.033 0.475761 0.562868 0
M  V30 4647 H 433.675 1.66825 0.909358 0
M  V30 4648 H 431.825 1.91933 3.37778 0
M  V30 4649 H 433.497 4.14758 2.01924 0
M  V30 4650 H 431.74 3.93021 1.83622 0
M  V30 4651 H 432.411 4.3333 3.41949 0
M  V30 4652 H 434.887 2.40659 3.39445 0
M  V30 4653 H 433.763 2.80195 4.71998 0
M  V30 4654 H 434.024 1.12256 4.27611 0
M  V30 4655 N 433.083 -1.0153 1.20538 0
M  V30 4656 C 434.323 -1.76689 1.02763 0
M  V30 4657 C 434.687 -1.87065 -0.432513 0
M  V30 4658 O 435.888 -2.58684 -0.730481 0
M  V30 4659 C 434.159 -3.14707 1.69393 0
M  V30 4660 S 435.718 -4.05886 1.66738 0
M  V30 4661 H 432.536 -0.608076 0.368463 0
M  V30 4662 H 435.138 -1.21558 1.53114 0
M  V30 4663 H 433.842 -3.04782 2.74838 0
M  V30 4664 H 433.373 -3.74913 1.19179 0
M  V30 4665 H 435.388 -4.91221 0.70117 0
M  V30 4666 N 434.561 -1.01147 -1.20859 0
M  V30 4667 C 435.491 -0.597663 -2.25722 0
M  V30 4668 C 436.472 0.384744 -1.65692 0
M  V30 4669 O 437.657 0.271303 -1.92296 0
M  V30 4670 C 434.787 0.0700149 -3.47229 0
M  V30 4671 C 433.741 -0.832843 -4.19819 0
M  V30 4672 C 433.067 -0.0312202 -5.34691 0
M  V30 4673 C 434.367 -2.1385 -4.76514 0
M  V30 4674 H 436.061 -1.47423 -2.60589 0
M  V30 4675 H 433.607 -0.710301 -1.25263 0
M  V30 4676 H 435.56 0.37103 -4.19763 0
M  V30 4677 H 434.284 0.981259 -3.11511 0
M  V30 4678 H 432.943 -1.11778 -3.49144 0
M  V30 4679 H 432.591 0.881515 -4.95215 0
M  V30 4680 H 432.291 -0.632434 -5.84187 0
M  V30 4681 H 433.815 0.26346 -6.10031 0
M  V30 4682 H 435.229 -1.9002 -5.40893 0
M  V30 4683 H 433.626 -2.69012 -5.36426 0
M  V30 4684 H 434.696 -2.80495 -3.95538 0
M  V30 4685 N 436.039 1.36541 -0.78704 0
M  V30 4686 C 437.267 2.03561 -0.370199 0
M  V30 4687 C 437.682 1.59347 1.01263 0
M  V30 4688 O 437.039 0.781781 1.64907 0
M  V30 4689 C 437.09 3.59033 -0.421614 0
M  V30 4690 O 436.811 4.01634 -1.7499 0
M  V30 4691 C 438.312 4.433 0.00489763 0
M  V30 4692 H 435.532 0.653346 -0.152904 0
M  V30 4693 H 438.076 1.74566 -1.06522 0
M  V30 4694 H 436.231 3.86746 0.224971 0
M  V30 4695 H 436.645 4.96217 -1.69909 0
M  V30 4696 H 438.119 5.51939 -0.0822184 0
M  V30 4697 H 438.596 4.26285 1.05723 0
M  V30 4698 H 439.202 4.20843 -0.614085 0
M  V30 4699 N 437.518 0.538854 1.48102 0
M  V30 4700 C 438.468 -0.23907 2.26743 0
M  V30 4701 C 439.452 -0.901923 1.33245 0
M  V30 4702 O 440.644 -0.803263 1.57723 0
M  V30 4703 C 437.773 -1.2799 3.18549 0
M  V30 4704 C 436.859 -0.621388 4.19523 0
M  V30 4705 N 437.25 0.298004 5.04921 0
M  V30 4706 C 435.548 -0.877533 4.37282 0
M  V30 4707 C 436.249 0.678757 5.77726 0
M  V30 4708 N 435.225 0.0377881 5.43587 0
M  V30 4709 H 439.027 0.468096 2.90148 0
M  V30 4710 H 436.541 0.357497 1.58416 0
M  V30 4711 H 438.538 -1.851 3.73555 0
M  V30 4712 H 437.198 -1.98835 2.567 0
M  V30 4713 H 438.209 0.671126 5.13533 0
M  V30 4714 H 434.886 -1.57588 3.86616 0
M  V30 4715 H 436.276 1.43316 6.56437 0
M  V30 4716 N 438.996 -1.55193 0.274407 0
M  V30 4717 C 440.243 -1.99581 -0.342579 0
M  V30 4718 C 440.571 -1.1628 -1.55914 0
M  V30 4719 O 439.826 -0.22029 -1.94456 0
M  V30 4720 C 440.125 -3.49019 -0.769458 0
M  V30 4721 C 439.791 -4.49598 0.342389 0
M  V30 4722 C 438.453 -4.76821 0.647686 0
M  V30 4723 C 440.805 -5.0964 1.09163 0
M  V30 4724 C 438.133 -5.61354 1.70581 0
M  V30 4725 C 440.485 -5.95323 2.13948 0
M  V30 4726 C 439.149 -6.20867 2.45113 0
M  V30 4727 H 438.419 -0.730319 -0.125358 0
M  V30 4728 H 441.066 -1.87529 0.387971 0
M  V30 4729 H 439.371 -3.58544 -1.57967 0
M  V30 4730 H 441.068 -3.8077 -1.25757 0
M  V30 4731 H 437.658 -4.28496 0.094318 0
M  V30 4732 H 441.842 -4.88632 0.869024 0
M  V30 4733 H 437.098 -5.79392 1.9523 0
M  V30 4734 H 441.272 -6.40881 2.72478 0
M  V30 4735 H 438.899 -6.86162 3.27239 0
M  V30 4736 N 440.474 -0.00167713 -1.576 0
M  V30 4737 C 441.699 0.69739 -1.95323 0
M  V30 4738 C 442.124 1.6642 -0.876706 0
M  V30 4739 O 441.482 1.80548 0.165007 0
M  V30 4740 C 441.53 1.40403 -3.32144 0
M  V30 4741 O 440.634 2.5185 -3.26566 0
M  V30 4742 H 439.975 0.185373 -0.637599 0
M  V30 4743 H 442.505 -0.0553665 -2.04525 0
M  V30 4744 H 442.515 1.76707 -3.67748 0
M  V30 4745 H 441.19 0.695167 -4.10049 0
M  V30 4746 H 439.767 2.17861 -3.0264 0
M  V30 4747 N 441.952 1.55251 0.271103 0
M  V30 4748 C 442.862 1.9136 1.35714 0
M  V30 4749 C 443.878 0.811075 1.5394 0
M  V30 4750 O 445.054 1.11031 1.6803 0
M  V30 4751 C 442.119 2.1798 2.69603 0
M  V30 4752 C 441.18 3.4153 2.60107 0
M  V30 4753 C 440.413 3.66871 3.8761 0
M  V30 4754 O 440.636 2.94689 4.8838 0
M  V30 4755 O 439.57 4.60405 3.87699 0
M  V30 4756 H 443.396 2.83815 1.08088 0
M  V30 4757 H 440.981 1.41821 0.469792 0
M  V30 4758 H 442.863 2.36518 3.48765 0
M  V30 4759 H 441.538 1.28708 2.97012 0
M  V30 4760 H 440.445 3.28325 1.79314 0
M  V30 4761 H 441.778 4.31027 2.37647 0
M  V30 4762 N 443.43 -0.535701 1.48216 0
M  V30 4763 C 444.658 -1.31671 1.59594 0
M  V30 4764 C 445.073 -1.87083 0.254056 0
M  V30 4765 O 444.43 -1.66112 -0.755854 0
M  V30 4766 C 444.481 -2.47158 2.63809 0
M  V30 4767 O 444.202 -1.94032 3.92789 0
M  V30 4768 C 445.703 -3.39062 2.85573 0
M  V30 4769 H 442.923 -0.400623 0.538277 0
M  V30 4770 H 445.467 -0.646827 1.94001 0
M  V30 4771 H 443.622 -3.10043 2.32276 0
M  V30 4772 H 444.036 -2.69585 4.49916 0
M  V30 4773 H 445.51 -4.16459 3.62306 0
M  V30 4774 H 445.987 -3.93941 1.94184 0
M  V30 4775 H 446.593 -2.81975 3.18387 0
M  V30 4776 N 444.908 -1.36708 -0.784132 0
M  V30 4777 C 446.154 -1.31426 -1.54451 0
M  V30 4778 C 446.487 0.10476 -1.93917 0
M  V30 4779 O 445.762 1.05934 -1.6312 0
M  V30 4780 C 446.045 -2.24189 -2.818 0
M  V30 4781 C 445.898 -3.74813 -2.48667 0
M  V30 4782 C 447.217 -2.15626 -3.83658 0
M  V30 4783 H 444.336 -0.478739 -0.560337 0
M  V30 4784 H 446.978 -1.67305 -0.900498 0
M  V30 4785 H 445.128 -1.93722 -3.36755 0
M  V30 4786 H 446.8 -4.15823 -1.99722 0
M  V30 4787 H 445.043 -3.93989 -1.81535 0
M  V30 4788 H 445.714 -4.35138 -3.39646 0
M  V30 4789 H 448.19 -2.42456 -3.38163 0
M  V30 4790 H 447.066 -2.82694 -4.70506 0
M  V30 4791 H 447.327 -1.14522 -4.27009 0
M  V30 4792 N 446.386 1.0089 -1.21074 0
M  V30 4793 C 447.333 2.09588 -0.966512 0
M  V30 4794 C 448.303 1.65761 0.106089 0
M  V30 4795 O 449.488 1.90758 -0.0402287 0
M  V30 4796 C 446.628 3.40958 -0.533058 0
M  V30 4797 C 445.741 3.9822 -1.67467 0
M  V30 4798 C 444.876 5.17682 -1.19076 0
M  V30 4799 C 443.915 5.67043 -2.30496 0
M  V30 4800 N 443.052 6.77759 -1.83267 0
M  V30 4801 H 447.892 2.29815 -1.89708 0
M  V30 4802 H 445.429 1.12689 -0.945489 0
M  V30 4803 H 447.387 4.1637 -0.263019 0
M  V30 4804 H 446.017 3.20781 0.360505 0
M  V30 4805 H 445.069 3.1983 -2.05944 0
M  V30 4806 H 446.381 4.3085 -2.51336 0
M  V30 4807 H 445.535 6.00326 -0.877151 0
M  V30 4808 H 444.274 4.86635 -0.322066 0
M  V30 4809 H 443.279 4.82999 -2.62664 0
M  V30 4810 H 444.504 6.00121 -3.17855 0
M  V30 4811 H 442.45 6.48527 -0.987356 0
M  V30 4812 H 442.367 7.09624 -2.60711 0
M  V30 4813 H 443.635 7.63949 -1.54928 0
M  V30 4814 N 447.864 1.01787 1.20321 0
M  V30 4815 C 449.112 0.706538 1.89347 0
M  V30 4816 C 449.433 -0.766289 1.79313 0
M  V30 4817 O 448.703 -1.55126 1.19635 0
M  V30 4818 H 447.283 0.258348 0.700903 0
M  V30 4819 H 449.945 1.28974 1.46122 0
M  V30 4820 H 449.041 0.991066 2.95946 0
M  V30 4821 N 449.342 -1.36122 0.79427 0
M  V30 4822 C 450.572 -2.03067 0.380437 0
M  V30 4823 C 450.98 -1.60018 -1.00949 0
M  V30 4824 O 450.323 -0.787425 -1.65968 0
M  V30 4825 C 450.385 -3.57587 0.37034 0
M  V30 4826 C 450.049 -4.23855 1.70867 0
M  V30 4827 C 451.046 -4.46404 2.66496 0
M  V30 4828 C 448.731 -4.61229 1.9893 0
M  V30 4829 C 450.725 -5.05412 3.88378 0
M  V30 4830 C 448.412 -5.19953 3.21079 0
M  V30 4831 C 449.41 -5.41985 4.15621 0
M  V30 4832 O 449.098 -5.99475 5.35616 0
M  V30 4833 H 448.83 -0.658168 0.154243 0
M  V30 4834 H 451.384 -1.7498 1.0757 0
M  V30 4835 H 449.614 -3.84814 -0.381444 0
M  V30 4836 H 451.303 -4.05895 -0.0194894 0
M  V30 4837 H 452.069 -4.17921 2.46103 0
M  V30 4838 H 447.948 -4.43402 1.26158 0
M  V30 4839 H 451.492 -5.22524 4.62185 0
M  V30 4840 H 447.389 -5.47862 3.41347 0
M  V30 4841 H 448.157 -6.17937 5.36745 0
M  V30 4842 N 450.82 -0.546701 -1.47814 0
M  V30 4843 C 452.066 -0.0187684 -2.02791 0
M  V30 4844 C 452.399 1.32338 -1.42128 0
M  V30 4845 O 451.674 1.85867 -0.573023 0
M  V30 4846 C 451.957 0.0854985 -3.59998 0
M  V30 4847 C 451.81 -1.283 -4.31114 0
M  V30 4848 C 453.129 0.80412 -4.32691 0
M  V30 4849 H 450.248 -0.0082946 -0.736953 0
M  V30 4850 H 452.89 -0.706962 -1.76358 0
M  V30 4851 H 451.04 0.671609 -3.82651 0
M  V30 4852 H 452.712 -1.91151 -4.19832 0
M  V30 4853 H 450.955 -1.86049 -3.91878 0
M  V30 4854 H 451.626 -1.16287 -5.39612 0
M  V30 4855 H 454.102 0.306576 -4.14969 0
M  V30 4856 H 452.978 0.846011 -5.42341 0
M  V30 4857 H 453.239 1.85802 -4.01161 0
M  V30 4858 N 452.299 1.55045 -0.282633 0
M  V30 4859 C 453.262 2.21515 0.588539 0
M  V30 4860 C 454.262 1.19535 1.07554 0
M  V30 4861 O 455.452 1.44391 0.974514 0
M  V30 4862 C 452.584 2.88704 1.8128 0
M  V30 4863 H 453.777 2.99899 0.00806397 0
M  V30 4864 H 451.33 1.56265 -0.0333067 0
M  V30 4865 H 452.065 2.14352 2.43359 0
M  V30 4866 H 451.85 3.63443 1.47144 0
M  V30 4867 H 453.34 3.39465 2.43214 0
M  V30 4868 N 453.777 0.010035 1.57597 0
M  V30 4869 C 455.024 -0.6727 1.91 0
M  V30 4870 C 455.352 -1.73219 0.884614 0
M  V30 4871 O 454.607 -1.95395 -0.109215 0
M  V30 4872 C 454.906 -1.34434 3.31153 0
M  V30 4873 C 454.572 -0.417083 4.48967 0
M  V30 4874 C 453.234 -0.161809 4.80928 0
M  V30 4875 C 455.586 0.220753 5.20732 0
M  V30 4876 C 452.914 0.739426 5.82022 0
M  V30 4877 C 455.266 1.10993 6.22787 0
M  V30 4878 C 453.93 1.37428 6.532 0
M  V30 4879 H 453.2 -0.246158 0.698918 0
M  V30 4880 H 455.847 0.0677145 1.9138 0
M  V30 4881 H 454.152 -2.15905 3.26944 0
M  V30 4882 H 455.849 -1.87883 3.54261 0
M  V30 4883 H 452.439 -0.626217 4.24001 0
M  V30 4884 H 456.623 0.0365643 4.96287 0
M  V30 4885 H 451.879 0.952139 6.03941 0
M  V30 4886 H 456.053 1.61046 6.77523 0
M  V30 4887 H 453.68 2.0743 7.31353 0
M  V30 4888 N 455.255 -1.55392 -0.262866 0
M  V30 4889 C 456.202 -1.88966 -1.32516 0
M  V30 4890 C 457.172 -0.742187 -1.48596 0
M  V30 4891 O 458.357 -0.99439 -1.62839 0
M  V30 4892 C 455.497 -2.17592 -2.67858 0
M  V30 4893 C 454.61 -3.45061 -2.59917 0
M  V30 4894 C 453.745 -3.63336 -3.87505 0
M  V30 4895 C 452.784 -4.84462 -3.74116 0
M  V30 4896 N 451.921 -4.99342 -4.93561 0
M  V30 4897 H 456.761 -2.79566 -1.03184 0
M  V30 4898 H 454.298 -1.38404 -0.498285 0
M  V30 4899 H 456.256 -2.3219 -3.46617 0
M  V30 4900 H 454.886 -1.30215 -2.95371 0
M  V30 4901 H 453.938 -3.38881 -1.72812 0
M  V30 4902 H 455.25 -4.3396 -2.45926 0
M  V30 4903 H 454.404 -3.77807 -4.74707 0
M  V30 4904 H 453.143 -2.72641 -4.04374 0
M  V30 4905 H 452.148 -4.69985 -2.85297 0
M  V30 4906 H 453.373 -5.76603 -3.58757 0
M  V30 4907 H 451.319 -4.1158 -5.10821 0
M  V30 4908 H 451.236 -5.82303 -4.82141 0
M  V30 4909 H 452.504 -5.18208 -5.82306 0
M  V30 4910 N 456.733 0.527833 -1.48498 0
M  V30 4911 C 458.144 1.10975 -1.50138 0
M  V30 4912 C 458.495 1.943 -0.272378 0
M  V30 4913 O 457.62 2.07319 0.620301 0
M  V30 4914 C 458.215 2.01927 -2.72049 0
M  V30 4915 C 456.774 2.55332 -2.76554 0
M  V30 4916 C 455.921 1.32341 -2.43683 0
M  V30 4917 H 458.872 0.312986 -1.55583 0
M  V30 4918 H 458.893 2.86244 -2.50689 0
M  V30 4919 H 458.405 1.41254 -3.61481 0
M  V30 4920 H 456.506 3.19721 -1.91336 0
M  V30 4921 H 456.619 2.94319 -3.78038 0
M  V30 4922 H 454.983 1.63989 -1.94884 0
M  V30 4923 H 455.766 0.734165 -3.35358 0
M  V30 4924 N 458.211 1.37122 0.776871 0
M  V30 4925 C 459.439 1.3523 1.5659 0
M  V30 4926 C 459.854 -0.0635518 1.88693 0
M  V30 4927 O 459.211 -1.02394 1.51069 0
M  V30 4928 C 459.262 2.18583 2.8793 0
M  V30 4929 O 458.983 3.5465 2.57206 0
M  V30 4930 C 460.484 2.24612 3.82183 0
M  V30 4931 H 457.704 0.4634 0.485285 0
M  V30 4932 H 460.248 1.80392 0.963266 0
M  V30 4933 H 458.403 1.76943 3.4463 0
M  V30 4934 H 458.817 3.98286 3.41275 0
M  V30 4935 H 460.291 2.87267 4.71361 0
M  V30 4936 H 460.768 1.25309 4.20944 0
M  V30 4937 H 461.374 2.66543 3.31414 0
M  V30 4938 N 459.689 -1.00246 1.21608 0
M  V30 4939 C 460.637 -2.11193 0.97469 0
M  V30 4940 C 461.631 -1.69216 -0.0789303 0
M  V30 4941 O 462.837 -1.79853 0.0726806 0
M  V30 4942 H 459.212 -0.690455 0.297953 0
M  V30 4943 H 461.183 -2.2873 1.91638 0
M  V30 4944 C 459.932 -3.43182 0.558717 0
M  V30 4945 H 459.255 -3.75918 1.3611 0
M  V30 4946 H 460.695 -4.21823 0.429154 0
M  V30 4947 C 459.154 -3.28882 -0.730648 0
M  V30 4948 O 459.684 -3.59835 -1.78554 0
M  V30 4949 N 457.89 -2.8209 -0.698131 0
M  V30 4950 H 457.437 -2.57099 0.16061 0
M  V30 4951 H 457.395 -2.72903 -1.56113 0
M  V30 4952 N 461.167 -1.02423 -1.1978 0
M  V30 4953 C 462.097 -0.62157 -2.25075 0
M  V30 4954 C 463.078 0.367148 -1.6609 0
M  V30 4955 O 464.263 0.250892 -1.92573 0
M  V30 4956 C 461.393 0.0331826 -3.47284 0
M  V30 4957 C 460.347 -0.877323 -4.18912 0
M  V30 4958 C 459.673 -0.0879296 -5.34628 0
M  V30 4959 C 460.973 -2.18892 -4.74219 0
M  V30 4960 H 462.667 -1.50179 -2.59011 0
M  V30 4961 H 460.213 -0.723547 -1.24502 0
M  V30 4962 H 462.166 0.326488 -4.20133 0
M  V30 4963 H 460.89 0.948164 -3.12534 0
M  V30 4964 H 459.549 -1.15475 -3.47938 0
M  V30 4965 H 459.197 0.828941 -4.96123 0
M  V30 4966 H 458.897 -0.694359 -5.83483 0
M  V30 4967 H 460.421 0.198743 -6.10276 0
M  V30 4968 H 461.835 -1.95746 -5.38847 0
M  V30 4969 H 460.232 -2.74686 -5.33542 0
M  V30 4970 H 461.302 -2.84674 -3.92541 0
M  V30 4971 N 462.645 1.35699 -0.801477 0
M  V30 4972 C 463.922 1.9324 -0.302937 0
M  V30 4973 C 464.302 1.73209 1.20672 0
M  V30 4974 O 463.65 1.09809 2.00385 0
M  V30 4975 C 463.86 3.41728 -0.708747 0
M  V30 4976 C 465.208 4.18868 -0.695328 0
M  V30 4977 O 466.232 3.5022 -0.649971 0
M  V30 4978 O 465.091 5.41342 -0.749081 0
M  V30 4979 H 462.185 0.82331 -0.0780367 0
M  V30 4980 H 464.731 1.44806 -0.884832 0
M  V30 4981 H 463.503 3.50015 -1.74944 0
M  V30 4982 H 463.126 3.97471 -0.101384 0
M  V30 4983 N 464.123 0.554532 1.47522 0
M  V30 4984 C 465.071 -0.207765 2.3167 0
M  V30 4985 C 466.065 -0.911914 1.4276 0
M  V30 4986 O 467.271 -0.833504 1.59539 0
M  V30 4987 H 463.646 -0.0858726 0.747081 0
M  V30 4988 H 465.617 0.521178 2.93813 0
M  V30 4989 C 464.366 -1.2263 3.25357 0
M  V30 4990 H 463.689 -0.693887 3.93732 0
M  V30 4991 H 465.129 -1.73062 3.87073 0
M  V30 4992 C 463.588 -2.27278 2.4869 0
M  V30 4993 O 464.118 -3.34156 2.22941 0
M  V30 4994 N 462.324 -2.01134 2.09746 0
M  V30 4995 H 461.871 -1.14232 2.30887 0
M  V30 4996 H 461.829 -2.71369 1.58765 0
M  V30 4997 N 465.601 -1.54893 0.290851 0
M  V30 4998 C 466.829 -2.04343 -0.324288 0
M  V30 4999 C 467.244 -1.16859 -1.48289 0
M  V30 5000 O 466.601 -0.192018 -1.81487 0
M  V30 5001 C 466.652 -3.52756 -0.79026 0
M  V30 5002 O 466.373 -4.36913 0.322213 0
M  V30 5003 C 467.874 -4.18161 -1.4716 0
M  V30 5004 H 465.094 -0.667135 -0.0719173 0
M  V30 5005 H 467.638 -1.99981 0.427529 0
M  V30 5006 H 465.793 -3.57511 -1.49213 0
M  V30 5007 H 466.207 -5.24486 -0.0387372 0
M  V30 5008 H 467.681 -5.23562 -1.7489 0
M  V30 5009 H 468.158 -3.67282 -2.40834 0
M  V30 5010 H 468.764 -4.17454 -0.813178 0
M  V30 5011 N 467.08 -0.0183926 -1.57589 0
M  V30 5012 C 468.329 0.66185 -1.90532 0
M  V30 5013 C 468.642 1.73904 -0.895366 0
M  V30 5014 O 469.848 2.47518 -1.11566 0
M  V30 5015 C 468.304 1.22844 -3.38286 0
M  V30 5016 C 467.912 0.185103 -4.47617 0
M  V30 5017 C 469.656 1.88581 -3.80312 0
M  V30 5018 C 467.563 0.762723 -5.86461 0
M  V30 5019 H 466.493 0.250972 -0.711006 0
M  V30 5020 H 469.144 -0.0819435 -1.83317 0
M  V30 5021 H 467.526 2.0235 -3.40398 0
M  V30 5022 H 468.7 -0.58671 -4.5705 0
M  V30 5023 H 467.015 -0.372889 -4.14727 0
M  V30 5024 H 469.612 2.32735 -4.81392 0
M  V30 5025 H 469.955 2.72408 -3.14801 0
M  V30 5026 H 470.488 1.15782 -3.80578 0
M  V30 5027 H 467.227 -0.0371713 -6.55489 0
M  V30 5028 H 466.747 1.50327 -5.80656 0
M  V30 5029 H 468.426 1.25576 -6.34697 0
M  V30 5030 N 468.558 1.5553 0.254621 0
M  V30 5031 C 469.806 1.7665 0.981793 0
M  V30 5032 C 470.127 0.580963 1.86145 0
M  V30 5033 O 469.397 -0.403537 1.91699 0
M  V30 5034 H 467.977 0.651475 0.365498 0
M  V30 5035 H 470.639 1.92958 0.274426 0
M  V30 5036 H 469.735 2.67486 1.60802 0
M  V30 5037 N 470.036 -0.519951 1.48776 0
M  V30 5038 C 470.946 -1.65025 1.66745 0
M  V30 5039 C 471.962 -1.6508 0.549954 0
M  V30 5040 O 473.138 -1.83848 0.822295 0
M  V30 5041 C 470.203 -3.0146 1.71238 0
M  V30 5042 C 469.264 -3.12182 2.94688 0
M  V30 5043 C 468.497 -4.42109 2.98958 0
M  V30 5044 O 468.72 -5.29799 2.1135 0
M  V30 5045 O 467.654 -4.57406 3.91233 0
M  V30 5046 H 471.48 -1.52801 2.62461 0
M  V30 5047 H 469.065 -0.694157 1.32294 0
M  V30 5048 H 470.947 -3.82584 1.76657 0
M  V30 5049 H 469.622 -3.13988 0.786975 0
M  V30 5050 H 468.529 -2.30316 2.94797 0
M  V30 5051 H 469.862 -3.04574 3.86646 0
M  V30 5052 N 471.514 -1.37532 -0.769588 0
M  V30 5053 C 472.76 -1.33057 -1.53048 0
M  V30 5054 C 473.093 0.0841865 -1.94017 0
M  V30 5055 O 472.368 1.04198 -1.64235 0
M  V30 5056 C 472.651 -2.27166 -2.79406 0
M  V30 5057 C 472.504 -3.77429 -2.44677 0
M  V30 5058 C 473.823 -2.19683 -3.81349 0
M  V30 5059 H 470.942 -0.484655 -0.555228 0
M  V30 5060 H 473.584 -1.68251 -0.882702 0
M  V30 5061 H 471.734 -1.97283 -3.34682 0
M  V30 5062 H 473.406 -4.17918 -1.953 0
M  V30 5063 H 471.649 -3.95892 -1.77346 0
M  V30 5064 H 472.32 -4.38716 -3.35011 0
M  V30 5065 H 474.796 -2.46029 -3.35573 0
M  V30 5066 H 473.672 -2.87668 -4.67481 0
M  V30 5067 H 473.933 -1.19045 -4.25771 0
M  V30 5068 N 472.992 0.995999 -1.22138 0
M  V30 5069 C 473.922 2.10387 -1.01289 0
M  V30 5070 C 474.903 1.69975 0.0651454 0
M  V30 5071 O 476.088 1.9396 -0.0964628 0
M  V30 5072 C 473.218 3.42312 -0.586517 0
M  V30 5073 C 472.172 3.96558 -1.61014 0
M  V30 5074 C 471.498 5.24494 -1.0397 0
M  V30 5075 C 472.798 4.27595 -2.99933 0
M  V30 5076 H 474.492 2.28086 -1.93951 0
M  V30 5077 H 472.038 1.09607 -0.933928 0
M  V30 5078 H 473.991 4.19223 -0.427793 0
M  V30 5079 H 472.715 3.24431 0.375761 0
M  V30 5080 H 471.374 3.21776 -1.75658 0
M  V30 5081 H 471.022 5.02953 -0.0688703 0
M  V30 5082 H 470.722 5.61755 -1.72352 0
M  V30 5083 H 472.246 6.04042 -0.892494 0
M  V30 5084 H 473.66 4.95315 -2.8868 0
M  V30 5085 H 472.057 4.76021 -3.6541 0
M  V30 5086 H 473.127 3.35498 -3.50099 0
M  V30 5087 N 474.47 1.03057 1.19235 0
M  V30 5088 C 475.695 0.74757 1.93458 0
M  V30 5089 C 476.12 -0.687648 1.7508 0
M  V30 5090 O 475.478 -1.47499 1.05422 0
M  V30 5091 C 475.526 1.10604 3.43219 0
M  V30 5092 O 474.63 0.225671 4.11782 0
M  V30 5093 H 473.971 0.276047 0.603899 0
M  V30 5094 H 476.501 1.3777 1.51263 0
M  V30 5095 H 476.511 1.06366 3.93891 0
M  V30 5096 H 475.186 2.15165 3.55917 0
M  V30 5097 H 473.763 0.326795 3.71465 0
M  V30 5098 N 475.948 -1.35272 0.808662 0
M  V30 5099 C 476.88 -2.28507 0.178149 0
M  V30 5100 C 477.893 -1.50377 -0.623754 0
M  V30 5101 O 479.082 -1.72583 -0.455774 0
M  V30 5102 C 476.182 -3.30038 -0.769959 0
M  V30 5103 C 475.355 -4.37398 -0.0139749 0
M  V30 5104 C 474.414 -5.18775 -0.880875 0
M  V30 5105 O 473.44 -5.68236 -0.331059 0
M  V30 5106 N 474.642 -5.37087 -2.20267 0
M  V30 5107 H 477.407 -2.83255 0.979106 0
M  V30 5108 H 474.968 -1.47643 0.664308 0
M  V30 5109 H 476.96 -3.81371 -1.35418 0
M  V30 5110 H 475.53 -2.75789 -1.47171 0
M  V30 5111 H 474.75 -3.86971 0.751468 0
M  V30 5112 H 476.038 -5.06268 0.506965 0
M  V30 5113 H 475.436 -4.9855 -2.67328 0
M  V30 5114 H 473.993 -5.91593 -2.73608 0
M  V30 5115 N 477.426 -0.562348 -1.47226 0
M  V30 5116 C 478.376 0.202967 -2.27095 0
M  V30 5117 C 479.36 0.880611 -1.34663 0
M  V30 5118 O 480.552 0.778069 -1.58981 0
M  V30 5119 C 477.681 1.22906 -3.20545 0
M  V30 5120 C 476.767 0.554566 -4.20459 0
M  V30 5121 N 477.158 -0.378295 -5.04383 0
M  V30 5122 C 475.456 0.807854 -4.38623 0
M  V30 5123 C 476.157 -0.770583 -5.76573 0
M  V30 5124 N 475.133 -0.124263 -5.43458 0
M  V30 5125 H 478.935 -0.514196 -2.89367 0
M  V30 5126 H 476.449 -0.382655 -1.57827 0
M  V30 5127 H 478.446 1.79134 -3.76453 0
M  V30 5128 H 477.106 1.94726 -2.59831 0
M  V30 5129 H 478.117 -0.75274 -5.124 0
M  V30 5130 H 474.794 1.51418 -3.89075 0
M  V30 5131 H 476.184 -1.53742 -6.54074 0
M  V30 5132 N 478.904 1.54736 -0.299062 0
M  V30 5133 C 480.152 1.99706 0.31017 0
M  V30 5134 C 480.473 1.18896 1.54559 0
M  V30 5135 O 479.743 0.284445 1.93824 0
M  V30 5136 H 478.323 0.737686 0.117596 0
M  V30 5137 H 480.985 1.9054 -0.409943 0
M  V30 5138 H 480.081 3.06596 0.58355 0
M  V30 5139 N 480.382 0.0267497 1.57577 0
M  V30 5140 C 481.312 -0.954308 2.13108 0
M  V30 5141 C 482.293 -1.34088 1.04663 0
M  V30 5142 O 483.478 -1.41992 1.32484 0
M  V30 5143 C 480.608 -2.23744 2.65624 0
M  V30 5144 C 479.562 -1.99168 3.78835 0
M  V30 5145 C 478.888 -3.33726 4.17769 0
M  V30 5146 C 480.188 -1.33277 5.0501 0
M  V30 5147 H 481.882 -0.491848 2.95332 0
M  V30 5148 H 479.428 -0.23514 1.42067 0
M  V30 5149 H 481.381 -2.92754 3.03106 0
M  V30 5150 H 480.105 -2.72151 1.80558 0
M  V30 5151 H 478.764 -1.32577 3.41788 0
M  V30 5152 H 478.412 -3.79888 3.29688 0
M  V30 5153 H 478.112 -3.18089 4.94058 0
M  V30 5154 H 479.636 -4.04008 4.57832 0
M  V30 5155 H 481.05 -1.92283 5.40093 0
M  V30 5156 H 479.447 -1.28045 5.8628 0
M  V30 5157 H 480.517 -0.305411 4.83937 0
M  V30 5158 N 481.861 -1.55662 -0.24637 0
M  V30 5159 C 483.277 -1.48098 -0.594907 0
M  V30 5160 C 483.477 -0.717044 -1.8831 0
M  V30 5161 O 482.533 -0.246618 -2.51293 0
M  V30 5162 C 483.846 -2.92507 -0.697146 0
M  V30 5163 C 485.394 -3.02881 -0.789436 0
M  V30 5164 C 485.869 -4.48598 -0.923232 0
M  V30 5165 N 487.36 -4.52538 -0.988088 0
M  V30 5166 C 488.095 -5.62536 -1.11089 0
M  V30 5167 N 487.591 -6.82342 -1.19919 0
M  V30 5168 N 489.384 -5.50334 -1.14408 0
M  V30 5169 H 481.535 -2.0377 0.599278 0
M  V30 5170 H 483.798 -0.925145 0.20691 0
M  V30 5171 H 483.504 -3.51242 0.179396 0
M  V30 5172 H 483.378 -3.43024 -1.5689 0
M  V30 5173 H 485.765 -2.44226 -1.65643 0
M  V30 5174 H 485.846 -2.55574 0.107482 0
M  V30 5175 H 485.49 -5.07864 -0.0607927 0
M  V30 5176 H 485.42 -4.93587 -1.8352 0
M  V30 5177 H 487.911 -3.66248 -0.931167 0
M  V30 5178 H 488.224 -7.61924 -1.29197 0
M  V30 5179 H 486.569 -6.85102 -1.16876 0
M  V30 5180 H 489.76 -4.5567 -1.07158 0
M  V30 5181 H 489.933 -6.36096 -1.23634 0
M  V30 5182 N 483.339 0.512053 -1.4905 0
M  V30 5183 C 484.271 1.63121 -1.6101 0
M  V30 5184 C 485.284 1.55145 -0.493352 0
M  V30 5185 O 486.473 1.61278 -0.764955 0
M  V30 5186 C 483.573 3.01863 -1.54052 0
M  V30 5187 C 482.746 3.35138 -2.81072 0
M  V30 5188 C 481.805 4.5324 -2.67319 0
M  V30 5189 O 480.831 4.55571 -3.41238 0
M  V30 5190 N 482.033 5.52495 -1.78127 0
M  V30 5191 H 484.798 1.53292 -2.5753 0
M  V30 5192 H 482.359 0.699706 -1.45999 0
M  V30 5193 H 484.351 3.78774 -1.42521 0
M  V30 5194 H 482.921 3.05675 -0.654345 0
M  V30 5195 H 482.141 2.4723 -3.07036 0
M  V30 5196 H 483.429 3.54162 -3.65304 0
M  V30 5197 H 482.827 5.53403 -1.17308 0
M  V30 5198 H 481.384 6.28553 -1.72525 0
M  V30 5199 N 484.817 1.37938 0.762283 0
M  V30 5200 C 485.747 1.37176 1.88958 0
M  V30 5201 C 486.728 0.238945 1.68413 0
M  V30 5202 O 487.913 0.440726 1.89133 0
M  V30 5203 C 485.043 1.18742 3.2637 0
M  V30 5204 C 483.997 2.29136 3.61498 0
M  V30 5205 C 483.323 1.95816 4.97554 0
M  V30 5206 C 484.623 3.71363 3.6727 0
M  V30 5207 H 486.317 2.31509 1.89853 0
M  V30 5208 H 483.863 1.11438 0.912005 0
M  V30 5209 H 485.816 1.16837 4.04879 0
M  V30 5210 H 484.54 0.208683 3.25933 0
M  V30 5211 H 483.199 2.30213 2.85303 0
M  V30 5212 H 482.847 0.964475 4.93667 0
M  V30 5213 H 482.547 2.69745 5.22026 0
M  V30 5214 H 484.071 1.95513 5.78452 0
M  V30 5215 H 485.485 3.72364 4.35911 0
M  V30 5216 H 483.882 4.44425 4.03245 0
M  V30 5217 H 484.952 4.04305 2.67704 0
M  V30 5218 N 486.295 -0.989507 1.22664 0
M  V30 5219 C 487.711 -1.25395 0.987331 0
M  V30 5220 C 487.911 -1.9899 -0.317056 0
M  V30 5221 O 486.967 -2.30141 -1.03882 0
M  V30 5222 C 488.28 -2.06242 2.18826 0
M  V30 5223 C 489.828 -2.19413 2.23219 0
M  V30 5224 C 490.303 -3.03648 3.42873 0
M  V30 5225 N 491.794 -3.11234 3.43056 0
M  V30 5226 C 492.529 -3.7671 4.32293 0
M  V30 5227 N 492.025 -4.44085 5.31752 0
M  V30 5228 N 493.818 -3.73505 4.2006 0
M  V30 5229 H 485.969 -0.496212 2.06522 0
M  V30 5230 H 488.232 -0.281784 0.905153 0
M  V30 5231 H 487.938 -1.59531 3.13437 0
M  V30 5232 H 487.812 -3.06996 2.19165 0
M  V30 5233 H 490.199 -2.65336 1.29154 0
M  V30 5234 H 490.28 -1.18078 2.26917 0
M  V30 5235 H 489.924 -2.58424 4.37241 0
M  V30 5236 H 489.854 -4.05132 3.36416 0
M  V30 5237 H 492.345 -2.63287 2.71088 0
M  V30 5238 H 492.658 -4.91797 5.96117 0
M  V30 5239 H 491.003 -4.42822 5.35662 0
M  V30 5240 H 494.194 -3.20033 3.41609 0
M  V30 5241 H 494.367 -4.24253 4.8981 0
M  V30 5242 N 487.773 -1.03688 -1.18687 0
M  V30 5243 C 489.022 -0.733235 -1.879 0
M  V30 5244 C 489.335 0.741745 -1.8099 0
M  V30 5245 O 490.541 1.15875 -2.4553 0
M  V30 5246 C 488.997 -1.26127 -3.37076 0
M  V30 5247 C 488.605 -2.76461 -3.52524 0
M  V30 5248 C 490.349 -1.03398 -4.11715 0
M  V30 5249 C 488.256 -3.22642 -4.95637 0
M  V30 5250 H 487.186 -0.270584 -0.703776 0
M  V30 5251 H 489.837 -1.25222 -1.34133 0
M  V30 5252 H 488.219 -0.670165 -3.90288 0
M  V30 5253 H 489.393 -3.41296 -3.09602 0
M  V30 5254 H 487.708 -2.97559 -2.91286 0
M  V30 5255 H 490.305 -1.3542 -5.17267 0
M  V30 5256 H 490.648 0.0289246 -4.1629 0
M  V30 5257 H 491.181 -1.5895 -3.64664 0
M  V30 5258 H 487.92 -4.28296 -4.96228 0
M  V30 5259 H 487.44 -2.62539 -5.39289 0
M  V30 5260 H 489.119 -3.16444 -5.64333 0
M  V30 5261 N 489.251 1.34841 -0.815825 0
M  V30 5262 C 490.214 2.27959 -0.238185 0
M  V30 5263 C 491.214 1.49983 0.579816 0
M  V30 5264 O 492.404 1.69617 0.396953 0
M  V30 5265 C 489.536 3.34314 0.666876 0
M  V30 5266 H 490.729 2.80558 -1.05958 0
M  V30 5267 H 488.282 1.44852 -0.587156 0
M  V30 5268 H 489.017 2.86916 1.5116 0
M  V30 5269 H 488.802 3.92014 0.0819106 0
M  V30 5270 H 490.292 4.0379 1.06506 0
M  V30 5271 N 490.729 0.570148 1.46925 0
M  V30 5272 C 491.639 -0.173061 2.33961 0
M  V30 5273 C 492.655 -0.898825 1.48987 0
M  V30 5274 O 493.831 -0.864825 1.81887 0
M  V30 5275 C 490.896 -1.18177 3.25937 0
M  V30 5276 C 489.957 -0.462041 4.26806 0
M  V30 5277 C 489.19 -1.4227 5.14388 0
M  V30 5278 O 489.413 -2.65842 5.04662 0
M  V30 5279 O 488.347 -0.940127 5.94513 0
M  V30 5280 H 492.173 0.541216 2.98839 0
M  V30 5281 H 489.758 0.330647 1.45695 0
M  V30 5282 H 491.64 -1.76372 3.82715 0
M  V30 5283 H 490.315 -1.87774 2.63671 0
M  V30 5284 H 489.222 0.161429 3.73752 0
M  V30 5285 H 490.555 0.192719 4.91823 0
M  V30 5286 N 492.207 -1.54576 0.307264 0
M  V30 5287 C 493.435 -2.04675 -0.302597 0
M  V30 5288 C 493.85 -1.18425 -1.47041 0
M  V30 5289 O 493.207 -0.211257 -1.81273 0
M  V30 5290 C 493.258 -3.53575 -0.752801 0
M  V30 5291 O 492.979 -4.36547 0.368536 0
M  V30 5292 C 494.48 -4.19699 -1.42717 0
M  V30 5293 H 491.7 -0.66786 -0.0648374 0
M  V30 5294 H 494.244 -1.99516 0.448716 0
M  V30 5295 H 492.399 -3.59074 -1.45412 0
M  V30 5296 H 492.813 -5.24497 0.0168937 0
M  V30 5297 H 494.287 -5.25388 -1.69327 0
M  V30 5298 H 494.764 -3.69815 -2.36925 0
M  V30 5299 H 495.37 -4.18293 -0.768856 0
M  V30 5300 N 493.685 -0.035106 -1.57561 0
M  V30 5301 C 494.595 0.960295 -2.14046 0
M  V30 5302 C 495.611 1.3529 -1.0942 0
M  V30 5303 O 496.787 1.43309 -1.41508 0
M  V30 5304 C 493.852 2.22214 -2.66124 0
M  V30 5305 C 492.913 1.8894 -3.85487 0
M  V30 5306 C 492.146 3.09109 -4.35072 0
M  V30 5307 O 492.369 4.21963 -3.83802 0
M  V30 5308 O 491.303 2.91058 -5.26848 0
M  V30 5309 H 495.129 0.509983 -2.99387 0
M  V30 5310 H 492.714 0.185853 -1.48239 0
M  V30 5311 H 494.596 2.96279 -2.99661 0
M  V30 5312 H 493.271 2.66414 -1.83862 0
M  V30 5313 H 492.178 1.12241 -3.56865 0
M  V30 5314 H 493.511 1.49551 -4.6893 0
M  V30 5315 N 495.163 1.55791 0.238111 0
M  V30 5316 C 496.11 1.9105 1.29493 0
M  V30 5317 C 497.08 0.765733 1.47397 0
M  V30 5318 O 498.265 1.02017 1.61236 0
M  V30 5319 C 495.405 2.21826 2.64362 0
M  V30 5320 C 494.518 3.49153 2.54394 0
M  V30 5321 C 493.653 3.69455 3.81676 0
M  V30 5322 C 492.692 4.90353 3.66361 0
M  V30 5323 N 491.829 5.07131 4.85554 0
M  V30 5324 H 496.669 2.81172 0.987233 0
M  V30 5325 H 494.206 1.39179 0.476203 0
M  V30 5326 H 496.164 2.37675 3.4288 0
M  V30 5327 H 494.794 1.34897 2.93262 0
M  V30 5328 H 493.846 3.41587 1.67399 0
M  V30 5329 H 495.158 4.37818 2.38991 0
M  V30 5330 H 494.312 3.85311 4.68636 0
M  V30 5331 H 493.051 2.7904 3.99985 0
M  V30 5332 H 492.056 4.74464 2.77784 0
M  V30 5333 H 493.281 5.82237 3.49538 0
M  V30 5334 H 491.227 4.19654 5.04209 0
M  V30 5335 H 491.144 5.89899 4.72816 0
M  V30 5336 H 492.412 5.27407 5.73988 0
M  V30 5337 N 496.642 -0.504142 1.49319 0
M  V30 5338 C 497.872 -1.28071 1.62116 0
M  V30 5339 C 498.28 -1.86955 0.290566 0
M  V30 5340 O 497.623 -1.68415 -0.733616 0
M  V30 5341 C 497.685 -2.4521 2.62893 0
M  V30 5342 C 497.349 -2.07218 4.0732 0
M  V30 5343 C 498.346 -1.61375 4.94221 0
M  V30 5344 C 496.031 -2.16949 4.53033 0
M  V30 5345 C 498.025 -1.25763 6.2487 0
M  V30 5346 C 495.712 -1.80949 5.83696 0
M  V30 5347 C 496.71 -1.3543 6.69438 0
M  V30 5348 O 496.398 -0.99915 7.97667 0
M  V30 5349 H 496.13 -0.394763 0.54876 0
M  V30 5350 H 498.684 -0.612118 1.96067 0
M  V30 5351 H 496.914 -3.15134 2.24115 0
M  V30 5352 H 498.603 -3.0724 2.65252 0
M  V30 5353 H 499.369 -1.53306 4.60133 0
M  V30 5354 H 495.248 -2.5133 3.86463 0
M  V30 5355 H 498.792 -0.901631 6.91749 0
M  V30 5356 H 494.689 -1.88667 6.17313 0
M  V30 5357 H 495.457 -1.13089 8.1065 0
M  V30 5358 N 498.12 -1.38341 -0.754957 0
M  V30 5359 C 499.531 -1.30803 -1.3322 0
M  V30 5360 C 499.882 0.0368 -1.96165 0
M  V30 5361 O 499.007 0.938844 -1.94974 0
M  V30 5362 C 499.602 -2.3688 -2.42225 0
M  V30 5363 C 498.161 -2.32925 -2.95674 0
M  V30 5364 C 497.308 -2.19819 -1.69042 0
M  V30 5365 H 500.259 -1.48719 -0.553937 0
M  V30 5366 H 500.28 -2.02517 -3.22129 0
M  V30 5367 H 499.792 -3.34747 -1.96383 0
M  V30 5368 H 497.893 -1.38635 -3.45848 0
M  V30 5369 H 498.006 -3.27008 -3.50146 0
M  V30 5370 H 496.37 -1.66648 -1.92615 0
M  V30 5371 H 497.153 -3.19625 -1.25279 0
M  V30 5372 N 499.598 0.982988 -1.23187 0
M  V30 5373 C 500.548 2.05962 -0.977942 0
M  V30 5374 C 501.532 1.60725 0.0751148 0
M  V30 5375 O 502.724 1.76471 -0.136683 0
M  V30 5376 C 499.853 3.38564 -0.568276 0
M  V30 5377 C 498.939 3.90407 -1.6566 0
M  V30 5378 N 499.33 4.15359 -2.88635 0
M  V30 5379 C 497.628 4.18915 -1.53058 0
M  V30 5380 C 498.329 4.57642 -3.5908 0
M  V30 5381 N 497.305 4.6192 -2.86584 0
M  V30 5382 H 501.107 2.23208 -1.91195 0
M  V30 5383 H 498.621 1.16555 -1.13087 0
M  V30 5384 H 500.618 4.15276 -0.36764 0
M  V30 5385 H 499.278 3.22712 0.358713 0
M  V30 5386 H 500.289 4.03258 -3.24966 0
M  V30 5387 H 496.966 4.12081 -0.670506 0
M  V30 5388 H 498.356 4.85488 -4.6449 0
M  V30 5389 N 501.076 1.04316 1.18135 0
M  V30 5390 C 502.322 0.749128 1.88457 0
M  V30 5391 C 502.655 -0.72149 1.803 0
M  V30 5392 O 501.93 -1.52676 1.205 0
M  V30 5393 C 502.213 1.21905 3.38838 0
M  V30 5394 C 502.066 2.75195 3.55792 0
M  V30 5395 C 503.385 0.811085 4.32561 0
M  V30 5396 H 500.504 0.273611 0.684329 0
M  V30 5397 H 503.146 1.29561 1.38975 0
M  V30 5398 H 501.296 0.754137 3.8111 0
M  V30 5399 H 502.968 3.29743 3.22595 0
M  V30 5400 H 501.211 3.14899 2.98364 0
M  V30 5401 H 501.882 3.03135 4.61317 0
M  V30 5402 H 504.358 1.21118 3.98082 0
M  V30 5403 H 503.234 1.16761 5.36338 0
M  V30 5404 H 503.495 -0.285596 4.41177 0
M  V30 5405 N 502.554 -1.34406 0.822964 0
M  V30 5406 C 503.782 -2.02508 0.424039 0
M  V30 5407 C 504.197 -1.61975 -0.970022 0
M  V30 5408 O 503.554 -0.825228 -1.62777 0
M  V30 5409 C 503.605 -3.57789 0.516657 0
M  V30 5410 O 503.326 -3.96853 1.85577 0
M  V30 5411 C 504.827 -4.43157 0.112637 0
M  V30 5412 H 502.047 -0.649063 0.170173 0
M  V30 5413 H 504.591 -1.7168 1.11113 0
M  V30 5414 H 502.746 -3.87207 -0.122353 0
M  V30 5415 H 503.16 -4.91538 1.83005 0
M  V30 5416 H 504.634 -5.51527 0.228526 0
M  V30 5417 H 505.111 -4.28939 -0.943837 0
M  V30 5418 H 505.717 -4.19067 0.725449 0
M  V30 5419 N 504.032 -0.577932 -1.46621 0
M  V30 5420 C 505.279 -0.0616879 -2.02406 0
M  V30 5421 C 505.607 1.29638 -1.44997 0
M  V30 5422 O 504.862 1.86176 -0.60308 0
M  V30 5423 C 505.161 0.0590832 -3.57351 0
M  V30 5424 C 504.827 -1.23077 -4.33777 0
M  V30 5425 C 503.489 -1.58416 -4.54376 0
M  V30 5426 C 505.841 -2.08457 -4.77698 0
M  V30 5427 C 503.169 -2.78943 -5.16147 0
M  V30 5428 C 505.521 -3.28204 -5.408 0
M  V30 5429 C 504.185 -3.63832 -5.59627 0
M  V30 5430 H 503.455 -0.0225732 -0.740656 0
M  V30 5431 H 506.102 -0.753609 -1.76048 0
M  V30 5432 H 504.407 0.834104 -3.82818 0
M  V30 5433 H 506.104 0.474202 -3.98186 0
M  V30 5434 H 502.694 -0.945652 -4.18038 0
M  V30 5435 H 506.878 -1.82459 -4.61544 0
M  V30 5436 H 502.134 -3.06689 -5.28916 0
M  V30 5437 H 506.308 -3.94634 -5.73792 0
M  V30 5438 H 503.935 -4.57315 -6.07262 0
M  V30 5439 N 505.51 1.54411 -0.315457 0
M  V30 5440 C 506.757 2.00419 0.289543 0
M  V30 5441 C 507.085 1.20373 1.52776 0
M  V30 5442 O 506.34 0.271769 1.93804 0
M  V30 5443 C 506.639 3.50936 0.676652 0
M  V30 5444 C 506.305 4.48532 -0.461472 0
M  V30 5445 C 504.967 4.74936 -0.773879 0
M  V30 5446 C 507.319 5.06567 -1.22637 0
M  V30 5447 C 504.647 5.56634 -1.85405 0
M  V30 5448 C 506.999 5.89441 -2.29657 0
M  V30 5449 C 505.663 6.1415 -2.61488 0
M  V30 5450 H 504.933 0.733386 0.105951 0
M  V30 5451 H 507.58 1.86434 -0.437554 0
M  V30 5452 H 505.885 3.62606 1.48405 0
M  V30 5453 H 507.582 3.83971 1.15618 0
M  V30 5454 H 504.172 4.28096 -0.207893 0
M  V30 5455 H 508.356 4.86157 -0.998271 0
M  V30 5456 H 503.612 5.74012 -2.10523 0
M  V30 5457 H 507.786 6.33432 -2.89374 0
M  V30 5458 H 505.413 6.77245 -3.45317 0
M  V30 5459 N 506.988 0.0434614 1.5754 0
M  V30 5460 C 507.921 -0.968729 2.06618 0
M  V30 5461 C 508.899 -1.30868 0.965 0
M  V30 5462 O 510.083 -1.42288 1.23638 0
M  V30 5463 C 507.21 -2.28486 2.50023 0
M  V30 5464 C 506.256 -2.09851 3.71302 0
M  V30 5465 S 507.089 -1.38401 5.17306 0
M  V30 5466 C 508.245 -2.71354 5.64019 0
M  V30 5467 H 508.478 -0.551021 2.92149 0
M  V30 5468 H 506.011 -0.168607 1.53477 0
M  V30 5469 H 507.969 -3.04142 2.75695 0
M  V30 5470 H 506.63 -2.67387 1.64812 0
M  V30 5471 H 505.823 -3.07184 3.99567 0
M  V30 5472 H 505.425 -1.42336 3.45856 0
M  V30 5473 H 507.717 -3.67549 5.69134 0
M  V30 5474 H 508.66 -2.47734 6.6335 0
M  V30 5475 H 509.068 -2.77259 4.91719 0
M  V30 5476 N 508.466 -1.55915 -0.229846 0
M  V30 5477 C 509.691 -1.8296 -0.976743 0
M  V30 5478 C 510.116 -0.622735 -1.77493 0
M  V30 5479 O 509.474 0.428431 -1.76165 0
M  V30 5480 C 509.522 -3.07916 -1.8767 0
M  V30 5481 O 508.626 -2.86028 -2.97088 0
M  V30 5482 H 507.967 -0.603453 -0.277021 0
M  V30 5483 H 510.497 -2.0312 -0.245669 0
M  V30 5484 H 510.507 -3.37802 -2.2881 0
M  V30 5485 H 509.182 -3.95389 -1.28996 0
M  V30 5486 H 507.759 -2.67355 -2.59954 0
M  V30 5487 N 509.944 0.496216 -1.49584 0
M  V30 5488 C 511.192 1.24756 -1.58998 0
M  V30 5489 C 511.513 1.92968 -0.280775 0
M  V30 5490 O 510.783 1.82959 0.700198 0
M  V30 5491 H 509.363 0.463471 -0.585836 0
M  V30 5492 H 512.025 0.574678 -1.86235 0
M  V30 5493 H 511.121 2.00895 -2.38847 0
M  V30 5494 N 511.423 1.38739 0.74761 0
M  V30 5495 C 512.671 1.35007 1.50391 0
M  V30 5496 C 512.992 -0.0574274 1.94915 0
M  V30 5497 O 512.262 -1.00628 1.6808 0
M  V30 5498 H 510.842 0.496784 0.557866 0
M  V30 5499 H 513.504 1.73479 0.888319 0
M  V30 5500 H 512.6 2.00474 2.392 0
M  V30 5501 N 512.901 -0.976442 1.23707 0
M  V30 5502 C 514.317 -1.24341 1.00058 0
M  V30 5503 C 514.517 -1.99315 -0.295932 0
M  V30 5504 O 513.573 -2.3123 -1.01435 0
M  V30 5505 C 514.886 -2.03909 2.21001 0
M  V30 5506 C 516.434 -2.17034 2.25534 0
M  V30 5507 C 516.909 -2.99994 3.46075 0
M  V30 5508 N 518.4 -3.07578 3.46338 0
M  V30 5509 C 519.135 -3.72104 4.36264 0
M  V30 5510 N 518.631 -4.3842 5.36432 0
M  V30 5511 N 520.424 -3.69029 4.23998 0
M  V30 5512 H 512.575 -0.47428 2.07037 0
M  V30 5513 H 514.838 -0.272167 0.908091 0
M  V30 5514 H 514.544 -1.56198 3.15111 0
M  V30 5515 H 514.418 -3.04654 2.22409 0
M  V30 5516 H 516.805 -2.63951 1.31961 0
M  V30 5517 H 516.886 -1.15664 2.28156 0
M  V30 5518 H 516.53 -2.53772 4.39957 0
M  V30 5519 H 516.46 -4.01541 3.40694 0
M  V30 5520 H 518.951 -2.60397 2.73865 0
M  V30 5521 H 519.264 -4.85447 6.013 0
M  V30 5522 H 517.609 -4.37116 5.40328 0
M  V30 5523 H 520.8 -3.16392 3.44984 0
M  V30 5524 H 520.973 -4.19034 4.94282 0
M  V30 5525 N 514.379 -1.04941 -1.1758 0
M  V30 5526 C 515.289 -0.658826 -2.25159 0
M  V30 5527 C 516.305 0.318941 -1.71052 0
M  V30 5528 O 517.481 0.171669 -2.00667 0
M  V30 5529 C 514.546 -0.0369522 -3.4668 0
M  V30 5530 C 513.607 -1.06484 -4.15884 0
M  V30 5531 C 512.84 -0.472551 -5.31604 0
M  V30 5532 O 513.063 0.718736 -5.65854 0
M  V30 5533 O 511.997 -1.20557 -5.89703 0
M  V30 5534 H 515.823 -1.55533 -2.60851 0
M  V30 5535 H 513.408 -0.820819 -1.24832 0
M  V30 5536 H 515.29 0.308784 -4.20267 0
M  V30 5537 H 513.965 0.833238 -3.12792 0
M  V30 5538 H 512.872 -1.46253 -3.44327 0
M  V30 5539 H 514.205 -1.9061 -4.53794 0
M  V30 5540 N 515.857 1.33968 -0.830081 0
M  V30 5541 C 516.767 2.33164 -0.259207 0
M  V30 5542 C 517.783 1.62951 0.610164 0
M  V30 5543 O 518.959 1.94668 0.516369 0
M  V30 5544 C 516.024 3.42088 0.563598 0
M  V30 5545 C 515.085 4.28037 -0.329014 0
M  V30 5546 C 514.318 5.3176 0.454616 0
M  V30 5547 O 514.541 5.44876 1.6872 0
M  V30 5548 O 513.475 6.01669 -0.166794 0
M  V30 5549 H 517.301 2.83832 -1.08041 0
M  V30 5550 H 514.886 1.37154 -0.59239 0
M  V30 5551 H 516.768 4.08581 1.03147 0
M  V30 5552 H 515.443 2.93651 1.36201 0
M  V30 5553 H 514.35 3.64443 -0.844538 0
M  V30 5554 H 515.683 4.79934 -1.09196 0
M  V30 5555 N 517.335 0.585699 1.46312 0
M  V30 5556 C 518.282 -0.145835 2.30339 0
M  V30 5557 C 519.252 -0.881215 1.40797 0
M  V30 5558 O 520.437 -0.871293 1.69744 0
M  V30 5559 C 517.577 -1.15161 3.25318 0
M  V30 5560 C 516.69 -0.419367 4.2996 0
M  V30 5561 C 515.825 -1.41293 5.12064 0
M  V30 5562 C 514.864 -0.667261 6.08452 0
M  V30 5563 N 514.001 -1.60903 6.83414 0
M  V30 5564 H 518.841 0.576755 2.92365 0
M  V30 5565 H 516.378 0.296237 1.44086 0
M  V30 5566 H 518.336 -1.74763 3.78832 0
M  V30 5567 H 516.966 -1.84188 2.65094 0
M  V30 5568 H 516.018 0.291751 3.7928 0
M  V30 5569 H 517.33 0.163433 4.98532 0
M  V30 5570 H 516.484 -2.08167 5.6987 0
M  V30 5571 H 515.223 -2.02966 4.43459 0
M  V30 5572 H 514.228 0.0152356 5.49798 0
M  V30 5573 H 515.453 -0.0558817 6.79077 0
M  V30 5574 H 513.399 -2.21381 6.17516 0
M  V30 5575 H 513.316 -1.07911 7.48259 0
M  V30 5576 H 514.584 -2.26802 7.45775 0
M  V30 5577 N 518.813 -1.54241 0.323641 0
M  V30 5578 C 520.06 -2.0057 -0.27891 0
M  V30 5579 C 520.388 -1.21181 -1.52136 0
M  V30 5580 O 519.643 -0.282043 -1.93657 0
M  V30 5581 C 519.942 -3.5129 -0.658031 0
M  V30 5582 C 519.608 -4.48281 0.485252 0
M  V30 5583 C 518.27 -4.74519 0.799055 0
M  V30 5584 C 520.622 -5.05909 1.25322 0
M  V30 5585 C 517.95 -5.55643 1.88354 0
M  V30 5586 C 520.302 -5.88215 2.32779 0
M  V30 5587 C 518.966 -6.12755 2.64741 0
M  V30 5588 H 518.236 -0.733938 -0.10206 0
M  V30 5589 H 520.883 -1.862 0.447435 0
M  V30 5590 H 519.188 -3.63388 -1.4648 0
M  V30 5591 H 520.885 -3.84578 -1.1358 0
M  V30 5592 H 517.475 -4.27979 0.230593 0
M  V30 5593 H 521.659 -4.8562 1.02404 0
M  V30 5594 H 516.915 -5.72888 2.13564 0
M  V30 5595 H 521.089 -6.31888 2.92729 0
M  V30 5596 H 518.716 -6.75404 3.48904 0
M  V30 5597 N 520.291 -0.0518155 -1.57515 0
M  V30 5598 C 521.702 0.483787 -1.80323 0
M  V30 5599 C 522.053 1.70879 -0.964099 0
M  V30 5600 O 521.178 2.15643 -0.180872 0
M  V30 5601 C 521.773 0.884459 -3.27052 0
M  V30 5602 C 520.332 1.36504 -3.50776 0
M  V30 5603 C 519.479 0.340539 -2.75201 0
M  V30 5604 H 522.43 -0.277691 -1.56252 0
M  V30 5605 H 522.451 1.74733 -3.38007 0
M  V30 5606 H 521.963 -0.00731093 -3.88099 0
M  V30 5607 H 520.064 2.27598 -2.95009 0
M  V30 5608 H 520.177 1.35675 -4.59488 0
M  V30 5609 H 518.541 0.81356 -2.41357 0
M  V30 5610 H 519.324 -0.543156 -3.38976 0
M  V30 5611 N 521.769 1.56035 0.221574 0
M  V30 5612 C 523.017 1.78693 0.944102 0
M  V30 5613 C 523.338 0.620317 1.8487 0
M  V30 5614 O 522.608 -0.362784 1.92512 0
M  V30 5615 H 521.188 0.659082 0.351597 0
M  V30 5616 H 523.85 1.93497 0.233435 0
M  V30 5617 H 522.946 2.70837 1.55093 0
M  V30 5618 N 523.247 -0.488276 1.49845 0
M  V30 5619 C 524.157 -1.61451 1.70207 0
M  V30 5620 C 525.173 -1.63877 0.584846 0
M  V30 5621 O 526.349 -1.82063 0.861107 0
M  V30 5622 C 523.414 -2.9776 1.77594 0
M  V30 5623 C 522.475 -3.05861 3.01243 0
M  V30 5624 C 521.708 -4.35668 3.08268 0
M  V30 5625 O 521.931 -5.25197 2.22541 0
M  V30 5626 O 520.865 -4.49005 4.00847 0
M  V30 5627 H 524.691 -1.47199 2.65643 0
M  V30 5628 H 522.276 -0.665939 1.33737 0
M  V30 5629 H 524.158 -3.7875 1.84732 0
M  V30 5630 H 522.833 -3.12248 0.8534 0
M  V30 5631 H 521.74 -2.24012 2.99616 0
M  V30 5632 H 523.073 -2.96304 3.9302 0
M  V30 5633 N 524.725 -1.39134 -0.740242 0
M  V30 5634 C 526.002 -1.26584 -1.49117 0
M  V30 5635 C 526.382 0.126902 -2.10718 0
M  V30 5636 O 525.73 1.13765 -1.98166 0
M  V30 5637 C 525.94 -2.38619 -2.54681 0
M  V30 5638 C 527.288 -2.77685 -3.21211 0
M  V30 5639 O 528.312 -2.38029 -2.64991 0
M  V30 5640 O 527.171 -3.46115 -4.22926 0
M  V30 5641 H 524.265 -0.495769 -0.661923 0
M  V30 5642 H 526.811 -1.50995 -0.774514 0
M  V30 5643 H 525.583 -3.3175 -2.07504 0
M  V30 5644 H 525.206 -2.15845 -3.33911 0
M  V30 5645 N 526.204 0.969867 -1.24223 0
M  V30 5646 C 527.62 1.23809 -1.00716 0
M  V30 5647 C 527.82 1.99469 0.285358 0
M  V30 5648 O 526.876 2.31764 1.00207 0
M  V30 5649 C 528.189 2.02734 -2.2208 0
M  V30 5650 C 529.737 2.15834 -2.26681 0
M  V30 5651 C 530.212 2.98154 -3.47661 0
M  V30 5652 N 531.703 3.05737 -3.47964 0
M  V30 5653 C 532.438 3.69785 -4.38231 0
M  V30 5654 N 531.934 4.35569 -5.3875 0
M  V30 5655 N 533.727 3.66775 -4.25949 0
M  V30 5656 H 525.878 0.463294 -2.07286 0
M  V30 5657 H 528.141 0.267348 -0.909521 0
M  V30 5658 H 527.847 1.54524 -3.15935 0
M  V30 5659 H 527.721 3.0347 -2.24021 0
M  V30 5660 H 530.108 2.63248 -1.33359 0
M  V30 5661 H 530.189 1.14453 -2.28767 0
M  V30 5662 H 529.833 2.51435 -4.41297 0
M  V30 5663 H 529.763 3.99729 -3.42818 0
M  V30 5664 H 532.254 2.58941 -2.75242 0
M  V30 5665 H 532.567 4.82251 -6.03866 0
M  V30 5666 H 530.912 4.34244 -5.42639 0
M  V30 5667 H 534.103 3.14558 -3.46657 0
M  V30 5668 H 534.276 4.16407 -4.96497 0
M  V30 5669 N 527.682 1.05563 1.17022 0
M  V30 5670 C 528.931 0.763036 1.8671 0
M  V30 5671 C 529.244 -0.712857 1.82147 0
M  V30 5672 O 530.45 -1.11955 2.47343 0
M  V30 5673 C 528.906 1.31474 3.35026 0
M  V30 5674 C 528.514 2.82034 3.48081 0
M  V30 5675 C 530.258 1.09935 4.10018 0
M  V30 5676 C 528.165 3.30486 4.90442 0
M  V30 5677 H 527.095 0.281747 0.699382 0
M  V30 5678 H 529.746 1.2734 1.32124 0
M  V30 5679 H 528.128 0.732171 3.89173 0
M  V30 5680 H 529.302 3.46178 3.04133 0
M  V30 5681 H 527.617 3.02156 2.86515 0
M  V30 5682 H 530.214 1.43632 5.15048 0
M  V30 5683 H 530.557 0.0373072 4.16283 0
M  V30 5684 H 531.09 1.64732 3.62089 0
M  V30 5685 H 527.829 4.36137 4.89352 0
M  V30 5686 H 527.349 2.71086 5.35044 0
M  V30 5687 H 529.028 3.25382 5.59227 0
M  V30 5688 N 529.16 -1.33526 0.837174 0
M  V30 5689 C 530.09 -2.31764 0.284206 0
M  V30 5690 C 531.071 -1.58896 -0.607142 0
M  V30 5691 O 532.256 -1.86798 -0.531047 0
M  V30 5692 C 529.386 -3.43029 -0.542962 0
M  V30 5693 C 528.34 -4.27255 0.252451 0
M  V30 5694 C 527.666 -5.3012 -0.69836 0
M  V30 5695 C 528.966 -5.01229 1.46858 0
M  V30 5696 H 530.66 -2.78262 1.10502 0
M  V30 5697 H 528.206 -1.3378 0.532812 0
M  V30 5698 H 530.159 -4.1078 -0.940096 0
M  V30 5699 H 528.883 -2.95216 -1.39697 0
M  V30 5700 H 527.542 -3.61127 0.631124 0
M  V30 5701 H 527.19 -4.78564 -1.54872 0
M  V30 5702 H 526.89 -5.87353 -0.170274 0
M  V30 5703 H 528.414 -6.00737 -1.09305 0
M  V30 5704 H 529.828 -5.61756 1.14469 0
M  V30 5705 H 528.225 -5.68104 1.93333 0
M  V30 5706 H 529.295 -4.301 2.23924 0
M  V30 5707 N 530.638 -0.59345 -1.46 0
M  V30 5708 C 531.887 -0.0808084 -2.01538 0
M  V30 5709 C 532.2 1.29112 -1.46934 0
M  V30 5710 O 533.406 1.8957 -1.94359 0
M  V30 5711 C 531.862 -0.0938311 -3.59778 0
M  V30 5712 C 531.47 -1.46474 -4.23379 0
M  V30 5713 C 533.214 0.364306 -4.22934 0
M  V30 5714 C 531.121 -1.4349 -5.73729 0
M  V30 5715 H 530.051 -0.0264407 -0.753536 0
M  V30 5716 H 532.702 -0.746689 -1.67621 0
M  V30 5717 H 531.084 0.638427 -3.9082 0
M  V30 5718 H 532.258 -2.21758 -4.03931 0
M  V30 5719 H 530.573 -1.86379 -3.7236 0
M  V30 5720 H 533.17 0.405584 -5.3316 0
M  V30 5721 H 533.513 1.38409 -3.92618 0
M  V30 5722 H 534.046 -0.31423 -3.96557 0
M  V30 5723 H 530.785 -2.43184 -6.08722 0
M  V30 5724 H 530.305 -0.724431 -5.95409 0
M  V30 5725 H 531.984 -1.15243 -6.36654 0
M  V30 5726 N 532.116 1.54067 -0.331816 0
M  V30 5727 C 533.064 2.26105 0.54582 0
M  V30 5728 C 534.058 1.27816 1.11173 0
M  V30 5729 O 535.264 1.45565 1.05882 0
M  V30 5730 H 531.639 0.726363 0.194683 0
M  V30 5731 H 533.61 2.98282 -0.083931 0
M  V30 5732 C 532.359 3.03814 1.69092 0
M  V30 5733 H 531.682 3.79269 1.26473 0
M  V30 5734 H 533.122 3.57453 2.28043 0
M  V30 5735 C 531.581 2.12606 2.61343 0
M  V30 5736 O 532.111 1.71437 3.6328 0
M  V30 5737 N 530.317 1.77925 2.29763 0
M  V30 5738 H 529.864 2.11602 1.46909 0
M  V30 5739 H 529.822 1.1718 2.91747 0
M  V30 5740 N 533.594 0.0601682 1.57485 0
M  V30 5741 C 534.819 -0.624416 1.97777 0
M  V30 5742 C 535.244 -1.63051 0.937867 0
M  V30 5743 O 534.602 -1.81036 -0.0978845 0
M  V30 5744 C 534.65 -1.27979 3.37126 0
M  V30 5745 O 533.754 -2.39556 3.35688 0
M  V30 5746 H 533.095 -0.161581 0.64404 0
M  V30 5747 H 535.625 0.131237 2.04179 0
M  V30 5748 H 535.635 -1.62937 3.74053 0
M  V30 5749 H 534.31 -0.542501 4.12347 0
M  V30 5750 H 532.887 -2.06478 3.10517 0
M  V30 5751 N 535.072 -1.5615 -0.213296 0
M  V30 5752 C 536.483 -1.69645 -0.779582 0
M  V30 5753 C 536.834 -0.663615 -1.84636 0
M  V30 5754 O 535.959 0.183633 -2.15619 0
M  V30 5755 C 536.554 -3.07567 -1.42084 0
M  V30 5756 C 535.113 -3.22889 -1.93442 0
M  V30 5757 C 534.26 -2.65581 -0.797612 0
M  V30 5758 H 537.211 -1.58696 0.0114951 0
M  V30 5759 H 537.232 -3.03884 -2.28986 0
M  V30 5760 H 536.744 -3.82716 -0.644187 0
M  V30 5761 H 534.845 -2.52623 -2.73884 0
M  V30 5762 H 534.958 -4.30197 -2.10872 0
M  V30 5763 H 533.322 -2.24278 -1.20712 0
M  V30 5764 H 534.105 -3.43284 -0.033494 0
M  V30 5765 N 536.55 0.480323 -1.50102 0
M  V30 5766 C 537.497 1.57946 -1.6829 0
M  V30 5767 C 538.467 1.57611 -0.524223 0
M  V30 5768 O 539.652 1.75282 -0.753709 0
M  V30 5769 C 536.792 2.95978 -1.77457 0
M  V30 5770 C 535.905 3.06173 -3.04766 0
M  V30 5771 C 535.04 4.35063 -3.04784 0
M  V30 5772 C 534.079 4.38966 -4.26586 0
M  V30 5773 N 533.216 5.59314 -4.24396 0
M  V30 5774 H 538.056 1.41743 -2.62131 0
M  V30 5775 H 535.593 0.689304 -1.2995 0
M  V30 5776 H 537.551 3.76011 -1.80752 0
M  V30 5777 H 536.181 3.10837 -0.870637 0
M  V30 5778 H 535.233 2.19071 -3.10986 0
M  V30 5779 H 536.545 3.04916 -3.9475 0
M  V30 5780 H 535.699 5.23436 -3.06757 0
M  V30 5781 H 534.438 4.38915 -2.12614 0
M  V30 5782 H 533.443 3.48992 -4.24835 0
M  V30 5783 H 534.668 4.36813 -5.19972 0
M  V30 5784 H 532.614 5.63969 -3.35074 0
M  V30 5785 H 532.531 5.5976 -5.08138 0
M  V30 5786 H 533.799 6.49837 -4.30502 0
M  V30 5787 N 538.028 1.39524 0.732853 0
M  V30 5788 C 539.274 1.37068 1.49467 0
M  V30 5789 C 539.607 -0.0327166 1.94172 0
M  V30 5790 O 538.882 -0.998071 1.66939 0
M  V30 5791 C 539.165 2.34494 2.73285 0
M  V30 5792 C 539.018 3.83784 2.34585 0
M  V30 5793 C 540.337 2.29717 3.75391 0
M  V30 5794 H 537.456 0.499206 0.542183 0
M  V30 5795 H 540.098 1.70532 0.837783 0
M  V30 5796 H 538.248 2.06087 3.29333 0
M  V30 5797 H 539.92 4.22949 1.84151 0
M  V30 5798 H 538.163 4.00455 1.66787 0
M  V30 5799 H 538.834 4.47444 3.23262 0
M  V30 5800 H 541.31 2.54839 3.28932 0
M  V30 5801 H 540.186 2.99962 4.59689 0
M  V30 5802 H 540.447 1.30291 4.22465 0
M  V30 5803 N 539.506 -0.963266 1.24736 0
M  V30 5804 C 540.917 -1.52145 1.08207 0
M  V30 5805 C 541.268 -1.93142 -0.345061 0
M  V30 5806 O 540.393 -1.77769 -1.23399 0
M  V30 5807 C 540.988 -2.76486 1.95808 0
M  V30 5808 C 539.547 -3.28646 1.8349 0
M  V30 5809 C 538.694 -2.01529 1.90476 0
M  V30 5810 H 541.645 -0.781083 1.38148 0
M  V30 5811 H 541.666 -3.49986 1.49297 0
M  V30 5812 H 541.178 -2.46617 2.99669 0
M  V30 5813 H 539.279 -3.63357 0.824787 0
M  V30 5814 H 539.392 -3.97246 2.67829 0
M  V30 5815 H 537.756 -2.16442 1.34258 0
M  V30 5816 H 538.539 -1.7402 2.95926 0
M  V30 5817 N 540.985 -1.06182 -1.16461 0
M  V30 5818 C 542.213 -0.798583 -1.90867 0
M  V30 5819 C 542.628 0.646921 -1.77371 0
M  V30 5820 O 541.985 1.44279 -1.11758 0
M  V30 5821 C 542.036 -1.18258 -3.4161 0
M  V30 5822 O 541.757 -2.57135 -3.54701 0
M  V30 5823 C 543.258 -0.946917 -4.33069 0
M  V30 5824 H 540.478 -0.289603 -0.605286 0
M  V30 5825 H 543.022 -1.41515 -1.47627 0
M  V30 5826 H 541.177 -0.610562 -3.82558 0
M  V30 5827 H 541.591 -2.72477 -4.4817 0
M  V30 5828 H 543.065 -1.26523 -5.37304 0
M  V30 5829 H 543.542 0.117406 -4.39043 0
M  V30 5830 H 544.148 -1.50326 -3.97847 0
M  V30 5831 N 542.463 1.3308 -0.844243 0
M  V30 5832 C 543.693 2.01515 -0.455541 0
M  V30 5833 C 544.101 1.63655 0.949406 0
M  V30 5834 O 543.444 0.84848 1.62931 0
M  V30 5835 C 543.506 3.55967 -0.502801 0
M  V30 5836 C 543.17 4.17222 -1.86481 0
M  V30 5837 C 544.167 4.36205 -2.8288 0
M  V30 5838 C 541.852 4.53528 -2.15911 0
M  V30 5839 C 543.846 4.90649 -4.06869 0
M  V30 5840 C 541.533 5.07679 -3.40155 0
M  V30 5841 C 542.531 5.26186 -4.35451 0
M  V30 5842 O 542.219 5.79183 -5.57496 0
M  V30 5843 H 541.951 0.65199 -0.178565 0
M  V30 5844 H 544.505 1.70867 -1.1399 0
M  V30 5845 H 542.735 3.85965 0.23836 0
M  V30 5846 H 544.424 4.05688 -0.131169 0
M  V30 5847 H 545.19 4.085 -2.61444 0
M  V30 5848 H 541.069 4.38414 -1.42528 0
M  V30 5849 H 544.613 5.0501 -4.81259 0
M  V30 5850 H 540.51 5.34815 -3.61446 0
M  V30 5851 H 541.278 5.97591 -5.5931 0
M  V30 5852 N 543.941 0.601185 1.45683 0
M  V30 5853 C 545.218 0.0261659 1.95582 0
M  V30 5854 C 545.598 -1.4399 1.5437 0
M  V30 5855 O 544.946 -2.13919 0.80318 0
M  V30 5856 C 545.156 0.217557 3.48321 0
M  V30 5857 C 546.504 0.0950076 4.24494 0
M  V30 5858 O 547.528 0.147345 3.55895 0
M  V30 5859 O 546.387 -0.025261 5.46494 0
M  V30 5860 H 543.481 -0.0393688 0.826062 0
M  V30 5861 H 546.027 0.670798 1.55879 0
M  V30 5862 H 544.799 1.23601 3.71266 0
M  V30 5863 H 544.422 -0.46264 3.94899 0
M  V30 5864 N 545.419 -1.53889 0.339982 0
M  V30 5865 C 546.349 -2.27843 -0.510856 0
M  V30 5866 C 547.33 -1.29267 -1.10563 0
M  V30 5867 O 548.515 -1.58104 -1.12768 0
M  V30 5868 C 545.645 -3.04857 -1.66372 0
M  V30 5869 C 544.599 -4.10907 -1.19746 0
M  V30 5870 C 543.925 -4.75855 -2.43857 0
M  V30 5871 C 545.225 -5.21435 -0.300501 0
M  V30 5872 H 546.919 -2.99212 0.106067 0
M  V30 5873 H 544.465 -1.43904 0.0524533 0
M  V30 5874 H 546.418 -3.5533 -2.26537 0
M  V30 5875 H 545.142 -2.31133 -2.30749 0
M  V30 5876 H 543.801 -3.61342 -0.618654 0
M  V30 5877 H 543.449 -3.9873 -3.06633 0
M  V30 5878 H 543.149 -5.47502 -2.13343 0
M  V30 5879 H 544.673 -5.2911 -3.04754 0
M  V30 5880 H 546.087 -5.67565 -0.80889 0
M  V30 5881 H 544.484 -6.00036 -0.0874076 0
M  V30 5882 H 545.554 -4.80328 0.664321 0
M  V30 5883 N 546.897 -0.0685191 -1.57451 0
M  V30 5884 C 547.844 0.899861 -2.12535 0
M  V30 5885 C 548.814 1.29749 -1.03703 0
M  V30 5886 O 549.999 1.38392 -1.31348 0
M  V30 5887 C 547.139 2.16328 -2.6888 0
M  V30 5888 C 546.252 1.81857 -3.91857 0
M  V30 5889 C 545.387 3.02786 -4.36457 0
M  V30 5890 C 544.426 2.64317 -5.5209 0
M  V30 5891 N 543.563 3.77994 -5.91663 0
M  V30 5892 H 548.403 0.423243 -2.94979 0
M  V30 5893 H 545.94 0.197268 -1.45771 0
M  V30 5894 H 547.898 2.90281 -2.99655 0
M  V30 5895 H 546.528 2.61536 -1.89206 0
M  V30 5896 H 545.58 0.979808 -3.67565 0
M  V30 5897 H 546.892 1.49553 -4.75852 0
M  V30 5898 H 546.046 3.85021 -4.68875 0
M  V30 5899 H 544.785 3.38281 -3.51308 0
M  V30 5900 H 543.79 1.80503 -5.19325 0
M  V30 5901 H 545.015 2.29995 -6.38967 0
M  V30 5902 H 542.961 4.13258 -5.09464 0
M  V30 5903 H 542.878 3.49447 -6.7039 0
M  V30 5904 H 544.146 4.60818 -6.28703 0
M  V30 5905 N 548.375 1.56261 0.205012 0
M  V30 5906 C 549.786 1.70056 0.770574 0
M  V30 5907 C 550.137 0.673398 1.84282 0
M  V30 5908 O 549.262 -0.172196 2.15714 0
M  V30 5909 C 549.857 3.08316 1.40451 0
M  V30 5910 C 548.416 3.2391 1.91727 0
M  V30 5911 C 547.563 2.66001 0.783516 0
M  V30 5912 H 550.514 1.58688 -0.019911 0
M  V30 5913 H 550.535 3.05094 2.27371 0
M  V30 5914 H 550.047 3.83053 0.623882 0
M  V30 5915 H 548.148 2.54072 2.7254 0
M  V30 5916 H 548.261 4.3131 2.08588 0
M  V30 5917 H 546.625 2.24915 1.19521 0
M  V30 5918 H 547.408 3.43297 0.0152883 0
M  V30 5919 N 549.853 -0.472356 1.50355 0
M  V30 5920 C 550.763 -1.59637 1.7191 0
M  V30 5921 C 551.779 -1.63247 0.602195 0
M  V30 5922 O 552.955 -1.81139 0.880369 0
M  V30 5923 C 550.02 -2.9586 1.80742 0
M  V30 5924 C 549.081 -3.02649 3.04471 0
M  V30 5925 C 548.314 -4.32374 3.12872 0
M  V30 5926 O 548.537 -5.22807 2.28099 0
M  V30 5927 O 547.471 -4.44728 4.05587 0
M  V30 5928 H 551.297 -1.44373 2.67189 0
M  V30 5929 H 548.882 -0.651717 1.34436 0
M  V30 5930 H 550.764 -3.7677 1.88739 0
M  V30 5931 H 549.439 -3.11325 0.88647 0
M  V30 5932 H 548.346 -2.20821 3.01975 0
M  V30 5933 H 549.679 -2.92119 3.9614 0
M  V30 5934 N 551.331 -1.39911 -0.725443 0
M  V30 5935 C 552.264 -1.33788 -1.84867 0
M  V30 5936 C 553.242 -0.209907 -1.61239 0
M  V30 5937 O 554.426 -0.391943 -1.8438 0
M  V30 5938 C 551.553 -1.07975 -3.21028 0
M  V30 5939 C 550.599 -2.23092 -3.635 0
M  V30 5940 S 551.432 -3.85431 -3.71757 0
M  V30 5941 C 552.588 -3.61862 -5.10692 0
M  V30 5942 H 552.821 -2.28848 -1.89779 0
M  V30 5943 H 550.354 -1.26079 -0.891254 0
M  V30 5944 H 552.312 -0.937669 -3.99647 0
M  V30 5945 H 550.973 -0.145865 -3.13761 0
M  V30 5946 H 550.166 -2.00647 -4.62338 0
M  V30 5947 H 549.768 -2.33553 -2.92112 0
M  V30 5948 H 552.06 -3.19719 -5.97316 0
M  V30 5949 H 553.003 -4.60196 -5.38169 0
M  V30 5950 H 553.411 -2.95757 -4.8082 0
M  V30 5951 N 552.809 0.956637 -1.25245 0
M  V30 5952 C 554.034 1.74104 -1.12706 0
M  V30 5953 C 554.459 1.85436 0.315429 0
M  V30 5954 O 553.817 1.33334 1.22848 0
M  V30 5955 C 553.865 3.1338 -1.78396 0
M  V30 5956 O 552.969 3.98485 -1.06224 0
M  V30 5957 H 552.31 0.53476 -0.393609 0
M  V30 5958 H 554.84 1.19924 -1.65769 0
M  V30 5959 H 554.85 3.6385 -1.846 0
M  V30 5960 H 553.525 3.04448 -2.83345 0
M  V30 5961 H 552.102 3.56952 -1.07886 0
M  V30 5962 N 554.287 1.06798 1.15896 0
M  V30 5963 C 555.25 0.687328 2.18651 0
M  V30 5964 C 556.25 -0.269559 1.58524 0
M  V30 5965 O 557.44 -0.0512627 1.74125 0
M  V30 5966 C 554.572 0.0121642 3.40898 0
M  V30 5967 H 555.765 1.59701 2.53842 0
M  V30 5968 H 553.318 0.863828 1.3026 0
M  V30 5969 H 554.053 -0.910025 3.1127 0
M  V30 5970 H 553.838 0.700309 3.85795 0
M  V30 5971 H 555.328 -0.239703 4.16911 0
M  V30 5972 N 555.766 -1.3263 0.851289 0
M  V30 5973 C 556.996 -2.01271 0.466222 0
M  V30 5974 C 557.404 -1.64156 -0.940714 0
M  V30 5975 O 556.747 -0.857109 -1.62479 0
M  V30 5976 C 556.809 -3.55695 0.521672 0
M  V30 5977 C 556.473 -4.16227 1.88691 0
M  V30 5978 C 557.47 -4.34699 2.85189 0
M  V30 5979 C 555.155 -4.52377 2.18313 0
M  V30 5980 C 557.149 -4.88484 4.09465 0
M  V30 5981 C 554.836 -5.05868 3.42843 0
M  V30 5982 C 555.834 -5.23869 4.38235 0
M  V30 5983 O 555.522 -5.76218 5.6056 0
M  V30 5984 H 555.254 -0.651034 0.18202 0
M  V30 5985 H 557.808 -1.7026 1.14894 0
M  V30 5986 H 556.038 -3.86086 -0.217888 0
M  V30 5987 H 557.727 -4.05613 0.152682 0
M  V30 5988 H 558.493 -4.07107 2.63607 0
M  V30 5989 H 554.372 -4.37652 1.44851 0
M  V30 5990 H 557.916 -5.02451 4.83931 0
M  V30 5991 H 553.813 -5.32891 3.64277 0
M  V30 5992 H 554.581 -5.94616 5.62471 0
M  V30 5993 N 557.244 -0.608902 -1.45362 0
M  V30 5994 C 558.154 0.110969 -2.34337 0
M  V30 5995 C 559.17 0.859007 -1.51318 0
M  V30 5996 O 560.346 0.816296 -1.84116 0
M  V30 5997 C 557.411 1.09494 -3.28956 0
M  V30 5998 C 556.472 0.348718 -4.27881 0
M  V30 5999 C 555.705 1.28582 -5.17979 0
M  V30 6000 O 555.928 2.52369 -5.11533 0
M  V30 6001 O 554.862 0.782172 -5.96796 0
M  V30 6002 H 558.688 -0.620258 -2.97299 0
M  V30 6003 H 556.273 -0.36916 -1.44767 0
M  V30 6004 H 558.155 1.66163 -3.87257 0
M  V30 6005 H 556.83 1.80717 -2.68557 0
M  V30 6006 H 555.737 -0.260465 -3.73192 0
M  V30 6007 H 557.07 -0.323049 -4.91139 0
M  V30 6008 N 558.722 1.53707 -0.348139 0
M  V30 6009 C 559.968 2.01286 0.247332 0
M  V30 6010 C 560.301 1.23546 1.49834 0
M  V30 6011 O 559.576 0.324331 1.91777 0
M  V30 6012 C 559.859 3.55768 0.556858 0
M  V30 6013 C 559.712 4.44216 -0.706564 0
M  V30 6014 C 561.031 4.1841 1.3646 0
M  V30 6015 H 558.15 0.731677 0.0884201 0
M  V30 6016 H 560.792 1.84106 -0.469584 0
M  V30 6017 H 558.942 3.70539 1.16761 0
M  V30 6018 H 560.614 4.41274 -1.34444 0
M  V30 6019 H 558.857 4.12892 -1.33052 0
M  V30 6020 H 559.528 5.50202 -0.445186 0
M  V30 6021 H 562.004 4.07365 0.848113 0
M  V30 6022 H 560.88 5.26563 1.54992 0
M  V30 6023 H 561.141 3.7333 2.36805 0
M  V30 6024 N 560.2 0.0768682 1.57412 0
M  V30 6025 C 561.428 -0.59997 1.9801 0
M  V30 6026 C 561.843 -1.62842 0.955408 0
M  V30 6027 O 561.2 -1.8241 -0.057314 0
M  V30 6028 C 561.251 -1.26401 3.38681 0
M  V30 6029 O 560.972 -0.276723 4.37225 0
M  V30 6030 C 562.473 -2.0282 3.94182 0
M  V30 6031 H 559.693 -0.162239 0.651091 0
M  V30 6032 H 562.237 0.150771 2.03943 0
M  V30 6033 H 560.392 -1.96581 3.33819 0
M  V30 6034 H 560.806 -0.753744 5.19056 0
M  V30 6035 H 562.28 -2.44667 4.94815 0
M  V30 6036 H 562.757 -2.88678 3.31001 0
M  V30 6037 H 563.363 -1.37496 4.02461 0
M  V30 6038 N 561.678 -1.56367 -0.196722 0
M  V30 6039 C 562.955 -1.71359 -0.943159 0
M  V30 6040 C 563.335 -0.631192 -2.01443 0
M  V30 6041 O 562.683 0.358071 -2.25677 0
M  V30 6042 C 562.893 -3.13623 -1.53106 0
M  V30 6043 C 564.241 -3.73806 -2.01381 0
M  V30 6044 O 565.265 -3.16742 -1.62951 0
M  V30 6045 O 564.124 -4.73951 -2.7209 0
M  V30 6046 H 561.218 -0.698851 -0.442195 0
M  V30 6047 H 563.764 -1.68672 -0.186547 0
M  V30 6048 H 562.536 -3.83873 -0.758785 0
M  V30 6049 H 562.159 -3.20532 -2.35255 0
M  V30 6050 N 563.156 0.464375 -1.50603 0
M  V30 6051 C 564.119 1.54393 -1.69397 0
M  V30 6052 C 565.119 1.50566 -0.564504 0
M  V30 6053 O 566.309 1.53066 -0.831645 0
M  V30 6054 C 563.441 2.9401 -1.72543 0
M  V30 6055 H 564.634 1.39044 -2.65719 0
M  V30 6056 H 562.187 0.69122 -1.40185 0
M  V30 6057 H 562.922 3.14795 -0.77938 0
M  V30 6058 H 562.707 2.98195 -2.54602 0
M  V30 6059 H 564.197 3.72375 -1.89015 0
M  V30 6060 N 564.634 1.40294 0.718013 0
M  V30 6061 C 565.564 1.43118 1.84498 0
M  V30 6062 C 566.545 0.292403 1.67568 0
M  V30 6063 O 567.73 0.500675 1.87635 0
M  V30 6064 C 564.86 1.29065 3.22427 0
M  V30 6065 C 563.814 2.40521 3.54025 0
M  V30 6066 C 563.14 2.11546 4.91073 0
M  V30 6067 C 564.44 3.82859 3.55269 0
M  V30 6068 H 566.134 2.37432 1.82391 0
M  V30 6069 H 563.68 1.14283 0.87609 0
M  V30 6070 H 565.633 1.29658 4.00957 0
M  V30 6071 H 564.357 0.312271 3.25104 0
M  V30 6072 H 563.016 2.39173 2.77834 0
M  V30 6073 H 562.664 1.12104 4.90348 0
M  V30 6074 H 562.364 2.86216 5.1318 0
M  V30 6075 H 563.888 2.13817 5.71939 0
M  V30 6076 H 565.302 3.86044 4.23843 0
M  V30 6077 H 563.699 4.57029 3.88902 0
M  V30 6078 H 564.769 4.12617 2.54706 0
M  V30 6079 N 566.112 -0.949982 1.2575 0
M  V30 6080 C 567.042 -2.06483 1.09028 0
M  V30 6081 C 568.023 -1.701 -0.00201532 0
M  V30 6082 O 569.208 -1.93469 0.168383 0
M  V30 6083 C 566.338 -3.39899 0.71316 0
M  V30 6084 C 565.292 -3.90309 1.75621 0
M  V30 6085 C 564.618 -5.20274 1.23365 0
M  V30 6086 C 565.918 -4.16169 3.15596 0
M  V30 6087 H 567.612 -2.20731 2.02283 0
M  V30 6088 H 565.158 -1.06066 0.973964 0
M  V30 6089 H 567.111 -4.17346 0.58309 0
M  V30 6090 H 565.835 -3.25602 -0.255091 0
M  V30 6091 H 564.494 -3.15035 1.8748 0
M  V30 6092 H 564.142 -5.02351 0.255491 0
M  V30 6093 H 563.842 -5.54971 1.93082 0
M  V30 6094 H 565.366 -6.00314 1.11607 0
M  V30 6095 H 566.78 -4.84259 3.06864 0
M  V30 6096 H 565.177 -4.62131 3.82825 0
M  V30 6097 H 566.247 -3.22273 3.6231 0
M  V30 6098 N 567.59 -1.07411 -1.15328 0
M  V30 6099 C 568.537 -0.694995 -2.20087 0
M  V30 6100 C 569.507 0.313904 -1.63107 0
M  V30 6101 O 570.692 0.200216 -1.89747 0
M  V30 6102 C 567.832 -0.0996218 -3.44956 0
M  V30 6103 C 566.945 -1.16007 -4.16133 0
M  V30 6104 C 566.08 -0.529636 -5.28553 0
M  V30 6105 C 565.119 -1.57283 -5.91548 0
M  V30 6106 N 564.256 -0.964932 -6.95438 0
M  V30 6107 H 569.096 -1.5927 -2.51867 0
M  V30 6108 H 566.633 -0.796115 -1.23695 0
M  V30 6109 H 568.591 0.263197 -4.16369 0
M  V30 6110 H 567.221 0.761435 -3.13691 0
M  V30 6111 H 566.273 -1.64045 -3.4321 0
M  V30 6112 H 567.585 -1.95101 -4.59061 0
M  V30 6113 H 566.739 -0.114487 -6.06592 0
M  V30 6114 H 565.478 0.29307 -4.86819 0
M  V30 6115 H 564.483 -1.99775 -5.12221 0
M  V30 6116 H 565.708 -2.39783 -6.35359 0
M  V30 6117 H 563.654 -0.16314 -6.55797 0
M  V30 6118 H 563.571 -1.69311 -7.36797 0
M  V30 6119 H 564.839 -0.575305 -7.77374 0
M  V30 6120 N 569.068 1.32177 -0.85831 0
M  V30 6121 C 569.978 2.32561 -0.308606 0
M  V30 6122 C 570.994 1.64209 0.575462 0
M  V30 6123 O 572.17 1.95719 0.474961 0
M  V30 6124 C 569.235 3.43207 0.490909 0
M  V30 6125 C 568.296 4.27243 -0.419733 0
M  V30 6126 C 567.529 5.32605 0.341719 0
M  V30 6127 O 567.752 5.48332 1.57125 0
M  V30 6128 O 566.686 6.0118 -0.294379 0
M  V30 6129 H 570.512 2.81477 -1.14037 0
M  V30 6130 H 568.097 1.35866 -0.621349 0
M  V30 6131 H 569.979 4.10677 0.944574 0
M  V30 6132 H 568.654 2.96474 1.29941 0
M  V30 6133 H 567.561 3.62569 -0.921652 0
M  V30 6134 H 568.894 4.7751 -1.19352 0
M  V30 6135 N 570.547 0.616602 1.45037 0
M  V30 6136 C 571.796 0.112861 2.01384 0
M  V30 6137 C 572.109 -1.26758 1.48969 0
M  V30 6138 O 573.315 -1.86454 1.9735 0
M  V30 6139 C 571.771 0.151057 3.59583 0
M  V30 6140 C 571.379 1.53191 4.20995 0
M  V30 6141 C 573.123 -0.296974 4.2346 0
M  V30 6142 C 571.03 1.526 5.71373 0
M  V30 6143 H 569.96 0.0384254 0.75302 0
M  V30 6144 H 572.611 0.773262 1.66412 0
M  V30 6145 H 570.993 -0.57617 3.91786 0
M  V30 6146 H 572.167 2.28156 4.00352 0
M  V30 6147 H 570.482 1.92279 3.69348 0
M  V30 6148 H 573.079 -0.320712 5.33737 0
M  V30 6149 H 573.422 -1.32145 3.9477 0
M  V30 6150 H 573.955 0.377279 3.96007 0
M  V30 6151 H 570.694 2.52837 6.04776 0
M  V30 6152 H 570.214 0.819064 5.94181 0
M  V30 6153 H 571.893 1.25357 6.3474 0
M  V30 6154 N 572.025 -1.5352 0.356285 0
M  V30 6155 C 572.935 -2.29151 -0.502712 0
M  V30 6156 C 573.951 -1.34753 -1.1008 0
M  V30 6157 O 575.127 -1.67803 -1.11374 0
M  V30 6158 C 572.192 -3.05911 -1.63154 0
M  V30 6159 C 571.253 -4.15958 -1.06194 0
M  V30 6160 C 570.486 -4.8905 -2.13696 0
M  V30 6161 O 570.709 -4.61919 -3.34645 0
M  V30 6162 O 569.643 -5.75202 -1.77275 0
M  V30 6163 H 573.469 -3.03492 0.112466 0
M  V30 6164 H 571.054 -1.4891 0.120942 0
M  V30 6165 H 572.936 -3.53874 -2.28804 0
M  V30 6166 H 571.611 -2.34415 -2.23229 0
M  V30 6167 H 570.518 -3.7227 -0.369603 0
M  V30 6168 H 571.851 -4.89593 -0.505872 0
M  V30 6169 N 573.503 -0.0852151 -1.57369 0
M  V30 6170 C 574.466 0.8627 -2.12344 0
M  V30 6171 C 575.466 1.21746 -1.05046 0
M  V30 6172 O 576.656 1.14852 -1.30976 0
M  V30 6173 C 573.788 2.1618 -2.63589 0
M  V30 6174 H 574.981 0.385511 -2.97412 0
M  V30 6175 H 572.534 0.163663 -1.55441 0
M  V30 6176 H 573.269 2.68406 -1.82013 0
M  V30 6177 H 573.054 1.91723 -3.4203 0
M  V30 6178 H 574.544 2.84011 -3.06149 0
M  V30 6179 N 574.981 1.5647 0.188427 0
M  V30 6180 C 576.258 1.71857 0.934058 0
M  V30 6181 C 576.638 0.641867 2.01105 0
M  V30 6182 O 575.986 -0.346098 2.25864 0
M  V30 6183 C 576.196 3.14431 1.5144 0
M  V30 6184 C 577.544 3.74869 1.99396 0
M  V30 6185 O 578.568 3.17601 1.61269 0
M  V30 6186 O 577.427 4.75387 2.69573 0
M  V30 6187 H 574.521 0.701186 0.438483 0
M  V30 6188 H 577.067 1.68768 0.177599 0
M  V30 6189 H 575.839 3.8427 0.738416 0
M  V30 6190 H 575.462 3.21775 2.33552 0
M  V30 6191 N 576.459 -0.456382 1.50847 0
M  V30 6192 C 577.406 -1.55249 1.70782 0
M  V30 6193 C 578.376 -1.56757 0.549231 0
M  V30 6194 O 579.561 -1.74061 0.7815 0
M  V30 6195 C 576.701 -2.93118 1.82143 0
M  V30 6196 C 575.814 -3.01285 3.09598 0
M  V30 6197 C 574.949 -4.30159 3.11667 0
M  V30 6198 C 573.988 -4.32124 4.33515 0
M  V30 6199 N 573.125 -5.52492 4.3324 0
M  V30 6200 H 577.965 -1.37555 2.64353 0
M  V30 6201 H 575.502 -0.668543 1.3103 0
M  V30 6202 H 577.46 -3.73088 1.86711 0
M  V30 6203 H 576.09 -3.09413 0.919978 0
M  V30 6204 H 575.142 -2.14096 3.14431 0
M  V30 6205 H 576.454 -2.98597 3.99551 0
M  V30 6206 H 575.608 -5.18489 3.15046 0
M  V30 6207 H 574.347 -4.35477 2.1957 0
M  V30 6208 H 573.352 -3.42189 4.30333 0
M  V30 6209 H 574.577 -4.28485 5.26856 0
M  V30 6210 H 572.523 -5.58567 3.44004 0
M  V30 6211 H 572.44 -5.51605 5.16979 0
M  V30 6212 H 573.708 -6.42906 4.40786 0
M  V30 6213 N 577.937 -1.40673 -0.710563 0
M  V30 6214 C 579.167 -1.4234 -1.49742 0
M  V30 6215 C 579.575 -0.022821 -1.89186 0
M  V30 6216 O 578.918 0.964773 -1.56326 0
M  V30 6217 C 578.98 -2.25509 -2.79975 0
M  V30 6218 C 578.644 -3.73862 -2.62824 0
M  V30 6219 C 579.641 -4.66379 -2.29752 0
M  V30 6220 C 577.326 -4.17735 -2.78932 0
M  V30 6221 C 579.32 -6.00756 -2.13006 0
M  V30 6222 C 577.007 -5.5218 -2.61802 0
M  V30 6223 C 578.005 -6.43505 -2.28888 0
M  V30 6224 O 577.693 -7.75472 -2.11894 0
M  V30 6225 H 577.425 -0.487311 -0.468513 0
M  V30 6226 H 579.979 -1.8542 -0.883668 0
M  V30 6227 H 578.209 -1.77218 -3.43701 0
M  V30 6228 H 579.898 -2.19058 -3.41714 0
M  V30 6229 H 580.664 -4.33778 -2.16936 0
M  V30 6230 H 576.543 -3.46967 -3.03537 0
M  V30 6231 H 580.087 -6.72003 -1.87237 0
M  V30 6232 H 575.984 -5.84365 -2.74204 0
M  V30 6233 H 576.752 -7.86458 -2.26775 0
M  V30 6234 N 579.415 0.9433 -1.26252 0
M  V30 6235 C 580.692 1.66639 -1.02424 0
M  V30 6236 C 581.072 2.06335 0.446006 0
M  V30 6237 O 580.42 1.78551 1.42589 0
M  V30 6238 C 580.63 2.88019 -1.97094 0
M  V30 6239 C 581.978 3.59718 -2.25584 0
M  V30 6240 O 583.002 2.9812 -1.94943 0
M  V30 6241 O 581.861 4.7066 -2.77743 0
M  V30 6242 H 578.955 0.729643 -0.389294 0
M  V30 6243 H 581.501 0.995218 -1.37454 0
M  V30 6244 H 580.273 2.5556 -2.96319 0
M  V30 6245 H 579.896 3.62863 -1.62532 0
M  V30 6246 N 580.893 1.08022 1.14757 0
M  V30 6247 C 581.856 0.71048 2.1791 0
M  V30 6248 C 582.856 -0.252731 1.58801 0
M  V30 6249 O 584.046 -0.0327915 1.74169 0
M  V30 6250 C 581.178 0.0483203 3.40866 0
M  V30 6251 H 582.371 1.62384 2.52134 0
M  V30 6252 H 579.924 0.877595 1.29337 0
M  V30 6253 H 580.659 -0.876959 3.12218 0
M  V30 6254 H 580.444 0.741189 3.85031 0
M  V30 6255 H 581.934 -0.195471 4.17142 0
M  V30 6256 N 582.371 -1.3172 0.865308 0
M  V30 6257 C 583.62 -1.96145 0.470098 0
M  V30 6258 C 583.933 -1.69182 -0.981674 0
M  V30 6259 O 585.139 -2.27431 -1.48281 0
M  V30 6260 C 583.595 -3.51129 0.789732 0
M  V30 6261 C 583.203 -3.86938 2.25795 0
M  V30 6262 C 584.947 -4.2197 0.462765 0
M  V30 6263 C 582.854 -5.35012 2.52024 0
M  V30 6264 H 581.784 -0.734105 0.172065 0
M  V30 6265 H 584.435 -1.49959 1.05757 0
M  V30 6266 H 582.817 -3.95781 0.131571 0
M  V30 6267 H 583.991 -3.5326 2.95879 0
M  V30 6268 H 582.306 -3.29149 2.55049 0
M  V30 6269 H 584.903 -5.30904 0.636019 0
M  V30 6270 H 585.246 -4.12005 -0.59645 0
M  V30 6271 H 585.779 -3.82936 1.07727 0
M  V30 6272 H 582.518 -5.50008 3.56611 0
M  V30 6273 H 582.038 -5.70058 1.8653 0
M  V30 6274 H 583.717 -6.0222 2.36515 0
M  V30 6275 N 583.85 -0.624285 -1.44708 0
M  V30 6276 C 585.099 -0.123539 -2.01321 0
M  V30 6277 C 585.412 1.25966 -1.49639 0
M  V30 6278 O 586.618 1.85405 -1.98336 0
M  V30 6279 C 585.074 -0.170124 -3.59498 0
M  V30 6280 C 584.682 -1.55421 -4.20176 0
M  V30 6281 C 586.426 0.274513 -4.23611 0
M  V30 6282 C 584.332 -1.55628 -5.70556 0
M  V30 6283 H 583.263 -0.0424183 -0.752806 0
M  V30 6284 H 585.913 -0.782076 -1.65999 0
M  V30 6285 H 584.296 0.555385 -3.92086 0
M  V30 6286 H 585.47 -2.30276 -3.99136 0
M  V30 6287 H 583.784 -1.94235 -3.68323 0
M  V30 6288 H 586.382 0.292402 -5.339 0
M  V30 6289 H 586.725 1.3005 -3.95465 0
M  V30 6290 H 587.258 -0.398275 -3.95801 0
M  V30 6291 H 583.997 -2.56041 -6.03426 0
M  V30 6292 H 583.517 -0.850563 -5.93739 0
M  V30 6293 H 585.196 -1.28721 -6.34066 0
M  V30 6294 N 585.328 1.53329 -0.364422 0
M  V30 6295 C 586.258 2.28627 0.474543 0
M  V30 6296 C 587.239 1.31009 1.08492 0
M  V30 6297 O 588.424 1.59878 1.10239 0
M  V30 6298 C 585.554 3.07465 1.61501 0
M  V30 6299 C 584.508 4.1276 1.13194 0
M  V30 6300 C 583.834 4.79674 2.36255 0
M  V30 6301 C 585.134 5.21847 0.217507 0
M  V30 6302 H 586.828 2.99005 -0.153656 0
M  V30 6303 H 584.374 1.43803 -0.0753406 0
M  V30 6304 H 586.327 3.58889 2.20855 0
M  V30 6305 H 585.051 2.34775 2.27042 0
M  V30 6306 H 583.71 3.62281 0.56109 0
M  V30 6307 H 583.358 4.03557 3.00251 0
M  V30 6308 H 583.058 5.50827 2.04606 0
M  V30 6309 H 584.582 5.33892 2.96297 0
M  V30 6310 H 585.996 5.6878 0.718493 0
M  V30 6311 H 584.393 6.00099 -0.00806408 0
M  V30 6312 H 585.463 4.7921 -0.740653 0
M  V30 6313 N 586.806 0.0935595 1.57322 0
M  V30 6314 C 587.754 -0.883457 2.15169 0
M  V30 6315 C 588.748 -1.29324 1.09415 0
M  V30 6316 O 589.954 -1.26795 1.27762 0
M  V30 6317 H 586.329 -0.302923 0.688289 0
M  V30 6318 H 588.3 -0.370845 2.96087 0
M  V30 6319 C 587.049 -2.13345 2.74552 0
M  V30 6320 H 586.372 -1.82702 3.55612 0
M  V30 6321 H 587.812 -2.7977 3.18598 0
M  V30 6322 C 586.271 -2.90646 1.70371 0
M  V30 6323 O 586.801 -3.85133 1.14173 0
M  V30 6324 N 585.007 -2.54157 1.40899 0
M  V30 6325 H 584.554 -1.77391 1.86789 0
M  V30 6326 H 584.512 -3.06178 0.714301 0
M  V30 6327 N 588.284 -1.56567 -0.180126 0
M  V30 6328 C 589.514 -1.85349 -0.912647 0
M  V30 6329 C 589.922 -0.675795 -1.76719 0
M  V30 6330 O 589.265 0.3645 -1.80047 0
M  V30 6331 C 589.327 -3.08431 -1.84691 0
M  V30 6332 C 588.991 -4.41694 -1.17284 0
M  V30 6333 C 589.988 -5.17062 -0.542532 0
M  V30 6334 C 587.673 -4.8843 -1.17223 0
M  V30 6335 C 589.667 -6.37351 0.0793953 0
M  V30 6336 C 587.354 -6.08652 -0.54647 0
M  V30 6337 C 588.352 -6.82955 0.0782458 0
M  V30 6338 O 588.04 -8.00897 0.694158 0
M  V30 6339 H 587.772 -0.619286 -0.271036 0
M  V30 6340 H 590.326 -2.0454 -0.187768 0
M  V30 6341 H 588.556 -2.85163 -2.61188 0
M  V30 6342 H 590.245 -3.23733 -2.44851 0
M  V30 6343 H 591.011 -4.8204 -0.535045 0
M  V30 6344 H 586.89 -4.30542 -1.64788 0
M  V30 6345 H 590.434 -6.95287 0.567612 0
M  V30 6346 H 586.331 -6.4314 -0.55151 0
M  V30 6347 H 587.099 -8.16352 0.592537 0
M  V30 6348 N 589.762 0.448376 -1.51087 0
M  V30 6349 C 590.725 1.52588 -1.71025 0
M  V30 6350 C 591.725 1.49958 -0.580442 0
M  V30 6351 O 592.915 1.52176 -0.847833 0
M  V30 6352 C 590.047 2.92163 -1.75652 0
M  V30 6353 H 591.24 1.36218 -2.67179 0
M  V30 6354 H 588.793 0.676313 -1.4091 0
M  V30 6355 H 589.528 3.13951 -0.812724 0
M  V30 6356 H 589.313 2.95478 -2.57751 0
M  V30 6357 H 590.803 3.70349 -1.92953 0
M  V30 6358 N 591.24 1.41047 0.703093 0
M  V30 6359 C 592.188 1.42494 1.83843 0
M  V30 6360 C 593.182 0.303885 1.66652 0
M  V30 6361 O 594.388 0.475544 1.73605 0
M  V30 6362 H 590.763 0.445685 0.605697 0
M  V30 6363 H 592.734 2.38194 1.79739 0
M  V30 6364 C 591.483 1.31666 3.21807 0
M  V30 6365 H 590.806 2.17212 3.35647 0
M  V30 6366 H 592.246 1.36738 4.01346 0
M  V30 6367 C 590.705 0.0281828 3.36888 0
M  V30 6368 O 591.235 -0.929995 3.90786 0
M  V30 6369 N 589.441 -0.0454322 2.90564 0
M  V30 6370 H 588.988 0.735046 2.4689 0
M  V30 6371 H 588.946 -0.906968 3.01034 0
M  V30 6372 N 592.718 -0.936591 1.26751 0
M  V30 6373 C 594.129 -1.49816 1.1141 0
M  V30 6374 C 594.48 -1.9383 -0.304015 0
M  V30 6375 O 593.605 -1.80346 -1.196 0
M  V30 6376 C 594.2 -2.72271 2.01629 0
M  V30 6377 C 592.759 -3.2468 1.9042 0
M  V30 6378 C 591.906 -1.97444 1.94708 0
M  V30 6379 H 594.857 -0.751604 1.39773 0
M  V30 6380 H 594.878 -3.46741 1.56688 0
M  V30 6381 H 594.39 -2.40205 3.04833 0
M  V30 6382 H 592.491 -3.61525 0.901674 0
M  V30 6383 H 592.604 -3.91476 2.76195 0
M  V30 6384 H 590.968 -2.13545 1.38818 0
M  V30 6385 H 591.751 -1.67703 2.9955 0
M  V30 6386 N 594.196 -1.08629 -1.14182 0
M  V30 6387 C 595.473 -0.73002 -1.81466 0
M  V30 6388 C 595.853 0.785996 -1.95922 0
M  V30 6389 O 595.201 1.70535 -1.52086 0
M  V30 6390 C 595.411 -1.45957 -3.17014 0
M  V30 6391 C 596.759 -1.62008 -3.92477 0
M  V30 6392 O 597.783 -1.42141 -3.26611 0
M  V30 6393 O 596.642 -1.94806 -5.106 0
M  V30 6394 H 593.736 -0.261307 -0.784632 0
M  V30 6395 H 596.282 -1.188 -1.2118 0
M  V30 6396 H 595.054 -2.49221 -3.01669 0
M  V30 6397 H 594.677 -0.993222 -3.84995 0
M  V30 6398 N 595.674 1.31259 -0.872281 0
M  V30 6399 C 596.607 2.26544 -0.274394 0
M  V30 6400 C 597.585 1.51213 0.597776 0
M  V30 6401 O 598.769 1.80277 0.550687 0
M  V30 6402 C 595.896 3.33139 0.611256 0
M  V30 6403 C 594.942 4.26077 -0.189876 0
M  V30 6404 S 595.775 5.11971 -1.56989 0
M  V30 6405 C 596.931 6.2208 -0.690427 0
M  V30 6406 H 597.164 2.76908 -1.0821 0
M  V30 6407 H 594.697 1.3906 -0.670939 0
M  V30 6408 H 596.655 3.95024 1.11654 0
M  V30 6409 H 595.316 2.81525 1.39294 0
M  V30 6410 H 594.509 5.01657 0.485433 0
M  V30 6411 H 594.111 3.68701 -0.627339 0
M  V30 6412 H 596.403 6.77429 0.098001 0
M  V30 6413 H 597.346 6.93768 -1.41742 0
M  V30 6414 H 597.754 5.63915 -0.256953 0
M  V30 6415 N 597.152 0.631951 1.44375 0
M  V30 6416 C 598.398 0.13697 2.02337 0
M  V30 6417 C 598.731 -1.23826 1.49602 0
M  V30 6418 O 598.006 -1.8221 0.680415 0
M  V30 6419 C 598.289 0.124536 3.59885 0
M  V30 6420 C 598.142 1.53217 4.229 0
M  V30 6421 C 599.461 -0.550481 4.36644 0
M  V30 6422 H 596.58 0.051247 0.735216 0
M  V30 6423 H 599.222 0.808581 1.71936 0
M  V30 6424 H 597.372 -0.44737 3.85916 0
M  V30 6425 H 599.044 2.15303 4.07973 0
M  V30 6426 H 597.287 2.0858 3.80364 0
M  V30 6427 H 597.958 1.4755 5.31914 0
M  V30 6428 H 600.434 -0.0641154 4.16051 0
M  V30 6429 H 599.31 -0.528371 5.46351 0
M  V30 6430 H 599.571 -1.62097 4.11311 0
M  V30 6431 N 598.631 -1.53133 0.372548 0
M  V30 6432 C 599.879 -2.00958 -0.214534 0
M  V30 6433 C 600.2 -1.26135 -1.48711 0
M  V30 6434 O 599.47 -0.376597 -1.92246 0
M  V30 6435 H 598.05 -0.742456 -0.0822664 0
M  V30 6436 H 600.712 -1.88367 0.500385 0
M  V30 6437 H 599.808 -3.09031 -0.436605 0
M  V30 6438 N 600.109 -0.101901 -1.5727 0
M  V30 6439 C 601.059 0.865346 -2.1094 0
M  V30 6440 C 602.043 1.2394 -1.02605 0
M  V30 6441 O 603.235 1.21334 -1.28868 0
M  V30 6442 C 600.364 2.12187 -2.69874 0
M  V30 6443 C 599.45 1.77295 -3.85263 0
M  V30 6444 N 599.841 1.12993 -4.93017 0
M  V30 6445 C 598.139 2.06862 -3.95126 0
M  V30 6446 C 598.84 0.968631 -5.73579 0
M  V30 6447 N 597.816 1.48814 -5.22834 0
M  V30 6448 H 601.618 0.364368 -2.91633 0
M  V30 6449 H 599.132 0.101104 -1.62085 0
M  V30 6450 H 601.129 2.82431 -3.06657 0
M  V30 6451 H 599.789 2.62844 -1.90639 0
M  V30 6452 H 600.8 0.795935 -5.11747 0
M  V30 6453 H 597.477 2.59686 -3.26909 0
M  V30 6454 H 598.867 0.465231 -6.70287 0
M  V30 6455 N 601.587 1.56661 0.17182 0
M  V30 6456 C 602.812 1.86459 0.908165 0
M  V30 6457 C 603.237 0.688181 1.75059 0
M  V30 6458 O 602.595 -0.362753 1.77634 0
M  V30 6459 C 602.643 3.14669 1.76112 0
M  V30 6460 O 601.747 2.96858 2.86268 0
M  V30 6461 H 601.088 0.613318 0.254434 0
M  V30 6462 H 603.618 2.03892 0.170113 0
M  V30 6463 H 603.628 3.46061 2.16115 0
M  V30 6464 H 602.303 3.99905 1.14233 0
M  V30 6465 H 600.88 2.76819 2.49852 0
M  V30 6466 N 603.065 -0.440357 1.51323 0
M  V30 6467 C 604.313 -1.18769 1.63518 0
M  V30 6468 C 604.634 -1.91793 0.352201 0
M  V30 6469 O 603.904 -1.85432 -0.631811 0
M  V30 6470 H 602.484 -0.441408 0.602634 0
M  V30 6471 H 605.146 -0.505162 1.8824 0
M  V30 6472 H 604.242 -1.91892 2.46138 0
M  V30 6473 N 604.543 -1.41418 -0.695603 0
M  V30 6474 C 605.49 -1.43264 -1.80954 0
M  V30 6475 C 606.46 -0.287016 -1.63601 0
M  V30 6476 O 607.645 -0.488054 -1.84452 0
M  V30 6477 C 604.785 -1.32054 -3.18835 0
M  V30 6478 C 603.898 -2.56485 -3.4762 0
M  V30 6479 C 603.033 -2.3757 -4.75115 0
M  V30 6480 C 602.072 -3.57477 -4.96867 0
M  V30 6481 N 601.209 -3.37632 -6.15588 0
M  V30 6482 H 606.049 -2.38467 -1.78711 0
M  V30 6483 H 603.586 -1.18415 -0.872715 0
M  V30 6484 H 605.544 -1.23558 -3.98484 0
M  V30 6485 H 604.174 -0.404592 -3.20254 0
M  V30 6486 H 603.226 -2.75432 -2.62376 0
M  V30 6487 H 604.538 -3.45678 -3.59594 0
M  V30 6488 H 603.692 -2.2654 -5.62818 0
M  V30 6489 H 602.431 -1.45834 -4.65386 0
M  V30 6490 H 601.436 -3.68961 -4.07612 0
M  V30 6491 H 602.661 -4.50167 -5.08455 0
M  V30 6492 H 600.607 -2.48596 -6.07072 0
M  V30 6493 H 600.524 -4.20401 -6.2833 0
M  V30 6494 H 601.792 -3.30375 -7.06026 0
M  V30 6495 N 606.021 0.929856 -1.27246 0
M  V30 6496 C 606.951 2.04722 -1.12299 0
M  V30 6497 C 607.932 1.70082 -0.0250464 0
M  V30 6498 O 609.117 1.93176 -0.199141 0
M  V30 6499 C 606.247 3.38721 -0.767145 0
M  V30 6500 C 605.201 3.87466 -1.81808 0
M  V30 6501 C 604.527 5.18246 -1.31626 0
M  V30 6502 C 605.827 4.11095 -3.22177 0
M  V30 6503 H 607.521 2.17485 -2.05769 0
M  V30 6504 H 605.067 1.04503 -0.990715 0
M  V30 6505 H 607.02 4.16366 -0.649413 0
M  V30 6506 H 605.744 3.25967 0.203259 0
M  V30 6507 H 604.403 3.12012 -1.92468 0
M  V30 6508 H 604.051 5.01881 -0.335378 0
M  V30 6509 H 603.751 5.51829 -2.01887 0
M  V30 6510 H 605.275 5.98462 -1.21143 0
M  V30 6511 H 606.689 4.79316 -3.1453 0
M  V30 6512 H 605.086 4.55982 -3.90129 0
M  V30 6513 H 606.156 3.16468 -3.67391 0
M  V30 6514 N 607.499 1.09233 1.13605 0
M  V30 6515 C 608.409 0.741939 2.22559 0
M  V30 6516 C 609.425 -0.255236 1.72118 0
M  V30 6517 O 610.601 -0.0970747 2.01166 0
M  V30 6518 C 607.666 0.165595 3.46304 0
M  V30 6519 C 606.727 1.21846 4.11645 0
M  V30 6520 C 605.96 0.669526 5.29484 0
M  V30 6521 O 606.183 -0.508228 5.68131 0
M  V30 6522 O 605.117 1.42361 5.84822 0
M  V30 6523 H 608.943 1.65107 2.54899 0
M  V30 6524 H 606.528 0.866584 1.21699 0
M  V30 6525 H 608.41 -0.152592 4.21124 0
M  V30 6526 H 607.085 -0.716573 3.15669 0
M  V30 6527 H 605.992 1.58931 3.38662 0
M  V30 6528 H 607.325 2.07321 4.46407 0
M  V30 6529 N 608.977 -1.30795 0.87923 0
M  V30 6530 C 610.388 -1.78535 0.546093 0
M  V30 6531 C 610.739 -1.72354 -0.937467 0
M  V30 6532 O 609.864 -1.2969 -1.73233 0
M  V30 6533 C 610.459 -3.24181 0.9845 0
M  V30 6534 C 609.018 -3.69779 0.702871 0
M  V30 6535 C 608.165 -2.51377 1.17068 0
M  V30 6536 H 611.116 -1.17746 1.06403 0
M  V30 6537 H 611.137 -3.79227 0.311045 0
M  V30 6538 H 610.649 -3.28647 2.06429 0
M  V30 6539 H 608.75 -3.70806 -0.365166 0
M  V30 6540 H 608.863 -4.61507 1.28639 0
M  V30 6541 H 607.227 -2.47768 0.590172 0
M  V30 6542 H 608.01 -2.58584 2.25808 0
M  V30 6543 N 610.455 -0.639598 -1.44038 0
M  V30 6544 C 611.683 -0.154811 -2.0632 0
M  V30 6545 C 612.098 1.17406 -1.47856 0
M  V30 6546 O 611.455 1.72193 -0.604638 0
M  V30 6547 C 611.506 -0.0429958 -3.61474 0
M  V30 6548 O 611.227 -1.31932 -4.17763 0
M  V30 6549 C 612.728 0.469486 -4.40807 0
M  V30 6550 H 609.948 -0.0835862 -0.665773 0
M  V30 6551 H 612.492 -0.876397 -1.84769 0
M  V30 6552 H 610.647 0.629075 -3.82258 0
M  V30 6553 H 611.061 -1.16965 -5.11292 0
M  V30 6554 H 612.535 0.496712 -5.49761 0
M  V30 6555 H 613.012 1.49819 -4.12857 0
M  V30 6556 H 613.618 -0.169624 -4.24962 0
M  V30 6557 N 611.933 1.52934 -0.380664 0
M  V30 6558 C 613.182 2.00651 0.205477 0
M  V30 6559 C 613.495 1.27164 1.48623 0
M  V30 6560 O 614.701 1.65547 2.15189 0
M  V30 6561 C 613.157 3.57479 0.416726 0
M  V30 6562 C 612.765 4.39857 -0.850268 0
M  V30 6563 C 614.509 4.13509 0.959702 0
M  V30 6564 C 612.416 5.88269 -0.607773 0
M  V30 6565 H 611.346 0.749684 0.0805614 0
M  V30 6566 H 613.997 1.76508 -0.501732 0
M  V30 6567 H 612.379 3.77836 1.18557 0
M  V30 6568 H 613.553 4.31269 -1.62307 0
M  V30 6569 H 611.868 3.95005 -1.31756 0
M  V30 6570 H 614.465 5.22039 1.15669 0
M  V30 6571 H 614.808 3.69054 1.92626 0
M  V30 6572 H 615.341 3.9701 0.250645 0
M  V30 6573 H 612.08 6.3703 -1.54509 0
M  V30 6574 H 611.6 5.99667 0.126247 0
M  V30 6575 H 613.279 6.46558 -0.239014 0
M  V30 6576 N 613.412 0.11024 1.57214 0
M  V30 6577 C 614.359 -0.843195 2.14846 0
M  V30 6578 C 615.329 -1.26954 1.07107 0
M  V30 6579 O 616.514 -1.34861 1.34971 0
M  V30 6580 C 613.654 -2.09123 2.74521 0
M  V30 6581 C 612.767 -1.71404 3.96541 0
M  V30 6582 C 611.902 -2.91107 4.44331 0
M  V30 6583 C 610.941 -2.49586 5.58903 0
M  V30 6584 N 610.078 -3.62175 6.01477 0
M  V30 6585 H 614.918 -0.344886 2.95998 0
M  V30 6586 H 612.455 -0.15855 1.46243 0
M  V30 6587 H 614.413 -2.82234 3.07246 0
M  V30 6588 H 613.043 -2.56427 1.96074 0
M  V30 6589 H 612.095 -0.88201 3.70033 0
M  V30 6590 H 613.407 -1.36884 4.7965 0
M  V30 6591 H 612.561 -3.72454 4.78919 0
M  V30 6592 H 611.3 -3.28848 3.60153 0
M  V30 6593 H 610.305 -1.6667 5.23929 0
M  V30 6594 H 611.53 -2.12973 6.4484 0
M  V30 6595 H 609.476 -3.99605 5.20242 0
M  V30 6596 H 609.393 -3.3155 6.79419 0
M  V30 6597 H 610.661 -4.43987 6.407 0
M  V30 6598 N 614.89 -1.56749 -0.16351 0
M  V30 6599 C 615.853 -1.96121 -1.18613 0
M  V30 6600 C 616.853 -0.845765 -1.36761 0
M  V30 6601 O 618.043 -1.11268 -1.34033 0
M  V30 6602 C 615.175 -2.26282 -2.54969 0
M  V30 6603 H 616.368 -2.87639 -0.848764 0
M  V30 6604 H 613.921 -1.50928 -0.406251 0
M  V30 6605 H 614.656 -1.37504 -2.93706 0
M  V30 6606 H 614.441 -3.07595 -2.43162 0
M  V30 6607 H 615.931 -2.57638 -3.28653 0
M  V30 6608 N 616.368 0.432326 -1.51554 0
M  V30 6609 C 617.614 1.18309 -1.64714 0
M  V30 6610 C 617.947 1.90745 -0.364696 0
M  V30 6611 O 617.222 1.8381 0.635936 0
M  V30 6612 C 617.505 2.1961 -2.85383 0
M  V30 6613 C 617.358 1.51223 -4.23617 0
M  V30 6614 C 618.677 3.20538 -3.01569 0
M  V30 6615 H 615.796 0.428751 -0.599451 0
M  V30 6616 H 618.438 0.471689 -1.84052 0
M  V30 6617 H 616.588 2.8028 -2.69027 0
M  V30 6618 H 618.26 0.938516 -4.51652 0
M  V30 6619 H 616.503 0.814501 -4.26085 0
M  V30 6620 H 617.174 2.25024 -5.04052 0
M  V30 6621 H 619.65 2.69926 -3.16669 0
M  V30 6622 H 618.526 3.88706 -3.87555 0
M  V30 6623 H 618.787 3.86933 -2.13859 0
M  V30 6624 N 617.846 1.41785 0.688094 0
M  V30 6625 C 618.756 1.46596 1.83158 0
M  V30 6626 C 619.772 0.355862 1.70322 0
M  V30 6627 O 620.948 0.604737 1.92106 0
M  V30 6628 C 618.013 1.35322 3.192 0
M  V30 6629 C 617.074 2.56711 3.4409 0
M  V30 6630 C 616.307 2.45965 4.73642 0
M  V30 6631 O 616.53 1.48827 5.50642 0
M  V30 6632 O 615.464 3.35859 4.99482 0
M  V30 6633 H 619.29 2.43083 1.82056 0
M  V30 6634 H 616.875 1.23404 0.842126 0
M  V30 6635 H 618.757 1.31347 4.00407 0
M  V30 6636 H 617.432 0.419536 3.2097 0
M  V30 6637 H 616.339 2.66262 2.62784 0
M  V30 6638 H 617.672 3.48933 3.47141 0
M  V30 6639 N 619.324 -0.923095 1.27737 0
M  V30 6640 C 620.287 -2.00587 1.10894 0
M  V30 6641 C 621.287 -1.60718 0.0514927 0
M  V30 6642 O 622.477 -1.71658 0.296481 0
M  V30 6643 C 619.609 -3.33829 0.690717 0
M  V30 6644 H 620.802 -2.16959 2.07048 0
M  V30 6645 H 618.355 -1.10451 1.1059 0
M  V30 6646 H 619.09 -3.23157 -0.272 0
M  V30 6647 H 618.875 -3.64125 1.45448 0
M  V30 6648 H 620.365 -4.13336 0.595252 0
M  V30 6649 N 620.802 -1.09834 -1.13024 0
M  V30 6650 C 622.048 -0.83819 -1.84668 0
M  V30 6651 C 622.381 0.634645 -1.83537 0
M  V30 6652 O 621.656 1.46753 -1.27647 0
M  V30 6653 C 621.939 -1.37933 -3.32636 0
M  V30 6654 C 621.792 -2.91857 -3.42257 0
M  V30 6655 C 623.111 -1.01654 -4.28199 0
M  V30 6656 H 620.23 -0.30595 -0.670495 0
M  V30 6657 H 622.872 -1.36044 -1.32635 0
M  V30 6658 H 621.022 -0.935111 -3.77078 0
M  V30 6659 H 622.694 -3.44759 -3.06495 0
M  V30 6660 H 620.937 -3.28776 -2.83 0
M  V30 6661 H 621.608 -3.24799 -4.46329 0
M  V30 6662 H 624.084 -1.39973 -3.9185 0
M  V30 6663 H 622.96 -1.42217 -5.30156 0
M  V30 6664 H 623.221 0.0747794 -4.42037 0
M  V30 6665 N 622.28 1.30327 -0.886154 0
M  V30 6666 C 623.557 1.90922 -0.425217 0
M  V30 6667 C 623.937 1.80533 1.09413 0
M  V30 6668 O 623.285 1.2233 1.92996 0
M  V30 6669 C 623.495 3.36529 -0.924638 0
M  V30 6670 C 624.843 4.13598 -0.960305 0
M  V30 6671 O 625.867 3.45377 -0.871382 0
M  V30 6672 O 624.726 5.35482 -1.09184 0
M  V30 6673 H 621.82 0.81668 -0.130238 0
M  V30 6674 H 624.366 1.38886 -0.975132 0
M  V30 6675 H 623.138 3.38181 -1.96849 0
M  V30 6676 H 622.761 3.96021 -0.353955 0
M  V30 6677 N 623.758 0.647228 1.43697 0
M  V30 6678 C 624.668 -0.0487997 2.34549 0
M  V30 6679 C 625.684 -0.818586 1.53542 0
M  V30 6680 O 626.86 -0.767195 1.86215 0
M  V30 6681 C 623.925 -1.00734 3.31743 0
M  V30 6682 C 622.986 -0.23515 4.28655 0
M  V30 6683 C 622.219 -1.14803 5.21206 0
M  V30 6684 O 622.442 -2.38717 5.18045 0
M  V30 6685 O 621.376 -0.623667 5.9866 0
M  V30 6686 H 625.202 0.698863 2.9555 0
M  V30 6687 H 622.787 0.407412 1.43738 0
M  V30 6688 H 624.669 -1.55837 3.91526 0
M  V30 6689 H 623.344 -1.73534 2.73254 0
M  V30 6690 H 622.251 0.359319 3.7237 0
M  V30 6691 H 623.584 0.453152 4.9011 0
M  V30 6692 N 625.236 -1.5273 0.388769 0
M  V30 6693 C 626.476 -2.03483 -0.193372 0
M  V30 6694 C 626.84 -1.26897 -1.44087 0
M  V30 6695 O 628.041 -1.67773 -2.10014 0
M  V30 6696 C 626.312 -3.54488 -0.455325 0
M  V30 6697 S 627.871 -4.27069 -1.00783 0
M  V30 6698 H 624.689 -0.708907 -0.0545131 0
M  V30 6699 H 627.291 -1.8798 0.536993 0
M  V30 6700 H 625.995 -4.07817 0.459722 0
M  V30 6701 H 625.526 -3.74196 -1.21413 0
M  V30 6702 H 627.541 -4.40185 -2.29023 0
M  V30 6703 N 626.714 -0.118576 -1.57153 0
M  V30 6704 C 627.644 0.828436 -2.1831 0
M  V30 6705 C 628.625 1.27758 -1.12303 0
M  V30 6706 O 629.81 1.34026 -1.40537 0
M  V30 6707 C 626.94 2.07876 -2.78217 0
M  V30 6708 C 625.894 1.76742 -3.89803 0
M  V30 6709 C 625.22 3.08801 -4.36516 0
M  V30 6710 C 626.52 1.03606 -5.11921 0
M  V30 6711 H 628.214 0.318824 -2.97698 0
M  V30 6712 H 625.76 0.151911 -1.43196 0
M  V30 6713 H 627.713 2.74584 -3.19659 0
M  V30 6714 H 626.437 2.61161 -1.96118 0
M  V30 6715 H 625.096 1.12424 -3.48936 0
M  V30 6716 H 624.744 3.6002 -3.51276 0
M  V30 6717 H 624.444 2.88743 -5.11763 0
M  V30 6718 H 625.968 3.76627 -4.80608 0
M  V30 6719 H 627.382 1.60467 -5.50385 0
M  V30 6720 H 625.779 0.936454 -5.92748 0
M  V30 6721 H 626.849 0.0227421 -4.84895 0
M  V30 6722 N 628.193 1.56834 0.155195 0
M  V30 6723 C 629.441 1.82536 0.867462 0
M  V30 6724 C 629.762 0.698168 1.82073 0
M  V30 6725 O 629.032 -0.280807 1.93877 0
M  V30 6726 H 627.612 0.673401 0.323327 0
M  V30 6727 H 630.274 1.94313 0.151156 0
M  V30 6728 H 629.37 2.77171 1.43466 0
M  V30 6729 N 629.671 -0.424282 1.51781 0
M  V30 6730 C 630.618 -1.51591 1.74037 0
M  V30 6731 C 631.588 -1.55556 0.582358 0
M  V30 6732 O 632.773 -1.72364 0.818245 0
M  V30 6733 C 629.913 -2.89188 1.8832 0
M  V30 6734 C 629.026 -2.9465 3.1592 0
M  V30 6735 C 628.161 -4.23452 3.20721 0
M  V30 6736 C 627.2 -4.22831 4.42584 0
M  V30 6737 N 626.337 -5.43178 4.44862 0
M  V30 6738 H 631.177 -1.31917 2.67212 0
M  V30 6739 H 628.714 -0.640599 1.32419 0
M  V30 6740 H 630.672 -3.69044 1.94583 0
M  V30 6741 H 629.302 -3.07392 0.985402 0
M  V30 6742 H 628.354 -2.07378 3.18902 0
M  V30 6743 H 629.666 -2.90055 4.05795 0
M  V30 6744 H 628.82 -5.1169 3.25973 0
M  V30 6745 H 627.559 -4.30722 2.28757 0
M  V30 6746 H 626.564 -3.32984 4.37495 0
M  V30 6747 H 627.789 -4.17213 5.35826 0
M  V30 6748 H 625.735 -5.51145 3.55775 0
M  V30 6749 H 625.652 -5.40515 5.28563 0
M  V30 6750 H 626.92 -6.33412 4.54324 0
M  V30 6751 N 631.149 -1.42148 -0.680565 0
M  V30 6752 C 632.395 -1.42521 -1.44277 0
M  V30 6753 C 632.728 -0.0393718 -1.9416 0
M  V30 6754 O 632.003 0.935425 -1.70529 0
M  V30 6755 C 632.286 -2.44475 -2.64394 0
M  V30 6756 C 632.139 -3.92226 -2.20179 0
M  V30 6757 C 633.458 -2.43491 -3.66606 0
M  V30 6758 H 630.577 -0.518985 -0.523282 0
M  V30 6759 H 633.219 -1.73524 -0.773914 0
M  V30 6760 H 631.369 -2.18168 -3.21458 0
M  V30 6761 H 633.041 -4.29493 -1.68327 0
M  V30 6762 H 631.284 -4.0637 -1.5181 0
M  V30 6763 H 631.955 -4.59133 -3.06433 0
M  V30 6764 H 634.431 -2.66872 -3.19247 0
M  V30 6765 H 633.307 -3.16816 -4.4824 0
M  V30 6766 H 633.568 -1.45881 -4.17338 0
M  V30 6767 N 632.627 0.916307 -1.28225 0
M  V30 6768 C 633.873 1.66765 -1.154 0
M  V30 6769 C 634.206 1.91912 0.297251 0
M  V30 6770 O 633.481 1.51766 1.21644 0
M  V30 6771 C 633.764 3.02715 -1.95028 0
M  V30 6772 C 633.617 2.84738 -3.48201 0
M  V30 6773 C 634.936 4.03215 -1.76369 0
M  V30 6774 H 632.055 0.605205 -0.42059 0
M  V30 6775 H 634.697 1.06255 -1.57512 0
M  V30 6776 H 632.847 3.54365 -1.59242 0
M  V30 6777 H 634.519 2.40118 -3.9388 0
M  V30 6778 H 632.762 2.19848 -3.73964 0
M  V30 6779 H 633.433 3.8127 -3.99171 0
M  V30 6780 H 635.909 3.60617 -2.07593 0
M  V30 6781 H 634.785 4.96306 -2.34459 0
M  V30 6782 H 635.046 4.36288 -0.71452 0
M  V30 6783 N 634.105 1.10431 1.1244 0
M  V30 6784 C 635.382 0.758797 1.80282 0
M  V30 6785 C 635.762 -0.754727 1.97147 0
M  V30 6786 O 635.11 -1.68094 1.54779 0
M  V30 6787 C 635.32 1.50982 3.14651 0
M  V30 6788 C 636.668 1.68232 3.8985 0
M  V30 6789 O 637.692 1.47319 3.24308 0
M  V30 6790 O 636.551 2.02905 5.07437 0
M  V30 6791 H 633.645 0.273756 0.780376 0
M  V30 6792 H 636.191 1.20713 1.19275 0
M  V30 6793 H 634.963 2.53989 2.97666 0
M  V30 6794 H 634.586 1.05435 3.83366 0
M  V30 6795 N 635.583 -1.29855 0.893053 0
M  V30 6796 C 636.546 -2.26183 0.370687 0
M  V30 6797 C 637.546 -1.53108 -0.491385 0
M  V30 6798 O 638.736 -1.71643 -0.297386 0
M  V30 6799 C 635.868 -3.37633 -0.470827 0
M  V30 6800 H 637.061 -2.73903 1.22135 0
M  V30 6801 H 634.614 -1.41183 0.67061 0
M  V30 6802 H 635.349 -2.95241 -1.34175 0
M  V30 6803 H 635.134 -3.91825 0.146784 0
M  V30 6804 H 636.624 -4.09313 -0.827825 0
M  V30 6805 N 637.061 -0.65484 -1.43351 0
M  V30 6806 C 638.31 -0.166215 -2.01014 0
M  V30 6807 C 638.623 1.22764 -1.52278 0
M  V30 6808 O 639.829 1.81156 -2.02224 0
M  V30 6809 C 638.285 -0.246341 -3.59056 0
M  V30 6810 C 637.893 -1.64299 -4.16785 0
M  V30 6811 C 639.637 0.184597 -4.24098 0
M  V30 6812 C 637.544 -1.67695 -5.67126 0
M  V30 6813 H 636.474 -0.0583769 -0.751737 0
M  V30 6814 H 639.125 -0.817111 -1.64303 0
M  V30 6815 H 637.507 0.472092 -3.93176 0
M  V30 6816 H 638.681 -2.3869 -3.94162 0
M  V30 6817 H 636.996 -2.02004 -3.6412 0
M  V30 6818 H 639.593 0.179088 -5.344 0
M  V30 6819 H 639.936 1.21632 -3.98135 0
M  V30 6820 H 640.469 -0.482141 -3.94867 0
M  V30 6821 H 637.208 -2.68783 -5.9786 0
M  V30 6822 H 636.728 -0.976313 -5.91801 0
M  V30 6823 H 638.407 -1.42142 -6.31193 0
M  V30 6824 N 638.539 1.52521 -0.396863 0
M  V30 6825 C 639.469 2.29582 0.425941 0
M  V30 6826 C 640.45 1.33281 1.05689 0
M  V30 6827 O 641.635 1.62181 1.06823 0
M  V30 6828 C 638.765 3.10821 1.54943 0
M  V30 6829 C 637.719 4.15069 1.04413 0
M  V30 6830 C 637.045 4.84578 2.26028 0
M  V30 6831 C 638.345 5.22191 0.106767 0
M  V30 6832 H 640.039 2.98612 -0.217045 0
M  V30 6833 H 637.585 1.43611 -0.105826 0
M  V30 6834 H 639.538 3.63492 2.13193 0
M  V30 6835 H 638.262 2.39538 2.22011 0
M  V30 6836 H 636.921 3.63389 0.484118 0
M  V30 6837 H 636.569 4.09835 2.91623 0
M  V30 6838 H 636.269 5.55043 1.92876 0
M  V30 6839 H 637.793 5.40056 2.84906 0
M  V30 6840 H 639.207 5.70176 0.597685 0
M  V30 6841 H 637.604 5.99947 -0.135352 0
M  V30 6842 H 638.674 4.77531 -0.842134 0
M  V30 6843 N 640.017 0.126909 1.57088 0
M  V30 6844 C 640.98 -0.806097 2.14557 0
M  V30 6845 C 641.98 -1.18918 1.08236 0
M  V30 6846 O 643.17 -1.11339 1.33975 0
M  V30 6847 C 640.302 -2.09116 2.69227 0
M  V30 6848 H 641.495 -0.306522 2.98329 0
M  V30 6849 H 639.048 -0.122393 1.5582 0
M  V30 6850 H 639.783 -2.63486 1.89065 0
M  V30 6851 H 639.568 -1.82588 3.46993 0
M  V30 6852 H 641.058 -2.75794 3.13572 0
M  V30 6853 N 641.495 -1.56914 -0.146875 0
M  V30 6854 C 642.442 -1.98275 -1.18134 0
M  V30 6855 C 643.412 -0.850367 -1.42681 0
M  V30 6856 O 644.597 -1.11244 -1.55014 0
M  V30 6857 C 641.737 -2.36861 -2.5098 0
M  V30 6858 C 640.85 -3.63391 -2.33605 0
M  V30 6859 C 639.985 -3.91079 -3.59486 0
M  V30 6860 C 639.024 -5.10879 -3.37149 0
M  V30 6861 N 638.161 -5.34577 -4.55161 0
M  V30 6862 H 643.001 -2.8645 -0.821622 0
M  V30 6863 H 640.538 -1.41718 -0.394248 0
M  V30 6864 H 642.496 -2.57262 -3.28439 0
M  V30 6865 H 641.126 -1.51766 -2.84898 0
M  V30 6866 H 640.178 -3.50766 -1.47199 0
M  V30 6867 H 641.49 -4.51007 -2.13059 0
M  V30 6868 H 640.644 -4.11979 -4.45374 0
M  V30 6869 H 639.383 -3.01885 -3.83036 0
M  V30 6870 H 638.388 -4.89853 -2.49649 0
M  V30 6871 H 639.613 -6.01626 -3.14997 0
M  V30 6872 H 637.559 -4.48337 -4.78884 0
M  V30 6873 H 637.476 -6.16463 -4.37618 0
M  V30 6874 H 638.744 -5.59975 -5.42263 0
M  V30 6875 N 642.974 0.416227 -1.52004 0
M  V30 6876 C 644.222 1.16153 -1.65387 0
M  V30 6877 C 644.543 1.91208 -0.382669 0
M  V30 6878 O 643.813 1.86413 0.602231 0
M  V30 6879 H 642.393 0.431765 -0.60958 0
M  V30 6880 H 645.055 0.475151 -1.89019 0
M  V30 6881 H 644.151 1.87952 -2.4916 0
M  V30 6882 N 644.452 1.42507 0.673017 0
M  V30 6883 C 645.7 1.42789 1.43023 0
M  V30 6884 C 646.021 0.0459738 1.94946 0
M  V30 6885 O 645.291 -0.915765 1.73178 0
M  V30 6886 H 643.871 0.525657 0.530748 0
M  V30 6887 H 646.533 1.77944 0.795113 0
M  V30 6888 H 645.629 2.12872 2.28237 0
M  V30 6889 N 645.93 -0.909495 1.28709 0
M  V30 6890 C 647.179 -1.65365 1.15487 0
M  V30 6891 C 647.492 -1.93364 -0.294941 0
M  V30 6892 O 648.698 -2.65905 -0.548338 0
M  V30 6893 C 647.154 -2.97923 2.01916 0
M  V30 6894 C 646.762 -2.77556 3.51663 0
M  V30 6895 C 648.506 -3.75814 1.97393 0
M  V30 6896 C 646.413 -4.0578 4.30229 0
M  V30 6897 H 645.343 -0.620323 0.42862 0
M  V30 6898 H 647.994 -1.00894 1.53273 0
M  V30 6899 H 646.376 -3.63552 1.5699 0
M  V30 6900 H 647.55 -2.2058 4.04575 0
M  V30 6901 H 645.865 -2.13072 3.57756 0
M  V30 6902 H 648.462 -4.70866 2.53357 0
M  V30 6903 H 648.805 -4.05277 0.951643 0
M  V30 6904 H 649.338 -3.1701 2.40311 0
M  V30 6905 H 646.077 -3.81488 5.33055 0
M  V30 6906 H 645.597 -4.62351 3.82089 0
M  V30 6907 H 647.276 -4.74004 4.40374 0
M  V30 6908 N 647.408 -1.11026 -1.11852 0
M  V30 6909 C 648.371 -0.768006 -2.1595 0
M  V30 6910 C 649.371 0.210538 -1.59416 0
M  V30 6911 O 650.561 -0.0133978 -1.74195 0
M  V30 6912 C 647.693 -0.138678 -3.40618 0
M  V30 6913 H 648.886 -1.69012 -2.4774 0
M  V30 6914 H 646.439 -0.911578 -1.26964 0
M  V30 6915 H 647.174 0.793872 -3.14433 0
M  V30 6916 H 646.959 -0.843012 -3.8293 0
M  V30 6917 H 648.449 0.0848039 -4.17514 0
M  V30 6918 N 648.886 1.2938 -0.899927 0
M  V30 6919 C 650.135 1.9483 -0.521937 0
M  V30 6920 C 650.448 1.71725 0.936473 0
M  V30 6921 O 651.654 2.31282 1.42199 0
M  V30 6922 C 650.11 3.48911 -0.88255 0
M  V30 6923 C 649.718 3.80815 -2.35974 0
M  V30 6924 C 651.462 4.20595 -0.57448 0
M  V30 6925 C 649.369 5.28142 -2.66121 0
M  V30 6926 H 648.299 0.729285 -0.191468 0
M  V30 6927 H 650.95 1.47103 -1.09695 0
M  V30 6928 H 649.332 3.95293 -0.236459 0
M  V30 6929 H 650.506 3.45291 -3.05141 0
M  V30 6930 H 648.821 3.22271 -2.63686 0
M  V30 6931 H 651.418 5.29031 -0.776556 0
M  V30 6932 H 651.761 4.13442 0.487005 0
M  V30 6933 H 652.294 3.79945 -1.17842 0
M  V30 6934 H 649.033 5.4036 -3.71068 0
M  V30 6935 H 648.553 5.64913 -2.01578 0
M  V30 6936 H 650.232 5.95738 -2.52399 0
M  V30 6937 N 650.364 0.662433 1.43002 0
M  V30 6938 C 651.613 0.176873 2.00923 0
M  V30 6939 C 651.926 -1.21954 1.52927 0
M  V30 6940 O 653.132 -1.80081 2.03182 0
M  V30 6941 C 651.588 0.265379 3.5892 0
M  V30 6942 C 651.196 1.66507 4.15908 0
M  V30 6943 C 652.94 -0.162103 4.2419 0
M  V30 6944 C 650.847 1.707 5.66229 0
M  V30 6945 H 649.777 0.0623627 0.751417 0
M  V30 6946 H 652.428 0.825813 1.63868 0
M  V30 6947 H 650.81 -0.451235 3.93421 0
M  V30 6948 H 651.984 2.40777 3.92891 0
M  V30 6949 H 650.299 2.03932 3.63044 0
M  V30 6950 H 652.896 -0.150745 5.34487 0
M  V30 6951 H 653.239 -1.19519 3.98774 0
M  V30 6952 H 653.772 0.503075 3.94606 0
M  V30 6953 H 650.511 2.7195 5.96426 0
M  V30 6954 H 650.031 1.00768 5.91275 0
M  V30 6955 H 651.71 1.45487 6.3043 0
M  V30 6956 N 651.842 -1.52309 0.404946 0
M  V30 6957 C 653.07 -2.06185 -0.171818 0
M  V30 6958 C 653.485 -1.27536 -1.39212 0
M  V30 6959 O 652.842 -0.326112 -1.79563 0
M  V30 6960 C 652.893 -3.57647 -0.526417 0
M  V30 6961 O 652.614 -4.3332 0.645417 0
M  V30 6962 C 654.115 -4.27925 -1.15736 0
M  V30 6963 H 651.335 -0.670632 -0.0222328 0
M  V30 6964 H 653.879 -1.96259 0.574692 0
M  V30 6965 H 652.034 -3.67595 -1.22282 0
M  V30 6966 H 652.448 -5.23328 0.35042 0
M  V30 6967 H 653.922 -5.35093 -1.35572 0
M  V30 6968 H 654.399 -3.84134 -2.12926 0
M  V30 6969 H 655.005 -4.22335 -0.501281 0
M  V30 6970 N 653.32 -0.135238 -1.57019 0
M  V30 6971 C 654.283 0.794707 -2.14981 0
M  V30 6972 C 655.283 1.18342 -1.08866 0
M  V30 6973 O 656.473 1.10627 -1.34563 0
M  V30 6974 C 653.605 2.07685 -2.70333 0
M  V30 6975 H 654.798 0.290696 -2.98488 0
M  V30 6976 H 652.351 0.114128 -1.55883 0
M  V30 6977 H 653.086 2.6248 -1.9046 0
M  V30 6978 H 652.871 1.80745 -3.47957 0
M  V30 6979 H 654.361 2.74127 -3.1503 0
M  V30 6980 N 654.798 1.5699 0.138552 0
M  V30 6981 C 656.075 1.74741 0.87891 0
M  V30 6982 C 656.455 0.705522 1.98961 0
M  V30 6983 O 655.803 -0.274066 2.2685 0
M  V30 6984 C 656.013 3.1909 1.4136 0
M  V30 6985 C 657.361 3.81023 1.87368 0
M  V30 6986 O 658.385 3.22571 1.51084 0
M  V30 6987 O 657.244 4.83722 2.54312 0
M  V30 6988 H 654.338 0.714781 0.415953 0
M  V30 6989 H 656.884 1.69248 0.123817 0
M  V30 6990 H 655.656 3.86424 0.61579 0
M  V30 6991 H 655.279 3.29043 2.23196 0
M  V30 6992 N 656.276 -0.40816 1.52223 0
M  V30 6993 C 657.226 -1.49648 1.72016 0
M  V30 6994 C 658.21 -1.50311 0.574069 0
M  V30 6995 O 659.402 -1.56271 0.831173 0
M  V30 6996 C 656.531 -2.87566 1.87512 0
M  V30 6997 C 655.617 -2.91547 3.07995 0
M  V30 6998 N 656.008 -2.65225 4.30685 0
M  V30 6999 C 654.306 -3.22715 3.07849 0
M  V30 7000 C 655.007 -2.75799 5.12162 0
M  V30 7001 N 653.983 -3.08719 4.4743 0
M  V30 7002 H 657.785 -1.28093 2.64517 0
M  V30 7003 H 655.299 -0.61588 1.50269 0
M  V30 7004 H 657.296 -3.65899 1.99809 0
M  V30 7005 H 655.956 -3.10118 0.962114 0
M  V30 7006 H 656.967 -2.39601 4.59142 0
M  V30 7007 H 653.644 -3.50856 2.26289 0
M  V30 7008 H 655.034 -2.59155 6.1991 0
M  V30 7009 N 657.755 -1.42862 -0.66545 0
M  V30 7010 C 659.003 -1.43546 -1.42264 0
M  V30 7011 C 659.324 -0.0563116 -1.94919 0
M  V30 7012 O 658.594 0.906568 -1.73661 0
M  V30 7013 H 657.174 -0.528464 -0.527953 0
M  V30 7014 H 659.836 -1.78363 -0.785665 0
M  V30 7015 H 658.932 -2.14079 -2.27105 0
M  V30 7016 N 659.233 0.902656 -1.29189 0
M  V30 7017 C 660.181 2.0278 -1.13943 0
M  V30 7018 C 661.175 1.69308 -0.055787 0
M  V30 7019 O 662.381 1.78707 -0.215371 0
M  V30 7020 H 658.756 0.664595 -0.351877 0
M  V30 7021 H 660.727 2.12778 -2.09208 0
M  V30 7022 C 659.476 3.37657 -0.82966 0
M  V30 7023 H 658.799 3.63913 -1.65551 0
M  V30 7024 H 660.239 4.17078 -0.762998 0
M  V30 7025 C 658.698 3.33648 0.466991 0
M  V30 7026 O 659.228 3.72886 1.49395 0
M  V30 7027 N 657.434 2.86745 0.471761 0
M  V30 7028 H 656.981 2.55009 -0.364406 0
M  V30 7029 H 656.939 2.84446 1.33933 0
M  V30 7030 N 660.711 1.11618 1.11262 0
M  V30 7031 C 661.674 0.779447 2.15539 0
M  V30 7032 C 662.674 -0.202081 1.59525 0
M  V30 7033 O 663.864 0.0226356 1.74185 0
M  V30 7034 C 660.996 0.15674 3.40539 0
M  V30 7035 H 662.189 1.70324 2.4684 0
M  V30 7036 H 659.742 0.918298 1.26479 0
M  V30 7037 H 660.477 -0.777186 3.1485 0
M  V30 7038 H 660.262 0.863308 3.82478 0
M  V30 7039 H 661.752 -0.062661 4.17553 0
M  V30 7040 N 662.189 -1.289 0.906776 0
M  V30 7041 C 663.466 -1.90221 0.455537 0
M  V30 7042 C 663.846 -1.82251 -1.06527 0
M  V30 7043 O 663.194 -1.25385 -1.91026 0
M  V30 7044 C 663.404 -3.35015 0.97806 0
M  V30 7045 C 664.752 -4.12018 1.02598 0
M  V30 7046 O 665.776 -3.43947 0.926218 0
M  V30 7047 O 664.635 -5.33677 1.17689 0
M  V30 7048 H 661.729 -0.814505 0.143214 0
M  V30 7049 H 664.275 -1.37317 0.997104 0
M  V30 7050 H 663.047 -3.35006 2.02204 0
M  V30 7051 H 662.67 -3.95408 0.416914 0
M  V30 7052 N 663.667 -0.670007 -1.42649 0
M  V30 7053 C 664.577 0.0114788 -2.34597 0
M  V30 7054 C 665.593 0.794055 -1.54825 0
M  V30 7055 O 666.769 0.737472 -1.87412 0
M  V30 7056 C 663.834 0.954436 -3.33304 0
M  V30 7057 C 662.895 0.166925 -4.28975 0
M  V30 7058 C 662.128 1.06497 -5.22967 0
M  V30 7059 O 662.351 2.30446 -5.21777 0
M  V30 7060 O 661.285 0.528347 -5.99577 0
M  V30 7061 H 665.111 -0.745794 -2.944 0
M  V30 7062 H 662.696 -0.430228 -1.43071 0
M  V30 7063 H 664.578 1.49589 -3.93956 0
M  V30 7064 H 663.253 1.69164 -2.7598 0
M  V30 7065 H 662.16 -0.418515 -3.71752 0
M  V30 7066 H 663.493 -0.531067 -4.89327 0
M  V30 7067 N 665.145 1.52092 -0.413018 0
M  V30 7068 C 666.391 2.02154 0.161737 0
M  V30 7069 C 666.724 1.29789 1.44459 0
M  V30 7070 O 665.999 0.405378 1.90229 0
M  V30 7071 C 666.282 3.5781 0.405463 0
M  V30 7072 C 666.135 4.40819 -0.894335 0
M  V30 7073 C 667.454 4.23821 1.18591 0
M  V30 7074 H 664.573 0.734769 0.0573077 0
M  V30 7075 H 667.215 1.81948 -0.547247 0
M  V30 7076 H 665.365 3.75158 1.0094 0
M  V30 7077 H 667.037 4.35175 -1.53039 0
M  V30 7078 H 665.28 4.06877 -1.50444 0
M  V30 7079 H 665.951 5.47819 -0.678144 0
M  V30 7080 H 668.427 4.10596 0.674573 0
M  V30 7081 H 667.303 5.32663 1.3252 0
M  V30 7082 H 667.564 3.83038 2.20758 0
M  V30 7083 N 666.623 0.143563 1.56945 0
M  V30 7084 C 667.553 -0.7936 2.196 0
M  V30 7085 C 668.534 -1.25955 1.14321 0
M  V30 7086 O 669.719 -1.31773 1.42651 0
M  V30 7087 C 666.849 -2.03424 2.81489 0
M  V30 7088 C 665.803 -1.70519 3.92565 0
M  V30 7089 C 665.129 -3.01817 4.41373 0
M  V30 7090 C 666.429 -0.95449 5.13504 0
M  V30 7091 H 668.123 -0.271423 2.98167 0
M  V30 7092 H 665.669 -0.12911 1.4342 0
M  V30 7093 H 667.622 -2.69463 3.23987 0
M  V30 7094 H 666.346 -2.58008 2.00248 0
M  V30 7095 H 665.005 -1.06859 3.5068 0
M  V30 7096 H 664.653 -3.54386 3.56959 0
M  V30 7097 H 664.353 -2.80565 5.16292 0
M  V30 7098 H 665.877 -3.68934 4.86539 0
M  V30 7099 H 667.291 -1.5169 5.52868 0
M  V30 7100 H 665.688 -0.842035 5.94163 0
M  V30 7101 H 666.758 0.0544033 4.84869 0
M  V30 7102 N 668.101 -1.57061 -0.130224 0
M  V30 7103 C 669.329 -1.88432 -0.854456 0
M  V30 7104 C 669.744 -0.733608 -1.73964 0
M  V30 7105 O 669.101 0.296029 -1.80083 0
M  V30 7106 C 669.152 -3.1918 -1.69724 0
M  V30 7107 O 668.873 -4.2982 -0.847705 0
M  V30 7108 C 670.374 -3.6418 -2.5276 0
M  V30 7109 H 667.594 -0.624193 -0.246221 0
M  V30 7110 H 670.138 -2.04159 -0.11798 0
M  V30 7111 H 668.293 -3.05156 -2.3866 0
M  V30 7112 H 668.707 -5.04689 -1.42792 0
M  V30 7113 H 670.181 -4.58457 -3.07443 0
M  V30 7114 H 670.658 -2.90285 -3.29592 0
M  V30 7115 H 671.264 -3.80954 -1.89087 0
M  V30 7116 N 669.579 0.400081 -1.52437 0
M  V30 7117 C 670.99 0.97851 -1.59003 0
M  V30 7118 C 671.341 1.91293 -0.436068 0
M  V30 7119 O 670.466 2.1183 0.442365 0
M  V30 7120 C 671.061 1.78145 -2.88184 0
M  V30 7121 C 669.62 2.30976 -2.97199 0
M  V30 7122 C 668.767 1.11212 -2.54022 0
M  V30 7123 H 671.718 0.180002 -1.57676 0
M  V30 7124 H 671.739 2.63968 -2.74046 0
M  V30 7125 H 671.251 1.1011 -3.72152 0
M  V30 7126 H 669.352 3.02355 -2.17744 0
M  V30 7127 H 669.465 2.61221 -4.01622 0
M  V30 7128 H 667.829 1.46882 -2.08081 0
M  V30 7129 H 668.612 0.447307 -3.40373 0
M  V30 7130 N 671.057 1.43213 0.657864 0
M  V30 7131 C 672.334 1.35063 1.41483 0
M  V30 7132 C 672.714 -0.0038314 2.111 0
M  V30 7133 O 672.062 -1.02018 2.04462 0
M  V30 7134 C 672.272 2.53061 2.40335 0
M  V30 7135 C 673.62 2.9594 3.04474 0
M  V30 7136 O 674.644 2.53074 2.50663 0
M  V30 7137 O 673.503 3.70184 4.02027 0
M  V30 7138 H 670.597 0.533517 0.631893 0
M  V30 7139 H 673.143 1.55253 0.685162 0
M  V30 7140 H 671.915 3.43283 1.87809 0
M  V30 7141 H 671.538 2.34945 3.20759 0
M  V30 7142 N 672.536 -0.895792 1.29666 0
M  V30 7143 C 673.784 -1.64339 1.17631 0
M  V30 7144 C 674.105 -1.93099 -0.271643 0
M  V30 7145 O 673.375 -1.55981 -1.18518 0
M  V30 7146 H 671.955 -0.609162 0.432354 0
M  V30 7147 H 674.617 -1.07389 1.62646 0
M  V30 7148 H 673.713 -2.59815 1.72924 0
M  V30 7149 N 674.014 -1.12206 -1.10668 0
M  V30 7150 C 674.961 -0.787716 -2.16942 0
M  V30 7151 C 675.931 0.244442 -1.64291 0
M  V30 7152 O 677.116 0.119558 -1.90425 0
M  V30 7153 C 674.256 -0.24584 -3.44223 0
M  V30 7154 C 673.369 -1.33552 -4.10838 0
M  V30 7155 C 672.504 -0.753337 -5.25831 0
M  V30 7156 C 671.543 -1.82231 -5.84344 0
M  V30 7157 N 670.68 -1.25902 -6.90719 0
M  V30 7158 H 675.52 -1.69809 -2.44885 0
M  V30 7159 H 673.057 -0.847862 -1.20207 0
M  V30 7160 H 675.015 0.0863639 -4.17111 0
M  V30 7161 H 673.645 0.627702 -3.16638 0
M  V30 7162 H 672.697 -1.78454 -3.35944 0
M  V30 7163 H 674.009 -2.14396 -4.50373 0
M  V30 7164 H 673.163 -0.37166 -6.05561 0
M  V30 7165 H 671.902 0.0863297 -4.87624 0
M  V30 7166 H 670.907 -2.2132 -5.03287 0
M  V30 7167 H 672.132 -2.66515 -6.24617 0
M  V30 7168 H 670.078 -0.44114 -6.54515 0
M  V30 7169 H 669.995 -2.00408 -7.28953 0
M  V30 7170 H 671.263 -0.904498 -7.74235 0
M  V30 7171 N 675.492 1.28418 -0.913599 0
M  V30 7172 C 676.903 1.77024 -0.593237 0
M  V30 7173 C 677.254 1.74779 0.891441 0
M  V30 7174 O 676.379 1.34237 1.69733 0
M  V30 7175 C 676.974 3.21456 -1.07011 0
M  V30 7176 C 675.533 3.67786 -0.800664 0
M  V30 7177 C 674.68 2.48185 -1.23691 0
M  V30 7178 H 677.631 1.14883 -1.09487 0
M  V30 7179 H 677.652 3.78269 -0.411481 0
M  V30 7180 H 677.164 3.23058 -2.1507 0
M  V30 7181 H 675.265 3.71644 0.266725 0
M  V30 7182 H 675.378 4.57934 -1.4083 0
M  V30 7183 H 673.742 2.46116 -0.655655 0
M  V30 7184 H 674.525 2.52506 -2.32585 0
M  V30 7185 N 676.97 0.677563 1.42291 0
M  V30 7186 C 677.902 -0.0380218 2.29168 0
M  V30 7187 C 678.915 -0.762714 1.43828 0
M  V30 7188 O 680.104 -0.616413 1.67519 0
M  V30 7189 C 677.204 -1.07761 3.21311 0
M  V30 7190 C 676.377 -0.42618 4.35319 0
M  V30 7191 C 675.436 -1.36592 5.08162 0
M  V30 7192 O 674.462 -0.865174 5.62586 0
M  V30 7193 N 675.664 -2.69909 5.13935 0
M  V30 7194 H 678.429 0.707766 2.91223 0
M  V30 7195 H 675.99 0.52219 1.53247 0
M  V30 7196 H 677.982 -1.70761 3.6691 0
M  V30 7197 H 676.552 -1.72511 2.60689 0
M  V30 7198 H 675.772 0.383385 3.92331 0
M  V30 7199 H 677.06 0.0275277 5.08793 0
M  V30 7200 H 676.458 -3.13129 4.71134 0
M  V30 7201 H 675.015 -3.2815 5.6317 0
M  V30 7202 N 678.448 -1.51871 0.421078 0
M  V30 7203 C 679.676 -2.06356 -0.14994 0
M  V30 7204 C 680.091 -1.29006 -1.37851 0
M  V30 7205 O 679.448 -0.345139 -1.79207 0
M  V30 7206 C 679.499 -3.58185 -0.488454 0
M  V30 7207 O 679.22 -4.32611 0.691341 0
M  V30 7208 C 680.721 -4.29129 -1.11191 0
M  V30 7209 H 677.941 -0.67083 -0.0151186 0
M  V30 7210 H 680.485 -1.95638 0.595476 0
M  V30 7211 H 678.64 -3.68871 -1.18376 0
M  V30 7212 H 679.054 -5.22927 0.405906 0
M  V30 7213 H 680.528 -5.36501 -1.29889 0
M  V30 7214 H 681.005 -3.86371 -2.0884 0
M  V30 7215 H 681.611 -4.22843 -0.456458 0
M  V30 7216 N 679.926 -0.151884 -1.56866 0
M  V30 7217 C 680.889 0.771861 -2.15812 0
M  V30 7218 C 681.889 1.17181 -1.10115 0
M  V30 7219 O 683.079 1.09194 -1.35729 0
M  V30 7220 C 680.211 2.04806 -2.7252 0
M  V30 7221 H 681.404 0.259021 -2.98779 0
M  V30 7222 H 678.957 0.097588 -1.55995 0
M  V30 7223 H 679.692 2.60445 -1.93233 0
M  V30 7224 H 679.477 1.77044 -3.49854 0
M  V30 7225 H 680.967 2.70771 -3.1792 0
M  V30 7226 N 681.404 1.57128 0.121893 0
M  V30 7227 C 682.354 1.96556 1.15541 0
M  V30 7228 C 683.338 0.840147 1.37224 0
M  V30 7229 O 684.53 1.10382 1.38365 0
M  V30 7230 C 681.659 2.37097 2.48274 0
M  V30 7231 C 680.745 3.56265 2.30078 0
M  V30 7232 N 681.136 4.72041 1.81688 0
M  V30 7233 C 679.434 3.61841 2.60744 0
M  V30 7234 C 680.135 5.54075 1.77132 0
M  V30 7235 N 679.111 4.96483 2.21371 0
M  V30 7236 H 682.913 2.83531 0.77378 0
M  V30 7237 H 680.427 1.59019 0.329672 0
M  V30 7238 H 682.424 2.6356 3.2302 0
M  V30 7239 H 681.084 1.51486 2.87197 0
M  V30 7240 H 682.095 4.95313 1.51278 0
M  V30 7241 H 678.772 2.8683 3.03373 0
M  V30 7242 H 680.162 6.56939 1.40998 0
M  V30 7243 N 682.882 -0.391992 1.52647 0
M  V30 7244 C 684.11 -1.1586 1.71418 0
M  V30 7245 C 684.525 -1.8381 0.431216 0
M  V30 7246 O 683.882 -1.7256 -0.594085 0
M  V30 7247 C 683.933 -2.20888 2.86165 0
M  V30 7248 O 683.654 -1.5571 4.09495 0
M  V30 7249 C 685.155 -3.103 3.1659 0
M  V30 7250 H 682.375 -0.347494 0.574011 0
M  V30 7251 H 684.919 -0.458972 1.99283 0
M  V30 7252 H 683.074 -2.86492 2.6077 0
M  V30 7253 H 683.488 -2.25474 4.73563 0
M  V30 7254 H 684.962 -3.8003 4.00351 0
M  V30 7255 H 685.439 -3.73639 2.30848 0
M  V30 7256 H 686.045 -2.50345 3.43813 0
M  V30 7257 N 684.36 -1.4356 -0.65026 0
M  V30 7258 C 685.588 -1.48779 -1.43779 0
M  V30 7259 C 686.003 -0.106593 -1.88499 0
M  V30 7260 O 685.36 0.883766 -1.59674 0
M  V30 7261 C 685.411 -2.43618 -2.67081 0
M  V30 7262 O 685.132 -3.76367 -2.24231 0
M  V30 7263 C 686.633 -2.5811 -3.60409 0
M  V30 7264 H 683.853 -0.50521 -0.441593 0
M  V30 7265 H 686.397 -1.88332 -0.796941 0
M  V30 7266 H 684.552 -2.07253 -3.273 0
M  V30 7267 H 684.966 -4.27394 -3.0403 0
M  V30 7268 H 686.44 -3.28539 -4.43583 0
M  V30 7269 H 686.917 -1.627 -4.07953 0
M  V30 7270 H 687.523 -2.95298 -3.0607 0
M  V30 7271 N 685.838 0.888903 -1.30139 0
M  V30 7272 C 686.786 2.0156 -1.16088 0
M  V30 7273 C 687.78 1.69239 -0.0737413 0
M  V30 7274 O 688.986 1.78468 -0.234313 0
M  V30 7275 H 685.361 0.660825 -0.358907 0
M  V30 7276 H 687.332 2.10547 -2.11453 0
M  V30 7277 C 686.081 3.36758 -0.865426 0
M  V30 7278 H 685.404 3.62137 -1.69402 0
M  V30 7279 H 686.844 4.16246 -0.807192 0
M  V30 7280 C 685.303 3.34124 0.431577 0
M  V30 7281 O 685.833 3.7445 1.45431 0
M  V30 7282 N 684.039 2.87229 0.441321 0
M  V30 7283 H 683.586 2.54609 -0.391433 0
M  V30 7284 H 683.544 2.8585 1.30909 0
M  V30 7285 N 687.317 1.12792 1.10072 0
M  V30 7286 C 688.728 0.899346 1.63611 0
M  V30 7287 C 689.079 -0.565547 1.87872 0
M  V30 7288 O 688.204 -1.43081 1.62348 0
M  V30 7289 C 688.799 1.62608 2.97227 0
M  V30 7290 C 687.358 1.44356 3.47618 0
M  V30 7291 C 686.505 1.65958 2.22156 0
M  V30 7292 H 689.456 1.28216 0.935223 0
M  V30 7293 H 689.477 1.0793 3.64872 0
M  V30 7294 H 688.989 2.69221 2.79538 0
M  V30 7295 H 687.09 0.400148 3.70445 0
M  V30 7296 H 687.203 2.20218 4.25489 0
M  V30 7297 H 685.567 1.08395 2.30484 0
M  V30 7298 H 686.35 2.73877 2.06993 0
M  V30 7299 N 688.795 -1.27931 0.920396 0
M  V30 7300 C 690.041 -1.94977 0.557832 0
M  V30 7301 C 690.374 -1.72224 -0.897365 0
M  V30 7302 O 689.649 -1.04705 -1.63912 0
M  V30 7303 C 689.932 -3.49289 0.875741 0
M  V30 7304 C 689.785 -3.81416 2.38416 0
M  V30 7305 C 691.104 -4.38486 0.376517 0
M  V30 7306 H 688.223 -0.708164 0.20414 0
M  V30 7307 H 690.865 -1.5118 1.15085 0
M  V30 7308 H 689.015 -3.86724 0.371062 0
M  V30 7309 H 690.687 -3.53813 2.95997 0
M  V30 7310 H 688.93 -3.28225 2.83639 0
M  V30 7311 H 689.601 -4.89198 2.55713 0
M  V30 7312 H 692.077 -4.08161 0.808945 0
M  V30 7313 H 690.953 -5.45296 0.627976 0
M  V30 7314 H 691.214 -4.36143 -0.723293 0
M  V30 7315 N 690.273 -0.685099 -1.4193 0
M  V30 7316 C 691.684 -0.287699 -1.8447 0
M  V30 7317 C 692.035 1.17215 -1.57338 0
M  V30 7318 O 691.16 1.89856 -1.03845 0
M  V30 7319 C 691.755 -0.515385 -3.34857 0
M  V30 7320 C 690.314 -0.172006 -3.76007 0
M  V30 7321 C 689.461 -0.802808 -2.65425 0
M  V30 7322 H 692.412 -0.88652 -1.3163 0
M  V30 7323 H 692.433 0.229251 -3.79809 0
M  V30 7324 H 691.945 -1.57796 -3.54573 0
M  V30 7325 H 690.046 0.886716 -3.61895 0
M  V30 7326 H 690.159 -0.619717 -4.75075 0
M  V30 7327 H 688.523 -0.233267 -2.5363 0
M  V30 7328 H 689.306 -1.86904 -2.87961 0
M  V30 7329 N 691.751 1.51645 -0.429126 0
M  V30 7330 C 692.997 2.02314 0.140286 0
M  V30 7331 C 693.33 1.31314 1.43074 0
M  V30 7332 O 692.605 0.425531 1.89788 0
M  V30 7333 C 692.888 3.5822 0.36749 0
M  V30 7334 C 692.741 4.39846 -0.941039 0
M  V30 7335 C 694.06 4.25055 1.14089 0
M  V30 7336 H 691.179 0.735335 0.0495112 0
M  V30 7337 H 693.821 1.81358 -0.566514 0
M  V30 7338 H 691.971 3.76207 0.969556 0
M  V30 7339 H 693.643 4.33527 -1.57646 0
M  V30 7340 H 691.886 4.05259 -1.54751 0
M  V30 7341 H 692.557 5.47069 -0.73621 0
M  V30 7342 H 695.033 4.11288 0.630986 0
M  V30 7343 H 693.909 5.34038 1.26863 0
M  V30 7344 H 694.17 3.85358 2.16683 0
M  V30 7345 N 693.229 0.160201 1.56784 0
M  V30 7346 C 694.478 -0.487619 1.95717 0
M  V30 7347 C 694.791 -1.65136 1.0483 0
M  V30 7348 O 695.997 -2.36468 1.33398 0
M  V30 7349 C 694.453 -0.91888 3.47972 0
M  V30 7350 C 694.061 0.218655 4.47466 0
M  V30 7351 C 695.805 -1.53575 3.95746 0
M  V30 7352 C 693.712 -0.231614 5.90946 0
M  V30 7353 H 692.642 -0.185939 0.730714 0
M  V30 7354 H 695.293 0.246657 1.81835 0
M  V30 7355 H 693.675 -1.70881 3.57234 0
M  V30 7356 H 694.849 0.995825 4.49911 0
M  V30 7357 H 693.164 0.744767 4.09685 0
M  V30 7358 H 695.761 -1.88448 5.00391 0
M  V30 7359 H 696.104 -2.42959 3.38048 0
M  V30 7360 H 696.637 -0.810467 3.89456 0
M  V30 7361 H 693.376 0.62718 6.52493 0
M  V30 7362 H 692.896 -0.974379 5.91833 0
M  V30 7363 H 694.575 -0.67922 6.43425 0
M  V30 7364 N 694.707 -1.5719 -0.113559 0
M  V30 7365 C 695.953 -1.85412 -0.821597 0
M  V30 7366 C 696.286 -0.746722 -1.7927 0
M  V30 7367 O 695.561 0.246971 -1.92926 0
M  V30 7368 C 695.844 -3.24233 -1.56669 0
M  V30 7369 C 695.697 -4.45578 -0.614823 0
M  V30 7370 C 697.016 -3.60697 -2.52161 0
M  V30 7371 H 694.135 -0.674406 -0.29723 0
M  V30 7372 H 696.777 -1.89807 -0.085694 0
M  V30 7373 H 694.927 -3.20617 -2.19401 0
M  V30 7374 H 696.599 -4.613 0.00407137 0
M  V30 7375 H 694.842 -4.33738 0.0732332 0
M  V30 7376 H 695.513 -5.39395 -1.17292 0
M  V30 7377 H 697.989 -3.65139 -1.99532 0
M  V30 7378 H 696.865 -4.58798 -3.01323 0
M  V30 7379 H 697.126 -2.88403 -3.35076 0
M  V30 7380 N 696.185 0.383891 -1.52853 0
M  V30 7381 C 697.413 1.1495 -1.7203 0
M  V30 7382 C 697.828 1.83578 -0.440957 0
M  V30 7383 O 697.185 1.72872 0.584925 0
M  V30 7384 C 697.236 2.19368 -2.87333 0
M  V30 7385 O 696.957 1.53536 -4.10315 0
M  V30 7386 C 698.458 3.08616 -3.18231 0
M  V30 7387 H 695.678 0.344445 -0.575846 0
M  V30 7388 H 698.222 0.448397 -1.99524 0
M  V30 7389 H 696.377 2.85105 -2.62286 0
M  V30 7390 H 696.791 2.2296 -4.74752 0
M  V30 7391 H 698.265 3.77902 -4.02361 0
M  V30 7392 H 698.742 3.72409 -2.32826 0
M  V30 7393 H 699.348 2.48518 -3.45136 0
M  V30 7394 N 697.663 1.43903 0.642637 0
M  V30 7395 C 698.61 1.49881 1.75512 0
M  V30 7396 C 699.58 0.347538 1.62423 0
M  V30 7397 O 700.765 0.556177 1.82514 0
M  V30 7398 C 697.905 1.43797 3.13714 0
M  V30 7399 C 697.018 2.6921 3.37861 0
M  V30 7400 C 696.153 2.5504 4.6597 0
M  V30 7401 C 695.192 3.75671 4.83257 0
M  V30 7402 N 694.329 3.60247 6.02633 0
M  V30 7403 H 699.169 2.44935 1.69737 0
M  V30 7404 H 696.706 1.21572 0.828165 0
M  V30 7405 H 698.664 1.38262 3.93624 0
M  V30 7406 H 697.294 0.523173 3.18532 0
M  V30 7407 H 696.346 2.8498 2.51973 0
M  V30 7408 H 697.658 3.58786 3.46517 0
M  V30 7409 H 696.812 2.47273 5.54023 0
M  V30 7410 H 695.551 1.63006 4.59653 0
M  V30 7411 H 694.556 3.83836 3.93637 0
M  V30 7412 H 695.781 4.68728 4.91397 0
M  V30 7413 H 693.727 2.70955 5.97427 0
M  V30 7414 H 693.644 4.43431 6.12295 0
M  V30 7415 H 694.912 3.56351 6.93278 0
M  V30 7416 N 699.141 -0.881989 1.30609 0
M  V30 7417 C 700.088 -1.98803 1.17244 0
M  V30 7418 C 701.058 -1.65987 0.0611905 0
M  V30 7419 O 702.243 -1.89385 0.231911 0
M  V30 7420 C 699.383 -3.33867 0.87333 0
M  V30 7421 C 698.496 -3.79354 2.06675 0
M  V30 7422 C 697.631 -5.03078 1.70547 0
M  V30 7423 C 696.67 -5.40981 2.86366 0
M  V30 7424 N 695.807 -6.55886 2.50514 0
M  V30 7425 H 700.647 -2.09566 2.11863 0
M  V30 7426 H 698.184 -1.02607 1.05405 0
M  V30 7427 H 700.142 -4.11612 0.680519 0
M  V30 7428 H 698.772 -3.2278 -0.0359983 0
M  V30 7429 H 697.824 -2.97492 2.37071 0
M  V30 7430 H 699.136 -4.03382 2.93401 0
M  V30 7431 H 698.29 -5.88457 1.47658 0
M  V30 7432 H 697.029 -4.80927 0.809947 0
M  V30 7433 H 696.034 -4.54127 3.09917 0
M  V30 7434 H 697.259 -5.65104 3.76609 0
M  V30 7435 H 695.205 -6.35306 1.63471 0
M  V30 7436 H 695.122 -6.79799 3.30771 0
M  V30 7437 H 696.39 -7.44489 2.30989 0
M  V30 7438 N 700.619 -1.13374 -1.09472 0
M  V30 7439 C 701.867 -0.893422 -1.8128 0
M  V30 7440 C 702.188 0.582029 -1.86111 0
M  V30 7441 O 701.458 1.42305 -1.34633 0
M  V30 7442 H 700.038 -0.327543 -0.67136 0
M  V30 7443 H 702.7 -1.43018 -1.32408 0
M  V30 7444 H 701.796 -1.28374 -2.84476 0
M  V30 7445 N 702.098 1.27442 -0.927168 0
M  V30 7446 C 703.347 1.93679 -0.563146 0
M  V30 7447 C 703.66 1.73673 0.899837 0
M  V30 7448 O 704.866 2.34247 1.37262 0
M  V30 7449 C 703.322 3.46961 -0.95636 0
M  V30 7450 C 702.93 3.75724 -2.43999 0
M  V30 7451 C 704.674 4.19282 -0.663565 0
M  V30 7452 C 702.581 5.22378 -2.77263 0
M  V30 7453 H 701.511 0.725059 -0.206894 0
M  V30 7454 H 704.162 1.44743 -1.12791 0
M  V30 7455 H 702.544 3.94703 -0.320254 0
M  V30 7456 H 703.718 3.38741 -3.12396 0
M  V30 7457 H 702.033 3.16605 -2.70463 0
M  V30 7458 H 704.63 5.27265 -0.888596 0
M  V30 7459 H 704.973 4.14382 0.399198 0
M  V30 7460 H 705.506 3.7736 -1.25875 0
M  V30 7461 H 702.245 5.32367 -3.82446 0
M  V30 7462 H 701.765 5.6051 -2.13516 0
M  V30 7463 H 703.444 5.9025 -2.64979 0
M  V30 7464 N 703.576 0.692616 1.41565 0
M  V30 7465 C 704.523 0.0254264 2.30786 0
M  V30 7466 C 705.493 -0.774347 1.46946 0
M  V30 7467 O 706.678 -0.742981 1.7574 0
M  V30 7468 C 703.818 -0.907123 3.32964 0
M  V30 7469 C 702.931 -0.0992784 4.31886 0
M  V30 7470 C 702.066 -1.0292 5.21134 0
M  V30 7471 C 701.105 -0.214088 6.11725 0
M  V30 7472 N 700.242 -1.09766 6.93467 0
M  V30 7473 H 705.082 0.792036 2.87282 0
M  V30 7474 H 702.619 0.4023 1.41492 0
M  V30 7475 H 704.577 -1.46181 3.90752 0
M  V30 7476 H 703.207 -1.64016 2.78026 0
M  V30 7477 H 702.259 0.572287 3.76071 0
M  V30 7478 H 703.571 0.532782 4.95946 0
M  V30 7479 H 702.725 -1.65321 5.83741 0
M  V30 7480 H 701.464 -1.69512 4.57293 0
M  V30 7481 H 700.469 0.42302 5.4817 0
M  V30 7482 H 701.694 0.447995 6.77621 0
M  V30 7483 H 699.64 -1.74965 6.32237 0
M  V30 7484 H 699.557 -0.521099 7.54202 0
M  V30 7485 H 700.825 -1.70858 7.60544 0
M  V30 7486 N 705.054 -1.51416 0.437162 0
M  V30 7487 C 705.984 -2.30631 -0.364922 0
M  V30 7488 C 706.965 -1.36037 -1.02118 0
M  V30 7489 O 708.15 -1.64956 -1.02485 0
M  V30 7490 C 705.28 -3.1482 -1.46648 0
M  V30 7491 C 704.234 -4.17691 -0.933717 0
M  V30 7492 C 703.56 -4.904 -2.13101 0
M  V30 7493 C 704.86 -5.2229 0.0317201 0
M  V30 7494 H 706.554 -2.97932 0.29614 0
M  V30 7495 H 704.1 -1.4328 0.143865 0
M  V30 7496 H 706.053 -3.69017 -2.03481 0
M  V30 7497 H 704.777 -2.4534 -2.15583 0
M  V30 7498 H 703.436 -3.64545 -0.387602 0
M  V30 7499 H 703.084 -4.17423 -2.80654 0
M  V30 7500 H 702.784 -5.59962 -1.78092 0
M  V30 7501 H 704.308 -5.4742 -2.70487 0
M  V30 7502 H 705.722 -5.7156 -0.446302 0
M  V30 7503 H 704.119 -5.99378 0.29437 0
M  V30 7504 H 705.189 -4.75131 0.968447 0
M  V30 7505 N 706.532 -0.168513 -1.56696 0
M  V30 7506 C 707.948 0.187686 -1.58493 0
M  V30 7507 C 708.148 1.63063 -1.18375 0
M  V30 7508 O 707.204 2.36142 -0.894042 0
M  V30 7509 C 708.517 -0.0905858 -3.00564 0
M  V30 7510 C 710.065 -0.028575 -3.12987 0
M  V30 7511 C 710.54 -0.279799 -4.57145 0
M  V30 7512 N 712.031 -0.227476 -4.62641 0
M  V30 7513 C 712.766 -0.396073 -5.7203 0
M  V30 7514 N 712.262 -0.623572 -6.89988 0
M  V30 7515 N 714.055 -0.332173 -5.61118 0
M  V30 7516 H 706.206 -1.11042 -1.81062 0
M  V30 7517 H 708.469 -0.441235 -0.839056 0
M  V30 7518 H 708.175 -1.09006 -3.34381 0
M  V30 7519 H 708.049 0.619078 -3.72085 0
M  V30 7520 H 710.436 0.961471 -2.78998 0
M  V30 7521 H 710.517 -0.770905 -2.43907 0
M  V30 7522 H 710.161 -1.26704 -4.91842 0
M  V30 7523 H 710.091 0.48311 -5.24379 0
M  V30 7524 H 712.582 -0.0571723 -3.77857 0
M  V30 7525 H 712.895 -0.741745 -7.69232 0
M  V30 7526 H 711.24 -0.660153 -6.91858 0
M  V30 7527 H 714.431 -0.155051 -4.67843 0
M  V30 7528 H 714.604 -0.466994 -6.46315 0
M  V30 7529 N 708.01 1.57248 0.105221 0
M  V30 7530 C 709.287 1.76566 0.841647 0
M  V30 7531 C 709.667 0.747566 1.9742 0
M  V30 7532 O 709.015 -0.225886 2.27381 0
M  V30 7533 C 709.225 3.22016 1.3456 0
M  V30 7534 C 710.573 3.84911 1.79244 0
M  V30 7535 O 711.597 3.25703 1.44207 0
M  V30 7536 O 710.456 4.89008 2.43995 0
M  V30 7537 H 707.55 0.723443 0.400698 0
M  V30 7538 H 710.096 1.69472 0.0878893 0
M  V30 7539 H 708.868 3.87644 0.533685 0
M  V30 7540 H 708.491 3.33703 2.16167 0
M  V30 7541 N 709.488 -0.375779 1.53054 0
M  V30 7542 C 710.736 -1.11727 1.68409 0
M  V30 7543 C 711.057 -1.90127 0.43323 0
M  V30 7544 O 710.327 -1.87945 -0.552595 0
M  V30 7545 H 708.907 -0.415451 0.620813 0
M  V30 7546 H 711.569 -0.424869 1.90213 0
M  V30 7547 H 710.665 -1.8128 2.54055 0
M  V30 7548 N 710.966 -1.44241 -0.634997 0
M  V30 7549 C 712.214 -1.46531 -1.39187 0
M  V30 7550 C 712.535 -0.0976441 -1.94755 0
M  V30 7551 O 711.805 0.869528 -1.75545 0
M  V30 7552 H 710.385 -0.539544 -0.516625 0
M  V30 7553 H 713.047 -1.79989 -0.747655 0
M  V30 7554 H 712.143 -2.18848 -2.22513 0
M  V30 7555 N 712.444 0.87505 -1.31075 0
M  V30 7556 C 713.693 1.62245 -1.19831 0
M  V30 7557 C 714.006 1.94078 0.24357 0
M  V30 7558 O 715.212 2.67265 0.477646 0
M  V30 7559 C 713.668 2.92464 -2.09744 0
M  V30 7560 C 713.276 2.68134 -3.58898 0
M  V30 7561 C 715.02 3.70449 -2.07287 0
M  V30 7562 C 712.927 3.9423 -4.40836 0
M  V30 7563 H 711.857 0.608741 -0.444916 0
M  V30 7564 H 714.508 0.967947 -1.55894 0
M  V30 7565 H 712.89 3.59262 -1.66574 0
M  V30 7566 H 714.064 2.09776 -4.10281 0
M  V30 7567 H 712.379 2.03511 -3.6328 0
M  V30 7568 H 714.976 4.63983 -2.65752 0
M  V30 7569 H 715.319 4.02611 -1.05876 0
M  V30 7570 H 715.852 3.10528 -2.48631 0
M  V30 7571 H 712.591 3.67221 -5.42982 0
M  V30 7572 H 712.111 4.52058 -3.94213 0
M  V30 7573 H 713.79 4.62162 -4.52786 0
M  V30 7574 N 713.922 1.13953 1.08869 0
M  V30 7575 C 714.852 0.844824 2.17681 0
M  V30 7576 C 715.833 -0.198213 1.68941 0
M  V30 7577 O 717.018 -0.0559073 1.9412 0
M  V30 7578 C 714.148 0.316325 3.45856 0
M  V30 7579 C 713.102 1.29426 4.07962 0
M  V30 7580 C 712.428 0.625275 5.31031 0
M  V30 7581 C 713.728 2.65484 4.49795 0
M  V30 7582 H 715.422 1.75471 2.42591 0
M  V30 7583 H 712.968 0.845116 1.16592 0
M  V30 7584 H 714.921 0.0977876 4.21287 0
M  V30 7585 H 713.645 -0.628972 3.20486 0
M  V30 7586 H 712.304 1.49889 3.34558 0
M  V30 7587 H 711.952 -0.325678 5.01945 0
M  V30 7588 H 711.652 1.27777 5.73539 0
M  V30 7589 H 713.176 0.416152 6.0918 0
M  V30 7590 H 714.59 2.48957 5.16424 0
M  V30 7591 H 712.987 3.26963 5.03205 0
M  V30 7592 H 714.057 3.22717 3.61914 0
M  V30 7593 N 715.4 -1.26948 0.933913 0
M  V30 7594 C 716.648 -1.93704 0.576484 0
M  V30 7595 C 716.969 -1.73702 -0.886145 0
M  V30 7596 O 716.239 -1.08838 -1.62884 0
M  V30 7597 H 714.819 -0.716812 0.210214 0
M  V30 7598 H 717.481 -1.54534 1.18766 0
M  V30 7599 H 716.577 -3.01987 0.788055 0
M  V30 7600 N 716.879 -0.700114 -1.41195 0
M  V30 7601 C 718.156 -0.160836 -1.94938 0
M  V30 7602 C 718.536 1.33014 -1.63922 0
M  V30 7603 O 717.884 2.07878 -0.948636 0
M  V30 7604 C 718.094 -0.456991 -3.45995 0
M  V30 7605 C 719.442 -0.387207 -4.22831 0
M  V30 7606 O 720.466 -0.392164 -3.54035 0
M  V30 7607 O 719.325 -0.351267 -5.4537 0
M  V30 7608 H 716.419 -0.0176304 -0.826812 0
M  V30 7609 H 718.965 -0.776586 -1.50888 0
M  V30 7610 H 717.737 -1.48884 -3.61869 0
M  V30 7611 H 717.36 0.189503 -3.97148 0
M  V30 7612 N 718.357 1.51182 -0.445186 0
M  V30 7613 C 719.287 2.30821 0.352686 0
M  V30 7614 C 720.268 1.36576 1.01395 0
M  V30 7615 O 721.453 1.65497 1.01609 0
M  V30 7616 C 718.583 3.15593 1.44976 0
M  V30 7617 C 717.537 4.1818 0.911553 0
M  V30 7618 C 716.863 4.91523 2.10497 0
M  V30 7619 C 718.163 5.22266 -0.059418 0
M  V30 7620 H 719.857 2.97771 -0.311936 0
M  V30 7621 H 717.403 1.43201 -0.151461 0
M  V30 7622 H 719.356 3.70091 2.01521 0
M  V30 7623 H 718.08 2.4648 2.14278 0
M  V30 7624 H 716.739 3.64746 0.368264 0
M  V30 7625 H 716.387 4.18906 2.78437 0
M  V30 7626 H 716.087 5.60898 1.7512 0
M  V30 7627 H 717.611 5.48847 2.6758 0
M  V30 7628 H 719.025 5.71789 0.415985 0
M  V30 7629 H 717.422 5.99213 -0.326152 0
M  V30 7630 H 718.492 4.7461 -0.993631 0
M  V30 7631 N 719.835 0.176821 1.56605 0
M  V30 7632 C 720.798 -0.737429 2.17013 0
M  V30 7633 C 721.798 -1.15414 1.11965 0
M  V30 7634 O 722.988 -1.0702 1.37449 0
M  V30 7635 C 720.12 -2.00445 2.75744 0
M  V30 7636 H 721.313 -0.211455 2.99154 0
M  V30 7637 H 718.866 -0.0727582 1.56131 0
M  V30 7638 H 719.601 -2.57338 1.97352 0
M  V30 7639 H 719.386 -1.71456 3.52626 0
M  V30 7640 H 720.876 -2.65679 3.22187 0
M  V30 7641 N 721.313 -1.57302 -0.09688 0
M  V30 7642 C 722.724 -1.7496 -0.651595 0
M  V30 7643 C 723.075 -0.798746 -1.79205 0
M  V30 7644 O 722.2 0.0231858 -2.16388 0
M  V30 7645 C 722.795 -3.17259 -1.18878 0
M  V30 7646 C 721.354 -3.36348 -1.68958 0
M  V30 7647 C 720.501 -2.70766 -0.598413 0
M  V30 7648 H 723.452 -1.58173 0.12918 0
M  V30 7649 H 723.473 -3.20033 -2.05814 0
M  V30 7650 H 722.985 -3.8644 -0.358523 0
M  V30 7651 H 721.086 -2.72243 -2.5439 0
M  V30 7652 H 721.199 -4.44654 -1.7838 0
M  V30 7653 H 719.563 -2.32615 -1.03743 0
M  V30 7654 H 720.346 -3.42586 0.221238 0
M  V30 7655 N 722.791 0.367657 -1.53252 0
M  V30 7656 C 724.019 1.13119 -1.73239 0
M  V30 7657 C 724.434 1.831 -0.460404 0
M  V30 7658 O 723.791 1.73483 0.566557 0
M  V30 7659 C 723.842 2.16308 -2.89643 0
M  V30 7660 O 723.563 1.49175 -4.1192 0
M  V30 7661 C 725.064 3.05224 -3.21486 0
M  V30 7662 H 722.284 0.338318 -0.579467 0
M  V30 7663 H 724.828 0.42721 -1.99988 0
M  V30 7664 H 722.983 2.82307 -2.65295 0
M  V30 7665 H 723.397 2.17912 -4.7709 0
M  V30 7666 H 724.871 3.73613 -4.06346 0
M  V30 7667 H 725.348 3.69919 -2.36763 0
M  V30 7668 H 725.954 2.44843 -3.47753 0
M  V30 7669 N 724.269 1.44576 0.627338 0
M  V30 7670 C 725.202 1.46206 1.75212 0
M  V30 7671 C 726.18 0.320483 1.5941 0
M  V30 7672 O 727.364 0.518028 1.81242 0
M  V30 7673 C 724.491 1.29834 3.12827 0
M  V30 7674 C 723.537 2.47603 3.47268 0
M  V30 7675 S 724.37 4.10125 3.44322 0
M  V30 7676 C 725.526 3.96183 4.84551 0
M  V30 7677 H 725.759 2.41378 1.73563 0
M  V30 7678 H 723.292 1.3192 0.802283 0
M  V30 7679 H 725.25 1.21075 3.92239 0
M  V30 7680 H 723.911 0.361662 3.12011 0
M  V30 7681 H 723.104 2.3202 4.47418 0
M  V30 7682 H 722.706 2.53121 2.75329 0
M  V30 7683 H 724.998 3.60107 5.73872 0
M  V30 7684 H 725.941 4.96176 5.05188 0
M  V30 7685 H 726.349 3.28177 4.59304 0
M  V30 7686 N 725.747 -0.868086 1.31537 0
M  V30 7687 C 726.677 -1.99131 1.21939 0
M  V30 7688 C 727.658 -1.69768 0.106166 0
M  V30 7689 O 728.843 -1.92006 0.291081 0
M  V30 7690 C 725.973 -3.34676 0.927879 0
M  V30 7691 C 724.927 -3.7835 2.00088 0
M  V30 7692 C 724.253 -5.11375 1.56203 0
M  V30 7693 C 725.553 -3.95256 3.41424 0
M  V30 7694 H 727.247 -2.07419 2.15911 0
M  V30 7695 H 724.793 -0.996569 1.03945 0
M  V30 7696 H 726.746 -4.12793 0.847327 0
M  V30 7697 H 725.47 -3.26565 -0.0475042 0
M  V30 7698 H 724.129 -3.02474 2.07135 0
M  V30 7699 H 723.777 -4.99709 0.57445 0
M  V30 7700 H 723.477 -5.41568 2.27985 0
M  V30 7701 H 725.001 -5.92001 1.49558 0
M  V30 7702 H 726.415 -4.63764 3.3704 0
M  V30 7703 H 724.812 -4.36849 4.1144 0
M  V30 7704 H 725.882 -2.98579 3.82072 0
M  V30 7705 N 727.225 -1.14528 -1.08264 0
M  V30 7706 C 728.502 -0.825185 -1.77342 0
M  V30 7707 C 728.882 0.681037 -1.99813 0
M  V30 7708 O 728.23 1.62234 -1.60912 0
M  V30 7709 C 728.44 -1.62556 -3.08831 0
M  V30 7710 C 729.788 -1.82585 -3.83338 0
M  V30 7711 O 730.812 -1.59254 -3.18617 0
M  V30 7712 O 729.671 -2.21598 -4.99556 0
M  V30 7713 H 726.765 -0.302531 -0.769678 0
M  V30 7714 H 729.311 -1.25056 -1.14713 0
M  V30 7715 H 728.083 -2.64862 -2.88035 0
M  V30 7716 H 727.706 -1.1959 -3.79189 0
M  V30 7717 N 728.703 1.26451 -0.940633 0
M  V30 7718 C 729.633 2.28773 -0.467479 0
M  V30 7719 C 730.614 1.63218 0.478955 0
M  V30 7720 O 731.799 1.90427 0.380929 0
M  V30 7721 C 728.929 3.46259 0.268656 0
M  V30 7722 C 727.883 4.23898 -0.591171 0
M  V30 7723 C 727.209 5.33993 0.274891 0
M  V30 7724 C 728.509 4.87974 -1.86223 0
M  V30 7725 H 730.203 2.68601 -1.32265 0
M  V30 7726 H 727.749 1.29123 -0.637436 0
M  V30 7727 H 729.702 4.16951 0.610696 0
M  V30 7728 H 728.426 3.05383 1.15796 0
M  V30 7729 H 727.085 3.54969 -0.916098 0
M  V30 7730 H 726.733 4.89358 1.16353 0
M  V30 7731 H 726.433 5.86849 -0.297006 0
M  V30 7732 H 727.957 6.07523 0.612213 0
M  V30 7733 H 729.371 5.50883 -1.58747 0
M  V30 7734 H 727.768 5.50945 -2.37866 0
M  V30 7735 H 728.838 4.10945 -2.57394 0
M  V30 7736 N 730.181 0.707592 1.40822 0
M  V30 7737 C 731.111 0.0644925 2.33411 0
M  V30 7738 C 732.092 -0.754205 1.52466 0
M  V30 7739 O 733.277 -0.704749 1.80961 0
M  V30 7740 C 730.407 -0.863865 3.36385 0
M  V30 7741 C 729.361 -0.15138 4.27732 0
M  V30 7742 C 728.687 -1.19491 5.21177 0
M  V30 7743 C 729.987 0.989607 5.12839 0
M  V30 7744 H 731.681 0.837829 2.87438 0
M  V30 7745 H 729.227 0.404346 1.38207 0
M  V30 7746 H 731.18 -1.32309 4.0009 0
M  V30 7747 H 729.904 -1.66901 2.80734 0
M  V30 7748 H 728.563 0.287937 3.65467 0
M  V30 7749 H 728.211 -1.9929 4.61836 0
M  V30 7750 H 727.911 -0.723123 5.83134 0
M  V30 7751 H 729.435 -1.6544 5.8776 0
M  V30 7752 H 730.849 0.610114 5.70044 0
M  V30 7753 H 729.246 1.38926 5.83798 0
M  V30 7754 H 730.316 1.82389 4.49291 0
M  V30 7755 N 731.66 -1.50943 0.453197 0
M  V30 7756 C 732.908 -2.01813 -0.107709 0
M  V30 7757 C 733.229 -1.33841 -1.41816 0
M  V30 7758 O 732.499 -0.477973 -1.8998 0
M  V30 7759 H 731.079 -0.745773 -0.0427948 0
M  V30 7760 H 733.741 -1.8545 0.599531 0
M  V30 7761 H 732.837 -3.10911 -0.27218 0
M  V30 7762 N 733.138 -0.185124 -1.56509 0
M  V30 7763 C 734.068 0.735098 -2.21627 0
M  V30 7764 C 735.049 1.2288 -1.1762 0
M  V30 7765 O 736.234 1.27945 -1.46095 0
M  V30 7766 C 733.364 1.95889 -2.86783 0
M  V30 7767 C 732.318 1.6005 -3.96948 0
M  V30 7768 C 731.644 2.90009 -4.4922 0
M  V30 7769 C 732.944 0.818008 -5.15855 0
M  V30 7770 H 734.638 0.192274 -2.98782 0
M  V30 7771 H 732.184 0.0910393 -1.43712 0
M  V30 7772 H 734.137 2.60779 -3.31017 0
M  V30 7773 H 732.861 2.52608 -2.07018 0
M  V30 7774 H 731.52 0.975237 -3.5339 0
M  V30 7775 H 731.168 3.44797 -3.6623 0
M  V30 7776 H 730.868 2.66778 -5.23549 0
M  V30 7777 H 732.392 3.55904 -4.9615 0
M  V30 7778 H 733.806 1.36979 -5.56695 0
M  V30 7779 H 732.203 0.684207 -5.96187 0
M  V30 7780 H 733.273 -0.182939 -4.84555 0
M  V30 7781 N 734.616 1.57351 0.0885366 0
M  V30 7782 C 736.027 1.75303 0.642308 0
M  V30 7783 C 736.378 0.808238 1.78779 0
M  V30 7784 O 735.503 -0.01171 2.16397 0
M  V30 7785 C 736.098 3.17885 1.17194 0
M  V30 7786 C 734.657 3.37239 1.67172 0
M  V30 7787 C 733.804 2.7108 0.584045 0
M  V30 7788 H 736.755 1.58103 -0.137567 0
M  V30 7789 H 736.776 3.2112 2.04114 0
M  V30 7790 H 736.288 3.86625 0.338024 0
M  V30 7791 H 734.389 2.73588 2.52943 0
M  V30 7792 H 734.502 4.45594 1.76019 0
M  V30 7793 H 732.866 2.33161 1.02508 0
M  V30 7794 H 733.649 3.42464 -0.239403 0
M  V30 7795 N 736.094 -0.359525 1.53444 0
M  V30 7796 C 737.026 -1.46098 1.76602 0
M  V30 7797 C 738.039 -1.49395 0.646912 0
M  V30 7798 O 739.228 -1.52765 0.923307 0
M  V30 7799 C 736.328 -2.84836 1.83635 0
M  V30 7800 C 735.501 -3.05164 3.13358 0
M  V30 7801 C 734.56 -4.24051 3.11556 0
M  V30 7802 O 733.586 -4.18935 3.85334 0
M  V30 7803 N 734.788 -5.31775 2.328 0
M  V30 7804 H 737.553 -1.2661 2.71643 0
M  V30 7805 H 735.114 -0.549294 1.52297 0
M  V30 7806 H 737.106 -3.62516 1.799 0
M  V30 7807 H 735.676 -2.97542 0.958509 0
M  V30 7808 H 734.896 -2.15091 3.30348 0
M  V30 7809 H 736.184 -3.15619 3.99076 0
M  V30 7810 H 735.582 -5.38796 1.7238 0
M  V30 7811 H 734.139 -6.0801 2.34877 0
M  V30 7812 N 737.572 -1.44907 -0.619662 0
M  V30 7813 C 738.983 -1.42905 -1.20146 0
M  V30 7814 C 739.334 -0.150341 -1.95623 0
M  V30 7815 O 738.459 0.748732 -2.03034 0
M  V30 7816 C 739.054 -2.58889 -2.18545 0
M  V30 7817 C 737.613 -2.60046 -2.72127 0
M  V30 7818 C 736.76 -2.3493 -1.4732 0
M  V30 7819 H 739.711 -1.53321 -0.409666 0
M  V30 7820 H 739.732 -2.32298 -3.0136 0
M  V30 7821 H 739.244 -3.51941 -1.63583 0
M  V30 7822 H 737.345 -1.70968 -3.3106 0
M  V30 7823 H 737.458 -3.58893 -3.17384 0
M  V30 7824 H 735.822 -1.84248 -1.75855 0
M  V30 7825 H 736.605 -3.3011 -0.942442 0
M  V30 7826 N 739.05 0.861098 -1.31996 0
M  V30 7827 C 739.997 1.96912 -1.20392 0
M  V30 7828 C 740.967 1.65869 -0.0875899 0
M  V30 7829 O 742.152 1.88992 -0.262011 0
M  V30 7830 C 739.292 3.32435 -0.926335 0
M  V30 7831 C 738.405 3.76018 -2.12684 0
M  V30 7832 C 737.54 5.00301 -1.78529 0
M  V30 7833 C 736.579 5.36357 -2.94937 0
M  V30 7834 N 735.716 6.51818 -2.60917 0
M  V30 7835 H 740.556 2.06169 -2.1517 0
M  V30 7836 H 738.093 1.00917 -1.07024 0
M  V30 7837 H 740.051 4.10478 -0.745917 0
M  V30 7838 H 738.681 3.22796 -0.0153578 0
M  V30 7839 H 737.733 2.93683 -2.41774 0
M  V30 7840 H 739.045 3.98664 -2.99781 0
M  V30 7841 H 738.199 5.86034 -1.57001 0
M  V30 7842 H 736.938 4.79578 -0.886356 0
M  V30 7843 H 735.943 4.49139 -3.17103 0
M  V30 7844 H 737.168 5.59041 -3.85552 0
M  V30 7845 H 735.114 6.32624 -1.73558 0
M  V30 7846 H 735.031 6.7445 -3.41544 0
M  V30 7847 H 736.299 7.4072 -2.42804 0
M  V30 7848 N 740.528 1.15101 1.07655 0
M  V30 7849 C 741.438 0.858869 2.18313 0
M  V30 7850 C 742.454 -0.163641 1.73229 0
M  V30 7851 O 743.63 0.00969541 2.01398 0
M  V30 7852 C 740.695 0.34893 3.4494 0
M  V30 7853 C 739.756 1.43495 4.04608 0
M  V30 7854 C 738.989 0.949253 5.2519 0
M  V30 7855 O 739.212 -0.20636 5.70027 0
M  V30 7856 O 738.146 1.73161 5.76454 0
M  V30 7857 H 741.972 1.78386 2.45788 0
M  V30 7858 H 739.557 0.929876 1.16934 0
M  V30 7859 H 741.439 0.070851 4.2134 0
M  V30 7860 H 740.114 -0.548237 3.19024 0
M  V30 7861 H 739.021 1.7666 3.29761 0
M  V30 7862 H 740.354 2.30692 4.3479 0
M  V30 7863 N 742.006 -1.2595 0.947325 0
M  V30 7864 C 742.939 -2.24559 0.406009 0
M  V30 7865 C 743.917 -1.54441 -0.508598 0
M  V30 7866 O 745.101 -1.83181 -0.444644 0
M  V30 7867 C 742.228 -3.36136 -0.415987 0
M  V30 7868 C 741.274 -4.24245 0.437969 0
M  V30 7869 S 742.107 -5.01948 1.86572 0
M  V30 7870 C 743.263 -6.16997 1.05194 0
M  V30 7871 H 743.496 -2.70128 1.24171 0
M  V30 7872 H 741.029 -1.34912 0.750874 0
M  V30 7873 H 742.987 -4.00861 -0.88433 0
M  V30 7874 H 741.648 -2.89167 -1.22643 0
M  V30 7875 H 740.841 -5.03634 -0.192127 0
M  V30 7876 H 740.443 -3.64416 0.841235 0
M  V30 7877 H 742.735 -6.76848 0.297126 0
M  V30 7878 H 743.678 -6.84324 1.8195 0
M  V30 7879 H 744.086 -5.61458 0.585294 0
M  V30 7880 N 743.484 -0.715051 -1.40445 0
M  V30 7881 C 744.712 -0.263959 -2.05209 0
M  V30 7882 C 745.127 1.09403 -1.53871 0
M  V30 7883 O 744.484 1.68746 -0.695064 0
M  V30 7884 C 744.535 -0.234545 -3.60738 0
M  V30 7885 O 744.256 -1.53891 -4.10182 0
M  V30 7886 C 745.757 0.235164 -4.42676 0
M  V30 7887 H 742.977 -0.11876 -0.660407 0
M  V30 7888 H 745.521 -0.973107 -1.79864 0
M  V30 7889 H 743.676 0.425563 -3.85055 0
M  V30 7890 H 744.09 -1.43903 -5.04373 0
M  V30 7891 H 745.564 0.204598 -5.51621 0
M  V30 7892 H 746.041 1.27724 -4.20218 0
M  V30 7893 H 746.647 -0.394649 -4.23465 0
M  V30 7894 N 744.962 1.50701 -0.461195 0
M  V30 7895 C 746.21 2.01867 0.0970051 0
M  V30 7896 C 746.531 1.34591 1.41104 0
M  V30 7897 O 745.801 0.488041 1.89723 0
M  V30 7898 H 744.381 0.74599 0.0388392 0
M  V30 7899 H 747.043 1.85129 -0.609357 0
M  V30 7900 H 746.139 3.11051 0.255688 0
M  V30 7901 N 746.441 0.193421 1.56409 0
M  V30 7902 C 747.388 -0.728124 2.19014 0
M  V30 7903 C 748.358 -1.21098 1.13686 0
M  V30 7904 O 749.543 -1.27517 1.4193 0
M  V30 7905 C 746.683 -1.94277 2.8522 0
M  V30 7906 C 745.796 -1.50143 4.05069 0
M  V30 7907 C 744.931 -2.67145 4.59137 0
M  V30 7908 C 743.97 -2.19609 5.71348 0
M  V30 7909 N 743.107 -3.29782 6.19829 0
M  V30 7910 H 747.947 -0.187499 2.9741 0
M  V30 7911 H 745.484 -0.0808064 1.46878 0
M  V30 7912 H 747.442 -2.65551 3.21774 0
M  V30 7913 H 746.072 -2.45673 2.09391 0
M  V30 7914 H 745.124 -0.684624 3.74189 0
M  V30 7915 H 746.436 -1.11266 4.86232 0
M  V30 7916 H 745.59 -3.46544 4.97988 0
M  V30 7917 H 744.329 -3.09295 3.77078 0
M  V30 7918 H 743.334 -1.38664 5.32027 0
M  V30 7919 H 744.559 -1.78492 6.55223 0
M  V30 7920 H 742.505 -3.71466 5.40693 0
M  V30 7921 H 742.422 -2.95069 6.96039 0
M  V30 7922 H 743.69 -4.094 6.63334 0
M  V30 7923 N 747.919 -1.57396 -0.0801906 0
M  V30 7924 C 749.144 -1.91437 -0.797909 0
M  V30 7925 C 749.569 -0.789075 -1.70749 0
M  V30 7926 O 748.927 0.25857 -1.79447 0
M  V30 7927 C 748.975 -3.24402 -1.57467 0
M  V30 7928 O 748.079 -3.13043 -2.68473 0
M  V30 7929 H 747.42 -0.627109 -0.218243 0
M  V30 7930 H 749.95 -2.04537 -0.050949 0
M  V30 7931 H 749.96 -3.58072 -1.95571 0
M  V30 7932 H 748.635 -4.05884 -0.907229 0
M  V30 7933 H 747.212 -2.90915 -2.33287 0
M  V30 7934 N 749.397 0.351382 -1.53633 0
M  V30 7935 C 750.327 1.43688 -1.84055 0
M  V30 7936 C 751.308 1.55251 -0.695073 0
M  V30 7937 O 752.493 1.69587 -0.946257 0
M  V30 7938 C 749.623 2.80843 -2.04315 0
M  V30 7939 C 748.577 2.84094 -3.20117 0
M  V30 7940 C 747.903 4.2406 -3.25696 0
M  V30 7941 C 749.203 2.50334 -4.58399 0
M  V30 7942 H 750.897 1.18478 -2.74961 0
M  V30 7943 H 748.443 0.568509 -1.32303 0
M  V30 7944 H 750.396 3.56821 -2.2418 0
M  V30 7945 H 749.12 3.07471 -1.10132 0
M  V30 7946 H 747.779 2.10568 -3.00094 0
M  V30 7947 H 747.427 4.47785 -2.29123 0
M  V30 7948 H 747.127 4.27147 -4.03509 0
M  V30 7949 H 748.651 5.0189 -3.47762 0
M  V30 7950 H 750.065 3.16025 -4.78332 0
M  V30 7951 H 748.462 2.64717 -5.38558 0
M  V30 7952 H 749.532 1.45542 -4.62543 0
M  V30 7953 N 750.875 1.45233 0.611969 0
M  V30 7954 C 752.124 1.48296 1.36716 0
M  V30 7955 C 752.437 0.12706 1.95187 0
M  V30 7956 O 753.643 0.0353066 2.71477 0
M  V30 7957 C 752.099 2.61168 2.47627 0
M  V30 7958 C 751.707 4.03051 1.95587 0
M  V30 7959 C 753.451 2.73472 3.24674 0
M  V30 7960 C 751.358 5.07312 3.03954 0
M  V30 7961 H 750.288 0.5518 0.513841 0
M  V30 7962 H 752.939 1.7136 0.656359 0
M  V30 7963 H 751.321 2.31379 3.21372 0
M  V30 7964 H 752.495 4.42497 1.2858 0
M  V30 7965 H 750.81 3.95158 1.31298 0
M  V30 7966 H 753.407 3.48537 4.05494 0
M  V30 7967 H 753.75 1.79953 3.75397 0
M  V30 7968 H 754.283 3.02765 2.58028 0
M  V30 7969 H 751.022 6.02525 2.58154 0
M  V30 7970 H 750.542 4.7244 3.69541 0
M  V30 7971 H 752.221 5.31867 3.6841 0
M  V30 7972 N 752.353 -0.854086 1.3245 0
M  V30 7973 C 753.599 -1.61069 1.23225 0
M  V30 7974 C 753.932 -1.93111 -0.205349 0
M  V30 7975 O 753.207 -1.57397 -1.14265 0
M  V30 7976 C 753.49 -2.93065 2.09249 0
M  V30 7977 C 753.343 -2.67801 3.6139 0
M  V30 7978 C 754.662 -3.94341 1.95406 0
M  V30 7979 H 751.781 -0.584449 0.448986 0
M  V30 7980 H 754.423 -0.986189 1.62402 0
M  V30 7981 H 752.573 -3.46364 1.75967 0
M  V30 7982 H 754.245 -2.21052 4.04887 0
M  V30 7983 H 752.488 -2.01756 3.84027 0
M  V30 7984 H 753.159 -3.6179 4.16907 0
M  V30 7985 H 755.635 -3.50301 2.24562 0
M  V30 7986 H 754.511 -4.84555 2.57872 0
M  V30 7987 H 754.772 -4.32382 0.921865 0
M  V30 7988 N 753.831 -1.1567 -1.07043 0
M  V30 7989 C 754.778 -0.856336 -2.14326 0
M  V30 7990 C 755.748 0.192051 -1.64986 0
M  V30 7991 O 756.933 0.0589148 -1.90709 0
M  V30 7992 C 754.073 -0.355227 -3.43267 0
M  V30 7993 C 753.186 -1.46555 -4.06381 0
M  V30 7994 C 752.321 -0.920245 -5.23168 0
M  V30 7995 C 751.36 -2.00729 -5.78251 0
M  V30 7996 N 750.497 -1.47813 -6.86364 0
M  V30 7997 H 755.337 -1.77514 -2.39359 0
M  V30 7998 H 752.874 -0.885676 -1.17449 0
M  V30 7999 H 754.832 -0.0463804 -4.17174 0
M  V30 8000 H 753.462 0.526649 -3.18475 0
M  V30 8001 H 752.514 -1.89052 -3.30096 0
M  V30 8002 H 753.826 -2.28616 -4.43324 0
M  V30 8003 H 752.98 -0.564127 -6.04072 0
M  V30 8004 H 751.719 -0.0688477 -4.87651 0
M  V30 8005 H 750.724 -2.3722 -4.95991 0
M  V30 8006 H 751.949 -2.86252 -6.15822 0
M  V30 8007 H 749.895 -0.649145 -6.5278 0
M  V30 8008 H 749.812 -2.23498 -7.22208 0
M  V30 8009 H 751.08 -1.15036 -7.70965 0
M  V30 8010 O 755.348 1.19707 -1.08409 0
M  V30 8011 H 756.039 1.77498 -0.775504 0
M  V30 END ATOM
M  V30 BEGIN BOND
M  V30 END BOND
M  V30 END CTAB
M  END
$$$$
