drugbank_target|P51160 Cone cGMP-specific 3',5'-cyclic phosphodiesterase subunit alpha' (DB00201; DB09283)
 OpenBabel12092121003D

  0  0  0     0  0            999 V3000
M  V30 BEGIN CTAB
M  V30 COUNTS 13903 14054 0 0 0
M  V30 BEGIN ATOM
M  V30 1 H -0.908 1.98254 -0.117106 0
M  V30 2 N 0 1.576 0 0
M  V30 3 C 0.933 2.03868 1.02534 0
M  V30 4 C 1.911 0.928543 1.3348 0
M  V30 5 O 3.095 1.19667 1.45644 0
M  V30 6 C 0.222 2.43627 2.35294 0
M  V30 7 C -0.732 3.65373 2.2001 0
M  V30 8 S 0.101 5.13292 1.52614 0
M  V30 9 C 1.257 5.56322 2.86805 0
M  V30 10 H 1.49 2.90518 0.631377 0
M  V30 11 H -0.977 1.52953 0.210867 0
M  V30 12 H 0.981 2.67203 3.11629 0
M  V30 13 H -0.358 1.57376 2.7183 0
M  V30 14 H -1.165 3.90944 3.18086 0
M  V30 15 H -1.563 3.418 1.51819 0
M  V30 16 H 0.729 5.58782 3.83104 0
M  V30 17 H 1.672 6.56266 2.65933 0
M  V30 18 H 2.08 4.83886 2.90714 0
M  V30 19 N 1.4781 -0.272755 1.55222 0
M  V30 20 C 2.7261 -1.00234 1.75492 0
M  V30 21 C 3.0471 -1.8681 0.5592 0
M  V30 22 O 2.3171 -1.91215 -0.425882 0
M  V30 23 H 0.8971 -0.373076 0.647166 0
M  V30 24 H 3.5591 -0.296926 1.92625 0
M  V30 25 H 2.6551 -1.63913 2.65592 0
M  V30 26 N 2.9562 -1.48159 -0.537278 0
M  V30 27 C 3.8662 -1.64807 -1.6696 0
M  V30 28 C 4.8822 -0.530651 -1.65711 0
M  V30 29 O 6.0582 -0.800784 -1.84796 0
M  V30 30 C 3.1232 -1.67708 -3.03438 0
M  V30 31 C 2.1842 -2.91025 -3.156 0
M  V30 32 C 1.4172 -2.93778 -4.45567 0
M  V30 33 O 1.6402 -2.05153 -5.3223 0
M  V30 34 O 0.5742 -3.85868 -4.61941 0
M  V30 35 H 4.4002 -2.6066 -1.55853 0
M  V30 36 H 1.9852 -1.31475 -0.709549 0
M  V30 37 H 3.8672 -1.7218 -3.84619 0
M  V30 38 H 2.5422 -0.750278 -3.14885 0
M  V30 39 H 1.4492 -2.92089 -2.33741 0
M  V30 40 H 2.7822 -3.83065 -3.09066 0
M  V30 41 N 4.4343 0.785586 -1.36625 0
M  V30 42 C 5.6833 1.53883 -1.30396 0
M  V30 43 C 5.9963 1.95271 0.113452 0
M  V30 44 O 7.2023 2.69858 0.298142 0
M  V30 45 C 5.6583 2.77808 -2.28802 0
M  V30 46 C 5.2663 2.43574 -3.75999 0
M  V30 47 C 7.0103 3.55783 -2.31558 0
M  V30 48 C 4.9173 3.63919 -4.66173 0
M  V30 49 H 3.8473 0.577678 -0.484566 0
M  V30 50 H 6.4983 0.861705 -1.62009 0
M  V30 51 H 4.8803 3.47339 -1.90188 0
M  V30 52 H 6.0543 1.81916 -4.23371 0
M  V30 53 H 4.3693 1.78803 -3.76056 0
M  V30 54 H 6.9663 4.45205 -2.96137 0
M  V30 55 H 7.3093 3.94644 -1.3252 0
M  V30 56 H 7.8423 2.93235 -2.68809 0
M  V30 57 H 4.5813 3.3015 -5.66287 0
M  V30 58 H 4.1013 4.2473 -4.23515 0
M  V30 59 H 5.7803 4.30901 -4.82632 0
M  V30 60 N 5.9124 1.20967 1.01018 0
M  V30 61 C 6.8604 0.961223 2.1181 0
M  V30 62 C 7.8544 -0.0897034 1.69162 0
M  V30 63 O 9.0604 0.0612271 1.79896 0
M  V30 64 H 5.4354 0.29355 0.692338 0
M  V30 65 H 7.4064 1.90178 2.29946 0
M  V30 66 C 6.1554 0.536854 3.4353 0
M  V30 67 H 5.4784 1.33713 3.76777 0
M  V30 68 H 6.9184 0.402286 4.22087 0
M  V30 69 C 5.3774 -0.751574 3.2841 0
M  V30 70 O 5.9074 -1.80841 3.58691 0
M  V30 71 N 4.1134 -0.716079 2.81639 0
M  V30 72 H 3.6604 0.144236 2.57196 0
M  V30 73 H 3.6184 -1.57847 2.71904 0
M  V30 74 N 7.3905 -1.2043 1.01659 0
M  V30 75 C 8.3225 -2.22626 0.544988 0
M  V30 76 C 9.3355 -1.58479 -0.372609 0
M  V30 77 O 10.5245 -1.77679 -0.170958 0
M  V30 78 C 7.6245 -3.38141 -0.22663 0
M  V30 79 C 6.7975 -4.31877 0.692876 0
M  V30 80 C 5.8565 -5.26191 -0.0311616 0
M  V30 81 O 4.8825 -5.6612 0.591343 0
M  V30 82 N 6.0845 -5.65618 -1.30601 0
M  V30 83 H 8.8495 -2.63716 1.42388 0
M  V30 84 H 6.4105 -1.34971 0.894116 0
M  V30 85 H 8.4025 -3.98239 -0.72024 0
M  V30 86 H 6.9725 -2.95943 -1.00681 0
M  V30 87 H 6.1925 -3.69746 1.36679 0
M  V30 88 H 7.4805 -4.91426 1.31824 0
M  V30 89 H 6.8785 -5.3519 -1.83269 0
M  V30 90 H 5.4355 -6.28025 -1.74435 0
M  V30 91 N 8.8686 -0.792821 -1.36206 0
M  V30 92 C 10.1146 -0.36733 -1.99446 0
M  V30 93 C 10.4476 1.05917 -1.62774 0
M  V30 94 O 9.7226 1.7324 -0.88421 0
M  V30 95 C 10.0056 -0.535044 -3.56103 0
M  V30 96 C 9.8586 -2.00548 -4.02617 0
M  V30 97 C 11.1776 0.0478191 -4.40074 0
M  V30 98 H 8.2966 -0.134941 -0.724541 0
M  V30 99 H 10.9386 -0.999794 -1.61568 0
M  V30 100 H 9.0886 0.00336329 -3.885 0
M  V30 101 H 10.7606 -2.60521 -3.80692 0
M  V30 102 H 9.0036 -2.50686 -3.54032 0
M  V30 103 H 9.6746 -2.07377 -5.11565 0
M  V30 104 H 12.1506 -0.411822 -4.14057 0
M  V30 105 H 11.0266 -0.0995336 -5.4881 0
M  V30 106 H 11.2876 1.14025 -4.27142 0
M  V30 107 N 10.3467 1.47872 -0.545128 0
M  V30 108 C 11.3097 2.28337 0.198717 0
M  V30 109 C 12.3097 1.36255 0.853888 0
M  V30 110 O 13.4997 1.59003 0.711606 0
M  V30 111 C 10.6317 3.15585 1.28915 0
M  V30 112 H 11.8247 2.95567 -0.507941 0
M  V30 113 H 9.3777 1.53362 -0.301616 0
M  V30 114 H 10.1127 2.53019 2.02859 0
M  V30 115 H 9.8977 3.83337 0.824309 0
M  V30 116 H 11.3877 3.76243 1.81194 0
M  V30 117 N 11.8248 0.280983 1.55075 0
M  V30 118 C 13.0708 -0.33461 2.00021 0
M  V30 119 C 13.4038 -1.55063 1.16915 0
M  V30 120 O 12.6788 -1.93006 0.240646 0
M  V30 121 C 12.9618 -0.711007 3.53011 0
M  V30 122 C 12.8148 0.512766 4.46868 0
M  V30 123 C 14.1338 -1.54522 4.12081 0
M  V30 124 H 11.2528 -0.120147 0.727141 0
M  V30 125 H 13.8948 0.389097 1.85973 0
M  V30 126 H 12.0448 -1.32761 3.65112 0
M  V30 127 H 13.7168 1.15131 4.46702 0
M  V30 128 H 11.9598 1.14975 4.18286 0
M  V30 129 H 12.6308 0.205556 5.51617 0
M  V30 130 H 15.1068 -1.02442 4.03293 0
M  V30 131 H 13.9828 -1.77739 5.19327 0
M  V30 132 H 14.2438 -2.52813 3.62682 0
M  V30 133 N 13.3029 -1.57598 0.00835791 0
M  V30 134 C 14.2129 -2.12385 -0.996487 0
M  V30 135 C 15.2289 -1.07108 -1.37127 0
M  V30 136 O 16.4049 -1.39055 -1.4569 0
M  V30 137 C 13.4699 -2.62314 -2.26699 0
M  V30 138 C 12.5309 -3.82225 -1.95456 0
M  V30 139 C 11.7639 -4.29763 -3.16449 0
M  V30 140 O 11.9869 -3.76584 -4.28416 0
M  V30 141 O 10.9209 -5.21832 -2.99958 0
M  V30 142 H 14.7469 -2.98479 -0.560725 0
M  V30 143 H 12.3319 -1.47903 -0.210987 0
M  V30 144 H 14.2139 -2.94589 -3.01322 0
M  V30 145 H 12.8889 -1.79313 -2.69497 0
M  V30 146 H 11.7959 -3.54909 -1.18282 0
M  V30 147 H 13.1289 -4.66324 -1.57489 0
M  V30 148 N 14.781 0.264519 -1.55364 0
M  V30 149 C 15.728 1.32717 -1.88825 0
M  V30 150 C 16.698 1.48675 -0.740605 0
M  V30 151 O 17.883 1.62945 -0.992657 0
M  V30 152 C 15.023 2.68089 -2.17307 0
M  V30 153 C 14.136 2.60284 -3.44785 0
M  V30 154 C 13.271 3.87892 -3.62924 0
M  V30 155 C 12.31 3.74631 -4.84064 0
M  V30 156 N 11.447 4.94092 -4.98816 0
M  V30 157 H 16.287 1.03481 -2.79456 0
M  V30 158 H 13.824 0.499757 -1.3835 0
M  V30 159 H 15.782 3.46864 -2.31821 0
M  V30 160 H 14.412 2.95509 -1.299 0
M  V30 161 H 13.464 1.73173 -3.38697 0
M  V30 162 H 14.776 2.46388 -4.33698 0
M  V30 163 H 13.93 4.75109 -3.77302 0
M  V30 164 H 12.669 4.04664 -2.7221 0
M  V30 165 H 11.674 2.85797 -4.69681 0
M  V30 166 H 12.899 3.5937 -5.76221 0
M  V30 167 H 10.845 5.11259 -4.11036 0
M  V30 168 H 10.762 4.8276 -5.81789 0
M  V30 169 H 12.03 5.82857 -5.17588 0
M  V30 170 N 16.2591 1.48442 0.529413 0
M  V30 171 C 17.4891 1.59919 1.30804 0
M  V30 172 C 17.8971 0.258792 1.87422 0
M  V30 173 O 17.2401 -0.762096 1.67146 0
M  V30 174 C 17.3021 2.58693 2.49636 0
M  V30 175 C 16.9661 4.03745 2.14101 0
M  V30 176 C 17.9631 4.9141 1.6974 0
M  V30 177 C 15.6481 4.49285 2.24607 0
M  V30 178 C 17.6421 6.22645 1.36351 0
M  V30 179 C 15.3291 5.8054 1.9083 0
M  V30 180 C 16.3271 6.67043 1.46773 0
M  V30 181 O 16.0151 7.95856 1.1344 0
M  V30 182 H 15.7471 0.541981 0.404021 0
M  V30 183 H 18.3011 1.95 0.645309 0
M  V30 184 H 16.5311 2.18734 3.18892 0
M  V30 185 H 18.2201 2.59999 3.11698 0
M  V30 186 H 18.9861 4.57465 1.61094 0
M  V30 187 H 14.8651 3.82142 2.57854 0
M  V30 188 H 18.4091 6.90119 1.01891 0
M  V30 189 H 14.3061 6.14022 1.99117 0
M  V30 190 H 15.0741 8.08613 1.26832 0
M  V30 191 N 17.7372 -0.778329 1.37039 0
M  V30 192 C 18.6672 -1.90546 1.34962 0
M  V30 193 C 19.6482 -1.68681 0.219274 0
M  V30 194 O 20.8332 -1.89634 0.418624 0
M  V30 195 C 17.9632 -3.27734 1.14925 0
M  V30 196 C 16.9172 -3.64147 2.24902 0
M  V30 197 C 16.2432 -4.99806 1.89996 0
M  V30 198 C 17.5432 -3.71579 3.67051 0
M  V30 199 H 19.2372 -1.92541 2.29277 0
M  V30 200 H 16.7832 -0.924948 1.10366 0
M  V30 201 H 18.7362 -4.06215 1.12104 0
M  V30 202 H 17.4602 -3.26154 0.170631 0
M  V30 203 H 16.1192 -2.8797 2.26868 0
M  V30 204 H 15.7672 -4.94759 0.906796 0
M  V30 205 H 15.4672 -5.25139 2.63634 0
M  V30 206 H 16.9912 -5.80694 1.88749 0
M  V30 207 H 18.4052 -4.40227 3.67251 0
M  V30 208 H 16.8022 -4.08405 4.39688 0
M  V30 209 H 17.8722 -2.72404 4.01154 0
M  V30 210 N 19.2153 -1.21501 -1.00376 0
M  V30 211 C 20.1253 -0.991447 -2.12621 0
M  V30 212 C 21.1413 0.0568446 -1.73907 0
M  V30 213 O 22.3173 -0.13348 -2.00957 0
M  V30 214 C 19.3823 -0.560312 -3.42142 0
M  V30 215 C 18.4433 -1.68096 -3.95022 0
M  V30 216 C 17.6763 -1.2703 -5.18362 0
M  V30 217 O 17.8993 -0.144438 -5.70217 0
M  V30 218 O 16.8333 -2.08269 -5.64719 0
M  V30 219 H 20.6593 -1.93158 -2.34358 0
M  V30 220 H 18.2443 -0.999999 -1.10997 0
M  V30 221 H 20.1263 -0.329724 -4.20108 0
M  V30 222 H 18.8013 0.351089 -3.2179 0
M  V30 223 H 17.7083 -1.96597 -3.18278 0
M  V30 224 H 19.0413 -2.56983 -4.19786 0
M  V30 225 N 20.6934 1.19889 -1.02296 0
M  V30 226 C 21.6034 2.26571 -0.608508 0
M  V30 227 C 22.6194 1.70299 0.356964 0
M  V30 228 O 23.7954 2.00235 0.216326 0
M  V30 229 C 20.8604 3.46677 0.0402814 0
M  V30 230 C 19.9214 4.18153 -0.97194 0
M  V30 231 C 19.1544 5.32525 -0.354016 0
M  V30 232 O 19.3774 5.64112 0.844604 0
M  V30 233 O 18.3114 5.92242 -1.07391 0
M  V30 234 H 22.1374 2.64251 -1.49684 0
M  V30 235 H 19.7224 1.26629 -0.792809 0
M  V30 236 H 21.6044 4.19475 0.402324 0
M  V30 237 H 20.2794 3.10858 0.902707 0
M  V30 238 H 19.1864 3.47499 -1.38546 0
M  V30 239 H 20.5194 4.57927 -1.80454 0
M  V30 240 N 22.1715 0.800033 1.35784 0
M  V30 241 C 23.1195 0.193851 2.31791 0
M  V30 242 C 24.1135 -0.652744 1.56319 0
M  V30 243 O 25.3195 -0.546641 1.71499 0
M  V30 244 H 21.6945 0.04392 0.750716 0
M  V30 245 H 23.6655 1.01883 2.80468 0
M  V30 246 C 22.4145 -0.648338 3.41602 0
M  V30 247 H 21.7375 -0.00624665 3.998 0
M  V30 248 H 23.1775 -1.03898 4.11073 0
M  V30 249 C 21.6365 -1.8111 2.84079 0
M  V30 250 O 22.1665 -2.90825 2.77099 0
M  V30 251 N 20.3725 -1.62056 2.41218 0
M  V30 252 H 19.9195 -0.728123 2.47095 0
M  V30 253 H 19.8775 -2.40013 2.03079 0
M  V30 254 N 23.6496 -1.47581 0.552962 0
M  V30 255 C 25.0606 -1.86324 0.118463 0
M  V30 256 C 25.4116 -1.46006 -1.3106 0
M  V30 257 O 24.5366 -0.861182 -1.98526 0
M  V30 258 C 25.1316 -3.3816 0.20821 0
M  V30 259 C 23.6906 -3.7601 -0.171226 0
M  V30 260 C 22.8376 -2.71634 0.557686 0
M  V30 261 H 25.7886 -1.39159 0.762928 0
M  V30 262 H 25.8096 -3.76141 -0.574278 0
M  V30 263 H 25.3216 -3.67473 1.24841 0
M  V30 264 H 23.4226 -3.52313 -1.21269 0
M  V30 265 H 23.5356 -4.78745 0.184379 0
M  V30 266 H 21.8996 -2.547 0.00125792 0
M  V30 267 H 22.6826 -3.0379 1.59896 0
M  V30 268 N 25.1277 -0.289203 -1.54924 0
M  V30 269 C 26.0597 0.625583 -2.20497 0
M  V30 270 C 27.0727 1.10667 -1.19402 0
M  V30 271 O 28.2617 1.02615 -1.46056 0
M  V30 272 C 25.3617 1.86702 -2.82835 0
M  V30 273 C 24.5347 1.5304 -4.09753 0
M  V30 274 C 23.5937 2.62576 -4.56005 0
M  V30 275 O 22.6197 2.28167 -5.21468 0
M  V30 276 N 23.8217 3.92901 -4.27328 0
M  V30 277 H 26.5867 0.0642801 -2.99631 0
M  V30 278 H 24.1477 -0.110896 -1.6152 0
M  V30 279 H 26.1397 2.59304 -3.10715 0
M  V30 280 H 24.7097 2.33702 -2.07611 0
M  V30 281 H 23.9297 0.637564 -3.8901 0
M  V30 282 H 25.2177 1.28072 -4.92418 0
M  V30 283 H 24.6157 4.23671 -3.74859 0
M  V30 284 H 23.1727 4.61837 -4.59946 0
M  V30 285 N 26.6058 1.57591 -0.0167156 0
M  V30 286 C 27.8528 1.91283 0.664597 0
M  V30 287 C 28.1808 0.891949 1.72842 0
M  V30 288 O 27.4358 -0.100931 1.9544 0
M  V30 289 C 27.7348 3.3172 1.33029 0
M  V30 290 C 27.4008 4.4914 0.398047 0
M  V30 291 C 26.0628 4.80992 0.141421 0
M  V30 292 C 28.4148 5.20634 -0.242825 0
M  V30 293 C 25.7428 5.81703 -0.764092 0
M  V30 294 C 28.0948 6.22311 -1.13632 0
M  V30 295 C 26.7588 6.52611 -1.40196 0
M  V30 296 H 26.0288 0.699956 0.243193 0
M  V30 297 H 28.6758 1.9135 -0.0758267 0
M  V30 298 H 26.9808 3.27856 2.14517 0
M  V30 299 H 28.6778 3.55055 1.86379 0
M  V30 300 H 25.2678 4.24262 0.608238 0
M  V30 301 H 29.4518 4.96267 -0.0576019 0
M  V30 302 H 24.7078 6.03532 -0.977732 0
M  V30 303 H 28.8818 6.76834 -1.63917 0
M  V30 304 H 26.5088 7.30467 -2.10529 0
M  V30 305 N 28.0839 -0.256276 1.55502 0
M  V30 306 C 29.0469 -1.30047 1.88734 0
M  V30 307 C 30.0469 -1.4154 0.763086 0
M  V30 308 O 31.2369 -1.40403 1.03115 0
M  V30 309 C 28.3689 -2.67953 2.10747 0
M  V30 310 H 29.5619 -1.01802 2.82093 0
M  V30 311 H 27.1149 -0.495134 1.4825 0
M  V30 312 H 27.8499 -3.01351 1.19825 0
M  V30 313 H 27.6349 -2.60993 2.92617 0
M  V30 314 H 29.1249 -3.43368 2.37673 0
M  V30 315 N 29.562 -1.4872 -0.521534 0
M  V30 316 C 30.509 -1.63871 -1.62527 0
M  V30 317 C 31.479 -0.480559 -1.58996 0
M  V30 318 O 32.664 -0.705085 -1.77294 0
M  V30 319 C 29.804 -1.69227 -3.00759 0
M  V30 320 C 28.917 -2.96207 -3.14461 0
M  V30 321 C 28.052 -2.92671 -4.43303 0
M  V30 322 C 27.091 -4.14318 -4.50563 0
M  V30 323 N 26.228 -4.0881 -5.70805 0
M  V30 324 H 31.068 -2.58123 -1.48918 0
M  V30 325 H 28.605 -1.28 -0.724878 0
M  V30 326 H 30.563 -1.70314 -3.80853 0
M  V30 327 H 29.193 -0.784586 -3.1312 0
M  V30 328 H 28.245 -3.04826 -2.27564 0
M  V30 329 H 29.557 -3.86192 -3.15686 0
M  V30 330 H 28.711 -2.92206 -5.31696 0
M  V30 331 H 27.45 -2.00429 -4.44612 0
M  V30 332 H 26.455 -4.15049 -3.60575 0
M  V30 333 H 27.68 -5.07729 -4.50986 0
M  V30 334 H 25.626 -3.19394 -5.72995 0
M  V30 335 H 25.543 -4.92509 -5.7356 0
M  V30 336 H 26.811 -4.12418 -6.61462 0
M  V30 337 N 31.0401 0.771051 -1.3745 0
M  V30 338 C 31.9501 1.91538 -1.35464 0
M  V30 339 C 32.9661 1.72134 -0.254123 0
M  V30 340 O 34.1421 1.95358 -0.489626 0
M  V30 341 C 31.2071 3.26671 -1.16134 0
M  V30 342 C 30.2681 3.58723 -2.35831 0
M  V30 343 C 29.5011 4.87409 -2.17413 0
M  V30 344 O 29.7241 5.58506 -1.15876 0
M  V30 345 O 28.6581 5.18539 -3.05615 0
M  V30 346 H 32.4841 1.96165 -2.31847 0
M  V30 347 H 30.0691 0.9139 -1.18187 0
M  V30 348 H 31.9511 4.07499 -1.07345 0
M  V30 349 H 30.6261 3.22894 -0.228251 0
M  V30 350 H 29.5331 2.78127 -2.50192 0
M  V30 351 H 30.8661 3.67243 -3.27709 0
M  V30 352 N 32.5182 1.22032 0.997298 0
M  V30 353 C 33.7482 1.06686 1.76923 0
M  V30 354 C 34.1562 -0.385838 1.85224 0
M  V30 355 O 33.4992 -1.27929 1.31833 0
M  V30 356 C 33.5612 1.59802 3.22031 0
M  V30 357 C 33.2252 3.08362 3.37286 0
M  V30 358 C 34.2222 4.05835 3.24952 0
M  V30 359 C 31.9072 3.47727 3.6248 0
M  V30 360 C 33.9012 5.4066 3.37588 0
M  V30 361 C 31.5882 4.82701 3.74757 0
M  V30 362 C 32.5862 5.78977 3.62319 0
M  V30 363 O 32.2742 7.11502 3.74193 0
M  V30 364 H 32.0062 0.374767 0.562606 0
M  V30 365 H 34.5602 1.61991 1.26286 0
M  V30 366 H 32.7902 0.989003 3.73839 0
M  V30 367 H 34.4792 1.40184 3.80924 0
M  V30 368 H 35.2452 3.76766 3.05405 0
M  V30 369 H 31.1242 2.73317 3.7124 0
M  V30 370 H 34.6682 6.15788 3.27796 0
M  V30 371 H 30.5652 5.11453 3.9381 0
M  V30 372 H 31.3332 7.19019 3.91093 0
M  V30 373 N 33.9963 -1.19345 1.0293 0
M  V30 374 C 35.2433 -1.89038 0.726008 0
M  V30 375 C 35.5713 -1.79649 -0.745427 0
M  V30 376 O 34.8263 -1.18354 -1.55855 0
M  V30 377 C 35.1253 -3.39292 1.12319 0
M  V30 378 C 34.7913 -3.68885 2.59297 0
M  V30 379 C 33.4533 -3.76671 2.99453 0
M  V30 380 C 35.8053 -3.82178 3.54386 0
M  V30 381 C 33.1333 -3.9522 4.33611 0
M  V30 382 C 35.4853 -4.0224 4.88248 0
M  V30 383 C 34.1493 -4.08259 5.28092 0
M  V30 384 H 33.4193 -0.691739 0.265665 0
M  V30 385 H 36.0663 -1.41328 1.29223 0
M  V30 386 H 34.3713 -3.88903 0.475584 0
M  V30 387 H 36.0683 -3.91536 0.866037 0
M  V30 388 H 32.6583 -3.63433 2.27189 0
M  V30 389 H 36.8423 -3.75505 3.24514 0
M  V30 390 H 32.0983 -3.98119 4.64016 0
M  V30 391 H 36.2723 -4.11468 5.61843 0
M  V30 392 H 33.8993 -4.22384 6.32057 0
M  V30 393 N 35.4744 -0.807222 -1.35358 0
M  V30 394 C 36.7514 -0.311126 -1.9311 0
M  V30 395 C 37.1314 1.19937 -1.73719 0
M  V30 396 O 36.4794 1.99918 -1.10657 0
M  V30 397 C 36.6894 -0.723226 -3.41424 0
M  V30 398 C 38.0374 -0.713078 -4.18569 0
M  V30 399 O 39.0614 -0.664811 -3.49941 0
M  V30 400 O 37.9204 -0.772022 -5.41019 0
M  V30 401 H 35.0144 -0.081526 -0.822972 0
M  V30 402 H 37.5604 -0.890962 -1.4443 0
M  V30 403 H 36.3324 -1.76426 -3.4927 0
M  V30 404 H 35.9554 -0.118232 -3.97424 0
M  V30 405 N 36.9525 1.47285 -0.560781 0
M  V30 406 C 38.3685 1.58065 -0.22081 0
M  V30 407 C 38.5685 1.55892 1.27671 0
M  V30 408 O 37.6245 1.46422 2.0571 0
M  V30 409 C 38.9375 2.88418 -0.850625 0
M  V30 410 C 40.4855 3.02009 -0.822184 0
M  V30 411 C 40.9605 4.35066 -1.43113 0
M  V30 412 N 42.4515 4.41711 -1.39448 0
M  V30 413 C 43.1865 5.43237 -1.83525 0
M  V30 414 N 42.6825 6.51555 -2.35474 0
M  V30 415 N 44.4755 5.34304 -1.74574 0
M  V30 416 H 36.6265 1.46941 -1.53369 0
M  V30 417 H 38.8895 0.699558 -0.639783 0
M  V30 418 H 38.5955 2.95755 -1.9032 0
M  V30 419 H 38.4695 3.75612 -0.345773 0
M  V30 420 H 40.8565 2.94266 0.221714 0
M  V30 421 H 40.9375 2.16347 -1.36483 0
M  V30 422 H 40.5815 4.43565 -2.47412 0
M  V30 423 H 40.5115 5.19465 -0.863899 0
M  V30 424 H 43.0025 3.64027 -1.01452 0
M  V30 425 H 43.3155 7.25203 -2.67021 0
M  V30 426 H 41.6605 6.52435 -2.39487 0
M  V30 427 H 44.8515 4.48581 -1.33763 0
M  V30 428 H 45.0245 6.13288 -2.09242 0
M  V30 429 N 38.4306 0.297415 1.54768 0
M  V30 430 C 39.3776 -0.580276 2.23386 0
M  V30 431 C 40.3476 -1.13238 1.21517 0
M  V30 432 O 41.5326 -1.17757 1.50126 0
M  V30 433 C 38.6726 -1.74801 2.97555 0
M  V30 434 C 37.7856 -1.22764 4.1419 0
M  V30 435 C 36.9206 -2.35895 4.75949 0
M  V30 436 C 35.9596 -1.80974 5.84735 0
M  V30 437 N 35.0966 -2.87664 6.40464 0
M  V30 438 H 39.9366 0.0114833 2.97998 0
M  V30 439 H 37.4736 0.0174361 1.4709 0
M  V30 440 H 39.4316 -2.43475 3.38786 0
M  V30 441 H 38.0616 -2.31145 2.25326 0
M  V30 442 H 37.1136 -0.433271 3.77924 0
M  V30 443 H 38.4256 -0.785551 4.92575 0
M  V30 444 H 37.5796 -3.12523 5.20014 0
M  V30 445 H 36.3186 -2.83429 3.96887 0
M  V30 446 H 35.3236 -1.02834 5.40097 0
M  V30 447 H 36.5486 -1.34348 6.65678 0
M  V30 448 H 34.4946 -3.34538 5.64287 0
M  V30 449 H 34.4116 -2.4794 7.14186 0
M  V30 450 H 35.6796 -3.642 6.89187 0
M  V30 451 N 39.9087 -1.5758 0.0250728 0
M  V30 452 C 40.8387 -2.13007 -0.956575 0
M  V30 453 C 41.8197 -1.0452 -1.342 0
M  V30 454 O 43.0047 -1.32332 -1.42133 0
M  V30 455 C 40.1347 -2.65386 -2.24026 0
M  V30 456 C 39.0887 -3.78623 -1.99571 0
M  V30 457 C 38.4147 -4.17414 -3.3417 0
M  V30 458 C 39.7147 -5.04867 -1.33814 0
M  V30 459 H 41.4087 -2.9528 -0.494991 0
M  V30 460 H 38.9547 -1.42042 -0.236651 0
M  V30 461 H 40.9077 -3.02794 -2.93076 0
M  V30 462 H 39.6317 -1.80268 -2.72343 0
M  V30 463 H 38.2907 -3.41646 -1.32941 0
M  V30 464 H 37.9387 -3.29284 -3.80238 0
M  V30 465 H 37.6387 -4.93719 -3.18615 0
M  V30 466 H 39.1627 -4.57402 -4.04495 0
M  V30 467 H 40.5767 -5.39888 -1.92857 0
M  V30 468 H 38.9737 -5.86144 -1.28669 0
M  V30 469 H 40.0437 -4.83904 -0.310561 0
M  V30 470 N 41.3868 0.248026 -1.55636 0
M  V30 471 C 42.8028 0.596483 -1.48035 0
M  V30 472 C 43.0028 1.88386 -0.715039 0
M  V30 473 O 42.0588 2.51319 -0.243944 0
M  V30 474 C 43.3718 0.700258 -2.92433 0
M  V30 475 C 44.9198 0.792659 -3.02797 0
M  V30 476 C 45.3948 0.928005 -4.485 0
M  V30 477 N 46.8858 0.992903 -4.52433 0
M  V30 478 C 47.6208 1.11687 -5.62418 0
M  V30 479 N 47.1168 1.20645 -6.82214 0
M  V30 480 N 48.9098 1.14994 -5.50212 0
M  V30 481 H 41.0608 -0.597109 -2.03834 0
M  V30 482 H 43.3238 -0.205925 -0.925364 0
M  V30 483 H 43.0298 -0.175658 -3.51261 0
M  V30 484 H 42.9038 1.57255 -3.42857 0
M  V30 485 H 45.2908 1.65903 -2.4405 0
M  V30 486 H 45.3718 -0.104762 -2.55585 0
M  V30 487 H 45.0158 0.0661971 -5.07857 0
M  V30 488 H 44.9458 1.84045 -4.93391 0
M  V30 489 H 47.4368 0.935064 -3.66149 0
M  V30 490 H 47.7498 1.30008 -7.61786 0
M  V30 491 H 46.0948 1.17605 -6.84977 0
M  V30 492 H 49.2858 1.07643 -4.55555 0
M  V30 493 H 49.4588 1.24311 -6.35965 0
M  V30 494 N 42.8649 1.48995 0.513639 0
M  V30 495 C 44.1109 1.58076 1.27042 0
M  V30 496 C 44.4439 0.261026 1.92438 0
M  V30 497 O 43.7189 -0.734393 1.80103 0
M  V30 498 C 44.0019 2.73091 2.34719 0
M  V30 499 C 43.8549 4.14821 1.73907 0
M  V30 500 C 45.1739 2.83796 3.36375 0
M  V30 501 H 42.2929 0.575391 0.460536 0
M  V30 502 H 44.9349 1.81232 0.570516 0
M  V30 503 H 43.0849 2.53479 2.94416 0
M  V30 504 H 44.7569 4.45917 1.18135 0
M  V30 505 H 42.9999 4.21058 1.0437 0
M  V30 506 H 43.6709 4.91147 2.51949 0
M  V30 507 H 46.1469 3.01611 2.86653 0
M  V30 508 H 45.0229 3.65971 4.09093 0
M  V30 509 H 45.2839 1.92624 3.9793 0
M  V30 510 N 44.343 -0.763751 1.37857 0
M  V30 511 C 45.253 -1.90817 1.36478 0
M  V30 512 C 46.269 -1.71997 0.263248 0
M  V30 513 O 47.445 -1.95095 0.499979 0
M  V30 514 C 44.51 -3.2605 1.17864 0
M  V30 515 C 43.571 -3.57467 2.3773 0
M  V30 516 C 42.804 -4.86249 2.19995 0
M  V30 517 O 43.027 -5.57884 1.18836 0
M  V30 518 O 41.961 -5.16911 3.08361 0
M  V30 519 H 45.787 -1.94933 2.32884 0
M  V30 520 H 43.372 -0.907619 1.1867 0
M  V30 521 H 45.254 -4.06924 1.09504 0
M  V30 522 H 43.929 -3.22769 0.245372 0
M  V30 523 H 42.836 -2.76796 2.51664 0
M  V30 524 H 44.169 -3.655 3.29652 0
M  V30 525 N 45.8211 -1.22559 -0.990812 0
M  V30 526 C 47.0671 -1.05297 -1.73322 0
M  V30 527 C 47.4001 0.410655 -1.89808 0
M  V30 528 O 46.6751 1.30439 -1.44277 0
M  V30 529 C 46.9581 -1.76713 -3.13759 0
M  V30 530 C 46.8111 -3.30684 -3.04907 0
M  V30 531 C 48.1301 -1.52121 -4.12974 0
M  V30 532 H 45.2491 -0.38392 -0.629106 0
M  V30 533 H 47.8911 -1.50926 -1.15418 0
M  V30 534 H 46.0411 -1.37924 -3.63193 0
M  V30 535 H 47.7131 -3.7893 -2.63077 0
M  V30 536 H 45.9561 -3.60253 -2.41661 0
M  V30 537 H 46.6271 -3.75833 -4.04294 0
M  V30 538 H 49.1031 -1.85819 -3.72304 0
M  V30 539 H 47.9791 -2.04582 -5.0935 0
M  V30 540 H 48.2401 -0.454257 -4.3976 0
M  V30 541 N 47.2992 1.18797 -1.03562 0
M  V30 542 C 48.2292 2.24472 -0.643019 0
M  V30 543 C 49.2102 1.66433 0.351283 0
M  V30 544 O 50.3952 1.92803 0.232505 0
M  V30 545 C 47.5252 3.473 4.24935e-05 0
M  V30 546 C 46.4792 4.18055 -0.917257 0
M  V30 547 C 45.8052 5.34519 -0.138941 0
M  V30 548 C 47.1052 4.72109 -2.23407 0
M  V30 549 H 48.7992 2.57566 -1.52643 0
M  V30 550 H 46.3452 1.23806 -0.735394 0
M  V30 551 H 48.2982 4.20426 0.286383 0
M  V30 552 H 47.0222 3.13424 0.918299 0
M  V30 553 H 45.6812 3.46821 -1.1879 0
M  V30 554 H 45.3292 4.96891 0.781562 0
M  V30 555 H 45.0292 5.82794 -0.750005 0
M  V30 556 H 46.5532 6.10438 0.1405 0
M  V30 557 H 47.9672 5.36955 -2.00879 0
M  V30 558 H 46.3642 5.30897 -2.79765 0
M  V30 559 H 47.4342 3.89807 -2.88407 0
M  V30 560 N 48.7773 0.814389 1.34928 0
M  V30 561 C 50.0253 0.397636 1.9815 0
M  V30 562 C 50.3463 -1.04069 1.64908 0
M  V30 563 O 49.6163 -1.72121 0.93548 0
M  V30 564 H 48.1963 0.144043 0.732981 0
M  V30 565 H 50.8583 1.04195 1.6471 0
M  V30 566 H 49.9543 0.509688 3.0791 0
M  V30 567 N 50.2554 -1.46986 0.568584 0
M  V30 568 C 51.1654 -2.33942 -0.17555 0
M  V30 569 C 52.1814 -1.48891 -0.90041 0
M  V30 570 O 53.3574 -1.81794 -0.86676 0
M  V30 571 C 50.4224 -3.25811 -1.18524 0
M  V30 572 C 49.4834 -4.26757 -0.466582 0
M  V30 573 C 48.7164 -5.14236 -1.42817 0
M  V30 574 O 48.9394 -5.04379 -2.66379 0
M  V30 575 O 47.8734 -5.94412 -0.946453 0
M  V30 576 H 51.6994 -2.98896 0.538036 0
M  V30 577 H 49.2844 -1.4573 0.329097 0
M  V30 578 H 51.1664 -3.82527 -1.76779 0
M  V30 579 H 49.8414 -2.63471 -1.88055 0
M  V30 580 H 48.7484 -3.73769 0.157451 0
M  V30 581 H 50.0814 -4.91843 0.187485 0
M  V30 582 N 51.7335 -0.305618 -1.54608 0
M  V30 583 C 52.9825 0.303098 -1.9941 0
M  V30 584 C 53.2955 1.54648 -1.19764 0
M  V30 585 O 54.5015 2.23007 -1.54855 0
M  V30 586 C 52.9575 0.590588 -3.55021 0
M  V30 587 C 52.5655 -0.634719 -4.43481 0
M  V30 588 C 54.3095 1.16025 -4.08336 0
M  V30 589 C 52.2165 -0.320126 -5.90533 0
M  V30 590 H 51.1465 0.117031 -0.744862 0
M  V30 591 H 53.7975 -0.415045 -1.78745 0
M  V30 592 H 52.1795 1.36845 -3.71604 0
M  V30 593 H 53.3535 -1.41079 -4.38672 0
M  V30 594 H 51.6685 -1.12333 -4.00962 0
M  V30 595 H 54.2655 1.40994 -5.15776 0
M  V30 596 H 54.6085 2.10397 -3.5922 0
M  V30 597 H 55.1415 0.443985 -3.95315 0
M  V30 598 H 51.8805 -1.23254 -6.43808 0
M  V30 599 H 51.4005 0.418579 -5.98338 0
M  V30 600 H 53.0795 0.0766241 -6.46955 0
M  V30 601 N 53.2116 1.57565 -0.0334293 0
M  V30 602 C 54.4586 1.91978 0.644272 0
M  V30 603 C 54.7866 0.910231 1.71887 0
M  V30 604 O 54.0416 -0.0801961 1.95536 0
M  V30 605 C 54.3406 3.33112 1.29504 0
M  V30 606 C 54.0066 4.49537 0.350388 0
M  V30 607 C 52.6686 4.81115 0.0903974 0
M  V30 608 C 55.0206 5.20347 -0.298032 0
M  V30 609 C 52.3486 5.8086 -0.825746 0
M  V30 610 C 54.7006 6.2107 -1.20226 0
M  V30 611 C 53.3646 6.51088 -1.4711 0
M  V30 612 H 52.6346 0.702496 0.235756 0
M  V30 613 H 55.2816 1.91259 -0.0961176 0
M  V30 614 H 53.5866 3.30113 2.11028 0
M  V30 615 H 55.2836 3.57011 1.82603 0
M  V30 616 H 51.8736 4.24883 0.563205 0
M  V30 617 H 56.0576 4.96178 -0.110234 0
M  V30 618 H 51.3136 6.02461 -1.04169 0
M  V30 619 H 55.4876 6.75057 -1.71086 0
M  V30 620 H 53.1146 7.28193 -2.18264 0
M  V30 621 N 54.6897 -0.239769 1.55765 0
M  V30 622 C 55.6367 -1.29696 1.90913 0
M  V30 623 C 56.6067 -1.47478 0.764164 0
M  V30 624 O 57.7917 -1.61345 1.01845 0
M  V30 625 C 54.9317 -2.64598 2.21544 0
M  V30 626 C 54.0447 -2.54765 3.48882 0
M  V30 627 C 53.1797 -3.82069 3.69049 0
M  V30 628 C 52.2187 -3.66883 4.89963 0
M  V30 629 N 51.3557 -4.86094 5.06614 0
M  V30 630 H 56.1957 -0.990224 2.81067 0
M  V30 631 H 53.7327 -0.477684 1.39128 0
M  V30 632 H 55.6907 -3.43132 2.3731 0
M  V30 633 H 54.3207 -2.93405 1.34585 0
M  V30 634 H 53.3727 -1.67763 3.41409 0
M  V30 635 H 54.6847 -2.39457 4.37563 0
M  V30 636 H 53.8387 -4.69046 3.84812 0
M  V30 637 H 52.5777 -4.00282 2.78614 0
M  V30 638 H 51.5827 -2.78289 4.74168 0
M  V30 639 H 52.8077 -3.50157 5.81865 0
M  V30 640 H 50.7537 -5.04655 4.19117 0
M  V30 641 H 50.6707 -4.73443 5.89396 0
M  V30 642 H 51.9387 -5.74549 5.26795 0
M  V30 643 N 56.1678 -1.49265 -0.50573 0
M  V30 644 C 57.1158 -1.66065 -1.62866 0
M  V30 645 C 58.1098 -0.526636 -1.61006 0
M  V30 646 O 59.3158 -0.706126 -1.65571 0
M  V30 647 H 55.6908 -0.52356 -0.539805 0
M  V30 648 H 57.6618 -2.60329 -1.45848 0
M  V30 649 C 56.4108 -1.74008 -3.01026 0
M  V30 650 H 55.7338 -2.6064 -3.03161 0
M  V30 651 H 57.1738 -1.89798 -3.79147 0
M  V30 652 C 55.6328 -0.483868 -3.33407 0
M  V30 653 O 56.1628 0.392548 -3.99777 0
M  V30 654 N 54.3688 -0.348236 -2.88506 0
M  V30 655 H 53.9158 -1.06242 -2.34671 0
M  V30 656 H 53.8738 0.491204 -3.10539 0
M  V30 657 N 57.6459 0.756429 -1.3826 0
M  V30 658 C 58.8709 1.55077 -1.37717 0
M  V30 659 C 59.2959 1.88073 0.03164 0
M  V30 660 O 58.6539 1.50364 1.01293 0
M  V30 661 C 58.7019 2.8283 -2.23695 0
M  V30 662 O 57.8059 3.77862 -1.6521 0
M  V30 663 H 57.1469 0.469152 -0.469885 0
M  V30 664 H 59.6769 0.935019 -1.81985 0
M  V30 665 H 59.6869 3.31783 -2.37453 0
M  V30 666 H 58.3619 2.58144 -3.2609 0
M  V30 667 H 56.9389 3.36555 -1.60578 0
M  V30 668 N 59.124 1.23083 0.984299 0
M  V30 669 C 60.056 0.96636 2.07832 0
M  V30 670 C 61.069 -0.0582135 1.62696 0
M  V30 671 O 62.258 0.176843 1.77622 0
M  V30 672 C 59.358 0.433397 3.36117 0
M  V30 673 C 58.531 1.51722 4.10243 0
M  V30 674 C 57.59 0.989821 5.16807 0
M  V30 675 O 56.616 1.67794 5.43906 0
M  V30 676 N 57.818 -0.184367 5.80207 0
M  V30 677 H 60.583 1.90824 2.31098 0
M  V30 678 H 58.144 1.13888 1.1507 0
M  V30 679 H 60.136 0.065699 4.04647 0
M  V30 680 H 58.706 -0.413806 3.09849 0
M  V30 681 H 57.926 2.05786 3.36223 0
M  V30 682 H 59.214 2.24619 4.56534 0
M  V30 683 H 58.612 -0.760062 5.60571 0
M  V30 684 H 57.169 -0.493366 6.4993 0
M  V30 685 N 60.6021 -1.18246 1.0419 0
M  V30 686 C 61.8481 -1.88536 0.747122 0
M  V30 687 C 62.1811 -1.80223 -0.723409 0
M  V30 688 O 61.4561 -1.20337 -1.52804 0
M  V30 689 C 61.7391 -3.38968 1.21544 0
M  V30 690 C 61.5921 -3.56084 2.74816 0
M  V30 691 C 62.9111 -4.32648 0.806482 0
M  V30 692 H 60.0301 -0.684619 0.272883 0
M  V30 693 H 62.6721 -1.39113 1.29413 0
M  V30 694 H 60.8221 -3.8119 0.750081 0
M  V30 695 H 62.4941 -3.22946 3.29399 0
M  V30 696 H 60.7371 -2.98699 3.14582 0
M  V30 697 H 61.4081 -4.61639 3.02644 0
M  V30 698 H 63.8841 -3.98211 1.20695 0
M  V30 699 H 62.7601 -5.36462 1.1619 0
M  V30 700 H 63.0211 -4.41146 -0.29029 0
M  V30 701 N 62.0802 -0.821533 -1.34494 0
M  V30 702 C 63.4912 -0.467956 -1.8074 0
M  V30 703 C 63.8422 1.01151 -1.68116 0
M  V30 704 O 62.9672 1.78707 -1.22036 0
M  V30 705 C 63.5622 -0.842627 -3.28154 0
M  V30 706 C 62.1212 -0.541439 -3.72485 0
M  V30 707 C 61.2682 -1.06028 -2.56229 0
M  V30 708 H 64.2192 -1.01183 -1.22261 0
M  V30 709 H 64.2402 -0.145876 -3.8022 0
M  V30 710 H 63.7522 -1.91945 -3.37311 0
M  V30 711 H 61.8532 0.526034 -3.68868 0
M  V30 712 H 61.9662 -1.08453 -4.66663 0
M  V30 713 H 60.3302 -0.481892 -2.501 0
M  V30 714 H 61.1132 -2.14352 -2.68157 0
M  V30 715 N 63.5583 1.46682 -0.576371 0
M  V30 716 C 64.8043 2.02712 -0.0596221 0
M  V30 717 C 65.1373 1.44765 1.29448 0
M  V30 718 O 64.4123 0.610355 1.84675 0
M  V30 719 C 64.6953 3.60098 0.0129503 0
M  V30 720 C 64.5483 4.28441 -1.3696 0
M  V30 721 C 65.8673 4.34224 0.71678 0
M  V30 722 H 62.9863 0.736637 -0.0231407 0
M  V30 723 H 65.6283 1.74898 -0.742351 0
M  V30 724 H 63.7783 3.83926 0.594378 0
M  V30 725 H 65.4503 4.15896 -1.9957 0
M  V30 726 H 63.6933 3.8805 -1.93907 0
M  V30 727 H 64.3643 5.3716 -1.27135 0
M  V30 728 H 66.8403 4.15503 0.222908 0
M  V30 729 H 65.7163 5.43936 0.73657 0
M  V30 730 H 65.9773 4.04823 1.77682 0
M  V30 731 N 65.0364 0.313813 1.54444 0
M  V30 732 C 65.9684 -0.590425 2.21465 0
M  V30 733 C 66.9814 -1.08753 1.21147 0
M  V30 734 O 68.1704 -1.00278 1.4767 0
M  V30 735 C 65.2704 -1.82179 2.85769 0
M  V30 736 C 64.4434 -1.46502 4.12136 0
M  V30 737 C 63.5024 -2.55288 4.60124 0
M  V30 738 O 62.5284 -2.19842 5.25032 0
M  V30 739 N 63.7304 -3.86053 4.33525 0
M  V30 740 H 66.4954 -0.0166033 2.99695 0
M  V30 741 H 64.0564 0.136578 1.61323 0
M  V30 742 H 66.0484 -2.54328 3.14801 0
M  V30 743 H 64.6184 -2.30369 2.11303 0
M  V30 744 H 63.8384 -0.575595 3.89975 0
M  V30 745 H 65.1264 -1.20221 4.94393 0
M  V30 746 H 64.5244 -4.17654 3.81552 0
M  V30 747 H 63.0814 -4.54461 4.67235 0
M  V30 748 N 66.5145 -1.57545 0.0417849 0
M  V30 749 C 67.7395 -1.97035 -0.647455 0
M  V30 750 C 68.1645 -0.918775 -1.64135 0
M  V30 751 O 67.5225 0.119006 -1.80909 0
M  V30 752 C 67.5705 -3.35609 -1.31905 0
M  V30 753 O 66.6745 -3.3287 -2.43457 0
M  V30 754 H 66.0155 -0.64211 -0.169086 0
M  V30 755 H 68.5455 -2.04318 0.107399 0
M  V30 756 H 68.5555 -3.72126 -1.67291 0
M  V30 757 H 67.2305 -4.11685 -0.590586 0
M  V30 758 H 65.8075 -3.08087 -2.10088 0
M  V30 759 N 67.9926 0.231505 -1.5589 0
M  V30 760 C 69.2176 0.978689 -1.82856 0
M  V30 761 C 69.6426 1.77559 -0.620846 0
M  V30 762 O 69.0006 1.76119 0.430305 0
M  V30 763 C 69.0486 1.87997 -3.07716 0
M  V30 764 O 68.1526 2.97393 -2.85712 0
M  V30 765 H 67.4936 0.277663 -0.603158 0
M  V30 766 H 70.0236 0.24783 -2.03093 0
M  V30 767 H 70.0336 2.2917 -3.37558 0
M  V30 768 H 68.7086 1.29417 -3.95252 0
M  V30 769 H 67.2856 2.60238 -2.67078 0
M  V30 770 N 69.4707 1.49531 0.497807 0
M  V30 771 C 70.4037 1.61043 1.6168 0
M  V30 772 C 71.3817 0.459386 1.55976 0
M  V30 773 O 72.5657 0.675358 1.75986 0
M  V30 774 C 69.6927 1.56833 3.00202 0
M  V30 775 C 68.7387 2.77173 3.24156 0
M  V30 776 S 69.5717 4.38808 3.06933 0
M  V30 777 C 70.7277 4.37248 4.47845 0
M  V30 778 H 70.9607 2.55702 1.51671 0
M  V30 779 H 68.4937 1.38462 0.683201 0
M  V30 780 H 70.4517 1.55089 3.80076 0
M  V30 781 H 69.1127 0.634561 3.07623 0
M  V30 782 H 68.3057 2.70456 4.25288 0
M  V30 783 H 67.9077 2.76346 2.5201 0
M  V30 784 H 70.1997 4.09164 5.39992 0
M  V30 785 H 71.1427 5.38668 4.59612 0
M  V30 786 H 71.5507 3.67286 4.28674 0
M  V30 787 N 70.9488 -0.749086 1.3866 0
M  V30 788 C 72.1738 -1.54344 1.38538 0
M  V30 789 C 72.5988 -1.88088 -0.0216655 0
M  V30 790 O 71.9568 -1.50899 -1.00494 0
M  V30 791 C 72.0048 -2.8164 2.25192 0
M  V30 792 O 71.1088 -3.7698 1.67212 0
M  V30 793 H 70.4498 -0.466654 0.472367 0
M  V30 794 H 72.9798 -0.925355 1.82478 0
M  V30 795 H 72.9898 -3.30519 2.3921 0
M  V30 796 H 71.6648 -2.56411 3.27454 0
M  V30 797 H 70.2418 -3.35699 1.6236 0
M  V30 798 N 72.4269 -1.23603 -0.977757 0
M  V30 799 C 73.6739 -1.06971 -1.71941 0
M  V30 800 C 74.0019 0.393009 -1.90488 0
M  V30 801 O 73.2569 1.30719 -1.4564 0
M  V30 802 C 73.5559 -1.7433 -3.11999 0
M  V30 803 C 73.2219 -3.24252 -3.13323 0
M  V30 804 C 71.8839 -3.65156 -3.13392 0
M  V30 805 C 74.2359 -4.20141 -3.08433 0
M  V30 806 C 71.5639 -5.00403 -3.0629 0
M  V30 807 C 73.9159 -5.55384 -3.02873 0
M  V30 808 C 72.5799 -5.95647 -3.01265 0
M  V30 809 H 71.8499 -0.391433 -0.629175 0
M  V30 810 H 74.4969 -1.53572 -1.14403 0
M  V30 811 H 72.8019 -1.20096 -3.7294 0
M  V30 812 H 74.4989 -1.58936 -3.68158 0
M  V30 813 H 71.0889 -2.91692 -3.14029 0
M  V30 814 H 75.2729 -3.89547 -3.07517 0
M  V30 815 H 70.5289 -5.3081 -3.03399 0
M  V30 816 H 74.7029 -6.29398 -2.98046 0
M  V30 817 H 72.3299 -7.0041 -2.95516 0
M  V30 818 N 73.905 1.17692 -1.04816 0
M  V30 819 C 75.13 1.92327 -0.776207 0
M  V30 820 C 75.555 1.76082 0.661581 0
M  V30 821 O 74.913 1.076 1.45917 0
M  V30 822 C 74.961 3.41539 -1.15687 0
M  V30 823 O 74.065 4.11402 -0.286775 0
M  V30 824 H 73.406 0.599735 -0.284981 0
M  V30 825 H 75.936 1.49201 -1.4 0
M  V30 826 H 75.946 3.92269 -1.12202 0
M  V30 827 H 74.621 3.52684 -2.20425 0
M  V30 828 H 73.198 3.70939 -0.381903 0
M  V30 829 N 75.3831 0.828654 1.34056 0
M  V30 830 C 76.2931 0.256725 2.33191 0
M  V30 831 C 77.3091 -0.611898 1.62886 0
M  V30 832 O 78.4851 -0.51844 1.94613 0
M  V30 833 C 75.5501 -0.567238 3.42028 0
M  V30 834 C 74.6111 0.324458 4.28072 0
M  V30 835 C 73.8441 -0.460274 5.31712 0
M  V30 836 O 74.0671 -1.693 5.44696 0
M  V30 837 O 73.0011 0.160391 6.01686 0
M  V30 838 H 76.8271 1.07739 2.83947 0
M  V30 839 H 74.4121 0.59093 1.37217 0
M  V30 840 H 76.2941 -1.03582 4.08471 0
M  V30 841 H 74.9691 -1.36513 2.93506 0
M  V30 842 H 73.8761 0.840659 3.64532 0
M  V30 843 H 75.2091 1.08685 4.8005 0
M  V30 844 N 76.8612 -1.46375 0.584142 0
M  V30 845 C 77.7912 -2.33103 -0.136037 0
M  V30 846 C 78.7722 -1.45431 -0.882255 0
M  V30 847 O 79.9572 -1.74246 -0.857434 0
M  V30 848 C 77.0872 -3.27731 -1.14933 0
M  V30 849 C 76.0412 -4.24855 -0.517862 0
M  V30 850 C 75.3672 -5.09001 -1.63773 0
M  V30 851 C 76.6672 -5.19439 0.545886 0
M  V30 852 H 78.3612 -2.93568 0.588086 0
M  V30 853 H 75.9072 -1.41166 0.284259 0
M  V30 854 H 77.8602 -3.87261 -1.66153 0
M  V30 855 H 76.5842 -2.65377 -1.90375 0
M  V30 856 H 75.2432 -3.6659 -0.0267361 0
M  V30 857 H 74.8912 -4.43031 -2.38185 0
M  V30 858 H 74.5912 -5.74777 -1.22085 0
M  V30 859 H 76.1152 -5.71396 -2.15266 0
M  V30 860 H 77.5292 -5.73177 0.118704 0
M  V30 861 H 75.9262 -5.93566 0.88317 0
M  V30 862 H 76.9962 -4.63285 1.43162 0
M  V30 863 N 78.3393 -0.321999 -1.54275 0
M  V30 864 C 79.5673 0.283052 -2.04955 0
M  V30 865 C 79.9823 1.45904 -1.19823 0
M  V30 866 O 79.3393 1.81063 -0.228545 0
M  V30 867 C 79.3903 0.719028 -3.54277 0
M  V30 868 O 79.1113 -0.410175 -4.36176 0
M  V30 869 C 80.6123 1.38705 -4.21041 0
M  V30 870 H 77.8323 0.0584616 -0.668448 0
M  V30 871 H 80.3763 -0.467734 -1.99079 0
M  V30 872 H 78.5313 1.41979 -3.60445 0
M  V30 873 H 78.9453 -0.0669416 -5.24457 0
M  V30 874 H 80.4193 1.64306 -5.2698 0
M  V30 875 H 80.8963 2.33385 -3.72059 0
M  V30 876 H 81.5023 0.728906 -4.19007 0
M  V30 877 N 79.8174 1.5752 -0.0501392 0
M  V30 878 C 80.7494 2.08413 0.95376 0
M  V30 879 C 81.7624 1.01175 1.27544 0
M  V30 880 O 82.9514 1.28744 1.23641 0
M  V30 881 C 80.0514 2.51138 2.27559 0
M  V30 882 C 79.2244 3.817 2.13598 0
M  V30 883 C 78.2834 4.10749 3.28895 0
M  V30 884 O 77.3094 4.80685 3.04845 0
M  V30 885 N 78.5114 3.62579 4.5334 0
M  V30 886 H 81.2764 2.95165 0.519383 0
M  V30 887 H 78.8374 1.61327 0.136127 0
M  V30 888 H 80.8294 2.67648 3.03557 0
M  V30 889 H 79.3994 1.6964 2.62567 0
M  V30 890 H 78.6194 3.74782 1.22197 0
M  V30 891 H 79.9074 4.67201 2.01496 0
M  V30 892 H 79.3054 3.06039 4.75769 0
M  V30 893 H 77.8624 3.84329 5.26436 0
M  V30 894 N 81.2955 -0.223234 1.56011 0
M  V30 895 C 82.5415 -0.949279 1.79211 0
M  V30 896 C 82.8745 -1.84054 0.619494 0
M  V30 897 O 82.1495 -1.90726 -0.381317 0
M  V30 898 C 82.4325 -1.78965 3.12479 0
M  V30 899 C 82.2855 -0.924997 4.40186 0
M  V30 900 C 83.6045 -2.76774 3.42175 0
M  V30 901 H 80.7235 -0.343676 0.651963 0
M  V30 902 H 83.3655 -0.218253 1.88742 0
M  V30 903 H 81.5155 -2.41291 3.04485 0
M  V30 904 H 83.1875 -0.318615 4.60198 0
M  V30 905 H 81.4305 -0.230344 4.33188 0
M  V30 906 H 82.1015 -1.54735 5.29869 0
M  V30 907 H 84.5775 -2.24584 3.50287 0
M  V30 908 H 83.4535 -3.32678 4.36597 0
M  V30 909 H 83.7145 -3.54429 2.64258 0
M  V30 910 N 82.7736 -1.49793 -0.48987 0
M  V30 911 C 83.6836 -1.70036 -1.61632 0
M  V30 912 C 84.6996 -0.583102 -1.63939 0
M  V30 913 O 85.8756 -0.859169 -1.82154 0
M  V30 914 C 82.9406 -1.77277 -2.97949 0
M  V30 915 C 82.0016 -3.00918 -3.06181 0
M  V30 916 C 81.2346 -3.07804 -4.35996 0
M  V30 917 O 81.4576 -2.21982 -5.25433 0
M  V30 918 O 80.3916 -4.00369 -4.49431 0
M  V30 919 H 84.2176 -2.65486 -1.47482 0
M  V30 920 H 81.8026 -1.33666 -0.667362 0
M  V30 921 H 83.6846 -1.84329 -3.78947 0
M  V30 922 H 82.3596 -0.850076 -3.12339 0
M  V30 923 H 81.2666 -2.99377 -2.2433 0
M  V30 924 H 82.5996 -3.92704 -2.96723 0
M  V30 925 N 84.2517 0.741722 -1.39055 0
M  V30 926 C 85.1617 1.88621 -1.39496 0
M  V30 927 C 86.1777 1.71557 -0.290578 0
M  V30 928 O 87.3537 1.94275 -0.530954 0
M  V30 929 C 84.4187 3.24134 -1.23037 0
M  V30 930 C 83.4797 3.5364 -2.43387 0
M  V30 931 C 82.7127 4.82687 -2.27703 0
M  V30 932 O 82.9357 5.55922 -1.27696 0
M  V30 933 O 81.8697 5.1194 -3.16545 0
M  V30 934 H 85.6957 1.91203 -2.35956 0
M  V30 935 H 83.2807 0.888625 -1.20099 0
M  V30 936 H 85.1627 4.0513 -1.15964 0
M  V30 937 H 83.8377 3.22337 -0.296691 0
M  V30 938 H 82.7447 2.72758 -2.56035 0
M  V30 939 H 84.0777 3.60209 -3.35425 0
M  V30 940 N 85.7298 1.2412 0.971189 0
M  V30 941 C 86.9548 1.10667 1.75407 0
M  V30 942 C 87.3798 -0.337048 1.85056 0
M  V30 943 O 86.7378 -1.24396 1.31892 0
M  V30 944 C 86.7858 1.74726 3.15441 0
M  V30 945 O 85.8898 1.01566 3.99697 0
M  V30 946 H 85.2308 0.387341 0.539317 0
M  V30 947 H 87.7608 1.64358 1.2185 0
M  V30 948 H 87.7708 1.80341 3.6598 0
M  V30 949 H 86.4458 2.79773 3.07734 0
M  V30 950 H 85.0228 1.03713 3.58187 0
M  V30 951 N 87.2079 -1.17134 1.05439 0
M  V30 952 C 88.1709 -2.19439 0.661764 0
M  V30 953 C 89.1709 -1.58199 -0.288042 0
M  V30 954 O 90.3609 -1.74053 -0.0715803 0
M  V30 955 C 87.4929 -3.40889 -0.0276209 0
M  V30 956 H 88.6859 -2.55688 1.56728 0
M  V30 957 H 86.2389 -1.31259 0.848567 0
M  V30 958 H 86.9739 -3.10187 -0.94629 0
M  V30 959 H 86.7589 -3.86586 0.655238 0
M  V30 960 H 88.2489 -4.16603 -0.288342 0
M  V30 961 N 88.686 -0.835752 -1.33615 0
M  V30 962 C 89.616 -0.281739 -2.31794 0
M  V30 963 C 90.597 0.608833 -1.58831 0
M  V30 964 O 91.782 0.533035 -1.86741 0
M  V30 965 C 88.912 0.546612 -3.42971 0
M  V30 966 C 87.866 -0.247904 -4.27281 0
M  V30 967 C 87.192 0.704001 -5.30045 0
M  V30 968 C 88.492 -1.46324 -5.01385 0
M  V30 969 H 90.186 -1.10206 -2.78379 0
M  V30 970 H 87.732 -0.531388 -1.33837 0
M  V30 971 H 89.685 0.944467 -4.1068 0
M  V30 972 H 88.409 1.40011 -2.95067 0
M  V30 973 H 87.068 -0.627281 -3.61194 0
M  V30 974 H 86.716 1.55381 -4.78399 0
M  V30 975 H 86.416 0.176524 -5.87335 0
M  V30 976 H 87.94 1.09944 -6.0062 0
M  V30 977 H 89.354 -1.13871 -5.61877 0
M  V30 978 H 87.751 -1.92728 -5.6831 0
M  V30 979 H 88.821 -2.23467 -4.30338 0
M  V30 980 N 90.1641 1.46063 -0.591896 0
M  V30 981 C 91.4041 2.04228 -0.0838014 0
M  V30 982 C 91.7681 1.45231 1.25587 0
M  V30 983 O 92.9691 1.94653 1.85375 0
M  V30 984 C 91.2401 3.57389 -0.0286282 0
M  V30 985 S 92.7991 4.3678 0.420557 0
M  V30 986 H 89.6171 0.709762 -0.0419319 0
M  V30 987 H 92.2191 1.78983 -0.786465 0
M  V30 988 H 90.9231 3.97843 -1.00743 0
M  V30 989 H 90.4541 3.87185 0.69652 0
M  V30 990 H 92.4691 4.67131 1.67341 0
M  V30 991 N 91.6422 0.330177 1.54103 0
M  V30 992 C 92.5722 -0.525353 2.27513 0
M  V30 993 C 93.5532 -1.11383 1.2856 0
M  V30 994 O 94.7382 -1.13773 1.57383 0
M  V30 995 C 91.8682 -1.6831 3.03791 0
M  V30 996 C 90.8222 -1.2236 4.10137 0
M  V30 997 C 90.1482 -2.46882 4.74293 0
M  V30 998 C 91.4482 -0.333697 5.21233 0
M  V30 999 H 93.1422 0.087013 2.99274 0
M  V30 1000 H 90.6882 0.0432893 1.43935 0
M  V30 1001 H 92.6412 -2.28795 3.5388 0
M  V30 1002 H 91.3652 -2.32216 2.29659 0
M  V30 1003 H 90.0242 -0.64165 3.60941 0
M  V30 1004 H 89.6722 -3.09165 3.96769 0
M  V30 1005 H 89.3722 -2.16825 5.46133 0
M  V30 1006 H 90.8962 -3.08117 5.27159 0
M  V30 1007 H 92.3102 -0.845013 5.67038 0
M  V30 1008 H 90.7072 -0.125612 5.99969 0
M  V30 1009 H 91.7772 0.633724 4.80741 0
M  V30 1010 N 93.1203 -1.57491 0.0584922 0
M  V30 1011 C 94.0303 -2.15448 -0.928414 0
M  V30 1012 C 95.0463 -1.11416 -1.3365 0
M  V30 1013 O 96.2223 -1.4362 -1.41193 0
M  V30 1014 C 93.2873 -2.69393 -2.18239 0
M  V30 1015 C 92.3483 -3.88249 -1.83196 0
M  V30 1016 C 91.5813 -4.39613 -3.02616 0
M  V30 1017 O 91.8043 -3.90023 -4.16219 0
M  V30 1018 O 90.7383 -5.31111 -2.83204 0
M  V30 1019 H 94.5643 -3.00112 -0.465483 0
M  V30 1020 H 92.1493 -1.48499 -0.163826 0
M  V30 1021 H 94.0313 -3.04026 -2.91798 0
M  V30 1022 H 92.7063 -1.87796 -2.63656 0
M  V30 1023 H 91.6133 -3.58492 -1.06931 0
M  V30 1024 H 92.9463 -4.71098 -1.42573 0
M  V30 1025 N 94.5984 0.214957 -1.56127 0
M  V30 1026 C 95.5284 1.2695 -1.95974 0
M  V30 1027 C 96.5094 1.48539 -0.828868 0
M  V30 1028 O 97.6944 1.60611 -1.09168 0
M  V30 1029 C 94.8244 2.61794 -2.28214 0
M  V30 1030 C 93.7784 2.54851 -3.43853 0
M  V30 1031 C 93.1044 3.93785 -3.61715 0
M  V30 1032 C 94.4044 2.09065 -4.78632 0
M  V30 1033 H 96.0984 0.93846 -2.84312 0
M  V30 1034 H 93.6444 0.449996 -1.36788 0
M  V30 1035 H 95.5974 3.35731 -2.54682 0
M  V30 1036 H 94.3214 2.96599 -1.36736 0
M  V30 1037 H 92.9804 1.8337 -3.17444 0
M  V30 1038 H 92.6284 4.25908 -2.67602 0
M  V30 1039 H 92.3284 3.90019 -4.39498 0
M  V30 1040 H 93.8524 4.69374 -3.90539 0
M  V30 1041 H 95.2664 2.7275 -5.04262 0
M  V30 1042 H 93.6634 2.16346 -5.59745 0
M  V30 1043 H 94.7334 1.04315 -4.73547 0
M  V30 1044 N 96.0765 1.50051 0.48192 0
M  V30 1045 C 97.0065 1.71046 1.58951 0
M  V30 1046 C 97.9875 0.559288 1.60642 0
M  V30 1047 O 99.1725 0.797243 1.77081 0
M  V30 1048 C 96.3025 1.79462 2.97339 0
M  V30 1049 C 95.2565 2.94558 3.10515 0
M  V30 1050 C 94.5825 2.88105 4.50444 0
M  V30 1051 C 95.8825 4.35227 2.88747 0
M  V30 1052 H 97.5765 2.6378 1.41635 0
M  V30 1053 H 95.1225 1.26936 0.679942 0
M  V30 1054 H 97.0755 1.92734 3.74742 0
M  V30 1055 H 95.7995 0.833412 3.15788 0
M  V30 1056 H 94.4585 2.80918 2.35543 0
M  V30 1057 H 94.1065 1.89853 4.65795 0
M  V30 1058 H 93.8065 3.65366 4.60197 0
M  V30 1059 H 95.3305 3.03412 5.29881 0
M  V30 1060 H 96.7445 4.49449 3.55905 0
M  V30 1061 H 95.1415 5.13856 3.09955 0
M  V30 1062 H 96.2115 4.48347 1.84696 0
M  V30 1063 N 97.5546 -0.734337 1.39446 0
M  V30 1064 C 98.8006 -1.49505 1.37913 0
M  V30 1065 C 99.1556 -1.92384 -0.0248416 0
M  V30 1066 O 98.4486 -1.6395 -0.991506 0
M  V30 1067 C 98.6426 -2.74711 2.28623 0
M  V30 1068 C 98.4716 -2.44075 3.777 0
M  V30 1069 C 97.2416 -2.36338 4.46623 0
M  V30 1070 C 99.4396 -2.09574 4.69663 0
M  V30 1071 N 97.4216 -1.9818 5.81032 0
M  V30 1072 C 98.7926 -1.81865 5.92727 0
M  V30 1073 C 100.848 -1.96048 4.57678 0
M  V30 1074 C 99.5506 -1.41992 7.05146 0
M  V30 1075 C 101.577 -1.57579 5.7002 0
M  V30 1076 C 100.939 -1.30754 6.92158 0
M  V30 1077 H 97.0376 -0.545896 0.55993 0
M  V30 1078 H 99.6216 -0.853373 1.75002 0
M  V30 1079 H 97.7926 -3.36657 1.93692 0
M  V30 1080 H 99.5246 -3.40916 2.18078 0
M  V30 1081 H 96.2796 -2.53456 4.00071 0
M  V30 1082 H 96.7036 -1.81691 6.52163 0
M  V30 1083 H 101.346 -2.15455 3.63784 0
M  V30 1084 H 99.0636 -1.21327 7.9894 0
M  V30 1085 H 102.65 -1.47718 5.62735 0
M  V30 1086 H 101.53 -1.01432 7.77612 0
M  V30 1087 N 99.0327 -1.24633 -0.964593 0
M  V30 1088 C 100.261 -1.11501 -1.74285 0
M  V30 1089 C 100.676 0.332165 -1.85855 0
M  V30 1090 O 100.033 1.22903 -1.34911 0
M  V30 1091 C 100.084 -1.75258 -3.16175 0
M  V30 1092 O 99.8047 -3.14318 -3.05182 0
M  V30 1093 C 101.306 -1.67776 -4.10324 0
M  V30 1094 H 98.5257 -0.389407 -0.546446 0
M  V30 1095 H 101.07 -1.64801 -1.21083 0
M  V30 1096 H 99.2247 -1.25954 -3.66353 0
M  V30 1097 H 99.6387 -3.4551 -3.94618 0
M  V30 1098 H 101.113 -2.17064 -5.0753 0
M  V30 1099 H 101.59 -0.639584 -4.34518 0
M  V30 1100 H 102.196 -2.16522 -3.66058 0
M  V30 1101 N 100.511 1.16574 -1.06058 0
M  V30 1102 C 101.757 1.87324 -0.777022 0
M  V30 1103 C 102.09 1.81351 0.694645 0
M  V30 1104 O 101.365 1.22753 1.50871 0
M  V30 1105 C 101.648 3.36991 -1.26922 0
M  V30 1106 C 101.501 3.51667 -2.80447 0
M  V30 1107 C 102.82 4.3131 -0.87521 0
M  V30 1108 H 99.9388 0.680191 -0.28374 0
M  V30 1109 H 102.581 1.37036 -1.3161 0
M  V30 1110 H 100.731 3.79949 -0.81063 0
M  V30 1111 H 102.403 3.17664 -3.34495 0
M  V30 1112 H 100.646 2.93656 -3.19294 0
M  V30 1113 H 101.317 4.56766 -3.0995 0
M  V30 1114 H 103.793 3.9624 -1.27014 0
M  V30 1115 H 102.669 5.34545 -1.2471 0
M  V30 1116 H 102.93 4.41552 0.220071 0
M  V30 1117 N 101.989 0.842826 1.3317 0
M  V30 1118 C 102.921 0.236245 2.27979 0
M  V30 1119 C 103.934 -0.585282 1.51915 0
M  V30 1120 O 105.123 -0.411705 1.73687 0
M  V30 1121 C 102.223 -0.685717 3.3189 0
M  V30 1122 C 101.396 0.0973448 4.37292 0
M  V30 1123 C 100.455 -0.748565 5.20848 0
M  V30 1124 O 99.4809 -0.186339 5.68895 0
M  V30 1125 N 100.683 -2.06527 5.42519 0
M  V30 1126 H 103.448 1.05088 2.80672 0
M  V30 1127 H 101.009 0.701667 1.45905 0
M  V30 1128 H 103.001 -1.25669 3.84694 0
M  V30 1129 H 101.571 -1.40105 2.79445 0
M  V30 1130 H 100.791 0.849706 3.84933 0
M  V30 1131 H 102.079 0.635643 5.04814 0
M  V30 1132 H 101.477 -2.54554 5.05192 0
M  V30 1133 H 100.034 -2.58464 5.98364 0
M  V30 1134 N 103.467 -1.45747 0.599634 0
M  V30 1135 C 104.377 -2.34262 -0.125888 0
M  V30 1136 C 105.393 -1.50768 -0.868625 0
M  V30 1137 O 106.569 -1.83592 -0.828003 0
M  V30 1138 C 103.634 -3.28252 -1.11587 0
M  V30 1139 C 102.695 -4.27651 -0.375956 0
M  V30 1140 C 101.928 -5.1715 -1.31877 0
M  V30 1141 O 102.151 -5.09916 -2.55621 0
M  V30 1142 O 101.085 -5.96286 -0.820157 0
M  V30 1143 H 104.911 -2.97688 0.601315 0
M  V30 1144 H 102.496 -1.44999 0.359934 0
M  V30 1145 H 104.378 -3.86191 -1.68626 0
M  V30 1146 H 103.053 -2.67401 -1.82424 0
M  V30 1147 H 101.96 -3.7335 0.236698 0
M  V30 1148 H 103.293 -4.91334 0.29177 0
M  V30 1149 N 104.945 -0.338344 -1.53925 0
M  V30 1150 C 105.855 0.529421 -2.28548 0
M  V30 1151 C 106.871 1.11645 -1.3346 0
M  V30 1152 O 108.047 1.13325 -1.66492 0
M  V30 1153 C 105.112 1.66713 -3.03987 0
M  V30 1154 C 104.173 1.11041 -4.14691 0
M  V30 1155 C 103.406 2.19389 -4.86522 0
M  V30 1156 O 103.629 3.40013 -4.57982 0
M  V30 1157 O 102.563 1.83976 -5.73094 0
M  V30 1158 H 106.389 -0.0770399 -3.03602 0
M  V30 1159 H 103.974 -0.103555 -1.49041 0
M  V30 1160 H 105.856 2.32918 -3.5118 0
M  V30 1161 H 104.531 2.25949 -2.31794 0
M  V30 1162 H 103.438 0.413024 -3.71813 0
M  V30 1163 H 104.771 0.562975 -4.8897 0
M  V30 1164 N 106.423 1.57458 -0.0668435 0
M  V30 1165 C 107.671 1.92919 0.602214 0
M  V30 1166 C 107.992 0.947215 1.70449 0
M  V30 1167 O 107.262 -0.00544117 1.95899 0
M  V30 1168 H 105.842 0.71217 0.22544 0
M  V30 1169 H 108.504 1.94508 -0.123535 0
M  V30 1170 H 107.6 2.94589 1.03073 0
M  V30 1171 N 107.901 -0.206675 1.56239 0
M  V30 1172 C 109.149 -0.927007 1.79586 0
M  V30 1173 C 109.47 -1.8427 0.637929 0
M  V30 1174 O 108.74 -1.92849 -0.344398 0
M  V30 1175 H 107.32 -0.345292 0.662407 0
M  V30 1176 H 109.982 -0.21496 1.93711 0
M  V30 1177 H 109.078 -1.52501 2.72305 0
M  V30 1178 N 109.379 -1.50304 -0.473955 0
M  V30 1179 C 110.607 -1.64902 -1.24959 0
M  V30 1180 C 111.022 -0.331198 -1.85872 0
M  V30 1181 O 110.379 0.68652 -1.69095 0
M  V30 1182 C 110.43 -2.73803 -2.36038 0
M  V30 1183 O 110.151 -4.00477 -1.77624 0
M  V30 1184 C 111.652 -2.99349 -3.26964 0
M  V30 1185 H 108.872 -0.554383 -0.378022 0
M  V30 1186 H 111.416 -1.9651 -0.566054 0
M  V30 1187 H 109.571 -2.44898 -3.00173 0
M  V30 1188 H 109.985 -4.60678 -2.5075 0
M  V30 1189 H 111.459 -3.79217 -4.01121 0
M  V30 1190 H 111.936 -2.10307 -3.85574 0
M  V30 1191 H 112.542 -3.29774 -2.68569 0
M  V30 1192 N 110.857 0.726932 -1.39834 0
M  V30 1193 C 112.268 1.30558 -1.3346 0
M  V30 1194 C 112.619 1.962 -0.00273003 0
M  V30 1195 O 111.744 1.96826 0.899371 0
M  V30 1196 C 112.339 2.37404 -2.41713 0
M  V30 1197 C 110.898 2.90921 -2.38835 0
M  V30 1198 C 110.045 1.64578 -2.2318 0
M  V30 1199 H 112.996 0.523862 -1.49804 0
M  V30 1200 H 113.017 3.17984 -2.08966 0
M  V30 1201 H 112.529 1.89599 -3.38635 0
M  V30 1202 H 110.63 3.42985 -1.45575 0
M  V30 1203 H 110.743 3.43487 -3.33997 0
M  V30 1204 H 109.107 1.89219 -1.70494 0
M  V30 1205 H 109.89 1.18814 -3.22084 0
M  V30 1206 N 112.336 1.25143 0.95797 0
M  V30 1207 C 113.246 1.06968 2.08794 0
M  V30 1208 C 114.262 0.00773911 1.73998 0
M  V30 1209 O 115.438 0.207972 2.00323 0
M  V30 1210 C 112.503 0.68691 3.39827 0
M  V30 1211 C 111.564 1.82641 3.88511 0
M  V30 1212 C 110.797 1.46181 5.1329 0
M  V30 1213 O 111.02 0.355971 5.69288 0
M  V30 1214 O 109.954 2.29085 5.566 0
M  V30 1215 H 113.78 2.01723 2.27027 0
M  V30 1216 H 111.365 1.04051 1.07209 0
M  V30 1217 H 113.247 0.485417 4.18595 0
M  V30 1218 H 111.922 -0.231417 3.22872 0
M  V30 1219 H 110.829 2.08274 3.10762 0
M  V30 1220 H 112.162 2.72386 4.09959 0
M  V30 1221 N 113.814 -1.1601 1.06675 0
M  V30 1222 C 114.746 -2.20115 0.638921 0
M  V30 1223 C 115.759 -1.59916 -0.305057 0
M  V30 1224 O 116.948 -1.78245 -0.0954446 0
M  V30 1225 C 114.048 -3.38798 -0.0830083 0
M  V30 1226 C 113.221 -4.2855 0.875426 0
M  V30 1227 C 112.28 -5.25849 0.192042 0
M  V30 1228 O 111.306 -5.63102 0.830921 0
M  V30 1229 N 112.508 -5.70648 -1.06493 0
M  V30 1230 H 115.273 -2.57439 1.53444 0
M  V30 1231 H 112.834 -1.31057 0.950557 0
M  V30 1232 H 114.826 -4.00936 -0.550685 0
M  V30 1233 H 113.396 -2.99947 -0.880386 0
M  V30 1234 H 112.616 -3.63617 1.52238 0
M  V30 1235 H 113.904 -4.85393 1.52548 0
M  V30 1236 H 113.302 -5.42482 -1.60405 0
M  V30 1237 H 111.859 -6.34859 -1.47641 0
M  V30 1238 N 115.292 -0.849877 -1.32721 0
M  V30 1239 C 116.54 -0.450032 -1.97026 0
M  V30 1240 C 116.861 0.996604 -1.67609 0
M  V30 1241 O 116.131 1.6958 -0.980786 0
M  V30 1242 H 114.711 -0.163426 -0.728904 0
M  V30 1243 H 117.373 -1.08526 -1.6189 0
M  V30 1244 H 116.469 -0.591146 -3.0645 0
M  V30 1245 N 116.77 1.45427 -0.607355 0
M  V30 1246 C 118.016 2.0254 -0.102607 0
M  V30 1247 C 118.349 1.47478 1.26348 0
M  V30 1248 O 117.624 0.64939 1.83339 0
M  V30 1249 C 117.907 3.60044 -0.0634347 0
M  V30 1250 C 117.76 4.2544 -1.46017 0
M  V30 1251 C 119.079 4.35646 0.624514 0
M  V30 1252 H 116.198 0.73598 -0.0387607 0
M  V30 1253 H 118.84 1.73284 -0.779282 0
M  V30 1254 H 116.99 3.85101 0.512808 0
M  V30 1255 H 118.662 4.11569 -2.08347 0
M  V30 1256 H 116.905 3.83849 -2.02094 0
M  V30 1257 H 117.576 5.34342 -1.385 0
M  V30 1258 H 120.052 4.15882 0.134723 0
M  V30 1259 H 118.928 5.45376 0.621028 0
M  V30 1260 H 119.189 4.08501 1.69055 0
M  V30 1261 N 118.248 0.346503 1.53744 0
M  V30 1262 C 119.198 -0.524953 2.21874 0
M  V30 1263 C 120.182 -1.06376 1.20718 0
M  V30 1264 O 121.374 -0.996972 1.46251 0
M  V30 1265 C 118.503 -1.6739 2.99726 0
M  V30 1266 C 117.589 -1.14888 4.08242 0
M  V30 1267 N 117.98 -0.345329 5.0462 0
M  V30 1268 C 116.278 -1.4255 4.22606 0
M  V30 1269 C 116.979 -0.0600706 5.81669 0
M  V30 1270 N 115.955 -0.65252 5.39669 0
M  V30 1271 H 119.757 0.0960091 2.93743 0
M  V30 1272 H 117.271 0.15352 1.61673 0
M  V30 1273 H 119.268 -2.3102 3.47038 0
M  V30 1274 H 117.928 -2.29811 2.29384 0
M  V30 1275 H 118.939 0.0138439 5.17898 0
M  V30 1276 H 115.616 -2.05389 3.63486 0
M  V30 1277 H 117.006 0.588321 6.69319 0
M  V30 1278 N 119.726 -1.57421 0.075193 0
M  V30 1279 C 121.142 -1.57099 -0.281444 0
M  V30 1280 C 121.342 -1.08486 -1.69803 0
M  V30 1281 O 120.398 -0.752279 -2.41033 0
M  V30 1282 C 121.711 -3.00571 -0.0880041 0
M  V30 1283 C 123.259 -3.12605 -0.157281 0
M  V30 1284 C 123.734 -4.57999 0.0079207 0
M  V30 1285 N 125.225 -4.63176 -0.0475725 0
M  V30 1286 C 125.96 -5.73373 0.0557876 0
M  V30 1287 N 125.456 -6.92473 0.21286 0
M  V30 1288 N 127.249 -5.621 -0.00152098 0
M  V30 1289 H 119.4 -1.87335 1.00098 0
M  V30 1290 H 121.663 -0.86377 0.390646 0
M  V30 1291 H 121.369 -3.40262 0.889629 0
M  V30 1292 H 121.243 -3.67754 -0.838875 0
M  V30 1293 H 123.63 -2.72798 -1.1254 0
M  V30 1294 H 123.711 -2.48053 0.62475 0
M  V30 1295 H 123.355 -4.98496 0.972824 0
M  V30 1296 H 123.285 -5.20586 -0.793556 0
M  V30 1297 H 125.776 -3.7753 -0.167244 0
M  V30 1298 H 126.089 -7.72279 0.283781 0
M  V30 1299 H 124.434 -6.94556 0.248267 0
M  V30 1300 H 127.625 -4.67938 -0.122958 0
M  V30 1301 H 127.798 -6.47948 0.0824844 0
M  V30 1302 N 121.204 0.198386 -1.56346 0
M  V30 1303 C 122.167 1.22952 -1.93431 0
M  V30 1304 C 123.167 1.38611 -0.815092 0
M  V30 1305 O 124.357 1.36479 -1.08255 0
M  V30 1306 C 121.489 2.59946 -2.20546 0
M  V30 1307 H 122.682 0.912626 -2.85677 0
M  V30 1308 H 120.235 0.43977 -1.49986 0
M  V30 1309 H 120.97 2.96696 -1.30927 0
M  V30 1310 H 120.755 2.49953 -3.02102 0
M  V30 1311 H 122.245 3.3431 -2.50253 0
M  V30 1312 N 122.682 1.50554 0.465978 0
M  V30 1313 C 123.612 1.72722 1.57128 0
M  V30 1314 C 124.593 0.576294 1.6004 0
M  V30 1315 O 125.778 0.81598 1.76225 0
M  V30 1316 C 122.908 1.82605 2.95419 0
M  V30 1317 C 121.862 2.97835 3.07373 0
M  V30 1318 C 121.188 2.92867 4.47363 0
M  V30 1319 C 122.488 4.38265 2.84114 0
M  V30 1320 H 124.182 2.65267 1.38829 0
M  V30 1321 H 121.728 1.2765 0.666441 0
M  V30 1322 H 123.681 1.96698 3.72677 0
M  V30 1323 H 122.405 0.866858 3.14886 0
M  V30 1324 H 121.064 2.83401 2.3255 0
M  V30 1325 H 120.712 1.94783 4.63755 0
M  V30 1326 H 120.412 3.70227 4.56296 0
M  V30 1327 H 121.936 3.09015 5.26633 0
M  V30 1328 H 123.35 4.53198 3.51118 0
M  V30 1329 H 121.747 5.17115 3.04487 0
M  V30 1330 H 122.817 4.50281 1.7993 0
M  V30 1331 N 124.16 -0.719506 1.40217 0
M  V30 1332 C 125.092 -1.84428 1.36084 0
M  V30 1333 C 126.105 -1.60597 0.266913 0
M  V30 1334 O 127.294 -1.70544 0.526983 0
M  V30 1335 C 124.394 -3.20757 1.094 0
M  V30 1336 C 123.567 -3.71817 2.30372 0
M  V30 1337 C 122.626 -4.86748 1.99907 0
M  V30 1338 O 121.652 -4.99603 2.72737 0
M  V30 1339 N 122.854 -5.7226 0.974635 0
M  V30 1340 H 125.619 -1.88473 2.33019 0
M  V30 1341 H 123.18 -0.900885 1.3452 0
M  V30 1342 H 125.172 -3.95235 0.870116 0
M  V30 1343 H 123.742 -3.11884 0.211452 0
M  V30 1344 H 122.962 -2.88514 2.68614 0
M  V30 1345 H 124.25 -4.02666 3.11026 0
M  V30 1346 H 123.648 -5.6448 0.371368 0
M  V30 1347 H 122.205 -6.46739 0.810656 0
M  V30 1348 N 125.638 -1.25649 -0.95132 0
M  V30 1349 C 127.054 -1.02542 -1.223 0
M  V30 1350 C 127.254 0.255715 -1.99871 0
M  V30 1351 O 126.31 0.967558 -2.33226 0
M  V30 1352 C 127.623 -2.25065 -1.99415 0
M  V30 1353 C 129.171 -2.29861 -2.12446 0
M  V30 1354 C 129.646 -3.52048 -2.92961 0
M  V30 1355 N 131.137 -3.52465 -3.00538 0
M  V30 1356 C 131.872 -4.43672 -3.63239 0
M  V30 1357 N 131.368 -5.45157 -4.27523 0
M  V30 1358 N 133.161 -4.31346 -3.60412 0
M  V30 1359 H 125.312 -2.07951 -0.432471 0
M  V30 1360 H 127.575 -0.91339 -0.253816 0
M  V30 1361 H 127.281 -3.18194 -1.49817 0
M  V30 1362 H 127.155 -2.28502 -3.00111 0
M  V30 1363 H 129.542 -1.37252 -2.61239 0
M  V30 1364 H 129.623 -2.3044 -1.11044 0
M  V30 1365 H 129.267 -4.44981 -2.44856 0
M  V30 1366 H 129.197 -3.48715 -3.94596 0
M  V30 1367 H 131.688 -2.79056 -2.54826 0
M  V30 1368 H 132.001 -6.10958 -4.73234 0
M  V30 1369 H 130.346 -5.49025 -4.26141 0
M  V30 1370 H 133.537 -3.51288 -3.09377 0
M  V30 1371 H 133.71 -5.02624 -4.0899 0
M  V30 1372 N 127.117 1.15442 -1.07289 0
M  V30 1373 C 128.047 2.22312 -0.714107 0
M  V30 1374 C 129.028 1.67467 0.298155 0
M  V30 1375 O 130.213 1.93445 0.171048 0
M  V30 1376 C 127.343 3.47124 -0.110448 0
M  V30 1377 C 126.297 4.14926 -1.04979 0
M  V30 1378 C 125.623 5.33807 -0.308924 0
M  V30 1379 C 126.923 4.64762 -2.38314 0
M  V30 1380 H 128.617 2.5258 -1.6076 0
M  V30 1381 H 126.163 1.21404 -0.77441 0
M  V30 1382 H 128.116 4.21124 0.152482 0
M  V30 1383 H 126.84 3.16187 0.81812 0
M  V30 1384 H 125.499 3.42866 -1.29764 0
M  V30 1385 H 125.147 4.99126 0.623084 0
M  V30 1386 H 124.847 5.80113 -0.935036 0
M  V30 1387 H 126.371 6.10576 -0.0537771 0
M  V30 1388 H 127.785 5.30292 -2.1786 0
M  V30 1389 H 126.182 5.21728 -2.96514 0
M  V30 1390 H 127.252 3.80434 -3.00663 0
M  V30 1391 N 128.595 0.856903 1.32268 0
M  V30 1392 C 129.558 0.308171 2.27119 0
M  V30 1393 C 130.558 -0.533421 1.51695 0
M  V30 1394 O 131.748 -0.344607 1.70757 0
M  V30 1395 C 128.88 -0.563757 3.36206 0
M  V30 1396 H 130.073 1.14535 2.77167 0
M  V30 1397 H 127.626 0.631421 1.42978 0
M  V30 1398 H 128.361 -1.42266 2.91429 0
M  V30 1399 H 128.146 0.0386749 3.92081 0
M  V30 1400 H 129.636 -0.940386 4.06874 0
M  V30 1401 N 130.073 -1.45103 0.615059 0
M  V30 1402 C 131.023 -2.27679 -0.120966 0
M  V30 1403 C 132.007 -1.3775 -0.831491 0
M  V30 1404 O 133.199 -1.61683 -0.720249 0
M  V30 1405 C 130.328 -3.24767 -1.1127 0
M  V30 1406 C 129.414 -4.22184 -0.402627 0
M  V30 1407 N 129.805 -5.02692 0.559884 0
M  V30 1408 C 128.103 -4.4125 -0.649202 0
M  V30 1409 C 128.804 -5.73421 0.977942 0
M  V30 1410 N 127.78 -5.42657 0.320104 0
M  V30 1411 H 131.582 -2.87325 0.618181 0
M  V30 1412 H 129.096 -1.56345 0.439304 0
M  V30 1413 H 131.093 -3.82666 -1.65446 0
M  V30 1414 H 129.753 -2.66682 -1.85232 0
M  V30 1415 H 130.764 -5.09354 0.936976 0
M  V30 1416 H 127.441 -3.9428 -1.37293 0
M  V30 1417 H 128.831 -6.48107 1.77222 0
M  V30 1418 N 131.551 -0.354651 -1.53558 0
M  V30 1419 C 132.481 0.489091 -2.2832 0
M  V30 1420 C 133.462 1.09324 -1.30316 0
M  V30 1421 O 134.647 1.11255 -1.59173 0
M  V30 1422 C 131.777 1.63456 -3.0643 0
M  V30 1423 C 130.731 1.1582 -4.12031 0
M  V30 1424 C 130.057 2.39305 -4.7816 0
M  V30 1425 C 131.357 0.250731 -5.21698 0
M  V30 1426 H 133.051 -0.134614 -2.99097 0
M  V30 1427 H 130.597 -0.0661826 -1.43848 0
M  V30 1428 H 132.55 2.23136 -3.57475 0
M  V30 1429 H 131.274 2.28533 -2.33325 0
M  V30 1430 H 129.933 0.584146 -3.61916 0
M  V30 1431 H 129.581 3.02814 -4.01637 0
M  V30 1432 H 129.281 2.08109 -5.49513 0
M  V30 1433 H 130.805 2.99691 -5.31994 0
M  V30 1434 H 132.219 0.754695 -5.68311 0
M  V30 1435 H 130.616 0.0301468 -6.00092 0
M  V30 1436 H 131.686 -0.710125 -4.79672 0
M  V30 1437 N 133.029 1.57378 -0.0835403 0
M  V30 1438 C 133.959 2.1641 0.87686 0
M  V30 1439 C 134.94 1.09429 1.30228 0
M  V30 1440 O 136.125 1.37516 1.37124 0
M  V30 1441 C 133.255 2.73517 2.14022 0
M  V30 1442 C 132.209 3.85769 1.85381 0
M  V30 1443 C 131.535 4.29529 3.18448 0
M  V30 1444 C 132.835 5.09486 1.14984 0
M  V30 1445 H 134.529 2.96914 0.385059 0
M  V30 1446 H 132.075 1.42823 0.18377 0
M  V30 1447 H 134.028 3.13463 2.81636 0
M  V30 1448 H 132.752 1.90252 2.65465 0
M  V30 1449 H 131.411 3.46345 1.20169 0
M  V30 1450 H 131.059 3.43169 3.67755 0
M  V30 1451 H 130.759 5.05204 3.00071 0
M  V30 1452 H 132.283 4.72099 3.8724 0
M  V30 1453 H 133.697 5.46674 1.72687 0
M  V30 1454 H 132.094 5.90515 1.06826 0
M  V30 1455 H 133.164 4.84724 0.130749 0
M  V30 1456 N 134.507 -0.190092 1.56449 0
M  V30 1457 C 135.439 -1.25973 1.91477 0
M  V30 1458 C 136.452 -1.41452 0.805931 0
M  V30 1459 O 137.641 -1.41789 1.08435 0
M  V30 1460 C 134.741 -2.63117 2.13594 0
M  V30 1461 C 133.914 -2.69182 3.4476 0
M  V30 1462 C 132.973 -3.87557 3.5593 0
M  V30 1463 O 131.999 -3.74427 4.28711 0
M  V30 1464 N 133.201 -5.03224 2.89388 0
M  V30 1465 H 135.966 -0.962394 2.83828 0
M  V30 1466 H 133.527 -0.379981 1.57378 0
M  V30 1467 H 135.519 -3.40742 2.1835 0
M  V30 1468 H 134.089 -2.85319 1.27719 0
M  V30 1469 H 133.309 -1.77793 3.51828 0
M  V30 1470 H 134.597 -2.70229 4.31107 0
M  V30 1471 H 133.995 -5.16791 2.30094 0
M  V30 1472 H 132.552 -5.78778 2.99764 0
M  V30 1473 N 135.985 -1.50799 -0.457987 0
M  V30 1474 C 136.948 -1.7005 -1.53674 0
M  V30 1475 C 137.948 -0.570881 -1.50325 0
M  V30 1476 O 139.138 -0.838126 -1.52712 0
M  V30 1477 C 136.27 -1.73788 -2.93276 0
M  V30 1478 H 137.463 -2.66306 -1.37917 0
M  V30 1479 H 135.016 -1.40477 -0.685271 0
M  V30 1480 H 135.751 -0.792717 -3.14462 0
M  V30 1481 H 135.536 -2.55864 -2.97113 0
M  V30 1482 H 137.026 -1.90591 -3.71571 0
M  V30 1483 N 137.463 0.71206 -1.40597 0
M  V30 1484 C 138.74 1.46536 -1.29563 0
M  V30 1485 C 139.12 2.10931 0.0844217 0
M  V30 1486 O 138.468 2.00418 1.0975 0
M  V30 1487 C 138.678 2.49821 -2.43701 0
M  V30 1488 C 140.026 3.15551 -2.841 0
M  V30 1489 O 141.05 2.60142 -2.4332 0
M  V30 1490 O 139.909 4.15867 -3.54566 0
M  V30 1491 H 137.003 0.651801 -0.509004 0
M  V30 1492 H 139.549 0.743935 -1.52524 0
M  V30 1493 H 138.321 2.00778 -3.35863 0
M  V30 1494 H 137.944 3.29495 -2.22528 0
M  V30 1495 N 138.941 1.26152 0.944643 0
M  V30 1496 C 140.357 1.03189 1.21754 0
M  V30 1497 C 140.557 -0.245112 2.00004 0
M  V30 1498 O 139.613 -0.955176 2.33736 0
M  V30 1499 C 140.926 2.26119 1.98219 0
M  V30 1500 C 142.474 2.30984 2.11224 0
M  V30 1501 C 142.949 3.53597 2.91089 0
M  V30 1502 N 144.44 3.54053 2.98664 0
M  V30 1503 C 145.175 4.45593 3.60881 0
M  V30 1504 N 144.671 5.47416 4.24626 0
M  V30 1505 N 146.464 4.33252 3.58119 0
M  V30 1506 H 138.615 2.08177 0.421437 0
M  V30 1507 H 140.878 0.914723 0.248969 0
M  V30 1508 H 140.584 3.18984 1.48128 0
M  V30 1509 H 140.458 2.3009 2.98895 0
M  V30 1510 H 142.845 1.38635 2.60508 0
M  V30 1511 H 142.926 2.31026 1.09821 0
M  V30 1512 H 142.57 4.46273 2.42493 0
M  V30 1513 H 142.5 3.50802 3.92741 0
M  V30 1514 H 144.991 2.80403 2.53343 0
M  V30 1515 H 145.304 6.13459 4.69987 0
M  V30 1516 H 143.649 5.51278 4.23223 0
M  V30 1517 H 146.84 3.52924 3.0751 0
M  V30 1518 H 147.013 5.04786 4.06319 0
M  V30 1519 N 140.419 -1.14872 1.07899 0
M  V30 1520 C 141.659 -1.8745 0.814965 0
M  V30 1521 C 142.023 -1.80758 -0.64733 0
M  V30 1522 O 143.224 -2.48422 -1.02664 0
M  V30 1523 C 141.495 -3.32286 1.31607 0
M  V30 1524 S 143.054 -4.22537 1.18357 0
M  V30 1525 H 139.872 -0.646833 0.295174 0
M  V30 1526 H 142.474 -1.38555 1.37923 0
M  V30 1527 H 141.178 -3.34703 2.37491 0
M  V30 1528 H 140.709 -3.86238 0.747261 0
M  V30 1529 H 142.724 -4.96044 0.124586 0
M  V30 1530 N 141.898 -0.863906 -1.31812 0
M  V30 1531 C 143.123 -0.48527 -2.01643 0
M  V30 1532 C 143.548 0.913058 -1.64453 0
M  V30 1533 O 142.906 1.6014 -0.849985 0
M  V30 1534 C 142.954 -0.642625 -3.54828 0
M  V30 1535 O 142.058 0.320659 -4.11151 0
M  V30 1536 H 141.399 -0.193793 -0.635091 0
M  V30 1537 H 143.929 -1.16565 -1.68148 0
M  V30 1538 H 143.939 -0.533628 -4.04495 0
M  V30 1539 H 142.614 -1.66227 -3.81237 0
M  V30 1540 H 141.191 0.167126 -3.72525 0
M  V30 1541 N 143.376 1.44774 -0.622745 0
M  V30 1542 C 144.309 2.27792 0.136329 0
M  V30 1543 C 145.287 1.38041 0.859264 0
M  V30 1544 O 146.471 1.67478 0.86506 0
M  V30 1545 C 143.598 3.16776 1.19878 0
M  V30 1546 C 142.644 4.22575 0.57731 0
M  V30 1547 S 143.477 5.31825 -0.626294 0
M  V30 1548 C 144.633 6.24377 0.436378 0
M  V30 1549 H 144.866 2.91824 -0.567967 0
M  V30 1550 H 142.399 1.48838 -0.410677 0
M  V30 1551 H 144.357 3.68596 1.80686 0
M  V30 1552 H 143.018 2.5198 1.87523 0
M  V30 1553 H 142.211 4.84818 1.37721 0
M  V30 1554 H 141.813 3.73974 0.0440439 0
M  V30 1555 H 144.105 6.64689 1.31128 0
M  V30 1556 H 145.048 7.07941 -0.150271 0
M  V30 1557 H 145.456 5.59381 0.758513 0
M  V30 1558 N 144.854 0.36279 1.53368 0
M  V30 1559 C 146.101 -0.227776 2.01215 0
M  V30 1560 C 146.429 -1.49003 1.25014 0
M  V30 1561 O 145.684 -1.92876 0.331236 0
M  V30 1562 C 145.983 -0.568417 3.52851 0
M  V30 1563 C 145.649 0.59918 4.46901 0
M  V30 1564 C 144.311 0.919559 4.72332 0
M  V30 1565 C 146.663 1.38156 5.02556 0
M  V30 1566 C 143.991 2.02434 5.5067 0
M  V30 1567 C 146.343 2.47674 5.821 0
M  V30 1568 C 145.007 2.8025 6.05819 0
M  V30 1569 H 144.277 -0.083349 0.736297 0
M  V30 1570 H 146.924 0.494677 1.85001 0
M  V30 1571 H 145.229 -1.37185 3.66998 0
M  V30 1572 H 146.926 -1.03756 3.87344 0
M  V30 1573 H 143.516 0.339437 4.27254 0
M  V30 1574 H 147.7 1.14729 4.82857 0
M  V30 1575 H 142.956 2.28075 5.67267 0
M  V30 1576 H 147.13 3.08716 6.24234 0
M  V30 1577 H 144.757 3.65979 6.66306 0
M  V30 1578 N 146.332 -1.57332 0.0918853 0
M  V30 1579 C 147.262 -2.16872 -0.865371 0
M  V30 1580 C 148.243 -1.10118 -1.29646 0
M  V30 1581 O 149.428 -1.38242 -1.36392 0
M  V30 1582 C 146.558 -2.74649 -2.12569 0
M  V30 1583 C 145.512 -3.86747 -1.83333 0
M  V30 1584 C 144.838 -4.31212 -3.16166 0
M  V30 1585 C 146.138 -5.10089 -1.1228 0
M  V30 1586 H 147.832 -2.97114 -0.369307 0
M  V30 1587 H 145.378 -1.42918 -0.176194 0
M  V30 1588 H 147.331 -3.14952 -2.7997 0
M  V30 1589 H 146.055 -1.91657 -2.64452 0
M  V30 1590 H 144.714 -3.46978 -1.18331 0
M  V30 1591 H 144.362 -3.45115 -3.6593 0
M  V30 1592 H 144.062 -5.06788 -2.97388 0
M  V30 1593 H 145.586 -4.74146 -3.84731 0
M  V30 1594 H 147 -5.47582 -1.69785 0
M  V30 1595 H 145.397 -5.91073 -1.03693 0
M  V30 1596 H 146.467 -4.84786 -0.105041 0
M  V30 1597 N 147.81 0.181792 -1.56548 0
M  V30 1598 C 149.05 0.906711 -1.83189 0
M  V30 1599 C 149.414 1.79882 -0.671312 0
M  V30 1600 O 150.615 2.56054 -0.81792 0
M  V30 1601 C 148.886 1.69023 -3.14906 0
M  V30 1602 S 150.445 2.46535 -3.62996 0
M  V30 1603 H 147.263 0.303877 -0.642791 0
M  V30 1604 H 149.865 0.169107 -1.94767 0
M  V30 1605 H 148.569 1.02571 -3.97376 0
M  V30 1606 H 148.1 2.46941 -3.06241 0
M  V30 1607 H 150.115 3.71014 -3.29489 0
M  V30 1608 N 149.288 1.51039 0.449983 0
M  V30 1609 C 150.704 1.38934 0.785462 0
M  V30 1610 C 150.904 0.461817 1.96136 0
M  V30 1611 O 149.96 -0.0877389 2.52348 0
M  V30 1612 C 151.273 2.80724 1.0777 0
M  V30 1613 C 152.821 2.89787 1.1829 0
M  V30 1614 C 153.296 4.32457 1.50815 0
M  V30 1615 N 154.787 4.35505 1.57764 0
M  V30 1616 C 155.522 5.42914 1.84477 0
M  V30 1617 N 155.018 6.60502 2.09068 0
M  V30 1618 N 156.811 5.3038 1.86155 0
M  V30 1619 H 148.962 2.09904 -0.324647 0
M  V30 1620 H 151.225 0.944378 -0.0827957 0
M  V30 1621 H 150.931 3.50531 0.286498 0
M  V30 1622 H 150.805 3.19273 2.00859 0
M  V30 1623 H 153.192 2.20186 1.96474 0
M  V30 1624 H 153.273 2.54752 0.231314 0
M  V30 1625 H 152.917 5.02603 0.731622 0
M  V30 1626 H 152.847 4.64995 2.47158 0
M  V30 1627 H 155.338 3.50724 1.40715 0
M  V30 1628 H 155.651 7.38158 2.28785 0
M  V30 1629 H 153.996 6.63639 2.06416 0
M  V30 1630 H 157.187 4.37505 1.66454 0
M  V30 1631 H 157.36 6.1417 2.06637 0
M  V30 1632 N 150.766 -0.704594 1.40972 0
M  V30 1633 C 151.991 -1.49858 1.43378 0
M  V30 1634 C 152.416 -1.88061 0.038184 0
M  V30 1635 O 151.774 -1.5402 -0.956425 0
M  V30 1636 C 151.822 -2.74333 2.34038 0
M  V30 1637 O 150.926 -3.7147 1.7912 0
M  V30 1638 H 150.267 -0.45139 0.486974 0
M  V30 1639 H 152.797 -0.866832 1.8533 0
M  V30 1640 H 152.807 -3.22741 2.49604 0
M  V30 1641 H 151.482 -2.45863 3.35446 0
M  V30 1642 H 150.059 -3.30363 1.72958 0
M  V30 1643 N 152.244 -1.26651 -0.937939 0
M  V30 1644 C 153.66 -1.03834 -1.21205 0
M  V30 1645 C 153.86 0.234502 -2.00131 0
M  V30 1646 O 152.916 0.942767 -2.3424 0
M  V30 1647 C 154.229 -2.27167 -1.97017 0
M  V30 1648 C 155.777 -2.32101 -2.09996 0
M  V30 1649 C 156.252 -3.55136 -2.8921 0
M  V30 1650 N 157.743 -3.55632 -2.96783 0
M  V30 1651 C 158.478 -4.475 -3.58512 0
M  V30 1652 N 157.974 -5.4966 -4.21717 0
M  V30 1653 N 159.767 -4.35145 -3.55816 0
M  V30 1654 H 151.918 -2.08398 -0.410391 0
M  V30 1655 H 154.181 -0.916031 -0.244114 0
M  V30 1656 H 153.887 -3.19765 -1.46434 0
M  V30 1657 H 153.761 -2.31672 -2.97671 0
M  V30 1658 H 156.148 -1.40015 -2.59769 0
M  V30 1659 H 156.229 -2.31605 -1.08594 0
M  V30 1660 H 155.873 -4.47553 -2.40123 0
M  V30 1661 H 155.803 -3.5288 -3.90875 0
M  V30 1662 H 158.294 -2.81743 -2.51852 0
M  V30 1663 H 158.607 -6.15943 -4.66727 0
M  V30 1664 H 156.952 -5.53514 -4.20294 0
M  V30 1665 H 160.143 -3.5455 -3.05634 0
M  V30 1666 H 160.316 -5.06934 -4.03636 0
M  V30 1667 N 153.722 1.14298 -1.08507 0
M  V30 1668 C 154.67 2.21483 -0.710483 0
M  V30 1669 C 155.664 1.66998 0.284234 0
M  V30 1670 O 156.87 1.79401 0.146692 0
M  V30 1671 H 153.245 0.721578 -0.211729 0
M  V30 1672 H 155.216 2.50348 -1.62384 0
M  V30 1673 C 153.965 3.4743 -0.137007 0
M  V30 1674 H 153.288 3.89686 -0.893592 0
M  V30 1675 H 154.728 4.2391 0.0872789 0
M  V30 1676 C 153.187 3.17548 1.12538 0
M  V30 1677 O 153.717 3.35437 2.21009 0
M  V30 1678 N 151.923 2.71499 1.03617 0
M  V30 1679 H 151.47 2.57143 0.153403 0
M  V30 1680 H 151.428 2.51881 1.88158 0
M  V30 1681 N 155.201 0.870884 1.31352 0
M  V30 1682 C 156.449 0.48132 1.96285 0
M  V30 1683 C 156.77 -0.969813 1.69173 0
M  V30 1684 O 156.04 -1.67998 1.00764 0
M  V30 1685 H 154.62 0.175002 0.726212 0
M  V30 1686 H 157.282 1.11087 1.60143 0
M  V30 1687 H 156.378 0.639825 3.05471 0
M  V30 1688 N 156.679 -1.44442 0.630414 0
M  V30 1689 C 157.928 -2.01267 0.132073 0
M  V30 1690 C 158.241 -1.50172 -1.25331 0
M  V30 1691 O 159.447 -1.9912 -1.84562 0
M  V30 1692 C 157.903 -3.59422 0.185362 0
M  V30 1693 C 157.511 -4.19514 1.57201 0
M  V30 1694 C 159.255 -4.23724 -0.256553 0
M  V30 1695 C 157.162 -5.69891 1.58045 0
M  V30 1696 H 156.092 -0.752619 0.0456092 0
M  V30 1697 H 158.743 -1.65666 0.789106 0
M  V30 1698 H 157.125 -3.92318 -0.538759 0
M  V30 1699 H 158.299 -3.98156 2.31966 0
M  V30 1700 H 156.614 -3.67496 1.95795 0
M  V30 1701 H 159.211 -5.34019 -0.269767 0
M  V30 1702 H 159.554 -3.96013 -1.28372 0
M  V30 1703 H 160.087 -3.95629 0.41505 0
M  V30 1704 H 156.826 -6.02336 2.58597 0
M  V30 1705 H 156.346 -5.93373 0.875725 0
M  V30 1706 H 158.025 -6.33515 1.31408 0
M  V30 1707 N 158.157 -0.370918 -1.53173 0
M  V30 1708 C 159.568 0.107139 -1.86392 0
M  V30 1709 C 159.919 1.47714 -1.29132 0
M  V30 1710 O 159.044 2.07464 -0.615439 0
M  V30 1711 C 159.639 0.201187 -3.38202 0
M  V30 1712 C 158.198 0.623507 -3.712 0
M  V30 1713 C 157.345 -0.225978 -2.76378 0
M  V30 1714 H 160.296 -0.58951 -1.47345 0
M  V30 1715 H 160.317 1.02377 -3.66468 0
M  V30 1716 H 159.829 -0.796058 -3.79848 0
M  V30 1717 H 157.93 1.62879 -3.35114 0
M  V30 1718 H 158.043 0.394414 -4.77474 0
M  V30 1719 H 156.407 0.305962 -2.52856 0
M  V30 1720 H 157.19 -1.22086 -3.20858 0
M  V30 1721 N 159.635 1.57281 -0.100228 0
M  V30 1722 C 160.545 2.17833 0.870965 0
M  V30 1723 C 161.561 1.14921 1.30649 0
M  V30 1724 O 162.737 1.47313 1.37335 0
M  V30 1725 C 159.802 2.75085 2.1102 0
M  V30 1726 C 158.863 3.9297 1.72838 0
M  V30 1727 C 158.096 4.47482 2.90854 0
M  V30 1728 O 158.319 4.00922 4.05731 0
M  V30 1729 O 157.253 5.38433 2.69023 0
M  V30 1730 H 161.079 3.0124 0.38575 0
M  V30 1731 H 158.664 1.48881 0.124397 0
M  V30 1732 H 160.546 3.11656 2.83634 0
M  V30 1733 H 159.221 1.94721 2.58584 0
M  V30 1734 H 158.128 3.61201 0.973883 0
M  V30 1735 H 159.461 4.74713 1.30033 0
M  V30 1736 N 161.113 -0.173488 1.56642 0
M  V30 1737 C 162.359 -0.891784 1.8214 0
M  V30 1738 C 162.692 -1.8199 0.677736 0
M  V30 1739 O 161.967 -1.91842 -0.320446 0
M  V30 1740 C 162.25 -1.68933 3.18015 0
M  V30 1741 C 162.103 -0.784487 4.42906 0
M  V30 1742 C 163.422 -2.65748 3.50808 0
M  V30 1743 H 160.541 -0.322761 0.662567 0
M  V30 1744 H 163.183 -0.158095 1.89341 0
M  V30 1745 H 161.333 -2.31482 3.12007 0
M  V30 1746 H 163.005 -0.172046 4.60979 0
M  V30 1747 H 161.248 -0.0924117 4.33702 0
M  V30 1748 H 161.919 -1.37799 5.34524 0
M  V30 1749 H 164.395 -2.13327 3.57255 0
M  V30 1750 H 163.271 -3.18619 4.4696 0
M  V30 1751 H 163.532 -3.45842 2.75401 0
M  V30 1752 N 162.591 -1.51276 -0.441967 0
M  V30 1753 C 163.554 -1.7167 -1.51862 0
M  V30 1754 C 164.554 -0.586793 -1.49711 0
M  V30 1755 O 165.744 -0.854276 -1.51815 0
M  V30 1756 C 162.876 -1.76889 -2.91416 0
M  V30 1757 H 164.069 -2.67754 -1.35084 0
M  V30 1758 H 161.622 -1.41196 -0.670333 0
M  V30 1759 H 162.357 -0.826026 -3.13604 0
M  V30 1760 H 162.142 -2.59001 -2.94382 0
M  V30 1761 H 163.632 -1.94522 -3.69528 0
M  V30 1762 N 164.069 0.697108 -1.41344 0
M  V30 1763 C 165.294 1.49096 -1.44171 0
M  V30 1764 C 165.719 1.88038 -0.0481568 0
M  V30 1765 O 165.077 1.54525 0.948243 0
M  V30 1766 C 165.125 2.73088 -2.3549 0
M  V30 1767 O 164.229 3.70514 -1.81088 0
M  V30 1768 H 163.57 0.448801 -0.489361 0
M  V30 1769 H 166.1 0.856992 -1.85787 0
M  V30 1770 H 166.11 3.21413 -2.51312 0
M  V30 1771 H 164.785 2.44081 -3.36745 0
M  V30 1772 H 163.362 3.29441 -1.74708 0
M  V30 1773 N 165.547 1.27147 0.931209 0
M  V30 1774 C 166.963 1.04475 1.20653 0
M  V30 1775 C 167.163 -0.223885 2.00252 0
M  V30 1776 O 166.219 -0.930332 2.34736 0
M  V30 1777 C 167.532 2.28209 1.95809 0
M  V30 1778 C 169.08 2.33211 2.08762 0
M  V30 1779 C 169.555 3.56665 2.87323 0
M  V30 1780 N 171.046 3.57201 2.94892 0
M  V30 1781 C 171.781 4.49395 3.56134 0
M  V30 1782 N 171.277 5.51889 4.18796 0
M  V30 1783 N 173.07 4.37026 3.53504 0
M  V30 1784 H 165.221 2.08612 0.399333 0
M  V30 1785 H 167.484 0.917312 0.239253 0
M  V30 1786 H 167.19 3.20538 1.44736 0
M  V30 1787 H 167.064 2.33247 2.96438 0
M  V30 1788 H 169.451 1.41391 2.59023 0
M  V30 1789 H 169.532 2.32178 1.07364 0
M  V30 1790 H 169.176 4.4882 2.37746 0
M  V30 1791 H 169.106 3.54948 3.88998 0
M  V30 1792 H 171.597 2.83074 2.50354 0
M  V30 1793 H 171.91 6.18409 4.63454 0
M  V30 1794 H 170.255 5.55735 4.17353 0
M  V30 1795 H 173.446 3.56166 3.03749 0
M  V30 1796 H 173.619 5.09067 4.00942 0
M  V30 1797 N 167.025 -1.13721 1.09112 0
M  V30 1798 C 167.955 -2.21148 0.749385 0
M  V30 1799 C 168.936 -1.6792 -0.271475 0
M  V30 1800 O 170.121 -1.93693 -0.140251 0
M  V30 1801 C 167.251 -3.46905 0.165659 0
M  V30 1802 C 166.205 -4.13203 1.11567 0
M  V30 1803 C 165.531 -5.33248 0.393809 0
M  V30 1804 C 166.831 -4.60912 2.45678 0
M  V30 1805 H 168.525 -2.4999 1.64758 0
M  V30 1806 H 166.071 -1.20156 0.793626 0
M  V30 1807 H 168.024 -4.21313 -0.085466 0
M  V30 1808 H 166.748 -3.17449 -0.767714 0
M  V30 1809 H 165.407 -3.40758 1.35202 0
M  V30 1810 H 165.055 -5.00054 -0.543599 0
M  V30 1811 H 164.755 -5.78552 1.02721 0
M  V30 1812 H 166.279 -6.10413 0.150908 0
M  V30 1813 H 167.693 -5.26759 2.26269 0
M  V30 1814 H 166.09 -5.16944 3.04776 0
M  V30 1815 H 167.16 -3.75603 3.06677 0
M  V30 1816 N 168.503 -0.877838 -1.30888 0
M  V30 1817 C 169.433 -0.35534 -2.3078 0
M  V30 1818 C 170.414 0.557994 -1.60687 0
M  V30 1819 O 171.599 0.473355 -1.88343 0
M  V30 1820 C 168.729 0.437221 -3.44537 0
M  V30 1821 C 167.683 -0.383715 -4.26276 0
M  V30 1822 C 167.009 0.535014 -5.32017 0
M  V30 1823 C 168.309 -1.62201 -4.96476 0
M  V30 1824 H 170.003 -1.19007 -2.74732 0
M  V30 1825 H 167.549 -0.573698 -1.32078 0
M  V30 1826 H 169.502 0.813334 -4.13477 0
M  V30 1827 H 168.226 1.30553 -2.99372 0
M  V30 1828 H 166.885 -0.741874 -3.59015 0
M  V30 1829 H 166.533 1.40083 -4.831 0
M  V30 1830 H 166.233 -0.0104211 -5.87599 0
M  V30 1831 H 167.757 0.907799 -6.03814 0
M  V30 1832 H 169.171 -1.31689 -5.5797 0
M  V30 1833 H 167.568 -2.10711 -5.61891 0
M  V30 1834 H 168.638 -2.37044 -4.23011 0
M  V30 1835 N 169.982 1.44106 -0.638065 0
M  V30 1836 C 171.259 1.95453 -0.0759321 0
M  V30 1837 C 171.639 1.57984 1.40015 0
M  V30 1838 O 170.987 0.857361 2.11806 0
M  V30 1839 C 171.197 3.47655 -0.306132 0
M  V30 1840 C 172.545 4.24114 -0.203008 0
M  V30 1841 O 173.569 3.55405 -0.237871 0
M  V30 1842 O 172.428 5.46381 -0.113827 0
M  V30 1843 H 169.522 0.826797 0.0183332 0
M  V30 1844 H 172.068 1.54122 -0.710251 0
M  V30 1845 H 170.84 3.68 -1.3301 0
M  V30 1846 H 170.463 3.95949 0.361991 0
M  V30 1847 N 171.46 0.379036 1.52974 0
M  V30 1848 C 172.706 -0.206727 2.01744 0
M  V30 1849 C 173.039 -1.47314 1.26539 0
M  V30 1850 O 172.314 -1.91084 0.362903 0
M  V30 1851 C 172.597 -0.485066 3.56818 0
M  V30 1852 C 172.45 0.795919 4.42702 0
M  V30 1853 C 173.769 -1.28003 4.21074 0
M  V30 1854 H 170.888 -0.0736607 0.73331 0
M  V30 1855 H 173.53 0.506581 1.83122 0
M  V30 1856 H 171.68 -1.09272 3.72816 0
M  V30 1857 H 173.352 1.43307 4.38476 0
M  V30 1858 H 171.595 1.41344 4.10127 0
M  V30 1859 H 172.266 0.555947 5.49193 0
M  V30 1860 H 174.742 -0.765867 4.08991 0
M  V30 1861 H 173.618 -1.44352 5.29579 0
M  V30 1862 H 173.879 -2.29236 3.78026 0
M  V30 1863 N 172.938 -1.57226 0.108567 0
M  V30 1864 C 174.166 -1.99179 -0.559954 0
M  V30 1865 C 174.581 -0.988022 -1.60884 0
M  V30 1866 O 173.938 0.0205512 -1.82488 0
M  V30 1867 C 173.989 -3.41159 -1.19552 0
M  V30 1868 O 173.71 -4.37694 -0.188577 0
M  V30 1869 C 175.211 -3.98188 -1.94837 0
M  V30 1870 H 172.431 -0.654228 -0.149088 0
M  V30 1871 H 174.975 -2.03598 0.19183 0
M  V30 1872 H 173.13 -3.37711 -1.89815 0
M  V30 1873 H 173.544 -5.20469 -0.649014 0
M  V30 1874 H 175.018 -4.99644 -2.34648 0
M  V30 1875 H 175.495 -3.3675 -2.81951 0
M  V30 1876 H 176.101 -4.0515 -1.2936 0
M  V30 1877 N 174.416 0.165178 -1.56732 0
M  V30 1878 C 175.827 0.727046 -1.71962 0
M  V30 1879 C 176.178 1.82508 -0.720078 0
M  V30 1880 O 175.303 2.16082 0.117242 0
M  V30 1881 C 175.898 1.32559 -3.11791 0
M  V30 1882 C 174.457 1.83422 -3.28684 0
M  V30 1883 C 173.604 0.715567 -2.67908 0
M  V30 1884 H 176.555 -0.0602896 -1.58585 0
M  V30 1885 H 176.576 2.19533 -3.10782 0
M  V30 1886 H 176.088 0.526195 -3.84516 0
M  V30 1887 H 174.189 2.65986 -2.60926 0
M  V30 1888 H 174.302 1.97543 -4.36478 0
M  V30 1889 H 172.666 1.13758 -2.27884 0
M  V30 1890 H 173.449 -0.0720836 -3.43224 0
M  V30 1891 N 175.894 1.51508 0.433938 0
M  V30 1892 C 177.122 1.68157 1.20543 0
M  V30 1893 C 177.537 0.380362 1.84929 0
M  V30 1894 O 176.894 -0.641446 1.70856 0
M  V30 1895 C 176.945 2.79965 2.28696 0
M  V30 1896 O 176.666 4.05045 1.66943 0
M  V30 1897 C 178.167 3.07912 3.18912 0
M  V30 1898 H 175.387 0.56421 0.363191 0
M  V30 1899 H 177.931 1.97941 0.513754 0
M  V30 1900 H 176.086 2.5277 2.93574 0
M  V30 1901 H 176.5 4.67165 2.38448 0
M  V30 1902 H 177.974 3.89719 3.90926 0
M  V30 1903 H 178.451 2.20456 3.79863 0
M  V30 1904 H 179.057 3.36779 2.59731 0
M  V30 1905 N 177.372 -0.689602 1.41712 0
M  V30 1906 C 178.597 -1.48329 1.44959 0
M  V30 1907 C 179.022 -1.8801 0.0581283 0
M  V30 1908 O 178.38 -1.55026 -0.940035 0
M  V30 1909 C 178.428 -2.71835 2.36935 0
M  V30 1910 O 177.532 -3.69549 1.8305 0
M  V30 1911 H 176.873 -0.446199 0.491734 0
M  V30 1912 H 179.403 -0.847127 1.86239 0
M  V30 1913 H 179.413 -3.20076 2.53013 0
M  V30 1914 H 178.088 -2.42291 3.38035 0
M  V30 1915 H 176.665 -3.2851 1.76452 0
M  V30 1916 N 178.85 -1.27639 -0.924453 0
M  V30 1917 C 179.797 -1.10644 -2.0255 0
M  V30 1918 C 180.767 -0.00658438 -1.66099 0
M  V30 1919 O 181.952 -0.16952 -1.90045 0
M  V30 1920 C 179.092 -0.76309 -3.36557 0
M  V30 1921 C 178.205 -1.94091 -3.85944 0
M  V30 1922 C 177.34 -1.53914 -5.08413 0
M  V30 1923 C 176.379 -2.68425 -5.50104 0
M  V30 1924 N 175.516 -2.28815 -6.63768 0
M  V30 1925 H 180.356 -2.04858 -2.16419 0
M  V30 1926 H 177.893 -1.01974 -1.06017 0
M  V30 1927 H 179.851 -0.544822 -4.13627 0
M  V30 1928 H 178.481 0.142102 -3.22487 0
M  V30 1929 H 177.533 -2.27162 -3.05125 0
M  V30 1930 H 178.845 -2.7998 -4.12811 0
M  V30 1931 H 177.999 -1.28231 -5.92994 0
M  V30 1932 H 176.738 -0.651391 -4.8333 0
M  V30 1933 H 175.743 -2.94819 -4.64071 0
M  V30 1934 H 176.968 -3.57826 -5.7718 0
M  V30 1935 H 174.914 -1.42495 -6.40337 0
M  V30 1936 H 174.831 -3.08242 -6.90306 0
M  V30 1937 H 176.099 -2.06387 -7.51681 0
M  V30 1938 N 180.328 1.1314 -1.09713 0
M  V30 1939 C 181.575 1.84484 -0.834987 0
M  V30 1940 C 181.903 1.83689 0.639418 0
M  V30 1941 O 181.158 1.2724 1.4869 0
M  V30 1942 C 181.457 3.32167 -1.3191 0
M  V30 1943 C 181.123 3.53139 -2.80363 0
M  V30 1944 C 179.785 3.58571 -3.20905 0
M  V30 1945 C 182.137 3.60866 -3.76065 0
M  V30 1946 C 179.465 3.69267 -4.55916 0
M  V30 1947 C 181.817 3.73089 -5.10869 0
M  V30 1948 C 180.481 3.76775 -5.50996 0
M  V30 1949 H 179.751 0.675073 -0.305544 0
M  V30 1950 H 182.398 1.33554 -1.37243 0
M  V30 1951 H 180.703 3.85469 -0.701517 0
M  V30 1952 H 182.4 3.85821 -1.09284 0
M  V30 1953 H 178.99 3.49569 -2.47991 0
M  V30 1954 H 183.174 3.55946 -3.45855 0
M  V30 1955 H 178.43 3.70388 -4.86438 0
M  V30 1956 H 182.604 3.78011 -5.84877 0
M  V30 1957 H 180.231 3.84815 -6.55608 0
M  V30 1958 N 181.806 0.884767 1.30421 0
M  V30 1959 C 182.716 0.355398 2.31892 0
M  V30 1960 C 183.732 -0.542261 1.65335 0
M  V30 1961 O 184.908 -0.435432 1.96637 0
M  V30 1962 C 181.973 -0.421661 3.44126 0
M  V30 1963 C 181.034 0.505727 4.26311 0
M  V30 1964 C 180.267 -0.234343 5.33185 0
M  V30 1965 O 180.49 -1.46045 5.51386 0
M  V30 1966 O 179.424 0.415443 6.00465 0
M  V30 1967 H 183.25 1.19685 2.79122 0
M  V30 1968 H 180.835 0.648596 1.34587 0
M  V30 1969 H 182.717 -0.861641 4.12497 0
M  V30 1970 H 181.392 -1.23942 2.99032 0
M  V30 1971 H 180.299 0.994513 3.60639 0
M  V30 1972 H 181.632 1.28948 4.75009 0
M  V30 1973 N 183.284 -1.43765 0.645699 0
M  V30 1974 C 184.561 -1.9541 0.0862963 0
M  V30 1975 C 184.941 -1.58725 -1.39175 0
M  V30 1976 O 184.289 -0.868581 -2.11348 0
M  V30 1977 C 184.499 -3.47488 0.324565 0
M  V30 1978 C 185.847 -4.24001 0.225497 0
M  V30 1979 O 186.871 -3.55274 0.256715 0
M  V30 1980 O 185.73 -5.46313 0.142801 0
M  V30 1981 H 182.824 -0.826882 -0.0139483 0
M  V30 1982 H 185.37 -1.53743 0.718415 0
M  V30 1983 H 184.142 -3.67289 1.3496 0
M  V30 1984 H 183.765 -3.96135 -0.340987 0
M  V30 1985 N 184.763 -0.387143 -1.52771 0
M  V30 1986 C 185.711 0.463953 -2.27926 0
M  V30 1987 C 186.705 1.06493 -1.31741 0
M  V30 1988 O 187.911 1.00565 -1.49287 0
M  V30 1989 H 184.286 0.16837 -0.732909 0
M  V30 1990 H 186.257 -0.19141 -2.97785 0
M  V30 1991 C 185.006 1.5803 -3.09713 0
M  V30 1992 H 184.329 1.12718 -3.83581 0
M  V30 1993 H 185.769 2.15008 -3.65442 0
M  V30 1994 C 184.228 2.53509 -2.2189 0
M  V30 1995 O 184.758 3.56863 -1.84422 0
M  V30 1996 N 182.964 2.23199 -1.86093 0
M  V30 1997 H 182.511 1.39185 -2.16761 0
M  V30 1998 H 182.469 2.87333 -1.27621 0
M  V30 1999 N 186.241 1.57166 -0.116904 0
M  V30 2000 C 187.171 2.18222 0.830759 0
M  V30 2001 C 188.152 1.12167 1.27877 0
M  V30 2002 O 189.337 1.40394 1.34176 0
M  V30 2003 C 186.467 2.77996 2.08172 0
M  V30 2004 C 185.421 3.89614 1.77157 0
M  V30 2005 C 184.747 4.36187 3.09265 0
M  V30 2006 C 186.047 5.1181 1.04151 0
M  V30 2007 H 187.741 2.97664 0.321992 0
M  V30 2008 H 185.287 1.4318 0.153434 0
M  V30 2009 H 187.24 3.19366 2.74924 0
M  V30 2010 H 185.964 1.9584 2.6137 0
M  V30 2011 H 184.623 3.48816 1.12796 0
M  V30 2012 H 184.271 3.50893 3.60393 0
M  V30 2013 H 183.971 5.11455 2.89288 0
M  V30 2014 H 185.495 4.80207 3.77139 0
M  V30 2015 H 186.909 5.50214 1.61052 0
M  V30 2016 H 185.306 5.92648 0.942762 0
M  V30 2017 H 186.376 4.84892 0.0279022 0
M  V30 2018 N 187.719 -0.156864 1.56817 0
M  V30 2019 C 188.965 -0.872416 1.83076 0
M  V30 2020 C 189.298 -1.81261 0.697001 0
M  V30 2021 O 188.573 -1.92171 -0.30008 0
M  V30 2022 C 188.856 -1.65551 3.19789 0
M  V30 2023 C 188.709 -0.737467 4.43713 0
M  V30 2024 C 190.028 -2.62012 3.53606 0
M  V30 2025 H 187.147 -0.315715 0.665953 0
M  V30 2026 H 189.789 -0.138004 1.89498 0
M  V30 2027 H 187.939 -2.28159 3.14445 0
M  V30 2028 H 189.611 -0.123143 4.61136 0
M  V30 2029 H 187.854 -0.0464067 4.33775 0
M  V30 2030 H 188.525 -1.32122 5.35955 0
M  V30 2031 H 191.001 -2.09525 3.59497 0
M  V30 2032 H 189.877 -3.13861 4.50314 0
M  V30 2033 H 190.138 -3.42902 2.79053 0
M  V30 2034 N 189.197 -1.51736 -0.425897 0
M  V30 2035 C 190.445 -1.64644 -1.17204 0
M  V30 2036 C 190.766 -0.370486 -1.91448 0
M  V30 2037 O 190.036 0.614088 -1.86026 0
M  V30 2038 H 188.616 -0.606819 -0.435638 0
M  V30 2039 H 191.278 -1.88713 -0.487177 0
M  V30 2040 H 190.374 -2.47958 -1.89534 0
M  V30 2041 N 190.675 0.682077 -1.42076 0
M  V30 2042 C 192.086 1.26246 -1.37546 0
M  V30 2043 C 192.437 1.96092 -0.0651481 0
M  V30 2044 O 191.562 1.99587 0.836297 0
M  V30 2045 C 192.157 2.29594 -2.49143 0
M  V30 2046 C 190.716 2.83175 -2.47969 0
M  V30 2047 C 189.863 1.57395 -2.28303 0
M  V30 2048 H 192.814 0.475937 -1.51395 0
M  V30 2049 H 192.835 3.11175 -2.18976 0
M  V30 2050 H 192.347 1.78729 -3.44496 0
M  V30 2051 H 190.448 3.3818 -1.56413 0
M  V30 2052 H 190.561 3.32687 -3.44755 0
M  V30 2053 H 188.925 1.83699 -1.76428 0
M  V30 2054 H 189.708 1.08507 -3.25701 0
M  V30 2055 N 192.153 1.28127 0.917671 0
M  V30 2056 C 193.43 1.05761 1.64542 0
M  V30 2057 C 193.81 -0.404344 2.07191 0
M  V30 2058 O 193.158 -1.38963 1.81388 0
M  V30 2059 C 193.368 2.02857 2.83989 0
M  V30 2060 C 194.716 2.32786 3.551 0
M  V30 2061 O 195.74 2.0091 2.94132 0
M  V30 2062 O 194.599 2.87169 4.64969 0
M  V30 2063 H 191.693 0.403916 0.721652 0
M  V30 2064 H 194.239 1.39431 0.967322 0
M  V30 2065 H 193.011 3.01407 2.49538 0
M  V30 2066 H 192.634 1.69809 3.59514 0
M  V30 2067 N 193.631 -1.12557 1.10312 0
M  V30 2068 C 194.578 -2.18247 0.750781 0
M  V30 2069 C 195.548 -1.63853 -0.272293 0
M  V30 2070 O 196.733 -1.90195 -0.151862 0
M  V30 2071 C 193.873 -3.44591 0.187379 0
M  V30 2072 C 192.986 -4.13046 1.2656 0
M  V30 2073 C 192.121 -5.27034 0.663978 0
M  V30 2074 C 191.16 -5.87353 1.72287 0
M  V30 2075 N 190.297 -6.92757 1.1416 0
M  V30 2076 H 195.137 -2.47732 1.65628 0
M  V30 2077 H 192.674 -1.21629 0.827337 0
M  V30 2078 H 194.632 -4.16904 -0.157148 0
M  V30 2079 H 193.262 -3.15527 -0.681355 0
M  V30 2080 H 192.314 -3.38924 1.72727 0
M  V30 2081 H 193.626 -4.53947 2.06721 0
M  V30 2082 H 192.78 -6.06104 0.268824 0
M  V30 2083 H 191.519 -4.87407 -0.169082 0
M  V30 2084 H 190.524 -5.06971 2.12746 0
M  V30 2085 H 191.749 -6.29051 2.55875 0
M  V30 2086 H 189.695 -6.5517 0.329984 0
M  V30 2087 H 189.612 -7.3225 1.88007 0
M  V30 2088 H 190.88 -7.75658 0.772956 0
M  V30 2089 N 195.109 -0.891671 -1.2995 0
M  V30 2090 C 196.019 -0.367691 -2.31701 0
M  V30 2091 C 197.035 0.533486 -1.6562 0
M  V30 2092 O 198.211 0.424997 -1.96865 0
M  V30 2093 C 195.276 0.403406 -3.44345 0
M  V30 2094 C 194.337 -0.528328 -4.26037 0
M  V30 2095 C 193.57 0.206063 -5.33302 0
M  V30 2096 O 193.793 1.43119 -5.52153 0
M  V30 2097 O 192.727 -0.447281 -6.00236 0
M  V30 2098 H 196.553 -1.21163 -2.78484 0
M  V30 2099 H 194.138 -0.655725 -1.34241 0
M  V30 2100 H 196.02 0.839753 -4.12948 0
M  V30 2101 H 194.695 1.22354 -2.99685 0
M  V30 2102 H 193.602 -1.01362 -3.60106 0
M  V30 2103 H 194.935 -1.31465 -4.74318 0
M  V30 2104 N 196.587 1.43421 -0.653314 0
M  V30 2105 C 197.833 2.02111 -0.166992 0
M  V30 2106 C 198.166 1.51423 1.21592 0
M  V30 2107 O 197.441 0.707389 1.8118 0
M  V30 2108 C 197.724 3.5966 -0.177948 0
M  V30 2109 C 197.577 4.20579 -1.59478 0
M  V30 2110 C 198.896 4.37413 0.4856 0
M  V30 2111 H 196.015 0.734374 -0.0621557 0
M  V30 2112 H 198.657 1.70717 -0.834016 0
M  V30 2113 H 196.807 3.86537 0.390032 0
M  V30 2114 H 198.479 4.04732 -2.21336 0
M  V30 2115 H 196.722 3.77226 -2.14204 0
M  V30 2116 H 197.393 5.29665 -1.5543 0
M  V30 2117 H 199.869 4.161 0.00234528 0
M  V30 2118 H 198.745 5.47075 0.447207 0
M  V30 2119 H 199.006 4.13672 1.55974 0
M  V30 2120 N 198.065 0.39524 1.52563 0
M  V30 2121 C 199.311 -0.185318 2.01952 0
M  V30 2122 C 199.644 -1.45964 1.28095 0
M  V30 2123 O 198.919 -1.90689 0.38315 0
M  V30 2124 C 199.202 -0.447193 3.57312 0
M  V30 2125 C 199.055 0.842828 4.41833 0
M  V30 2126 C 200.374 -1.23529 4.22408 0
M  V30 2127 H 197.493 -0.0658788 0.73405 0
M  V30 2128 H 200.135 0.525975 1.82575 0
M  V30 2129 H 198.285 -1.05312 3.73954 0
M  V30 2130 H 199.957 1.4795 4.36931 0
M  V30 2131 H 198.2 1.45686 4.08605 0
M  V30 2132 H 198.871 0.614165 5.48573 0
M  V30 2133 H 201.347 -0.722445 4.0978 0
M  V30 2134 H 200.223 -1.38727 5.3108 0
M  V30 2135 H 200.484 -2.25213 3.80436 0
M  V30 2136 N 199.544 -1.57102 0.125237 0
M  V30 2137 C 200.791 -1.95407 -0.531248 0
M  V30 2138 C 201.119 -1.0089 -1.66287 0
M  V30 2139 O 200.374 -0.0339431 -1.95671 0
M  V30 2140 C 200.673 -3.40096 -1.09862 0
M  V30 2141 C 200.339 -4.50815 -0.0876989 0
M  V30 2142 C 199.001 -4.80824 0.19026 0
M  V30 2143 C 201.353 -5.17724 0.600902 0
M  V30 2144 C 198.681 -5.75058 1.163 0
M  V30 2145 C 201.033 -6.13005 1.56231 0
M  V30 2146 C 199.697 -6.41403 1.8482 0
M  V30 2147 H 198.967 -0.715046 -0.194397 0
M  V30 2148 H 201.614 -1.90373 0.207463 0
M  V30 2149 H 199.919 -3.41855 -1.91422 0
M  V30 2150 H 201.616 -3.6705 -1.61478 0
M  V30 2151 H 198.206 -4.27444 -0.314528 0
M  V30 2152 H 202.39 -4.94691 0.399333 0
M  V30 2153 H 197.646 -5.95362 1.39117 0
M  V30 2154 H 201.82 -6.63934 2.10153 0
M  V30 2155 H 199.447 -7.14229 2.60349 0
M  V30 2156 N 201.022 0.148545 -1.56898 0
M  V30 2157 C 202.433 0.708766 -1.72723 0
M  V30 2158 C 202.784 1.81734 -0.739395 0
M  V30 2159 O 201.909 2.16194 0.0943169 0
M  V30 2160 C 202.504 1.29245 -3.13179 0
M  V30 2161 C 201.063 1.79925 -3.30611 0
M  V30 2162 C 200.21 0.687111 -2.68652 0
M  V30 2163 H 203.161 -0.0771063 -1.58513 0
M  V30 2164 H 203.182 2.16224 -3.13093 0
M  V30 2165 H 202.694 0.485382 -3.85053 0
M  V30 2166 H 200.795 2.63203 -2.63732 0
M  V30 2167 H 200.908 1.92903 -4.38549 0
M  V30 2168 H 199.272 1.11335 -2.29078 0
M  V30 2169 H 200.055 -0.108483 -3.43129 0
M  V30 2170 N 202.5 1.5196 0.417844 0
M  V30 2171 C 203.43 1.77634 1.51554 0
M  V30 2172 C 204.411 0.626918 1.58126 0
M  V30 2173 O 205.596 0.871632 1.7354 0
M  V30 2174 C 202.726 1.91911 2.8946 0
M  V30 2175 C 201.68 3.07463 2.97743 0
M  V30 2176 C 201.006 3.06951 4.37819 0
M  V30 2177 C 202.306 4.47082 2.70027 0
M  V30 2178 H 204 2.6955 1.3032 0
M  V30 2179 H 201.546 1.29706 0.625492 0
M  V30 2180 H 203.499 2.08455 3.6623 0
M  V30 2181 H 202.223 0.966598 3.11969 0
M  V30 2182 H 200.882 2.90656 2.23416 0
M  V30 2183 H 200.53 2.09438 4.57323 0
M  V30 2184 H 200.23 3.84556 4.44286 0
M  V30 2185 H 201.754 3.25613 5.16535 0
M  V30 2186 H 203.168 4.6414 3.36522 0
M  V30 2187 H 201.565 5.2654 2.87881 0
M  V30 2188 H 202.635 4.55777 1.65514 0
M  V30 2189 N 203.978 -0.674533 1.42435 0
M  V30 2190 C 205.255 -1.4305 1.33402 0
M  V30 2191 C 205.635 -2.11081 -0.0284674 0
M  V30 2192 O 204.983 -2.03257 -1.04397 0
M  V30 2193 C 205.193 -2.43272 2.50239 0
M  V30 2194 C 206.541 -3.07907 2.92367 0
M  V30 2195 O 207.565 -2.53599 2.50132 0
M  V30 2196 O 206.424 -4.0632 3.65467 0
M  V30 2197 H 203.518 -0.638076 0.526106 0
M  V30 2198 H 206.064 -0.703235 1.54443 0
M  V30 2199 H 204.836 -1.91803 3.41068 0
M  V30 2200 H 204.459 -3.23479 2.31186 0
M  V30 2201 N 205.456 -1.28612 -0.910864 0
M  V30 2202 C 206.705 -1.15311 -1.65488 0
M  V30 2203 C 207.018 0.296999 -1.93332 0
M  V30 2204 O 208.224 0.551168 -2.65847 0
M  V30 2205 C 206.68 -2.01599 -2.98137 0
M  V30 2206 C 206.288 -3.51367 -2.7793 0
M  V30 2207 C 208.032 -1.96993 -3.76024 0
M  V30 2208 C 205.939 -4.29797 -4.06237 0
M  V30 2209 H 204.869 -0.42796 -0.620779 0
M  V30 2210 H 207.52 -1.53166 -1.01057 0
M  V30 2211 H 205.902 -1.56603 -3.63719 0
M  V30 2212 H 207.076 -4.0434 -2.21011 0
M  V30 2213 H 205.391 -3.57529 -2.13452 0
M  V30 2214 H 207.988 -2.52856 -4.71135 0
M  V30 2215 H 208.331 -0.94733 -4.05378 0
M  V30 2216 H 208.864 -2.39973 -3.17266 0
M  V30 2217 H 205.603 -5.32648 -3.82055 0
M  V30 2218 H 205.123 -3.81596 -4.62757 0
M  V30 2219 H 206.802 -4.39869 -4.74473 0
M  V30 2220 N 206.934 1.1197 -1.10907 0
M  V30 2221 C 208.182 1.83225 -0.852819 0
M  V30 2222 C 208.503 1.84769 0.623341 0
M  V30 2223 O 207.773 1.3143 1.45269 0
M  V30 2224 H 206.353 0.67849 -0.312507 0
M  V30 2225 H 209.015 1.3556 -1.40033 0
M  V30 2226 H 208.111 2.87265 -1.22005 0
M  V30 2227 N 208.412 0.89855 1.29475 0
M  V30 2228 C 209.661 0.519863 1.94885 0
M  V30 2229 C 209.974 -0.9383 1.71625 0
M  V30 2230 O 211.18 -1.42445 2.31131 0
M  V30 2231 C 209.636 0.878836 3.49005 0
M  V30 2232 C 209.244 2.35569 3.81066 0
M  V30 2233 C 210.988 0.570004 4.20656 0
M  V30 2234 C 208.895 2.65558 5.28425 0
M  V30 2235 H 207.825 0.190692 0.729488 0
M  V30 2236 H 210.476 1.09539 1.47219 0
M  V30 2237 H 208.858 0.232253 3.95318 0
M  V30 2238 H 210.032 3.04773 3.45616 0
M  V30 2239 H 208.347 2.63343 3.22552 0
M  V30 2240 H 210.944 0.770925 5.29113 0
M  V30 2241 H 211.287 -0.491404 4.1339 0
M  V30 2242 H 211.82 1.17438 3.8007 0
M  V30 2243 H 208.559 3.70493 5.40754 0
M  V30 2244 H 208.079 2.00977 5.65127 0
M  V30 2245 H 209.758 2.51765 5.96006 0
M  V30 2246 N 209.89 -1.43072 0.660911 0
M  V30 2247 C 211.136 -2.0202 0.177708 0
M  V30 2248 C 211.469 -1.52066 -1.20787 0
M  V30 2249 O 210.744 -0.716987 -1.80802 0
M  V30 2250 C 211.027 -3.59561 0.197019 0
M  V30 2251 C 210.88 -4.19727 1.61706 0
M  V30 2252 C 212.199 -4.37664 -0.462396 0
M  V30 2253 H 209.318 -0.734034 0.0660494 0
M  V30 2254 H 211.96 -1.70272 0.843058 0
M  V30 2255 H 210.11 -3.86739 -0.369527 0
M  V30 2256 H 211.782 -4.03553 2.23479 0
M  V30 2257 H 210.025 -3.76084 2.16201 0
M  V30 2258 H 210.696 -5.28834 1.58237 0
M  V30 2259 H 213.172 -4.16095 0.0197215 0
M  V30 2260 H 212.048 -5.47305 -0.418188 0
M  V30 2261 H 212.309 -4.14493 -1.53778 0
M  V30 2262 N 211.368 -0.403325 -1.52352 0
M  V30 2263 C 212.616 0.174003 -2.0135 0
M  V30 2264 C 212.937 1.46139 -1.29106 0
M  V30 2265 O 212.207 1.91448 -0.415253 0
M  V30 2266 H 210.787 0.0672911 -0.743963 0
M  V30 2267 H 213.449 -0.538235 -1.87321 0
M  V30 2268 H 212.545 0.374254 -3.09848 0
M  V30 2269 N 212.846 1.57033 -0.133567 0
M  V30 2270 C 214.092 1.96764 0.515326 0
M  V30 2271 C 214.447 1.01653 1.63353 0
M  V30 2272 O 213.74 0.0491374 1.91537 0
M  V30 2273 C 213.934 3.40674 1.08057 0
M  V30 2274 C 213.763 4.49696 0.0186522 0
M  V30 2275 C 212.533 5.03567 -0.418174 0
M  V30 2276 C 214.731 5.08536 -0.767809 0
M  V30 2277 N 212.713 5.9618 -1.46434 0
M  V30 2278 C 214.084 5.97231 -1.6648 0
M  V30 2279 C 216.139 4.9115 -0.817087 0
M  V30 2280 C 214.842 6.70401 -2.60681 0
M  V30 2281 C 216.868 5.65012 -1.74687 0
M  V30 2282 C 216.23 6.53403 -2.63141 0
M  V30 2283 H 212.329 0.765919 0.157771 0
M  V30 2284 H 214.913 1.93395 -0.22506 0
M  V30 2285 H 213.084 3.44662 1.79061 0
M  V30 2286 H 214.816 3.67495 1.69497 0
M  V30 2287 H 211.571 4.73594 -0.0229803 0
M  V30 2288 H 211.995 6.47191 -1.98678 0
M  V30 2289 H 216.637 4.22543 -0.147326 0
M  V30 2290 H 214.355 7.38245 -3.28664 0
M  V30 2291 H 217.941 5.53559 -1.79063 0
M  V30 2292 H 216.821 7.09556 -3.33917 0
M  V30 2293 N 214.325 -0.140222 1.56975 0
M  V30 2294 C 215.288 -1.15689 1.97861 0
M  V30 2295 C 216.288 -1.3549 0.865974 0
M  V30 2296 O 217.478 -1.32367 1.13246 0
M  V30 2297 C 214.61 -2.51582 2.30042 0
M  V30 2298 H 215.803 -0.805971 2.88867 0
M  V30 2299 H 213.356 -0.383801 1.51515 0
M  V30 2300 H 214.091 -2.91632 1.41849 0
M  V30 2301 H 213.876 -2.38569 3.11171 0
M  V30 2302 H 215.366 -3.24792 2.62488 0
M  V30 2303 N 215.803 -1.52179 -0.40978 0
M  V30 2304 C 216.766 -1.74853 -1.48186 0
M  V30 2305 C 217.766 -0.618417 -1.48433 0
M  V30 2306 O 218.956 -0.886286 -1.49969 0
M  V30 2307 C 216.088 -1.8303 -2.87598 0
M  V30 2308 H 217.281 -2.70559 -1.29374 0
M  V30 2309 H 214.834 -1.42586 -0.640233 0
M  V30 2310 H 215.569 -0.89236 -3.11781 0
M  V30 2311 H 215.354 -2.65187 -2.88822 0
M  V30 2312 H 216.844 -2.02316 -3.65319 0
M  V30 2313 N 217.281 0.66697 -1.42791 0
M  V30 2314 C 218.231 1.77313 -1.43332 0
M  V30 2315 C 219.215 1.5801 -0.303586 0
M  V30 2316 O 220.407 1.68356 -0.546385 0
M  V30 2317 C 217.536 3.15822 -1.34578 0
M  V30 2318 C 216.622 3.40721 -2.52528 0
M  V30 2319 N 217.013 3.36162 -3.77927 0
M  V30 2320 C 215.311 3.71387 -2.46956 0
M  V30 2321 C 216.012 3.60762 -4.56318 0
M  V30 2322 N 214.988 3.81908 -3.86843 0
M  V30 2323 H 218.79 1.72193 -2.38174 0
M  V30 2324 H 216.304 0.868114 -1.3725 0
M  V30 2325 H 218.301 3.951 -1.33048 0
M  V30 2326 H 216.961 3.22133 -0.407453 0
M  V30 2327 H 217.972 3.15885 -4.10411 0
M  V30 2328 H 214.649 3.84897 -1.61743 0
M  V30 2329 H 216.039 3.63132 -5.65318 0
M  V30 2330 N 218.759 1.29093 0.90403 0
M  V30 2331 C 219.987 1.19689 1.68766 0
M  V30 2332 C 220.402 -0.243113 1.87228 0
M  V30 2333 O 219.759 -1.16326 1.40621 0
M  V30 2334 C 219.81 1.90144 3.07453 0
M  V30 2335 O 219.531 3.2852 2.89838 0
M  V30 2336 C 221.032 1.87162 4.01852 0
M  V30 2337 H 218.252 0.415035 0.527244 0
M  V30 2338 H 220.796 1.7039 1.13082 0
M  V30 2339 H 218.951 1.43289 3.59926 0
M  V30 2340 H 219.365 3.63944 3.77684 0
M  V30 2341 H 220.839 2.41032 4.96596 0
M  V30 2342 H 221.316 0.84617 4.30972 0
M  V30 2343 H 221.922 2.33741 3.5531 0
M  V30 2344 N 220.237 -1.11381 1.11499 0
M  V30 2345 C 221.184 -2.17439 0.773887 0
M  V30 2346 C 222.154 -1.64132 -0.254899 0
M  V30 2347 O 223.339 -1.90345 -0.13168 0
M  V30 2348 C 220.479 -3.44373 0.223917 0
M  V30 2349 C 219.592 -4.1168 1.30934 0
M  V30 2350 C 218.727 -5.263 0.71984 0
M  V30 2351 C 217.766 -5.85493 1.78507 0
M  V30 2352 N 216.903 -6.91507 1.21502 0
M  V30 2353 H 221.743 -2.45962 1.68246 0
M  V30 2354 H 219.28 -1.20744 0.840191 0
M  V30 2355 H 221.238 -4.17047 -0.112921 0
M  V30 2356 H 219.868 -3.16232 -0.647851 0
M  V30 2357 H 218.92 -3.37073 1.76312 0
M  V30 2358 H 220.232 -4.51729 2.11524 0
M  V30 2359 H 219.386 -6.05785 0.333094 0
M  V30 2360 H 218.125 -4.87559 -0.117377 0
M  V30 2361 H 217.13 -5.04686 2.18111 0
M  V30 2362 H 218.355 -6.26301 2.62533 0
M  V30 2363 H 216.301 -6.54783 0.399455 0
M  V30 2364 H 216.218 -7.30214 1.95763 0
M  V30 2365 H 217.486 -7.74795 0.855181 0
M  V30 2366 N 221.715 -0.905404 -1.28997 0
M  V30 2367 C 222.662 -0.385892 -2.27551 0
M  V30 2368 C 223.632 0.535113 -1.57244 0
M  V30 2369 O 224.817 0.459119 -1.85194 0
M  V30 2370 C 221.957 0.375461 -3.43051 0
M  V30 2371 C 221.07 -0.577092 -4.28128 0
M  V30 2372 C 220.205 0.201879 -5.30816 0
M  V30 2373 C 219.244 -0.744829 -6.07551 0
M  V30 2374 N 218.381 9.42587e-05 -7.021 0
M  V30 2375 H 223.221 -1.23139 -2.71368 0
M  V30 2376 H 220.758 -0.618542 -1.33463 0
M  V30 2377 H 222.716 0.832992 -4.088 0
M  V30 2378 H 221.346 1.18537 -3.00248 0
M  V30 2379 H 220.398 -1.15315 -3.62501 0
M  V30 2380 H 221.71 -1.30152 -4.8152 0
M  V30 2381 H 220.864 0.720351 -6.02408 0
M  V30 2382 H 219.603 0.959413 -4.7817 0
M  V30 2383 H 218.608 -1.27475 -5.34818 0
M  V30 2384 H 219.833 -1.50178 -6.62286 0
M  V30 2385 H 217.779 0.739791 -6.51815 0
M  V30 2386 H 217.696 -0.664321 -7.53076 0
M  V30 2387 H 218.964 0.498644 -7.77903 0
M  V30 2388 N 223.193 1.4272 -0.668489 0
M  V30 2389 C 224.421 2.05966 -0.196348 0
M  V30 2390 C 224.836 1.50191 1.14403 0
M  V30 2391 O 224.193 0.639208 1.7094 0
M  V30 2392 C 224.244 3.61314 -0.115815 0
M  V30 2393 O 223.965 4.1502 -1.40322 0
M  V30 2394 C 225.466 4.41663 0.380579 0
M  V30 2395 H 222.686 0.663954 -0.0969829 0
M  V30 2396 H 225.23 1.82966 -0.913446 0
M  V30 2397 H 223.385 3.83448 0.551931 0
M  V30 2398 H 223.799 5.08832 -1.27243 0
M  V30 2399 H 225.273 5.5065 0.385848 0
M  V30 2400 H 225.75 4.15792 1.41471 0
M  V30 2401 H 226.356 4.24534 -0.255209 0
M  V30 2402 N 224.671 0.411399 1.52136 0
M  V30 2403 C 225.621 -0.430376 2.23901 0
M  V30 2404 C 226.605 -1.0116 1.25121 0
M  V30 2405 O 227.797 -0.934044 1.50348 0
M  V30 2406 C 224.926 -1.54527 3.06556 0
M  V30 2407 C 224.012 -0.9747 4.12747 0
M  V30 2408 N 224.403 -0.130991 5.0563 0
M  V30 2409 C 222.701 -1.24497 4.28271 0
M  V30 2410 C 223.402 0.186689 5.814 0
M  V30 2411 N 222.378 -0.42304 5.41951 0
M  V30 2412 H 226.18 0.220509 2.93072 0
M  V30 2413 H 223.694 0.221952 1.60876 0
M  V30 2414 H 225.691 -2.16093 3.56524 0
M  V30 2415 H 224.351 -2.19875 2.38925 0
M  V30 2416 H 225.362 0.23349 5.17373 0
M  V30 2417 H 222.039 -1.89787 3.7187 0
M  V30 2418 H 223.429 0.871673 6.66222 0
M  V30 2419 N 226.149 -1.5696 0.141893 0
M  V30 2420 C 227.097 -2.17784 -0.816874 0
M  V30 2421 C 228.091 -1.1334 -1.25899 0
M  V30 2422 O 229.297 -1.316 -1.22806 0
M  V30 2423 H 225.672 -0.697278 -0.281615 0
M  V30 2424 H 227.643 -2.97087 -0.279621 0
M  V30 2425 C 226.392 -2.80983 -2.04802 0
M  V30 2426 H 225.715 -3.61062 -1.7168 0
M  V30 2427 H 227.155 -3.2705 -2.69841 0
M  V30 2428 C 225.614 -1.79228 -2.8527 0
M  V30 2429 O 226.144 -1.25962 -3.8144 0
M  V30 2430 N 224.35 -1.48647 -2.49704 0
M  V30 2431 H 223.897 -1.92155 -1.71564 0
M  V30 2432 H 223.855 -0.808115 -3.03837 0
M  V30 2433 N 227.627 0.131896 -1.57047 0
M  V30 2434 C 228.873 0.843179 -1.84441 0
M  V30 2435 C 229.206 1.80129 -0.725749 0
M  V30 2436 O 228.481 1.92624 0.269469 0
M  V30 2437 C 228.764 1.60442 -3.22382 0
M  V30 2438 C 228.617 0.666782 -4.4483 0
M  V30 2439 C 229.936 2.56354 -3.5773 0
M  V30 2440 H 227.055 0.305081 -0.670891 0
M  V30 2441 H 229.697 0.107839 -1.89694 0
M  V30 2442 H 227.847 2.23128 -3.18035 0
M  V30 2443 H 229.519 0.0497646 -4.61273 0
M  V30 2444 H 227.762 -0.022609 -4.33794 0
M  V30 2445 H 228.433 1.23579 -5.37989 0
M  V30 2446 H 230.909 2.0378 -3.62785 0
M  V30 2447 H 229.785 3.06657 -4.5525 0
M  V30 2448 H 230.046 3.38419 -2.84473 0
M  V30 2449 N 229.106 1.52395 0.401703 0
M  V30 2450 C 230.517 1.58899 0.980202 0
M  V30 2451 C 230.868 0.434032 1.91339 0
M  V30 2452 O 229.993 -0.444619 2.11783 0
M  V30 2453 C 230.588 2.87994 1.78451 0
M  V30 2454 C 229.147 2.96953 2.31292 0
M  V30 2455 C 228.294 2.53903 1.11483 0
M  V30 2456 H 231.245 1.57657 0.18168 0
M  V30 2457 H 231.266 2.73765 2.64259 0
M  V30 2458 H 230.778 3.72035 1.10506 0
M  V30 2459 H 228.879 2.17422 3.02586 0
M  V30 2460 H 228.992 4.01344 2.61649 0
M  V30 2461 H 227.356 2.07925 1.47104 0
M  V30 2462 H 228.139 3.40326 0.450928 0
M  V30 2463 N 230.584 -0.659388 1.43143 0
M  V30 2464 C 231.861 -1.41627 1.34912 0
M  V30 2465 C 232.241 -2.11099 -0.00607785 0
M  V30 2466 O 231.589 -2.04353 -1.02236 0
M  V30 2467 C 231.799 -2.40604 2.52805 0
M  V30 2468 C 233.147 -3.04789 2.95616 0
M  V30 2469 O 234.171 -2.50932 2.52807 0
M  V30 2470 O 233.03 -4.02421 3.69756 0
M  V30 2471 H 230.124 -0.63246 0.532844 0
M  V30 2472 H 232.67 -0.686814 1.5518 0
M  V30 2473 H 231.442 -1.88174 3.43083 0
M  V30 2474 H 231.065 -3.21009 2.34604 0
M  V30 2475 N 232.062 -1.29571 -0.897171 0
M  V30 2476 C 233.308 -1.17863 -1.65034 0
M  V30 2477 C 233.641 0.268729 -1.92332 0
M  V30 2478 O 232.916 1.19378 -1.53555 0
M  V30 2479 C 233.199 -1.995 -2.99786 0
M  V30 2480 C 233.052 -3.5239 -2.79538 0
M  V30 2481 C 234.371 -1.82335 -4.00552 0
M  V30 2482 H 231.49 -0.429528 -0.598895 0
M  V30 2483 H 234.132 -1.59072 -1.03905 0
M  V30 2484 H 232.282 -1.64485 -3.51962 0
M  V30 2485 H 233.954 -3.97401 -2.34244 0
M  V30 2486 H 232.197 -3.77187 -2.14273 0
M  V30 2487 H 232.868 -4.04787 -3.75302 0
M  V30 2488 H 235.344 -2.12924 -3.57495 0
M  V30 2489 H 234.22 -2.41801 -4.92771 0
M  V30 2490 H 234.481 -0.779209 -4.35179 0
M  V30 2491 N 233.54 1.10788 -1.12088 0
M  V30 2492 C 234.487 2.17025 -0.785407 0
M  V30 2493 C 235.457 1.64265 0.246191 0
M  V30 2494 O 236.642 1.90412 0.121584 0
M  V30 2495 C 233.782 3.44249 -0.242177 0
M  V30 2496 C 232.895 4.1098 -1.33115 0
M  V30 2497 C 232.03 5.25911 -0.747741 0
M  V30 2498 C 231.069 5.84538 -1.81609 0
M  V30 2499 N 230.206 6.90853 -1.25167 0
M  V30 2500 H 235.046 2.45066 -1.69548 0
M  V30 2501 H 232.583 1.20297 -0.846582 0
M  V30 2502 H 234.541 4.17101 0.0908026 0
M  V30 2503 H 233.171 3.16571 0.631072 0
M  V30 2504 H 232.223 3.36133 -1.78097 0
M  V30 2505 H 233.535 4.50601 -2.13917 0
M  V30 2506 H 232.689 6.056 -0.365216 0
M  V30 2507 H 231.428 4.87614 0.0915188 0
M  V30 2508 H 230.433 5.03522 -2.20785 0
M  V30 2509 H 231.658 6.249 -2.6585 0
M  V30 2510 H 229.604 6.54562 -0.434174 0
M  V30 2511 H 229.521 7.29166 -1.99633 0
M  V30 2512 H 230.789 7.7433 -0.896259 0
M  V30 2513 N 235.018 0.912232 1.28515 0
M  V30 2514 C 235.965 0.397954 2.27343 0
M  V30 2515 C 236.935 -0.526766 1.57526 0
M  V30 2516 O 238.12 -0.449292 1.85435 0
M  V30 2517 C 235.26 -0.357263 3.43246 0
M  V30 2518 C 234.373 0.599788 4.27816 0
M  V30 2519 C 233.508 -0.173725 5.30916 0
M  V30 2520 C 232.547 0.777039 6.07148 0
M  V30 2521 N 231.684 0.0371398 7.0209 0
M  V30 2522 H 236.524 1.24577 2.70711 0
M  V30 2523 H 234.061 0.625612 1.33133 0
M  V30 2524 H 236.019 -0.8113 4.09236 0
M  V30 2525 H 234.649 -1.16943 3.00872 0
M  V30 2526 H 233.701 1.17235 3.61884 0
M  V30 2527 H 235.013 1.32704 4.80823 0
M  V30 2528 H 234.167 -0.688394 6.02782 0
M  V30 2529 H 232.906 -0.934041 4.78672 0
M  V30 2530 H 231.911 1.3031 5.34134 0
M  V30 2531 H 233.136 1.53689 6.61481 0
M  V30 2532 H 231.082 -0.705213 6.52198 0
M  V30 2533 H 230.999 0.704249 7.52713 0
M  V30 2534 H 232.267 -0.457383 7.78157 0
M  V30 2535 N 236.496 -1.42363 0.676048 0
M  V30 2536 C 237.444 -2.32596 -0.0131507 0
M  V30 2537 C 238.438 -1.49891 -0.789238 0
M  V30 2538 O 239.644 -1.65955 -0.697061 0
M  V30 2539 H 236.019 -0.751647 -0.0230481 0
M  V30 2540 H 237.99 -2.88421 0.765243 0
M  V30 2541 C 236.739 -3.34479 -0.949702 0
M  V30 2542 H 236.062 -3.98158 -0.361938 0
M  V30 2543 H 237.502 -4.00199 -1.4006 0
M  V30 2544 C 235.961 -2.66838 -2.05667 0
M  V30 2545 O 236.491 -2.50124 -3.14326 0
M  V30 2546 N 234.697 -2.25843 -1.82875 0
M  V30 2547 H 234.244 -2.39637 -0.945085 0
M  V30 2548 H 234.202 -1.80918 -2.5713 0
M  V30 2549 N 237.974 -0.419461 -1.51915 0
M  V30 2550 C 239.199 0.154572 -2.06823 0
M  V30 2551 C 239.624 1.3722 -1.28656 0
M  V30 2552 O 238.982 1.78461 -0.319583 0
M  V30 2553 C 239.03 0.473172 -3.57482 0
M  V30 2554 O 238.134 1.56255 -3.81652 0
M  V30 2555 H 237.475 0.0096924 -0.663929 0
M  V30 2556 H 240.005 -0.595642 -1.95738 0
M  V30 2557 H 240.015 0.728825 -4.01438 0
M  V30 2558 H 238.69 -0.416873 -4.13805 0
M  V30 2559 H 237.267 1.29825 -3.49571 0
M  V30 2560 N 239.452 1.56882 -0.150215 0
M  V30 2561 C 240.402 2.13501 0.800071 0
M  V30 2562 C 241.386 1.06368 1.20726 0
M  V30 2563 O 242.578 1.32538 1.17314 0
M  V30 2564 C 239.707 2.76271 2.03787 0
M  V30 2565 C 238.793 3.90533 1.65364 0
M  V30 2566 N 239.184 4.96259 0.977794 0
M  V30 2567 C 237.482 4.013 1.94613 0
M  V30 2568 C 238.183 5.76286 0.791794 0
M  V30 2569 N 237.159 5.27163 1.32666 0
M  V30 2570 H 240.961 2.92615 0.274517 0
M  V30 2571 H 238.475 1.62319 0.0512144 0
M  V30 2572 H 240.472 3.15197 2.72867 0
M  V30 2573 H 239.132 1.98631 2.56857 0
M  V30 2574 H 240.143 5.13953 0.638193 0
M  V30 2575 H 236.82 3.3474 2.4951 0
M  V30 2576 H 238.21 6.71401 0.258894 0
M  V30 2577 N 240.93 -0.123565 1.57115 0
M  V30 2578 C 242.177 -0.832153 1.84612 0
M  V30 2579 C 242.505 -1.80093 0.734627 0
M  V30 2580 O 241.76 -1.93766 -0.27442 0
M  V30 2581 C 242.059 -1.62016 3.18568 0
M  V30 2582 C 241.725 -0.796084 4.43817 0
M  V30 2583 C 240.387 -0.568816 4.77826 0
M  V30 2584 C 242.739 -0.221364 5.2073 0
M  V30 2585 C 240.067 0.243499 5.86194 0
M  V30 2586 C 242.419 0.578117 6.29953 0
M  V30 2587 C 241.083 0.815744 6.62497 0
M  V30 2588 H 240.353 -0.304507 0.675542 0
M  V30 2589 H 243 -0.0947248 1.91266 0
M  V30 2590 H 241.305 -2.42837 3.0747 0
M  V30 2591 H 243.002 -2.17231 3.37064 0
M  V30 2592 H 239.592 -0.983307 4.17168 0
M  V30 2593 H 243.776 -0.384173 4.94811 0
M  V30 2594 H 239.032 0.436871 6.09837 0
M  V30 2595 H 243.206 1.03046 6.88734 0
M  V30 2596 H 240.833 1.44701 7.46301 0
M  V30 2597 N 242.408 -1.52605 -0.393616 0
M  V30 2598 C 243.633 -1.71592 -1.16495 0
M  V30 2599 C 244.058 -0.43133 -1.83088 0
M  V30 2600 O 243.416 0.612523 -1.7064 0
M  V30 2601 C 243.464 -2.86318 -2.19213 0
M  V30 2602 O 242.568 -2.52969 -3.257 0
M  V30 2603 H 241.909 -0.570734 -0.33935 0
M  V30 2604 H 244.439 -1.99377 -0.459324 0
M  V30 2605 H 244.449 -3.1168 -2.63286 0
M  V30 2606 H 243.124 -3.79511 -1.7013 0
M  V30 2607 H 241.701 -2.38332 -2.86797 0
M  V30 2608 N 243.887 0.651787 -1.4349 0
M  V30 2609 C 245.164 1.40909 -1.35661 0
M  V30 2610 C 245.544 2.11099 -0.00511733 0
M  V30 2611 O 244.892 2.04892 1.0115 0
M  V30 2612 C 245.102 2.3926 -2.54078 0
M  V30 2613 C 246.45 3.03217 -2.97228 0
M  V30 2614 O 247.474 2.49588 -2.54135 0
M  V30 2615 O 246.333 4.00455 -3.71885 0
M  V30 2616 H 243.427 0.629625 -0.536191 0
M  V30 2617 H 245.973 0.678575 -1.55542 0
M  V30 2618 H 244.745 1.86352 -3.44076 0
M  V30 2619 H 244.368 3.1976 -2.36303 0
M  V30 2620 N 245.365 1.30045 0.890287 0
M  V30 2621 C 246.612 1.18561 1.64163 0
M  V30 2622 C 246.94 -0.260852 1.92743 0
M  V30 2623 O 246.195 -1.20376 1.54299 0
M  V30 2624 C 246.494 1.95409 2.99249 0
M  V30 2625 C 246.16 3.45066 2.90242 0
M  V30 2626 C 244.822 3.85878 2.87492 0
M  V30 2627 C 247.174 4.4039 2.78758 0
M  V30 2628 C 244.502 5.20314 2.7109 0
M  V30 2629 C 246.854 5.74928 2.63894 0
M  V30 2630 C 245.518 6.14986 2.59516 0
M  V30 2631 H 244.788 0.433846 0.600715 0
M  V30 2632 H 247.435 1.61088 1.03552 0
M  V30 2633 H 245.74 1.45501 3.63781 0
M  V30 2634 H 247.437 1.8392 3.56334 0
M  V30 2635 H 244.027 3.12631 2.93189 0
M  V30 2636 H 248.211 4.09806 2.79952 0
M  V30 2637 H 243.467 5.50449 2.66112 0
M  V30 2638 H 247.641 6.48434 2.53981 0
M  V30 2639 H 245.268 7.19104 2.46565 0
M  V30 2640 N 246.843 -1.10192 1.12674 0
M  V30 2641 C 247.776 -2.15847 0.740625 0
M  V30 2642 C 248.754 -1.60352 -0.269421 0
M  V30 2643 O 249.938 -1.87796 -0.16278 0
M  V30 2644 C 247.065 -3.38562 0.096641 0
M  V30 2645 C 246.111 -4.12758 1.07391 0
M  V30 2646 S 246.944 -4.67997 2.60267 0
M  V30 2647 C 248.1 -5.94021 1.97206 0
M  V30 2648 H 248.333 -2.48266 1.63558 0
M  V30 2649 H 245.866 -1.22019 0.946087 0
M  V30 2650 H 247.824 -4.09621 -0.268535 0
M  V30 2651 H 246.485 -3.04377 -0.775462 0
M  V30 2652 H 245.678 -5.00755 0.570997 0
M  V30 2653 H 245.28 -3.47523 1.38216 0
M  V30 2654 H 247.572 -6.64589 1.31634 0
M  V30 2655 H 248.515 -6.48979 2.83253 0
M  V30 2656 H 248.923 -5.46169 1.42686 0
M  V30 2657 N 248.321 -0.919034 -1.28029 0
M  V30 2658 C 249.598 -0.473668 -1.89778 0
M  V30 2659 C 249.978 1.04783 -1.83259 0
M  V30 2660 O 249.326 1.8982 -1.27202 0
M  V30 2661 C 249.536 -1.00998 -3.34066 0
M  V30 2662 C 250.884 -1.06525 -4.1102 0
M  V30 2663 O 251.908 -0.958996 -3.43048 0
M  V30 2664 O 250.767 -1.22776 -5.3253 0
M  V30 2665 H 247.861 -0.15098 -0.813101 0
M  V30 2666 H 250.407 -1.01016 -1.36359 0
M  V30 2667 H 249.179 -2.05392 -3.33061 0
M  V30 2668 H 248.802 -0.454626 -3.94992 0
M  V30 2669 N 249.799 1.42003 -0.683588 0
M  V30 2670 C 250.746 2.30798 -0.0107309 0
M  V30 2671 C 251.716 1.4645 0.783688 0
M  V30 2672 O 252.901 1.75263 0.754156 0
M  V30 2673 C 250.041 3.3238 0.928306 0
M  V30 2674 C 249.154 4.31814 0.126776 0
M  V30 2675 C 248.289 5.20468 1.06236 0
M  V30 2676 C 247.328 6.11577 0.253035 0
M  V30 2677 N 246.465 6.92754 1.14179 0
M  V30 2678 H 251.305 2.8778 -0.773727 0
M  V30 2679 H 248.842 1.41745 -0.393283 0
M  V30 2680 H 250.8 3.89813 1.48666 0
M  V30 2681 H 249.43 2.76976 1.65783 0
M  V30 2682 H 248.482 3.76427 -0.54833 0
M  V30 2683 H 249.794 4.96276 -0.501192 0
M  V30 2684 H 248.948 5.82677 1.69035 0
M  V30 2685 H 247.687 4.56204 1.7242 0
M  V30 2686 H 246.692 5.48428 -0.388108 0
M  V30 2687 H 247.917 6.77892 -0.404839 0
M  V30 2688 H 245.863 6.3111 1.78987 0
M  V30 2689 H 245.78 7.53855 0.569111 0
M  V30 2690 H 247.048 7.59441 1.75697 0
M  V30 2691 N 251.277 0.427512 1.51691 0
M  V30 2692 C 252.209 -0.424521 2.25234 0
M  V30 2693 C 253.222 -0.994671 1.2888 0
M  V30 2694 O 254.411 -0.890483 1.54702 0
M  V30 2695 C 251.511 -1.60479 2.98496 0
M  V30 2696 C 250.684 -1.15527 4.21868 0
M  V30 2697 C 249.743 -2.20454 4.77793 0
M  V30 2698 O 248.769 -1.8029 5.39893 0
M  V30 2699 N 249.971 -3.52831 4.60967 0
M  V30 2700 H 252.736 0.205749 2.98993 0
M  V30 2701 H 250.297 0.255867 1.59865 0
M  V30 2702 H 252.289 -2.30276 3.32799 0
M  V30 2703 H 250.859 -2.14061 2.27809 0
M  V30 2704 H 250.079 -0.284736 3.9317 0
M  V30 2705 H 251.367 -0.832173 5.01949 0
M  V30 2706 H 250.765 -3.88201 4.11481 0
M  V30 2707 H 249.322 -4.18551 4.99658 0
M  V30 2708 N 252.755 -1.56801 0.158532 0
M  V30 2709 C 253.983 -2.00859 -0.496303 0
M  V30 2710 C 254.398 -1.03871 -1.57659 0
M  V30 2711 O 253.755 -0.0375165 -1.82461 0
M  V30 2712 C 253.806 -3.4479 -1.08638 0
M  V30 2713 O 253.527 -4.38072 -0.0492322 0
M  V30 2714 C 255.028 -4.04185 -1.8207 0
M  V30 2715 H 252.248 -0.65864 -0.128199 0
M  V30 2716 H 254.792 -2.02885 0.256506 0
M  V30 2717 H 252.947 -3.43579 -1.78975 0
M  V30 2718 H 253.361 -5.2227 -0.483102 0
M  V30 2719 H 254.835 -5.06857 -2.18633 0
M  V30 2720 H 255.312 -3.45549 -2.71095 0
M  V30 2721 H 255.918 -4.0906 -1.16405 0
M  V30 2722 N 254.233 0.115231 -1.57178 0
M  V30 2723 C 255.481 0.820727 -1.84685 0
M  V30 2724 C 255.802 1.80237 -0.744279 0
M  V30 2725 O 255.072 1.94529 0.231375 0
M  V30 2726 H 253.652 0.306084 -0.681411 0
M  V30 2727 H 256.314 0.101656 -1.94635 0
M  V30 2728 H 255.41 1.36366 -2.80733 0
M  V30 2729 N 255.711 1.52812 0.385517 0
M  V30 2730 C 256.941 1.71658 1.14966 0
M  V30 2731 C 257.349 0.436253 1.84102 0
M  V30 2732 O 256.692 -0.599313 1.73649 0
M  V30 2733 C 256.754 2.81309 2.23843 0
M  V30 2734 C 256.418 4.22313 1.74644 0
M  V30 2735 C 257.415 5.05352 1.22129 0
M  V30 2736 C 255.1 4.68648 1.80761 0
M  V30 2737 C 257.094 6.32807 0.763838 0
M  V30 2738 C 254.781 5.96086 1.34627 0
M  V30 2739 C 255.779 6.77996 0.825264 0
M  V30 2740 O 255.467 8.03045 0.370669 0
M  V30 2741 H 255.199 0.578022 0.350523 0
M  V30 2742 H 257.753 2.00263 0.456509 0
M  V30 2743 H 255.983 2.48133 2.96592 0
M  V30 2744 H 257.672 2.88524 2.85497 0
M  V30 2745 H 258.438 4.70736 1.16758 0
M  V30 2746 H 254.317 4.04979 2.20256 0
M  V30 2747 H 257.861 6.96689 0.356494 0
M  V30 2748 H 253.758 6.30205 1.39686 0
M  V30 2749 H 254.526 8.17021 0.491829 0
M  V30 2750 N 257.189 -0.644168 1.43834 0
M  V30 2751 C 258.435 -1.40603 1.46146 0
M  V30 2752 C 258.768 -1.93997 0.0887717 0
M  V30 2753 O 258.043 -1.72854 -0.891724 0
M  V30 2754 C 258.326 -2.58086 2.51124 0
M  V30 2755 C 258.179 -2.10126 3.97702 0
M  V30 2756 C 259.498 -3.60291 2.52742 0
M  V30 2757 H 256.617 -0.509905 0.532134 0
M  V30 2758 H 259.259 -0.729502 1.75437 0
M  V30 2759 H 257.409 -3.15801 2.26278 0
M  V30 2760 H 259.081 -1.57342 4.33637 0
M  V30 2761 H 257.324 -1.41419 4.10101 0
M  V30 2762 H 257.995 -2.94649 4.66783 0
M  V30 2763 H 260.471 -3.12352 2.7491 0
M  V30 2764 H 259.347 -4.40032 3.28121 0
M  V30 2765 H 259.608 -4.1349 1.56455 0
M  V30 2766 N 258.668 -1.30515 -0.883378 0
M  V30 2767 C 259.896 -1.22359 -1.66841 0
M  V30 2768 C 260.311 0.213296 -1.87591 0
M  V30 2769 O 259.668 1.14075 -1.42454 0
M  V30 2770 C 259.719 -1.95011 -3.04389 0
M  V30 2771 O 259.44 -3.3309 -2.84575 0
M  V30 2772 C 260.941 -1.93532 -3.98824 0
M  V30 2773 H 258.161 -0.423371 -0.520575 0
M  V30 2774 H 260.705 -1.72167 -1.10357 0
M  V30 2775 H 258.86 -1.48997 -3.57601 0
M  V30 2776 H 259.274 -3.69907 -3.71846 0
M  V30 2777 H 260.748 -2.48902 -4.92699 0
M  V30 2778 H 261.225 -0.914627 -4.29571 0
M  V30 2779 H 261.831 -2.39364 -3.51547 0
M  V30 2780 N 260.146 1.09593 -1.13257 0
M  V30 2781 C 261.093 2.1618 -0.808381 0
M  V30 2782 C 262.063 1.64517 0.228754 0
M  V30 2783 O 263.248 1.9053 0.101381 0
M  V30 2784 C 260.388 3.43973 -0.278675 0
M  V30 2785 C 259.501 4.09545 -1.37466 0
M  V30 2786 C 258.636 5.25088 -0.803479 0
M  V30 2787 C 257.675 5.82579 -1.87799 0
M  V30 2788 N 256.812 6.89486 -1.32488 0
M  V30 2789 H 261.652 2.43254 -1.72138 0
M  V30 2790 H 259.189 1.19392 -0.859294 0
M  V30 2791 H 261.147 4.17174 0.0465583 0
M  V30 2792 H 259.777 3.17223 0.597459 0
M  V30 2793 H 258.829 3.34226 -1.81652 0
M  V30 2794 H 260.141 4.48307 -2.18684 0
M  V30 2795 H 259.295 6.05178 -0.429427 0
M  V30 2796 H 258.034 4.87684 0.0397956 0
M  V30 2797 H 257.039 5.01152 -2.26113 0
M  V30 2798 H 258.264 6.22045 -2.72463 0
M  V30 2799 H 256.21 6.54064 -0.503575 0
M  V30 2800 H 256.127 7.27007 -2.07355 0
M  V30 2801 H 257.395 7.73336 -0.978336 0
M  V30 2802 N 261.624 0.925811 1.2754 0
M  V30 2803 C 262.572 0.413897 2.28888 0
M  V30 2804 C 263.566 -0.500779 1.61829 0
M  V30 2805 O 264.772 -0.38069 1.75928 0
M  V30 2806 H 261.147 0.115274 0.743112 0
M  V30 2807 H 263.118 1.28151 2.69481 0
M  V30 2808 C 261.867 -0.319792 3.46226 0
M  V30 2809 H 261.19 0.374846 3.98039 0
M  V30 2810 H 262.63 -0.642435 4.19105 0
M  V30 2811 C 261.089 -1.53209 3.00048 0
M  V30 2812 O 261.619 -2.6309 3.03557 0
M  V30 2813 N 259.825 -1.38326 2.55566 0
M  V30 2814 H 259.372 -0.489292 2.5291 0
M  V30 2815 H 259.33 -2.19564 2.25031 0
M  V30 2816 N 263.102 -1.41638 0.69111 0
M  V30 2817 C 264.032 -2.3347 0.037248 0
M  V30 2818 C 265.013 -1.51575 -0.771947 0
M  V30 2819 O 266.198 -1.80126 -0.72582 0
M  V30 2820 C 263.328 -3.35354 -0.903064 0
M  V30 2821 C 262.282 -4.27526 -0.201288 0
M  V30 2822 C 261.608 -5.19747 -1.25565 0
M  V30 2823 C 262.908 -5.13959 0.929689 0
M  V30 2824 H 264.602 -2.88397 0.804227 0
M  V30 2825 H 262.148 -1.38669 0.388189 0
M  V30 2826 H 264.101 -3.98519 -1.36969 0
M  V30 2827 H 262.825 -2.78767 -1.70166 0
M  V30 2828 H 261.484 -3.65779 0.245265 0
M  V30 2829 H 261.132 -4.59479 -2.04666 0
M  V30 2830 H 260.832 -5.8225 -0.791128 0
M  V30 2831 H 262.356 -5.85789 -1.72288 0
M  V30 2832 H 263.77 -5.70718 0.543546 0
M  V30 2833 H 262.167 -5.85379 1.32103 0
M  V30 2834 H 263.237 -4.51389 1.77133 0
M  V30 2835 N 264.58 -0.43555 -1.51462 0
M  V30 2836 C 265.51 0.367376 -2.30592 0
M  V30 2837 C 266.491 1.02263 -1.35928 0
M  V30 2838 O 267.676 1.02661 -1.64847 0
M  V30 2839 C 264.806 1.46983 -3.14664 0
M  V30 2840 C 263.76 0.938161 -4.17591 0
M  V30 2841 C 263.086 2.13622 -4.90173 0
M  V30 2842 C 264.386 -0.0261621 -5.22293 0
M  V30 2843 H 266.08 -0.292969 -2.97963 0
M  V30 2844 H 263.626 -0.14234 -1.43295 0
M  V30 2845 H 265.579 2.03873 -3.688 0
M  V30 2846 H 264.303 2.15843 -2.4511 0
M  V30 2847 H 262.962 0.391481 -3.64504 0
M  V30 2848 H 262.61 2.81098 -4.17124 0
M  V30 2849 H 262.31 1.78688 -5.59772 0
M  V30 2850 H 263.834 2.7107 -5.47132 0
M  V30 2851 H 265.248 0.452384 -5.71512 0
M  V30 2852 H 263.645 -0.287992 -5.99409 0
M  V30 2853 H 264.715 -0.963391 -4.75233 0
M  V30 2854 N 266.058 1.56714 -0.166846 0
M  V30 2855 C 267.021 2.16539 0.751232 0
M  V30 2856 C 268.021 1.11228 1.16125 0
M  V30 2857 O 269.211 1.36765 1.07894 0
M  V30 2858 C 266.343 2.74462 2.02196 0
M  V30 2859 H 267.536 2.99013 0.230499 0
M  V30 2860 H 265.089 1.56081 0.0826982 0
M  V30 2861 H 265.824 1.95709 2.58589 0
M  V30 2862 H 265.609 3.51527 1.73698 0
M  V30 2863 H 267.099 3.20489 2.67725 0
M  V30 2864 N 267.536 -0.106894 1.57237 0
M  V30 2865 C 268.764 -0.826389 1.8968 0
M  V30 2866 C 269.179 -1.72856 0.759353 0
M  V30 2867 O 268.536 -1.80503 -0.269263 0
M  V30 2868 C 268.587 -1.64967 3.21665 0
M  V30 2869 O 268.308 -0.783804 4.31031 0
M  V30 2870 C 269.809 -2.47326 3.67892 0
M  V30 2871 H 267.029 -0.236927 0.627779 0
M  V30 2872 H 269.573 -0.0876593 2.04312 0
M  V30 2873 H 267.728 -2.34103 3.08666 0
M  V30 2874 H 268.142 -1.35284 5.06753 0
M  V30 2875 H 269.616 -3.00604 4.6297 0
M  V30 2876 H 270.093 -3.25247 2.95146 0
M  V30 2877 H 270.699 -1.83411 3.83719 0
M  V30 2878 N 269.014 -1.53014 -0.377408 0
M  V30 2879 C 270.425 -1.60438 -0.954798 0
M  V30 2880 C 270.776 -0.464418 -1.90624 0
M  V30 2881 O 269.901 0.41087 -2.12464 0
M  V30 2882 C 270.496 -2.90797 -1.73847 0
M  V30 2883 C 269.055 -3.00595 -2.26538 0
M  V30 2884 C 268.202 -2.55645 -1.07429 0
M  V30 2885 H 271.153 -1.57926 -0.156575 0
M  V30 2886 H 271.174 -2.77935 -2.5987 0
M  V30 2887 H 270.686 -3.73746 -1.04574 0
M  V30 2888 H 268.787 -2.22208 -2.99089 0
M  V30 2889 H 268.9 -4.05456 -2.5523 0
M  V30 2890 H 267.264 -2.10239 -1.43777 0
M  V30 2891 H 268.047 -3.41 -0.396728 0
M  V30 2892 N 270.492 0.636531 -1.44174 0
M  V30 2893 C 271.741 1.39213 -1.45954 0
M  V30 2894 C 272.054 1.95374 -0.0939119 0
M  V30 2895 O 273.26 2.71498 0.0107767 0
M  V30 2896 C 271.716 2.52025 -2.56927 0
M  V30 2897 C 271.324 2.024 -3.99673 0
M  V30 2898 C 273.068 3.29269 -2.67922 0
M  V30 2899 C 270.975 3.12521 -5.0208 0
M  V30 2900 H 269.905 0.523132 -0.542999 0
M  V30 2901 H 272.556 0.685349 -1.70221 0
M  V30 2902 H 270.938 3.25253 -2.25891 0
M  V30 2903 H 272.112 1.36073 -4.40251 0
M  V30 2904 H 270.427 1.37987 -3.92872 0
M  V30 2905 H 273.024 4.11352 -3.41605 0
M  V30 2906 H 273.367 3.78397 -1.73555 0
M  V30 2907 H 273.9 2.63129 -2.98342 0
M  V30 2908 H 270.639 2.68343 -5.98057 0
M  V30 2909 H 270.159 3.77507 -4.66099 0
M  V30 2910 H 271.838 3.77385 -5.25538 0
M  V30 2911 N 271.97 1.30982 0.876444 0
M  V30 2912 C 273.216 1.20474 1.63138 0
M  V30 2913 C 273.549 -0.238096 1.92735 0
M  V30 2914 O 272.824 -1.1692 1.55435 0
M  V30 2915 C 273.107 2.04244 2.96574 0
M  V30 2916 C 272.96 3.56793 2.73896 0
M  V30 2917 C 274.279 1.88684 3.97601 0
M  V30 2918 H 271.398 0.439001 0.591985 0
M  V30 2919 H 274.04 1.60704 1.01361 0
M  V30 2920 H 272.19 1.70063 3.493 0
M  V30 2921 H 273.862 4.01077 2.27892 0
M  V30 2922 H 272.105 3.80548 2.08245 0
M  V30 2923 H 272.776 4.10706 3.68815 0
M  V30 2924 H 275.252 2.18584 3.54062 0
M  V30 2925 H 274.128 2.4961 4.88862 0
M  V30 2926 H 274.389 0.848343 4.33884 0
M  V30 2927 N 273.449 -1.08991 1.13837 0
M  V30 2928 C 274.695 -1.81526 0.90422 0
M  V30 2929 C 275.028 -1.85706 -0.568066 0
M  V30 2930 O 274.303 -1.32855 -1.42056 0
M  V30 2931 C 274.586 -3.27447 1.49835 0
M  V30 2932 C 274.439 -3.31512 3.04006 0
M  V30 2933 C 275.758 -4.24256 1.17025 0
M  V30 2934 H 272.877 -0.659029 0.329923 0
M  V30 2935 H 275.519 -1.27644 1.40737 0
M  V30 2936 H 273.669 -3.73462 1.07044 0
M  V30 2937 H 275.341 -2.93867 3.55584 0
M  V30 2938 H 273.584 -2.70963 3.38765 0
M  V30 2939 H 274.255 -4.34329 3.40679 0
M  V30 2940 H 276.731 -3.86549 1.54009 0
M  V30 2941 H 275.607 -5.24684 1.61237 0
M  V30 2942 H 275.868 -4.42019 0.0846274 0
M  V30 2943 N 274.927 -0.932562 -1.27047 0
M  V30 2944 C 276.175 -0.574422 -1.93765 0
M  V30 2945 C 276.496 0.887993 -1.73608 0
M  V30 2946 O 275.766 1.62999 -1.08665 0
M  V30 2947 H 274.346 -0.209451 -0.717035 0
M  V30 2948 H 277.008 -1.18601 -1.5466 0
M  V30 2949 H 276.104 -0.784841 -3.02071 0
M  V30 2950 N 276.405 1.4127 -0.698611 0
M  V30 2951 C 277.352 2.30773 -0.0352094 0
M  V30 2952 C 278.322 1.47273 0.768111 0
M  V30 2953 O 279.507 1.76053 0.735524 0
M  V30 2954 C 276.647 3.33346 0.893 0
M  V30 2955 C 275.76 4.31924 0.0809695 0
M  V30 2956 C 274.895 5.21566 1.0071 0
M  V30 2957 C 273.934 6.11811 0.188155 0
M  V30 2958 N 273.071 6.93926 1.06825 0
M  V30 2959 H 277.911 2.86943 -0.804207 0
M  V30 2960 H 275.448 1.4132 -0.408294 0
M  V30 2961 H 277.406 3.91368 1.44523 0
M  V30 2962 H 276.036 2.78719 1.62836 0
M  V30 2963 H 275.088 3.75825 -0.588224 0
M  V30 2964 H 276.4 4.95716 -0.553801 0
M  V30 2965 H 275.554 5.84437 1.62845 0
M  V30 2966 H 274.293 4.58008 1.67572 0
M  V30 2967 H 273.298 5.47986 -0.446254 0
M  V30 2968 H 274.523 6.77425 -0.476716 0
M  V30 2969 H 272.469 6.32973 1.72283 0
M  V30 2970 H 272.386 7.54416 0.489123 0
M  V30 2971 H 273.654 7.61262 1.67632 0
M  V30 2972 N 277.883 0.443576 1.51229 0
M  V30 2973 C 278.793 -0.370721 2.31652 0
M  V30 2974 C 279.809 -1.02186 1.40833 0
M  V30 2975 O 280.985 -1.01586 1.73903 0
M  V30 2976 C 278.05 -1.45376 3.14749 0
M  V30 2977 C 277.111 -0.822099 4.21355 0
M  V30 2978 C 276.344 -1.85353 5.0048 0
M  V30 2979 O 276.567 -3.07656 4.80316 0
M  V30 2980 O 275.501 -1.4406 5.84406 0
M  V30 2981 H 279.327 0.286002 3.0235 0
M  V30 2982 H 276.912 0.20598 1.47973 0
M  V30 2983 H 278.794 -2.08173 3.66391 0
M  V30 2984 H 277.469 -2.09445 2.46809 0
M  V30 2985 H 276.376 -0.155909 3.73775 0
M  V30 2986 H 277.709 -0.224797 4.91686 0
M  V30 2987 N 279.361 -1.56624 0.175154 0
M  V30 2988 C 280.607 -1.9729 -0.469506 0
M  V30 2989 C 280.94 -1.06128 -1.62636 0
M  V30 2990 O 280.215 -0.109183 -1.94193 0
M  V30 2991 C 280.498 -3.47375 -0.948804 0
M  V30 2992 C 280.351 -4.49317 0.208491 0
M  V30 2993 C 281.67 -4.00652 -1.82116 0
M  V30 2994 H 278.789 -0.717317 -0.16919 0
M  V30 2995 H 281.431 -1.88184 0.262062 0
M  V30 2996 H 279.581 -3.55267 -1.57219 0
M  V30 2997 H 281.253 -4.53482 0.845682 0
M  V30 2998 H 279.496 -4.25121 0.863395 0
M  V30 2999 H 280.167 -5.51741 -0.169059 0
M  V30 3000 H 282.643 -3.95416 -1.2956 0
M  V30 3001 H 281.519 -5.06075 -2.12554 0
M  V30 3002 H 281.78 -3.44699 -2.7683 0
M  V30 3003 N 280.839 0.0985539 -1.57292 0
M  V30 3004 C 281.769 1.12064 -2.04851 0
M  V30 3005 C 282.75 1.41981 -0.936767 0
M  V30 3006 O 283.935 1.52071 -1.20781 0
M  V30 3007 C 281.065 2.44144 -2.47004 0
M  V30 3008 C 280.019 2.28643 -3.6181 0
M  V30 3009 C 279.345 3.65869 -3.89929 0
M  V30 3010 C 280.645 1.72986 -4.92822 0
M  V30 3011 H 282.339 0.724979 -2.9049 0
M  V30 3012 H 279.885 0.34729 -1.39749 0
M  V30 3013 H 281.838 3.15914 -2.78884 0
M  V30 3014 H 280.562 2.85639 -1.5836 0
M  V30 3015 H 279.221 1.59318 -3.30172 0
M  V30 3016 H 278.869 4.04885 -2.98458 0
M  V30 3017 H 278.569 3.56344 -4.67218 0
M  V30 3018 H 280.093 4.39112 -4.2428 0
M  V30 3019 H 281.507 2.34593 -5.23105 0
M  V30 3020 H 279.904 1.74229 -5.74251 0
M  V30 3021 H 280.974 0.689007 -4.7998 0
M  V30 3022 N 282.317 1.53212 0.369288 0
M  V30 3023 C 283.28 1.7872 1.43498 0
M  V30 3024 C 284.28 0.657554 1.46741 0
M  V30 3025 O 285.47 0.925736 1.47566 0
M  V30 3026 C 282.602 1.90591 2.82645 0
M  V30 3027 H 283.795 2.73894 1.22156 0
M  V30 3028 H 281.348 1.44233 0.602203 0
M  V30 3029 H 282.083 0.974709 3.09306 0
M  V30 3030 H 281.868 2.72751 2.8169 0
M  V30 3031 H 283.358 2.11931 3.59826 0
M  V30 3032 N 283.795 -0.628877 1.44509 0
M  V30 3033 C 285.041 -1.39045 1.47629 0
M  V30 3034 C 285.374 -1.93892 0.109343 0
M  V30 3035 O 284.649 -1.7379 -0.87334 0
M  V30 3036 C 284.932 -2.55408 2.53848 0
M  V30 3037 C 284.785 -2.05896 3.99909 0
M  V30 3038 C 286.104 -3.5759 2.56549 0
M  V30 3039 H 283.223 -0.504232 0.537512 0
M  V30 3040 H 285.865 -0.710854 1.76201 0
M  V30 3041 H 284.015 -3.13384 2.29615 0
M  V30 3042 H 285.687 -1.52734 4.35282 0
M  V30 3043 H 283.93 -1.37061 4.11578 0
M  V30 3044 H 284.601 -2.89681 4.69882 0
M  V30 3045 H 287.077 -3.09419 2.78207 0
M  V30 3046 H 285.953 -4.36527 3.32769 0
M  V30 3047 H 286.214 -4.11808 1.60832 0
M  V30 3048 N 285.273 -1.31445 -0.869486 0
M  V30 3049 C 286.522 -1.20517 -1.61736 0
M  V30 3050 C 286.835 0.235341 -1.94179 0
M  V30 3051 O 288.041 0.466312 -2.67465 0
M  V30 3052 C 286.497 -2.10982 -2.91573 0
M  V30 3053 C 286.105 -3.60032 -2.66611 0
M  V30 3054 C 287.849 -2.08856 -3.69567 0
M  V30 3055 C 285.756 -4.42503 -3.92358 0
M  V30 3056 H 284.686 -0.447493 -0.606849 0
M  V30 3057 H 287.337 -1.56303 -0.96133 0
M  V30 3058 H 285.719 -1.68095 -3.58553 0
M  V30 3059 H 286.893 -4.11167 -2.08035 0
M  V30 3060 H 285.208 -3.64139 -2.0197 0
M  V30 3061 H 287.805 -2.67716 -4.62852 0
M  V30 3062 H 288.148 -1.07582 -4.02159 0
M  V30 3063 H 288.681 -2.49945 -3.09471 0
M  V30 3064 H 285.42 -5.44533 -3.64916 0
M  V30 3065 H 284.94 -3.96125 -4.50383 0
M  V30 3066 H 286.619 -4.54741 -4.60238 0
M  V30 3067 N 286.751 1.08385 -1.14413 0
M  V30 3068 C 287.684 2.14642 -0.774871 0
M  V30 3069 C 288.662 1.60761 0.243876 0
M  V30 3070 O 289.846 1.88031 0.132883 0
M  V30 3071 C 286.973 3.38366 -0.150491 0
M  V30 3072 C 286.019 4.10997 -1.13945 0
M  V30 3073 S 286.852 4.63797 -2.67679 0
M  V30 3074 C 288.008 5.90808 -2.06631 0
M  V30 3075 H 288.241 2.45633 -1.67487 0
M  V30 3076 H 285.774 1.20498 -0.96538 0
M  V30 3077 H 287.732 4.09996 0.203334 0
M  V30 3078 H 286.393 3.05572 0.72694 0
M  V30 3079 H 285.586 4.99783 -0.65059 0
M  V30 3080 H 285.188 3.4528 -1.43727 0
M  V30 3081 H 287.48 6.62411 -1.4219 0
M  V30 3082 H 288.423 6.4439 -2.93542 0
M  V30 3083 H 288.831 5.4383 -1.51357 0
M  V30 3084 N 288.23 0.939286 1.26551 0
M  V30 3085 C 289.193 0.451987 2.24699 0
M  V30 3086 C 290.193 -0.435869 1.5478 0
M  V30 3087 O 291.383 -0.235314 1.72603 0
M  V30 3088 C 288.515 -0.348801 3.39111 0
M  V30 3089 H 289.708 1.3193 2.69322 0
M  V30 3090 H 287.261 0.721072 1.38673 0
M  V30 3091 H 287.996 -1.23444 2.99887 0
M  V30 3092 H 287.781 0.287945 3.91041 0
M  V30 3093 H 289.271 -0.679726 4.12031 0
M  V30 3094 N 289.708 -1.40897 0.706093 0
M  V30 3095 C 290.954 -2.01352 0.241889 0
M  V30 3096 C 291.287 -1.55832 -1.15888 0
M  V30 3097 O 290.562 -0.774145 -1.7843 0
M  V30 3098 C 290.845 -3.58752 0.311311 0
M  V30 3099 C 290.698 -4.1437 1.74978 0
M  V30 3100 C 292.017 -4.38914 -0.322922 0
M  V30 3101 H 289.136 -0.731562 0.0893687 0
M  V30 3102 H 291.778 -1.67504 0.896802 0
M  V30 3103 H 289.928 -3.87718 -0.246302 0
M  V30 3104 H 291.6 -3.96239 2.36205 0
M  V30 3105 H 289.843 -3.69016 2.28057 0
M  V30 3106 H 290.514 -5.23532 1.74981 0
M  V30 3107 H 292.99 -4.15822 0.152089 0
M  V30 3108 H 291.866 -5.48358 -0.243855 0
M  V30 3109 H 292.127 -4.19176 -1.40513 0
M  V30 3110 N 291.186 -0.45159 -1.50991 0
M  V30 3111 C 292.134 0.366864 -2.29689 0
M  V30 3112 C 293.128 1.00809 -1.36139 0
M  V30 3113 O 294.334 0.941427 -1.53418 0
M  V30 3114 H 290.709 0.137133 -0.739391 0
M  V30 3115 H 292.68 -0.317538 -2.96706 0
M  V30 3116 C 291.429 1.44751 -3.16137 0
M  V30 3117 H 290.752 0.963473 -3.88017 0
M  V30 3118 H 292.192 1.99315 -3.74232 0
M  V30 3119 C 290.651 2.43869 -2.32442 0
M  V30 3120 O 291.181 3.4872 -1.99392 0
M  V30 3121 N 289.387 2.15105 -1.95392 0
M  V30 3122 H 288.934 1.29866 -2.22469 0
M  V30 3123 H 288.892 2.81661 -1.39693 0
M  V30 3124 N 292.664 1.56529 -0.183458 0
M  V30 3125 C 293.611 2.18546 0.742055 0
M  V30 3126 C 294.581 1.12912 1.2182 0
M  V30 3127 O 295.766 1.41115 1.28418 0
M  V30 3128 C 292.906 2.83977 1.96089 0
M  V30 3129 C 292.019 4.04105 1.52719 0
M  V30 3130 C 291.154 4.57427 2.70063 0
M  V30 3131 C 290.193 5.69938 2.23243 0
M  V30 3132 N 289.33 6.17717 3.33722 0
M  V30 3133 H 294.17 2.97284 0.206432 0
M  V30 3134 H 291.707 1.46823 0.0901571 0
M  V30 3135 H 293.665 3.20077 2.67594 0
M  V30 3136 H 292.295 2.07822 2.47002 0
M  V30 3137 H 291.347 3.73745 0.708436 0
M  V30 3138 H 292.659 4.85513 1.1436 0
M  V30 3139 H 291.813 4.95772 3.49708 0
M  V30 3140 H 290.552 3.75101 3.11689 0
M  V30 3141 H 289.557 5.31133 1.42048 0
M  V30 3142 H 290.782 6.54073 1.82661 0
M  V30 3143 H 288.728 5.38317 3.74902 0
M  V30 3144 H 288.645 6.94146 2.99495 0
M  V30 3145 H 289.913 6.60713 4.13616 0
M  V30 3146 N 294.142 -0.090211 1.57342 0
M  V30 3147 C 295.388 -0.793982 1.86611 0
M  V30 3148 C 295.721 -1.78142 0.773252 0
M  V30 3149 O 294.996 -1.93271 -0.218304 0
M  V30 3150 C 295.279 -1.51839 3.26523 0
M  V30 3151 C 295.132 -0.548609 4.46442 0
M  V30 3152 C 296.451 -2.46779 3.64401 0
M  V30 3153 H 293.57 -0.287186 0.678744 0
M  V30 3154 H 296.212 -0.0575076 1.89913 0
M  V30 3155 H 294.362 -2.14617 3.23839 0
M  V30 3156 H 296.034 0.0725513 4.61243 0
M  V30 3157 H 294.277 0.137614 4.33582 0
M  V30 3158 H 294.948 -1.09271 5.41076 0
M  V30 3159 H 297.424 -1.94089 3.68061 0
M  V30 3160 H 296.3 -2.94479 4.63221 0
M  V30 3161 H 296.561 -3.30758 2.93346 0
M  V30 3162 N 295.62 -1.53406 -0.361157 0
M  V30 3163 C 296.568 -1.80832 -1.46296 0
M  V30 3164 C 297.562 -0.677699 -1.55253 0
M  V30 3165 O 298.768 -0.860723 -1.58087 0
M  V30 3166 H 295.143 -0.572627 -0.487445 0
M  V30 3167 H 297.114 -2.73045 -1.20371 0
M  V30 3168 C 295.863 -2.01907 -2.8307 0
M  V30 3169 H 295.186 -2.88349 -2.76938 0
M  V30 3170 H 296.626 -2.25072 -3.59331 0
M  V30 3171 C 295.085 -0.799449 -3.27277 0
M  V30 3172 O 295.615 0.00971761 -4.01699 0
M  V30 3173 N 293.821 -0.621637 -2.83873 0
M  V30 3174 H 293.368 -1.28126 -2.23476 0
M  V30 3175 H 293.326 0.19298 -3.13807 0
M  V30 3176 N 297.098 0.621204 -1.44841 0
M  V30 3177 C 298.061 1.71459 -1.521 0
M  V30 3178 C 299.061 1.55696 -0.401933 0
M  V30 3179 O 300.251 1.61011 -0.664925 0
M  V30 3180 C 297.383 3.10624 -1.40447 0
M  V30 3181 H 298.576 1.66394 -2.49506 0
M  V30 3182 H 296.129 0.835745 -1.3208 0
M  V30 3183 H 296.864 3.21277 -0.441737 0
M  V30 3184 H 296.649 3.23473 -2.21602 0
M  V30 3185 H 298.139 3.90293 -1.4853 0
M  V30 3186 N 298.576 1.31904 0.862503 0
M  V30 3187 C 299.801 1.25135 1.65397 0
M  V30 3188 C 300.226 -0.179 1.87246 0
M  V30 3189 O 299.584 -1.1277 1.4196 0
M  V30 3190 C 299.632 2.00832 2.99498 0
M  V30 3191 O 298.736 1.35075 3.89652 0
M  V30 3192 H 298.077 0.431655 0.504549 0
M  V30 3193 H 300.607 1.74094 1.07483 0
M  V30 3194 H 300.617 2.10709 3.49379 0
M  V30 3195 H 299.292 3.04847 2.82916 0
M  V30 3196 H 297.869 1.33696 3.48109 0
M  V30 3197 N 300.054 -1.07777 1.14986 0
M  V30 3198 C 300.964 -2.18404 0.856546 0
M  V30 3199 C 301.98 -1.73211 -0.165485 0
M  V30 3200 O 303.156 -2.01399 0.00755219 0
M  V30 3201 C 300.221 -3.44977 0.34526 0
M  V30 3202 C 299.282 -4.0476 1.43065 0
M  V30 3203 C 298.515 -5.25291 0.943663 0
M  V30 3204 O 298.738 -5.70004 -0.212426 0
M  V30 3205 O 297.672 -5.76638 1.72547 0
M  V30 3206 H 301.498 -2.45978 1.78125 0
M  V30 3207 H 299.083 -1.17033 0.928631 0
M  V30 3208 H 300.965 -4.21348 0.0663671 0
M  V30 3209 H 299.64 -3.18965 -0.551631 0
M  V30 3210 H 298.547 -3.29949 1.76309 0
M  V30 3211 H 299.88 -4.35035 2.30229 0
M  V30 3212 N 301.532 -0.945985 -1.26051 0
M  V30 3213 C 302.779 -0.596118 -1.93527 0
M  V30 3214 C 303.107 0.865559 -1.74179 0
M  V30 3215 O 302.362 1.63524 -1.0751 0
M  V30 3216 C 302.661 -0.890475 -3.46129 0
M  V30 3217 C 302.327 -2.3368 -3.85622 0
M  V30 3218 C 300.989 -2.73216 -3.96114 0
M  V30 3219 C 303.341 -3.27648 -4.05334 0
M  V30 3220 C 300.669 -4.05806 -4.2372 0
M  V30 3221 C 303.021 -4.59841 -4.3443 0
M  V30 3222 C 301.685 -4.99185 -4.43137 0
M  V30 3223 H 300.955 -0.218135 -0.708165 0
M  V30 3224 H 303.602 -1.1934 -1.49768 0
M  V30 3225 H 301.907 -0.210711 -3.91233 0
M  V30 3226 H 303.604 -0.598478 -3.96509 0
M  V30 3227 H 300.194 -2.02015 -3.78005 0
M  V30 3228 H 304.378 -2.98298 -3.96651 0
M  V30 3229 H 299.634 -4.35945 -4.28675 0
M  V30 3230 H 303.808 -5.32641 -4.48628 0
M  V30 3231 H 301.435 -6.01952 -4.64282 0
M  V30 3232 N 303.011 1.40521 -0.713556 0
M  V30 3233 C 304.236 2.05759 -0.26035 0
M  V30 3234 C 304.661 1.53403 1.08854 0
M  V30 3235 O 304.019 0.668535 1.68524 0
M  V30 3236 C 304.067 3.59745 -0.248122 0
M  V30 3237 O 303.171 4.05123 0.77131 0
M  V30 3238 H 302.512 0.652564 -0.122703 0
M  V30 3239 H 305.042 1.79958 -0.973467 0
M  V30 3240 H 305.052 4.07911 -0.0851129 0
M  V30 3241 H 303.727 3.97218 -1.2325 0
M  V30 3242 H 302.304 3.68422 0.57619 0
M  V30 3243 N 304.489 0.459591 1.5075 0
M  V30 3244 C 305.436 -0.340524 2.28274 0
M  V30 3245 C 306.406 -0.997371 1.32822 0
M  V30 3246 O 307.591 -1.01202 1.61749 0
M  V30 3247 C 304.731 -1.42317 3.14388 0
M  V30 3248 C 303.844 -0.782251 4.24859 0
M  V30 3249 C 302.979 -1.84182 4.98247 0
M  V30 3250 C 302.018 -1.18053 6.00608 0
M  V30 3251 N 301.155 -2.18244 6.67319 0
M  V30 3252 H 305.995 0.326899 2.96202 0
M  V30 3253 H 303.532 0.173057 1.46078 0
M  V30 3254 H 305.49 -2.06241 3.62658 0
M  V30 3255 H 304.12 -2.05992 2.4853 0
M  V30 3256 H 303.172 -0.0307404 3.80388 0
M  V30 3257 H 304.484 -0.259663 4.98124 0
M  V30 3258 H 303.638 -2.55714 5.50177 0
M  V30 3259 H 302.377 -2.39819 4.24662 0
M  V30 3260 H 301.382 -0.450776 5.47949 0
M  V30 3261 H 302.607 -0.631202 6.7616 0
M  V30 3262 H 300.553 -2.72919 5.96533 0
M  V30 3263 H 300.47 -1.70938 7.36421 0
M  V30 3264 H 301.738 -2.89191 7.23871 0
M  V30 3265 N 305.967 -1.56429 0.191757 0
M  V30 3266 C 306.899 -2.16154 -0.762245 0
M  V30 3267 C 307.912 -1.12247 -1.17917 0
M  V30 3268 O 309.101 -1.39353 -1.11548 0
M  V30 3269 C 306.201 -2.70606 -2.04024 0
M  V30 3270 C 305.374 -3.99381 -1.78364 0
M  V30 3271 C 304.433 -4.38692 -2.90578 0
M  V30 3272 O 303.459 -5.06179 -2.6033 0
M  V30 3273 N 304.661 -4.01922 -4.18854 0
M  V30 3274 H 307.426 -2.98643 -0.251526 0
M  V30 3275 H 304.987 -1.61897 0.00967373 0
M  V30 3276 H 306.979 -2.93891 -2.78227 0
M  V30 3277 H 305.549 -1.9259 -2.46227 0
M  V30 3278 H 304.769 -3.84262 -0.879581 0
M  V30 3279 H 306.057 -4.83445 -1.58614 0
M  V30 3280 H 305.455 -3.47631 -4.46283 0
M  V30 3281 H 304.012 -4.30165 -4.89695 0
M  V30 3282 N 307.445 0.0818655 -1.57387 0
M  V30 3283 C 308.722 0.815343 -1.77796 0
M  V30 3284 C 309.102 1.96289 -0.77679 0
M  V30 3285 O 308.45 2.27691 0.192106 0
M  V30 3286 C 308.66 1.29765 -3.23978 0
M  V30 3287 C 310.008 1.7351 -3.8753 0
M  V30 3288 O 311.032 1.39356 -3.27808 0
M  V30 3289 O 309.891 2.36708 -4.92576 0
M  V30 3290 H 306.985 0.389914 -0.729312 0
M  V30 3291 H 309.531 0.0627213 -1.69584 0
M  V30 3292 H 308.303 0.47608 -3.88393 0
M  V30 3293 H 307.926 2.11189 -3.36875 0
M  V30 3294 N 308.923 1.53595 0.353017 0
M  V30 3295 C 309.833 1.83897 1.45667 0
M  V30 3296 C 310.849 0.728334 1.58023 0
M  V30 3297 O 312.025 1.01968 1.73679 0
M  V30 3298 C 309.09 2.03383 2.80778 0
M  V30 3299 C 308.151 3.27262 2.77845 0
M  V30 3300 C 307.384 3.45809 4.06512 0
M  V30 3301 O 307.607 2.68387 5.03314 0
M  V30 3302 O 306.541 4.39207 4.11559 0
M  V30 3303 H 310.367 2.77686 1.2298 0
M  V30 3304 H 307.952 1.39132 0.544308 0
M  V30 3305 H 309.834 2.17698 3.60812 0
M  V30 3306 H 308.509 1.12783 3.03417 0
M  V30 3307 H 307.416 3.18359 1.96465 0
M  V30 3308 H 308.749 4.17824 2.60161 0
M  V30 3309 N 310.401 -0.613514 1.45168 0
M  V30 3310 C 311.311 -1.75296 1.55912 0
M  V30 3311 C 312.327 -1.68244 0.443856 0
M  V30 3312 O 313.503 -1.88706 0.70371 0
M  V30 3313 C 310.568 -3.1174 1.5172 0
M  V30 3314 C 309.629 -3.30291 2.74238 0
M  V30 3315 C 308.862 -4.60226 2.70236 0
M  V30 3316 O 309.085 -5.42168 1.77229 0
M  V30 3317 O 308.019 -4.81361 3.61352 0
M  V30 3318 H 311.845 -1.69183 2.52212 0
M  V30 3319 H 309.43 -0.776886 1.27612 0
M  V30 3320 H 311.312 -3.93044 1.51968 0
M  V30 3321 H 309.987 -3.18357 0.585697 0
M  V30 3322 H 308.894 -2.48598 2.79553 0
M  V30 3323 H 310.227 -3.28547 3.66494 0
M  V30 3324 N 311.879 -1.3236 -0.855495 0
M  V30 3325 C 313.125 -1.23054 -1.612 0
M  V30 3326 C 313.458 0.207404 -1.93089 0
M  V30 3327 O 312.733 1.14432 -1.57275 0
M  V30 3328 C 313.016 -2.08937 -2.93287 0
M  V30 3329 C 312.869 -3.61105 -2.68185 0
M  V30 3330 C 314.188 -1.94986 -3.94549 0
M  V30 3331 H 311.307 -0.448364 -0.584926 0
M  V30 3332 H 313.949 -1.62297 -0.987917 0
M  V30 3333 H 312.099 -1.75599 -3.46551 0
M  V30 3334 H 313.771 -4.04652 -2.21483 0
M  V30 3335 H 312.014 -3.83813 -2.02164 0
M  V30 3336 H 312.685 -4.16522 -3.62234 0
M  V30 3337 H 315.161 -2.24189 -3.5054 0
M  V30 3338 H 314.037 -2.57356 -4.84829 0
M  V30 3339 H 314.298 -0.917263 -4.3248 0
M  V30 3340 N 313.357 1.07166 -1.15556 0
M  V30 3341 C 314.604 1.79798 -0.931604 0
M  V30 3342 C 314.932 1.8682 0.54115 0
M  V30 3343 O 314.187 1.34942 1.41736 0
M  V30 3344 C 314.486 3.24707 -1.49332 0
M  V30 3345 C 314.152 3.37781 -2.98688 0
M  V30 3346 C 312.814 3.41057 -3.39461 0
M  V30 3347 C 315.166 3.40424 -3.94665 0
M  V30 3348 C 312.494 3.4458 -4.74849 0
M  V30 3349 C 314.846 3.45485 -5.29927 0
M  V30 3350 C 313.51 3.47039 -5.70193 0
M  V30 3351 H 312.78 0.657928 -0.340898 0
M  V30 3352 H 315.427 1.26091 -1.44129 0
M  V30 3353 H 313.732 3.81208 -0.904859 0
M  V30 3354 H 315.429 3.79486 -1.29582 0
M  V30 3355 H 312.019 3.35932 -2.66172 0
M  V30 3356 H 316.203 3.37113 -3.64237 0
M  V30 3357 H 311.459 3.44083 -5.05388 0
M  V30 3358 H 315.633 3.46476 -6.04092 0
M  V30 3359 H 313.26 3.49522 -6.75084 0
M  V30 3360 N 314.835 0.952656 1.25548 0
M  V30 3361 C 316.06 0.623025 1.97821 0
M  V30 3362 C 316.485 -0.7976 1.70352 0
M  V30 3363 O 315.843 -1.53905 0.958283 0
M  V30 3364 C 315.891 0.885532 3.49558 0
M  V30 3365 O 314.995 -0.0366641 4.12384 0
M  V30 3366 H 314.336 0.237082 0.620232 0
M  V30 3367 H 316.866 1.27871 1.59719 0
M  V30 3368 H 316.876 0.811009 3.99858 0
M  V30 3369 H 315.551 1.92094 3.6888 0
M  V30 3370 H 314.128 0.0898954 3.72792 0
M  V30 3371 N 316.313 -1.40141 0.720998 0
M  V30 3372 C 317.26 -2.30688 0.071919 0
M  V30 3373 C 318.23 -1.48476 -0.744584 0
M  V30 3374 O 319.415 -1.77201 -0.707423 0
M  V30 3375 C 316.555 -3.34724 -0.839855 0
M  V30 3376 C 315.668 -4.31998 -0.0122438 0
M  V30 3377 C 314.803 -5.23102 -0.923995 0
M  V30 3378 C 313.842 -6.12033 -0.0907969 0
M  V30 3379 N 312.979 -6.95537 -0.957718 0
M  V30 3380 H 317.819 -2.85628 0.849755 0
M  V30 3381 H 315.356 -1.40653 0.430726 0
M  V30 3382 H 317.314 -3.93618 -1.38279 0
M  V30 3383 H 315.944 -2.81274 -1.58381 0
M  V30 3384 H 314.996 -3.74841 0.64794 0
M  V30 3385 H 316.308 -4.94772 0.632595 0
M  V30 3386 H 315.462 -5.86953 -1.53527 0
M  V30 3387 H 314.201 -4.60615 -1.60264 0
M  V30 3388 H 313.206 -5.47207 0.533377 0
M  V30 3389 H 314.431 -6.76581 0.584428 0
M  V30 3390 H 312.377 -6.35633 -1.62192 0
M  V30 3391 H 312.294 -7.55099 -0.36904 0
M  V30 3392 H 313.562 -7.63832 -1.555 0
M  V30 3393 N 317.792 -0.46758 -1.50504 0
M  V30 3394 C 319.022 0.086288 -2.0642 0
M  V30 3395 C 319.43 1.34369 -1.33197 0
M  V30 3396 O 318.773 1.79431 -0.393747 0
M  V30 3397 C 318.835 0.443846 -3.5675 0
M  V30 3398 C 318.499 -0.711035 -4.51435 0
M  V30 3399 C 319.496 -1.59205 -4.94924 0
M  V30 3400 C 317.181 -0.900363 -4.94165 0
M  V30 3401 C 319.175 -2.64683 -5.79846 0
M  V30 3402 C 316.862 -1.95837 -5.7887 0
M  V30 3403 C 317.86 -2.82997 -6.21612 0
M  V30 3404 O 317.548 -3.86977 -7.0463 0
M  V30 3405 H 317.28 -0.00217814 -0.675996 0
M  V30 3406 H 319.834 -0.654346 -1.94698 0
M  V30 3407 H 318.064 1.23762 -3.6636 0
M  V30 3408 H 319.753 0.932386 -3.95046 0
M  V30 3409 H 320.519 -1.45745 -4.62583 0
M  V30 3410 H 316.398 -0.231427 -4.60419 0
M  V30 3411 H 319.942 -3.32745 -6.13128 0
M  V30 3412 H 315.839 -2.09305 -6.10624 0
M  V30 3413 H 316.607 -3.83923 -7.22873 0
M  V30 3414 N 319.27 1.56325 -0.20005 0
M  V30 3415 C 320.2 2.22318 0.713916 0
M  V30 3416 C 321.181 1.18788 1.21752 0
M  V30 3417 O 322.366 1.47309 1.26545 0
M  V30 3418 C 319.496 2.88639 1.93144 0
M  V30 3419 C 318.45 3.98457 1.56255 0
M  V30 3420 C 317.776 4.51967 2.85709 0
M  V30 3421 C 319.076 5.16612 0.768747 0
M  V30 3422 H 320.77 2.98952 0.163755 0
M  V30 3423 H 318.316 1.43792 0.0773219 0
M  V30 3424 H 320.269 3.33491 2.57608 0
M  V30 3425 H 318.993 2.09419 2.50621 0
M  V30 3426 H 317.652 3.54305 0.941471 0
M  V30 3427 H 317.3 3.69503 3.41287 0
M  V30 3428 H 317 5.26071 2.6177 0
M  V30 3429 H 318.524 4.99523 3.51154 0
M  V30 3430 H 319.938 5.57977 1.3166 0
M  V30 3431 H 318.335 5.96812 0.627286 0
M  V30 3432 H 319.405 4.84358 -0.229168 0
M  V30 3433 N 320.748 -0.0735177 1.57428 0
M  V30 3434 C 321.696 -1.10628 2.04607 0
M  V30 3435 C 322.69 -1.40181 0.951088 0
M  V30 3436 O 323.896 -1.39608 1.1362 0
M  V30 3437 H 320.271 -0.374088 0.652351 0
M  V30 3438 H 322.242 -0.682218 2.90497 0
M  V30 3439 C 320.991 -2.41212 2.50423 0
M  V30 3440 H 320.314 -2.19322 3.34272 0
M  V30 3441 H 321.754 -3.11927 2.87189 0
M  V30 3442 C 320.213 -3.0705 1.38644 0
M  V30 3443 O 320.743 -3.95056 0.727582 0
M  V30 3444 N 318.949 -2.67645 1.132 0
M  V30 3445 H 318.496 -1.96169 1.66959 0
M  V30 3446 H 318.454 -3.1202 0.386147 0
M  V30 3447 N 322.226 -1.5378 -0.344866 0
M  V30 3448 C 323.473 -1.70963 -1.08526 0
M  V30 3449 C 323.801 -0.472126 -1.88683 0
M  V30 3450 O 323.056 0.546116 -1.87926 0
M  V30 3451 C 323.355 -2.92407 -2.05506 0
M  V30 3452 C 323.021 -4.28066 -1.41671 0
M  V30 3453 C 321.683 -4.64951 -1.2399 0
M  V30 3454 C 324.035 -5.12344 -0.956726 0
M  V30 3455 C 321.363 -5.83733 -0.589277 0
M  V30 3456 C 323.715 -6.3179 -0.320015 0
M  V30 3457 C 322.379 -6.67372 -0.130881 0
M  V30 3458 H 321.649 -0.625598 -0.397124 0
M  V30 3459 H 324.296 -1.87995 -0.36469 0
M  V30 3460 H 322.601 -2.69973 -2.8394 0
M  V30 3461 H 324.298 -3.02895 -2.62784 0
M  V30 3462 H 320.888 -3.99034 -1.56429 0
M  V30 3463 H 325.072 -4.8438 -1.08118 0
M  V30 3464 H 320.328 -6.09877 -0.431344 0
M  V30 3465 H 324.502 -6.96386 0.0445072 0
M  V30 3466 H 322.129 -7.59273 0.375318 0
M  V30 3467 N 323.704 0.605807 -1.45491 0
M  V30 3468 C 324.95 1.36679 -1.49823 0
M  V30 3469 C 325.283 1.93693 -0.140175 0
M  V30 3470 O 324.558 1.75158 0.845581 0
M  V30 3471 C 324.841 2.51337 -2.57879 0
M  V30 3472 C 324.694 1.99508 -4.03134 0
M  V30 3473 C 326.013 3.53463 -2.62205 0
M  V30 3474 H 323.132 0.495617 -0.545466 0
M  V30 3475 H 325.774 0.682732 -1.7731 0
M  V30 3476 H 323.924 3.09691 -2.34571 0
M  V30 3477 H 325.596 1.45789 -4.37656 0
M  V30 3478 H 323.839 1.30496 -4.13707 0
M  V30 3479 H 324.51 2.82169 -4.74431 0
M  V30 3480 H 326.986 3.04953 -2.83095 0
M  V30 3481 H 325.862 4.31178 -3.39672 0
M  V30 3482 H 326.123 4.09197 -1.67363 0
M  V30 3483 N 325.182 1.32811 0.848464 0
M  V30 3484 C 326.407 1.26882 1.6406 0
M  V30 3485 C 326.832 -0.15913 1.87426 0
M  V30 3486 O 326.19 -1.11258 1.43148 0
M  V30 3487 C 326.238 2.03997 2.97351 0
M  V30 3488 O 325.342 1.39201 3.88197 0
M  V30 3489 H 324.683 0.436982 0.499943 0
M  V30 3490 H 327.213 1.75224 1.0563 0
M  V30 3491 H 327.223 2.14403 3.47124 0
M  V30 3492 H 325.898 3.0783 2.79666 0
M  V30 3493 H 324.475 1.37381 3.46671 0
M  V30 3494 N 326.66 -1.06551 1.16123 0
M  V30 3495 C 327.909 -1.78687 0.935622 0
M  V30 3496 C 328.222 -1.88056 -0.538001 0
M  V30 3497 O 329.428 -2.56794 -0.88143 0
M  V30 3498 C 327.884 -3.21143 1.62466 0
M  V30 3499 C 327.492 -3.19949 3.13587 0
M  V30 3500 C 329.236 -3.9783 1.48092 0
M  V30 3501 C 327.143 -4.57108 3.75241 0
M  V30 3502 H 326.073 -0.669712 0.346412 0
M  V30 3503 H 328.724 -1.19534 1.39226 0
M  V30 3504 H 327.106 -3.80539 1.09572 0
M  V30 3505 H 328.28 -2.70151 3.73303 0
M  V30 3506 H 326.595 -2.5676 3.27816 0
M  V30 3507 H 329.192 -4.99217 1.91538 0
M  V30 3508 H 329.535 -4.14078 0.429507 0
M  V30 3509 H 330.068 -3.4495 1.98127 0
M  V30 3510 H 326.807 -4.46065 4.80319 0
M  V30 3511 H 326.327 -5.07111 3.20309 0
M  V30 3512 H 328.006 -5.26069 3.76644 0
M  V30 3513 N 328.138 -0.959301 -1.25041 0
M  V30 3514 C 329.387 -0.612254 -1.92183 0
M  V30 3515 C 329.7 0.855347 -1.75907 0
M  V30 3516 O 330.906 1.31256 -2.37664 0
M  V30 3517 C 329.362 -1.04435 -3.44414 0
M  V30 3518 C 328.97 -2.53482 -3.69393 0
M  V30 3519 C 330.714 -0.770055 -4.17457 0
M  V30 3520 C 328.621 -2.90468 -5.15153 0
M  V30 3521 H 327.551 -0.225279 -0.719559 0
M  V30 3522 H 330.202 -1.16438 -1.41825 0
M  V30 3523 H 328.584 -0.4206 -3.9376 0
M  V30 3524 H 329.758 -3.20916 -3.30681 0
M  V30 3525 H 328.073 -2.78432 -3.0962 0
M  V30 3526 H 330.67 -1.02249 -5.24832 0
M  V30 3527 H 331.013 0.293611 -4.15263 0
M  V30 3528 H 331.546 -1.35437 -3.74034 0
M  V30 3529 H 328.285 -3.95871 -5.22462 0
M  V30 3530 H 327.805 -2.27711 -5.54894 0
M  V30 3531 H 329.484 -2.79914 -5.83315 0
M  V30 3532 N 329.616 1.39756 -0.72842 0
M  V30 3533 C 330.546 2.33289 -0.0991354 0
M  V30 3534 C 331.527 1.53568 0.731489 0
M  V30 3535 O 332.712 1.81987 0.677807 0
M  V30 3536 C 329.842 3.3763 0.813834 0
M  V30 3537 C 328.796 4.2791 0.0878663 0
M  V30 3538 C 328.122 5.22894 1.11741 0
M  V30 3539 C 329.422 5.11314 -1.06563 0
M  V30 3540 H 331.116 2.86163 -0.880408 0
M  V30 3541 H 328.662 1.37591 -0.424819 0
M  V30 3542 H 330.615 4.0201 1.26355 0
M  V30 3543 H 329.339 2.83181 1.62715 0
M  V30 3544 H 327.998 3.65 -0.342159 0
M  V30 3545 H 327.646 4.64744 1.92412 0
M  V30 3546 H 327.346 5.84143 0.636477 0
M  V30 3547 H 328.87 5.90151 1.56697 0
M  V30 3548 H 330.284 5.69076 -0.694671 0
M  V30 3549 H 328.681 5.81671 -1.47577 0
M  V30 3550 H 329.751 4.46534 -1.89038 0
M  V30 3551 N 331.094 0.475555 1.50254 0
M  V30 3552 C 332.51 0.12997 1.5907 0
M  V30 3553 C 332.71 -1.36385 1.48328 0
M  V30 3554 O 331.766 -2.13754 1.34407 0
M  V30 3555 C 333.079 0.684139 2.92814 0
M  V30 3556 C 334.627 0.647965 3.0622 0
M  V30 3557 C 335.102 1.17975 4.42545 0
M  V30 3558 N 336.593 1.13936 4.48969 0
M  V30 3559 C 337.328 1.52129 5.52851 0
M  V30 3560 N 336.824 1.97793 6.63965 0
M  V30 3561 N 338.617 1.43704 5.4342 0
M  V30 3562 H 330.768 1.44706 1.55479 0
M  V30 3563 H 333.031 0.598691 0.735033 0
M  V30 3564 H 332.737 1.73079 3.06164 0
M  V30 3565 H 332.611 0.130204 3.76975 0
M  V30 3566 H 334.998 -0.38979 2.92514 0
M  V30 3567 H 335.079 1.23876 2.23805 0
M  V30 3568 H 334.723 2.21616 4.57 0
M  V30 3569 H 334.653 0.565138 5.23559 0
M  V30 3570 H 337.144 0.804488 3.69238 0
M  V30 3571 H 337.457 2.25072 7.39299 0
M  V30 3572 H 335.802 2.01749 6.65073 0
M  V30 3573 H 338.993 1.07867 4.55502 0
M  V30 3574 H 339.166 1.73794 6.24259 0
M  V30 3575 N 332.573 -1.56217 0.208337 0
M  V30 3576 C 333.503 -2.22694 -0.702116 0
M  V30 3577 C 334.484 -1.19432 -1.2112 0
M  V30 3578 O 335.669 -1.47978 -1.25762 0
M  V30 3579 C 332.799 -2.8966 -1.9161 0
M  V30 3580 C 331.753 -3.9928 -1.5414 0
M  V30 3581 C 331.079 -4.53476 -2.83308 0
M  V30 3582 C 332.379 -5.17012 -0.741339 0
M  V30 3583 H 334.073 -2.99034 -0.147898 0
M  V30 3584 H 331.619 -1.43831 -0.0696951 0
M  V30 3585 H 333.572 -3.34852 -2.55836 0
M  V30 3586 H 332.296 -2.10746 -2.49507 0
M  V30 3587 H 330.955 -3.54799 -0.922668 0
M  V30 3588 H 330.603 -3.71308 -3.39322 0
M  V30 3589 H 330.303 -5.27451 -2.58976 0
M  V30 3590 H 331.827 -5.01378 -3.485 0
M  V30 3591 H 333.241 -5.58667 -1.28699 0
M  V30 3592 H 331.638 -5.97137 -0.595627 0
M  V30 3593 H 332.708 -4.8423 0.254851 0
M  V30 3594 N 334.051 0.0651679 -1.57465 0
M  V30 3595 C 335.001 1.0838 -2.00594 0
M  V30 3596 C 335.985 1.34106 -0.889071 0
M  V30 3597 O 337.177 1.34295 -1.15299 0
M  V30 3598 C 334.306 2.39565 -2.45894 0
M  V30 3599 C 333.392 2.17085 -3.64328 0
M  V30 3600 N 333.783 1.64553 -4.78285 0
M  V30 3601 C 332.081 2.4753 -3.71006 0
M  V30 3602 C 332.782 1.57042 -5.60101 0
M  V30 3603 N 331.758 2.03328 -5.04141 0
M  V30 3604 H 335.56 0.671062 -2.86136 0
M  V30 3605 H 333.074 0.27213 -1.60104 0
M  V30 3606 H 335.071 3.13308 -2.75034 0
M  V30 3607 H 333.731 2.81549 -1.61741 0
M  V30 3608 H 334.742 1.33323 -5.00445 0
M  V30 3609 H 331.419 2.92835 -2.9758 0
M  V30 3610 H 332.809 1.17223 -6.61595 0
M  V30 3611 N 335.529 1.53961 0.336706 0
M  V30 3612 C 336.479 1.7881 1.41461 0
M  V30 3613 C 337.463 0.643561 1.47469 0
M  V30 3614 O 338.655 0.903166 1.52223 0
M  V30 3615 C 335.784 2.00722 2.78506 0
M  V30 3616 C 334.87 3.2126 2.76862 0
M  V30 3617 N 335.261 4.42588 2.44845 0
M  V30 3618 C 333.559 3.22568 3.08004 0
M  V30 3619 C 334.26 5.2447 2.51607 0
M  V30 3620 N 333.236 4.61344 2.87511 0
M  V30 3621 H 337.038 2.70205 1.15615 0
M  V30 3622 H 334.552 1.52978 0.545112 0
M  V30 3623 H 336.549 2.1666 3.5618 0
M  V30 3624 H 335.209 1.10573 3.05293 0
M  V30 3625 H 336.22 4.69819 2.17922 0
M  V30 3626 H 332.897 2.42409 3.39918 0
M  V30 3627 H 334.287 6.31324 2.29955 0
M  V30 3628 N 337.007 -0.598083 1.45811 0
M  V30 3629 C 338.235 -1.38322 1.53866 0
M  V30 3630 C 338.65 -1.87992 0.174479 0
M  V30 3631 O 338.007 -1.62756 -0.825627 0
M  V30 3632 C 338.058 -2.58125 2.53089 0
M  V30 3633 O 337.779 -2.10516 3.84206 0
M  V30 3634 C 339.28 -3.50869 2.70935 0
M  V30 3635 H 336.5 -0.423093 0.520801 0
M  V30 3636 H 339.044 -0.728527 1.91083 0
M  V30 3637 H 337.199 -3.19615 2.18917 0
M  V30 3638 H 337.613 -2.88425 4.38077 0
M  V30 3639 H 339.087 -4.31451 3.44317 0
M  V30 3640 H 339.564 -4.01822 1.77301 0
M  V30 3641 H 340.17 -2.95225 3.06141 0
M  V30 3642 N 338.485 -1.33259 -0.841409 0
M  V30 3643 C 339.71 -1.2775 -1.63385 0
M  V30 3644 C 340.135 0.149188 -1.87507 0
M  V30 3645 O 339.493 1.10498 -1.43736 0
M  V30 3646 C 339.541 -2.05571 -2.96265 0
M  V30 3647 O 338.645 -1.41257 -3.87453 0
M  V30 3648 H 337.986 -0.439627 -0.497618 0
M  V30 3649 H 340.516 -1.75782 -1.04699 0
M  V30 3650 H 340.526 -2.16241 -3.45982 0
M  V30 3651 H 339.201 -3.09309 -2.7803 0
M  V30 3652 H 337.778 -1.39217 -3.45938 0
M  V30 3653 N 339.963 1.05934 -1.16686 0
M  V30 3654 C 341.193 1.82226 -0.973515 0
M  V30 3655 C 341.601 1.8297 0.481532 0
M  V30 3656 O 340.944 1.25009 1.34604 0
M  V30 3657 C 341.006 3.29897 -1.42858 0
M  V30 3658 C 340.67 3.52849 -2.90425 0
M  V30 3659 C 341.667 3.45595 -3.88407 0
M  V30 3660 C 339.352 3.80053 -3.28428 0
M  V30 3661 C 341.346 3.65217 -5.22394 0
M  V30 3662 C 339.033 3.99325 -4.62583 0
M  V30 3663 C 340.031 3.91905 -5.59374 0
M  V30 3664 O 339.719 4.10647 -6.91104 0
M  V30 3665 H 339.451 0.581314 -0.345036 0
M  V30 3666 H 342.005 1.3453 -1.55212 0
M  V30 3667 H 340.235 3.78472 -0.793477 0
M  V30 3668 H 341.924 3.87692 -1.20207 0
M  V30 3669 H 342.69 3.24564 -3.60393 0
M  V30 3670 H 338.569 3.84936 -2.53664 0
M  V30 3671 H 342.113 3.59341 -5.9793 0
M  V30 3672 H 338.01 4.19846 -4.90306 0
M  V30 3673 H 338.778 4.27915 -6.97733 0
M  V30 3674 N 341.441 0.965919 1.2453 0
M  V30 3675 C 342.374 0.4393 2.23932 0
M  V30 3676 C 343.352 -0.485615 1.55179 0
M  V30 3677 O 344.536 -0.417402 1.83821 0
M  V30 3678 C 341.663 -0.366042 3.36716 0
M  V30 3679 C 340.709 0.5009 4.23548 0
M  V30 3680 S 341.542 1.94002 4.99123 0
M  V30 3681 C 342.698 1.14342 6.15367 0
M  V30 3682 H 342.931 1.28167 2.68254 0
M  V30 3683 H 340.464 0.770819 1.33782 0
M  V30 3684 H 342.422 -0.824724 4.0213 0
M  V30 3685 H 341.083 -1.18337 2.90956 0
M  V30 3686 H 340.276 -0.117341 5.03863 0
M  V30 3687 H 339.878 0.89524 3.63127 0
M  V30 3688 H 342.17 0.397572 6.76332 0
M  V30 3689 H 343.113 1.92089 6.81548 0
M  V30 3690 H 343.521 0.668579 5.60527 0
M  V30 3691 N 342.919 -1.39368 0.735821 0
M  V30 3692 C 344.149 -2.04498 0.293967 0
M  V30 3693 C 344.557 -1.55593 -1.07645 0
M  V30 3694 O 343.9 -0.716324 -1.69158 0
M  V30 3695 C 343.962 -3.58836 0.218342 0
M  V30 3696 C 343.626 -4.30721 1.52736 0
M  V30 3697 C 344.623 -4.57305 2.47322 0
M  V30 3698 C 342.308 -4.69251 1.79189 0
M  V30 3699 C 344.302 -5.21429 3.66593 0
M  V30 3700 C 341.989 -5.33104 2.98737 0
M  V30 3701 C 342.987 -5.59125 3.9226 0
M  V30 3702 O 342.675 -6.21653 5.09708 0
M  V30 3703 H 342.407 -0.664118 0.126189 0
M  V30 3704 H 344.961 -1.79385 1.00051 0
M  V30 3705 H 343.191 -3.8285 -0.544314 0
M  V30 3706 H 344.88 -4.05447 -0.191626 0
M  V30 3707 H 345.646 -4.27983 2.28156 0
M  V30 3708 H 341.525 -4.48354 1.07239 0
M  V30 3709 H 345.069 -5.41656 4.39607 0
M  V30 3710 H 340.966 -5.61846 3.17803 0
M  V30 3711 H 341.734 -6.40146 5.10054 0
M  V30 3712 N 344.397 -0.483516 -1.5 0
M  V30 3713 C 345.345 0.318061 -2.30415 0
M  V30 3714 C 346.339 0.978988 -1.38247 0
M  V30 3715 O 347.545 0.908673 -1.55381 0
M  V30 3716 H 343.92 0.121419 -0.742133 0
M  V30 3717 H 345.891 -0.380403 -2.95965 0
M  V30 3718 C 344.64 1.38013 -3.19136 0
M  V30 3719 H 343.963 0.880952 -3.89973 0
M  V30 3720 H 345.403 1.91332 -3.78375 0
M  V30 3721 C 343.862 2.38884 -2.37563 0
M  V30 3722 O 344.392 3.44412 -2.06744 0
M  V30 3723 N 342.598 2.10912 -1.99911 0
M  V30 3724 H 342.145 1.25118 -2.25174 0
M  V30 3725 H 342.103 2.78635 -1.45636 0
M  V30 3726 N 345.875 1.56104 -0.216619 0
M  V30 3727 C 347.124 1.97348 0.416744 0
M  V30 3728 C 347.437 1.10715 1.6125 0
M  V30 3729 O 348.643 1.41836 2.31506 0
M  V30 3730 C 347.099 3.51059 0.792835 0
M  V30 3731 C 346.707 4.46387 -0.379828 0
M  V30 3732 C 348.451 4.01026 1.39208 0
M  V30 3733 C 346.358 5.91397 0.0184223 0
M  V30 3734 H 345.288 0.736942 0.159475 0
M  V30 3735 H 347.939 1.80827 -0.31205 0
M  V30 3736 H 346.321 3.63162 1.57891 0
M  V30 3737 H 347.495 4.46029 -1.15737 0
M  V30 3738 H 345.81 4.06734 -0.891979 0
M  V30 3739 H 348.407 5.0686 1.70286 0
M  V30 3740 H 348.75 3.46587 2.30614 0
M  V30 3741 H 349.283 3.92125 0.669537 0
M  V30 3742 H 346.022 6.49807 -0.862002 0
M  V30 3743 H 345.542 5.94961 0.760384 0
M  V30 3744 H 347.221 6.45455 0.446818 0
M  V30 3745 N 347.353 -0.0568162 1.57498 0
M  V30 3746 C 348.263 -1.08346 2.08083 0
M  V30 3747 C 349.279 -1.41439 1.01346 0
M  V30 3748 O 350.455 -1.51316 1.32912 0
M  V30 3749 C 347.52 -2.37352 2.52715 0
M  V30 3750 C 346.581 -2.11093 3.73816 0
M  V30 3751 C 345.814 -3.33949 4.1631 0
M  V30 3752 O 346.037 -4.43622 3.58547 0
M  V30 3753 O 344.971 -3.21279 5.08983 0
M  V30 3754 H 348.797 -0.683667 2.95905 0
M  V30 3755 H 346.382 -0.271965 1.46904 0
M  V30 3756 H 348.264 -3.13246 2.81877 0
M  V30 3757 H 346.939 -2.76681 1.68016 0
M  V30 3758 H 345.846 -1.32856 3.49714 0
M  V30 3759 H 347.179 -1.76637 4.59413 0
M  V30 3760 N 348.832 -1.54138 -0.328536 0
M  V30 3761 C 350.057 -1.76378 -1.09112 0
M  V30 3762 C 350.482 -0.508596 -1.81094 0
M  V30 3763 O 349.84 0.539598 -1.73084 0
M  V30 3764 C 349.888 -2.95358 -2.06872 0
M  V30 3765 O 348.992 -2.66556 -3.14677 0
M  V30 3766 H 348.333 -0.584614 -0.314838 0
M  V30 3767 H 350.863 -2.01146 -0.374348 0
M  V30 3768 H 350.873 -3.22566 -2.4983 0
M  V30 3769 H 349.548 -3.86385 -1.5388 0
M  V30 3770 H 348.125 -2.50282 -2.7643 0
M  V30 3771 N 350.31 0.590341 -1.46126 0
M  V30 3772 C 351.726 0.912917 -1.30912 0
M  V30 3773 C 351.926 1.99616 -0.274893 0
M  V30 3774 O 350.982 2.50397 0.325197 0
M  V30 3775 C 352.295 1.3375 -2.69317 0
M  V30 3776 C 353.843 1.45077 -2.77348 0
M  V30 3777 C 354.318 1.90904 -4.16317 0
M  V30 3778 N 355.809 1.9811 -4.18696 0
M  V30 3779 C 356.544 2.34828 -5.23109 0
M  V30 3780 N 356.04 2.70393 -6.37856 0
M  V30 3781 N 357.833 2.35317 -5.10473 0
M  V30 3782 H 349.984 -0.125358 -2.1203 0
M  V30 3783 H 352.247 0.00658481 -0.947977 0
M  V30 3784 H 351.953 0.615614 -3.4627 0
M  V30 3785 H 351.827 2.30058 -2.9892 0
M  V30 3786 H 354.214 2.16353 -2.00687 0
M  V30 3787 H 354.295 0.4704 -2.51438 0
M  V30 3788 H 353.939 1.20209 -4.9347 0
M  V30 3789 H 353.869 2.89886 -4.39629 0
M  V30 3790 H 356.36 1.73146 -3.359 0
M  V30 3791 H 356.673 2.97341 -7.13308 0
M  V30 3792 H 355.018 2.68048 -6.41229 0
M  V30 3793 H 358.209 2.0695 -4.19868 0
M  V30 3794 H 358.382 2.63605 -5.9196 0
M  V30 3795 N 351.788 1.33704 0.83433 0
M  V30 3796 C 353.204 1.13137 1.12571 0
M  V30 3797 C 353.404 -0.0747261 2.01361 0
M  V30 3798 O 352.46 -0.753647 2.4099 0
M  V30 3799 C 353.773 2.42105 1.78342 0
M  V30 3800 C 355.321 2.48054 1.90888 0
M  V30 3801 C 355.796 3.76995 2.60075 0
M  V30 3802 N 357.287 3.78092 2.67584 0
M  V30 3803 C 358.022 4.74574 3.21818 0
M  V30 3804 N 357.518 5.81434 3.76705 0
M  V30 3805 N 359.311 4.62044 3.20112 0
M  V30 3806 H 351.462 2.11 0.243489 0
M  V30 3807 H 353.725 0.932532 0.17055 0
M  V30 3808 H 353.431 3.30391 1.20561 0
M  V30 3809 H 353.305 2.54594 2.7832 0
M  V30 3810 H 355.692 1.60215 2.47821 0
M  V30 3811 H 355.773 2.39502 0.898459 0
M  V30 3812 H 355.417 4.65219 2.03799 0
M  V30 3813 H 355.347 3.82825 3.61597 0
M  V30 3814 H 357.838 3.00865 2.28667 0
M  V30 3815 H 358.151 6.51084 4.16305 0
M  V30 3816 H 356.496 5.85163 3.7498 0
M  V30 3817 H 359.687 3.77716 2.76493 0
M  V30 3818 H 359.86 5.37406 3.62076 0
M  V30 3819 N 353.266 -1.05314 1.17247 0
M  V30 3820 C 354.491 -1.82509 0.985148 0
M  V30 3821 C 354.916 -1.82343 -0.461788 0
M  V30 3822 O 354.274 -1.23151 -1.33055 0
M  V30 3823 C 354.322 -3.26566 1.52929 0
M  V30 3824 O 353.426 -4.05666 0.742225 0
M  V30 3825 H 352.767 -0.564347 0.349869 0
M  V30 3826 H 355.297 -1.32718 1.55715 0
M  V30 3827 H 355.307 -3.77369 1.55103 0
M  V30 3828 H 353.982 -3.26001 2.58256 0
M  V30 3829 H 352.559 -3.64397 0.791794 0
M  V30 3830 N 354.744 -0.972509 -1.24016 0
M  V30 3831 C 355.676 -0.464375 -2.24446 0
M  V30 3832 C 356.689 0.4295 -1.57032 0
M  V30 3833 O 357.878 0.234902 -1.76948 0
M  V30 3834 C 354.978 0.348385 -3.37105 0
M  V30 3835 C 354.151 -0.53673 -4.34094 0
M  V30 3836 C 353.21 0.220838 -5.25736 0
M  V30 3837 O 352.236 -0.386867 -5.67884 0
M  V30 3838 N 353.438 1.50907 -5.60542 0
M  V30 3839 H 356.203 -1.32788 -2.68677 0
M  V30 3840 H 353.764 -0.844877 -1.38107 0
M  V30 3841 H 355.756 0.863341 -3.95384 0
M  V30 3842 H 354.326 1.11285 -2.92121 0
M  V30 3843 H 353.546 -1.23261 -3.74433 0
M  V30 3844 H 354.834 -1.14022 -4.95859 0
M  V30 3845 H 354.232 2.02444 -5.28236 0
M  V30 3846 H 352.789 1.96962 -6.21329 0
M  V30 3847 N 356.222 1.38976 -0.743202 0
M  V30 3848 C 357.471 1.99581 -0.291592 0
M  V30 3849 C 357.784 1.59656 1.13001 0
M  V30 3850 O 358.99 2.13157 1.68156 0
M  V30 3851 C 357.446 3.56813 -0.470391 0
M  V30 3852 C 357.054 4.05695 -1.90041 0
M  V30 3853 C 358.798 4.24423 -0.0809709 0
M  V30 3854 C 356.705 5.5553 -2.02832 0
M  V30 3855 H 355.635 0.746615 -0.105272 0
M  V30 3856 H 358.286 1.58872 -0.918258 0
M  V30 3857 H 356.668 3.95359 0.225299 0
M  V30 3858 H 357.842 3.78464 -2.62872 0
M  V30 3859 H 356.157 3.50775 -2.24379 0
M  V30 3860 H 358.754 5.34474 -0.155445 0
M  V30 3861 H 359.097 4.04962 0.96497 0
M  V30 3862 H 359.63 3.9108 -0.728124 0
M  V30 3863 H 356.369 5.79881 -3.05643 0
M  V30 3864 H 355.889 5.84537 -1.34448 0
M  V30 3865 H 357.568 6.21069 -1.81335 0
M  V30 3866 N 357.7 0.491464 1.49741 0
M  V30 3867 C 358.63 -0.28154 2.31796 0
M  V30 3868 C 359.611 -0.971473 1.3963 0
M  V30 3869 O 360.796 -0.964719 1.68543 0
M  V30 3870 C 357.926 -1.35203 3.19902 0
M  V30 3871 C 356.88 -0.782529 4.20786 0
M  V30 3872 C 356.206 -1.95283 4.97764 0
M  V30 3873 C 357.506 0.21999 5.21837 0
M  V30 3874 H 359.2 0.403355 2.96671 0
M  V30 3875 H 356.746 0.195425 1.42668 0
M  V30 3876 H 358.699 -1.90045 3.76113 0
M  V30 3877 H 357.423 -2.06598 2.52953 0
M  V30 3878 H 356.082 -0.255928 3.65706 0
M  V30 3879 H 355.73 -2.65423 4.2727 0
M  V30 3880 H 355.43 -1.57789 5.66018 0
M  V30 3881 H 356.954 -2.50577 5.56816 0
M  V30 3882 H 358.368 -0.23996 5.72798 0
M  V30 3883 H 356.765 0.51026 5.97927 0
M  V30 3884 H 357.835 1.13911 4.7133 0
M  V30 3885 N 359.178 -1.55987 0.224894 0
M  V30 3886 C 360.111 -2.16413 -0.723929 0
M  V30 3887 C 361.089 -1.10952 -1.18863 0
M  V30 3888 O 362.273 -1.39225 -1.27077 0
M  V30 3889 C 359.4 -2.74711 -1.98121 0
M  V30 3890 C 358.446 -3.9303 -1.6562 0
M  V30 3891 S 359.279 -5.29817 -0.778058 0
M  V30 3892 C 360.435 -5.91555 -2.04483 0
M  V30 3893 H 360.668 -2.96555 -0.210347 0
M  V30 3894 H 358.201 -1.54397 0.00955457 0
M  V30 3895 H 360.159 -3.08938 -2.70311 0
M  V30 3896 H 358.82 -1.94555 -2.46591 0
M  V30 3897 H 358.013 -4.32334 -2.59043 0
M  V30 3898 H 357.615 -3.59966 -1.01491 0
M  V30 3899 H 359.907 -6.07732 -2.99446 0
M  V30 3900 H 360.85 -6.87498 -1.69563 0
M  V30 3901 H 361.258 -5.20419 -2.18688 0
M  V30 3902 N 360.656 0.0484629 -1.57525 0
M  V30 3903 C 361.902 0.738854 -1.89506 0
M  V30 3904 C 362.257 1.73989 -0.821319 0
M  V30 3905 O 361.55 1.90825 0.172129 0
M  V30 3906 C 361.744 1.46632 -3.25935 0
M  V30 3907 C 361.573 0.537254 -4.46479 0
M  V30 3908 C 360.343 0.165484 -5.05029 0
M  V30 3909 C 362.541 -0.176085 -5.13998 0
M  V30 3910 N 360.523 -0.766868 -6.09091 0
M  V30 3911 C 361.894 -0.96478 -6.12448 0
M  V30 3912 C 363.949 -0.24509 -4.97296 0
M  V30 3913 C 362.652 -1.8161 -6.95996 0
M  V30 3914 C 364.678 -1.08347 -5.81391 0
M  V30 3915 C 364.04 -1.86014 -6.79395 0
M  V30 3916 H 360.139 0.245067 -0.742608 0
M  V30 3917 H 362.723 -0.000476161 -1.947 0
M  V30 3918 H 360.894 2.17623 -3.21706 0
M  V30 3919 H 362.626 2.10757 -3.45491 0
M  V30 3920 H 359.381 0.523466 -4.70698 0
M  V30 3921 H 359.805 -1.22698 -6.65788 0
M  V30 3922 H 364.447 0.341063 -4.21422 0
M  V30 3923 H 362.165 -2.41313 -7.71229 0
M  V30 3924 H 365.751 -1.14014 -5.70519 0
M  V30 3925 H 364.631 -2.4984 -7.43337 0
M  V30 3926 N 362.134 1.5431 0.320358 0
M  V30 3927 C 363.359 1.76954 1.08175 0
M  V30 3928 C 363.784 0.518193 1.80821 0
M  V30 3929 O 363.142 -0.530411 1.73368 0
M  V30 3930 C 363.19 2.96451 2.05303 0
M  V30 3931 O 362.294 2.68221 3.13259 0
M  V30 3932 H 361.635 0.586275 0.311733 0
M  V30 3933 H 364.165 2.01342 0.363676 0
M  V30 3934 H 364.175 3.23887 2.48116 0
M  V30 3935 H 362.85 3.87196 1.51829 0
M  V30 3936 H 361.427 2.51744 2.75099 0
M  V30 3937 N 363.613 -0.582584 1.46437 0
M  V30 3938 C 364.576 -1.67366 1.56592 0
M  V30 3939 C 365.576 -1.54575 0.443072 0
M  V30 3940 O 366.766 -1.59191 0.707381 0
M  V30 3941 C 363.898 -3.06791 1.48634 0
M  V30 3942 H 365.091 -1.5972 2.5383 0
M  V30 3943 H 362.644 -0.800432 1.34249 0
M  V30 3944 H 363.379 -3.19993 0.526763 0
M  V30 3945 H 363.164 -3.17484 2.30101 0
M  V30 3946 H 364.654 -3.86218 1.58826 0
M  V30 3947 N 365.091 -1.34144 -0.827227 0
M  V30 3948 C 366.039 -1.25364 -1.95925 0
M  V30 3949 C 367.033 -0.152608 -1.68711 0
M  V30 3950 O 368.239 -0.317311 -1.77181 0
M  V30 3951 H 364.614 -0.389342 -0.643364 0
M  V30 3952 H 366.585 -2.21045 -2.00454 0
M  V30 3953 C 365.334 -1.02158 -3.32354 0
M  V30 3954 H 364.657 -1.86111 -3.5384 0
M  V30 3955 H 366.097 -1.00048 -4.12027 0
M  V30 3956 C 364.556 0.275244 -3.35774 0
M  V30 3957 O 365.086 1.27806 -3.80826 0
M  V30 3958 N 363.292 0.306853 -2.88975 0
M  V30 3959 H 362.839 -0.509777 -2.52506 0
M  V30 3960 H 362.797 1.17432 -2.91646 0
M  V30 3961 N 366.569 1.04691 -1.17803 0
M  V30 3962 C 367.516 2.12557 -0.899343 0
M  V30 3963 C 368.486 1.65339 0.158771 0
M  V30 3964 O 369.671 1.90789 0.0204797 0
M  V30 3965 C 366.811 3.42481 -0.424315 0
M  V30 3966 C 365.924 4.03346 -1.54713 0
M  V30 3967 C 365.059 5.21208 -1.02546 0
M  V30 3968 C 364.098 5.74089 -2.12339 0
M  V30 3969 N 363.235 6.83247 -1.61612 0
M  V30 3970 H 368.075 2.35734 -1.823 0
M  V30 3971 H 365.612 1.1564 -0.909159 0
M  V30 3972 H 367.57 4.16996 -0.130421 0
M  V30 3973 H 366.2 3.19471 0.462377 0
M  V30 3974 H 365.252 3.2622 -1.95664 0
M  V30 3975 H 366.564 4.38628 -2.37501 0
M  V30 3976 H 365.718 6.02812 -0.685718 0
M  V30 3977 H 364.457 4.87414 -0.167084 0
M  V30 3978 H 363.462 4.91111 -2.47165 0
M  V30 3979 H 364.687 6.0993 -2.98601 0
M  V30 3980 H 362.633 6.5134 -0.780533 0
M  V30 3981 H 362.55 7.17559 -2.38003 0
M  V30 3982 H 363.818 7.68491 -1.30545 0
M  V30 3983 N 368.047 0.979072 1.23499 0
M  V30 3984 C 369.293 0.648178 1.92163 0
M  V30 3985 C 369.626 -0.816049 1.76222 0
M  V30 3986 O 368.901 -1.58849 1.12237 0
M  V30 3987 C 369.184 1.03773 3.44824 0
M  V30 3988 C 369.037 2.55948 3.69879 0
M  V30 3989 C 370.356 0.580653 4.36253 0
M  V30 3990 H 367.475 0.236952 0.69787 0
M  V30 3991 H 370.117 1.22012 1.45647 0
M  V30 3992 H 368.267 0.551058 3.84572 0
M  V30 3993 H 369.939 3.12179 3.3962 0
M  V30 3994 H 368.182 2.98641 3.14636 0
M  V30 3995 H 368.853 2.78255 4.76737 0
M  V30 3996 H 371.329 0.998465 4.03943 0
M  V30 3997 H 370.205 0.881663 5.41773 0
M  V30 3998 H 370.466 -0.519052 4.39042 0
M  V30 3999 N 369.525 -1.3858 0.750561 0
M  V30 4000 C 370.772 -2.00184 0.305373 0
M  V30 4001 C 371.1 -1.59575 -1.11203 0
M  V30 4002 O 370.355 -0.823236 -1.77542 0
M  V30 4003 C 370.654 -3.55455 0.372373 0
M  V30 4004 C 370.32 -4.15765 1.745 0
M  V30 4005 C 368.982 -4.31951 2.12065 0
M  V30 4006 C 371.334 -4.49067 2.64553 0
M  V30 4007 C 368.662 -4.78734 3.39162 0
M  V30 4008 C 371.014 -4.97265 3.91038 0
M  V30 4009 C 369.678 -5.11658 4.28676 0
M  V30 4010 H 368.948 -0.732526 0.111744 0
M  V30 4011 H 371.595 -1.65673 0.960451 0
M  V30 4012 H 369.9 -3.90084 -0.366272 0
M  V30 4013 H 371.597 -4.00999 0.00953918 0
M  V30 4014 H 368.187 -4.03579 1.44297 0
M  V30 4015 H 372.371 -4.36166 2.36796 0
M  V30 4016 H 367.627 -4.88062 3.68246 0
M  V30 4017 H 371.801 -5.22003 4.60962 0
M  V30 4018 H 369.428 -5.47668 5.27222 0
M  V30 4019 N 371.003 -0.499398 -1.49478 0
M  V30 4020 C 371.913 0.284489 -2.32869 0
M  V30 4021 C 372.929 0.968885 -1.44529 0
M  V30 4022 O 374.105 0.95062 -1.77553 0
M  V30 4023 C 371.17 1.33594 -3.19928 0
M  V30 4024 C 370.231 0.665149 -4.24116 0
M  V30 4025 C 369.464 1.6665 -5.07014 0
M  V30 4026 O 369.687 2.89618 -4.91404 0
M  V30 4027 O 368.621 1.22271 -5.8935 0
M  V30 4028 H 372.447 -0.39802 -3.01081 0
M  V30 4029 H 370.032 -0.260758 -1.47107 0
M  V30 4030 H 371.914 1.94431 -3.73864 0
M  V30 4031 H 370.589 2.0014 -2.54412 0
M  V30 4032 H 369.496 0.0170769 -3.74096 0
M  V30 4033 H 370.829 0.0421555 -4.92182 0
M  V30 4034 N 372.481 1.55866 -0.233164 0
M  V30 4035 C 373.391 2.24431 0.683217 0
M  V30 4036 C 374.407 1.2558 1.2044 0
M  V30 4037 O 375.583 1.58422 1.24356 0
M  V30 4038 C 372.648 2.91979 1.86947 0
M  V30 4039 C 371.709 4.06204 1.38912 0
M  V30 4040 C 370.942 4.70522 2.51883 0
M  V30 4041 O 371.165 4.33865 3.70293 0
M  V30 4042 O 370.099 5.59296 2.22423 0
M  V30 4043 H 373.925 3.03426 0.129059 0
M  V30 4044 H 371.51 1.494 -0.0022283 0
M  V30 4045 H 373.392 3.34573 2.56201 0
M  V30 4046 H 372.067 2.15935 2.41151 0
M  V30 4047 H 370.974 3.68155 0.664259 0
M  V30 4048 H 372.307 4.84025 0.893328 0
M  V30 4049 N 373.959 -0.0401083 1.57549 0
M  V30 4050 C 374.889 -1.04384 2.08869 0
M  V30 4051 C 375.87 -1.38407 0.988817 0
M  V30 4052 O 377.055 -1.47483 1.26342 0
M  V30 4053 C 374.185 -2.34808 2.55895 0
M  V30 4054 C 373.139 -2.15057 3.70047 0
M  V30 4055 C 372.465 -3.51145 4.03239 0
M  V30 4056 C 373.765 -1.54576 4.98902 0
M  V30 4057 H 375.459 -0.616666 2.92981 0
M  V30 4058 H 373.005 -0.295184 1.40942 0
M  V30 4059 H 374.958 -3.05346 2.90417 0
M  V30 4060 H 373.682 -2.79565 1.68853 0
M  V30 4061 H 372.341 -1.46954 3.35857 0
M  V30 4062 H 371.989 -3.93529 3.13279 0
M  V30 4063 H 371.689 -3.38758 4.80122 0
M  V30 4064 H 373.213 -4.23062 4.40285 0
M  V30 4065 H 374.627 -2.15017 5.31451 0
M  V30 4066 H 373.024 -1.52796 5.80322 0
M  V30 4067 H 374.094 -0.51039 4.82206 0
M  V30 4068 N 375.437 -1.54477 -0.31217 0
M  V30 4069 C 376.665 -1.77205 -1.068 0
M  V30 4070 C 377.08 -0.526114 -1.81321 0
M  V30 4071 O 376.437 0.503647 -1.75413 0
M  V30 4072 C 376.488 -2.97253 -2.05725 0
M  V30 4073 O 376.209 -4.1703 -1.34228 0
M  V30 4074 C 377.71 -3.32281 -2.93435 0
M  V30 4075 H 374.93 -0.591287 -0.317208 0
M  V30 4076 H 377.474 -2.01398 -0.354834 0
M  V30 4077 H 375.629 -2.753 -2.72559 0
M  V30 4078 H 376.043 -4.84636 -2.00571 0
M  V30 4079 H 377.517 -4.19551 -3.58721 0
M  V30 4080 H 377.994 -2.49945 -3.61143 0
M  V30 4081 H 378.6 -3.56353 -2.32147 0
M  V30 4082 N 376.915 0.57481 -1.46744 0
M  V30 4083 C 378.192 1.3352 -1.4294 0
M  V30 4084 C 378.572 2.10775 -0.117009 0
M  V30 4085 O 377.92 2.09966 0.901474 0
M  V30 4086 C 378.13 2.25456 -2.66403 0
M  V30 4087 C 379.478 2.87035 -3.12883 0
M  V30 4088 O 380.502 2.35766 -2.67007 0
M  V30 4089 O 379.361 3.80179 -3.92589 0
M  V30 4090 H 376.455 0.600318 -0.568812 0
M  V30 4091 H 379.001 0.595171 -1.58921 0
M  V30 4092 H 377.773 1.67851 -3.53471 0
M  V30 4093 H 377.396 3.06785 -2.52921 0
M  V30 4094 N 378.394 1.34581 0.820102 0
M  V30 4095 C 379.64 1.27285 1.57881 0
M  V30 4096 C 379.973 -0.156137 1.93571 0
M  V30 4097 O 379.248 -1.10222 1.60254 0
M  V30 4098 C 379.531 2.16639 2.87645 0
M  V30 4099 C 379.384 3.68088 2.58517 0
M  V30 4100 C 380.703 2.05378 3.8924 0
M  V30 4101 H 377.822 0.463714 0.572833 0
M  V30 4102 H 380.464 1.64859 0.944539 0
M  V30 4103 H 378.614 1.84725 3.41773 0
M  V30 4104 H 380.286 4.10382 2.10676 0
M  V30 4105 H 378.529 3.89038 1.91917 0
M  V30 4106 H 379.2 4.2598 3.51063 0
M  V30 4107 H 381.676 2.33404 3.44473 0
M  V30 4108 H 380.552 2.7012 4.77835 0
M  V30 4109 H 380.813 1.0316 4.29896 0
M  V30 4110 N 379.872 -1.04064 1.18357 0
M  V30 4111 C 380.782 -2.15569 0.925596 0
M  V30 4112 C 381.798 -1.7365 -0.110295 0
M  V30 4113 O 382.974 -2.01273 0.0716218 0
M  V30 4114 C 380.039 -3.43704 0.454836 0
M  V30 4115 C 379.1 -4.00004 1.55869 0
M  V30 4116 C 378.333 -5.22023 1.1103 0
M  V30 4117 O 378.556 -5.70392 -0.0309756 0
M  V30 4118 O 377.49 -5.70856 1.90805 0
M  V30 4119 H 381.316 -2.40187 1.8586 0
M  V30 4120 H 378.901 -1.1402 0.965394 0
M  V30 4121 H 380.783 -4.20923 0.200382 0
M  V30 4122 H 379.458 -3.20559 -0.449876 0
M  V30 4123 H 378.365 -3.24172 1.86716 0
M  V30 4124 H 379.698 -4.2749 2.43953 0
M  V30 4125 N 381.35 -0.985608 -1.22978 0
M  V30 4126 C 382.766 -0.695104 -1.43668 0
M  V30 4127 C 382.966 0.736866 -1.87543 0
M  V30 4128 O 382.022 1.50868 -2.02473 0
M  V30 4129 C 383.335 -1.69447 -2.48412 0
M  V30 4130 C 384.883 -1.70909 -2.62219 0
M  V30 4131 C 385.358 -2.6969 -3.70178 0
M  V30 4132 N 386.849 -2.6824 -3.77626 0
M  V30 4133 C 387.584 -3.41339 -4.60733 0
M  V30 4134 N 387.08 -4.24015 -5.4789 0
M  V30 4135 N 388.873 -3.30079 -4.54977 0
M  V30 4136 H 381.024 -1.91054 -0.928016 0
M  V30 4137 H 383.287 -0.823553 -0.469536 0
M  V30 4138 H 382.993 -2.7188 -2.23102 0
M  V30 4139 H 382.867 -1.48147 -3.46889 0
M  V30 4140 H 385.254 -0.691785 -2.86877 0
M  V30 4141 H 385.335 -1.96276 -1.6404 0
M  V30 4142 H 384.979 -3.71566 -3.46268 0
M  V30 4143 H 384.909 -2.41595 -4.67909 0
M  V30 4144 H 387.4 -2.08243 -3.15346 0
M  V30 4145 H 387.713 -4.76636 -6.08308 0
M  V30 4146 H 386.058 -4.28104 -5.47496 0
M  V30 4147 H 389.249 -2.64937 -3.85909 0
M  V30 4148 H 389.422 -3.87308 -5.19516 0
M  V30 4149 N 382.828 1.3818 -0.7579 0
M  V30 4150 C 383.76 2.2901 -0.0932177 0
M  V30 4151 C 384.773 1.47958 0.679136 0
M  V30 4152 O 385.962 1.70773 0.519514 0
M  V30 4153 C 383.062 3.26953 0.89192 0
M  V30 4154 C 382.235 4.37045 0.176303 0
M  V30 4155 C 381.294 5.15148 1.07281 0
M  V30 4156 O 380.32 5.66616 0.541728 0
M  V30 4157 N 381.522 5.28542 2.40049 0
M  V30 4158 H 384.287 2.86694 -0.873303 0
M  V30 4159 H 381.848 1.50007 -0.609054 0
M  V30 4160 H 383.84 3.76083 1.49479 0
M  V30 4161 H 382.41 2.70136 1.57306 0
M  V30 4162 H 381.63 3.89493 -0.607328 0
M  V30 4163 H 382.918 5.07801 -0.318718 0
M  V30 4164 H 382.316 4.88285 2.85647 0
M  V30 4165 H 380.873 5.8103 2.95376 0
M  V30 4166 N 384.306 0.507319 1.49211 0
M  V30 4167 C 385.553 -0.0349529 2.0247 0
M  V30 4168 C 385.881 -1.36409 1.38647 0
M  V30 4169 O 385.136 -1.88841 0.513566 0
M  V30 4170 C 385.435 -0.229513 3.56662 0
M  V30 4171 C 385.101 1.02241 4.39156 0
M  V30 4172 C 383.763 1.36557 4.61417 0
M  V30 4173 C 386.115 1.85428 4.871 0
M  V30 4174 C 383.443 2.53999 5.28868 0
M  V30 4175 C 385.795 3.02028 5.55843 0
M  V30 4176 C 384.459 3.36717 5.76349 0
M  V30 4177 H 383.729 -0.0127902 0.74089 0
M  V30 4178 H 386.376 0.668756 1.79443 0
M  V30 4179 H 384.681 -1.0158 3.78403 0
M  V30 4180 H 386.378 -0.663641 3.9547 0
M  V30 4181 H 382.968 0.745124 4.22073 0
M  V30 4182 H 387.152 1.6023 4.69723 0
M  V30 4183 H 382.408 2.81105 5.42946 0
M  V30 4184 H 386.582 3.66808 5.91967 0
M  V30 4185 H 384.209 4.27821 6.28389 0
M  V30 4186 N 385.784 -1.5574 0.241426 0
M  V30 4187 C 386.734 -2.17803 -0.674233 0
M  V30 4188 C 387.718 -1.13225 -1.14319 0
M  V30 4189 O 388.91 -1.39153 -1.09387 0
M  V30 4190 C 386.039 -2.87682 -1.87333 0
M  V30 4191 C 385.125 -3.99509 -1.42313 0
M  V30 4192 N 385.516 -5.01115 -0.686798 0
M  V30 4193 C 383.814 -4.11964 -1.70885 0
M  V30 4194 C 384.515 -5.79922 -0.454456 0
M  V30 4195 N 383.491 -5.34001 -1.01705 0
M  V30 4196 H 387.293 -2.93718 -0.103447 0
M  V30 4197 H 384.807 -1.62342 0.0435095 0
M  V30 4198 H 386.804 -3.3057 -2.54026 0
M  V30 4199 H 385.464 -2.13269 -2.4484 0
M  V30 4200 H 386.475 -5.16799 -0.337459 0
M  V30 4201 H 383.152 -3.48718 -2.2957 0
M  V30 4202 H 384.542 -6.71768 0.132992 0
M  V30 4203 N 387.262 0.0317525 -1.57568 0
M  V30 4204 C 388.209 1.0332 -2.06382 0
M  V30 4205 C 389.179 1.36082 -0.952414 0
M  V30 4206 O 390.364 1.46466 -1.2228 0
M  V30 4207 C 387.504 2.32989 -2.54578 0
M  V30 4208 C 386.617 2.0641 -3.79498 0
M  V30 4209 C 385.752 3.2993 -4.16317 0
M  V30 4210 C 384.791 2.98893 -5.34162 0
M  V30 4211 N 383.928 4.14857 -5.66426 0
M  V30 4212 H 388.768 0.609982 -2.9169 0
M  V30 4213 H 386.305 0.289573 -1.44222 0
M  V30 4214 H 388.263 3.0875 -2.80587 0
M  V30 4215 H 386.893 2.73039 -1.7219 0
M  V30 4216 H 385.945 1.21158 -3.6059 0
M  V30 4217 H 387.257 1.79513 -4.65378 0
M  V30 4218 H 386.411 4.1406 -4.4344 0
M  V30 4219 H 385.15 3.59938 -3.29083 0
M  V30 4220 H 384.155 2.13164 -5.06795 0
M  V30 4221 H 385.38 2.70165 -6.23047 0
M  V30 4222 H 383.326 4.44821 -4.82151 0
M  V30 4223 H 383.243 3.91374 -6.4681 0
M  V30 4224 H 384.511 4.99868 -5.98124 0
M  V30 4225 N 388.74 1.54641 0.303973 0
M  V30 4226 C 389.703 1.84646 1.35789 0
M  V30 4227 C 390.703 0.7192 1.4382 0
M  V30 4228 O 391.893 0.987491 1.43507 0
M  V30 4229 C 389.025 2.02407 2.74307 0
M  V30 4230 H 390.218 2.78829 1.10429 0
M  V30 4231 H 387.771 1.46658 0.540487 0
M  V30 4232 H 388.506 1.10502 3.04893 0
M  V30 4233 H 388.291 2.84453 2.69868 0
M  V30 4234 H 389.781 2.27002 3.50514 0
M  V30 4235 N 390.218 -0.567019 1.47046 0
M  V30 4236 C 391.148 -1.68482 1.61667 0
M  V30 4237 C 392.129 -1.6358 0.466418 0
M  V30 4238 O 393.314 -1.81354 0.694574 0
M  V30 4239 C 390.444 -3.07124 1.62148 0
M  V30 4240 C 389.398 -3.26867 2.76301 0
M  V30 4241 C 388.724 -4.66196 2.61849 0
M  V30 4242 C 390.024 -3.13186 4.17986 0
M  V30 4243 H 391.718 -1.56502 2.5524 0
M  V30 4244 H 389.264 -0.751486 1.22836 0
M  V30 4245 H 391.217 -3.8516 1.70968 0
M  V30 4246 H 389.941 -3.2004 0.651287 0
M  V30 4247 H 388.6 -2.51237 2.66975 0
M  V30 4248 H 388.248 -4.75898 1.62879 0
M  V30 4249 H 387.948 -4.80356 3.38425 0
M  V30 4250 H 389.472 -5.46379 2.72584 0
M  V30 4251 H 390.886 -3.81049 4.2834 0
M  V30 4252 H 389.283 -3.3886 4.95272 0
M  V30 4253 H 390.353 -2.10057 4.3704 0
M  V30 4254 N 391.696 -1.35014 -0.812953 0
M  V30 4255 C 392.926 -1.30841 -1.59888 0
M  V30 4256 C 393.334 0.117576 -1.88834 0
M  V30 4257 O 392.677 1.07807 -1.48739 0
M  V30 4258 C 392.739 -2.0412 -2.95931 0
M  V30 4259 C 392.403 -3.53336 -2.89832 0
M  V30 4260 C 393.4 -4.48052 -2.63714 0
M  V30 4261 C 391.085 -3.95894 -3.0915 0
M  V30 4262 C 393.079 -5.833 -2.56982 0
M  V30 4263 C 390.766 -5.31239 -3.0204 0
M  V30 4264 C 391.764 -6.24754 -2.75991 0
M  V30 4265 O 391.452 -7.57617 -2.68833 0
M  V30 4266 H 391.184 -0.451215 -0.50337 0
M  V30 4267 H 393.738 -1.78354 -1.01877 0
M  V30 4268 H 391.968 -1.51235 -3.559 0
M  V30 4269 H 393.657 -1.93107 -3.57022 0
M  V30 4270 H 394.423 -4.16492 -2.48515 0
M  V30 4271 H 390.302 -3.23495 -3.28438 0
M  V30 4272 H 393.846 -6.56263 -2.36569 0
M  V30 4273 H 389.743 -5.62415 -3.16796 0
M  V30 4274 H 390.511 -7.67469 -2.84487 0
M  V30 4275 N 393.175 1.03435 -1.18907 0
M  V30 4276 C 394.403 1.80381 -1.01342 0
M  V30 4277 C 394.818 1.83649 0.438005 0
M  V30 4278 O 394.175 1.27655 1.30424 0
M  V30 4279 C 394.226 3.25689 -1.56873 0
M  V30 4280 O 393.947 3.22673 -2.96334 0
M  V30 4281 C 395.448 4.19255 -1.44014 0
M  V30 4282 H 392.668 0.56784 -0.35749 0
M  V30 4283 H 395.212 1.30317 -1.576 0
M  V30 4284 H 393.367 3.72962 -1.04777 0
M  V30 4285 H 393.781 4.13748 -3.22355 0
M  V30 4286 H 395.255 5.19123 -1.87657 0
M  V30 4287 H 395.732 4.37467 -0.389815 0
M  V30 4288 H 396.338 3.77851 -1.95214 0
M  V30 4289 N 394.653 0.992116 1.22453 0
M  V30 4290 C 395.899 0.668523 1.91464 0
M  V30 4291 C 396.232 -0.797313 1.77078 0
M  V30 4292 O 395.507 -1.5765 1.13916 0
M  V30 4293 C 395.79 1.07424 3.43703 0
M  V30 4294 C 395.643 2.59857 3.67143 0
M  V30 4295 C 396.962 0.626891 4.35612 0
M  V30 4296 H 394.081 0.244341 0.695318 0
M  V30 4297 H 396.723 1.2355 1.44345 0
M  V30 4298 H 394.873 0.591816 3.83966 0
M  V30 4299 H 396.545 3.15764 3.3629 0
M  V30 4300 H 394.788 3.01961 3.11451 0
M  V30 4301 H 395.459 2.83296 4.73759 0
M  V30 4302 H 397.935 1.04125 4.02861 0
M  V30 4303 H 396.811 0.939076 5.40807 0
M  V30 4304 H 397.072 -0.472457 4.39568 0
M  V30 4305 N 396.131 -1.37776 0.765217 0
M  V30 4306 C 397.547 -1.53297 0.444108 0
M  V30 4307 C 397.747 -1.72515 -1.04119 0
M  V30 4308 O 396.803 -1.74278 -1.82711 0
M  V30 4309 C 398.116 -2.73328 1.25349 0
M  V30 4310 C 399.664 -2.87185 1.24473 0
M  V30 4311 C 400.139 -4.10191 2.03733 0
M  V30 4312 N 401.63 -4.17291 2.01053 0
M  V30 4313 C 402.365 -5.11488 2.59166 0
M  V30 4314 N 401.861 -6.11285 3.26041 0
M  V30 4315 N 403.654 -5.03924 2.49032 0
M  V30 4316 H 395.805 -1.23552 1.72768 0
M  V30 4317 H 398.068 -0.601103 0.733062 0
M  V30 4318 H 397.774 -2.6557 2.30577 0
M  V30 4319 H 397.648 -3.66834 0.87823 0
M  V30 4320 H 400.035 -2.94418 0.20047 0
M  V30 4321 H 400.116 -1.94657 1.65959 0
M  V30 4322 H 399.76 -4.0372 3.08176 0
M  V30 4323 H 399.69 -5.01821 1.59633 0
M  V30 4324 H 402.181 -3.45825 1.5236 0
M  V30 4325 H 402.494 -6.79678 3.67774 0
M  V30 4326 H 400.839 -6.11583 3.30138 0
M  V30 4327 H 404.03 -4.24902 1.96407 0
M  V30 4328 H 404.203 -5.77152 2.94617 0
M  V30 4329 N 397.609 -0.515225 -1.4894 0
M  V30 4330 C 398.834 0.022727 -2.07388 0
M  V30 4331 C 399.259 1.2876 -1.37122 0
M  V30 4332 O 398.617 1.76067 -0.432431 0
M  V30 4333 C 398.665 0.244869 -3.59768 0
M  V30 4334 O 397.769 1.31667 -3.90817 0
M  V30 4335 H 397.11 -0.0325506 -0.663202 0
M  V30 4336 H 399.64 -0.718918 -1.91553 0
M  V30 4337 H 399.65 0.47205 -4.0526 0
M  V30 4338 H 398.325 -0.679194 -4.10317 0
M  V30 4339 H 396.902 1.07331 -3.5712 0
M  V30 4340 N 399.087 1.5561 -0.249682 0
M  V30 4341 C 400.317 2.03116 0.377803 0
M  V30 4342 C 400.725 1.12822 1.51881 0
M  V30 4343 O 400.068 0.13562 1.83199 0
M  V30 4344 C 400.13 3.46866 0.944693 0
M  V30 4345 C 399.794 4.56955 -0.0644259 0
M  V30 4346 C 400.791 5.12485 -0.874957 0
M  V30 4347 C 398.476 5.01936 -0.19132 0
M  V30 4348 C 400.47 6.11491 -1.79881 0
M  V30 4349 C 398.157 6.00773 -1.11868 0
M  V30 4350 C 399.155 6.5543 -1.92095 0
M  V30 4351 O 398.843 7.5234 -2.83267 0
M  V30 4352 H 398.575 0.669489 0.0935961 0
M  V30 4353 H 401.129 2.02004 -0.371966 0
M  V30 4354 H 399.359 3.45136 1.74407 0
M  V30 4355 H 401.048 3.77856 1.48255 0
M  V30 4356 H 401.814 4.78564 -0.787523 0
M  V30 4357 H 397.693 4.59055 0.423072 0
M  V30 4358 H 401.237 6.54078 -2.42543 0
M  V30 4359 H 397.134 6.34114 -1.20703 0
M  V30 4360 H 397.902 7.69966 -2.7766 0
M  V30 4361 N 400.565 -0.0233959 1.57583 0
M  V30 4362 C 401.495 -1.02162 2.09965 0
M  V30 4363 C 402.476 -1.3735 1.00344 0
M  V30 4364 O 403.661 -1.46135 1.27899 0
M  V30 4365 C 400.791 -2.32081 2.58371 0
M  V30 4366 C 399.745 -2.1112 3.72307 0
M  V30 4367 C 399.071 -3.46848 4.06941 0
M  V30 4368 C 400.371 -1.49276 5.00514 0
M  V30 4369 H 402.065 -0.585557 2.93618 0
M  V30 4370 H 399.611 -0.280218 1.41247 0
M  V30 4371 H 401.564 -3.02249 2.93639 0
M  V30 4372 H 400.288 -2.77758 1.71808 0
M  V30 4373 H 398.947 -1.43384 3.37397 0
M  V30 4374 H 398.595 -3.90184 3.17436 0
M  V30 4375 H 398.295 -3.33646 4.83688 0
M  V30 4376 H 399.819 -4.18369 4.44747 0
M  V30 4377 H 401.233 -2.09368 5.33702 0
M  V30 4378 H 399.63 -1.46632 5.8191 0
M  V30 4379 H 400.7 -0.459217 4.82721 0
M  V30 4380 N 402.043 -1.548 -0.295768 0
M  V30 4381 C 402.991 -1.86874 -1.38495 0
M  V30 4382 C 403.985 -0.742938 -1.52239 0
M  V30 4383 O 405.191 -0.926999 -1.54294 0
M  V30 4384 H 401.566 -0.592786 -0.462719 0
M  V30 4385 H 403.537 -2.77904 -1.08682 0
M  V30 4386 C 402.286 -2.13732 -2.74252 0
M  V30 4387 H 401.609 -2.99835 -2.64459 0
M  V30 4388 H 403.049 -2.4011 -3.49461 0
M  V30 4389 C 401.508 -0.937539 -3.23592 0
M  V30 4390 O 402.038 -0.160665 -4.01379 0
M  V30 4391 N 400.244 -0.741478 -2.80981 0
M  V30 4392 H 399.791 -1.37489 -2.1784 0
M  V30 4393 H 399.749 0.0597103 -3.14343 0
M  V30 4394 N 403.521 0.559213 -1.47345 0
M  V30 4395 C 404.761 1.32728 -1.55444 0
M  V30 4396 C 405.125 1.90838 -0.210895 0
M  V30 4397 O 406.326 2.68282 -0.166719 0
M  V30 4398 C 404.597 2.4092 -2.63993 0
M  V30 4399 S 406.156 3.2784 -2.91661 0
M  V30 4400 H 402.974 0.451883 -0.548929 0
M  V30 4401 H 405.576 0.640404 -1.84714 0
M  V30 4402 H 404.28 1.9666 -3.60212 0
M  V30 4403 H 403.811 3.14351 -2.36531 0
M  V30 4404 H 405.826 4.40341 -2.28722 0
M  V30 4405 N 404.999 1.35443 0.805782 0
M  V30 4406 C 405.909 1.30546 1.94923 0
M  V30 4407 C 406.925 0.210233 1.72725 0
M  V30 4408 O 408.101 0.43975 1.9654 0
M  V30 4409 C 405.166 1.07782 3.29521 0
M  V30 4410 C 404.227 2.26625 3.64609 0
M  V30 4411 C 403.46 2.04938 4.92784 0
M  V30 4412 O 403.683 1.01624 5.61274 0
M  V30 4413 O 402.617 2.9232 5.26149 0
M  V30 4414 H 406.443 2.26779 2.02002 0
M  V30 4415 H 404.028 1.15823 0.943682 0
M  V30 4416 H 405.91 0.969392 4.10098 0
M  V30 4417 H 404.585 0.146003 3.23371 0
M  V30 4418 H 403.492 2.43033 2.84404 0
M  V30 4419 H 404.825 3.18257 3.75464 0
M  V30 4420 N 406.477 -1.02803 1.19454 0
M  V30 4421 C 407.893 -1.28473 0.946937 0
M  V30 4422 C 408.093 -1.97881 -0.380202 0
M  V30 4423 O 407.149 -2.26719 -1.11151 0
M  V30 4424 C 408.462 -2.13099 2.12154 0
M  V30 4425 C 410.01 -2.26404 2.16126 0
M  V30 4426 C 410.485 -3.14402 3.33039 0
M  V30 4427 N 411.976 -3.21991 3.32981 0
M  V30 4428 C 412.711 -3.90272 4.20089 0
M  V30 4429 N 412.207 -4.60777 5.17355 0
M  V30 4430 N 414 -3.8668 4.07964 0
M  V30 4431 H 406.151 -0.561665 2.04839 0
M  V30 4432 H 408.414 -0.310438 0.89573 0
M  V30 4433 H 408.12 -1.69422 3.08203 0
M  V30 4434 H 407.994 -3.13813 2.09287 0
M  V30 4435 H 410.381 -2.69311 1.20647 0
M  V30 4436 H 410.462 -1.25237 2.23045 0
M  V30 4437 H 410.106 -2.72204 4.28798 0
M  V30 4438 H 410.036 -4.1563 3.23356 0
M  V30 4439 H 412.527 -2.71778 2.62574 0
M  V30 4440 H 412.84 -5.10513 5.80169 0
M  V30 4441 H 411.185 -4.5964 5.21302 0
M  V30 4442 H 414.376 -3.30739 3.31254 0
M  V30 4443 H 414.549 -4.39621 4.76064 0
M  V30 4444 N 407.956 -0.998596 -1.21925 0
M  V30 4445 C 409.186 -0.695276 -1.94549 0
M  V30 4446 C 409.594 0.745079 -1.73911 0
M  V30 4447 O 408.937 1.51507 -1.03881 0
M  V30 4448 C 408.999 -0.928485 -3.47303 0
M  V30 4449 C 408.663 -2.35443 -3.91683 0
M  V30 4450 C 409.66 -3.33428 -3.98901 0
M  V30 4451 C 407.345 -2.69038 -4.24174 0
M  V30 4452 C 409.339 -4.63079 -4.37992 0
M  V30 4453 C 407.026 -3.98906 -4.62944 0
M  V30 4454 C 408.024 -4.95738 -4.69822 0
M  V30 4455 O 407.712 -6.23285 -5.07711 0
M  V30 4456 H 407.444 -0.255902 -0.625692 0
M  V30 4457 H 409.998 -1.33767 -1.5587 0
M  V30 4458 H 408.228 -0.228917 -3.86022 0
M  V30 4459 H 409.917 -0.619539 -4.01144 0
M  V30 4460 H 410.683 -3.08807 -3.73983 0
M  V30 4461 H 406.562 -1.94367 -4.18022 0
M  V30 4462 H 410.106 -5.38658 -4.43275 0
M  V30 4463 H 406.003 -4.23314 -4.87314 0
M  V30 4464 H 406.771 -6.27306 -5.25766 0
M  V30 4465 N 409.434 1.37368 -0.772513 0
M  V30 4466 C 410.659 2.0447 -0.347386 0
M  V30 4467 C 411.084 1.57882 1.0225 0
M  V30 4468 O 410.442 0.73941 1.65537 0
M  V30 4469 C 410.49 3.58369 -0.400479 0
M  V30 4470 O 409.594 4.0803 0.598789 0
M  V30 4471 H 408.935 0.646773 -0.15027 0
M  V30 4472 H 411.465 1.75667 -1.04892 0
M  V30 4473 H 411.475 4.07183 -0.258045 0
M  V30 4474 H 410.15 3.91633 -1.39986 0
M  V30 4475 H 408.727 3.70534 0.419411 0
M  V30 4476 N 410.912 0.523116 1.48665 0
M  V30 4477 C 412.161 -0.01544 2.01694 0
M  V30 4478 C 412.474 -1.35975 1.40606 0
M  V30 4479 O 413.68 -1.98627 1.85093 0
M  V30 4480 C 412.136 -0.0779303 3.59816 0
M  V30 4481 C 411.744 1.26107 4.29885 0
M  V30 4482 C 413.488 -0.565678 4.20714 0
M  V30 4483 C 411.395 1.15954 5.79921 0
M  V30 4484 H 410.325 -0.00954163 0.75394 0
M  V30 4485 H 412.976 0.665865 1.70993 0
M  V30 4486 H 411.358 -0.824165 3.87329 0
M  V30 4487 H 412.532 2.02233 4.14051 0
M  V30 4488 H 410.847 1.68401 3.80828 0
M  V30 4489 H 413.444 -0.6595 5.30617 0
M  V30 4490 H 413.787 -1.56984 3.85567 0
M  V30 4491 H 414.32 0.12467 3.97605 0
M  V30 4492 H 411.059 2.13864 6.19631 0
M  V30 4493 H 410.579 0.439529 5.98187 0
M  V30 4494 H 412.258 0.847361 6.41427 0
M  V30 4495 N 412.39 -1.55475 0.257931 0
M  V30 4496 C 413.638 -1.98813 -0.363009 0
M  V30 4497 C 413.959 -1.14757 -1.57657 0
M  V30 4498 O 413.229 -0.232956 -1.9451 0
M  V30 4499 H 411.809 -0.734308 -0.137113 0
M  V30 4500 H 414.471 -1.9156 0.359281 0
M  V30 4501 H 413.567 -3.04941 -0.664634 0
M  V30 4502 N 413.868 0.0150385 -1.57593 0
M  V30 4503 C 414.798 1.01047 -2.10503 0
M  V30 4504 C 415.779 1.36816 -1.01071 0
M  V30 4505 O 416.964 1.45455 -1.28672 0
M  V30 4506 C 414.094 2.30708 -2.59598 0
M  V30 4507 C 413.048 2.09142 -3.73421 0
M  V30 4508 C 412.374 3.44685 -4.08774 0
M  V30 4509 C 413.674 1.46619 -5.01298 0
M  V30 4510 H 415.368 0.569978 -2.93925 0
M  V30 4511 H 412.914 0.272724 -1.41394 0
M  V30 4512 H 414.867 3.00687 -2.95238 0
M  V30 4513 H 413.591 2.76843 -1.73279 0
M  V30 4514 H 412.25 1.41592 -3.38153 0
M  V30 4515 H 411.898 3.88495 -3.195 0
M  V30 4516 H 411.598 3.31077 -4.8545 0
M  V30 4517 H 413.122 4.16004 -4.4696 0
M  V30 4518 H 414.536 2.06535 -5.34805 0
M  V30 4519 H 412.933 1.43544 -5.82679 0
M  V30 4520 H 414.003 0.433611 -4.82957 0
M  V30 4521 N 415.346 1.54954 0.287554 0
M  V30 4522 C 416.276 1.89839 1.35954 0
M  V30 4523 C 417.257 0.758675 1.52244 0
M  V30 4524 O 418.442 1.01557 1.65529 0
M  V30 4525 C 415.572 2.15753 2.72154 0
M  V30 4526 C 414.526 3.3159 2.70614 0
M  V30 4527 C 413.852 3.42952 4.10229 0
M  V30 4528 C 415.152 4.68359 2.31165 0
M  V30 4529 H 416.846 2.79625 1.07007 0
M  V30 4530 H 414.392 1.3454 0.513316 0
M  V30 4531 H 416.345 2.38743 3.47246 0
M  V30 4532 H 415.069 1.22752 3.02654 0
M  V30 4533 H 413.728 3.08545 1.97979 0
M  V30 4534 H 413.376 2.47443 4.37928 0
M  V30 4535 H 413.076 4.20826 4.10097 0
M  V30 4536 H 414.6 3.68218 4.87081 0
M  V30 4537 H 416.014 4.9099 2.95976 0
M  V30 4538 H 414.411 5.49044 2.42221 0
M  V30 4539 H 415.481 4.68165 1.26291 0
M  V30 4540 N 416.824 -0.551391 1.4764 0
M  V30 4541 C 418.101 -1.31229 1.45046 0
M  V30 4542 C 418.481 -2.10563 0.150527 0
M  V30 4543 O 417.829 -2.11374 -0.867956 0
M  V30 4544 C 418.039 -2.21189 2.69956 0
M  V30 4545 C 419.387 -2.82021 3.1741 0
M  V30 4546 O 420.411 -2.31488 2.70724 0
M  V30 4547 O 419.27 -3.73885 3.98588 0
M  V30 4548 H 416.364 -0.591193 0.578291 0
M  V30 4549 H 418.91 -0.569813 1.59847 0
M  V30 4550 H 417.682 -1.62207 3.56096 0
M  V30 4551 H 417.305 -3.02722 2.57769 0
M  V30 4552 N 418.302 -1.35869 -0.798587 0
M  V30 4553 C 419.235 -1.23801 -1.91699 0
M  V30 4554 C 420.213 -0.124143 -1.62125 0
M  V30 4555 O 421.397 -0.293656 -1.86199 0
M  V30 4556 C 418.524 -0.908063 -3.263 0
M  V30 4557 C 417.57 -2.0351 -3.74815 0
M  V30 4558 S 418.403 -3.65183 -3.91665 0
M  V30 4559 C 419.559 -3.34283 -5.29156 0
M  V30 4560 H 419.792 -2.18466 -2.01643 0
M  V30 4561 H 417.325 -1.21178 -0.956833 0
M  V30 4562 H 419.283 -0.724506 -4.04056 0
M  V30 4563 H 417.944 0.0206584 -3.14093 0
M  V30 4564 H 417.137 -1.75858 -4.72324 0
M  V30 4565 H 416.739 -2.1774 -3.04081 0
M  V30 4566 H 419.031 -2.87607 -6.13424 0
M  V30 4567 H 419.974 -4.31022 -5.61806 0
M  V30 4568 H 420.382 -2.69854 -4.95822 0
M  V30 4569 N 419.78 1.02168 -1.19998 0
M  V30 4570 C 421.008 1.79296 -1.03249 0
M  V30 4571 C 421.423 1.84103 0.418502 0
M  V30 4572 O 420.78 1.29031 1.29063 0
M  V30 4573 C 420.831 3.24007 -1.60319 0
M  V30 4574 O 420.552 3.19512 -2.99739 0
M  V30 4575 C 422.053 4.17704 -1.48453 0
M  V30 4576 H 419.273 0.564016 -0.363493 0
M  V30 4577 H 421.817 1.28639 -1.58973 0
M  V30 4578 H 419.972 3.7183 -1.08727 0
M  V30 4579 H 420.386 4.10306 -3.26725 0
M  V30 4580 H 421.86 5.17104 -1.93153 0
M  V30 4581 H 422.337 4.37029 -0.436193 0
M  V30 4582 H 422.943 3.7576 -1.99211 0
M  V30 4583 N 421.258 1.00505 1.21394 0
M  V30 4584 C 422.205 0.565496 2.23765 0
M  V30 4585 C 423.175 -0.408466 1.60999 0
M  V30 4586 O 424.36 -0.310503 1.88257 0
M  V30 4587 C 421.5 -0.101667 3.4495 0
M  V30 4588 C 420.613 0.915479 4.22188 0
M  V30 4589 C 419.748 0.220574 5.30742 0
M  V30 4590 C 418.787 1.22527 5.99711 0
M  V30 4591 N 417.924 0.557831 6.9988 0
M  V30 4592 H 422.764 1.44314 2.60725 0
M  V30 4593 H 420.301 0.722643 1.28126 0
M  V30 4594 H 422.259 -0.505504 4.14126 0
M  V30 4595 H 420.889 -0.94303 3.08718 0
M  V30 4596 H 419.941 1.43756 3.52191 0
M  V30 4597 H 421.253 1.68005 4.69655 0
M  V30 4598 H 420.407 -0.239368 6.06228 0
M  V30 4599 H 419.146 -0.576401 4.84282 0
M  V30 4600 H 418.151 1.69571 5.22997 0
M  V30 4601 H 419.376 2.02332 6.48258 0
M  V30 4602 H 417.322 -0.219486 6.55633 0
M  V30 4603 H 417.239 1.26065 7.45415 0
M  V30 4604 H 418.507 0.121095 7.79406 0
M  V30 4605 N 422.737 -1.36956 0.779787 0
M  V30 4606 C 423.647 -2.33965 0.172491 0
M  V30 4607 C 424.663 -1.60574 -0.670222 0
M  V30 4608 O 425.839 -1.92617 -0.588263 0
M  V30 4609 C 422.904 -3.39761 -0.690173 0
M  V30 4610 C 421.965 -4.28964 0.169924 0
M  V30 4611 C 421.198 -5.29707 -0.651662 0
M  V30 4612 O 421.421 -5.38238 -1.88827 0
M  V30 4613 O 420.355 -6.01873 -0.0566264 0
M  V30 4614 H 424.181 -2.87647 0.974321 0
M  V30 4615 H 421.766 -1.39258 0.541078 0
M  V30 4616 H 423.648 -4.04471 -1.1824 0
M  V30 4617 H 422.323 -2.88394 -1.47006 0
M  V30 4618 H 421.23 -3.67326 0.708696 0
M  V30 4619 H 422.563 -4.83656 0.913085 0
M  V30 4620 N 424.215 -0.530993 -1.48385 0
M  V30 4621 C 425.162 0.231223 -2.29639 0
M  V30 4622 C 426.132 0.932864 -1.37429 0
M  V30 4623 O 427.317 0.933692 -1.66394 0
M  V30 4624 C 424.457 1.27155 -3.2082 0
M  V30 4625 C 423.57 0.578655 -4.28107 0
M  V30 4626 C 422.705 1.602 -5.06467 0
M  V30 4627 C 421.744 0.892625 -6.05556 0
M  V30 4628 N 420.881 1.86157 -6.76971 0
M  V30 4629 H 425.721 -0.467848 -2.94305 0
M  V30 4630 H 423.258 -0.242556 -1.45086 0
M  V30 4631 H 425.216 1.88703 -3.72085 0
M  V30 4632 H 423.846 1.939 -2.58075 0
M  V30 4633 H 422.898 -0.150782 -3.80101 0
M  V30 4634 H 424.21 0.0217065 -4.98795 0
M  V30 4635 H 423.364 2.29173 -5.61751 0
M  V30 4636 H 422.103 2.19285 -4.35621 0
M  V30 4637 H 421.108 0.188829 -5.49476 0
M  V30 4638 H 422.333 0.307878 -6.78402 0
M  V30 4639 H 420.279 2.44147 -6.08875 0
M  V30 4640 H 420.196 1.35608 -7.43738 0
M  V30 4641 H 421.464 2.54325 -7.36844 0
M  V30 4642 N 425.693 1.55336 -0.266172 0
M  V30 4643 C 426.603 2.2583 0.635458 0
M  V30 4644 C 427.619 1.28106 1.17749 0
M  V30 4645 O 428.795 1.61024 1.20968 0
M  V30 4646 C 425.86 2.95879 1.80712 0
M  V30 4647 C 424.921 4.09059 1.30265 0
M  V30 4648 C 424.154 4.75759 2.41846 0
M  V30 4649 O 424.377 4.41622 3.61007 0
M  V30 4650 O 423.311 5.63888 2.1051 0
M  V30 4651 H 427.137 3.03631 0.0646693 0
M  V30 4652 H 424.722 1.49361 -0.0339177 0
M  V30 4653 H 426.604 3.39932 2.49047 0
M  V30 4654 H 425.279 2.21002 2.36516 0
M  V30 4655 H 424.186 3.69482 0.586019 0
M  V30 4656 H 425.519 4.85811 0.790458 0
M  V30 4657 N 427.171 -0.0066808 1.57599 0
M  V30 4658 C 428.418 -0.69292 1.90276 0
M  V30 4659 C 428.746 -1.74148 0.866192 0
M  V30 4660 O 428.001 -1.95268 -0.129933 0
M  V30 4661 C 428.3 -1.37939 3.29708 0
M  V30 4662 C 427.966 -0.464679 4.48499 0
M  V30 4663 C 426.628 -0.212809 4.80729 0
M  V30 4664 C 428.98 0.16551 5.20937 0
M  V30 4665 C 426.308 0.677653 5.82773 0
M  V30 4666 C 428.66 1.04381 6.23929 0
M  V30 4667 C 427.324 1.30492 6.54621 0
M  V30 4668 H 426.594 -0.253558 0.696268 0
M  V30 4669 H 429.241 0.0474123 1.91441 0
M  V30 4670 H 427.546 -2.1936 3.24636 0
M  V30 4671 H 429.243 -1.9163 3.52249 0
M  V30 4672 H 425.833 -0.671153 4.23313 0
M  V30 4673 H 430.017 -0.0160756 4.96297 0
M  V30 4674 H 425.273 0.88803 6.04917 0
M  V30 4675 H 429.447 1.53851 6.79193 0
M  V30 4676 H 427.074 1.99662 7.33512 0
M  V30 4677 N 428.649 -1.55105 -0.279332 0
M  V30 4678 C 429.879 -1.7917 -1.02867 0
M  V30 4679 C 430.287 -0.56204 -1.80659 0
M  V30 4680 O 429.63 0.478266 -1.77365 0
M  V30 4681 C 429.692 -2.96061 -2.03932 0
M  V30 4682 C 429.356 -4.33341 -1.45137 0
M  V30 4683 C 430.353 -5.12565 -0.870266 0
M  V30 4684 C 428.038 -4.79987 -1.48048 0
M  V30 4685 C 430.032 -6.36565 -0.326097 0
M  V30 4686 C 427.719 -6.03944 -0.932443 0
M  V30 4687 C 428.717 -6.8207 -0.356247 0
M  V30 4688 O 428.405 -8.03691 0.183412 0
M  V30 4689 H 428.137 -0.600796 -0.309872 0
M  V30 4690 H 430.691 -2.02932 -0.317468 0
M  V30 4691 H 428.921 -2.67975 -2.78794 0
M  V30 4692 H 430.61 -3.07506 -2.64943 0
M  V30 4693 H 431.376 -4.77661 -0.840521 0
M  V30 4694 H 427.255 -4.1919 -1.91835 0
M  V30 4695 H 430.799 -6.97489 0.124286 0
M  V30 4696 H 426.696 -6.3833 -0.959407 0
M  V30 4697 H 427.464 -8.18468 0.0721681 0
M  V30 4698 N 430.127 0.543554 -1.4793 0
M  V30 4699 C 431.404 1.30458 -1.4574 0
M  V30 4700 C 431.784 2.1048 -0.161692 0
M  V30 4701 O 431.132 2.11831 0.856734 0
M  V30 4702 C 431.342 2.19754 -2.71126 0
M  V30 4703 C 432.69 2.80334 -3.18901 0
M  V30 4704 O 433.714 2.30049 -2.71948 0
M  V30 4705 O 432.573 3.71766 -4.00565 0
M  V30 4706 H 429.667 0.588117 -0.581418 0
M  V30 4707 H 432.213 0.561328 -1.60147 0
M  V30 4708 H 430.985 1.60316 -3.56952 0
M  V30 4709 H 430.608 3.01351 -2.59371 0
M  V30 4710 N 431.605 1.3629 0.791371 0
M  V30 4711 C 432.515 1.32606 1.93527 0
M  V30 4712 C 433.531 0.228541 1.72493 0
M  V30 4713 O 434.707 0.460571 1.96063 0
M  V30 4714 C 431.772 1.11271 3.28359 0
M  V30 4715 C 430.833 2.3048 3.62185 0
M  V30 4716 C 430.066 2.10154 4.90583 0
M  V30 4717 O 430.289 1.07572 5.60165 0
M  V30 4718 O 429.223 2.97884 5.23019 0
M  V30 4719 H 433.049 2.28909 1.99585 0
M  V30 4720 H 430.634 1.16818 0.931344 0
M  V30 4721 H 432.516 1.01283 4.09047 0
M  V30 4722 H 431.191 0.180292 3.23198 0
M  V30 4723 H 430.098 2.46036 2.81811 0
M  V30 4724 H 431.431 3.22221 3.72068 0
M  V30 4725 N 433.083 -1.0153 1.20538 0
M  V30 4726 C 434.329 -1.75517 1.02787 0
M  V30 4727 C 434.684 -1.87411 -0.435289 0
M  V30 4728 O 433.977 -1.38982 -1.31889 0
M  V30 4729 C 434.171 -3.17213 1.64654 0
M  V30 4730 C 434 -3.19134 3.16834 0
M  V30 4731 C 432.77 -3.26301 3.85818 0
M  V30 4732 C 434.968 -3.05077 4.14044 0
M  V30 4733 N 432.95 -3.17739 5.25276 0
M  V30 4734 C 434.321 -3.04299 5.40187 0
M  V30 4735 C 436.376 -2.89303 4.05226 0
M  V30 4736 C 435.079 -2.89365 6.58529 0
M  V30 4737 C 437.105 -2.75723 5.23193 0
M  V30 4738 C 436.467 -2.75612 6.48242 0
M  V30 4739 H 432.566 -0.652919 0.430373 0
M  V30 4740 H 435.15 -1.20755 1.52729 0
M  V30 4741 H 433.321 -3.70266 1.17294 0
M  V30 4742 H 435.053 -3.79637 1.40208 0
M  V30 4743 H 431.808 -3.33078 3.36684 0
M  V30 4744 H 432.232 -3.16829 5.98288 0
M  V30 4745 H 436.874 -2.88201 3.09354 0
M  V30 4746 H 434.592 -2.89216 7.54573 0
M  V30 4747 H 438.178 -2.64533 5.18183 0
M  V30 4748 H 437.058 -2.65224 7.37988 0
M  V30 4749 N 434.561 -1.01147 -1.20859 0
M  V30 4750 C 435.972 -0.730205 -1.71828 0
M  V30 4751 C 436.323 0.751662 -1.8123 0
M  V30 4752 O 435.448 1.58686 -1.47132 0
M  V30 4753 C 436.043 -1.31885 -3.12077 0
M  V30 4754 C 434.602 -1.08656 -3.60376 0
M  V30 4755 C 433.749 -1.42769 -2.37723 0
M  V30 4756 H 436.7 -1.18158 -1.05945 0
M  V30 4757 H 436.721 -0.706793 -3.73878 0
M  V30 4758 H 436.233 -2.39737 -3.05201 0
M  V30 4759 H 434.334 -0.0254814 -3.72591 0
M  V30 4760 H 434.447 -1.76301 -4.45483 0
M  V30 4761 H 432.811 -0.846603 -2.40218 0
M  V30 4762 H 433.594 -2.51666 -2.33493 0
M  V30 4763 N 436.039 1.36541 -0.78704 0
M  V30 4764 C 437.288 1.98552 -0.35494 0
M  V30 4765 C 437.601 1.63171 1.07864 0
M  V30 4766 O 438.807 2.18399 1.61289 0
M  V30 4767 C 437.263 3.55136 -0.583671 0
M  V30 4768 C 436.871 3.99444 -2.02851 0
M  V30 4769 C 438.615 4.2395 -0.215957 0
M  V30 4770 C 436.522 5.48796 -2.20403 0
M  V30 4771 H 435.452 0.742888 -0.128972 0
M  V30 4772 H 438.103 1.5587 -0.968337 0
M  V30 4773 H 436.485 3.95875 0.0994046 0
M  V30 4774 H 437.659 3.6991 -2.74779 0
M  V30 4775 H 435.974 3.43459 -2.35425 0
M  V30 4776 H 438.571 5.33709 -0.325405 0
M  V30 4777 H 438.914 4.07827 0.835646 0
M  V30 4778 H 439.447 3.88565 -0.852175 0
M  V30 4779 H 436.186 5.69864 -3.23937 0
M  V30 4780 H 435.706 5.79964 -1.52977 0
M  V30 4781 H 437.385 6.14986 -2.01002 0
M  V30 4782 N 437.518 0.538854 1.48102 0
M  V30 4783 C 438.465 -0.219042 2.29758 0
M  V30 4784 C 439.435 -0.925562 1.37922 0
M  V30 4785 O 440.62 -0.924855 1.66886 0
M  V30 4786 C 437.76 -1.25452 3.2149 0
M  V30 4787 C 436.873 -0.555943 4.28408 0
M  V30 4788 C 436.008 -1.57512 5.0731 0
M  V30 4789 C 435.047 -0.860498 6.06021 0
M  V30 4790 N 434.184 -1.82564 6.77949 0
M  V30 4791 H 439.024 0.483449 2.94052 0
M  V30 4792 H 436.561 0.250247 1.44956 0
M  V30 4793 H 438.519 -1.86727 3.7308 0
M  V30 4794 H 437.149 -1.92528 2.591 0
M  V30 4795 H 436.201 0.170938 3.80016 0
M  V30 4796 H 437.513 0.00474616 4.988 0
M  V30 4797 H 436.667 -2.26191 5.62959 0
M  V30 4798 H 435.406 -2.16972 4.36778 0
M  V30 4799 H 434.411 -0.159686 5.49568 0
M  V30 4800 H 435.636 -0.271897 6.78555 0
M  V30 4801 H 433.582 -2.40915 6.10161 0
M  V30 4802 H 433.499 -1.31662 7.44447 0
M  V30 4803 H 434.767 -2.50414 7.38182 0
M  V30 4804 N 438.996 -1.55193 0.274407 0
M  V30 4805 C 439.926 -2.25471 -0.607032 0
M  V30 4806 C 440.907 -1.24461 -1.15946 0
M  V30 4807 O 442.092 -1.53179 -1.19373 0
M  V30 4808 C 439.222 -2.97526 -1.79153 0
M  V30 4809 C 438.176 -4.05459 -1.37067 0
M  V30 4810 C 437.502 -4.65084 -2.6382 0
M  V30 4811 C 438.802 -5.19691 -0.521389 0
M  V30 4812 H 440.496 -2.99393 -0.0209343 0
M  V30 4813 H 438.042 -1.43997 -0.00862866 0
M  V30 4814 H 439.995 -3.45402 -2.41404 0
M  V30 4815 H 438.719 -2.21138 -2.40344 0
M  V30 4816 H 437.378 -3.58393 -0.771355 0
M  V30 4817 H 437.026 -3.85365 -3.23268 0
M  V30 4818 H 436.726 -5.37961 -2.36372 0
M  V30 4819 H 438.25 -5.15708 -3.26921 0
M  V30 4820 H 439.664 -5.63623 -1.04889 0
M  V30 4821 H 438.061 -5.99126 -0.341825 0
M  V30 4822 H 439.131 -4.82713 0.46 0
M  V30 4823 N 440.474 -0.00167713 -1.576 0
M  V30 4824 C 441.722 0.681471 -1.90264 0
M  V30 4825 C 442.043 1.7422 -0.875924 0
M  V30 4826 O 441.313 1.95709 0.0864412 0
M  V30 4827 H 439.893 0.254696 -0.702239 0
M  V30 4828 H 442.555 -0.0429996 -1.94853 0
M  V30 4829 H 441.651 1.15166 -2.90075 0
M  V30 4830 N 441.952 1.55251 0.271103 0
M  V30 4831 C 442.862 1.9136 1.35714 0
M  V30 4832 C 443.878 0.811075 1.5394 0
M  V30 4833 O 445.054 1.11031 1.6803 0
M  V30 4834 C 442.119 2.1798 2.69603 0
M  V30 4835 C 441.18 3.4153 2.60107 0
M  V30 4836 C 440.413 3.66871 3.8761 0
M  V30 4837 O 440.636 2.94689 4.8838 0
M  V30 4838 O 439.57 4.60405 3.87699 0
M  V30 4839 H 443.396 2.83815 1.08088 0
M  V30 4840 H 440.981 1.41821 0.469792 0
M  V30 4841 H 442.863 2.36518 3.48765 0
M  V30 4842 H 441.538 1.28708 2.97012 0
M  V30 4843 H 440.445 3.28325 1.79314 0
M  V30 4844 H 441.778 4.31027 2.37647 0
M  V30 4845 N 443.43 -0.535701 1.48216 0
M  V30 4846 C 444.676 -1.29375 1.56173 0
M  V30 4847 C 445.009 -1.92804 0.232429 0
M  V30 4848 O 444.284 -1.78992 -0.761048 0
M  V30 4849 C 444.567 -2.38747 2.69577 0
M  V30 4850 C 444.42 -1.80046 4.12193 0
M  V30 4851 C 445.739 -3.40551 2.78771 0
M  V30 4852 H 442.858 -0.469027 0.568491 0
M  V30 4853 H 445.5 -0.597358 1.80365 0
M  V30 4854 H 443.65 -2.98147 2.4908 0
M  V30 4855 H 445.322 -1.24742 4.44114 0
M  V30 4856 H 443.565 -1.10609 4.19462 0
M  V30 4857 H 444.236 -2.59212 4.87353 0
M  V30 4858 H 446.712 -2.91099 2.97322 0
M  V30 4859 H 445.588 -4.1448 3.59857 0
M  V30 4860 H 445.849 -4.00746 1.86696 0
M  V30 4861 N 444.908 -1.36708 -0.784132 0
M  V30 4862 C 445.818 -1.3363 -1.92822 0
M  V30 4863 C 446.834 -0.237686 -1.72369 0
M  V30 4864 O 448.01 -0.470962 -1.95816 0
M  V30 4865 C 445.075 -1.13011 -3.27764 0
M  V30 4866 C 444.136 -2.32397 -3.60957 0
M  V30 4867 C 443.369 -2.12752 -4.89461 0
M  V30 4868 O 443.592 -1.10541 -5.59586 0
M  V30 4869 O 442.526 -3.00653 -5.21432 0
M  V30 4870 H 446.352 -2.29964 -1.98369 0
M  V30 4871 H 443.937 -1.1731 -0.925136 0
M  V30 4872 H 445.819 -1.03451 -4.08504 0
M  V30 4873 H 444.494 -0.19743 -3.23097 0
M  V30 4874 H 443.401 -2.47527 -2.80502 0
M  V30 4875 H 444.734 -3.2419 -3.70354 0
M  V30 4876 N 446.386 1.0089 -1.21074 0
M  V30 4877 C 447.797 1.56056 -1.02486 0
M  V30 4878 C 448.148 1.91728 0.416506 0
M  V30 4879 O 447.273 1.73066 1.29912 0
M  V30 4880 C 447.868 2.83563 -1.85411 0
M  V30 4881 C 446.427 3.3523 -1.71166 0
M  V30 4882 C 445.574 2.0846 -1.82865 0
M  V30 4883 H 448.525 0.831818 -1.35154 0
M  V30 4884 H 448.546 3.55286 -1.36205 0
M  V30 4885 H 448.058 2.57569 -2.9031 0
M  V30 4886 H 446.159 3.66167 -0.689361 0
M  V30 4887 H 446.272 4.06913 -2.52901 0
M  V30 4888 H 444.636 2.21275 -1.26132 0
M  V30 4889 H 445.419 1.84883 -2.89263 0
M  V30 4890 N 447.864 1.01787 1.20321 0
M  V30 4891 C 449.094 0.72614 1.93419 0
M  V30 4892 C 449.502 -0.717317 1.75075 0
M  V30 4893 O 448.845 -1.49836 1.06278 0
M  V30 4894 C 448.907 0.983621 3.45782 0
M  V30 4895 C 448.571 2.41645 3.87888 0
M  V30 4896 C 449.568 3.39732 3.93545 0
M  V30 4897 C 447.253 2.75752 4.19841 0
M  V30 4898 C 449.247 4.69988 4.30569 0
M  V30 4899 C 446.934 4.06221 4.56539 0
M  V30 4900 C 447.932 5.0315 4.61876 0
M  V30 4901 O 447.62 6.31284 4.97731 0
M  V30 4902 H 447.352 0.265824 0.621541 0
M  V30 4903 H 449.906 1.3623 1.53722 0
M  V30 4904 H 448.136 0.290301 3.85609 0
M  V30 4905 H 449.825 0.683279 4.00108 0
M  V30 4906 H 450.591 3.14718 3.69022 0
M  V30 4907 H 446.47 2.00993 4.14877 0
M  V30 4908 H 450.014 5.45642 4.3465 0
M  V30 4909 H 445.911 4.31013 4.80518 0
M  V30 4910 H 446.679 6.35591 5.15719 0
M  V30 4911 N 449.342 -1.36122 0.79427 0
M  V30 4912 C 450.289 -2.29982 0.194101 0
M  V30 4913 C 451.259 -1.52214 -0.664833 0
M  V30 4914 O 452.444 -1.80702 -0.612498 0
M  V30 4915 C 449.584 -3.38706 -0.661244 0
M  V30 4916 C 448.697 -4.31456 0.216766 0
M  V30 4917 C 447.832 -5.27265 -0.645411 0
M  V30 4918 C 446.871 -6.11653 0.233756 0
M  V30 4919 N 446.008 -6.99636 -0.587682 0
M  V30 4920 H 450.848 -2.80722 0.999965 0
M  V30 4921 H 448.385 -1.38172 0.504677 0
M  V30 4922 H 450.343 -4.00394 -1.17219 0
M  V30 4923 H 448.973 -2.89274 -1.43249 0
M  V30 4924 H 448.025 -3.7088 0.845724 0
M  V30 4925 H 449.337 -4.90724 0.893973 0
M  V30 4926 H 448.491 -5.94266 -1.22198 0
M  V30 4927 H 447.23 -4.68463 -1.35623 0
M  V30 4928 H 446.235 -5.4361 0.82269 0
M  V30 4929 H 447.46 -6.72531 0.942247 0
M  V30 4930 H 445.406 -6.43337 -1.2827 0
M  V30 4931 H 445.323 -7.55993 0.0317402 0
M  V30 4932 H 446.591 -7.71001 -1.14792 0
M  V30 4933 N 450.82 -0.546701 -1.47814 0
M  V30 4934 C 452.068 -0.0187037 -2.02091 0
M  V30 4935 C 452.389 1.33168 -1.42447 0
M  V30 4936 O 451.659 1.86619 -0.595839 0
M  V30 4937 H 450.239 -0.00392531 -0.74699 0
M  V30 4938 H 452.901 -0.714327 -1.81338 0
M  V30 4939 H 451.997 0.0772219 -3.12004 0
M  V30 4940 N 452.299 1.55045 -0.282633 0
M  V30 4941 C 453.71 1.85473 0.213655 0
M  V30 4942 C 454.061 1.20465 1.54863 0
M  V30 4943 O 453.186 0.495676 2.10647 0
M  V30 4944 C 453.781 3.36496 0.394445 0
M  V30 4945 C 452.34 3.67022 0.834961 0
M  V30 4946 C 451.487 2.77218 -0.0674081 0
M  V30 4947 H 454.438 1.50478 -0.504202 0
M  V30 4948 H 454.459 3.60007 1.23186 0
M  V30 4949 H 453.971 3.83782 -0.577326 0
M  V30 4950 H 452.072 3.25241 1.81794 0
M  V30 4951 H 452.185 4.74433 0.667075 0
M  V30 4952 H 450.549 2.5069 0.450196 0
M  V30 4953 H 451.332 3.2732 -1.0352 0
M  V30 4954 N 453.777 0.010035 1.57597 0
M  V30 4955 C 454.724 -0.978122 2.09049 0
M  V30 4956 C 455.694 -1.33509 0.988159 0
M  V30 4957 O 456.879 -1.43172 1.26121 0
M  V30 4958 C 454.019 -2.26158 2.60666 0
M  V30 4959 C 453.132 -1.96275 3.84838 0
M  V30 4960 C 452.267 -3.18776 4.24918 0
M  V30 4961 C 451.306 -2.84625 5.41899 0
M  V30 4962 N 450.443 -3.99693 5.77226 0
M  V30 4963 H 455.283 -0.532431 2.93205 0
M  V30 4964 H 452.82 -0.251234 1.44939 0
M  V30 4965 H 454.778 -3.01202 2.88675 0
M  V30 4966 H 453.408 -2.68378 1.79369 0
M  V30 4967 H 452.46 -1.11555 3.63675 0
M  V30 4968 H 453.772 -1.67111 4.69974 0
M  V30 4969 H 452.926 -4.02157 4.54262 0
M  V30 4970 H 451.665 -3.51087 3.38511 0
M  V30 4971 H 450.67 -1.99653 5.12268 0
M  V30 4972 H 451.895 -2.53551 6.29991 0
M  V30 4973 H 449.841 -4.31882 4.93776 0
M  V30 4974 H 449.758 -3.74087 6.56959 0
M  V30 4975 H 451.026 -4.83834 6.11167 0
M  V30 4976 N 455.255 -1.55392 -0.262866 0
M  V30 4977 C 456.483 -1.80513 -1.01108 0
M  V30 4978 C 456.898 -0.583533 -1.79556 0
M  V30 4979 O 456.255 0.447585 -1.76926 0
M  V30 4980 C 456.306 -3.03648 -1.96164 0
M  V30 4981 O 456.027 -4.2109 -1.20893 0
M  V30 4982 C 457.528 -3.41448 -2.82715 0
M  V30 4983 H 454.748 -0.601079 -0.298236 0
M  V30 4984 H 457.292 -2.02425 -0.290582 0
M  V30 4985 H 455.447 -2.83832 -2.63663 0
M  V30 4986 H 455.861 -4.90771 -1.85051 0
M  V30 4987 H 457.335 -4.30751 -3.45192 0
M  V30 4988 H 457.812 -2.61308 -3.53008 0
M  V30 4989 H 458.418 -3.63559 -2.20693 0
M  V30 4990 N 456.733 0.527833 -1.48498 0
M  V30 4991 C 458.144 1.10975 -1.50138 0
M  V30 4992 C 458.495 1.943 -0.272378 0
M  V30 4993 O 457.62 2.07319 0.620301 0
M  V30 4994 C 458.215 2.01927 -2.72049 0
M  V30 4995 C 456.774 2.55332 -2.76554 0
M  V30 4996 C 455.921 1.32341 -2.43683 0
M  V30 4997 H 458.872 0.312986 -1.55583 0
M  V30 4998 H 458.893 2.86244 -2.50689 0
M  V30 4999 H 458.405 1.41254 -3.61481 0
M  V30 5000 H 456.506 3.19721 -1.91336 0
M  V30 5001 H 456.619 2.94319 -3.78038 0
M  V30 5002 H 454.983 1.63989 -1.94884 0
M  V30 5003 H 455.766 0.734165 -3.35358 0
M  V30 5004 N 458.211 1.37122 0.776871 0
M  V30 5005 C 459.488 1.22586 1.52421 0
M  V30 5006 C 459.868 -0.182726 2.10308 0
M  V30 5007 O 459.216 -1.18979 1.9508 0
M  V30 5008 C 459.426 2.31782 2.60918 0
M  V30 5009 C 460.774 2.69071 3.2846 0
M  V30 5010 O 461.798 2.3092 2.71209 0
M  V30 5011 O 460.657 3.3478 4.31954 0
M  V30 5012 H 457.751 0.478045 0.674835 0
M  V30 5013 H 460.297 1.48888 0.814275 0
M  V30 5014 H 459.069 3.26131 2.16227 0
M  V30 5015 H 458.692 2.06916 3.39517 0
M  V30 5016 N 459.689 -1.00246 1.21608 0
M  V30 5017 C 460.937 -1.73717 1.0328 0
M  V30 5018 C 461.258 -1.90102 -0.434318 0
M  V30 5019 O 460.528 -1.45376 -1.31311 0
M  V30 5020 H 459.108 -0.643613 0.379172 0
M  V30 5021 H 461.77 -1.20787 1.52959 0
M  V30 5022 H 460.866 -2.73535 1.50283 0
M  V30 5023 N 461.167 -1.02423 -1.1978 0
M  V30 5024 C 462.583 -0.740459 -1.41384 0
M  V30 5025 C 462.783 0.676827 -1.89793 0
M  V30 5026 O 461.839 1.4435 -2.0717 0
M  V30 5027 C 463.152 -1.77264 -2.42895 0
M  V30 5028 C 464.7 -1.79165 -2.56649 0
M  V30 5029 C 465.175 -2.8133 -3.6141 0
M  V30 5030 N 466.666 -2.80118 -3.68901 0
M  V30 5031 C 467.401 -3.55824 -4.49641 0
M  V30 5032 N 466.897 -4.41231 -5.34123 0
M  V30 5033 N 468.69 -3.44387 -4.44246 0
M  V30 5034 H 460.841 -1.9391 -0.866764 0
M  V30 5035 H 463.104 -0.838074 -0.443098 0
M  V30 5036 H 462.81 -2.7884 -2.14339 0
M  V30 5037 H 462.684 -1.59108 -3.42001 0
M  V30 5038 H 465.071 -0.782702 -2.84531 0
M  V30 5039 H 465.152 -2.01396 -1.57713 0
M  V30 5040 H 464.796 -3.82394 -3.34271 0
M  V30 5041 H 464.726 -2.56359 -4.59986 0
M  V30 5042 H 467.217 -2.1817 -3.08562 0
M  V30 5043 H 467.53 -4.95747 -5.92836 0
M  V30 5044 H 465.875 -4.45306 -5.33599 0
M  V30 5045 H 469.066 -2.7708 -3.77285 0
M  V30 5046 H 469.239 -4.0364 -5.06931 0
M  V30 5047 N 462.645 1.35699 -0.801477 0
M  V30 5048 C 463.555 2.33661 -0.209691 0
M  V30 5049 C 464.571 1.6162 0.644591 0
M  V30 5050 O 465.747 1.93529 0.557545 0
M  V30 5051 C 462.812 3.40816 0.636033 0
M  V30 5052 C 461.873 4.28639 -0.238147 0
M  V30 5053 C 461.106 5.30676 0.567307 0
M  V30 5054 O 461.329 5.41174 1.8024 0
M  V30 5055 O 460.263 6.01887 -0.0391336 0
M  V30 5056 H 464.089 2.8606 -1.01996 0
M  V30 5057 H 461.674 1.38379 -0.563164 0
M  V30 5058 H 463.556 4.06301 1.11791 0
M  V30 5059 H 462.231 2.90696 1.42399 0
M  V30 5060 H 461.138 3.66152 -0.767044 0
M  V30 5061 H 462.471 4.82143 -0.989915 0
M  V30 5062 N 464.123 0.554532 1.47522 0
M  V30 5063 C 465.369 0.0295227 2.02779 0
M  V30 5064 C 465.702 -1.31582 1.42828 0
M  V30 5065 O 464.977 -1.85561 0.582872 0
M  V30 5066 C 465.26 -0.0664057 3.60039 0
M  V30 5067 C 465.113 1.30585 4.30427 0
M  V30 5068 C 466.432 -0.781162 4.33112 0
M  V30 5069 H 463.551 0.0122027 0.736899 0
M  V30 5070 H 466.193 0.716305 1.7598 0
M  V30 5071 H 464.343 -0.651307 3.83002 0
M  V30 5072 H 466.015 1.93374 4.18813 0
M  V30 5073 H 464.258 1.88125 3.90886 0
M  V30 5074 H 464.929 1.19147 5.38988 0
M  V30 5075 H 467.405 -0.284565 4.15126 0
M  V30 5076 H 466.281 -0.817237 5.42782 0
M  V30 5077 H 466.542 -1.83672 4.0214 0
M  V30 5078 N 465.601 -1.54893 0.290851 0
M  V30 5079 C 466.549 -2.24579 -0.605576 0
M  V30 5080 C 467.543 -1.24824 -1.14522 0
M  V30 5081 O 468.749 -1.42706 -1.09704 0
M  V30 5082 H 465.124 -0.720946 -0.213872 0
M  V30 5083 H 467.095 -2.984 0.0048173 0
M  V30 5084 C 465.844 -2.99224 -1.77088 0
M  V30 5085 H 465.167 -3.75782 -1.36484 0
M  V30 5086 H 466.607 -3.51281 -2.3744 0
M  V30 5087 C 465.066 -2.05602 -2.66888 0
M  V30 5088 O 465.596 -1.61745 -3.67698 0
M  V30 5089 N 463.802 -1.71771 -2.34399 0
M  V30 5090 H 463.349 -2.07633 -1.52468 0
M  V30 5091 H 463.307 -1.09403 -2.94751 0
M  V30 5092 N 467.08 -0.0183926 -1.57589 0
M  V30 5093 C 468.327 0.662562 -1.91354 0
M  V30 5094 C 468.655 1.72747 -0.893788 0
M  V30 5095 O 467.91 1.9545 0.0988509 0
M  V30 5096 C 468.209 1.32676 -3.31861 0
M  V30 5097 C 467.875 0.393267 -4.49182 0
M  V30 5098 C 466.537 0.136302 -4.81007 0
M  V30 5099 C 468.889 -0.248366 -5.20608 0
M  V30 5100 C 466.217 -0.770282 -5.81621 0
M  V30 5101 C 468.569 -1.14294 -6.22189 0
M  V30 5102 C 467.233 -1.4089 -6.52462 0
M  V30 5103 H 466.503 0.242448 -0.700214 0
M  V30 5104 H 469.15 -0.0778629 -1.91342 0
M  V30 5105 H 467.455 2.14168 -3.28084 0
M  V30 5106 H 469.152 1.86001 -3.55253 0
M  V30 5107 H 465.742 0.603723 -4.24327 0
M  V30 5108 H 469.926 -0.062883 -4.9626 0
M  V30 5109 H 465.182 -0.984154 -6.03427 0
M  V30 5110 H 469.356 -1.64637 -6.76659 0
M  V30 5111 H 466.983 -2.11306 -7.30242 0
M  V30 5112 N 468.558 1.5553 0.254621 0
M  V30 5113 C 469.788 1.80784 1.00004 0
M  V30 5114 C 470.196 0.59071 1.79742 0
M  V30 5115 O 469.539 -0.449988 1.78103 0
M  V30 5116 C 469.601 2.99268 1.99196 0
M  V30 5117 C 469.265 4.35595 1.38224 0
M  V30 5118 C 470.262 5.13884 0.788611 0
M  V30 5119 C 467.947 4.82281 1.40393 0
M  V30 5120 C 469.941 6.37004 0.224783 0
M  V30 5121 C 467.628 6.05351 0.836243 0
M  V30 5122 C 468.626 6.82551 0.24769 0
M  V30 5123 O 468.314 8.03297 -0.311249 0
M  V30 5124 H 468.046 0.60565 0.300274 0
M  V30 5125 H 470.6 2.03411 0.285143 0
M  V30 5126 H 468.83 2.72377 2.74496 0
M  V30 5127 H 470.519 3.11682 2.60018 0
M  V30 5128 H 471.285 4.78938 0.764423 0
M  V30 5129 H 467.164 4.22189 1.85142 0
M  V30 5130 H 470.708 6.97203 -0.235235 0
M  V30 5131 H 466.605 6.39776 0.857733 0
M  V30 5132 H 467.373 8.1825 -0.20237 0
M  V30 5133 N 470.036 -0.519951 1.48776 0
M  V30 5134 C 470.983 -1.62352 1.64044 0
M  V30 5135 C 471.953 -1.58945 0.482251 0
M  V30 5136 O 473.138 -1.77219 0.706971 0
M  V30 5137 C 470.278 -3.00579 1.69547 0
M  V30 5138 C 469.391 -3.14145 2.96541 0
M  V30 5139 C 468.526 -4.42991 2.93142 0
M  V30 5140 C 467.565 -4.50122 4.14797 0
M  V30 5141 N 466.702 -5.7037 4.09418 0
M  V30 5142 H 471.542 -1.48643 2.58281 0
M  V30 5143 H 469.079 -0.723516 1.28077 0
M  V30 5144 H 471.037 -3.80671 1.70719 0
M  V30 5145 H 469.667 -3.13036 0.787918 0
M  V30 5146 H 468.719 -2.27239 3.05068 0
M  V30 5147 H 470.031 -3.15275 3.86527 0
M  V30 5148 H 469.185 -5.31385 2.92772 0
M  V30 5149 H 467.924 -4.44398 2.00902 0
M  V30 5150 H 466.929 -3.60133 4.15433 0
M  V30 5151 H 468.154 -4.50445 5.08208 0
M  V30 5152 H 466.1 -5.72655 3.20004 0
M  V30 5153 H 466.017 -5.73036 4.93119 0
M  V30 5154 H 467.285 -6.61023 4.13121 0
M  V30 5155 N 471.514 -1.37532 -0.769588 0
M  V30 5156 C 472.763 -1.32183 -1.5235 0
M  V30 5157 C 473.076 0.0906555 -1.9539 0
M  V30 5158 O 474.282 0.266628 -2.70188 0
M  V30 5159 C 472.738 -2.32029 -2.75119 0
M  V30 5160 C 472.346 -3.78816 -2.3917 0
M  V30 5161 C 474.09 -2.35694 -3.53056 0
M  V30 5162 C 471.997 -4.70388 -3.58453 0
M  V30 5163 H 470.927 -0.491275 -0.571984 0
M  V30 5164 H 473.578 -1.63004 -0.842739 0
M  V30 5165 H 471.96 -1.94229 -3.45096 0
M  V30 5166 H 473.134 -4.25466 -1.76962 0
M  V30 5167 H 471.449 -3.78117 -1.74402 0
M  V30 5168 H 474.046 -3.01312 -4.41718 0
M  V30 5169 H 474.389 -1.37117 -3.93071 0
M  V30 5170 H 474.922 -2.72212 -2.90078 0
M  V30 5171 H 471.661 -5.70102 -3.23518 0
M  V30 5172 H 471.181 -4.28442 -4.19758 0
M  V30 5173 H 472.86 -4.87628 -4.25239 0
M  V30 5174 N 472.992 0.995999 -1.22138 0
M  V30 5175 C 474.241 1.72928 -1.03821 0
M  V30 5176 C 474.554 1.90872 0.427444 0
M  V30 5177 O 475.76 2.61496 0.730212 0
M  V30 5178 C 474.216 3.11124 -1.80913 0
M  V30 5179 C 473.824 3.01122 -3.31707 0
M  V30 5180 C 475.568 3.8852 -1.71035 0
M  V30 5181 C 473.475 4.34453 -4.01253 0
M  V30 5182 H 472.405 0.648376 -0.384869 0
M  V30 5183 H 475.056 1.11213 -1.45959 0
M  V30 5184 H 473.438 3.73503 -1.31573 0
M  V30 5185 H 474.612 2.47926 -3.88419 0
M  V30 5186 H 472.927 2.3721 -3.42228 0
M  V30 5187 H 475.524 4.872 -2.20318 0
M  V30 5188 H 475.867 4.1087 -0.670196 0
M  V30 5189 H 476.4 3.32812 -2.17902 0
M  V30 5190 H 473.139 4.17303 -5.05508 0
M  V30 5191 H 472.659 4.87574 -3.49331 0
M  V30 5192 H 474.338 5.03215 -4.06674 0
M  V30 5193 N 474.47 1.03057 1.19235 0
M  V30 5194 C 475.747 0.642608 1.84743 0
M  V30 5195 C 476.127 -0.878577 1.91948 0
M  V30 5196 O 475.475 -1.77597 1.43776 0
M  V30 5197 C 475.685 1.30665 3.23616 0
M  V30 5198 C 477.033 1.43098 3.9976 0
M  V30 5199 O 478.057 1.26396 3.3302 0
M  V30 5200 O 476.916 1.70223 5.19313 0
M  V30 5201 H 474.01 0.223573 0.796206 0
M  V30 5202 H 476.556 1.12883 1.26711 0
M  V30 5203 H 475.328 2.34544 3.13217 0
M  V30 5204 H 474.951 0.808405 3.89295 0
M  V30 5205 N 475.948 -1.35272 0.808662 0
M  V30 5206 C 477.178 -2.02652 0.401953 0
M  V30 5207 C 477.586 -1.6108 -0.992462 0
M  V30 5208 O 476.929 -0.804984 -1.65123 0
M  V30 5209 C 476.991 -3.57174 0.408246 0
M  V30 5210 C 476.655 -4.22019 1.75353 0
M  V30 5211 C 477.652 -4.43552 2.71215 0
M  V30 5212 C 475.337 -4.59093 2.03811 0
M  V30 5213 C 477.331 -5.01264 3.93717 0
M  V30 5214 C 475.018 -5.16519 3.26576 0
M  V30 5215 C 476.016 -5.37546 4.21347 0
M  V30 5216 O 475.704 -5.93761 5.41944 0
M  V30 5217 H 475.436 -0.656495 0.161216 0
M  V30 5218 H 477.99 -1.73829 1.0942 0
M  V30 5219 H 476.22 -3.85197 -0.340608 0
M  V30 5220 H 477.909 -4.05893 0.0235623 0
M  V30 5221 H 478.675 -4.15288 2.50522 0
M  V30 5222 H 474.554 -4.42039 1.30854 0
M  V30 5223 H 478.098 -5.17592 4.67701 0
M  V30 5224 H 473.995 -5.4421 3.47139 0
M  V30 5225 H 474.763 -6.1221 5.43269 0
M  V30 5226 N 477.426 -0.562348 -1.47226 0
M  V30 5227 C 478.675 -0.038041 -2.01664 0
M  V30 5228 C 478.988 1.32199 -1.44162 0
M  V30 5229 O 480.194 1.9365 -1.90294 0
M  V30 5230 C 478.65 -0.0174958 -3.59896 0
M  V30 5231 C 478.258 -1.3746 -4.2639 0
M  V30 5232 C 480.002 0.453934 -4.22066 0
M  V30 5233 C 477.909 -1.31289 -5.76643 0
M  V30 5234 H 476.839 -0.0104511 -0.753928 0
M  V30 5235 H 479.49 -0.710966 -1.69167 0
M  V30 5236 H 477.872 0.721182 -3.89378 0
M  V30 5237 H 479.046 -2.1314 -4.08544 0
M  V30 5238 H 477.361 -1.78438 -3.7623 0
M  V30 5239 H 479.958 0.518584 -5.32179 0
M  V30 5240 H 480.301 1.46706 -3.89594 0
M  V30 5241 H 480.834 -0.230044 -3.97134 0
M  V30 5242 H 477.573 -2.30217 -6.13743 0
M  V30 5243 H 477.093 -0.597973 -5.96812 0
M  V30 5244 H 478.772 -1.01713 -6.38955 0
M  V30 5245 N 478.904 1.54736 -0.299062 0
M  V30 5246 C 479.834 2.26409 0.571085 0
M  V30 5247 C 480.815 1.2629 1.13951 0
M  V30 5248 O 482 1.55059 1.16921 0
M  V30 5249 C 479.13 3.00338 1.74396 0
M  V30 5250 C 478.084 4.07588 1.30599 0
M  V30 5251 C 477.41 4.69222 2.56387 0
M  V30 5252 C 478.71 5.20455 0.438645 0
M  V30 5253 H 480.404 2.99388 -0.0266991 0
M  V30 5254 H 477.95 1.43993 -0.0142812 0
M  V30 5255 H 479.903 3.49198 2.35878 0
M  V30 5256 H 478.627 2.24934 2.36796 0
M  V30 5257 H 477.286 3.59575 0.71424 0
M  V30 5258 H 476.934 3.9046 3.17097 0
M  V30 5259 H 476.634 5.41653 2.27784 0
M  V30 5260 H 478.158 5.20844 3.18675 0
M  V30 5261 H 479.572 5.65221 0.959085 0
M  V30 5262 H 477.969 5.99594 0.246466 0
M  V30 5263 H 479.039 4.8192 -0.536738 0
M  V30 5264 N 480.382 0.0267497 1.57577 0
M  V30 5265 C 481.332 -0.965003 2.06571 0
M  V30 5266 C 482.316 -1.28694 0.965746 0
M  V30 5267 O 483.508 -1.27345 1.22932 0
M  V30 5268 C 480.637 -2.24821 2.59443 0
M  V30 5269 C 479.723 -1.95474 3.76365 0
M  V30 5270 N 480.114 -1.36387 4.87065 0
M  V30 5271 C 478.412 -2.25478 3.84806 0
M  V30 5272 C 479.113 -1.24119 5.68304 0
M  V30 5273 N 478.089 -1.7359 5.15138 0
M  V30 5274 H 481.891 -0.503095 2.89562 0
M  V30 5275 H 479.405 -0.178322 1.61418 0
M  V30 5276 H 481.402 -2.9674 2.92833 0
M  V30 5277 H 480.062 -2.7164 1.77881 0
M  V30 5278 H 481.073 -1.03919 5.07367 0
M  V30 5279 H 477.75 -2.74987 3.14147 0
M  V30 5280 H 479.14 -0.784504 6.67304 0
M  V30 5281 N 481.861 -1.55662 -0.24637 0
M  V30 5282 C 483.109 -1.77168 -0.972411 0
M  V30 5283 C 483.43 -0.590827 -1.85834 0
M  V30 5284 O 482.7 0.393365 -1.9191 0
M  V30 5285 H 481.28 -0.653405 -0.362038 0
M  V30 5286 H 483.942 -1.93101 -0.264189 0
M  V30 5287 H 483.038 -2.68335 -1.59382 0
M  V30 5288 N 483.339 0.512053 -1.4905 0
M  V30 5289 C 484.286 1.6148 -1.64902 0
M  V30 5290 C 485.256 1.58687 -0.490673 0
M  V30 5291 O 486.441 1.76842 -0.71636 0
M  V30 5292 C 483.581 2.99676 -1.71139 0
M  V30 5293 C 482.694 3.12568 -2.98203 0
M  V30 5294 C 481.829 4.4143 -2.95487 0
M  V30 5295 C 480.868 4.47916 -4.17179 0
M  V30 5296 N 480.005 5.68191 -4.12437 0
M  V30 5297 H 484.845 1.47271 -2.59066 0
M  V30 5298 H 482.382 0.716713 -1.28459 0
M  V30 5299 H 484.34 3.79761 -1.72736 0
M  V30 5300 H 482.97 3.12614 -0.804508 0
M  V30 5301 H 482.022 2.25618 -3.06269 0
M  V30 5302 H 483.334 3.1322 -3.88194 0
M  V30 5303 H 482.488 5.29825 -2.95585 0
M  V30 5304 H 481.227 4.43326 -2.03256 0
M  V30 5305 H 480.232 3.57925 -4.17337 0
M  V30 5306 H 481.457 4.47744 -5.1059 0
M  V30 5307 H 479.403 5.7095 -3.23036 0
M  V30 5308 H 479.32 5.70413 -4.96151 0
M  V30 5309 H 480.588 6.58823 -4.16621 0
M  V30 5310 N 484.817 1.37938 0.762283 0
M  V30 5311 C 485.727 1.36681 1.90671 0
M  V30 5312 C 486.743 0.265078 1.71969 0
M  V30 5313 O 487.919 0.502055 1.95042 0
M  V30 5314 C 484.984 1.18211 3.25925 0
M  V30 5315 C 484.045 2.3811 3.57214 0
M  V30 5316 C 483.278 2.20512 4.86014 0
M  V30 5317 O 483.501 1.19429 5.57757 0
M  V30 5318 O 482.435 3.08911 5.16583 0
M  V30 5319 H 486.261 2.33091 1.94685 0
M  V30 5320 H 483.846 1.18767 0.906356 0
M  V30 5321 H 485.728 1.09937 4.06807 0
M  V30 5322 H 484.403 0.248807 3.22742 0
M  V30 5323 H 483.31 2.51958 2.76529 0
M  V30 5324 H 484.643 3.30041 3.65149 0
M  V30 5325 N 486.295 -0.989507 1.22664 0
M  V30 5326 C 487.205 -2.11449 1.01619 0
M  V30 5327 C 488.221 -1.73962 -0.036545 0
M  V30 5328 O 489.397 -2.00788 0.156924 0
M  V30 5329 C 486.462 -3.41465 0.600204 0
M  V30 5330 C 485.523 -3.93033 1.72695 0
M  V30 5331 C 484.756 -5.16844 1.33071 0
M  V30 5332 O 484.979 -5.7001 0.210975 0
M  V30 5333 O 483.913 -5.6225 2.14845 0
M  V30 5334 H 487.739 -2.32088 1.9588 0
M  V30 5335 H 485.324 -1.09823 1.01289 0
M  V30 5336 H 487.206 -4.19695 0.37873 0
M  V30 5337 H 485.881 -3.22178 -0.313511 0
M  V30 5338 H 484.788 -3.15961 2.00298 0
M  V30 5339 H 486.121 -4.16758 2.61865 0
M  V30 5340 N 487.773 -1.03688 -1.18687 0
M  V30 5341 C 489.022 -0.733235 -1.879 0
M  V30 5342 C 489.335 0.741745 -1.8099 0
M  V30 5343 O 490.541 1.15875 -2.4553 0
M  V30 5344 C 488.997 -1.26127 -3.37076 0
M  V30 5345 C 488.605 -2.76461 -3.52524 0
M  V30 5346 C 490.349 -1.03398 -4.11715 0
M  V30 5347 C 488.256 -3.22642 -4.95637 0
M  V30 5348 H 487.186 -0.270584 -0.703776 0
M  V30 5349 H 489.837 -1.25222 -1.34133 0
M  V30 5350 H 488.219 -0.670165 -3.90288 0
M  V30 5351 H 489.393 -3.41296 -3.09602 0
M  V30 5352 H 487.708 -2.97559 -2.91286 0
M  V30 5353 H 490.305 -1.3542 -5.17267 0
M  V30 5354 H 490.648 0.0289246 -4.1629 0
M  V30 5355 H 491.181 -1.5895 -3.64664 0
M  V30 5356 H 487.92 -4.28296 -4.96228 0
M  V30 5357 H 487.44 -2.62539 -5.39289 0
M  V30 5358 H 489.119 -3.16444 -5.64333 0
M  V30 5359 N 489.251 1.34841 -0.815825 0
M  V30 5360 C 490.198 2.29644 -0.230664 0
M  V30 5361 C 491.168 1.53253 0.640533 0
M  V30 5362 O 492.353 1.81653 0.583672 0
M  V30 5363 C 489.493 3.39715 0.607275 0
M  V30 5364 C 488.606 4.31056 -0.28538 0
M  V30 5365 C 487.741 5.28225 0.561446 0
M  V30 5366 C 486.78 6.11204 -0.331035 0
M  V30 5367 N 485.917 7.00483 0.476302 0
M  V30 5368 H 490.757 2.79095 -1.0445 0
M  V30 5369 H 488.294 1.37351 -0.526595 0
M  V30 5370 H 490.252 4.02208 1.10835 0
M  V30 5371 H 488.882 2.91517 1.38629 0
M  V30 5372 H 487.934 3.69487 -0.904621 0
M  V30 5373 H 489.246 4.89239 -0.97193 0
M  V30 5374 H 488.4 5.96135 1.12728 0
M  V30 5375 H 487.139 4.70562 1.28153 0
M  V30 5376 H 486.144 5.42232 -0.909069 0
M  V30 5377 H 487.369 6.70947 -1.04912 0
M  V30 5378 H 485.315 6.45296 1.18019 0
M  V30 5379 H 485.232 7.55847 -0.152008 0
M  V30 5380 H 486.5 7.7273 1.02512 0
M  V30 5381 N 490.729 0.570148 1.46925 0
M  V30 5382 C 491.975 0.0510284 2.02736 0
M  V30 5383 C 492.308 -1.3006 1.44215 0
M  V30 5384 O 491.583 -1.84932 0.602521 0
M  V30 5385 C 491.866 -0.028215 3.60089 0
M  V30 5386 C 491.719 1.35142 4.29018 0
M  V30 5387 C 493.038 -0.735181 4.33916 0
M  V30 5388 H 490.157 0.0200178 0.736728 0
M  V30 5389 H 492.799 0.73493 1.75211 0
M  V30 5390 H 490.949 -0.610648 3.83671 0
M  V30 5391 H 492.621 1.97806 4.16738 0
M  V30 5392 H 490.864 1.9226 3.88868 0
M  V30 5393 H 491.535 1.24857 5.37694 0
M  V30 5394 H 494.011 -0.240519 4.15404 0
M  V30 5395 H 492.887 -0.759622 5.43618 0
M  V30 5396 H 493.148 -1.79397 4.04066 0
M  V30 5397 N 492.207 -1.54576 0.307264 0
M  V30 5398 C 493.456 -1.99442 -0.300976 0
M  V30 5399 C 493.769 -1.19928 -1.5452 0
M  V30 5400 O 494.975 -1.55092 -2.22842 0
M  V30 5401 C 493.431 -3.55084 -0.586809 0
M  V30 5402 C 493.039 -4.43413 0.639438 0
M  V30 5403 C 494.783 -4.0846 -1.1559 0
M  V30 5404 C 492.69 -5.90499 0.326411 0
M  V30 5405 H 491.62 -0.744986 -0.116238 0
M  V30 5406 H 494.271 -1.787 0.416947 0
M  V30 5407 H 492.653 -3.71749 -1.36449 0
M  V30 5408 H 493.827 -4.38522 1.41545 0
M  V30 5409 H 492.142 -4.00842 1.1276 0
M  V30 5410 H 494.739 -5.15926 -1.40445 0
M  V30 5411 H 495.082 -3.59443 -2.10015 0
M  V30 5412 H 495.615 -3.95362 -0.439778 0
M  V30 5413 H 492.354 -6.43676 1.23939 0
M  V30 5414 H 491.874 -5.98382 -0.412212 0
M  V30 5415 H 493.553 -6.46962 -0.0697393 0
M  V30 5416 N 493.685 -0.035106 -1.57561 0
M  V30 5417 C 495.096 0.502885 -1.798 0
M  V30 5418 C 495.447 1.71892 -0.945921 0
M  V30 5419 O 494.572 2.15822 -0.157991 0
M  V30 5420 C 495.167 0.919097 -3.26095 0
M  V30 5421 C 493.726 1.40216 -3.49308 0
M  V30 5422 C 492.873 0.369709 -2.74824 0
M  V30 5423 H 495.824 -0.261102 -1.56537 0
M  V30 5424 H 495.845 1.78308 -3.36135 0
M  V30 5425 H 495.357 0.0338526 -3.88085 0
M  V30 5426 H 493.458 2.30714 -2.92578 0
M  V30 5427 H 493.571 1.40541 -4.58023 0
M  V30 5428 H 491.935 0.839113 -2.40481 0
M  V30 5429 H 492.718 -0.507173 -3.39533 0
M  V30 5430 N 495.163 1.55791 0.238111 0
M  V30 5431 C 496.391 1.82098 0.982233 0
M  V30 5432 C 496.806 0.612025 1.78605 0
M  V30 5433 O 496.163 -0.419381 1.77616 0
M  V30 5434 C 496.214 3.0673 1.91309 0
M  V30 5435 O 495.935 4.2296 1.14179 0
M  V30 5436 C 497.436 3.45903 2.77248 0
M  V30 5437 H 494.656 0.605748 0.288635 0
M  V30 5438 H 497.2 2.02862 0.258341 0
M  V30 5439 H 495.355 2.87991 2.59114 0
M  V30 5440 H 495.769 4.93653 1.7722 0
M  V30 5441 H 497.243 4.36189 3.38295 0
M  V30 5442 H 497.72 2.66891 3.48806 0
M  V30 5443 H 498.326 3.67024 2.14881 0
M  V30 5444 N 496.642 -0.504142 1.49319 0
M  V30 5445 C 498.053 -1.08572 1.51885 0
M  V30 5446 C 498.404 -1.93842 0.303255 0
M  V30 5447 O 497.529 -2.0828 -0.58724 0
M  V30 5448 C 498.124 -1.97574 2.75227 0
M  V30 5449 C 496.683 -2.509 2.80581 0
M  V30 5450 C 495.83 -1.28447 2.45757 0
M  V30 5451 H 498.781 -0.288194 1.56061 0
M  V30 5452 H 498.802 -2.82219 2.55211 0
M  V30 5453 H 498.314 -1.35486 3.63683 0
M  V30 5454 H 496.415 -3.16636 1.96398 0
M  V30 5455 H 496.528 -2.88268 3.82673 0
M  V30 5456 H 494.892 -1.60868 1.97468 0
M  V30 5457 H 495.675 -0.68072 3.36483 0
M  V30 5458 N 498.12 -1.38341 -0.754957 0
M  V30 5459 C 499.531 -1.30803 -1.3322 0
M  V30 5460 C 499.882 0.0368 -1.96165 0
M  V30 5461 O 499.007 0.938844 -1.94974 0
M  V30 5462 C 499.602 -2.3688 -2.42225 0
M  V30 5463 C 498.161 -2.32925 -2.95674 0
M  V30 5464 C 497.308 -2.19819 -1.69042 0
M  V30 5465 H 500.259 -1.48719 -0.553937 0
M  V30 5466 H 500.28 -2.02517 -3.22129 0
M  V30 5467 H 499.792 -3.34747 -1.96383 0
M  V30 5468 H 497.893 -1.38635 -3.45848 0
M  V30 5469 H 498.006 -3.27008 -3.50146 0
M  V30 5470 H 496.37 -1.66648 -1.92615 0
M  V30 5471 H 497.153 -3.19625 -1.25279 0
M  V30 5472 N 499.598 0.982988 -1.23187 0
M  V30 5473 C 500.561 2.05649 -1.01198 0
M  V30 5474 C 501.561 1.6078 0.0252464 0
M  V30 5475 O 502.751 1.72878 -0.214243 0
M  V30 5476 C 499.883 3.36744 -0.530656 0
M  V30 5477 H 501.076 2.2659 -1.96461 0
M  V30 5478 H 498.629 1.15602 -1.05195 0
M  V30 5479 H 499.364 3.21492 0.425873 0
M  V30 5480 H 499.149 3.7065 -1.2791 0
M  V30 5481 H 500.639 4.15705 -0.397366 0
M  V30 5482 N 501.076 1.04316 1.18135 0
M  V30 5483 C 502.353 0.662166 1.84051 0
M  V30 5484 C 502.733 -0.858169 1.9287 0
M  V30 5485 O 502.081 -1.76062 1.45652 0
M  V30 5486 C 502.291 1.3409 3.22212 0
M  V30 5487 C 503.639 1.4733 3.9822 0
M  V30 5488 O 504.663 1.29921 3.31661 0
M  V30 5489 O 503.522 1.75722 5.17479 0
M  V30 5490 H 500.616 0.232005 0.79379 0
M  V30 5491 H 503.162 1.1422 1.25506 0
M  V30 5492 H 501.934 2.37853 3.10711 0
M  V30 5493 H 501.557 0.849649 3.88416 0
M  V30 5494 N 502.554 -1.34406 0.822964 0
M  V30 5495 C 503.504 -2.26963 0.217208 0
M  V30 5496 C 504.488 -1.48536 -0.618545 0
M  V30 5497 O 505.68 -1.7056 -0.473118 0
M  V30 5498 C 502.809 -3.37655 -0.619973 0
M  V30 5499 C 501.895 -4.23495 0.226411 0
M  V30 5500 N 502.286 -4.88876 1.29744 0
M  V30 5501 C 500.584 -4.45999 0.0107554 0
M  V30 5502 C 501.285 -5.52642 1.81553 0
M  V30 5503 N 500.261 -5.31949 1.11942 0
M  V30 5504 H 504.063 -2.75017 1.03647 0
M  V30 5505 H 501.577 -1.48126 0.665777 0
M  V30 5506 H 503.574 -4.02932 -1.07011 0
M  V30 5507 H 502.234 -2.91151 -1.43739 0
M  V30 5508 H 503.245 -4.89886 1.68024 0
M  V30 5509 H 499.922 -4.10253 -0.774495 0
M  V30 5510 H 501.312 -6.14755 2.71156 0
M  V30 5511 N 504.032 -0.577932 -1.46621 0
M  V30 5512 C 505.278 -0.0700937 -2.03279 0
M  V30 5513 C 505.633 1.27376 -1.44198 0
M  V30 5514 O 504.926 1.82097 -0.595911 0
M  V30 5515 C 505.12 0.0590832 -3.57351 0
M  V30 5516 C 504.949 -1.2707 -4.31374 0
M  V30 5517 C 503.719 -1.84357 -4.70469 0
M  V30 5518 C 505.917 -2.19278 -4.65211 0
M  V30 5519 N 503.899 -3.11124 -5.29221 0
M  V30 5520 C 505.27 -3.30631 -5.24484 0
M  V30 5521 C 507.325 -2.19018 -4.47142 0
M  V30 5522 C 506.028 -4.41849 -5.67593 0
M  V30 5523 C 508.054 -3.29262 -4.91264 0
M  V30 5524 C 507.416 -4.39335 -5.50604 0
M  V30 5525 H 503.515 -0.0683127 -0.779011 0
M  V30 5526 H 506.099 -0.76978 -1.78836 0
M  V30 5527 H 504.27 0.727929 -3.81518 0
M  V30 5528 H 506.002 0.57087 -4.00653 0
M  V30 5529 H 502.757 -1.37906 -4.53077 0
M  V30 5530 H 503.181 -3.75794 -5.63123 0
M  V30 5531 H 507.823 -1.35191 -4.00604 0
M  V30 5532 H 505.541 -5.26421 -6.13112 0
M  V30 5533 H 509.127 -3.30172 -4.79038 0
M  V30 5534 H 508.007 -5.23233 -5.84121 0
M  V30 5535 N 505.51 1.54411 -0.315457 0
M  V30 5536 C 506.738 2.04833 0.291738 0
M  V30 5537 C 507.153 1.19203 1.46411 0
M  V30 5538 O 506.51 0.220867 1.81159 0
M  V30 5539 C 506.561 3.53969 0.73404 0
M  V30 5540 O 506.282 4.36346 -0.391682 0
M  V30 5541 C 507.783 4.2045 1.40489 0
M  V30 5542 H 505.003 0.668195 0.0612947 0
M  V30 5543 H 507.547 1.99276 -0.45929 0
M  V30 5544 H 505.702 3.5984 1.43506 0
M  V30 5545 H 506.116 5.24481 -0.0447088 0
M  V30 5546 H 507.59 5.26278 1.66539 0
M  V30 5547 H 508.067 3.71067 2.3496 0
M  V30 5548 H 508.673 4.18694 0.746662 0
M  V30 5549 N 506.988 0.0434614 1.5754 0
M  V30 5550 C 507.918 -0.931651 2.14109 0
M  V30 5551 C 508.899 -1.32971 1.06079 0
M  V30 5552 O 510.084 -1.40579 1.33982 0
M  V30 5553 C 507.214 -2.20914 2.67982 0
M  V30 5554 C 506.168 -1.95139 3.80926 0
M  V30 5555 C 505.494 -3.29276 4.21285 0
M  V30 5556 C 506.794 -1.27913 5.06395 0
M  V30 5557 H 508.488 -0.460497 2.95837 0
M  V30 5558 H 506.034 -0.220058 1.42309 0
M  V30 5559 H 507.987 -2.89522 3.06194 0
M  V30 5560 H 506.711 -2.70221 1.83434 0
M  V30 5561 H 505.37 -1.28945 3.43175 0
M  V30 5562 H 505.018 -3.76369 3.33699 0
M  V30 5563 H 504.718 -3.12831 4.97404 0
M  V30 5564 H 506.242 -3.99129 4.62091 0
M  V30 5565 H 507.656 -1.86544 5.42102 0
M  V30 5566 H 506.053 -1.2182 5.87605 0
M  V30 5567 H 507.123 -0.254066 4.84234 0
M  V30 5568 N 508.466 -1.55915 -0.229846 0
M  V30 5569 C 509.715 -1.77742 -0.953455 0
M  V30 5570 C 510.028 -0.610524 -1.85828 0
M  V30 5571 O 511.234 -0.712219 -2.61992 0
M  V30 5572 C 509.69 -3.14738 -1.74551 0
M  V30 5573 C 509.298 -4.39126 -0.887242 0
M  V30 5574 C 511.042 -3.45895 -2.46084 0
M  V30 5575 C 508.949 -5.67149 -1.67617 0
M  V30 5576 H 507.879 -0.662648 -0.359741 0
M  V30 5577 H 510.53 -1.82322 -0.207576 0
M  V30 5578 H 508.912 -3.04311 -2.53399 0
M  V30 5579 H 510.086 -4.60588 -0.139892 0
M  V30 5580 H 508.401 -4.15427 -0.284443 0
M  V30 5581 H 510.998 -4.38767 -3.05594 0
M  V30 5582 H 511.341 -2.68007 -3.18556 0
M  V30 5583 H 511.874 -3.57614 -1.74233 0
M  V30 5584 H 508.613 -6.47906 -0.994881 0
M  V30 5585 H 508.133 -5.49763 -2.39836 0
M  V30 5586 H 509.812 -6.07025 -2.23898 0
M  V30 5587 N 509.944 0.496216 -1.49584 0
M  V30 5588 C 511.169 1.27865 -1.63295 0
M  V30 5589 C 511.594 1.85592 -0.306156 0
M  V30 5590 O 510.952 1.66092 0.726851 0
M  V30 5591 C 511 2.38128 -2.7079 0
M  V30 5592 O 510.104 3.42108 -2.30296 0
M  V30 5593 H 509.445 0.377279 -0.546403 0
M  V30 5594 H 511.975 0.593497 -1.95803 0
M  V30 5595 H 511.985 2.8382 -2.93104 0
M  V30 5596 H 510.66 1.95479 -3.67098 0
M  V30 5597 H 509.237 3.02301 -2.18331 0
M  V30 5598 N 511.423 1.38739 0.74761 0
M  V30 5599 C 512.671 1.35007 1.50391 0
M  V30 5600 C 512.992 -0.0574274 1.94915 0
M  V30 5601 O 512.262 -1.00628 1.6808 0
M  V30 5602 H 510.842 0.496784 0.557866 0
M  V30 5603 H 513.504 1.73479 0.888319 0
M  V30 5604 H 512.6 2.00474 2.392 0
M  V30 5605 N 512.901 -0.976442 1.23707 0
M  V30 5606 C 513.831 -2.08749 1.04624 0
M  V30 5607 C 514.812 -1.70057 -0.0380956 0
M  V30 5608 O 515.997 -1.93782 0.127308 0
M  V30 5609 C 513.127 -3.41335 0.640902 0
M  V30 5610 C 512.081 -3.93947 1.67302 0
M  V30 5611 C 511.407 -5.22774 1.12301 0
M  V30 5612 C 512.707 -4.22769 3.06697 0
M  V30 5613 H 514.401 -2.24972 1.97555 0
M  V30 5614 H 511.947 -1.08108 0.951247 0
M  V30 5615 H 513.9 -4.18489 0.494434 0
M  V30 5616 H 512.624 -3.24988 -0.324099 0
M  V30 5617 H 511.283 -3.18941 1.80755 0
M  V30 5618 H 510.931 -5.0278 0.148877 0
M  V30 5619 H 510.631 -5.58942 1.81267 0
M  V30 5620 H 512.155 -6.02546 0.988479 0
M  V30 5621 H 513.569 -4.90659 2.96524 0
M  V30 5622 H 511.966 -4.70147 3.72937 0
M  V30 5623 H 513.036 -3.29885 3.55392 0
M  V30 5624 N 514.379 -1.04941 -1.1758 0
M  V30 5625 C 515.79 -0.784501 -1.69418 0
M  V30 5626 C 516.141 0.693625 -1.8353 0
M  V30 5627 O 515.266 1.53925 -1.52106 0
M  V30 5628 C 515.861 -1.41746 -3.07723 0
M  V30 5629 C 514.42 -1.20066 -3.56737 0
M  V30 5630 C 513.567 -1.5026 -2.33061 0
M  V30 5631 H 516.518 -1.21469 -1.02133 0
M  V30 5632 H 516.539 -0.825381 -3.7144 0
M  V30 5633 H 516.051 -2.49325 -2.9742 0
M  V30 5634 H 514.152 -0.144006 -3.72322 0
M  V30 5635 H 514.265 -1.90384 -4.39648 0
M  V30 5636 H 512.629 -0.922598 -2.37403 0
M  V30 5637 H 513.412 -2.58967 -2.25368 0
M  V30 5638 N 515.857 1.33968 -0.830081 0
M  V30 5639 C 517.085 2.0228 -0.434773 0
M  V30 5640 C 517.5 1.62487 0.961419 0
M  V30 5641 O 516.857 0.833849 1.62337 0
M  V30 5642 C 516.908 3.5751 -0.535625 0
M  V30 5643 O 516.629 3.95864 -1.87679 0
M  V30 5644 C 518.13 4.43091 -0.136137 0
M  V30 5645 H 515.35 0.648151 -0.173613 0
M  V30 5646 H 517.894 1.71089 -1.12022 0
M  V30 5647 H 516.049 3.87266 0.101817 0
M  V30 5648 H 516.463 4.9056 -1.85609 0
M  V30 5649 H 517.937 5.51398 -0.257772 0
M  V30 5650 H 518.414 4.29433 0.921076 0
M  V30 5651 H 519.02 4.18677 -0.747662 0
M  V30 5652 N 517.335 0.585699 1.46312 0
M  V30 5653 C 518.565 0.0780166 2.06453 0
M  V30 5654 C 518.973 -1.2336 1.43454 0
M  V30 5655 O 518.316 -1.75734 0.535086 0
M  V30 5656 C 518.378 -0.158951 3.59148 0
M  V30 5657 C 518.042 1.06752 4.44357 0
M  V30 5658 C 519.039 1.98031 4.80708 0
M  V30 5659 C 516.724 1.2902 4.85447 0
M  V30 5660 C 518.718 3.09924 5.5698 0
M  V30 5661 C 516.405 2.41218 5.61478 0
M  V30 5662 C 517.403 3.31499 5.97158 0
M  V30 5663 O 517.091 4.41747 6.71651 0
M  V30 5664 H 516.823 0.0558894 0.673686 0
M  V30 5665 H 519.377 0.806994 1.88883 0
M  V30 5666 H 517.607 -0.942575 3.75037 0
M  V30 5667 H 519.296 -0.615513 4.01206 0
M  V30 5668 H 520.062 1.82043 4.49539 0
M  V30 5669 H 515.941 0.596567 4.57124 0
M  V30 5670 H 519.485 3.80415 5.84748 0
M  V30 5671 H 515.382 2.57167 5.9206 0
M  V30 5672 H 516.15 4.40152 6.90079 0
M  V30 5673 N 518.813 -1.54241 0.323641 0
M  V30 5674 C 520.059 -2.00867 -0.279323 0
M  V30 5675 C 520.392 -1.21146 -1.5178 0
M  V30 5676 O 519.667 -0.29378 -1.92269 0
M  V30 5677 C 519.95 -3.54837 -0.613387 0
M  V30 5678 C 519.803 -4.45284 0.635803 0
M  V30 5679 C 521.122 -4.16186 -1.43099 0
M  V30 5680 H 518.241 -0.730177 -0.100049 0
M  V30 5681 H 520.883 -1.84829 0.440235 0
M  V30 5682 H 519.033 -3.68634 -1.22641 0
M  V30 5683 H 520.705 -4.43357 1.27406 0
M  V30 5684 H 518.948 -4.14956 1.26466 0
M  V30 5685 H 519.619 -5.5084 0.357597 0
M  V30 5686 H 522.095 -4.05964 -0.912814 0
M  V30 5687 H 520.971 -5.24031 -1.6335 0
M  V30 5688 H 521.232 -3.69516 -2.42715 0
M  V30 5689 N 520.291 -0.0518155 -1.57515 0
M  V30 5690 C 521.254 0.907547 -2.10467 0
M  V30 5691 C 522.254 1.23947 -1.02439 0
M  V30 5692 O 523.444 1.17604 -1.2851 0
M  V30 5693 C 520.576 2.21723 -2.58944 0
M  V30 5694 H 521.769 0.44851 -2.96527 0
M  V30 5695 H 519.322 0.196598 -1.55059 0
M  V30 5696 H 520.057 2.72206 -1.76279 0
M  V30 5697 H 519.842 1.98935 -3.37886 0
M  V30 5698 H 521.332 2.90441 -3.00056 0
M  V30 5699 N 521.769 1.56035 0.221574 0
M  V30 5700 C 522.679 1.95581 1.29558 0
M  V30 5701 C 523.695 0.859639 1.51282 0
M  V30 5702 O 524.871 1.16321 1.64413 0
M  V30 5703 C 521.936 2.26447 2.62531 0
M  V30 5704 C 520.997 3.49632 2.4911 0
M  V30 5705 C 520.23 3.79017 3.75742 0
M  V30 5706 O 520.453 3.10077 4.78757 0
M  V30 5707 O 519.387 4.72507 3.72855 0
M  V30 5708 H 523.213 2.8711 0.990035 0
M  V30 5709 H 520.798 1.43244 0.424434 0
M  V30 5710 H 522.68 2.47494 3.41064 0
M  V30 5711 H 521.355 1.38092 2.92766 0
M  V30 5712 H 520.262 3.33864 1.68777 0
M  V30 5713 H 521.595 4.3837 2.23814 0
M  V30 5714 N 523.247 -0.488276 1.49845 0
M  V30 5715 C 524.195 -1.60917 1.67954 0
M  V30 5716 C 525.189 -1.6038 0.54539 0
M  V30 5717 O 526.395 -1.64736 0.7254 0
M  V30 5718 H 522.77 -0.533658 0.529824 0
M  V30 5719 H 524.741 -1.428 2.62013 0
M  V30 5720 C 523.49 -2.98975 1.77509 0
M  V30 5721 H 522.813 -3.00099 2.6416 0
M  V30 5722 H 524.253 -3.76906 1.9421 0
M  V30 5723 C 522.712 -3.3282 0.522745 0
M  V30 5724 O 523.242 -4.00208 -0.345866 0
M  V30 5725 N 521.448 -2.8808 0.381882 0
M  V30 5726 H 520.995 -2.33415 1.08974 0
M  V30 5727 H 520.953 -3.11091 -0.454929 0
M  V30 5728 N 524.725 -1.39134 -0.740242 0
M  V30 5729 C 525.973 -1.35803 -1.49673 0
M  V30 5730 C 526.294 0.0470897 -1.94943 0
M  V30 5731 O 525.564 0.997347 -1.68611 0
M  V30 5732 H 524.144 -0.499736 -0.555224 0
M  V30 5733 H 526.806 -1.73947 -0.879107 0
M  V30 5734 H 525.902 -2.0174 -2.38133 0
M  V30 5735 N 526.204 0.969867 -1.24223 0
M  V30 5736 C 527.451 1.71256 -1.08063 0
M  V30 5737 C 527.779 1.90734 0.380872 0
M  V30 5738 O 527.034 1.46469 1.29789 0
M  V30 5739 C 527.333 3.10883 -1.76314 0
M  V30 5740 C 526.999 3.11252 -3.26241 0
M  V30 5741 C 525.661 3.1106 -3.67144 0
M  V30 5742 C 528.013 3.05751 -4.22097 0
M  V30 5743 C 525.341 3.03097 -5.02344 0
M  V30 5744 C 527.693 2.9933 -5.57301 0
M  V30 5745 C 526.357 2.97466 -5.97554 0
M  V30 5746 H 525.627 0.62667 -0.395431 0
M  V30 5747 H 528.274 1.13422 -1.54297 0
M  V30 5748 H 526.579 3.72168 -1.22468 0
M  V30 5749 H 528.276 3.67138 -1.61277 0
M  V30 5750 H 524.866 3.12165 -2.93685 0
M  V30 5751 H 529.05 3.05031 -3.91497 0
M  V30 5752 H 524.306 3.00013 -5.32731 0
M  V30 5753 H 528.48 2.94033 -6.31283 0
M  V30 5754 H 526.107 2.91051 -7.02277 0
M  V30 5755 N 527.682 1.05563 1.17022 0
M  V30 5756 C 528.931 0.763036 1.8671 0
M  V30 5757 C 529.244 -0.712857 1.82147 0
M  V30 5758 O 530.45 -1.11955 2.47343 0
M  V30 5759 C 528.906 1.31474 3.35026 0
M  V30 5760 C 528.514 2.82034 3.48081 0
M  V30 5761 C 530.258 1.09935 4.10018 0
M  V30 5762 C 528.165 3.30486 4.90442 0
M  V30 5763 H 527.095 0.281747 0.699382 0
M  V30 5764 H 529.746 1.2734 1.32124 0
M  V30 5765 H 528.128 0.732171 3.89173 0
M  V30 5766 H 529.302 3.46178 3.04133 0
M  V30 5767 H 527.617 3.02156 2.86515 0
M  V30 5768 H 530.214 1.43632 5.15048 0
M  V30 5769 H 530.557 0.0373072 4.16283 0
M  V30 5770 H 531.09 1.64732 3.62089 0
M  V30 5771 H 527.829 4.36137 4.89352 0
M  V30 5772 H 527.349 2.71086 5.35044 0
M  V30 5773 H 529.028 3.25382 5.59227 0
M  V30 5774 N 529.16 -1.33526 0.837174 0
M  V30 5775 C 530.4 -1.99649 0.438115 0
M  V30 5776 C 530.764 -1.64879 -0.983816 0
M  V30 5777 O 531.965 -2.23956 -1.48651 0
M  V30 5778 C 530.236 -3.51431 0.650461 0
M  V30 5779 S 531.795 -4.37431 0.346371 0
M  V30 5780 H 528.613 -0.69162 0.164872 0
M  V30 5781 H 531.215 -1.62556 1.08609 0
M  V30 5782 H 529.919 -3.74225 1.68475 0
M  V30 5783 H 529.45 -3.93398 -0.0117309 0
M  V30 5784 H 531.465 -4.89132 -0.834504 0
M  V30 5785 N 530.638 -0.59345 -1.46 0
M  V30 5786 C 531.586 0.146268 -2.3214 0
M  V30 5787 C 532.58 0.873743 -1.45128 0
M  V30 5788 O 533.786 0.790912 -1.61693 0
M  V30 5789 H 530.161 0.0660349 -0.749095 0
M  V30 5790 H 532.132 -0.598895 -2.92328 0
M  V30 5791 C 530.881 1.1396 -3.28494 0
M  V30 5792 H 530.204 0.589252 -3.95434 0
M  V30 5793 H 531.644 1.62738 -3.91526 0
M  V30 5794 C 530.103 2.20604 -2.54628 0
M  V30 5795 O 530.633 3.28128 -2.31722 0
M  V30 5796 N 528.839 1.95502 -2.15005 0
M  V30 5797 H 528.386 1.0807 -2.33834 0
M  V30 5798 H 528.344 2.67064 -1.65904 0
M  V30 5799 N 532.116 1.54067 -0.331816 0
M  V30 5800 C 533.049 2.20886 0.573127 0
M  V30 5801 C 534.027 1.18876 1.10938 0
M  V30 5802 O 535.211 1.47649 1.17184 0
M  V30 5803 C 532.338 2.87706 1.78726 0
M  V30 5804 C 531.384 4.03505 1.38152 0
M  V30 5805 S 532.217 5.33919 0.41123 0
M  V30 5806 C 533.373 6.04236 1.63246 0
M  V30 5807 H 533.606 2.97299 0.00555737 0
M  V30 5808 H 531.139 1.53964 -0.115893 0
M  V30 5809 H 533.097 3.26825 2.48386 0
M  V30 5810 H 531.758 2.1108 2.32603 0
M  V30 5811 H 530.951 4.49152 2.28645 0
M  V30 5812 H 530.553 3.66102 0.764524 0
M  V30 5813 H 532.845 6.26917 2.56869 0
M  V30 5814 H 533.788 6.97546 1.218 0
M  V30 5815 H 534.196 5.34247 1.82318 0
M  V30 5816 N 533.594 0.0601682 1.57485 0
M  V30 5817 C 534.527 -0.94676 2.07634 0
M  V30 5818 C 535.505 -1.29837 0.978826 0
M  V30 5819 O 536.689 -1.40969 1.2514 0
M  V30 5820 C 533.816 -2.25822 2.52433 0
M  V30 5821 C 532.862 -2.05901 3.73507 0
M  V30 5822 S 533.695 -1.32907 5.18745 0
M  V30 5823 C 534.851 -2.65356 5.66866 0
M  V30 5824 H 535.084 -0.520003 2.92717 0
M  V30 5825 H 532.617 -0.152319 1.53647 0
M  V30 5826 H 534.575 -3.01201 2.78905 0
M  V30 5827 H 533.236 -2.65624 1.67639 0
M  V30 5828 H 532.429 -3.02929 4.02803 0
M  V30 5829 H 532.031 -1.38659 3.47347 0
M  V30 5830 H 534.323 -3.61492 5.73001 0
M  V30 5831 H 535.266 -2.40685 6.6594 0
M  V30 5832 H 535.674 -2.72028 4.94632 0
M  V30 5833 N 535.072 -1.5615 -0.213296 0
M  V30 5834 C 536.02 -1.93953 -1.28394 0
M  V30 5835 C 537.014 -0.822592 -1.48087 0
M  V30 5836 O 538.22 -1.00748 -1.49164 0
M  V30 5837 H 534.595 -0.61648 -0.430646 0
M  V30 5838 H 536.566 -2.83275 -0.937977 0
M  V30 5839 C 535.315 -2.27969 -2.62537 0
M  V30 5840 H 534.638 -3.13432 -2.48194 0
M  V30 5841 H 536.078 -2.58297 -3.36242 0
M  V30 5842 C 534.537 -1.10775 -3.18167 0
M  V30 5843 O 535.067 -0.373201 -3.99963 0
M  V30 5844 N 533.273 -0.889377 -2.76656 0
M  V30 5845 H 532.82 -1.48843 -2.10246 0
M  V30 5846 H 532.778 -0.107 -3.14218 0
M  V30 5847 N 536.55 0.480323 -1.50102 0
M  V30 5848 C 537.513 1.56181 -1.6775 0
M  V30 5849 C 538.513 1.51156 -0.548503 0
M  V30 5850 O 539.703 1.5394 -0.815363 0
M  V30 5851 C 536.835 2.95823 -1.69415 0
M  V30 5852 H 538.028 1.41855 -2.6423 0
M  V30 5853 H 535.581 0.70605 -1.39444 0
M  V30 5854 H 536.316 3.15604 -0.745948 0
M  V30 5855 H 536.101 3.00878 -2.51425 0
M  V30 5856 H 537.591 3.74359 -1.85054 0
M  V30 5857 N 538.028 1.39524 0.732853 0
M  V30 5858 C 539.439 1.32905 1.31122 0
M  V30 5859 C 539.79 -0.00558708 1.96199 0
M  V30 5860 O 538.915 -0.907706 1.96443 0
M  V30 5861 C 539.51 2.40704 2.38426 0
M  V30 5862 C 538.069 2.37599 2.91931 0
M  V30 5863 C 537.216 2.2248 1.65523 0
M  V30 5864 H 540.167 1.49581 0.530207 0
M  V30 5865 H 540.188 2.07616 3.18867 0
M  V30 5866 H 539.7 3.37829 1.91033 0
M  V30 5867 H 537.801 1.44119 3.43599 0
M  V30 5868 H 537.914 3.32538 3.44899 0
M  V30 5869 H 536.278 1.69691 1.8994 0
M  V30 5870 H 537.061 3.21577 1.20178 0
M  V30 5871 N 539.506 -0.963266 1.24736 0
M  V30 5872 C 540.469 -2.04013 1.04457 0
M  V30 5873 C 541.469 -1.608 0.000335555 0
M  V30 5874 O 542.659 -1.72515 0.241719 0
M  V30 5875 C 539.791 -3.35858 0.584162 0
M  V30 5876 H 540.984 -2.23436 2.00041 0
M  V30 5877 H 538.537 -1.13914 1.07021 0
M  V30 5878 H 539.272 -3.22128 -0.374673 0
M  V30 5879 H 539.057 -3.68568 1.3379 0
M  V30 5880 H 540.547 -4.1502 0.463451 0
M  V30 5881 N 540.985 -1.06182 -1.16461 0
M  V30 5882 C 542.262 -0.691364 -1.82974 0
M  V30 5883 C 542.642 0.827377 -1.9421 0
M  V30 5884 O 541.99 1.73723 -1.48434 0
M  V30 5885 C 542.2 -1.39199 -3.20038 0
M  V30 5886 C 543.548 -1.53647 -3.95825 0
M  V30 5887 O 544.572 -1.35181 -3.29552 0
M  V30 5888 O 543.431 -1.83932 -5.14618 0
M  V30 5889 H 540.525 -0.244605 -0.789998 0
M  V30 5890 H 543.071 -1.16203 -1.23673 0
M  V30 5891 H 541.843 -2.42766 -3.06888 0
M  V30 5892 H 541.466 -0.911335 -3.87015 0
M  V30 5893 N 542.463 1.3308 -0.844243 0
M  V30 5894 C 543.373 2.32876 -0.283922 0
M  V30 5895 C 544.389 1.63589 0.592846 0
M  V30 5896 O 545.565 1.95205 0.495693 0
M  V30 5897 C 542.63 3.42667 0.527283 0
M  V30 5898 C 541.691 4.27664 -0.374394 0
M  V30 5899 C 540.924 5.32212 0.39819 0
M  V30 5900 O 541.147 5.46635 1.62932 0
M  V30 5901 O 540.081 6.01458 -0.2306 0
M  V30 5902 H 543.907 2.82671 -1.11045 0
M  V30 5903 H 541.492 1.36518 -0.606903 0
M  V30 5904 H 543.374 4.09652 0.988078 0
M  V30 5905 H 542.049 2.95079 1.33078 0
M  V30 5906 H 540.956 3.63526 -0.883144 0
M  V30 5907 H 542.289 4.78749 -1.1428 0
M  V30 5908 N 543.941 0.601185 1.45683 0
M  V30 5909 C 545.171 0.0999093 2.06358 0
M  V30 5910 C 545.579 -1.21831 1.44754 0
M  V30 5911 O 544.922 -1.75157 0.553695 0
M  V30 5912 C 544.984 -0.12085 3.59297 0
M  V30 5913 C 544.648 1.11459 4.432 0
M  V30 5914 C 545.645 2.03118 4.7858 0
M  V30 5915 C 543.33 1.34162 4.84051 0
M  V30 5916 C 545.324 3.15814 5.53661 0
M  V30 5917 C 543.011 2.4716 5.58888 0
M  V30 5918 C 544.009 3.37814 5.93608 0
M  V30 5919 O 543.697 4.48846 6.66928 0
M  V30 5920 H 543.429 0.0630316 0.673055 0
M  V30 5921 H 545.983 0.826982 1.88016 0
M  V30 5922 H 544.213 -0.902744 3.76015 0
M  V30 5923 H 545.902 -0.572925 4.01836 0
M  V30 5924 H 546.668 1.86801 4.47583 0
M  V30 5925 H 542.547 0.645018 4.56465 0
M  V30 5926 H 546.091 3.86596 5.8068 0
M  V30 5927 H 541.988 2.63432 5.89299 0
M  V30 5928 H 542.756 4.47446 6.85371 0
M  V30 5929 N 545.419 -1.53889 0.339982 0
M  V30 5930 C 546.666 -2.00855 -0.257621 0
M  V30 5931 C 546.994 -1.22788 -1.50842 0
M  V30 5932 O 546.249 -0.302567 -1.93347 0
M  V30 5933 C 546.548 -3.51968 -0.620735 0
M  V30 5934 C 546.214 -4.47741 0.532771 0
M  V30 5935 C 544.876 -4.73645 0.849339 0
M  V30 5936 C 547.228 -5.04551 1.3068 0
M  V30 5937 C 544.556 -5.53614 1.94237 0
M  V30 5938 C 546.908 -5.85713 2.39005 0
M  V30 5939 C 545.572 -6.09912 2.71225 0
M  V30 5940 H 544.842 -0.734979 -0.0942703 0
M  V30 5941 H 547.489 -1.85714 0.467159 0
M  V30 5942 H 545.794 -3.64921 -1.42618 0
M  V30 5943 H 547.491 -3.85762 -1.09495 0
M  V30 5944 H 544.081 -4.27711 0.275973 0
M  V30 5945 H 548.265 -4.84507 1.07549 0
M  V30 5946 H 543.521 -5.7059 2.19628 0
M  V30 5947 H 547.695 -6.28748 2.99415 0
M  V30 5948 H 545.322 -6.71665 3.56047 0
M  V30 5949 N 546.897 -0.0685191 -1.57451 0
M  V30 5950 C 548.125 0.610462 -1.97689 0
M  V30 5951 C 548.54 1.63346 -0.946758 0
M  V30 5952 O 547.897 1.82377 0.0669868 0
M  V30 5953 C 547.948 1.28196 -3.38006 0
M  V30 5954 O 547.669 0.299906 -4.37072 0
M  V30 5955 C 549.17 2.04907 -3.931 0
M  V30 5956 H 546.39 0.165689 -0.650222 0
M  V30 5957 H 548.934 -0.139953 -2.04021 0
M  V30 5958 H 547.089 1.98348 -3.32771 0
M  V30 5959 H 547.503 0.78126 -5.18649 0
M  V30 5960 H 548.977 2.47287 -4.93511 0
M  V30 5961 H 549.454 2.9043 -3.29465 0
M  V30 5962 H 550.06 1.39629 -4.01726 0
M  V30 5963 N 548.375 1.56261 0.205012 0
M  V30 5964 C 549.622 1.8004 0.926927 0
M  V30 5965 C 549.95 0.640086 1.83666 0
M  V30 5966 O 549.205 -0.374702 1.92079 0
M  V30 5967 C 549.504 3.09722 1.78345 0
M  V30 5968 C 549.17 4.39082 1.02555 0
M  V30 5969 C 547.832 4.74226 0.816256 0
M  V30 5970 C 550.184 5.18877 0.491559 0
M  V30 5971 C 547.512 5.86668 0.0613287 0
M  V30 5972 C 549.864 6.32105 -0.250107 0
M  V30 5973 C 548.528 6.6584 -0.470508 0
M  V30 5974 H 547.798 0.658812 0.339187 0
M  V30 5975 H 550.445 1.90515 0.19395 0
M  V30 5976 H 548.75 2.9444 2.5848 0
M  V30 5977 H 550.447 3.25324 2.34446 0
M  V30 5978 H 547.037 4.11497 1.19868 0
M  V30 5979 H 551.221 4.92147 0.640684 0
M  V30 5980 H 546.477 6.11283 -0.119501 0
M  V30 5981 H 550.651 6.93157 -0.671307 0
M  V30 5982 H 548.278 7.5281 -1.05739 0
M  V30 5983 N 549.853 -0.472356 1.50355 0
M  V30 5984 C 550.785 -1.58795 1.65278 0
M  V30 5985 C 551.798 -1.53782 0.534313 0
M  V30 5986 O 552.987 -1.59193 0.807446 0
M  V30 5987 C 550.087 -2.97672 1.62001 0
M  V30 5988 C 549.26 -3.27568 2.89859 0
M  V30 5989 C 548.319 -4.45993 2.79242 0
M  V30 5990 O 547.345 -4.46364 3.53197 0
M  V30 5991 N 548.547 -5.47578 1.92713 0
M  V30 5992 H 551.312 -1.46411 2.61503 0
M  V30 5993 H 548.873 -0.660751 1.47803 0
M  V30 5994 H 550.865 -3.74862 1.52513 0
M  V30 5995 H 549.435 -3.03832 0.735159 0
M  V30 5996 H 548.655 -2.39003 3.13483 0
M  V30 5997 H 549.943 -3.44352 3.74565 0
M  V30 5998 H 549.341 -5.50099 1.31939 0
M  V30 5999 H 547.898 -6.23757 1.8913 0
M  V30 6000 N 551.331 -1.39911 -0.725443 0
M  V30 6001 C 552.278 -1.39393 -1.83952 0
M  V30 6002 C 553.248 -0.252249 -1.64173 0
M  V30 6003 O 554.433 -0.44882 -1.85446 0
M  V30 6004 C 551.573 -1.25262 -3.21564 0
M  V30 6005 C 550.686 -2.49054 -3.52982 0
M  V30 6006 C 549.821 -2.27439 -4.80047 0
M  V30 6007 C 548.86 -3.46857 -5.04338 0
M  V30 6008 N 547.997 -3.24499 -6.22611 0
M  V30 6009 H 552.837 -2.34622 -1.83729 0
M  V30 6010 H 550.374 -1.16537 -0.897636 0
M  V30 6011 H 552.332 -1.15077 -4.01015 0
M  V30 6012 H 550.962 -0.33657 -3.21041 0
M  V30 6013 H 550.014 -2.69805 -2.6816 0
M  V30 6014 H 551.326 -3.37973 -3.66846 0
M  V30 6015 H 550.48 -2.14551 -5.67497 0
M  V30 6016 H 549.219 -1.35929 -4.68374 0
M  V30 6017 H 548.224 -3.60232 -4.15346 0
M  V30 6018 H 549.449 -4.3928 -5.17889 0
M  V30 6019 H 547.395 -2.35663 -6.12208 0
M  V30 6020 H 547.312 -4.06978 -6.37106 0
M  V30 6021 H 548.58 -3.15325 -7.12875 0
M  V30 6022 N 552.809 0.956637 -1.25245 0
M  V30 6023 C 554.057 1.69764 -1.09657 0
M  V30 6024 C 554.378 1.91583 0.363464 0
M  V30 6025 O 553.648 1.50149 1.25825 0
M  V30 6026 H 552.228 0.629097 -0.402798 0
M  V30 6027 H 554.89 1.15026 -1.57337 0
M  V30 6028 H 553.986 2.67769 -1.60331 0
M  V30 6029 N 554.287 1.06798 1.15896 0
M  V30 6030 C 555.698 0.811355 1.68149 0
M  V30 6031 C 556.049 -0.664339 1.8461 0
M  V30 6032 O 555.174 -1.51485 1.54535 0
M  V30 6033 C 555.769 1.46624 3.05429 0
M  V30 6034 C 554.328 1.25726 3.54781 0
M  V30 6035 C 553.475 1.53949 2.3064 0
M  V30 6036 H 556.426 1.23078 1.00187 0
M  V30 6037 H 556.447 0.88437 3.7008 0
M  V30 6038 H 555.959 2.54025 2.93416 0
M  V30 6039 H 554.06 0.20322 3.72045 0
M  V30 6040 H 554.173 1.97354 4.36564 0
M  V30 6041 H 552.537 0.96025 2.35905 0
M  V30 6042 H 553.32 2.6252 2.2122 0
M  V30 6043 N 555.766 -1.3263 0.851289 0
M  V30 6044 C 557.012 -1.9766 0.453694 0
M  V30 6045 C 557.345 -1.67225 -0.987396 0
M  V30 6046 O 556.62 -0.958693 -1.69232 0
M  V30 6047 C 556.903 -3.5344 0.68936 0
M  V30 6048 C 556.756 -3.93517 2.17862 0
M  V30 6049 C 558.075 -4.39866 0.143555 0
M  V30 6050 H 555.194 -0.717989 0.166314 0
M  V30 6051 H 557.836 -1.57068 1.06909 0
M  V30 6052 H 555.986 -3.88147 0.165546 0
M  V30 6053 H 557.658 -3.69006 2.76826 0
M  V30 6054 H 555.901 -3.42798 2.65841 0
M  V30 6055 H 556.572 -5.02065 2.29422 0
M  V30 6056 H 559.048 -4.11875 0.591451 0
M  V30 6057 H 557.924 -5.47858 0.338043 0
M  V30 6058 H 558.185 -4.31696 -0.953466 0
M  V30 6059 N 557.244 -0.608902 -1.45362 0
M  V30 6060 C 558.521 -0.0365378 -1.95566 0
M  V30 6061 C 558.901 1.43169 -1.55131 0
M  V30 6062 O 558.249 2.1349 -0.814513 0
M  V30 6063 C 558.459 -0.236026 -3.48201 0
M  V30 6064 C 559.807 -0.117518 -4.24437 0
M  V30 6065 O 560.831 -0.166217 -3.55812 0
M  V30 6066 O 559.69 -0.00372127 -5.465 0
M  V30 6067 H 556.784 0.0349874 -0.82626 0
M  V30 6068 H 559.33 -0.679055 -1.55521 0
M  V30 6069 H 558.102 -1.25569 -3.70605 0
M  V30 6070 H 557.725 0.441691 -3.95139 0
M  V30 6071 N 558.722 1.53707 -0.348139 0
M  V30 6072 C 559.632 2.28881 0.514857 0
M  V30 6073 C 560.648 1.34168 1.10793 0
M  V30 6074 O 561.824 1.6721 1.12262 0
M  V30 6075 C 558.889 3.05042 1.64774 0
M  V30 6076 C 557.95 4.15389 1.08398 0
M  V30 6077 C 557.183 4.87909 2.16287 0
M  V30 6078 O 557.406 4.60137 3.3709 0
M  V30 6079 O 556.34 5.74254 1.80323 0
M  V30 6080 H 560.166 3.03547 -0.0963699 0
M  V30 6081 H 557.751 1.48972 -0.113043 0
M  V30 6082 H 559.633 3.52656 2.30677 0
M  V30 6083 H 558.308 2.33228 2.24469 0
M  V30 6084 H 557.215 3.72068 0.389341 0
M  V30 6085 H 558.548 4.89318 0.531829 0
M  V30 6086 N 560.2 0.0768682 1.57412 0
M  V30 6087 C 561.428 -0.59997 1.9801 0
M  V30 6088 C 561.843 -1.62842 0.955408 0
M  V30 6089 O 561.2 -1.8241 -0.057314 0
M  V30 6090 C 561.251 -1.26401 3.38681 0
M  V30 6091 O 560.972 -0.276723 4.37225 0
M  V30 6092 C 562.473 -2.0282 3.94182 0
M  V30 6093 H 559.693 -0.162239 0.651091 0
M  V30 6094 H 562.237 0.150771 2.03943 0
M  V30 6095 H 560.392 -1.96581 3.33819 0
M  V30 6096 H 560.806 -0.753744 5.19056 0
M  V30 6097 H 562.28 -2.44667 4.94815 0
M  V30 6098 H 562.757 -2.88678 3.31001 0
M  V30 6099 H 563.363 -1.37496 4.02461 0
M  V30 6100 N 561.678 -1.56367 -0.196722 0
M  V30 6101 C 562.926 -1.80172 -0.915554 0
M  V30 6102 C 563.247 -0.649649 -1.8386 0
M  V30 6103 O 562.517 0.332111 -1.93064 0
M  V30 6104 H 561.097 -0.664592 -0.341067 0
M  V30 6105 H 563.759 -1.93844 -0.202622 0
M  V30 6106 H 562.855 -2.7327 -1.50764 0
M  V30 6107 N 563.156 0.464375 -1.50603 0
M  V30 6108 C 564.402 1.21485 -1.63135 0
M  V30 6109 C 564.757 1.89538 -0.33063 0
M  V30 6110 O 564.05 1.79432 0.671903 0
M  V30 6111 C 564.244 2.278 -2.75394 0
M  V30 6112 C 564.073 1.70178 -4.16257 0
M  V30 6113 C 562.843 1.49854 -4.82568 0
M  V30 6114 C 565.041 1.19298 -5.00272 0
M  V30 6115 N 563.023 0.875458 -6.07626 0
M  V30 6116 C 564.394 0.693527 -6.16109 0
M  V30 6117 C 566.449 1.08216 -4.85998 0
M  V30 6118 C 565.152 0.0941808 -7.19238 0
M  V30 6119 C 567.178 0.496745 -5.8931 0
M  V30 6120 C 566.54 0.00770448 -7.044 0
M  V30 6121 H 562.639 0.433184 -0.651057 0
M  V30 6122 H 565.223 0.515748 -1.87745 0
M  V30 6123 H 563.394 2.95129 -2.52495 0
M  V30 6124 H 565.126 2.94814 -2.77249 0
M  V30 6125 H 561.881 1.75269 -4.39975 0
M  V30 6126 H 562.305 0.582135 -6.74493 0
M  V30 6127 H 566.947 1.44617 -3.97298 0
M  V30 6128 H 564.665 -0.28202 -8.07608 0
M  V30 6129 H 568.251 0.413275 -5.8033 0
M  V30 6130 H 567.131 -0.438188 -7.82975 0
M  V30 6131 N 564.634 1.40294 0.718013 0
M  V30 6132 C 565.88 1.38645 1.48005 0
M  V30 6133 C 566.213 -0.0121202 1.94196 0
M  V30 6134 O 565.488 -0.980309 1.67989 0
M  V30 6135 C 565.771 2.37379 2.70782 0
M  V30 6136 C 565.624 3.8625 2.30501 0
M  V30 6137 C 566.943 2.33685 3.72933 0
M  V30 6138 H 564.062 0.504928 0.536858 0
M  V30 6139 H 566.704 1.71411 0.819649 0
M  V30 6140 H 564.854 2.09568 3.27129 0
M  V30 6141 H 566.526 4.24879 1.79655 0
M  V30 6142 H 564.769 4.02202 1.6253 0
M  V30 6143 H 565.44 4.50847 3.18498 0
M  V30 6144 H 567.916 2.58314 3.2621 0
M  V30 6145 H 566.792 3.0482 4.56482 0
M  V30 6146 H 567.053 1.34765 4.21059 0
M  V30 6147 N 566.112 -0.949982 1.2575 0
M  V30 6148 C 567.361 -1.68956 1.10168 0
M  V30 6149 C 567.674 -1.92327 -0.356309 0
M  V30 6150 O 568.88 -2.64026 -0.632657 0
M  V30 6151 C 567.336 -3.04196 1.92336 0
M  V30 6152 C 566.944 -2.88603 3.42655 0
M  V30 6153 C 568.688 -3.81904 1.85336 0
M  V30 6154 C 566.595 -4.19262 4.17101 0
M  V30 6155 H 565.525 -0.633645 0.408668 0
M  V30 6156 H 568.176 -1.05719 1.49986 0
M  V30 6157 H 566.558 -3.68363 1.45344 0
M  V30 6158 H 567.732 -2.3334 3.97353 0
M  V30 6159 H 566.047 -2.24345 3.50796 0
M  V30 6160 H 568.644 -4.78688 2.38248 0
M  V30 6161 H 568.987 -4.08099 0.822226 0
M  V30 6162 H 569.52 -3.24495 2.30104 0
M  V30 6163 H 566.259 -3.98254 5.20648 0
M  V30 6164 H 565.779 -4.74273 3.67186 0
M  V30 6165 H 567.458 -4.87775 4.25071 0
M  V30 6166 N 567.59 -1.07411 -1.15328 0
M  V30 6167 C 568.537 -0.694995 -2.20087 0
M  V30 6168 C 569.507 0.313904 -1.63107 0
M  V30 6169 O 570.692 0.200216 -1.89747 0
M  V30 6170 C 567.832 -0.0996218 -3.44956 0
M  V30 6171 C 566.945 -1.16007 -4.16133 0
M  V30 6172 C 566.08 -0.529636 -5.28553 0
M  V30 6173 C 565.119 -1.57283 -5.91548 0
M  V30 6174 N 564.256 -0.964932 -6.95438 0
M  V30 6175 H 569.096 -1.5927 -2.51867 0
M  V30 6176 H 566.633 -0.796115 -1.23695 0
M  V30 6177 H 568.591 0.263197 -4.16369 0
M  V30 6178 H 567.221 0.761435 -3.13691 0
M  V30 6179 H 566.273 -1.64045 -3.4321 0
M  V30 6180 H 567.585 -1.95101 -4.59061 0
M  V30 6181 H 566.739 -0.114487 -6.06592 0
M  V30 6182 H 565.478 0.29307 -4.86819 0
M  V30 6183 H 564.483 -1.99775 -5.12221 0
M  V30 6184 H 565.708 -2.39783 -6.35359 0
M  V30 6185 H 563.654 -0.16314 -6.55797 0
M  V30 6186 H 563.571 -1.69311 -7.36797 0
M  V30 6187 H 564.839 -0.575305 -7.77374 0
M  V30 6188 N 569.068 1.32177 -0.85831 0
M  V30 6189 C 570.016 2.30729 -0.294442 0
M  V30 6190 C 571.01 1.59009 0.584165 0
M  V30 6191 O 572.216 1.73713 0.471562 0
M  V30 6192 H 568.591 0.748097 -0.0765171 0
M  V30 6193 H 570.562 2.75774 -1.1398 0
M  V30 6194 C 569.311 3.44098 0.499208 0
M  V30 6195 H 568.634 3.99449 -0.167579 0
M  V30 6196 H 570.074 4.15202 0.859273 0
M  V30 6197 C 568.533 2.91684 1.68588 0
M  V30 6198 O 569.063 2.89481 2.78503 0
M  V30 6199 N 567.269 2.48036 1.51415 0
M  V30 6200 H 566.816 2.50027 0.620006 0
M  V30 6201 H 566.774 2.13322 2.30957 0
M  V30 6202 N 570.547 0.616602 1.45037 0
M  V30 6203 C 571.793 0.115501 2.02471 0
M  V30 6204 C 572.126 -1.25406 1.4828 0
M  V30 6205 O 571.401 -1.82922 0.661051 0
M  V30 6206 C 571.684 0.0863588 3.59996 0
M  V30 6207 C 571.537 1.48723 4.24501 0
M  V30 6208 C 572.856 -0.596762 4.36035 0
M  V30 6209 H 569.975 0.0434461 0.735718 0
M  V30 6210 H 572.617 0.7903 1.72784 0
M  V30 6211 H 570.767 -0.488277 3.85419 0
M  V30 6212 H 572.439 2.10964 4.10234 0
M  V30 6213 H 570.682 2.04534 3.82555 0
M  V30 6214 H 571.353 1.419 5.3345 0
M  V30 6215 H 573.829 -0.10824 4.15959 0
M  V30 6216 H 572.705 -0.586289 5.4576 0
M  V30 6217 H 572.966 -1.66451 4.09569 0
M  V30 6218 N 572.025 -1.5352 0.356285 0
M  V30 6219 C 572.955 -2.28372 -0.486661 0
M  V30 6220 C 573.936 -1.30432 -1.09185 0
M  V30 6221 O 575.121 -1.59291 -1.11085 0
M  V30 6222 C 572.251 -3.06604 -1.63129 0
M  V30 6223 C 571.205 -4.12154 -1.15381 0
M  V30 6224 C 570.531 -4.78415 -2.38796 0
M  V30 6225 C 571.831 -5.21724 -0.245179 0
M  V30 6226 H 573.525 -2.99083 0.137797 0
M  V30 6227 H 571.071 -1.43841 0.0677134 0
M  V30 6228 H 573.024 -3.57712 -2.22755 0
M  V30 6229 H 571.748 -2.33568 -2.28284 0
M  V30 6230 H 570.407 -3.61978 -0.580294 0
M  V30 6231 H 570.055 -4.01959 -3.02387 0
M  V30 6232 H 569.755 -5.49734 -2.07524 0
M  V30 6233 H 571.279 -5.32313 -2.99125 0
M  V30 6234 H 572.693 -5.68391 -0.748646 0
M  V30 6235 H 571.09 -6.00095 -0.0237608 0
M  V30 6236 H 572.16 -4.79596 0.715229 0
M  V30 6237 N 573.503 -0.0852151 -1.57369 0
M  V30 6238 C 574.728 0.592872 -1.98746 0
M  V30 6239 C 575.153 1.61538 -0.963689 0
M  V30 6240 O 574.511 1.81168 0.069071 0
M  V30 6241 C 574.559 1.22599 -3.39119 0
M  V30 6242 O 573.663 2.34185 -3.39457 0
M  V30 6243 H 573.004 0.151314 -0.646529 0
M  V30 6244 H 575.534 -0.163703 -2.03944 0
M  V30 6245 H 575.544 1.56965 -3.76598 0
M  V30 6246 H 574.219 0.476831 -4.13158 0
M  V30 6247 H 572.796 2.01512 -3.13763 0
M  V30 6248 N 574.981 1.5647 0.188427 0
M  V30 6249 C 575.911 1.98101 1.23606 0
M  V30 6250 C 576.892 0.853961 1.47111 0
M  V30 6251 O 578.077 1.11879 1.58735 0
M  V30 6252 C 575.207 2.32624 2.57882 0
M  V30 6253 C 574.161 3.48129 2.48978 0
M  V30 6254 C 573.487 3.68347 3.87588 0
M  V30 6255 C 574.787 4.82112 2.00911 0
M  V30 6256 H 576.481 2.85864 0.890068 0
M  V30 6257 H 574.027 1.37532 0.426714 0
M  V30 6258 H 575.98 2.60343 3.3136 0
M  V30 6259 H 574.704 1.41751 2.94235 0
M  V30 6260 H 573.363 3.20511 1.77956 0
M  V30 6261 H 573.011 2.74793 4.21305 0
M  V30 6262 H 572.711 4.46055 3.82503 0
M  V30 6263 H 574.235 3.98449 4.62678 0
M  V30 6264 H 575.649 5.08819 2.64151 0
M  V30 6265 H 574.046 5.63337 2.06814 0
M  V30 6266 H 575.116 4.75249 0.96262 0
M  V30 6267 N 576.459 -0.456382 1.50847 0
M  V30 6268 C 577.87 -1.03685 1.55262 0
M  V30 6269 C 578.221 -1.92779 0.364771 0
M  V30 6270 O 577.346 -2.10043 -0.52068 0
M  V30 6271 C 577.941 -1.88718 2.81374 0
M  V30 6272 C 576.5 -2.41847 2.88422 0
M  V30 6273 C 575.647 -1.20564 2.49719 0
M  V30 6274 H 578.598 -0.238399 1.56899 0
M  V30 6275 H 578.619 -2.73957 2.6406 0
M  V30 6276 H 578.131 -1.23847 3.67809 0
M  V30 6277 H 576.232 -3.10228 2.06372 0
M  V30 6278 H 576.345 -2.75947 3.9165 0
M  V30 6279 H 574.709 -1.54504 2.02486 0
M  V30 6280 H 575.492 -0.573326 3.38479 0
M  V30 6281 N 577.937 -1.40673 -0.710563 0
M  V30 6282 C 579.186 -1.38525 -1.46607 0
M  V30 6283 C 579.499 0.0077024 -1.95598 0
M  V30 6284 O 580.705 0.151792 -2.71075 0
M  V30 6285 C 579.161 -2.43489 -2.6503 0
M  V30 6286 C 578.769 -3.88619 -2.22888 0
M  V30 6287 C 580.513 -2.50456 -3.42742 0
M  V30 6288 C 578.42 -4.85168 -3.3818 0
M  V30 6289 H 577.35 -0.515092 -0.550632 0
M  V30 6290 H 580.001 -1.66431 -0.772846 0
M  V30 6291 H 578.383 -2.0869 -3.36548 0
M  V30 6292 H 579.557 -4.32588 -1.58758 0
M  V30 6293 H 577.872 -3.85174 -1.58208 0
M  V30 6294 H 580.469 -3.19776 -4.28541 0
M  V30 6295 H 580.812 -1.53665 -3.86902 0
M  V30 6296 H 581.345 -2.84271 -2.78271 0
M  V30 6297 H 578.084 -5.8331 -2.99047 0
M  V30 6298 H 577.604 -4.4586 -4.01209 0
M  V30 6299 H 579.283 -5.05225 -4.04174 0
M  V30 6300 N 579.415 0.9433 -1.26252 0
M  V30 6301 C 580.661 1.69175 -1.11837 0
M  V30 6302 C 580.994 1.91238 0.337891 0
M  V30 6303 O 580.269 1.49152 1.24836 0
M  V30 6304 C 580.552 3.06783 -1.88563 0
M  V30 6305 C 580.405 2.9206 -3.42083 0
M  V30 6306 C 581.724 4.06865 -1.67776 0
M  V30 6307 H 578.843 0.61399 -0.407658 0
M  V30 6308 H 581.485 1.09572 -1.55222 0
M  V30 6309 H 579.635 3.57663 -1.51689 0
M  V30 6310 H 581.307 2.48419 -3.88698 0
M  V30 6311 H 579.55 2.27731 -3.69217 0
M  V30 6312 H 580.221 3.89651 -3.90994 0
M  V30 6313 H 582.697 3.64939 -1.99897 0
M  V30 6314 H 581.573 5.01168 -2.23879 0
M  V30 6315 H 581.834 4.37705 -0.621816 0
M  V30 6316 N 580.893 1.08022 1.14757 0
M  V30 6317 C 581.841 0.701088 2.21783 0
M  V30 6318 C 582.835 -0.291311 1.66876 0
M  V30 6319 O 584.041 -0.154296 1.79337 0
M  V30 6320 H 580.416 0.208668 0.722469 0
M  V30 6321 H 582.387 1.61321 2.51034 0
M  V30 6322 C 581.136 0.122278 3.47485 0
M  V30 6323 H 580.459 0.877065 3.90061 0
M  V30 6324 H 581.899 -0.105248 4.23869 0
M  V30 6325 C 580.358 -1.13883 3.17068 0
M  V30 6326 O 580.888 -2.22429 3.34497 0
M  V30 6327 N 579.094 -1.04767 2.71058 0
M  V30 6328 H 578.641 -0.164302 2.57075 0
M  V30 6329 H 578.599 -1.89224 2.51081 0
M  V30 6330 N 582.371 -1.3172 0.865308 0
M  V30 6331 C 583.318 -2.2863 0.315736 0
M  V30 6332 C 584.288 -1.55524 -0.583213 0
M  V30 6333 O 585.473 -1.83694 -0.51585 0
M  V30 6334 C 582.613 -3.41735 -0.480773 0
M  V30 6335 C 581.726 -4.297 0.445167 0
M  V30 6336 C 580.861 -5.29944 -0.365012 0
M  V30 6337 C 579.9 -6.09554 0.557651 0
M  V30 6338 N 579.037 -7.01768 -0.215994 0
M  V30 6339 H 583.877 -2.75026 1.14736 0
M  V30 6340 H 581.414 -1.35302 0.577209 0
M  V30 6341 H 583.372 -4.06045 -0.958306 0
M  V30 6342 H 582.002 -2.96461 -1.27714 0
M  V30 6343 H 581.054 -3.65875 1.04113 0
M  V30 6344 H 582.366 -4.85295 1.15284 0
M  V30 6345 H 581.52 -5.99908 -0.905255 0
M  V30 6346 H 580.259 -4.74994 -1.106 0
M  V30 6347 H 579.264 -5.38485 1.10969 0
M  V30 6348 H 580.489 -6.66591 1.29742 0
M  V30 6349 H 578.435 -6.49232 -0.939878 0
M  V30 6350 H 578.352 -7.54762 0.432431 0
M  V30 6351 H 579.62 -7.76002 -0.737618 0
M  V30 6352 N 583.85 -0.624285 -1.44708 0
M  V30 6353 C 584.797 0.0847135 -2.30644 0
M  V30 6354 C 585.767 0.843575 -1.43084 0
M  V30 6355 O 586.952 0.825982 -1.71995 0
M  V30 6356 C 584.091 1.06495 -3.28257 0
M  V30 6357 C 583.205 0.305224 -4.3092 0
M  V30 6358 C 582.34 1.27667 -5.1563 0
M  V30 6359 C 581.379 0.505706 -6.10007 0
M  V30 6360 N 580.516 1.42727 -6.8744 0
M  V30 6361 H 585.356 -0.654068 -2.90733 0
M  V30 6362 H 582.893 -0.334334 -1.4325 0
M  V30 6363 H 584.851 1.64658 -3.83332 0
M  V30 6364 H 583.481 1.77094 -2.69884 0
M  V30 6365 H 582.533 -0.392207 -3.78373 0
M  V30 6366 H 583.845 -0.295553 -4.97924 0
M  V30 6367 H 582.999 1.92984 -5.75189 0
M  V30 6368 H 581.738 1.91137 -4.48685 0
M  V30 6369 H 580.743 -0.160999 -5.49564 0
M  V30 6370 H 581.968 -0.124183 -6.78986 0
M  V30 6371 H 579.913 2.04931 -6.23169 0
M  V30 6372 H 579.831 0.880345 -7.50857 0
M  V30 6373 H 581.099 2.0695 -7.51526 0
M  V30 6374 N 585.328 1.53329 -0.364422 0
M  V30 6375 C 586.238 2.29414 0.490552 0
M  V30 6376 C 587.254 1.35335 1.09363 0
M  V30 6377 O 588.43 1.68391 1.10483 0
M  V30 6378 C 585.495 3.06772 1.61529 0
M  V30 6379 C 584.556 4.16516 1.03986 0
M  V30 6380 C 583.789 4.90176 2.111 0
M  V30 6381 O 584.012 4.63687 3.32191 0
M  V30 6382 O 582.946 5.76134 1.74222 0
M  V30 6383 H 586.772 3.03428 -0.12856 0
M  V30 6384 H 584.357 1.48843 -0.128837 0
M  V30 6385 H 586.239 3.55082 2.26924 0
M  V30 6386 H 584.914 2.35596 2.21983 0
M  V30 6387 H 583.821 3.7246 0.349856 0
M  V30 6388 H 585.154 4.89855 0.4799 0
M  V30 6389 N 586.806 0.0935595 1.57322 0
M  V30 6390 C 588.083 -0.612692 1.85756 0
M  V30 6391 C 588.463 -1.86439 0.99013 0
M  V30 6392 O 587.811 -2.28416 0.0621362 0
M  V30 6393 C 588.021 -0.929547 3.36393 0
M  V30 6394 C 589.369 -1.29366 4.04413 0
M  V30 6395 O 590.393 -1.02061 3.41265 0
M  V30 6396 O 589.252 -1.80498 5.15832 0
M  V30 6397 H 586.346 -0.306444 0.768128 0
M  V30 6398 H 588.892 0.126141 1.69231 0
M  V30 6399 H 587.664 -0.0414766 3.91278 0
M  V30 6400 H 587.287 -1.72441 3.5826 0
M  V30 6401 N 588.284 -1.56567 -0.180126 0
M  V30 6402 C 589.533 -1.80685 -0.896426 0
M  V30 6403 C 589.846 -0.669335 -1.83791 0
M  V30 6404 O 591.052 -0.795209 -2.59593 0
M  V30 6405 C 589.508 -3.20132 -1.6445 0
M  V30 6406 C 589.116 -4.41727 -0.747088 0
M  V30 6407 C 590.86 -3.53549 -2.34955 0
M  V30 6408 C 588.767 -5.72195 -1.49489 0
M  V30 6409 H 587.697 -0.673758 -0.338477 0
M  V30 6410 H 590.348 -1.8289 -0.149467 0
M  V30 6411 H 588.73 -3.12218 -2.43589 0
M  V30 6412 H 589.904 -4.608 0.00671129 0
M  V30 6413 H 588.219 -4.16122 -0.152134 0
M  V30 6414 H 590.816 -4.48267 -2.91481 0
M  V30 6415 H 591.159 -2.78006 -3.09868 0
M  V30 6416 H 591.692 -3.62976 -1.62768 0
M  V30 6417 H 588.431 -6.50743 -0.788251 0
M  V30 6418 H 587.951 -5.57115 -2.22224 0
M  V30 6419 H 589.63 -6.1384 -2.04472 0
M  V30 6420 N 589.762 0.448376 -1.51087 0
M  V30 6421 C 591.008 1.20049 -1.6345 0
M  V30 6422 C 591.341 1.91121 -0.344444 0
M  V30 6423 O 590.616 1.83125 0.655396 0
M  V30 6424 C 590.899 2.22624 -2.83038 0
M  V30 6425 C 590.752 1.55708 -4.21989 0
M  V30 6426 C 592.071 3.23718 -2.98152 0
M  V30 6427 H 589.19 0.435085 -0.59487 0
M  V30 6428 H 591.832 0.491183 -1.83541 0
M  V30 6429 H 589.982 2.83117 -2.66039 0
M  V30 6430 H 591.654 0.986367 -4.50631 0
M  V30 6431 H 589.897 0.859647 -4.25197 0
M  V30 6432 H 590.568 2.30357 -5.01637 0
M  V30 6433 H 593.044 2.73269 -3.13788 0
M  V30 6434 H 591.92 3.92795 -3.83411 0
M  V30 6435 H 592.181 3.89179 -2.09743 0
M  V30 6436 N 591.24 1.41047 0.703093 0
M  V30 6437 C 592.488 1.39723 1.4602 0
M  V30 6438 C 592.809 0.00461257 1.94999 0
M  V30 6439 O 592.079 -0.952292 1.71196 0
M  V30 6440 H 590.659 0.514281 0.541779 0
M  V30 6441 H 593.321 1.76217 0.832678 0
M  V30 6442 H 592.417 2.07982 2.32701 0
M  V30 6443 N 592.718 -0.936591 1.26751 0
M  V30 6444 C 593.964 -1.6858 1.12733 0
M  V30 6445 C 594.297 -1.91414 -0.327745 0
M  V30 6446 O 593.572 -1.49812 -1.24043 0
M  V30 6447 C 593.855 -3.05779 1.90187 0
M  V30 6448 C 593.708 -2.90242 3.43627 0
M  V30 6449 C 595.027 -4.0597 1.69931 0
M  V30 6450 H 592.146 -0.61182 0.410908 0
M  V30 6451 H 594.788 -1.08747 1.55801 0
M  V30 6452 H 592.938 -3.56853 1.53584 0
M  V30 6453 H 594.61 -2.46354 3.9001 0
M  V30 6454 H 592.853 -2.2577 3.70419 0
M  V30 6455 H 593.524 -3.87572 3.93055 0
M  V30 6456 H 596 -3.63874 2.0183 0
M  V30 6457 H 594.876 -4.99974 2.26534 0
M  V30 6458 H 595.137 -4.37369 0.64502 0
M  V30 6459 N 594.196 -1.08629 -1.14182 0
M  V30 6460 C 595.159 -0.722027 -2.1753 0
M  V30 6461 C 596.159 0.244305 -1.58933 0
M  V30 6462 O 597.349 0.0235545 -1.74184 0
M  V30 6463 C 594.481 -0.0663966 -3.40835 0
M  V30 6464 H 595.674 -1.63719 -2.51269 0
M  V30 6465 H 593.227 -0.884442 -1.28869 0
M  V30 6466 H 593.962 0.860389 -3.12678 0
M  V30 6467 H 593.747 -0.761598 -3.84632 0
M  V30 6468 H 595.237 0.173346 -4.1724 0
M  V30 6469 N 595.674 1.31259 -0.872281 0
M  V30 6470 C 596.902 2.00795 -0.498907 0
M  V30 6471 C 597.317 1.65464 0.909238 0
M  V30 6472 O 596.674 0.885073 1.59602 0
M  V30 6473 C 596.725 3.55625 -0.649092 0
M  V30 6474 O 596.446 3.89692 -2.00179 0
M  V30 6475 C 597.947 4.42434 -0.277034 0
M  V30 6476 H 595.167 0.642299 -0.194145 0
M  V30 6477 H 597.711 1.67438 -1.17408 0
M  V30 6478 H 595.866 3.87394 -0.0214402 0
M  V30 6479 H 596.28 4.84407 -2.01122 0
M  V30 6480 H 597.754 5.50299 -0.433064 0
M  V30 6481 H 598.231 4.32146 0.783989 0
M  V30 6482 H 598.837 4.16086 -0.880483 0
M  V30 6483 N 597.152 0.631951 1.44375 0
M  V30 6484 C 598.399 0.136767 2.02038 0
M  V30 6485 C 598.727 -1.24168 1.49709 0
M  V30 6486 O 597.982 -1.83809 0.671763 0
M  V30 6487 C 598.281 0.0735861 3.57324 0
M  V30 6488 C 597.947 1.39092 4.28911 0
M  V30 6489 C 596.609 1.75171 4.48184 0
M  V30 6490 C 598.961 2.26042 4.69632 0
M  V30 6491 C 596.289 2.97907 5.05439 0
M  V30 6492 C 598.641 3.4805 5.28246 0
M  V30 6493 C 597.305 3.84351 5.45738 0
M  V30 6494 H 596.575 0.0500466 0.739308 0
M  V30 6495 H 599.222 0.818429 1.7313 0
M  V30 6496 H 597.527 -0.691449 3.8565 0
M  V30 6497 H 599.224 -0.326091 3.99672 0
M  V30 6498 H 595.814 1.10015 4.1424 0
M  V30 6499 H 599.998 1.99463 4.54454 0
M  V30 6500 H 595.254 3.26108 5.17169 0
M  V30 6501 H 599.428 4.15658 5.5875 0
M  V30 6502 H 597.055 4.79538 5.8987 0
M  V30 6503 N 598.631 -1.53133 0.372548 0
M  V30 6504 C 599.861 -2.05476 -0.215202 0
M  V30 6505 C 600.269 -1.24534 -1.42436 0
M  V30 6506 O 599.612 -0.280771 -1.81542 0
M  V30 6507 C 599.674 -3.53276 -0.666068 0
M  V30 6508 C 599.338 -4.54998 0.427342 0
M  V30 6509 C 600.335 -5.03911 1.27944 0
M  V30 6510 C 598.02 -4.98828 0.589579 0
M  V30 6511 C 600.014 -5.95263 2.27905 0
M  V30 6512 C 597.701 -5.89984 1.59255 0
M  V30 6513 C 598.699 -6.38093 2.43571 0
M  V30 6514 O 598.387 -7.27451 3.42156 0
M  V30 6515 H 598.119 -0.67481 -0.040099 0
M  V30 6516 H 600.673 -1.98409 0.531312 0
M  V30 6517 H 598.903 -3.57904 -1.4643 0
M  V30 6518 H 600.592 -3.88442 -1.1776 0
M  V30 6519 H 601.358 -4.70792 1.16532 0
M  V30 6520 H 597.237 -4.60965 -0.0569456 0
M  V30 6521 H 600.781 -6.32736 2.93753 0
M  V30 6522 H 596.678 -6.22518 1.70711 0
M  V30 6523 H 597.446 -7.45467 3.37967 0
M  V30 6524 N 600.109 -0.101901 -1.5727 0
M  V30 6525 C 601.057 0.872034 -2.15635 0
M  V30 6526 C 602.051 1.28742 -1.10099 0
M  V30 6527 O 603.257 1.26116 -1.28432 0
M  V30 6528 H 599.632 0.299269 -0.689886 0
M  V30 6529 H 601.603 0.355137 -2.96279 0
M  V30 6530 C 600.352 2.11886 -2.7568 0
M  V30 6531 H 599.675 1.80813 -3.56576 0
M  V30 6532 H 601.115 2.78077 -3.20077 0
M  V30 6533 C 599.574 2.89739 -1.7191 0
M  V30 6534 O 600.104 3.84522 -1.16213 0
M  V30 6535 N 598.31 2.53407 -1.42245 0
M  V30 6536 H 597.857 1.76398 -1.87727 0
M  V30 6537 H 597.815 3.05795 -0.730529 0
M  V30 6538 N 601.587 1.56661 0.17182 0
M  V30 6539 C 603.003 1.50768 0.52357 0
M  V30 6540 C 603.203 0.806072 1.84675 0
M  V30 6541 O 602.259 0.366233 2.4983 0
M  V30 6542 C 603.572 2.955 0.556793 0
M  V30 6543 C 605.12 3.06303 0.644029 0
M  V30 6544 C 605.595 4.52492 0.708148 0
M  V30 6545 N 607.086 4.56737 0.771051 0
M  V30 6546 C 607.821 5.67196 0.841229 0
M  V30 6547 N 607.317 6.87287 0.872272 0
M  V30 6548 N 609.11 5.55165 0.88021 0
M  V30 6549 H 601.261 2.00679 -0.695817 0
M  V30 6550 H 603.524 0.914219 -0.250814 0
M  V30 6551 H 603.23 3.49986 -0.346774 0
M  V30 6552 H 603.104 3.50119 1.40346 0
M  V30 6553 H 605.491 2.51851 1.53802 0
M  V30 6554 H 605.572 2.5477 -0.229297 0
M  V30 6555 H 605.216 5.07575 -0.181585 0
M  V30 6556 H 605.146 5.01781 1.59761 0
M  V30 6557 H 607.637 3.70274 0.755364 0
M  V30 6558 H 607.95 7.6722 0.92698 0
M  V30 6559 H 606.295 6.89898 0.840557 0
M  V30 6560 H 609.486 4.60263 0.852956 0
M  V30 6561 H 609.659 6.41271 0.931439 0
M  V30 6562 N 603.065 -0.440357 1.51323 0
M  V30 6563 C 604.012 -1.53429 1.72419 0
M  V30 6564 C 604.982 -1.56165 0.565826 0
M  V30 6565 O 606.167 -1.73222 0.799917 0
M  V30 6566 C 603.307 -2.91169 1.85242 0
M  V30 6567 C 602.42 -2.97985 3.12777 0
M  V30 6568 C 601.555 -4.26829 3.16212 0
M  V30 6569 C 600.594 -4.27501 4.38074 0
M  V30 6570 N 599.731 -5.47866 4.39076 0
M  V30 6571 H 604.571 -1.34743 2.65797 0
M  V30 6572 H 602.108 -0.654608 1.31732 0
M  V30 6573 H 604.066 -3.71087 1.90658 0
M  V30 6574 H 602.696 -3.0842 0.952744 0
M  V30 6575 H 601.748 -2.10749 3.16685 0
M  V30 6576 H 603.06 -2.94342 4.02696 0
M  V30 6577 H 602.214 -5.15118 3.20527 0
M  V30 6578 H 600.953 -4.33124 2.24176 0
M  V30 6579 H 599.958 -3.37606 4.33938 0
M  V30 6580 H 601.183 -4.22873 5.31371 0
M  V30 6581 H 599.129 -5.54887 3.49909 0
M  V30 6582 H 599.046 -5.46091 5.22801 0
M  V30 6583 H 600.314 -6.38195 4.4758 0
M  V30 6584 N 604.543 -1.41418 -0.695603 0
M  V30 6585 C 605.82 -1.31264 -1.45014 0
M  V30 6586 C 606.2 0.0597994 -2.11015 0
M  V30 6587 O 605.548 1.07403 -2.01685 0
M  V30 6588 C 605.758 -2.466 -2.4696 0
M  V30 6589 C 607.106 -2.87763 -3.12214 0
M  V30 6590 O 608.13 -2.46339 -2.57285 0
M  V30 6591 O 606.989 -3.59395 -4.11701 0
M  V30 6592 H 604.083 -0.516576 -0.645816 0
M  V30 6593 H 606.629 -1.53382 -0.726084 0
M  V30 6594 H 605.401 -3.38183 -1.96845 0
M  V30 6595 H 605.024 -2.26358 -3.26876 0
M  V30 6596 N 606.021 0.929856 -1.27246 0
M  V30 6597 C 607.269 1.674 -1.13233 0
M  V30 6598 C 607.59 1.92311 0.322744 0
M  V30 6599 O 606.86 1.52784 1.22612 0
M  V30 6600 H 605.44 0.620411 -0.416052 0
M  V30 6601 H 608.102 1.11663 -1.59741 0
M  V30 6602 H 607.198 2.64308 -1.65975 0
M  V30 6603 N 607.499 1.09233 1.13605 0
M  V30 6604 C 608.446 0.729921 2.18954 0
M  V30 6605 C 609.416 -0.287916 1.63586 0
M  V30 6606 O 610.601 -0.170003 1.90041 0
M  V30 6607 C 607.741 0.154489 3.44754 0
M  V30 6608 C 606.854 1.22613 4.14234 0
M  V30 6609 C 605.989 0.613657 5.27644 0
M  V30 6610 C 605.028 1.66674 5.8897 0
M  V30 6611 N 604.165 1.07545 6.93814 0
M  V30 6612 H 609.005 1.63257 2.49302 0
M  V30 6613 H 606.542 0.815693 1.22413 0
M  V30 6614 H 608.5 -0.196923 4.16735 0
M  V30 6615 H 607.13 -0.711433 3.14863 0
M  V30 6616 H 606.182 1.69485 3.40557 0
M  V30 6617 H 607.494 2.0238 4.55899 0
M  V30 6618 H 606.648 0.210976 6.06333 0
M  V30 6619 H 605.387 -0.215584 4.87223 0
M  V30 6620 H 604.392 2.07899 5.08978 0
M  V30 6621 H 605.617 2.49861 6.31464 0
M  V30 6622 H 603.563 0.267451 6.55455 0
M  V30 6623 H 603.48 1.81011 7.3401 0
M  V30 6624 H 604.748 0.698906 7.7636 0
M  V30 6625 N 608.977 -1.30795 0.87923 0
M  V30 6626 C 610.388 -1.78535 0.546093 0
M  V30 6627 C 610.739 -1.72354 -0.937467 0
M  V30 6628 O 609.864 -1.2969 -1.73233 0
M  V30 6629 C 610.459 -3.24181 0.9845 0
M  V30 6630 C 609.018 -3.69779 0.702871 0
M  V30 6631 C 608.165 -2.51377 1.17068 0
M  V30 6632 H 611.116 -1.17746 1.06403 0
M  V30 6633 H 611.137 -3.79227 0.311045 0
M  V30 6634 H 610.649 -3.28647 2.06429 0
M  V30 6635 H 608.75 -3.70806 -0.365166 0
M  V30 6636 H 608.863 -4.61507 1.28639 0
M  V30 6637 H 607.227 -2.47768 0.590172 0
M  V30 6638 H 608.01 -2.58584 2.25808 0
M  V30 6639 N 610.455 -0.639598 -1.44038 0
M  V30 6640 C 611.702 -0.14748 -2.01962 0
M  V30 6641 C 612.03 1.23372 -1.50365 0
M  V30 6642 O 611.285 1.8345 -0.681501 0
M  V30 6643 C 611.584 -0.0925348 -3.5728 0
M  V30 6644 C 611.25 -1.41365 -4.28167 0
M  V30 6645 C 609.912 -1.77545 -4.47248 0
M  V30 6646 C 612.264 -2.2853 -4.68427 0
M  V30 6647 C 609.592 -3.00583 -5.03852 0
M  V30 6648 C 611.944 -3.50846 -5.26393 0
M  V30 6649 C 610.608 -3.8724 -5.43692 0
M  V30 6650 H 609.878 -0.0539666 -0.739032 0
M  V30 6651 H 612.525 -0.827599 -1.72694 0
M  V30 6652 H 610.83 0.670987 -3.86012 0
M  V30 6653 H 612.527 0.304891 -3.99839 0
M  V30 6654 H 609.117 -1.1221 -4.13651 0
M  V30 6655 H 613.301 -2.0187 -4.5339 0
M  V30 6656 H 608.557 -3.28846 -5.15432 0
M  V30 6657 H 612.731 -4.18616 -5.56537 0
M  V30 6658 H 610.358 -4.8266 -5.87319 0
M  V30 6659 N 611.933 1.52934 -0.380664 0
M  V30 6660 C 613.21 1.93845 0.261417 0
M  V30 6661 C 613.59 1.31544 1.65104 0
M  V30 6662 O 612.938 0.480234 2.23397 0
M  V30 6663 C 613.148 3.47739 0.296466 0
M  V30 6664 C 614.496 4.21284 0.529578 0
M  V30 6665 O 615.52 3.54199 0.377041 0
M  V30 6666 O 614.379 5.40195 0.827753 0
M  V30 6667 H 611.473 0.811318 0.160285 0
M  V30 6668 H 614.019 1.64042 -0.434544 0
M  V30 6669 H 612.791 3.85395 -0.67724 0
M  V30 6670 H 612.414 3.8382 1.0377 0
M  V30 6671 N 613.412 0.11024 1.57214 0
M  V30 6672 C 614.322 -0.857077 2.18383 0
M  V30 6673 C 615.338 -1.29915 1.1575 0
M  V30 6674 O 616.514 -1.36394 1.48184 0
M  V30 6675 C 613.579 -2.09264 2.76423 0
M  V30 6676 C 612.64 -1.70333 3.94063 0
M  V30 6677 C 611.873 -2.87999 4.49324 0
M  V30 6678 O 612.096 -4.0317 4.03497 0
M  V30 6679 O 611.03 -2.6559 5.40135 0
M  V30 6680 H 614.856 -0.366561 3.0148 0
M  V30 6681 H 612.441 -0.114914 1.48957 0
M  V30 6682 H 614.323 -2.81644 3.13456 0
M  V30 6683 H 612.998 -2.57339 1.96363 0
M  V30 6684 H 611.905 -0.950864 3.61814 0
M  V30 6685 H 613.238 -1.27007 4.75531 0
M  V30 6686 N 614.89 -1.56749 -0.16351 0
M  V30 6687 C 615.84 -1.93424 -1.20712 0
M  V30 6688 C 616.824 -0.803469 -1.39403 0
M  V30 6689 O 618.016 -1.06675 -1.41243 0
M  V30 6690 C 615.145 -2.30431 -2.54473 0
M  V30 6691 C 614.231 -3.5004 -2.39443 0
M  V30 6692 N 614.622 -4.67058 -1.9414 0
M  V30 6693 C 612.92 -3.548 -2.70246 0
M  V30 6694 C 613.621 -5.49184 -1.9176 0
M  V30 6695 N 612.597 -4.9044 -2.34457 0
M  V30 6696 H 616.399 -2.8138 -0.848681 0
M  V30 6697 H 613.913 -1.58089 -0.371717 0
M  V30 6698 H 615.91 -2.54903 -3.29894 0
M  V30 6699 H 614.57 -1.43818 -2.91112 0
M  V30 6700 H 615.581 -4.91128 -1.64357 0
M  V30 6701 H 612.258 -2.78685 -3.10871 0
M  V30 6702 H 613.648 -6.5297 -1.58366 0
M  V30 6703 N 616.368 0.432326 -1.51554 0
M  V30 6704 C 617.645 1.19288 -1.55015 0
M  V30 6705 C 618.025 2.08701 -0.317375 0
M  V30 6706 O 617.373 2.17602 0.697243 0
M  V30 6707 C 617.583 1.99037 -2.86679 0
M  V30 6708 C 618.931 2.55907 -3.38817 0
M  V30 6709 O 619.955 2.09243 -2.88263 0
M  V30 6710 O 618.814 3.41029 -4.27038 0
M  V30 6711 H 615.908 0.543369 -0.623441 0
M  V30 6712 H 618.454 0.440988 -1.6387 0
M  V30 6713 H 617.226 1.33397 -3.6786 0
M  V30 6714 H 616.849 2.81281 -2.8101 0
M  V30 6715 N 617.846 1.41785 0.688094 0
M  V30 6716 C 618.756 1.46596 1.83158 0
M  V30 6717 C 619.772 0.355862 1.70322 0
M  V30 6718 O 620.948 0.604737 1.92106 0
M  V30 6719 C 618.013 1.35322 3.192 0
M  V30 6720 C 617.074 2.56711 3.4409 0
M  V30 6721 C 616.307 2.45965 4.73642 0
M  V30 6722 O 616.53 1.48827 5.50642 0
M  V30 6723 O 615.464 3.35859 4.99482 0
M  V30 6724 H 619.29 2.43083 1.82056 0
M  V30 6725 H 616.875 1.23404 0.842126 0
M  V30 6726 H 618.757 1.31347 4.00407 0
M  V30 6727 H 617.432 0.419536 3.2097 0
M  V30 6728 H 616.339 2.66262 2.62784 0
M  V30 6729 H 617.672 3.48933 3.47141 0
M  V30 6730 N 619.324 -0.923095 1.27737 0
M  V30 6731 C 620.554 -1.70277 1.17001 0
M  V30 6732 C 620.962 -1.87188 -0.275199 0
M  V30 6733 O 620.305 -1.39195 -1.19877 0
M  V30 6734 C 620.367 -3.11976 1.78637 0
M  V30 6735 C 620.031 -3.18386 3.27841 0
M  V30 6736 C 621.028 -3.00287 4.2441 0
M  V30 6737 C 618.713 -3.41198 3.68632 0
M  V30 6738 C 620.707 -3.04896 5.59747 0
M  V30 6739 C 618.394 -3.4544 5.04097 0
M  V30 6740 C 619.392 -3.27309 5.99465 0
M  V30 6741 O 619.08 -3.31295 7.32461 0
M  V30 6742 H 618.812 -0.539366 0.407505 0
M  V30 6743 H 621.366 -1.16446 1.69202 0
M  V30 6744 H 619.596 -3.67308 1.20919 0
M  V30 6745 H 621.285 -3.7193 1.6255 0
M  V30 6746 H 622.051 -2.825 3.94232 0
M  V30 6747 H 617.93 -3.54359 2.94873 0
M  V30 6748 H 621.474 -2.90662 6.34162 0
M  V30 6749 H 617.371 -3.62753 5.33929 0
M  V30 6750 H 618.139 -3.47719 7.40968 0
M  V30 6751 N 620.802 -1.09834 -1.13024 0
M  V30 6752 C 622.051 -0.831806 -1.83749 0
M  V30 6753 C 622.364 0.644763 -1.84668 0
M  V30 6754 O 623.57 1.02697 -2.51327 0
M  V30 6755 C 622.026 -1.43817 -3.29916 0
M  V30 6756 C 621.634 -2.94759 -3.37374 0
M  V30 6757 C 623.378 -1.25077 -4.05655 0
M  V30 6758 C 621.285 -3.48461 -4.77838 0
M  V30 6759 H 620.215 -0.30751 -0.688443 0
M  V30 6760 H 622.866 -1.32156 -1.27307 0
M  V30 6761 H 621.248 -0.876106 -3.86187 0
M  V30 6762 H 622.422 -3.57228 -2.91076 0
M  V30 6763 H 620.737 -3.12581 -2.75103 0
M  V30 6764 H 623.334 -1.62649 -5.09362 0
M  V30 6765 H 623.677 -0.191782 -4.15858 0
M  V30 6766 H 624.21 -1.78057 -3.55725 0
M  V30 6767 H 620.949 -4.53998 -4.72828 0
M  V30 6768 H 620.469 -2.90757 -5.24615 0
M  V30 6769 H 622.148 -3.45914 -5.46766 0
M  V30 6770 N 622.28 1.30327 -0.886154 0
M  V30 6771 C 623.508 2.00254 -0.520176 0
M  V30 6772 C 623.923 1.66419 0.891637 0
M  V30 6773 O 623.28 0.901951 1.58654 0
M  V30 6774 C 623.331 3.54916 -0.686775 0
M  V30 6775 O 623.052 3.87547 -2.04301 0
M  V30 6776 C 624.553 4.42115 -0.323945 0
M  V30 6777 H 621.773 0.640204 -0.200947 0
M  V30 6778 H 624.317 1.66183 -1.19178 0
M  V30 6779 H 622.472 3.8735 -0.0625273 0
M  V30 6780 H 622.886 4.82247 -2.06249 0
M  V30 6781 H 624.36 5.49808 -0.491407 0
M  V30 6782 H 624.837 4.32953 0.73811 0
M  V30 6783 H 625.443 4.15129 -0.924565 0
M  V30 6784 N 623.758 0.647228 1.43697 0
M  V30 6785 C 624.668 -0.0487997 2.34549 0
M  V30 6786 C 625.684 -0.818586 1.53542 0
M  V30 6787 O 626.86 -0.767195 1.86215 0
M  V30 6788 C 623.925 -1.00734 3.31743 0
M  V30 6789 C 622.986 -0.23515 4.28655 0
M  V30 6790 C 622.219 -1.14803 5.21206 0
M  V30 6791 O 622.442 -2.38717 5.18045 0
M  V30 6792 O 621.376 -0.623667 5.9866 0
M  V30 6793 H 625.202 0.698863 2.9555 0
M  V30 6794 H 622.787 0.407412 1.43738 0
M  V30 6795 H 624.669 -1.55837 3.91526 0
M  V30 6796 H 623.344 -1.73534 2.73254 0
M  V30 6797 H 622.251 0.359319 3.7237 0
M  V30 6798 H 623.584 0.453152 4.9011 0
M  V30 6799 N 625.236 -1.5273 0.388769 0
M  V30 6800 C 626.464 -2.05992 -0.193677 0
M  V30 6801 C 626.879 -1.26053 -1.40557 0
M  V30 6802 O 626.236 -0.307049 -1.79898 0
M  V30 6803 C 626.287 -3.57068 -0.564321 0
M  V30 6804 O 626.008 -4.3398 0.599422 0
M  V30 6805 C 627.509 -4.26674 -1.20269 0
M  V30 6806 H 624.729 -0.670358 -0.0293445 0
M  V30 6807 H 627.273 -1.96857 0.553844 0
M  V30 6808 H 625.428 -3.66277 -1.26174 0
M  V30 6809 H 625.842 -5.2367 0.294895 0
M  V30 6810 H 627.316 -5.33625 -1.4124 0
M  V30 6811 H 627.793 -3.81854 -2.16989 0
M  V30 6812 H 628.399 -4.2178 -0.546047 0
M  V30 6813 N 626.714 -0.118576 -1.57153 0
M  V30 6814 C 627.644 0.828436 -2.1831 0
M  V30 6815 C 628.625 1.27758 -1.12303 0
M  V30 6816 O 629.81 1.34026 -1.40537 0
M  V30 6817 C 626.94 2.07876 -2.78217 0
M  V30 6818 C 625.894 1.76742 -3.89803 0
M  V30 6819 C 625.22 3.08801 -4.36516 0
M  V30 6820 C 626.52 1.03606 -5.11921 0
M  V30 6821 H 628.214 0.318824 -2.97698 0
M  V30 6822 H 625.76 0.151911 -1.43196 0
M  V30 6823 H 627.713 2.74584 -3.19659 0
M  V30 6824 H 626.437 2.61161 -1.96118 0
M  V30 6825 H 625.096 1.12424 -3.48936 0
M  V30 6826 H 624.744 3.6002 -3.51276 0
M  V30 6827 H 624.444 2.88743 -5.11763 0
M  V30 6828 H 625.968 3.76627 -4.80608 0
M  V30 6829 H 627.382 1.60467 -5.50385 0
M  V30 6830 H 625.779 0.936454 -5.92748 0
M  V30 6831 H 626.849 0.0227421 -4.84895 0
M  V30 6832 N 628.193 1.56834 0.155195 0
M  V30 6833 C 629.421 1.87049 0.884326 0
M  V30 6834 C 629.836 0.705839 1.7511 0
M  V30 6835 O 629.193 -0.324641 1.79589 0
M  V30 6836 C 629.244 3.1644 1.74781 0
M  V30 6837 O 628.965 4.28417 0.915978 0
M  V30 6838 C 630.466 3.60113 2.58522 0
M  V30 6839 H 627.686 0.620196 0.25612 0
M  V30 6840 H 630.23 2.03946 0.150445 0
M  V30 6841 H 628.385 3.01321 2.43484 0
M  V30 6842 H 628.799 5.02353 1.50803 0
M  V30 6843 H 630.273 4.53508 3.14698 0
M  V30 6844 H 630.75 2.85005 3.34169 0
M  V30 6845 H 631.356 3.77898 1.95124 0
M  V30 6846 N 629.671 -0.424282 1.51781 0
M  V30 6847 C 630.603 -1.53457 1.70246 0
M  V30 6848 C 631.616 -1.52004 0.582967 0
M  V30 6849 O 632.805 -1.56544 0.857683 0
M  V30 6850 C 629.905 -2.92368 1.71389 0
M  V30 6851 C 629.078 -3.1818 3.00133 0
M  V30 6852 C 628.137 -4.36884 2.9329 0
M  V30 6853 O 627.163 -4.34901 3.67219 0
M  V30 6854 N 628.365 -5.4117 2.10036 0
M  V30 6855 H 631.13 -1.38017 2.66029 0
M  V30 6856 H 628.691 -0.613394 1.4983 0
M  V30 6857 H 630.683 -3.6982 1.64362 0
M  V30 6858 H 629.253 -3.0134 0.831449 0
M  V30 6859 H 628.473 -2.28908 3.20928 0
M  V30 6860 H 629.761 -3.32261 3.85331 0
M  V30 6861 H 629.159 -5.45623 1.49373 0
M  V30 6862 H 627.716 -6.17425 2.08878 0
M  V30 6863 N 631.149 -1.42148 -0.680565 0
M  V30 6864 C 632.396 -1.4231 -1.44063 0
M  V30 6865 C 632.724 -0.037488 -1.94464 0
M  V30 6866 O 631.979 0.953184 -1.70918 0
M  V30 6867 C 632.278 -2.38945 -2.65782 0
M  V30 6868 C 631.944 -3.85455 -2.33956 0
M  V30 6869 C 630.606 -4.25364 -2.24987 0
M  V30 6870 C 632.958 -4.77895 -2.08004 0
M  V30 6871 C 630.286 -5.55701 -1.88184 0
M  V30 6872 C 632.638 -6.08568 -1.72706 0
M  V30 6873 C 631.302 -6.47482 -1.62244 0
M  V30 6874 H 630.572 -0.520748 -0.527164 0
M  V30 6875 H 633.219 -1.7505 -0.776524 0
M  V30 6876 H 631.524 -1.99511 -3.37198 0
M  V30 6877 H 633.221 -2.36336 -3.23954 0
M  V30 6878 H 629.811 -3.53855 -2.41836 0
M  V30 6879 H 633.995 -4.47854 -2.1387 0
M  V30 6880 H 629.251 -5.84718 -1.78648 0
M  V30 6881 H 633.425 -6.79688 -1.5165 0
M  V30 6882 H 631.052 -7.48387 -1.33496 0
M  V30 6883 N 632.627 0.916307 -1.28225 0
M  V30 6884 C 633.557 2.0352 -1.14464 0
M  V30 6885 C 634.538 1.70045 -0.0430844 0
M  V30 6886 O 635.723 1.92954 -0.219619 0
M  V30 6887 C 632.853 3.37889 -0.803027 0
M  V30 6888 C 631.807 3.85516 -1.85908 0
M  V30 6889 C 631.133 5.1682 -1.37116 0
M  V30 6890 C 632.433 4.07655 -3.26519 0
M  V30 6891 H 634.127 2.1529 -2.08064 0
M  V30 6892 H 631.673 1.03446 -1.00174 0
M  V30 6893 H 633.626 4.15654 -0.693537 0
M  V30 6894 H 632.35 3.26164 0.168674 0
M  V30 6895 H 631.009 3.09953 -1.95767 0
M  V30 6896 H 630.657 5.01497 -0.38859 0
M  V30 6897 H 630.357 5.49657 -2.07728 0
M  V30 6898 H 631.881 5.97143 -1.27484 0
M  V30 6899 H 633.295 4.75953 -3.19596 0
M  V30 6900 H 631.692 4.51818 -3.94943 0
M  V30 6901 H 632.762 3.12553 -3.70727 0
M  V30 6902 N 634.105 1.10431 1.1244 0
M  V30 6903 C 635.353 0.845045 1.83585 0
M  V30 6904 C 635.674 -0.631168 1.84503 0
M  V30 6905 O 634.944 -1.45825 1.30813 0
M  V30 6906 H 633.524 0.309628 0.679809 0
M  V30 6907 H 636.186 1.39458 1.36153 0
M  V30 6908 H 635.282 1.20786 2.8778 0
M  V30 6909 N 635.583 -1.29855 0.893053 0
M  V30 6910 C 636.829 -1.96488 0.52574 0
M  V30 6911 C 637.184 -1.69164 -0.916594 0
M  V30 6912 O 636.477 -0.990405 -1.64017 0
M  V30 6913 C 636.671 -3.49515 0.746588 0
M  V30 6914 C 636.5 -3.91715 2.20884 0
M  V30 6915 C 635.27 -4.16915 2.85499 0
M  V30 6916 C 637.468 -4.03934 3.18342 0
M  V30 6917 N 635.45 -4.45634 4.22236 0
M  V30 6918 C 636.821 -4.36629 4.40176 0
M  V30 6919 C 638.876 -3.86387 3.14021 0
M  V30 6920 C 637.579 -4.53605 5.58243 0
M  V30 6921 C 639.605 -4.04569 4.31367 0
M  V30 6922 C 638.967 -4.37617 5.5197 0
M  V30 6923 H 635.066 -0.743657 0.241863 0
M  V30 6924 H 637.65 -1.56927 1.15248 0
M  V30 6925 H 635.821 -3.88113 0.149281 0
M  V30 6926 H 637.553 -4.03224 0.345372 0
M  V30 6927 H 634.308 -4.10423 2.36326 0
M  V30 6928 H 634.732 -4.64114 4.92876 0
M  V30 6929 H 639.374 -3.59906 2.21873 0
M  V30 6930 H 637.092 -4.78925 6.50889 0
M  V30 6931 H 640.678 -3.92452 4.29503 0
M  V30 6932 H 639.558 -4.51395 6.41258 0
M  V30 6933 N 637.061 -0.65484 -1.43351 0
M  V30 6934 C 638.286 -0.175046 -2.0666 0
M  V30 6935 C 638.711 1.15104 -1.4877 0
M  V30 6936 O 638.069 1.71144 -0.598279 0
M  V30 6937 C 638.117 -0.0991544 -3.60464 0
M  V30 6938 O 637.221 0.938169 -4.01587 0
M  V30 6939 H 636.562 -0.0956148 -0.65708 0
M  V30 6940 H 639.092 -0.898222 -1.83829 0
M  V30 6941 H 639.102 0.083632 -4.07914 0
M  V30 6942 H 637.777 -1.06719 -4.01975 0
M  V30 6943 H 636.354 0.72804 -3.65724 0
M  V30 6944 N 638.539 1.52521 -0.396863 0
M  V30 6945 C 639.469 2.29582 0.425941 0
M  V30 6946 C 640.45 1.33281 1.05689 0
M  V30 6947 O 641.635 1.62181 1.06823 0
M  V30 6948 C 638.765 3.10821 1.54943 0
M  V30 6949 C 637.719 4.15069 1.04413 0
M  V30 6950 C 637.045 4.84578 2.26028 0
M  V30 6951 C 638.345 5.22191 0.106767 0
M  V30 6952 H 640.039 2.98612 -0.217045 0
M  V30 6953 H 637.585 1.43611 -0.105826 0
M  V30 6954 H 639.538 3.63492 2.13193 0
M  V30 6955 H 638.262 2.39538 2.22011 0
M  V30 6956 H 636.921 3.63389 0.484118 0
M  V30 6957 H 636.569 4.09835 2.91623 0
M  V30 6958 H 636.269 5.55043 1.92876 0
M  V30 6959 H 637.793 5.40056 2.84906 0
M  V30 6960 H 639.207 5.70176 0.597685 0
M  V30 6961 H 637.604 5.99947 -0.135352 0
M  V30 6962 H 638.674 4.77531 -0.842134 0
M  V30 6963 N 640.017 0.126909 1.57088 0
M  V30 6964 C 640.947 -0.816847 2.18746 0
M  V30 6965 C 641.928 -1.27161 1.12979 0
M  V30 6966 O 643.113 -1.33279 1.41246 0
M  V30 6967 C 640.243 -2.06398 2.79315 0
M  V30 6968 C 639.197 -1.74673 3.90735 0
M  V30 6969 C 638.523 -3.06482 4.38147 0
M  V30 6970 C 639.823 -1.0089 5.12463 0
M  V30 6971 H 641.517 -0.303032 2.97863 0
M  V30 6972 H 639.063 -0.144314 1.43275 0
M  V30 6973 H 641.016 -2.72885 3.2111 0
M  V30 6974 H 639.74 -2.60118 1.975 0
M  V30 6975 H 638.399 -1.10572 3.49527 0
M  V30 6976 H 638.047 -3.58152 3.5318 0
M  V30 6977 H 637.747 -2.86025 5.13287 0
M  V30 6978 H 639.271 -3.74073 4.82599 0
M  V30 6979 H 640.685 -1.57546 5.51228 0
M  V30 6980 H 639.082 -0.905006 5.93237 0
M  V30 6981 H 640.152 0.00297335 4.849 0
M  V30 6982 N 641.495 -1.56914 -0.146875 0
M  V30 6983 C 642.443 -1.99224 -1.20053 0
M  V30 6984 C 643.437 -0.884661 -1.44465 0
M  V30 6985 O 644.643 -1.06984 -1.44756 0
M  V30 6986 H 641.018 -0.634191 -0.404112 0
M  V30 6987 H 642.989 -2.86998 -0.816987 0
M  V30 6988 C 641.738 -2.38899 -2.52632 0
M  V30 6989 H 641.061 -3.23677 -2.34677 0
M  V30 6990 H 642.501 -2.72326 -3.24984 0
M  V30 6991 C 640.96 -1.2417 -3.13183 0
M  V30 6992 O 641.49 -0.542503 -3.9802 0
M  V30 6993 N 639.696 -1.00592 -2.72635 0
M  V30 6994 H 639.243 -1.57627 -2.03744 0
M  V30 6995 H 639.201 -0.240174 -3.13481 0
M  V30 6996 N 642.974 0.416227 -1.52004 0
M  V30 6997 C 644.202 1.18573 -1.69553 0
M  V30 6998 C 644.617 1.84472 -0.401919 0
M  V30 6999 O 643.974 1.71593 0.621463 0
M  V30 7000 C 644.025 2.25413 -2.82615 0
M  V30 7001 O 643.746 1.62205 -4.06966 0
M  V30 7002 C 645.247 3.15297 -3.11613 0
M  V30 7003 H 642.467 0.356582 -0.56841 0
M  V30 7004 H 645.011 0.490618 -1.98528 0
M  V30 7005 H 643.166 2.90604 -2.56179 0
M  V30 7006 H 643.58 2.3298 -4.69916 0
M  V30 7007 H 645.054 3.86351 -3.94255 0
M  V30 7008 H 645.531 3.77264 -2.24874 0
M  V30 7009 H 646.137 2.55783 -3.39787 0
M  V30 7010 N 644.452 1.42507 0.673017 0
M  V30 7011 C 645.729 1.33554 1.42908 0
M  V30 7012 C 646.109 -0.0262211 2.11084 0
M  V30 7013 O 645.457 -1.04181 2.03368 0
M  V30 7014 C 645.667 2.50498 2.43006 0
M  V30 7015 C 647.015 2.92694 3.07596 0
M  V30 7016 O 648.039 2.50401 2.53333 0
M  V30 7017 O 646.898 3.65899 4.05931 0
M  V30 7018 H 643.992 0.526785 0.637516 0
M  V30 7019 H 646.538 1.54518 0.701591 0
M  V30 7020 H 645.31 3.41272 1.9144 0
M  V30 7021 H 644.933 2.3153 3.23233 0
M  V30 7022 N 645.93 -0.909495 1.28709 0
M  V30 7023 C 647.158 -1.69272 1.18973 0
M  V30 7024 C 647.573 -1.87123 -0.251048 0
M  V30 7025 O 646.93 -1.40127 -1.16922 0
M  V30 7026 C 646.981 -3.08257 1.88839 0
M  V30 7027 O 646.702 -2.91228 3.27289 0
M  V30 7028 C 648.203 -4.02642 1.85457 0
M  V30 7029 H 645.423 -0.528999 0.412797 0
M  V30 7030 H 647.967 -1.13803 1.69909 0
M  V30 7031 H 646.122 -3.6053 1.41762 0
M  V30 7032 H 646.536 -3.79223 3.6234 0
M  V30 7033 H 648.01 -4.97613 2.38925 0
M  V30 7034 H 648.487 -4.31327 0.827893 0
M  V30 7035 H 649.093 -3.56298 2.32233 0
M  V30 7036 N 647.408 -1.11026 -1.11852 0
M  V30 7037 C 648.638 -0.877544 -1.87037 0
M  V30 7038 C 649.046 0.575925 -1.80221 0
M  V30 7039 O 648.389 1.40916 -1.17849 0
M  V30 7040 C 648.451 -1.25529 -3.36872 0
M  V30 7041 C 648.115 -2.71704 -3.67459 0
M  V30 7042 C 649.112 -3.69931 -3.65304 0
M  V30 7043 C 646.797 -3.08243 -3.966 0
M  V30 7044 C 648.791 -5.02717 -3.9186 0
M  V30 7045 C 646.478 -4.41215 -4.22815 0
M  V30 7046 C 647.476 -5.38262 -4.20432 0
M  V30 7047 O 647.164 -6.68839 -4.45992 0
M  V30 7048 H 646.896 -0.314374 -0.598452 0
M  V30 7049 H 649.45 -1.48015 -1.42411 0
M  V30 7050 H 647.68 -0.595808 -3.82082 0
M  V30 7051 H 649.369 -0.999064 -3.93413 0
M  V30 7052 H 650.135 -3.43047 -3.42846 0
M  V30 7053 H 646.014 -2.33326 -3.97593 0
M  V30 7054 H 649.558 -5.78456 -3.89916 0
M  V30 7055 H 645.455 -4.67835 -4.44748 0
M  V30 7056 H 646.223 -6.74563 -4.63581 0
M  V30 7057 N 648.886 1.2938 -0.899927 0
M  V30 7058 C 650.163 1.9046 -0.445443 0
M  V30 7059 C 650.543 1.81683 1.07492 0
M  V30 7060 O 649.891 1.24371 1.91688 0
M  V30 7061 C 650.101 3.35529 -0.960279 0
M  V30 7062 C 651.449 4.12556 -1.00412 0
M  V30 7063 O 652.473 3.44434 -0.907965 0
M  V30 7064 O 651.332 5.34294 -1.14857 0
M  V30 7065 H 648.426 0.815253 -0.138893 0
M  V30 7066 H 650.972 1.37844 -0.989808 0
M  V30 7067 H 649.744 3.36074 -2.00425 0
M  V30 7068 H 649.367 3.95624 -0.395939 0
M  V30 7069 N 650.364 0.662433 1.43002 0
M  V30 7070 C 651.311 -0.0235324 2.30788 0
M  V30 7071 C 652.281 -0.805342 1.4527 0
M  V30 7072 O 653.466 -0.78009 1.74124 0
M  V30 7073 C 650.606 -0.977545 3.30965 0
M  V30 7074 C 649.719 -0.190865 4.31578 0
M  V30 7075 C 648.854 -1.13951 5.18834 0
M  V30 7076 C 647.893 -0.343796 6.11134 0
M  V30 7077 N 647.03 -1.2445 6.90982 0
M  V30 7078 H 651.87 0.730921 2.88897 0
M  V30 7079 H 649.407 0.372197 1.42313 0
M  V30 7080 H 651.365 -1.54437 3.87563 0
M  V30 7081 H 649.995 -1.69877 2.74484 0
M  V30 7082 H 649.047 0.492388 3.772 0
M  V30 7083 H 650.359 0.427464 4.96965 0
M  V30 7084 H 649.513 -1.77666 5.80103 0
M  V30 7085 H 648.252 -1.79174 4.53595 0
M  V30 7086 H 647.257 0.30665 5.48944 0
M  V30 7087 H 648.482 0.304161 6.78419 0
M  V30 7088 H 646.428 -1.88336 6.28383 0
M  V30 7089 H 646.345 -0.680959 7.52927 0
M  V30 7090 H 647.613 -1.86952 7.56749 0
M  V30 7091 N 651.842 -1.52309 0.404946 0
M  V30 7092 C 652.775 -2.23369 -0.467087 0
M  V30 7093 C 653.753 -1.24034 -1.0514 0
M  V30 7094 O 654.937 -1.53071 -1.10006 0
M  V30 7095 C 652.064 -2.95906 -1.64795 0
M  V30 7096 C 651.11 -4.09637 -1.18743 0
M  V30 7097 S 651.943 -5.35273 -0.156022 0
M  V30 7098 C 653.099 -6.11337 -1.34231 0
M  V30 7099 H 653.332 -2.96987 0.136294 0
M  V30 7100 H 650.865 -1.53236 0.189219 0
M  V30 7101 H 652.823 -3.38304 -2.3251 0
M  V30 7102 H 651.484 -2.21937 -2.22267 0
M  V30 7103 H 650.677 -4.59549 -2.06955 0
M  V30 7104 H 650.279 -3.69333 -0.588981 0
M  V30 7105 H 652.571 -6.38458 -2.26665 0
M  V30 7106 H 653.514 -7.02563 -0.883804 0
M  V30 7107 H 653.922 -5.42338 -1.56621 0
M  V30 7108 N 653.32 -0.135238 -1.57019 0
M  V30 7109 C 654.268 0.826099 -2.17436 0
M  V30 7110 C 655.262 1.26378 -1.12805 0
M  V30 7111 O 656.468 1.23363 -1.31079 0
M  V30 7112 H 652.843 0.284568 -0.696078 0
M  V30 7113 H 654.814 0.292212 -2.96966 0
M  V30 7114 C 653.563 2.05991 -2.80112 0
M  V30 7115 H 652.886 1.73209 -3.60331 0
M  V30 7116 H 654.326 2.71225 -3.25903 0
M  V30 7117 C 652.785 2.86027 -1.78017 0
M  V30 7118 O 653.315 3.81971 -1.24344 0
M  V30 7119 N 651.521 2.50332 -1.47588 0
M  V30 7120 H 651.068 1.72377 -1.91426 0
M  V30 7121 H 651.026 3.04177 -0.795228 0
M  V30 7122 N 654.798 1.5699 0.138552 0
M  V30 7123 C 655.745 1.98899 1.17081 0
M  V30 7124 C 656.715 0.857922 1.42228 0
M  V30 7125 O 657.9 1.12065 1.54422 0
M  V30 7126 C 655.04 2.38189 2.4972 0
M  V30 7127 C 654.153 3.64624 2.31674 0
M  V30 7128 C 653.288 3.9298 3.57407 0
M  V30 7129 C 652.327 5.1266 3.34435 0
M  V30 7130 N 651.464 5.36983 4.5232 0
M  V30 7131 H 656.304 2.86881 0.80642 0
M  V30 7132 H 653.841 1.41925 0.386727 0
M  V30 7133 H 655.799 2.59 3.2707 0
M  V30 7134 H 654.429 1.53275 2.84089 0
M  V30 7135 H 653.481 3.51542 1.45337 0
M  V30 7136 H 654.793 4.52131 2.10664 0
M  V30 7137 H 653.947 4.14335 4.43183 0
M  V30 7138 H 652.686 3.03912 3.8143 0
M  V30 7139 H 651.691 4.9117 2.47048 0
M  V30 7140 H 652.916 6.03288 3.11802 0
M  V30 7141 H 650.862 4.50871 4.76499 0
M  V30 7142 H 650.779 6.18775 4.34343 0
M  V30 7143 H 652.047 5.62842 5.39285 0
M  V30 7144 N 656.276 -0.40816 1.52223 0
M  V30 7145 C 657.206 -1.5042 1.78595 0
M  V30 7146 C 658.187 -1.57723 0.636974 0
M  V30 7147 O 659.372 -1.72982 0.882664 0
M  V30 7148 C 656.502 -2.88232 1.93751 0
M  V30 7149 C 655.456 -2.95779 3.09352 0
M  V30 7150 C 654.782 -4.35855 3.09732 0
M  V30 7151 C 656.082 -2.67175 4.48793 0
M  V30 7152 H 657.776 -1.28601 2.70374 0
M  V30 7153 H 655.322 -0.617221 1.30101 0
M  V30 7154 H 657.275 -3.64895 2.10783 0
M  V30 7155 H 655.999 -3.11347 0.986443 0
M  V30 7156 H 654.658 -2.21561 2.92072 0
M  V30 7157 H 654.306 -4.55981 2.12346 0
M  V30 7158 H 654.006 -4.41829 3.87377 0
M  V30 7159 H 655.53 -5.14451 3.28895 0
M  V30 7160 H 656.944 -3.3356 4.66273 0
M  V30 7161 H 655.341 -2.84523 5.28362 0
M  V30 7162 H 656.411 -1.62609 4.56822 0
M  V30 7163 N 657.755 -1.42862 -0.66545 0
M  V30 7164 C 658.665 -1.49491 -1.80803 0
M  V30 7165 C 659.681 -0.382914 -1.69734 0
M  V30 7166 O 660.857 -0.635223 -1.9112 0
M  V30 7167 C 657.922 -1.40383 -3.17007 0
M  V30 7168 C 656.983 -2.62152 -3.39963 0
M  V30 7169 C 656.216 -2.53469 -4.69669 0
M  V30 7170 O 656.439 -1.57568 -5.48205 0
M  V30 7171 O 655.373 -3.43763 -4.94075 0
M  V30 7172 H 659.199 -2.45949 -1.78165 0
M  V30 7173 H 656.784 -1.24728 -0.822387 0
M  V30 7174 H 658.666 -1.377 -3.98267 0
M  V30 7175 H 657.341 -0.470546 -3.20262 0
M  V30 7176 H 656.248 -2.70409 -2.58515 0
M  V30 7177 H 657.581 -3.54411 -3.41546 0
M  V30 7178 N 659.233 0.902656 -1.29189 0
M  V30 7179 C 660.181 2.0278 -1.13943 0
M  V30 7180 C 661.175 1.69308 -0.055787 0
M  V30 7181 O 662.381 1.78707 -0.215371 0
M  V30 7182 H 658.756 0.664595 -0.351877 0
M  V30 7183 H 660.727 2.12778 -2.09208 0
M  V30 7184 C 659.476 3.37657 -0.82966 0
M  V30 7185 H 658.799 3.63913 -1.65551 0
M  V30 7186 H 660.239 4.17078 -0.762998 0
M  V30 7187 C 658.698 3.33648 0.466991 0
M  V30 7188 O 659.228 3.72886 1.49395 0
M  V30 7189 N 657.434 2.86745 0.471761 0
M  V30 7190 H 656.981 2.55009 -0.364406 0
M  V30 7191 H 656.939 2.84446 1.33933 0
M  V30 7192 N 660.711 1.11618 1.11262 0
M  V30 7193 C 662.127 0.850468 1.35053 0
M  V30 7194 C 662.327 -0.523868 1.94571 0
M  V30 7195 O 661.383 -1.2743 2.17986 0
M  V30 7196 C 662.696 1.96005 2.28041 0
M  V30 7197 C 664.244 1.98993 2.416 0
M  V30 7198 C 664.719 3.0916 3.37911 0
M  V30 7199 N 666.21 3.08547 3.45475 0
M  V30 7200 C 666.945 3.9043 4.19943 0
M  V30 7201 N 666.441 4.8228 4.97371 0
M  V30 7202 N 668.234 3.786 4.15474 0
M  V30 7203 H 660.385 2.00184 0.709932 0
M  V30 7204 H 662.648 0.870635 0.375099 0
M  V30 7205 H 662.354 2.9499 1.91503 0
M  V30 7206 H 662.228 1.85782 3.28275 0
M  V30 7207 H 664.615 1.00633 2.77411 0
M  V30 7208 H 664.696 2.13292 1.4121 0
M  V30 7209 H 664.34 4.07748 3.02827 0
M  V30 7210 H 664.27 2.92102 4.3816 0
M  V30 7211 H 666.761 2.42 2.90249 0
M  V30 7212 H 667.074 5.41289 5.51567 0
M  V30 7213 H 665.419 4.863 4.96525 0
M  V30 7214 H 668.61 3.06185 3.54074 0
M  V30 7215 H 668.783 4.42647 4.73253 0
M  V30 7216 N 662.189 -1.289 0.906776 0
M  V30 7217 C 663.136 -2.2751 0.388313 0
M  V30 7218 C 664.106 -1.57301 -0.533439 0
M  V30 7219 O 665.291 -1.85243 -0.457148 0
M  V30 7220 C 662.431 -3.43091 -0.37181 0
M  V30 7221 C 661.544 -4.28066 0.581647 0
M  V30 7222 C 660.679 -5.30837 -0.19623 0
M  V30 7223 C 659.718 -6.07472 0.751294 0
M  V30 7224 N 658.855 -7.021 0.00737727 0
M  V30 7225 H 663.695 -2.71237 1.23428 0
M  V30 7226 H 661.232 -1.33397 0.619962 0
M  V30 7227 H 663.19 -4.08888 -0.828641 0
M  V30 7228 H 661.82 -3.00374 -1.18218 0
M  V30 7229 H 660.872 -3.62378 1.157 0
M  V30 7230 H 662.184 -4.81382 1.30665 0
M  V30 7231 H 661.338 -6.02485 -0.71394 0
M  V30 7232 H 660.077 -4.78272 -0.954324 0
M  V30 7233 H 659.082 -5.34682 1.28044 0
M  V30 7234 H 660.307 -6.62126 1.50883 0
M  V30 7235 H 658.253 -6.51894 -0.732854 0
M  V30 7236 H 658.17 -7.53004 0.672334 0
M  V30 7237 H 659.438 -7.77956 -0.490365 0
M  V30 7238 N 663.667 -0.670007 -1.42649 0
M  V30 7239 C 664.944 -0.119451 -1.95235 0
M  V30 7240 C 665.324 1.36461 -1.61064 0
M  V30 7241 O 664.672 2.09843 -0.904329 0
M  V30 7242 C 664.882 -0.383498 -3.46887 0
M  V30 7243 C 666.23 -0.297431 -4.23557 0
M  V30 7244 O 667.254 -0.31698 -3.54787 0
M  V30 7245 O 666.113 -0.235507 -5.45992 0
M  V30 7246 H 663.207 -8.85474e-05 -0.827 0
M  V30 7247 H 665.753 -0.744406 -1.52501 0
M  V30 7248 H 664.525 -1.41174 -3.64946 0
M  V30 7249 H 664.148 0.273702 -3.96657 0
M  V30 7250 N 665.145 1.52092 -0.413018 0
M  V30 7251 C 666.394 2.01041 0.16287 0
M  V30 7252 C 666.707 1.30288 1.45892 0
M  V30 7253 O 667.913 1.70075 2.11629 0
M  V30 7254 C 666.369 3.58283 0.340806 0
M  V30 7255 C 665.977 4.37955 -0.943377 0
M  V30 7256 C 667.721 4.15452 0.871774 0
M  V30 7257 C 665.628 5.86847 -0.732417 0
M  V30 7258 H 664.558 0.751224 0.0646414 0
M  V30 7259 H 667.209 1.75404 -0.539059 0
M  V30 7260 H 665.591 3.80266 1.10516 0
M  V30 7261 H 666.765 4.2773 -1.71418 0
M  V30 7262 H 665.08 3.92122 -1.40105 0
M  V30 7263 H 667.677 5.24375 1.0457 0
M  V30 7264 H 668.02 3.73057 1.84755 0
M  V30 7265 H 668.553 3.97452 0.166377 0
M  V30 7266 H 665.292 6.33609 -1.67986 0
M  V30 7267 H 664.812 5.998 -0.000980058 0
M  V30 7268 H 666.491 6.45906 -0.376105 0
M  V30 7269 N 666.623 0.143563 1.56945 0
M  V30 7270 C 667.586 -0.783295 2.154 0
M  V30 7271 C 668.586 -1.17763 1.09492 0
M  V30 7272 O 669.776 -1.09912 1.35148 0
M  V30 7273 C 666.908 -2.06248 2.7143 0
M  V30 7274 H 668.101 -0.274863 2.98638 0
M  V30 7275 H 665.654 -0.105859 1.55941 0
M  V30 7276 H 666.389 -2.61466 1.91849 0
M  V30 7277 H 666.174 -1.78897 3.4891 0
M  V30 7278 H 667.664 -2.72453 3.16479 0
M  V30 7279 N 668.101 -1.57061 -0.130224 0
M  V30 7280 C 669.033 -1.96147 -1.18571 0
M  V30 7281 C 670.046 -0.859347 -1.38272 0
M  V30 7282 O 671.235 -1.13769 -1.37545 0
M  V30 7283 C 668.335 -2.23484 -2.54771 0
M  V30 7284 C 667.508 -3.54786 -2.55824 0
M  V30 7285 C 666.567 -3.70467 -3.73686 0
M  V30 7286 O 665.593 -4.42693 -3.57787 0
M  V30 7287 N 666.795 -3.08389 -4.91809 0
M  V30 7288 H 669.56 -2.87295 -0.853333 0
M  V30 7289 H 667.121 -1.58714 -0.319621 0
M  V30 7290 H 669.113 -2.312 -3.32158 0
M  V30 7291 H 667.683 -1.38518 -2.80235 0
M  V30 7292 H 666.903 -3.5836 -1.64232 0
M  V30 7293 H 668.191 -4.4111 -2.53573 0
M  V30 7294 H 667.589 -2.49656 -5.0763 0
M  V30 7295 H 666.146 -3.21642 -5.66912 0
M  V30 7296 N 669.579 0.400081 -1.52437 0
M  V30 7297 C 670.489 1.51253 -1.79331 0
M  V30 7298 C 671.505 1.60188 -0.679396 0
M  V30 7299 O 672.681 1.76733 -0.965791 0
M  V30 7300 C 669.746 2.869 -1.94652 0
M  V30 7301 C 668.807 2.87777 -3.18564 0
M  V30 7302 C 668.04 4.16954 -3.33145 0
M  V30 7303 O 668.263 5.11329 -2.52783 0
M  V30 7304 O 667.197 4.2487 -4.26343 0
M  V30 7305 H 671.023 1.31461 -2.73773 0
M  V30 7306 H 668.608 0.586834 -1.37392 0
M  V30 7307 H 670.49 3.67336 -2.065 0
M  V30 7308 H 669.165 3.06741 -1.034 0
M  V30 7309 H 668.072 2.06162 -3.12167 0
M  V30 7310 H 669.405 2.72886 -4.09627 0
M  V30 7311 N 671.057 1.43213 0.657864 0
M  V30 7312 C 671.99 1.42456 1.78273 0
M  V30 7313 C 672.968 0.286598 1.60054 0
M  V30 7314 O 674.152 0.479467 1.823 0
M  V30 7315 C 671.279 1.23169 3.15511 0
M  V30 7316 C 670.325 2.40181 3.52442 0
M  V30 7317 S 671.158 4.02729 3.52944 0
M  V30 7318 C 672.314 3.85816 4.92846 0
M  V30 7319 H 672.547 2.37642 1.78644 0
M  V30 7320 H 670.08 1.30188 0.830084 0
M  V30 7321 H 672.038 1.12728 3.94719 0
M  V30 7322 H 670.699 0.295398 3.12708 0
M  V30 7323 H 669.892 2.22478 4.52239 0
M  V30 7324 H 669.494 2.47224 2.80636 0
M  V30 7325 H 671.786 3.47853 5.81381 0
M  V30 7326 H 672.729 4.85348 5.15599 0
M  V30 7327 H 673.137 3.18361 4.66162 0
M  V30 7328 N 672.536 -0.895792 1.29666 0
M  V30 7329 C 673.466 -2.01673 1.17688 0
M  V30 7330 C 674.447 -1.69955 0.0701317 0
M  V30 7331 O 675.632 -1.9258 0.250289 0
M  V30 7332 C 672.762 -3.36568 0.856681 0
M  V30 7333 C 671.716 -3.82509 1.92017 0
M  V30 7334 C 671.042 -5.14574 1.4532 0
M  V30 7335 C 672.342 -4.02409 3.32963 0
M  V30 7336 H 674.036 -2.11953 2.11463 0
M  V30 7337 H 671.582 -1.01839 1.01807 0
M  V30 7338 H 673.535 -4.14498 0.759577 0
M  V30 7339 H 672.259 -3.26391 -0.116763 0
M  V30 7340 H 670.918 -3.068 2.00673 0
M  V30 7341 H 670.566 -5.00815 0.468325 0
M  V30 7342 H 670.266 -5.46283 2.16447 0
M  V30 7343 H 671.79 -5.9504 1.36968 0
M  V30 7344 H 673.204 -4.70808 3.27127 0
M  V30 7345 H 671.601 -4.45478 4.02082 0
M  V30 7346 H 672.671 -3.06616 3.75652 0
M  V30 7347 N 674.014 -1.12206 -1.10668 0
M  V30 7348 C 674.947 -0.731468 -2.16159 0
M  V30 7349 C 675.925 0.276216 -1.60237 0
M  V30 7350 O 677.109 0.17074 -1.87725 0
M  V30 7351 C 674.236 -0.0822882 -3.386 0
M  V30 7352 C 673.282 -1.05641 -4.1321 0
M  V30 7353 S 674.115 -2.58281 -4.69096 0
M  V30 7354 C 675.271 -1.94686 -5.94851 0
M  V30 7355 H 675.504 -1.62504 -2.48957 0
M  V30 7356 H 673.037 -0.940906 -1.22419 0
M  V30 7357 H 674.995 0.285896 -4.09503 0
M  V30 7358 H 673.656 0.788358 -3.04046 0
M  V30 7359 H 672.849 -0.549764 -5.00993 0
M  V30 7360 H 672.451 -1.36741 -3.48106 0
M  V30 7361 H 674.743 -1.28815 -6.65141 0
M  V30 7362 H 675.686 -2.80499 -6.50174 0
M  V30 7363 H 676.094 -1.40369 -5.46769 0
M  V30 7364 N 675.492 1.28418 -0.913599 0
M  V30 7365 C 676.44 2.29272 -0.392037 0
M  V30 7366 C 677.434 1.61344 0.516198 0
M  V30 7367 O 678.64 1.75557 0.39746 0
M  V30 7368 H 675.015 0.744178 -0.108178 0
M  V30 7369 H 676.986 2.70691 -1.25574 0
M  V30 7370 C 675.735 3.45905 0.352815 0
M  V30 7371 H 675.058 3.98378 -0.336848 0
M  V30 7372 H 676.498 4.18473 0.682398 0
M  V30 7373 C 674.957 2.98572 1.56065 0
M  V30 7374 O 675.487 3.01033 2.65974 0
M  V30 7375 N 673.693 2.54235 1.40759 0
M  V30 7376 H 673.24 2.52432 0.513403 0
M  V30 7377 H 673.198 2.22925 2.21702 0
M  V30 7378 N 676.97 0.677563 1.42291 0
M  V30 7379 C 677.902 -0.0380218 2.29168 0
M  V30 7380 C 678.915 -0.762714 1.43828 0
M  V30 7381 O 680.104 -0.616413 1.67519 0
M  V30 7382 C 677.204 -1.07761 3.21311 0
M  V30 7383 C 676.377 -0.42618 4.35319 0
M  V30 7384 C 675.436 -1.36592 5.08162 0
M  V30 7385 O 674.462 -0.865174 5.62586 0
M  V30 7386 N 675.664 -2.69909 5.13935 0
M  V30 7387 H 678.429 0.707766 2.91223 0
M  V30 7388 H 675.99 0.52219 1.53247 0
M  V30 7389 H 677.982 -1.70761 3.6691 0
M  V30 7390 H 676.552 -1.72511 2.60689 0
M  V30 7391 H 675.772 0.383385 3.92331 0
M  V30 7392 H 677.06 0.0275277 5.08793 0
M  V30 7393 H 676.458 -3.13129 4.71134 0
M  V30 7394 H 675.015 -3.2815 5.6317 0
M  V30 7395 N 678.448 -1.51871 0.421078 0
M  V30 7396 C 679.676 -2.06356 -0.14994 0
M  V30 7397 C 680.091 -1.29006 -1.37851 0
M  V30 7398 O 679.448 -0.345139 -1.79207 0
M  V30 7399 C 679.499 -3.58185 -0.488454 0
M  V30 7400 O 679.22 -4.32611 0.691341 0
M  V30 7401 C 680.721 -4.29129 -1.11191 0
M  V30 7402 H 677.941 -0.67083 -0.0151186 0
M  V30 7403 H 680.485 -1.95638 0.595476 0
M  V30 7404 H 678.64 -3.68871 -1.18376 0
M  V30 7405 H 679.054 -5.22927 0.405906 0
M  V30 7406 H 680.528 -5.36501 -1.29889 0
M  V30 7407 H 681.005 -3.86371 -2.0884 0
M  V30 7408 H 681.611 -4.22843 -0.456458 0
M  V30 7409 N 679.926 -0.151884 -1.56866 0
M  V30 7410 C 680.873 0.785936 -2.17006 0
M  V30 7411 C 681.843 1.2407 -1.10435 0
M  V30 7412 O 683.028 1.31235 -1.38499 0
M  V30 7413 C 680.168 2.01771 -2.79969 0
M  V30 7414 C 679.281 1.6083 -4.00946 0
M  V30 7415 C 678.416 2.79224 -4.51893 0
M  V30 7416 C 677.455 2.3468 -5.65324 0
M  V30 7417 N 676.592 3.461 -6.10867 0
M  V30 7418 H 681.432 0.266286 -2.96808 0
M  V30 7419 H 678.969 0.11972 -1.46612 0
M  V30 7420 H 680.927 2.73989 -3.14621 0
M  V30 7421 H 679.557 2.51139 -2.02803 0
M  V30 7422 H 678.609 0.783592 -3.72242 0
M  V30 7423 H 679.921 1.24119 -4.83111 0
M  V30 7424 H 679.075 3.59625 -4.88625 0
M  V30 7425 H 677.814 3.19183 -3.68746 0
M  V30 7426 H 676.819 1.52721 -5.28163 0
M  V30 7427 H 678.044 1.95801 -6.5026 0
M  V30 7428 H 675.99 3.85671 -5.30654 0
M  V30 7429 H 675.907 3.1342 -6.87971 0
M  V30 7430 H 677.175 4.26844 -6.52246 0
M  V30 7431 N 681.404 1.57128 0.121893 0
M  V30 7432 C 682.367 1.99197 1.13372 0
M  V30 7433 C 683.367 0.881728 1.3447 0
M  V30 7434 O 684.557 1.14783 1.31036 0
M  V30 7435 C 681.689 2.32963 2.4888 0
M  V30 7436 H 682.882 2.89788 0.772204 0
M  V30 7437 H 680.435 1.51952 0.366093 0
M  V30 7438 H 681.17 1.45243 2.89957 0
M  V30 7439 H 680.955 3.13934 2.34921 0
M  V30 7440 H 682.445 2.66261 3.21706 0
M  V30 7441 N 682.882 -0.391992 1.52647 0
M  V30 7442 C 684.11 -1.1586 1.71418 0
M  V30 7443 C 684.525 -1.8381 0.431216 0
M  V30 7444 O 683.882 -1.7256 -0.594085 0
M  V30 7445 C 683.933 -2.20888 2.86165 0
M  V30 7446 O 683.654 -1.5571 4.09495 0
M  V30 7447 C 685.155 -3.103 3.1659 0
M  V30 7448 H 682.375 -0.347494 0.574011 0
M  V30 7449 H 684.919 -0.458972 1.99283 0
M  V30 7450 H 683.074 -2.86492 2.6077 0
M  V30 7451 H 683.488 -2.25474 4.73563 0
M  V30 7452 H 684.962 -3.8003 4.00351 0
M  V30 7453 H 685.439 -3.73639 2.30848 0
M  V30 7454 H 686.045 -2.50345 3.43813 0
M  V30 7455 N 684.36 -1.4356 -0.65026 0
M  V30 7456 C 685.771 -1.40324 -1.2315 0
M  V30 7457 C 686.122 -0.108812 -1.95898 0
M  V30 7458 O 685.247 0.79163 -2.01401 0
M  V30 7459 C 685.842 -2.54195 -2.23987 0
M  V30 7460 C 684.401 -2.54215 -2.77582 0
M  V30 7461 C 683.548 -2.31752 -1.5227 0
M  V30 7462 H 686.499 -1.52418 -0.442095 0
M  V30 7463 H 686.52 -2.25854 -3.0622 0
M  V30 7464 H 686.032 -3.48392 -1.71011 0
M  V30 7465 H 684.133 -1.63907 -3.34612 0
M  V30 7466 H 684.246 -3.52081 -3.24925 0
M  V30 7467 H 682.61 -1.80476 -1.79723 0
M  V30 7468 H 683.393 -3.28037 -1.01225 0
M  V30 7469 N 685.838 0.888903 -1.30139 0
M  V30 7470 C 686.748 2.02705 -1.18101 0
M  V30 7471 C 687.764 1.73702 -0.101809 0
M  V30 7472 O 688.94 1.98906 -0.315984 0
M  V30 7473 C 686.005 3.35616 -0.869651 0
M  V30 7474 C 685.066 3.78067 -2.03381 0
M  V30 7475 C 684.299 5.04635 -1.73721 0
M  V30 7476 O 684.522 5.66531 -0.663267 0
M  V30 7477 O 683.456 5.43399 -2.58845 0
M  V30 7478 H 687.282 2.15788 -2.13704 0
M  V30 7479 H 684.867 1.01426 -1.09695 0
M  V30 7480 H 686.749 4.15358 -0.711043 0
M  V30 7481 H 685.424 3.23651 0.0565002 0
M  V30 7482 H 684.331 2.99046 -2.24772 0
M  V30 7483 H 685.664 3.94631 -2.94155 0
M  V30 7484 N 687.317 1.12792 1.10072 0
M  V30 7485 C 688.227 0.812369 2.20086 0
M  V30 7486 C 689.243 -0.200349 1.72843 0
M  V30 7487 O 690.419 -0.0330262 2.01373 0
M  V30 7488 C 687.484 0.275685 3.45602 0
M  V30 7489 C 686.545 1.34881 4.07561 0
M  V30 7490 C 685.778 0.837639 5.27086 0
M  V30 7491 O 686.001 -0.327224 5.69461 0
M  V30 7492 O 684.935 1.60894 5.79997 0
M  V30 7493 H 688.761 1.73133 2.49517 0
M  V30 7494 H 686.346 0.904863 1.18881 0
M  V30 7495 H 688.228 -0.0185375 4.21396 0
M  V30 7496 H 686.903 -0.615783 3.17789 0
M  V30 7497 H 685.81 1.69625 3.33434 0
M  V30 7498 H 687.143 2.21418 4.39585 0
M  V30 7499 N 688.795 -1.27931 0.920396 0
M  V30 7500 C 690.044 -1.93975 0.552867 0
M  V30 7501 C 690.357 -1.73193 -0.909035 0
M  V30 7502 O 691.563 -2.33515 -1.38502 0
M  V30 7503 C 690.019 -3.47463 0.937947 0
M  V30 7504 C 689.627 -3.77013 2.42003 0
M  V30 7505 C 691.371 -4.19628 0.64132 0
M  V30 7506 C 689.278 -5.23841 2.74489 0
M  V30 7507 H 688.208 -0.726146 0.203046 0
M  V30 7508 H 690.859 -1.45339 1.12022 0
M  V30 7509 H 689.241 -3.94867 0.299317 0
M  V30 7510 H 690.415 -3.40393 3.10595 0
M  V30 7511 H 688.73 -3.18035 2.6878 0
M  V30 7512 H 691.327 -5.27729 0.860622 0
M  V30 7513 H 691.67 -4.14164 -0.421168 0
M  V30 7514 H 692.203 -3.78022 1.23872 0
M  V30 7515 H 688.942 -5.34388 3.79618 0
M  V30 7516 H 688.462 -5.61634 2.1054 0
M  V30 7517 H 690.141 -5.91647 2.61845 0
M  V30 7518 N 690.273 -0.685099 -1.4193 0
M  V30 7519 C 691.22 -0.0131869 -2.30796 0
M  V30 7520 C 692.19 0.782129 -1.46533 0
M  V30 7521 O 693.375 0.75229 -1.75343 0
M  V30 7522 C 690.515 0.924768 -3.32479 0
M  V30 7523 C 689.628 0.122181 -4.31827 0
M  V30 7524 C 688.763 1.05682 -5.20581 0
M  V30 7525 C 687.802 0.246526 -6.11603 0
M  V30 7526 N 686.939 1.13442 -6.92875 0
M  V30 7527 H 691.779 -0.776789 -2.87698 0
M  V30 7528 H 689.316 -0.394791 -1.41703 0
M  V30 7529 H 691.274 1.48251 -3.89971 0
M  V30 7530 H 689.904 1.65488 -2.77152 0
M  V30 7531 H 688.956 -0.552335 -3.76369 0
M  V30 7532 H 690.268 -0.506473 -4.96222 0
M  V30 7533 H 689.422 1.68415 -5.82856 0
M  V30 7534 H 688.161 1.71935 -4.56388 0
M  V30 7535 H 687.166 -0.393944 -5.48387 0
M  V30 7536 H 688.391 -0.412053 -6.77849 0
M  V30 7537 H 686.337 1.78316 -6.313 0
M  V30 7538 H 686.254 0.561089 -7.53915 0
M  V30 7539 H 687.522 1.74889 -7.59628 0
M  V30 7540 N 691.751 1.51645 -0.429126 0
M  V30 7541 C 692.976 2.06917 0.141399 0
M  V30 7542 C 693.401 1.29527 1.36398 0
M  V30 7543 O 692.759 0.33094 1.78254 0
M  V30 7544 C 692.807 3.57776 0.4504 0
M  V30 7545 O 691.911 3.82639 1.53821 0
M  V30 7546 H 691.252 0.663978 0.0054647 0
M  V30 7547 H 693.782 1.95355 -0.608093 0
M  V30 7548 H 693.792 4.01894 0.703249 0
M  V30 7549 H 692.467 4.13532 -0.443213 0
M  V30 7550 H 691.044 3.5039 1.27597 0
M  V30 7551 N 693.229 0.160201 1.56784 0
M  V30 7552 C 694.478 -0.487619 1.95717 0
M  V30 7553 C 694.791 -1.65136 1.0483 0
M  V30 7554 O 695.997 -2.36468 1.33398 0
M  V30 7555 C 694.453 -0.91888 3.47972 0
M  V30 7556 C 694.061 0.218655 4.47466 0
M  V30 7557 C 695.805 -1.53575 3.95746 0
M  V30 7558 C 693.712 -0.231614 5.90946 0
M  V30 7559 H 692.642 -0.185939 0.730714 0
M  V30 7560 H 695.293 0.246657 1.81835 0
M  V30 7561 H 693.675 -1.70881 3.57234 0
M  V30 7562 H 694.849 0.995825 4.49911 0
M  V30 7563 H 693.164 0.744767 4.09685 0
M  V30 7564 H 695.761 -1.88448 5.00391 0
M  V30 7565 H 696.104 -2.42959 3.38048 0
M  V30 7566 H 696.637 -0.810467 3.89456 0
M  V30 7567 H 693.376 0.62718 6.52493 0
M  V30 7568 H 692.896 -0.974379 5.91833 0
M  V30 7569 H 694.575 -0.67922 6.43425 0
M  V30 7570 N 694.707 -1.5719 -0.113559 0
M  V30 7571 C 695.637 -2.03772 -1.14013 0
M  V30 7572 C 696.618 -0.923176 -1.42869 0
M  V30 7573 O 697.803 -1.19325 -1.53216 0
M  V30 7574 C 694.933 -2.44663 -2.4649 0
M  V30 7575 C 693.887 -3.59612 -2.32085 0
M  V30 7576 C 693.213 -3.8642 -3.69573 0
M  V30 7577 C 694.513 -4.91149 -1.7768 0
M  V30 7578 H 696.207 -2.89785 -0.752665 0
M  V30 7579 H 693.753 -1.39412 -0.360609 0
M  V30 7580 H 695.706 -2.75857 -3.18561 0
M  V30 7581 H 694.43 -1.55628 -2.87137 0
M  V30 7582 H 693.089 -3.28636 -1.62461 0
M  V30 7583 H 692.737 -2.94581 -4.07715 0
M  V30 7584 H 692.437 -4.63797 -3.60786 0
M  V30 7585 H 693.961 -4.2007 -4.4314 0
M  V30 7586 H 695.375 -5.20843 -2.39574 0
M  V30 7587 H 693.772 -5.72562 -1.79701 0
M  V30 7588 H 694.842 -4.79301 -0.734776 0
M  V30 7589 N 696.185 0.383891 -1.52853 0
M  V30 7590 C 697.132 1.46924 -1.77995 0
M  V30 7591 C 698.102 1.53958 -0.623396 0
M  V30 7592 O 699.287 1.70134 -0.863657 0
M  V30 7593 C 696.427 2.84093 -1.95921 0
M  V30 7594 C 695.54 2.86171 -3.23621 0
M  V30 7595 C 694.675 4.14799 -3.31836 0
M  V30 7596 C 693.714 4.10948 -4.53639 0
M  V30 7597 N 692.851 5.31192 -4.59107 0
M  V30 7598 H 697.691 1.24786 -2.70615 0
M  V30 7599 H 695.228 0.605265 -1.34071 0
M  V30 7600 H 697.186 3.63755 -2.04299 0
M  V30 7601 H 695.816 3.04671 -1.06656 0
M  V30 7602 H 694.868 1.9885 -3.24288 0
M  V30 7603 H 696.18 2.79194 -4.13343 0
M  V30 7604 H 695.334 5.02867 -3.39425 0
M  V30 7605 H 694.073 4.24505 -2.40097 0
M  V30 7606 H 693.078 3.21268 -4.46169 0
M  V30 7607 H 694.303 4.0286 -5.467 0
M  V30 7608 H 692.249 5.41518 -3.70262 0
M  V30 7609 H 692.166 5.26311 -5.42708 0
M  V30 7610 H 693.434 6.21143 -4.70958 0
M  V30 7611 N 697.663 1.43903 0.642637 0
M  V30 7612 C 698.91 1.46079 1.40239 0
M  V30 7613 C 699.238 0.0890335 1.94296 0
M  V30 7614 O 698.493 -0.907533 1.73385 0
M  V30 7615 C 698.792 2.45907 2.59354 0
M  V30 7616 C 698.458 3.91522 2.23654 0
M  V30 7617 C 697.12 4.31179 2.1363 0
M  V30 7618 C 699.472 4.83242 1.95261 0
M  V30 7619 C 696.8 5.60495 1.73384 0
M  V30 7620 C 699.152 6.12933 1.56511 0
M  V30 7621 C 697.816 6.51556 1.4502 0
M  V30 7622 H 697.086 0.534542 0.513172 0
M  V30 7623 H 699.733 1.77047 0.72984 0
M  V30 7624 H 698.038 2.08381 3.3179 0
M  V30 7625 H 699.735 2.44842 3.17574 0
M  V30 7626 H 696.325 3.60142 2.32369 0
M  V30 7627 H 700.509 4.53367 2.0192 0
M  V30 7628 H 695.765 5.89249 1.63082 0
M  V30 7629 H 699.939 6.83469 1.33576 0
M  V30 7630 H 697.566 7.51663 1.13606 0
M  V30 7631 N 699.141 -0.881989 1.30609 0
M  V30 7632 C 700.073 -1.99375 1.13058 0
M  V30 7633 C 701.086 -1.62636 0.0729879 0
M  V30 7634 O 702.275 -1.75621 0.319301 0
M  V30 7635 C 699.375 -3.31536 0.702651 0
M  V30 7636 C 698.548 -3.96693 1.84265 0
M  V30 7637 C 697.607 -5.07158 1.40277 0
M  V30 7638 O 696.633 -5.28628 2.11048 0
M  V30 7639 N 697.835 -5.79808 0.283449 0
M  V30 7640 H 700.6 -2.14981 2.08814 0
M  V30 7641 H 698.161 -1.05526 1.22784 0
M  V30 7642 H 700.153 -4.02804 0.391331 0
M  V30 7643 H 698.723 -3.12175 -0.162954 0
M  V30 7644 H 697.943 -3.1856 2.32192 0
M  V30 7645 H 699.231 -4.36964 2.60653 0
M  V30 7646 H 698.629 -5.64871 -0.306189 0
M  V30 7647 H 697.186 -6.51792 0.0315985 0
M  V30 7648 N 700.619 -1.13374 -1.09472 0
M  V30 7649 C 701.529 -0.824029 -2.19652 0
M  V30 7650 C 702.545 0.19118 -1.72947 0
M  V30 7651 O 703.721 0.0223464 -2.01388 0
M  V30 7652 C 700.786 -0.294009 -3.45451 0
M  V30 7653 C 699.847 -1.3704 -4.0684 0
M  V30 7654 C 699.08 -0.86558 -5.26634 0
M  V30 7655 O 699.303 0.29702 -5.69626 0
M  V30 7656 O 698.237 -1.63968 -5.79136 0
M  V30 7657 H 702.063 -1.74454 -2.48595 0
M  V30 7658 H 699.648 -0.911155 -1.18399 0
M  V30 7659 H 701.53 -0.00381039 -4.214 0
M  V30 7660 H 700.205 0.598921 -3.18111 0
M  V30 7661 H 699.112 -1.71391 -3.3253 0
M  V30 7662 H 700.445 -2.23746 -4.38405 0
M  V30 7663 N 702.098 1.27442 -0.927168 0
M  V30 7664 C 703.045 2.26863 -0.424459 0
M  V30 7665 C 704.015 1.5813 0.508346 0
M  V30 7666 O 705.2 1.85946 0.42762 0
M  V30 7667 C 702.34 3.43639 0.31718 0
M  V30 7668 C 701.453 4.27087 -0.649675 0
M  V30 7669 C 700.588 5.31082 0.111753 0
M  V30 7670 C 699.627 6.062 -0.847843 0
M  V30 7671 N 698.764 7.01999 -0.119074 0
M  V30 7672 H 703.604 2.69239 -1.27728 0
M  V30 7673 H 701.141 1.32394 -0.641106 0
M  V30 7674 H 703.099 4.10155 0.763486 0
M  V30 7675 H 701.729 3.02217 1.13424 0
M  V30 7676 H 700.781 3.60491 -1.21451 0
M  V30 7677 H 702.093 4.79242 -1.38307 0
M  V30 7678 H 701.247 6.03544 0.618 0
M  V30 7679 H 699.986 4.7973 0.878114 0
M  V30 7680 H 698.991 5.32577 -1.36534 0
M  V30 7681 H 700.216 6.59642 -1.61398 0
M  V30 7682 H 698.162 6.52977 0.629051 0
M  V30 7683 H 698.079 7.5184 -0.792046 0
M  V30 7684 H 699.347 7.78638 0.366537 0
M  V30 7685 N 703.576 0.692616 1.41565 0
M  V30 7686 C 704.506 0.0397325 2.33466 0
M  V30 7687 C 705.487 -0.770334 1.51657 0
M  V30 7688 O 706.672 -0.723903 1.80203 0
M  V30 7689 C 703.802 -0.899495 3.3545 0
M  V30 7690 C 702.756 -0.196738 4.27548 0
M  V30 7691 C 702.082 -1.25012 5.19881 0
M  V30 7692 C 703.382 0.935158 5.1386 0
M  V30 7693 H 705.076 0.807296 2.88311 0
M  V30 7694 H 702.622 0.389665 1.38628 0
M  V30 7695 H 704.575 -1.36545 3.98665 0
M  V30 7696 H 703.299 -1.69869 2.78948 0
M  V30 7697 H 701.958 0.249158 3.65752 0
M  V30 7698 H 701.606 -2.04177 4.59696 0
M  V30 7699 H 701.306 -0.784931 5.82334 0
M  V30 7700 H 702.83 -1.71665 5.85972 0
M  V30 7701 H 704.244 0.549619 5.70659 0
M  V30 7702 H 702.641 1.32726 5.85238 0
M  V30 7703 H 703.711 1.77613 4.512 0
M  V30 7704 N 705.054 -1.51416 0.437162 0
M  V30 7705 C 706.002 -2.29328 -0.388765 0
M  V30 7706 C 706.996 -1.35171 -1.02104 0
M  V30 7707 O 708.202 -1.52513 -0.956024 0
M  V30 7708 H 704.577 -0.738048 -0.144183 0
M  V30 7709 H 706.548 -2.96995 0.289212 0
M  V30 7710 C 705.297 -3.14741 -1.47761 0
M  V30 7711 H 704.62 -3.8708 -1.00045 0
M  V30 7712 H 706.06 -3.72313 -2.02877 0
M  V30 7713 C 704.519 -2.30105 -2.46076 0
M  V30 7714 O 705.049 -1.96055 -3.50607 0
M  V30 7715 N 703.255 -1.93331 -2.1696 0
M  V30 7716 H 702.802 -2.2122 -1.31983 0
M  V30 7717 H 702.76 -1.36999 -2.82982 0
M  V30 7718 N 706.532 -0.168513 -1.56696 0
M  V30 7719 C 707.778 0.477865 -1.9709 0
M  V30 7720 C 708.111 1.63084 -1.05438 0
M  V30 7721 O 707.386 1.94238 -0.10095 0
M  V30 7722 C 707.669 0.963521 -3.4697 0
M  V30 7723 C 707.522 -0.189443 -4.49401 0
M  V30 7724 C 708.841 1.83813 -3.99876 0
M  V30 7725 H 705.96 0.172229 -0.716593 0
M  V30 7726 H 708.602 -0.254083 -1.88293 0
M  V30 7727 H 706.752 1.58724 -3.54597 0
M  V30 7728 H 708.424 -0.826451 -4.53836 0
M  V30 7729 H 706.667 -0.845366 -4.25483 0
M  V30 7730 H 707.338 0.192446 -5.51664 0
M  V30 7731 H 709.814 1.31235 -3.94863 0
M  V30 7732 H 708.69 2.14697 -5.0517 0
M  V30 7733 H 708.951 2.78289 -3.43523 0
M  V30 7734 N 708.01 1.57248 0.105221 0
M  V30 7735 C 709.287 1.76566 0.841647 0
M  V30 7736 C 709.667 0.747566 1.9742 0
M  V30 7737 O 709.015 -0.225886 2.27381 0
M  V30 7738 C 709.225 3.22016 1.3456 0
M  V30 7739 C 710.573 3.84911 1.79244 0
M  V30 7740 O 711.597 3.25703 1.44207 0
M  V30 7741 O 710.456 4.89008 2.43995 0
M  V30 7742 H 707.55 0.723443 0.400698 0
M  V30 7743 H 710.096 1.69472 0.0878893 0
M  V30 7744 H 708.868 3.87644 0.533685 0
M  V30 7745 H 708.491 3.33703 2.16167 0
M  V30 7746 N 709.488 -0.375779 1.53054 0
M  V30 7747 C 710.734 -1.12114 1.68992 0
M  V30 7748 C 711.067 -1.8926 0.435238 0
M  V30 7749 O 710.342 -1.86044 -0.567278 0
M  V30 7750 C 710.625 -2.08867 2.93337 0
M  V30 7751 C 710.478 -1.35397 4.28938 0
M  V30 7752 C 711.797 -3.09124 3.13257 0
M  V30 7753 H 708.916 -0.406207 0.614951 0
M  V30 7754 H 711.558 -0.403054 1.85676 0
M  V30 7755 H 709.708 -2.70102 2.79244 0
M  V30 7756 H 711.38 -0.770242 4.54824 0
M  V30 7757 H 709.623 -0.655801 4.28814 0
M  V30 7758 H 710.294 -2.06161 5.12056 0
M  V30 7759 H 712.77 -2.57987 3.26469 0
M  V30 7760 H 711.646 -3.74054 4.01715 0
M  V30 7761 H 711.907 -3.78729 2.28072 0
M  V30 7762 N 710.966 -1.44241 -0.634997 0
M  V30 7763 C 712.215 -1.46102 -1.39058 0
M  V30 7764 C 712.528 -0.0959909 -1.95364 0
M  V30 7765 O 713.734 0.00788751 -2.71499 0
M  V30 7766 C 712.19 -2.57195 -2.51751 0
M  V30 7767 C 711.798 -3.99888 -2.01974 0
M  V30 7768 C 713.542 -2.68272 -3.28984 0
M  V30 7769 C 711.449 -5.02412 -3.11987 0
M  V30 7770 H 710.379 -0.543556 -0.522554 0
M  V30 7771 H 713.03 -1.70294 -0.683538 0
M  V30 7772 H 711.412 -2.26237 -3.25012 0
M  V30 7773 H 712.586 -4.40396 -1.35604 0
M  V30 7774 H 710.901 -3.93019 -1.37568 0
M  V30 7775 H 713.498 -3.42042 -4.10988 0
M  V30 7776 H 713.841 -1.73957 -3.78212 0
M  V30 7777 H 714.374 -2.98622 -2.62812 0
M  V30 7778 H 711.113 -5.98342 -2.67707 0
M  V30 7779 H 710.633 -4.66501 -3.77011 0
M  V30 7780 H 712.312 -5.25939 -3.76825 0
M  V30 7781 N 712.444 0.87505 -1.31075 0
M  V30 7782 C 713.721 1.60976 -1.11113 0
M  V30 7783 C 714.101 2.08409 0.336006 0
M  V30 7784 O 713.449 1.85858 1.32924 0
M  V30 7785 C 713.659 2.77166 -2.12085 0
M  V30 7786 C 715.007 3.47254 -2.44335 0
M  V30 7787 O 716.031 2.87367 -2.10472 0
M  V30 7788 O 714.89 4.55276 -3.02301 0
M  V30 7789 H 711.984 0.707982 -0.427424 0
M  V30 7790 H 714.53 0.920957 -1.42536 0
M  V30 7791 H 713.302 2.39494 -3.09449 0
M  V30 7792 H 712.925 3.53737 -1.81538 0
M  V30 7793 N 713.922 1.13953 1.08869 0
M  V30 7794 C 715.199 0.815768 1.77777 0
M  V30 7795 C 715.579 -0.691624 1.99449 0
M  V30 7796 O 714.927 -1.63085 1.60049 0
M  V30 7797 C 715.137 1.60916 3.09689 0
M  V30 7798 C 716.485 1.80549 3.84301 0
M  V30 7799 O 717.509 1.57562 3.19457 0
M  V30 7800 O 716.368 2.18946 5.00724 0
M  V30 7801 H 713.462 0.298445 0.771271 0
M  V30 7802 H 716.008 1.24446 1.15374 0
M  V30 7803 H 714.78 2.6333 2.89435 0
M  V30 7804 H 714.403 1.17578 3.79817 0
M  V30 7805 N 715.4 -1.26948 0.933913 0
M  V30 7806 C 716.64 -1.9585 0.585003 0
M  V30 7807 C 717.004 -1.71722 -0.858802 0
M  V30 7808 O 718.205 -2.34366 -1.31629 0
M  V30 7809 C 716.476 -3.45638 0.909352 0
M  V30 7810 S 718.035 -4.33656 0.669892 0
M  V30 7811 H 714.853 -0.677485 0.215721 0
M  V30 7812 H 717.455 -1.54051 1.20368 0
M  V30 7813 H 716.159 -3.60697 1.9577 0
M  V30 7814 H 715.69 -3.92401 0.280115 0
M  V30 7815 H 717.705 -4.93975 -0.469378 0
M  V30 7816 N 716.879 -0.700114 -1.41195 0
M  V30 7817 C 717.789 -0.0382854 -2.34569 0
M  V30 7818 C 718.805 0.761036 -1.56474 0
M  V30 7819 O 719.981 0.697553 -1.88934 0
M  V30 7820 C 717.046 0.883522 -3.35253 0
M  V30 7821 C 716.107 0.0758957 -4.29233 0
M  V30 7822 C 715.34 0.9538 -5.25108 0
M  V30 7823 O 715.563 2.19326 -5.26547 0
M  V30 7824 O 714.497 0.401049 -6.00562 0
M  V30 7825 H 718.323 -0.808073 -2.92752 0
M  V30 7826 H 715.908 -0.460479 -1.42127 0
M  V30 7827 H 717.79 1.41199 -3.9704 0
M  V30 7828 H 716.465 1.63272 -2.79506 0
M  V30 7829 H 715.372 -0.497274 -3.7078 0
M  V30 7830 H 716.705 -0.634741 -4.8809 0
M  V30 7831 N 718.357 1.51182 -0.445186 0
M  V30 7832 C 719.267 2.31692 0.368255 0
M  V30 7833 C 720.283 1.40942 1.02036 0
M  V30 7834 O 721.459 1.74011 1.01401 0
M  V30 7835 C 718.524 3.14903 1.45041 0
M  V30 7836 C 717.585 4.21442 0.817615 0
M  V30 7837 C 716.818 5.00677 1.8482 0
M  V30 7838 O 717.041 4.80644 3.07145 0
M  V30 7839 O 715.975 5.84559 1.43438 0
M  V30 7840 H 719.801 3.0232 -0.289219 0
M  V30 7841 H 717.386 1.47951 -0.207555 0
M  V30 7842 H 719.268 3.66612 2.07783 0
M  V30 7843 H 717.943 2.47031 2.09182 0
M  V30 7844 H 716.85 3.73791 0.151931 0
M  V30 7845 H 718.183 4.9171 0.219564 0
M  V30 7846 N 719.835 0.176821 1.56605 0
M  V30 7847 C 720.782 -0.751312 2.18229 0
M  V30 7848 C 721.752 -1.22297 1.12395 0
M  V30 7849 O 722.937 -1.29015 1.40569 0
M  V30 7850 C 720.077 -1.97291 2.83143 0
M  V30 7851 C 719.19 -1.54431 4.03454 0
M  V30 7852 C 718.325 -2.72 4.56278 0
M  V30 7853 C 717.364 -2.25657 5.68986 0
M  V30 7854 N 716.501 -3.36338 6.16296 0
M  V30 7855 H 721.341 -0.219033 2.97194 0
M  V30 7856 H 718.878 -0.0963803 1.46784 0
M  V30 7857 H 720.836 -2.68949 3.1894 0
M  V30 7858 H 719.466 -2.4788 2.06773 0
M  V30 7859 H 718.518 -0.724273 3.73441 0
M  V30 7860 H 719.83 -1.16417 4.85024 0
M  V30 7861 H 718.984 -3.51806 4.94285 0
M  V30 7862 H 717.723 -3.13277 3.73777 0
M  V30 7863 H 716.728 -1.44299 5.30526 0
M  V30 7864 H 717.953 -1.85432 6.53293 0
M  V30 7865 H 715.899 -3.7718 5.36723 0
M  V30 7866 H 715.816 -3.02435 6.9287 0
M  V30 7867 H 717.084 -4.16413 6.58954 0
M  V30 7868 N 721.313 -1.57302 -0.09688 0
M  V30 7869 C 722.245 -1.98618 -1.14384 0
M  V30 7870 C 723.258 -0.888483 -1.36418 0
M  V30 7871 O 724.447 -1.16661 -1.35101 0
M  V30 7872 C 721.547 -2.28838 -2.49973 0
M  V30 7873 C 720.72 -3.60132 -2.48241 0
M  V30 7874 C 719.779 -3.7831 -3.65743 0
M  V30 7875 O 718.805 -4.50183 -3.48316 0
M  V30 7876 N 720.007 -3.18752 -4.85157 0
M  V30 7877 H 722.772 -2.8904 -0.792202 0
M  V30 7878 H 720.333 -1.59356 -0.285883 0
M  V30 7879 H 722.325 -2.38193 -3.27179 0
M  V30 7880 H 720.895 -1.44431 -2.77233 0
M  V30 7881 H 720.115 -3.61763 -1.56593 0
M  V30 7882 H 721.403 -4.46389 -2.4416 0
M  V30 7883 H 720.801 -2.60368 -5.0222 0
M  V30 7884 H 719.358 -3.33595 -5.59962 0
M  V30 7885 N 722.791 0.367657 -1.53252 0
M  V30 7886 C 723.721 1.45632 -1.8252 0
M  V30 7887 C 724.702 1.55979 -0.678568 0
M  V30 7888 O 725.887 1.70581 -0.928217 0
M  V30 7889 C 723.017 2.82994 -2.01325 0
M  V30 7890 C 721.971 2.87473 -3.17086 0
M  V30 7891 C 721.297 4.2749 -3.21179 0
M  V30 7892 C 722.597 2.55182 -4.55719 0
M  V30 7893 H 724.291 1.21387 -2.73689 0
M  V30 7894 H 721.837 0.58251 -1.31692 0
M  V30 7895 H 723.79 3.59179 -2.20383 0
M  V30 7896 H 722.514 3.08622 -1.06864 0
M  V30 7897 H 721.173 2.13739 -2.97844 0
M  V30 7898 H 720.821 4.5019 -2.24361 0
M  V30 7899 H 720.521 4.31403 -3.98955 0
M  V30 7900 H 722.045 5.0555 -3.42419 0
M  V30 7901 H 723.459 3.21081 -4.74953 0
M  V30 7902 H 721.856 2.70414 -5.3572 0
M  V30 7903 H 722.926 1.5044 -4.60973 0
M  V30 7904 N 724.269 1.44576 0.627338 0
M  V30 7905 C 725.515 1.47777 1.38888 0
M  V30 7906 C 725.848 0.111406 1.9388 0
M  V30 7907 O 725.123 -0.87149 1.73883 0
M  V30 7908 C 725.406 2.54119 2.55138 0
M  V30 7909 C 725.259 4.00128 2.0547 0
M  V30 7910 C 726.578 2.56929 3.57317 0
M  V30 7911 H 723.697 0.538048 0.50366 0
M  V30 7912 H 726.339 1.76277 0.708978 0
M  V30 7913 H 724.489 2.29948 3.13139 0
M  V30 7914 H 726.161 4.35444 1.5227 0
M  V30 7915 H 724.404 4.11724 1.36623 0
M  V30 7916 H 725.075 4.7019 2.89181 0
M  V30 7917 H 727.551 2.78536 3.09122 0
M  V30 7918 H 726.427 3.33234 4.36173 0
M  V30 7919 H 726.688 1.6127 4.11636 0
M  V30 7920 N 725.747 -0.868086 1.31537 0
M  V30 7921 C 726.71 -1.95703 1.19302 0
M  V30 7922 C 727.71 -1.60355 0.119612 0
M  V30 7923 O 728.9 -1.70247 0.36902 0
M  V30 7924 C 726.032 -3.30599 0.831684 0
M  V30 7925 H 727.225 -2.07982 2.16064 0
M  V30 7926 H 724.778 -1.05661 1.15176 0
M  V30 7927 H 725.513 -3.2402 -0.134694 0
M  V30 7928 H 725.298 -3.57629 1.60761 0
M  V30 7929 H 726.788 -4.10439 0.770026 0
M  V30 7930 N 727.225 -1.14528 -1.08264 0
M  V30 7931 C 728.474 -0.908992 -1.80056 0
M  V30 7932 C 728.787 0.565859 -1.87236 0
M  V30 7933 O 729.993 0.919454 -2.55457 0
M  V30 7934 C 728.449 -1.57681 -3.23519 0
M  V30 7935 C 728.057 -3.08803 -3.24569 0
M  V30 7936 C 729.801 -1.4217 -3.99985 0
M  V30 7937 C 727.708 -3.68414 -4.62629 0
M  V30 7938 H 726.638 -0.336432 -0.674781 0
M  V30 7939 H 729.289 -1.37437 -1.21587 0
M  V30 7940 H 727.671 -1.03911 -3.82124 0
M  V30 7941 H 728.845 -3.69252 -2.75663 0
M  V30 7942 H 727.16 -3.23968 -2.61598 0
M  V30 7943 H 729.757 -1.84106 -5.02005 0
M  V30 7944 H 730.1 -0.367989 -4.1467 0
M  V30 7945 H 730.633 -1.92984 -3.47853 0
M  V30 7946 H 727.372 -4.73644 -4.53147 0
M  V30 7947 H 726.892 -3.12746 -5.11811 0
M  V30 7948 H 728.571 -3.68793 -5.31602 0
M  V30 7949 N 728.703 1.26451 -0.940633 0
M  V30 7950 C 729.633 2.28773 -0.467479 0
M  V30 7951 C 730.614 1.63218 0.478955 0
M  V30 7952 O 731.799 1.90427 0.380929 0
M  V30 7953 C 728.929 3.46259 0.268656 0
M  V30 7954 C 727.883 4.23898 -0.591171 0
M  V30 7955 C 727.209 5.33993 0.274891 0
M  V30 7956 C 728.509 4.87974 -1.86223 0
M  V30 7957 H 730.203 2.68601 -1.32265 0
M  V30 7958 H 727.749 1.29123 -0.637436 0
M  V30 7959 H 729.702 4.16951 0.610696 0
M  V30 7960 H 728.426 3.05383 1.15796 0
M  V30 7961 H 727.085 3.54969 -0.916098 0
M  V30 7962 H 726.733 4.89358 1.16353 0
M  V30 7963 H 726.433 5.86849 -0.297006 0
M  V30 7964 H 727.957 6.07523 0.612213 0
M  V30 7965 H 729.371 5.50883 -1.58747 0
M  V30 7966 H 727.768 5.50945 -2.37866 0
M  V30 7967 H 728.838 4.10945 -2.57394 0
M  V30 7968 N 730.181 0.707592 1.40822 0
M  V30 7969 C 731.128 0.0499029 2.30746 0
M  V30 7970 C 732.098 -0.758718 1.47759 0
M  V30 7971 O 733.283 -0.724299 1.76518 0
M  V30 7972 C 730.423 -0.871756 3.33908 0
M  V30 7973 C 729.536 -0.0534655 4.31967 0
M  V30 7974 C 728.671 -0.973869 5.22197 0
M  V30 7975 C 727.71 -0.149194 6.11918 0
M  V30 7976 N 726.847 -1.02404 6.94592 0
M  V30 7977 H 731.687 0.822461 2.86426 0
M  V30 7978 H 729.224 0.417285 1.41057 0
M  V30 7979 H 731.182 -1.42028 3.9228 0
M  V30 7980 H 729.812 -1.61058 2.7975 0
M  V30 7981 H 728.864 0.612142 3.75442 0
M  V30 7982 H 730.176 0.585354 4.95353 0
M  V30 7983 H 729.33 -1.59121 5.85462 0
M  V30 7984 H 728.069 -1.64652 4.59065 0
M  V30 7985 H 727.074 0.481137 5.47691 0
M  V30 7986 H 728.299 0.519841 6.77107 0
M  V30 7987 H 726.245 -1.6825 6.34057 0
M  V30 7988 H 726.162 -0.441076 7.54712 0
M  V30 7989 H 727.43 -1.62782 7.62314 0
M  V30 7990 N 731.66 -1.50943 0.453197 0
M  V30 7991 C 732.57 -2.31884 -0.355963 0
M  V30 7992 C 733.586 -1.41481 -1.01287 0
M  V30 7993 O 734.762 -1.74546 -1.00477 0
M  V30 7994 C 731.827 -3.15668 -1.43369 0
M  V30 7995 C 730.888 -4.2187 -0.795253 0
M  V30 7996 C 730.121 -5.0165 -1.82162 0
M  V30 7997 O 730.344 -4.82266 -3.04592 0
M  V30 7998 O 729.278 -5.85311 -1.40336 0
M  V30 7999 H 733.104 -3.02162 0.305248 0
M  V30 8000 H 730.689 -1.47839 0.215398 0
M  V30 8001 H 732.571 -3.67709 -2.05836 0
M  V30 8002 H 731.246 -2.48137 -2.07869 0
M  V30 8003 H 730.153 -3.73867 -0.132106 0
M  V30 8004 H 731.486 -4.9182 -0.193484 0
M  V30 8005 N 733.138 -0.185124 -1.56509 0
M  V30 8006 C 734.415 0.503348 -1.89013 0
M  V30 8007 C 734.795 1.80349 -1.09715 0
M  V30 8008 O 734.143 2.27665 -0.195203 0
M  V30 8009 C 734.353 0.731839 -3.41241 0
M  V30 8010 C 735.701 1.05568 -4.11267 0
M  V30 8011 O 736.725 0.819906 -3.46635 0
M  V30 8012 O 735.584 1.50116 -5.25478 0
M  V30 8013 H 732.678 0.261139 -0.784688 0
M  V30 8014 H 735.224 -0.224592 -1.68207 0
M  V30 8015 H 733.996 -0.18672 -3.90854 0
M  V30 8016 H 733.619 1.5126 -3.67704 0
M  V30 8017 N 734.616 1.57351 0.0885366 0
M  V30 8018 C 735.546 2.05561 1.10757 0
M  V30 8019 C 736.527 0.945789 1.41382 0
M  V30 8020 O 737.712 1.21747 1.51299 0
M  V30 8021 C 734.842 2.48554 2.42566 0
M  V30 8022 C 733.796 3.63259 2.26334 0
M  V30 8023 C 733.122 3.9225 3.63378 0
M  V30 8024 C 734.422 4.93913 1.69844 0
M  V30 8025 H 736.116 2.90946 0.706468 0
M  V30 8026 H 733.662 1.39968 0.338385 0
M  V30 8027 H 735.615 2.8089 3.14132 0
M  V30 8028 H 734.339 1.60176 2.84625 0
M  V30 8029 H 732.998 3.31179 1.57213 0
M  V30 8030 H 732.646 3.0103 4.02976 0
M  V30 8031 H 732.346 4.69478 3.53362 0
M  V30 8032 H 733.87 4.27067 4.36401 0
M  V30 8033 H 735.284 5.24588 2.31258 0
M  V30 8034 H 733.681 5.75349 1.70569 0
M  V30 8035 H 734.751 4.80409 0.65843 0
M  V30 8036 N 736.094 -0.359525 1.53444 0
M  V30 8037 C 737.505 -0.936009 1.61542 0
M  V30 8038 C 737.856 -1.90069 0.486633 0
M  V30 8039 O 736.981 -2.12929 -0.386047 0
M  V30 8040 C 737.576 -1.70441 2.92806 0
M  V30 8041 C 736.135 -2.23015 3.03218 0
M  V30 8042 C 735.282 -1.04438 2.56881 0
M  V30 8043 H 738.233 -0.138134 1.58098 0
M  V30 8044 H 738.254 -2.56609 2.80948 0
M  V30 8045 H 737.766 -1.00205 3.74941 0
M  V30 8046 H 735.867 -2.96475 2.25684 0
M  V30 8047 H 735.98 -2.50481 4.08407 0
M  V30 8048 H 734.344 -1.41314 2.11902 0
M  V30 8049 H 735.127 -0.356905 3.4144 0
M  V30 8050 N 737.572 -1.44907 -0.619662 0
M  V30 8051 C 738.849 -1.38766 -1.37852 0
M  V30 8052 C 739.229 -0.0521393 -2.11036 0
M  V30 8053 O 738.577 0.965613 -2.07095 0
M  V30 8054 C 738.787 -2.59344 -2.33541 0
M  V30 8055 C 740.135 -3.03909 -2.96521 0
M  V30 8056 O 741.159 -2.59631 -2.43865 0
M  V30 8057 O 740.018 -3.80713 -3.92071 0
M  V30 8058 H 737.112 -0.550083 -0.617525 0
M  V30 8059 H 739.658 -1.57015 -0.643759 0
M  V30 8060 H 738.43 -3.48142 -1.78642 0
M  V30 8061 H 738.053 -2.43367 -3.14417 0
M  V30 8062 N 739.05 0.861098 -1.31996 0
M  V30 8063 C 740.461 1.43065 -1.19955 0
M  V30 8064 C 740.812 1.95273 0.190489 0
M  V30 8065 O 739.937 1.87012 1.08882 0
M  V30 8066 C 740.532 2.60052 -2.1716 0
M  V30 8067 C 739.091 3.13026 -2.09026 0
M  V30 8068 C 738.238 1.85756 -2.05888 0
M  V30 8069 H 741.189 0.668834 -1.43918 0
M  V30 8070 H 741.21 3.37016 -1.76637 0
M  V30 8071 H 740.722 2.22024 -3.18319 0
M  V30 8072 H 738.823 3.55653 -1.11092 0
M  V30 8073 H 738.936 3.74707 -2.98549 0
M  V30 8074 H 737.3 2.05088 -1.51033 0
M  V30 8075 H 738.083 1.49954 -3.08818 0
M  V30 8076 N 740.528 1.15101 1.07655 0
M  V30 8077 C 741.944 0.893004 1.32279 0
M  V30 8078 C 742.144 -0.461701 1.96139 0
M  V30 8079 O 741.2 -1.20431 2.21929 0
M  V30 8080 C 742.513 2.03161 2.21689 0
M  V30 8081 C 744.061 2.06579 2.35147 0
M  V30 8082 C 744.536 3.19754 3.27905 0
M  V30 8083 N 746.027 3.19382 3.35484 0
M  V30 8084 C 746.762 4.03592 4.07309 0
M  V30 8085 N 746.258 4.97859 4.81776 0
M  V30 8086 N 748.051 3.91626 4.03219 0
M  V30 8087 H 740.202 2.02341 0.645886 0
M  V30 8088 H 742.465 0.882127 0.347211 0
M  V30 8089 H 742.171 3.00934 1.82021 0
M  V30 8090 H 742.045 1.96132 3.22199 0
M  V30 8091 H 744.432 1.09408 2.74069 0
M  V30 8092 H 744.513 2.17676 1.34353 0
M  V30 8093 H 744.157 4.17175 2.89702 0
M  V30 8094 H 744.087 3.05893 4.28645 0
M  V30 8095 H 746.578 2.51112 2.82403 0
M  V30 8096 H 746.891 5.58563 5.34067 0
M  V30 8097 H 745.236 5.0185 4.80803 0
M  V30 8098 H 748.427 3.17295 3.44154 0
M  V30 8099 H 748.6 4.57479 4.5893 0
M  V30 8100 N 742.006 -1.2595 0.947325 0
M  V30 8101 C 743.231 -1.98083 0.614633 0
M  V30 8102 C 743.656 -1.70013 -0.804815 0
M  V30 8103 O 743.014 -0.95175 -1.54309 0
M  V30 8104 C 743.062 -3.4993 0.870706 0
M  V30 8105 O 742.166 -4.12364 -0.0541451 0
M  V30 8106 H 741.507 -0.621232 0.234451 0
M  V30 8107 H 744.037 -1.60259 1.27193 0
M  V30 8108 H 744.047 -4.00198 0.794051 0
M  V30 8109 H 742.722 -3.69691 1.90529 0
M  V30 8110 H 741.299 -3.72826 0.0740917 0
M  V30 8111 N 743.484 -0.715051 -1.40445 0
M  V30 8112 C 744.447 -0.0708726 -2.2909 0
M  V30 8113 C 745.447 0.687926 -1.45342 0
M  V30 8114 O 746.637 0.519908 -1.66261 0
M  V30 8115 C 743.769 0.909528 -3.28543 0
M  V30 8116 H 744.962 -0.851611 -2.87555 0
M  V30 8117 H 742.515 -0.479674 -1.48758 0
M  V30 8118 H 743.25 1.71734 -2.75096 0
M  V30 8119 H 743.035 0.368318 -3.90366 0
M  V30 8120 H 744.525 1.35744 -3.94922 0
M  V30 8121 N 744.962 1.50701 -0.461195 0
M  V30 8122 C 745.872 2.32069 0.343661 0
M  V30 8123 C 746.888 1.42016 1.00535 0
M  V30 8124 O 748.064 1.75077 0.995498 0
M  V30 8125 C 745.129 3.16424 1.41692 0
M  V30 8126 C 744.19 4.22286 0.772869 0
M  V30 8127 C 743.423 5.02609 1.79499 0
M  V30 8128 O 743.646 4.83874 3.0203 0
M  V30 8129 O 742.58 5.86047 1.3723 0
M  V30 8130 H 746.406 3.01996 -0.321268 0
M  V30 8131 H 743.991 1.47723 -0.223235 0
M  V30 8132 H 745.873 3.68795 2.03883 0
M  V30 8133 H 744.548 2.49236 2.0655 0
M  V30 8134 H 743.455 3.73931 0.112277 0
M  V30 8135 H 744.788 4.91915 0.167399 0
M  V30 8136 N 746.441 0.193421 1.56409 0
M  V30 8137 C 747.371 -0.723334 2.22014 0
M  V30 8138 C 748.352 -1.22254 1.1827 0
M  V30 8139 O 749.537 -1.27168 1.46771 0
M  V30 8140 C 746.667 -1.94366 2.87818 0
M  V30 8141 C 745.621 -1.57943 3.97791 0
M  V30 8142 C 744.947 -2.87623 4.50752 0
M  V30 8143 C 746.247 -0.790639 5.16281 0
M  V30 8144 H 747.941 -0.176426 2.9888 0
M  V30 8145 H 745.487 -0.0834166 1.43758 0
M  V30 8146 H 747.44 -2.5902 3.32396 0
M  V30 8147 H 746.164 -2.51507 2.08355 0
M  V30 8148 H 744.823 -0.956482 3.53903 0
M  V30 8149 H 744.471 -3.4285 3.68053 0
M  V30 8150 H 744.171 -2.63998 5.24956 0
M  V30 8151 H 745.695 -3.53268 4.9803 0
M  V30 8152 H 747.109 -1.34024 5.57414 0
M  V30 8153 H 745.506 -0.65258 5.96541 0
M  V30 8154 H 746.576 0.208633 4.84451 0
M  V30 8155 N 747.919 -1.57396 -0.0801906 0
M  V30 8156 C 749.149 -1.90778 -0.792924 0
M  V30 8157 C 749.557 -0.786814 -1.72064 0
M  V30 8158 O 748.9 0.249259 -1.82001 0
M  V30 8159 C 748.962 -3.19552 -1.64702 0
M  V30 8160 C 748.626 -4.48259 -0.889567 0
M  V30 8161 C 749.623 -5.19465 -0.212602 0
M  V30 8162 C 747.308 -4.94896 -0.859229 0
M  V30 8163 C 749.302 -6.35555 0.484566 0
M  V30 8164 C 746.989 -6.10895 -0.158284 0
M  V30 8165 C 747.987 -6.81075 0.512421 0
M  V30 8166 O 747.675 -7.94862 1.20209 0
M  V30 8167 H 747.407 -0.63527 -0.231103 0
M  V30 8168 H 749.961 -2.0532 -0.0573081 0
M  V30 8169 H 748.191 -3.01196 -2.42524 0
M  V30 8170 H 749.88 -3.38649 -2.23767 0
M  V30 8171 H 750.646 -4.84467 -0.227403 0
M  V30 8172 H 746.525 -4.4015 -1.37073 0
M  V30 8173 H 750.069 -6.9027 1.00864 0
M  V30 8174 H 745.966 -6.45345 -0.141381 0
M  V30 8175 H 746.734 -8.10932 1.11051 0
M  V30 8176 N 749.397 0.351382 -1.53633 0
M  V30 8177 C 750.307 1.45471 -1.84052 0
M  V30 8178 C 751.323 1.57945 -0.730015 0
M  V30 8179 O 752.499 1.73571 -1.02153 0
M  V30 8180 C 749.564 2.80562 -2.03681 0
M  V30 8181 C 748.625 2.77497 -3.27558 0
M  V30 8182 C 747.858 4.06144 -3.46241 0
M  V30 8183 O 748.081 5.03028 -2.68922 0
M  V30 8184 O 747.015 4.11092 -4.39645 0
M  V30 8185 H 750.841 1.22684 -2.77817 0
M  V30 8186 H 748.426 0.542827 -1.3919 0
M  V30 8187 H 750.308 3.6058 -2.18082 0
M  V30 8188 H 748.983 3.03296 -1.13106 0
M  V30 8189 H 747.89 1.96126 -3.18568 0
M  V30 8190 H 749.223 2.59716 -4.18101 0
M  V30 8191 N 750.875 1.45233 0.611969 0
M  V30 8192 C 752.122 1.49021 1.37109 0
M  V30 8193 C 752.45 0.130227 1.94064 0
M  V30 8194 O 751.705 -0.870551 1.75271 0
M  V30 8195 C 752.004 2.51353 2.54079 0
M  V30 8196 C 751.67 3.96178 2.15299 0
M  V30 8197 C 750.332 4.35614 2.04436 0
M  V30 8198 C 752.684 4.87275 1.84966 0
M  V30 8199 C 750.012 5.64047 1.61456 0
M  V30 8200 C 752.364 6.16115 1.43474 0
M  V30 8201 C 751.028 6.54486 1.31167 0
M  V30 8202 H 750.298 0.545307 0.501719 0
M  V30 8203 H 752.945 1.78555 0.692122 0
M  V30 8204 H 751.25 2.15372 3.27295 0
M  V30 8205 H 752.947 2.51523 3.12309 0
M  V30 8206 H 749.537 3.6499 2.24678 0
M  V30 8207 H 753.721 4.57548 1.92258 0
M  V30 8208 H 748.977 5.92575 1.50547 0
M  V30 8209 H 753.151 6.86149 1.19048 0
M  V30 8210 H 750.778 7.53904 0.97637 0
M  V30 8211 N 752.353 -0.854086 1.3245 0
M  V30 8212 C 753.769 -1.14238 1.11453 0
M  V30 8213 C 753.969 -2.01228 -0.10461 0
M  V30 8214 O 753.025 -2.39845 -0.789339 0
M  V30 8215 C 754.338 -1.81916 2.39431 0
M  V30 8216 C 755.886 -1.94549 2.45193 0
M  V30 8217 C 756.361 -2.65642 3.73093 0
M  V30 8218 N 757.852 -2.73167 3.74078 0
M  V30 8219 C 758.587 -3.28828 4.69744 0
M  V30 8220 N 758.083 -3.85295 5.75778 0
M  V30 8221 N 759.876 -3.26936 4.57241 0
M  V30 8222 H 752.027 -0.274786 2.10615 0
M  V30 8223 H 754.29 -0.184375 0.929898 0
M  V30 8224 H 753.996 -1.25452 3.28565 0
M  V30 8225 H 753.87 -2.82068 2.50434 0
M  V30 8226 H 756.257 -2.50172 1.56518 0
M  V30 8227 H 756.338 -0.933914 2.38142 0
M  V30 8228 H 755.982 -2.10683 4.62142 0
M  V30 8229 H 755.912 -3.6724 3.77415 0
M  V30 8230 H 758.403 -2.33108 2.97438 0
M  V30 8231 H 758.716 -4.25925 6.44832 0
M  V30 8232 H 757.061 -3.83625 5.79531 0
M  V30 8233 H 760.252 -2.8207 3.7357 0
M  V30 8234 H 760.425 -3.70014 5.31971 0
M  V30 8235 N 753.831 -1.1567 -1.07043 0
M  V30 8236 C 755.078 -0.933517 -1.79699 0
M  V30 8237 C 755.406 0.539162 -1.86878 0
M  V30 8238 O 754.661 1.41592 -1.35093 0
M  V30 8239 C 754.96 -1.49677 -3.24548 0
M  V30 8240 C 754.626 -2.99047 -3.37463 0
M  V30 8241 C 753.288 -3.39824 -3.40695 0
M  V30 8242 C 755.64 -3.95027 -3.40004 0
M  V30 8243 C 752.968 -4.75215 -3.44075 0
M  V30 8244 C 755.32 -5.30295 -3.44921 0
M  V30 8245 C 753.984 -5.70562 -3.46432 0
M  V30 8246 H 753.254 -0.341598 -0.657565 0
M  V30 8247 H 755.901 -1.44263 -1.25938 0
M  V30 8248 H 754.206 -0.908915 -3.81111 0
M  V30 8249 H 755.903 -1.29986 -3.79348 0
M  V30 8250 H 752.493 -2.6653 -3.35648 0
M  V30 8251 H 756.677 -3.64596 -3.36725 0
M  V30 8252 H 751.933 -5.05754 -3.43545 0
M  V30 8253 H 756.107 -6.0446 -3.45833 0
M  V30 8254 H 753.734 -6.75456 -3.48803 0
M  V30 8255 N 755.309 1.25446 -0.953992 0
M  V30 8256 C 756.534 1.97755 -0.625129 0
M  V30 8257 C 756.959 1.70437 0.795787 0
M  V30 8258 O 756.317 0.95992 1.53803 0
M  V30 8259 C 756.365 3.49463 -0.889251 0
M  V30 8260 O 755.469 4.12387 0.0322757 0
M  V30 8261 H 754.81 0.61998 -0.237742 0
M  V30 8262 H 757.34 1.59582 -1.28041 0
M  V30 8263 H 757.35 3.99772 -0.815263 0
M  V30 8264 H 756.025 3.68676 -1.92487 0
M  V30 8265 H 754.602 3.72782 -0.0938625 0
M  V30 8266 N 756.787 0.722489 1.40064 0
M  V30 8267 C 758.064 0.191829 1.94657 0
M  V30 8268 C 758.444 -1.30389 1.66018 0
M  V30 8269 O 757.792 -2.06342 0.981588 0
M  V30 8270 C 758.002 0.511978 3.45224 0
M  V30 8271 C 759.35 0.454426 4.22161 0
M  V30 8272 O 760.374 0.448438 3.53366 0
M  V30 8273 O 759.233 0.437986 5.44742 0
M  V30 8274 H 756.327 0.0307821 0.826427 0
M  V30 8275 H 758.873 0.800493 1.49634 0
M  V30 8276 H 757.645 1.54622 3.59455 0
M  V30 8277 H 757.268 -0.126296 3.97399 0
M  V30 8278 N 758.265 -1.50454 0.469181 0
M  V30 8279 C 759.512 -2.02315 -0.086469 0
M  V30 8280 C 759.84 -1.3513 -1.39893 0
M  V30 8281 O 759.095 -0.465341 -1.90087 0
M  V30 8282 C 759.394 -3.55963 -0.320207 0
M  V30 8283 C 759.06 -4.41615 0.910318 0
M  V30 8284 C 757.722 -4.64743 1.2477 0
M  V30 8285 C 760.074 -4.91661 1.72971 0
M  V30 8286 C 757.402 -5.35161 2.40457 0
M  V30 8287 C 759.754 -5.6335 2.87785 0
M  V30 8288 C 758.418 -5.84732 3.2194 0
M  V30 8289 H 757.688 -0.740324 -0.0316412 0
M  V30 8290 H 760.335 -1.81087 0.622872 0
M  V30 8291 H 758.64 -3.75695 -1.11177 0
M  V30 8292 H 760.337 -3.93653 -0.764071 0
M  V30 8293 H 756.927 -4.23833 0.637467 0
M  V30 8294 H 761.111 -4.73649 1.48224 0
M  V30 8295 H 756.367 -5.49924 2.67196 0
M  V30 8296 H 760.541 -6.0111 3.51624 0
M  V30 8297 H 758.168 -6.39074 4.1169 0
M  V30 8298 N 759.743 -0.201713 -1.56304 0
M  V30 8299 C 761.154 0.309711 -1.84113 0
M  V30 8300 C 761.505 1.60912 -1.12258 0
M  V30 8301 O 760.63 2.12937 -0.385587 0
M  V30 8302 C 761.225 0.568706 -3.33993 0
M  V30 8303 C 759.784 1.02448 -3.6219 0
M  V30 8304 C 758.931 0.0766842 -2.77194 0
M  V30 8305 H 761.882 -0.425356 -1.52893 0
M  V30 8306 H 761.903 1.41721 -3.53122 0
M  V30 8307 H 761.415 -0.37719 -3.86263 0
M  V30 8308 H 759.516 1.98443 -3.15359 0
M  V30 8309 H 759.629 0.912619 -4.70328 0
M  V30 8310 H 757.993 0.579809 -2.48013 0
M  V30 8311 H 758.776 -0.863774 -3.32256 0
M  V30 8312 N 761.222 1.57436 0.0718424 0
M  V30 8313 C 762.152 2.06724 1.08571 0
M  V30 8314 C 763.133 0.960731 1.40371 0
M  V30 8315 O 764.318 1.23345 1.49999 0
M  V30 8316 C 761.448 2.51112 2.39916 0
M  V30 8317 C 760.402 3.65639 2.22469 0
M  V30 8318 C 759.728 3.96082 3.59198 0
M  V30 8319 C 761.028 4.95687 1.64596 0
M  V30 8320 H 762.722 2.91679 0.675569 0
M  V30 8321 H 760.268 1.40319 0.32352 0
M  V30 8322 H 762.221 2.84206 3.11135 0
M  V30 8323 H 760.945 1.63186 2.8291 0
M  V30 8324 H 759.604 3.32828 1.53691 0
M  V30 8325 H 759.252 3.05287 3.99761 0
M  V30 8326 H 758.952 4.73199 3.48362 0
M  V30 8327 H 760.476 4.31672 4.31847 0
M  V30 8328 H 761.89 5.27011 2.25681 0
M  V30 8329 H 760.287 5.77126 1.64457 0
M  V30 8330 H 761.357 4.8108 0.60744 0
M  V30 8331 N 762.7 -0.34323 1.53817 0
M  V30 8332 C 763.928 -1.10348 1.75017 0
M  V30 8333 C 764.343 -1.82345 0.489475 0
M  V30 8334 O 763.7 -1.74362 -0.538886 0
M  V30 8335 C 763.751 -2.11672 2.93048 0
M  V30 8336 O 763.472 -1.42603 4.14241 0
M  V30 8337 C 764.973 -3.0007 3.26301 0
M  V30 8338 H 762.193 -0.329056 0.584776 0
M  V30 8339 H 764.737 -0.395339 2.00642 0
M  V30 8340 H 762.892 -2.78051 2.69753 0
M  V30 8341 H 763.306 -2.10294 4.80496 0
M  V30 8342 H 764.78 -3.67101 4.12239 0
M  V30 8343 H 765.257 -3.66105 2.42618 0
M  V30 8344 H 765.863 -2.3928 3.51604 0
M  V30 8345 N 764.178 -1.45556 -0.604258 0
M  V30 8346 C 765.088 -1.57025 -1.74299 0
M  V30 8347 C 766.104 -0.45456 -1.67958 0
M  V30 8348 O 767.28 -0.715711 -1.88254 0
M  V30 8349 C 764.345 -1.53702 -3.10768 0
M  V30 8350 C 763.406 -2.76335 -3.28538 0
M  V30 8351 C 762.639 -2.73161 -4.58496 0
M  V30 8352 O 762.862 -1.80678 -5.41028 0
M  V30 8353 O 761.796 -3.64409 -4.79051 0
M  V30 8354 H 765.622 -2.53284 -1.67573 0
M  V30 8355 H 763.207 -1.28104 -0.768745 0
M  V30 8356 H 765.089 -1.54468 -3.92068 0
M  V30 8357 H 763.764 -0.605957 -3.17978 0
M  V30 8358 H 762.671 -2.8113 -2.46813 0
M  V30 8359 H 764.004 -3.68578 -3.26207 0
M  V30 8360 N 765.656 0.84705 -1.32902 0
M  V30 8361 C 766.606 1.94451 -1.19049 0
M  V30 8362 C 767.59 1.60617 -0.095461 0
M  V30 8363 O 768.782 1.74033 -0.322739 0
M  V30 8364 C 765.911 3.30645 -0.923509 0
M  V30 8365 C 764.997 3.70675 -2.0606 0
M  V30 8366 N 765.388 3.82468 -3.30986 0
M  V30 8367 C 763.686 4.00357 -1.96547 0
M  V30 8368 C 764.387 4.17056 -4.05511 0
M  V30 8369 N 763.363 4.28985 -3.33876 0
M  V30 8370 H 767.165 2.01713 -2.1375 0
M  V30 8371 H 764.679 1.03928 -1.24791 0
M  V30 8372 H 766.676 4.0905 -0.805212 0
M  V30 8373 H 765.336 3.24697 0.0150523 0
M  V30 8374 H 766.347 3.66589 -3.65832 0
M  V30 8375 H 763.024 4.02666 -1.10299 0
M  V30 8376 H 764.414 4.33585 -5.13277 0
M  V30 8377 N 767.134 1.16236 1.06428 0
M  V30 8378 C 768.382 0.941171 1.78847 0
M  V30 8379 C 768.703 -0.53248 1.87589 0
M  V30 8380 O 767.973 -1.38686 1.38358 0
M  V30 8381 H 766.553 0.345228 0.66244 0
M  V30 8382 H 769.215 1.46479 1.28569 0
M  V30 8383 H 768.311 1.35871 2.80972 0
M  V30 8384 N 768.612 -1.24939 0.960631 0
M  V30 8385 C 769.542 -2.28 0.503815 0
M  V30 8386 C 770.523 -1.63959 -0.452928 0
M  V30 8387 O 771.708 -1.91009 -0.350585 0
M  V30 8388 C 768.838 -3.46643 -0.213535 0
M  V30 8389 C 767.792 -4.22903 0.658535 0
M  V30 8390 C 767.118 -5.34363 -0.189902 0
M  V30 8391 C 768.418 -4.84949 1.93963 0
M  V30 8392 H 770.112 -2.66462 1.36521 0
M  V30 8393 H 767.658 -1.28093 0.657897 0
M  V30 8394 H 769.611 -4.1787 -0.544286 0
M  V30 8395 H 768.335 -3.07187 -1.10923 0
M  V30 8396 H 766.994 -3.53467 0.972455 0
M  V30 8397 H 766.642 -4.91147 -1.08553 0
M  V30 8398 H 766.342 -5.86302 0.390331 0
M  V30 8399 H 767.866 -6.0842 -0.515484 0
M  V30 8400 H 769.28 -5.48288 1.67491 0
M  V30 8401 H 767.677 -5.47091 2.46601 0
M  V30 8402 H 768.747 -4.06799 2.639 0
M  V30 8403 N 770.09 -0.729906 -1.39679 0
M  V30 8404 C 771.339 -0.272534 -1.9985 0
M  V30 8405 C 771.652 1.14519 -1.58571 0
M  V30 8406 O 772.858 1.70182 -2.11543 0
M  V30 8407 C 771.314 -0.436322 -3.57245 0
M  V30 8408 C 770.922 -1.86161 -4.0749 0
M  V30 8409 C 772.666 -0.0404679 -4.24481 0
M  V30 8410 C 770.573 -1.97522 -5.5744 0
M  V30 8411 H 769.503 -0.0981428 -0.747585 0
M  V30 8412 H 772.154 -0.903056 -1.59741 0
M  V30 8413 H 770.536 0.263015 -3.95126 0
M  V30 8414 H 771.71 -2.59248 -3.80955 0
M  V30 8415 H 770.025 -2.21021 -3.529 0
M  V30 8416 H 772.622 -0.104437 -5.34598 0
M  V30 8417 H 772.965 1.00357 -4.04023 0
M  V30 8418 H 773.498 -0.690774 -3.91757 0
M  V30 8419 H 770.237 -3.00096 -5.82771 0
M  V30 8420 H 769.757 -1.28864 -5.85794 0
M  V30 8421 H 771.436 -1.754 -6.22771 0
M  V30 8422 N 771.568 1.50203 -0.477153 0
M  V30 8423 C 772.515 2.28656 0.31386 0
M  V30 8424 C 773.485 1.33977 0.981802 0
M  V30 8425 O 774.67 1.62919 0.993072 0
M  V30 8426 C 771.81 3.16027 1.38639 0
M  V30 8427 C 770.923 4.25743 0.732615 0
M  V30 8428 C 770.058 5.00363 1.78355 0
M  V30 8429 C 769.097 6.01945 1.11035 0
M  V30 8430 N 768.234 6.6982 2.10441 0
M  V30 8431 H 773.074 2.958 -0.361445 0
M  V30 8432 H 770.611 1.45867 -0.190093 0
M  V30 8433 H 772.569 3.6504 2.01994 0
M  V30 8434 H 771.199 2.50917 2.03077 0
M  V30 8435 H 770.251 3.80398 -0.0136546 0
M  V30 8436 H 771.563 4.98393 0.201513 0
M  V30 8437 H 770.717 5.53124 2.49276 0
M  V30 8438 H 769.456 4.27432 2.34847 0
M  V30 8439 H 768.461 5.48438 0.386797 0
M  V30 8440 H 769.686 6.76851 0.552248 0
M  V30 8441 H 767.632 5.99677 2.65939 0
M  V30 8442 H 767.549 7.38366 1.62332 0
M  V30 8443 H 768.817 7.27196 2.80724 0
M  V30 8444 N 773.046 0.209999 1.56195 0
M  V30 8445 C 774.286 -0.4268 1.99894 0
M  V30 8446 C 774.65 -1.57763 1.0943 0
M  V30 8447 O 775.851 -2.27964 1.42428 0
M  V30 8448 C 774.122 -0.861188 3.46869 0
M  V30 8449 S 775.681 -1.49372 4.12593 0
M  V30 8450 H 772.499 -0.135922 0.697887 0
M  V30 8451 H 775.101 0.316573 1.9292 0
M  V30 8452 H 773.805 -0.0137653 4.10398 0
M  V30 8453 H 773.336 -1.63766 3.57693 0
M  V30 8454 H 775.351 -2.7827 4.10829 0
M  V30 8455 N 774.524 -1.57472 -0.0634922 0
M  V30 8456 C 775.772 -1.87283 -0.759563 0
M  V30 8457 C 776.093 -0.803135 -1.77693 0
M  V30 8458 O 775.363 0.167293 -1.95184 0
M  V30 8459 H 773.943 -0.691106 -0.283516 0
M  V30 8460 H 776.605 -1.94864 -0.0376091 0
M  V30 8461 H 775.701 -2.85064 -1.27062 0
M  V30 8462 N 776.003 0.335068 -1.53997 0
M  V30 8463 C 777.252 1.07182 -1.70865 0
M  V30 8464 C 777.565 1.89541 -0.483078 0
M  V30 8465 O 778.771 2.66219 -0.532879 0
M  V30 8466 C 777.227 1.95497 -3.02174 0
M  V30 8467 C 776.835 1.18304 -4.32097 0
M  V30 8468 C 778.579 2.68978 -3.28407 0
M  V30 8469 C 776.486 2.05699 -5.54474 0
M  V30 8470 H 775.416 0.403857 -0.636722 0
M  V30 8471 H 778.067 0.33076 -1.80494 0
M  V30 8472 H 776.449 2.73456 -2.86423 0
M  V30 8473 H 777.623 0.451969 -4.58578 0
M  V30 8474 H 775.938 0.565556 -4.12541 0
M  V30 8475 H 778.535 3.34651 -4.17029 0
M  V30 8476 H 778.878 3.36 -2.45784 0
M  V30 8477 H 779.411 1.98087 -3.44973 0
M  V30 8478 H 776.15 1.43204 -6.39666 0
M  V30 8479 H 775.67 2.76572 -5.32229 0
M  V30 8480 H 777.349 2.64554 -5.90441 0
M  V30 8481 N 777.481 1.45874 0.596531 0
M  V30 8482 C 778.897 1.30524 0.918459 0
M  V30 8483 C 779.097 0.266429 1.99731 0
M  V30 8484 O 778.153 -0.335809 2.50257 0
M  V30 8485 C 779.466 2.68747 1.3489 0
M  V30 8486 C 781.014 2.7673 1.46251 0
M  V30 8487 C 781.489 4.15504 1.92667 0
M  V30 8488 N 782.98 4.17853 1.99883 0
M  V30 8489 C 783.715 5.22109 2.37044 0
M  V30 8490 N 783.211 6.36704 2.73094 0
M  V30 8491 N 785.004 5.09471 2.37479 0
M  V30 8492 H 777.155 2.12081 -0.116368 0
M  V30 8493 H 779.418 0.947941 0.0106033 0
M  V30 8494 H 779.124 3.46006 0.630288 0
M  V30 8495 H 778.998 2.97942 2.31323 0
M  V30 8496 H 781.385 1.99768 2.17202 0
M  V30 8497 H 781.466 2.51236 0.481054 0
M  V30 8498 H 781.11 4.92956 1.223 0
M  V30 8499 H 781.04 4.38396 2.91747 0
M  V30 8500 H 783.531 3.35163 1.74568 0
M  V30 8501 H 783.844 7.12041 3.00362 0
M  V30 8502 H 782.189 6.40087 2.70764 0
M  V30 8503 H 785.38 4.18987 2.08728 0
M  V30 8504 H 785.553 5.90837 2.66112 0
M  V30 8505 N 778.959 -0.83999 1.33349 0
M  V30 8506 C 779.889 -1.965 1.26135 0
M  V30 8507 C 780.87 -1.69505 0.142152 0
M  V30 8508 O 782.055 -1.91346 0.331743 0
M  V30 8509 C 779.185 -3.32632 0.99866 0
M  V30 8510 C 778.139 -3.74021 2.08068 0
M  V30 8511 C 777.465 -5.07947 1.67014 0
M  V30 8512 C 778.765 -3.87925 3.49731 0
M  V30 8513 H 780.459 -2.02793 2.20262 0
M  V30 8514 H 778.005 -0.974297 1.06035 0
M  V30 8515 H 779.958 -4.10903 0.934696 0
M  V30 8516 H 778.682 -3.26593 0.0217759 0
M  V30 8517 H 777.341 -2.98012 2.13505 0
M  V30 8518 H 776.989 -4.98378 0.680316 0
M  V30 8519 H 776.689 -5.36611 2.39422 0
M  V30 8520 H 778.213 -5.88695 1.62082 0
M  V30 8521 H 779.627 -4.5651 3.46802 0
M  V30 8522 H 778.024 -4.28023 4.20614 0
M  V30 8523 H 779.094 -2.90407 3.88319 0
M  V30 8524 N 780.437 -1.16799 -1.0581 0
M  V30 8525 C 781.684 -0.952524 -1.78699 0
M  V30 8526 C 782.012 0.51931 -1.87439 0
M  V30 8527 O 781.267 1.40151 -1.36587 0
M  V30 8528 C 781.566 -1.53111 -3.22942 0
M  V30 8529 C 781.232 -3.0261 -3.34273 0
M  V30 8530 C 779.894 -3.43418 -3.37072 0
M  V30 8531 C 782.246 -3.98611 -3.35795 0
M  V30 8532 C 779.574 -4.78838 -3.39015 0
M  V30 8533 C 781.926 -5.33923 -3.39277 0
M  V30 8534 C 780.59 -5.74205 -3.40361 0
M  V30 8535 H 779.86 -0.348553 -0.653905 0
M  V30 8536 H 782.507 -1.45591 -1.244 0
M  V30 8537 H 780.812 -0.949286 -3.80126 0
M  V30 8538 H 782.509 -1.34002 -3.77948 0
M  V30 8539 H 779.099 -2.70075 -3.32803 0
M  V30 8540 H 783.283 -3.68146 -3.32839 0
M  V30 8541 H 778.539 -5.09369 -3.38161 0
M  V30 8542 H 782.713 -6.08094 -3.39403 0
M  V30 8543 H 780.34 -6.79117 -3.4162 0
M  V30 8544 N 781.915 1.24427 -0.967243 0
M  V30 8545 C 783.162 1.92487 -0.62888 0
M  V30 8546 C 783.49 1.75623 0.835871 0
M  V30 8547 O 782.745 1.1027 1.61675 0
M  V30 8548 C 783.044 3.44568 -0.949096 0
M  V30 8549 C 782.71 3.816 -2.40192 0
M  V30 8550 C 781.372 3.9142 -2.799 0
M  V30 8551 C 783.724 3.99715 -3.34481 0
M  V30 8552 C 781.052 4.16771 -4.12939 0
M  V30 8553 C 783.404 4.26562 -4.67148 0
M  V30 8554 C 782.068 4.34601 -5.06634 0
M  V30 8555 H 781.338 0.704361 -0.230124 0
M  V30 8556 H 783.985 1.4772 -1.21864 0
M  V30 8557 H 782.29 3.90819 -0.277085 0
M  V30 8558 H 783.987 3.95436 -0.665692 0
M  V30 8559 H 780.577 3.74522 -2.08402 0
M  V30 8560 H 784.761 3.91531 -3.04987 0
M  V30 8561 H 780.017 4.21214 -4.43158 0
M  V30 8562 H 784.191 4.39523 -5.40178 0
M  V30 8563 H 781.818 4.53998 -6.09746 0
M  V30 8564 N 783.393 0.737304 1.3929 0
M  V30 8565 C 784.303 0.100464 2.34385 0
M  V30 8566 C 785.319 -0.719282 1.58437 0
M  V30 8567 O 786.495 -0.647216 1.90717 0
M  V30 8568 C 783.56 -0.794325 3.37478 0
M  V30 8569 C 782.621 0.0379345 4.29283 0
M  V30 8570 C 781.854 -0.814241 5.27452 0
M  V30 8571 O 782.077 -2.05288 5.32177 0
M  V30 8572 O 781.011 -0.241679 6.01415 0
M  V30 8573 H 784.837 0.885407 2.90507 0
M  V30 8574 H 782.422 0.497999 1.40856 0
M  V30 8575 H 784.304 -1.30622 4.00644 0
M  V30 8576 H 782.979 -1.55804 2.83737 0
M  V30 8577 H 781.886 0.595405 3.69331 0
M  V30 8578 H 783.219 0.763926 4.86236 0
M  V30 8579 N 784.871 -1.49948 0.485112 0
M  V30 8580 C 786.12 -2.01589 -0.066765 0
M  V30 8581 C 786.433 -1.371 -1.39509 0
M  V30 8582 O 787.639 -1.79978 -2.03274 0
M  V30 8583 C 786.095 -3.59501 -0.169476 0
M  V30 8584 C 785.703 -4.32955 1.15126 0
M  V30 8585 C 787.447 -4.19138 -0.672564 0
M  V30 8586 C 785.354 -5.82684 1.01158 0
M  V30 8587 H 784.284 -0.753453 -0.0287259 0
M  V30 8588 H 786.935 -1.72632 0.622132 0
M  V30 8589 H 785.317 -3.85106 -0.922471 0
M  V30 8590 H 786.491 -4.19064 1.9163 0
M  V30 8591 H 784.806 -3.84991 1.58654 0
M  V30 8592 H 787.403 -5.28767 -0.794325 0
M  V30 8593 H 787.746 -3.81447 -1.66745 0
M  V30 8594 H 788.279 -3.97793 0.0234415 0
M  V30 8595 H 785.018 -6.24873 1.98025 0
M  V30 8596 H 784.538 -5.99112 0.287151 0
M  V30 8597 H 786.217 -6.43376 0.683847 0
M  V30 8598 N 786.349 -0.21828 -1.56081 0
M  V30 8599 C 787.297 0.709679 -2.21509 0
M  V30 8600 C 788.291 1.20221 -1.19346 0
M  V30 8601 O 789.497 1.16241 -1.37433 0
M  V30 8602 H 785.872 0.247271 -0.710184 0
M  V30 8603 H 787.843 0.134386 -2.98097 0
M  V30 8604 C 786.592 1.90853 -2.90638 0
M  V30 8605 H 785.915 1.53865 -3.69006 0
M  V30 8606 H 787.355 2.53568 -3.39822 0
M  V30 8607 C 785.814 2.76189 -1.92929 0
M  V30 8608 O 786.344 3.74842 -1.44416 0
M  V30 8609 N 784.55 2.42157 -1.6065 0
M  V30 8610 H 784.097 1.61987 -2.00294 0
M  V30 8611 H 784.055 2.99534 -0.955347 0
M  V30 8612 N 787.827 1.57504 0.0551401 0
M  V30 8613 C 789.073 1.88334 0.752216 0
M  V30 8614 C 789.406 0.812742 1.76375 0
M  V30 8615 O 788.681 -0.175198 1.93709 0
M  V30 8616 C 788.964 3.29824 1.44528 0
M  V30 8617 C 788.817 4.47553 0.449026 0
M  V30 8618 C 790.136 3.69808 2.38601 0
M  V30 8619 H 787.255 0.684973 0.271995 0
M  V30 8620 H 789.897 1.89994 0.0151895 0
M  V30 8621 H 788.047 3.28539 2.07351 0
M  V30 8622 H 789.719 4.60967 -0.175277 0
M  V30 8623 H 787.962 4.33168 -0.234162 0
M  V30 8624 H 788.633 5.43376 0.971917 0
M  V30 8625 H 791.109 3.72293 1.85842 0
M  V30 8626 H 789.985 4.69665 2.84088 0
M  V30 8627 H 790.246 3.00641 3.24141 0
M  V30 8628 N 789.305 -0.326896 1.54172 0
M  V30 8629 C 790.551 -1.06681 1.72473 0
M  V30 8630 C 790.884 -1.87779 0.49523 0
M  V30 8631 O 790.159 -1.87754 -0.507803 0
M  V30 8632 C 790.442 -1.99429 2.99834 0
M  V30 8633 C 790.295 -1.21682 4.33028 0
M  V30 8634 C 791.614 -2.99002 3.22933 0
M  V30 8635 H 788.733 -0.386438 0.627563 0
M  V30 8636 H 791.375 -0.343779 1.86864 0
M  V30 8637 H 789.525 -2.61081 2.87696 0
M  V30 8638 H 791.197 -0.625153 4.57044 0
M  V30 8639 H 789.44 -0.519045 4.30684 0
M  V30 8640 H 790.111 -1.89766 5.18356 0
M  V30 8641 H 792.587 -2.4747 3.34511 0
M  V30 8642 H 791.463 -3.61085 4.13412 0
M  V30 8643 H 791.724 -3.71281 2.40006 0
M  V30 8644 N 790.784 -1.46188 -0.588786 0
M  V30 8645 C 791.694 -1.58865 -1.72624 0
M  V30 8646 C 792.71 -0.472348 -1.67466 0
M  V30 8647 O 793.886 -0.735638 -1.87484 0
M  V30 8648 C 790.951 -1.56989 -3.0912 0
M  V30 8649 C 790.012 -2.79804 -3.25589 0
M  V30 8650 C 789.245 -2.78009 -4.55573 0
M  V30 8651 O 789.468 -1.86406 -5.39082 0
M  V30 8652 O 788.402 -3.6947 -4.75159 0
M  V30 8653 H 792.228 -2.55047 -1.64878 0
M  V30 8654 H 789.813 -1.28912 -0.755115 0
M  V30 8655 H 791.695 -1.58618 -3.90408 0
M  V30 8656 H 790.37 -0.639648 -3.17317 0
M  V30 8657 H 789.277 -2.83732 -2.43818 0
M  V30 8658 H 790.61 -3.72017 -3.22279 0
M  V30 8659 N 792.262 0.832906 -1.33792 0
M  V30 8660 C 793.209 1.94314 -1.24541 0
M  V30 8661 C 794.179 1.65646 -0.122753 0
M  V30 8662 O 795.364 1.88394 -0.30204 0
M  V30 8663 C 792.504 3.30395 -0.996641 0
M  V30 8664 C 791.617 3.71422 -2.20612 0
M  V30 8665 C 790.752 4.96401 -1.89101 0
M  V30 8666 C 789.791 5.2998 -3.06247 0
M  V30 8667 N 788.928 6.46137 -2.74685 0
M  V30 8668 H 793.768 2.01559 -2.19495 0
M  V30 8669 H 791.305 0.986243 -1.09141 0
M  V30 8670 H 793.263 4.08803 -0.832817 0
M  V30 8671 H 791.893 3.22691 -0.0838242 0
M  V30 8672 H 790.945 2.88488 -2.47949 0
M  V30 8673 H 792.257 3.92215 -3.0817 0
M  V30 8674 H 791.411 5.82572 -1.69396 0
M  V30 8675 H 790.15 4.7759 -0.987882 0
M  V30 8676 H 789.155 4.42312 -3.26559 0
M  V30 8677 H 790.38 5.50737 -3.97323 0
M  V30 8678 H 788.326 6.28801 -1.86938 0
M  V30 8679 H 788.243 6.67054 -3.55774 0
M  V30 8680 H 789.511 7.35403 -2.58461 0
M  V30 8681 N 793.74 1.17359 1.05189 0
M  V30 8682 C 794.987 0.961987 1.78191 0
M  V30 8683 C 795.315 -0.509363 1.87712 0
M  V30 8684 O 794.57 -1.39425 1.37329 0
M  V30 8685 C 794.869 1.54821 3.22126 0
M  V30 8686 C 794.535 3.04378 3.32663 0
M  V30 8687 C 793.197 3.45201 3.35246 0
M  V30 8688 C 795.549 4.00387 3.33677 0
M  V30 8689 C 792.877 4.80629 3.36471 0
M  V30 8690 C 795.229 5.35715 3.36441 0
M  V30 8691 C 793.893 5.76002 3.37311 0
M  V30 8692 H 793.163 0.352016 0.652047 0
M  V30 8693 H 795.81 1.46249 1.23627 0
M  V30 8694 H 794.115 0.969432 3.79617 0
M  V30 8695 H 795.812 1.36004 3.77232 0
M  V30 8696 H 792.402 2.71836 3.31366 0
M  V30 8697 H 796.586 3.69906 3.30882 0
M  V30 8698 H 791.842 5.11155 3.35455 0
M  V30 8699 H 796.016 6.09886 3.36173 0
M  V30 8700 H 793.643 6.80919 3.38013 0
M  V30 8701 N 795.218 -1.23913 0.973828 0
M  V30 8702 C 796.165 -2.25132 0.508366 0
M  V30 8703 C 797.135 -1.59908 -0.449307 0
M  V30 8704 O 798.32 -1.87405 -0.358313 0
M  V30 8705 C 795.46 -3.4458 -0.189422 0
M  V30 8706 C 794.573 -4.24381 0.807738 0
M  V30 8707 C 793.708 -5.31131 0.0854315 0
M  V30 8708 C 792.747 -6.02635 1.07225 0
M  V30 8709 N 791.884 -7.01073 0.379535 0
M  V30 8710 H 796.724 -2.64313 1.37632 0
M  V30 8711 H 794.261 -1.29924 0.689802 0
M  V30 8712 H 796.219 -4.12706 -0.610733 0
M  V30 8713 H 794.849 -3.06218 -1.02129 0
M  V30 8714 H 793.901 -3.55735 1.34747 0
M  V30 8715 H 795.213 -4.73778 1.55998 0
M  V30 8716 H 794.367 -6.05422 -0.393572 0
M  V30 8717 H 793.106 -4.82658 -0.699461 0
M  V30 8718 H 792.111 -5.27143 1.56207 0
M  V30 8719 H 793.336 -6.53197 1.85769 0
M  V30 8720 H 791.282 -6.54862 -0.386269 0
M  V30 8721 H 791.199 -7.48382 1.07054 0
M  V30 8722 H 792.467 -7.79462 -0.0772984 0
M  V30 8723 N 796.696 -0.74468 -1.38897 0
M  V30 8724 C 797.942 -0.297324 -2.00609 0
M  V30 8725 C 798.275 1.11547 -1.58968 0
M  V30 8726 O 797.55 1.76227 -0.823057 0
M  V30 8727 C 797.833 -0.410125 -3.57757 0
M  V30 8728 C 797.686 -1.86338 -4.09387 0
M  V30 8729 C 799.005 0.20176 -4.39637 0
M  V30 8730 H 796.124 -0.109509 -0.728819 0
M  V30 8731 H 798.766 -0.942653 -1.64967 0
M  V30 8732 H 796.916 0.139287 -3.8825 0
M  V30 8733 H 798.588 -2.47042 -3.89574 0
M  V30 8734 H 796.831 -2.38146 -3.62586 0
M  V30 8735 H 797.502 -1.89352 -5.18507 0
M  V30 8736 H 799.978 -0.266703 -4.15244 0
M  V30 8737 H 798.854 0.0925415 -5.48822 0
M  V30 8738 H 799.115 1.289 -4.22891 0
M  V30 8739 N 798.174 1.49689 -0.493057 0
M  V30 8740 C 799.585 1.8665 -0.0433032 0
M  V30 8741 C 799.936 1.40607 1.36836 0
M  V30 8742 O 799.061 0.780503 2.01834 0
M  V30 8743 C 799.656 3.38724 -0.0718069 0
M  V30 8744 C 798.215 3.75015 0.32257 0
M  V30 8745 C 797.362 2.7366 -0.4478 0
M  V30 8746 H 800.313 1.42119 -0.706246 0
M  V30 8747 H 800.334 3.73522 0.725347 0
M  V30 8748 H 799.846 3.72204 -1.09935 0
M  V30 8749 H 797.947 3.47142 1.35364 0
M  V30 8750 H 798.06 4.79099 0.00864259 0
M  V30 8751 H 796.424 2.54498 0.101354 0
M  V30 8752 H 797.207 3.09985 -1.47527 0
M  V30 8753 N 799.652 0.226554 1.55963 0
M  V30 8754 C 800.898 -0.404387 1.98727 0
M  V30 8755 C 801.231 -1.59059 1.11418 0
M  V30 8756 O 800.506 -1.93729 0.172971 0
M  V30 8757 C 800.789 -0.834081 3.50307 0
M  V30 8758 C 800.642 0.356104 4.48388 0
M  V30 8759 C 801.961 -1.68845 4.06423 0
M  V30 8760 H 799.08 -0.145515 0.722492 0
M  V30 8761 H 801.722 0.323791 1.87221 0
M  V30 8762 H 799.872 -1.45454 3.60244 0
M  V30 8763 H 801.544 0.99432 4.50456 0
M  V30 8764 H 799.787 1.0027 4.22053 0
M  V30 8765 H 800.458 0.0124333 5.51999 0
M  V30 8766 H 802.934 -1.16489 3.99461 0
M  V30 8767 H 801.81 -1.958 5.1279 0
M  V30 8768 H 802.071 -2.65347 3.53615 0
M  V30 8769 N 801.13 -1.57531 -0.0467866 0
M  V30 8770 C 802.04 -2.08768 -1.07018 0
M  V30 8771 C 803.056 -1.02245 -1.40791 0
M  V30 8772 O 804.232 -1.33873 -1.50466 0
M  V30 8773 C 801.297 -2.54221 -2.35738 0
M  V30 8774 C 800.358 -3.75152 -2.08709 0
M  V30 8775 C 799.591 -4.18428 -3.31291 0
M  V30 8776 O 799.814 -3.61365 -4.4133 0
M  V30 8777 O 798.748 -5.11018 -3.18032 0
M  V30 8778 H 802.574 -2.96334 -0.664812 0
M  V30 8779 H 800.159 -1.47074 -0.262605 0
M  V30 8780 H 802.041 -2.83866 -3.11445 0
M  V30 8781 H 800.716 -1.69774 -2.75605 0
M  V30 8782 H 799.623 -3.50553 -1.30627 0
M  V30 8783 H 800.956 -4.60528 -1.73708 0
M  V30 8784 N 802.608 0.318715 -1.54344 0
M  V30 8785 C 803.854 1.05765 -1.73037 0
M  V30 8786 C 804.187 1.87514 -0.505181 0
M  V30 8787 O 803.462 1.88021 0.497838 0
M  V30 8788 C 803.745 1.97836 -3.00887 0
M  V30 8789 C 803.598 1.19384 -4.33668 0
M  V30 8790 C 804.917 2.97285 -3.24514 0
M  V30 8791 H 802.036 0.383104 -0.629603 0
M  V30 8792 H 804.678 0.333864 -1.87044 0
M  V30 8793 H 802.828 2.59552 -2.89076 0
M  V30 8794 H 804.5 0.600906 -4.57369 0
M  V30 8795 H 802.743 0.496198 -4.30953 0
M  V30 8796 H 803.414 1.87014 -5.19355 0
M  V30 8797 H 805.89 2.45693 -3.35819 0
M  V30 8798 H 804.766 3.58887 -4.15321 0
M  V30 8799 H 805.027 3.70003 -2.41971 0
M  V30 8800 N 804.086 1.46499 0.581025 0
M  V30 8801 C 805.016 1.60052 1.70017 0
M  V30 8802 C 805.997 0.450788 1.64018 0
M  V30 8803 O 807.182 0.677237 1.82009 0
M  V30 8804 C 804.312 1.5921 3.08658 0
M  V30 8805 C 803.266 2.73169 3.29488 0
M  V30 8806 C 802.592 2.57389 4.68674 0
M  V30 8807 C 803.892 4.14978 3.1716 0
M  V30 8808 H 805.586 2.53735 1.5893 0
M  V30 8809 H 803.132 1.22113 0.763173 0
M  V30 8810 H 805.085 1.67285 3.86773 0
M  V30 8811 H 803.809 0.620718 3.20647 0
M  V30 8812 H 802.468 2.64566 2.53773 0
M  V30 8813 H 802.116 1.58331 4.77431 0
M  V30 8814 H 801.816 3.33826 4.83564 0
M  V30 8815 H 803.34 2.67358 5.48956 0
M  V30 8816 H 804.754 4.24684 3.85119 0
M  V30 8817 H 803.151 4.92016 3.4357 0
M  V30 8818 H 804.221 4.35016 2.14218 0
M  V30 8819 N 805.565 -0.825799 1.34232 0
M  V30 8820 C 806.793 -1.61363 1.29497 0
M  V30 8821 C 807.208 -1.88341 -0.131536 0
M  V30 8822 O 806.565 -1.47279 -1.07773 0
M  V30 8823 C 806.616 -2.95623 2.08061 0
M  V30 8824 O 806.337 -2.69824 3.45147 0
M  V30 8825 C 807.838 -3.90032 2.10688 0
M  V30 8826 H 805.058 -0.501676 0.445603 0
M  V30 8827 H 807.602 -1.02767 1.76803 0
M  V30 8828 H 805.757 -3.50785 1.64404 0
M  V30 8829 H 806.171 -3.55412 3.85723 0
M  V30 8830 H 807.645 -4.81411 2.70087 0
M  V30 8831 H 808.122 -4.25188 1.10052 0
M  V30 8832 H 808.728 -3.40807 2.54422 0
M  V30 8833 N 807.043 -1.17915 -1.04565 0
M  V30 8834 C 808.459 -0.927761 -1.29864 0
M  V30 8835 C 808.659 0.409536 -1.97294 0
M  V30 8836 O 807.715 1.14505 -2.25044 0
M  V30 8837 C 809.028 -2.08967 -2.16225 0
M  V30 8838 C 810.576 -2.12741 -2.29587 0
M  V30 8839 C 811.051 -3.28335 -3.19312 0
M  V30 8840 N 812.542 -3.28164 -3.26898 0
M  V30 8841 C 813.277 -4.14249 -3.96466 0
M  V30 8842 N 812.773 -5.10457 -4.68407 0
M  V30 8843 N 814.566 -4.02179 -3.92694 0
M  V30 8844 H 806.717 -2.03983 -0.592011 0
M  V30 8845 H 808.98 -0.891023 -0.323701 0
M  V30 8846 H 808.686 -3.05654 -1.73979 0
M  V30 8847 H 808.56 -2.04606 -3.16885 0
M  V30 8848 H 810.947 -1.16636 -2.71072 0
M  V30 8849 H 811.028 -2.21162 -1.28535 0
M  V30 8850 H 810.672 -4.2471 -2.78539 0
M  V30 8851 H 810.602 -3.17151 -4.20384 0
M  V30 8852 H 813.093 -2.58511 -2.75646 0
M  V30 8853 H 813.406 -5.72526 -5.1907 0
M  V30 8854 H 811.751 -5.14422 -4.67328 0
M  V30 8855 H 814.942 -3.26308 -3.3562 0
M  V30 8856 H 815.115 -4.69486 -4.4664 0
M  V30 8857 N 808.521 1.23394 -0.980386 0
M  V30 8858 C 809.767 1.924 -0.659848 0
M  V30 8859 C 810.122 1.75076 0.797883 0
M  V30 8860 O 809.415 1.10104 1.56805 0
M  V30 8861 C 809.609 3.43542 -0.985588 0
M  V30 8862 C 809.438 3.75568 -2.47343 0
M  V30 8863 C 808.208 3.96257 -3.13541 0
M  V30 8864 C 810.406 3.81045 -3.45412 0
M  V30 8865 N 808.388 4.15489 -4.51932 0
M  V30 8866 C 809.759 4.05269 -4.69209 0
M  V30 8867 C 811.814 3.63837 -3.39893 0
M  V30 8868 C 810.517 4.14071 -5.88164 0
M  V30 8869 C 812.543 3.73892 -4.58212 0
M  V30 8870 C 811.905 3.98553 -5.80805 0
M  V30 8871 H 808.004 0.725229 -0.292518 0
M  V30 8872 H 810.588 1.48615 -1.25784 0
M  V30 8873 H 808.759 3.86163 -0.416289 0
M  V30 8874 H 810.491 3.99887 -0.622324 0
M  V30 8875 H 807.246 3.93168 -2.64038 0
M  V30 8876 H 807.67 4.29058 -5.23677 0
M  V30 8877 H 812.312 3.43767 -2.46139 0
M  V30 8878 H 810.03 4.32949 -6.82335 0
M  V30 8879 H 813.616 3.61932 -4.55518 0
M  V30 8880 H 812.496 4.06148 -6.70831 0
M  V30 8881 N 809.999 0.752036 1.385 0
M  V30 8882 C 810.932 0.0717411 2.28087 0
M  V30 8883 C 811.91 -0.729945 1.45295 0
M  V30 8884 O 813.094 -0.708902 1.74662 0
M  V30 8885 C 810.221 -0.905237 3.26379 0
M  V30 8886 C 809.267 -0.189973 4.26077 0
M  V30 8887 S 810.1 1.10815 5.23909 0
M  V30 8888 C 811.256 0.134202 6.25756 0
M  V30 8889 H 811.489 0.831438 2.85437 0
M  V30 8890 H 809.022 0.544552 1.44478 0
M  V30 8891 H 810.98 -1.46358 3.83523 0
M  V30 8892 H 809.641 -1.63789 2.68015 0
M  V30 8893 H 808.834 -0.92985 4.95348 0
M  V30 8894 H 808.436 0.296804 3.7282 0
M  V30 8895 H 810.728 -0.700345 6.7387 0
M  V30 8896 H 811.671 0.794532 7.03628 0
M  V30 8897 H 812.079 -0.245801 5.63965 0
M  V30 8898 N 811.477 -1.49425 0.500989 0
M  V30 8899 C 812.707 -2.06561 -0.0402858 0
M  V30 8900 C 813.115 -1.36157 -1.31369 0
M  V30 8901 O 812.458 -0.433618 -1.78509 0
M  V30 8902 C 812.52 -3.5765 -0.364269 0
M  V30 8903 C 812.184 -4.49739 0.811417 0
M  V30 8904 C 813.181 -4.91255 1.7019 0
M  V30 8905 C 810.866 -4.92036 1.01022 0
M  V30 8906 C 812.86 -5.73806 2.77534 0
M  V30 8907 C 810.547 -5.74364 2.08683 0
M  V30 8908 C 811.545 -6.15154 2.96774 0
M  V30 8909 O 811.233 -6.95836 4.02577 0
M  V30 8910 H 810.965 -0.67578 0.0172357 0
M  V30 8911 H 813.519 -1.93193 0.697553 0
M  V30 8912 H 811.749 -3.69026 -1.1557 0
M  V30 8913 H 813.438 -3.97025 -0.844156 0
M  V30 8914 H 814.204 -4.59222 1.56013 0
M  V30 8915 H 810.083 -4.59789 0.333929 0
M  V30 8916 H 813.627 -6.05564 3.4632 0
M  V30 8917 H 809.524 -6.0581 2.22855 0
M  V30 8918 H 810.292 -7.14142 3.9993 0
M  V30 8919 N 812.955 -0.234822 -1.55841 0
M  V30 8920 C 814.183 0.397745 -2.03041 0
M  V30 8921 C 814.598 1.52405 -1.11437 0
M  V30 8922 O 813.955 1.82061 -0.126466 0
M  V30 8923 C 814.006 0.916919 -3.49678 0
M  V30 8924 O 813.727 -0.164493 -4.37791 0
M  V30 8925 C 815.228 1.62139 -4.12584 0
M  V30 8926 H 812.448 0.0959214 -0.664108 0
M  V30 8927 H 814.992 -0.355156 -2.01392 0
M  V30 8928 H 813.147 1.62004 -3.519 0
M  V30 8929 H 813.561 0.227794 -5.24005 0
M  V30 8930 H 815.035 1.93651 -5.16917 0
M  V30 8931 H 815.512 2.53918 -3.58361 0
M  V30 8932 H 816.118 0.963145 -4.14251 0
M  V30 8933 N 814.433 1.57553 0.0384317 0
M  V30 8934 C 815.679 1.89121 0.732199 0
M  V30 8935 C 816.012 0.831404 1.75503 0
M  V30 8936 O 815.287 -0.154642 1.93884 0
M  V30 8937 C 815.57 3.31338 1.41021 0
M  V30 8938 C 815.423 4.48004 0.401532 0
M  V30 8939 C 816.742 3.72318 2.34665 0
M  V30 8940 H 813.861 0.687819 0.264715 0
M  V30 8941 H 816.503 1.89999 -0.00496279 0
M  V30 8942 H 814.653 3.3072 2.03854 0
M  V30 8943 H 816.325 4.60755 -0.224159 0
M  V30 8944 H 814.568 4.32895 -0.280092 0
M  V30 8945 H 815.239 5.44377 0.91423 0
M  V30 8946 H 817.715 3.74243 1.81883 0
M  V30 8947 H 816.591 4.72652 2.7909 0
M  V30 8948 H 816.852 3.04062 3.20934 0
M  V30 8949 N 815.911 -0.310526 1.54511 0
M  V30 8950 C 817.327 -0.655637 1.45511 0
M  V30 8951 C 817.527 -1.91114 0.638564 0
M  V30 8952 O 816.583 -2.52098 0.142497 0
M  V30 8953 C 817.896 -0.817501 2.89374 0
M  V30 8954 C 819.444 -0.914003 2.99358 0
M  V30 8955 C 819.919 -1.10794 4.44397 0
M  V30 8956 N 821.41 -1.17437 4.48066 0
M  V30 8957 C 822.145 -1.34255 5.57461 0
M  V30 8958 N 821.641 -1.48032 6.768 0
M  V30 8959 N 823.434 -1.37067 5.45132 0
M  V30 8960 H 815.585 0.514506 2.06074 0
M  V30 8961 H 817.848 0.168478 0.932909 0
M  V30 8962 H 817.554 0.034003 3.51684 0
M  V30 8963 H 817.428 -1.7094 3.36243 0
M  V30 8964 H 819.815 -1.756 2.37168 0
M  V30 8965 H 819.896 0.00170958 2.558 0
M  V30 8966 H 819.54 -0.270743 5.07178 0
M  V30 8967 H 819.47 -2.03773 4.85576 0
M  V30 8968 H 821.961 -1.08181 3.62084 0
M  V30 8969 H 822.274 -1.60593 7.5593 0
M  V30 8970 H 820.619 -1.45105 6.79683 0
M  V30 8971 H 823.81 -1.25909 4.50849 0
M  V30 8972 H 823.983 -1.49831 6.3044 0
M  V30 8973 N 817.389 -1.46805 -0.573248 0
M  V30 8974 C 818.336 -1.58084 -1.68161 0
M  V30 8975 C 819.306 -0.424636 -1.6058 0
M  V30 8976 O 820.491 -0.642623 -1.79652 0
M  V30 8977 C 817.631 -1.58601 -3.06496 0
M  V30 8978 C 816.744 -2.85023 -3.24632 0
M  V30 8979 C 815.879 -2.76981 -4.53271 0
M  V30 8980 C 814.918 -3.983 -4.64783 0
M  V30 8981 N 814.055 -3.88589 -5.84759 0
M  V30 8982 H 818.895 -2.52755 -1.57858 0
M  V30 8983 H 816.432 -1.25385 -0.769218 0
M  V30 8984 H 818.39 -1.56885 -3.86579 0
M  V30 8985 H 817.02 -0.674553 -3.15673 0
M  V30 8986 H 816.072 -2.96678 -2.38089 0
M  V30 8987 H 817.384 -3.7491 -3.29004 0
M  V30 8988 H 816.538 -2.73424 -5.41594 0
M  V30 8989 H 815.277 -1.84751 -4.51352 0
M  V30 8990 H 814.282 -4.02179 -3.74876 0
M  V30 8991 H 815.507 -4.91639 -4.68474 0
M  V30 8992 H 813.453 -2.99151 -5.83819 0
M  V30 8993 H 813.37 -4.7214 -5.90441 0
M  V30 8994 H 814.638 -3.89022 -6.75486 0
M  V30 8995 N 818.867 0.818669 -1.34668 0
M  V30 8996 C 820.115 1.57201 -1.27013 0
M  V30 8997 C 820.436 1.94354 0.158599 0
M  V30 8998 O 819.706 1.62626 1.09223 0
M  V30 8999 H 818.286 0.582919 -0.467135 0
M  V30 9000 H 820.948 0.977234 -1.6863 0
M  V30 9001 H 820.044 2.49291 -1.87778 0
M  V30 9002 N 820.346 1.18468 1.03938 0
M  V30 9003 C 821.576 1.0043 1.80547 0
M  V30 9004 C 821.984 -0.450407 1.83761 0
M  V30 9005 O 821.327 -1.32463 1.27276 0
M  V30 9006 C 821.389 1.48437 3.27424 0
M  V30 9007 C 821.053 2.96372 3.47869 0
M  V30 9008 C 822.05 3.94217 3.38953 0
M  V30 9009 C 819.735 3.34831 3.74424 0
M  V30 9010 C 821.729 5.28517 3.56298 0
M  V30 9011 C 819.416 4.69294 3.91416 0
M  V30 9012 C 820.414 5.65946 3.82354 0
M  V30 9013 O 820.102 6.97974 3.98858 0
M  V30 9014 H 819.834 0.354853 0.575374 0
M  V30 9015 H 822.388 1.57473 1.31876 0
M  V30 9016 H 820.618 0.857601 3.7707 0
M  V30 9017 H 822.307 1.2677 3.85596 0
M  V30 9018 H 823.073 3.6585 3.184 0
M  V30 9019 H 818.952 2.60161 3.80575 0
M  V30 9020 H 822.496 6.03943 3.49141 0
M  V30 9021 H 818.393 4.97361 4.11463 0
M  V30 9022 H 819.161 7.04895 4.1601 0
M  V30 9023 N 821.824 -1.22873 0.986916 0
M  V30 9024 C 823.24 -1.43594 0.696633 0
M  V30 9025 C 823.44 -1.87622 -0.734869 0
M  V30 9026 O 822.496 -2.02633 -1.50652 0
M  V30 9027 C 823.809 -2.48231 1.69711 0
M  V30 9028 C 825.357 -2.62037 1.71188 0
M  V30 9029 C 825.832 -3.6989 2.70084 0
M  V30 9030 N 827.323 -3.77341 2.68641 0
M  V30 9031 C 828.058 -4.6037 3.41829 0
M  V30 9032 N 827.554 -5.47438 4.24598 0
M  V30 9033 N 829.347 -4.54626 3.30563 0
M  V30 9034 H 821.498 -0.925982 1.91153 0
M  V30 9035 H 823.761 -0.46866 0.824052 0
M  V30 9036 H 823.467 -2.22812 2.72117 0
M  V30 9037 H 823.341 -3.46731 1.48516 0
M  V30 9038 H 825.728 -2.86803 0.694837 0
M  V30 9039 H 825.809 -1.63831 1.96451 0
M  V30 9040 H 825.453 -3.45872 3.71934 0
M  V30 9041 H 825.383 -4.67652 2.42093 0
M  V30 9042 H 827.874 -3.15124 2.08578 0
M  V30 9043 H 828.187 -6.078 4.77283 0
M  V30 9044 H 826.532 -5.4704 4.28687 0
M  V30 9045 H 829.723 -3.85627 2.65347 0
M  V30 9046 H 829.896 -5.19103 3.8786 0
M  V30 9047 N 823.302 -0.75937 -1.38099 0
M  V30 9048 C 824.265 -0.14372 -2.28749 0
M  V30 9049 C 825.265 0.641338 -1.47457 0
M  V30 9050 O 826.455 0.466751 -1.67831 0
M  V30 9051 C 823.587 0.804545 -3.3127 0
M  V30 9052 H 824.78 -0.942663 -2.847 0
M  V30 9053 H 822.333 -0.526757 -1.47156 0
M  V30 9054 H 823.068 1.62895 -2.80421 0
M  V30 9055 H 822.853 0.243939 -3.9134 0
M  V30 9056 H 824.343 1.23111 -3.99041 0
M  V30 9057 N 824.78 1.49157 -0.508906 0
M  V30 9058 C 826.026 2.02773 0.0328469 0
M  V30 9059 C 826.359 1.38714 1.35912 0
M  V30 9060 O 825.634 0.525536 1.87266 0
M  V30 9061 C 825.917 3.59664 0.177088 0
M  V30 9062 C 825.77 4.34239 -1.17287 0
M  V30 9063 C 827.089 4.30505 0.913977 0
M  V30 9064 H 824.208 0.736926 0.0104631 0
M  V30 9065 H 826.85 1.781 -0.661851 0
M  V30 9066 H 825 3.80818 0.768774 0
M  V30 9067 H 826.672 4.24561 -1.80404 0
M  V30 9068 H 824.915 3.96486 -1.76016 0
M  V30 9069 H 825.586 5.42397 -1.02516 0
M  V30 9070 H 828.062 4.14054 0.412084 0
M  V30 9071 H 826.938 5.40012 0.983759 0
M  V30 9072 H 827.199 3.96302 1.95951 0
M  V30 9073 N 826.258 0.243083 1.55714 0
M  V30 9074 C 827.486 -0.386971 2.03249 0
M  V30 9075 C 827.901 -1.51812 1.12243 0
M  V30 9076 O 827.258 -1.81992 0.136119 0
M  V30 9077 C 827.309 -0.898361 3.5016 0
M  V30 9078 O 827.03 0.187708 4.37698 0
M  V30 9079 C 828.531 -1.59949 4.13438 0
M  V30 9080 H 825.751 -0.0923981 0.664608 0
M  V30 9081 H 828.295 0.365832 2.01201 0
M  V30 9082 H 826.45 -1.60136 3.52754 0
M  V30 9083 H 826.864 -0.200001 5.24119 0
M  V30 9084 H 828.338 -1.90907 5.17937 0
M  V30 9085 H 828.815 -2.52014 3.59702 0
M  V30 9086 H 829.421 -0.941163 4.14756 0
M  V30 9087 N 827.736 -1.57571 -0.0300757 0
M  V30 9088 C 828.966 -1.93204 -0.731828 0
M  V30 9089 C 829.374 -0.841156 -1.69473 0
M  V30 9090 O 828.717 0.191231 -1.82702 0
M  V30 9091 C 828.779 -3.2463 -1.54453 0
M  V30 9092 C 828.443 -4.50862 -0.746507 0
M  V30 9093 C 829.44 -5.19879 -0.0472309 0
M  V30 9094 C 827.125 -4.9738 -0.701347 0
M  V30 9095 C 829.119 -6.33692 0.686518 0
M  V30 9096 C 826.806 -6.11089 0.036148 0
M  V30 9097 C 827.804 -6.791 0.728841 0
M  V30 9098 O 827.492 -7.90635 1.45436 0
M  V30 9099 H 827.224 -0.6423 -0.210775 0
M  V30 9100 H 829.778 -2.05398 0.00804194 0
M  V30 9101 H 828.008 -3.0876 -2.32818 0
M  V30 9102 H 829.697 -3.45597 -2.1288 0
M  V30 9103 H 830.463 -4.84945 -0.0731582 0
M  V30 9104 H 826.342 -4.44288 -1.23001 0
M  V30 9105 H 829.886 -6.86711 1.22773 0
M  V30 9106 H 825.783 -6.45468 0.064002 0
M  V30 9107 H 826.551 -8.06988 1.36794 0
M  V30 9108 N 829.214 0.302327 -1.54673 0
M  V30 9109 C 830.164 1.37443 -1.81916 0
M  V30 9110 C 831.148 1.45999 -0.676251 0
M  V30 9111 O 832.34 1.50174 -0.93685 0
M  V30 9112 C 829.469 2.73966 -2.06876 0
M  V30 9113 C 828.555 2.69637 -3.27348 0
M  V30 9114 N 828.946 2.34926 -4.47933 0
M  V30 9115 C 827.244 3.00742 -3.29348 0
M  V30 9116 C 827.945 2.39862 -5.29944 0
M  V30 9117 N 826.921 2.77163 -4.67634 0
M  V30 9118 H 830.723 1.09567 -2.72713 0
M  V30 9119 H 828.237 0.5109 -1.54154 0
M  V30 9120 H 830.234 3.51265 -2.2454 0
M  V30 9121 H 828.894 3.02754 -1.17346 0
M  V30 9122 H 829.905 2.07403 -4.74557 0
M  V30 9123 H 826.582 3.34434 -2.49921 0
M  V30 9124 H 827.972 2.15835 -6.3629 0
M  V30 9125 N 830.692 1.47107 0.565454 0
M  V30 9126 C 831.64 1.59368 1.69424 0
M  V30 9127 C 832.634 0.461344 1.62997 0
M  V30 9128 O 833.84 0.638849 1.68282 0
M  V30 9129 H 830.215 0.501387 0.560459 0
M  V30 9130 H 832.186 2.54242 1.56217 0
M  V30 9131 C 830.935 1.61739 3.07792 0
M  V30 9132 H 830.258 2.48215 3.13416 0
M  V30 9133 H 831.698 1.7437 3.86486 0
M  V30 9134 C 830.157 0.349156 3.35086 0
M  V30 9135 O 830.687 -0.553287 3.97871 0
M  V30 9136 N 828.893 0.231723 2.89675 0
M  V30 9137 H 828.44 0.967021 2.3876 0
M  V30 9138 H 828.398 -0.615911 3.08308 0
M  V30 9139 N 832.17 -0.811516 1.35101 0
M  V30 9140 C 833.416 -1.57016 1.29296 0
M  V30 9141 C 833.771 -1.91941 -0.13288 0
M  V30 9142 O 833.064 -1.58121 -1.08204 0
M  V30 9143 C 833.258 -2.87121 2.1283 0
M  V30 9144 C 833.087 -2.64908 3.63392 0
M  V30 9145 C 831.857 -2.61055 4.32641 0
M  V30 9146 C 834.055 -2.35628 4.57148 0
M  V30 9147 N 832.037 -2.30508 5.68981 0
M  V30 9148 C 833.408 -2.14876 5.81574 0
M  V30 9149 C 835.463 -2.2145 4.45942 0
M  V30 9150 C 834.166 -1.81381 6.96055 0
M  V30 9151 C 836.192 -1.89352 5.60267 0
M  V30 9152 C 835.554 -1.69432 6.83719 0
M  V30 9153 H 831.653 -0.57649 0.528378 0
M  V30 9154 H 834.237 -0.950338 1.69931 0
M  V30 9155 H 832.408 -3.47007 1.74473 0
M  V30 9156 H 834.14 -3.52629 1.98582 0
M  V30 9157 H 830.895 -2.75531 3.85201 0
M  V30 9158 H 831.319 -2.18042 6.40927 0
M  V30 9159 H 835.961 -2.35551 3.51106 0
M  V30 9160 H 833.679 -1.66018 7.90863 0
M  V30 9161 H 837.265 -1.79098 5.53548 0
M  V30 9162 H 836.145 -1.44957 7.70686 0
M  V30 9163 N 833.648 -1.19017 -1.03309 0
M  V30 9164 C 835.064 -0.941483 -1.28873 0
M  V30 9165 C 835.264 0.388587 -1.97718 0
M  V30 9166 O 834.32 1.12111 -2.26246 0
M  V30 9167 C 835.633 -2.11249 -2.13996 0
M  V30 9168 C 837.181 -2.15164 -2.27318 0
M  V30 9169 C 837.656 -3.31704 -3.15811 0
M  V30 9170 N 839.147 -3.31613 -3.23399 0
M  V30 9171 C 839.882 -4.18431 -3.9205 0
M  V30 9172 N 839.378 -5.15397 -4.62966 0
M  V30 9173 N 841.171 -4.06321 -3.88406 0
M  V30 9174 H 833.322 -2.04599 -0.570343 0
M  V30 9175 H 835.585 -0.894406 -0.314232 0
M  V30 9176 H 835.291 -3.07482 -1.70727 0
M  V30 9177 H 835.165 -2.07955 -3.14697 0
M  V30 9178 H 837.552 -1.19504 -2.6982 0
M  V30 9179 H 837.633 -2.22513 -1.26182 0
M  V30 9180 H 837.277 -4.2764 -2.74019 0
M  V30 9181 H 837.207 -3.21592 -4.16997 0
M  V30 9182 H 839.698 -2.6142 -2.72888 0
M  V30 9183 H 840.011 -5.78 -5.12968 0
M  V30 9184 H 838.356 -5.19349 -4.61846 0
M  V30 9185 H 841.547 -3.29849 -3.3214 0
M  V30 9186 H 841.72 -4.74196 -4.41635 0
M  V30 9187 N 835.127 1.22348 -0.993418 0
M  V30 9188 C 836.077 2.221 -0.515333 0
M  V30 9189 C 837.061 1.55409 0.416762 0
M  V30 9190 O 838.253 1.75317 0.243497 0
M  V30 9191 C 835.382 3.42888 0.168173 0
M  V30 9192 C 834.468 4.16786 -0.784257 0
M  V30 9193 N 834.859 4.67435 -1.93231 0
M  V30 9194 C 833.157 4.41942 -0.600243 0
M  V30 9195 C 833.858 5.23792 -2.53016 0
M  V30 9196 N 832.834 5.12483 -1.8128 0
M  V30 9197 H 836.636 2.58902 -1.39093 0
M  V30 9198 H 834.15 1.38024 -0.855747 0
M  V30 9199 H 836.147 4.13542 0.528069 0
M  V30 9200 H 834.807 3.07598 1.03989 0
M  V30 9201 H 835.818 4.63375 -2.31309 0
M  V30 9202 H 832.495 4.16891 0.225369 0
M  V30 9203 H 833.885 5.73515 -3.50043 0
M  V30 9204 N 836.605 0.766683 1.37694 0
M  V30 9205 C 837.853 0.328065 1.9942 0
M  V30 9206 C 838.174 -1.09775 1.61166 0
M  V30 9207 O 837.444 -1.75288 0.874686 0
M  V30 9208 H 836.024 0.11831 0.737572 0
M  V30 9209 H 838.686 0.983686 1.68255 0
M  V30 9210 H 837.782 0.401647 3.09505 0
M  V30 9211 N 838.083 -1.48885 0.516809 0
M  V30 9212 C 839.33 -2.02488 -0.0220602 0
M  V30 9213 C 839.658 -1.39513 -1.35523 0
M  V30 9214 O 838.913 -0.52558 -1.8851 0
M  V30 9215 C 839.212 -3.56801 -0.206798 0
M  V30 9216 C 838.878 -4.38496 1.05035 0
M  V30 9217 C 837.54 -4.60538 1.39492 0
M  V30 9218 C 839.892 -4.85909 1.88525 0
M  V30 9219 C 837.22 -5.2724 2.57361 0
M  V30 9220 C 839.572 -5.53909 3.05561 0
M  V30 9221 C 838.236 -5.74193 3.4038 0
M  V30 9222 H 837.506 -0.740956 -0.00807238 0
M  V30 9223 H 840.153 -1.79014 0.680168 0
M  V30 9224 H 838.458 -3.79042 -0.991687 0
M  V30 9225 H 840.155 -3.95885 -0.638447 0
M  V30 9226 H 836.745 -4.2159 0.771984 0
M  V30 9227 H 840.929 -4.68694 1.63218 0
M  V30 9228 H 836.185 -5.41145 2.84556 0
M  V30 9229 H 840.359 -5.89619 3.7057 0
M  V30 9230 H 837.986 -6.25652 4.31814 0
M  V30 9231 N 839.561 -0.251338 -1.55583 0
M  V30 9232 C 840.509 0.662534 -2.22965 0
M  V30 9233 C 841.503 1.17662 -1.21869 0
M  V30 9234 O 842.709 1.133 -1.39868 0
M  V30 9235 H 839.084 0.232151 -0.715269 0
M  V30 9236 H 841.055 0.0711252 -2.98315 0
M  V30 9237 C 839.804 1.84646 -2.94621 0
M  V30 9238 H 839.127 1.46003 -3.72187 0
M  V30 9239 H 840.567 2.46303 -3.45124 0
M  V30 9240 C 839.026 2.72034 -1.98744 0
M  V30 9241 O 839.556 3.71695 -1.52335 0
M  V30 9242 N 837.762 2.38695 -1.6575 0
M  V30 9243 H 837.309 1.57702 -2.03685 0
M  V30 9244 H 837.267 2.9744 -1.01867 0
M  V30 9245 N 841.039 1.57585 0.0217189 0
M  V30 9246 C 842.285 1.89887 0.712099 0
M  V30 9247 C 842.618 0.849971 1.74611 0
M  V30 9248 O 841.893 -0.13407 1.94037 0
M  V30 9249 C 842.176 3.32815 1.37499 0
M  V30 9250 C 842.029 4.48405 0.353993 0
M  V30 9251 C 843.348 3.74786 2.30703 0
M  V30 9252 H 840.467 0.690588 0.257405 0
M  V30 9253 H 843.109 1.89983 -0.0251145 0
M  V30 9254 H 841.259 3.32863 2.00335 0
M  V30 9255 H 842.931 4.60491 -0.273015 0
M  V30 9256 H 841.174 4.32573 -0.32599 0
M  V30 9257 H 841.845 5.45316 0.85644 0
M  V30 9258 H 844.321 3.76151 1.77904 0
M  V30 9259 H 843.197 4.75585 2.74061 0
M  V30 9260 H 843.458 3.07449 3.17691 0
M  V30 9261 N 842.517 -0.29412 1.54831 0
M  V30 9262 C 843.765 -1.02643 1.74094 0
M  V30 9263 C 844.086 -1.87563 0.533402 0
M  V30 9264 O 843.356 -1.9061 -0.452192 0
M  V30 9265 H 841.936 -0.381959 0.641963 0
M  V30 9266 H 844.598 -0.323444 1.92197 0
M  V30 9267 H 843.694 -1.67558 2.63307 0
M  V30 9268 N 843.995 -1.47404 -0.557645 0
M  V30 9269 C 844.927 -1.55917 -1.67995 0
M  V30 9270 C 845.94 -0.445411 -1.56588 0
M  V30 9271 O 847.129 -0.714999 -1.63554 0
M  V30 9272 C 844.229 -1.44697 -3.06457 0
M  V30 9273 C 843.402 -2.70633 -3.43622 0
M  V30 9274 C 842.461 -2.53256 -4.61246 0
M  V30 9275 O 841.487 -3.27068 -4.65849 0
M  V30 9276 N 842.689 -1.61053 -5.57711 0
M  V30 9277 H 845.454 -2.52694 -1.61139 0
M  V30 9278 H 843.015 -1.43778 -0.744271 0
M  V30 9279 H 845.007 -1.30806 -3.82978 0
M  V30 9280 H 843.577 -0.560039 -3.07542 0
M  V30 9281 H 842.797 -2.99288 -2.56555 0
M  V30 9282 H 844.085 -3.5424 -3.65228 0
M  V30 9283 H 843.483 -1.00235 -5.56749 0
M  V30 9284 H 842.04 -1.53115 -6.33561 0
M  V30 9285 N 845.473 0.80434 -1.35529 0
M  V30 9286 C 846.701 1.59283 -1.32048 0
M  V30 9287 C 847.116 1.88527 0.101556 0
M  V30 9288 O 846.473 1.48975 1.05417 0
M  V30 9289 C 846.524 2.92276 -2.12737 0
M  V30 9290 O 846.245 2.64299 -3.49396 0
M  V30 9291 C 847.746 3.86631 -2.16867 0
M  V30 9292 H 844.966 0.494523 -0.453528 0
M  V30 9293 H 847.51 0.999415 -1.78415 0
M  V30 9294 H 845.665 3.48125 -1.69964 0
M  V30 9295 H 846.079 3.4923 -3.91329 0
M  V30 9296 H 847.553 4.77053 -2.77712 0
M  V30 9297 H 848.03 4.23384 -1.16803 0
M  V30 9298 H 848.636 3.36717 -2.59811 0
M  V30 9299 N 846.951 1.19563 1.02676 0
M  V30 9300 C 847.884 0.878638 2.10607 0
M  V30 9301 C 848.862 -0.165176 1.61759 0
M  V30 9302 O 850.046 -0.041014 1.88455 0
M  V30 9303 C 847.173 0.315347 3.37229 0
M  V30 9304 C 846.219 1.33855 4.04951 0
M  V30 9305 S 847.052 2.89982 4.50189 0
M  V30 9306 C 848.208 2.35202 5.80027 0
M  V30 9307 H 848.441 1.79268 2.37171 0
M  V30 9308 H 845.974 1.023 1.15646 0
M  V30 9309 H 847.932 -0.00311911 4.105 0
M  V30 9310 H 846.593 -0.577035 3.08754 0
M  V30 9311 H 845.786 0.893581 4.96015 0
M  V30 9312 H 845.388 1.60397 3.37859 0
M  V30 9313 H 847.68 1.74329 6.54687 0
M  V30 9314 H 848.623 3.24622 6.29306 0
M  V30 9315 H 849.031 1.77702 5.35801 0
M  V30 9316 N 848.429 -1.21819 0.999893 0
M  V30 9317 C 849.676 -1.90752 0.679694 0
M  V30 9318 C 850.004 -1.77777 -0.789014 0
M  V30 9319 O 849.259 -1.14518 -1.58695 0
M  V30 9320 C 849.558 -3.4193 1.04012 0
M  V30 9321 C 849.224 -3.75098 2.50225 0
M  V30 9322 C 847.886 -3.83861 2.90179 0
M  V30 9323 C 850.238 -3.90706 3.44961 0
M  V30 9324 C 847.566 -4.05676 4.23844 0
M  V30 9325 C 849.918 -4.14027 4.78294 0
M  V30 9326 C 848.582 -4.21016 5.17979 0
M  V30 9327 H 847.852 -0.698012 0.248718 0
M  V30 9328 H 850.499 -1.44437 1.25738 0
M  V30 9329 H 848.804 -3.89947 0.380606 0
M  V30 9330 H 850.501 -3.93532 0.770301 0
M  V30 9331 H 847.091 -3.68865 2.18258 0
M  V30 9332 H 851.275 -3.83307 3.15261 0
M  V30 9333 H 846.531 -4.09316 4.5417 0
M  V30 9334 H 850.705 -4.25046 5.51642 0
M  V30 9335 H 848.332 -4.37672 6.21568 0
M  V30 9336 N 849.908 -0.773975 -1.37286 0
M  V30 9337 C 851.136 -0.350758 -2.03905 0
M  V30 9338 C 851.551 1.02779 -1.58373 0
M  V30 9339 O 850.908 1.65646 -0.766009 0
M  V30 9340 C 850.959 -0.387335 -3.59419 0
M  V30 9341 O 850.68 -1.7115 -4.03286 0
M  V30 9342 C 852.181 0.047198 -4.43275 0
M  V30 9343 H 849.401 -0.146663 -0.654775 0
M  V30 9344 H 851.945 -1.04852 -1.75574 0
M  V30 9345 H 850.1 0.261865 -3.86514 0
M  V30 9346 H 850.514 -1.65166 -4.97816 0
M  V30 9347 H 851.988 -0.0295474 -5.51992 0
M  V30 9348 H 852.465 1.09786 -4.25257 0
M  V30 9349 H 853.071 -0.573899 -4.2141 0
M  V30 9350 N 851.386 1.48609 -0.524698 0
M  V30 9351 C 852.316 2.32366 0.229837 0
M  V30 9352 C 853.297 1.41759 0.940129 0
M  V30 9353 O 854.482 1.7065 0.926936 0
M  V30 9354 C 851.612 3.22835 1.28043 0
M  V30 9355 C 850.566 4.22424 0.688603 0
M  V30 9356 C 849.892 5.0199 1.84146 0
M  V30 9357 C 851.192 5.21217 -0.336176 0
M  V30 9358 H 852.886 2.95698 -0.469339 0
M  V30 9359 H 850.432 1.42197 -0.227156 0
M  V30 9360 H 852.385 3.80253 1.8162 0
M  V30 9361 H 851.109 2.57492 2.00912 0
M  V30 9362 H 849.768 3.66185 0.174402 0
M  V30 9363 H 849.416 4.33076 2.5584 0
M  V30 9364 H 849.116 5.69392 1.45142 0
M  V30 9365 H 850.64 5.62259 2.38111 0
M  V30 9366 H 852.054 5.7319 0.112307 0
M  V30 9367 H 850.451 5.96642 -0.643324 0
M  V30 9368 H 851.521 4.68676 -1.24381 0
M  V30 9369 N 852.864 0.259585 1.55447 0
M  V30 9370 C 853.794 -0.62852 2.24882 0
M  V30 9371 C 854.775 -1.17128 1.23349 0
M  V30 9372 O 855.96 -1.20829 1.52033 0
M  V30 9373 C 853.09 -1.81983 2.95803 0
M  V30 9374 C 852.044 -1.40929 4.04132 0
M  V30 9375 C 851.37 -2.68246 4.62545 0
M  V30 9376 C 852.67 -0.570956 5.1917 0
M  V30 9377 H 854.364 -0.0495021 2.99359 0
M  V30 9378 H 851.91 -0.0223688 1.43983 0
M  V30 9379 H 853.863 -2.44689 3.43082 0
M  V30 9380 H 852.587 -2.42444 2.18835 0
M  V30 9381 H 851.246 -0.805519 3.57641 0
M  V30 9382 H 850.894 -3.26931 3.82263 0
M  V30 9383 H 850.594 -2.41495 5.35681 0
M  V30 9384 H 852.118 -3.31827 5.12565 0
M  V30 9385 H 853.532 -1.10262 5.62597 0
M  V30 9386 H 851.929 -0.398979 5.98772 0
M  V30 9387 H 852.999 0.413918 4.8313 0
M  V30 9388 N 854.342 -1.57594 -0.0133615 0
M  V30 9389 C 855.275 -2.02991 -1.04259 0
M  V30 9390 C 856.253 -0.917193 -1.34262 0
M  V30 9391 O 857.437 -1.18428 -1.46653 0
M  V30 9392 C 854.564 -2.41624 -2.37351 0
M  V30 9393 C 853.61 -3.63495 -2.231 0
M  V30 9394 S 854.443 -5.1198 -1.5696 0
M  V30 9395 C 855.599 -5.5387 -2.91511 0
M  V30 9396 H 855.832 -2.89973 -0.655985 0
M  V30 9397 H 853.365 -1.52769 -0.223827 0
M  V30 9398 H 855.323 -2.64551 -3.13884 0
M  V30 9399 H 853.984 -1.55065 -2.73155 0
M  V30 9400 H 853.177 -3.88233 -3.21389 0
M  V30 9401 H 852.779 -3.405 -1.54711 0
M  V30 9402 H 855.071 -5.55514 -3.87828 0
M  V30 9403 H 856.014 -6.53988 -2.71488 0
M  V30 9404 H 856.422 -4.81404 -2.94806 0
M  V30 9405 N 855.82 0.285905 -1.54985 0
M  V30 9406 C 857.048 1.03776 -1.78992 0
M  V30 9407 C 857.463 1.80402 -0.556814 0
M  V30 9408 O 856.82 1.76242 0.473801 0
M  V30 9409 C 856.871 2.0065 -3.00702 0
M  V30 9410 O 856.592 1.27131 -4.19249 0
M  V30 9411 C 858.093 2.87753 -3.37214 0
M  V30 9412 H 855.313 0.307126 -0.596586 0
M  V30 9413 H 857.857 0.3206 -2.01971 0
M  V30 9414 H 856.012 2.67847 -2.79887 0
M  V30 9415 H 856.426 1.92316 -4.8797 0
M  V30 9416 H 857.9 3.51548 -4.2558 0
M  V30 9417 H 858.377 3.56848 -2.56039 0
M  V30 9418 H 858.983 2.26065 -3.60242 0
M  V30 9419 N 857.298 1.47698 0.54982 0
M  V30 9420 C 858.546 1.54397 1.30407 0
M  V30 9421 C 858.867 0.211026 1.93855 0
M  V30 9422 O 858.137 -0.765701 1.80316 0
M  V30 9423 H 856.717 0.568747 0.484289 0
M  V30 9424 H 859.379 1.84042 0.641444 0
M  V30 9425 H 858.475 2.31449 2.09375 0
M  V30 9426 N 858.776 -0.797141 1.35954 0
M  V30 9427 C 860.192 -1.09408 1.16198 0
M  V30 9428 C 860.392 -2.01491 -0.0191682 0
M  V30 9429 O 859.448 -2.42977 -0.686902 0
M  V30 9430 C 860.761 -1.71597 2.46931 0
M  V30 9431 C 862.309 -1.83974 2.53224 0
M  V30 9432 C 862.784 -2.49579 3.84024 0
M  V30 9433 N 864.275 -2.57055 3.85327 0
M  V30 9434 C 865.01 -3.08608 4.83268 0
M  V30 9435 N 864.506 -3.60527 5.91601 0
M  V30 9436 N 866.299 -3.07249 4.70696 0
M  V30 9437 H 858.45 -0.185209 2.11591 0
M  V30 9438 H 860.713 -0.144768 0.936881 0
M  V30 9439 H 860.419 -1.11404 3.3359 0
M  V30 9440 H 860.293 -2.71193 2.62172 0
M  V30 9441 H 862.68 -2.43308 1.66988 0
M  V30 9442 H 862.761 -0.83207 2.41889 0
M  V30 9443 H 862.405 -1.90892 4.70662 0
M  V30 9444 H 862.335 -3.50902 3.92651 0
M  V30 9445 H 864.826 -2.20283 3.07057 0
M  V30 9446 H 865.139 -3.98192 6.62317 0
M  V30 9447 H 863.484 -3.587 5.95281 0
M  V30 9448 H 866.675 -2.65972 3.85197 0
M  V30 9449 H 866.848 -3.47119 5.47186 0
M  V30 9450 N 860.254 -1.20106 -1.0204 0
M  V30 9451 C 861.184 -0.970301 -2.12385 0
M  V30 9452 C 862.165 0.099378 -1.69809 0
M  V30 9453 O 863.35 -0.057365 -1.94115 0
M  V30 9454 C 860.48 -0.517431 -3.43424 0
M  V30 9455 C 859.434 -1.52992 -3.99722 0
M  V30 9456 C 858.76 -0.933817 -5.26483 0
M  V30 9457 C 860.06 -2.91257 -4.33551 0
M  V30 9458 H 861.754 -1.89316 -2.31948 0
M  V30 9459 H 859.3 -0.911655 -1.11467 0
M  V30 9460 H 861.253 -0.343243 -4.2 0
M  V30 9461 H 859.977 0.441049 -3.23608 0
M  V30 9462 H 858.636 -1.6914 -3.2525 0
M  V30 9463 H 858.284 0.0324763 -5.0299 0
M  V30 9464 H 857.984 -1.60999 -5.65113 0
M  V30 9465 H 859.508 -0.770614 -6.05718 0
M  V30 9466 H 860.922 -2.78642 -5.0103 0
M  V30 9467 H 859.319 -3.55745 -4.83286 0
M  V30 9468 H 860.389 -3.43269 -3.42483 0
M  V30 9469 N 861.732 1.21287 -1.00634 0
M  V30 9470 C 862.679 2.23705 -0.567876 0
M  V30 9471 C 863.649 1.61043 0.406753 0
M  V30 9472 O 864.834 1.88289 0.308499 0
M  V30 9473 C 861.974 3.44961 0.097996 0
M  V30 9474 C 861.087 4.22091 -0.919972 0
M  V30 9475 C 860.222 5.30718 -0.226222 0
M  V30 9476 C 859.261 5.99581 -1.23165 0
M  V30 9477 N 858.398 6.99821 -0.565278 0
M  V30 9478 H 863.238 2.60571 -1.44592 0
M  V30 9479 H 860.775 1.28049 -0.724006 0
M  V30 9480 H 862.733 4.1418 0.501097 0
M  V30 9481 H 861.363 3.08818 0.939744 0
M  V30 9482 H 860.415 3.52038 -1.44131 0
M  V30 9483 H 861.727 4.69476 -1.68505 0
M  V30 9484 H 860.881 6.06253 0.232917 0
M  V30 9485 H 859.62 4.84343 0.571247 0
M  V30 9486 H 858.625 5.22816 -1.70128 0
M  V30 9487 H 859.85 6.48042 -2.03022 0
M  V30 9488 H 857.796 6.55656 0.212508 0
M  V30 9489 H 857.713 7.4528 -1.26858 0
M  V30 9490 H 858.981 7.79393 -0.129389 0
M  V30 9491 N 863.21 0.781244 1.36873 0
M  V30 9492 C 864.157 0.172146 2.30157 0
M  V30 9493 C 865.127 -0.679328 1.51573 0
M  V30 9494 O 866.312 -0.629713 1.80109 0
M  V30 9495 C 863.452 -0.693534 3.38059 0
M  V30 9496 C 862.565 0.175586 4.31643 0
M  V30 9497 C 861.7 -0.695695 5.26625 0
M  V30 9498 C 860.739 0.17538 6.11849 0
M  V30 9499 N 859.876 -0.654416 6.99043 0
M  V30 9500 H 864.716 0.973133 2.81663 0
M  V30 9501 H 862.253 0.491469 1.38647 0
M  V30 9502 H 864.211 -1.21035 3.99257 0
M  V30 9503 H 862.841 -1.46003 2.87894 0
M  V30 9504 H 861.893 0.810295 3.7167 0
M  V30 9505 H 863.205 0.847107 4.91554 0
M  V30 9506 H 862.359 -1.27863 5.93073 0
M  V30 9507 H 861.098 -1.40087 4.67148 0
M  V30 9508 H 860.103 0.77078 5.4437 0
M  V30 9509 H 861.328 0.87803 6.734 0
M  V30 9510 H 859.274 -1.34403 6.42084 0
M  V30 9511 H 859.191 -0.0403998 7.55989 0
M  V30 9512 H 860.459 -1.22144 7.69871 0
M  V30 9513 N 864.689 -1.48329 0.532571 0
M  V30 9514 C 865.919 -2.066 0.00353785 0
M  V30 9515 C 866.327 -1.38913 -1.28451 0
M  V30 9516 O 865.67 -0.471385 -1.77549 0
M  V30 9517 C 865.732 -3.58342 -0.288324 0
M  V30 9518 C 865.396 -4.47917 0.906631 0
M  V30 9519 C 866.393 -4.87534 1.80572 0
M  V30 9520 C 864.078 -4.89783 1.11436 0
M  V30 9521 C 866.072 -5.6779 2.89642 0
M  V30 9522 C 863.759 -5.69809 2.20819 0
M  V30 9523 C 864.757 -6.08721 3.09755 0
M  V30 9524 O 864.445 -6.8714 4.17246 0
M  V30 9525 H 864.177 -0.675263 0.0315661 0
M  V30 9526 H 866.731 -1.91669 0.738375 0
M  V30 9527 H 864.961 -3.71395 -1.07717 0
M  V30 9528 H 866.65 -3.98726 -0.759752 0
M  V30 9529 H 867.416 -4.5581 1.65719 0
M  V30 9530 H 863.295 -4.58977 0.431382 0
M  V30 9531 H 866.839 -5.98082 3.59087 0
M  V30 9532 H 862.736 -6.00947 2.35655 0
M  V30 9533 H 863.504 -7.05498 4.14988 0
M  V30 9534 N 866.167 -0.267825 -1.55308 0
M  V30 9535 C 867.397 0.354073 -2.03543 0
M  V30 9536 C 867.805 1.50554 -1.14586 0
M  V30 9537 O 867.148 1.83028 -0.156991 0
M  V30 9538 C 867.21 0.904148 -3.47945 0
M  V30 9539 C 866.874 -0.11775 -4.56848 0
M  V30 9540 C 867.871 -0.934707 -5.11429 0
M  V30 9541 C 865.556 -0.249885 -5.01678 0
M  V30 9542 C 867.55 -1.87005 -6.0935 0
M  V30 9543 C 865.237 -1.18872 -5.99427 0
M  V30 9544 C 866.235 -1.99731 -6.53144 0
M  V30 9545 O 865.923 -2.92028 -7.48983 0
M  V30 9546 H 865.655 0.0857765 -0.670536 0
M  V30 9547 H 868.209 -0.395515 -2.01556 0
M  V30 9548 H 866.439 1.70368 -3.47148 0
M  V30 9549 H 868.128 1.43835 -3.79561 0
M  V30 9550 H 868.894 -0.84332 -4.77612 0
M  V30 9551 H 864.773 0.369469 -4.59517 0
M  V30 9552 H 868.317 -2.5016 -6.51203 0
M  V30 9553 H 864.214 -1.28095 -6.32663 0
M  V30 9554 H 864.982 -2.86627 -7.66673 0
M  V30 9555 N 867.645 1.57599 0.00500368 0
M  V30 9556 C 868.873 1.94626 0.702016 0
M  V30 9557 C 869.288 0.86953 1.67585 0
M  V30 9558 O 868.645 -0.15199 1.81866 0
M  V30 9559 C 868.696 3.31658 1.43824 0
M  V30 9560 O 868.417 4.35197 0.503467 0
M  V30 9561 C 869.918 3.83114 2.23021 0
M  V30 9562 H 867.138 0.641785 0.195841 0
M  V30 9563 H 869.682 2.04451 -0.0446287 0
M  V30 9564 H 867.837 3.23156 2.13655 0
M  V30 9565 H 868.251 5.1444 1.02235 0
M  V30 9566 H 869.725 4.81438 2.7004 0
M  V30 9567 H 870.202 3.15559 3.05482 0
M  V30 9568 H 870.808 3.94775 1.58216 0
M  V30 9569 N 869.123 -0.277682 1.55134 0
M  V30 9570 C 870.4 -1.0309 1.66228 0
M  V30 9571 C 870.78 -2.0445 0.525701 0
M  V30 9572 O 870.128 -2.23512 -0.474816 0
M  V30 9573 C 870.338 -1.6919 3.05247 0
M  V30 9574 C 871.686 -2.20526 3.62841 0
M  V30 9575 O 872.71 -1.79185 3.07849 0
M  V30 9576 O 871.569 -2.96342 4.59177 0
M  V30 9577 H 868.663 -0.4779 0.674937 0
M  V30 9578 H 871.209 -0.273912 1.67475 0
M  V30 9579 H 869.981 -0.957163 3.79413 0
M  V30 9580 H 869.604 -2.51587 3.07879 0
M  V30 9581 N 870.601 -1.47988 -0.541979 0
M  V30 9582 C 871.531 -1.64503 -1.65713 0
M  V30 9583 C 872.512 -0.494116 -1.62765 0
M  V30 9584 O 873.697 -0.725256 -1.80149 0
M  V30 9585 C 870.827 -1.67337 -3.04328 0
M  V30 9586 C 869.781 -2.81809 -3.2213 0
M  V30 9587 C 869.107 -2.69724 -4.61685 0
M  V30 9588 C 870.407 -4.23241 -3.06046 0
M  V30 9589 H 872.101 -2.5786 -1.52147 0
M  V30 9590 H 869.647 -1.24094 -0.730529 0
M  V30 9591 H 871.6 -1.77481 -3.82202 0
M  V30 9592 H 870.324 -0.705514 -3.18889 0
M  V30 9593 H 868.983 -2.71201 -2.46669 0
M  V30 9594 H 868.631 -1.70934 -4.73065 0
M  V30 9595 H 868.331 -3.4653 -4.74543 0
M  V30 9596 H 869.855 -2.81818 -5.41674 0
M  V30 9597 H 871.269 -4.34746 -3.73723 0
M  V30 9598 H 869.666 -5.00952 -3.30405 0
M  V30 9599 H 870.736 -4.40543 -2.02609 0
M  V30 9600 N 872.079 0.78992 -1.36375 0
M  V30 9601 C 872.989 1.93386 -1.32812 0
M  V30 9602 C 874.005 1.72468 -0.230377 0
M  V30 9603 O 875.181 1.96014 -0.462657 0
M  V30 9604 C 872.246 3.2824 -1.11621 0
M  V30 9605 C 871.307 3.61939 -2.30865 0
M  V30 9606 C 870.54 4.90359 -2.10675 0
M  V30 9607 O 870.763 5.6005 -1.08168 0
M  V30 9608 O 869.697 5.22702 -2.9844 0
M  V30 9609 H 873.523 1.99342 -2.29121 0
M  V30 9610 H 871.108 0.9301 -1.16917 0
M  V30 9611 H 872.99 4.08939 -1.01719 0
M  V30 9612 H 871.665 3.23178 -0.183732 0
M  V30 9613 H 870.572 2.81549 -2.46335 0
M  V30 9614 H 871.905 3.71725 -3.22617 0
M  V30 9615 N 873.557 1.20646 1.01402 0
M  V30 9616 C 874.52 0.959314 2.08158 0
M  V30 9617 C 875.52 -0.0661558 1.60664 0
M  V30 9618 O 876.71 0.170177 1.73367 0
M  V30 9619 C 873.842 0.444785 3.37986 0
M  V30 9620 H 875.035 1.90631 2.31517 0
M  V30 9621 H 872.588 1.02219 1.18241 0
M  V30 9622 H 873.323 -0.507553 3.20304 0
M  V30 9623 H 873.108 1.18435 3.73785 0
M  V30 9624 H 874.598 0.291443 4.16582 0
M  V30 9625 N 875.035 -1.20752 1.01276 0
M  V30 9626 C 876.282 -1.90021 0.699887 0
M  V30 9627 C 876.61 -1.78604 -0.770113 0
M  V30 9628 O 875.865 -1.16195 -1.57471 0
M  V30 9629 C 876.164 -3.40808 1.07633 0
M  V30 9630 C 875.83 -3.72423 2.54189 0
M  V30 9631 C 874.492 -3.80762 2.94234 0
M  V30 9632 C 876.844 -3.87025 3.49086 0
M  V30 9633 C 874.172 -4.01158 4.28123 0
M  V30 9634 C 876.524 -4.0893 4.82658 0
M  V30 9635 C 875.188 -4.15498 5.22415 0
M  V30 9636 H 874.458 -0.695335 0.256107 0
M  V30 9637 H 877.105 -1.43096 1.27263 0
M  V30 9638 H 875.41 -3.89521 0.421944 0
M  V30 9639 H 877.107 -3.92693 0.811997 0
M  V30 9640 H 873.697 -3.66529 2.22158 0
M  V30 9641 H 877.881 -3.79942 3.19309 0
M  V30 9642 H 873.137 -4.04476 4.58486 0
M  V30 9643 H 877.311 -4.19172 5.56119 0
M  V30 9644 H 874.938 -4.31055 6.26176 0
M  V30 9645 N 876.513 -0.788492 -1.36457 0
M  V30 9646 C 877.476 -0.192209 -2.28393 0
M  V30 9647 C 878.476 0.609916 -1.48784 0
M  V30 9648 O 879.666 0.431046 -1.68783 0
M  V30 9649 C 876.798 0.734096 -3.32902 0
M  V30 9650 H 877.991 -1.00284 -2.82636 0
M  V30 9651 H 875.544 -0.557852 -1.46006 0
M  V30 9652 H 876.279 1.5691 -2.83813 0
M  V30 9653 H 876.064 0.160875 -3.9177 0
M  V30 9654 H 877.554 1.1462 -4.01562 0
M  V30 9655 N 877.991 1.48044 -0.54043 0
M  V30 9656 C 878.924 2.26667 0.264083 0
M  V30 9657 C 879.902 1.32996 0.935456 0
M  V30 9658 O 881.086 1.62354 0.95778 0
M  V30 9659 C 878.213 3.09541 1.37485 0
M  V30 9660 C 877.259 4.18664 0.813792 0
M  V30 9661 S 878.092 5.34503 -0.326536 0
M  V30 9662 C 879.248 6.20939 0.786452 0
M  V30 9663 H 879.481 2.94554 -0.403129 0
M  V30 9664 H 877.014 1.5091 -0.326415 0
M  V30 9665 H 878.972 3.57863 2.01107 0
M  V30 9666 H 877.633 2.41048 2.01382 0
M  V30 9667 H 876.826 4.76316 1.6474 0
M  V30 9668 H 876.428 3.73136 0.254066 0
M  V30 9669 H 878.72 6.56273 1.68262 0
M  V30 9670 H 879.663 7.07667 0.247673 0
M  V30 9671 H 880.071 5.54236 1.07156 0
M  V30 9672 N 879.47 0.276058 1.55163 0
M  V30 9673 C 880.4 -0.604633 2.25536 0
M  V30 9674 C 881.381 -1.15813 1.24585 0
M  V30 9675 O 882.566 -1.1921 1.53306 0
M  V30 9676 C 879.696 -1.78836 2.97716 0
M  V30 9677 C 878.65 -1.36635 4.05604 0
M  V30 9678 C 877.976 -2.63325 4.65364 0
M  V30 9679 C 879.276 -0.515858 5.19746 0
M  V30 9680 H 880.97 -0.0177483 2.99395 0
M  V30 9681 H 878.516 -0.00709627 1.43998 0
M  V30 9682 H 880.469 -2.41036 3.45658 0
M  V30 9683 H 879.193 -2.40109 2.21394 0
M  V30 9684 H 877.852 -0.767541 3.58475 0
M  V30 9685 H 877.5 -3.22858 3.85709 0
M  V30 9686 H 877.2 -2.358 5.38212 0
M  V30 9687 H 878.724 -3.26372 5.16056 0
M  V30 9688 H 880.138 -1.04289 5.63735 0
M  V30 9689 H 878.535 -0.335449 5.99162 0
M  V30 9690 H 879.605 0.465137 4.82664 0
M  V30 9691 N 880.948 -1.576 0.00335426 0
M  V30 9692 C 881.911 -2.07576 -0.971838 0
M  V30 9693 C 882.911 -0.985796 -1.27038 0
M  V30 9694 O 884.101 -1.24833 -1.21501 0
M  V30 9695 C 881.233 -2.52003 -2.29581 0
M  V30 9696 H 882.426 -2.95008 -0.539481 0
M  V30 9697 H 879.979 -1.54381 -0.244186 0
M  V30 9698 H 880.714 -1.67825 -2.77498 0
M  V30 9699 H 880.499 -3.31609 -2.09231 0
M  V30 9700 H 881.989 -2.90983 -2.99531 0
M  V30 9701 N 882.426 0.269451 -1.5528 0
M  V30 9702 C 883.389 1.31642 -1.87625 0
M  V30 9703 C 884.389 1.42182 -0.751058 0
M  V30 9704 O 885.579 1.41272 -1.01921 0
M  V30 9705 C 882.711 2.6973 -2.08467 0
M  V30 9706 H 883.904 1.0419 -2.81219 0
M  V30 9707 H 881.457 0.507685 -1.47825 0
M  V30 9708 H 882.192 3.02356 -1.17266 0
M  V30 9709 H 881.977 2.63465 -2.90394 0
M  V30 9710 H 883.467 3.4537 -2.34753 0
M  V30 9711 N 883.904 1.48273 0.534124 0
M  V30 9712 C 884.867 1.6201 1.62127 0
M  V30 9713 C 885.867 0.493653 1.53035 0
M  V30 9714 O 887.057 0.759337 1.56779 0
M  V30 9715 C 884.189 1.5864 3.01739 0
M  V30 9716 H 885.382 2.58944 1.51288 0
M  V30 9717 H 882.935 1.36808 0.755861 0
M  V30 9718 H 883.67 0.631685 3.18088 0
M  V30 9719 H 883.455 2.40415 3.09747 0
M  V30 9720 H 884.945 1.71438 3.80787 0
M  V30 9721 N 885.382 -0.782676 1.36792 0
M  V30 9722 C 886.629 -1.54083 1.31395 0
M  V30 9723 C 886.957 -1.94217 -0.104797 0
M  V30 9724 O 886.212 -1.63491 -1.0756 0
M  V30 9725 C 886.511 -2.82542 2.18872 0
M  V30 9726 C 886.177 -2.61512 3.67317 0
M  V30 9727 C 884.839 -2.55486 4.07775 0
M  V30 9728 C 887.191 -2.42389 4.61407 0
M  V30 9729 C 884.519 -2.28311 5.40454 0
M  V30 9730 C 886.871 -2.1674 5.94312 0
M  V30 9731 C 885.535 -2.09151 6.33887 0
M  V30 9732 H 884.805 -0.563829 0.48081 0
M  V30 9733 H 887.452 -0.902436 1.68903 0
M  V30 9734 H 885.757 -3.50883 1.74323 0
M  V30 9735 H 887.454 -3.40367 2.12017 0
M  V30 9736 H 884.044 -2.67062 3.35225 0
M  V30 9737 H 888.228 -2.46043 4.31018 0
M  V30 9738 H 883.484 -2.20922 5.70091 0
M  V30 9739 H 887.658 -2.0094 6.6678 0
M  V30 9740 H 885.285 -1.87857 7.36623 0
M  V30 9741 N 886.86 -1.21182 -1.00761 0
M  V30 9742 C 888.1 -1.03886 -1.76031 0
M  V30 9743 C 888.464 0.420593 -1.87337 0
M  V30 9744 O 889.665 0.713994 -2.59144 0
M  V30 9745 C 887.936 -1.71394 -3.13622 0
M  V30 9746 S 889.495 -1.69319 -4.04816 0
M  V30 9747 H 886.313 -0.372327 -0.605717 0
M  V30 9748 H 888.915 -1.53885 -1.20581 0
M  V30 9749 H 887.619 -2.76773 -3.03026 0
M  V30 9750 H 887.15 -1.21564 -3.74147 0
M  V30 9751 H 889.165 -0.732434 -4.90765 0
M  V30 9752 N 888.338 1.20213 -1.01915 0
M  V30 9753 C 889.288 2.20957 -0.562327 0
M  V30 9754 C 890.272 1.56258 0.383704 0
M  V30 9755 O 891.464 1.75794 0.206255 0
M  V30 9756 C 888.593 3.43167 0.0954035 0
M  V30 9757 C 887.679 4.15028 -0.872487 0
M  V30 9758 N 888.07 4.63231 -2.03103 0
M  V30 9759 C 886.368 4.4057 -0.69385 0
M  V30 9760 C 887.069 5.18307 -2.64069 0
M  V30 9761 N 886.045 5.08522 -1.9211 0
M  V30 9762 H 889.847 2.55894 -1.44553 0
M  V30 9763 H 887.361 1.36178 -0.884831 0
M  V30 9764 H 889.358 4.14569 0.440232 0
M  V30 9765 H 888.018 3.09734 0.974413 0
M  V30 9766 H 889.029 4.58365 -2.41086 0
M  V30 9767 H 885.706 4.17276 0.136889 0
M  V30 9768 H 887.096 5.65961 -3.6213 0
M  V30 9769 N 889.816 0.795718 1.36037 0
M  V30 9770 C 891.093 0.294743 1.93367 0
M  V30 9771 C 891.473 -1.21406 1.72696 0
M  V30 9772 O 890.821 -2.00849 1.08959 0
M  V30 9773 C 891.031 0.694254 3.42025 0
M  V30 9774 C 892.379 0.677566 4.19159 0
M  V30 9775 O 893.403 0.635119 3.50492 0
M  V30 9776 O 892.262 0.726127 5.41655 0
M  V30 9777 H 889.356 0.0745459 0.823633 0
M  V30 9778 H 891.902 0.878685 1.4518 0
M  V30 9779 H 890.674 1.73458 3.50753 0
M  V30 9780 H 890.297 0.0845338 3.9751 0
M  V30 9781 N 891.294 -1.47756 0.548274 0
M  V30 9782 C 892.543 -2.01691 0.0187961 0
M  V30 9783 C 892.856 -1.42894 -1.33569 0
M  V30 9784 O 894.062 -1.88438 -1.95457 0
M  V30 9785 C 892.518 -3.59896 -0.016847 0
M  V30 9786 C 892.126 -4.27683 1.33385 0
M  V30 9787 C 893.87 -4.21614 -0.494188 0
M  V30 9788 C 891.777 -5.7787 1.2578 0
M  V30 9789 H 890.707 -0.753993 0.00325648 0
M  V30 9790 H 893.358 -1.69838 0.694792 0
M  V30 9791 H 891.74 -3.88672 -0.758304 0
M  V30 9792 H 892.914 -4.10559 2.09232 0
M  V30 9793 H 891.229 -3.77915 1.7484 0
M  V30 9794 H 893.826 -5.3166 -0.569342 0
M  V30 9795 H 894.169 -3.88176 -1.50417 0
M  V30 9796 H 894.702 -3.97336 0.192138 0
M  V30 9797 H 891.441 -6.15912 2.2435 0
M  V30 9798 H 890.961 -5.97355 0.540997 0
M  V30 9799 H 892.64 -6.39897 0.956109 0
M  V30 9800 N 892.772 -0.284283 -1.55015 0
M  V30 9801 C 894.049 0.382125 -1.91831 0
M  V30 9802 C 894.429 1.73007 -1.20962 0
M  V30 9803 O 893.777 2.25962 -0.339594 0
M  V30 9804 C 893.987 0.513341 -3.45204 0
M  V30 9805 C 895.335 0.791989 -4.17148 0
M  V30 9806 O 896.359 0.597799 -3.51148 0
M  V30 9807 O 895.218 1.16394 -5.33961 0
M  V30 9808 H 892.312 0.210707 -0.799707 0
M  V30 9809 H 894.858 -0.331111 -1.66438 0
M  V30 9810 H 893.63 -0.434911 -3.88876 0
M  V30 9811 H 893.253 1.27569 -3.76579 0
M  V30 9812 N 894.251 1.57596 -0.0117121 0
M  V30 9813 C 895.201 2.05641 0.98467 0
M  V30 9814 C 896.185 0.953422 1.2961 0
M  V30 9815 O 897.377 1.21712 1.28512 0
M  V30 9816 C 894.506 2.57285 2.27286 0
M  V30 9817 C 893.592 3.74483 1.99057 0
M  V30 9818 N 893.983 4.85741 1.41029 0
M  V30 9819 C 892.281 3.82637 2.2914 0
M  V30 9820 C 892.982 5.67094 1.29536 0
M  V30 9821 N 891.958 5.13459 1.78497 0
M  V30 9822 H 895.76 2.89069 0.530702 0
M  V30 9823 H 893.274 1.6124 0.193717 0
M  V30 9824 H 895.271 2.89988 2.99521 0
M  V30 9825 H 893.931 1.75281 2.73325 0
M  V30 9826 H 894.942 5.06352 1.08756 0
M  V30 9827 H 891.619 3.11509 2.77972 0
M  V30 9828 H 893.009 6.66525 0.848144 0
M  V30 9829 N 895.729 -0.261212 1.5542 0
M  V30 9830 C 897.145 -0.609012 1.47524 0
M  V30 9831 C 897.345 -1.88986 0.699042 0
M  V30 9832 O 896.401 -2.51517 0.222628 0
M  V30 9833 C 897.714 -0.725025 2.91828 0
M  V30 9834 C 899.262 -0.818302 3.02114 0
M  V30 9835 C 899.737 -0.965996 4.47697 0
M  V30 9836 N 901.228 -1.03123 4.51575 0
M  V30 9837 C 901.963 -1.16451 5.6145 0
M  V30 9838 N 901.459 -1.26425 6.81167 0
M  V30 9839 N 903.252 -1.19655 5.49217 0
M  V30 9840 H 895.403 0.579807 2.04333 0
M  V30 9841 H 897.666 0.198072 0.927077 0
M  V30 9842 H 897.372 0.145871 3.51397 0
M  V30 9843 H 897.246 -1.60156 3.41511 0
M  V30 9844 H 899.633 -1.67966 2.42634 0
M  V30 9845 H 899.714 0.0830895 2.55665 0
M  V30 9846 H 899.358 -0.109251 5.07782 0
M  V30 9847 H 899.288 -1.88221 4.91813 0
M  V30 9848 H 901.779 -0.966072 3.65343 0
M  V30 9849 H 902.092 -1.36462 7.60656 0
M  V30 9850 H 900.437 -1.23408 6.83956 0
M  V30 9851 H 903.628 -1.11501 4.54626 0
M  V30 9852 H 903.801 -1.29698 6.34888 0
M  V30 9853 N 897.207 -1.48554 -0.526253 0
M  V30 9854 C 898.455 -1.56452 -1.27935 0
M  V30 9855 C 898.776 -0.24184 -1.93495 0
M  V30 9856 O 898.046 0.736917 -1.81511 0
M  V30 9857 H 896.626 -0.576379 -0.47518 0
M  V30 9858 H 899.288 -1.85039 -0.612083 0
M  V30 9859 H 898.384 -2.34751 -2.05666 0
M  V30 9860 N 898.685 0.775411 -1.37205 0
M  V30 9861 C 899.913 1.56446 -1.35397 0
M  V30 9862 C 900.328 1.887 0.0615437 0
M  V30 9863 O 899.685 1.51178 1.02233 0
M  V30 9864 C 899.736 2.87697 -2.18889 0
M  V30 9865 O 899.457 2.56828 -3.54924 0
M  V30 9866 C 900.958 3.81944 -2.25019 0
M  V30 9867 H 898.178 0.484792 -0.463916 0
M  V30 9868 H 900.722 0.961346 -1.80495 0
M  V30 9869 H 898.877 3.44442 -1.7731 0
M  V30 9870 H 899.291 3.40851 -3.98649 0
M  V30 9871 H 900.765 4.71055 -2.87769 0
M  V30 9872 H 901.242 4.20811 -1.25757 0
M  V30 9873 H 901.848 3.3113 -2.66895 0
M  V30 9874 N 900.163 1.21714 1.00117 0
M  V30 9875 C 901.111 0.976937 2.11089 0
M  V30 9876 C 902.105 -0.0771295 1.69224 0
M  V30 9877 O 903.311 0.0745945 1.79845 0
M  V30 9878 H 899.686 0.298687 0.690138 0
M  V30 9879 H 901.657 1.91881 2.28526 0
M  V30 9880 C 900.406 0.562369 3.43122 0
M  V30 9881 H 899.729 1.36509 3.75773 0
M  V30 9882 H 901.169 0.433642 4.21777 0
M  V30 9883 C 899.628 -0.727148 3.28959 0
M  V30 9884 O 900.158 -1.78171 3.60025 0
M  V30 9885 N 898.364 -0.695129 2.82164 0
M  V30 9886 H 897.911 0.163346 2.57082 0
M  V30 9887 H 897.869 -1.55822 2.73069 0
M  V30 9888 N 901.641 -1.19671 1.02551 0
M  V30 9889 C 902.589 -2.24812 0.596867 0
M  V30 9890 C 903.583 -1.65336 -0.368839 0
M  V30 9891 O 904.789 -1.78422 -0.237786 0
M  V30 9892 H 901.164 -0.731417 0.174739 0
M  V30 9893 H 903.135 -2.58286 1.49435 0
M  V30 9894 C 901.884 -3.47677 -0.0399514 0
M  V30 9895 H 901.207 -3.93728 0.694153 0
M  V30 9896 H 902.647 -4.22917 -0.302861 0
M  V30 9897 C 901.106 -3.11411 -1.2855 0
M  V30 9898 O 901.636 -3.23757 -2.37791 0
M  V30 9899 N 899.842 -2.65875 -1.17297 0
M  V30 9900 H 899.389 -2.56029 -0.284045 0
M  V30 9901 H 899.347 -2.41981 -2.00731 0
M  V30 9902 N 903.119 -0.802921 -1.35613 0
M  V30 9903 C 904.049 -0.225131 -2.32412 0
M  V30 9904 C 905.03 0.647383 -1.57299 0
M  V30 9905 O 906.215 0.578414 -1.85386 0
M  V30 9906 C 903.345 0.630085 -3.41537 0
M  V30 9907 C 902.299 -0.143635 -4.27759 0
M  V30 9908 C 901.625 0.833046 -5.28171 0
M  V30 9909 C 902.925 -1.34054 -5.04804 0
M  V30 9910 H 904.619 -1.03385 -2.80984 0
M  V30 9911 H 902.165 -0.498593 -1.35093 0
M  V30 9912 H 904.118 1.04433 -4.08254 0
M  V30 9913 H 902.842 1.47165 -2.91565 0
M  V30 9914 H 901.501 -0.539015 -3.62616 0
M  V30 9915 H 901.149 1.67001 -4.74468 0
M  V30 9916 H 900.849 0.319697 -5.8673 0
M  V30 9917 H 902.373 1.24558 -5.97761 0
M  V30 9918 H 903.787 -1.00136 -5.64487 0
M  V30 9919 H 902.184 -1.78812 -5.72841 0
M  V30 9920 H 903.254 -2.12906 -4.35659 0
M  V30 9921 N 904.597 1.47463 -0.556102 0
M  V30 9922 C 905.827 2.06568 -0.0364056 0
M  V30 9923 C 906.235 1.40939 1.26225 0
M  V30 9924 O 905.578 0.499572 1.76777 0
M  V30 9925 C 905.64 3.58755 0.231278 0
M  V30 9926 C 905.304 4.46417 -0.977776 0
M  V30 9927 C 906.301 4.846 -1.88305 0
M  V30 9928 C 903.986 4.87948 -1.19214 0
M  V30 9929 C 905.98 5.63111 -2.98639 0
M  V30 9930 C 903.667 5.66224 -2.29857 0
M  V30 9931 C 904.665 6.03716 -3.194 0
M  V30 9932 O 904.353 6.80415 -4.28125 0
M  V30 9933 H 904.085 0.674675 -0.042305 0
M  V30 9934 H 906.639 1.9047 -0.768775 0
M  V30 9935 H 904.869 3.73061 1.01794 0
M  V30 9936 H 906.558 3.99884 0.696221 0
M  V30 9937 H 907.324 4.53115 -1.72949 0
M  V30 9938 H 903.203 4.58233 -0.504347 0
M  V30 9939 H 906.747 5.92293 -3.68557 0
M  V30 9940 H 902.644 5.97121 -2.45186 0
M  V30 9941 H 903.412 6.98807 -4.26159 0
M  V30 9942 N 906.075 0.2925 1.54862 0
M  V30 9943 C 907.007 -0.620889 2.2063 0
M  V30 9944 C 908.02 -1.10412 1.19637 0
M  V30 9945 O 909.209 -1.02304 1.46274 0
M  V30 9946 C 906.309 -1.861 2.83232 0
M  V30 9947 C 905.482 -1.52168 4.10078 0
M  V30 9948 C 904.541 -2.61605 4.56562 0
M  V30 9949 O 903.567 -2.27056 5.21952 0
M  V30 9950 N 904.769 -3.9199 4.28163 0
M  V30 9951 H 907.534 -0.0579028 2.99644 0
M  V30 9952 H 905.095 0.114333 1.61496 0
M  V30 9953 H 907.087 -2.58642 3.11266 0
M  V30 9954 H 905.657 -2.33259 2.08108 0
M  V30 9955 H 904.877 -0.629283 3.89145 0
M  V30 9956 H 906.165 -1.27023 4.92689 0
M  V30 9957 H 905.563 -4.22872 3.7576 0
M  V30 9958 H 904.12 -4.60857 4.60928 0
M  V30 9959 N 907.553 -1.57587 0.0200696 0
M  V30 9960 C 908.486 -2.05157 -0.999295 0
M  V30 9961 C 909.464 -0.945466 -1.32286 0
M  V30 9962 O 910.648 -1.21512 -1.44108 0
M  V30 9963 C 907.775 -2.46604 -2.32173 0
M  V30 9964 C 906.821 -3.68146 -2.15339 0
M  V30 9965 S 907.654 -5.15194 -1.46065 0
M  V30 9966 C 908.81 -5.59929 -2.79697 0
M  V30 9967 H 909.043 -2.91299 -0.59433 0
M  V30 9968 H 906.576 -1.53209 -0.191372 0
M  V30 9969 H 908.534 -2.7115 -3.08201 0
M  V30 9970 H 907.195 -1.60825 -2.69804 0
M  V30 9971 H 906.388 -3.94963 -3.13082 0
M  V30 9972 H 905.99 -3.43705 -1.47454 0
M  V30 9973 H 908.282 -5.63615 -3.75957 0
M  V30 9974 H 909.225 -6.59599 -2.57555 0
M  V30 9975 H 909.633 -4.87549 -2.84528 0
M  V30 9976 N 909.032 0.252966 -1.55557 0
M  V30 9977 C 909.979 1.3131 -1.89806 0
M  V30 9978 C 910.949 1.48121 -0.751633 0
M  V30 9979 O 912.134 1.62202 -1.00474 0
M  V30 9980 C 909.274 2.66467 -2.19293 0
M  V30 9981 C 908.387 2.57714 -3.46709 0
M  V30 9982 C 907.522 3.85184 -3.65796 0
M  V30 9983 C 906.561 3.71023 -4.86835 0
M  V30 9984 N 905.698 4.90371 -5.02474 0
M  V30 9985 H 910.538 1.01402 -2.80217 0
M  V30 9986 H 908.075 0.489462 -1.38718 0
M  V30 9987 H 910.033 3.45132 -2.34392 0
M  V30 9988 H 908.663 2.94536 -1.32093 0
M  V30 9989 H 907.715 1.70651 -3.39974 0
M  V30 9990 H 909.027 2.43158 -4.35517 0
M  V30 9991 H 908.181 4.72292 -3.80822 0
M  V30 9992 H 906.92 4.0263 -2.7521 0
M  V30 9993 H 905.925 2.82299 -4.71792 0
M  V30 9994 H 907.15 3.55078 -5.78875 0
M  V30 9995 H 905.096 5.0819 -4.14824 0
M  V30 9996 H 905.013 4.78423 -5.85361 0
M  V30 9997 H 906.281 5.78995 -5.21905 0
M  V30 9998 N 910.51 1.48831 0.518367 0
M  V30 9999 C 911.735 1.61379 1.30275 0
M  V30 10000 C 912.16 0.278571 1.86026 0
M  V30 10001 O 911.518 -0.751427 1.64995 0
M  V30 10002 C 911.566 2.67225 2.42122 0
M  V30 10003 O 910.67 2.25192 3.45489 0
M  V30 10004 H 910.011 0.540742 0.385349 0
M  V30 10005 H 912.541 1.949 0.622498 0
M  V30 10006 H 912.551 2.88859 2.8814 0
M  V30 10007 H 911.226 3.64155 2.00907 0
M  V30 10008 H 909.803 2.13819 3.05509 0
M  V30 10009 N 911.988 -0.768124 1.37614 0
M  V30 10010 C 913.216 -1.55726 1.36224 0
M  V30 10011 C 913.631 -1.8873 -0.0515357 0
M  V30 10012 O 912.988 -1.51718 -1.0143 0
M  V30 10013 C 913.039 -2.86533 2.20412 0
M  V30 10014 O 912.76 -2.54942 3.56281 0
M  V30 10015 C 914.261 -3.80745 2.27041 0
M  V30 10016 H 911.481 -0.482325 0.46648 0
M  V30 10017 H 914.025 -0.95176 1.81002 0
M  V30 10018 H 912.18 -3.43496 1.79134 0
M  V30 10019 H 912.594 -3.38732 4.00451 0
M  V30 10020 H 914.068 -4.69523 2.90263 0
M  V30 10021 H 914.545 -4.20138 1.27987 0
M  V30 10022 H 915.151 -3.2971 2.68647 0
M  V30 10023 N 913.466 -1.22244 -0.994698 0
M  V30 10024 C 914.691 -1.07299 -1.77487 0
M  V30 10025 C 915.116 0.372302 -1.84379 0
M  V30 10026 O 914.474 1.2689 -1.29494 0
M  V30 10027 C 914.522 -1.68675 -3.18718 0
M  V30 10028 O 913.626 -0.939202 -4.01563 0
M  V30 10029 H 912.967 -0.376979 -0.546611 0
M  V30 10030 H 915.497 -1.62003 -1.24965 0
M  V30 10031 H 915.507 -1.73324 -3.69354 0
M  V30 10032 H 914.182 -2.73849 -3.13017 0
M  V30 10033 H 912.759 -0.968583 -3.60101 0
M  V30 10034 N 914.944 1.19125 -1.03184 0
M  V30 10035 C 916.355 1.70564 -0.759264 0
M  V30 10036 C 916.706 1.8248 0.720794 0
M  V30 10037 O 915.831 1.49804 1.56166 0
M  V30 10038 C 916.426 3.09793 -1.37163 0
M  V30 10039 C 914.985 3.5848 -1.14757 0
M  V30 10040 C 914.132 2.35265 -1.46784 0
M  V30 10041 H 917.083 1.03925 -1.19939 0
M  V30 10042 H 917.104 3.72624 -0.77015 0
M  V30 10043 H 916.616 3.01088 -2.44882 0
M  V30 10044 H 914.717 3.72494 -0.0887182 0
M  V30 10045 H 914.83 4.42426 -1.83836 0
M  V30 10046 H 913.194 2.38747 -0.887254 0
M  V30 10047 H 913.977 2.29188 -2.55593 0
M  V30 10048 N 916.422 0.810101 1.35185 0
M  V30 10049 C 917.352 0.237453 2.32289 0
M  V30 10050 C 918.333 -0.639032 1.5764 0
M  V30 10051 O 919.518 -0.568575 1.8569 0
M  V30 10052 C 916.648 -0.611964 3.41866 0
M  V30 10053 C 915.602 0.166318 4.27677 0
M  V30 10054 C 914.928 -0.805024 5.28605 0
M  V30 10055 C 916.228 1.36729 5.04086 0
M  V30 10056 H 917.922 1.04874 2.80432 0
M  V30 10057 H 915.468 0.505751 1.34826 0
M  V30 10058 H 917.421 -1.02267 4.08802 0
M  V30 10059 H 916.145 -1.45617 2.92341 0
M  V30 10060 H 914.804 0.558238 3.62325 0
M  V30 10061 H 914.452 -1.64483 4.75347 0
M  V30 10062 H 914.152 -0.288577 5.86891 0
M  V30 10063 H 915.676 -1.21386 5.98413 0
M  V30 10064 H 917.09 1.03128 5.63948 0
M  V30 10065 H 915.487 1.81848 5.71884 0
M  V30 10066 H 916.557 2.15214 4.34524 0
M  V30 10067 N 917.9 -1.47166 0.563914 0
M  V30 10068 C 918.863 -2.28571 -0.169624 0
M  V30 10069 C 919.863 -1.37331 -0.836467 0
M  V30 10070 O 921.053 -1.59896 -0.6913 0
M  V30 10071 C 918.185 -3.17201 -1.24886 0
M  V30 10072 H 919.378 -2.94896 0.545539 0
M  V30 10073 H 916.931 -1.52966 0.321121 0
M  V30 10074 H 917.666 -2.55582 -1.99621 0
M  V30 10075 H 917.451 -3.84356 -0.775426 0
M  V30 10076 H 918.941 -3.7852 -1.76388 0
M  V30 10077 N 919.378 -0.300708 -1.54705 0
M  V30 10078 C 920.794 0.0526874 -1.59513 0
M  V30 10079 C 920.994 1.52444 -1.31769 0
M  V30 10080 O 920.05 2.27716 -1.09096 0
M  V30 10081 C 921.363 -0.344989 -2.98714 0
M  V30 10082 C 922.911 -0.29373 -3.11619 0
M  V30 10083 C 923.386 -0.666225 -4.53129 0
M  V30 10084 N 924.877 -0.618749 -4.59049 0
M  V30 10085 C 925.612 -0.879447 -5.66616 0
M  V30 10086 N 925.108 -1.2061 -6.82221 0
M  V30 10087 N 926.901 -0.806528 -5.56284 0
M  V30 10088 H 919.052 -1.25988 -1.71 0
M  V30 10089 H 921.315 -0.510758 -0.798643 0
M  V30 10090 H 921.021 -1.36953 -3.2394 0
M  V30 10091 H 920.895 0.301507 -3.75993 0
M  V30 10092 H 923.282 0.72156 -2.86142 0
M  V30 10093 H 923.363 -0.974844 -2.36496 0
M  V30 10094 H 923.007 -1.67932 -4.79334 0
M  V30 10095 H 922.937 0.0369575 -5.26587 0
M  V30 10096 H 925.428 -0.377202 -3.76013 0
M  V30 10097 H 925.741 -1.391 -7.60178 0
M  V30 10098 H 924.086 -1.24413 -6.83774 0
M  V30 10099 H 927.277 -0.550993 -4.64846 0
M  V30 10100 H 927.45 -1.01307 -6.40032 0
M  V30 10101 N 920.856 1.57574 -0.0284266 0
M  V30 10102 C 921.786 2.1321 0.952039 0
M  V30 10103 C 922.767 1.04806 1.33977 0
M  V30 10104 O 923.952 1.32635 1.41851 0
M  V30 10105 C 921.082 2.65862 2.23461 0
M  V30 10106 C 920.036 3.79047 1.98765 0
M  V30 10107 C 919.362 4.18124 3.33281 0
M  V30 10108 C 920.662 5.05151 1.32739 0
M  V30 10109 H 922.356 2.95385 0.488705 0
M  V30 10110 H 919.902 1.42092 0.233628 0
M  V30 10111 H 921.855 3.03417 2.92431 0
M  V30 10112 H 920.579 1.80848 2.71959 0
M  V30 10113 H 919.238 3.41929 1.32213 0
M  V30 10114 H 918.886 3.30092 3.79537 0
M  V30 10115 H 918.586 4.94396 3.17563 0
M  V30 10116 H 920.11 4.58262 4.0352 0
M  V30 10117 H 921.524 5.40297 1.91708 0
M  V30 10118 H 919.921 5.86416 1.27421 0
M  V30 10119 H 920.991 4.83969 0.300261 0
M  V30 10120 N 922.334 -0.244713 1.55689 0
M  V30 10121 C 923.284 -1.30596 1.86892 0
M  V30 10122 C 924.268 -1.43388 0.729972 0
M  V30 10123 O 925.46 -1.46593 0.99194 0
M  V30 10124 C 922.589 -2.66099 2.16902 0
M  V30 10125 C 921.675 -2.57302 3.37129 0
M  V30 10126 N 922.066 -2.18139 4.56343 0
M  V30 10127 C 920.364 -2.88311 3.40283 0
M  V30 10128 C 921.065 -2.20028 5.38482 0
M  V30 10129 N 920.041 -2.59616 4.77599 0
M  V30 10130 H 923.843 -0.993699 2.76591 0
M  V30 10131 H 921.357 -0.453334 1.55944 0
M  V30 10132 H 923.354 -3.4269 2.37422 0
M  V30 10133 H 922.014 -2.9819 1.28502 0
M  V30 10134 H 923.025 -1.89647 4.81928 0
M  V30 10135 H 919.702 -3.24928 2.62161 0
M  V30 10136 H 921.092 -1.9207 6.43862 0
M  V30 10137 N 923.813 -1.49104 -0.510467 0
M  V30 10138 C 925.061 -1.578 -1.26268 0
M  V30 10139 C 925.382 -0.262349 -1.93227 0
M  V30 10140 O 924.652 0.717624 -1.82283 0
M  V30 10141 H 923.232 -0.581387 -0.46904 0
M  V30 10142 H 925.894 -1.85678 -0.592423 0
M  V30 10143 H 924.99 -2.36919 -2.03165 0
M  V30 10144 N 925.291 0.760815 -1.38019 0
M  V30 10145 C 926.516 1.55513 -1.37224 0
M  V30 10146 C 926.941 1.88062 0.037611 0
M  V30 10147 O 926.299 1.50042 1.0177 0
M  V30 10148 C 926.347 2.83539 -2.22796 0
M  V30 10149 O 925.451 3.78384 -1.64009 0
M  V30 10150 H 924.792 0.470642 -0.468393 0
M  V30 10151 H 927.322 0.940792 -1.81687 0
M  V30 10152 H 927.332 3.32535 -2.36399 0
M  V30 10153 H 926.007 2.59178 -3.25269 0
M  V30 10154 H 924.584 3.37063 -1.59508 0
M  V30 10155 N 926.769 1.22769 0.988202 0
M  V30 10156 C 927.994 1.08239 1.76915 0
M  V30 10157 C 928.419 -0.362519 1.84574 0
M  V30 10158 O 927.777 -1.26202 1.30165 0
M  V30 10159 C 927.825 1.70363 3.17819 0
M  V30 10160 O 926.929 0.960484 4.01059 0
M  V30 10161 H 926.27 0.379872 0.544604 0
M  V30 10162 H 928.8 1.62663 1.24104 0
M  V30 10163 H 928.81 1.7528 3.6843 0
M  V30 10164 H 927.485 2.75505 3.1156 0
M  V30 10165 H 926.062 0.987667 3.59582 0
M  V30 10166 N 928.247 -1.18576 1.03814 0
M  V30 10167 C 929.496 -1.87822 0.735235 0
M  V30 10168 C 929.809 -1.81069 -0.739819 0
M  V30 10169 O 931.015 -2.45654 -1.15614 0
M  V30 10170 C 929.471 -3.36941 1.26486 0
M  V30 10171 C 929.079 -3.5223 2.76836 0
M  V30 10172 C 930.823 -4.11604 1.03836 0
M  V30 10173 C 928.73 -4.95294 3.23169 0
M  V30 10174 H 927.66 -0.703487 0.271333 0
M  V30 10175 H 930.311 -1.34 1.25365 0
M  V30 10176 H 928.693 -3.90217 0.674318 0
M  V30 10177 H 929.867 -3.09239 3.41625 0
M  V30 10178 H 928.182 -2.90969 2.97869 0
M  V30 10179 H 930.779 -5.17123 1.3597 0
M  V30 10180 H 931.122 -4.16293 -0.0244945 0
M  V30 10181 H 931.655 -3.64494 1.59338 0
M  V30 10182 H 928.394 -4.95772 4.28824 0
M  V30 10183 H 927.914 -5.3901 2.63113 0
M  V30 10184 H 929.593 -5.63996 3.17045 0
M  V30 10185 N 929.725 -0.817259 -1.34754 0
M  V30 10186 C 930.655 -0.249769 -2.3216 0
M  V30 10187 C 931.636 0.630663 -1.57977 0
M  V30 10188 O 932.821 0.558719 -1.85989 0
M  V30 10189 C 929.951 0.593825 -3.42186 0
M  V30 10190 C 928.905 -0.188997 -4.27583 0
M  V30 10191 C 928.231 0.776979 -5.29025 0
M  V30 10192 C 929.531 -1.39401 -5.03354 0
M  V30 10193 H 931.225 -1.06359 -2.79872 0
M  V30 10194 H 928.771 -0.512894 -1.34556 0
M  V30 10195 H 930.724 1.00097 -4.09339 0
M  V30 10196 H 929.448 1.44064 -2.93109 0
M  V30 10197 H 928.107 -0.577445 -3.62024 0
M  V30 10198 H 927.755 1.61959 -4.76212 0
M  V30 10199 H 927.455 0.257448 -5.87036 0
M  V30 10200 H 928.979 1.18211 -5.99048 0
M  V30 10201 H 930.393 -1.06117 -5.63393 0
M  V30 10202 H 928.79 -1.84878 -5.70912 0
M  V30 10203 H 929.86 -2.17515 -4.33377 0
M  V30 10204 N 931.203 1.46865 -0.571711 0
M  V30 10205 C 932.113 2.33979 0.170571 0
M  V30 10206 C 933.129 1.49083 0.897239 0
M  V30 10207 O 934.305 1.81979 0.862888 0
M  V30 10208 C 931.37 3.26063 1.17831 0
M  V30 10209 C 930.431 4.26855 0.457499 0
M  V30 10210 C 929.664 5.14539 1.41722 0
M  V30 10211 O 929.887 5.04945 2.65305 0
M  V30 10212 O 928.821 5.94612 0.9338 0
M  V30 10213 H 932.647 2.98781 -0.544396 0
M  V30 10214 H 930.232 1.4566 -0.332198 0
M  V30 10215 H 932.114 3.82903 1.75965 0
M  V30 10216 H 930.789 2.63871 1.87493 0
M  V30 10217 H 929.696 3.73734 -0.165406 0
M  V30 10218 H 931.029 4.91802 -0.197953 0
M  V30 10219 N 932.681 0.308908 1.54543 0
M  V30 10220 C 934.097 -0.0442273 1.59539 0
M  V30 10221 C 934.297 -1.51743 1.32575 0
M  V30 10222 O 933.353 -2.27134 1.10302 0
M  V30 10223 C 934.666 0.360826 2.98527 0
M  V30 10224 C 936.214 0.310252 3.11459 0
M  V30 10225 C 936.689 0.690246 4.52769 0
M  V30 10226 N 938.18 0.643084 4.58714 0
M  V30 10227 C 938.915 0.909483 5.66141 0
M  V30 10228 N 938.411 1.24226 6.81572 0
M  V30 10229 N 940.204 0.836018 5.55848 0
M  V30 10230 H 932.355 1.26893 1.70329 0
M  V30 10231 H 934.618 0.514986 0.795923 0
M  V30 10232 H 934.324 1.38669 3.23209 0
M  V30 10233 H 934.198 -0.281563 3.76148 0
M  V30 10234 H 936.585 -0.706375 2.86521 0
M  V30 10235 H 936.666 0.987373 2.35976 0
M  V30 10236 H 936.31 1.70472 4.78437 0
M  V30 10237 H 936.24 -0.00903075 5.26599 0
M  V30 10238 H 938.731 0.397138 3.75807 0
M  V30 10239 H 939.044 1.4313 7.5943 0
M  V30 10240 H 937.389 1.28038 6.83104 0
M  V30 10241 H 940.58 0.575637 4.64547 0
M  V30 10242 H 940.753 1.047 6.39486 0
M  V30 10243 N 934.159 -1.57557 0.0367827 0
M  V30 10244 C 935.109 -2.07182 -0.95183 0
M  V30 10245 C 936.093 -0.973921 -1.28076 0
M  V30 10246 O 937.285 -1.23741 -1.26559 0
M  V30 10247 C 934.414 -2.60869 -2.23164 0
M  V30 10248 C 933.5 -3.77602 -1.93074 0
M  V30 10249 N 933.891 -4.87923 -1.33283 0
M  V30 10250 C 932.189 -3.86234 -2.23023 0
M  V30 10251 C 932.89 -5.69083 -1.20498 0
M  V30 10252 N 931.866 -5.16233 -1.70306 0
M  V30 10253 H 935.668 -2.89876 -0.484647 0
M  V30 10254 H 933.182 -1.61528 -0.16804 0
M  V30 10255 H 935.179 -2.94716 -2.9487 0
M  V30 10256 H 933.839 -1.79607 -2.70502 0
M  V30 10257 H 934.85 -5.08018 -1.00686 0
M  V30 10258 H 931.527 -3.15891 -2.72981 0
M  V30 10259 H 932.917 -6.6779 -0.741999 0
M  V30 10260 N 935.637 0.236453 -1.55816 0
M  V30 10261 C 936.587 1.29603 -1.87582 0
M  V30 10262 C 937.571 1.42999 -0.737566 0
M  V30 10263 O 938.763 1.46065 -0.999701 0
M  V30 10264 C 935.892 2.64945 -2.1831 0
M  V30 10265 C 934.978 2.55511 -3.38489 0
M  V30 10266 N 935.369 2.15716 -4.57494 0
M  V30 10267 C 933.667 2.86502 -3.41808 0
M  V30 10268 C 934.368 2.17169 -5.39641 0
M  V30 10269 N 933.344 2.5708 -4.78969 0
M  V30 10270 H 937.146 0.979016 -2.77115 0
M  V30 10271 H 934.66 0.445058 -1.56183 0
M  V30 10272 H 936.657 3.41426 -2.39236 0
M  V30 10273 H 935.317 2.97504 -1.30082 0
M  V30 10274 H 936.328 1.87089 -4.82927 0
M  V30 10275 H 933.005 3.23533 -2.6388 0
M  V30 10276 H 934.395 1.88653 -6.44872 0
M  V30 10277 N 937.115 1.49373 0.502552 0
M  V30 10278 C 938.045 1.68839 1.61294 0
M  V30 10279 C 939.026 0.537096 1.61398 0
M  V30 10280 O 940.211 0.772764 1.78163 0
M  V30 10281 C 937.341 1.75347 2.99784 0
M  V30 10282 C 936.295 2.90251 3.14545 0
M  V30 10283 C 935.621 2.8187 4.54371 0
M  V30 10284 C 936.921 4.31207 2.94717 0
M  V30 10285 H 938.615 2.61803 1.45257 0
M  V30 10286 H 936.161 1.25987 0.697371 0
M  V30 10287 H 938.114 1.87552 3.77362 0
M  V30 10288 H 936.838 0.789814 3.16906 0
M  V30 10289 H 935.497 2.77646 2.39392 0
M  V30 10290 H 935.145 1.83416 4.68367 0
M  V30 10291 H 934.845 3.5899 4.65188 0
M  V30 10292 H 936.369 2.96081 5.34012 0
M  V30 10293 H 937.783 4.44501 3.62065 0
M  V30 10294 H 936.18 5.09536 3.17007 0
M  V30 10295 H 937.25 4.45759 1.90857 0
M  V30 10296 N 938.594 -0.753485 1.38421 0
M  V30 10297 C 939.504 -1.89797 1.37892 0
M  V30 10298 C 940.52 -1.71797 0.276023 0
M  V30 10299 O 941.696 -1.94718 0.514464 0
M  V30 10300 C 938.761 -3.25166 1.20284 0
M  V30 10301 C 937.822 -3.55691 2.4038 0
M  V30 10302 C 937.055 -4.84601 2.23602 0
M  V30 10303 O 937.278 -5.56985 1.22979 0
M  V30 10304 O 936.212 -5.14605 3.12194 0
M  V30 10305 H 940.038 -1.93197 2.34326 0
M  V30 10306 H 937.623 -0.898775 1.19342 0
M  V30 10307 H 939.505 -4.06099 1.12525 0
M  V30 10308 H 938.18 -3.22577 0.269352 0
M  V30 10309 H 937.087 -2.74919 2.53714 0
M  V30 10310 H 938.42 -3.6304 3.32359 0
M  V30 10311 N 940.072 -1.23292 -0.981677 0
M  V30 10312 C 941.302 -1.0893 -1.7555 0
M  V30 10313 C 941.71 0.362219 -1.857 0
M  V30 10314 O 941.053 1.2624 -1.33451 0
M  V30 10315 C 941.115 -1.6389 -3.19969 0
M  V30 10316 C 940.779 -3.12632 -3.33332 0
M  V30 10317 C 941.776 -4.0994 -3.19758 0
M  V30 10318 C 939.461 -3.52314 -3.58022 0
M  V30 10319 C 941.455 -5.44915 -3.30676 0
M  V30 10320 C 939.142 -4.87434 -3.6858 0
M  V30 10321 C 940.14 -5.83544 -3.54916 0
M  V30 10322 O 939.828 -7.16209 -3.65102 0
M  V30 10323 H 939.56 -0.381901 -0.557788 0
M  V30 10324 H 942.114 -1.63586 -1.24213 0
M  V30 10325 H 940.344 -1.03653 -3.72549 0
M  V30 10326 H 942.033 -1.45023 -3.79108 0
M  V30 10327 H 942.799 -3.80625 -3.00582 0
M  V30 10328 H 938.678 -2.78022 -3.67729 0
M  V30 10329 H 942.222 -6.19913 -3.19928 0
M  V30 10330 H 938.119 -5.16426 -3.87265 0
M  V30 10331 H 938.887 -7.23941 -3.81905 0
M  V30 10332 N 941.55 1.18024 -1.04442 0
M  V30 10333 C 942.775 1.92573 -0.770097 0
M  V30 10334 C 943.2 1.75871 0.667169 0
M  V30 10335 O 942.558 1.07136 1.46258 0
M  V30 10336 C 942.606 3.41904 -1.14602 0
M  V30 10337 O 941.71 4.11491 -0.273712 0
M  V30 10338 H 941.051 0.600636 -0.283076 0
M  V30 10339 H 943.581 1.49645 -1.39526 0
M  V30 10340 H 943.591 3.92623 -1.10956 0
M  V30 10341 H 942.266 3.53382 -2.19304 0
M  V30 10342 H 940.843 3.71059 -0.370124 0
M  V30 10343 N 943.028 0.824394 1.34319 0
M  V30 10344 C 943.975 0.245282 2.29493 0
M  V30 10345 C 944.945 -0.630762 1.53657 0
M  V30 10346 O 946.13 -0.572094 1.82021 0
M  V30 10347 C 943.27 -0.585631 3.40095 0
M  V30 10348 C 942.383 0.312821 4.30866 0
M  V30 10349 C 941.518 -0.527801 5.28571 0
M  V30 10350 C 940.557 0.369946 6.10981 0
M  V30 10351 N 939.694 -0.43169 7.00772 0
M  V30 10352 H 944.534 1.06225 2.78425 0
M  V30 10353 H 942.071 0.53533 1.37013 0
M  V30 10354 H 944.029 -1.08271 4.02906 0
M  V30 10355 H 942.659 -1.3677 2.92393 0
M  V30 10356 H 941.711 0.928129 3.68904 0
M  V30 10357 H 943.023 1.00306 4.8861 0
M  V30 10358 H 942.177 -1.0893 5.96841 0
M  V30 10359 H 940.916 -1.25154 4.71368 0
M  V30 10360 H 939.921 0.943577 5.41643 0
M  V30 10361 H 941.146 1.09182 6.70266 0
M  V30 10362 H 939.092 -1.13908 6.46035 0
M  V30 10363 H 939.009 0.200133 7.55735 0
M  V30 10364 H 940.277 -0.975894 7.73367 0
M  V30 10365 N 944.506 -1.46559 0.579492 0
M  V30 10366 C 945.734 -2.06784 0.0693648 0
M  V30 10367 C 946.149 -1.42875 -1.23419 0
M  V30 10368 O 945.506 -0.532919 -1.74546 0
M  V30 10369 C 945.557 -3.61343 -0.106511 0
M  V30 10370 O 945.278 -4.22861 1.14545 0
M  V30 10371 C 946.779 -4.38489 -0.651359 0
M  V30 10372 H 943.999 -0.66866 0.0559848 0
M  V30 10373 H 946.543 -1.88235 0.799245 0
M  V30 10374 H 944.698 -3.7933 -0.786601 0
M  V30 10375 H 945.112 -5.15691 0.95723 0
M  V30 10376 H 946.586 -5.47237 -0.723615 0
M  V30 10377 H 947.063 -4.06309 -1.66763 0
M  V30 10378 H 947.669 -4.253 -0.0062433 0
M  V30 10379 N 945.984 -0.3171 -1.54377 0
M  V30 10380 C 946.914 0.544623 -2.2706 0
M  V30 10381 C 947.895 1.12469 -1.27611 0
M  V30 10382 O 949.08 1.15103 -1.56413 0
M  V30 10383 C 946.21 1.70879 -3.02353 0
M  V30 10384 C 945.164 1.25833 -4.09084 0
M  V30 10385 C 944.49 2.50894 -4.72182 0
M  V30 10386 C 945.79 0.377876 -5.20931 0
M  V30 10387 H 947.484 -0.0616372 -2.99337 0
M  V30 10388 H 945.03 -0.0310848 -1.43966 0
M  V30 10389 H 946.983 2.31787 -3.51927 0
M  V30 10390 H 945.707 2.34155 -2.27682 0
M  V30 10391 H 944.366 0.672228 -3.60384 0
M  V30 10392 H 944.014 3.12518 -3.94134 0
M  V30 10393 H 943.714 2.21447 -5.44275 0
M  V30 10394 H 945.238 3.12575 -5.24528 0
M  V30 10395 H 946.652 0.893056 -5.66302 0
M  V30 10396 H 945.049 0.176474 -5.9984 0
M  V30 10397 H 946.119 -0.592943 -4.81261 0
M  V30 10398 N 947.462 1.57535 -0.0451378 0
M  V30 10399 C 948.392 2.14208 0.929372 0
M  V30 10400 C 949.373 1.06221 1.32858 0
M  V30 10401 O 950.558 1.34132 1.40436 0
M  V30 10402 C 947.688 2.68217 2.20629 0
M  V30 10403 C 946.642 3.81134 1.94734 0
M  V30 10404 C 945.968 4.21636 3.28828 0
M  V30 10405 C 947.268 5.06531 1.27374 0
M  V30 10406 H 948.962 2.95886 0.457348 0
M  V30 10407 H 946.508 1.42332 0.218544 0
M  V30 10408 H 948.461 3.06502 2.89196 0
M  V30 10409 H 947.185 1.83722 2.70026 0
M  V30 10410 H 945.844 3.43312 1.28579 0
M  V30 10411 H 945.492 3.34099 3.76014 0
M  V30 10412 H 945.192 4.97736 3.12302 0
M  V30 10413 H 946.716 4.62516 3.98637 0
M  V30 10414 H 948.13 5.423 1.85967 0
M  V30 10415 H 946.527 5.87735 1.21194 0
M  V30 10416 H 947.597 4.84261 0.248913 0
M  V30 10417 N 948.94 -0.228186 1.55939 0
M  V30 10418 C 949.872 -1.30605 1.88348 0
M  V30 10419 C 950.885 -1.43375 0.771198 0
M  V30 10420 O 952.074 -1.44391 1.04945 0
M  V30 10421 C 949.174 -2.68248 2.07115 0
M  V30 10422 C 948.347 -2.77509 3.38094 0
M  V30 10423 C 947.406 -3.96121 3.46373 0
M  V30 10424 O 946.432 -3.8477 4.19453 0
M  V30 10425 N 947.634 -5.10132 2.77031 0
M  V30 10426 H 950.399 -1.03132 2.81396 0
M  V30 10427 H 947.96 -0.418245 1.56404 0
M  V30 10428 H 949.952 -3.45966 2.09976 0
M  V30 10429 H 948.522 -2.88348 1.20723 0
M  V30 10430 H 947.742 -1.8632 3.47388 0
M  V30 10431 H 949.03 -2.80662 4.2439 0
M  V30 10432 H 948.428 -5.22249 2.17424 0
M  V30 10433 H 946.985 -5.85916 2.85561 0
M  V30 10434 N 950.418 -1.49637 -0.494624 0
M  V30 10435 C 951.695 -1.4995 -1.25596 0
M  V30 10436 C 952.075 -0.230805 -2.09834 0
M  V30 10437 O 951.423 0.786625 -2.14533 0
M  V30 10438 C 951.633 -2.78204 -2.10721 0
M  V30 10439 C 952.981 -3.27946 -2.69698 0
M  V30 10440 O 954.005 -2.79365 -2.20984 0
M  V30 10441 O 952.864 -4.12571 -3.58395 0
M  V30 10442 H 949.958 -0.60044 -0.568684 0
M  V30 10443 H 952.504 -1.61906 -0.508371 0
M  V30 10444 H 951.276 -3.62029 -1.48494 0
M  V30 10445 H 950.899 -2.69139 -2.92661 0
M  V30 10446 N 951.896 0.746133 -1.38819 0
M  V30 10447 C 952.806 1.89063 -1.38897 0
M  V30 10448 C 953.822 1.71648 -0.28513 0
M  V30 10449 O 954.998 1.94443 -0.524783 0
M  V30 10450 C 952.063 3.24523 -1.22007 0
M  V30 10451 C 951.124 3.54411 -2.42263 0
M  V30 10452 C 950.357 4.83408 -2.26169 0
M  V30 10453 O 950.58 5.56325 -1.25931 0
M  V30 10454 O 949.514 5.12943 -3.14918 0
M  V30 10455 H 953.34 1.91951 -2.35347 0
M  V30 10456 H 950.925 0.892433 -1.19816 0
M  V30 10457 H 952.807 4.05496 -1.14677 0
M  V30 10458 H 951.482 3.2243 -0.286455 0
M  V30 10459 H 950.389 2.73569 -2.55168 0
M  V30 10460 H 951.722 3.61273 -3.3428 0
M  V30 10461 N 953.375 1.23811 0.975125 0
M  V30 10462 C 954.6 1.10109 1.75757 0
M  V30 10463 C 955.025 -0.342922 1.84948 0
M  V30 10464 O 954.383 -1.24814 1.31496 0
M  V30 10465 C 954.431 1.73724 3.15994 0
M  V30 10466 O 953.535 1.00297 4.00018 0
M  V30 10467 H 952.876 0.385627 0.540544 0
M  V30 10468 H 955.406 1.63971 1.22372 0
M  V30 10469 H 955.416 1.79178 3.6655 0
M  V30 10470 H 954.091 2.78794 3.0862 0
M  V30 10471 H 952.668 1.02575 3.58515 0
M  V30 10472 N 954.853 -1.17469 1.05066 0
M  V30 10473 C 955.783 -2.23635 0.671552 0
M  V30 10474 C 956.764 -1.66867 -0.33006 0
M  V30 10475 O 957.949 -1.93084 -0.207933 0
M  V30 10476 C 955.079 -3.47272 0.0441845 0
M  V30 10477 C 954.033 -4.16854 0.97042 0
M  V30 10478 C 953.359 -5.34299 0.206998 0
M  V30 10479 C 954.659 -4.69225 2.29401 0
M  V30 10480 H 956.353 -2.55602 1.55911 0
M  V30 10481 H 953.899 -1.2286 0.751101 0
M  V30 10482 H 955.852 -4.20756 -0.23282 0
M  V30 10483 H 954.576 -3.14568 -0.878311 0
M  V30 10484 H 953.235 -3.4528 1.23197 0
M  V30 10485 H 952.883 -4.97846 -0.718222 0
M  V30 10486 H 952.583 -5.81792 0.82416 0
M  V30 10487 H 954.107 -6.10568 -0.0627525 0
M  V30 10488 H 955.521 -5.34353 2.077 0
M  V30 10489 H 953.918 -5.27291 2.86503 0
M  V30 10490 H 954.988 -3.86102 2.93348 0
M  V30 10491 N 956.331 -0.831506 -1.3388 0
M  V30 10492 C 957.279 -0.247896 -2.31275 0
M  V30 10493 C 958.273 0.616083 -1.578 0
M  V30 10494 O 959.479 0.506465 -1.72728 0
M  V30 10495 H 955.854 -0.0614293 -0.749487 0
M  V30 10496 H 957.825 -1.08401 -2.78014 0
M  V30 10497 C 956.574 0.568434 -3.43022 0
M  V30 10498 H 955.897 -0.0870654 -3.99705 0
M  V30 10499 H 957.337 0.942751 -4.13386 0
M  V30 10500 C 955.796 1.74431 -2.88228 0
M  V30 10501 O 956.326 2.84278 -2.83811 0
M  V30 10502 N 954.532 1.56382 -2.44935 0
M  V30 10503 H 954.079 0.670255 -2.48727 0
M  V30 10504 H 954.037 2.35208 -2.08625 0
M  V30 10505 N 957.809 1.4625 -0.587256 0
M  V30 10506 C 959.058 2.01571 -0.0722643 0
M  V30 10507 C 959.371 1.46385 1.29733 0
M  V30 10508 O 960.577 1.93554 1.90392 0
M  V30 10509 C 959.033 3.59814 -0.078579 0
M  V30 10510 C 958.641 4.23996 -1.44678 0
M  V30 10511 C 960.385 4.22776 0.382231 0
M  V30 10512 C 958.292 5.74332 -1.41057 0
M  V30 10513 H 957.222 0.753642 -0.0232461 0
M  V30 10514 H 959.873 1.67936 -0.739577 0
M  V30 10515 H 958.255 3.90546 0.654988 0
M  V30 10516 H 959.429 4.04867 -2.20043 0
M  V30 10517 H 957.744 3.73147 -1.84799 0
M  V30 10518 H 960.341 5.32983 0.428182 0
M  V30 10519 H 960.684 3.92027 1.40072 0
M  V30 10520 H 961.217 3.96687 -0.297417 0
M  V30 10521 H 957.956 6.09747 -2.40601 0
M  V30 10522 H 957.476 5.95711 -0.699185 0
M  V30 10523 H 959.155 6.37137 -1.12543 0
M  V30 10524 N 959.287 0.325282 1.54207 0
M  V30 10525 C 960.534 -0.276775 2.006 0
M  V30 10526 C 960.862 -1.52007 1.21343 0
M  V30 10527 O 960.117 -1.93627 0.284104 0
M  V30 10528 C 960.416 -0.654292 3.5136 0
M  V30 10529 C 960.082 0.490023 4.48229 0
M  V30 10530 C 958.744 0.804104 4.74434 0
M  V30 10531 C 961.096 1.2586 5.05775 0
M  V30 10532 C 958.424 1.88945 5.55443 0
M  V30 10533 C 960.776 2.33405 5.87967 0
M  V30 10534 C 959.44 2.65393 6.12473 0
M  V30 10535 H 958.71 -0.101279 0.734046 0
M  V30 10536 H 961.357 0.449416 1.86152 0
M  V30 10537 H 959.662 -1.46093 3.63544 0
M  V30 10538 H 961.359 -1.13171 3.84699 0
M  V30 10539 H 957.949 0.235147 4.27954 0
M  V30 10540 H 962.133 1.02921 4.85511 0
M  V30 10541 H 957.389 2.14174 5.7266 0
M  V30 10542 H 961.563 2.93402 6.31576 0
M  V30 10543 H 959.19 3.49622 6.75032 0
M  V30 10544 N 960.765 -1.57509 0.0534917 0
M  V30 10545 C 961.697 -2.08616 -0.949322 0
M  V30 10546 C 962.71 -1.01446 -1.27328 0
M  V30 10547 O 963.899 -1.29007 -1.23367 0
M  V30 10548 C 960.999 -2.51622 -2.27024 0
M  V30 10549 C 960.172 -3.82154 -2.12785 0
M  V30 10550 C 959.231 -4.11448 -3.2802 0
M  V30 10551 O 958.257 -4.81333 -3.03822 0
M  V30 10552 N 959.459 -3.63543 -4.52567 0
M  V30 10553 H 962.224 -2.95275 -0.5131 0
M  V30 10554 H 959.785 -1.61355 -0.132693 0
M  V30 10555 H 961.777 -2.68293 -3.02986 0
M  V30 10556 H 960.347 -1.70198 -2.62205 0
M  V30 10557 H 959.567 -3.75041 -1.21399 0
M  V30 10558 H 960.855 -4.67629 -2.00501 0
M  V30 10559 H 960.253 -3.07051 -4.75117 0
M  V30 10560 H 958.81 -3.85448 -5.25617 0
M  V30 10561 N 962.243 0.219913 -1.56058 0
M  V30 10562 C 963.191 1.29215 -1.93407 0
M  V30 10563 C 964.185 1.48434 -0.816307 0
M  V30 10564 O 965.391 1.49589 -1.00115 0
M  V30 10565 H 961.766 0.433256 -0.614649 0
M  V30 10566 H 963.737 0.949977 -2.82875 0
M  V30 10567 C 962.486 2.63501 -2.26854 0
M  V30 10568 H 961.809 2.4952 -3.12377 0
M  V30 10569 H 963.249 3.37334 -2.56869 0
M  V30 10570 C 961.708 3.18634 -1.09425 0
M  V30 10571 O 962.238 4.00117 -0.356243 0
M  V30 10572 N 960.444 2.7703 -0.877642 0
M  V30 10573 H 959.991 2.10875 -1.47951 0
M  V30 10574 H 959.949 3.1426 -0.0936792 0
M  V30 10575 N 963.721 1.49897 0.486681 0
M  V30 10576 C 964.651 1.7054 1.59494 0
M  V30 10577 C 965.632 0.554184 1.60819 0
M  V30 10578 O 966.817 0.791617 1.77333 0
M  V30 10579 C 963.947 1.78517 2.97908 0
M  V30 10580 C 962.901 2.93571 3.11449 0
M  V30 10581 C 962.227 2.86674 4.51356 0
M  V30 10582 C 963.527 4.34308 2.90127 0
M  V30 10583 H 965.221 2.63329 1.42472 0
M  V30 10584 H 962.767 1.2672 0.683969 0
M  V30 10585 H 964.72 1.91544 3.75352 0
M  V30 10586 H 963.444 0.823381 3.16051 0
M  V30 10587 H 962.103 2.80169 2.36433 0
M  V30 10588 H 961.751 1.88373 4.66395 0
M  V30 10589 H 961.451 3.63903 4.61355 0
M  V30 10590 H 962.975 3.01728 5.30841 0
M  V30 10591 H 964.389 4.48317 3.57331 0
M  V30 10592 H 962.786 5.12869 3.11585 0
M  V30 10593 H 963.856 4.47759 1.86119 0
M  V30 10594 N 965.199 -0.738761 1.39212 0
M  V30 10595 C 966.147 -1.8741 1.3777 0
M  V30 10596 C 967.141 -1.67371 0.261375 0
M  V30 10597 O 968.347 -1.74759 0.431209 0
M  V30 10598 H 964.722 -0.616843 0.430126 0
M  V30 10599 H 966.693 -1.85742 2.33543 0
M  V30 10600 C 965.442 -3.25053 1.23433 0
M  V30 10601 H 964.765 -3.41066 2.086 0
M  V30 10602 H 966.205 -4.04696 1.2648 0
M  V30 10603 C 964.664 -3.36851 -0.0575624 0
M  V30 10604 O 965.194 -3.88293 -1.02915 0
M  V30 10605 N 963.4 -2.90355 -0.119364 0
M  V30 10606 H 962.947 -2.48681 0.671976 0
M  V30 10607 H 962.905 -2.98628 -0.983286 0
M  V30 10608 N 966.677 -1.24326 -0.968545 0
M  V30 10609 C 967.624 -1.0349 -2.06297 0
M  V30 10610 C 968.594 0.0515333 -1.6602 0
M  V30 10611 O 969.779 -0.102924 -1.90522 0
M  V30 10612 C 966.919 -0.64487 -3.39021 0
M  V30 10613 C 966.032 -1.80469 -3.92498 0
M  V30 10614 C 965.167 -1.36032 -5.13487 0
M  V30 10615 C 964.206 -2.49014 -5.59159 0
M  V30 10616 N 963.343 -2.05451 -6.71367 0
M  V30 10617 H 968.183 -1.97161 -2.23454 0
M  V30 10618 H 965.72 -0.982028 -1.0952 0
M  V30 10619 H 967.678 -0.399771 -4.1528 0
M  V30 10620 H 966.308 0.254845 -3.21792 0
M  V30 10621 H 965.36 -2.16348 -3.12886 0
M  V30 10622 H 966.672 -2.65365 -4.22354 0
M  V30 10623 H 965.826 -1.07405 -5.97117 0
M  V30 10624 H 964.565 -0.481887 -4.85313 0
M  V30 10625 H 963.57 -2.78402 -4.74102 0
M  V30 10626 H 964.795 -3.37413 -5.89346 0
M  V30 10627 H 962.741 -1.20004 -6.4493 0
M  V30 10628 H 962.658 -2.83901 -7.00668 0
M  V30 10629 H 963.926 -1.79962 -7.58442 0
M  V30 10630 N 968.156 1.1691 -1.05688 0
M  V30 10631 C 969.572 1.39288 -0.779167 0
M  V30 10632 C 969.772 1.91587 0.624231 0
M  V30 10633 O 968.828 2.11072 1.38582 0
M  V30 10634 C 970.141 2.37914 -1.83895 0
M  V30 10635 C 971.689 2.51611 -1.86175 0
M  V30 10636 C 972.164 3.53514 -2.9119 0
M  V30 10637 N 973.655 3.61036 -2.90184 0
M  V30 10638 C 974.39 4.39657 -3.68088 0
M  V30 10639 N 973.886 5.21752 -4.55793 0
M  V30 10640 N 975.679 4.3458 -3.56507 0
M  V30 10641 H 967.83 0.81296 -1.96226 0
M  V30 10642 H 970.093 0.419818 -0.849975 0
M  V30 10643 H 969.799 2.06568 -2.84645 0
M  V30 10644 H 969.673 3.37483 -1.68479 0
M  V30 10645 H 972.06 2.82264 -0.86087 0
M  V30 10646 H 972.141 1.52099 -2.05668 0
M  V30 10647 H 971.785 3.23599 -3.91467 0
M  V30 10648 H 971.715 4.52742 -2.68947 0
M  V30 10649 H 974.206 3.02428 -2.26596 0
M  V30 10650 H 974.519 5.78939 -5.11907 0
M  V30 10651 H 972.864 5.21116 -4.59851 0
M  V30 10652 H 976.055 3.69501 -2.87379 0
M  V30 10653 H 976.228 4.95607 -4.17466 0
M  V30 10654 N 969.634 0.838594 1.33437 0
M  V30 10655 C 970.566 0.229006 2.28053 0
M  V30 10656 C 971.579 -0.590103 1.51729 0
M  V30 10657 O 972.768 -0.417218 1.73556 0
M  V30 10658 C 969.868 -0.696251 3.31671 0
M  V30 10659 C 969.041 0.0834606 4.3732 0
M  V30 10660 C 968.1 -0.765097 5.20608 0
M  V30 10661 O 967.126 -0.2044 5.68833 0
M  V30 10662 N 968.328 -2.08249 5.4186 0
M  V30 10663 H 971.093 1.04196 2.81004 0
M  V30 10664 H 968.654 0.697031 1.46127 0
M  V30 10665 H 970.646 -1.26889 3.84293 0
M  V30 10666 H 969.216 -1.40992 2.78998 0
M  V30 10667 H 968.436 0.837481 3.85201 0
M  V30 10668 H 969.724 0.619613 5.05013 0
M  V30 10669 H 969.122 -2.56156 5.04381 0
M  V30 10670 H 967.679 -2.60362 5.97541 0
M  V30 10671 N 971.112 -1.45937 0.595003 0
M  V30 10672 C 972.359 -2.0232 0.0853053 0
M  V30 10673 C 972.687 -1.465 -1.27937 0
M  V30 10674 O 971.942 -0.624767 -1.85459 0
M  V30 10675 C 972.241 -3.57396 -0.0173747 0
M  V30 10676 C 971.907 -4.32311 1.28131 0
M  V30 10677 C 970.569 -4.52496 1.63708 0
M  V30 10678 C 972.921 -4.75233 2.14017 0
M  V30 10679 C 970.249 -5.12857 2.84947 0
M  V30 10680 C 972.601 -5.36933 3.34493 0
M  V30 10681 C 971.265 -5.55343 3.70338 0
M  V30 10682 H 970.535 -0.740342 0.0312154 0
M  V30 10683 H 973.182 -1.75157 0.774103 0
M  V30 10684 H 971.487 -3.83766 -0.789371 0
M  V30 10685 H 973.184 -3.98713 -0.427699 0
M  V30 10686 H 969.774 -4.16905 0.994374 0
M  V30 10687 H 973.958 -4.59383 1.87833 0
M  V30 10688 H 969.214 -5.253 3.12841 0
M  V30 10689 H 973.388 -5.69147 4.01304 0
M  V30 10690 H 971.015 -6.01883 4.64371 0
M  V30 10691 N 972.59 -0.333456 -1.54032 0
M  V30 10692 C 973.5 0.536674 -2.28379 0
M  V30 10693 C 974.516 1.12068 -1.33104 0
M  V30 10694 O 975.692 1.13853 -1.66131 0
M  V30 10695 C 972.757 1.67677 -3.03456 0
M  V30 10696 C 971.818 1.12357 -4.14336 0
M  V30 10697 C 971.051 2.20933 -4.85823 0
M  V30 10698 O 971.274 3.41466 -4.569 0
M  V30 10699 O 970.208 1.85795 -5.72507 0
M  V30 10700 H 974.034 -0.0674003 -3.03625 0
M  V30 10701 H 971.619 -0.098823 -1.49073 0
M  V30 10702 H 973.501 2.34032 -3.50438 0
M  V30 10703 H 972.176 2.26684 -2.31076 0
M  V30 10704 H 971.083 0.424827 -3.7168 0
M  V30 10705 H 972.416 0.578497 -4.88789 0
M  V30 10706 N 974.068 1.57479 -0.061844 0
M  V30 10707 C 975.296 1.97429 0.618837 0
M  V30 10708 C 975.711 0.939826 1.63746 0
M  V30 10709 O 975.068 -0.0747173 1.82347 0
M  V30 10710 C 975.119 3.3746 1.29628 0
M  V30 10711 O 974.84 4.36941 0.318431 0
M  V30 10712 C 976.341 3.92228 2.06572 0
M  V30 10713 H 973.561 0.649513 0.168444 0
M  V30 10714 H 976.105 2.04078 -0.131303 0
M  V30 10715 H 974.26 3.31928 1.99757 0
M  V30 10716 H 974.674 5.18313 0.803239 0
M  V30 10717 H 976.148 4.92458 2.49377 0
M  V30 10718 H 976.625 3.28231 2.91824 0
M  V30 10719 H 977.231 4.01131 1.4133 0
M  V30 10720 N 975.546 -0.211634 1.56173 0
M  V30 10721 C 976.792 -0.935935 1.79911 0
M  V30 10722 C 977.125 -1.83589 0.633155 0
M  V30 10723 O 976.4 -1.91004 -0.367132 0
M  V30 10724 C 976.683 -1.76638 3.13801 0
M  V30 10725 C 976.536 -0.892259 4.40861 0
M  V30 10726 C 977.855 -2.74224 3.44223 0
M  V30 10727 H 974.974 -0.338822 0.654499 0
M  V30 10728 H 977.616 -0.20422 1.88899 0
M  V30 10729 H 975.766 -2.39021 3.0627 0
M  V30 10730 H 977.438 -0.284407 4.60422 0
M  V30 10731 H 975.681 -0.198145 4.33347 0
M  V30 10732 H 976.352 -1.50793 5.31004 0
M  V30 10733 H 978.828 -2.21975 3.51946 0
M  V30 10734 H 977.704 -3.29424 4.39057 0
M  V30 10735 H 977.965 -3.52455 2.66885 0
M  V30 10736 N 977.024 -1.50153 -0.478725 0
M  V30 10737 C 978.273 -1.60002 -1.22809 0
M  V30 10738 C 978.586 -0.302277 -1.9325 0
M  V30 10739 O 979.792 -0.279583 -2.70057 0
M  V30 10740 C 978.248 -2.82402 -2.23108 0
M  V30 10741 C 977.856 -4.19023 -1.58505 0
M  V30 10742 C 979.6 -3.01593 -2.98734 0
M  V30 10743 C 977.507 -5.32618 -2.57045 0
M  V30 10744 H 976.437 -0.595822 -0.462073 0
M  V30 10745 H 979.088 -1.76573 -0.499412 0
M  V30 10746 H 977.47 -2.59373 -2.99235 0
M  V30 10747 H 978.644 -4.52277 -0.882187 0
M  V30 10748 H 976.959 -4.05374 -0.951877 0
M  V30 10749 H 979.556 -3.8363 -3.72468 0
M  V30 10750 H 979.899 -2.1302 -3.57671 0
M  V30 10751 H 980.432 -3.24766 -2.29721 0
M  V30 10752 H 977.171 -6.23321 -2.02858 0
M  V30 10753 H 976.691 -5.03792 -3.25505 0
M  V30 10754 H 978.37 -5.62877 -3.19028 0
M  V30 10755 N 978.502 0.731368 -1.39602 0
M  V30 10756 C 979.452 1.83662 -1.35101 0
M  V30 10757 C 980.436 1.5923 -0.231241 0
M  V30 10758 O 981.628 1.70671 -0.469072 0
M  V30 10759 C 978.757 3.21629 -1.20041 0
M  V30 10760 C 977.843 3.51878 -2.36733 0
M  V30 10761 N 978.234 3.53041 -3.6221 0
M  V30 10762 C 976.532 3.82259 -2.2977 0
M  V30 10763 C 977.233 3.81188 -4.39398 0
M  V30 10764 N 976.209 3.99145 -3.69031 0
M  V30 10765 H 980.011 1.82871 -2.30077 0
M  V30 10766 H 977.525 0.929777 -1.3315 0
M  V30 10767 H 979.522 4.00754 -1.14899 0
M  V30 10768 H 978.182 3.23656 -0.260184 0
M  V30 10769 H 979.193 3.34266 -3.95584 0
M  V30 10770 H 975.87 3.9187 -1.44029 0
M  V30 10771 H 977.26 3.88525 -5.48177 0
M  V30 10772 N 979.98 1.24838 0.961938 0
M  V30 10773 C 980.91 1.07053 2.07514 0
M  V30 10774 C 981.891 -0.0182465 1.7009 0
M  V30 10775 O 983.076 0.149915 1.9362 0
M  V30 10776 C 980.206 0.680693 3.40564 0
M  V30 10777 C 979.16 1.71889 3.91967 0
M  V30 10778 C 978.486 1.18395 5.21428 0
M  V30 10779 C 979.786 3.1161 4.19161 0
M  V30 10780 H 981.48 2.00167 2.22651 0
M  V30 10781 H 979.026 0.963799 1.0699 0
M  V30 10782 H 980.979 0.54324 4.17884 0
M  V30 10783 H 979.703 -0.28615 3.25344 0
M  V30 10784 H 978.362 1.84465 3.16809 0
M  V30 10785 H 978.01 0.207543 5.02572 0
M  V30 10786 H 977.71 1.87778 5.56788 0
M  V30 10787 H 979.234 1.05873 6.01351 0
M  V30 10788 H 980.648 3.0223 4.87165 0
M  V30 10789 H 979.045 3.78398 4.65763 0
M  V30 10790 H 980.115 3.59218 3.25715 0
M  V30 10791 N 981.458 -1.16348 1.06306 0
M  V30 10792 C 982.705 -1.86881 0.779852 0
M  V30 10793 C 983.033 -1.8171 -0.693668 0
M  V30 10794 O 982.288 -1.22769 -1.52401 0
M  V30 10795 C 982.587 -3.35936 1.21991 0
M  V30 10796 C 982.253 -3.61307 2.69756 0
M  V30 10797 C 980.915 -3.6794 3.10119 0
M  V30 10798 C 983.267 -3.71871 3.65187 0
M  V30 10799 C 980.595 -3.82639 4.44752 0
M  V30 10800 C 982.947 -3.88091 4.99568 0
M  V30 10801 C 981.611 -3.92967 5.39568 0
M  V30 10802 H 980.881 -0.683847 0.285368 0
M  V30 10803 H 983.528 -1.37569 1.33218 0
M  V30 10804 H 981.833 -3.87381 0.586774 0
M  V30 10805 H 983.53 -3.88895 0.977821 0
M  V30 10806 H 980.12 -3.56777 2.37504 0
M  V30 10807 H 984.304 -3.66057 3.35136 0
M  V30 10808 H 979.56 -3.84666 4.75228 0
M  V30 10809 H 983.734 -3.95207 5.73397 0
M  V30 10810 H 981.361 -4.04109 6.43895 0
M  V30 10811 N 982.937 -0.845659 -1.3299 0
M  V30 10812 C 983.847 -0.2864 -2.32845 0
M  V30 10813 C 984.863 0.591105 -1.63652 0
M  V30 10814 O 986.039 0.493615 -1.95257 0
M  V30 10815 C 983.104 0.523636 -3.42723 0
M  V30 10816 C 982.165 -0.378945 -4.27624 0
M  V30 10817 C 981.398 0.392526 -5.32255 0
M  V30 10818 O 981.621 1.6235 -5.46808 0
M  V30 10819 O 980.555 -0.237 -6.01433 0
M  V30 10820 H 984.381 -1.11346 -2.82552 0
M  V30 10821 H 981.966 -0.608356 -1.36453 0
M  V30 10822 H 983.848 0.983718 -4.09757 0
M  V30 10823 H 982.523 1.32764 -2.95221 0
M  V30 10824 H 981.43 -0.887012 -3.63432 0
M  V30 10825 H 982.763 -1.1479 -4.78627 0
M  V30 10826 N 984.415 1.45619 -0.602734 0
M  V30 10827 C 985.661 2.02572 -0.0961759 0
M  V30 10828 C 985.994 1.47076 1.26815 0
M  V30 10829 O 985.269 0.643566 1.83544 0
M  V30 10830 C 985.552 3.60062 -0.0520032 0
M  V30 10831 C 985.405 4.25901 -1.44665 0
M  V30 10832 C 986.724 4.35446 0.638342 0
M  V30 10833 H 983.843 0.736099 -0.0364238 0
M  V30 10834 H 986.485 1.7353 -0.773776 0
M  V30 10835 H 984.635 3.84936 0.525032 0
M  V30 10836 H 986.307 4.12228 -2.0704 0
M  V30 10837 H 984.55 3.84489 -2.00874 0
M  V30 10838 H 985.221 5.34779 -1.36803 0
M  V30 10839 H 987.697 4.15837 0.147926 0
M  V30 10840 H 986.573 5.45176 0.63834 0
M  V30 10841 H 986.834 4.07962 1.70351 0
M  V30 10842 N 985.893 0.34162 1.53853 0
M  V30 10843 C 986.856 -0.503541 2.236 0
M  V30 10844 C 987.856 -1.02912 1.23554 0
M  V30 10845 O 989.046 -0.918678 1.48007 0
M  V30 10846 C 986.178 -1.70126 2.95415 0
M  V30 10847 H 987.371 0.106437 2.99711 0
M  V30 10848 H 984.924 0.0929408 1.56023 0
M  V30 10849 H 985.659 -2.34999 2.23486 0
M  V30 10850 H 985.444 -1.33161 3.68796 0
M  V30 10851 H 986.934 -2.30077 3.48503 0
M  V30 10852 N 987.371 -1.57444 0.0701946 0
M  V30 10853 C 988.62 -1.92605 -0.598849 0
M  V30 10854 C 988.933 -0.952058 -1.70866 0
M  V30 10855 O 990.139 -1.19643 -2.43716 0
M  V30 10856 C 988.595 -3.42142 -1.11655 0
M  V30 10857 C 988.203 -4.47984 -0.0378355 0
M  V30 10858 C 989.947 -3.86307 -1.75975 0
M  V30 10859 C 987.854 -5.88652 -0.569495 0
M  V30 10860 H 986.784 -0.718873 -0.22746 0
M  V30 10861 H 989.435 -1.82948 0.14217 0
M  V30 10862 H 987.817 -3.46866 -1.91049 0
M  V30 10863 H 988.991 -4.54874 0.736661 0
M  V30 10864 H 987.306 -4.13277 0.50904 0
M  V30 10865 H 989.903 -4.88784 -2.16782 0
M  V30 10866 H 990.246 -3.23587 -2.61911 0
M  V30 10867 H 990.779 -3.84179 -1.03206 0
M  V30 10868 H 987.518 -6.55013 0.252662 0
M  V30 10869 H 987.038 -5.85285 -1.31155 0
M  V30 10870 H 988.717 -6.38482 -1.04641 0
M  V30 10871 N 988.849 0.203349 -1.56283 0
M  V30 10872 C 990.098 0.92315 -1.79334 0
M  V30 10873 C 990.411 1.84765 -0.641977 0
M  V30 10874 O 991.617 2.60745 -0.756584 0
M  V30 10875 C 990.073 1.69184 -3.17655 0
M  V30 10876 C 989.681 0.812581 -4.40569 0
M  V30 10877 C 991.425 2.40177 -3.50022 0
M  V30 10878 C 989.332 1.57967 -5.69913 0
M  V30 10879 H 988.262 0.348442 -0.668659 0
M  V30 10880 H 990.913 0.1766 -1.82648 0
M  V30 10881 H 989.295 2.48197 -3.08568 0
M  V30 10882 H 990.469 0.0616956 -4.60759 0
M  V30 10883 H 988.784 0.21389 -4.1585 0
M  V30 10884 H 991.381 2.98103 -4.4389 0
M  V30 10885 H 991.724 3.13961 -2.73376 0
M  V30 10886 H 992.257 1.68138 -3.6052 0
M  V30 10887 H 988.996 0.884767 -6.49501 0
M  V30 10888 H 988.516 2.3047 -5.53754 0
M  V30 10889 H 990.195 2.13562 -6.10737 0
M  V30 10890 N 990.327 1.50405 0.470755 0
M  V30 10891 C 991.29 1.68741 1.5511 0
M  V30 10892 C 992.29 0.558116 1.50804 0
M  V30 10893 O 993.48 0.825149 1.53418 0
M  V30 10894 C 990.612 1.71295 2.94739 0
M  V30 10895 H 991.805 2.65127 1.40169 0
M  V30 10896 H 989.358 1.39891 0.697156 0
M  V30 10897 H 990.093 0.766029 3.15123 0
M  V30 10898 H 989.878 2.53336 2.99271 0
M  V30 10899 H 991.368 1.87434 3.73173 0
M  V30 10900 N 991.805 -0.723954 1.39988 0
M  V30 10901 C 993.033 -1.51313 1.4111 0
M  V30 10902 C 993.448 -1.88798 0.00853333 0
M  V30 10903 O 992.805 -1.54868 -0.965516 0
M  V30 10904 C 992.856 -2.79375 2.29416 0
M  V30 10905 O 992.577 -2.43478 3.64211 0
M  V30 10906 C 994.078 -3.7333 2.3904 0
M  V30 10907 H 991.298 -0.46724 0.481589 0
M  V30 10908 H 993.842 -0.893694 1.83938 0
M  V30 10909 H 991.997 -3.37624 1.89971 0
M  V30 10910 H 992.411 -3.25821 4.11024 0
M  V30 10911 H 993.885 -4.60051 3.05053 0
M  V30 10912 H 994.362 -4.15854 1.41289 0
M  V30 10913 H 994.968 -3.20996 2.79001 0
M  V30 10914 N 993.283 -1.25346 -0.955304 0
M  V30 10915 C 994.56 -1.00829 -1.67609 0
M  V30 10916 C 994.94 0.465675 -2.059 0
M  V30 10917 O 994.288 1.44287 -1.77182 0
M  V30 10918 C 994.498 -1.94337 -2.89886 0
M  V30 10919 C 995.846 -2.22142 -3.61854 0
M  V30 10920 O 996.87 -1.9209 -2.99967 0
M  V30 10921 O 995.729 -2.73239 -4.73289 0
M  V30 10922 H 992.823 -0.382314 -0.733325 0
M  V30 10923 H 995.369 -1.36498 -1.00829 0
M  V30 10924 H 994.141 -2.93867 -2.58376 0
M  V30 10925 H 993.764 -1.59062 -3.64397 0
M  V30 10926 N 994.761 1.15782 -1.06922 0
M  V30 10927 C 995.691 2.22538 -0.707045 0
M  V30 10928 C 996.672 1.67371 0.303471 0
M  V30 10929 O 997.857 1.9339 0.177189 0
M  V30 10930 C 994.987 3.47158 -0.0994269 0
M  V30 10931 C 993.941 4.15257 -1.03661 0
M  V30 10932 C 993.267 5.33902 -0.291974 0
M  V30 10933 C 994.567 4.65516 -2.36837 0
M  V30 10934 H 996.261 2.53089 -1.59958 0
M  V30 10935 H 993.807 1.21649 -0.770552 0
M  V30 10936 H 995.76 4.21073 0.165852 0
M  V30 10937 H 994.484 3.15926 0.828155 0
M  V30 10938 H 993.143 3.43276 -1.28674 0
M  V30 10939 H 992.791 4.98926 0.638928 0
M  V30 10940 H 992.491 5.80407 -0.916613 0
M  V30 10941 H 994.015 6.1059 -0.0343915 0
M  V30 10942 H 995.429 5.30981 -2.16175 0
M  V30 10943 H 993.826 5.22666 -2.94856 0
M  V30 10944 H 994.896 3.81387 -2.99453 0
M  V30 10945 N 996.239 0.8527 1.3254 0
M  V30 10946 C 997.202 0.300959 2.27215 0
M  V30 10947 C 998.202 -0.538235 1.51525 0
M  V30 10948 O 999.392 -0.350027 1.70647 0
M  V30 10949 C 996.524 -0.574428 3.36025 0
M  V30 10950 H 997.717 1.13655 2.77529 0
M  V30 10951 H 995.27 0.626878 1.43178 0
M  V30 10952 H 996.005 -1.43191 2.90976 0
M  V30 10953 H 995.79 0.0262265 3.92091 0
M  V30 10954 H 997.28 -0.9533 4.06573 0
M  V30 10955 N 997.718 -1.45297 0.610449 0
M  V30 10956 C 998.648 -2.33311 -0.0939698 0
M  V30 10957 C 999.629 -1.46999 -0.85588 0
M  V30 10958 O 1000.81 -1.75764 -0.825865 0
M  V30 10959 C 997.944 -3.29751 -1.09003 0
M  V30 10960 C 996.898 -4.2572 -0.441146 0
M  V30 10961 C 996.224 -5.11873 -1.54566 0
M  V30 10962 C 997.524 -5.1837 0.639489 0
M  V30 10963 H 999.218 -2.92459 0.640941 0
M  V30 10964 H 996.764 -1.40631 0.309675 0
M  V30 10965 H 998.717 -3.90195 -1.59141 0
M  V30 10966 H 997.441 -2.68768 -1.85557 0
M  V30 10967 H 996.1 -3.66579 0.0393908 0
M  V30 10968 H 995.748 -4.47256 -2.30155 0
M  V30 10969 H 995.448 -5.76886 -1.11698 0
M  V30 10970 H 996.972 -5.75185 -2.04925 0
M  V30 10971 H 998.386 -5.7287 0.22207 0
M  V30 10972 H 996.783 -5.91876 0.990089 0
M  V30 10973 H 997.853 -4.60627 1.51495 0
M  V30 10974 N 999.196 -0.349774 -1.5367 0
M  V30 10975 C 1000.43 0.245682 -2.05134 0
M  V30 10976 C 1000.83 1.44269 -1.22406 0
M  V30 10977 O 1000.18 1.81938 -0.25379 0
M  V30 10978 C 1000.24 0.718439 -3.52248 0
M  V30 10979 C 999.903 -0.35975 -4.55582 0
M  V30 10980 C 1000.9 -1.20449 -5.05755 0
M  V30 10981 C 998.585 -0.515463 -4.99648 0
M  V30 10982 C 1000.58 -2.19043 -5.98581 0
M  V30 10983 C 998.266 -1.50479 -5.92283 0
M  V30 10984 C 999.264 -2.34072 -6.41638 0
M  V30 10985 O 998.952 -3.31319 -7.3245 0
M  V30 10986 H 998.684 0.0501122 -0.67414 0
M  V30 10987 H 1001.24 -0.5018 -1.99176 0
M  V30 10988 H 999.468 1.51727 -3.55691 0
M  V30 10989 H 1001.16 1.23513 -3.86651 0
M  V30 10990 H 1001.92 -1.09531 -4.7247 0
M  V30 10991 H 997.802 0.12537 -4.60829 0
M  V30 10992 H 1001.35 -2.84327 -6.37027 0
M  V30 10993 H 997.243 -1.61451 -6.24983 0
M  V30 10994 H 998.011 -3.26863 -7.50402 0
M  V30 10995 N 1000.67 1.57404 -0.0785433 0
M  V30 10996 C 1001.92 1.93744 0.589024 0
M  V30 10997 C 1002.25 0.959087 1.69209 0
M  V30 10998 O 1001.5 -0.0241604 1.95685 0
M  V30 10999 C 1001.8 3.36684 1.1991 0
M  V30 11000 C 1001.47 4.50356 0.221493 0
M  V30 11001 C 1000.13 4.81177 -0.0474347 0
M  V30 11002 C 1002.48 5.1928 -0.446941 0
M  V30 11003 C 999.811 5.78257 -0.99177 0
M  V30 11004 C 1002.16 6.17372 -1.37964 0
M  V30 11005 C 1000.83 6.46607 -1.65697 0
M  V30 11006 H 1000.1 0.70896 0.215539 0
M  V30 11007 H 1002.74 1.90905 -0.150856 0
M  V30 11008 H 1001.05 3.36022 2.01486 0
M  V30 11009 H 1002.75 3.62095 1.72303 0
M  V30 11010 H 999.336 4.26322 0.441284 0
M  V30 11011 H 1003.52 4.95658 -0.252298 0
M  V30 11012 H 998.776 5.9923 -1.21381 0
M  V30 11013 H 1002.95 6.6988 -1.9035 0
M  V30 11014 H 1000.58 7.21643 -2.39031 0
M  V30 11015 N 1002.15 -0.195058 1.56388 0
M  V30 11016 C 1003.1 -1.24175 1.94549 0
M  V30 11017 C 1004.07 -1.45229 0.806089 0
M  V30 11018 O 1005.25 -1.58362 1.06425 0
M  V30 11019 C 1002.39 -2.58145 2.29031 0
M  V30 11020 C 1001.51 -2.44669 3.56035 0
M  V30 11021 C 1000.64 -3.71342 3.7984 0
M  V30 11022 C 999.681 -3.52699 5.0027 0
M  V30 11023 N 998.818 -4.71385 5.20328 0
M  V30 11024 H 1003.66 -0.909319 2.83788 0
M  V30 11025 H 1001.19 -0.437641 1.40439 0
M  V30 11026 H 1003.15 -3.36195 2.4704 0
M  V30 11027 H 1001.78 -2.8943 1.42933 0
M  V30 11028 H 1000.83 -1.57916 3.46073 0
M  V30 11029 H 1002.15 -2.26827 4.44242 0
M  V30 11030 H 1001.3 -4.57832 3.98088 0
M  V30 11031 H 1000.04 -3.92138 2.89964 0
M  V30 11032 H 999.045 -2.64594 4.81944 0
M  V30 11033 H 1000.27 -3.33349 5.91655 0
M  V30 11034 H 998.216 -4.92444 4.33399 0
M  V30 11035 H 998.133 -4.56368 6.02714 0
M  V30 11036 H 999.401 -5.59226 5.43035 0
M  V30 11037 N 1003.63 -1.50653 -0.462772 0
M  V30 11038 C 1004.58 -1.70122 -1.55971 0
M  V30 11039 C 1005.55 -0.542581 -1.56988 0
M  V30 11040 O 1006.73 -0.774114 -1.74391 0
M  V30 11041 C 1003.87 -1.80899 -2.93887 0
M  V30 11042 C 1002.98 -3.08318 -3.02595 0
M  V30 11043 C 1002.12 -3.09841 -4.31477 0
M  V30 11044 C 1001.16 -4.3168 -4.33957 0
M  V30 11045 N 1000.3 -4.30894 -5.54323 0
M  V30 11046 H 1005.14 -2.63768 -1.38674 0
M  V30 11047 H 1002.67 -1.30746 -0.674091 0
M  V30 11048 H 1004.63 -1.85128 -3.73876 0
M  V30 11049 H 1003.26 -0.906854 -3.098 0
M  V30 11050 H 1002.31 -3.13521 -2.15427 0
M  V30 11051 H 1003.62 -3.98282 -3.00288 0
M  V30 11052 H 1002.78 -3.12845 -5.1982 0
M  V30 11053 H 1001.52 -2.17722 -4.36404 0
M  V30 11054 H 1000.52 -4.28879 -3.4401 0
M  V30 11055 H 1001.75 -5.25035 -4.30715 0
M  V30 11056 H 999.694 -3.41633 -5.6002 0
M  V30 11057 H 999.611 -5.14636 -5.53792 0
M  V30 11058 H 1000.88 -4.38056 -6.44769 0
M  V30 11059 N 1005.11 0.71652 -1.4037 0
M  V30 11060 C 1006.52 1.02447 -1.22379 0
M  V30 11061 C 1006.72 2.0126 -0.0983394 0
M  V30 11062 O 1005.78 2.46569 0.544071 0
M  V30 11063 C 1007.09 1.56909 -2.56515 0
M  V30 11064 C 1008.64 1.68898 -2.6352 0
M  V30 11065 C 1009.12 2.26765 -3.97922 0
M  V30 11066 N 1010.61 2.34152 -3.99658 0
M  V30 11067 C 1011.34 2.79907 -5.00439 0
M  V30 11068 N 1010.84 3.25422 -6.11615 0
M  V30 11069 N 1012.63 2.79283 -4.87809 0
M  V30 11070 H 1004.78 0.0615306 -2.12311 0
M  V30 11071 H 1007.05 0.0898994 -0.943728 0
M  V30 11072 H 1006.75 0.917649 -3.39517 0
M  V30 11073 H 1006.63 2.55446 -2.77538 0
M  V30 11074 H 1009.01 2.33159 -1.8089 0
M  V30 11075 H 1009.09 0.689626 -2.46329 0
M  V30 11076 H 1008.74 1.63126 -4.80991 0
M  V30 11077 H 1008.67 3.27413 -4.12442 0
M  V30 11078 H 1011.16 2.02006 -3.19378 0
M  V30 11079 H 1011.47 3.58899 -6.84406 0
M  V30 11080 H 1009.82 3.23383 -6.15181 0
M  V30 11081 H 1013.01 2.43061 -4.00049 0
M  V30 11082 H 1013.18 3.14626 -5.66493 0
M  V30 11083 N 1006.59 1.25851 0.948643 0
M  V30 11084 C 1007.81 1.13711 1.72851 0
M  V30 11085 C 1008.23 -0.308471 1.86263 0
M  V30 11086 O 1007.59 -1.21175 1.36465 0
M  V30 11087 C 1007.64 1.79271 3.13918 0
M  V30 11088 O 1007.36 3.18179 3.01154 0
M  V30 11089 C 1008.86 1.72988 4.08154 0
M  V30 11090 H 1006.08 0.396334 0.541443 0
M  V30 11091 H 1008.62 1.66329 1.18974 0
M  V30 11092 H 1006.78 1.30609 3.64719 0
M  V30 11093 H 1007.19 3.50507 3.90186 0
M  V30 11094 H 1008.67 2.2351 5.04725 0
M  V30 11095 H 1009.14 0.694866 4.33668 0
M  V30 11096 H 1009.75 2.21166 3.63271 0
M  V30 11097 N 1008.06 -1.15214 1.07534 0
M  V30 11098 C 1009 -2.18999 0.641461 0
M  V30 11099 C 1009.98 -1.58958 -0.342238 0
M  V30 11100 O 1011.16 -1.86859 -0.248218 0
M  V30 11101 C 1008.29 -3.38651 -0.0577939 0
M  V30 11102 C 1007.33 -4.17225 0.884641 0
M  V30 11103 S 1008.17 -4.79375 2.38663 0
M  V30 11104 C 1009.32 -6.02393 1.69923 0
M  V30 11105 H 1009.55 -2.55464 1.52071 0
M  V30 11106 H 1007.09 -1.26205 0.889481 0
M  V30 11107 H 1009.05 -4.07971 -0.454982 0
M  V30 11108 H 1007.71 -3.00526 -0.913407 0
M  V30 11109 H 1006.9 -5.02837 0.342133 0
M  V30 11110 H 1006.5 -3.53463 1.2223 0
M  V30 11111 H 1008.79 -6.69899 1.01201 0
M  V30 11112 H 1009.74 -6.61216 2.53375 0
M  V30 11113 H 1010.14 -5.52106 1.1764 0
M  V30 11114 N 1009.54 -0.859717 -1.32086 0
M  V30 11115 C 1010.79 -0.465581 -1.97075 0
M  V30 11116 C 1011.12 0.979917 -1.68012 0
M  V30 11117 O 1010.37 1.70337 -0.96353 0
M  V30 11118 C 1010.67 -0.657397 -3.51302 0
M  V30 11119 C 1010.34 -2.07413 -4.00363 0
M  V30 11120 C 1009 -2.4616 -4.13472 0
M  V30 11121 C 1011.35 -2.99855 -4.26305 0
M  V30 11122 C 1008.68 -3.76611 -4.49868 0
M  V30 11123 C 1011.03 -4.2981 -4.64161 0
M  V30 11124 C 1009.7 -4.68485 -4.75476 0
M  V30 11125 H 1008.97 -0.170368 -0.721149 0
M  V30 11126 H 1011.61 -1.09074 -1.57401 0
M  V30 11127 H 1009.92 0.0509638 -3.91767 0
M  V30 11128 H 1011.61 -0.332416 -3.9962 0
M  V30 11129 H 1008.2 -1.76327 -3.90649 0
M  V30 11130 H 1012.39 -2.7115 -4.15682 0
M  V30 11131 H 1007.64 -4.06352 -4.56824 0
M  V30 11132 H 1011.82 -5.015 -4.83188 0
M  V30 11133 H 1009.45 -5.69612 -5.03435 0
M  V30 11134 N 1011.02 1.44971 -0.618145 0
M  V30 11135 C 1011.95 2.28815 0.132751 0
M  V30 11136 C 1012.97 1.40551 0.821535 0
M  V30 11137 O 1014.15 1.64827 0.685155 0
M  V30 11138 C 1011.25 3.1658 1.20955 0
M  V30 11139 C 1010.43 4.33184 0.605821 0
M  V30 11140 C 1009.49 5.0208 1.57488 0
M  V30 11141 O 1008.51 5.58528 1.09706 0
M  V30 11142 N 1009.71 5.02335 2.9093 0
M  V30 11143 H 1012.48 2.939 -0.58674 0
M  V30 11144 H 1010.04 1.55276 -0.458375 0
M  V30 11145 H 1012.03 3.59535 1.85787 0
M  V30 11146 H 1010.6 2.53333 1.83143 0
M  V30 11147 H 1009.82 3.93581 -0.220827 0
M  V30 11148 H 1011.11 5.08471 0.182883 0
M  V30 11149 H 1010.51 4.57783 3.32342 0
M  V30 11150 H 1009.07 5.49119 3.51157 0
M  V30 11151 N 1012.5 0.357919 1.53482 0
M  V30 11152 C 1013.45 -0.49217 2.25491 0
M  V30 11153 C 1014.42 -1.08382 1.25867 0
M  V30 11154 O 1015.6 -1.11775 1.54632 0
M  V30 11155 C 1012.74 -1.6299 3.04185 0
M  V30 11156 C 1011.85 -1.06416 4.18688 0
M  V30 11157 C 1010.99 -2.17037 4.84839 0
M  V30 11158 C 1010.03 -1.57889 5.91386 0
M  V30 11159 N 1009.16 -2.6231 6.51259 0
M  V30 11160 H 1014 0.128412 2.97723 0
M  V30 11161 H 1011.54 0.0751423 1.46908 0
M  V30 11162 H 1013.5 -2.29993 3.48079 0
M  V30 11163 H 1012.13 -2.22125 2.34223 0
M  V30 11164 H 1011.18 -0.284635 3.79334 0
M  V30 11165 H 1012.49 -0.591654 4.95279 0
M  V30 11166 H 1011.65 -2.91876 5.31877 0
M  V30 11167 H 1010.39 -2.67636 4.07703 0
M  V30 11168 H 1009.39 -0.815605 5.43717 0
M  V30 11169 H 1010.62 -1.08123 6.70437 0
M  V30 11170 H 1008.56 -3.12137 5.7698 0
M  V30 11171 H 1008.48 -2.19724 7.23365 0
M  V30 11172 H 1009.75 -3.36875 7.02948 0
M  V30 11173 N 1013.98 -1.5736 0.0868897 0
M  V30 11174 C 1015.23 -1.93229 -0.578387 0
M  V30 11175 C 1015.54 -0.970127 -1.69847 0
M  V30 11176 O 1016.74 -1.22222 -2.42434 0
M  V30 11177 C 1015.2 -3.43307 -1.0802 0
M  V30 11178 C 1014.81 -4.47999 0.00968135 0
M  V30 11179 C 1016.55 -3.88151 -1.71868 0
M  V30 11180 C 1014.46 -5.89223 -0.507029 0
M  V30 11181 H 1013.39 -0.721245 -0.219823 0
M  V30 11182 H 1016.04 -1.82787 0.161566 0
M  V30 11183 H 1014.42 -3.48873 -1.87359 0
M  V30 11184 H 1015.6 -4.54067 0.784865 0
M  V30 11185 H 1013.91 -4.12714 0.552845 0
M  V30 11186 H 1016.51 -4.91056 -2.11585 0
M  V30 11187 H 1016.85 -3.26347 -2.58464 0
M  V30 11188 H 1017.38 -3.85252 -0.991259 0
M  V30 11189 H 1014.12 -6.54708 0.322121 0
M  V30 11190 H 1013.64 -5.86643 -1.2494 0
M  V30 11191 H 1015.32 -6.39556 -0.978628 0
M  V30 11192 N 1015.45 0.186762 -1.56489 0
M  V30 11193 C 1016.7 0.907194 -1.81378 0
M  V30 11194 C 1017.03 1.82558 -0.662283 0
M  V30 11195 O 1016.31 1.91564 0.336699 0
M  V30 11196 C 1016.59 1.71624 -3.16571 0
M  V30 11197 C 1016.44 0.822009 -4.42225 0
M  V30 11198 C 1017.76 2.68713 -3.48542 0
M  V30 11199 H 1014.88 0.328366 -0.659806 0
M  V30 11200 H 1017.52 0.174142 -1.892 0
M  V30 11201 H 1015.67 2.34119 -3.10033 0
M  V30 11202 H 1017.35 0.211122 -4.60817 0
M  V30 11203 H 1015.59 0.129178 -4.33608 0
M  V30 11204 H 1016.26 1.42326 -5.33336 0
M  V30 11205 H 1018.74 2.16348 -3.55433 0
M  V30 11206 H 1017.61 3.22397 -4.44242 0
M  V30 11207 H 1017.87 3.48165 -2.72459 0
M  V30 11208 N 1016.93 1.50896 0.454776 0
M  V30 11209 C 1018.21 1.53227 1.21576 0
M  V30 11210 C 1018.59 0.286358 2.09149 0
M  V30 11211 O 1017.94 -0.729469 2.16543 0
M  V30 11212 C 1018.15 2.83693 2.03271 0
M  V30 11213 C 1019.5 3.34981 2.60908 0
M  V30 11214 O 1020.52 2.85126 2.13499 0
M  V30 11215 O 1019.38 4.21929 3.4733 0
M  V30 11216 H 1016.47 0.615306 0.552564 0
M  V30 11217 H 1019.02 1.63197 0.465266 0
M  V30 11218 H 1017.79 3.65839 1.38843 0
M  V30 11219 H 1017.41 2.76803 2.85422 0
M  V30 11220 N 1018.41 -0.709066 1.40748 0
M  V30 11221 C 1019.37 -1.80485 1.41272 0
M  V30 11222 C 1020.37 -1.57872 0.305463 0
M  V30 11223 O 1021.56 -1.64793 0.564691 0
M  V30 11224 C 1018.7 -3.1867 1.21087 0
M  V30 11225 H 1019.89 -1.81417 2.38805 0
M  V30 11226 H 1017.44 -0.915356 1.26692 0
M  V30 11227 H 1018.18 -3.23385 0.243406 0
M  V30 11228 H 1017.96 -3.36484 2.01299 0
M  V30 11229 H 1019.45 -3.98685 1.24257 0
M  V30 11230 N 1019.89 -1.26353 -0.941956 0
M  V30 11231 C 1021.13 -1.13071 -1.70277 0
M  V30 11232 C 1021.49 0.320699 -1.89303 0
M  V30 11233 O 1022.69 0.575624 -2.62564 0
M  V30 11234 C 1020.97 -1.87777 -3.04096 0
M  V30 11235 S 1022.52 -1.9054 -3.95272 0
M  V30 11236 H 1019.34 -0.403912 -0.585129 0
M  V30 11237 H 1021.94 -1.6006 -1.12254 0
M  V30 11238 H 1020.65 -2.92447 -2.87929 0
M  V30 11239 H 1020.18 -1.41226 -3.67177 0
M  V30 11240 H 1022.19 -0.991548 -4.86192 0
M  V30 11241 N 1021.37 1.14642 -1.08144 0
M  V30 11242 C 1022.28 2.23257 -0.720668 0
M  V30 11243 C 1023.29 1.71866 0.271648 0
M  V30 11244 O 1024.47 2.01064 0.116266 0
M  V30 11245 C 1021.53 3.46447 -0.132542 0
M  V30 11246 C 1020.6 4.12789 -1.17913 0
M  V30 11247 C 1019.83 5.30099 -0.618971 0
M  V30 11248 O 1020.05 5.6762 0.562418 0
M  V30 11249 O 1018.99 5.86154 -1.36774 0
M  V30 11250 H 1022.81 2.56463 -1.62667 0
M  V30 11251 H 1020.4 1.22521 -0.854932 0
M  V30 11252 H 1022.28 4.20959 0.19277 0
M  V30 11253 H 1020.95 3.14971 0.746662 0
M  V30 11254 H 1019.86 3.40163 -1.55693 0
M  V30 11255 H 1021.19 4.48365 -2.03051 0
M  V30 11256 N 1022.85 0.866709 1.31628 0
M  V30 11257 C 1023.78 0.277328 2.27516 0
M  V30 11258 C 1024.79 -0.557786 1.52946 0
M  V30 11259 O 1025.98 -0.38031 1.74402 0
M  V30 11260 C 1023.08 -0.625742 3.33073 0
M  V30 11261 C 1022.25 0.176204 4.37045 0
M  V30 11262 C 1021.31 -0.654497 5.22114 0
M  V30 11263 O 1020.34 -0.0836961 5.69138 0
M  V30 11264 N 1021.54 -1.96708 5.46156 0
M  V30 11265 H 1024.3 1.10133 2.78731 0
M  V30 11266 H 1021.87 0.72787 1.44616 0
M  V30 11267 H 1023.86 -1.18709 3.86898 0
M  V30 11268 H 1022.43 -1.35042 2.81926 0
M  V30 11269 H 1021.65 0.918999 3.83338 0
M  V30 11270 H 1022.94 0.726594 5.03585 0
M  V30 11271 H 1022.33 -2.454 5.09701 0
M  V30 11272 H 1020.89 -2.47629 6.02929 0
M  V30 11273 N 1024.32 -1.44642 0.625825 0
M  V30 11274 C 1025.26 -2.27821 -0.131481 0
M  V30 11275 C 1026.23 -1.38224 -0.856324 0
M  V30 11276 O 1027.42 -1.67662 -0.861493 0
M  V30 11277 C 1024.55 -3.1703 -1.19204 0
M  V30 11278 C 1023.59 -4.22697 -0.568315 0
M  V30 11279 S 1024.42 -5.3169 0.637612 0
M  V30 11280 C 1025.58 -6.24468 -0.423088 0
M  V30 11281 H 1025.81 -2.91703 0.574177 0
M  V30 11282 H 1023.35 -1.4875 0.413844 0
M  V30 11283 H 1025.3 -3.6898 -1.79901 0
M  V30 11284 H 1023.97 -2.52379 -1.86986 0
M  V30 11285 H 1023.16 -4.8511 -1.36689 0
M  V30 11286 H 1022.76 -3.73983 -0.0360843 0
M  V30 11287 H 1025.05 -6.64967 -1.29713 0
M  V30 11288 H 1026 -7.07907 0.165338 0
M  V30 11289 H 1026.4 -5.59541 -0.746606 0
M  V30 11290 N 1025.8 -0.366053 -1.5329 0
M  V30 11291 C 1026.73 0.514916 -2.23341 0
M  V30 11292 C 1027.75 1.04579 -1.24768 0
M  V30 11293 O 1028.94 0.952084 -1.50989 0
M  V30 11294 C 1026.04 1.72374 -2.91788 0
M  V30 11295 C 1025.21 1.32429 -4.16871 0
M  V30 11296 C 1024.27 2.39524 -4.68524 0
M  V30 11297 O 1023.29 2.01895 -5.32191 0
M  V30 11298 N 1024.5 3.71116 -4.46378 0
M  V30 11299 H 1027.26 -0.0851272 -2.99579 0
M  V30 11300 H 1024.82 -0.191255 -1.60766 0
M  V30 11301 H 1026.81 2.43496 -3.23252 0
M  V30 11302 H 1025.38 2.23064 -2.19 0
M  V30 11303 H 1024.6 0.442901 -3.91704 0
M  V30 11304 H 1025.89 1.03372 -4.98188 0
M  V30 11305 H 1025.29 4.04463 -3.95508 0
M  V30 11306 H 1023.85 4.38341 -4.82391 0
M  V30 11307 N 1027.28 1.57312 -0.0952337 0
M  V30 11308 C 1028.51 1.98697 0.57682 0
M  V30 11309 C 1028.92 0.974347 1.61716 0
M  V30 11310 O 1028.28 -0.036022 1.82464 0
M  V30 11311 C 1028.33 3.40133 1.2244 0
M  V30 11312 O 1028.05 4.37518 0.225678 0
M  V30 11313 C 1029.55 3.96522 1.98205 0
M  V30 11314 H 1026.77 0.65294 0.154629 0
M  V30 11315 H 1029.32 2.03754 -0.174562 0
M  V30 11316 H 1027.47 3.3609 1.92671 0
M  V30 11317 H 1027.89 5.199 0.693116 0
M  V30 11318 H 1029.36 4.97637 2.38875 0
M  V30 11319 H 1029.84 3.34347 2.84796 0
M  V30 11320 H 1030.44 4.04038 1.3279 0
M  V30 11321 N 1028.76 -0.17846 1.56586 0
M  V30 11322 C 1029.67 -1.24115 1.9908 0
M  V30 11323 C 1030.68 -1.48854 0.901031 0
M  V30 11324 O 1031.86 -1.61142 1.2081 0
M  V30 11325 C 1028.92 -2.56187 2.33601 0
M  V30 11326 C 1027.99 -2.39373 3.56369 0
M  V30 11327 C 1027.22 -3.65147 3.89234 0
M  V30 11328 O 1027.44 -4.70024 3.23162 0
M  V30 11329 O 1026.38 -3.59683 4.82609 0
M  V30 11330 H 1030.2 -0.910482 2.89731 0
M  V30 11331 H 1027.79 -0.38477 1.4436 0
M  V30 11332 H 1029.67 -3.34109 2.56806 0
M  V30 11333 H 1028.34 -2.88847 1.46113 0
M  V30 11334 H 1027.25 -1.59506 3.38391 0
M  V30 11335 H 1028.58 -2.1164 4.44375 0
M  V30 11336 N 1030.24 -1.51135 -0.446768 0
M  V30 11337 C 1031.15 -1.74595 -1.56696 0
M  V30 11338 C 1032.16 -0.629816 -1.62201 0
M  V30 11339 O 1033.34 -0.910987 -1.79619 0
M  V30 11340 C 1030.4 -1.85738 -2.9275 0
M  V30 11341 C 1029.46 -3.09564 -2.97437 0
M  V30 11342 C 1028.7 -3.20165 -4.27001 0
M  V30 11343 O 1028.92 -2.36939 -5.1886 0
M  V30 11344 O 1027.85 -4.13077 -4.3778 0
M  V30 11345 H 1031.68 -2.69601 -1.39817 0
M  V30 11346 H 1029.26 -1.35523 -0.628805 0
M  V30 11347 H 1031.15 -1.95107 -3.73512 0
M  V30 11348 H 1029.82 -0.939184 -3.09776 0
M  V30 11349 H 1028.73 -3.05679 -2.15664 0
M  V30 11350 H 1030.06 -4.01041 -2.85353 0
M  V30 11351 N 1031.71 0.701592 -1.41122 0
M  V30 11352 C 1032.62 1.84548 -1.44841 0
M  V30 11353 C 1033.64 1.70654 -0.339594 0
M  V30 11354 O 1034.82 1.92675 -0.586378 0
M  V30 11355 C 1031.88 3.20477 -1.3227 0
M  V30 11356 C 1030.94 3.46524 -2.53415 0
M  V30 11357 C 1030.17 4.75968 -2.41434 0
M  V30 11358 O 1030.4 5.52037 -1.43566 0
M  V30 11359 O 1029.33 5.02664 -3.31078 0
M  V30 11360 H 1033.16 1.84367 -2.41335 0
M  V30 11361 H 1030.74 0.853863 -1.22595 0
M  V30 11362 H 1032.62 4.01642 -1.2752 0
M  V30 11363 H 1031.3 3.21355 -0.388889 0
M  V30 11364 H 1030.21 2.65313 -2.63742 0
M  V30 11365 H 1031.54 3.50455 -3.45604 0
M  V30 11366 N 1033.19 1.2685 0.935242 0
M  V30 11367 C 1034.15 1.08975 2.01636 0
M  V30 11368 C 1035.15 0.0361543 1.60759 0
M  V30 11369 O 1036.34 0.280087 1.71934 0
M  V30 11370 C 1033.48 0.658831 3.34473 0
M  V30 11371 H 1034.67 2.04968 2.18925 0
M  V30 11372 H 1032.22 1.09531 1.11501 0
M  V30 11373 H 1032.96 -0.302824 3.22883 0
M  V30 11374 H 1032.74 1.41967 3.65497 0
M  V30 11375 H 1034.23 0.555783 4.13885 0
M  V30 11376 N 1034.67 -1.14067 1.0875 0
M  V30 11377 C 1035.92 -1.84535 0.814235 0
M  V30 11378 C 1036.23 -1.84044 -0.662355 0
M  V30 11379 O 1037.44 -2.50336 -1.05091 0
M  V30 11380 C 1035.89 -3.31273 1.40663 0
M  V30 11381 C 1035.5 -3.40171 2.91526 0
M  V30 11382 C 1037.25 -4.0683 1.21201 0
M  V30 11383 C 1035.15 -4.81141 3.43885 0
M  V30 11384 H 1034.08 -0.691346 0.300926 0
M  V30 11385 H 1036.73 -1.28562 1.30935 0
M  V30 11386 H 1035.12 -3.87005 0.839215 0
M  V30 11387 H 1036.29 -2.94471 3.54434 0
M  V30 11388 H 1034.61 -2.78073 3.09942 0
M  V30 11389 H 1037.2 -5.10891 1.57781 0
M  V30 11390 H 1037.55 -4.16022 0.152092 0
M  V30 11391 H 1038.08 -3.57408 1.74655 0
M  V30 11392 H 1034.82 -4.77138 4.49466 0
M  V30 11393 H 1034.34 -5.27365 2.85738 0
M  V30 11394 H 1036.02 -5.50042 3.40681 0
M  V30 11395 N 1036.15 -0.873678 -1.31166 0
M  V30 11396 C 1037.1 -0.330288 -2.28424 0
M  V30 11397 C 1038.07 0.573299 -1.55893 0
M  V30 11398 O 1039.25 0.504143 -1.84019 0
M  V30 11399 C 1036.39 0.459004 -3.42034 0
M  V30 11400 C 1035.5 -0.472519 -4.29408 0
M  V30 11401 C 1034.64 0.331261 -5.30166 0
M  V30 11402 C 1033.68 -0.596453 -6.09187 0
M  V30 11403 N 1032.81 0.171305 -7.01891 0
M  V30 11404 H 1037.65 -1.16485 -2.7429 0
M  V30 11405 H 1035.19 -0.585813 -1.34932 0
M  V30 11406 H 1037.15 0.932432 -4.06647 0
M  V30 11407 H 1035.78 1.25824 -2.97268 0
M  V30 11408 H 1034.83 -1.06441 -3.65205 0
M  V30 11409 H 1036.14 -1.18372 -4.84551 0
M  V30 11410 H 1035.3 0.867038 -6.00473 0
M  V30 11411 H 1034.04 1.07573 -4.75688 0
M  V30 11412 H 1033.04 -1.14395 -5.37767 0
M  V30 11413 H 1034.27 -1.33983 -6.65752 0
M  V30 11414 H 1032.21 0.89852 -6.49817 0
M  V30 11415 H 1032.13 -0.480481 -7.54472 0
M  V30 11416 H 1033.4 0.688192 -7.76456 0
M  V30 11417 N 1037.63 1.44308 -0.633487 0
M  V30 11418 C 1038.86 2.06085 -0.145852 0
M  V30 11419 C 1039.26 1.47432 1.18577 0
M  V30 11420 O 1038.61 0.592575 1.7388 0
M  V30 11421 C 1038.67 3.59477 0.0407848 0
M  V30 11422 C 1038.33 4.40607 -1.21304 0
M  V30 11423 C 1039.33 4.73937 -2.13728 0
M  V30 11424 C 1037.02 4.80943 -1.44911 0
M  V30 11425 C 1039.01 5.46489 -3.28068 0
M  V30 11426 C 1036.7 5.53243 -2.59548 0
M  V30 11427 C 1037.69 5.85936 -3.50953 0
M  V30 11428 O 1037.38 6.56764 -4.6359 0
M  V30 11429 H 1037.11 0.671484 -0.0780085 0
M  V30 11430 H 1039.67 1.86128 -0.868658 0
M  V30 11431 H 1037.9 3.77933 0.818761 0
M  V30 11432 H 1039.59 4.03013 0.483273 0
M  V30 11433 H 1040.35 4.43311 -1.96725 0
M  V30 11434 H 1036.23 4.54915 -0.746537 0
M  V30 11435 H 1039.78 5.71924 -3.99435 0
M  V30 11436 H 1035.67 5.83285 -2.76493 0
M  V30 11437 H 1036.44 6.75234 -4.62602 0
M  V30 11438 N 1039.1 0.374177 1.53094 0
M  V30 11439 C 1040.35 -0.213131 2.01677 0
M  V30 11440 C 1040.68 -1.47715 1.26071 0
M  V30 11441 O 1039.96 -1.91199 0.356834 0
M  V30 11442 C 1040.24 -0.496392 3.56662 0
M  V30 11443 C 1040.09 0.781859 4.42953 0
M  V30 11444 C 1041.41 -1.29339 4.20666 0
M  V30 11445 H 1038.53 -0.0759885 0.733072 0
M  V30 11446 H 1041.17 0.500765 1.83282 0
M  V30 11447 H 1039.32 -1.10455 3.72467 0
M  V30 11448 H 1041 1.41914 4.38928 0
M  V30 11449 H 1039.24 1.40041 4.10574 0
M  V30 11450 H 1039.91 0.538508 5.49367 0
M  V30 11451 H 1042.39 -0.778848 4.08746 0
M  V30 11452 H 1041.26 -1.46033 5.29118 0
M  V30 11453 H 1041.52 -2.30435 3.77296 0
M  V30 11454 N 1040.58 -1.57259 0.103575 0
M  V30 11455 C 1041.81 -1.99 -0.566275 0
M  V30 11456 C 1042.23 -0.982909 -1.61197 0
M  V30 11457 O 1041.58 0.026345 -1.82481 0
M  V30 11458 C 1041.63 -3.40778 -1.20635 0
M  V30 11459 O 1041.35 -4.37632 -0.202472 0
M  V30 11460 C 1042.86 -3.97567 -1.961 0
M  V30 11461 H 1040.08 -0.653751 -0.151164 0
M  V30 11462 H 1042.62 -2.03658 0.185365 0
M  V30 11463 H 1040.77 -3.37107 -1.90886 0
M  V30 11464 H 1041.19 -5.2026 -0.665535 0
M  V30 11465 H 1042.66 -4.98897 -2.36233 0
M  V30 11466 H 1043.14 -3.35853 -2.83018 0
M  V30 11467 H 1043.75 -4.04737 -1.30645 0
M  V30 11468 N 1042.06 0.170153 -1.56679 0
M  V30 11469 C 1043.31 0.887906 -1.8233 0
M  V30 11470 C 1043.64 1.81845 -0.681608 0
M  V30 11471 O 1042.91 1.9191 0.316362 0
M  V30 11472 C 1043.2 1.68256 -3.18374 0
M  V30 11473 C 1043.05 0.775059 -4.43072 0
M  V30 11474 C 1044.37 2.65001 -3.51372 0
M  V30 11475 H 1041.49 0.32135 -0.663252 0
M  V30 11476 H 1044.13 0.154065 -1.89374 0
M  V30 11477 H 1042.28 2.30817 -3.12499 0
M  V30 11478 H 1043.95 0.162234 -4.61015 0
M  V30 11479 H 1042.2 0.0831809 -4.3372 0
M  V30 11480 H 1042.87 1.36661 -5.34816 0
M  V30 11481 H 1045.34 2.12566 -3.57708 0
M  V30 11482 H 1044.22 3.17667 -4.47637 0
M  V30 11483 H 1044.48 3.45255 -2.76136 0
M  V30 11484 N 1043.54 1.5137 0.438746 0
M  V30 11485 C 1044.82 1.54508 1.19944 0
M  V30 11486 C 1045.2 0.308525 2.08833 0
M  V30 11487 O 1044.54 -0.706461 2.17305 0
M  V30 11488 C 1044.75 2.85833 2.00251 0
M  V30 11489 C 1046.1 3.37729 2.5734 0
M  V30 11490 O 1047.13 2.87374 2.10463 0
M  V30 11491 O 1045.98 4.25589 3.42836 0
M  V30 11492 H 1043.08 0.621132 0.546007 0
M  V30 11493 H 1045.62 1.63682 0.447931 0
M  V30 11494 H 1044.4 3.67291 1.34955 0
M  V30 11495 H 1044.02 2.79815 2.8247 0
M  V30 11496 N 1045.02 -0.694098 1.41492 0
M  V30 11497 C 1046.43 -1.27407 1.36471 0
M  V30 11498 C 1046.78 -1.9614 0.0485209 0
M  V30 11499 O 1045.9 -1.98871 -0.853188 0
M  V30 11500 C 1046.5 -2.31698 2.47188 0
M  V30 11501 C 1045.06 -2.85268 2.45559 0
M  V30 11502 C 1044.2 -1.59325 2.2696 0
M  V30 11503 H 1047.16 -0.488756 1.50986 0
M  V30 11504 H 1047.18 -3.1302 2.1633 0
M  V30 11505 H 1046.69 -1.81644 3.42968 0
M  V30 11506 H 1044.79 -3.39494 1.5354 0
M  V30 11507 H 1044.9 -3.35598 3.41922 0
M  V30 11508 H 1043.27 -1.85188 1.74864 0
M  V30 11509 H 1044.05 -1.11265 3.24769 0
M  V30 11510 N 1046.49 -1.27344 -0.928501 0
M  V30 11511 C 1047.72 -1.16447 -1.7102 0
M  V30 11512 C 1048.14 0.278799 -1.8673 0
M  V30 11513 O 1047.49 1.18989 -1.38376 0
M  V30 11514 C 1047.55 -1.84242 -3.11026 0
M  V30 11515 O 1047.27 -3.2293 -2.96054 0
M  V30 11516 C 1048.77 -1.7946 -4.05351 0
M  V30 11517 H 1045.99 -0.404898 -0.535069 0
M  V30 11518 H 1048.53 -1.68201 -1.16313 0
M  V30 11519 H 1046.69 -1.36395 -3.62595 0
M  V30 11520 H 1047.1 -3.5667 -3.8456 0
M  V30 11521 H 1048.57 -2.31511 -5.01105 0
M  V30 11522 H 1049.05 -0.763771 -4.32508 0
M  V30 11523 H 1049.66 -2.26918 -3.59706 0
M  V30 11524 N 1047.97 1.13488 -1.09353 0
M  V30 11525 C 1048.92 2.18876 -0.732251 0
M  V30 11526 C 1049.89 1.63616 0.286175 0
M  V30 11527 O 1051.07 1.90059 0.167981 0
M  V30 11528 C 1048.21 3.44737 -0.158157 0
M  V30 11529 C 1047.33 4.14104 -1.23053 0
M  V30 11530 C 1046.46 5.27578 -0.619272 0
M  V30 11531 C 1045.5 5.88793 -1.67301 0
M  V30 11532 N 1044.64 6.937 -1.08283 0
M  V30 11533 H 1049.48 2.49128 -1.63522 0
M  V30 11534 H 1047.02 1.22326 -0.816995 0
M  V30 11535 H 1048.97 4.16756 0.192488 0
M  V30 11536 H 1047.6 3.14938 0.708082 0
M  V30 11537 H 1046.66 3.40376 -1.69847 0
M  V30 11538 H 1047.97 4.55683 -2.02865 0
M  V30 11539 H 1047.12 6.0631 -0.217428 0
M  V30 11540 H 1045.86 4.87246 0.210399 0
M  V30 11541 H 1044.87 5.08756 -2.0844 0
M  V30 11542 H 1046.09 6.31197 -2.50533 0
M  V30 11543 H 1044.04 6.55426 -0.274426 0
M  V30 11544 H 1043.95 7.33817 -1.81792 0
M  V30 11545 H 1045.22 7.76286 -0.707167 0
M  V30 11546 N 1049.45 0.880621 1.30701 0
M  V30 11547 C 1050.4 0.342397 2.28246 0
M  V30 11548 C 1051.37 -0.565023 1.56194 0
M  V30 11549 O 1052.55 -0.494377 1.84284 0
M  V30 11550 C 1049.69 -0.440859 3.42272 0
M  V30 11551 C 1048.81 0.495284 4.29151 0
M  V30 11552 C 1047.94 -0.303141 5.30334 0
M  V30 11553 C 1046.98 0.628751 6.08862 0
M  V30 11554 N 1046.12 -0.13408 7.01972 0
M  V30 11555 H 1050.96 1.17938 2.73669 0
M  V30 11556 H 1048.49 0.59296 1.34619 0
M  V30 11557 H 1050.45 -0.910854 4.07135 0
M  V30 11558 H 1049.08 -1.24245 2.97931 0
M  V30 11559 H 1048.13 1.08376 3.64635 0
M  V30 11560 H 1049.45 1.2094 4.83916 0
M  V30 11561 H 1048.6 -0.835181 6.00924 0
M  V30 11562 H 1047.34 -1.05049 4.76252 0
M  V30 11563 H 1046.34 1.17246 5.37153 0
M  V30 11564 H 1047.57 1.37512 6.65032 0
M  V30 11565 H 1045.52 -0.864046 6.50285 0
M  V30 11566 H 1045.43 0.520486 7.54206 0
M  V30 11567 H 1046.7 -0.647005 7.7681 0
M  V30 11568 N 1050.93 -1.4397 0.641131 0
M  V30 11569 C 1051.84 -2.34526 -0.058742 0
M  V30 11570 C 1052.86 -1.53194 -0.825088 0
M  V30 11571 O 1054.03 -1.85888 -0.775081 0
M  V30 11572 C 1051.1 -3.31313 -1.02139 0
M  V30 11573 C 1050.16 -4.28552 -0.253319 0
M  V30 11574 C 1049.39 -5.20715 -1.17012 0
M  V30 11575 O 1049.61 -5.17028 -2.40911 0
M  V30 11576 O 1048.55 -5.9839 -0.649039 0
M  V30 11577 H 1052.37 -2.95843 0.686329 0
M  V30 11578 H 1049.96 -1.43909 0.401316 0
M  V30 11579 H 1051.84 -3.90862 -1.57496 0
M  V30 11580 H 1050.52 -2.72516 -1.7469 0
M  V30 11581 H 1049.42 -3.72519 0.343531 0
M  V30 11582 H 1050.76 -4.90297 0.432372 0
M  V30 11583 N 1052.41 -0.382291 -1.52893 0
M  V30 11584 C 1053.66 0.203342 -2.00672 0
M  V30 11585 C 1053.97 1.48487 -1.27322 0
M  V30 11586 O 1055.18 2.15013 -1.65776 0
M  V30 11587 C 1053.63 0.412922 -3.57523 0
M  V30 11588 C 1053.24 -0.854949 -4.39767 0
M  V30 11589 C 1054.98 0.955301 -4.13611 0
M  V30 11590 C 1052.89 -0.614033 -5.88204 0
M  V30 11591 H 1051.82 0.0797635 -0.749769 0
M  V30 11592 H 1054.47 -0.50361 -1.76454 0
M  V30 11593 H 1052.85 1.18155 -3.77962 0
M  V30 11594 H 1054.03 -1.62765 -4.31096 0
M  V30 11595 H 1052.34 -1.32176 -3.94865 0
M  V30 11596 H 1054.94 1.15114 -5.22162 0
M  V30 11597 H 1055.28 1.92233 -3.69259 0
M  V30 11598 H 1055.82 0.24642 -3.97036 0
M  V30 11599 H 1052.55 -1.55187 -6.36865 0
M  V30 11600 H 1052.07 0.119865 -5.9968 0
M  V30 11601 H 1053.75 -0.245895 -6.46533 0
M  V30 11602 N 1053.89 1.57202 -0.111913 0
M  V30 11603 C 1055.13 1.94125 0.547573 0
M  V30 11604 C 1055.45 0.997026 1.68282 0
M  V30 11605 O 1056.65 1.26063 2.40459 0
M  V30 11606 C 1055.11 3.44982 1.02545 0
M  V30 11607 C 1054.72 4.47927 -0.0809529 0
M  V30 11608 C 1056.46 3.90837 1.65671 0
M  V30 11609 C 1054.37 5.89955 0.413224 0
M  V30 11610 H 1053.3 0.724651 0.208321 0
M  V30 11611 H 1055.95 1.82507 -0.190625 0
M  V30 11612 H 1054.33 3.5181 1.81785 0
M  V30 11613 H 1055.51 4.52761 -0.857003 0
M  V30 11614 H 1053.82 4.11782 -0.618434 0
M  V30 11615 H 1056.42 4.9436 2.03746 0
M  V30 11616 H 1056.76 3.30417 2.53239 0
M  V30 11617 H 1057.29 3.8678 0.929844 0
M  V30 11618 H 1054.03 6.54113 -0.426238 0
M  V30 11619 H 1053.55 5.88557 1.15591 0
M  V30 11620 H 1055.23 6.41032 0.876756 0
M  V30 11621 N 1055.36 -0.161842 1.56767 0
M  V30 11622 C 1056.3 -1.22927 1.9226 0
M  V30 11623 C 1057.27 -1.42309 0.786562 0
M  V30 11624 O 1058.46 -1.57163 1.04078 0
M  V30 11625 C 1055.59 -2.59069 2.18177 0
M  V30 11626 C 1054.63 -2.56368 3.40849 0
M  V30 11627 S 1055.46 -2.04518 4.94907 0
M  V30 11628 C 1056.62 -3.42418 5.23928 0
M  V30 11629 H 1056.85 -0.926377 2.82499 0
M  V30 11630 H 1054.39 -0.366822 1.49979 0
M  V30 11631 H 1056.34 -3.37421 2.33789 0
M  V30 11632 H 1055.01 -2.86554 1.28629 0
M  V30 11633 H 1054.2 -3.56551 3.56213 0
M  V30 11634 H 1053.8 -1.86116 3.24402 0
M  V30 11635 H 1056.09 -4.38461 5.16486 0
M  V30 11636 H 1057.04 -3.3192 6.25487 0
M  V30 11637 H 1057.44 -3.38868 4.51474 0
M  V30 11638 N 1056.84 -1.516 -0.430713 0
M  V30 11639 C 1057.8 -1.72794 -1.50582 0
M  V30 11640 C 1058.8 -0.597903 -1.49271 0
M  V30 11641 O 1059.99 -0.865535 -1.51176 0
M  V30 11642 C 1057.13 -1.79049 -2.90093 0
M  V30 11643 H 1058.32 -2.68751 -1.33091 0
M  V30 11644 H 1055.87 -1.4169 -0.659822 0
M  V30 11645 H 1056.61 -0.849309 -3.12981 0
M  V30 11646 H 1056.39 -2.61181 -2.92449 0
M  V30 11647 H 1057.88 -1.97262 -3.68072 0
M  V30 11648 N 1058.32 0.686584 -1.41858 0
M  V30 11649 C 1059.25 1.81107 -1.38836 0
M  V30 11650 C 1060.23 1.60599 -0.254293 0
M  V30 11651 O 1061.41 1.83229 -0.442641 0
M  V30 11652 C 1058.54 3.17928 -1.16787 0
M  V30 11653 C 1057.59 3.5721 -2.33031 0
M  V30 11654 S 1058.42 3.60986 -3.95536 0
M  V30 11655 C 1059.58 5.00519 -3.75808 0
M  V30 11656 H 1059.81 1.83396 -2.33994 0
M  V30 11657 H 1057.34 0.856146 -1.28489 0
M  V30 11658 H 1059.3 3.9691 -1.04752 0
M  V30 11659 H 1057.96 3.1324 -0.232335 0
M  V30 11660 H 1057.15 4.56629 -2.13321 0
M  V30 11661 H 1056.76 2.8556 -2.41519 0
M  V30 11662 H 1059.05 5.88272 -3.36069 0
M  V30 11663 H 1059.99 5.25273 -4.74862 0
M  V30 11664 H 1060.4 4.72481 -3.08904 0
M  V30 11665 N 1059.8 1.27835 0.921735 0
M  V30 11666 C 1060.73 1.05397 2.02402 0
M  V30 11667 C 1061.71 -0.0274904 1.62577 0
M  V30 11668 O 1062.89 0.11885 1.88125 0
M  V30 11669 C 1060.02 0.600016 3.33343 0
M  V30 11670 C 1059.07 1.67693 3.9215 0
M  V30 11671 S 1059.9 3.27093 4.23994 0
M  V30 11672 C 1061.05 2.83513 5.58006 0
M  V30 11673 H 1061.29 1.98723 2.21125 0
M  V30 11674 H 1058.82 1.11733 1.0656 0
M  V30 11675 H 1060.78 0.344793 4.09049 0
M  V30 11676 H 1059.44 -0.313288 3.12534 0
M  V30 11677 H 1058.63 1.31074 4.86658 0
M  V30 11678 H 1058.23 1.88454 3.2305 0
M  V30 11679 H 1060.53 2.29187 6.37557 0
M  V30 11680 H 1061.47 3.76788 5.9953 0
M  V30 11681 H 1061.88 2.22472 5.18813 0
M  V30 11682 N 1061.28 -1.12907 1.09954 0
M  V30 11683 C 1062.21 -2.17589 0.687769 0
M  V30 11684 C 1063.19 -1.59648 -0.308444 0
M  V30 11685 O 1064.37 -1.87343 -0.208527 0
M  V30 11686 C 1061.5 -3.38697 0.0140519 0
M  V30 11687 C 1060.54 -4.15254 0.972942 0
M  V30 11688 S 1061.38 -4.74205 2.48777 0
M  V30 11689 C 1062.53 -5.98653 1.82662 0
M  V30 11690 H 1062.77 -2.52181 1.57455 0
M  V30 11691 H 1060.3 -1.24289 0.916051 0
M  V30 11692 H 1062.26 -4.08844 -0.368343 0
M  V30 11693 H 1060.92 -3.02396 -0.849456 0
M  V30 11694 H 1060.11 -5.01999 0.448715 0
M  V30 11695 H 1059.71 -3.5079 1.297 0
M  V30 11696 H 1062 -6.67602 1.15388 0
M  V30 11697 H 1062.95 -6.55693 2.67343 0
M  V30 11698 H 1063.36 -5.49486 1.29325 0
M  V30 11699 N 1062.75 -0.88754 -1.30232 0
M  V30 11700 C 1063.98 -0.522306 -2.00199 0
M  V30 11701 C 1064.4 0.889866 -1.66514 0
M  V30 11702 O 1063.75 1.58558 -0.903639 0
M  V30 11703 C 1063.8 -0.690551 -3.54843 0
M  V30 11704 O 1063.53 -2.04713 -3.8733 0
M  V30 11705 C 1065.03 -0.328649 -4.4208 0
M  V30 11706 H 1062.25 -0.201628 -0.63999 0
M  V30 11707 H 1064.79 -1.19355 -1.66056 0
M  V30 11708 H 1062.95 -0.0666493 -3.87343 0
M  V30 11709 H 1063.36 -2.06762 -4.82027 0
M  V30 11710 H 1064.83 -0.497257 -5.49756 0
M  V30 11711 H 1065.31 0.733502 -4.33032 0
M  V30 11712 H 1065.92 -0.928982 -4.1503 0
M  V30 11713 N 1064.23 1.43628 -0.648757 0
M  V30 11714 C 1065.2 2.29172 0.0360713 0
M  V30 11715 C 1066.2 1.41974 0.754976 0
M  V30 11716 O 1067.39 1.63654 0.5969 0
M  V30 11717 C 1064.52 3.23942 1.0618 0
M  V30 11718 H 1065.71 2.91214 -0.716544 0
M  V30 11719 H 1063.26 1.50833 -0.409759 0
M  V30 11720 H 1064 2.66786 1.8438 0
M  V30 11721 H 1063.78 3.88223 0.550016 0
M  V30 11722 H 1065.27 3.8816 1.54019 0
M  V30 11723 N 1065.71 0.390394 1.52688 0
M  V30 11724 C 1066.95 -0.191207 2.03504 0
M  V30 11725 C 1067.31 -1.43952 1.27051 0
M  V30 11726 O 1068.52 -2.09835 1.67996 0
M  V30 11727 C 1066.79 -0.451552 3.54536 0
M  V30 11728 S 1068.35 -1.00328 4.27176 0
M  V30 11729 H 1065.16 -0.0537587 0.708965 0
M  V30 11730 H 1067.77 0.538993 1.87923 0
M  V30 11731 H 1066.47 0.464061 4.07768 0
M  V30 11732 H 1066 -1.21015 3.74325 0
M  V30 11733 H 1068.02 -2.28555 4.40428 0
M  V30 11734 N 1067.19 -1.57141 0.120249 0
M  V30 11735 C 1068.47 -1.8677 -0.581075 0
M  V30 11736 C 1068.85 -1.02163 -1.84732 0
M  V30 11737 O 1068.19 -0.100897 -2.28277 0
M  V30 11738 C 1068.4 -3.37923 -0.872316 0
M  V30 11739 C 1069.75 -4.0655 -1.22483 0
M  V30 11740 O 1070.78 -3.42948 -0.962539 0
M  V30 11741 O 1069.63 -5.18821 -1.71717 0
M  V30 11742 H 1066.73 -0.773219 -0.293362 0
M  V30 11743 H 1069.27 -1.68992 0.154846 0
M  V30 11744 H 1068.05 -3.91292 0.0249416 0
M  V30 11745 H 1067.67 -3.61135 -1.66335 0
M  V30 11746 N 1068.67 0.153526 -1.5685 0
M  V30 11747 C 1069.6 1.19162 -2.00805 0
M  V30 11748 C 1070.58 1.45172 -0.886518 0
M  V30 11749 O 1071.76 1.56203 -1.15387 0
M  V30 11750 C 1068.89 2.52637 -2.38311 0
M  V30 11751 C 1067.85 2.41161 -3.53589 0
M  V30 11752 C 1067.17 3.79287 -3.76889 0
M  V30 11753 C 1068.47 1.90122 -4.86468 0
M  V30 11754 H 1070.17 0.82617 -2.87776 0
M  V30 11755 H 1067.71 0.395972 -1.38449 0
M  V30 11756 H 1069.67 3.25478 -2.6766 0
M  V30 11757 H 1068.39 2.91005 -1.4827 0
M  V30 11758 H 1067.05 1.70772 -3.24395 0
M  V30 11759 H 1066.7 4.15079 -2.84109 0
M  V30 11760 H 1066.4 3.72472 -4.54465 0
M  V30 11761 H 1067.92 4.53687 -4.08657 0
M  V30 11762 H 1069.33 2.52752 -5.14577 0
M  V30 11763 H 1067.73 1.94214 -5.67804 0
M  V30 11764 H 1068.8 0.856517 -4.77275 0
M  V30 11765 N 1070.14 1.51827 0.422667 0
M  V30 11766 C 1071.37 1.69337 1.19748 0
M  V30 11767 C 1071.79 0.396312 1.83878 0
M  V30 11768 O 1071.15 -0.644976 1.6944 0
M  V30 11769 C 1071.2 2.82082 2.24637 0
M  V30 11770 O 1070.3 2.46708 3.30468 0
M  V30 11771 H 1069.65 0.564154 0.35018 0
M  V30 11772 H 1072.18 1.98465 0.497289 0
M  V30 11773 H 1072.19 3.06599 2.69186 0
M  V30 11774 H 1070.86 3.76195 1.77341 0
M  V30 11775 H 1069.44 2.32815 2.91293 0
M  V30 11776 N 1071.62 -0.679052 1.4222 0
M  V30 11777 C 1072.59 -1.77448 1.45069 0
M  V30 11778 C 1073.59 -1.57189 0.338882 0
M  V30 11779 O 1074.78 -1.63559 0.599519 0
M  V30 11780 C 1071.91 -3.1603 1.27819 0
M  V30 11781 H 1073.1 -1.7631 2.426 0
M  V30 11782 H 1070.65 -0.888277 1.28605 0
M  V30 11783 H 1071.39 -3.22796 0.311946 0
M  V30 11784 H 1071.17 -3.32138 2.08391 0
M  V30 11785 H 1072.66 -3.9596 1.32686 0
M  V30 11786 N 1073.1 -1.28322 -0.914942 0
M  V30 11787 C 1074.35 -1.14785 -1.65853 0
M  V30 11788 C 1074.66 0.303135 -1.93237 0
M  V30 11789 O 1075.87 0.559606 -2.6567 0
M  V30 11790 C 1074.32 -2.00652 -2.98776 0
M  V30 11791 C 1073.93 -3.50483 -2.79044 0
M  V30 11792 C 1075.68 -1.95798 -3.76648 0
M  V30 11793 C 1073.58 -4.28505 -4.076 0
M  V30 11794 H 1072.51 -0.425987 -0.622135 0
M  V30 11795 H 1075.16 -1.52844 -1.01543 0
M  V30 11796 H 1073.55 -1.55447 -3.64214 0
M  V30 11797 H 1074.72 -4.03636 -2.22293 0
M  V30 11798 H 1073.04 -3.5685 -2.14586 0
M  V30 11799 H 1075.63 -2.51359 -4.71935 0
M  V30 11800 H 1075.98 -0.934455 -4.05677 0
M  V30 11801 H 1076.51 -2.38965 -3.18026 0
M  V30 11802 H 1073.25 -5.31433 -3.83744 0
M  V30 11803 H 1072.77 -3.80125 -4.63966 0
M  V30 11804 H 1074.45 -4.3836 -4.75867 0
M  V30 11805 N 1074.58 1.12322 -1.10551 0
M  V30 11806 C 1075.81 1.87679 -0.87087 0
M  V30 11807 C 1076.22 1.79711 0.578733 0
M  V30 11808 O 1075.58 1.17185 1.39907 0
M  V30 11809 C 1075.63 3.36846 -1.31213 0
M  V30 11810 O 1075.35 3.44626 -2.70489 0
M  V30 11811 C 1076.85 4.29138 -1.11156 0
M  V30 11812 H 1074.07 0.593788 -0.3125 0
M  V30 11813 H 1076.62 1.42116 -1.47048 0
M  V30 11814 H 1074.77 3.79948 -0.756169 0
M  V30 11815 H 1075.18 4.37441 -2.89389 0
M  V30 11816 H 1076.66 5.32082 -1.46944 0
M  V30 11817 H 1077.14 4.39171 -0.0502963 0
M  V30 11818 H 1077.74 3.91818 -1.65405 0
M  V30 11819 N 1076.06 0.894434 1.2976 0
M  V30 11820 C 1077 0.366586 2.2787 0
M  V30 11821 C 1077.97 -0.548425 1.56785 0
M  V30 11822 O 1079.16 -0.474804 1.84798 0
M  V30 11823 C 1076.3 -0.404531 3.42721 0
M  V30 11824 C 1075.41 0.540774 4.28602 0
M  V30 11825 C 1074.55 -0.246875 5.30626 0
M  V30 11826 C 1073.59 0.693294 6.08161 0
M  V30 11827 N 1072.72 -0.059619 7.02075 0
M  V30 11828 H 1077.56 1.20834 2.72402 0
M  V30 11829 H 1075.1 0.607205 1.33983 0
M  V30 11830 H 1077.06 -0.86762 4.08079 0
M  V30 11831 H 1075.69 -1.21078 2.99232 0
M  V30 11832 H 1074.74 1.12237 3.63465 0
M  V30 11833 H 1076.05 1.26065 4.82606 0
M  V30 11834 H 1075.21 -0.771398 6.01776 0
M  V30 11835 H 1073.94 -0.999918 4.77339 0
M  V30 11836 H 1072.95 1.22936 5.35879 0
M  V30 11837 H 1074.17 1.44558 6.63536 0
M  V30 11838 H 1072.12 -0.795026 6.51165 0
M  V30 11839 H 1072.04 0.60045 7.53612 0
M  V30 11840 H 1073.31 -0.564577 7.77453 0
M  V30 11841 N 1077.53 -1.43282 0.656365 0
M  V30 11842 C 1078.95 -1.85012 0.250475 0
M  V30 11843 C 1079.3 -1.54944 -1.20361 0
M  V30 11844 O 1078.42 -0.999983 -1.9191 0
M  V30 11845 C 1079.02 -3.35827 0.447815 0
M  V30 11846 C 1077.58 -3.76277 0.0962151 0
M  V30 11847 C 1076.72 -2.66988 0.749168 0
M  V30 11848 H 1079.67 -1.3339 0.85982 0
M  V30 11849 H 1079.69 -3.7927 -0.305726 0
M  V30 11850 H 1079.21 -3.5768 1.5062 0
M  V30 11851 H 1077.31 -3.60035 -0.959449 0
M  V30 11852 H 1077.42 -4.76227 0.523875 0
M  V30 11853 H 1075.78 -2.54048 0.18212 0
M  V30 11854 H 1076.57 -2.91669 1.81064 0
M  V30 11855 N 1079.01 -0.398486 -1.52479 0
M  V30 11856 C 1080.26 0.17345 -2.02659 0
M  V30 11857 C 1080.61 1.43702 -1.27935 0
M  V30 11858 O 1079.91 1.87916 -0.37392 0
M  V30 11859 C 1080.1 0.485909 -3.54081 0
M  V30 11860 C 1079.93 -0.745833 -4.43472 0
M  V30 11861 C 1078.7 -1.26785 -4.89136 0
M  V30 11862 C 1080.9 -1.62085 -4.88091 0
M  V30 11863 N 1078.88 -2.45619 -5.62623 0
M  V30 11864 C 1080.25 -2.65552 -5.60252 0
M  V30 11865 C 1082.31 -1.63986 -4.7012 0
M  V30 11866 C 1081.01 -3.70818 -6.1635 0
M  V30 11867 C 1083.04 -2.68164 -5.27107 0
M  V30 11868 C 1082.4 -3.70353 -5.99181 0
M  V30 11869 H 1078.5 0.0253159 -0.78159 0
M  V30 11870 H 1081.08 -0.550442 -1.86757 0
M  V30 11871 H 1079.25 1.17885 -3.70078 0
M  V30 11872 H 1080.98 1.0458 -3.90954 0
M  V30 11873 H 1077.74 -0.827472 -4.66315 0
M  V30 11874 H 1078.16 -3.05771 -6.04014 0
M  V30 11875 H 1082.8 -0.863253 -4.13893 0
M  V30 11876 H 1080.52 -4.49341 -6.71653 0
M  V30 11877 H 1084.11 -2.7053 -5.15077 0
M  V30 11878 H 1082.99 -4.49642 -6.42489 0
M  V30 11879 N 1080.49 1.57075 -0.12858 0
M  V30 11880 C 1081.4 2.19369 0.831533 0
M  V30 11881 C 1082.42 1.17258 1.28555 0
M  V30 11882 O 1083.59 1.49766 1.34656 0
M  V30 11883 C 1080.66 2.78846 2.06024 0
M  V30 11884 C 1079.72 3.96024 1.65722 0
M  V30 11885 C 1078.95 4.52655 2.82735 0
M  V30 11886 O 1079.18 4.08175 3.98434 0
M  V30 11887 O 1078.11 5.43198 2.59268 0
M  V30 11888 H 1081.94 3.01887 0.331352 0
M  V30 11889 H 1079.52 1.49081 0.0975226 0
M  V30 11890 H 1081.4 3.16721 2.77967 0
M  V30 11891 H 1080.08 1.99353 2.5503 0
M  V30 11892 H 1078.98 3.62899 0.908574 0
M  V30 11893 H 1080.32 4.76981 1.21449 0
M  V30 11894 N 1081.97 -0.145205 1.5693 0
M  V30 11895 C 1083.22 -0.858786 1.83719 0
M  V30 11896 C 1083.55 -1.80738 0.710452 0
M  V30 11897 O 1082.82 -1.92389 -0.285791 0
M  V30 11898 C 1083.11 -1.6317 3.2101 0
M  V30 11899 C 1082.96 -0.704472 4.44249 0
M  V30 11900 C 1084.28 -2.59377 3.55544 0
M  V30 11901 H 1081.4 -0.310757 0.66828 0
M  V30 11902 H 1084.04 -0.123918 1.89595 0
M  V30 11903 H 1082.19 -2.25816 3.16132 0
M  V30 11904 H 1083.86 -0.08887 4.61214 0
M  V30 11905 H 1082.1 -0.0141693 4.33798 0
M  V30 11906 H 1082.78 -1.28135 5.36922 0
M  V30 11907 H 1085.25 -2.06848 3.61044 0
M  V30 11908 H 1084.13 -3.10506 4.52634 0
M  V30 11909 H 1084.39 -3.40819 2.81594 0
M  V30 11910 N 1083.45 -1.52049 -0.414609 0
M  V30 11911 C 1084.38 -1.7122 -1.52369 0
M  V30 11912 C 1085.39 -0.592634 -1.5163 0
M  V30 11913 O 1086.58 -0.867634 -1.55995 0
M  V30 11914 C 1083.68 -1.73247 -2.91271 0
M  V30 11915 C 1082.85 -3.02153 -3.16263 0
M  V30 11916 C 1081.91 -2.96066 -4.35007 0
M  V30 11917 O 1080.94 -3.69981 -4.32554 0
M  V30 11918 N 1082.14 -2.13478 -5.39822 0
M  V30 11919 H 1084.91 -2.66902 -1.3632 0
M  V30 11920 H 1082.47 -1.50218 -0.603842 0
M  V30 11921 H 1084.46 -1.66714 -3.68766 0
M  V30 11922 H 1083.03 -0.85062 -3.00804 0
M  V30 11923 H 1082.25 -3.22379 -2.2686 0
M  V30 11924 H 1083.54 -3.87439 -3.29801 0
M  V30 11925 H 1082.94 -1.52844 -5.44661 0
M  V30 11926 H 1081.49 -2.12805 -6.16082 0
M  V30 11927 N 1084.93 0.6715 -1.42579 0
M  V30 11928 C 1086.15 1.46471 -1.46836 0
M  V30 11929 C 1086.58 1.87921 -0.0820658 0
M  V30 11930 O 1085.93 1.5621 0.920217 0
M  V30 11931 C 1085.98 2.68796 -2.40377 0
M  V30 11932 O 1085.09 3.67188 -1.87741 0
M  V30 11933 H 1084.43 0.439901 -0.497376 0
M  V30 11934 H 1086.96 0.823342 -1.87303 0
M  V30 11935 H 1086.97 3.16828 -2.57068 0
M  V30 11936 H 1085.64 2.37967 -3.41093 0
M  V30 11937 H 1084.22 3.26237 -1.80621 0
M  V30 11938 N 1086.4 1.28806 0.908124 0
M  V30 11939 C 1087.34 1.09018 2.01613 0
M  V30 11940 C 1088.35 0.0402059 1.6275 0
M  V30 11941 O 1089.54 0.283853 1.76229 0
M  V30 11942 C 1086.64 0.635712 3.32884 0
M  V30 11943 C 1085.81 1.76235 4.00325 0
M  V30 11944 C 1084.87 1.3003 5.09881 0
M  V30 11945 O 1083.9 2.00354 5.32773 0
M  V30 11946 N 1085.1 0.166575 5.80261 0
M  V30 11947 H 1087.86 2.0444 2.19144 0
M  V30 11948 H 1085.42 1.20633 1.07978 0
M  V30 11949 H 1087.42 0.310097 4.0351 0
M  V30 11950 H 1085.99 -0.225816 3.11783 0
M  V30 11951 H 1085.21 2.25727 3.23173 0
M  V30 11952 H 1086.49 2.51796 4.42127 0
M  V30 11953 H 1085.89 -0.419934 5.64139 0
M  V30 11954 H 1084.45 -0.0997281 6.51724 0
M  V30 11955 N 1087.88 -1.11734 1.11145 0
M  V30 11956 C 1089.13 -1.83677 0.859684 0
M  V30 11957 C 1089.46 -1.84265 -0.613182 0
M  V30 11958 O 1088.74 -1.29351 -1.45254 0
M  V30 11959 C 1089.02 -3.31003 1.41805 0
M  V30 11960 C 1088.87 -3.38827 2.95831 0
M  V30 11961 C 1090.19 -4.26984 1.06645 0
M  V30 11962 H 1087.31 -0.666879 0.313754 0
M  V30 11963 H 1089.95 -1.31038 1.37583 0
M  V30 11964 H 1088.1 -3.75961 0.979054 0
M  V30 11965 H 1089.77 -3.02451 3.48312 0
M  V30 11966 H 1088.02 -2.79143 3.32056 0
M  V30 11967 H 1088.69 -4.42508 3.29986 0
M  V30 11968 H 1091.16 -3.9019 1.44537 0
M  V30 11969 H 1090.04 -5.2846 1.48394 0
M  V30 11970 H 1090.3 -4.42094 -0.0231866 0
M  V30 11971 N 1089.36 -0.901303 -1.29284 0
M  V30 11972 C 1090.32 -0.385081 -2.25942 0
M  V30 11973 C 1091.32 0.481626 -1.53418 0
M  V30 11974 O 1092.51 0.286451 -1.71829 0
M  V30 11975 C 1089.64 0.449319 -3.37926 0
M  V30 11976 H 1090.84 -1.23877 -2.7312 0
M  V30 11977 H 1088.39 -0.679586 -1.40753 0
M  V30 11978 H 1089.13 1.32292 -2.9609 0
M  V30 11979 H 1088.91 -0.171731 -3.91724 0
M  V30 11980 H 1090.4 0.801746 -4.09831 0
M  V30 11981 N 1090.84 1.42931 -0.663954 0
M  V30 11982 C 1091.77 2.33499 0.00731327 0
M  V30 11983 C 1092.75 1.50074 0.800733 0
M  V30 11984 O 1093.93 1.78708 0.760062 0
M  V30 11985 C 1091.06 3.33569 0.966897 0
M  V30 11986 C 1090.02 4.27064 0.282839 0
M  V30 11987 C 1089.34 5.17257 1.35461 0
M  V30 11988 C 1090.64 5.1564 -0.831438 0
M  V30 11989 H 1092.34 2.89879 -0.749044 0
M  V30 11990 H 1089.88 1.39385 -0.361656 0
M  V30 11991 H 1091.84 3.95833 1.44549 0
M  V30 11992 H 1090.56 2.75469 1.75455 0
M  V30 11993 H 1089.22 3.6618 -0.175417 0
M  V30 11994 H 1088.87 4.5549 2.13397 0
M  V30 11995 H 1088.57 5.80634 0.902098 0
M  V30 11996 H 1090.09 5.82395 1.83436 0
M  V30 11997 H 1091.51 5.71651 -0.434534 0
M  V30 11998 H 1089.9 5.87794 -1.20908 0
M  V30 11999 H 1090.97 4.54687 -1.68487 0
M  V30 12000 N 1092.32 0.406567 1.52266 0
M  V30 12001 C 1093.25 -0.464709 2.23418 0
M  V30 12002 C 1094.23 -1.05008 1.24146 0
M  V30 12003 O 1095.41 -1.09843 1.53188 0
M  V30 12004 C 1092.54 -1.64481 2.96081 0
M  V30 12005 C 1091.58 -1.18307 4.09763 0
M  V30 12006 S 1092.42 -0.150326 5.35289 0
M  V30 12007 C 1093.57 -1.3358 6.11479 0
M  V30 12008 H 1093.81 0.139455 2.96973 0
M  V30 12009 H 1091.34 0.19085 1.53216 0
M  V30 12010 H 1093.3 -2.3215 3.38551 0
M  V30 12011 H 1091.96 -2.22031 2.22174 0
M  V30 12012 H 1091.15 -2.06466 4.59769 0
M  V30 12013 H 1090.75 -0.58505 3.69396 0
M  V30 12014 H 1093.04 -2.25986 6.38699 0
M  V30 12015 H 1093.99 -0.876328 7.02656 0
M  V30 12016 H 1094.4 -1.56044 5.42504 0
M  V30 12017 N 1093.79 -1.57004 0.136909 0
M  V30 12018 C 1095.04 -1.96087 -0.517477 0
M  V30 12019 C 1095.37 -1.0213 -1.65176 0
M  V30 12020 O 1094.65 -0.0617958 -1.94402 0
M  V30 12021 C 1094.93 -3.44958 -1.03323 0
M  V30 12022 C 1094.78 -4.49691 0.0988609 0
M  V30 12023 C 1096.1 -3.96091 -1.91832 0
M  V30 12024 H 1093.22 -0.712978 -0.186632 0
M  V30 12025 H 1095.86 -1.88767 0.216095 0
M  V30 12026 H 1094.01 -3.51327 -1.65836 0
M  V30 12027 H 1095.69 -4.55409 0.734847 0
M  V30 12028 H 1093.93 -4.271 0.75947 0
M  V30 12029 H 1094.6 -5.51165 -0.303554 0
M  V30 12030 H 1097.08 -3.92139 -1.39164 0
M  V30 12031 H 1095.95 -5.00742 -2.24831 0
M  V30 12032 H 1096.21 -3.37846 -2.85153 0
M  V30 12033 N 1095.27 0.136881 -1.57004 0
M  V30 12034 C 1096.24 1.15267 -1.98106 0
M  V30 12035 C 1097.24 1.35305 -0.868856 0
M  V30 12036 O 1098.43 1.32126 -1.13527 0
M  V30 12037 C 1095.56 2.51092 -2.30577 0
M  V30 12038 H 1096.75 0.799821 -2.89038 0
M  V30 12039 H 1094.3 0.380576 -1.51596 0
M  V30 12040 H 1095.04 2.9133 -1.42469 0
M  V30 12041 H 1094.82 2.37906 -3.11678 0
M  V30 12042 H 1096.31 3.24232 -2.63179 0
M  V30 12043 N 1096.75 1.52266 0.40654 0
M  V30 12044 C 1097.7 1.76409 1.516 0
M  V30 12045 C 1098.69 0.631311 1.57197 0
M  V30 12046 O 1099.9 0.813413 1.60573 0
M  V30 12047 H 1096.27 0.557904 0.50423 0
M  V30 12048 H 1098.24 2.69351 1.28424 0
M  V30 12049 C 1096.99 1.93415 2.88939 0
M  V30 12050 H 1096.32 2.8 2.85377 0
M  V30 12051 H 1097.76 2.14306 3.65854 0
M  V30 12052 C 1096.22 0.701938 3.29506 0
M  V30 12053 O 1096.75 -0.128965 4.01493 0
M  V30 12054 N 1094.95 0.537089 2.85594 0
M  V30 12055 H 1094.5 1.21435 2.27181 0
M  V30 12056 H 1094.46 -0.286055 3.13096 0
M  V30 12057 N 1098.23 -0.663929 1.42933 0
M  V30 12058 C 1099.14 -1.80643 1.49683 0
M  V30 12059 C 1100.15 -1.69694 0.38472 0
M  V30 12060 O 1101.33 -1.91052 0.637256 0
M  V30 12061 C 1098.4 -3.16858 1.4072 0
M  V30 12062 C 1097.46 -3.39684 2.62514 0
M  V30 12063 C 1096.69 -4.69399 2.53969 0
M  V30 12064 O 1096.91 -5.48037 1.58152 0
M  V30 12065 O 1095.85 -4.93709 3.44289 0
M  V30 12066 H 1099.67 -1.77903 2.46138 0
M  V30 12067 H 1097.26 -0.821059 1.24816 0
M  V30 12068 H 1099.14 -3.9812 1.38124 0
M  V30 12069 H 1097.81 -3.20211 0.473954 0
M  V30 12070 H 1096.72 -2.58227 2.70684 0
M  V30 12071 H 1098.05 -3.41169 3.54774 0
M  V30 12072 N 1099.71 -1.29285 -0.901281 0
M  V30 12073 C 1100.95 -1.17165 -1.65162 0
M  V30 12074 C 1101.28 0.277184 -1.92515 0
M  V30 12075 O 1100.54 1.2168 -1.53273 0
M  V30 12076 C 1100.84 -1.92865 -3.00895 0
M  V30 12077 C 1100.5 -3.42593 -2.93157 0
M  V30 12078 C 1099.16 -3.83426 -2.90754 0
M  V30 12079 C 1101.52 -4.38011 -2.82481 0
M  V30 12080 C 1098.84 -5.17997 -2.75492 0
M  V30 12081 C 1101.2 -5.7267 -2.68759 0
M  V30 12082 C 1099.86 -6.12764 -2.64721 0
M  V30 12083 H 1099.13 -0.428737 -0.604372 0
M  V30 12084 H 1101.78 -1.60204 -1.04914 0
M  V30 12085 H 1100.08 -1.42412 -3.65001 0
M  V30 12086 H 1101.78 -1.80893 -3.57881 0
M  V30 12087 H 1098.37 -3.10134 -2.95829 0
M  V30 12088 H 1102.55 -4.07417 -2.83416 0
M  V30 12089 H 1097.81 -5.48173 -2.70769 0
M  V30 12090 H 1101.98 -6.46258 -2.59469 0
M  V30 12091 H 1099.61 -7.16987 -2.52652 0
M  V30 12092 N 1101.18 1.11143 -1.11736 0
M  V30 12093 C 1102.43 1.8341 -0.879329 0
M  V30 12094 C 1102.79 1.83174 0.588657 0
M  V30 12095 O 1102.08 1.27609 1.42922 0
M  V30 12096 C 1102.27 3.29733 -1.3788 0
M  V30 12097 C 1102.1 3.44222 -2.89381 0
M  V30 12098 C 1100.87 3.57065 -3.57537 0
M  V30 12099 C 1103.07 3.38246 -3.8742 0
M  V30 12100 N 1101.05 3.60056 -4.97225 0
M  V30 12101 C 1102.42 3.47894 -5.13196 0
M  V30 12102 C 1104.48 3.21797 -3.79935 0
M  V30 12103 C 1103.18 3.4279 -6.32367 0
M  V30 12104 C 1105.21 3.18011 -4.98621 0
M  V30 12105 C 1104.57 3.28234 -6.23251 0
M  V30 12106 H 1100.67 0.686248 -0.374951 0
M  V30 12107 H 1103.25 1.32962 -1.42229 0
M  V30 12108 H 1101.42 3.78691 -0.86298 0
M  V30 12109 H 1103.15 3.89924 -1.08359 0
M  V30 12110 H 1099.91 3.59759 -3.08011 0
M  V30 12111 H 1100.33 3.65181 -5.70063 0
M  V30 12112 H 1104.98 3.12777 -2.84482 0
M  V30 12113 H 1102.69 3.50577 -7.28094 0
M  V30 12114 H 1106.28 3.06446 -4.94552 0
M  V30 12115 H 1105.16 3.25297 -7.13549 0
M  V30 12116 N 1102.66 0.908147 1.28804 0
M  V30 12117 C 1103.57 0.397167 2.31214 0
M  V30 12118 C 1104.59 -0.512352 1.66286 0
M  V30 12119 O 1105.76 -0.399893 1.9739 0
M  V30 12120 C 1102.83 -0.359522 3.44831 0
M  V30 12121 C 1101.89 0.582539 4.25329 0
M  V30 12122 C 1101.12 -0.138133 5.33521 0
M  V30 12123 O 1101.35 -1.36076 5.53931 0
M  V30 12124 O 1100.28 0.523682 5.99618 0
M  V30 12125 H 1104.11 1.247 2.76918 0
M  V30 12126 H 1101.69 0.672766 1.33395 0
M  V30 12127 H 1103.57 -0.787098 4.13984 0
M  V30 12128 H 1102.25 -1.18528 3.01219 0
M  V30 12129 H 1101.16 1.0594 3.58786 0
M  V30 12130 H 1102.49 1.37495 4.72605 0
M  V30 12131 N 1104.14 -1.42577 0.671525 0
M  V30 12132 C 1105.07 -2.2915 -0.0477361 0
M  V30 12133 C 1106.09 -1.43503 -0.768805 0
M  V30 12134 O 1107.27 -1.67256 -0.623509 0
M  V30 12135 C 1104.37 -3.20851 -1.09122 0
M  V30 12136 C 1103.55 -4.35134 -0.44463 0
M  V30 12137 C 1102.61 -5.07579 -1.38745 0
M  V30 12138 O 1101.63 -5.62215 -0.889015 0
M  V30 12139 N 1102.83 -5.12786 -2.72086 0
M  V30 12140 H 1105.6 -2.9152 0.695415 0
M  V30 12141 H 1103.16 -1.53467 0.515689 0
M  V30 12142 H 1105.15 -3.66183 -1.72315 0
M  V30 12143 H 1103.72 -2.59956 -1.73614 0
M  V30 12144 H 1102.94 -3.9249 0.36675 0
M  V30 12145 H 1104.23 -5.088 0.00595927 0
M  V30 12146 H 1103.63 -4.69802 -3.15123 0
M  V30 12147 H 1102.19 -5.61774 -3.30535 0
M  V30 12148 N 1105.62 -0.414636 -1.52048 0
M  V30 12149 C 1106.87 0.159034 -2.01473 0
M  V30 12150 C 1107.19 1.45176 -1.30188 0
M  V30 12151 O 1106.46 1.91134 -0.429469 0
M  V30 12152 H 1105.04 0.0617604 -0.744443 0
M  V30 12153 H 1107.7 -0.552141 -1.86916 0
M  V30 12154 H 1106.8 0.351217 -3.10118 0
M  V30 12155 N 1107.1 1.56929 -0.145233 0
M  V30 12156 C 1108.37 1.8767 0.551288 0
M  V30 12157 C 1108.75 1.05089 1.83083 0
M  V30 12158 O 1108.1 0.137201 2.28088 0
M  V30 12159 C 1108.31 3.39268 0.818445 0
M  V30 12160 C 1109.66 4.08447 1.16 0
M  V30 12161 O 1110.68 3.44436 0.907857 0
M  V30 12162 O 1109.54 5.21488 1.63441 0
M  V30 12163 H 1106.64 0.777788 0.281024 0
M  V30 12164 H 1109.18 1.68724 -0.181712 0
M  V30 12165 H 1107.95 3.91203 -0.0871897 0
M  V30 12166 H 1107.58 3.63735 1.60569 0
M  V30 12167 N 1108.58 -0.128553 1.57075 0
M  V30 12168 C 1109.51 -1.15953 2.02675 0
M  V30 12169 C 1110.49 -1.43743 0.909501 0
M  V30 12170 O 1111.67 -1.54348 1.17857 0
M  V30 12171 C 1108.8 -2.48813 2.423 0
M  V30 12172 C 1107.76 -2.35506 3.57381 0
M  V30 12173 C 1107.08 -3.73243 3.82875 0
M  V30 12174 C 1108.38 -1.82359 4.89431 0
M  V30 12175 H 1110.08 -0.780283 2.89054 0
M  V30 12176 H 1107.62 -0.373896 1.39061 0
M  V30 12177 H 1109.57 -3.21179 2.72804 0
M  V30 12178 H 1108.3 -2.88609 1.52881 0
M  V30 12179 H 1106.96 -1.6559 3.27071 0
M  V30 12180 H 1106.61 -4.10507 2.90677 0
M  V30 12181 H 1106.31 -3.65195 4.60333 0
M  V30 12182 H 1107.83 -4.47128 4.15823 0
M  V30 12183 H 1109.24 -2.44533 5.18533 0
M  V30 12184 H 1107.64 -1.85156 5.70822 0
M  V30 12185 H 1108.71 -0.780478 4.78578 0
M  V30 12186 N 1110.05 -1.5248 -0.398459 0
M  V30 12187 C 1110.96 -1.79492 -1.51062 0
M  V30 12188 C 1111.98 -0.681101 -1.60116 0
M  V30 12189 O 1113.16 -0.967671 -1.7663 0
M  V30 12190 C 1110.22 -1.94958 -2.86692 0
M  V30 12191 C 1109.28 -3.1887 -2.87438 0
M  V30 12192 C 1108.51 -3.33588 -4.16599 0
M  V30 12193 O 1108.74 -2.53327 -5.11059 0
M  V30 12194 O 1107.67 -4.26795 -4.24416 0
M  V30 12195 H 1111.5 -2.73913 -1.31169 0
M  V30 12196 H 1109.08 -1.37455 -0.585372 0
M  V30 12197 H 1110.96 -2.06891 -3.67116 0
M  V30 12198 H 1109.64 -1.03726 -3.06631 0
M  V30 12199 H 1108.55 -3.12386 -2.0583 0
M  V30 12200 H 1109.88 -4.09917 -2.7245 0
M  V30 12201 N 1111.53 0.65634 -1.43283 0
M  V30 12202 C 1112.95 0.971645 -1.26614 0
M  V30 12203 C 1113.15 2.00662 -0.183612 0
M  V30 12204 O 1112.2 2.48654 0.439003 0
M  V30 12205 C 1113.52 1.45888 -2.6294 0
M  V30 12206 C 1115.06 1.57569 -2.70446 0
M  V30 12207 C 1115.54 2.09684 -4.07181 0
M  V30 12208 N 1117.03 2.16991 -4.0923 0
M  V30 12209 C 1117.77 2.5843 -5.11861 0
M  V30 12210 N 1117.26 2.99188 -6.24867 0
M  V30 12211 N 1119.05 2.58342 -4.99215 0
M  V30 12212 H 1111.21 -0.028573 -2.12381 0
M  V30 12213 H 1113.47 0.0497918 -0.946691 0
M  V30 12214 H 1113.17 0.772823 -3.43104 0
M  V30 12215 H 1113.05 2.43445 -2.88122 0
M  V30 12216 H 1115.44 2.25277 -1.90616 0
M  V30 12217 H 1115.52 0.584529 -2.49032 0
M  V30 12218 H 1115.16 1.42579 -4.87477 0
M  V30 12219 H 1115.09 3.09625 -4.25958 0
M  V30 12220 H 1117.58 1.88278 -3.27658 0
M  V30 12221 H 1117.89 3.29549 -6.99012 0
M  V30 12222 H 1116.24 2.97 -6.28344 0
M  V30 12223 H 1119.43 2.25875 -4.09998 0
M  V30 12224 H 1119.6 2.90316 -5.79328 0
M  V30 12225 N 1113.01 1.29761 0.894412 0
M  V30 12226 C 1114.24 1.2094 1.67872 0
M  V30 12227 C 1114.65 -0.229192 1.87404 0
M  V30 12228 O 1114.01 -1.15278 1.41482 0
M  V30 12229 C 1114.06 1.92424 3.06032 0
M  V30 12230 O 1113.78 3.30665 2.87388 0
M  V30 12231 C 1115.28 1.90144 4.0045 0
M  V30 12232 H 1112.5 0.418942 0.524145 0
M  V30 12233 H 1115.05 1.71226 1.11813 0
M  V30 12234 H 1113.2 1.4596 3.58851 0
M  V30 12235 H 1113.62 3.66741 3.74969 0
M  V30 12236 H 1115.09 2.44716 4.94791 0
M  V30 12237 H 1115.57 0.878175 4.30331 0
M  V30 12238 H 1116.17 2.36375 3.53563 0
M  V30 12239 N 1114.49 -1.10549 1.12324 0
M  V30 12240 C 1115.73 -1.82755 0.879117 0
M  V30 12241 C 1116.07 -1.84905 -0.593604 0
M  V30 12242 O 1115.34 -1.30884 -1.43873 0
M  V30 12243 C 1115.62 -3.29481 1.45308 0
M  V30 12244 C 1115.48 -3.3567 2.99408 0
M  V30 12245 C 1116.8 -4.25828 1.11167 0
M  V30 12246 H 1113.92 -0.663513 0.32081 0
M  V30 12247 H 1116.56 -1.29572 1.38965 0
M  V30 12248 H 1114.71 -3.74902 1.01887 0
M  V30 12249 H 1116.38 -2.98739 3.515 0
M  V30 12250 H 1114.62 -2.75606 3.34998 0
M  V30 12251 H 1115.29 -4.38983 3.34661 0
M  V30 12252 H 1117.77 -3.88635 1.48667 0
M  V30 12253 H 1116.65 -5.26857 1.53991 0
M  V30 12254 H 1116.91 -4.42094 0.0237046 0
M  V30 12255 N 1115.97 -0.914965 -1.28321 0
M  V30 12256 C 1116.9 -0.421292 -2.29668 0
M  V30 12257 C 1117.88 0.511743 -1.6222 0
M  V30 12258 O 1119.06 0.419218 -1.89621 0
M  V30 12259 C 1116.19 0.338364 -3.45648 0
M  V30 12260 C 1115.15 -0.505646 -4.25003 0
M  V30 12261 C 1114.47 0.382421 -5.33331 0
M  V30 12262 C 1115.77 -1.76354 -4.91626 0
M  V30 12263 H 1117.47 -1.26826 -2.71211 0
M  V30 12264 H 1115.01 -0.611291 -1.30381 0
M  V30 12265 H 1116.96 0.694578 -4.15636 0
M  V30 12266 H 1115.69 1.21925 -3.02988 0
M  V30 12267 H 1114.35 -0.844395 -3.56743 0
M  V30 12268 H 1114 1.26189 -4.86914 0
M  V30 12269 H 1113.7 -0.17871 -5.87328 0
M  V30 12270 H 1115.22 0.73449 -6.06166 0
M  V30 12271 H 1116.63 -1.47616 -5.5397 0
M  V30 12272 H 1115.03 -2.26717 -5.55625 0
M  V30 12273 H 1116.1 -2.49063 -4.16048 0
M  V30 12274 N 1117.44 1.42219 -0.679077 0
M  V30 12275 C 1118.38 2.29172 0.035583 0
M  V30 12276 C 1119.39 1.43909 0.761183 0
M  V30 12277 O 1120.58 1.67584 0.61463 0
M  V30 12278 C 1117.68 3.21426 1.07419 0
M  V30 12279 C 1116.85 4.35364 0.421547 0
M  V30 12280 C 1115.91 5.08307 1.36051 0
M  V30 12281 O 1114.94 5.62678 0.859186 0
M  V30 12282 N 1116.14 5.14222 2.69362 0
M  V30 12283 H 1118.9 2.91147 -0.710865 0
M  V30 12284 H 1116.46 1.53192 -0.523821 0
M  V30 12285 H 1118.46 3.67091 1.70371 0
M  V30 12286 H 1117.03 2.60873 1.72233 0
M  V30 12287 H 1116.25 3.9229 -0.387559 0
M  V30 12288 H 1117.53 5.08789 -0.0329421 0
M  V30 12289 H 1116.93 4.71467 3.12627 0
M  V30 12290 H 1115.49 5.63519 3.27551 0
M  V30 12291 N 1118.92 0.422693 1.51826 0
M  V30 12292 C 1119.85 -0.43167 2.25098 0
M  V30 12293 C 1120.87 -0.998758 1.28564 0
M  V30 12294 O 1122.06 -0.89539 1.54418 0
M  V30 12295 C 1119.16 -1.61426 2.97985 0
M  V30 12296 C 1118.33 -1.16866 4.21499 0
M  V30 12297 C 1117.39 -2.2197 4.77091 0
M  V30 12298 O 1116.41 -1.82004 5.39317 0
M  V30 12299 N 1117.62 -3.54293 4.59844 0
M  V30 12300 H 1120.38 0.196255 2.99057 0
M  V30 12301 H 1117.94 0.25079 1.59946 0
M  V30 12302 H 1119.93 -2.31331 3.32066 0
M  V30 12303 H 1118.5 -2.14783 2.27128 0
M  V30 12304 H 1117.72 -0.297217 3.93078 0
M  V30 12305 H 1119.01 -0.848106 5.01682 0
M  V30 12306 H 1118.41 -3.89505 4.10247 0
M  V30 12307 H 1116.97 -4.20135 4.98327 0
M  V30 12308 N 1120.4 -1.5685 0.153553 0
M  V30 12309 C 1121.33 -2.14231 -0.814729 0
M  V30 12310 C 1122.34 -1.09339 -1.20619 0
M  V30 12311 O 1123.53 -1.36592 -1.14913 0
M  V30 12312 C 1120.63 -2.6555 -2.10562 0
M  V30 12313 C 1119.81 -3.94912 -1.8805 0
M  V30 12314 C 1118.87 -4.31476 -3.0119 0
M  V30 12315 O 1117.89 -4.9968 -2.72596 0
M  V30 12316 N 1119.09 -3.91588 -4.28531 0
M  V30 12317 H 1121.86 -2.9794 -0.324277 0
M  V30 12318 H 1119.42 -1.61873 -0.0298087 0
M  V30 12319 H 1121.41 -2.87019 -2.85311 0
M  V30 12320 H 1119.98 -1.86529 -2.5085 0
M  V30 12321 H 1119.2 -3.82002 -0.973024 0
M  V30 12322 H 1120.49 -4.79433 -1.70356 0
M  V30 12323 H 1119.89 -3.36645 -4.54628 0
M  V30 12324 H 1118.44 -4.18095 -5.00039 0
M  V30 12325 N 1121.88 0.120221 -1.57141 0
M  V30 12326 C 1123.29 0.677497 -1.73974 0
M  V30 12327 C 1123.64 1.80371 -0.772055 0
M  V30 12328 O 1122.76 2.16329 0.0553062 0
M  V30 12329 C 1123.36 1.23575 -3.1546 0
M  V30 12330 C 1121.92 1.73933 -3.33803 0
M  V30 12331 C 1121.07 0.638542 -2.69848 0
M  V30 12332 H 1124.02 -0.105685 -1.58348 0
M  V30 12333 H 1124.04 2.10542 -3.16942 0
M  V30 12334 H 1123.55 0.415851 -3.85866 0
M  V30 12335 H 1121.65 2.58404 -2.68437 0
M  V30 12336 H 1121.76 1.84961 -4.41957 0
M  V30 12337 H 1120.13 1.07185 -2.31049 0
M  V30 12338 H 1120.91 -0.170356 -3.42877 0
M  V30 12339 N 1123.36 1.52689 0.390367 0
M  V30 12340 C 1124.61 1.6689 1.13272 0
M  V30 12341 C 1124.92 0.414433 1.91159 0
M  V30 12342 O 1126.12 0.436559 2.67967 0
M  V30 12343 C 1124.58 2.94929 2.06264 0
M  V30 12344 C 1124.19 4.27551 1.33805 0
M  V30 12345 C 1125.93 3.18497 2.80642 0
M  V30 12346 C 1123.84 5.46698 2.25554 0
M  V30 12347 H 1122.77 0.621749 0.426549 0
M  V30 12348 H 1125.42 1.79185 0.395615 0
M  V30 12349 H 1123.8 2.76378 2.83604 0
M  V30 12350 H 1124.98 4.56651 0.616997 0
M  V30 12351 H 1123.29 4.10234 0.713913 0
M  V30 12352 H 1125.89 4.04693 3.49467 0
M  V30 12353 H 1126.23 2.33511 3.44642 0
M  V30 12354 H 1126.76 3.37607 2.10395 0
M  V30 12355 H 1123.5 6.34088 1.66171 0
M  V30 12356 H 1123.02 5.21913 2.95579 0
M  V30 12357 H 1124.7 5.80519 2.85668 0
M  V30 12358 N 1124.83 -0.648732 1.43629 0
M  V30 12359 C 1126.25 -1.23001 1.40455 0
M  V30 12360 C 1126.6 -1.95886 0.110897 0
M  V30 12361 O 1125.72 -2.01485 -0.789487 0
M  V30 12362 C 1126.32 -2.23716 2.54434 0
M  V30 12363 C 1124.88 -2.77311 2.54511 0
M  V30 12364 C 1124.02 -1.52024 2.31914 0
M  V30 12365 H 1126.97 -0.440473 1.52465 0
M  V30 12366 H 1126.99 -3.05979 2.26179 0
M  V30 12367 H 1126.51 -1.7064 3.48574 0
M  V30 12368 H 1124.61 -3.34437 1.64263 0
M  V30 12369 H 1124.72 -3.2455 3.52426 0
M  V30 12370 H 1123.08 -1.79531 1.80667 0
M  V30 12371 H 1123.87 -1.00876 3.28145 0
M  V30 12372 N 1126.31 -1.30234 -0.887518 0
M  V30 12373 C 1127.25 -1.10726 -1.99537 0
M  V30 12374 C 1128.22 -0.0156237 -1.62592 0
M  V30 12375 O 1129.41 -0.168687 -1.87744 0
M  V30 12376 C 1126.53 -0.688185 -3.31635 0
M  V30 12377 C 1125.58 -1.78031 -3.87566 0
M  V30 12378 S 1126.41 -3.38219 -4.15172 0
M  V30 12379 C 1127.57 -2.98208 -5.50293 0
M  V30 12380 H 1127.8 -2.04516 -2.15778 0
M  V30 12381 H 1125.34 -1.14519 -1.0356 0
M  V30 12382 H 1127.29 -0.453124 -4.07991 0
M  V30 12383 H 1125.95 0.230315 -3.13254 0
M  V30 12384 H 1125.15 -1.43931 -4.83011 0
M  V30 12385 H 1124.75 -1.96952 -3.1794 0
M  V30 12386 H 1127.04 -2.4601 -6.31257 0
M  V30 12387 H 1127.98 -3.92551 -5.89329 0
M  V30 12388 H 1128.39 -2.36149 -5.12732 0
M  V30 12389 N 1127.79 1.09952 -1.12909 0
M  V30 12390 C 1128.72 2.15689 -0.745217 0
M  V30 12391 C 1129.7 1.60409 0.266007 0
M  V30 12392 O 1130.89 1.8783 0.158783 0
M  V30 12393 C 1128.01 3.38541 -0.103846 0
M  V30 12394 C 1127.06 4.12529 -1.0827 0
M  V30 12395 S 1127.89 4.67442 -2.61262 0
M  V30 12396 C 1129.05 5.936 -1.9847 0
M  V30 12397 H 1129.28 2.47918 -1.64086 0
M  V30 12398 H 1126.81 1.21817 -0.948682 0
M  V30 12399 H 1128.77 4.09677 0.259816 0
M  V30 12400 H 1127.43 3.04541 0.768982 0
M  V30 12401 H 1126.63 5.00632 -0.581653 0
M  V30 12402 H 1126.23 3.47228 -1.38955 0
M  V30 12403 H 1128.52 6.64308 -1.33048 0
M  V30 12404 H 1129.46 6.48374 -2.84634 0
M  V30 12405 H 1129.87 5.45864 -1.43848 0
M  V30 12406 N 1129.27 0.921757 1.27833 0
M  V30 12407 C 1130.55 0.477706 1.89677 0
M  V30 12408 C 1130.93 -1.04392 1.83481 0
M  V30 12409 O 1130.27 -1.89549 1.27606 0
M  V30 12410 C 1130.48 1.01709 3.33851 0
M  V30 12411 C 1131.83 1.074 4.10792 0
M  V30 12412 O 1132.86 0.966295 3.42843 0
M  V30 12413 O 1131.71 1.23909 5.32268 0
M  V30 12414 H 1128.81 0.15271 0.812778 0
M  V30 12415 H 1131.35 1.01306 1.36144 0
M  V30 12416 H 1130.13 2.061 3.32623 0
M  V30 12417 H 1129.75 0.463031 3.94895 0
M  V30 12418 N 1130.75 -1.41857 0.686609 0
M  V30 12419 C 1132.16 -1.55549 0.357288 0
M  V30 12420 C 1132.36 -1.66394 -1.13646 0
M  V30 12421 O 1131.42 -1.63739 -1.92213 0
M  V30 12422 C 1132.73 -2.79938 1.09796 0
M  V30 12423 C 1134.28 -2.93724 1.08143 0
M  V30 12424 C 1134.75 -4.20989 1.80367 0
M  V30 12425 N 1136.25 -4.27927 1.77293 0
M  V30 12426 C 1136.98 -5.2524 2.30022 0
M  V30 12427 N 1136.48 -6.28636 2.91185 0
M  V30 12428 N 1138.27 -5.17118 2.20329 0
M  V30 12429 H 1130.42 -1.33063 1.65554 0
M  V30 12430 H 1132.68 -0.641335 0.698135 0
M  V30 12431 H 1132.39 -2.78104 2.15293 0
M  V30 12432 H 1132.26 -3.71188 0.670763 0
M  V30 12433 H 1134.65 -2.9508 0.0347554 0
M  V30 12434 H 1134.73 -2.03673 1.54761 0
M  V30 12435 H 1134.38 -4.20395 2.85009 0
M  V30 12436 H 1134.31 -5.09997 1.3119 0
M  V30 12437 H 1136.8 -3.53838 1.32692 0
M  V30 12438 H 1137.11 -6.99265 3.29011 0
M  V30 12439 H 1135.45 -6.29164 2.95259 0
M  V30 12440 H 1138.65 -4.35265 1.72226 0
M  V30 12441 H 1138.82 -5.92792 2.61728 0
M  V30 12442 N 1132.22 -0.430739 -1.51599 0
M  V30 12443 C 1133.17 0.398482 -2.29161 0
M  V30 12444 C 1134.17 1.02676 -1.34737 0
M  V30 12445 O 1135.37 0.96248 -1.52106 0
M  V30 12446 H 1131.75 0.14731 -0.737431 0
M  V30 12447 H 1133.72 -0.276619 -2.97115 0
M  V30 12448 C 1132.47 1.49094 -3.14112 0
M  V30 12449 H 1131.79 1.01685 -3.86652 0
M  V30 12450 H 1133.23 2.04453 -3.7145 0
M  V30 12451 C 1131.69 2.47049 -2.29059 0
M  V30 12452 O 1132.22 3.51435 -1.94567 0
M  V30 12453 N 1130.43 2.17778 -1.92409 0
M  V30 12454 H 1129.97 1.3292 -2.20658 0
M  V30 12455 H 1129.93 2.8356 -1.35798 0
M  V30 12456 N 1133.7 1.56767 -0.161869 0
M  V30 12457 C 1134.65 2.17502 0.772102 0
M  V30 12458 C 1135.62 1.11223 1.23364 0
M  V30 12459 O 1136.8 1.39332 1.30351 0
M  V30 12460 C 1133.94 2.81248 1.99984 0
M  V30 12461 C 1133.06 4.01962 1.58274 0
M  V30 12462 C 1132.19 4.53662 2.76341 0
M  V30 12463 C 1131.23 5.66807 2.31076 0
M  V30 12464 N 1130.37 6.13059 3.42203 0
M  V30 12465 H 1135.21 2.96971 0.247382 0
M  V30 12466 H 1132.75 1.46685 0.110382 0
M  V30 12467 H 1134.7 3.16359 2.7198 0
M  V30 12468 H 1133.33 2.04398 2.49842 0
M  V30 12469 H 1132.39 3.72733 0.759874 0
M  V30 12470 H 1133.7 4.83891 1.2104 0
M  V30 12471 H 1132.85 4.90905 3.56507 0
M  V30 12472 H 1131.59 3.7077 3.16829 0
M  V30 12473 H 1130.6 5.29125 1.49354 0
M  V30 12474 H 1131.82 6.51494 1.91657 0
M  V30 12475 H 1129.77 5.33099 3.82285 0
M  V30 12476 H 1129.68 6.89953 3.09033 0
M  V30 12477 H 1130.95 6.54951 4.22682 0
M  V30 12478 N 1135.18 -0.111886 1.57202 0
M  V30 12479 C 1136.6 -0.465629 1.52657 0
M  V30 12480 C 1136.8 -1.81463 0.875989 0
M  V30 12481 O 1135.85 -2.4825 0.461345 0
M  V30 12482 C 1137.17 -0.443571 2.9741 0
M  V30 12483 C 1138.71 -0.52662 3.08538 0
M  V30 12484 C 1139.19 -0.53488 4.54866 0
M  V30 12485 N 1140.68 -0.596117 4.59348 0
M  V30 12486 C 1141.41 -0.624073 5.69994 0
M  V30 12487 N 1140.91 -0.609245 6.90116 0
M  V30 12488 N 1142.7 -0.667619 5.58121 0
M  V30 12489 H 1134.85 0.771925 1.97876 0
M  V30 12490 H 1137.12 0.285534 0.903977 0
M  V30 12491 H 1136.82 0.480138 3.48407 0
M  V30 12492 H 1136.7 -1.26876 3.55221 0
M  V30 12493 H 1139.08 -1.44075 2.57539 0
M  V30 12494 H 1139.17 0.326396 2.53709 0
M  V30 12495 H 1138.81 0.375233 5.06512 0
M  V30 12496 H 1138.74 -1.40488 5.07514 0
M  V30 12497 H 1141.23 -0.613452 3.72888 0
M  V30 12498 H 1141.54 -0.633396 7.702 0
M  V30 12499 H 1139.89 -0.576557 6.92604 0
M  V30 12500 H 1143.08 -0.676616 4.63184 0
M  V30 12501 H 1143.25 -0.685938 6.44359 0
M  V30 12502 N 1136.66 -1.52894 -0.382264 0
M  V30 12503 C 1137.94 -1.58853 -1.14127 0
M  V30 12504 C 1138.32 -0.38582 -2.07544 0
M  V30 12505 O 1137.66 0.625323 -2.19777 0
M  V30 12506 C 1137.87 -2.93068 -1.89504 0
M  V30 12507 C 1139.22 -3.47048 -2.44629 0
M  V30 12508 O 1140.25 -2.94987 -1.99652 0
M  V30 12509 O 1139.1 -4.3802 -3.26804 0
M  V30 12510 H 1136.2 -0.640969 -0.522578 0
M  V30 12511 H 1138.74 -1.65231 -0.386873 0
M  V30 12512 H 1137.52 -3.72047 -1.2123 0
M  V30 12513 H 1137.14 -2.90106 -2.7189 0
M  V30 12514 N 1138.14 0.641106 -1.43971 0
M  V30 12515 C 1139.05 1.78239 -1.52538 0
M  V30 12516 C 1140.06 1.6906 -0.411668 0
M  V30 12517 O 1141.24 1.90014 -0.66757 0
M  V30 12518 C 1138.3 3.14579 -1.45743 0
M  V30 12519 C 1137.37 3.35464 -2.67885 0
M  V30 12520 C 1136.6 4.65299 -2.61404 0
M  V30 12521 O 1136.82 5.45451 -1.66851 0
M  V30 12522 O 1135.76 4.8817 -3.521 0
M  V30 12523 H 1139.58 1.73965 -2.48937 0
M  V30 12524 H 1137.17 0.801098 -1.26106 0
M  V30 12525 H 1139.05 3.95873 -1.4444 0
M  V30 12526 H 1137.72 3.19417 -0.524837 0
M  V30 12527 H 1136.63 2.53888 -2.74758 0
M  V30 12528 H 1137.96 3.35481 -3.60157 0
M  V30 12529 N 1139.62 1.30703 0.880598 0
M  V30 12530 C 1140.55 1.20033 2.00286 0
M  V30 12531 C 1141.53 0.0899614 1.69862 0
M  V30 12532 O 1142.71 0.272747 1.92275 0
M  V30 12533 C 1139.84 0.895902 3.35546 0
M  V30 12534 C 1138.8 1.96468 3.80242 0
M  V30 12535 C 1138.12 1.51316 5.12843 0
M  V30 12536 C 1139.42 3.37637 3.98496 0
M  V30 12537 H 1141.12 2.13922 2.0947 0
M  V30 12538 H 1138.66 1.02989 1.00644 0
M  V30 12539 H 1140.61 0.807899 4.13583 0
M  V30 12540 H 1139.34 -0.0786636 3.26505 0
M  V30 12541 H 1138 2.0424 3.04437 0
M  V30 12542 H 1137.65 0.52674 5.00234 0
M  V30 12543 H 1137.35 2.22807 5.43719 0
M  V30 12544 H 1138.87 1.43903 5.93401 0
M  V30 12545 H 1140.28 3.326 4.66959 0
M  V30 12546 H 1138.68 4.07253 4.40755 0
M  V30 12547 H 1139.75 3.79205 3.02211 0
M  V30 12548 N 1141.09 -1.09351 1.1349 0
M  V30 12549 C 1142.5 -1.63035 0.909746 0
M  V30 12550 C 1142.86 -1.88229 -0.553573 0
M  V30 12551 O 1141.98 -1.63256 -1.42044 0
M  V30 12552 C 1142.58 -2.96186 1.64497 0
M  V30 12553 C 1141.13 -3.46692 1.46566 0
M  V30 12554 C 1140.28 -2.21095 1.67369 0
M  V30 12555 H 1143.23 -0.92704 1.28809 0
M  V30 12556 H 1143.25 -3.64177 1.10251 0
M  V30 12557 H 1142.77 -2.77818 2.70996 0
M  V30 12558 H 1140.87 -3.70183 0.423728 0
M  V30 12559 H 1140.98 -4.24078 2.22923 0
M  V30 12560 H 1139.34 -2.29789 1.0986 0
M  V30 12561 H 1140.13 -2.05245 2.7519 0
M  V30 12562 N 1142.57 -0.928524 -1.27343 0
M  V30 12563 C 1143.52 -0.426873 -2.26818 0
M  V30 12564 C 1144.49 0.506663 -1.58184 0
M  V30 12565 O 1145.67 0.425641 -1.85992 0
M  V30 12566 C 1142.81 0.313523 -3.43673 0
M  V30 12567 C 1141.93 -0.65422 -4.27018 0
M  V30 12568 C 1141.06 0.106102 -5.31094 0
M  V30 12569 C 1140.1 -0.854293 -6.06109 0
M  V30 12570 N 1139.24 -0.126545 -7.01986 0
M  V30 12571 H 1144.08 -1.28014 -2.69103 0
M  V30 12572 H 1141.61 -0.642515 -1.32326 0
M  V30 12573 H 1143.57 0.75912 -4.10236 0
M  V30 12574 H 1142.2 1.13102 -3.02337 0
M  V30 12575 H 1141.25 -1.21834 -3.60362 0
M  V30 12576 H 1142.57 -1.38817 -4.79094 0
M  V30 12577 H 1141.72 0.611577 -6.0361 0
M  V30 12578 H 1140.46 0.873009 -4.79823 0
M  V30 12579 H 1139.46 -1.37101 -5.32432 0
M  V30 12580 H 1140.69 -1.621 -6.5947 0
M  V30 12581 H 1138.64 0.622102 -6.53044 0
M  V30 12582 H 1138.55 -0.800046 -7.51755 0
M  V30 12583 H 1139.82 0.358251 -7.78676 0
M  V30 12584 N 1144.05 1.41491 -0.694123 0
M  V30 12585 C 1144.98 2.33462 -0.0422169 0
M  V30 12586 C 1145.96 1.51739 0.76872 0
M  V30 12587 O 1147.15 1.8028 0.721985 0
M  V30 12588 C 1144.28 3.35545 0.895925 0
M  V30 12589 C 1143.23 4.27568 0.192188 0
M  V30 12590 C 1142.56 5.20014 1.24459 0
M  V30 12591 C 1143.86 5.1376 -0.940626 0
M  V30 12592 H 1145.55 2.88225 -0.810363 0
M  V30 12593 H 1143.1 1.38586 -0.39114 0
M  V30 12594 H 1145.05 3.9881 1.36121 0
M  V30 12595 H 1143.77 2.79129 1.69572 0
M  V30 12596 H 1142.43 3.65726 -0.25305 0
M  V30 12597 H 1142.08 4.59913 2.03687 0
M  V30 12598 H 1141.78 5.82417 0.778734 0
M  V30 12599 H 1143.3 5.86155 1.71041 0
M  V30 12600 H 1144.72 5.70601 -0.555692 0
M  V30 12601 H 1143.11 5.85097 -1.33349 0
M  V30 12602 H 1144.18 4.51011 -1.78093 0
M  V30 12603 N 1145.53 0.438773 1.51369 0
M  V30 12604 C 1146.46 -0.407771 2.25543 0
M  V30 12605 C 1147.47 -0.985065 1.29616 0
M  V30 12606 O 1148.66 -0.878961 1.55359 0
M  V30 12607 C 1145.76 -1.58257 2.9968 0
M  V30 12608 C 1144.93 -1.12389 4.22714 0
M  V30 12609 C 1143.99 -2.16897 4.79418 0
M  V30 12610 O 1143.02 -1.76273 5.41218 0
M  V30 12611 N 1144.22 -3.49396 4.63576 0
M  V30 12612 H 1146.99 0.227963 2.98832 0
M  V30 12613 H 1144.55 0.267741 1.59671 0
M  V30 12614 H 1146.54 -2.27796 3.34501 0
M  V30 12615 H 1145.11 -2.12362 2.29393 0
M  V30 12616 H 1144.33 -0.255509 3.93371 0
M  V30 12617 H 1145.62 -0.794848 5.02553 0
M  V30 12618 H 1145.02 -3.85132 4.14355 0
M  V30 12619 H 1143.57 -4.14826 5.02755 0
M  V30 12620 N 1147.01 -1.56678 0.170181 0
M  V30 12621 C 1148.25 -1.9714 -0.475767 0
M  V30 12622 C 1148.58 -1.05611 -1.62972 0
M  V30 12623 O 1147.86 -0.103017 -1.94227 0
M  V30 12624 C 1148.14 -3.47072 -0.959828 0
M  V30 12625 C 1148 -4.4938 0.194225 0
M  V30 12626 C 1149.31 -4.00071 -1.83387 0
M  V30 12627 H 1146.43 -0.716776 -0.171466 0
M  V30 12628 H 1149.08 -1.88266 0.256086 0
M  V30 12629 H 1147.23 -3.54766 -1.58346 0
M  V30 12630 H 1148.9 -4.53748 0.83128 0
M  V30 12631 H 1147.14 -4.25393 0.849893 0
M  V30 12632 H 1147.81 -5.51685 -0.186575 0
M  V30 12633 H 1150.29 -3.95002 -1.30815 0
M  V30 12634 H 1149.16 -5.05398 -2.14159 0
M  V30 12635 H 1149.42 -3.43819 -2.77923 0
M  V30 12636 N 1148.48 0.103547 -1.57259 0
M  V30 12637 C 1149.73 0.806979 -1.8529 0
M  V30 12638 C 1150.05 1.79679 -0.757653 0
M  V30 12639 O 1149.32 1.94695 0.216913 0
M  V30 12640 H 1147.9 0.301012 -0.683667 0
M  V30 12641 H 1150.56 0.0871886 -1.94705 0
M  V30 12642 H 1149.66 1.34275 -2.81738 0
M  V30 12643 N 1149.96 1.53094 0.37415 0
M  V30 12644 C 1151.21 1.68861 1.11769 0
M  V30 12645 C 1151.54 0.436032 1.89549 0
M  V30 12646 O 1150.79 -0.581879 1.86849 0
M  V30 12647 C 1151.09 2.88432 2.11049 0
M  V30 12648 C 1150.76 4.25284 1.49814 0
M  V30 12649 C 1149.42 4.62501 1.32841 0
M  V30 12650 C 1151.77 5.10425 1.05433 0
M  V30 12651 C 1149.1 5.82502 0.700567 0
M  V30 12652 C 1151.45 6.31064 0.440525 0
M  V30 12653 C 1150.11 6.67 0.258216 0
M  V30 12654 H 1149.38 0.617906 0.40899 0
M  V30 12655 H 1152.03 1.87265 0.4005 0
M  V30 12656 H 1150.34 2.64505 2.8904 0
M  V30 12657 H 1152.03 2.97825 2.68517 0
M  V30 12658 H 1148.62 3.95976 1.64016 0
M  V30 12659 H 1152.81 4.82229 1.17342 0
M  V30 12660 H 1148.06 6.08942 0.547652 0
M  V30 12661 H 1152.24 6.96344 0.0883962 0
M  V30 12662 H 1149.86 7.59851 -0.230354 0
M  V30 12663 N 1151.44 -0.633461 1.44309 0
M  V30 12664 C 1152.69 -1.38902 1.4625 0
M  V30 12665 C 1153 -1.95354 0.0980699 0
M  V30 12666 O 1154.21 -2.715 -0.0049983 0
M  V30 12667 C 1152.66 -2.51477 2.57463 0
M  V30 12668 C 1152.27 -2.01549 4.00103 0
M  V30 12669 C 1154.02 -3.28698 2.68622 0
M  V30 12670 C 1151.92 -3.11452 5.02744 0
M  V30 12671 H 1150.85 -0.521976 0.544112 0
M  V30 12672 H 1153.5 -0.681725 1.70367 0
M  V30 12673 H 1151.89 -3.24771 2.26582 0
M  V30 12674 H 1153.06 -1.35135 4.4054 0
M  V30 12675 H 1151.37 -1.3715 3.93165 0
M  V30 12676 H 1153.97 -4.10624 3.42479 0
M  V30 12677 H 1154.31 -3.78027 1.7436 0
M  V30 12678 H 1154.85 -2.62494 2.98901 0
M  V30 12679 H 1151.59 -2.6707 5.98627 0
M  V30 12680 H 1151.11 -3.76514 4.66902 0
M  V30 12681 H 1152.79 -3.76265 5.2634 0
M  V30 12682 N 1152.92 -1.31168 -0.873655 0
M  V30 12683 C 1154.2 -1.11285 -1.60857 0
M  V30 12684 C 1154.58 0.333788 -2.08444 0
M  V30 12685 O 1153.92 1.32726 -1.86 0
M  V30 12686 C 1154.13 -2.12379 -2.7694 0
M  V30 12687 C 1155.48 -2.44704 -3.46994 0
M  V30 12688 O 1156.51 -2.10778 -2.87143 0
M  V30 12689 O 1155.36 -3.02786 -4.54954 0
M  V30 12690 H 1152.46 -0.428177 -0.707526 0
M  V30 12691 H 1155 -1.42634 -0.91944 0
M  V30 12692 H 1153.78 -3.09703 -2.39164 0
M  V30 12693 H 1153.4 -1.81914 -3.53544 0
M  V30 12694 N 1154.4 1.08748 -1.14068 0
M  V30 12695 C 1155.64 1.81065 -0.906738 0
M  V30 12696 C 1155.97 1.86057 0.566844 0
M  V30 12697 O 1155.23 1.32976 1.43582 0
M  V30 12698 C 1155.53 3.26734 -1.44843 0
M  V30 12699 C 1155.19 3.41866 -2.94005 0
M  V30 12700 C 1153.85 3.45703 -3.34729 0
M  V30 12701 C 1156.21 3.45831 -3.89937 0
M  V30 12702 C 1153.53 3.51092 -4.70055 0
M  V30 12703 C 1155.89 3.52755 -5.25116 0
M  V30 12704 C 1154.55 3.54863 -5.65357 0
M  V30 12705 H 1153.82 0.662564 -0.331799 0
M  V30 12706 H 1156.47 1.28065 -1.42378 0
M  V30 12707 H 1154.77 3.82419 -0.852239 0
M  V30 12708 H 1156.47 3.81236 -1.2434 0
M  V30 12709 H 1153.06 3.39568 -2.61518 0
M  V30 12710 H 1157.24 3.421 -3.59557 0
M  V30 12711 H 1152.5 3.51015 -5.00598 0
M  V30 12712 H 1156.67 3.54768 -5.9926 0
M  V30 12713 H 1154.3 3.58792 -6.70203 0
M  V30 12714 N 1155.87 0.935264 1.26849 0
M  V30 12715 C 1157.12 0.580548 1.94313 0
M  V30 12716 C 1157.45 -0.877205 1.73259 0
M  V30 12717 O 1156.73 -1.62679 1.06611 0
M  V30 12718 C 1157.01 0.916445 3.48243 0
M  V30 12719 C 1156.86 2.42851 3.78607 0
M  V30 12720 C 1158.18 0.427665 4.38017 0
M  V30 12721 H 1155.3 0.21239 0.705733 0
M  V30 12722 H 1157.94 1.16841 1.49827 0
M  V30 12723 H 1156.09 0.416169 3.86265 0
M  V30 12724 H 1157.77 3.00106 3.50335 0
M  V30 12725 H 1156.01 2.8745 3.24892 0
M  V30 12726 H 1156.68 2.61405 4.8618 0
M  V30 12727 H 1159.16 0.856525 4.07189 0
M  V30 12728 H 1158.03 0.691571 5.44526 0
M  V30 12729 H 1158.29 -0.672344 4.36958 0
M  V30 12730 N 1157.35 -1.41121 0.701616 0
M  V30 12731 C 1158.59 -2.02993 0.239383 0
M  V30 12732 C 1158.96 -1.5439 -1.1414 0
M  V30 12733 O 1160.16 -2.08229 -1.69982 0
M  V30 12734 C 1158.43 -3.56128 0.301232 0
M  V30 12735 S 1159.99 -4.38716 -0.0860681 0
M  V30 12736 H 1156.81 -0.704494 0.0959645 0
M  V30 12737 H 1159.41 -1.72461 0.920736 0
M  V30 12738 H 1158.11 -3.88996 1.30805 0
M  V30 12739 H 1157.64 -3.91371 -0.399069 0
M  V30 12740 H 1159.66 -4.78537 -1.31212 0
M  V30 12741 N 1158.83 -0.446794 -1.51134 0
M  V30 12742 C 1160.06 0.114893 -2.06581 0
M  V30 12743 C 1160.47 1.35642 -1.31327 0
M  V30 12744 O 1159.83 1.78595 -0.375506 0
M  V30 12745 C 1159.88 0.427589 -3.58962 0
M  V30 12746 O 1159.6 -0.764669 -4.31375 0
M  V30 12747 C 1161.1 1.03891 -4.30954 0
M  V30 12748 H 1158.32 0.00373031 -0.67099 0
M  V30 12749 H 1160.87 -0.628596 -1.94599 0
M  V30 12750 H 1159.02 1.12099 -3.70827 0
M  V30 12751 H 1159.44 -0.494605 -5.22163 0
M  V30 12752 H 1160.91 1.20764 -5.38628 0
M  V30 12753 H 1161.39 2.02252 -3.8986 0
M  V30 12754 H 1161.99 0.384623 -4.23557 0
M  V30 12755 N 1160.31 1.56586 -0.178487 0
M  V30 12756 C 1161.56 1.97098 0.464617 0
M  V30 12757 C 1161.88 1.06476 1.62767 0
M  V30 12758 O 1161.14 0.100337 1.95443 0
M  V30 12759 C 1161.44 3.43629 0.982552 0
M  V30 12760 C 1161.1 4.50853 -0.0653645 0
M  V30 12761 C 1159.77 4.79901 -0.353349 0
M  V30 12762 C 1162.12 5.15387 -0.776279 0
M  V30 12763 C 1159.45 5.70779 -1.35751 0
M  V30 12764 C 1161.8 6.07349 -1.76948 0
M  V30 12765 C 1160.46 6.34761 -2.06483 0
M  V30 12766 H 1159.73 0.721232 0.170016 0
M  V30 12767 H 1162.38 1.89559 -0.271959 0
M  V30 12768 H 1160.68 3.48155 1.79709 0
M  V30 12769 H 1162.38 3.7232 1.48926 0
M  V30 12770 H 1158.97 4.28266 0.169266 0
M  V30 12771 H 1163.15 4.9305 -0.567008 0
M  V30 12772 H 1158.41 5.90298 -1.59244 0
M  V30 12773 H 1162.58 6.56419 -2.32567 0
M  V30 12774 H 1160.21 7.0498 -2.84441 0
M  V30 12775 N 1161.79 -0.095206 1.57312 0
M  V30 12776 C 1163.03 -0.799903 1.86358 0
M  V30 12777 C 1163.37 -1.78386 0.767593 0
M  V30 12778 O 1162.64 -1.93201 -0.224439 0
M  V30 12779 C 1162.92 -1.52875 3.26039 0
M  V30 12780 C 1162.78 -0.562781 4.46265 0
M  V30 12781 C 1164.1 -2.47935 3.63616 0
M  V30 12782 H 1161.21 -0.289339 0.677829 0
M  V30 12783 H 1163.86 -0.0635369 1.89894 0
M  V30 12784 H 1162.01 -2.15645 3.23156 0
M  V30 12785 H 1163.68 0.0579068 4.61264 0
M  V30 12786 H 1161.92 0.123847 4.33623 0
M  V30 12787 H 1162.59 -1.10989 5.40727 0
M  V30 12788 H 1165.07 -1.95257 3.67442 0
M  V30 12789 H 1163.94 -2.95948 4.62283 0
M  V30 12790 H 1164.21 -3.31687 2.92294 0
M  V30 12791 N 1163.26 -1.53291 -0.366026 0
M  V30 12792 C 1164.49 -1.73108 -1.1277 0
M  V30 12793 C 1164.9 -0.459662 -1.83531 0
M  V30 12794 O 1164.25 0.577151 -1.74398 0
M  V30 12795 C 1164.31 -2.84137 -2.20242 0
M  V30 12796 C 1163.97 -4.24503 -1.69252 0
M  V30 12797 C 1164.97 -5.06866 -1.15684 0
M  V30 12798 C 1162.65 -4.70912 -1.74778 0
M  V30 12799 C 1164.65 -6.33728 -0.683191 0
M  V30 12800 C 1162.33 -5.97752 -1.27025 0
M  V30 12801 C 1163.33 -6.78992 -0.738858 0
M  V30 12802 O 1163.02 -8.03452 -0.268375 0
M  V30 12803 H 1162.75 -0.582439 -0.343134 0
M  V30 12804 H 1165.31 -2.00828 -0.430969 0
M  V30 12805 H 1163.54 -2.5189 -2.93408 0
M  V30 12806 H 1165.23 -2.92136 -2.818 0
M  V30 12807 H 1165.99 -4.72185 -1.10753 0
M  V30 12808 H 1161.87 -4.07751 -2.15081 0
M  V30 12809 H 1165.41 -6.97086 -0.267746 0
M  V30 12810 H 1161.31 -6.31933 -1.31649 0
M  V30 12811 H 1162.08 -8.17581 -0.387745 0
M  V30 12812 N 1164.74 0.6258 -1.44643 0
M  V30 12813 C 1165.69 1.73751 -1.51919 0
M  V30 12814 C 1166.66 1.62007 -0.36647 0
M  V30 12815 O 1167.84 1.81852 -0.577439 0
M  V30 12816 C 1164.98 3.12015 -1.47448 0
M  V30 12817 C 1164.1 3.34696 -2.73135 0
M  V30 12818 C 1163.23 4.62962 -2.6046 0
M  V30 12819 C 1162.27 4.7884 -3.81286 0
M  V30 12820 N 1161.41 5.98388 -3.67255 0
M  V30 12821 H 1166.25 1.66867 -2.46899 0
M  V30 12822 H 1163.79 0.813921 -1.22531 0
M  V30 12823 H 1165.74 3.91983 -1.42846 0
M  V30 12824 H 1164.37 3.179 -0.560312 0
M  V30 12825 H 1163.43 2.4863 -2.87901 0
M  V30 12826 H 1164.74 3.42306 -3.62806 0
M  V30 12827 H 1163.89 5.51099 -2.53722 0
M  V30 12828 H 1162.63 4.57719 -1.68359 0
M  V30 12829 H 1161.64 3.89131 -3.88403 0
M  V30 12830 H 1162.86 4.85893 -4.74431 0
M  V30 12831 H 1160.81 5.94224 -2.77909 0
M  V30 12832 H 1160.72 6.07078 -4.50547 0
M  V30 12833 H 1161.99 6.89072 -3.64417 0
M  V30 12834 N 1166.22 1.31629 0.866686 0
M  V30 12835 C 1167.13 1.21524 2.00671 0
M  V30 12836 C 1168.15 0.131277 1.73504 0
M  V30 12837 O 1169.32 0.349699 1.98341 0
M  V30 12838 C 1166.39 0.926491 3.34091 0
M  V30 12839 C 1165.45 2.09769 3.7456 0
M  V30 12840 C 1164.68 1.82262 5.01614 0
M  V30 12841 O 1164.9 0.759329 5.65323 0
M  V30 12842 O 1163.84 2.68031 5.38928 0
M  V30 12843 H 1167.66 2.17335 2.1213 0
M  V30 12844 H 1165.25 1.11401 0.995499 0
M  V30 12845 H 1167.13 0.78144 4.14091 0
M  V30 12846 H 1165.81 -0.00155829 3.237 0
M  V30 12847 H 1164.71 2.29816 2.95187 0
M  V30 12848 H 1166.05 3.0081 3.89582 0
M  V30 12849 N 1167.7 -1.08142 1.14644 0
M  V30 12850 C 1168.95 -1.80582 0.916327 0
M  V30 12851 C 1169.27 -1.86355 -0.556969 0
M  V30 12852 O 1168.53 -1.33736 -1.42875 0
M  V30 12853 C 1168.83 -3.25962 1.46573 0
M  V30 12854 C 1168.49 -3.40302 2.95814 0
M  V30 12855 C 1167.16 -3.43922 3.36557 0
M  V30 12856 C 1169.51 -3.43758 3.91765 0
M  V30 12857 C 1166.84 -3.48594 4.7191 0
M  V30 12858 C 1169.19 -3.49965 5.26979 0
M  V30 12859 C 1167.85 -3.5186 5.67231 0
M  V30 12860 H 1167.12 -0.660795 0.335308 0
M  V30 12861 H 1169.77 -1.27309 1.43055 0
M  V30 12862 H 1168.07 -3.81961 0.872507 0
M  V30 12863 H 1169.77 -3.80571 1.2636 0
M  V30 12864 H 1166.36 -3.38176 2.63315 0
M  V30 12865 H 1170.55 -3.40189 3.61366 0
M  V30 12866 H 1165.8 -3.48355 5.02453 0
M  V30 12867 H 1169.98 -3.51585 6.01133 0
M  V30 12868 H 1167.6 -3.55233 6.72097 0
M  V30 12869 N 1169.18 -0.941978 -1.26351 0
M  V30 12870 C 1170.4 -0.606231 -1.98342 0
M  V30 12871 C 1170.83 0.812014 -1.6967 0
M  V30 12872 O 1170.19 1.54712 -0.9452 0
M  V30 12873 C 1170.23 -0.855864 -3.50296 0
M  V30 12874 O 1169.34 0.0716251 -4.12338 0
M  V30 12875 H 1168.68 -0.231815 -0.62222 0
M  V30 12876 H 1171.21 -1.26513 -1.60797 0
M  V30 12877 H 1171.22 -0.777079 -4.00531 0
M  V30 12878 H 1169.89 -1.8896 -3.70496 0
M  V30 12879 H 1168.47 -0.0582866 -3.72854 0
M  V30 12880 N 1170.66 1.40747 -0.709091 0
M  V30 12881 C 1172.07 1.54961 -0.381989 0
M  V30 12882 C 1172.27 1.68181 1.10985 0
M  V30 12883 O 1171.33 1.66776 1.89584 0
M  V30 12884 C 1172.64 2.78156 -1.14236 0
M  V30 12885 C 1174.19 2.91967 -1.12803 0
M  V30 12886 C 1174.66 4.18066 -1.87042 0
M  V30 12887 N 1176.15 4.25052 -1.84078 0
M  V30 12888 C 1176.89 5.21514 -2.38349 0
M  V30 12889 N 1176.39 6.23924 -3.01149 0
M  V30 12890 N 1178.18 5.13548 -2.28528 0
M  V30 12891 H 1170.33 1.30412 -1.6765 0
M  V30 12892 H 1172.59 0.630147 -0.70825 0
M  V30 12893 H 1172.3 2.74643 -2.19691 0
M  V30 12894 H 1172.17 3.70074 -0.729731 0
M  V30 12895 H 1174.56 2.94987 -0.0816956 0
M  V30 12896 H 1174.64 2.01185 -1.57982 0
M  V30 12897 H 1174.28 4.15808 -2.91662 0
M  V30 12898 H 1174.21 5.07845 -1.39287 0
M  V30 12899 H 1176.71 3.51682 -1.38305 0
M  V30 12900 H 1177.02 6.93942 -3.40094 0
M  V30 12901 H 1175.36 6.24387 -3.05231 0
M  V30 12902 H 1178.55 4.3247 -1.79129 0
M  V30 12903 H 1178.73 5.88553 -2.71126 0
M  V30 12904 N 1172.13 0.454803 1.50895 0
M  V30 12905 C 1173.38 -0.10577 2.02224 0
M  V30 12906 C 1173.71 -1.41176 1.33789 0
M  V30 12907 O 1172.96 -1.90522 0.447181 0
M  V30 12908 C 1173.26 -0.354159 3.55641 0
M  V30 12909 C 1172.93 0.868136 4.42464 0
M  V30 12910 C 1171.59 1.2033 4.65912 0
M  V30 12911 C 1173.94 1.68272 4.93289 0
M  V30 12912 C 1171.27 2.3534 5.37431 0
M  V30 12913 C 1173.62 2.82396 5.6607 0
M  V30 12914 C 1172.29 3.16346 5.87777 0
M  V30 12915 H 1171.56 -0.0387041 0.739989 0
M  V30 12916 H 1174.2 0.605564 1.81673 0
M  V30 12917 H 1172.51 -1.14757 3.74617 0
M  V30 12918 H 1174.21 -0.8016 3.92906 0
M  V30 12919 H 1170.8 0.596995 4.24422 0
M  V30 12920 H 1174.98 1.43698 4.75042 0
M  V30 12921 H 1170.24 2.61936 5.52449 0
M  V30 12922 H 1174.41 3.45873 6.04438 0
M  V30 12923 H 1172.04 4.05574 6.42973 0
M  V30 12924 N 1173.61 -1.56489 0.186789 0
M  V30 12925 C 1174.56 -2.15311 -0.750024 0
M  V30 12926 C 1175.55 -1.09156 -1.18211 0
M  V30 12927 O 1176.74 -1.3524 -1.14189 0
M  V30 12928 C 1173.87 -2.80952 -1.97284 0
M  V30 12929 C 1172.95 -3.94286 -1.56204 0
M  V30 12930 N 1173.34 -4.98406 -0.861705 0
M  V30 12931 C 1171.64 -4.05733 -1.85194 0
M  V30 12932 C 1172.34 -5.77977 -0.657078 0
M  V30 12933 N 1171.32 -5.30116 -1.20326 0
M  V30 12934 H 1175.12 -2.93176 -0.206148 0
M  V30 12935 H 1172.63 -1.62395 -0.0133163 0
M  V30 12936 H 1174.63 -3.21479 -2.65437 0
M  V30 12937 H 1173.29 -2.04572 -2.52152 0
M  V30 12938 H 1174.3 -5.15302 -0.518067 0
M  V30 12939 H 1170.98 -3.40472 -2.4163 0
M  V30 12940 H 1172.37 -6.71822 -0.102123 0
M  V30 12941 N 1175.09 0.086862 -1.5736 0
M  V30 12942 C 1176.04 1.10478 -2.02641 0
M  V30 12943 C 1177.01 1.39331 -0.904219 0
M  V30 12944 O 1178.19 1.50654 -1.17081 0
M  V30 12945 C 1175.33 2.41754 -2.4627 0
M  V30 12946 C 1174.44 2.19561 -3.72044 0
M  V30 12947 C 1173.58 3.44294 -4.04519 0
M  V30 12948 C 1172.62 3.17399 -5.23378 0
M  V30 12949 N 1171.76 4.3442 -5.51564 0
M  V30 12950 H 1176.6 0.711663 -2.89378 0
M  V30 12951 H 1174.13 0.339856 -1.4312 0
M  V30 12952 H 1176.09 3.18378 -2.69613 0
M  V30 12953 H 1174.72 2.78896 -1.62532 0
M  V30 12954 H 1173.77 1.337 -3.5613 0
M  V30 12955 H 1175.08 1.95685 -4.58812 0
M  V30 12956 H 1174.24 4.29321 -4.28682 0
M  V30 12957 H 1172.98 3.71232 -3.16289 0
M  V30 12958 H 1171.98 2.30765 -4.99026 0
M  V30 12959 H 1173.21 2.91799 -6.13213 0
M  V30 12960 H 1171.15 4.61418 -4.66293 0
M  V30 12961 H 1171.07 4.13764 -6.3272 0
M  V30 12962 H 1172.34 5.20489 -5.80269 0
M  V30 12963 N 1176.57 1.53483 0.357892 0
M  V30 12964 C 1177.48 1.83434 1.4625 0
M  V30 12965 C 1178.49 0.723313 1.58254 0
M  V30 12966 O 1179.67 1.01416 1.74002 0
M  V30 12967 C 1176.73 2.0249 2.81423 0
M  V30 12968 C 1175.8 3.26378 2.78883 0
M  V30 12969 C 1175.03 3.44516 4.07608 0
M  V30 12970 O 1175.25 2.66787 5.04163 0
M  V30 12971 O 1174.19 4.37898 4.12952 0
M  V30 12972 H 1178.01 2.77294 1.23861 0
M  V30 12973 H 1175.6 1.38958 0.548722 0
M  V30 12974 H 1177.48 2.16552 3.61501 0
M  V30 12975 H 1176.15 1.11819 3.03773 0
M  V30 12976 H 1175.06 3.17733 1.97475 0
M  V30 12977 H 1176.39 4.16996 2.61486 0
M  V30 12978 N 1178.05 -0.61812 1.44973 0
M  V30 12979 C 1179.29 -1.37343 1.47715 0
M  V30 12980 C 1179.61 -1.95239 0.118784 0
M  V30 12981 O 1180.81 -2.7149 0.0237981 0
M  V30 12982 C 1179.27 -2.48732 2.60116 0
M  V30 12983 C 1178.88 -1.97294 4.02218 0
M  V30 12984 C 1180.62 -3.25831 2.72093 0
M  V30 12985 C 1178.53 -3.06102 5.06019 0
M  V30 12986 H 1177.46 -0.516175 0.549617 0
M  V30 12987 H 1180.11 -0.663617 1.7108 0
M  V30 12988 H 1178.49 -3.2235 2.30014 0
M  V30 12989 H 1179.67 -1.30455 4.41948 0
M  V30 12990 H 1177.98 -1.32972 3.94598 0
M  V30 12991 H 1180.58 -4.06968 3.46815 0
M  V30 12992 H 1180.92 -3.76156 1.7836 0
M  V30 12993 H 1181.45 -2.59309 3.01668 0
M  V30 12994 H 1178.19 -2.60706 6.01426 0
M  V30 12995 H 1177.71 -3.71541 4.70869 0
M  V30 12996 H 1179.39 -3.70662 5.30301 0
M  V30 12997 N 1179.52 -1.32087 -0.859693 0
M  V30 12998 C 1180.75 -1.25348 -1.64607 0
M  V30 12999 C 1181.17 0.179425 -1.87945 0
M  V30 13000 O 1180.52 1.11487 -1.44489 0
M  V30 13001 C 1180.57 -2.0047 -3.00822 0
M  V30 13002 O 1180.3 -3.38169 -2.7852 0
M  V30 13003 C 1181.8 -2.00694 -3.95268 0
M  V30 13004 H 1179.02 -0.432692 -0.512854 0
M  V30 13005 H 1181.56 -1.7413 -1.07234 0
M  V30 13006 H 1179.72 -1.55423 -3.54855 0
M  V30 13007 H 1180.13 -3.76553 -3.65113 0
M  V30 13008 H 1181.6 -2.57748 -4.88129 0
M  V30 13009 H 1182.08 -0.99196 -4.27851 0
M  V30 13010 H 1182.69 -2.45666 -3.47172 0
M  V30 13011 N 1181 1.07532 -1.15215 0
M  V30 13012 C 1182.41 1.61567 -0.935568 0
M  V30 13013 C 1182.76 1.89085 0.523557 0
M  V30 13014 O 1181.89 1.65495 1.39429 0
M  V30 13015 C 1182.48 2.93531 -1.69189 0
M  V30 13016 C 1181.04 3.44316 -1.52063 0
M  V30 13017 C 1180.19 2.18404 -1.70866 0
M  V30 13018 H 1183.14 0.906431 -1.30267 0
M  V30 13019 H 1183.16 3.62377 -1.16031 0
M  V30 13020 H 1182.67 2.73471 -2.75381 0
M  V30 13021 H 1180.77 3.69462 -0.482567 0
M  V30 13022 H 1180.89 4.20478 -2.29642 0
M  V30 13023 H 1179.25 2.28012 -1.13502 0
M  V30 13024 H 1180.03 2.00841 -2.7842 0
M  V30 13025 N 1182.48 0.948665 1.2585 0
M  V30 13026 C 1183.41 0.408398 2.24516 0
M  V30 13027 C 1184.39 -0.506954 1.54495 0
M  V30 13028 O 1185.58 -0.442695 1.83228 0
M  V30 13029 C 1182.7 -0.41241 3.3618 0
M  V30 13030 C 1181.75 0.442483 4.24198 0
M  V30 13031 S 1182.58 1.87106 5.01749 0
M  V30 13032 C 1183.74 1.05851 6.16884 0
M  V30 13033 H 1183.97 1.24458 2.69995 0
M  V30 13034 H 1181.5 0.752309 1.34832 0
M  V30 13035 H 1183.46 -0.880064 4.00955 0
M  V30 13036 H 1182.12 -1.22335 2.89297 0
M  V30 13037 H 1181.32 -0.186767 5.03654 0
M  V30 13038 H 1180.92 0.845113 3.64327 0
M  V30 13039 H 1183.21 0.304329 6.76816 0
M  V30 13040 H 1184.15 1.82678 6.8413 0
M  V30 13041 H 1184.56 0.591269 5.61395 0
M  V30 13042 N 1183.96 -1.40369 0.716545 0
M  V30 13043 C 1184.89 -2.33365 0.0793533 0
M  V30 13044 C 1185.87 -1.52943 -0.744482 0
M  V30 13045 O 1187.05 -1.81406 -0.693212 0
M  V30 13046 C 1184.18 -3.36928 -0.842429 0
M  V30 13047 C 1183.14 -4.2782 -0.124142 0
M  V30 13048 C 1182.46 -5.21928 -1.1617 0
M  V30 13049 C 1183.76 -5.12199 1.02224 0
M  V30 13050 H 1185.46 -2.86899 0.856115 0
M  V30 13051 H 1183 -1.37946 0.413138 0
M  V30 13052 H 1184.96 -4.00925 -1.29759 0
M  V30 13053 H 1183.68 -2.81791 -1.6511 0
M  V30 13054 H 1182.34 -3.65277 0.311201 0
M  V30 13055 H 1181.99 -4.63096 -1.96345 0
M  V30 13056 H 1181.69 -5.83582 -0.685978 0
M  V30 13057 H 1183.21 -5.88802 -1.61694 0
M  V30 13058 H 1184.63 -5.69644 0.646399 0
M  V30 13059 H 1183.02 -5.82901 1.4264 0
M  V30 13060 H 1184.09 -4.4812 1.85246 0
M  V30 13061 N 1185.44 -0.462799 -1.50652 0
M  V30 13062 C 1186.66 0.0952726 -2.07181 0
M  V30 13063 C 1187.09 1.33479 -1.32533 0
M  V30 13064 O 1186.44 1.77473 -0.370564 0
M  V30 13065 C 1186.49 0.370592 -3.58691 0
M  V30 13066 O 1185.6 1.4526 -3.85971 0
M  V30 13067 H 1184.94 -0.00932702 -0.663934 0
M  V30 13068 H 1187.47 -0.651458 -1.93951 0
M  V30 13069 H 1187.48 0.613551 -4.0336 0
M  V30 13070 H 1186.15 -0.535219 -4.12442 0
M  V30 13071 H 1184.73 1.1976 -3.53146 0
M  V30 13072 N 1186.91 1.56388 -0.195085 0
M  V30 13073 C 1188.16 1.97189 0.44281 0
M  V30 13074 C 1188.48 1.08312 1.62153 0
M  V30 13075 O 1187.75 0.154404 1.95291 0
M  V30 13076 H 1186.33 0.728188 0.166585 0
M  V30 13077 H 1189 1.92852 -0.281815 0
M  V30 13078 H 1188.09 3.02016 0.786945 0
M  V30 13079 N 1188.39 -0.0785156 1.57404 0
M  V30 13080 C 1189.32 -1.09446 2.06262 0
M  V30 13081 C 1190.3 -1.40777 0.954772 0
M  V30 13082 O 1191.49 -1.5052 1.22708 0
M  V30 13083 C 1188.62 -2.40979 2.50093 0
M  V30 13084 C 1187.57 -2.24017 3.64692 0
M  V30 13085 C 1186.9 -3.60873 3.94556 0
M  V30 13086 C 1188.2 -1.66696 4.94985 0
M  V30 13087 H 1189.89 -0.687928 2.9139 0
M  V30 13088 H 1187.44 -0.329466 1.4018 0
M  V30 13089 H 1189.39 -3.12337 2.82884 0
M  V30 13090 H 1188.12 -2.83599 1.61985 0
M  V30 13091 H 1186.77 -1.55101 3.32174 0
M  V30 13092 H 1186.42 -4.01051 3.0359 0
M  V30 13093 H 1186.12 -3.50365 4.71718 0
M  V30 13094 H 1187.65 -4.33673 4.29837 0
M  V30 13095 H 1189.06 -2.27913 5.2605 0
M  V30 13096 H 1187.46 -1.66902 5.76423 0
M  V30 13097 H 1188.53 -0.627827 4.80818 0
M  V30 13098 N 1189.87 -1.5367 -0.349747 0
M  V30 13099 C 1190.8 -1.77528 -1.4497 0
M  V30 13100 C 1191.82 -0.656412 -1.4898 0
M  V30 13101 O 1193 -0.933016 -1.52174 0
M  V30 13102 C 1190.1 -1.85445 -2.8366 0
M  V30 13103 C 1189.28 -3.15295 -3.03163 0
M  V30 13104 C 1188.34 -3.1425 -4.22059 0
M  V30 13105 O 1187.36 -3.87994 -4.16472 0
M  V30 13106 N 1188.56 -2.36181 -5.30282 0
M  V30 13107 H 1191.33 -2.72444 -1.24877 0
M  V30 13108 H 1188.89 -1.52644 -0.539586 0
M  V30 13109 H 1190.88 -1.82204 -3.61364 0
M  V30 13110 H 1189.45 -0.977436 -2.96926 0
M  V30 13111 H 1188.67 -3.31711 -2.12983 0
M  V30 13112 H 1189.96 -4.01078 -3.13072 0
M  V30 13113 H 1189.36 -1.75808 -5.37688 0
M  V30 13114 H 1187.92 -2.38744 -6.06502 0
M  V30 13115 N 1191.35 0.610423 -1.45298 0
M  V30 13116 C 1192.3 1.74245 -1.54083 0
M  V30 13117 C 1193.29 1.64338 -0.411003 0
M  V30 13118 O 1194.5 1.70167 -0.586799 0
M  V30 13119 H 1190.87 0.575612 -0.483916 0
M  V30 13120 H 1192.84 1.63961 -2.49318 0
M  V30 13121 C 1191.59 3.1262 -1.52198 0
M  V30 13122 H 1190.91 3.209 -2.3846 0
M  V30 13123 H 1192.35 3.91665 -1.62403 0
M  V30 13124 C 1190.81 3.36001 -0.24595 0
M  V30 13125 O 1191.34 3.95982 0.675374 0
M  V30 13126 N 1189.55 2.9025 -0.142537 0
M  V30 13127 H 1189.1 2.41621 -0.893143 0
M  V30 13128 H 1189.05 3.06268 0.710427 0
M  V30 13129 N 1192.83 1.32541 0.852676 0
M  V30 13130 C 1193.77 1.21602 1.98282 0
M  V30 13131 C 1194.77 0.120384 1.68972 0
M  V30 13132 O 1195.97 0.283441 1.77754 0
M  V30 13133 H 1192.35 0.376994 0.650676 0
M  V30 13134 H 1194.32 2.17179 2.04636 0
M  V30 13135 C 1193.07 0.957965 3.34243 0
M  V30 13136 H 1192.39 1.79324 3.57327 0
M  V30 13137 H 1193.83 0.921673 4.13861 0
M  V30 13138 C 1192.29 -0.339271 3.35187 0
M  V30 13139 O 1192.82 -1.3505 3.78318 0
M  V30 13140 N 1191.03 -0.361944 2.88337 0
M  V30 13141 H 1190.57 0.461497 2.53432 0
M  V30 13142 H 1190.53 -1.22976 2.89352 0
M  V30 13143 N 1194.3 -1.0692 1.15784 0
M  V30 13144 C 1195.72 -1.31707 0.901408 0
M  V30 13145 C 1195.92 -1.96429 -0.449203 0
M  V30 13146 O 1194.98 -2.22692 -1.19015 0
M  V30 13147 C 1196.29 -2.20391 2.04568 0
M  V30 13148 C 1197.84 -2.33827 2.08072 0
M  V30 13149 C 1198.31 -3.25862 3.21835 0
M  V30 13150 N 1199.8 -3.33444 3.21511 0
M  V30 13151 C 1200.54 -4.04731 4.06177 0
M  V30 13152 N 1200.03 -4.78596 5.00917 0
M  V30 13153 N 1201.83 -4.00717 3.94185 0
M  V30 13154 H 1193.98 -0.632989 2.02749 0
M  V30 13155 H 1196.24 -0.341587 0.88432 0
M  V30 13156 H 1195.95 -1.80102 3.02087 0
M  V30 13157 H 1195.82 -3.20943 1.9818 0
M  V30 13158 H 1198.21 -2.73367 1.11151 0
M  V30 13159 H 1198.29 -1.32964 2.18527 0
M  V30 13160 H 1197.93 -2.8704 4.19012 0
M  V30 13161 H 1197.86 -4.26689 3.08617 0
M  V30 13162 H 1200.35 -2.80798 2.52905 0
M  V30 13163 H 1200.67 -5.30499 5.61952 0
M  V30 13164 H 1199.01 -4.77598 5.04902 0
M  V30 13165 H 1202.2 -3.42126 3.1948 0
M  V30 13166 H 1202.38 -4.56008 4.60392 0
M  V30 13167 N 1195.78 -0.955326 -1.25345 0
M  V30 13168 C 1197.03 -0.611388 -1.93365 0
M  V30 13169 C 1197.36 0.84953 -1.74633 0
M  V30 13170 O 1196.64 1.60962 -1.09185 0
M  V30 13171 C 1196.92 -0.971732 -3.46741 0
M  V30 13172 C 1196.77 -2.48843 -3.74696 0
M  V30 13173 C 1198.09 -0.497295 -4.37281 0
M  V30 13174 H 1195.21 -0.223591 -0.702265 0
M  V30 13175 H 1197.85 -1.1921 -1.47949 0
M  V30 13176 H 1196 -0.477568 -3.85554 0
M  V30 13177 H 1197.67 -3.05641 -3.45516 0
M  V30 13178 H 1195.92 -2.92582 -3.20278 0
M  V30 13179 H 1196.59 -2.69107 -4.8196 0
M  V30 13180 H 1199.06 -0.921196 -4.05775 0
M  V30 13181 H 1197.94 -0.778113 -5.43357 0
M  V30 13182 H 1198.2 0.602743 -4.37972 0
M  V30 13183 N 1197.26 1.39987 -0.723979 0
M  V30 13184 C 1198.17 2.3447 -0.0780936 0
M  V30 13185 C 1199.19 1.57744 0.734368 0
M  V30 13186 O 1200.36 1.90091 0.665385 0
M  V30 13187 C 1197.43 3.36705 0.826492 0
M  V30 13188 C 1196.49 4.293 0.00303036 0
M  V30 13189 C 1195.72 5.26651 0.864535 0
M  V30 13190 O 1195.95 5.30194 2.10357 0
M  V30 13191 O 1194.88 6.01157 0.299057 0
M  V30 13192 H 1198.71 2.91338 -0.857646 0
M  V30 13193 H 1196.29 1.41324 -0.484536 0
M  V30 13194 H 1198.17 3.9938 1.34439 0
M  V30 13195 H 1196.85 2.82237 1.58505 0
M  V30 13196 H 1195.75 3.69883 -0.560136 0
M  V30 13197 H 1197.09 4.86942 -0.717494 0
M  V30 13198 N 1198.74 0.470782 1.50404 0
M  V30 13199 C 1199.99 -0.0765611 2.03256 0
M  V30 13200 C 1200.34 -1.37435 1.34646 0
M  V30 13201 O 1199.63 -1.85918 0.463152 0
M  V30 13202 C 1199.83 -0.316419 3.55997 0
M  V30 13203 C 1199.66 0.956569 4.39409 0
M  V30 13204 C 1198.43 1.49978 4.82529 0
M  V30 13205 C 1200.62 1.85188 4.79802 0
M  V30 13206 N 1198.61 2.72182 5.50264 0
M  V30 13207 C 1199.98 2.9198 5.46944 0
M  V30 13208 C 1202.03 1.86229 4.61761 0
M  V30 13209 C 1200.74 3.99802 5.97955 0
M  V30 13210 C 1202.76 2.93008 5.13712 0
M  V30 13211 C 1202.12 3.98519 5.80829 0
M  V30 13212 H 1198.22 0.0120036 0.781908 0
M  V30 13213 H 1200.81 0.638919 1.83918 0
M  V30 13214 H 1198.98 -1.00094 3.75281 0
M  V30 13215 H 1200.71 -0.858077 3.95499 0
M  V30 13216 H 1197.46 1.04901 4.61836 0
M  V30 13217 H 1197.89 3.34241 5.88737 0
M  V30 13218 H 1202.53 1.05974 4.09303 0
M  V30 13219 H 1200.25 4.80875 6.4945 0
M  V30 13220 H 1203.83 2.94797 5.01584 0
M  V30 13221 H 1202.71 4.79784 6.20304 0
M  V30 13222 N 1200.22 -1.56282 0.203376 0
M  V30 13223 C 1201.16 -2.19473 -0.714164 0
M  V30 13224 C 1202.13 -1.14454 -1.20372 0
M  V30 13225 O 1203.32 -1.42739 -1.26611 0
M  V30 13226 C 1200.46 -2.86451 -1.92457 0
M  V30 13227 C 1199.57 -4.06017 -1.47561 0
M  V30 13228 C 1198.71 -4.60829 -2.64216 0
M  V30 13229 C 1197.75 -5.72734 -2.15967 0
M  V30 13230 N 1196.88 -6.21916 -3.25829 0
M  V30 13231 H 1201.72 -2.97523 -0.168558 0
M  V30 13232 H 1199.26 -1.46926 -0.0714525 0
M  V30 13233 H 1201.22 -3.23459 -2.63496 0
M  V30 13234 H 1199.85 -2.10951 -2.44335 0
M  V30 13235 H 1198.9 -3.74617 -0.660784 0
M  V30 13236 H 1200.21 -4.8693 -1.08168 0
M  V30 13237 H 1199.37 -5.00185 -3.43366 0
M  V30 13238 H 1198.11 -3.7904 -3.06887 0
M  V30 13239 H 1197.11 -5.32899 -1.35273 0
M  V30 13240 H 1198.34 -6.56346 -1.74316 0
M  V30 13241 H 1196.28 -5.43047 -3.68016 0
M  V30 13242 H 1196.2 -6.97904 -2.90631 0
M  V30 13243 H 1197.47 -6.65927 -4.05168 0
M  V30 13244 N 1201.7 0.070167 -1.57444 0
M  V30 13245 C 1202.92 0.785703 -1.91941 0
M  V30 13246 C 1203.35 1.70243 -0.799932 0
M  V30 13247 O 1202.7 1.79608 0.247139 0
M  V30 13248 C 1202.75 1.55398 -3.25398 0
M  V30 13249 O 1201.86 2.66475 -3.14746 0
M  V30 13250 H 1201.2 0.214245 -0.628486 0
M  V30 13251 H 1203.73 0.0379243 -2.04565 0
M  V30 13252 H 1203.74 1.93287 -3.5931 0
M  V30 13253 H 1202.41 0.881366 -4.06454 0
M  V30 13254 H 1200.99 2.3143 -2.92394 0
M  V30 13255 N 1203.17 1.53854 0.341593 0
M  V30 13256 C 1204.1 1.84966 1.42513 0
M  V30 13257 C 1205.08 0.704944 1.54805 0
M  V30 13258 O 1206.27 0.957036 1.68981 0
M  V30 13259 C 1203.4 2.06099 2.79536 0
M  V30 13260 C 1202.35 3.21919 2.82049 0
M  V30 13261 C 1201.68 3.28389 4.21977 0
M  V30 13262 C 1202.98 4.59984 2.4741 0
M  V30 13263 H 1204.67 2.7571 1.16724 0
M  V30 13264 H 1202.22 1.32662 0.560073 0
M  V30 13265 H 1204.17 2.26448 3.55386 0
M  V30 13266 H 1202.9 1.12087 3.06764 0
M  V30 13267 H 1201.56 3.01429 2.08653 0
M  V30 13268 H 1201.2 2.3197 4.46317 0
M  V30 13269 H 1200.9 4.0622 4.24569 0
M  V30 13270 H 1202.43 3.50951 4.99666 0
M  V30 13271 H 1203.84 4.80334 3.12973 0
M  V30 13272 H 1202.24 5.40233 2.61282 0
M  V30 13273 H 1203.31 4.6346 1.42594 0
M  V30 13274 N 1204.65 -0.602709 1.4562 0
M  V30 13275 C 1205.61 -1.69508 1.54271 0
M  V30 13276 C 1206.61 -1.55171 0.421727 0
M  V30 13277 O 1207.8 -1.60151 0.685375 0
M  V30 13278 C 1204.94 -3.0881 1.44392 0
M  V30 13279 H 1206.13 -1.63203 2.51605 0
M  V30 13280 H 1203.68 -0.818857 1.33133 0
M  V30 13281 H 1204.42 -3.20689 0.482614 0
M  V30 13282 H 1204.2 -3.20625 2.25704 0
M  V30 13283 H 1205.69 -3.8837 1.53488 0
M  V30 13284 N 1206.13 -1.32992 -0.845635 0
M  V30 13285 C 1207.41 -1.14671 -1.58461 0
M  V30 13286 C 1207.79 0.289498 -2.09106 0
M  V30 13287 O 1207.13 1.28751 -1.88773 0
M  V30 13288 C 1207.34 -2.18206 -2.72373 0
M  V30 13289 C 1208.69 -2.5201 -3.41726 0
M  V30 13290 O 1209.72 -2.16821 -2.82608 0
M  V30 13291 O 1208.58 -3.12368 -4.48429 0
M  V30 13292 H 1205.67 -0.443088 -0.698285 0
M  V30 13293 H 1208.22 -1.44552 -0.888978 0
M  V30 13294 H 1206.99 -3.14707 -2.32541 0
M  V30 13295 H 1206.61 -1.89372 -3.49605 0
M  V30 13296 N 1207.61 1.06304 -1.1635 0
M  V30 13297 C 1208.52 2.17296 -0.884289 0
M  V30 13298 C 1209.53 1.73408 0.143414 0
M  V30 13299 O 1210.71 2.01373 -0.0331987 0
M  V30 13300 C 1207.77 3.44509 -0.389163 0
M  V30 13301 C 1206.84 4.02906 -1.48208 0
M  V30 13302 C 1206.07 5.24047 -1.01048 0
M  V30 13303 O 1206.29 5.70229 0.139821 0
M  V30 13304 O 1205.23 5.74394 -1.79876 0
M  V30 13305 H 1209.05 2.4369 -1.81243 0
M  V30 13306 H 1206.64 1.15841 -0.943459 0
M  V30 13307 H 1208.52 4.21229 -0.120018 0
M  V30 13308 H 1207.19 3.19642 0.510968 0
M  V30 13309 H 1206.1 3.27677 -1.80496 0
M  V30 13310 H 1207.43 4.32068 -2.35751 0
M  V30 13311 N 1209.09 0.96196 1.24836 0
M  V30 13312 C 1210.32 0.637214 1.96528 0
M  V30 13313 C 1210.72 -0.79638 1.71623 0
M  V30 13314 O 1210.07 -1.54524 0.993372 0
M  V30 13315 C 1210.13 0.824972 3.49906 0
M  V30 13316 C 1209.79 2.23711 3.985 0
M  V30 13317 C 1210.79 3.21439 4.08623 0
M  V30 13318 C 1208.47 2.56327 4.31974 0
M  V30 13319 C 1210.47 4.49872 4.51546 0
M  V30 13320 C 1208.16 3.84987 4.74582 0
M  V30 13321 C 1209.15 4.81572 4.84332 0
M  V30 13322 O 1208.84 6.07938 5.25991 0
M  V30 13323 H 1208.57 0.237214 0.633013 0
M  V30 13324 H 1211.13 1.29081 1.59773 0
M  V30 13325 H 1209.36 0.114219 3.86531 0
M  V30 13326 H 1211.05 0.500179 4.02806 0
M  V30 13327 H 1211.81 2.97569 3.82985 0
M  V30 13328 H 1207.69 1.81872 4.23608 0
M  V30 13329 H 1211.24 5.25261 4.59071 0
M  V30 13330 H 1207.13 4.08661 4.99666 0
M  V30 13331 H 1207.9 6.11421 5.44157 0
M  V30 13332 N 1210.56 -1.39601 0.731392 0
M  V30 13333 C 1211.84 -1.94531 0.20422 0
M  V30 13334 C 1212.22 -1.66845 -1.29329 0
M  V30 13335 O 1211.57 -0.994706 -2.05713 0
M  V30 13336 C 1211.78 -3.44891 0.53395 0
M  V30 13337 C 1213.13 -4.21863 0.481298 0
M  V30 13338 O 1214.15 -3.53073 0.470929 0
M  V30 13339 O 1213.01 -5.44452 0.472663 0
M  V30 13340 H 1210.1 -0.826214 0.0360436 0
M  V30 13341 H 1212.65 -1.49121 0.810005 0
M  V30 13342 H 1211.42 -3.58463 1.56907 0
M  V30 13343 H 1211.04 -3.97472 -0.10099 0
M  V30 13344 N 1212.04 -0.478751 -1.50152 0
M  V30 13345 C 1213.01 0.300181 -2.27226 0
M  V30 13346 C 1214.01 0.913705 -1.32318 0
M  V30 13347 O 1215.2 0.781692 -1.55677 0
M  V30 13348 C 1212.33 1.42838 -3.09532 0
M  V30 13349 H 1213.52 -0.375845 -2.97536 0
M  V30 13350 H 1211.07 -0.233037 -1.54553 0
M  V30 13351 H 1211.81 2.13923 -2.43737 0
M  V30 13352 H 1211.59 0.994161 -3.79287 0
M  V30 13353 H 1213.08 1.97765 -3.67802 0
M  V30 13354 N 1213.52 1.56172 -0.211661 0
M  V30 13355 C 1214.47 2.19849 0.702515 0
M  V30 13356 C 1215.44 1.15091 1.19763 0
M  V30 13357 O 1216.62 1.43408 1.25852 0
M  V30 13358 C 1213.76 2.87468 1.90935 0
M  V30 13359 C 1212.88 4.06794 1.45406 0
M  V30 13360 C 1212.01 4.62224 2.61769 0
M  V30 13361 C 1211.05 5.73872 2.12926 0
M  V30 13362 N 1210.19 6.23635 3.22526 0
M  V30 13363 H 1215.03 2.97608 0.152777 0
M  V30 13364 H 1212.56 1.46962 0.0636596 0
M  V30 13365 H 1214.52 3.24851 2.61777 0
M  V30 13366 H 1213.15 2.12244 2.43213 0
M  V30 13367 H 1212.2 3.74962 0.640907 0
M  V30 13368 H 1213.52 4.87497 1.05584 0
M  V30 13369 H 1212.67 5.01999 3.40709 0
M  V30 13370 H 1211.41 3.80662 3.04873 0
M  V30 13371 H 1210.41 5.33609 1.32445 0
M  V30 13372 H 1211.64 6.57262 1.70833 0
M  V30 13373 H 1209.58 5.44991 3.65131 0
M  V30 13374 H 1209.5 6.99435 2.86926 0
M  V30 13375 H 1210.77 6.68066 4.01631 0
M  V30 13376 N 1215 -0.0618163 1.57479 0
M  V30 13377 C 1215.93 -1.10452 1.99689 0
M  V30 13378 C 1216.91 -1.37019 0.875473 0
M  V30 13379 O 1218.09 -1.50226 1.13862 0
M  V30 13380 C 1215.22 -2.44669 2.34211 0
M  V30 13381 C 1214.27 -2.34172 3.56463 0
M  V30 13382 S 1215.1 -1.7263 5.06911 0
M  V30 13383 C 1216.26 -3.08405 5.44644 0
M  V30 13384 H 1216.49 -0.744843 2.87818 0
M  V30 13385 H 1214.02 -0.270698 1.52008 0
M  V30 13386 H 1215.98 -3.2187 2.54774 0
M  V30 13387 H 1214.64 -2.77794 1.46592 0
M  V30 13388 H 1213.83 -3.33175 3.78167 0
M  V30 13389 H 1213.44 -1.65109 3.35582 0
M  V30 13390 H 1215.73 -4.04727 5.43325 0
M  V30 13391 H 1216.67 -2.9147 6.4533 0
M  V30 13392 H 1217.08 -3.0947 4.72111 0
M  V30 13393 N 1216.48 -1.54033 -0.333429 0
M  V30 13394 C 1217.42 -1.82729 -1.40992 0
M  V30 13395 C 1218.39 -0.673677 -1.51825 0
M  V30 13396 O 1219.58 -0.919126 -1.67203 0
M  V30 13397 C 1216.72 -2.05155 -2.77498 0
M  V30 13398 C 1215.83 -3.32854 -2.75376 0
M  V30 13399 C 1214.97 -3.45294 -4.03665 0
M  V30 13400 C 1214.01 -4.66905 -3.95811 0
M  V30 13401 N 1213.14 -4.76323 -5.1581 0
M  V30 13402 H 1217.98 -2.74572 -1.15821 0
M  V30 13403 H 1215.52 -1.35988 -0.560859 0
M  V30 13404 H 1217.48 -2.16148 -3.56841 0
M  V30 13405 H 1216.11 -1.16615 -3.01 0
M  V30 13406 H 1215.16 -3.30651 -1.88081 0
M  V30 13407 H 1216.47 -4.22299 -2.65453 0
M  V30 13408 H 1215.63 -3.55775 -4.91436 0
M  V30 13409 H 1214.36 -2.53924 -4.16382 0
M  V30 13410 H 1213.37 -4.56491 -3.06425 0
M  V30 13411 H 1214.59 -5.59649 -3.84668 0
M  V30 13412 H 1212.54 -3.87866 -5.29052 0
M  V30 13413 H 1212.46 -5.59719 -5.08184 0
M  V30 13414 H 1213.73 -4.91125 -6.05324 0
M  V30 13415 N 1217.95 0.594978 -1.45938 0
M  V30 13416 C 1219.2 1.35561 -1.50834 0
M  V30 13417 C 1219.53 1.93584 -0.154566 0
M  V30 13418 O 1218.81 1.75781 0.832541 0
M  V30 13419 C 1219.09 2.49414 -2.5974 0
M  V30 13420 C 1218.94 1.96506 -4.04605 0
M  V30 13421 C 1220.26 3.51505 -2.64825 0
M  V30 13422 H 1217.38 0.491549 -0.549134 0
M  V30 13423 H 1220.02 0.669536 -1.77812 0
M  V30 13424 H 1218.17 3.07939 -2.36866 0
M  V30 13425 H 1219.85 1.42533 -4.38728 0
M  V30 13426 H 1218.09 1.27418 -4.14665 0
M  V30 13427 H 1218.76 2.78636 -4.76515 0
M  V30 13428 H 1221.24 3.02841 -2.85353 0
M  V30 13429 H 1220.11 4.28641 -3.42867 0
M  V30 13430 H 1220.37 4.07942 -1.70399 0
M  V30 13431 N 1219.43 1.33438 0.838571 0
M  V30 13432 C 1220.68 1.24259 1.58879 0
M  V30 13433 C 1220.99 -0.189957 1.94675 0
M  V30 13434 O 1222.2 -0.40376 2.68481 0
M  V30 13435 C 1220.66 2.1773 2.86569 0
M  V30 13436 C 1220.26 3.66156 2.58135 0
M  V30 13437 C 1222.01 2.17424 3.64591 0
M  V30 13438 C 1219.92 4.5154 3.81923 0
M  V30 13439 H 1218.85 0.461534 0.59624 0
M  V30 13440 H 1221.5 1.58504 0.924588 0
M  V30 13441 H 1219.88 1.76418 3.54532 0
M  V30 13442 H 1221.05 4.1591 1.98382 0
M  V30 13443 H 1219.37 3.68754 1.93416 0
M  V30 13444 H 1221.96 2.78446 4.56478 0
M  V30 13445 H 1222.31 1.16939 3.99539 0
M  V30 13446 H 1222.84 2.571 3.03553 0
M  V30 13447 H 1219.58 5.52902 3.52107 0
M  V30 13448 H 1219.1 4.06529 4.41015 0
M  V30 13449 H 1220.78 4.65359 4.495 0
M  V30 13450 N 1220.91 -1.05686 1.16912 0
M  V30 13451 C 1221.82 -2.16824 0.8958 0
M  V30 13452 C 1222.84 -1.73482 -0.134215 0
M  V30 13453 O 1224.01 -2.01352 0.0438776 0
M  V30 13454 C 1221.08 -3.44298 0.407427 0
M  V30 13455 C 1220.14 -4.02114 1.50342 0
M  V30 13456 C 1219.37 -5.23503 1.03826 0
M  V30 13457 O 1219.59 -5.70295 -0.109579 0
M  V30 13458 O 1218.53 -5.73432 1.8292 0
M  V30 13459 H 1222.35 -2.42725 1.82533 0
M  V30 13460 H 1219.94 -1.15339 0.949589 0
M  V30 13461 H 1221.82 -4.21159 0.142356 0
M  V30 13462 H 1220.5 -3.19908 -0.494009 0
M  V30 13463 H 1219.4 -3.26715 1.82231 0
M  V30 13464 H 1220.74 -4.30811 2.38039 0
M  V30 13465 N 1222.39 -0.968567 -1.24324 0
M  V30 13466 C 1223.3 -0.50703 -2.29055 0
M  V30 13467 C 1224.31 0.432431 -1.68541 0
M  V30 13468 O 1225.49 0.30526 -1.99073 0
M  V30 13469 C 1222.56 0.194589 -3.46153 0
M  V30 13470 C 1221.62 -0.784805 -4.22066 0
M  V30 13471 C 1220.85 -0.116574 -5.33573 0
M  V30 13472 O 1221.07 1.09492 -5.59792 0
M  V30 13473 O 1220.01 -0.809171 -5.96436 0
M  V30 13474 H 1223.83 -1.3777 -2.70653 0
M  V30 13475 H 1221.42 -0.735645 -1.30033 0
M  V30 13476 H 1223.3 0.588684 -4.17268 0
M  V30 13477 H 1221.97 1.04021 -3.06531 0
M  V30 13478 H 1220.88 -1.22938 -3.53323 0
M  V30 13479 H 1222.21 -1.59887 -4.65507 0
M  V30 13480 N 1223.87 1.39211 -0.738786 0
M  V30 13481 C 1224.78 2.34374 -0.102958 0
M  V30 13482 C 1225.79 1.58514 0.717596 0
M  V30 13483 O 1226.97 1.90786 0.645186 0
M  V30 13484 C 1224.03 3.37562 0.790733 0
M  V30 13485 C 1223.09 4.29279 -0.0425028 0
M  V30 13486 C 1222.33 5.27539 0.808628 0
M  V30 13487 O 1222.55 5.32396 2.04722 0
M  V30 13488 O 1221.48 6.0144 0.235279 0
M  V30 13489 H 1225.31 2.90412 -0.888498 0
M  V30 13490 H 1222.9 1.40803 -0.499498 0
M  V30 13491 H 1224.78 4.00783 1.30196 0
M  V30 13492 H 1223.45 2.83903 1.55502 0
M  V30 13493 H 1222.36 3.69268 -0.599335 0
M  V30 13494 H 1223.69 4.86154 -0.7691 0
M  V30 13495 N 1225.34 0.486708 1.49896 0
M  V30 13496 C 1226.31 -0.288126 2.27382 0
M  V30 13497 C 1227.31 -0.906675 1.32801 0
M  V30 13498 O 1228.5 -0.773425 1.56089 0
M  V30 13499 C 1225.63 -1.41194 3.10285 0
M  V30 13500 H 1226.82 0.391618 2.97332 0
M  V30 13501 H 1224.38 0.24123 1.54427 0
M  V30 13502 H 1225.11 -2.12627 2.44868 0
M  V30 13503 H 1224.9 -0.974033 3.79809 0
M  V30 13504 H 1226.39 -1.95812 3.68846 0
M  V30 13505 N 1226.82 -1.56058 0.219941 0
M  V30 13506 C 1227.77 -2.20218 -0.690846 0
M  V30 13507 C 1228.74 -1.15725 -1.19151 0
M  V30 13508 O 1229.93 -1.44073 -1.2509 0
M  V30 13509 C 1227.07 -2.88477 -1.89408 0
M  V30 13510 C 1226.18 -4.07559 -1.43246 0
M  V30 13511 C 1225.31 -4.63605 -2.59314 0
M  V30 13512 C 1224.35 -5.74993 -2.0988 0
M  V30 13513 N 1223.49 -6.25337 -3.19214 0
M  V30 13514 H 1228.33 -2.97685 -0.136992 0
M  V30 13515 H 1225.87 -1.46994 -0.055865 0
M  V30 13516 H 1227.82 -3.26235 -2.60051 0
M  V30 13517 H 1226.45 -2.1353 -2.42084 0
M  V30 13518 H 1225.51 -3.75297 -0.621013 0
M  V30 13519 H 1226.82 -4.8805 -1.02997 0
M  V30 13520 H 1225.97 -5.03798 -3.38041 0
M  V30 13521 H 1224.71 -3.82274 -3.0285 0
M  V30 13522 H 1223.72 -5.34304 -1.29613 0
M  V30 13523 H 1224.94 -6.58158 -1.67345 0
M  V30 13524 H 1222.89 -5.4692 -3.62236 0
M  V30 13525 H 1222.8 -7.00947 -2.83213 0
M  V30 13526 H 1224.07 -6.70187 -3.98083 0
M  V30 13527 N 1228.3 0.053464 -1.57509 0
M  V30 13528 C 1229.25 1.06155 -2.04939 0
M  V30 13529 C 1230.22 1.37382 -0.93357 0
M  V30 13530 O 1231.4 1.48137 -1.2025 0
M  V30 13531 C 1228.54 2.36476 -2.51343 0
M  V30 13532 C 1227.66 2.1162 -3.76618 0
M  V30 13533 C 1226.79 3.35636 -4.11731 0
M  V30 13534 C 1225.83 3.06226 -5.29993 0
M  V30 13535 N 1224.97 4.22623 -5.60655 0
M  V30 13536 H 1229.81 0.650122 -2.90822 0
M  V30 13537 H 1227.34 0.309421 -1.43809 0
M  V30 13538 H 1229.3 3.12588 -2.76306 0
M  V30 13539 H 1227.93 2.75386 -1.68411 0
M  V30 13540 H 1226.98 1.26116 -3.58886 0
M  V30 13541 H 1228.3 1.85909 -4.6286 0
M  V30 13542 H 1227.45 4.20132 -4.37692 0
M  V30 13543 H 1226.19 3.64439 -3.24092 0
M  V30 13544 H 1225.19 2.20128 -5.03809 0
M  V30 13545 H 1226.42 2.78726 -6.19265 0
M  V30 13546 H 1224.37 4.51424 -4.75976 0
M  V30 13547 H 1224.28 4.0025 -6.41355 0
M  V30 13548 H 1225.55 5.08063 -5.91178 0
M  V30 13549 N 1229.78 1.54207 0.325255 0
M  V30 13550 C 1230.71 1.79812 1.42128 0
M  V30 13551 C 1231.72 0.68003 1.47917 0
M  V30 13552 O 1232.91 0.957107 1.50671 0
M  V30 13553 C 1230.01 1.89935 2.80674 0
M  V30 13554 C 1229.19 3.20078 2.98108 0
M  V30 13555 C 1228.25 3.20924 4.17006 0
M  V30 13556 O 1227.27 3.94571 4.10247 0
M  V30 13557 N 1228.47 2.44588 5.26457 0
M  V30 13558 H 1231.24 2.74396 1.20527 0
M  V30 13559 H 1228.8 1.53483 0.515233 0
M  V30 13560 H 1230.79 1.8793 3.58419 0
M  V30 13561 H 1229.36 1.02455 2.95333 0
M  V30 13562 H 1228.58 3.35057 2.07679 0
M  V30 13563 H 1229.87 4.06008 3.06651 0
M  V30 13564 H 1229.27 1.8434 5.34823 0
M  V30 13565 H 1227.82 2.48363 6.02627 0
M  V30 13566 N 1231.26 -0.58723 1.46251 0
M  V30 13567 C 1232.17 -1.72455 1.59048 0
M  V30 13568 C 1233.18 -1.67416 0.47413 0
M  V30 13569 O 1234.36 -1.87406 0.737633 0
M  V30 13570 C 1231.42 -3.08953 1.57318 0
M  V30 13571 C 1230.49 -3.25291 2.80151 0
M  V30 13572 C 1229.72 -4.55277 2.78493 0
M  V30 13573 O 1229.94 -5.38883 1.8698 0
M  V30 13574 O 1228.88 -4.74765 3.69975 0
M  V30 13575 H 1232.7 -1.64606 2.55223 0
M  V30 13576 H 1230.29 -0.753742 1.28993 0
M  V30 13577 H 1232.17 -3.90239 1.59033 0
M  V30 13578 H 1230.84 -3.17249 0.643025 0
M  V30 13579 H 1229.75 -2.43515 2.83991 0
M  V30 13580 H 1231.08 -3.21883 3.7236 0
M  V30 13581 N 1232.74 -1.33881 -0.831482 0
M  V30 13582 C 1233.98 -1.25507 -1.58406 0
M  V30 13583 C 1234.3 0.177137 -1.94194 0
M  V30 13584 O 1233.57 1.10769 -1.61576 0
M  V30 13585 H 1232.15 -0.461551 -0.587349 0
M  V30 13586 H 1234.82 -1.6769 -0.99328 0
M  V30 13587 H 1233.91 -1.85391 -2.51071 0
M  V30 13588 N 1234.21 1.05064 -1.1747 0
M  V30 13589 C 1235.46 1.77737 -0.961979 0
M  V30 13590 C 1235.78 1.88198 0.510551 0
M  V30 13591 O 1235.05 1.39968 1.37062 0
M  V30 13592 H 1233.63 0.658366 -0.352935 0
M  V30 13593 H 1236.29 1.26851 -1.47969 0
M  V30 13594 H 1235.39 2.79368 -1.39141 0
M  V30 13595 N 1235.69 0.975146 1.23809 0
M  V30 13596 C 1236.65 0.516157 2.23312 0
M  V30 13597 C 1237.65 -0.39136 1.55965 0
M  V30 13598 O 1238.84 -0.185783 1.73206 0
M  V30 13599 C 1235.98 -0.251534 3.39971 0
M  V30 13600 H 1237.17 1.3959 2.65433 0
M  V30 13601 H 1234.72 0.760493 1.36551 0
M  V30 13602 H 1235.46 -1.14805 3.03299 0
M  V30 13603 H 1235.24 0.399825 3.90056 0
M  V30 13604 H 1236.73 -0.561438 4.13809 0
M  V30 13605 N 1237.17 -1.38817 0.746158 0
M  V30 13606 C 1238.08 -2.34316 0.115386 0
M  V30 13607 C 1239.1 -1.58892 -0.709179 0
M  V30 13608 O 1240.27 -1.91126 -0.635059 0
M  V30 13609 C 1237.34 -3.37977 -0.772821 0
M  V30 13610 C 1236.4 -4.2925 0.0652679 0
M  V30 13611 C 1235.63 -5.2796 -0.78064 0
M  V30 13612 O 1235.85 -5.33474 -2.01896 0
M  V30 13613 O 1234.79 -6.01556 -0.20338 0
M  V30 13614 H 1238.61 -2.89937 0.903887 0
M  V30 13615 H 1236.2 -1.40536 0.506958 0
M  V30 13616 H 1238.08 -4.01468 -1.28068 0
M  V30 13617 H 1236.76 -2.84723 -1.53994 0
M  V30 13618 H 1235.66 -3.68945 0.61891 0
M  V30 13619 H 1237 -4.85739 0.794871 0
M  V30 13620 N 1238.65 -0.49465 -1.49636 0
M  V30 13621 C 1239.59 0.287153 -2.29007 0
M  V30 13622 C 1240.56 0.966099 -1.35114 0
M  V30 13623 O 1241.75 0.973991 -1.64067 0
M  V30 13624 C 1238.89 1.34941 -3.17624 0
M  V30 13625 C 1238 0.682879 -4.26569 0
M  V30 13626 C 1237.14 1.72503 -5.0241 0
M  V30 13627 C 1236.18 1.04003 -6.032 0
M  V30 13628 N 1235.31 2.0261 -6.7223 0
M  V30 13629 H 1240.15 -0.395941 -2.95358 0
M  V30 13630 H 1237.69 -0.207103 -1.45635 0
M  V30 13631 H 1239.65 1.9772 -3.67372 0
M  V30 13632 H 1238.28 2.00135 -2.5327 0
M  V30 13633 H 1237.33 -0.0580477 -3.80356 0
M  V30 13634 H 1238.64 0.143334 -4.98594 0
M  V30 13635 H 1237.8 2.42804 -5.55996 0
M  V30 13636 H 1236.54 2.29843 -4.30144 0
M  V30 13637 H 1235.54 0.322765 -5.48852 0
M  V30 13638 H 1236.77 0.473219 -6.77449 0
M  V30 13639 H 1234.71 2.58922 -6.0274 0
M  V30 13640 H 1234.63 1.53704 -7.4021 0
M  V30 13641 H 1235.9 2.72218 -7.30423 0
M  V30 13642 N 1240.13 1.55939 -0.228214 0
M  V30 13643 C 1241.09 2.1932 0.665681 0
M  V30 13644 C 1242.09 1.15699 1.11671 0
M  V30 13645 O 1243.28 1.40893 1.02444 0
M  V30 13646 C 1240.41 2.82185 1.9127 0
M  V30 13647 H 1241.6 2.99687 0.112986 0
M  V30 13648 H 1239.16 1.56285 0.0213865 0
M  V30 13649 H 1239.89 2.05706 2.5071 0
M  V30 13650 H 1239.68 3.58073 1.5977 0
M  V30 13651 H 1241.17 3.30748 2.54942 0
M  V30 13652 N 1241.6 -0.0451101 1.57535 0
M  V30 13653 C 1242.57 -1.03521 2.0449 0
M  V30 13654 C 1243.57 -1.30009 0.946265 0
M  V30 13655 O 1244.76 -1.25282 1.21038 0
M  V30 13656 C 1241.89 -2.37221 2.44824 0
M  V30 13657 H 1243.08 -0.629943 2.93209 0
M  V30 13658 H 1240.64 -0.291544 1.53557 0
M  V30 13659 H 1241.37 -2.82528 1.59212 0
M  V30 13660 H 1241.16 -2.19329 3.25018 0
M  V30 13661 H 1242.65 -3.08337 2.81635 0
M  V30 13662 N 1243.08 -1.54377 -0.317073 0
M  V30 13663 C 1243.99 -1.87247 -1.41335 0
M  V30 13664 C 1245.01 -0.765017 -1.5628 0
M  V30 13665 O 1246.18 -1.05994 -1.71252 0
M  V30 13666 C 1243.25 -2.0988 -2.75955 0
M  V30 13667 C 1242.31 -3.33658 -2.70131 0
M  V30 13668 C 1241.54 -3.55202 -3.9833 0
M  V30 13669 O 1241.77 -2.80061 -4.96913 0
M  V30 13670 O 1240.7 -4.48693 -4.01196 0
M  V30 13671 H 1244.53 -2.80481 -1.16465 0
M  V30 13672 H 1242.11 -1.40364 -0.511687 0
M  V30 13673 H 1243.99 -2.2606 -3.55633 0
M  V30 13674 H 1242.67 -1.19834 -3.00702 0
M  V30 13675 H 1241.58 -3.22857 -1.88981 0
M  V30 13676 H 1242.91 -4.23782 -2.50338 0
M  V30 13677 N 1244.56 0.579466 -1.4656 0
M  V30 13678 C 1245.84 1.33973 -1.42515 0
M  V30 13679 C 1246.22 2.10812 -0.110317 0
M  V30 13680 O 1245.57 2.09679 0.908135 0
M  V30 13681 C 1245.78 2.26301 -2.65686 0
M  V30 13682 C 1247.12 2.88027 -3.1197 0
M  V30 13683 O 1248.15 2.36612 -2.66257 0
M  V30 13684 O 1247.01 3.81423 -3.9138 0
M  V30 13685 H 1244.1 0.602121 -0.566903 0
M  V30 13686 H 1246.65 0.600214 -1.58731 0
M  V30 13687 H 1245.42 1.68973 -3.52936 0
M  V30 13688 H 1245.04 3.07586 -2.51945 0
M  V30 13689 N 1246.04 1.3432 0.824371 0
M  V30 13690 C 1247.26 1.2982 1.61745 0
M  V30 13691 C 1247.69 -0.125298 1.87682 0
M  V30 13692 O 1247.05 -1.08658 1.45131 0
M  V30 13693 C 1247.09 2.09327 2.93623 0
M  V30 13694 O 1246.2 1.4618 3.85623 0
M  V30 13695 H 1245.54 0.445929 0.491979 0
M  V30 13696 H 1248.07 1.77101 1.02452 0
M  V30 13697 H 1248.08 2.20629 3.43201 0
M  V30 13698 H 1246.75 3.12825 2.74069 0
M  V30 13699 H 1245.33 1.43611 3.44137 0
M  V30 13700 N 1247.52 -1.0444 1.18026 0
M  V30 13701 C 1248.76 -1.77224 0.971391 0
M  V30 13702 C 1249.09 -1.88466 -0.500564 0
M  V30 13703 O 1248.36 -1.40692 -1.36317 0
M  V30 13704 H 1246.94 -0.656485 0.356422 0
M  V30 13705 H 1249.6 -1.26064 1.4864 0
M  V30 13706 H 1248.69 -2.78626 1.4062 0
M  V30 13707 N 1248.99 -0.981699 -1.2329 0
M  V30 13708 C 1250.24 -0.650015 -1.91361 0
M  V30 13709 C 1250.56 0.819184 -1.76959 0
M  V30 13710 O 1249.83 1.5861 -1.14977 0
M  V30 13711 H 1248.41 -0.237427 -0.708264 0
M  V30 13712 H 1251.08 -1.24579 -1.49887 0
M  V30 13713 H 1250.17 -0.902772 -2.98758 0
M  V30 13714 N 1250.47 1.3842 -0.753509 0
M  V30 13715 C 1251.72 1.99723 -0.309021 0
M  V30 13716 C 1252.04 1.60111 1.11308 0
M  V30 13717 O 1251.31 0.85792 1.76115 0
M  V30 13718 H 1249.89 0.738667 -0.111266 0
M  V30 13719 H 1252.55 1.69186 -0.967586 0
M  V30 13720 H 1251.65 3.09874 -0.372095 0
M  V30 13721 N 1251.95 0.502579 1.49372 0
M  V30 13722 C 1253.23 -0.104472 1.95321 0
M  V30 13723 C 1253.61 -1.53975 1.44412 0
M  V30 13724 O 1252.96 -2.18804 0.658566 0
M  V30 13725 C 1253.17 -0.0154833 3.48997 0
M  V30 13726 C 1254.51 -0.188615 4.24181 0
M  V30 13727 O 1255.54 -0.090595 3.56085 0
M  V30 13728 O 1254.4 -0.390068 5.45106 0
M  V30 13729 H 1251.49 -0.0944325 0.821591 0
M  V30 13730 H 1254.04 0.565229 1.6001 0
M  V30 13731 H 1252.81 0.985383 3.7869 0
M  V30 13732 H 1252.43 -0.72526 3.90929 0
M  V30 13733 N 1253.43 -1.55816 0.23648 0
M  V30 13734 C 1254.71 -1.90565 -0.440933 0
M  V30 13735 C 1255.09 -1.15585 -1.76645 0
M  V30 13736 O 1254.43 -0.269949 -2.269 0
M  V30 13737 C 1254.64 -3.43462 -0.61925 0
M  V30 13738 C 1255.99 -4.14516 -0.91989 0
M  V30 13739 O 1257.02 -3.49144 -0.705496 0
M  V30 13740 O 1255.87 -5.3013 -1.32759 0
M  V30 13741 H 1252.97 -0.79285 -0.235199 0
M  V30 13742 H 1255.51 -1.67378 0.279774 0
M  V30 13743 H 1254.29 -3.90029 0.315124 0
M  V30 13744 H 1253.91 -3.72478 -1.39089 0
M  V30 13745 N 1254.91 0.036755 -1.57557 0
M  V30 13746 C 1255.85 1.03975 -2.06053 0
M  V30 13747 C 1256.82 1.36384 -0.948089 0
M  V30 13748 O 1258.01 1.46853 -1.21815 0
M  V30 13749 C 1255.15 2.33796 -2.53837 0
M  V30 13750 C 1254.26 2.07614 -3.78841 0
M  V30 13751 C 1253.4 3.3125 -4.15267 0
M  V30 13752 C 1252.44 3.00587 -5.33211 0
M  V30 13753 N 1251.57 4.16653 -5.65106 0
M  V30 13754 H 1256.41 0.61924 -2.91495 0
M  V30 13755 H 1253.95 0.294151 -1.44129 0
M  V30 13756 H 1255.91 3.09639 -2.79606 0
M  V30 13757 H 1254.54 2.73584 -1.71323 0
M  V30 13758 H 1253.59 1.22302 -3.60203 0
M  V30 13759 H 1254.9 1.80989 -4.64806 0
M  V30 13760 H 1254.06 4.15466 -4.42123 0
M  V30 13761 H 1252.79 3.60981 -3.27939 0
M  V30 13762 H 1251.8 2.14772 -5.06115 0
M  V30 13763 H 1253.02 2.72142 -6.22186 0
M  V30 13764 H 1250.97 4.4635 -4.80737 0
M  V30 13765 H 1250.89 3.93425 -6.45564 0
M  V30 13766 H 1252.16 5.01764 -5.96534 0
M  V30 13767 N 1256.39 1.54543 0.308881 0
M  V30 13768 C 1257.33 1.84949 1.38067 0
M  V30 13769 C 1258.3 0.697746 1.50734 0
M  V30 13770 O 1259.49 0.94561 1.65719 0
M  V30 13771 C 1256.63 2.09544 2.74199 0
M  V30 13772 C 1255.74 3.37193 2.70046 0
M  V30 13773 C 1254.88 3.51672 3.98121 0
M  V30 13774 C 1253.91 4.73143 3.88333 0
M  V30 13775 N 1253.05 4.84469 5.08167 0
M  V30 13776 H 1257.89 2.76379 1.11438 0
M  V30 13777 H 1255.43 1.36863 0.539153 0
M  V30 13778 H 1257.39 2.21798 3.53358 0
M  V30 13779 H 1256.02 1.21389 2.99106 0
M  V30 13780 H 1255.07 3.33601 1.82796 0
M  V30 13781 H 1256.38 4.26468 2.58701 0
M  V30 13782 H 1255.53 3.63548 4.85714 0
M  V30 13783 H 1254.27 2.60516 4.1229 0
M  V30 13784 H 1253.28 4.61308 2.99124 0
M  V30 13785 H 1254.5 5.65698 3.75716 0
M  V30 13786 H 1252.45 3.96234 5.22814 0
M  V30 13787 H 1252.37 5.67733 4.99215 0
M  V30 13788 H 1253.63 5.00693 5.97434 0
M  V30 13789 N 1257.86 -0.571685 1.46866 0
M  V30 13790 C 1259.09 -1.36008 1.56578 0
M  V30 13791 C 1259.51 -1.86909 0.211326 0
M  V30 13792 O 1258.87 -1.62179 -0.810421 0
M  V30 13793 C 1258.92 -2.51598 2.58323 0
M  V30 13794 O 1258.02 -3.53383 2.1259 0
M  V30 13795 H 1257.36 -0.404593 0.526498 0
M  V30 13796 H 1259.89 -0.692357 1.92529 0
M  V30 13797 H 1259.9 -2.98366 2.78283 0
M  V30 13798 H 1258.58 -2.13904 3.56676 0
M  V30 13799 H 1257.16 -3.13019 2.02666 0
M  V30 13800 N 1259.34 -1.34755 -0.817236 0
M  V30 13801 C 1260.29 -1.26801 -1.92848 0
M  V30 13802 C 1261.26 -0.142077 -1.65491 0
M  V30 13803 O 1262.44 -0.324006 -1.88029 0
M  V30 13804 C 1259.58 -1.03513 -3.2921 0
M  V30 13805 C 1258.7 -2.24932 -3.68822 0
M  V30 13806 C 1257.83 -1.94881 -4.94161 0
M  V30 13807 C 1256.87 -3.12411 -5.2637 0
M  V30 13808 N 1256.01 -2.82207 -6.42887 0
M  V30 13809 H 1260.85 -2.21832 -1.98983 0
M  V30 13810 H 1258.38 -1.10284 -0.973439 0
M  V30 13811 H 1260.34 -0.88047 -4.07803 0
M  V30 13812 H 1258.97 -0.121478 -3.22571 0
M  V30 13813 H 1258.02 -2.51299 -2.85575 0
M  V30 13814 H 1259.34 -3.12726 -3.88592 0
M  V30 13815 H 1258.49 -1.76184 -5.80555 0
M  V30 13816 H 1257.23 -1.04355 -4.76405 0
M  V30 13817 H 1256.23 -3.31698 -4.3847 0
M  V30 13818 H 1257.46 -4.03724 -5.46062 0
M  V30 13819 H 1255.41 -1.94263 -6.26576 0
M  V30 13820 H 1255.32 -3.63534 -6.62857 0
M  V30 13821 H 1256.59 -2.67026 -7.32337 0
M  V30 13822 N 1260.82 1.03812 -1.18578 0
M  V30 13823 C 1262.05 1.80702 -1.00769 0
M  V30 13824 C 1262.46 1.83509 0.443833 0
M  V30 13825 O 1261.82 1.2724 1.30829 0
M  V30 13826 C 1261.87 3.26185 -1.55838 0
M  V30 13827 O 1261.59 3.23612 -2.95308 0
M  V30 13828 C 1263.09 4.1971 -1.42682 0
M  V30 13829 H 1260.31 0.568972 -0.355685 0
M  V30 13830 H 1262.86 1.30817 -1.57185 0
M  V30 13831 H 1261.01 3.73293 -1.03592 0
M  V30 13832 H 1261.43 4.14769 -3.2104 0
M  V30 13833 H 1262.9 5.19716 -1.86008 0
M  V30 13834 H 1263.38 4.37588 -0.375924 0
M  V30 13835 H 1263.98 3.78469 -1.94013 0
M  V30 13836 N 1262.3 0.988223 1.22768 0
M  V30 13837 C 1263.54 0.669599 1.93121 0
M  V30 13838 C 1263.9 -0.783331 1.75294 0
M  V30 13839 O 1265.1 -1.21315 2.39867 0
M  V30 13840 C 1263.37 1.05876 3.41358 0
M  V30 13841 S 1264.93 0.857797 4.30334 0
M  V30 13842 H 1261.75 0.244972 0.667465 0
M  V30 13843 H 1264.35 1.26952 1.48673 0
M  V30 13844 H 1263.06 2.11267 3.51844 0
M  V30 13845 H 1262.59 0.450453 3.90813 0
M  V30 13846 H 1264.6 -0.254171 4.95549 0
M  V30 13847 N 1263.78 -1.38018 0.760839 0
M  V30 13848 C 1264.71 -2.32995 0.153557 0
M  V30 13849 C 1265.69 -1.55234 -0.695448 0
M  V30 13850 O 1266.87 -1.8352 -0.635148 0
M  V30 13851 C 1264 -3.39437 -0.734811 0
M  V30 13852 C 1262.96 -4.27998 0.0120287 0
M  V30 13853 C 1262.28 -5.25359 -0.995067 0
M  V30 13854 C 1263.58 -5.08687 1.18468 0
M  V30 13855 H 1265.28 -2.8403 0.946956 0
M  V30 13856 H 1262.82 -1.36562 0.456816 0
M  V30 13857 H 1264.77 -4.0485 -1.16938 0
M  V30 13858 H 1263.5 -2.86901 -1.56061 0
M  V30 13859 H 1262.16 -3.64102 0.427254 0
M  V30 13860 H 1261.81 -4.69108 -1.81512 0
M  V30 13861 H 1261.51 -5.85469 -0.499969 0
M  V30 13862 H 1263.03 -5.93648 -1.4288 0
M  V30 13863 H 1264.44 -5.67299 0.8273 0
M  V30 13864 H 1262.84 -5.78068 1.61112 0
M  V30 13865 H 1263.91 -4.42 1.99409 0
M  V30 13866 N 1265.25 -0.510493 -1.49103 0
M  V30 13867 C 1266.19 0.309697 -2.26089 0
M  V30 13868 C 1267.16 0.962061 -1.31084 0
M  V30 13869 O 1268.35 0.990296 -1.60391 0
M  V30 13870 C 1265.48 1.43693 -3.06708 0
M  V30 13871 C 1264.52 0.897978 -4.1694 0
M  V30 13872 S 1265.35 -0.218781 -5.35053 0
M  V30 13873 C 1266.51 0.911396 -6.19229 0
M  V30 13874 H 1266.74 -0.343702 -2.95307 0
M  V30 13875 H 1264.28 -0.295944 -1.51537 0
M  V30 13876 H 1266.23 2.08277 -3.53739 0
M  V30 13877 H 1264.9 2.06198 -2.36941 0
M  V30 13878 H 1264.09 1.74303 -4.729 0
M  V30 13879 H 1263.69 0.329192 -3.72548 0
M  V30 13880 H 1265.98 1.8145 -6.5275 0
M  V30 13881 H 1266.93 0.390201 -7.07024 0
M  V30 13882 H 1267.33 1.18301 -5.51965 0
M  V30 13883 N 1266.73 1.55688 -0.24474 0
M  V30 13884 C 1267.66 2.24272 0.64995 0
M  V30 13885 C 1268.64 1.22226 1.183 0
M  V30 13886 O 1269.83 1.50873 1.22274 0
M  V30 13887 C 1266.96 2.94053 1.84798 0
M  V30 13888 C 1265.91 4.02769 1.44779 0
M  V30 13889 C 1265.24 4.59965 2.72647 0
M  V30 13890 C 1266.54 5.18601 0.62047 0
M  V30 13891 H 1268.23 2.99298 0.0780654 0
M  V30 13892 H 1265.78 1.43955 0.0361069 0
M  V30 13893 H 1267.73 3.40732 2.47951 0
M  V30 13894 H 1266.45 2.16511 2.44521 0
M  V30 13895 H 1265.11 3.56856 0.839609 0
M  V30 13896 H 1264.76 3.79126 3.30564 0
M  V30 13897 H 1264.46 5.33352 2.46596 0
M  V30 13898 H 1265.99 5.09376 3.36703 0
M  V30 13899 H 1267.4 5.61519 1.15625 0
M  V30 13900 H 1265.8 5.98364 0.456097 0
M  V30 13901 H 1266.87 4.83503 -0.367798 0
M  V30 13902 O 1268.25 0.109283 1.6113 0
M  V30 13903 H 1268.94 -0.490999 1.87374 0
M  V30 END ATOM
M  V30 BEGIN BOND
M  V30 END BOND
M  V30 END CTAB
M  END
$$$$
