drugbank_target|P25789 Proteasome subunit alpha type-4 (DB08515)
 OpenBabel12092120433D

  0  0  0     0  0            999 V3000
M  V30 BEGIN CTAB
M  V30 COUNTS 4168 4198 0 0 0
M  V30 BEGIN ATOM
M  V30 1 H -0.908 1.98254 -0.117106 0
M  V30 2 N 0 1.576 0 0
M  V30 3 C 0.933 2.03868 1.02534 0
M  V30 4 C 1.911 0.928543 1.3348 0
M  V30 5 O 3.095 1.19667 1.45644 0
M  V30 6 C 0.222 2.43627 2.35294 0
M  V30 7 C -0.732 3.65373 2.2001 0
M  V30 8 S 0.101 5.13292 1.52614 0
M  V30 9 C 1.257 5.56322 2.86805 0
M  V30 10 H 1.49 2.90518 0.631377 0
M  V30 11 H -0.977 1.52953 0.210867 0
M  V30 12 H 0.981 2.67203 3.11629 0
M  V30 13 H -0.358 1.57376 2.7183 0
M  V30 14 H -1.165 3.90944 3.18086 0
M  V30 15 H -1.563 3.418 1.51819 0
M  V30 16 H 0.729 5.58782 3.83104 0
M  V30 17 H 1.672 6.56266 2.65933 0
M  V30 18 H 2.08 4.83886 2.90714 0
M  V30 19 N 1.4781 -0.272755 1.55222 0
M  V30 20 C 2.7031 -1.02683 1.80197 0
M  V30 21 C 3.1281 -1.79142 0.573551 0
M  V30 22 O 2.4861 -1.74917 -0.476849 0
M  V30 23 C 2.5341 -1.9609 3.02624 0
M  V30 24 O 1.6381 -3.04863 2.77727 0
M  V30 25 H 0.9791 -0.293557 0.595584 0
M  V30 26 H 3.5091 -0.30159 2.02365 0
M  V30 27 H 3.5191 -2.38039 3.31363 0
M  V30 28 H 2.1941 -1.39851 3.91682 0
M  V30 29 H 0.7711 -2.67228 2.60084 0
M  V30 30 N 2.9562 -1.48159 -0.537278 0
M  V30 31 C 4.3722 -1.34118 -0.865129 0
M  V30 32 C 4.5722 -0.346678 -1.98495 0
M  V30 33 O 3.6282 0.234715 -2.51407 0
M  V30 34 C 4.9412 -2.73963 -1.23954 0
M  V30 35 C 6.4892 -2.82397 -1.34984 0
M  V30 36 C 6.9642 -4.22928 -1.75772 0
M  V30 37 N 8.4552 -4.25566 -1.82887 0
M  V30 38 C 9.1902 -5.31235 -2.15817 0
M  V30 39 N 8.6862 -6.47189 -2.47222 0
M  V30 40 N 10.4792 -5.18624 -2.16761 0
M  V30 41 H 2.6302 -2.1144 0.201715 0
M  V30 42 H 4.8932 -0.947598 0.0275949 0
M  V30 43 H 4.5992 -3.48264 -0.490381 0
M  V30 44 H 4.4732 -3.0702 -2.19132 0
M  V30 45 H 6.8602 -2.08356 -2.08978 0
M  V30 46 H 6.9412 -2.5297 -0.379448 0
M  V30 47 H 6.5852 -4.97482 -1.02341 0
M  V30 48 H 6.5152 -4.49794 -2.73848 0
M  V30 49 H 9.0062 -3.41924 -1.60924 0
M  V30 50 H 9.3192 -7.23564 -2.71433 0
M  V30 51 H 7.6642 -6.50476 -2.44757 0
M  V30 52 H 10.8552 -4.27056 -1.91679 0
M  V30 53 H 11.0282 -6.01078 -2.42093 0
M  V30 54 N 4.4343 0.785586 -1.36625 0
M  V30 55 C 5.8503 1.08419 -1.17122 0
M  V30 56 C 6.0503 2.015 0.00208491 0
M  V30 57 O 5.1063 2.43551 0.666278 0
M  V30 58 C 6.4193 1.69498 -2.48377 0
M  V30 59 C 7.9673 1.81821 -2.54775 0
M  V30 60 C 8.4423 2.46315 -3.86126 0
M  V30 61 N 9.9333 2.53779 -3.87492 0
M  V30 62 C 10.6683 3.045 -4.85868 0
M  V30 63 N 10.1643 3.55499 -5.94637 0
M  V30 64 N 11.9573 3.03247 -4.73284 0
M  V30 65 H 4.1083 0.167264 -2.1174 0
M  V30 66 H 6.3713 0.13682 -0.938075 0
M  V30 67 H 6.0773 1.08571 -3.34522 0
M  V30 68 H 5.9513 2.6896 -2.64462 0
M  V30 69 H 8.3383 2.41884 -1.69045 0
M  V30 70 H 8.4193 0.811532 -2.42586 0
M  V30 71 H 8.0633 1.86895 -4.72263 0
M  V30 72 H 7.9933 3.47561 -3.95612 0
M  V30 73 H 10.4843 2.17672 -3.08913 0
M  V30 74 H 10.7973 3.92562 -6.65669 0
M  V30 75 H 9.1423 3.5364 -5.98301 0
M  V30 76 H 12.3333 2.62696 -3.87438 0
M  V30 77 H 12.5063 3.42467 -5.50109 0
M  V30 78 N 5.9124 1.20967 1.01018 0
M  V30 79 C 7.1424 1.04803 1.78044 0
M  V30 80 C 7.5504 -0.405462 1.84804 0
M  V30 81 O 6.8934 -1.2932 1.30468 0
M  V30 82 C 6.9554 1.56377 3.23707 0
M  V30 83 C 6.6194 3.04767 3.40538 0
M  V30 84 C 7.6164 4.02366 3.29239 0
M  V30 85 C 5.3014 3.43862 3.66147 0
M  V30 86 C 7.2954 5.37049 3.43304 0
M  V30 87 C 4.9824 4.78699 3.79855 0
M  V30 88 C 5.9804 5.75101 3.68439 0
M  V30 89 O 5.6684 7.07493 3.81719 0
M  V30 90 H 5.4004 0.368778 0.56655 0
M  V30 91 H 7.9544 1.60642 1.27997 0
M  V30 92 H 6.1844 0.949297 3.74867 0
M  V30 93 H 7.8734 1.36136 3.8239 0
M  V30 94 H 8.6394 3.73506 3.09384 0
M  V30 95 H 4.5184 2.69364 3.74118 0
M  V30 96 H 8.0624 6.12277 3.34309 0
M  V30 97 H 3.9594 5.07247 3.99213 0
M  V30 98 H 4.7274 7.1483 3.98697 0
M  V30 99 N 7.3905 -1.2043 1.01659 0
M  V30 100 C 8.6675 -1.8548 0.621004 0
M  V30 101 C 9.0475 -1.9091 -0.900919 0
M  V30 102 O 8.3955 -1.41694 -1.79263 0
M  V30 103 C 8.6055 -3.25119 1.2688 0
M  V30 104 C 9.9535 -4.01403 1.38423 0
M  V30 105 O 10.9775 -3.34473 1.22501 0
M  V30 106 O 9.8365 -5.21265 1.64151 0
M  V30 107 H 6.9305 -0.798761 0.214266 0
M  V30 108 H 9.4765 -1.28019 1.11396 0
M  V30 109 H 8.2485 -3.15932 2.30873 0
M  V30 110 H 7.8715 -3.90212 0.762917 0
M  V30 111 N 8.8686 -0.792821 -1.36206 0
M  V30 112 C 10.0936 -0.377701 -2.03932 0
M  V30 113 C 10.5186 0.998947 -1.59382 0
M  V30 114 O 9.8766 1.64421 -0.763903 0
M  V30 115 C 9.9246 -0.453635 -3.57735 0
M  V30 116 O 9.0286 0.538151 -4.08874 0
M  V30 117 H 8.3696 -0.159855 -0.644471 0
M  V30 118 H 10.8996 -1.07488 -1.7409 0
M  V30 119 H 10.9096 -0.318464 -4.06755 0
M  V30 120 H 9.5846 -1.45784 -3.89512 0
M  V30 121 H 8.1616 0.364359 -3.71116 0
M  V30 122 N 10.3467 1.47872 -0.545128 0
M  V30 123 C 11.7627 1.5829 -0.204032 0
M  V30 124 C 11.9627 1.54529 1.29317 0
M  V30 125 O 11.0187 1.44232 2.07252 0
M  V30 126 C 12.3317 2.89304 -0.819987 0
M  V30 127 C 13.8797 3.02864 -0.790105 0
M  V30 128 C 14.3547 4.3656 -1.38491 0
M  V30 129 N 15.8457 4.43165 -1.34755 0
M  V30 130 C 16.5807 5.45153 -1.77753 0
M  V30 131 N 16.0767 6.54016 -2.2855 0
M  V30 132 N 17.8697 5.36125 -1.68897 0
M  V30 133 H 10.0207 1.4856 -1.51802 0
M  V30 134 H 12.2837 0.706305 -0.632327 0
M  V30 135 H 11.9897 2.97757 -1.87173 0
M  V30 136 H 11.8637 3.75957 -0.305915 0
M  V30 137 H 14.2507 2.94014 0.252913 0
M  V30 138 H 14.3317 2.17782 -1.34181 0
M  V30 139 H 13.9757 4.46164 -2.42693 0
M  V30 140 H 13.9057 5.20353 -0.808754 0
M  V30 141 H 16.3967 3.65083 -0.975855 0
M  V30 142 H 16.7097 7.27994 -2.59314 0
M  V30 143 H 15.0547 6.54938 -2.32553 0
M  V30 144 H 18.2457 4.49975 -1.28998 0
M  V30 145 H 18.4187 6.15472 -2.02726 0
M  V30 146 N 11.8248 0.280983 1.55075 0
M  V30 147 C 13.0528 -0.337293 2.04132 0
M  V30 148 C 13.4678 -1.4903 1.15912 0
M  V30 149 O 12.8248 -1.81606 0.180459 0
M  V30 150 C 12.8758 -0.812706 3.52246 0
M  V30 151 O 12.5968 0.294387 4.3711 0
M  V30 152 C 14.0978 -1.4982 4.17216 0
M  V30 153 H 11.3178 -0.0761638 0.666663 0
M  V30 154 H 13.8618 0.414787 2.00249 0
M  V30 155 H 12.0168 -1.51486 3.56554 0
M  V30 156 H 12.4308 -0.0721325 5.2445 0
M  V30 157 H 13.9048 -1.7822 5.22438 0
M  V30 158 H 14.3818 -2.43168 3.65741 0
M  V30 159 H 14.9878 -0.839742 4.16927 0
M  V30 160 N 13.3029 -1.57598 0.00835791 0
M  V30 161 C 14.5309 -1.95214 -0.68549 0
M  V30 162 C 14.9459 -0.883706 -1.66841 0
M  V30 163 O 14.3029 0.136565 -1.81988 0
M  V30 164 C 14.3539 -3.32865 -1.41007 0
M  V30 165 O 14.0749 -4.35609 -0.466552 0
M  V30 166 C 15.5759 -3.84991 -2.19765 0
M  V30 167 H 12.7959 -0.643422 -0.190392 0
M  V30 168 H 15.3399 -2.04406 0.0619607 0
M  V30 169 H 13.4949 -3.24956 -2.10908 0
M  V30 170 H 13.9089 -5.15288 -0.978699 0
M  V30 171 H 15.3829 -4.8371 -2.65948 0
M  V30 172 H 15.8599 -3.18137 -3.02796 0
M  V30 173 H 16.4659 -3.96103 -1.54864 0
M  V30 174 N 14.781 0.264519 -1.55364 0
M  V30 175 C 16.03 0.992812 -1.75574 0
M  V30 176 C 16.343 1.87142 -0.568979 0
M  V30 177 O 17.549 2.63513 -0.653682 0
M  V30 178 C 16.005 1.81519 -3.10771 0
M  V30 179 C 15.613 0.984839 -4.37041 0
M  V30 180 C 17.357 2.53727 -3.40327 0
M  V30 181 C 15.264 1.80209 -5.63275 0
M  V30 182 H 14.194 0.374412 -0.65447 0
M  V30 183 H 16.845 0.248138 -1.81815 0
M  V30 184 H 15.227 2.60115 -2.98591 0
M  V30 185 H 16.401 0.242455 -4.60162 0
M  V30 186 H 14.716 0.37691 -4.14691 0
M  V30 187 H 17.313 3.15292 -4.3185 0
M  V30 188 H 17.656 3.24447 -2.60845 0
M  V30 189 H 18.189 1.82156 -3.53644 0
M  V30 190 H 14.928 1.13896 -6.45529 0
M  V30 191 H 14.448 2.52022 -5.44284 0
M  V30 192 H 16.127 2.37364 -6.01887 0
M  V30 193 N 16.2591 1.48442 0.529413 0
M  V30 194 C 17.5061 1.56488 1.28521 0
M  V30 195 C 17.8341 0.239042 1.93025 0
M  V30 196 O 17.0891 -0.770713 1.79885 0
M  V30 197 C 17.3881 2.6523 2.39558 0
M  V30 198 C 17.0541 4.07648 1.92702 0
M  V30 199 C 15.7161 4.46411 1.79641 0
M  V30 200 C 18.0681 4.96896 1.573 0
M  V30 201 C 15.3961 5.72226 1.29514 0
M  V30 202 C 17.7481 6.23202 1.08636 0
M  V30 203 C 16.4121 6.60821 0.941919 0
M  V30 204 H 15.6821 0.572631 0.470292 0
M  V30 205 H 18.3291 1.82161 0.59072 0
M  V30 206 H 16.6341 2.33419 3.14679 0
M  V30 207 H 18.3311 2.68671 2.97686 0
M  V30 208 H 14.9211 3.77036 2.03819 0
M  V30 209 H 19.1051 4.67626 1.66251 0
M  V30 210 H 14.3611 6.00097 1.17019 0
M  V30 211 H 18.5351 6.91753 0.803136 0
M  V30 212 H 16.1621 7.58198 0.5513 0
M  V30 213 N 17.7372 -0.778329 1.37039 0
M  V30 214 C 18.9622 -1.57248 1.35233 0
M  V30 215 C 19.3872 -1.87999 -0.0615568 0
M  V30 216 O 18.7452 -1.48734 -1.03672 0
M  V30 217 C 18.7932 -2.86353 2.19167 0
M  V30 218 O 17.8972 -3.80442 1.59178 0
M  V30 219 H 17.2382 -0.476569 0.462362 0
M  V30 220 H 19.7682 -0.963853 1.80474 0
M  V30 221 H 19.7782 -3.35519 2.32145 0
M  V30 222 H 18.4532 -2.63299 3.21942 0
M  V30 223 H 17.0302 -3.39067 1.55203 0
M  V30 224 N 19.2153 -1.21501 -1.00376 0
M  V30 225 C 20.6263 -1.03146 -1.55621 0
M  V30 226 C 20.9773 0.408375 -1.91903 0
M  V30 227 O 20.1023 1.29177 -1.73616 0
M  V30 228 C 20.6973 -1.86612 -2.82775 0
M  V30 229 C 19.2563 -1.72586 -3.34501 0
M  V30 230 C 18.4033 -1.83747 -2.07683 0
M  V30 231 H 21.3543 -1.35505 -0.826081 0
M  V30 232 H 21.3753 -1.3771 -3.54706 0
M  V30 233 H 20.8873 -2.91399 -2.56336 0
M  V30 234 H 18.9883 -0.704877 -3.65872 0
M  V30 235 H 19.1013 -2.54623 -4.05837 0
M  V30 236 H 17.4653 -1.27069 -2.20739 0
M  V30 237 H 18.2483 -2.90044 -1.83655 0
M  V30 238 N 20.6934 1.19889 -1.02296 0
M  V30 239 C 21.6034 2.26571 -0.608508 0
M  V30 240 C 22.6194 1.70299 0.356964 0
M  V30 241 O 23.7954 2.00235 0.216326 0
M  V30 242 C 20.8604 3.46677 0.0402814 0
M  V30 243 C 19.9214 4.18153 -0.97194 0
M  V30 244 C 19.1544 5.32525 -0.354016 0
M  V30 245 O 19.3774 5.64112 0.844604 0
M  V30 246 O 18.3114 5.92242 -1.07391 0
M  V30 247 H 22.1374 2.64251 -1.49684 0
M  V30 248 H 19.7224 1.26629 -0.792809 0
M  V30 249 H 21.6044 4.19475 0.402324 0
M  V30 250 H 20.2794 3.10858 0.902707 0
M  V30 251 H 19.1864 3.47499 -1.38546 0
M  V30 252 H 20.5194 4.57927 -1.80454 0
M  V30 253 N 22.1715 0.800033 1.35784 0
M  V30 254 C 23.4195 0.376597 1.9856 0
M  V30 255 C 23.7405 -1.05812 1.63795 0
M  V30 256 O 23.0105 -1.73103 0.917171 0
M  V30 257 H 21.5905 0.136261 0.734467 0
M  V30 258 H 24.2525 1.02442 1.65806 0
M  V30 259 H 23.3485 0.477002 3.08433 0
M  V30 260 N 23.6496 -1.47581 0.552962 0
M  V30 261 C 25.0656 -1.5818 0.212424 0
M  V30 262 C 25.2656 -1.55213 -1.28496 0
M  V30 263 O 24.3216 -1.45329 -2.06484 0
M  V30 264 C 25.6346 -2.88865 0.835318 0
M  V30 265 C 27.1826 -3.0244 0.806156 0
M  V30 266 C 27.6576 -4.35819 1.40804 0
M  V30 267 N 29.1486 -4.42444 1.37103 0
M  V30 268 C 29.8836 -5.44202 1.80641 0
M  V30 269 N 29.3796 -6.52795 2.32015 0
M  V30 270 N 31.1726 -5.35222 1.71738 0
M  V30 271 H 23.3236 -1.47753 1.52587 0
M  V30 272 H 25.5866 -0.702941 0.636064 0
M  V30 273 H 25.2926 -2.9676 1.88749 0
M  V30 274 H 25.1666 -3.7579 0.325848 0
M  V30 275 H 27.5536 -2.94144 -0.237317 0
M  V30 276 H 27.6346 -2.17068 1.35334 0
M  V30 277 H 27.2786 -4.44871 2.45056 0
M  V30 278 H 27.2086 -5.19916 0.836338 0
M  V30 279 H 29.6996 -3.6456 0.995202 0
M  V30 280 H 30.0126 -7.26609 2.63171 0
M  V30 281 H 28.3576 -6.53696 2.36023 0
M  V30 282 H 31.5486 -4.49284 1.31382 0
M  V30 283 H 31.7216 -6.14389 2.05987 0
M  V30 284 N 25.1277 -0.289203 -1.54924 0
M  V30 285 C 26.0577 0.58549 -2.2604 0
M  V30 286 C 27.0387 1.14753 -1.25562 0
M  V30 287 O 28.2237 1.17906 -1.54311 0
M  V30 288 C 25.3537 1.76305 -2.99222 0
M  V30 289 C 24.3077 1.33191 -4.06748 0
M  V30 290 C 23.6337 2.5937 -4.6758 0
M  V30 291 C 24.9337 0.471775 -5.20165 0
M  V30 292 H 26.6277 -0.00763532 -2.99399 0
M  V30 293 H 24.1737 -0.00511229 -1.43999 0
M  V30 294 H 26.1267 2.38097 -3.47689 0
M  V30 295 H 24.8507 2.38223 -2.23422 0
M  V30 296 H 23.5097 0.737121 -3.59113 0
M  V30 297 H 23.1577 3.19576 -3.88433 0
M  V30 298 H 22.8577 2.31228 -5.40192 0
M  V30 299 H 24.3817 3.21985 -5.18804 0
M  V30 300 H 25.7957 0.995056 -5.64599 0
M  V30 301 H 24.1927 0.284639 -5.99425 0
M  V30 302 H 25.2627 -0.506041 -4.82252 0
M  V30 303 N 26.6058 1.57591 -0.0167156 0
M  V30 304 C 27.8358 1.95292 0.674149 0
M  V30 305 C 28.2438 0.891097 1.66901 0
M  V30 306 O 27.5868 -0.136908 1.83189 0
M  V30 307 C 27.6488 3.29072 1.44747 0
M  V30 308 C 27.3128 4.52879 0.612331 0
M  V30 309 C 28.3098 5.1979 -0.107126 0
M  V30 310 C 25.9948 4.99242 0.553381 0
M  V30 311 C 27.9888 6.31375 -0.874339 0
M  V30 312 C 25.6758 6.10713 -0.217546 0
M  V30 313 C 26.6738 6.76637 -0.930123 0
M  V30 314 O 26.3618 7.85969 -1.68844 0
M  V30 315 H 26.0938 0.648275 0.191615 0
M  V30 316 H 28.6478 2.05284 -0.0690148 0
M  V30 317 H 26.8778 3.15535 2.2355 0
M  V30 318 H 28.5668 3.51764 2.02526 0
M  V30 319 H 29.3328 4.84948 -0.0708392 0
M  V30 320 H 25.2118 4.47744 1.09757 0
M  V30 321 H 28.7558 6.82764 -1.43106 0
M  V30 322 H 24.6528 6.44994 -0.255593 0
M  V30 323 H 25.4208 8.02571 -1.6069 0
M  V30 324 N 28.0839 -0.256276 1.55502 0
M  V30 325 C 29.0159 -1.33981 1.85962 0
M  V30 326 C 30.0289 -1.44743 0.745212 0
M  V30 327 O 31.2179 -1.4626 1.02324 0
M  V30 328 C 28.3179 -2.7194 2.02242 0
M  V30 329 C 27.4909 -2.83562 3.33033 0
M  V30 330 C 26.5499 -4.02304 3.39172 0
M  V30 331 O 25.5759 -3.92273 4.12444 0
M  V30 332 N 26.7779 -5.15045 2.67784 0
M  V30 333 H 29.5429 -1.08191 2.7949 0
M  V30 334 H 27.1039 -0.446388 1.55624 0
M  V30 335 H 29.0959 -3.49697 2.03701 0
M  V30 336 H 27.6659 -2.90479 1.15502 0
M  V30 337 H 26.8859 -1.92555 3.43971 0
M  V30 338 H 28.1739 -2.88271 4.19258 0
M  V30 339 H 27.5719 -5.26085 2.07968 0
M  V30 340 H 26.1289 -5.90972 2.74947 0
M  V30 341 N 29.562 -1.4872 -0.521534 0
M  V30 342 C 30.808 -1.574 -1.27879 0
M  V30 343 C 31.141 -0.250817 -1.92573 0
M  V30 344 O 30.416 0.743934 -1.79711 0
M  V30 345 C 30.699 -2.71843 -2.36164 0
M  V30 346 C 30.552 -4.13893 -1.76105 0
M  V30 347 C 31.871 -2.82008 -3.37875 0
M  V30 348 H 28.99 -0.572941 -0.463581 0
M  V30 349 H 31.632 -1.80927 -0.580119 0
M  V30 350 H 29.782 -2.51914 -2.95756 0
M  V30 351 H 31.454 -4.45284 -1.20499 0
M  V30 352 H 29.697 -4.20498 -1.06601 0
M  V30 353 H 30.368 -4.89804 -2.5455 0
M  V30 354 H 32.844 -3.00086 -2.88249 0
M  V30 355 H 31.72 -3.63796 -4.11028 0
M  V30 356 H 31.981 -1.90511 -3.98946 0
M  V30 357 N 31.0401 0.771051 -1.3745 0
M  V30 358 C 31.9501 1.91538 -1.35464 0
M  V30 359 C 32.9661 1.72134 -0.254123 0
M  V30 360 O 34.1421 1.95358 -0.489626 0
M  V30 361 C 31.2071 3.26671 -1.16134 0
M  V30 362 C 30.2681 3.58723 -2.35831 0
M  V30 363 C 29.5011 4.87409 -2.17413 0
M  V30 364 O 29.7241 5.58506 -1.15876 0
M  V30 365 O 28.6581 5.18539 -3.05615 0
M  V30 366 H 32.4841 1.96165 -2.31847 0
M  V30 367 H 30.0691 0.9139 -1.18187 0
M  V30 368 H 31.9511 4.07499 -1.07345 0
M  V30 369 H 30.6261 3.22894 -0.228251 0
M  V30 370 H 29.5331 2.78127 -2.50192 0
M  V30 371 H 30.8661 3.67243 -3.27709 0
M  V30 372 N 32.5182 1.22032 0.997298 0
M  V30 373 C 33.7482 1.06686 1.76923 0
M  V30 374 C 34.1562 -0.385838 1.85224 0
M  V30 375 O 33.4992 -1.27929 1.31833 0
M  V30 376 C 33.5612 1.59802 3.22031 0
M  V30 377 C 33.2252 3.08362 3.37286 0
M  V30 378 C 34.2222 4.05835 3.24952 0
M  V30 379 C 31.9072 3.47727 3.6248 0
M  V30 380 C 33.9012 5.4066 3.37588 0
M  V30 381 C 31.5882 4.82701 3.74757 0
M  V30 382 C 32.5862 5.78977 3.62319 0
M  V30 383 O 32.2742 7.11502 3.74193 0
M  V30 384 H 32.0062 0.374767 0.562606 0
M  V30 385 H 34.5602 1.61991 1.26286 0
M  V30 386 H 32.7902 0.989003 3.73839 0
M  V30 387 H 34.4792 1.40184 3.80924 0
M  V30 388 H 35.2452 3.76766 3.05405 0
M  V30 389 H 31.1242 2.73317 3.7124 0
M  V30 390 H 34.6682 6.15788 3.27796 0
M  V30 391 H 30.5652 5.11453 3.9381 0
M  V30 392 H 31.3332 7.19019 3.91093 0
M  V30 393 N 33.9963 -1.19345 1.0293 0
M  V30 394 C 34.9593 -2.20793 0.615069 0
M  V30 395 C 35.9593 -1.57553 -0.321533 0
M  V30 396 O 37.1493 -1.73862 -0.108483 0
M  V30 397 C 34.2813 -3.40754 -0.0999222 0
M  V30 398 H 35.4743 -2.58955 1.51269 0
M  V30 399 H 33.0273 -1.3303 0.820534 0
M  V30 400 H 33.7623 -3.0811 -1.01187 0
M  V30 401 H 33.5473 -3.87889 0.57309 0
M  V30 402 H 35.0373 -4.15898 -0.376645 0
M  V30 403 N 35.4744 -0.807222 -1.35358 0
M  V30 404 C 36.4074 -0.163572 -2.27613 0
M  V30 405 C 37.3854 0.670817 -1.48118 0
M  V30 406 O 38.5694 0.63796 -1.77376 0
M  V30 407 C 35.6964 0.773015 -3.29761 0
M  V30 408 C 34.7424 0.0181653 -4.26496 0
M  V30 409 S 35.5754 -1.31831 -5.19019 0
M  V30 410 C 36.7314 -0.38619 -6.24707 0
M  V30 411 H 36.9644 -0.945757 -2.81856 0
M  V30 412 H 34.4974 -0.602315 -1.42167 0
M  V30 413 H 36.4554 1.30788 -3.89108 0
M  V30 414 H 35.1164 1.52859 -2.74396 0
M  V30 415 H 34.3094 0.729534 -4.98692 0
M  V30 416 H 33.9114 -0.446761 -3.71322 0
M  V30 417 H 36.2034 0.428295 -6.76145 0
M  V30 418 H 37.1464 -1.07736 -6.99856 0
M  V30 419 H 37.5544 0.018398 -5.64497 0
M  V30 420 N 36.9525 1.47285 -0.560781 0
M  V30 421 C 37.8625 2.33846 0.187954 0
M  V30 422 C 38.8785 1.48412 0.908293 0
M  V30 423 O 40.0545 1.81332 0.876388 0
M  V30 424 C 37.1195 3.25178 1.2025 0
M  V30 425 C 36.1805 4.26504 0.489208 0
M  V30 426 C 35.4135 5.13472 1.45542 0
M  V30 427 O 35.6365 5.02959 2.6905 0
M  V30 428 O 34.5705 5.93902 0.977963 0
M  V30 429 H 38.3965 2.99177 -0.522177 0
M  V30 430 H 35.9815 1.45903 -0.321364 0
M  V30 431 H 37.8635 3.81584 1.78805 0
M  V30 432 H 36.5385 2.6247 1.89449 0
M  V30 433 H 35.4455 3.73847 -0.137627 0
M  V30 434 H 36.7785 4.91935 -0.161399 0
M  V30 435 N 38.4306 0.297415 1.54768 0
M  V30 436 C 39.3936 -0.567375 2.22066 0
M  V30 437 C 40.3936 -1.06409 1.20556 0
M  V30 438 O 41.5836 -0.960691 1.45315 0
M  V30 439 C 38.7156 -1.78517 2.90421 0
M  V30 440 H 39.9086 0.0205534 2.99893 0
M  V30 441 H 37.4616 0.0482163 1.56226 0
M  V30 442 H 38.1966 -2.41303 2.16664 0
M  V30 443 H 37.9816 -1.43669 3.64831 0
M  V30 444 H 39.4716 -2.39964 3.41771 0
M  V30 445 N 39.9087 -1.5758 0.0250728 0
M  V30 446 C 41.1577 -1.90811 -0.653767 0
M  V30 447 C 41.4707 -0.90273 -1.73523 0
M  V30 448 O 42.6767 -1.12614 -2.47043 0
M  V30 449 C 41.1327 -3.38804 -1.21409 0
M  V30 450 C 40.7407 -4.47692 -0.166126 0
M  V30 451 C 42.4847 -3.81108 -1.86967 0
M  V30 452 C 40.3917 -5.86779 -0.737856 0
M  V30 453 H 39.3217 -0.712063 -0.247956 0
M  V30 454 H 41.9727 -1.83281 0.0897137 0
M  V30 455 H 40.3547 -3.41252 -2.00905 0
M  V30 456 H 41.5287 -4.56797 0.606079 0
M  V30 457 H 39.8437 -4.14565 0.390466 0
M  V30 458 H 42.4407 -4.82375 -2.30692 0
M  V30 459 H 42.7837 -3.15953 -2.71071 0
M  V30 460 H 43.3167 -3.81065 -1.14167 0
M  V30 461 H 40.0557 -6.55468 0.0649577 0
M  V30 462 H 39.5757 -5.81288 -1.47864 0
M  V30 463 H 41.2547 -6.35223 -1.22884 0
M  V30 464 N 41.3868 0.248026 -1.55636 0
M  V30 465 C 42.6348 0.974295 -1.77065 0
M  V30 466 C 42.9558 1.85897 -0.588849 0
M  V30 467 O 42.2258 1.91868 0.395407 0
M  V30 468 H 40.8058 0.362733 -0.653019 0
M  V30 469 H 43.4678 0.266244 -1.93073 0
M  V30 470 H 42.5638 1.59667 -2.68166 0
M  V30 471 N 42.8649 1.48995 0.513639 0
M  V30 472 C 43.8149 1.61127 1.61314 0
M  V30 473 C 44.7989 0.467521 1.53958 0
M  V30 474 O 45.9909 0.719826 1.61702 0
M  V30 475 C 43.1199 1.66937 2.99978 0
M  V30 476 C 42.2059 2.86847 3.12377 0
M  V30 477 N 42.5969 4.11078 2.94701 0
M  V30 478 C 40.8949 2.84521 3.43459 0
M  V30 479 C 41.5959 4.91615 3.10949 0
M  V30 480 N 40.5719 4.24739 3.3926 0
M  V30 481 H 44.3739 2.54909 1.46282 0
M  V30 482 H 41.8879 1.45593 0.719483 0
M  V30 483 H 43.8849 1.73725 3.78979 0
M  V30 484 H 42.5449 0.742831 3.16089 0
M  V30 485 H 43.5559 4.41258 2.71131 0
M  V30 486 H 40.2329 2.01192 3.65825 0
M  V30 487 H 41.6229 6.00264 3.01882 0
M  V30 488 N 44.343 -0.763751 1.37857 0
M  V30 489 C 45.306 -1.85889 1.34081 0
M  V30 490 C 46.306 -1.58949 0.243277 0
M  V30 491 O 47.496 -1.66882 0.499589 0
M  V30 492 C 44.628 -3.23176 1.08489 0
M  V30 493 H 45.821 -1.90648 2.31502 0
M  V30 494 H 43.374 -0.964367 1.23003 0
M  V30 495 H 44.109 -3.24091 0.116318 0
M  V30 496 H 43.894 -3.44124 1.8794 0
M  V30 497 H 45.384 -4.03254 1.08517 0
M  V30 498 N 45.8211 -1.22559 -0.990812 0
M  V30 499 C 47.0691 -1.04933 -1.72724 0
M  V30 500 C 47.3901 0.416158 -1.90508 0
M  V30 501 O 46.6601 1.29918 -1.46622 0
M  V30 502 H 45.2401 -0.385296 -0.639965 0
M  V30 503 H 47.9021 -1.54105 -1.19322 0
M  V30 504 H 46.9981 -1.52886 -2.72089 0
M  V30 505 N 47.2992 1.18797 -1.03562 0
M  V30 506 C 48.5272 1.92599 -0.755869 0
M  V30 507 C 48.9422 1.75886 0.686271 0
M  V30 508 O 48.2992 1.08517 1.46732 0
M  V30 509 C 48.3502 3.44159 -1.10619 0
M  V30 510 O 48.0712 3.60341 -2.4917 0
M  V30 511 C 49.5722 4.3507 -0.850214 0
M  V30 512 H 46.7922 0.611587 -0.276048 0
M  V30 513 H 49.3362 1.50742 -1.38192 0
M  V30 514 H 47.4912 3.83823 -0.525194 0
M  V30 515 H 47.9052 4.54128 -2.62427 0
M  V30 516 H 49.3792 5.39989 -1.14523 0
M  V30 517 H 49.8562 4.38673 0.215176 0
M  V30 518 H 50.4622 4.01097 -1.41426 0
M  V30 519 N 48.7773 0.814389 1.34928 0
M  V30 520 C 50.0173 0.404165 2.00364 0
M  V30 521 C 50.3813 -1.01166 1.63185 0
M  V30 522 O 51.5823 -1.52431 2.21401 0
M  V30 523 C 49.8533 0.590718 3.52484 0
M  V30 524 S 51.4123 0.272075 4.37956 0
M  V30 525 H 48.2303 0.15311 0.694319 0
M  V30 526 H 50.8323 1.05834 1.64376 0
M  V30 527 H 49.5363 1.62099 3.77031 0
M  V30 528 H 49.0673 -0.0785013 3.93322 0
M  V30 529 H 51.0823 -0.917405 4.87645 0
M  V30 530 N 50.2554 -1.46986 0.568584 0
M  V30 531 C 51.1854 -2.32946 -0.160753 0
M  V30 532 C 52.1664 -1.44487 -0.897631 0
M  V30 533 O 53.3514 -1.73327 -0.875867 0
M  V30 534 C 50.4814 -3.26494 -1.18403 0
M  V30 535 C 49.4354 -4.24282 -0.562895 0
M  V30 536 C 48.7614 -5.07236 -1.69163 0
M  V30 537 C 50.0614 -5.19989 0.490761 0
M  V30 538 H 51.7554 -2.94175 0.556916 0
M  V30 539 H 49.3014 -1.4146 0.26927 0
M  V30 540 H 51.2544 -3.85477 -1.70251 0
M  V30 541 H 49.9784 -2.63343 -1.93179 0
M  V30 542 H 48.6374 -3.66541 -0.0656164 0
M  V30 543 H 48.2854 -4.4048 -2.42871 0
M  V30 544 H 47.9854 -5.7345 -1.28174 0
M  V30 545 H 49.5094 -5.6908 -2.21314 0
M  V30 546 H 50.9234 -5.73271 0.0579047 0
M  V30 547 H 49.3204 -5.94469 0.820165 0
M  V30 548 H 50.3904 -4.64777 1.3824 0
M  V30 549 N 51.7335 -0.305618 -1.54608 0
M  V30 550 C 52.9815 0.301701 -1.99835 0
M  V30 551 C 53.3025 1.54054 -1.19551 0
M  V30 552 O 52.5725 1.93702 -0.292658 0
M  V30 553 H 51.1525 0.114468 -0.738178 0
M  V30 554 H 53.8145 -0.418016 -1.90364 0
M  V30 555 H 52.9105 0.570548 -3.06841 0
M  V30 556 N 53.2116 1.57565 -0.0334293 0
M  V30 557 C 54.4606 1.91155 0.643639 0
M  V30 558 C 54.7736 0.91192 1.73042 0
M  V30 559 O 55.9796 1.13923 2.46442 0
M  V30 560 C 54.4356 3.39443 1.1961 0
M  V30 561 C 54.0436 4.47774 0.142381 0
M  V30 562 C 55.7876 3.82094 1.84944 0
M  V30 563 C 53.6946 5.87162 0.706727 0
M  V30 564 H 52.6246 0.713368 0.244176 0
M  V30 565 H 55.2756 1.8323 -0.0994323 0
M  V30 566 H 53.6576 3.42313 1.99092 0
M  V30 567 H 54.8316 4.56469 -0.630296 0
M  V30 568 H 53.1466 4.14352 -0.412446 0
M  V30 569 H 55.7436 4.83591 2.2813 0
M  V30 570 H 56.0866 3.17386 2.69392 0
M  V30 571 H 56.6196 3.81665 1.12145 0
M  V30 572 H 53.3586 6.55424 -0.0997178 0
M  V30 573 H 52.8786 5.82064 1.44779 0
M  V30 574 H 54.5576 6.35866 1.19514 0
M  V30 575 N 54.6897 -0.239769 1.55765 0
M  V30 576 C 55.6197 -1.30052 1.9393 0
M  V30 577 C 56.6007 -1.49839 0.805132 0
M  V30 578 O 57.7857 -1.62328 1.06599 0
M  V30 579 C 54.9157 -2.65391 2.2402 0
M  V30 580 C 53.8697 -2.60289 3.39755 0
M  V30 581 C 53.1957 -3.99489 3.55405 0
M  V30 582 C 54.4957 -2.16654 4.75246 0
M  V30 583 H 56.1897 -0.983573 2.82783 0
M  V30 584 H 53.7357 -0.471701 1.36055 0
M  V30 585 H 55.6887 -3.3974 2.49308 0
M  V30 586 H 54.4127 -2.98736 1.32 0
M  V30 587 H 53.0717 -1.88398 3.14487 0
M  V30 588 H 52.7197 -4.30112 2.60793 0
M  V30 589 H 52.4197 -3.96962 4.33238 0
M  V30 590 H 53.9437 -4.75528 3.83022 0
M  V30 591 H 55.3577 -2.80737 4.99859 0
M  V30 592 H 53.7547 -2.25223 5.56232 0
M  V30 593 H 54.8247 -1.11835 4.71827 0
M  V30 594 N 56.1678 -1.49265 -0.50573 0
M  V30 595 C 57.1308 -1.65075 -1.59006 0
M  V30 596 C 58.1308 -0.522768 -1.52065 0
M  V30 597 O 59.3208 -0.789117 -1.55302 0
M  V30 598 C 56.4528 -1.64369 -2.98656 0
M  V30 599 H 57.6458 -2.61784 -1.46319 0
M  V30 600 H 55.1988 -1.38226 -0.729616 0
M  V30 601 H 55.9338 -0.692272 -3.16825 0
M  V30 602 H 55.7188 -2.46282 -3.05103 0
M  V30 603 H 57.2088 -1.78674 -3.77446 0
M  V30 604 N 57.6459 0.756429 -1.3826 0
M  V30 605 C 58.5939 1.89149 -1.35372 0
M  V30 606 C 59.5879 1.67691 -0.24004 0
M  V30 607 O 60.7939 1.75294 -0.408919 0
M  V30 608 H 57.1689 0.622271 -0.422236 0
M  V30 609 H 59.1399 1.88701 -2.31159 0
M  V30 610 C 57.8889 3.26599 -1.19284 0
M  V30 611 H 57.2119 3.43695 -2.0424 0
M  V30 612 H 58.6519 4.06274 -1.21316 0
M  V30 613 C 57.1109 3.3675 0.100454 0
M  V30 614 O 57.6409 3.86951 1.07851 0
M  V30 615 N 55.8469 2.90179 0.15633 0
M  V30 616 H 55.3939 2.49517 -0.640253 0
M  V30 617 H 55.3519 2.97352 1.02123 0
M  V30 618 N 59.124 1.23083 0.984299 0
M  V30 619 C 60.401 0.9689 1.69917 0
M  V30 620 C 60.781 -0.513604 2.04757 0
M  V30 621 O 60.129 -1.48383 1.73767 0
M  V30 622 C 60.339 1.87518 2.94343 0
M  V30 623 C 61.687 2.13636 3.6694 0
M  V30 624 O 62.711 1.85036 3.04368 0
M  V30 625 O 61.57 2.62119 4.79537 0
M  V30 626 H 58.664 0.365095 0.742048 0
M  V30 627 H 61.21 1.34107 1.03987 0
M  V30 628 H 59.982 2.87756 2.65164 0
M  V30 629 H 59.605 1.50514 3.6801 0
M  V30 630 N 60.6021 -1.18246 1.0419 0
M  V30 631 C 61.8501 -1.87886 0.744543 0
M  V30 632 C 62.1711 -1.8082 -0.730006 0
M  V30 633 O 61.4411 -1.22736 -1.52685 0
M  V30 634 H 60.0211 -0.695556 0.272417 0
M  V30 635 H 62.6831 -1.43494 1.31892 0
M  V30 636 H 61.7791 -2.9389 1.05049 0
M  V30 637 N 62.0802 -0.821533 -1.34494 0
M  V30 638 C 63.3262 -0.409552 -1.98622 0
M  V30 639 C 63.6592 1.0244 -1.64984 0
M  V30 640 O 62.9342 1.71325 -0.920758 0
M  V30 641 C 63.2172 -0.610458 -3.54888 0
M  V30 642 C 63.0702 -2.09043 -3.98273 0
M  V30 643 C 64.3892 -0.0455379 -4.40076 0
M  V30 644 H 61.5082 -0.15028 -0.721516 0
M  V30 645 H 64.1502 -1.03384 -1.59411 0
M  V30 646 H 62.3002 -0.079044 -3.8842 0
M  V30 647 H 63.9722 -2.68537 -3.75081 0
M  V30 648 H 62.2152 -2.58139 -3.48635 0
M  V30 649 H 62.8862 -2.18182 -5.07051 0
M  V30 650 H 65.3622 -0.499557 -4.1309 0
M  V30 651 H 64.2382 -0.215922 -5.48475 0
M  V30 652 H 64.4992 1.04939 -4.29465 0
M  V30 653 N 63.5583 1.46682 -0.576371 0
M  V30 654 C 64.4883 2.33028 0.148397 0
M  V30 655 C 65.4693 1.44961 0.889956 0
M  V30 656 O 66.6543 1.73789 0.866662 0
M  V30 657 C 63.7843 3.27117 1.1667 0
M  V30 658 C 62.7383 4.24575 0.540386 0
M  V30 659 C 62.0643 5.08126 1.6647 0
M  V30 660 C 63.3643 5.19722 -0.518331 0
M  V30 661 H 65.0583 2.93875 -0.572509 0
M  V30 662 H 62.6043 1.41315 -0.276768 0
M  V30 663 H 64.5573 3.86374 1.68204 0
M  V30 664 H 63.2813 2.64364 1.9178 0
M  V30 665 H 61.9403 3.66571 0.0461769 0
M  V30 666 H 61.5883 4.41762 2.40531 0
M  V30 667 H 61.2883 5.74122 1.25131 0
M  V30 668 H 62.8123 5.70246 2.18293 0
M  V30 669 H 64.2263 5.73232 -0.0883058 0
M  V30 670 H 62.6233 5.94026 -0.851679 0
M  V30 671 H 63.6933 4.64037 -1.40703 0
M  V30 672 N 65.0364 0.313813 1.54444 0
M  V30 673 C 65.9664 -0.549454 2.26943 0
M  V30 674 C 66.9474 -1.12741 1.27372 0
M  V30 675 O 68.1324 -1.15436 1.56167 0
M  V30 676 C 65.2624 -1.71523 3.01989 0
M  V30 677 C 64.2164 -1.26703 4.08816 0
M  V30 678 C 63.5424 -2.51898 4.71647 0
M  V30 679 C 64.8424 -0.388962 5.2085 0
M  V30 680 H 66.5364 0.0552661 2.99349 0
M  V30 681 H 64.0824 0.0280207 1.43973 0
M  V30 682 H 66.0354 -2.32535 3.51433 0
M  V30 683 H 64.7594 -2.34639 2.27183 0
M  V30 684 H 63.4184 -0.679896 3.6024 0
M  V30 685 H 63.0664 -3.13356 3.93468 0
M  V30 686 H 62.7664 -2.22605 5.43802 0
M  V30 687 H 64.2904 -3.1369 5.23861 0
M  V30 688 H 65.7044 -0.905107 5.6611 0
M  V30 689 H 64.1014 -0.18924 5.99802 0
M  V30 690 H 65.1714 0.582699 4.81386 0
M  V30 691 N 66.5145 -1.57545 0.0417849 0
M  V30 692 C 67.4775 -2.09885 -0.92093 0
M  V30 693 C 68.4775 -1.01648 -1.24596 0
M  V30 694 O 69.6675 -1.27759 -1.1842 0
M  V30 695 C 66.7995 -2.57527 -2.23367 0
M  V30 696 H 67.9925 -2.96236 -0.467382 0
M  V30 697 H 65.5455 -1.5493 -0.206467 0
M  V30 698 H 66.2805 -1.74542 -2.73323 0
M  V30 699 H 66.0655 -3.36613 -2.01083 0
M  V30 700 H 67.5555 -2.98201 -2.92346 0
M  V30 701 N 67.9926 0.231505 -1.5589 0
M  V30 702 C 68.9556 1.27028 -1.90779 0
M  V30 703 C 69.9556 1.40308 -0.785507 0
M  V30 704 O 71.1456 1.38744 -1.05336 0
M  V30 705 C 68.2776 2.64566 -2.14983 0
M  V30 706 H 69.4706 0.973017 -2.83677 0
M  V30 707 H 67.0236 0.471486 -1.49019 0
M  V30 708 H 67.7586 2.99406 -1.24604 0
M  V30 709 H 67.5436 2.56305 -2.96732 0
M  V30 710 H 69.0336 3.39543 -2.43105 0
M  V30 711 N 69.4707 1.49531 0.497807 0
M  V30 712 C 70.3807 1.69176 1.62532 0
M  V30 713 C 71.3967 0.5744 1.64246 0
M  V30 714 O 72.5727 0.849497 1.82608 0
M  V30 715 C 69.6377 1.75695 2.98885 0
M  V30 716 C 68.6987 2.9929 3.07773 0
M  V30 717 C 67.9317 3.05488 4.37622 0
M  V30 718 O 68.1547 2.19192 5.26603 0
M  V30 719 O 67.0887 3.9798 4.51548 0
M  V30 720 H 70.9147 2.647 1.48887 0
M  V30 721 H 68.4997 1.3331 0.674441 0
M  V30 722 H 70.3817 1.82317 3.79919 0
M  V30 723 H 69.0567 0.8335 3.12785 0
M  V30 724 H 67.9637 2.98183 2.25915 0
M  V30 725 H 69.2967 3.91125 2.98801 0
M  V30 726 N 70.9488 -0.749086 1.3866 0
M  V30 727 C 72.3648 -1.05276 1.19955 0
M  V30 728 C 72.5648 -2.01435 0.05134 0
M  V30 729 O 71.6208 -2.45232 -0.60147 0
M  V30 730 C 72.9338 -1.62853 2.52783 0
M  V30 731 C 74.4818 -1.75002 2.59506 0
M  V30 732 C 74.9568 -2.35991 3.92521 0
M  V30 733 N 76.4478 -2.43416 3.94085 0
M  V30 734 C 77.1828 -2.91511 4.9377 0
M  V30 735 N 76.6788 -3.39608 6.03853 0
M  V30 736 N 78.4718 -2.90592 4.81157 0
M  V30 737 H 70.6228 -0.111066 2.12109 0
M  V30 738 H 72.8858 -0.111901 0.941373 0
M  V30 739 H 72.5918 -0.99664 3.37283 0
M  V30 740 H 72.4658 -2.61854 2.715 0
M  V30 741 H 74.8528 -2.37317 1.75398 0
M  V30 742 H 74.9338 -0.74693 2.44652 0
M  V30 743 H 74.5778 -1.74308 4.77053 0
M  V30 744 H 74.5078 -3.3695 4.04688 0
M  V30 745 H 76.9988 -2.09405 3.14576 0
M  V30 746 H 77.3118 -3.74775 6.75843 0
M  V30 747 H 75.6568 -3.37653 6.07466 0
M  V30 748 H 78.8478 -2.52332 3.94267 0
M  V30 749 H 79.0208 -3.27762 5.58996 0
M  V30 750 N 72.4269 -1.23603 -0.977757 0
M  V30 751 C 73.8429 -0.999251 -1.24447 0
M  V30 752 C 74.0429 0.298053 -1.99283 0
M  V30 753 O 73.0989 1.01681 -2.31122 0
M  V30 754 C 74.4119 -2.20784 -2.04144 0
M  V30 755 C 75.9599 -2.25303 -2.17273 0
M  V30 756 C 76.4349 -3.45755 -3.00362 0
M  V30 757 N 77.9259 -3.4601 -3.07947 0
M  V30 758 C 78.6609 -4.35868 -3.72568 0
M  V30 759 N 78.1569 -5.35966 -4.38991 0
M  V30 760 N 79.9499 -4.23605 -3.6948 0
M  V30 761 H 72.1009 -2.06986 -0.476483 0
M  V30 762 H 74.3639 -0.907801 -0.273134 0
M  V30 763 H 74.0699 -3.14945 -1.56533 0
M  V30 764 H 73.9439 -2.22085 -3.04891 0
M  V30 765 H 76.3309 -1.3168 -2.64092 0
M  V30 766 H 76.4119 -2.28033 -1.15907 0
M  V30 767 H 76.0559 -4.39687 -2.5424 0
M  V30 768 H 75.9859 -3.40266 -4.01904 0
M  V30 769 H 78.4769 -2.73588 -2.60688 0
M  V30 770 H 78.7899 -6.00783 -4.86086 0
M  V30 771 H 77.1349 -5.39863 -4.37691 0
M  V30 772 H 80.3259 -3.44647 -3.16759 0
M  V30 773 H 80.4989 -4.93836 -4.1956 0
M  V30 774 N 73.905 1.17692 -1.04816 0
M  V30 775 C 74.853 2.23632 -0.63966 0
M  V30 776 C 75.847 1.6601 0.337219 0
M  V30 777 O 77.053 1.78844 0.203693 0
M  V30 778 H 73.428 0.727949 -0.188665 0
M  V30 779 H 75.399 2.55387 -1.54337 0
M  V30 780 C 74.148 3.4769 -0.0264051 0
M  V30 781 H 73.471 3.92331 -0.769164 0
M  V30 782 H 74.911 4.23418 0.222098 0
M  V30 783 C 73.37 3.13807 1.22584 0
M  V30 784 O 73.9 3.28236 2.31569 0
M  V30 785 N 72.106 2.68065 1.12202 0
M  V30 786 H 71.653 2.56525 0.235133 0
M  V30 787 H 71.611 2.45767 1.96076 0
M  V30 788 N 75.3831 0.828654 1.34056 0
M  V30 789 C 76.6321 0.415828 1.97367 0
M  V30 790 C 76.9451 -1.02796 1.6641 0
M  V30 791 O 78.1511 -1.54497 2.23255 0
M  V30 792 C 76.6071 0.692601 3.53173 0
M  V30 793 C 76.2151 2.15038 3.93017 0
M  V30 794 C 77.9591 0.346222 4.23086 0
M  V30 795 C 75.8661 2.37174 5.41758 0
M  V30 796 H 74.7961 0.151755 0.738571 0
M  V30 797 H 77.4471 1.01581 1.52819 0
M  V30 798 H 75.8291 0.0223764 3.95994 0
M  V30 799 H 77.0031 2.86024 3.61285 0
M  V30 800 H 75.3181 2.45875 3.36057 0
M  V30 801 H 77.9151 0.48937 5.32456 0
M  V30 802 H 78.2581 -0.709842 4.10204 0
M  V30 803 H 78.7911 0.971258 3.85761 0
M  V30 804 H 75.5301 3.41308 5.59633 0
M  V30 805 H 75.0501 1.70738 5.74986 0
M  V30 806 H 76.7291 2.19818 6.08514 0
M  V30 807 N 76.8612 -1.46375 0.584142 0
M  V30 808 C 77.8112 -2.27371 -0.169232 0
M  V30 809 C 78.7952 -1.35955 -0.860523 0
M  V30 810 O 79.9872 -1.60119 -0.754382 0
M  V30 811 C 77.1162 -3.22334 -1.18134 0
M  V30 812 C 76.2022 -4.21235 -0.492088 0
M  V30 813 N 76.5932 -5.03766 0.453129 0
M  V30 814 C 74.8912 -4.39773 -0.742652 0
M  V30 815 C 75.5922 -5.75366 0.85609 0
M  V30 816 N 74.5682 -5.43214 0.204926 0
M  V30 817 H 78.3702 -2.88572 0.557097 0
M  V30 818 H 75.8842 -1.57242 0.406042 0
M  V30 819 H 77.8812 -3.79071 -1.73525 0
M  V30 820 H 76.5412 -2.62693 -1.90847 0
M  V30 821 H 77.5522 -5.11227 0.828723 0
M  V30 822 H 74.2292 -3.91279 -1.45625 0
M  V30 823 H 75.6192 -6.5172 1.63434 0
M  V30 824 N 78.3393 -0.321999 -1.54275 0
M  V30 825 C 79.2863 0.544664 -2.24281 0
M  V30 826 C 80.2563 1.1129 -1.23303 0
M  V30 827 O 81.4413 1.15354 -1.51981 0
M  V30 828 C 78.5813 1.70045 -3.00298 0
M  V30 829 C 77.6943 1.16159 -4.1609 0
M  V30 830 C 76.8293 2.28293 -4.79641 0
M  V30 831 C 75.8683 1.71648 -5.8754 0
M  V30 832 N 75.0053 2.77438 -6.44959 0
M  V30 833 H 79.8453 -0.0588907 -2.97942 0
M  V30 834 H 77.3823 -0.0408345 -1.47043 0
M  V30 835 H 79.3403 2.38054 -3.42616 0
M  V30 836 H 77.9703 2.27531 -2.28975 0
M  V30 837 H 77.0223 0.373092 -3.78566 0
M  V30 838 H 78.3343 0.707087 -4.93763 0
M  V30 839 H 77.4883 3.0421 -5.2492 0
M  V30 840 H 76.2273 2.77079 -4.01346 0
M  V30 841 H 75.2323 0.942282 -5.41665 0
M  V30 842 H 76.4573 1.23741 -6.67731 0
M  V30 843 H 74.4033 3.25519 -5.69538 0
M  V30 844 H 74.3203 2.36547 -7.1804 0
M  V30 845 H 75.5883 3.53189 -6.94894 0
M  V30 846 N 79.8174 1.5752 -0.0501392 0
M  V30 847 C 80.7474 2.14502 0.922566 0
M  V30 848 C 81.7284 1.06642 1.3252 0
M  V30 849 O 82.9134 1.34577 1.4001 0
M  V30 850 C 80.0434 2.68916 2.19776 0
M  V30 851 C 78.9974 3.8175 1.93523 0
M  V30 852 C 78.3234 4.22677 3.27487 0
M  V30 853 C 79.6234 5.06932 1.25765 0
M  V30 854 H 81.3174 2.9603 0.447952 0
M  V30 855 H 78.8634 1.42401 0.214024 0
M  V30 856 H 80.8164 3.07419 2.88222 0
M  V30 857 H 79.5404 1.84578 2.69441 0
M  V30 858 H 78.1994 3.43718 1.27489 0
M  V30 859 H 77.8474 3.35291 3.74952 0
M  V30 860 H 77.5474 4.98725 3.1072 0
M  V30 861 H 79.0714 4.63779 3.97166 0
M  V30 862 H 80.4854 5.42888 1.84244 0
M  V30 863 H 78.8824 5.88116 1.19328 0
M  V30 864 H 79.9524 4.84337 0.233536 0
M  V30 865 N 81.2955 -0.223234 1.56011 0
M  V30 866 C 82.2255 -1.27988 1.95298 0
M  V30 867 C 83.2065 -1.48976 0.820979 0
M  V30 868 O 84.3915 -1.61188 1.08315 0
M  V30 869 C 81.5215 -2.63 2.26822 0
M  V30 870 C 80.4755 -2.56671 3.42497 0
M  V30 871 C 79.8015 -3.95697 3.59622 0
M  V30 872 C 81.1015 -2.11601 4.77517 0
M  V30 873 H 82.7955 -0.953525 2.8381 0
M  V30 874 H 80.3415 -0.457244 1.36548 0
M  V30 875 H 82.2945 -3.37077 2.52898 0
M  V30 876 H 81.0185 -2.9732 1.35161 0
M  V30 877 H 79.6775 -1.85051 3.16467 0
M  V30 878 H 79.3255 -4.27322 2.6534 0
M  V30 879 H 79.0255 -3.92345 4.37424 0
M  V30 880 H 80.5495 -4.71438 3.88044 0
M  V30 881 H 81.9635 -2.7542 5.02809 0
M  V30 882 H 80.3605 -2.19311 5.5859 0
M  V30 883 H 81.4305 -1.06824 4.72987 0
M  V30 884 N 82.7736 -1.49793 -0.48987 0
M  V30 885 C 84.0506 -1.50348 -1.25119 0
M  V30 886 C 84.4306 -0.237466 -2.0976 0
M  V30 887 O 83.7786 0.77981 -2.14782 0
M  V30 888 C 83.9886 -2.78872 -2.09837 0
M  V30 889 C 85.3366 -3.288 -2.68655 0
M  V30 890 O 86.3606 -2.80065 -2.20096 0
M  V30 891 O 85.2196 -4.13707 -3.57083 0
M  V30 892 H 82.3136 -0.602242 -0.566775 0
M  V30 893 H 84.8596 -1.62067 -0.503229 0
M  V30 894 H 83.6316 -3.62499 -1.47343 0
M  V30 895 H 83.2546 -2.70066 -2.91805 0
M  V30 896 N 84.2517 0.741722 -1.39055 0
M  V30 897 C 85.1617 1.88621 -1.39496 0
M  V30 898 C 86.1777 1.71557 -0.290578 0
M  V30 899 O 87.3537 1.94275 -0.530954 0
M  V30 900 C 84.4187 3.24134 -1.23037 0
M  V30 901 C 83.4797 3.5364 -2.43387 0
M  V30 902 C 82.7127 4.82687 -2.27703 0
M  V30 903 O 82.9357 5.55922 -1.27696 0
M  V30 904 O 81.8697 5.1194 -3.16545 0
M  V30 905 H 85.6957 1.91203 -2.35956 0
M  V30 906 H 83.2807 0.888625 -1.20099 0
M  V30 907 H 85.1627 4.0513 -1.15964 0
M  V30 908 H 83.8377 3.22337 -0.296691 0
M  V30 909 H 82.7447 2.72758 -2.56035 0
M  V30 910 H 84.0777 3.60209 -3.35425 0
M  V30 911 N 85.7298 1.2412 0.971189 0
M  V30 912 C 86.9758 1.08041 1.71625 0
M  V30 913 C 87.3088 -0.380407 1.90438 0
M  V30 914 O 86.5838 -1.28127 1.46334 0
M  V30 915 C 86.8668 1.81682 3.10908 0
M  V30 916 C 86.7198 3.35493 2.99608 0
M  V30 917 C 88.0388 1.58671 4.10501 0
M  V30 918 H 85.1578 0.39388 0.622919 0
M  V30 919 H 87.7998 1.52743 1.13003 0
M  V30 920 H 85.9498 1.43684 3.60953 0
M  V30 921 H 87.6218 3.83068 2.57015 0
M  V30 922 H 85.8648 3.64052 2.35899 0
M  V30 923 H 86.5358 3.82217 3.98264 0
M  V30 924 H 89.0118 1.91719 3.69301 0
M  V30 925 H 87.8878 2.1266 5.06031 0
M  V30 926 H 88.1488 0.524161 4.38982 0
M  V30 927 N 87.2079 -1.17134 1.05439 0
M  V30 928 C 88.4549 -1.87456 0.765942 0
M  V30 929 C 88.7829 -1.81189 -0.707153 0
M  V30 930 O 88.0379 -1.21633 -1.5331 0
M  V30 931 C 88.3369 -3.36833 1.19491 0
M  V30 932 C 88.0029 -3.63301 2.67063 0
M  V30 933 C 86.6649 -3.70234 3.07376 0
M  V30 934 C 89.0169 -3.74575 3.62413 0
M  V30 935 C 86.3449 -3.85933 4.41896 0
M  V30 936 C 88.6969 -3.91793 4.9667 0
M  V30 937 C 87.3609 -3.96966 5.36633 0
M  V30 938 H 86.6309 -0.685948 0.280278 0
M  V30 939 H 89.2779 -1.38556 1.32192 0
M  V30 940 H 87.5829 -3.87807 0.557969 0
M  V30 941 H 89.2799 -3.89611 0.948893 0
M  V30 942 H 85.8699 -3.58532 2.34846 0
M  V30 943 H 90.0539 -3.68537 3.32406 0
M  V30 944 H 85.3099 -3.88187 4.72357 0
M  V30 945 H 89.4839 -3.99458 5.70444 0
M  V30 946 H 87.1109 -4.08883 6.40874 0
M  V30 947 N 88.686 -0.835752 -1.33615 0
M  V30 948 C 89.933 -0.429959 -1.97883 0
M  V30 949 C 90.261 1.01006 -1.66217 0
M  V30 950 O 89.516 1.72047 -0.93265 0
M  V30 951 C 89.815 -0.593925 -3.52431 0
M  V30 952 C 89.481 -2.00158 -4.04039 0
M  V30 953 C 88.143 -2.38662 -4.17844 0
M  V30 954 C 90.495 -2.92117 -4.31644 0
M  V30 955 C 87.823 -3.68435 -4.56588 0
M  V30 956 C 90.175 -4.21368 -4.71838 0
M  V30 957 C 88.839 -4.59833 -4.83849 0
M  V30 958 H 88.109 -0.157333 -0.724104 0
M  V30 959 H 90.756 -1.06217 -1.59343 0
M  V30 960 H 89.061 0.121619 -3.91611 0
M  V30 961 H 90.758 -0.260282 -4.00154 0
M  V30 962 H 87.348 -1.69252 -3.93766 0
M  V30 963 H 91.532 -2.63608 -4.20505 0
M  V30 964 H 86.788 -3.98046 -4.64079 0
M  V30 965 H 90.962 -4.92703 -4.92155 0
M  V30 966 H 88.589 -5.60438 -5.13627 0
M  V30 967 N 90.1641 1.46063 -0.591896 0
M  V30 968 C 91.3891 2.07226 -0.0850314 0
M  V30 969 C 91.8141 1.43625 1.21463 0
M  V30 970 O 91.1721 0.523305 1.73583 0
M  V30 971 C 91.2201 3.60554 0.0576567 0
M  V30 972 O 90.3241 3.97128 1.11188 0
M  V30 973 H 89.6651 0.660615 -0.0669568 0
M  V30 974 H 92.1951 1.8756 -0.81745 0
M  V30 975 H 92.2051 4.07165 0.2609 0
M  V30 976 H 90.8801 4.06235 -0.891416 0
M  V30 977 H 89.4571 3.62213 0.886356 0
M  V30 978 N 91.6422 0.330177 1.54103 0
M  V30 979 C 92.5522 -0.541534 2.28264 0
M  V30 980 C 93.5682 -1.12351 1.32866 0
M  V30 981 O 94.7442 -1.14206 1.65888 0
M  V30 982 C 91.8092 -1.68322 3.03098 0
M  V30 983 C 90.8702 -1.13238 4.14096 0
M  V30 984 C 90.1032 -2.21966 4.85352 0
M  V30 985 O 90.3262 -3.42437 4.56172 0
M  V30 986 O 89.2602 -1.87013 5.7211 0
M  V30 987 H 93.0862 0.060938 3.03639 0
M  V30 988 H 90.6712 0.09565 1.49093 0
M  V30 989 H 92.5532 -2.34777 3.49939 0
M  V30 990 H 91.2282 -2.27176 2.30593 0
M  V30 991 H 90.1352 -0.432736 3.71589 0
M  V30 992 H 91.4682 -0.588898 4.88664 0
M  V30 993 N 93.1203 -1.57491 0.0584922 0
M  V30 994 C 94.0673 -2.11958 -0.913376 0
M  V30 995 C 95.0373 -1.02875 -1.30407 0
M  V30 996 O 96.2223 -1.30464 -1.39226 0
M  V30 997 C 93.3623 -2.67497 -2.18035 0
M  V30 998 C 92.4753 -3.90691 -1.84349 0
M  V30 999 C 91.6103 -4.3452 -3.05559 0
M  V30 1000 C 90.6493 -5.50395 -2.67827 0
M  V30 1001 N 89.7863 -5.89244 -3.81754 0
M  V30 1002 H 94.6263 -2.94704 -0.442017 0
M  V30 1003 H 92.1633 -1.45643 -0.206545 0
M  V30 1004 H 94.1213 -2.978 -2.92183 0
M  V30 1005 H 92.7513 -1.87537 -2.62735 0
M  V30 1006 H 91.8033 -3.66934 -1.00319 0
M  V30 1007 H 93.1153 -4.7489 -1.5258 0
M  V30 1008 H 92.2693 -4.66414 -3.87998 0
M  V30 1009 H 91.0083 -3.49147 -3.40511 0
M  V30 1010 H 90.0133 -5.18165 -1.83806 0
M  V30 1011 H 91.2383 -6.3749 -2.34059 0
M  V30 1012 H 89.1843 -5.06823 -4.16493 0
M  V30 1013 H 89.1013 -6.68151 -3.53708 0
M  V30 1014 H 90.3693 -6.25756 -4.64811 0
M  V30 1015 N 94.5984 0.214957 -1.56127 0
M  V30 1016 C 95.8474 0.936451 -1.78643 0
M  V30 1017 C 96.1604 1.85237 -0.628229 0
M  V30 1018 O 97.3664 2.613 -0.737186 0
M  V30 1019 C 95.8224 1.7154 -3.16389 0
M  V30 1020 C 95.4304 0.845299 -4.39953 0
M  V30 1021 C 97.1744 2.42772 -3.48227 0
M  V30 1022 C 95.0814 1.62198 -5.68723 0
M  V30 1023 H 94.0114 0.353401 -0.666051 0
M  V30 1024 H 96.6624 0.190169 -1.82512 0
M  V30 1025 H 95.0444 2.50484 -3.06715 0
M  V30 1026 H 96.2184 0.0959353 -4.607 0
M  V30 1027 H 94.5334 0.244789 -4.1568 0
M  V30 1028 H 97.1304 3.01394 -4.41663 0
M  V30 1029 H 97.4734 3.15984 -2.71035 0
M  V30 1030 H 98.0064 1.70813 -3.5926 0
M  V30 1031 H 94.7454 0.933011 -6.48826 0
M  V30 1032 H 94.2654 2.34579 -5.52026 0
M  V30 1033 H 95.9444 2.18095 -6.09133 0
M  V30 1034 N 96.0765 1.50051 0.48192 0
M  V30 1035 C 97.3065 1.63999 1.2565 0
M  V30 1036 C 97.7145 0.318288 1.86504 0
M  V30 1037 O 97.0575 -0.708534 1.69486 0
M  V30 1038 C 97.1195 2.66504 2.4128 0
M  V30 1039 C 96.7835 4.10352 2.01148 0
M  V30 1040 C 97.7805 4.96562 1.54021 0
M  V30 1041 C 95.4655 4.56203 2.10199 0
M  V30 1042 C 97.4595 6.26668 1.16473 0
M  V30 1043 C 95.1465 5.86318 1.72264 0
M  V30 1044 C 96.1445 6.71375 1.25477 0
M  V30 1045 O 95.8325 7.99062 0.880626 0
M  V30 1046 H 95.5645 0.55456 0.386574 0
M  V30 1047 H 98.1185 1.96954 0.582944 0
M  V30 1048 H 96.3485 2.28769 3.11772 0
M  V30 1049 H 98.0375 2.69783 3.03268 0
M  V30 1050 H 98.8035 4.62358 1.46458 0
M  V30 1051 H 94.6825 3.90152 2.45566 0
M  V30 1052 H 98.2265 6.93011 0.798841 0
M  V30 1053 H 94.1235 6.20046 1.79482 0
M  V30 1054 H 94.8915 8.12239 1.01043 0
M  V30 1055 N 97.5546 -0.734337 1.39446 0
M  V30 1056 C 98.5016 -1.84835 1.38219 0
M  V30 1057 C 99.4716 -1.64331 0.24179 0
M  V30 1058 O 100.657 -1.85728 0.437002 0
M  V30 1059 C 97.7966 -3.22355 1.23212 0
M  V30 1060 C 96.9096 -3.5456 2.46801 0
M  V30 1061 C 96.0446 -4.81485 2.24377 0
M  V30 1062 C 95.0836 -5.06536 3.43639 0
M  V30 1063 N 94.2206 -6.24665 3.20528 0
M  V30 1064 H 99.0606 -1.85219 2.33448 0
M  V30 1065 H 96.5976 -0.905039 1.15963 0
M  V30 1066 H 98.5556 -4.0174 1.12522 0
M  V30 1067 H 97.1856 -3.21248 0.316121 0
M  V30 1068 H 96.2376 -2.69872 2.68092 0
M  V30 1069 H 97.5496 -3.6899 3.3563 0
M  V30 1070 H 96.7036 -5.68852 2.10933 0
M  V30 1071 H 95.4426 -4.6923 1.32944 0
M  V30 1072 H 94.4476 -4.17632 3.5758 0
M  V30 1073 H 95.6726 -5.20676 4.35974 0
M  V30 1074 H 93.6186 -6.13696 2.3176 0
M  V30 1075 H 93.5356 -6.39685 4.02913 0
M  V30 1076 H 94.8036 -7.14868 3.10779 0
M  V30 1077 N 99.0327 -1.24633 -0.964593 0
M  V30 1078 C 99.9627 -1.06611 -2.07741 0
M  V30 1079 C 100.944 0.0218666 -1.70086 0
M  V30 1080 O 102.129 -0.145793 -1.93652 0
M  V30 1081 C 99.2587 -0.673444 -3.40708 0
M  V30 1082 C 98.2127 -1.71054 -3.92332 0
M  V30 1083 C 97.5387 -1.17285 -5.21678 0
M  V30 1084 C 98.8387 -3.10718 -4.19824 0
M  V30 1085 H 100.533 -1.99693 -2.23076 0
M  V30 1086 H 98.0787 -0.96152 -1.07195 0
M  V30 1087 H 100.032 -0.534345 -4.17998 0
M  V30 1088 H 98.7557 0.293073 -3.25282 0
M  V30 1089 H 97.4147 -1.83791 -3.17201 0
M  V30 1090 H 97.0627 -0.196847 -5.02615 0
M  V30 1091 H 96.7627 -1.86592 -5.57187 0
M  V30 1092 H 98.2867 -1.04593 -6.01575 0
M  V30 1093 H 99.7007 -3.01192 -4.87808 0
M  V30 1094 H 98.0977 -3.77406 -4.66567 0
M  V30 1095 H 99.1677 -3.58524 -3.26479 0
M  V30 1096 N 100.511 1.16574 -1.06058 0
M  V30 1097 C 101.459 2.22941 -0.663343 0
M  V30 1098 C 102.453 1.66358 0.319593 0
M  V30 1099 O 103.659 1.7905 0.184713 0
M  V30 1100 H 100.034 0.725907 -0.196376 0
M  V30 1101 H 102.005 2.53736 -1.57037 0
M  V30 1102 C 100.754 3.47642 -0.0632808 0
M  V30 1103 H 100.077 3.91493 -0.810733 0
M  V30 1104 H 101.517 4.2363 0.177177 0
M  V30 1105 C 99.9758 3.1509 1.19248 0
M  V30 1106 O 100.506 3.30673 2.28075 0
M  V30 1107 N 98.7118 2.6924 1.09353 0
M  V30 1108 H 98.2588 2.5676 0.207912 0
M  V30 1109 H 98.2168 2.47833 1.93458 0
M  V30 1110 N 101.989 0.842826 1.3317 0
M  V30 1111 C 102.899 0.281444 2.32906 0
M  V30 1112 C 103.915 -0.594587 1.63526 0
M  V30 1113 O 105.091 -0.49777 1.95152 0
M  V30 1114 C 102.156 -0.530929 3.42611 0
M  V30 1115 C 101.217 0.369843 4.27704 0
M  V30 1116 C 100.45 -0.403853 5.3217 0
M  V30 1117 O 100.673 -1.63513 5.46461 0
M  V30 1118 O 99.6069 0.224199 6.01482 0
M  V30 1119 H 103.433 1.10744 2.82789 0
M  V30 1120 H 101.018 0.60545 1.36582 0
M  V30 1121 H 102.9 -0.992437 4.09547 0
M  V30 1122 H 101.575 -1.33392 2.94938 0
M  V30 1123 H 100.482 0.879275 3.6362 0
M  V30 1124 H 101.815 1.13771 4.78871 0
M  V30 1125 N 103.467 -1.45747 0.599634 0
M  V30 1126 C 104.744 -1.95585 0.0240846 0
M  V30 1127 C 105.124 -1.54217 -1.44154 0
M  V30 1128 O 104.472 -0.800903 -2.14004 0
M  V30 1129 C 104.682 -3.48344 0.21385 0
M  V30 1130 C 106.03 -4.24504 0.0904902 0
M  V30 1131 O 107.054 -3.55911 0.143558 0
M  V30 1132 O 105.913 -5.46491 -0.0310766 0
M  V30 1133 H 103.007 -0.82602 -0.0402478 0
M  V30 1134 H 105.553 -1.55951 0.669139 0
M  V30 1135 H 104.325 -3.71397 1.23206 0
M  V30 1136 H 103.948 -3.9485 -0.466842 0
M  V30 1137 N 104.945 -0.338344 -1.53925 0
M  V30 1138 C 105.878 0.563758 -2.21127 0
M  V30 1139 C 106.856 1.10433 -1.19345 0
M  V30 1140 O 108.04 1.16557 -1.48144 0
M  V30 1141 C 105.167 1.77505 -2.88461 0
M  V30 1142 C 104.213 1.3644 -4.04087 0
M  V30 1143 S 105.046 0.388593 -5.34088 0
M  V30 1144 C 106.202 1.60683 -6.04923 0
M  V30 1145 H 106.435 -0.00704546 -2.97299 0
M  V30 1146 H 103.968 -0.122418 -1.53914 0
M  V30 1147 H 105.926 2.46999 -3.27875 0
M  V30 1148 H 104.587 2.31706 -2.12064 0
M  V30 1149 H 103.78 2.26739 -4.50117 0
M  V30 1150 H 103.382 0.748998 -3.66423 0
M  V30 1151 H 105.674 2.54209 -6.28 0
M  V30 1152 H 106.617 1.18842 -6.98056 0
M  V30 1153 H 107.025 1.80052 -5.35015 0
M  V30 1154 N 106.423 1.57458 -0.0668435 0
M  V30 1155 C 107.386 2.11323 0.887422 0
M  V30 1156 C 108.386 1.03618 1.22964 0
M  V30 1157 O 109.576 1.29626 1.16373 0
M  V30 1158 C 106.708 2.61048 2.19242 0
M  V30 1159 H 107.901 2.96942 0.420194 0
M  V30 1160 H 105.454 1.55239 0.181793 0
M  V30 1161 H 106.189 1.78868 2.70512 0
M  V30 1162 H 105.974 3.39769 1.95702 0
M  V30 1163 H 107.464 3.02814 2.87565 0
M  V30 1164 N 107.901 -0.206675 1.56239 0
M  V30 1165 C 109.141 -0.93574 1.81723 0
M  V30 1166 C 109.505 -1.80927 0.642609 0
M  V30 1167 O 110.706 -2.57323 0.777081 0
M  V30 1168 C 108.977 -1.74012 3.12177 0
M  V30 1169 S 110.536 -2.52279 3.59028 0
M  V30 1170 H 107.354 -0.314065 0.637875 0
M  V30 1171 H 109.956 -0.200071 1.94474 0
M  V30 1172 H 108.66 -1.0888 3.95693 0
M  V30 1173 H 108.191 -2.51782 3.02274 0
M  V30 1174 H 110.206 -3.76209 3.23545 0
M  V30 1175 N 109.379 -1.50304 -0.473955 0
M  V30 1176 C 110.604 -1.65175 -1.25427 0
M  V30 1177 C 111.029 -0.333673 -1.85117 0
M  V30 1178 O 110.387 0.702114 -1.67153 0
M  V30 1179 C 110.435 -2.74295 -2.34082 0
M  V30 1180 O 109.539 -2.35349 -3.38651 0
M  V30 1181 H 108.88 -0.551944 -0.369126 0
M  V30 1182 H 111.41 -1.96662 -0.564364 0
M  V30 1183 H 111.42 -2.97285 -2.79438 0
M  V30 1184 H 110.095 -3.69959 -1.90008 0
M  V30 1185 H 108.672 -2.22794 -2.99027 0
M  V30 1186 N 110.857 0.726932 -1.39834 0
M  V30 1187 C 112.103 1.48884 -1.377 0
M  V30 1188 C 112.436 1.94185 0.0244852 0
M  V30 1189 O 111.711 1.67361 0.990986 0
M  V30 1190 C 111.994 2.72288 -2.3565 0
M  V30 1191 C 111.847 2.32956 -3.84775 0
M  V30 1192 C 113.166 3.74414 -2.31306 0
M  V30 1193 H 110.285 0.540062 -0.5015 0
M  V30 1194 H 112.927 0.830547 -1.70886 0
M  V30 1195 H 111.077 3.28457 -2.07481 0
M  V30 1196 H 112.749 1.82356 -4.23726 0
M  V30 1197 H 110.992 1.65088 -4.01159 0
M  V30 1198 H 111.663 3.21362 -4.4881 0
M  V30 1199 H 114.139 3.27849 -2.56231 0
M  V30 1200 H 113.015 4.58414 -3.01907 0
M  V30 1201 H 113.276 4.21909 -1.32081 0
M  V30 1202 N 112.336 1.25143 0.95797 0
M  V30 1203 C 113.299 1.05321 2.03569 0
M  V30 1204 C 114.299 0.007152 1.60798 0
M  V30 1205 O 115.489 0.24903 1.72411 0
M  V30 1206 C 112.621 0.598394 3.35607 0
M  V30 1207 H 113.814 2.00986 2.22586 0
M  V30 1208 H 111.367 1.07502 1.13459 0
M  V30 1209 H 112.102 -0.361014 3.22284 0
M  V30 1210 H 111.887 1.35351 3.67998 0
M  V30 1211 H 113.377 0.48104 4.1482 0
M  V30 1212 N 113.814 -1.1601 1.06675 0
M  V30 1213 C 115.062 -1.86264 0.784229 0
M  V30 1214 C 115.383 -1.82328 -0.691488 0
M  V30 1215 O 114.653 -1.25947 -1.50047 0
M  V30 1216 H 113.233 -0.689621 0.28711 0
M  V30 1217 H 115.895 -1.40664 1.34906 0
M  V30 1218 H 114.991 -2.91595 1.11259 0
M  V30 1219 N 115.292 -0.849877 -1.32721 0
M  V30 1220 C 116.541 -0.447175 -1.96681 0
M  V30 1221 C 116.854 1.00135 -1.68025 0
M  V30 1222 O 118.06 1.50926 -2.25685 0
M  V30 1223 C 116.516 -0.7487 -3.52026 0
M  V30 1224 C 116.124 -2.21264 -3.89546 0
M  V30 1225 C 117.868 -0.413487 -4.22481 0
M  V30 1226 C 115.775 -2.45763 -5.37917 0
M  V30 1227 H 114.705 -0.163486 -0.736063 0
M  V30 1228 H 117.356 -1.03999 -1.51183 0
M  V30 1229 H 115.738 -0.0853727 -3.95908 0
M  V30 1230 H 116.912 -2.91736 -3.56689 0
M  V30 1231 H 115.227 -2.5119 -3.32103 0
M  V30 1232 H 117.824 -0.574017 -5.3161 0
M  V30 1233 H 118.167 0.644492 -4.11281 0
M  V30 1234 H 118.7 -1.03251 -3.84167 0
M  V30 1235 H 115.439 -3.50168 -5.54132 0
M  V30 1236 H 114.959 -1.79864 -5.72197 0
M  V30 1237 H 116.638 -2.29471 -6.0494 0
M  V30 1238 N 116.77 1.45427 -0.607355 0
M  V30 1239 C 117.998 2.06614 -0.108814 0
M  V30 1240 C 118.413 1.45204 1.2067 0
M  V30 1241 O 117.77 0.566132 1.73497 0
M  V30 1242 C 117.821 3.61481 0.0375347 0
M  V30 1243 O 117.542 4.20598 -1.22593 0
M  V30 1244 C 119.043 4.39652 0.567561 0
M  V30 1245 H 116.263 0.66747 -0.0687351 0
M  V30 1246 H 118.807 1.86675 -0.835022 0
M  V30 1247 H 116.962 3.80762 0.714068 0
M  V30 1248 H 117.376 5.1377 -1.05547 0
M  V30 1249 H 118.85 5.48518 0.61905 0
M  V30 1250 H 119.327 4.09417 1.58978 0
M  V30 1251 H 119.933 4.25234 -0.0749202 0
M  V30 1252 N 118.248 0.346503 1.53744 0
M  V30 1253 C 119.473 -0.253074 2.0585 0
M  V30 1254 C 119.898 -1.43202 1.21962 0
M  V30 1255 O 119.256 -1.79783 0.234073 0
M  V30 1256 C 119.304 -0.643193 3.54817 0
M  V30 1257 O 118.408 -1.74286 3.73762 0
M  V30 1258 H 117.749 -0.0413583 0.662711 0
M  V30 1259 H 120.279 0.501574 1.98357 0
M  V30 1260 H 120.289 -0.919526 3.97503 0
M  V30 1261 H 118.964 0.218966 4.15323 0
M  V30 1262 H 117.541 -1.46356 3.42979 0
M  V30 1263 N 119.726 -1.57421 0.075193 0
M  V30 1264 C 121.003 -1.85029 -0.634329 0
M  V30 1265 C 121.383 -0.968305 -1.87582 0
M  V30 1266 O 120.731 -0.0354749 -2.28472 0
M  V30 1267 C 120.941 -3.35286 -0.968742 0
M  V30 1268 C 122.289 -4.02875 -1.34077 0
M  V30 1269 O 123.313 -3.40051 -1.06037 0
M  V30 1270 O 122.172 -5.13691 -1.86506 0
M  V30 1271 H 119.266 -0.7645 -0.315387 0
M  V30 1272 H 121.812 -1.69366 0.106382 0
M  V30 1273 H 120.584 -3.91203 -0.0871376 0
M  V30 1274 H 120.207 -3.56223 -1.7661 0
M  V30 1275 N 121.204 0.198386 -1.56346 0
M  V30 1276 C 122.167 1.22952 -1.93431 0
M  V30 1277 C 123.167 1.38611 -0.815092 0
M  V30 1278 O 124.357 1.36479 -1.08255 0
M  V30 1279 C 121.489 2.59946 -2.20546 0
M  V30 1280 H 122.682 0.912626 -2.85677 0
M  V30 1281 H 120.235 0.43977 -1.49986 0
M  V30 1282 H 120.97 2.96696 -1.30927 0
M  V30 1283 H 120.755 2.49953 -3.02102 0
M  V30 1284 H 122.245 3.3431 -2.50253 0
M  V30 1285 N 122.682 1.50554 0.465978 0
M  V30 1286 C 123.63 1.70324 1.58406 0
M  V30 1287 C 124.624 0.569139 1.59553 0
M  V30 1288 O 125.83 0.749776 1.63641 0
M  V30 1289 H 122.205 0.537688 0.525734 0
M  V30 1290 H 124.176 2.64104 1.38894 0
M  V30 1291 C 122.925 1.81928 2.96307 0
M  V30 1292 H 122.248 2.68586 2.96144 0
M  V30 1293 H 123.688 1.99784 3.73982 0
M  V30 1294 C 122.147 0.572095 3.32007 0
M  V30 1295 O 122.677 -0.286416 4.00678 0
M  V30 1296 N 120.883 0.424606 2.87481 0
M  V30 1297 H 120.43 1.12427 2.31771 0
M  V30 1298 H 120.388 -0.408697 3.11732 0
M  V30 1299 N 124.16 -0.719506 1.40217 0
M  V30 1300 C 125.406 -1.48152 1.38488 0
M  V30 1301 C 125.739 -1.94195 -0.0141867 0
M  V30 1302 O 125.014 -1.67884 -0.982096 0
M  V30 1303 C 125.297 -2.71035 2.37091 0
M  V30 1304 C 125.15 -2.30912 3.86005 0
M  V30 1305 C 126.469 -3.73182 2.33288 0
M  V30 1306 H 123.588 -0.537395 0.504357 0
M  V30 1307 H 126.23 -0.821472 1.71324 0
M  V30 1308 H 124.38 -3.27352 2.0922 0
M  V30 1309 H 126.052 -1.80107 4.24687 0
M  V30 1310 H 124.295 -1.62958 4.02029 0
M  V30 1311 H 124.966 -3.18978 4.50508 0
M  V30 1312 H 127.442 -3.26485 2.57966 0
M  V30 1313 H 126.318 -4.56806 3.04334 0
M  V30 1314 H 126.579 -4.21202 1.34317 0
M  V30 1315 N 125.638 -1.25649 -0.95132 0
M  V30 1316 C 126.568 -1.08808 -2.06599 0
M  V30 1317 C 127.549 0.00382547 -1.701 0
M  V30 1318 O 128.734 -0.166325 -1.93486 0
M  V30 1319 C 125.864 -0.709542 -3.39975 0
M  V30 1320 C 124.818 -1.75206 -3.90496 0
M  V30 1321 C 124.144 -1.22811 -5.20405 0
M  V30 1322 C 125.444 -3.15153 -4.16504 0
M  V30 1323 H 127.138 -2.02048 -2.20946 0
M  V30 1324 H 124.684 -0.972835 -1.06169 0
M  V30 1325 H 126.637 -0.578649 -4.17408 0
M  V30 1326 H 125.361 0.258556 -3.25575 0
M  V30 1327 H 124.02 -1.87145 -3.15234 0
M  V30 1328 H 123.668 -0.250145 -5.02378 0
M  V30 1329 H 123.368 -1.92492 -5.55176 0
M  V30 1330 H 124.892 -1.10968 -6.00432 0
M  V30 1331 H 126.306 -3.06349 -4.84586 0
M  V30 1332 H 124.703 -3.82333 -4.62538 0
M  V30 1333 H 125.773 -3.61966 -3.22658 0
M  V30 1334 N 127.117 1.15442 -1.07289 0
M  V30 1335 C 128.345 1.90096 -0.81676 0
M  V30 1336 C 128.76 1.7798 0.629966 0
M  V30 1337 O 128.117 1.1313 1.43206 0
M  V30 1338 C 128.168 3.40466 -1.21512 0
M  V30 1339 O 127.889 3.52232 -2.60508 0
M  V30 1340 C 129.39 4.32145 -0.988198 0
M  V30 1341 H 126.61 0.602495 -0.295366 0
M  V30 1342 H 129.154 1.4627 -1.42918 0
M  V30 1343 H 127.309 3.81958 -0.647039 0
M  V30 1344 H 127.723 4.45549 -2.76742 0
M  V30 1345 H 129.197 5.36072 -1.31645 0
M  V30 1346 H 129.674 4.39135 0.0755063 0
M  V30 1347 H 130.28 3.96395 -1.54115 0
M  V30 1348 N 128.595 0.856903 1.32268 0
M  V30 1349 C 129.543 0.291987 2.3076 0
M  V30 1350 C 130.537 -0.585857 1.58947 0
M  V30 1351 O 131.743 -0.47341 1.73663 0
M  V30 1352 H 128.118 0.075721 0.748178 0
M  V30 1353 H 130.089 1.13687 2.75895 0
M  V30 1354 C 128.838 -0.502869 3.44044 0
M  V30 1355 H 128.161 0.163328 3.99466 0
M  V30 1356 H 129.601 -0.863691 4.1511 0
M  V30 1357 C 128.06 -1.68898 2.91505 0
M  V30 1358 O 128.59 -2.78811 2.89184 0
M  V30 1359 N 126.796 -1.51679 2.47875 0
M  V30 1360 H 126.343 -0.622666 2.49961 0
M  V30 1361 H 126.301 -2.31184 2.13076 0
M  V30 1362 N 130.073 -1.45103 0.615059 0
M  V30 1363 C 130.983 -2.34382 -0.101034 0
M  V30 1364 C 131.999 -1.51681 -0.852585 0
M  V30 1365 O 133.175 -1.8446 -0.808484 0
M  V30 1366 C 130.24 -3.29417 -1.08099 0
M  V30 1367 C 129.301 -4.28025 -0.330577 0
M  V30 1368 C 128.534 -5.1852 -1.26385 0
M  V30 1369 O 128.757 -5.12598 -2.50198 0
M  V30 1370 O 127.691 -5.97122 -0.756866 0
M  V30 1371 H 131.517 -2.97033 0.632855 0
M  V30 1372 H 129.102 -1.4461 0.375293 0
M  V30 1373 H 130.984 -3.87958 -1.6452 0
M  V30 1374 H 129.659 -2.69321 -1.79577 0
M  V30 1375 H 128.566 -3.73078 0.276283 0
M  V30 1376 H 129.899 -4.90997 0.343866 0
M  V30 1377 N 131.551 -0.354651 -1.53558 0
M  V30 1378 C 132.481 0.489091 -2.2832 0
M  V30 1379 C 133.462 1.09324 -1.30316 0
M  V30 1380 O 134.647 1.11255 -1.59173 0
M  V30 1381 C 131.777 1.63456 -3.0643 0
M  V30 1382 C 130.731 1.1582 -4.12031 0
M  V30 1383 C 130.057 2.39305 -4.7816 0
M  V30 1384 C 131.357 0.250731 -5.21698 0
M  V30 1385 H 133.051 -0.134614 -2.99097 0
M  V30 1386 H 130.597 -0.0661826 -1.43848 0
M  V30 1387 H 132.55 2.23136 -3.57475 0
M  V30 1388 H 131.274 2.28533 -2.33325 0
M  V30 1389 H 129.933 0.584146 -3.61916 0
M  V30 1390 H 129.581 3.02814 -4.01637 0
M  V30 1391 H 129.281 2.08109 -5.49513 0
M  V30 1392 H 130.805 2.99691 -5.31994 0
M  V30 1393 H 132.219 0.754695 -5.68311 0
M  V30 1394 H 130.616 0.0301468 -6.00092 0
M  V30 1395 H 131.686 -0.710125 -4.79672 0
M  V30 1396 N 133.029 1.57378 -0.0835403 0
M  V30 1397 C 134.445 1.57246 0.273109 0
M  V30 1398 C 134.645 1.09385 1.69225 0
M  V30 1399 O 133.701 0.765051 2.40631 0
M  V30 1400 C 135.014 3.00614 0.0720628 0
M  V30 1401 C 136.562 3.12684 0.1407 0
M  V30 1402 C 137.037 4.57989 -0.0322094 0
M  V30 1403 N 138.528 4.63194 0.0230085 0
M  V30 1404 C 139.263 5.73335 -0.0861941 0
M  V30 1405 N 138.759 6.9235 -0.24958 0
M  V30 1406 N 140.552 5.62093 -0.0282886 0
M  V30 1407 H 132.703 1.86801 -1.0109 0
M  V30 1408 H 134.966 0.861687 -0.395222 0
M  V30 1409 H 134.672 3.39786 -0.907662 0
M  V30 1410 H 134.546 3.68193 0.81936 0
M  V30 1411 H 136.933 2.73391 1.11092 0
M  V30 1412 H 137.014 2.47719 -0.637896 0
M  V30 1413 H 136.658 4.97973 -0.999247 0
M  V30 1414 H 136.588 5.21 0.765937 0
M  V30 1415 H 139.079 3.77613 0.14722 0
M  V30 1416 H 139.392 7.72117 -0.324733 0
M  V30 1417 H 137.737 6.94415 -0.285097 0
M  V30 1418 H 140.928 4.67997 0.0981408 0
M  V30 1419 H 141.101 6.47895 -0.116845 0
M  V30 1420 N 134.507 -0.190092 1.56449 0
M  V30 1421 C 135.437 -1.23816 1.97969 0
M  V30 1422 C 136.418 -1.47201 0.852395 0
M  V30 1423 O 137.603 -1.58854 1.1171 0
M  V30 1424 C 134.733 -2.5813 2.3235 0
M  V30 1425 C 133.687 -2.49348 3.47864 0
M  V30 1426 C 133.013 -3.8798 3.67934 0
M  V30 1427 C 134.313 -2.01424 4.81898 0
M  V30 1428 H 136.007 -0.89311 2.85769 0
M  V30 1429 H 133.553 -0.428177 1.37487 0
M  V30 1430 H 135.506 -3.31637 2.59991 0
M  V30 1431 H 134.23 -2.94386 1.41438 0
M  V30 1432 H 132.889 -1.78297 3.20321 0
M  V30 1433 H 132.537 -4.21597 2.74344 0
M  V30 1434 H 132.237 -3.82978 4.45648 0
M  V30 1435 H 133.761 -4.63101 3.97957 0
M  V30 1436 H 135.175 -2.64693 5.08538 0
M  V30 1437 H 133.572 -2.07413 5.63116 0
M  V30 1438 H 134.642 -0.967677 4.75146 0
M  V30 1439 N 135.985 -1.50799 -0.457987 0
M  V30 1440 C 137.234 -1.6168 -1.20593 0
M  V30 1441 C 137.547 -0.32888 -1.92815 0
M  V30 1442 O 138.753 -0.316773 -2.69646 0
M  V30 1443 C 137.209 -2.8545 -2.19195 0
M  V30 1444 C 136.817 -4.21168 -1.52715 0
M  V30 1445 C 138.561 -3.05681 -2.94549 0
M  V30 1446 C 136.468 -5.3611 -2.4968 0
M  V30 1447 H 135.398 -0.602134 -0.453818 0
M  V30 1448 H 138.049 -1.77245 -0.475031 0
M  V30 1449 H 136.431 -2.63472 -2.95632 0
M  V30 1450 H 137.605 -4.53449 -0.819775 0
M  V30 1451 H 135.92 -4.06648 -0.895922 0
M  V30 1452 H 138.517 -3.88727 -3.67145 0
M  V30 1453 H 138.86 -2.17929 -3.54701 0
M  V30 1454 H 139.393 -3.27901 -2.25223 0
M  V30 1455 H 136.132 -6.26057 -1.94249 0
M  V30 1456 H 135.652 -5.0823 -3.18532 0
M  V30 1457 H 137.331 -5.6722 -3.11241 0
M  V30 1458 N 137.463 0.71206 -1.40597 0
M  V30 1459 C 138.426 1.80785 -1.40888 0
M  V30 1460 C 139.426 1.57937 -0.302103 0
M  V30 1461 O 140.616 1.64913 -0.561182 0
M  V30 1462 C 137.748 3.18927 -1.20409 0
M  V30 1463 H 138.941 1.81924 -2.38419 0
M  V30 1464 H 136.494 0.91805 -1.26497 0
M  V30 1465 H 137.229 3.23436 -0.236522 0
M  V30 1466 H 137.014 3.36911 -2.00582 0
M  V30 1467 H 138.504 3.98949 -1.23408 0
M  V30 1468 N 138.941 1.26152 0.944643 0
M  V30 1469 C 139.873 1.03199 2.04652 0
M  V30 1470 C 140.886 -0.00642356 1.62799 0
M  V30 1471 O 142.075 0.233263 1.76969 0
M  V30 1472 C 139.175 0.540111 3.34568 0
M  V30 1473 C 138.348 1.64697 4.05208 0
M  V30 1474 C 137.407 1.15374 5.13396 0
M  V30 1475 O 136.433 1.85013 5.38293 0
M  V30 1476 N 137.635 0.00031529 5.805 0
M  V30 1477 H 140.4 1.9808 2.2491 0
M  V30 1478 H 137.961 1.17491 1.11389 0
M  V30 1479 H 139.953 0.194401 4.04233 0
M  V30 1480 H 138.523 -0.315021 3.11009 0
M  V30 1481 H 137.743 2.16379 3.29506 0
M  V30 1482 H 139.031 2.3903 4.49157 0
M  V30 1483 H 138.429 -0.581336 5.62705 0
M  V30 1484 H 136.986 -0.286346 6.51171 0
M  V30 1485 N 140.419 -1.14872 1.07899 0
M  V30 1486 C 141.835 -1.37776 0.805606 0
M  V30 1487 C 142.035 -1.92743 -0.587555 0
M  V30 1488 O 141.091 -2.13678 -1.34528 0
M  V30 1489 C 142.404 -2.34361 1.88402 0
M  V30 1490 C 143.952 -2.48012 1.90942 0
M  V30 1491 C 144.427 -3.47893 2.97883 0
M  V30 1492 N 145.918 -3.55433 2.97021 0
M  V30 1493 C 146.653 -4.32553 3.76412 0
M  V30 1494 N 146.149 -5.12959 4.65666 0
M  V30 1495 N 147.942 -4.27697 3.64735 0
M  V30 1496 H 140.093 -0.775365 1.97742 0
M  V30 1497 H 142.356 -0.403521 0.857831 0
M  V30 1498 H 142.062 -2.01098 2.88535 0
M  V30 1499 H 141.936 -3.34206 1.74889 0
M  V30 1500 H 144.323 -2.8057 0.914579 0
M  V30 1501 H 144.404 -1.48147 2.08534 0
M  V30 1502 H 144.048 -3.16069 3.97571 0
M  V30 1503 H 143.978 -4.47527 2.77538 0
M  V30 1504 H 146.469 -2.98048 2.32326 0
M  V30 1505 H 146.782 -5.69065 5.22862 0
M  V30 1506 H 145.127 -5.12245 4.69712 0
M  V30 1507 H 148.318 -3.63949 2.94378 0
M  V30 1508 H 148.491 -4.8755 4.26848 0
M  V30 1509 N 141.898 -0.863906 -1.31812 0
M  V30 1510 C 143.128 -0.485406 -2.00817 0
M  V30 1511 C 143.536 0.925007 -1.65046 0
M  V30 1512 O 142.879 1.61653 -0.872574 0
M  V30 1513 C 142.941 -0.555589 -3.55181 0
M  V30 1514 C 142.605 -1.92654 -4.14407 0
M  V30 1515 C 143.602 -2.89324 -4.31958 0
M  V30 1516 C 141.287 -2.2262 -4.50273 0
M  V30 1517 C 143.281 -4.14108 -4.84555 0
M  V30 1518 C 140.968 -3.47654 -5.02573 0
M  V30 1519 C 141.966 -4.43214 -5.19664 0
M  V30 1520 O 141.654 -5.66033 -5.70843 0
M  V30 1521 H 141.386 -0.188224 -0.649267 0
M  V30 1522 H 143.94 -1.16514 -1.69156 0
M  V30 1523 H 142.17 0.181037 -3.86276 0
M  V30 1524 H 143.859 -0.19138 -4.05449 0
M  V30 1525 H 144.625 -2.6748 -4.04573 0
M  V30 1526 H 140.504 -1.4902 -4.3625 0
M  V30 1527 H 144.048 -4.88703 -4.9781 0
M  V30 1528 H 139.945 -3.69345 -5.29391 0
M  V30 1529 H 140.713 -5.6812 -5.89222 0
M  V30 1530 N 143.376 1.44774 -0.622745 0
M  V30 1531 C 144.306 2.33382 0.0741861 0
M  V30 1532 C 145.287 1.47719 0.843387 0
M  V30 1533 O 146.472 1.76458 0.810934 0
M  V30 1534 C 143.602 3.30663 1.06204 0
M  V30 1535 C 142.556 4.26079 0.405037 0
M  V30 1536 C 141.882 5.13165 1.5022 0
M  V30 1537 C 143.182 5.1781 -0.683414 0
M  V30 1538 H 144.876 2.91905 -0.665713 0
M  V30 1539 H 142.422 1.40363 -0.321587 0
M  V30 1540 H 144.375 3.9153 1.55827 0
M  V30 1541 H 143.099 2.70331 1.83272 0
M  V30 1542 H 141.758 3.66532 -0.0704683 0
M  V30 1543 H 141.406 4.49191 2.26355 0
M  V30 1544 H 141.106 5.77812 1.06803 0
M  V30 1545 H 142.63 5.76902 2.00041 0
M  V30 1546 H 144.044 5.72661 -0.270631 0
M  V30 1547 H 142.441 5.91015 -1.04023 0
M  V30 1548 H 143.511 4.59326 -1.55395 0
M  V30 1549 N 144.854 0.36279 1.53368 0
M  V30 1550 C 145.784 -0.476976 2.28576 0
M  V30 1551 C 146.765 -1.08631 1.30894 0
M  V30 1552 O 147.95 -1.10409 1.59761 0
M  V30 1553 C 145.08 -1.61828 3.07293 0
M  V30 1554 C 144.034 -1.13633 4.1264 0
M  V30 1555 C 143.36 -2.36766 4.79423 0
M  V30 1556 C 144.66 -0.223061 5.21823 0
M  V30 1557 H 146.354 0.150474 2.99022 0
M  V30 1558 H 143.9 0.0738103 1.43811 0
M  V30 1559 H 145.853 -2.21237 3.58653 0
M  V30 1560 H 144.577 -2.27292 2.34533 0
M  V30 1561 H 143.236 -0.564945 3.62221 0
M  V30 1562 H 142.884 -3.0068 4.03238 0
M  V30 1563 H 142.584 -2.05192 5.50609 0
M  V30 1564 H 144.108 -2.96865 5.33576 0
M  V30 1565 H 145.522 -0.724545 5.68703 0
M  V30 1566 H 143.919 0.001678 6.001 0
M  V30 1567 H 144.989 0.735553 4.79289 0
M  V30 1568 N 146.332 -1.57332 0.0918853 0
M  V30 1569 C 147.264 -2.10869 -0.898168 0
M  V30 1570 C 148.277 -1.04521 -1.24817 0
M  V30 1571 O 149.466 -1.31977 -1.20184 0
M  V30 1572 C 146.566 -2.57083 -2.2082 0
M  V30 1573 C 145.739 -3.87229 -2.03402 0
M  V30 1574 C 144.798 -4.19324 -3.17889 0
M  V30 1575 O 143.824 -4.88598 -2.91994 0
M  V30 1576 N 145.026 -3.74471 -4.43567 0
M  V30 1577 H 147.791 -2.96439 -0.440943 0
M  V30 1578 H 145.352 -1.61631 -0.0933064 0
M  V30 1579 H 147.344 -2.75602 -2.96354 0
M  V30 1580 H 145.914 -1.76541 -2.57977 0
M  V30 1581 H 145.134 -3.7789 -1.12218 0
M  V30 1582 H 146.422 -4.72379 -1.89038 0
M  V30 1583 H 145.82 -3.18546 -4.67488 0
M  V30 1584 H 144.377 -3.98151 -5.16061 0
M  V30 1585 N 147.81 0.181792 -1.56548 0
M  V30 1586 C 149.04 0.914618 -1.85252 0
M  V30 1587 C 149.448 1.76791 -0.673914 0
M  V30 1588 O 148.791 1.80009 0.366416 0
M  V30 1589 C 148.853 1.85019 -3.08234 0
M  V30 1590 C 148.517 1.17754 -4.41569 0
M  V30 1591 C 149.514 0.548035 -5.17003 0
M  V30 1592 C 147.199 1.17742 -4.88305 0
M  V30 1593 C 149.193 -0.0726128 -6.37359 0
M  V30 1594 C 146.88 0.552946 -6.08593 0
M  V30 1595 C 147.878 -0.070978 -6.82963 0
M  V30 1596 O 147.566 -0.685635 -8.00971 0
M  V30 1597 H 147.298 0.271695 -0.618998 0
M  V30 1598 H 149.852 0.189944 -2.0452 0
M  V30 1599 H 148.082 2.61491 -2.84885 0
M  V30 1600 H 149.771 2.45195 -3.23472 0
M  V30 1601 H 150.537 0.540174 -4.81982 0
M  V30 1602 H 146.416 1.65246 -4.30366 0
M  V30 1603 H 149.96 -0.560213 -6.95347 0
M  V30 1604 H 145.857 0.558354 -6.43081 0
M  V30 1605 H 146.625 -0.58385 -8.16415 0
M  V30 1606 N 149.288 1.51039 0.449983 0
M  V30 1607 C 150.22 1.67617 1.56324 0
M  V30 1608 C 151.233 0.557083 1.52972 0
M  V30 1609 O 152.422 0.830989 1.57977 0
M  V30 1610 C 149.522 1.66402 2.95235 0
M  V30 1611 C 148.695 2.9469 3.23229 0
M  V30 1612 C 147.754 2.85832 4.41799 0
M  V30 1613 O 146.78 3.59785 4.41071 0
M  V30 1614 N 147.982 2.00821 5.44657 0
M  V30 1615 H 150.747 2.63648 1.42512 0
M  V30 1616 H 148.308 1.48767 0.638737 0
M  V30 1617 H 150.3 1.58062 3.72557 0
M  V30 1618 H 148.87 0.780182 3.02708 0
M  V30 1619 H 148.09 3.16996 2.34323 0
M  V30 1620 H 149.378 3.79636 3.38754 0
M  V30 1621 H 148.776 1.40091 5.48079 0
M  V30 1622 H 147.333 1.98368 6.20881 0
M  V30 1623 N 150.766 -0.704594 1.40972 0
M  V30 1624 C 151.676 -1.84856 1.44448 0
M  V30 1625 C 152.692 -1.70726 0.335961 0
M  V30 1626 O 153.868 -1.92799 0.582276 0
M  V30 1627 C 150.933 -3.20758 1.31587 0
M  V30 1628 C 149.994 -3.47063 2.52677 0
M  V30 1629 C 149.227 -4.76481 2.4042 0
M  V30 1630 O 149.45 -5.52341 1.42391 0
M  V30 1631 O 148.384 -5.03367 3.30007 0
M  V30 1632 H 152.21 -1.8488 2.40942 0
M  V30 1633 H 149.795 -0.85647 1.22413 0
M  V30 1634 H 151.677 -4.01913 1.26665 0
M  V30 1635 H 150.352 -3.21438 0.382049 0
M  V30 1636 H 149.259 -2.65873 2.63177 0
M  V30 1637 H 150.592 -3.5119 3.44858 0
M  V30 1638 N 152.244 -1.26651 -0.937939 0
M  V30 1639 C 153.655 -1.1125 -1.49934 0
M  V30 1640 C 154.006 0.306077 -1.93798 0
M  V30 1641 O 153.131 1.19792 -1.80219 0
M  V30 1642 C 153.726 -2.01339 -2.72485 0
M  V30 1643 C 152.285 -1.90074 -3.24883 0
M  V30 1644 C 151.432 -1.94498 -1.97651 0
M  V30 1645 H 154.383 -1.39693 -0.753091 0
M  V30 1646 H 154.404 -1.56319 -3.46907 0
M  V30 1647 H 153.916 -3.04577 -2.40529 0
M  V30 1648 H 152.017 -0.897827 -3.61621 0
M  V30 1649 H 152.13 -2.75778 -3.9177 0
M  V30 1650 H 150.494 -1.38591 -2.13693 0
M  V30 1651 H 151.277 -2.99372 -1.68022 0
M  V30 1652 N 153.722 1.14298 -1.08507 0
M  V30 1653 C 154.971 1.84708 -0.810305 0
M  V30 1654 C 155.284 1.83903 0.666271 0
M  V30 1655 O 156.49 2.50112 1.05624 0
M  V30 1656 C 154.946 3.31572 -1.39957 0
M  V30 1657 C 154.554 3.40791 -2.90801 0
M  V30 1658 C 156.298 4.07087 -1.20334 0
M  V30 1659 C 154.205 4.81872 -3.4286 0
M  V30 1660 H 153.135 0.691985 -0.299454 0
M  V30 1661 H 155.786 1.28841 -1.30661 0
M  V30 1662 H 154.168 3.87183 -0.830976 0
M  V30 1663 H 155.342 2.95225 -3.53806 0
M  V30 1664 H 153.657 2.78732 -3.0935 0
M  V30 1665 H 156.254 5.11225 -1.56693 0
M  V30 1666 H 156.597 4.16054 -0.143237 0
M  V30 1667 H 157.13 3.57779 -1.73893 0
M  V30 1668 H 153.869 4.78094 -4.48449 0
M  V30 1669 H 153.389 5.27972 -2.84615 0
M  V30 1670 H 155.068 5.50765 -3.39509 0
M  V30 1671 N 155.201 0.870884 1.31352 0
M  V30 1672 C 156.612 0.534714 1.78879 0
M  V30 1673 C 156.963 -0.948423 1.71754 0
M  V30 1674 O 156.088 -1.74055 1.28584 0
M  V30 1675 C 156.683 0.963839 3.24801 0
M  V30 1676 C 155.242 0.679311 3.70219 0
M  V30 1677 C 154.389 1.15465 2.52117 0
M  V30 1678 H 157.34 1.05651 1.18421 0
M  V30 1679 H 157.361 0.286892 3.79417 0
M  V30 1680 H 156.873 2.04332 3.29955 0
M  V30 1681 H 154.974 -0.388769 3.70566 0
M  V30 1682 H 155.087 1.25698 4.62317 0
M  V30 1683 H 153.451 0.574383 2.48139 0
M  V30 1684 H 154.234 2.24157 2.60016 0
M  V30 1685 N 156.679 -1.44442 0.630414 0
M  V30 1686 C 157.919 -2.03934 0.137919 0
M  V30 1687 C 158.283 -1.48509 -1.21692 0
M  V30 1688 O 159.484 -1.99499 -1.80149 0
M  V30 1689 C 157.755 -3.57187 0.123373 0
M  V30 1690 S 159.314 -4.37741 -0.304604 0
M  V30 1691 H 156.132 -0.708401 0.0607353 0
M  V30 1692 H 158.734 -1.76835 0.833643 0
M  V30 1693 H 157.438 -3.95032 1.11256 0
M  V30 1694 H 156.969 -3.88895 -0.59362 0
M  V30 1695 H 158.984 -4.71403 -1.54897 0
M  V30 1696 N 158.157 -0.370918 -1.53173 0
M  V30 1697 C 159.067 0.480823 -2.2962 0
M  V30 1698 C 160.083 1.08789 -1.35798 0
M  V30 1699 O 161.259 1.09768 -1.68858 0
M  V30 1700 C 158.324 1.60227 -3.07454 0
M  V30 1701 C 157.385 1.0222 -4.16953 0
M  V30 1702 C 156.618 2.0902 -4.91066 0
M  V30 1703 O 156.841 3.30222 -4.65091 0
M  V30 1704 O 155.775 1.71778 -5.76867 0
M  V30 1705 H 159.601 -0.141421 -3.03371 0
M  V30 1706 H 157.186 -0.135146 -1.48787 0
M  V30 1707 H 159.068 2.25417 -3.56041 0
M  V30 1708 H 157.743 2.20982 -2.36535 0
M  V30 1709 H 156.65 0.334064 -3.72605 0
M  V30 1710 H 157.983 0.459131 -4.90054 0
M  V30 1711 N 159.635 1.57281 -0.100228 0
M  V30 1712 C 160.567 2.11342 0.886972 0
M  V30 1713 C 161.58 1.05182 1.24261 0
M  V30 1714 O 162.769 1.32613 1.19483 0
M  V30 1715 C 159.869 2.5825 2.19454 0
M  V30 1716 C 159.042 3.88302 2.01346 0
M  V30 1717 C 158.101 4.21004 3.15661 0
M  V30 1718 O 157.127 4.9014 2.89398 0
M  V30 1719 N 158.329 3.76818 4.41575 0
M  V30 1720 H 161.094 2.96668 0.425216 0
M  V30 1721 H 158.655 1.61678 0.0847334 0
M  V30 1722 H 160.647 2.7717 2.94888 0
M  V30 1723 H 159.217 1.77907 2.57037 0
M  V30 1724 H 158.437 3.7848 1.10212 0
M  V30 1725 H 159.725 4.73375 1.8653 0
M  V30 1726 H 159.123 3.2102 4.65792 0
M  V30 1727 H 157.68 4.00882 5.13942 0
M  V30 1728 N 161.113 -0.173488 1.56642 0
M  V30 1729 C 162.043 -1.2171 1.99271 0
M  V30 1730 C 163.024 -1.46289 0.867959 0
M  V30 1731 O 164.209 -1.5766 1.13388 0
M  V30 1732 C 161.339 -2.55651 2.35074 0
M  V30 1733 C 160.293 -2.45645 3.50489 0
M  V30 1734 C 159.619 -3.84056 3.72028 0
M  V30 1735 C 160.919 -1.96302 4.84007 0
M  V30 1736 H 162.613 -0.86275 2.867 0
M  V30 1737 H 160.159 -0.413571 1.37933 0
M  V30 1738 H 162.112 -3.2886 2.63494 0
M  V30 1739 H 160.836 -2.92869 1.44552 0
M  V30 1740 H 159.495 -1.7489 3.22194 0
M  V30 1741 H 159.143 -4.18664 2.788 0
M  V30 1742 H 158.843 -3.7823 4.49684 0
M  V30 1743 H 160.367 -4.58854 4.02846 0
M  V30 1744 H 161.781 -2.59284 5.11317 0
M  V30 1745 H 160.178 -2.01429 5.65284 0
M  V30 1746 H 161.248 -0.917226 4.76146 0
M  V30 1747 N 162.591 -1.51276 -0.441967 0
M  V30 1748 C 163.837 -1.63958 -1.19355 0
M  V30 1749 C 164.17 -0.352543 -1.90973 0
M  V30 1750 O 163.445 0.647627 -1.83401 0
M  V30 1751 C 163.728 -2.83979 -2.21422 0
M  V30 1752 C 163.581 -4.22646 -1.53918 0
M  V30 1753 C 164.9 -2.99521 -3.22451 0
M  V30 1754 H 162.019 -0.596709 -0.432559 0
M  V30 1755 H 164.661 -1.83748 -0.483398 0
M  V30 1756 H 162.811 -2.67237 -2.81987 0
M  V30 1757 H 164.483 -4.51045 -0.967256 0
M  V30 1758 H 162.726 -4.25558 -0.841615 0
M  V30 1759 H 163.397 -5.02609 -2.28229 0
M  V30 1760 H 165.873 -3.14944 -2.71937 0
M  V30 1761 H 164.749 -3.85072 -3.91166 0
M  V30 1762 H 165.01 -2.11391 -3.88287 0
M  V30 1763 N 164.069 0.697108 -1.41344 0
M  V30 1764 C 165.297 1.48593 -1.43972 0
M  V30 1765 C 165.712 1.88747 -0.0445612 0
M  V30 1766 O 165.069 1.56682 0.935785 0
M  V30 1767 C 165.12 2.74946 -2.34706 0
M  V30 1768 O 164.841 2.36484 -3.68791 0
M  V30 1769 C 166.342 3.687 -2.46121 0
M  V30 1770 H 163.562 0.457964 -0.490418 0
M  V30 1771 H 166.106 0.858429 -1.8561 0
M  V30 1772 H 164.261 3.33937 -1.9638 0
M  V30 1773 H 164.675 3.17918 -4.17167 0
M  V30 1774 H 166.149 4.54145 -3.13777 0
M  V30 1775 H 166.626 4.13081 -1.49199 0
M  V30 1776 H 167.232 3.15613 -2.85076 0
M  V30 1777 N 165.547 1.27147 0.931209 0
M  V30 1778 C 166.51 1.09615 2.01289 0
M  V30 1779 C 167.51 0.0412581 1.60747 0
M  V30 1780 O 168.7 0.285545 1.71844 0
M  V30 1781 C 165.832 0.669447 3.34262 0
M  V30 1782 H 167.025 2.05662 2.18273 0
M  V30 1783 H 164.578 1.09885 1.11153 0
M  V30 1784 H 165.313 -0.292572 3.22978 0
M  V30 1785 H 165.098 1.43127 3.65044 0
M  V30 1786 H 166.588 0.568921 4.13706 0
M  V30 1787 N 167.025 -1.13721 1.09112 0
M  V30 1788 C 167.955 -2.21148 0.749385 0
M  V30 1789 C 168.936 -1.6792 -0.271475 0
M  V30 1790 O 170.121 -1.93693 -0.140251 0
M  V30 1791 C 167.251 -3.46905 0.165659 0
M  V30 1792 C 166.205 -4.13203 1.11567 0
M  V30 1793 C 165.531 -5.33248 0.393809 0
M  V30 1794 C 166.831 -4.60912 2.45678 0
M  V30 1795 H 168.525 -2.4999 1.64758 0
M  V30 1796 H 166.071 -1.20156 0.793626 0
M  V30 1797 H 168.024 -4.21313 -0.085466 0
M  V30 1798 H 166.748 -3.17449 -0.767714 0
M  V30 1799 H 165.407 -3.40758 1.35202 0
M  V30 1800 H 165.055 -5.00054 -0.543599 0
M  V30 1801 H 164.755 -5.78552 1.02721 0
M  V30 1802 H 166.279 -6.10413 0.150908 0
M  V30 1803 H 167.693 -5.26759 2.26269 0
M  V30 1804 H 166.09 -5.16944 3.04776 0
M  V30 1805 H 167.16 -3.75603 3.06677 0
M  V30 1806 N 168.503 -0.877838 -1.30888 0
M  V30 1807 C 169.743 -0.499301 -1.98208 0
M  V30 1808 C 170.107 0.932649 -1.67826 0
M  V30 1809 O 171.308 1.41694 -2.28421 0
M  V30 1810 C 169.579 -0.758221 -3.49265 0
M  V30 1811 S 171.138 -0.480719 -4.36159 0
M  V30 1812 H 167.956 -0.186062 -0.686223 0
M  V30 1813 H 170.558 -1.13556 -1.59139 0
M  V30 1814 H 169.262 -1.79903 -3.68867 0
M  V30 1815 H 168.793 -0.109247 -3.93248 0
M  V30 1816 H 170.808 0.683698 -4.91467 0
M  V30 1817 N 169.982 1.44106 -0.638065 0
M  V30 1818 C 171.259 1.95453 -0.0759321 0
M  V30 1819 C 171.639 1.57984 1.40015 0
M  V30 1820 O 170.987 0.857361 2.11806 0
M  V30 1821 C 171.197 3.47655 -0.306132 0
M  V30 1822 C 172.545 4.24114 -0.203008 0
M  V30 1823 O 173.569 3.55405 -0.237871 0
M  V30 1824 O 172.428 5.46381 -0.113827 0
M  V30 1825 H 169.522 0.826797 0.0183332 0
M  V30 1826 H 172.068 1.54122 -0.710251 0
M  V30 1827 H 170.84 3.68 -1.3301 0
M  V30 1828 H 170.463 3.95949 0.361991 0
M  V30 1829 N 171.46 0.379036 1.52974 0
M  V30 1830 C 172.709 -0.207612 2.00629 0
M  V30 1831 C 173.022 -1.48758 1.27006 0
M  V30 1832 O 174.228 -2.15365 1.65318 0
M  V30 1833 C 172.684 -0.42053 3.57435 0
M  V30 1834 C 172.292 0.845587 4.39948 0
M  V30 1835 C 174.036 -0.964102 4.13407 0
M  V30 1836 C 171.943 0.601513 5.88333 0
M  V30 1837 H 170.873 -0.0813591 0.749598 0
M  V30 1838 H 173.524 0.499853 1.76561 0
M  V30 1839 H 171.906 -1.18959 3.7771 0
M  V30 1840 H 173.08 1.61848 4.31442 0
M  V30 1841 H 171.395 1.31336 3.95145 0
M  V30 1842 H 173.992 -1.16225 5.21916 0
M  V30 1843 H 174.335 -1.93019 3.68849 0
M  V30 1844 H 174.868 -0.25487 3.96983 0
M  V30 1845 H 171.607 1.53831 6.37194 0
M  V30 1846 H 171.127 -0.132628 5.99653 0
M  V30 1847 H 172.806 0.232134 6.46583 0
M  V30 1848 N 172.938 -1.57226 0.108567 0
M  V30 1849 C 173.885 -2.14756 -0.845481 0
M  V30 1850 C 174.855 -1.06971 -1.27068 0
M  V30 1851 O 176.04 -1.34827 -1.35005 0
M  V30 1852 C 173.18 -2.74298 -2.09415 0
M  V30 1853 C 172.293 -3.96358 -1.71826 0
M  V30 1854 C 171.428 -4.44021 -2.9158 0
M  V30 1855 C 170.467 -5.58637 -2.50181 0
M  V30 1856 N 169.604 -6.01091 -3.62814 0
M  V30 1857 H 174.444 -2.95961 -0.348035 0
M  V30 1858 H 171.981 -1.46226 -0.160106 0
M  V30 1859 H 173.939 -3.06945 -2.82561 0
M  V30 1860 H 172.569 -1.95801 -2.56636 0
M  V30 1861 H 171.621 -3.69939 -0.885947 0
M  V30 1862 H 172.933 -4.79504 -1.37394 0
M  V30 1863 H 172.087 -4.78522 -3.72963 0
M  V30 1864 H 170.826 -3.59803 -3.29231 0
M  V30 1865 H 169.831 -5.23751 -1.67228 0
M  V30 1866 H 171.056 -6.44613 -2.13659 0
M  V30 1867 H 169.002 -5.19817 -4.00158 0
M  V30 1868 H 168.919 -6.79066 -3.32273 0
M  V30 1869 H 170.187 -6.40227 -4.44668 0
M  V30 1870 N 174.416 0.165178 -1.56732 0
M  V30 1871 C 175.348 1.22911 -1.93457 0
M  V30 1872 C 176.361 1.40152 -0.828333 0
M  V30 1873 O 177.55 1.40046 -1.10677 0
M  V30 1874 C 174.65 2.59686 -2.17753 0
M  V30 1875 C 173.823 2.63663 -3.48999 0
M  V30 1876 C 172.882 3.81845 -3.62051 0
M  V30 1877 O 171.908 3.67559 -4.34613 0
M  V30 1878 N 173.11 4.98557 -2.97357 0
M  V30 1879 H 175.875 0.917118 -2.85323 0
M  V30 1880 H 173.436 0.354895 -1.57962 0
M  V30 1881 H 175.428 3.37225 -2.23743 0
M  V30 1882 H 173.998 2.83251 -1.32242 0
M  V30 1883 H 173.218 1.72173 -3.54612 0
M  V30 1884 H 174.506 2.63336 -4.35352 0
M  V30 1885 H 173.904 5.13065 -2.38287 0
M  V30 1886 H 172.461 5.73936 -3.08934 0
M  V30 1887 N 175.894 1.51508 0.433938 0
M  V30 1888 C 176.857 1.72473 1.50949 0
M  V30 1889 C 177.857 0.594725 1.49398 0
M  V30 1890 O 179.047 0.862315 1.5136 0
M  V30 1891 C 176.179 1.78431 2.90474 0
M  V30 1892 H 177.372 2.68467 1.33662 0
M  V30 1893 H 174.925 1.41549 0.662836 0
M  V30 1894 H 175.66 0.842645 3.13161 0
M  V30 1895 H 175.445 2.60558 2.93005 0
M  V30 1896 H 176.935 1.96479 3.68491 0
M  V30 1897 N 177.372 -0.689602 1.41712 0
M  V30 1898 C 178.602 -1.47613 1.44548 0
M  V30 1899 C 179.01 -1.89132 0.0509034 0
M  V30 1900 O 178.353 -1.57741 -0.94146 0
M  V30 1901 C 178.415 -2.76596 2.2964 0
M  V30 1902 C 178.079 -2.57245 3.77722 0
M  V30 1903 C 179.076 -2.22804 4.69739 0
M  V30 1904 C 176.761 -2.727 4.2183 0
M  V30 1905 C 178.755 -2.04064 6.03851 0
M  V30 1906 C 176.442 -2.53576 5.56006 0
M  V30 1907 C 177.44 -2.1931 6.46832 0
M  V30 1908 O 177.128 -2.00359 7.78532 0
M  V30 1909 H 176.86 -0.461227 0.494212 0
M  V30 1910 H 179.414 -0.856045 1.86711 0
M  V30 1911 H 177.644 -3.41033 1.82301 0
M  V30 1912 H 179.333 -3.38424 2.24107 0
M  V30 1913 H 180.099 -2.10473 4.36951 0
M  V30 1914 H 175.978 -2.98353 3.51435 0
M  V30 1915 H 179.522 -1.77241 6.74708 0
M  V30 1916 H 175.419 -2.65499 5.88371 0
M  V30 1917 H 176.187 -2.15075 7.89737 0
M  V30 1918 N 178.85 -1.27639 -0.924453 0
M  V30 1919 C 180.078 -1.16989 -1.70649 0
M  V30 1920 C 180.493 0.272869 -1.86818 0
M  V30 1921 O 179.85 1.18549 -1.38753 0
M  V30 1922 C 179.901 -1.85229 -3.10439 0
M  V30 1923 O 179.622 -3.23868 -2.95028 0
M  V30 1924 C 181.123 -1.80746 -4.04779 0
M  V30 1925 H 178.343 -0.406595 -0.53378 0
M  V30 1926 H 180.887 -1.68569 -1.15778 0
M  V30 1927 H 179.042 -1.37545 -3.6216 0
M  V30 1928 H 179.456 -3.57889 -3.83426 0
M  V30 1929 H 180.93 -2.33101 -5.00368 0
M  V30 1930 H 181.407 -0.777499 -4.32263 0
M  V30 1931 H 182.013 -2.28059 -3.58984 0
M  V30 1932 N 180.328 1.1314 -1.09713 0
M  V30 1933 C 181.26 2.18343 -0.697056 0
M  V30 1934 C 182.273 1.60669 0.262551 0
M  V30 1935 O 183.462 1.78435 0.0481527 0
M  V30 1936 C 180.562 3.38899 -0.00684728 0
M  V30 1937 C 179.735 4.26078 -0.988741 0
M  V30 1938 C 178.794 5.25155 -0.331394 0
M  V30 1939 O 177.82 5.60701 -0.979926 0
M  V30 1940 N 179.022 5.73271 0.913261 0
M  V30 1941 H 181.787 2.5328 -1.60216 0
M  V30 1942 H 179.348 1.28491 -0.984971 0
M  V30 1943 H 181.34 4.02255 0.444191 0
M  V30 1944 H 179.91 3.02175 0.800551 0
M  V30 1945 H 179.13 3.59453 -1.61826 0
M  V30 1946 H 180.418 4.81178 -1.65364 0
M  V30 1947 H 179.816 5.46544 1.45966 0
M  V30 1948 H 178.373 6.3855 1.30757 0
M  V30 1949 N 181.806 0.884767 1.30421 0
M  V30 1950 C 183.053 0.503105 1.96151 0
M  V30 1951 C 183.381 -0.947676 1.69851 0
M  V30 1952 O 182.636 -1.68467 0.995861 0
M  V30 1953 C 182.935 0.724318 3.49983 0
M  V30 1954 C 182.601 2.15015 3.96332 0
M  V30 1955 C 181.263 2.54005 4.08699 0
M  V30 1956 C 183.615 3.07936 4.20505 0
M  V30 1957 C 180.943 3.85128 4.42599 0
M  V30 1958 C 183.295 4.3859 4.55874 0
M  V30 1959 C 181.959 4.77474 4.66449 0
M  V30 1960 H 181.229 0.184099 0.717766 0
M  V30 1961 H 183.876 1.12058 1.55291 0
M  V30 1962 H 182.181 0.0238086 3.91793 0
M  V30 1963 H 183.878 0.408617 3.98913 0
M  V30 1964 H 180.468 1.8375 3.87213 0
M  V30 1965 H 184.652 2.79033 4.10431 0
M  V30 1966 H 179.908 4.14996 4.48986 0
M  V30 1967 H 184.082 5.10629 4.7353 0
M  V30 1968 H 181.709 5.79115 4.92473 0
M  V30 1969 N 183.284 -1.43765 0.645699 0
M  V30 1970 C 184.532 -2.01499 0.155731 0
M  V30 1971 C 184.853 -1.51151 -1.232 0
M  V30 1972 O 184.123 -0.721044 -1.82148 0
M  V30 1973 H 182.703 -0.745003 0.0545817 0
M  V30 1974 H 185.365 -1.76075 0.835677 0
M  V30 1975 H 184.461 -3.1181 0.134577 0
M  V30 1976 N 184.763 -0.387143 -1.52771 0
M  V30 1977 C 186.011 0.195349 -2.01154 0
M  V30 1978 C 186.332 1.475 -1.27549 0
M  V30 1979 O 185.602 1.91878 -0.394924 0
M  V30 1980 H 184.182 0.075178 -0.743207 0
M  V30 1981 H 186.844 -0.518337 -1.87881 0
M  V30 1982 H 185.94 0.407096 -3.09434 0
M  V30 1983 N 186.241 1.57166 -0.116904 0
M  V30 1984 C 187.188 2.15202 0.83408 0
M  V30 1985 C 188.158 1.07644 1.26499 0
M  V30 1986 O 189.343 1.35541 1.34288 0
M  V30 1987 C 186.483 2.75405 2.07957 0
M  V30 1988 C 185.596 3.97264 1.69721 0
M  V30 1989 C 184.731 4.45561 2.89221 0
M  V30 1990 C 183.77 5.59956 2.47215 0
M  V30 1991 N 182.907 6.03006 3.59622 0
M  V30 1992 H 187.747 2.96141 0.332335 0
M  V30 1993 H 185.284 1.46309 0.152349 0
M  V30 1994 H 187.242 3.08439 2.80929 0
M  V30 1995 H 185.872 1.97159 2.55594 0
M  V30 1996 H 184.924 3.70404 0.866316 0
M  V30 1997 H 186.236 4.80226 1.34849 0
M  V30 1998 H 185.39 4.80493 3.7042 0
M  V30 1999 H 184.129 3.61544 3.27318 0
M  V30 2000 H 183.134 5.2463 1.64448 0
M  V30 2001 H 184.359 6.45738 2.10238 0
M  V30 2002 H 182.305 5.21931 3.97396 0
M  V30 2003 H 182.222 6.80819 3.28667 0
M  V30 2004 H 183.49 6.42576 4.41267 0
M  V30 2005 N 187.719 -0.156864 1.56817 0
M  V30 2006 C 189.135 -0.50916 1.5126 0
M  V30 2007 C 189.335 -1.83897 0.823658 0
M  V30 2008 O 188.391 -2.49469 0.390055 0
M  V30 2009 C 189.704 -0.52857 2.96018 0
M  V30 2010 C 191.252 -0.614771 3.06903 0
M  V30 2011 C 191.727 -0.664938 4.53147 0
M  V30 2012 N 193.218 -0.727433 4.57452 0
M  V30 2013 C 193.953 -0.787067 5.67973 0
M  V30 2014 N 193.449 -0.806649 6.88088 0
M  V30 2015 N 195.242 -0.827195 5.5598 0
M  V30 2016 H 187.393 0.714935 2.00006 0
M  V30 2017 H 189.656 0.259526 0.911784 0
M  V30 2018 H 189.362 0.380154 3.49639 0
M  V30 2019 H 189.236 -1.36998 3.51442 0
M  V30 2020 H 191.623 -1.51392 2.53307 0
M  V30 2021 H 191.704 0.253597 2.5454 0
M  V30 2022 H 191.348 0.230011 5.07379 0
M  V30 2023 H 191.278 -1.54966 5.03282 0
M  V30 2024 H 193.769 -0.719998 3.70978 0
M  V30 2025 H 194.082 -0.853727 7.6807 0
M  V30 2026 H 192.427 -0.774687 6.90669 0
M  V30 2027 H 195.618 -0.808998 4.61056 0
M  V30 2028 H 195.791 -0.870206 6.4213 0
M  V30 2029 N 189.197 -1.51736 -0.425897 0
M  V30 2030 C 190.608 -1.5732 -1.00536 0
M  V30 2031 C 190.959 -0.403537 -1.92005 0
M  V30 2032 O 190.084 0.478256 -2.11049 0
M  V30 2033 C 190.679 -2.85119 -1.8301 0
M  V30 2034 C 189.238 -2.93236 -2.35987 0
M  V30 2035 C 188.385 -2.52098 -1.15508 0
M  V30 2036 H 191.336 -1.57348 -0.206739 0
M  V30 2037 H 191.357 -2.69526 -2.68581 0
M  V30 2038 H 190.869 -3.7023 -1.16411 0
M  V30 2039 H 188.97 -2.12581 -3.06007 0
M  V30 2040 H 189.083 -3.9713 -2.68001 0
M  V30 2041 H 187.447 -2.05558 -1.50393 0
M  V30 2042 H 188.23 -3.39565 -0.505014 0
M  V30 2043 N 190.675 0.682077 -1.42076 0
M  V30 2044 C 191.922 1.44215 -1.42156 0
M  V30 2045 C 192.25 1.94468 -0.0354186 0
M  V30 2046 O 191.505 1.70816 0.955002 0
M  V30 2047 C 191.804 2.66036 -2.38662 0
M  V30 2048 C 191.47 2.34366 -3.85206 0
M  V30 2049 C 190.132 2.25439 -4.25124 0
M  V30 2050 C 192.484 2.08513 -4.77673 0
M  V30 2051 C 189.812 1.88775 -5.55501 0
M  V30 2052 C 192.164 1.73354 -6.08384 0
M  V30 2053 C 190.828 1.62933 -6.47309 0
M  V30 2054 H 190.098 0.527718 -0.520187 0
M  V30 2055 H 192.745 0.778387 -1.74967 0
M  V30 2056 H 191.05 3.3741 -1.99152 0
M  V30 2057 H 192.747 3.24205 -2.35991 0
M  V30 2058 H 189.337 2.42213 -3.53597 0
M  V30 2059 H 193.521 2.14346 -4.47626 0
M  V30 2060 H 188.777 1.7927 -5.84527 0
M  V30 2061 H 192.951 1.52373 -6.79526 0
M  V30 2062 H 190.578 1.34292 -7.48244 0
M  V30 2063 N 192.153 1.28127 0.917671 0
M  V30 2064 C 193.401 1.14825 1.66312 0
M  V30 2065 C 193.722 -0.304379 1.9261 0
M  V30 2066 O 192.992 -1.21149 1.53947 0
M  V30 2067 H 191.572 0.421953 0.616413 0
M  V30 2068 H 194.234 1.608 1.10134 0
M  V30 2069 H 193.33 1.68489 2.62712 0
M  V30 2070 N 193.631 -1.12557 1.10312 0
M  V30 2071 C 194.877 -1.84311 0.846011 0
M  V30 2072 C 195.21 -1.83805 -0.626859 0
M  V30 2073 O 194.485 -1.28268 -1.46211 0
M  V30 2074 C 194.768 -3.32048 1.39341 0
M  V30 2075 C 194.621 -3.41016 2.93305 0
M  V30 2076 C 195.94 -4.27764 1.03468 0
M  V30 2077 H 193.059 -0.669192 0.30879 0
M  V30 2078 H 195.701 -1.32057 1.36605 0
M  V30 2079 H 193.851 -3.76678 0.951087 0
M  V30 2080 H 195.523 -3.05031 3.46055 0
M  V30 2081 H 193.766 -2.81603 3.29973 0
M  V30 2082 H 194.437 -4.44948 3.26689 0
M  V30 2083 H 196.913 -3.91253 1.41633 0
M  V30 2084 H 195.789 -5.29549 1.44463 0
M  V30 2085 H 196.05 -4.42064 -0.0560404 0
M  V30 2086 N 195.109 -0.891671 -1.2995 0
M  V30 2087 C 196.334 -0.527932 -2.00568 0
M  V30 2088 C 196.759 0.877969 -1.66353 0
M  V30 2089 O 196.117 1.58301 -0.883762 0
M  V30 2090 C 196.165 -0.717745 -3.53385 0
M  V30 2091 O 195.269 0.233376 -4.11739 0
M  V30 2092 H 194.61 -0.20722 -0.630837 0
M  V30 2093 H 197.14 -1.20105 -1.65638 0
M  V30 2094 H 197.15 -0.619307 -4.03272 0
M  V30 2095 H 195.825 -1.74276 -3.77625 0
M  V30 2096 H 194.402 0.0880706 -3.72796 0
M  V30 2097 N 196.587 1.43421 -0.653314 0
M  V30 2098 C 197.517 2.33487 0.0246656 0
M  V30 2099 C 198.498 1.49475 0.811863 0
M  V30 2100 O 199.683 1.78139 0.773322 0
M  V30 2101 C 196.813 3.32841 0.99166 0
M  V30 2102 C 195.767 4.26842 0.314568 0
M  V30 2103 C 195.093 5.16236 1.39302 0
M  V30 2104 C 196.393 5.16243 -0.793095 0
M  V30 2105 H 198.087 2.90427 -0.727481 0
M  V30 2106 H 195.633 1.39649 -0.351287 0
M  V30 2107 H 197.586 3.94747 1.47487 0
M  V30 2108 H 196.31 2.74158 1.77497 0
M  V30 2109 H 194.969 3.663 -0.148199 0
M  V30 2110 H 194.617 4.53891 2.16776 0
M  V30 2111 H 194.317 5.79948 0.945223 0
M  V30 2112 H 195.841 5.81015 1.87759 0
M  V30 2113 H 197.255 5.71958 -0.392039 0
M  V30 2114 H 195.652 5.88676 -1.16536 0
M  V30 2115 H 196.722 4.55927 -1.65103 0
M  V30 2116 N 198.065 0.39524 1.52563 0
M  V30 2117 C 198.995 -0.428384 2.29537 0
M  V30 2118 C 199.976 -1.05831 1.33169 0
M  V30 2119 O 201.161 -1.06995 1.62067 0
M  V30 2120 C 198.291 -1.55274 3.10656 0
M  V30 2121 C 197.245 -1.04855 4.14957 0
M  V30 2122 C 196.571 -2.26543 4.84337 0
M  V30 2123 C 197.871 -0.112324 5.22179 0
M  V30 2124 H 199.565 0.213867 2.98635 0
M  V30 2125 H 197.111 0.104298 1.43622 0
M  V30 2126 H 199.064 -2.1358 3.63265 0
M  V30 2127 H 197.788 -2.22266 2.39302 0
M  V30 2128 H 196.447 -0.487985 3.63338 0
M  V30 2129 H 196.095 -2.92059 4.09525 0
M  V30 2130 H 195.795 -1.93466 5.54837 0
M  V30 2131 H 197.319 -2.85481 5.39753 0
M  V30 2132 H 198.733 -0.603752 5.70112 0
M  V30 2133 H 197.13 0.128968 5.99961 0
M  V30 2134 H 198.2 0.837052 4.77621 0
M  V30 2135 N 199.544 -1.57102 0.125237 0
M  V30 2136 C 200.774 -1.99472 -0.538015 0
M  V30 2137 C 201.182 -1.00395 -1.60366 0
M  V30 2138 O 200.525 0.0103875 -1.83697 0
M  V30 2139 C 200.587 -3.38262 -1.21734 0
M  V30 2140 C 200.251 -4.56021 -0.298897 0
M  V30 2141 C 201.248 -5.17817 0.464943 0
M  V30 2142 C 198.933 -5.01869 -0.208149 0
M  V30 2143 C 200.927 -6.23852 1.3072 0
M  V30 2144 C 198.614 -6.07763 0.637736 0
M  V30 2145 C 199.612 -6.68622 1.39403 0
M  V30 2146 O 199.3 -7.7247 2.22586 0
M  V30 2147 H 199.032 -0.659934 -0.146501 0
M  V30 2148 H 201.586 -2.04321 0.210267 0
M  V30 2149 H 199.816 -3.30185 -2.01282 0
M  V30 2150 H 201.505 -3.6488 -1.77813 0
M  V30 2151 H 202.271 -4.83308 0.404741 0
M  V30 2152 H 198.15 -4.54241 -0.786522 0
M  V30 2153 H 201.694 -6.71284 1.898 0
M  V30 2154 H 197.591 -6.41701 0.699309 0
M  V30 2155 H 198.359 -7.89595 2.15596 0
M  V30 2156 N 201.022 0.148545 -1.56898 0
M  V30 2157 C 202.271 0.85984 -1.82454 0
M  V30 2158 C 202.584 1.82406 -0.706229 0
M  V30 2159 O 203.79 2.57938 -0.847349 0
M  V30 2160 C 202.246 1.57967 -3.2338 0
M  V30 2161 C 201.854 0.65794 -4.43142 0
M  V30 2162 C 203.598 2.27784 -3.58211 0
M  V30 2163 C 201.505 1.3793 -5.75091 0
M  V30 2164 H 200.435 0.324834 -0.68044 0
M  V30 2165 H 203.086 0.112588 -1.83154 0
M  V30 2166 H 201.468 2.37249 -3.17063 0
M  V30 2167 H 202.642 -0.0995497 -4.60692 0
M  V30 2168 H 200.957 0.0682643 -4.16344 0
M  V30 2169 H 203.554 2.8239 -4.54048 0
M  V30 2170 H 203.897 3.04204 -2.84193 0
M  V30 2171 H 204.43 1.55421 -3.66182 0
M  V30 2172 H 201.169 0.656982 -6.52199 0
M  V30 2173 H 200.689 2.10954 -5.61479 0
M  V30 2174 H 202.368 1.92063 -6.17835 0
M  V30 2175 N 202.5 1.5196 0.417844 0
M  V30 2176 C 203.748 1.65263 1.16329 0
M  V30 2177 C 204.069 0.380634 1.91249 0
M  V30 2178 O 203.339 -0.604214 1.86349 0
M  V30 2179 H 201.919 0.60912 0.432414 0
M  V30 2180 H 204.581 1.88969 0.477162 0
M  V30 2181 H 203.677 2.4896 1.88217 0
M  V30 2182 N 203.978 -0.674533 1.42435 0
M  V30 2183 C 205.224 -1.43521 1.4413 0
M  V30 2184 C 205.579 -1.92316 0.0567773 0
M  V30 2185 O 204.872 -1.68008 -0.921076 0
M  V30 2186 C 205.066 -2.64767 2.40069 0
M  V30 2187 C 204.895 -2.27836 3.87713 0
M  V30 2188 C 203.665 -2.17183 4.56245 0
M  V30 2189 C 205.863 -1.89466 4.78129 0
M  V30 2190 N 203.845 -1.73358 5.88915 0
M  V30 2191 C 205.216 -1.56561 5.99907 0
M  V30 2192 C 207.271 -1.7646 4.65582 0
M  V30 2193 C 205.974 -1.11957 7.10534 0
M  V30 2194 C 208 -1.3326 5.76191 0
M  V30 2195 C 207.362 -1.0128 6.97081 0
M  V30 2196 H 203.461 -0.521656 0.582579 0
M  V30 2197 H 206.045 -0.778381 1.78464 0
M  V30 2198 H 204.216 -3.28139 2.07796 0
M  V30 2199 H 205.948 -3.3136 2.32342 0
M  V30 2200 H 202.703 -2.3626 4.10461 0
M  V30 2201 H 203.127 -1.53867 6.59283 0
M  V30 2202 H 207.769 -1.99831 3.72595 0
M  V30 2203 H 205.487 -0.873318 8.03367 0
M  V30 2204 H 209.073 -1.23717 5.68494 0
M  V30 2205 H 207.953 -0.683597 7.81215 0
M  V30 2206 N 205.456 -1.28612 -0.910864 0
M  V30 2207 C 206.733 -1.06632 -1.63979 0
M  V30 2208 C 207.113 0.393351 -2.07403 0
M  V30 2209 O 206.461 1.37999 -1.82122 0
M  V30 2210 C 206.671 -2.0436 -2.8291 0
M  V30 2211 C 208.019 -2.34666 -3.5386 0
M  V30 2212 O 209.043 -2.02467 -2.93062 0
M  V30 2213 O 207.902 -2.89631 -4.63439 0
M  V30 2214 H 204.996 -0.407737 -0.7195 0
M  V30 2215 H 207.542 -1.39942 -0.959914 0
M  V30 2216 H 206.314 -3.02727 -2.47936 0
M  V30 2217 H 205.937 -1.71714 -3.58609 0
M  V30 2218 N 206.934 1.1197 -1.10907 0
M  V30 2219 C 207.881 2.17846 -0.762345 0
M  V30 2220 C 208.851 1.63995 0.263599 0
M  V30 2221 O 210.036 1.90273 0.141773 0
M  V30 2222 C 207.176 3.44487 -0.205651 0
M  V30 2223 C 206.289 4.12369 -1.28748 0
M  V30 2224 C 205.424 5.26674 -0.691919 0
M  V30 2225 C 204.463 5.86431 -1.75399 0
M  V30 2226 N 203.6 6.92142 -1.17833 0
M  V30 2227 H 208.44 2.46851 -1.6694 0
M  V30 2228 H 205.977 1.21188 -0.833776 0
M  V30 2229 H 207.935 4.16981 0.135037 0
M  V30 2230 H 206.565 3.15884 0.664613 0
M  V30 2231 H 205.617 3.38003 -1.74522 0
M  V30 2232 H 206.929 4.52844 -2.09125 0
M  V30 2233 H 206.083 6.05953 -0.300963 0
M  V30 2234 H 204.822 4.8749 0.143232 0
M  V30 2235 H 203.827 5.05835 -2.15432 0
M  V30 2236 H 205.052 6.27685 -2.59208 0
M  V30 2237 H 202.998 6.54985 -0.364725 0
M  V30 2238 H 202.915 7.31242 -1.91887 0
M  V30 2239 H 204.183 7.75237 -0.81408 0
M  V30 2240 N 208.412 0.89855 1.29475 0
M  V30 2241 C 209.362 0.346767 2.25348 0
M  V30 2242 C 210.346 -0.532509 1.51833 0
M  V30 2243 O 211.538 -0.374714 1.72988 0
M  V30 2244 C 208.667 -0.425681 3.40651 0
M  V30 2245 C 207.753 0.46845 4.21505 0
M  V30 2246 N 208.144 1.57514 4.80648 0
M  V30 2247 C 206.442 0.26603 4.45206 0
M  V30 2248 C 207.143 2.12889 5.41344 0
M  V30 2249 N 206.119 1.42208 5.24669 0
M  V30 2250 H 209.921 1.19219 2.68634 0
M  V30 2251 H 207.435 0.749473 1.44072 0
M  V30 2252 H 209.432 -0.837716 4.08397 0
M  V30 2253 H 208.092 -1.26838 2.98902 0
M  V30 2254 H 209.103 1.95789 4.79465 0
M  V30 2255 H 205.78 -0.538394 4.14014 0
M  V30 2256 H 207.17 3.05901 5.98226 0
M  V30 2257 N 209.89 -1.43072 0.660911 0
M  V30 2258 C 211.12 -2.05769 0.185153 0
M  V30 2259 C 211.528 -1.49668 -1.15742 0
M  V30 2260 O 210.871 -0.625649 -1.72717 0
M  V30 2261 C 210.933 -3.59489 0.0278237 0
M  V30 2262 C 210.597 -4.38212 1.2969 0
M  V30 2263 C 211.594 -4.69772 2.22734 0
M  V30 2264 C 209.279 -4.7809 1.54063 0
M  V30 2265 C 211.273 -5.40129 3.38437 0
M  V30 2266 C 208.96 -5.4819 2.70058 0
M  V30 2267 C 209.958 -5.79132 3.62071 0
M  V30 2268 O 209.646 -6.47798 4.76039 0
M  V30 2269 H 209.378 -0.669873 0.0908086 0
M  V30 2270 H 211.932 -1.84436 0.90402 0
M  V30 2271 H 210.162 -3.79426 -0.746489 0
M  V30 2272 H 211.851 -4.03862 -0.406275 0
M  V30 2273 H 212.617 -4.39476 2.05149 0
M  V30 2274 H 208.496 -4.53408 0.833215 0
M  V30 2275 H 212.04 -5.64198 4.10277 0
M  V30 2276 H 207.937 -5.77902 2.87574 0
M  V30 2277 H 208.705 -6.66283 4.75404 0
M  V30 2278 N 211.368 -0.403325 -1.52352 0
M  V30 2279 C 212.616 0.174003 -2.0135 0
M  V30 2280 C 212.937 1.46139 -1.29106 0
M  V30 2281 O 212.207 1.91448 -0.415253 0
M  V30 2282 H 210.787 0.0672911 -0.743963 0
M  V30 2283 H 213.449 -0.538235 -1.87321 0
M  V30 2284 H 212.545 0.374254 -3.09848 0
M  V30 2285 N 212.846 1.57033 -0.133567 0
M  V30 2286 C 214.093 1.95686 0.520877 0
M  V30 2287 C 214.421 1.0177 1.6575 0
M  V30 2288 O 213.676 0.0443195 1.9565 0
M  V30 2289 C 213.975 3.40674 1.08057 0
M  V30 2290 C 213.641 4.50855 0.0637899 0
M  V30 2291 C 212.303 4.80716 -0.215757 0
M  V30 2292 C 214.655 5.17398 -0.62835 0
M  V30 2293 C 211.983 5.74433 -1.19348 0
M  V30 2294 C 214.335 6.12167 -1.5948 0
M  V30 2295 C 212.999 6.40414 -1.88218 0
M  V30 2296 H 212.269 0.716067 0.190602 0
M  V30 2297 H 214.916 1.9026 -0.217556 0
M  V30 2298 H 213.221 3.42865 1.89606 0
M  V30 2299 H 214.918 3.67902 1.59529 0
M  V30 2300 H 211.508 4.27605 0.291855 0
M  V30 2301 H 215.692 4.94472 -0.425562 0
M  V30 2302 H 210.948 5.94616 -1.42272 0
M  V30 2303 H 215.122 6.6281 -2.13671 0
M  V30 2304 H 212.749 7.12838 -2.64133 0
M  V30 2305 N 214.325 -0.140222 1.56975 0
M  V30 2306 C 215.257 -1.19818 1.95388 0
M  V30 2307 C 216.27 -1.38816 0.850525 0
M  V30 2308 O 217.459 -1.38267 1.12891 0
M  V30 2309 C 214.559 -2.56189 2.21857 0
M  V30 2310 C 213.732 -2.58077 3.5315 0
M  V30 2311 C 212.791 -3.76037 3.6808 0
M  V30 2312 O 211.817 -3.60598 4.40406 0
M  V30 2313 N 213.019 -4.93763 3.05251 0
M  V30 2314 H 215.784 -0.871609 2.86746 0
M  V30 2315 H 213.345 -0.32972 1.58507 0
M  V30 2316 H 215.337 -3.33623 2.2908 0
M  V30 2317 H 213.907 -2.81111 1.36731 0
M  V30 2318 H 213.127 -1.6651 3.57307 0
M  V30 2319 H 214.415 -2.56377 4.39486 0
M  V30 2320 H 213.813 -5.09209 2.46419 0
M  V30 2321 H 212.37 -5.68949 3.18026 0
M  V30 2322 N 215.803 -1.52179 -0.40978 0
M  V30 2323 C 216.733 -1.78435 -1.5061 0
M  V30 2324 C 217.714 -0.635295 -1.57791 0
M  V30 2325 O 218.899 -0.880823 -1.73076 0
M  V30 2326 C 216.029 -1.93444 -2.88439 0
M  V30 2327 C 214.983 -3.09038 -2.96108 0
M  V30 2328 C 214.309 -3.09268 -4.36185 0
M  V30 2329 C 215.609 -4.48508 -2.67652 0
M  V30 2330 H 217.303 -2.70237 -1.28889 0
M  V30 2331 H 214.849 -1.30036 -0.618605 0
M  V30 2332 H 216.802 -2.10394 -3.65119 0
M  V30 2333 H 215.526 -0.983129 -3.11452 0
M  V30 2334 H 214.185 -2.91837 -2.21872 0
M  V30 2335 H 213.833 -2.11861 -4.56206 0
M  V30 2336 H 213.533 -3.86907 -4.42241 0
M  V30 2337 H 215.057 -3.28348 -5.14801 0
M  V30 2338 H 216.471 -4.65918 -3.34056 0
M  V30 2339 H 214.868 -5.28059 -2.85085 0
M  V30 2340 H 215.938 -4.56649 -1.63095 0
M  V30 2341 N 217.281 0.66697 -1.42791 0
M  V30 2342 C 218.511 1.45294 -1.46878 0
M  V30 2343 C 218.919 1.89027 -0.0809861 0
M  V30 2344 O 218.262 1.59219 0.916246 0
M  V30 2345 C 218.324 2.72908 -2.34012 0
M  V30 2346 C 217.988 2.51203 -3.81767 0
M  V30 2347 C 218.985 2.15302 -4.73224 0
M  V30 2348 C 216.67 2.65954 -4.26115 0
M  V30 2349 C 218.664 1.94431 -6.07022 0
M  V30 2350 C 216.351 2.44699 -5.59969 0
M  V30 2351 C 217.349 2.08992 -6.5024 0
M  V30 2352 O 217.037 1.87948 -7.81621 0
M  V30 2353 H 216.769 0.453306 -0.501487 0
M  V30 2354 H 219.323 0.826232 -1.88049 0
M  V30 2355 H 217.553 3.38089 -1.87703 0
M  V30 2356 H 219.242 3.34816 -2.29462 0
M  V30 2357 H 220.008 2.03495 -4.40244 0
M  V30 2358 H 215.887 2.92724 -3.56137 0
M  V30 2359 H 219.431 1.66484 -6.77443 0
M  V30 2360 H 215.328 2.56105 -5.9252 0
M  V30 2361 H 216.096 2.02483 -7.93059 0
M  V30 2362 N 218.759 1.29093 0.90403 0
M  V30 2363 C 219.691 1.09658 2.01266 0
M  V30 2364 C 220.704 0.0453729 1.62737 0
M  V30 2365 O 221.893 0.289446 1.76138 0
M  V30 2366 C 218.993 0.646278 3.32681 0
M  V30 2367 C 218.166 1.77505 3.99763 0
M  V30 2368 C 217.225 1.31649 5.09465 0
M  V30 2369 O 216.251 2.02045 5.32134 0
M  V30 2370 N 217.453 0.184997 5.80205 0
M  V30 2371 H 220.218 2.05135 2.18494 0
M  V30 2372 H 217.779 1.20975 1.07594 0
M  V30 2373 H 219.771 0.322906 4.0341 0
M  V30 2374 H 218.341 -0.215916 3.11853 0
M  V30 2375 H 217.561 2.26752 3.22455 0
M  V30 2376 H 218.849 2.53198 4.41325 0
M  V30 2377 H 218.247 -0.402021 5.6427 0
M  V30 2378 H 216.804 -0.0790358 6.51752 0
M  V30 2379 N 220.237 -1.11381 1.11499 0
M  V30 2380 C 221.462 -1.87475 0.887019 0
M  V30 2381 C 221.887 -1.79639 -0.557796 0
M  V30 2382 O 221.245 -1.15924 -1.39396 0
M  V30 2383 C 221.293 -3.34213 1.35403 0
M  V30 2384 O 220.397 -4.0903 0.526146 0
M  V30 2385 H 219.738 -0.582099 0.319463 0
M  V30 2386 H 222.268 -1.40785 1.48461 0
M  V30 2387 H 222.278 -3.8506 1.34881 0
M  V30 2388 H 220.953 -3.39232 2.40612 0
M  V30 2389 H 219.53 -3.68082 0.597522 0
M  V30 2390 N 221.715 -0.905404 -1.28997 0
M  V30 2391 C 222.992 -0.453513 -1.9027 0
M  V30 2392 C 223.372 1.06721 -1.82137 0
M  V30 2393 O 222.72 1.91159 -1.25182 0
M  V30 2394 C 222.93 -0.974494 -3.35119 0
M  V30 2395 C 224.278 -1.0216 -4.12127 0
M  V30 2396 O 225.302 -0.922557 -3.44046 0
M  V30 2397 O 224.161 -1.17121 -5.33802 0
M  V30 2398 H 221.255 -0.142347 -0.814657 0
M  V30 2399 H 223.801 -0.995642 -1.37423 0
M  V30 2400 H 222.573 -2.01848 -3.35221 0
M  V30 2401 H 222.196 -0.412706 -3.95452 0
M  V30 2402 N 223.193 1.4272 -0.668489 0
M  V30 2403 C 224.604 1.84793 -0.266151 0
M  V30 2404 C 224.955 1.55959 1.19043 0
M  V30 2405 O 224.08 1.01622 1.91055 0
M  V30 2406 C 224.675 3.35436 -0.476271 0
M  V30 2407 C 223.234 3.76182 -0.128113 0
M  V30 2408 C 222.381 2.66344 -0.771777 0
M  V30 2409 H 225.332 1.32656 -0.871098 0
M  V30 2410 H 225.353 3.79515 0.273561 0
M  V30 2411 H 224.865 3.5639 -1.53647 0
M  V30 2412 H 222.966 3.60836 0.928891 0
M  V30 2413 H 223.079 4.75766 -0.564231 0
M  V30 2414 H 221.443 2.53885 -0.203652 0
M  V30 2415 H 222.226 2.90123 -1.83531 0
M  V30 2416 N 224.671 0.411399 1.52136 0
M  V30 2417 C 225.896 -0.165538 2.06738 0
M  V30 2418 C 226.321 -1.379 1.27926 0
M  V30 2419 O 225.679 -1.78628 0.310114 0
M  V30 2420 C 225.727 -0.492124 3.57226 0
M  V30 2421 O 224.831 -1.58276 3.80818 0
M  V30 2422 H 224.172 -0.0132132 0.663869 0
M  V30 2423 H 226.702 0.585253 1.96051 0
M  V30 2424 H 226.712 -0.750104 4.01045 0
M  V30 2425 H 225.387 0.394922 4.14021 0
M  V30 2426 H 223.964 -1.31677 3.48877 0
M  V30 2427 N 226.149 -1.5696 0.141893 0
M  V30 2428 C 227.397 -1.95573 -0.509484 0
M  V30 2429 C 227.718 -1.02746 -1.65736 0
M  V30 2430 O 226.988 -0.0880311 -1.95702 0
M  V30 2431 H 225.568 -0.722115 -0.191205 0
M  V30 2432 H 228.23 -1.93697 0.216196 0
M  V30 2433 H 227.326 -2.99171 -0.889 0
M  V30 2434 N 227.627 0.131896 -1.57047 0
M  V30 2435 C 228.575 1.18146 -2.0036 0
M  V30 2436 C 229.569 1.43614 -0.898406 0
M  V30 2437 O 230.775 1.43729 -1.08361 0
M  V30 2438 H 227.15 0.398042 -0.638018 0
M  V30 2439 H 229.121 0.789564 -2.87765 0
M  V30 2440 C 227.87 2.50341 -2.41298 0
M  V30 2441 H 227.193 2.31578 -3.25902 0
M  V30 2442 H 228.633 3.22371 -2.75414 0
M  V30 2443 C 227.092 3.11984 -1.27153 0
M  V30 2444 O 227.622 3.97484 -0.580459 0
M  V30 2445 N 225.828 2.71662 -1.03189 0
M  V30 2446 H 225.375 2.02231 -1.59564 0
M  V30 2447 H 225.333 3.13238 -0.270077 0
M  V30 2448 N 229.106 1.52395 0.401703 0
M  V30 2449 C 230.336 1.70429 1.1678 0
M  V30 2450 C 230.744 0.416702 1.84554 0
M  V30 2451 O 230.087 -0.617697 1.73003 0
M  V30 2452 C 230.149 2.78919 2.26814 0
M  V30 2453 C 229.813 4.20437 1.79113 0
M  V30 2454 C 230.81 5.04028 1.27482 0
M  V30 2455 C 228.495 4.66704 1.85722 0
M  V30 2456 C 230.489 6.31961 0.830913 0
M  V30 2457 C 228.176 5.94625 1.40942 0
M  V30 2458 C 229.174 6.77082 0.897128 0
M  V30 2459 O 228.862 8.02607 0.455822 0
M  V30 2460 H 228.594 0.574272 0.356634 0
M  V30 2461 H 231.148 1.99767 0.477724 0
M  V30 2462 H 229.378 2.44973 2.99207 0
M  V30 2463 H 231.067 2.8548 2.88541 0
M  V30 2464 H 231.833 4.69471 1.21744 0
M  V30 2465 H 227.712 4.0262 2.24539 0
M  V30 2466 H 231.256 6.96271 0.430368 0
M  V30 2467 H 227.153 6.28688 1.46362 0
M  V30 2468 H 227.921 8.16453 0.578457 0
M  V30 2469 N 230.584 -0.659388 1.43143 0
M  V30 2470 C 231.832 -1.41654 1.44147 0
M  V30 2471 C 232.153 -1.94893 0.0645739 0
M  V30 2472 O 231.423 -1.74044 -0.899198 0
M  V30 2473 H 230.003 -0.525708 0.530697 0
M  V30 2474 H 232.665 -0.778097 1.78694 0
M  V30 2475 H 231.761 -2.26195 2.1504 0
M  V30 2476 N 232.062 -1.29571 -0.897171 0
M  V30 2477 C 233.31 -1.17456 -1.64464 0
M  V30 2478 C 233.631 0.273698 -1.9307 0
M  V30 2479 O 232.901 1.18684 -1.55855 0
M  V30 2480 H 231.481 -0.431706 -0.609622 0
M  V30 2481 H 234.143 -1.62531 -1.07562 0
M  V30 2482 H 233.239 -1.72648 -2.59998 0
M  V30 2483 N 233.54 1.10788 -1.12088 0
M  V30 2484 C 234.786 1.8313 -0.885148 0
M  V30 2485 C 235.141 1.8336 0.582839 0
M  V30 2486 O 234.434 1.28062 1.42516 0
M  V30 2487 C 234.628 3.29294 -1.38926 0
M  V30 2488 C 234.457 3.43302 -2.90472 0
M  V30 2489 C 233.227 3.55928 -3.58669 0
M  V30 2490 C 235.425 3.37014 -3.88492 0
M  V30 2491 N 233.407 3.58475 -4.98366 0
M  V30 2492 C 234.778 3.46263 -5.14298 0
M  V30 2493 C 236.833 3.20589 -3.80955 0
M  V30 2494 C 235.536 3.4078 -6.33452 0
M  V30 2495 C 237.562 3.16427 -4.99628 0
M  V30 2496 C 236.924 3.26253 -6.2429 0
M  V30 2497 H 233.023 0.685054 -0.377128 0
M  V30 2498 H 235.607 1.3251 -1.4265 0
M  V30 2499 H 233.778 3.78416 -0.874999 0
M  V30 2500 H 235.51 3.89578 -1.09596 0
M  V30 2501 H 232.265 3.58779 -3.09151 0
M  V30 2502 H 232.689 3.6337 -5.71219 0
M  V30 2503 H 237.331 3.11873 -2.85474 0
M  V30 2504 H 235.049 3.48263 -7.29204 0
M  V30 2505 H 238.635 3.04874 -4.95523 0
M  V30 2506 H 237.515 3.2303 -7.14578 0
M  V30 2507 N 235.018 0.912232 1.28515 0
M  V30 2508 C 235.965 0.397954 2.27343 0
M  V30 2509 C 236.935 -0.526766 1.57526 0
M  V30 2510 O 238.12 -0.449292 1.85435 0
M  V30 2511 C 235.26 -0.357263 3.43246 0
M  V30 2512 C 234.373 0.599788 4.27816 0
M  V30 2513 C 233.508 -0.173725 5.30916 0
M  V30 2514 C 232.547 0.777039 6.07148 0
M  V30 2515 N 231.684 0.0371398 7.0209 0
M  V30 2516 H 236.524 1.24577 2.70711 0
M  V30 2517 H 234.061 0.625612 1.33133 0
M  V30 2518 H 236.019 -0.8113 4.09236 0
M  V30 2519 H 234.649 -1.16943 3.00872 0
M  V30 2520 H 233.701 1.17235 3.61884 0
M  V30 2521 H 235.013 1.32704 4.80823 0
M  V30 2522 H 234.167 -0.688394 6.02782 0
M  V30 2523 H 232.906 -0.934041 4.78672 0
M  V30 2524 H 231.911 1.3031 5.34134 0
M  V30 2525 H 233.136 1.53689 6.61481 0
M  V30 2526 H 231.082 -0.705213 6.52198 0
M  V30 2527 H 230.999 0.704249 7.52713 0
M  V30 2528 H 232.267 -0.457383 7.78157 0
M  V30 2529 N 236.496 -1.42363 0.676048 0
M  V30 2530 C 237.459 -2.29199 0.00766941 0
M  V30 2531 C 238.459 -1.43389 -0.727745 0
M  V30 2532 O 239.649 -1.64764 -0.56556 0
M  V30 2533 C 236.781 -3.2591 -0.999785 0
M  V30 2534 H 237.974 -2.89794 0.771988 0
M  V30 2535 H 235.527 -1.50024 0.438468 0
M  V30 2536 H 236.262 -2.70256 -1.79255 0
M  V30 2537 H 236.047 -3.89202 -0.475829 0
M  V30 2538 H 237.537 -3.91028 -1.46583 0
M  V30 2539 N 237.974 -0.419461 -1.51915 0
M  V30 2540 C 239.202 0.152136 -2.0634 0
M  V30 2541 C 239.617 1.37988 -1.28859 0
M  V30 2542 O 238.974 1.79243 -0.343232 0
M  V30 2543 C 239.025 0.492266 -3.58133 0
M  V30 2544 O 238.746 -0.686736 -4.32684 0
M  V30 2545 C 240.247 1.11648 -4.2901 0
M  V30 2546 H 237.467 0.0158325 -0.670813 0
M  V30 2547 H 240.011 -0.593394 -1.95702 0
M  V30 2548 H 238.166 1.18769 -3.68745 0
M  V30 2549 H 238.58 -0.400341 -5.2297 0
M  V30 2550 H 240.054 1.3046 -5.36362 0
M  V30 2551 H 240.531 2.09251 -3.86148 0
M  V30 2552 H 241.137 0.460958 -4.22795 0
M  V30 2553 N 239.452 1.56882 -0.150215 0
M  V30 2554 C 240.692 1.98119 0.502804 0
M  V30 2555 C 241.056 1.03327 1.61826 0
M  V30 2556 O 242.257 1.33621 2.33236 0
M  V30 2557 C 240.528 3.43329 0.992988 0
M  V30 2558 S 242.087 4.0659 1.65015 0
M  V30 2559 H 238.905 0.692189 0.162467 0
M  V30 2560 H 241.507 1.93988 -0.242689 0
M  V30 2561 H 240.211 4.10046 0.170436 0
M  V30 2562 H 239.742 3.5118 1.77303 0
M  V30 2563 H 241.757 3.99906 2.93752 0
M  V30 2564 N 240.93 -0.123565 1.57115 0
M  V30 2565 C 242.179 -0.830704 1.83799 0
M  V30 2566 C 242.492 -1.81259 0.735158 0
M  V30 2567 O 243.698 -2.56558 0.888278 0
M  V30 2568 C 242.154 -1.52802 3.25852 0
M  V30 2569 C 241.762 -0.587356 4.44133 0
M  V30 2570 C 243.506 -2.22056 3.61789 0
M  V30 2571 C 241.413 -1.28764 5.77212 0
M  V30 2572 H 240.343 -0.313967 0.685522 0
M  V30 2573 H 242.994 -0.0834359 1.8331 0
M  V30 2574 H 241.376 -2.32175 3.20797 0
M  V30 2575 H 242.55 0.172829 4.60476 0
M  V30 2576 H 240.865 -0.00201892 4.164 0
M  V30 2577 H 243.462 -2.75131 4.58483 0
M  V30 2578 H 243.805 -2.99644 2.88997 0
M  V30 2579 H 244.338 -1.49576 3.68608 0
M  V30 2580 H 241.077 -0.55314 6.53162 0
M  V30 2581 H 240.597 -2.01995 5.64764 0
M  V30 2582 H 242.276 -1.8221 6.20813 0
M  V30 2583 N 242.408 -1.52605 -0.393616 0
M  V30 2584 C 243.656 -1.67093 -1.13685 0
M  V30 2585 C 243.977 -0.411011 -1.90619 0
M  V30 2586 O 243.247 0.574491 -1.87287 0
M  V30 2587 H 241.827 -0.615923 -0.422668 0
M  V30 2588 H 244.489 -1.89704 -0.447039 0
M  V30 2589 H 243.585 -2.51922 -1.84232 0
M  V30 2590 N 243.887 0.651787 -1.4349 0
M  V30 2591 C 244.835 1.78586 -1.49029 0
M  V30 2592 C 245.829 1.65448 -0.363767 0
M  V30 2593 O 247.035 1.71777 -0.537821 0
M  V30 2594 H 243.41 0.589236 -0.467231 0
M  V30 2595 H 245.381 1.71035 -2.44519 0
M  V30 2596 C 244.13 3.16851 -1.43181 0
M  V30 2597 H 243.453 3.27598 -2.29171 0
M  V30 2598 H 244.893 3.96156 -1.51118 0
M  V30 2599 C 243.352 3.36568 -0.149616 0
M  V30 2600 O 243.882 3.93885 0.788509 0
M  V30 2601 N 242.088 2.90539 -0.0593484 0
M  V30 2602 H 241.635 2.4408 -0.823575 0
M  V30 2603 H 241.593 3.04108 0.797853 0
M  V30 2604 N 245.365 1.30045 0.890287 0
M  V30 2605 C 246.313 1.15873 2.01683 0
M  V30 2606 C 247.307 0.0719403 1.69247 0
M  V30 2607 O 248.513 0.232414 1.78493 0
M  V30 2608 H 244.888 0.358203 0.661207 0
M  V30 2609 H 246.859 2.11229 2.10772 0
M  V30 2610 C 245.608 0.861842 3.36849 0
M  V30 2611 H 244.931 1.69016 3.62317 0
M  V30 2612 H 246.371 0.802762 4.16331 0
M  V30 2613 C 244.83 -0.435132 3.34078 0
M  V30 2614 O 245.36 -1.4583 3.74295 0
M  V30 2615 N 243.566 -0.444377 2.87182 0
M  V30 2616 H 243.113 0.388723 2.5465 0
M  V30 2617 H 243.071 -1.31213 2.85711 0
M  V30 2618 N 246.843 -1.10192 1.12674 0
M  V30 2619 C 248.068 -1.86523 0.906853 0
M  V30 2620 C 248.493 -1.80221 -0.538711 0
M  V30 2621 O 247.851 -1.17396 -1.38158 0
M  V30 2622 C 247.899 -3.32758 1.3894 0
M  V30 2623 O 247.003 -4.08449 0.5695 0
M  V30 2624 H 246.344 -0.578678 0.325619 0
M  V30 2625 H 248.874 -1.39203 1.49946 0
M  V30 2626 H 248.884 -3.83608 1.38958 0
M  V30 2627 H 247.559 -3.36661 2.44197 0
M  V30 2628 H 246.136 -3.67427 0.636528 0
M  V30 2629 N 248.321 -0.919034 -1.28029 0
M  V30 2630 C 249.284 -0.416182 -2.2539 0
M  V30 2631 C 250.284 0.460438 -1.54067 0
M  V30 2632 O 251.474 0.262744 -1.72207 0
M  V30 2633 C 248.606 0.402707 -3.38513 0
M  V30 2634 H 249.799 -1.27629 -2.71387 0
M  V30 2635 H 247.352 -0.698919 -1.39803 0
M  V30 2636 H 248.087 1.282 -2.97885 0
M  V30 2637 H 247.872 -0.225698 -3.9145 0
M  V30 2638 H 249.362 0.745191 -4.10897 0
M  V30 2639 N 249.799 1.42003 -0.683588 0
M  V30 2640 C 250.762 2.29191 -0.0198243 0
M  V30 2641 C 251.762 1.43773 0.72013 0
M  V30 2642 O 252.952 1.65061 0.556815 0
M  V30 2643 C 250.084 3.26435 0.982487 0
M  V30 2644 H 251.277 2.8938 -0.787345 0
M  V30 2645 H 248.83 1.49789 -0.446418 0
M  V30 2646 H 249.565 2.71203 1.77819 0
M  V30 2647 H 249.35 3.89449 0.455182 0
M  V30 2648 H 250.84 3.918 1.44508 0
M  V30 2649 N 251.277 0.427512 1.51691 0
M  V30 2650 C 252.24 -0.377132 2.26076 0
M  V30 2651 C 253.24 -0.958089 1.29141 0
M  V30 2652 O 254.43 -0.83408 1.52934 0
M  V30 2653 C 251.562 -1.53262 3.04506 0
M  V30 2654 H 252.755 0.27464 2.9864 0
M  V30 2655 H 250.308 0.180445 1.55255 0
M  V30 2656 H 251.043 -2.22072 2.36335 0
M  V30 2657 H 250.828 -1.12232 3.75694 0
M  V30 2658 H 252.318 -2.10135 3.60878 0
M  V30 2659 N 252.755 -1.56801 0.158532 0
M  V30 2660 C 254.001 -1.96781 -0.490405 0
M  V30 2661 C 254.334 -1.04397 -1.63753 0
M  V30 2662 O 253.609 -0.0885805 -1.94298 0
M  V30 2663 C 253.892 -3.4635 -0.985594 0
M  V30 2664 C 253.745 -4.49512 0.160824 0
M  V30 2665 C 255.064 -3.98697 -1.86355 0
M  V30 2666 H 252.183 -0.715482 -0.176788 0
M  V30 2667 H 254.825 -1.88451 0.242088 0
M  V30 2668 H 252.975 -3.53579 -1.60978 0
M  V30 2669 H 254.647 -4.54353 0.797537 0
M  V30 2670 H 252.89 -4.26013 0.818256 0
M  V30 2671 H 253.561 -5.51531 -0.227569 0
M  V30 2672 H 256.037 -3.94019 -1.33746 0
M  V30 2673 H 254.913 -5.03792 -2.17909 0
M  V30 2674 H 255.174 -3.41744 -2.8047 0
M  V30 2675 N 254.233 0.115231 -1.57178 0
M  V30 2676 C 255.458 0.840354 -1.89612 0
M  V30 2677 C 255.883 1.72464 -0.750845 0
M  V30 2678 O 255.241 1.78826 0.298478 0
M  V30 2679 C 255.289 1.64654 -3.20814 0
M  V30 2680 O 254.393 2.7538 -3.06985 0
M  V30 2681 H 253.734 0.232158 -0.622092 0
M  V30 2682 H 256.264 0.0964977 -2.04372 0
M  V30 2683 H 256.274 2.03499 -3.53627 0
M  V30 2684 H 254.949 0.997416 -4.03763 0
M  V30 2685 H 253.526 2.3971 -2.85646 0
M  V30 2686 N 255.711 1.52812 0.385517 0
M  V30 2687 C 256.644 1.72592 1.49289 0
M  V30 2688 C 257.622 0.573819 1.52138 0
M  V30 2689 O 258.806 0.80404 1.70492 0
M  V30 2690 C 255.933 1.78669 2.87741 0
M  V30 2691 C 254.979 3.00455 3.02703 0
M  V30 2692 S 255.812 4.60366 2.73538 0
M  V30 2693 C 256.968 4.69263 4.14177 0
M  V30 2694 H 257.201 2.66248 1.32285 0
M  V30 2695 H 254.734 1.43148 0.578611 0
M  V30 2696 H 256.692 1.82855 3.67524 0
M  V30 2697 H 255.353 0.861 3.02069 0
M  V30 2698 H 254.546 3.01258 4.04054 0
M  V30 2699 H 254.148 2.94278 2.30817 0
M  V30 2700 H 256.44 4.48092 5.08153 0
M  V30 2701 H 257.383 5.71276 4.18388 0
M  V30 2702 H 257.791 3.98072 4.00249 0
M  V30 2703 N 257.189 -0.644168 1.43834 0
M  V30 2704 C 258.119 -1.76814 1.52509 0
M  V30 2705 C 259.1 -1.65823 0.379052 0
M  V30 2706 O 260.285 -1.84781 0.597466 0
M  V30 2707 C 257.415 -3.15288 1.4564 0
M  V30 2708 C 256.369 -3.41053 2.58586 0
M  V30 2709 C 255.695 -4.79421 2.36769 0
M  V30 2710 C 256.995 -3.34902 4.00797 0
M  V30 2711 H 258.689 -1.69812 2.46586 0
M  V30 2712 H 256.235 -0.815542 1.1868 0
M  V30 2713 H 258.188 -3.93681 1.50311 0
M  V30 2714 H 256.912 -3.23043 0.480725 0
M  V30 2715 H 255.571 -2.65035 2.53282 0
M  V30 2716 H 255.219 -4.83863 1.37424 0
M  V30 2717 H 254.919 -4.9762 3.12487 0
M  V30 2718 H 256.443 -5.6006 2.43238 0
M  V30 2719 H 257.857 -4.03218 4.07539 0
M  V30 2720 H 256.254 -3.64637 4.76613 0
M  V30 2721 H 257.324 -2.32928 4.25291 0
M  V30 2722 N 258.668 -1.30515 -0.883378 0
M  V30 2723 C 259.615 -1.17032 -1.98927 0
M  V30 2724 C 260.585 -0.0594241 -1.65994 0
M  V30 2725 O 261.77 -0.229895 -1.8941 0
M  V30 2726 C 258.91 -0.869777 -3.33959 0
M  V30 2727 C 258.023 -2.06271 -3.79574 0
M  V30 2728 C 257.158 -1.70011 -5.03259 0
M  V30 2729 C 256.197 -2.8579 -5.41286 0
M  V30 2730 N 255.334 -2.49816 -6.56153 0
M  V30 2731 H 260.174 -2.1164 -2.09792 0
M  V30 2732 H 257.711 -1.05296 -1.02719 0
M  V30 2733 H 259.669 -0.676138 -4.11685 0
M  V30 2734 H 258.299 0.0394332 -3.22776 0
M  V30 2735 H 257.351 -2.36755 -2.97744 0
M  V30 2736 H 258.663 -2.92971 -4.03694 0
M  V30 2737 H 257.817 -1.47032 -5.88614 0
M  V30 2738 H 256.556 -0.804829 -4.81013 0
M  V30 2739 H 255.561 -3.09434 -4.54456 0
M  V30 2740 H 256.786 -3.76008 -5.65504 0
M  V30 2741 H 254.732 -1.62795 -6.35479 0
M  V30 2742 H 254.649 -3.30048 -6.8015 0
M  V30 2743 H 255.917 -2.30197 -7.44735 0
M  V30 2744 N 260.146 1.09593 -1.13257 0
M  V30 2745 C 261.078 2.16015 -0.766167 0
M  V30 2746 C 262.091 1.61423 0.211303 0
M  V30 2747 O 263.28 1.78498 -0.00863946 0
M  V30 2748 C 260.38 3.38706 -0.114662 0
M  V30 2749 C 259.553 4.22717 -1.12379 0
M  V30 2750 C 258.612 5.23835 -0.498301 0
M  V30 2751 O 257.638 5.573 -1.15781 0
M  V30 2752 N 258.84 5.75886 0.730417 0
M  V30 2753 H 261.605 2.48055 -1.68193 0
M  V30 2754 H 259.166 1.25292 -1.02535 0
M  V30 2755 H 261.158 4.03464 0.315991 0
M  V30 2756 H 259.728 3.04569 0.704011 0
M  V30 2757 H 258.948 3.54122 -1.73179 0
M  V30 2758 H 260.236 4.75673 -1.80589 0
M  V30 2759 H 259.634 5.50911 1.28504 0
M  V30 2760 H 258.191 6.42387 1.10376 0
M  V30 2761 N 261.624 0.925811 1.2754 0
M  V30 2762 C 262.901 0.483726 1.89524 0
M  V30 2763 C 263.281 -1.03809 1.83812 0
M  V30 2764 O 262.629 -1.89143 1.28207 0
M  V30 2765 C 262.839 1.02769 3.33526 0
M  V30 2766 C 264.187 1.08703 4.10449 0
M  V30 2767 O 265.211 0.977175 3.42534 0
M  V30 2768 O 264.07 1.25599 5.31871 0
M  V30 2769 H 261.164 0.15529 0.812289 0
M  V30 2770 H 263.71 1.01738 1.35822 0
M  V30 2771 H 262.482 2.07155 3.31967 0
M  V30 2772 H 262.105 0.475567 3.94746 0
M  V30 2773 N 263.102 -1.41638 0.69111 0
M  V30 2774 C 264.332 -2.0533 0.228758 0
M  V30 2775 C 264.74 -1.52089 -1.12541 0
M  V30 2776 O 264.083 -0.662145 -1.71351 0
M  V30 2777 C 264.145 -3.59349 0.10407 0
M  V30 2778 C 263.809 -4.35362 1.38956 0
M  V30 2779 C 264.806 -4.64942 2.32648 0
M  V30 2780 C 262.491 -4.74714 1.64169 0
M  V30 2781 C 264.485 -5.32828 3.49818 0
M  V30 2782 C 262.172 -5.42338 2.81625 0
M  V30 2783 C 263.17 -5.71322 3.74273 0
M  V30 2784 O 262.858 -6.37554 4.89673 0
M  V30 2785 H 262.59 -0.667796 0.104997 0
M  V30 2786 H 265.144 -1.82477 0.942938 0
M  V30 2787 H 263.374 -3.80924 -0.665839 0
M  V30 2788 H 265.063 -4.04633 -0.320519 0
M  V30 2789 H 265.829 -4.35025 2.14425 0
M  V30 2790 H 261.708 -4.51538 0.929202 0
M  V30 2791 H 265.252 -5.55368 4.22152 0
M  V30 2792 H 261.149 -5.71673 2.99768 0
M  V30 2793 H 261.917 -6.56049 4.8943 0
M  V30 2794 N 264.58 -0.43555 -1.51462 0
M  V30 2795 C 265.527 0.376797 -2.27703 0
M  V30 2796 C 266.497 1.01838 -1.31219 0
M  V30 2797 O 267.682 1.03762 -1.60119 0
M  V30 2798 C 264.822 1.47301 -3.12084 0
M  V30 2799 C 263.935 0.849744 -4.2356 0
M  V30 2800 C 263.07 1.92086 -4.95254 0
M  V30 2801 C 262.109 1.27593 -5.98654 0
M  V30 2802 N 261.246 2.28833 -6.63762 0
M  V30 2803 H 266.086 -0.279734 -2.96684 0
M  V30 2804 H 263.623 -0.149795 -1.46335 0
M  V30 2805 H 265.581 2.11984 -3.59331 0
M  V30 2806 H 264.211 2.0992 -2.45221 0
M  V30 2807 H 263.263 0.0912529 -3.80291 0
M  V30 2808 H 264.575 0.338878 -4.97648 0
M  V30 2809 H 263.729 2.64435 -5.46039 0
M  V30 2810 H 262.468 2.46545 -4.20793 0
M  V30 2811 H 261.473 0.537893 -5.47162 0
M  V30 2812 H 262.698 0.738693 -6.7507 0
M  V30 2813 H 260.644 2.82375 -5.92115 0
M  V30 2814 H 260.561 1.82632 -7.33608 0
M  V30 2815 H 261.829 3.00671 -7.19178 0
M  V30 2816 N 266.058 1.56714 -0.166846 0
M  V30 2817 C 266.968 2.21331 0.777791 0
M  V30 2818 C 267.984 1.20358 1.25658 0
M  V30 2819 O 269.16 1.53005 1.30964 0
M  V30 2820 C 266.225 2.83787 1.99163 0
M  V30 2821 C 265.286 3.99947 1.56016 0
M  V30 2822 C 264.519 4.59415 2.71613 0
M  V30 2823 O 264.742 4.17769 3.88362 0
M  V30 2824 O 263.676 5.49359 2.45945 0
M  V30 2825 H 267.502 3.02605 0.257636 0
M  V30 2826 H 265.087 1.49275 0.0611393 0
M  V30 2827 H 266.969 3.23405 2.70161 0
M  V30 2828 H 265.644 2.05513 2.50092 0
M  V30 2829 H 264.551 3.65007 0.819809 0
M  V30 2830 H 265.884 4.79801 1.09782 0
M  V30 2831 N 267.536 -0.106894 1.57237 0
M  V30 2832 C 268.784 -0.810921 1.85117 0
M  V30 2833 C 269.105 -1.7984 0.753827 0
M  V30 2834 O 268.375 -1.94649 -0.221056 0
M  V30 2835 H 266.955 -0.302466 0.683025 0
M  V30 2836 H 269.617 -0.0913324 1.94686 0
M  V30 2837 H 268.713 -1.34875 2.81452 0
M  V30 2838 N 269.014 -1.53014 -0.377408 0
M  V30 2839 C 269.924 -1.81557 -1.48574 0
M  V30 2840 C 270.94 -0.703102 -1.59162 0
M  V30 2841 O 272.116 -0.99192 -1.75279 0
M  V30 2842 C 269.181 -1.9889 -2.83978 0
M  V30 2843 C 268.242 -3.22801 -2.83016 0
M  V30 2844 C 267.475 -3.39298 -4.11962 0
M  V30 2845 O 267.698 -2.60345 -5.0752 0
M  V30 2846 O 266.632 -4.32604 -4.18494 0
M  V30 2847 H 270.458 -2.75695 -1.27382 0
M  V30 2848 H 268.043 -1.38248 -0.566373 0
M  V30 2849 H 269.925 -2.11931 -3.6423 0
M  V30 2850 H 268.6 -1.07942 -3.05172 0
M  V30 2851 H 267.507 -3.15193 -2.01505 0
M  V30 2852 H 268.84 -4.13632 -2.66775 0
M  V30 2853 N 270.492 0.636531 -1.44174 0
M  V30 2854 C 271.425 1.76139 -1.45087 0
M  V30 2855 C 272.403 1.59611 -0.310326 0
M  V30 2856 O 273.587 1.81568 -0.506477 0
M  V30 2857 C 270.714 3.13648 -1.27839 0
M  V30 2858 C 269.76 3.48838 -2.45386 0
M  V30 2859 S 270.593 3.46927 -4.07924 0
M  V30 2860 C 271.749 4.87064 -3.9309 0
M  V30 2861 H 271.982 1.75096 -2.40268 0
M  V30 2862 H 269.515 0.810666 -1.31406 0
M  V30 2863 H 271.473 3.93002 -1.18575 0
M  V30 2864 H 270.134 3.12235 -0.341787 0
M  V30 2865 H 269.327 4.48886 -2.29167 0
M  V30 2866 H 268.929 2.76935 -2.51362 0
M  V30 2867 H 271.221 5.76153 -3.56446 0
M  V30 2868 H 272.164 5.08337 -4.92949 0
M  V30 2869 H 272.572 4.61384 -3.25246 0
M  V30 2870 N 271.97 1.30982 0.876444 0
M  V30 2871 C 273.198 1.23242 1.6619 0
M  V30 2872 C 273.613 -0.203345 1.87702 0
M  V30 2873 O 272.97 -1.13317 1.43057 0
M  V30 2874 C 273.021 1.96623 3.03351 0
M  V30 2875 O 272.742 3.34594 2.82804 0
M  V30 2876 C 274.243 1.95644 3.97792 0
M  V30 2877 H 271.463 0.426126 0.518322 0
M  V30 2878 H 274.007 1.7275 1.09442 0
M  V30 2879 H 272.162 1.50892 3.56806 0
M  V30 2880 H 272.576 3.71873 3.69879 0
M  V30 2881 H 274.05 2.51511 4.91372 0
M  V30 2882 H 274.527 0.937395 4.2908 0
M  V30 2883 H 275.133 2.41225 3.50272 0
M  V30 2884 N 273.449 -1.08991 1.13837 0
M  V30 2885 C 274.379 -2.17771 0.842507 0
M  V30 2886 C 275.36 -1.6892 -0.20001 0
M  V30 2887 O 276.545 -1.94113 -0.0579731 0
M  V30 2888 C 273.675 -3.4589 0.312644 0
M  V30 2889 C 272.629 -4.08099 1.28992 0
M  V30 2890 C 271.955 -5.31098 0.619623 0
M  V30 2891 C 273.255 -4.50077 2.65005 0
M  V30 2892 H 274.949 -2.42777 1.75213 0
M  V30 2893 H 272.495 -1.16682 0.843875 0
M  V30 2894 H 274.448 -4.21297 0.0933043 0
M  V30 2895 H 273.172 -3.20419 -0.632382 0
M  V30 2896 H 271.831 -3.34717 1.49533 0
M  V30 2897 H 271.479 -5.0191 -0.33102 0
M  V30 2898 H 271.179 -5.73674 1.27167 0
M  V30 2899 H 272.703 -6.09224 0.409669 0
M  V30 2900 H 274.117 -5.16688 2.48407 0
M  V30 2901 H 272.514 -5.03553 3.26427 0
M  V30 2902 H 273.584 -3.62257 3.22332 0
M  V30 2903 N 274.927 -0.932562 -1.27047 0
M  V30 2904 C 275.874 -0.434072 -2.26681 0
M  V30 2905 C 276.844 0.501639 -1.58344 0
M  V30 2906 O 278.029 0.419734 -1.86126 0
M  V30 2907 C 275.169 0.30261 -3.43771 0
M  V30 2908 C 274.282 -0.667774 -4.26808 0
M  V30 2909 C 273.417 0.0892393 -5.31125 0
M  V30 2910 C 272.456 -0.873532 -6.05835 0
M  V30 2911 N 271.593 -0.148832 -7.01942 0
M  V30 2912 H 276.433 -1.28868 -2.68695 0
M  V30 2913 H 273.97 -0.646713 -1.32121 0
M  V30 2914 H 275.928 0.746092 -4.10474 0
M  V30 2915 H 274.558 1.12142 -3.02695 0
M  V30 2916 H 273.61 -1.22978 -3.59973 0
M  V30 2917 H 274.922 -1.40337 -4.78651 0
M  V30 2918 H 274.076 0.592409 -6.03801 0
M  V30 2919 H 272.815 0.85777 -4.80097 0
M  V30 2920 H 271.82 -1.38791 -5.31994 0
M  V30 2921 H 273.045 -1.64193 -6.58952 0
M  V30 2922 H 270.991 0.601365 -6.53238 0
M  V30 2923 H 270.908 -0.82391 -7.51497 0
M  V30 2924 H 272.176 0.333527 -7.78786 0
M  V30 2925 N 276.405 1.4127 -0.698611 0
M  V30 2926 C 277.63 2.06024 -0.238512 0
M  V30 2927 C 278.055 1.5224 1.10475 0
M  V30 2928 O 277.413 0.650623 1.69223 0
M  V30 2929 C 277.461 3.59988 -0.209952 0
M  V30 2930 O 276.565 4.04282 0.814235 0
M  V30 2931 H 275.906 0.653829 -0.115775 0
M  V30 2932 H 278.436 1.8098 -0.954326 0
M  V30 2933 H 278.446 4.07979 -0.0418436 0
M  V30 2934 H 277.121 3.98503 -1.1903 0
M  V30 2935 H 275.698 3.6779 0.615234 0
M  V30 2936 N 277.883 0.443576 1.51229 0
M  V30 2937 C 278.846 -0.353132 2.26463 0
M  V30 2938 C 279.846 -0.944338 1.3015 0
M  V30 2939 O 281.036 -0.817813 1.5381 0
M  V30 2940 C 278.168 -1.50023 3.06114 0
M  V30 2941 H 279.361 0.3063 2.98332 0
M  V30 2942 H 276.914 0.196902 1.55055 0
M  V30 2943 H 277.649 -2.19553 2.38677 0
M  V30 2944 H 277.434 -1.08241 3.76864 0
M  V30 2945 H 278.924 -2.06296 3.63087 0
M  V30 2946 N 279.361 -1.56624 0.175154 0
M  V30 2947 C 280.291 -2.21155 -0.749195 0
M  V30 2948 C 281.272 -1.16836 -1.23626 0
M  V30 2949 O 282.457 -1.45277 -1.28873 0
M  V30 2950 C 279.587 -2.8553 -1.97711 0
M  V30 2951 C 278.541 -3.95921 -1.62575 0
M  V30 2952 C 277.867 -4.47365 -2.92864 0
M  V30 2953 C 279.167 -5.15323 -0.850838 0
M  V30 2954 H 280.861 -2.98653 -0.211295 0
M  V30 2955 H 278.407 -1.43651 -0.100188 0
M  V30 2956 H 280.36 -3.2935 -2.62881 0
M  V30 2957 H 279.084 -2.05406 -2.53921 0
M  V30 2958 H 277.743 -3.52762 -0.997719 0
M  V30 2959 H 277.391 -3.64027 -3.47122 0
M  V30 2960 H 277.091 -5.21839 -2.70106 0
M  V30 2961 H 278.615 -4.93873 -3.59056 0
M  V30 2962 H 280.029 -5.55812 -1.40521 0
M  V30 2963 H 278.426 -5.95739 -0.722154 0
M  V30 2964 H 279.496 -4.84661 0.152082 0
M  V30 2965 N 280.839 0.0985539 -1.57292 0
M  V30 2966 C 281.802 1.10402 -2.00858 0
M  V30 2967 C 282.802 1.33146 -0.901593 0
M  V30 2968 O 283.992 1.29318 -1.16716 0
M  V30 2969 C 281.124 2.45394 -2.36632 0
M  V30 2970 H 282.317 0.729099 -2.90902 0
M  V30 2971 H 279.87 0.343495 -1.52479 0
M  V30 2972 H 280.605 2.87769 -1.49531 0
M  V30 2973 H 280.39 2.30235 -3.17387 0
M  V30 2974 H 281.88 3.17718 -2.71007 0
M  V30 2975 N 282.317 1.53212 0.369288 0
M  V30 2976 C 283.247 1.82365 1.45826 0
M  V30 2977 C 284.228 0.676907 1.56051 0
M  V30 2978 O 285.413 0.926401 1.70679 0
M  V30 2979 C 282.543 2.01023 2.83208 0
M  V30 2980 C 281.497 3.1678 2.8781 0
M  V30 2981 C 280.823 3.20724 4.27832 0
M  V30 2982 C 282.123 4.55447 2.55667 0
M  V30 2983 H 283.817 2.73559 1.21678 0
M  V30 2984 H 281.363 1.3163 0.583911 0
M  V30 2985 H 283.316 2.20001 3.59413 0
M  V30 2986 H 282.04 1.06536 3.08736 0
M  V30 2987 H 280.699 2.97616 2.14056 0
M  V30 2988 H 280.347 2.23882 4.50429 0
M  V30 2989 H 280.047 3.98496 4.31827 0
M  V30 2990 H 281.571 3.41881 5.05915 0
M  V30 2991 H 282.985 4.74611 3.21586 0
M  V30 2992 H 281.382 5.35432 2.70984 0
M  V30 2993 H 282.452 4.60812 1.5093 0
M  V30 2994 N 283.795 -0.628877 1.44509 0
M  V30 2995 C 284.758 -1.72263 1.51188 0
M  V30 2996 C 285.758 -1.55907 0.39367 0
M  V30 2997 O 286.948 -1.61361 0.656377 0
M  V30 2998 C 284.08 -3.11365 1.38798 0
M  V30 2999 H 285.273 -1.67714 2.4862 0
M  V30 3000 H 282.826 -0.842737 1.31634 0
M  V30 3001 H 283.561 -3.21507 0.424693 0
M  V30 3002 H 283.346 -3.24644 2.19884 0
M  V30 3003 H 284.836 -3.91075 1.46458 0
M  V30 3004 N 285.273 -1.31445 -0.869486 0
M  V30 3005 C 286.522 -1.20517 -1.61736 0
M  V30 3006 C 286.835 0.235341 -1.94179 0
M  V30 3007 O 288.041 0.466312 -2.67465 0
M  V30 3008 C 286.497 -2.10982 -2.91573 0
M  V30 3009 C 286.105 -3.60032 -2.66611 0
M  V30 3010 C 287.849 -2.08856 -3.69567 0
M  V30 3011 C 285.756 -4.42503 -3.92358 0
M  V30 3012 H 284.686 -0.447493 -0.606849 0
M  V30 3013 H 287.337 -1.56303 -0.96133 0
M  V30 3014 H 285.719 -1.68095 -3.58553 0
M  V30 3015 H 286.893 -4.11167 -2.08035 0
M  V30 3016 H 285.208 -3.64139 -2.0197 0
M  V30 3017 H 287.805 -2.67716 -4.62852 0
M  V30 3018 H 288.148 -1.07582 -4.02159 0
M  V30 3019 H 288.681 -2.49945 -3.09471 0
M  V30 3020 H 285.42 -5.44533 -3.64916 0
M  V30 3021 H 284.94 -3.96125 -4.50383 0
M  V30 3022 H 286.619 -4.54741 -4.60238 0
M  V30 3023 N 286.751 1.08385 -1.14413 0
M  V30 3024 C 287.698 2.15311 -0.831265 0
M  V30 3025 C 288.668 1.64751 0.211292 0
M  V30 3026 O 289.853 1.90627 0.0811674 0
M  V30 3027 C 286.993 3.43658 -0.315143 0
M  V30 3028 C 286.106 4.08064 -1.41802 0
M  V30 3029 C 285.241 5.24207 -0.859126 0
M  V30 3030 C 284.28 5.80554 -1.93967 0
M  V30 3031 N 283.417 6.88042 -1.39793 0
M  V30 3032 H 288.257 2.41415 -1.74708 0
M  V30 3033 H 285.794 1.18474 -0.871909 0
M  V30 3034 H 287.752 4.172 0.00230884 0
M  V30 3035 H 286.382 3.17839 0.56378 0
M  V30 3036 H 285.434 3.3228 -1.85187 0
M  V30 3037 H 286.746 4.45962 -2.23427 0
M  V30 3038 H 285.9 6.04689 -0.49359 0
M  V30 3039 H 284.639 4.87699 -0.011932 0
M  V30 3040 H 283.644 4.98725 -2.31415 0
M  V30 3041 H 284.869 6.19121 -2.79046 0
M  V30 3042 H 282.815 6.53493 -0.572919 0
M  V30 3043 H 282.732 7.24767 -2.15054 0
M  V30 3044 H 284 7.72255 -1.0603 0
M  V30 3045 N 288.23 0.939286 1.26551 0
M  V30 3046 C 289.476 0.586715 1.94128 0
M  V30 3047 C 289.809 -0.8717 1.73537 0
M  V30 3048 O 289.084 -1.62339 1.07127 0
M  V30 3049 C 289.367 0.927497 3.4795 0
M  V30 3050 C 289.22 2.44052 3.77834 0
M  V30 3051 C 290.539 0.441569 4.37879 0
M  V30 3052 H 287.658 0.21463 0.705055 0
M  V30 3053 H 290.3 1.17316 1.49455 0
M  V30 3054 H 288.45 0.428431 3.8613 0
M  V30 3055 H 290.122 3.01216 3.4938 0
M  V30 3056 H 288.365 2.8848 3.23978 0
M  V30 3057 H 289.036 2.62947 4.85348 0
M  V30 3058 H 291.512 0.869448 4.06915 0
M  V30 3059 H 290.388 0.708856 5.44304 0
M  V30 3060 H 290.649 -0.658467 4.37169 0
M  V30 3061 N 289.708 -1.40897 0.706093 0
M  V30 3062 C 290.638 -2.33418 0.0620085 0
M  V30 3063 C 291.619 -1.52385 -0.755827 0
M  V30 3064 O 292.804 -1.80886 -0.706674 0
M  V30 3065 C 289.934 -3.36293 -0.867445 0
M  V30 3066 C 288.888 -4.27716 -0.155932 0
M  V30 3067 C 288.214 -5.2105 -1.20046 0
M  V30 3068 C 289.514 -5.12944 0.984149 0
M  V30 3069 H 291.208 -2.87527 0.83477 0
M  V30 3070 H 288.754 -1.38249 0.402875 0
M  V30 3071 H 290.707 -3.99949 -1.32735 0
M  V30 3072 H 289.431 -2.80556 -1.67199 0
M  V30 3073 H 288.09 -3.65498 0.284047 0
M  V30 3074 H 287.738 -4.61624 -1.99781 0
M  V30 3075 H 287.438 -5.83056 -0.729328 0
M  V30 3076 H 288.962 -5.87584 -1.66066 0
M  V30 3077 H 290.376 -5.70109 0.604048 0
M  V30 3078 H 288.773 -5.83945 1.38304 0
M  V30 3079 H 289.843 -4.49485 1.81911 0
M  V30 3080 N 291.186 -0.45159 -1.50991 0
M  V30 3081 C 292.134 0.366864 -2.29689 0
M  V30 3082 C 293.128 1.00809 -1.36139 0
M  V30 3083 O 294.334 0.941427 -1.53418 0
M  V30 3084 H 290.709 0.137133 -0.739391 0
M  V30 3085 H 292.68 -0.317538 -2.96706 0
M  V30 3086 C 291.429 1.44751 -3.16137 0
M  V30 3087 H 290.752 0.963473 -3.88017 0
M  V30 3088 H 292.192 1.99315 -3.74232 0
M  V30 3089 C 290.651 2.43869 -2.32442 0
M  V30 3090 O 291.181 3.4872 -1.99392 0
M  V30 3091 N 289.387 2.15105 -1.95392 0
M  V30 3092 H 288.934 1.29866 -2.22469 0
M  V30 3093 H 288.892 2.81661 -1.39693 0
M  V30 3094 N 292.664 1.56529 -0.183458 0
M  V30 3095 C 293.611 2.18546 0.742055 0
M  V30 3096 C 294.581 1.12912 1.2182 0
M  V30 3097 O 295.766 1.41115 1.28418 0
M  V30 3098 C 292.906 2.83977 1.96089 0
M  V30 3099 C 292.019 4.04105 1.52719 0
M  V30 3100 C 291.154 4.57427 2.70063 0
M  V30 3101 C 290.193 5.69938 2.23243 0
M  V30 3102 N 289.33 6.17717 3.33722 0
M  V30 3103 H 294.17 2.97284 0.206432 0
M  V30 3104 H 291.707 1.46823 0.0901571 0
M  V30 3105 H 293.665 3.20077 2.67594 0
M  V30 3106 H 292.295 2.07822 2.47002 0
M  V30 3107 H 291.347 3.73745 0.708436 0
M  V30 3108 H 292.659 4.85513 1.1436 0
M  V30 3109 H 291.813 4.95772 3.49708 0
M  V30 3110 H 290.552 3.75101 3.11689 0
M  V30 3111 H 289.557 5.31133 1.42048 0
M  V30 3112 H 290.782 6.54073 1.82661 0
M  V30 3113 H 288.728 5.38317 3.74902 0
M  V30 3114 H 288.645 6.94146 2.99495 0
M  V30 3115 H 289.913 6.60713 4.13616 0
M  V30 3116 N 294.142 -0.090211 1.57342 0
M  V30 3117 C 295.37 -0.806224 1.90546 0
M  V30 3118 C 295.785 -1.72041 0.777644 0
M  V30 3119 O 295.142 -1.80778 -0.250103 0
M  V30 3120 C 295.193 -1.61546 3.23396 0
M  V30 3121 O 294.914 -0.738043 4.31839 0
M  V30 3122 C 296.415 -2.4341 3.70495 0
M  V30 3123 H 293.635 -0.230256 0.630257 0
M  V30 3124 H 296.179 -0.0659843 2.04394 0
M  V30 3125 H 294.334 -2.30816 3.11131 0
M  V30 3126 H 294.748 -1.29901 5.08159 0
M  V30 3127 H 296.222 -2.95676 4.66133 0
M  V30 3128 H 296.699 -3.22098 2.98579 0
M  V30 3129 H 297.305 -1.79331 3.85643 0
M  V30 3130 N 295.62 -1.53406 -0.361157 0
M  V30 3131 C 296.553 -1.74946 -1.46524 0
M  V30 3132 C 297.531 -0.59795 -1.51206 0
M  V30 3133 O 298.715 -0.831062 -1.69191 0
M  V30 3134 C 295.842 -1.83224 -2.84863 0
M  V30 3135 C 294.888 -3.05233 -2.97885 0
M  V30 3136 S 295.721 -4.6466 -2.66179 0
M  V30 3137 C 296.877 -4.75793 -4.06659 0
M  V30 3138 H 297.11 -2.68319 -1.28033 0
M  V30 3139 H 294.643 -1.44051 -0.555764 0
M  V30 3140 H 296.601 -1.88679 -3.64569 0
M  V30 3141 H 295.262 -0.908948 -3.00661 0
M  V30 3142 H 294.455 -3.07648 -3.9921 0
M  V30 3143 H 294.057 -2.97913 -2.26106 0
M  V30 3144 H 296.349 -4.5612 -5.0096 0
M  V30 3145 H 297.292 -5.7786 -4.09247 0
M  V30 3146 H 297.7 -4.04389 -3.93865 0
M  V30 3147 N 297.098 0.621204 -1.44841 0
M  V30 3148 C 298.375 1.38 -1.38619 0
M  V30 3149 C 298.755 2.11041 -0.0498935 0
M  V30 3150 O 298.103 2.06992 0.967816 0
M  V30 3151 C 298.313 2.33817 -2.59096 0
M  V30 3152 C 299.661 2.96844 -3.03593 0
M  V30 3153 O 300.685 2.44141 -2.59371 0
M  V30 3154 O 299.544 3.92476 -3.80296 0
M  V30 3155 H 296.638 0.61811 -0.549426 0
M  V30 3156 H 299.184 0.645429 -1.56947 0
M  V30 3157 H 297.956 1.79012 -3.47952 0
M  V30 3158 H 297.579 3.14676 -2.43032 0
M  V30 3159 N 298.576 1.31904 0.862503 0
M  V30 3160 C 299.822 1.22197 1.61851 0
M  V30 3161 C 300.155 -0.217641 1.92977 0
M  V30 3162 O 299.43 -1.15264 1.56666 0
M  V30 3163 C 299.713 2.07378 2.94391 0
M  V30 3164 C 299.566 3.59678 2.70096 0
M  V30 3165 C 300.885 1.92891 3.95577 0
M  V30 3166 H 298.004 0.445255 0.587296 0
M  V30 3167 H 300.646 1.6177 0.99651 0
M  V30 3168 H 298.796 1.73758 3.47477 0
M  V30 3169 H 300.468 4.03472 2.23625 0
M  V30 3170 H 298.711 3.82735 2.04197 0
M  V30 3171 H 299.382 4.14595 3.64438 0
M  V30 3172 H 301.858 2.22327 3.51724 0
M  V30 3173 H 300.734 2.54781 4.86187 0
M  V30 3174 H 300.995 0.894315 4.3296 0
M  V30 3175 N 300.054 -1.07777 1.14986 0
M  V30 3176 C 301.279 -1.84558 0.946213 0
M  V30 3177 C 301.704 -1.81323 -0.500362 0
M  V30 3178 O 301.062 -1.20301 -1.35637 0
M  V30 3179 C 301.11 -3.29736 1.45968 0
M  V30 3180 O 300.214 -4.07149 0.65601 0
M  V30 3181 H 299.555 -0.571641 0.33782 0
M  V30 3182 H 302.085 -1.35991 1.52865 0
M  V30 3183 H 302.095 -3.80574 1.47063 0
M  V30 3184 H 300.77 -3.31406 2.51283 0
M  V30 3185 H 299.347 -3.65994 0.714322 0
M  V30 3186 N 301.532 -0.945985 -1.26051 0
M  V30 3187 C 302.479 -0.45809 -2.26208 0
M  V30 3188 C 303.449 0.484816 -1.58867 0
M  V30 3189 O 304.634 0.399969 -1.86561 0
M  V30 3190 C 301.774 0.266131 -3.44072 0
M  V30 3191 C 300.887 -0.713005 -4.26075 0
M  V30 3192 C 300.022 0.0329013 -5.3119 0
M  V30 3193 C 299.061 -0.93774 -6.04874 0
M  V30 3194 N 298.198 -0.223274 -7.01745 0
M  V30 3195 H 303.038 -1.3171 -2.67313 0
M  V30 3196 H 300.575 -0.66069 -1.31428 0
M  V30 3197 H 302.533 0.702514 -4.11243 0
M  V30 3198 H 301.163 1.08925 -3.03867 0
M  V30 3199 H 300.215 -1.26789 -3.58648 0
M  V30 3200 H 301.527 -1.45406 -4.77136 0
M  V30 3201 H 300.681 0.528335 -6.04395 0
M  V30 3202 H 299.42 0.806801 -4.8098 0
M  V30 3203 H 298.425 -1.44425 -5.30492 0
M  V30 3204 H 299.65 -1.71172 -6.57173 0
M  V30 3205 H 297.596 0.532046 -6.53839 0
M  V30 3206 H 297.513 -0.90357 -7.50581 0
M  V30 3207 H 298.781 0.250907 -7.79096 0
M  V30 3208 N 303.011 1.40521 -0.713556 0
M  V30 3209 C 303.941 2.33381 -0.0743864 0
M  V30 3210 C 304.922 1.52784 0.747735 0
M  V30 3211 O 306.107 1.81258 0.697071 0
M  V30 3212 C 303.237 3.36748 0.849598 0
M  V30 3213 C 302.191 4.27793 0.133247 0
M  V30 3214 C 301.517 5.21679 1.17281 0
M  V30 3215 C 302.817 5.12415 -1.01134 0
M  V30 3216 H 304.511 2.87081 -0.850007 0
M  V30 3217 H 302.057 1.38034 -0.410201 0
M  V30 3218 H 304.01 4.00648 1.30612 0
M  V30 3219 H 302.734 2.81439 1.65709 0
M  V30 3220 H 301.393 3.65342 -0.303426 0
M  V30 3221 H 301.041 4.62677 1.9733 0
M  V30 3222 H 300.741 5.83435 0.698397 0
M  V30 3223 H 302.265 5.88456 1.62947 0
M  V30 3224 H 303.679 5.69781 -0.634274 0
M  V30 3225 H 302.076 5.83203 -1.41399 0
M  V30 3226 H 303.146 4.48514 -1.84292 0
M  V30 3227 N 304.489 0.459591 1.5075 0
M  V30 3228 C 305.714 -0.0996819 2.0716 0
M  V30 3229 C 306.139 -1.33761 1.32249 0
M  V30 3230 O 305.497 -1.77551 0.366786 0
M  V30 3231 C 305.545 -0.378226 3.58611 0
M  V30 3232 O 304.649 -1.46081 3.85661 0
M  V30 3233 H 303.99 0.00791392 0.663953 0
M  V30 3234 H 306.52 0.647329 1.9409 0
M  V30 3235 H 306.53 -0.622135 4.03229 0
M  V30 3236 H 305.205 0.526439 4.12555 0
M  V30 3237 H 303.782 -1.20511 3.5289 0
M  V30 3238 N 305.967 -1.56429 0.191757 0
M  V30 3239 C 306.93 -2.17707 -0.716688 0
M  V30 3240 C 307.93 -1.13061 -1.14341 0
M  V30 3241 O 309.12 -1.38464 -1.05704 0
M  V30 3242 C 306.252 -2.77644 -1.97804 0
M  V30 3243 H 307.445 -2.99342 -0.1829 0
M  V30 3244 H 304.998 -1.56193 -0.0578566 0
M  V30 3245 H 305.733 -1.99799 -2.55443 0
M  V30 3246 H 305.518 -3.54246 -1.68083 0
M  V30 3247 H 307.008 -3.24708 -2.62592 0
M  V30 3248 N 307.445 0.0818655 -1.57387 0
M  V30 3249 C 308.355 1.11642 -2.06333 0
M  V30 3250 C 309.371 1.43033 -0.99083 0
M  V30 3251 O 310.547 1.53411 -1.30488 0
M  V30 3252 C 307.612 2.41342 -2.48907 0
M  V30 3253 C 306.673 2.17014 -3.7041 0
M  V30 3254 C 305.906 3.4053 -4.10944 0
M  V30 3255 O 306.129 4.4927 -3.51444 0
M  V30 3256 O 305.063 3.29336 -5.03807 0
M  V30 3257 H 308.889 0.730657 -2.9478 0
M  V30 3258 H 306.474 0.295301 -1.46452 0
M  V30 3259 H 308.356 3.17691 -2.76858 0
M  V30 3260 H 307.031 2.79319 -1.63593 0
M  V30 3261 H 305.938 1.38403 -3.47556 0
M  V30 3262 H 307.271 1.83923 -4.56545 0
M  V30 3263 N 308.923 1.53595 0.353017 0
M  V30 3264 C 309.87 1.80919 1.43308 0
M  V30 3265 C 310.84 0.654288 1.5267 0
M  V30 3266 O 312.025 0.897759 1.6836 0
M  V30 3267 C 309.165 2.01605 2.80089 0
M  V30 3268 C 308.278 3.29321 2.79593 0
M  V30 3269 C 307.413 3.40125 4.0803 0
M  V30 3270 C 306.452 4.61826 4.01725 0
M  V30 3271 N 305.589 4.69716 5.21834 0
M  V30 3272 H 310.429 2.73074 1.19308 0
M  V30 3273 H 307.966 1.35263 0.578131 0
M  V30 3274 H 309.924 2.11586 3.59565 0
M  V30 3275 H 308.554 1.12772 3.0246 0
M  V30 3276 H 307.606 3.28229 1.92276 0
M  V30 3277 H 308.918 4.18884 2.70809 0
M  V30 3278 H 308.072 3.49488 4.95927 0
M  V30 3279 H 306.811 2.48601 4.19582 0
M  V30 3280 H 305.816 4.52552 3.12213 0
M  V30 3281 H 307.041 5.54705 3.91764 0
M  V30 3282 H 304.987 3.81097 5.33948 0
M  V30 3283 H 304.904 5.53202 5.1527 0
M  V30 3284 H 306.172 4.83376 6.11529 0
M  V30 3285 N 310.401 -0.613514 1.45168 0
M  V30 3286 C 311.647 -1.37471 1.49096 0
M  V30 3287 C 311.98 -1.93765 0.129901 0
M  V30 3288 O 311.255 -1.74707 -0.854858 0
M  V30 3289 C 311.538 -2.52701 2.56542 0
M  V30 3290 C 311.391 -2.01643 4.0207 0
M  V30 3291 C 312.71 -3.54849 2.60327 0
M  V30 3292 H 309.829 -0.498502 0.54283 0
M  V30 3293 H 312.471 -0.692125 1.76945 0
M  V30 3294 H 310.621 -3.10931 2.32926 0
M  V30 3295 H 312.293 -1.48108 4.36877 0
M  V30 3296 H 310.536 -1.32688 4.13009 0
M  V30 3297 H 311.207 -2.84681 4.72928 0
M  V30 3298 H 313.683 -3.0645 2.81474 0
M  V30 3299 H 312.559 -4.32973 3.37381 0
M  V30 3300 H 312.82 -4.10079 1.6519 0
M  V30 3301 N 311.879 -1.3236 -0.855495 0
M  V30 3302 C 312.789 -1.23221 -1.99634 0
M  V30 3303 C 313.805 -0.145983 -1.73387 0
M  V30 3304 O 314.981 -0.366502 -1.98037 0
M  V30 3305 C 312.046 -0.954782 -3.33294 0
M  V30 3306 C 311.107 -2.12937 -3.72769 0
M  V30 3307 C 310.34 -1.86508 -5.00051 0
M  V30 3308 O 310.563 -0.807231 -5.64659 0
M  V30 3309 O 309.497 -2.72591 -5.36636 0
M  V30 3310 H 313.323 -2.19126 -2.1028 0
M  V30 3311 H 310.908 -1.12241 -0.986018 0
M  V30 3312 H 312.79 -0.816519 -4.13414 0
M  V30 3313 H 311.465 -0.0258854 -3.2369 0
M  V30 3314 H 310.372 -2.3231 -2.93228 0
M  V30 3315 H 311.705 -3.04102 -3.87018 0
M  V30 3316 N 313.357 1.07166 -1.15556 0
M  V30 3317 C 314.606 1.79181 -0.926132 0
M  V30 3318 C 314.919 1.87768 0.547967 0
M  V30 3319 O 316.125 2.56323 0.895036 0
M  V30 3320 C 314.581 3.22 -1.60761 0
M  V30 3321 C 314.189 3.21607 -3.11886 0
M  V30 3322 C 315.933 3.9861 -1.4598 0
M  V30 3323 C 313.84 4.59092 -3.72812 0
M  V30 3324 H 312.77 0.67154 -0.342856 0
M  V30 3325 H 315.421 1.2027 -1.3859 0
M  V30 3326 H 313.803 3.81115 -1.07553 0
M  V30 3327 H 314.977 2.72127 -3.71865 0
M  V30 3328 H 313.292 2.58495 -3.2645 0
M  V30 3329 H 315.889 5.00225 -1.88888 0
M  V30 3330 H 316.232 4.143 -0.407541 0
M  V30 3331 H 316.765 3.45996 -1.96295 0
M  V30 3332 H 313.504 4.48606 -4.77946 0
M  V30 3333 H 313.024 5.08803 -3.17616 0
M  V30 3334 H 314.703 5.28059 -3.73848 0
M  V30 3335 N 314.835 0.952656 1.25548 0
M  V30 3336 C 315.798 0.475794 2.24207 0
M  V30 3337 C 316.798 -0.419428 1.55234 0
M  V30 3338 O 317.988 -0.216994 1.72843 0
M  V30 3339 C 315.12 -0.312814 3.39462 0
M  V30 3340 H 316.313 1.34779 2.67908 0
M  V30 3341 H 313.866 0.735739 1.37901 0
M  V30 3342 H 314.601 -1.20257 3.01179 0
M  V30 3343 H 314.386 0.329404 3.90714 0
M  V30 3344 H 315.876 -0.635986 4.12729 0
M  V30 3345 N 316.313 -1.40141 0.720998 0
M  V30 3346 C 317.541 -2.05096 0.272656 0
M  V30 3347 C 317.956 -1.54334 -1.0875 0
M  V30 3348 O 317.313 -0.702211 -1.6845 0
M  V30 3349 C 317.364 -3.60636 0.249835 0
M  V30 3350 O 317.085 -4.09526 1.55629 0
M  V30 3351 C 318.586 -4.42772 -0.216396 0
M  V30 3352 H 315.806 -0.659897 0.121558 0
M  V30 3353 H 318.35 -1.79449 0.980723 0
M  V30 3354 H 316.505 -3.85232 -0.409237 0
M  V30 3355 H 316.919 -5.03758 1.4604 0
M  V30 3356 H 318.393 -5.51702 -0.181212 0
M  V30 3357 H 318.87 -4.20756 -1.25941 0
M  V30 3358 H 319.476 -4.23294 0.412596 0
M  V30 3359 N 317.792 -0.46758 -1.50504 0
M  V30 3360 C 318.722 0.318381 -2.31319 0
M  V30 3361 C 319.703 0.993564 -1.38066 0
M  V30 3362 O 320.888 0.991411 -1.66987 0
M  V30 3363 C 318.018 1.40275 -3.17711 0
M  V30 3364 C 316.972 0.849373 -4.19487 0
M  V30 3365 C 316.298 2.03177 -4.94594 0
M  V30 3366 C 317.598 -0.136942 -5.2212 0
M  V30 3367 H 319.292 -0.356106 -2.97275 0
M  V30 3368 H 316.838 -0.172703 -1.42961 0
M  V30 3369 H 318.791 1.96004 -3.73042 0
M  V30 3370 H 317.515 2.10596 -2.49634 0
M  V30 3371 H 316.174 0.314076 -3.65252 0
M  V30 3372 H 315.822 2.72187 -4.22993 0
M  V30 3373 H 315.522 1.66774 -5.63436 0
M  V30 3374 H 317.046 2.59403 -5.52759 0
M  V30 3375 H 318.46 0.331056 -5.72343 0
M  V30 3376 H 316.857 -0.41507 -5.98663 0
M  V30 3377 H 317.927 -1.06398 -4.73083 0
M  V30 3378 N 319.27 1.56325 -0.20005 0
M  V30 3379 C 320.498 2.02105 0.442874 0
M  V30 3380 C 320.913 1.08014 1.5485 0
M  V30 3381 O 320.27 0.0858797 1.82298 0
M  V30 3382 C 320.321 3.47549 0.994583 0
M  V30 3383 O 320.042 4.38049 -0.0669322 0
M  V30 3384 C 321.543 4.0887 1.7129 0
M  V30 3385 H 318.763 0.661807 0.110691 0
M  V30 3386 H 321.307 2.02134 -0.310207 0
M  V30 3387 H 319.462 3.48204 1.69803 0
M  V30 3388 H 319.876 5.23368 0.344462 0
M  V30 3389 H 321.35 5.12475 2.05118 0
M  V30 3390 H 321.827 3.52615 2.61838 0
M  V30 3391 H 322.433 4.12002 1.05518 0
M  V30 3392 N 320.748 -0.0735177 1.57428 0
M  V30 3393 C 322.164 -0.428264 1.53747 0
M  V30 3394 C 322.364 -1.79272 0.91998 0
M  V30 3395 O 321.42 -2.47051 0.521745 0
M  V30 3396 C 322.733 -0.370914 2.98404 0
M  V30 3397 C 324.281 -0.451224 3.0973 0
M  V30 3398 C 324.756 -0.4238 4.56035 0
M  V30 3399 N 326.247 -0.483925 4.60665 0
M  V30 3400 C 326.982 -0.484891 5.71346 0
M  V30 3401 N 326.478 -0.440775 6.91396 0
M  V30 3402 N 328.271 -0.531319 5.59583 0
M  V30 3403 H 320.422 0.819949 1.95935 0
M  V30 3404 H 322.685 0.307493 0.896745 0
M  V30 3405 H 322.391 0.564956 3.47133 0
M  V30 3406 H 322.265 -1.18176 3.5821 0
M  V30 3407 H 324.652 -1.37752 2.60976 0
M  V30 3408 H 324.733 0.388167 2.52838 0
M  V30 3409 H 324.377 0.498638 5.05446 0
M  V30 3410 H 324.307 -1.2807 5.10789 0
M  V30 3411 H 326.798 -0.522338 3.74273 0
M  V30 3412 H 327.111 -0.44539 7.71515 0
M  V30 3413 H 325.456 -0.40749 6.93804 0
M  V30 3414 H 328.647 -0.563464 4.64696 0
M  V30 3415 H 328.82 -0.528603 6.4584 0
M  V30 3416 N 322.226 -1.5378 -0.344866 0
M  V30 3417 C 323.136 -1.84667 -1.4469 0
M  V30 3418 C 324.152 -0.736704 -1.57635 0
M  V30 3419 O 325.328 -1.02888 -1.73136 0
M  V30 3420 C 322.393 -2.04869 -2.79696 0
M  V30 3421 C 321.454 -3.28731 -2.76106 0
M  V30 3422 C 320.687 -3.4796 -4.04673 0
M  V30 3423 O 320.91 -2.71052 -5.01883 0
M  V30 3424 O 319.844 -4.41383 -4.09224 0
M  V30 3425 H 323.67 -2.78334 -1.21506 0
M  V30 3426 H 321.255 -1.39418 -0.536921 0
M  V30 3427 H 323.137 -2.19609 -3.59652 0
M  V30 3428 H 321.812 -1.14391 -3.02814 0
M  V30 3429 H 320.719 -3.19396 -1.94774 0
M  V30 3430 H 322.052 -4.19198 -2.57941 0
M  V30 3431 N 323.704 0.605807 -1.45491 0
M  V30 3432 C 324.652 1.73754 -1.54636 0
M  V30 3433 C 325.646 1.64207 -0.416219 0
M  V30 3434 O 326.852 1.69979 -0.592199 0
M  V30 3435 H 323.227 0.574073 -0.485741 0
M  V30 3436 H 325.198 1.63169 -2.49837 0
M  V30 3437 C 323.947 3.12135 -1.53189 0
M  V30 3438 H 323.27 3.20141 -2.39478 0
M  V30 3439 H 324.71 3.91147 -1.63645 0
M  V30 3440 C 323.169 3.35921 -0.256616 0
M  V30 3441 O 323.699 3.96194 0.662798 0
M  V30 3442 N 321.905 2.90204 -0.151751 0
M  V30 3443 H 321.452 2.41336 -0.90081 0
M  V30 3444 H 321.41 3.06492 0.700699 0
M  V30 3445 N 325.182 1.32811 0.848464 0
M  V30 3446 C 326.43 1.23479 1.59991 0
M  V30 3447 C 326.751 -0.201853 1.93952 0
M  V30 3448 O 326.021 -1.12818 1.60153 0
M  V30 3449 H 324.601 0.454034 0.593179 0
M  V30 3450 H 327.263 1.66412 1.01455 0
M  V30 3451 H 326.359 1.82178 2.53412 0
M  V30 3452 N 326.66 -1.06551 1.16123 0
M  V30 3453 C 327.607 -2.13961 0.865414 0
M  V30 3454 C 328.577 -1.65066 -0.185055 0
M  V30 3455 O 329.762 -1.90732 -0.05083 0
M  V30 3456 C 326.902 -3.43113 0.369776 0
M  V30 3457 C 326.015 -4.05756 1.48276 0
M  V30 3458 C 325.15 -5.22773 0.942414 0
M  V30 3459 C 324.189 -5.77395 2.03179 0
M  V30 3460 N 323.326 -6.85731 1.50721 0
M  V30 3461 H 328.166 -2.38605 1.78527 0
M  V30 3462 H 325.703 -1.17072 0.890646 0
M  V30 3463 H 327.661 -4.17151 0.0640643 0
M  V30 3464 H 326.291 -3.18695 -0.513143 0
M  V30 3465 H 325.343 -3.29292 1.9045 0
M  V30 3466 H 326.655 -4.42351 2.30493 0
M  V30 3467 H 325.809 -6.03827 0.589729 0
M  V30 3468 H 324.548 -4.87618 0.0895191 0
M  V30 3469 H 323.553 -4.94981 2.3932 0
M  V30 3470 H 324.778 -6.14603 2.8886 0
M  V30 3471 H 322.724 -6.52499 0.676811 0
M  V30 3472 H 322.641 -7.21254 2.26557 0
M  V30 3473 H 323.909 -7.7047 1.18303 0
M  V30 3474 N 328.138 -0.959301 -1.25041 0
M  V30 3475 C 329.366 -0.633949 -1.96948 0
M  V30 3476 C 329.781 0.794916 -1.7125 0
M  V30 3477 O 329.138 1.53231 -0.991287 0
M  V30 3478 C 329.189 -0.888805 -3.50403 0
M  V30 3479 O 328.91 -2.26149 -3.75218 0
M  V30 3480 C 330.411 -0.576482 -4.39536 0
M  V30 3481 H 327.631 -0.237263 -0.627652 0
M  V30 3482 H 330.175 -1.28495 -1.59089 0
M  V30 3483 H 328.33 -0.284145 -3.86357 0
M  V30 3484 H 328.744 -2.33514 -4.6965 0
M  V30 3485 H 330.218 -0.805314 -5.46094 0
M  V30 3486 H 330.695 0.489075 -4.36468 0
M  V30 3487 H 331.301 -1.16067 -4.09156 0
M  V30 3488 N 329.616 1.39756 -0.72842 0
M  V30 3489 C 330.862 2.00942 -0.273892 0
M  V30 3490 C 331.195 1.57656 1.13394 0
M  V30 3491 O 330.47 0.802434 1.77176 0
M  V30 3492 C 330.753 3.58211 -0.368346 0
M  V30 3493 C 330.606 4.11534 -1.81548 0
M  V30 3494 C 331.925 4.39372 0.253054 0
M  V30 3495 H 329.044 0.730047 -0.100996 0
M  V30 3496 H 331.686 1.66056 -0.923337 0
M  V30 3497 H 329.836 3.88061 0.184588 0
M  V30 3498 H 331.508 3.92431 -2.42478 0
M  V30 3499 H 329.751 3.65341 -2.33898 0
M  V30 3500 H 330.422 5.20682 -1.83288 0
M  V30 3501 H 332.898 4.15527 -0.218224 0
M  V30 3502 H 331.774 5.48677 0.156585 0
M  V30 3503 H 332.035 4.21358 1.33826 0
M  V30 3504 N 331.094 0.475555 1.50254 0
M  V30 3505 C 332.343 -0.0795996 2.01543 0
M  V30 3506 C 332.656 -1.4038 1.36209 0
M  V30 3507 O 333.862 -2.04415 1.7868 0
M  V30 3508 C 332.318 -0.192363 3.59386 0
M  V30 3509 C 331.926 1.12367 4.33679 0
M  V30 3510 C 333.67 -0.699238 4.18701 0
M  V30 3511 C 331.577 0.974453 5.83317 0
M  V30 3512 H 330.507 -0.0335228 0.753254 0
M  V30 3513 H 333.158 0.611128 1.73025 0
M  V30 3514 H 331.54 -0.946974 3.84511 0
M  V30 3515 H 332.714 1.88958 4.20276 0
M  V30 3516 H 331.029 1.562 3.85993 0
M  V30 3517 H 333.626 -0.827978 5.28251 0
M  V30 3518 H 333.969 -1.69171 3.80377 0
M  V30 3519 H 334.502 -0.00188807 3.978 0
M  V30 3520 H 331.241 1.94042 6.26121 0
M  V30 3521 H 330.761 0.248998 5.99283 0
M  V30 3522 H 332.44 0.642867 6.43798 0
M  V30 3523 N 332.573 -1.56217 0.208337 0
M  V30 3524 C 333.989 -1.58919 -0.14729 0
M  V30 3525 C 334.189 -1.22486 -1.59998 0
M  V30 3526 O 333.245 -0.953849 -2.3379 0
M  V30 3527 C 334.558 -3.00236 0.167048 0
M  V30 3528 C 336.106 -3.12813 0.108219 0
M  V30 3529 C 336.581 -4.56284 0.396049 0
M  V30 3530 N 338.072 -4.61912 0.345142 0
M  V30 3531 C 338.807 -5.70837 0.541523 0
M  V30 3532 N 338.303 -6.88178 0.798968 0
M  V30 3533 N 340.096 -5.60091 0.474867 0
M  V30 3534 H 332.247 -1.78177 1.15614 0
M  V30 3535 H 334.51 -0.827555 0.462446 0
M  V30 3536 H 334.216 -3.31499 1.1748 0
M  V30 3537 H 334.09 -3.7354 -0.524184 0
M  V30 3538 H 336.477 -2.81354 -0.890157 0
M  V30 3539 H 336.558 -2.41866 0.832729 0
M  V30 3540 H 336.202 -4.88458 1.3918 0
M  V30 3541 H 336.132 -5.25439 -0.349502 0
M  V30 3542 H 338.623 -3.77589 0.153316 0
M  V30 3543 H 338.936 -7.67095 0.93727 0
M  V30 3544 H 337.281 -6.89953 0.836013 0
M  V30 3545 H 340.472 -4.67297 0.274064 0
M  V30 3546 H 340.645 -6.44917 0.631326 0
M  V30 3547 N 334.051 0.0651679 -1.57465 0
M  V30 3548 C 335.297 0.764193 -1.87851 0
M  V30 3549 C 335.63 1.76889 -0.801495 0
M  V30 3550 O 334.905 1.93594 0.187528 0
M  V30 3551 C 335.188 1.46625 -3.28897 0
M  V30 3552 C 335.041 0.477515 -4.47258 0
M  V30 3553 C 336.36 2.4095 -3.68281 0
M  V30 3554 H 333.479 0.276351 -0.683227 0
M  V30 3555 H 336.121 0.0272868 -1.8998 0
M  V30 3556 H 334.271 2.09438 -3.27212 0
M  V30 3557 H 335.943 -0.145922 -4.61069 0
M  V30 3558 H 334.186 -0.206576 -4.33308 0
M  V30 3559 H 334.857 1.0065 -5.42746 0
M  V30 3560 H 337.333 1.88209 -3.71102 0
M  V30 3561 H 336.209 2.87072 -4.67847 0
M  V30 3562 H 336.47 3.26049 -2.98571 0
M  V30 3563 N 335.529 1.53961 0.336706 0
M  V30 3564 C 336.459 1.85417 1.41925 0
M  V30 3565 C 337.44 0.709856 1.5458 0
M  V30 3566 O 338.625 0.962396 1.68676 0
M  V30 3567 C 335.755 2.06985 2.78881 0
M  V30 3568 C 334.709 3.22813 2.81026 0
M  V30 3569 C 334.035 3.29727 4.20932 0
M  V30 3570 C 335.335 4.60767 2.45949 0
M  V30 3571 H 337.029 2.76079 1.15848 0
M  V30 3572 H 334.575 1.32839 0.555859 0
M  V30 3573 H 336.528 2.27575 3.54665 0
M  V30 3574 H 335.252 1.13061 3.06406 0
M  V30 3575 H 333.911 3.0209 2.07695 0
M  V30 3576 H 333.559 2.33385 4.45579 0
M  V30 3577 H 333.259 4.07566 4.23277 0
M  V30 3578 H 334.783 3.52536 4.98549 0
M  V30 3579 H 336.197 4.81325 3.11446 0
M  V30 3580 H 334.594 5.4106 2.59566 0
M  V30 3581 H 335.664 4.6391 1.41122 0
M  V30 3582 N 337.007 -0.598083 1.45811 0
M  V30 3583 C 337.954 -1.7082 1.55207 0
M  V30 3584 C 338.924 -1.61278 0.39732 0
M  V30 3585 O 340.109 -1.80717 0.612038 0
M  V30 3586 C 337.249 -3.09144 1.53376 0
M  V30 3587 C 336.362 -3.29423 2.79472 0
M  V30 3588 C 335.497 -4.57907 2.69248 0
M  V30 3589 C 334.536 -4.71476 3.90354 0
M  V30 3590 N 333.673 -5.9127 3.78608 0
M  V30 3591 H 338.513 -1.62125 2.50039 0
M  V30 3592 H 336.05 -0.790389 1.24062 0
M  V30 3593 H 338.008 -3.89186 1.50301 0
M  V30 3594 H 336.638 -3.16773 0.620876 0
M  V30 3595 H 335.69 -2.43091 2.92594 0
M  V30 3596 H 337.002 -3.3532 3.69272 0
M  V30 3597 H 336.156 -5.46157 2.64192 0
M  V30 3598 H 334.895 -4.54423 1.77063 0
M  V30 3599 H 333.9 -3.81648 3.95759 0
M  V30 3600 H 335.125 -4.76751 4.83617 0
M  V30 3601 H 333.071 -5.88813 2.89199 0
M  V30 3602 H 332.988 -5.98369 4.6205 0
M  V30 3603 H 334.256 -6.81992 3.77501 0
M  V30 3604 N 338.485 -1.33259 -0.841409 0
M  V30 3605 C 339.417 -1.19136 -1.95804 0
M  V30 3606 C 340.43 -0.122965 -1.62335 0
M  V30 3607 O 341.619 -0.373154 -1.74556 0
M  V30 3608 C 338.719 -0.804268 -3.29218 0
M  V30 3609 C 337.892 -1.96376 -3.90839 0
M  V30 3610 C 336.951 -1.55806 -5.02604 0
M  V30 3611 O 335.977 -2.27203 -5.21888 0
M  V30 3612 N 337.179 -0.461609 -5.78662 0
M  V30 3613 H 339.944 -2.15326 -2.08458 0
M  V30 3614 H 337.505 -1.25971 -1.017 0
M  V30 3615 H 339.497 -0.51501 -4.0141 0
M  V30 3616 H 338.067 0.0668809 -3.12528 0
M  V30 3617 H 337.287 -2.41879 -3.11269 0
M  V30 3618 H 338.575 -2.73966 -4.28742 0
M  V30 3619 H 337.973 0.132343 -5.65545 0
M  V30 3620 H 336.53 -0.232013 -6.51387 0
M  V30 3621 N 339.963 1.05934 -1.16686 0
M  V30 3622 C 340.91 2.13499 -0.876748 0
M  V30 3623 C 341.88 1.65162 0.176299 0
M  V30 3624 O 343.065 1.90757 0.0407143 0
M  V30 3625 C 340.205 3.42912 -0.387967 0
M  V30 3626 C 339.318 4.04964 -1.50426 0
M  V30 3627 C 338.453 5.22266 -0.970125 0
M  V30 3628 C 337.492 5.76309 -2.06238 0
M  V30 3629 N 336.629 6.84922 -1.54356 0
M  V30 3630 H 341.469 2.37654 -1.7979 0
M  V30 3631 H 339.006 1.16598 -0.896843 0
M  V30 3632 H 340.964 4.17111 -0.086186 0
M  V30 3633 H 339.594 3.18963 0.496235 0
M  V30 3634 H 338.646 3.28277 -1.92193 0
M  V30 3635 H 339.958 4.41122 -2.32836 0
M  V30 3636 H 339.112 6.03506 -0.621743 0
M  V30 3637 H 337.851 4.87564 -0.115377 0
M  V30 3638 H 336.856 4.93704 -2.41942 0
M  V30 3639 H 338.081 6.13062 -2.92115 0
M  V30 3640 H 336.027 6.52131 -0.711406 0
M  V30 3641 H 335.944 7.20043 -2.30379 0
M  V30 3642 H 337.212 7.69832 -1.22387 0
M  V30 3643 N 341.441 0.965919 1.2453 0
M  V30 3644 C 342.351 0.502154 2.29163 0
M  V30 3645 C 343.367 -0.436017 1.68448 0
M  V30 3646 O 344.543 -0.309497 1.99008 0
M  V30 3647 C 341.608 -0.201956 3.46111 0
M  V30 3648 C 340.669 0.775821 4.22232 0
M  V30 3649 C 339.902 0.105217 5.33596 0
M  V30 3650 O 340.125 -1.10683 5.59558 0
M  V30 3651 O 339.059 0.796475 5.96607 0
M  V30 3652 H 342.885 1.37194 2.70946 0
M  V30 3653 H 340.47 0.732875 1.30189 0
M  V30 3654 H 342.352 -0.597564 4.17142 0
M  V30 3655 H 341.027 -1.04673 3.06309 0
M  V30 3656 H 339.934 1.22185 3.53584 0
M  V30 3657 H 341.267 1.58896 4.65846 0
M  V30 3658 N 342.919 -1.39368 0.735821 0
M  V30 3659 C 344.165 -2.00794 0.284544 0
M  V30 3660 C 344.498 -1.58255 -1.12557 0
M  V30 3661 O 343.773 -0.811819 -1.76748 0
M  V30 3662 C 344.056 -3.58011 0.387337 0
M  V30 3663 C 343.909 -4.10566 1.83728 0
M  V30 3664 C 345.228 -4.395 -0.22975 0
M  V30 3665 H 342.347 -0.729501 0.104866 0
M  V30 3666 H 344.989 -1.65564 0.93213 0
M  V30 3667 H 343.139 -3.88154 -0.164006 0
M  V30 3668 H 344.811 -3.91139 2.44556 0
M  V30 3669 H 343.054 -3.64095 2.35833 0
M  V30 3670 H 343.725 -5.19702 1.86047 0
M  V30 3671 H 346.201 -4.15406 0.240257 0
M  V30 3672 H 345.077 -5.48752 -0.127485 0
M  V30 3673 H 345.338 -4.22062 -1.3159 0
M  V30 3674 N 344.397 -0.483516 -1.5 0
M  V30 3675 C 345.307 0.309172 -2.32554 0
M  V30 3676 C 346.323 0.984159 -1.43493 0
M  V30 3677 O 347.499 0.969399 -1.76535 0
M  V30 3678 C 344.564 1.36979 -3.18493 0
M  V30 3679 C 343.625 0.710095 -4.23387 0
M  V30 3680 C 342.858 1.72018 -5.05218 0
M  V30 3681 O 343.081 2.94813 -4.88305 0
M  V30 3682 O 342.015 1.28515 -5.8802 0
M  V30 3683 H 345.841 -0.366064 -3.01486 0
M  V30 3684 H 343.426 -0.24514 -1.47375 0
M  V30 3685 H 345.308 1.98385 -3.71781 0
M  V30 3686 H 343.983 2.02828 -2.52275 0
M  V30 3687 H 342.89 0.0567539 -3.74057 0
M  V30 3688 H 344.223 0.0943557 -4.9211 0
M  V30 3689 N 345.875 1.56104 -0.216619 0
M  V30 3690 C 346.807 2.17339 0.72776 0
M  V30 3691 C 347.82 1.14109 1.16116 0
M  V30 3692 O 349.009 1.4111 1.09317 0
M  V30 3693 C 346.109 2.73818 1.99693 0
M  V30 3694 C 345.282 4.02168 1.71988 0
M  V30 3695 C 344.341 4.43259 2.83562 0
M  V30 3696 O 343.367 5.10257 2.52244 0
M  V30 3697 N 344.569 4.08535 4.12407 0
M  V30 3698 H 347.334 2.99005 0.203983 0
M  V30 3699 H 344.895 1.61861 -0.0354289 0
M  V30 3700 H 346.887 2.9828 2.73516 0
M  V30 3701 H 345.457 1.96483 2.43132 0
M  V30 3702 H 344.677 3.85612 0.818337 0
M  V30 3703 H 345.965 4.85907 1.50903 0
M  V30 3704 H 345.363 3.54687 4.40696 0
M  V30 3705 H 343.92 4.37901 4.8279 0
M  V30 3706 N 347.353 -0.0568162 1.57498 0
M  V30 3707 C 348.283 -1.06593 2.0775 0
M  V30 3708 C 349.264 -1.39448 0.974082 0
M  V30 3709 O 350.449 -1.48815 1.24771 0
M  V30 3710 C 347.579 -2.37509 2.5339 0
M  V30 3711 C 346.533 -2.1897 3.67745 0
M  V30 3712 C 345.859 -3.55402 3.99492 0
M  V30 3713 C 347.159 -1.59859 4.97235 0
M  V30 3714 H 348.853 -0.647706 2.9231 0
M  V30 3715 H 346.399 -0.310116 1.40621 0
M  V30 3716 H 348.352 -3.08409 2.87162 0
M  V30 3717 H 347.076 -2.8134 1.65878 0
M  V30 3718 H 345.735 -1.50508 3.3428 0
M  V30 3719 H 345.383 -3.9683 3.09088 0
M  V30 3720 H 345.083 -3.43831 4.76502 0
M  V30 3721 H 346.607 -4.27708 4.35773 0
M  V30 3722 H 348.021 -2.20642 5.29141 0
M  V30 3723 H 346.418 -1.58942 5.78669 0
M  V30 3724 H 347.488 -0.561506 4.81638 0
M  V30 3725 N 348.832 -1.54138 -0.328536 0
M  V30 3726 C 350.081 -1.71318 -1.06456 0
M  V30 3727 C 350.394 -0.491109 -1.89334 0
M  V30 3728 O 351.6 -0.54416 -2.65991 0
M  V30 3729 C 350.056 -3.03 -1.94214 0
M  V30 3730 C 349.664 -4.32595 -1.16471 0
M  V30 3731 C 351.408 -3.29544 -2.67583 0
M  V30 3732 C 349.315 -5.55341 -2.03347 0
M  V30 3733 H 348.245 -0.638429 -0.401155 0
M  V30 3734 H 350.896 -1.80633 -0.323106 0
M  V30 3735 H 349.278 -2.87579 -2.72239 0
M  V30 3736 H 350.452 -4.58766 -0.432525 0
M  V30 3737 H 348.767 -4.12777 -0.548063 0
M  V30 3738 H 351.364 -4.18444 -3.3288 0
M  V30 3739 H 351.707 -2.47206 -3.34955 0
M  V30 3740 H 352.24 -3.45809 -1.96623 0
M  V30 3741 H 348.979 -6.40268 -1.40491 0
M  V30 3742 H 348.499 -5.33397 -2.74313 0
M  V30 3743 H 350.178 -5.91557 -2.62049 0
M  V30 3744 N 350.31 0.590341 -1.46126 0
M  V30 3745 C 351.257 1.69994 -1.56111 0
M  V30 3746 C 352.227 1.61065 -0.405867 0
M  V30 3747 O 353.412 1.8039 -0.621613 0
M  V30 3748 C 350.552 3.08326 -1.55013 0
M  V30 3749 C 349.665 3.27936 -2.81215 0
M  V30 3750 C 348.8 4.56473 -2.71673 0
M  V30 3751 C 347.839 4.694 -3.92849 0
M  V30 3752 N 346.976 5.89254 -3.81738 0
M  V30 3753 H 351.816 1.60797 -2.50895 0
M  V30 3754 H 349.353 0.783799 -1.24479 0
M  V30 3755 H 351.311 3.88383 -1.52362 0
M  V30 3756 H 349.941 3.16439 -0.637667 0
M  V30 3757 H 348.993 2.41536 -2.93879 0
M  V30 3758 H 350.305 3.33357 -3.71045 0
M  V30 3759 H 349.459 5.44748 -2.67085 0
M  V30 3760 H 348.198 4.53477 -1.7947 0
M  V30 3761 H 347.203 3.79544 -3.97777 0
M  V30 3762 H 348.428 4.7418 -4.86138 0
M  V30 3763 H 346.374 5.87271 -2.92317 0
M  V30 3764 H 346.291 5.95911 -4.65217 0
M  V30 3765 H 347.559 6.79981 -3.81112 0
M  V30 3766 N 351.788 1.33704 0.83433 0
M  V30 3767 C 352.735 1.24335 1.94447 0
M  V30 3768 C 353.705 0.120991 1.65659 0
M  V30 3769 O 354.89 0.300035 1.88426 0
M  V30 3770 C 352.03 0.993124 3.30501 0
M  V30 3771 C 351.143 2.20217 3.71657 0
M  V30 3772 C 350.278 1.88572 4.96602 0
M  V30 3773 C 349.317 3.05683 5.30306 0
M  V30 3774 N 348.454 2.73997 6.46429 0
M  V30 3775 H 353.294 2.1928 2.01792 0
M  V30 3776 H 350.831 1.09035 0.987404 0
M  V30 3777 H 352.789 0.828467 4.08892 0
M  V30 3778 H 351.419 0.0803902 3.227 0
M  V30 3779 H 350.471 2.47642 2.88752 0
M  V30 3780 H 351.783 3.07752 3.92543 0
M  V30 3781 H 350.937 1.68776 5.82752 0
M  V30 3782 H 349.676 0.982799 4.77695 0
M  V30 3783 H 348.681 3.26088 4.42659 0
M  V30 3784 H 349.906 3.96737 5.51159 0
M  V30 3785 H 347.852 1.86268 6.28999 0
M  V30 3786 H 347.769 3.55064 6.67432 0
M  V30 3787 H 349.037 2.57679 7.35678 0
M  V30 3788 N 353.266 -1.05314 1.17247 0
M  V30 3789 C 354.216 -2.11313 0.856196 0
M  V30 3790 C 355.2 -1.60013 -0.168694 0
M  V30 3791 O 356.392 -1.76968 0.0335624 0
M  V30 3792 C 353.521 -3.41301 0.369917 0
M  V30 3793 C 352.607 -3.99401 1.42616 0
M  V30 3794 N 352.998 -4.31481 2.63928 0
M  V30 3795 C 351.296 -4.27126 1.28373 0
M  V30 3796 C 351.997 -4.77799 3.31787 0
M  V30 3797 N 350.973 -4.77843 2.59166 0
M  V30 3798 H 354.775 -2.33976 1.77856 0
M  V30 3799 H 352.289 -1.2295 1.06099 0
M  V30 3800 H 354.286 -4.16713 0.124897 0
M  V30 3801 H 352.946 -3.20072 -0.546253 0
M  V30 3802 H 353.957 -4.21519 3.00902 0
M  V30 3803 H 350.634 -4.15289 0.429111 0
M  V30 3804 H 352.024 -5.11743 4.35395 0
M  V30 3805 N 354.744 -0.972509 -1.24016 0
M  V30 3806 C 355.654 -0.5143 -2.28893 0
M  V30 3807 C 356.67 0.427078 -1.68677 0
M  V30 3808 O 357.846 0.298939 -1.99169 0
M  V30 3809 C 354.911 0.183598 -3.46214 0
M  V30 3810 C 353.972 -0.798202 -4.21814 0
M  V30 3811 C 353.205 -0.133514 -5.33533 0
M  V30 3812 O 353.428 1.07714 -5.60137 0
M  V30 3813 O 352.362 -0.828103 -5.96176 0
M  V30 3814 H 356.188 -1.38629 -2.70214 0
M  V30 3815 H 353.773 -0.739769 -1.29799 0
M  V30 3816 H 355.655 0.575433 -4.17453 0
M  V30 3817 H 354.33 1.03048 -3.0686 0
M  V30 3818 H 353.237 -1.24059 -3.52931 0
M  V30 3819 H 354.57 -1.61364 -4.64997 0
M  V30 3820 N 356.222 1.38976 -0.743202 0
M  V30 3821 C 357.132 2.3434 -0.110399 0
M  V30 3822 C 358.148 1.58741 0.712559 0
M  V30 3823 O 359.324 1.9099 0.639125 0
M  V30 3824 C 356.389 3.37812 0.780012 0
M  V30 3825 C 355.45 4.29263 -0.0561319 0
M  V30 3826 C 354.683 5.27793 0.791875 0
M  V30 3827 O 354.906 5.33043 2.03031 0
M  V30 3828 O 353.84 6.01512 0.216183 0
M  V30 3829 H 357.666 2.90129 -0.897714 0
M  V30 3830 H 355.251 1.40643 -0.503966 0
M  V30 3831 H 357.133 4.01194 1.28923 0
M  V30 3832 H 355.808 2.84395 1.546 0
M  V30 3833 H 354.715 3.69076 -0.611056 0
M  V30 3834 H 356.048 4.85907 -0.784531 0
M  V30 3835 N 357.7 0.491464 1.49741 0
M  V30 3836 C 358.61 -0.296835 2.32715 0
M  V30 3837 C 359.626 -0.976536 1.44013 0
M  V30 3838 O 360.802 -0.960023 1.77047 0
M  V30 3839 C 357.867 -1.35288 3.19215 0
M  V30 3840 C 356.928 -0.687632 4.23757 0
M  V30 3841 C 356.161 -1.69336 5.06123 0
M  V30 3842 O 356.384 -2.92219 4.89861 0
M  V30 3843 O 355.318 -1.25394 5.88693 0
M  V30 3844 H 359.144 0.382048 3.01287 0
M  V30 3845 H 356.729 0.252953 1.47243 0
M  V30 3846 H 358.611 -1.96411 3.72828 0
M  V30 3847 H 357.286 -2.01487 2.53347 0
M  V30 3848 H 356.193 -0.0369159 3.74082 0
M  V30 3849 H 357.526 -0.0682566 4.92153 0
M  V30 3850 N 359.178 -1.55987 0.224894 0
M  V30 3851 C 360.088 -2.24066 -0.69511 0
M  V30 3852 C 361.104 -1.24939 -1.21104 0
M  V30 3853 O 362.28 -1.5776 -1.25195 0
M  V30 3854 C 359.345 -2.90983 -1.88493 0
M  V30 3855 C 358.406 -4.05462 -1.41064 0
M  V30 3856 C 357.639 -4.69179 -2.54375 0
M  V30 3857 O 357.862 -4.31895 -3.72589 0
M  V30 3858 O 356.796 -5.58108 -2.25386 0
M  V30 3859 H 360.622 -3.03353 -0.145149 0
M  V30 3860 H 358.207 -1.49399 -0.00569476 0
M  V30 3861 H 360.089 -3.33209 -2.57972 0
M  V30 3862 H 358.764 -2.14653 -2.42293 0
M  V30 3863 H 357.671 -3.67798 -0.683774 0
M  V30 3864 H 359.004 -4.83545 -0.918985 0
M  V30 3865 N 360.656 0.0484629 -1.57525 0
M  V30 3866 C 361.619 1.03956 -2.04269 0
M  V30 3867 C 362.619 1.30211 -0.943496 0
M  V30 3868 O 363.809 1.25539 -1.20771 0
M  V30 3869 C 360.941 2.37742 -2.44319 0
M  V30 3870 H 362.134 0.636182 -2.93075 0
M  V30 3871 H 359.687 0.294811 -1.53494 0
M  V30 3872 H 360.422 2.82866 -1.5861 0
M  V30 3873 H 360.207 2.20021 -3.24551 0
M  V30 3874 H 361.697 3.08936 -2.80978 0
M  V30 3875 N 362.134 1.5431 0.320358 0
M  V30 3876 C 363.081 1.83918 1.39438 0
M  V30 3877 C 364.051 0.686525 1.51248 0
M  V30 3878 O 365.236 0.933269 1.66417 0
M  V30 3879 C 362.376 2.075 2.75749 0
M  V30 3880 C 361.489 3.35177 2.72544 0
M  V30 3881 C 360.624 3.48704 4.00723 0
M  V30 3882 C 359.663 4.70244 3.91838 0
M  V30 3883 N 358.8 4.80679 5.11754 0
M  V30 3884 H 363.64 2.75544 1.13489 0
M  V30 3885 H 361.177 1.36459 0.549309 0
M  V30 3886 H 363.135 2.19166 3.54996 0
M  V30 3887 H 361.765 1.19163 3 0
M  V30 3888 H 360.817 3.32233 1.85271 0
M  V30 3889 H 362.129 4.24534 2.61863 0
M  V30 3890 H 361.283 3.59928 4.88402 0
M  V30 3891 H 360.022 2.57445 4.14214 0
M  V30 3892 H 359.027 4.59072 3.02544 0
M  V30 3893 H 360.252 5.6289 3.7991 0
M  V30 3894 H 358.198 3.92337 5.25745 0
M  V30 3895 H 358.115 5.64007 5.0342 0
M  V30 3896 H 359.383 4.96239 6.01138 0
M  V30 3897 N 363.613 -0.582584 1.46437 0
M  V30 3898 C 364.576 -1.67366 1.56592 0
M  V30 3899 C 365.576 -1.54575 0.443072 0
M  V30 3900 O 366.766 -1.59191 0.707381 0
M  V30 3901 C 363.898 -3.06791 1.48634 0
M  V30 3902 H 365.091 -1.5972 2.5383 0
M  V30 3903 H 362.644 -0.800432 1.34249 0
M  V30 3904 H 363.379 -3.19993 0.526763 0
M  V30 3905 H 363.164 -3.17484 2.30101 0
M  V30 3906 H 364.654 -3.86218 1.58826 0
M  V30 3907 N 365.091 -1.34144 -0.827227 0
M  V30 3908 C 366.001 -1.27428 -1.96975 0
M  V30 3909 C 367.017 -0.182728 -1.73038 0
M  V30 3910 O 368.193 -0.408426 -1.97215 0
M  V30 3911 C 365.258 -1.02526 -3.31194 0
M  V30 3912 C 364.319 -2.20796 -3.68168 0
M  V30 3913 C 363.552 -1.97073 -4.95982 0
M  V30 3914 O 363.775 -0.926822 -5.6282 0
M  V30 3915 O 362.709 -2.83912 -5.30733 0
M  V30 3916 H 366.535 -2.23537 -2.05584 0
M  V30 3917 H 364.12 -1.14307 -0.961989 0
M  V30 3918 H 366.002 -0.904026 -4.11589 0
M  V30 3919 H 364.677 -0.0945389 -3.23562 0
M  V30 3920 H 363.584 -2.38477 -2.88235 0
M  V30 3921 H 364.917 -3.12243 -3.8048 0
M  V30 3922 N 366.569 1.04691 -1.17803 0
M  V30 3923 C 367.985 1.29963 -0.926379 0
M  V30 3924 C 368.185 1.97251 0.411635 0
M  V30 3925 O 367.241 2.24922 1.14744 0
M  V30 3926 C 368.554 2.16447 -2.08737 0
M  V30 3927 C 370.102 2.29814 -2.12496 0
M  V30 3928 C 370.577 3.19661 -3.27995 0
M  V30 3929 N 372.068 3.27247 -3.27816 0
M  V30 3930 C 372.803 3.96906 -4.13827 0
M  V30 3931 N 372.299 4.6895 -5.09959 0
M  V30 3932 N 374.092 3.93122 -4.01761 0
M  V30 3933 H 366.243 0.594182 -2.0392 0
M  V30 3934 H 368.506 0.324649 -0.890678 0
M  V30 3935 H 368.212 1.74304 -3.05469 0
M  V30 3936 H 368.086 3.17103 -2.04268 0
M  V30 3937 H 370.473 2.71196 -1.16347 0
M  V30 3938 H 370.554 1.2877 -2.21025 0
M  V30 3939 H 370.198 2.78991 -4.24413 0
M  V30 3940 H 370.128 4.20722 -3.16703 0
M  V30 3941 H 372.619 2.75921 -2.58217 0
M  V30 3942 H 372.932 5.19679 -5.71974 0
M  V30 3943 H 371.277 4.67875 -5.13924 0
M  V30 3944 H 374.468 3.35967 -3.2595 0
M  V30 3945 H 374.641 4.47139 -4.6901 0
M  V30 3946 N 368.047 0.979072 1.23499 0
M  V30 3947 C 368.957 0.526431 2.28617 0
M  V30 3948 C 369.973 -0.418126 1.68901 0
M  V30 3949 O 371.149 -0.288372 1.99325 0
M  V30 3950 C 368.214 -0.165235 3.46306 0
M  V30 3951 C 367.275 0.82056 4.21385 0
M  V30 3952 C 366.508 0.161807 5.33455 0
M  V30 3953 O 366.731 -1.04742 5.60701 0
M  V30 3954 O 365.665 0.859708 5.95729 0
M  V30 3955 H 369.491 1.4006 2.69475 0
M  V30 3956 H 367.076 0.746643 1.29405 0
M  V30 3957 H 368.958 -0.553287 4.17752 0
M  V30 3958 H 367.633 -1.01419 3.07402 0
M  V30 3959 H 366.54 1.25929 3.52268 0
M  V30 3960 H 367.873 1.63828 4.64135 0
M  V30 3961 N 369.525 -1.3858 0.750561 0
M  V30 3962 C 370.472 -2.30483 0.120835 0
M  V30 3963 C 371.442 -1.50022 -0.712923 0
M  V30 3964 O 372.627 -1.78662 -0.669676 0
M  V30 3965 C 369.767 -3.36431 -0.768666 0
M  V30 3966 C 368.88 -4.31927 0.0793922 0
M  V30 3967 C 368.015 -5.24944 -0.81283 0
M  V30 3968 C 367.054 -6.12088 0.0390447 0
M  V30 3969 N 366.191 -6.97412 -0.809969 0
M  V30 3970 H 371.031 -2.83761 0.91015 0
M  V30 3971 H 368.568 -1.39707 0.460463 0
M  V30 3972 H 370.526 -3.96462 -1.29898 0
M  V30 3973 H 369.156 -2.8457 -1.5238 0
M  V30 3974 H 368.208 -3.73382 0.727303 0
M  V30 3975 H 369.52 -4.93319 0.737401 0
M  V30 3976 H 368.674 -5.90078 -1.41042 0
M  V30 3977 H 367.413 -4.63911 -1.50458 0
M  V30 3978 H 366.418 -5.45952 0.649328 0
M  V30 3979 H 367.643 -6.75189 0.727809 0
M  V30 3980 H 365.589 -6.38931 -1.48672 0
M  V30 3981 H 365.506 -7.55712 -0.208789 0
M  V30 3982 H 366.774 -7.66959 -1.39263 0
M  V30 3983 N 371.003 -0.499398 -1.49478 0
M  V30 3984 C 371.95 0.279881 -2.29097 0
M  V30 3985 C 372.92 0.961805 -1.3542 0
M  V30 3986 O 374.105 0.968777 -1.64376 0
M  V30 3987 C 371.245 1.33932 -3.18051 0
M  V30 3988 C 370.358 0.669333 -4.26783 0
M  V30 3989 C 369.493 1.70907 -5.02955 0
M  V30 3990 C 368.532 1.02087 -6.03527 0
M  V30 3991 N 367.669 2.00474 -6.7287 0
M  V30 3992 H 372.509 -0.405317 -2.95231 0
M  V30 3993 H 370.046 -0.211726 -1.45568 0
M  V30 3994 H 372.004 1.96553 -3.67998 0
M  V30 3995 H 370.634 1.9933 -2.53904 0
M  V30 3996 H 369.686 -0.0701234 -3.80335 0
M  V30 3997 H 370.998 0.127503 -4.98637 0
M  V30 3998 H 370.152 2.41037 -5.56764 0
M  V30 3999 H 368.891 2.28476 -4.30871 0
M  V30 4000 H 367.896 0.305338 -5.48951 0
M  V30 4001 H 369.121 0.451708 -6.77596 0
M  V30 4002 H 367.067 2.57007 -6.03559 0
M  V30 4003 H 366.984 1.51353 -7.40694 0
M  V30 4004 H 368.252 2.69897 -7.31284 0
M  V30 4005 N 372.481 1.55866 -0.233164 0
M  V30 4006 C 373.391 2.24431 0.683217 0
M  V30 4007 C 374.407 1.2558 1.2044 0
M  V30 4008 O 375.583 1.58422 1.24356 0
M  V30 4009 C 372.648 2.91979 1.86947 0
M  V30 4010 C 371.709 4.06204 1.38912 0
M  V30 4011 C 370.942 4.70522 2.51883 0
M  V30 4012 O 371.165 4.33865 3.70293 0
M  V30 4013 O 370.099 5.59296 2.22423 0
M  V30 4014 H 373.925 3.03426 0.129059 0
M  V30 4015 H 371.51 1.494 -0.0022283 0
M  V30 4016 H 373.392 3.34573 2.56201 0
M  V30 4017 H 372.067 2.15935 2.41151 0
M  V30 4018 H 370.974 3.68155 0.664259 0
M  V30 4019 H 372.307 4.84025 0.893328 0
M  V30 4020 N 373.959 -0.0401083 1.57549 0
M  V30 4021 C 374.906 -1.04413 2.05831 0
M  V30 4022 C 375.876 -1.36585 0.945184 0
M  V30 4023 O 377.061 -1.47112 1.21502 0
M  V30 4024 C 374.201 -2.34336 2.53339 0
M  V30 4025 C 373.314 -2.08419 3.78398 0
M  V30 4026 C 372.449 -3.32133 4.14561 0
M  V30 4027 C 371.488 -3.01721 5.3257 0
M  V30 4028 N 370.625 -4.17855 5.64218 0
M  V30 4029 H 375.465 -0.625442 2.91363 0
M  V30 4030 H 373.002 -0.297218 1.44066 0
M  V30 4031 H 374.96 -3.10234 2.78946 0
M  V30 4032 H 373.59 -2.73948 1.7074 0
M  V30 4033 H 372.642 -1.23069 3.59942 0
M  V30 4034 H 373.954 -1.81978 4.64419 0
M  V30 4035 H 373.108 -4.16406 4.41238 0
M  V30 4036 H 371.847 -3.61678 3.2717 0
M  V30 4037 H 370.852 -2.15849 5.05657 0
M  V30 4038 H 372.077 -2.73466 6.21605 0
M  V30 4039 H 370.023 -4.47372 4.79786 0
M  V30 4040 H 369.94 -3.94798 6.44725 0
M  V30 4041 H 371.208 -5.03033 5.95465 0
M  V30 4042 N 375.437 -1.54477 -0.31217 0
M  V30 4043 C 376.347 -1.87695 -1.4074 0
M  V30 4044 C 377.363 -0.769975 -1.56036 0
M  V30 4045 O 378.539 -1.06537 -1.70915 0
M  V30 4046 C 375.604 -2.10755 -2.75287 0
M  V30 4047 C 374.665 -3.34514 -2.69071 0
M  V30 4048 C 373.898 -3.56465 -3.97201 0
M  V30 4049 O 374.121 -2.81637 -4.96021 0
M  V30 4050 O 373.055 -4.49964 -3.9977 0
M  V30 4051 H 376.881 -2.80849 -1.15574 0
M  V30 4052 H 374.466 -1.40526 -0.507228 0
M  V30 4053 H 376.348 -2.27188 -3.54913 0
M  V30 4054 H 375.023 -1.20788 -3.0032 0
M  V30 4055 H 373.93 -3.23456 -1.87955 0
M  V30 4056 H 375.263 -4.24575 -2.48992 0
M  V30 4057 N 376.915 0.57481 -1.46744 0
M  V30 4058 C 377.847 1.69804 -1.53946 0
M  V30 4059 C 378.86 1.57098 -0.427106 0
M  V30 4060 O 380.049 1.64378 -0.695863 0
M  V30 4061 C 377.149 3.08125 -1.4111 0
M  V30 4062 C 376.322 3.46757 -2.66605 0
M  V30 4063 C 375.381 4.6417 -2.47855 0
M  V30 4064 O 374.407 4.69634 -3.21609 0
M  V30 4065 N 375.609 5.59553 -1.54534 0
M  V30 4066 H 378.374 1.64077 -2.50796 0
M  V30 4067 H 375.935 0.761 -1.429 0
M  V30 4068 H 377.927 3.84478 -1.26328 0
M  V30 4069 H 376.497 3.08175 -0.524109 0
M  V30 4070 H 375.717 2.6003 -2.96274 0
M  V30 4071 H 377.005 3.69337 -3.49954 0
M  V30 4072 H 376.403 5.57881 -0.937304 0
M  V30 4073 H 374.96 6.35304 -1.45711 0
M  V30 4074 N 378.394 1.34581 0.820102 0
M  V30 4075 C 379.341 1.2639 1.93117 0
M  V30 4076 C 380.311 0.138554 1.65521 0
M  V30 4077 O 381.496 0.320004 1.88097 0
M  V30 4078 C 378.636 1.02812 3.29429 0
M  V30 4079 C 377.749 2.24146 3.693 0
M  V30 4080 C 376.884 1.93829 4.94574 0
M  V30 4081 C 375.923 3.1129 5.27034 0
M  V30 4082 N 375.06 2.80838 6.43486 0
M  V30 4083 H 379.9 2.21408 1.99455 0
M  V30 4084 H 377.437 1.10077 0.975784 0
M  V30 4085 H 379.395 0.871788 4.0799 0
M  V30 4086 H 378.025 0.114612 3.22596 0
M  V30 4087 H 377.077 2.50691 2.86109 0
M  V30 4088 H 378.389 3.11899 3.89257 0
M  V30 4089 H 377.543 1.74948 5.80929 0
M  V30 4090 H 376.282 1.03341 4.76626 0
M  V30 4091 H 375.287 3.30764 4.39175 0
M  V30 4092 H 376.512 4.02561 5.4692 0
M  V30 4093 H 374.458 1.92929 6.26988 0
M  V30 4094 H 374.375 3.62123 6.63629 0
M  V30 4095 H 375.643 2.65467 7.32903 0
M  V30 4096 N 379.872 -1.04064 1.18357 0
M  V30 4097 C 380.782 -2.15569 0.925596 0
M  V30 4098 C 381.798 -1.7365 -0.110295 0
M  V30 4099 O 382.974 -2.01273 0.0716218 0
M  V30 4100 C 380.039 -3.43704 0.454836 0
M  V30 4101 C 379.1 -4.00004 1.55869 0
M  V30 4102 C 378.333 -5.22023 1.1103 0
M  V30 4103 O 378.556 -5.70392 -0.0309756 0
M  V30 4104 O 377.49 -5.70856 1.90805 0
M  V30 4105 H 381.316 -2.40187 1.8586 0
M  V30 4106 H 378.901 -1.1402 0.965394 0
M  V30 4107 H 380.783 -4.20923 0.200382 0
M  V30 4108 H 379.458 -3.20559 -0.449876 0
M  V30 4109 H 378.365 -3.24172 1.86716 0
M  V30 4110 H 379.698 -4.2749 2.43953 0
M  V30 4111 N 381.35 -0.985608 -1.22978 0
M  V30 4112 C 382.297 -0.529825 -2.24636 0
M  V30 4113 C 383.267 0.434028 -1.60329 0
M  V30 4114 O 384.452 0.340414 -1.87739 0
M  V30 4115 C 381.592 0.156533 -3.44745 0
M  V30 4116 C 380.705 -0.848197 -4.23591 0
M  V30 4117 C 379.84 -0.136109 -5.31026 0
M  V30 4118 C 378.879 -1.1297 -6.01585 0
M  V30 4119 N 378.016 -0.446415 -7.00679 0
M  V30 4120 H 382.856 -1.40148 -2.62988 0
M  V30 4121 H 380.393 -0.702168 -1.29259 0
M  V30 4122 H 382.351 0.571324 -4.1327 0
M  V30 4123 H 380.981 0.992025 -3.07179 0
M  V30 4124 H 380.033 -1.38135 -3.54433 0
M  V30 4125 H 381.345 -1.60512 -4.72268 0
M  V30 4126 H 380.499 0.335784 -6.0577 0
M  V30 4127 H 379.238 0.653373 -4.83304 0
M  V30 4128 H 378.243 -1.6123 -5.25628 0
M  V30 4129 H 379.468 -1.91993 -6.51395 0
M  V30 4130 H 377.414 0.323763 -6.55201 0
M  V30 4131 H 377.331 -1.1419 -7.47326 0
M  V30 4132 H 378.599 0.00291697 -7.795 0
M  V30 4133 N 382.828 1.3818 -0.7579 0
M  V30 4134 C 384.105 1.94106 -0.241306 0
M  V30 4135 C 384.485 1.69282 1.26122 0
M  V30 4136 O 383.833 1.03378 2.03777 0
M  V30 4137 C 384.043 3.43809 -0.59967 0
M  V30 4138 C 385.391 4.20868 -0.561717 0
M  V30 4139 O 386.415 3.5211 -0.538222 0
M  V30 4140 O 385.274 5.43451 -0.576478 0
M  V30 4141 H 382.368 0.825376 -0.0518042 0
M  V30 4142 H 384.914 1.47548 -0.838315 0
M  V30 4143 H 383.686 3.55403 -1.6372 0
M  V30 4144 H 383.309 3.97592 0.0251197 0
M  V30 4145 N 384.306 0.507319 1.49211 0
M  V30 4146 C 385.253 -0.267728 2.29242 0
M  V30 4147 C 386.223 -0.954609 1.35928 0
M  V30 4148 O 387.408 -0.960046 1.64887 0
M  V30 4149 C 384.548 -1.32243 3.18756 0
M  V30 4150 C 383.661 -0.64669 4.27132 0
M  V30 4151 C 382.796 -1.68238 5.03855 0
M  V30 4152 C 381.835 -0.98885 6.0406 0
M  V30 4153 N 380.972 -1.96903 6.73924 0
M  V30 4154 H 385.812 0.420968 2.95012 0
M  V30 4155 H 383.349 0.219443 1.45454 0
M  V30 4156 H 385.307 -1.94599 3.69036 0
M  V30 4157 H 383.937 -1.97981 2.54958 0
M  V30 4158 H 382.989 0.0902926 3.80293 0
M  V30 4159 H 384.301 -0.101058 4.98698 0
M  V30 4160 H 383.455 -2.38081 5.58034 0
M  V30 4161 H 382.194 -2.26187 4.32077 0
M  V30 4162 H 381.199 -0.276222 5.49106 0
M  V30 4163 H 382.424 -0.415767 6.77826 0
M  V30 4164 H 380.37 -2.53803 6.04913 0
M  V30 4165 H 380.287 -1.47423 7.41487 0
M  V30 4166 H 381.555 -2.66015 7.32705 0
M  V30 4167 O 385.823 -1.56889 0.38316 0
M  V30 4168 H 386.514 -1.93009 -0.163415 0
M  V30 END ATOM
M  V30 BEGIN BOND
M  V30 END BOND
M  V30 END CTAB
M  END
$$$$
