55285
  -OEChem-10051720503D

 67 71  0     0  0  0  0  0  0999 V2000
    6.5280    1.2443    0.9205 O   0  0  0  0  0  0  0  0  0  0  0  0
    5.3440    1.5585   -1.0753 O   0  0  0  0  0  0  0  0  0  0  0  0
    0.3763    1.1453    0.3483 N   0  0  0  0  0  0  0  0  0  0  0  0
   -2.3658    0.2457    0.1732 N   0  0  0  0  0  0  0  0  0  0  0  0
    0.0352   -0.2804    0.4272 C   0  0  0  0  0  0  0  0  0  0  0  0
   -0.7295    1.9661    0.8569 C   0  0  0  0  0  0  0  0  0  0  0  0
   -1.2605   -0.5751   -0.3364 C   0  0  0  0  0  0  0  0  0  0  0  0
   -2.0245    1.6713    0.0922 C   0  0  0  0  0  0  0  0  0  0  0  0
    1.6100    1.4253    1.0803 C   0  0  0  0  0  0  0  0  0  0  0  0
   -3.6002   -0.0348   -0.5570 C   0  0  0  0  0  0  0  0  0  0  0  0
    2.8244    1.0066    0.2533 C   0  0  0  0  0  0  0  0  0  0  0  0
    4.1279    1.3108    0.9926 C   0  0  0  0  0  0  0  0  0  0  0  0
    5.3468    0.8623    0.1870 C   0  0  0  0  0  0  0  0  0  0  0  0
   -4.1551   -1.4173   -0.2474 C   0  0  0  0  0  0  0  0  0  0  0  0
   -4.6476    1.0519   -0.3649 C   0  0  0  0  0  0  0  0  0  0  0  0
    5.3102   -0.6426   -0.0353 C   0  0  0  0  0  0  0  0  0  0  0  0
    7.3691    1.8822   -0.0386 C   0  0  0  0  0  0  0  0  0  0  0  0
    6.3889    2.5246   -0.9769 C   0  0  0  0  0  0  0  0  0  0  0  0
   -4.8856   -2.1083   -1.2144 C   0  0  0  0  0  0  0  0  0  0  0  0
   -5.5621    0.9615    0.6846 C   0  0  0  0  0  0  0  0  0  0  0  0
   -3.9330   -1.9943    1.0031 C   0  0  0  0  0  0  0  0  0  0  0  0
   -4.6933    2.1390   -1.2379 C   0  0  0  0  0  0  0  0  0  0  0  0
    5.3081   -1.5092    1.0577 C   0  0  0  0  0  0  0  0  0  0  0  0
    5.2783   -1.1556   -1.3321 C   0  0  0  0  0  0  0  0  0  0  0  0
   -5.3941   -3.3759   -0.9308 C   0  0  0  0  0  0  0  0  0  0  0  0
   -6.5222    1.9578    0.8610 C   0  0  0  0  0  0  0  0  0  0  0  0
   -4.4415   -3.2619    1.2866 C   0  0  0  0  0  0  0  0  0  0  0  0
   -5.6534    3.1355   -1.0612 C   0  0  0  0  0  0  0  0  0  0  0  0
    5.2744   -2.8887    0.8541 C   0  0  0  0  0  0  0  0  0  0  0  0
    5.2444   -2.5352   -1.5356 C   0  0  0  0  0  0  0  0  0  0  0  0
   -5.1720   -3.9527    0.3196 C   0  0  0  0  0  0  0  0  0  0  0  0
   -6.5678    3.0448   -0.0118 C   0  0  0  0  0  0  0  0  0  0  0  0
    5.2424   -3.4017   -0.4425 C   0  0  0  0  0  0  0  0  0  0  0  0
   -0.0769   -0.6005    1.4722 H   0  0  0  0  0  0  0  0  0  0  0  0
    0.8212   -0.8988   -0.0185 H   0  0  0  0  0  0  0  0  0  0  0  0
   -0.4924    3.0297    0.7300 H   0  0  0  0  0  0  0  0  0  0  0  0
   -0.8832    1.7904    1.9306 H   0  0  0  0  0  0  0  0  0  0  0  0
   -1.4680   -1.6452   -0.2273 H   0  0  0  0  0  0  0  0  0  0  0  0
   -1.0963   -0.3894   -1.4072 H   0  0  0  0  0  0  0  0  0  0  0  0
   -1.8993    1.9978   -0.9488 H   0  0  0  0  0  0  0  0  0  0  0  0
   -2.7742    2.3030    0.5797 H   0  0  0  0  0  0  0  0  0  0  0  0
    1.6985    2.5050    1.2605 H   0  0  0  0  0  0  0  0  0  0  0  0
    1.6162    0.9424    2.0661 H   0  0  0  0  0  0  0  0  0  0  0  0
   -3.3644   -0.0391   -1.6334 H   0  0  0  0  0  0  0  0  0  0  0  0
    2.7672   -0.0626    0.0330 H   0  0  0  0  0  0  0  0  0  0  0  0
    2.8062    1.5350   -0.7083 H   0  0  0  0  0  0  0  0  0  0  0  0
    4.1892    2.3944    1.1630 H   0  0  0  0  0  0  0  0  0  0  0  0
    4.1191    0.8584    1.9919 H   0  0  0  0  0  0  0  0  0  0  0  0
    8.0385    2.5964    0.4469 H   0  0  0  0  0  0  0  0  0  0  0  0
    7.9634    1.1105   -0.5397 H   0  0  0  0  0  0  0  0  0  0  0  0
    6.8085    2.7428   -1.9619 H   0  0  0  0  0  0  0  0  0  0  0  0
    5.9651    3.4410   -0.5524 H   0  0  0  0  0  0  0  0  0  0  0  0
   -5.0671   -1.6701   -2.1921 H   0  0  0  0  0  0  0  0  0  0  0  0
   -5.5496    0.1467    1.4002 H   0  0  0  0  0  0  0  0  0  0  0  0
   -3.3835   -1.4779    1.7852 H   0  0  0  0  0  0  0  0  0  0  0  0
   -3.9994    2.2198   -2.0701 H   0  0  0  0  0  0  0  0  0  0  0  0
    5.3440   -1.1301    2.0752 H   0  0  0  0  0  0  0  0  0  0  0  0
    5.2780   -0.5141   -2.2082 H   0  0  0  0  0  0  0  0  0  0  0  0
   -5.9635   -3.9135   -1.6833 H   0  0  0  0  0  0  0  0  0  0  0  0
   -7.2313    1.8903    1.6810 H   0  0  0  0  0  0  0  0  0  0  0  0
   -4.2723   -3.7096    2.2615 H   0  0  0  0  0  0  0  0  0  0  0  0
   -5.6910    3.9804   -1.7426 H   0  0  0  0  0  0  0  0  0  0  0  0
    5.2754   -3.5636    1.7051 H   0  0  0  0  0  0  0  0  0  0  0  0
    5.2194   -2.9353   -2.5451 H   0  0  0  0  0  0  0  0  0  0  0  0
   -5.5690   -4.9391    0.5408 H   0  0  0  0  0  0  0  0  0  0  0  0
   -7.3150    3.8209    0.1260 H   0  0  0  0  0  0  0  0  0  0  0  0
    5.2165   -4.4757   -0.6010 H   0  0  0  0  0  0  0  0  0  0  0  0
  1 13  1  0  0  0  0
  1 17  1  0  0  0  0
  2 13  1  0  0  0  0
  2 18  1  0  0  0  0
  3  5  1  0  0  0  0
  3  6  1  0  0  0  0
  3  9  1  0  0  0  0
  4  7  1  0  0  0  0
  4  8  1  0  0  0  0
  4 10  1  0  0  0  0
  5  7  1  0  0  0  0
  5 34  1  0  0  0  0
  5 35  1  0  0  0  0
  6  8  1  0  0  0  0
  6 36  1  0  0  0  0
  6 37  1  0  0  0  0
  7 38  1  0  0  0  0
  7 39  1  0  0  0  0
  8 40  1  0  0  0  0
  8 41  1  0  0  0  0
  9 11  1  0  0  0  0
  9 42  1  0  0  0  0
  9 43  1  0  0  0  0
 10 14  1  0  0  0  0
 10 15  1  0  0  0  0
 10 44  1  0  0  0  0
 11 12  1  0  0  0  0
 11 45  1  0  0  0  0
 11 46  1  0  0  0  0
 12 13  1  0  0  0  0
 12 47  1  0  0  0  0
 12 48  1  0  0  0  0
 13 16  1  0  0  0  0
 14 19  2  0  0  0  0
 14 21  1  0  0  0  0
 15 20  2  0  0  0  0
 15 22  1  0  0  0  0
 16 23  2  0  0  0  0
 16 24  1  0  0  0  0
 17 18  1  0  0  0  0
 17 49  1  0  0  0  0
 17 50  1  0  0  0  0
 18 51  1  0  0  0  0
 18 52  1  0  0  0  0
 19 25  1  0  0  0  0
 19 53  1  0  0  0  0
 20 26  1  0  0  0  0
 20 54  1  0  0  0  0
 21 27  2  0  0  0  0
 21 55  1  0  0  0  0
 22 28  2  0  0  0  0
 22 56  1  0  0  0  0
 23 29  1  0  0  0  0
 23 57  1  0  0  0  0
 24 30  2  0  0  0  0
 24 58  1  0  0  0  0
 25 31  2  0  0  0  0
 25 59  1  0  0  0  0
 26 32  2  0  0  0  0
 26 60  1  0  0  0  0
 27 31  1  0  0  0  0
 27 61  1  0  0  0  0
 28 32  1  0  0  0  0
 28 62  1  0  0  0  0
 29 33  2  0  0  0  0
 29 63  1  0  0  0  0
 30 33  1  0  0  0  0
 30 64  1  0  0  0  0
 31 65  1  0  0  0  0
 32 66  1  0  0  0  0
 33 67  1  0  0  0  0
M  END
> <DATABASE_ID>
DB06446

> <DATABASE_NAME>
drugbank

> <ORIGINAL_SOURCE>
PUBCHEM

> <ORIGINAL_SOURCE_URL>
https://pubchem.ncbi.nlm.nih.gov/rest/pug/compound/inchikey/LRMJAFKKJLRDLE-UHFFFAOYSA-N/SDF?record_type=3d

> <SMILES>
C(CN1CCN(CC1)C(C1=CC=CC=C1)C1=CC=CC=C1)CC1(OCCO1)C1=CC=CC=C1

> <INCHI_IDENTIFIER>
InChI=1S/C29H34N2O2/c1-4-11-25(12-5-1)28(26-13-6-2-7-14-26)31-21-19-30(20-22-31)18-10-17-29(32-23-24-33-29)27-15-8-3-9-16-27/h1-9,11-16,28H,10,17-24H2

> <INCHI_KEY>
LRMJAFKKJLRDLE-UHFFFAOYSA-N

> <FORMULA>
C29H34N2O2

> <MOLECULAR_WEIGHT>
442.5925

> <EXACT_MASS>
442.262028342

> <JCHEM_ACCEPTOR_COUNT>
4

> <JCHEM_AVERAGE_POLARIZABILITY>
51.47007826315013

> <JCHEM_BIOAVAILABILITY>
1

> <JCHEM_DONOR_COUNT>
0

> <JCHEM_FORMAL_CHARGE>
0

> <JCHEM_GHOSE_FILTER>
0

> <JCHEM_IUPAC>
1-(diphenylmethyl)-4-[3-(2-phenyl-1,3-dioxolan-2-yl)propyl]piperazine

> <ALOGPS_LOGP>
4.62

> <JCHEM_LOGP>
5.913805491000001

> <ALOGPS_LOGS>
-5.12

> <JCHEM_MDDR_LIKE_RULE>
1

> <JCHEM_NUMBER_OF_RINGS>
5

> <JCHEM_PHYSIOLOGICAL_CHARGE>
1

> <JCHEM_PKA_STRONGEST_BASIC>
8.624278478853707

> <JCHEM_POLAR_SURFACE_AREA>
24.940000000000005

> <JCHEM_REFRACTIVITY>
134.12980000000005

> <JCHEM_ROTATABLE_BOND_COUNT>
8

> <JCHEM_RULE_OF_FIVE>
0

> <ALOGPS_SOLUBILITY>
3.39e-03 g/l

> <JCHEM_TRADITIONAL_IUPAC>
dotarizine

> <JCHEM_VEBER_RULE>
1

> <DRUGBANK_ID>
DB06446

> <DRUG_GROUPS>
investigational

> <GENERIC_NAME>
Dotarizine

> <SYNONYMS>
dotarizina; Dotarizine

$$$$