drugbank_target|Q99542 Matrix metalloproteinase-19 (DB00786)
 OpenBabel12092120363D

  0  0  0     0  0            999 V3000
M  V30 BEGIN CTAB
M  V30 COUNTS 7993 8121 0 0 0
M  V30 BEGIN ATOM
M  V30 1 H -0.908 1.98254 -0.117106 0
M  V30 2 N 0 1.576 0 0
M  V30 3 C 0.933 2.03868 1.02534 0
M  V30 4 C 1.911 0.928543 1.3348 0
M  V30 5 O 3.095 1.19667 1.45644 0
M  V30 6 C 0.222 2.43627 2.35294 0
M  V30 7 C -0.732 3.65373 2.2001 0
M  V30 8 S 0.101 5.13292 1.52614 0
M  V30 9 C 1.257 5.56322 2.86805 0
M  V30 10 H 1.49 2.90518 0.631377 0
M  V30 11 H -0.977 1.52953 0.210867 0
M  V30 12 H 0.981 2.67203 3.11629 0
M  V30 13 H -0.358 1.57376 2.7183 0
M  V30 14 H -1.165 3.90944 3.18086 0
M  V30 15 H -1.563 3.418 1.51819 0
M  V30 16 H 0.729 5.58782 3.83104 0
M  V30 17 H 1.672 6.56266 2.65933 0
M  V30 18 H 2.08 4.83886 2.90714 0
M  V30 19 N 1.4781 -0.272755 1.55222 0
M  V30 20 C 2.4261 -1.35705 1.88909 0
M  V30 21 C 3.4201 -1.5112 0.765456 0
M  V30 22 O 4.6261 -1.52901 0.949802 0
M  V30 23 H 1.0011 -0.453868 0.59959 0
M  V30 24 H 2.9721 -1.04544 2.79487 0
M  V30 25 C 1.7211 -2.71049 2.17779 0
M  V30 26 H 1.0441 -2.59979 3.03728 0
M  V30 27 H 2.4841 -3.45858 2.45272 0
M  V30 28 C 0.9431 -3.22165 0.985473 0
M  V30 29 O 1.4731 -4.01096 0.220233 0
M  V30 30 N -0.3209 -2.7985 0.783108 0
M  V30 31 H -0.7739 -2.15775 1.40708 0
M  V30 32 H -0.8159 -3.14397 -0.0130392 0
M  V30 33 N 2.9562 -1.48159 -0.537278 0
M  V30 34 C 4.1962 -1.57397 -1.30405 0
M  V30 35 C 4.5602 -0.239202 -1.90504 0
M  V30 36 O 5.7612 -0.206528 -2.68005 0
M  V30 37 C 4.0322 -2.6754 -2.36974 0
M  V30 38 S 5.5912 -2.96496 -3.23475 0
M  V30 39 H 2.4092 -0.555577 -0.443684 0
M  V30 40 H 5.0112 -1.85644 -0.612912 0
M  V30 41 H 3.7152 -3.63092 -1.91291 0
M  V30 42 H 3.2462 -2.41172 -3.10805 0
M  V30 43 H 5.2612 -2.35234 -4.36897 0
M  V30 44 N 4.4343 0.785586 -1.36625 0
M  V30 45 C 5.3663 1.90711 -1.2713 0
M  V30 46 C 6.3793 1.61688 -0.189986 0
M  V30 47 O 7.5683 1.72864 -0.445014 0
M  V30 48 C 4.6683 3.25611 -0.939713 0
M  V30 49 C 3.8413 3.82385 -2.12369 0
M  V30 50 C 2.9003 4.95732 -1.76456 0
M  V30 51 O 1.9263 5.12047 -2.48589 0
M  V30 52 N 3.1283 5.76258 -0.700492 0
M  V30 53 H 5.8933 1.99376 -2.23762 0
M  V30 54 H 3.4543 0.964041 -1.30069 0
M  V30 55 H 5.4463 3.98937 -0.680554 0
M  V30 56 H 4.0163 3.12538 -0.0624074 0
M  V30 57 H 3.2363 3.01001 -2.54543 0
M  V30 58 H 4.5243 4.17047 -2.9146 0
M  V30 59 H 3.9223 5.65609 -0.101624 0
M  V30 60 H 2.4793 6.4987 -0.501165 0
M  V30 61 N 5.9124 1.20967 1.01018 0
M  V30 62 C 6.8444 0.922059 2.09835 0
M  V30 63 C 7.8574 -0.0927106 1.62536 0
M  V30 64 O 9.0464 0.139127 1.77957 0
M  V30 65 C 6.1464 0.362004 3.36961 0
M  V30 66 C 5.3194 1.42986 4.13369 0
M  V30 67 C 4.3784 0.879976 5.1879 0
M  V30 68 O 3.4044 1.56219 5.47343 0
M  V30 69 N 4.6064 -0.307396 5.79686 0
M  V30 70 H 7.3714 1.8588 2.35093 0
M  V30 71 H 4.9324 1.11422 1.1746 0
M  V30 72 H 6.9244 -0.0201474 4.04695 0
M  V30 73 H 5.4944 -0.479437 3.08902 0
M  V30 74 H 4.7144 1.98608 3.40512 0
M  V30 75 H 6.0024 2.14885 4.61196 0
M  V30 76 H 5.4004 -0.878796 5.58832 0
M  V30 77 H 3.9574 -0.631115 6.48737 0
M  V30 78 N 7.3905 -1.2043 1.01659 0
M  V30 79 C 8.3205 -2.25466 0.607226 0
M  V30 80 C 9.3015 -1.65853 -0.377716 0
M  V30 81 O 10.4865 -1.92409 -0.263149 0
M  V30 82 C 7.6165 -3.47256 -0.0552949 0
M  V30 83 C 6.5705 -4.19462 0.850632 0
M  V30 84 C 5.8965 -5.34673 0.0538859 0
M  V30 85 C 7.1965 -4.75603 2.15868 0
M  V30 86 H 8.8905 -2.59962 1.48526 0
M  V30 87 H 6.4365 -1.2496 0.715605 0
M  V30 88 H 8.3895 -4.19917 -0.353233 0
M  V30 89 H 7.1135 -3.11924 -0.968045 0
M  V30 90 H 5.7725 -3.48667 1.13257 0
M  V30 91 H 5.4205 -4.95585 -0.860514 0
M  V30 92 H 5.1205 -5.83913 0.657192 0
M  V30 93 H 6.6445 -6.10138 -0.237598 0
M  V30 94 H 8.0585 -5.40083 1.92311 0
M  V30 95 H 6.4555 -5.3528 2.71284 0
M  V30 96 H 7.5255 -3.94346 2.82169 0
M  V30 97 N 8.8686 -0.792821 -1.36206 0
M  V30 98 C 10.1146 -0.376415 -1.99887 0
M  V30 99 C 10.4696 1.04127 -1.61788 0
M  V30 100 O 9.7626 1.71004 -0.864193 0
M  V30 101 C 9.9566 -0.481501 -3.54142 0
M  V30 102 C 9.7856 -1.90786 -4.07223 0
M  V30 103 C 8.5556 -2.53322 -4.37214 0
M  V30 104 C 10.7536 -2.87048 -4.26741 0
M  V30 105 N 8.7356 -3.8751 -4.7614 0
M  V30 106 C 10.1066 -4.06077 -4.6851 0
M  V30 107 C 12.1616 -2.8406 -4.08918 0
M  V30 108 C 10.8646 -5.22532 -4.94321 0
M  V30 109 C 12.8906 -3.99705 -4.35878 0
M  V30 110 C 12.2526 -5.1748 -4.77906 0
M  V30 111 H 8.3516 -0.185226 -0.759747 0
M  V30 112 H 10.9356 -1.03114 -1.65153 0
M  V30 113 H 9.1066 0.143154 -3.88136 0
M  V30 114 H 10.8386 -0.0410128 -4.04679 0
M  V30 115 H 7.5936 -2.04777 -4.2704 0
M  V30 116 H 8.0176 -4.5656 -4.99882 0
M  V30 117 H 12.6596 -1.94165 -3.75579 0
M  V30 118 H 10.3776 -6.1301 -5.2654 0
M  V30 119 H 13.9636 -3.98758 -4.23655 0
M  V30 120 H 12.8436 -6.05478 -4.98363 0
M  V30 121 N 10.3467 1.47872 -0.545128 0
M  V30 122 C 11.2767 2.32661 0.197793 0
M  V30 123 C 12.2577 1.43041 0.920504 0
M  V30 124 O 13.4427 1.71912 0.90333 0
M  V30 125 C 10.5727 3.24569 1.23582 0
M  V30 126 C 9.5267 4.23333 0.630323 0
M  V30 127 C 8.8527 5.0448 1.77211 0
M  V30 128 C 10.1527 5.20704 -0.407974 0
M  V30 129 H 11.8467 2.95024 -0.510045 0
M  V30 130 H 9.3927 1.4187 -0.246731 0
M  V30 131 H 11.3457 3.8272 1.76362 0
M  V30 132 H 10.0697 2.60236 1.97344 0
M  V30 133 H 8.7287 3.6639 0.123922 0
M  V30 134 H 8.3767 4.36561 2.49847 0
M  V30 135 H 8.0767 5.71339 1.37281 0
M  V30 136 H 9.6007 5.65487 2.3034 0
M  V30 137 H 11.0147 5.7329 0.033305 0
M  V30 138 H 9.4117 5.95699 -0.725486 0
M  V30 139 H 10.4817 4.66917 -1.30828 0
M  V30 140 N 11.8248 0.280983 1.55075 0
M  V30 141 C 13.0728 -0.333455 1.9933 0
M  V30 142 C 13.3938 -1.55937 1.17085 0
M  V30 143 O 12.6638 -1.94143 0.261805 0
M  V30 144 H 11.2438 -0.126197 0.736263 0
M  V30 145 H 13.9058 0.387678 1.91005 0
M  V30 146 H 13.0018 -0.619292 3.05894 0
M  V30 147 N 13.3029 -1.57598 0.00835791 0
M  V30 148 C 14.5499 -1.90928 -0.674732 0
M  V30 149 C 14.8779 -0.88277 -1.73313 0
M  V30 150 O 14.1329 0.111294 -1.95383 0
M  V30 151 C 14.4319 -3.3101 -1.34787 0
M  V30 152 C 14.0979 -4.48922 -0.421861 0
M  V30 153 C 12.7599 -4.8091 -0.166927 0
M  V30 154 C 15.1119 -5.20755 0.215211 0
M  V30 155 C 12.4399 -5.821 0.733232 0
M  V30 156 C 14.7919 -6.22905 1.1033 0
M  V30 157 C 13.4559 -6.53346 1.36733 0
M  V30 158 H 12.7259 -0.698656 -0.246902 0
M  V30 159 H 15.3729 -1.91387 0.0656779 0
M  V30 160 H 13.6779 -3.26714 -2.16253 0
M  V30 161 H 15.3749 -3.54061 -1.8826 0
M  V30 162 H 11.9649 -4.23934 -0.630729 0
M  V30 163 H 16.1489 -4.9629 0.0312829 0
M  V30 164 H 11.4049 -6.04042 0.945712 0
M  V30 165 H 15.5789 -6.77694 1.60325 0
M  V30 166 H 13.2059 -7.31573 2.06652 0
M  V30 167 N 14.781 0.264519 -1.55364 0
M  V30 168 C 15.711 1.33121 -1.91836 0
M  V30 169 C 16.692 1.51101 -0.781192 0
M  V30 170 O 17.877 1.64003 -1.04003 0
M  V30 171 C 15.007 2.68921 -2.19769 0
M  V30 172 C 13.961 2.65661 -3.35571 0
M  V30 173 C 13.287 4.05093 -3.49004 0
M  V30 174 C 14.587 2.24187 -4.71739 0
M  V30 175 H 16.281 1.02844 -2.81182 0
M  V30 176 H 13.827 0.493286 -1.35287 0
M  V30 177 H 15.78 3.43663 -2.43872 0
M  V30 178 H 14.504 3.00799 -1.27231 0
M  V30 179 H 13.163 1.93377 -3.1145 0
M  V30 180 H 12.811 4.34206 -2.53917 0
M  V30 181 H 12.511 4.03804 -4.26868 0
M  V30 182 H 14.035 4.81561 -3.75408 0
M  V30 183 H 15.449 2.88654 -4.9533 0
M  V30 184 H 13.846 2.34044 -5.52579 0
M  V30 185 H 14.916 1.19327 -4.69988 0
M  V30 186 N 16.2591 1.48442 0.529413 0
M  V30 187 C 17.1891 1.65902 1.64313 0
M  V30 188 C 18.1701 0.507897 1.6234 0
M  V30 189 O 19.3551 0.740503 1.79528 0
M  V30 190 C 16.4851 1.69911 3.02898 0
M  V30 191 C 15.4391 2.8453 3.19729 0
M  V30 192 C 14.7651 2.73629 4.59381 0
M  V30 193 C 16.0651 4.25821 3.02447 0
M  V30 194 H 17.7591 2.5914 1.49955 0
M  V30 195 H 15.3051 1.24709 0.719982 0
M  V30 196 H 17.2581 1.80715 3.80684 0
M  V30 197 H 15.9821 0.732524 3.18279 0
M  V30 198 H 14.6411 2.73283 2.44361 0
M  V30 199 H 14.2891 1.74938 4.71599 0
M  V30 200 H 13.9891 3.50541 4.71588 0
M  V30 201 H 15.5131 2.86401 5.39265 0
M  V30 202 H 16.9271 4.37898 3.70024 0
M  V30 203 H 15.3241 5.03735 3.26146 0
M  V30 204 H 16.3941 4.42244 1.98867 0
M  V30 205 N 17.7372 -0.778329 1.37039 0
M  V30 206 C 19.1482 -1.35421 1.28523 0
M  V30 207 C 19.4992 -1.96075 -0.0700901 0
M  V30 208 O 18.6242 -1.93352 -0.971801 0
M  V30 209 C 19.2192 -2.46211 2.32735 0
M  V30 210 C 17.7782 -2.99585 2.27873 0
M  V30 211 C 16.9252 -1.72748 2.16918 0
M  V30 212 H 19.8762 -0.5791 1.47757 0
M  V30 213 H 19.8972 -3.2552 1.9702 0
M  V30 214 H 19.4092 -2.02036 3.31365 0
M  V30 215 H 17.5102 -3.48152 1.32745 0
M  V30 216 H 17.6232 -3.55646 3.21018 0
M  V30 217 H 15.9872 -1.95416 1.63354 0
M  V30 218 H 16.7702 -1.30686 3.17452 0
M  V30 219 N 19.2153 -1.21501 -1.00376 0
M  V30 220 C 20.1483 -0.918669 -2.08892 0
M  V30 221 C 21.1263 0.134277 -1.62045 0
M  V30 222 O 22.3103 0.00504255 -1.88499 0
M  V30 223 C 19.4373 -0.379645 -3.36566 0
M  V30 224 C 18.4833 -1.41559 -4.02323 0
M  V30 225 S 19.3163 -2.98521 -4.44574 0
M  V30 226 C 20.4723 -2.46228 -5.75433 0
M  V30 227 H 20.7053 -1.83761 -2.33707 0
M  V30 228 H 18.2383 -1.04489 -1.13673 0
M  V30 229 H 20.1963 -0.0752195 -4.10431 0
M  V30 230 H 18.8573 0.518008 -3.09799 0
M  V30 231 H 18.0503 -0.988076 -4.9422 0
M  V30 232 H 17.6523 -1.66815 -3.34737 0
M  V30 233 H 19.9443 -1.86791 -6.51241 0
M  V30 234 H 20.8873 -3.36572 -6.22997 0
M  V30 235 H 21.2953 -1.87894 -5.32312 0
M  V30 236 N 20.6934 1.19889 -1.02296 0
M  V30 237 C 21.9214 1.9339 -0.735399 0
M  V30 238 C 22.3364 1.75148 0.704887 0
M  V30 239 O 21.6934 1.06954 1.47875 0
M  V30 240 C 21.7444 3.45313 -1.06962 0
M  V30 241 O 21.4654 3.62964 -2.45334 0
M  V30 242 C 22.9664 4.35948 -0.804021 0
M  V30 243 H 20.1864 0.61448 -0.269546 0
M  V30 244 H 22.7304 1.522 -1.36585 0
M  V30 245 H 20.8854 3.84359 -0.484455 0
M  V30 246 H 21.2994 4.56886 -2.57595 0
M  V30 247 H 22.7734 5.41174 -1.0879 0
M  V30 248 H 23.2504 4.3842 0.261691 0
M  V30 249 H 23.8564 4.02574 -1.37164 0
M  V30 250 N 22.1715 0.800033 1.35784 0
M  V30 251 C 23.4175 0.377901 1.99248 0
M  V30 252 C 23.7505 -1.05052 1.63333 0
M  V30 253 O 23.0255 -1.72768 0.893385 0
M  V30 254 C 23.3085 0.553922 3.55814 0
M  V30 255 C 23.1615 2.0268 4.01548 0
M  V30 256 C 24.4805 -0.0244802 4.40093 0
M  V30 257 H 21.5995 0.138782 0.723815 0
M  V30 258 H 24.2415 1.00835 1.61035 0
M  V30 259 H 22.3915 0.0172398 3.88496 0
M  V30 260 H 24.0635 2.62536 3.79305 0
M  V30 261 H 22.3065 2.5256 3.52698 0
M  V30 262 H 22.9775 2.10087 5.10458 0
M  V30 263 H 25.4535 0.433775 4.13833 0
M  V30 264 H 24.3295 0.128637 5.48749 0
M  V30 265 H 24.5905 -1.11758 4.27741 0
M  V30 266 N 23.6496 -1.47581 0.552962 0
M  V30 267 C 24.8746 -2.07378 0.0300593 0
M  V30 268 C 25.2996 -1.40355 -1.25229 0
M  V30 269 O 24.6576 -0.477099 -1.7491 0
M  V30 270 C 24.7056 -3.60274 -0.153231 0
M  V30 271 O 23.8096 -3.94041 -1.21678 0
M  V30 272 H 23.1506 -0.662158 0.0494182 0
M  V30 273 H 25.6806 -1.89662 0.767434 0
M  V30 274 H 25.6906 -4.0633 -0.368761 0
M  V30 275 H 24.3656 -4.08455 0.783397 0
M  V30 276 H 22.9426 -3.59735 -0.982079 0
M  V30 277 N 25.1277 -0.289203 -1.54924 0
M  V30 278 C 26.3757 0.322879 -1.99504 0
M  V30 279 C 26.6967 1.55313 -1.1791 0
M  V30 280 O 25.9667 1.94001 -0.272097 0
M  V30 281 H 24.5467 0.122291 -0.736922 0
M  V30 282 H 27.2087 -0.397802 -1.90797 0
M  V30 283 H 26.3047 0.603061 -3.06218 0
M  V30 284 N 26.6058 1.57591 -0.0167156 0
M  V30 285 C 28.0218 1.55946 0.339557 0
M  V30 286 C 28.2218 1.02109 1.73713 0
M  V30 287 O 27.2778 0.662303 2.43659 0
M  V30 288 C 28.5908 3.00037 0.199499 0
M  V30 289 C 30.1388 3.11805 0.273193 0
M  V30 290 C 30.6138 4.57713 0.162068 0
M  V30 291 N 32.1048 4.6268 0.219444 0
M  V30 292 C 32.8398 5.73185 0.157054 0
M  V30 293 N 32.3358 6.92786 0.0442936 0
M  V30 294 N 34.1288 5.61707 0.21014 0
M  V30 295 H 26.2798 1.90921 -0.930758 0
M  V30 296 H 28.5428 0.877674 -0.358319 0
M  V30 297 H 28.2488 3.4333 -0.76273 0
M  V30 298 H 28.1228 3.64387 0.974786 0
M  V30 299 H 30.5098 2.68433 1.22587 0
M  V30 300 H 30.5908 2.50201 -0.532256 0
M  V30 301 H 30.2348 5.01763 -0.78714 0
M  V30 302 H 30.1648 5.17283 0.986222 0
M  V30 303 H 32.6558 3.76649 0.307246 0
M  V30 304 H 32.9688 7.728 0.00304069 0
M  V30 305 H 31.3138 6.94999 0.00968457 0
M  V30 306 H 34.5048 4.6716 0.296546 0
M  V30 307 H 34.6778 6.47807 0.158054 0
M  V30 308 N 28.0839 -0.256276 1.55502 0
M  V30 309 C 29.3299 -0.987079 1.77157 0
M  V30 310 C 29.6629 -1.85327 0.580315 0
M  V30 311 O 28.9379 -1.89874 -0.421686 0
M  V30 312 C 29.2209 -1.85553 3.08613 0
M  V30 313 C 29.0739 -1.01816 4.38125 0
M  V30 314 C 30.3929 -2.8397 3.36228 0
M  V30 315 H 27.5119 -0.357428 0.644526 0
M  V30 316 H 30.1539 -0.258239 1.88237 0
M  V30 317 H 28.3039 -2.47695 2.99298 0
M  V30 318 H 29.9759 -0.416159 4.59419 0
M  V30 319 H 28.2189 -0.322178 4.32602 0
M  V30 320 H 28.8899 -1.65939 5.26468 0
M  V30 321 H 31.3659 -2.31964 3.45445 0
M  V30 322 H 30.2419 -3.41864 4.29442 0
M  V30 323 H 30.5029 -3.59955 2.56681 0
M  V30 324 N 29.562 -1.4872 -0.521534 0
M  V30 325 C 30.492 -1.66771 -1.63431 0
M  V30 326 C 31.473 -0.516499 -1.62069 0
M  V30 327 O 32.658 -0.750013 -1.79132 0
M  V30 328 C 29.788 -1.71515 -3.01993 0
M  V30 329 C 28.742 -2.86222 -3.18216 0
M  V30 330 C 28.068 -2.76061 -4.57924 0
M  V30 331 C 29.368 -4.27419 -3.00184 0
M  V30 332 H 31.062 -2.59932 -1.48579 0
M  V30 333 H 28.608 -1.25089 -0.713358 0
M  V30 334 H 30.561 -1.82731 -3.7972 0
M  V30 335 H 29.285 -0.749393 -3.17886 0
M  V30 336 H 27.944 -2.74575 -2.42908 0
M  V30 337 H 27.592 -1.77437 -4.70665 0
M  V30 338 H 27.292 -3.53037 -4.69722 0
M  V30 339 H 28.816 -2.89256 -5.37739 0
M  V30 340 H 30.23 -4.39855 -3.67697 0
M  V30 341 H 28.627 -5.05458 -3.2347 0
M  V30 342 H 29.697 -4.43293 -1.96518 0
M  V30 343 N 31.0401 0.771051 -1.3745 0
M  V30 344 C 32.2881 1.52661 -1.32435 0
M  V30 345 C 32.6091 1.9479 0.0905024 0
M  V30 346 O 31.8791 1.66348 1.03466 0
M  V30 347 H 30.4591 0.566218 -0.487244 0
M  V30 348 H 33.1211 0.917636 -1.71946 0
M  V30 349 H 32.2171 2.42568 -1.96385 0
M  V30 350 N 32.5182 1.22032 0.997298 0
M  V30 351 C 33.4482 1.01065 2.10495 0
M  V30 352 C 34.4292 -0.0669542 1.69968 0
M  V30 353 O 35.6142 0.0943987 1.9397 0
M  V30 354 C 32.7442 0.582874 3.42374 0
M  V30 355 C 31.6982 1.60592 3.96729 0
M  V30 356 C 31.0242 1.03412 5.24605 0
M  V30 357 C 32.3242 2.99478 4.27914 0
M  V30 358 H 34.0182 1.93708 2.28292 0
M  V30 359 H 31.5642 0.932761 1.09707 0
M  V30 360 H 33.5172 0.423332 4.19268 0
M  V30 361 H 32.2412 -0.379213 3.24391 0
M  V30 362 H 30.9002 1.75316 3.21963 0
M  V30 363 H 30.5482 0.063518 5.0296 0
M  V30 364 H 30.2482 1.71754 5.61938 0
M  V30 365 H 31.7722 0.886066 6.04137 0
M  V30 366 H 33.1862 2.88153 4.95622 0
M  V30 367 H 31.5832 3.64903 4.76409 0
M  V30 368 H 32.6532 3.49742 3.3587 0
M  V30 369 N 33.9963 -1.19345 1.0293 0
M  V30 370 C 34.9593 -2.20793 0.615069 0
M  V30 371 C 35.9593 -1.57553 -0.321533 0
M  V30 372 O 37.1493 -1.73862 -0.108483 0
M  V30 373 C 34.2813 -3.40754 -0.0999222 0
M  V30 374 H 35.4743 -2.58955 1.51269 0
M  V30 375 H 33.0273 -1.3303 0.820534 0
M  V30 376 H 33.7623 -3.0811 -1.01187 0
M  V30 377 H 33.5473 -3.87889 0.57309 0
M  V30 378 H 35.0373 -4.15898 -0.376645 0
M  V30 379 N 35.4744 -0.807222 -1.35358 0
M  V30 380 C 36.3844 -0.219594 -2.3357 0
M  V30 381 C 37.4004 0.637734 -1.61892 0
M  V30 382 O 38.5764 0.549336 -1.93763 0
M  V30 383 C 35.6414 0.62158 -3.41083 0
M  V30 384 C 34.7024 -0.256315 -4.28534 0
M  V30 385 C 33.9354 0.544807 -5.30912 0
M  V30 386 O 34.1584 1.77944 -5.41934 0
M  V30 387 O 33.0924 -0.0646478 -6.01865 0
M  V30 388 H 36.9184 -1.03208 -2.85625 0
M  V30 389 H 34.5034 -0.569025 -1.38139 0
M  V30 390 H 36.3854 1.10067 -4.06772 0
M  V30 391 H 35.0604 1.41165 -2.91297 0
M  V30 392 H 33.9674 -0.782559 -3.65823 0
M  V30 393 H 35.3004 -1.01034 -4.81719 0
M  V30 394 N 36.9525 1.47285 -0.560781 0
M  V30 395 C 38.1985 2.02764 -0.0381184 0
M  V30 396 C 38.5315 1.43384 1.30976 0
M  V30 397 O 37.8065 0.590733 1.85312 0
M  V30 398 C 38.0895 3.60064 0.0511427 0
M  V30 399 C 37.9425 4.2987 -1.32408 0
M  V30 400 C 39.2615 4.33439 0.762795 0
M  V30 401 H 36.3805 0.736841 -0.0153264 0
M  V30 402 H 39.0225 1.75675 -0.723759 0
M  V30 403 H 37.1725 3.83274 0.635065 0
M  V30 404 H 38.8445 4.17989 -1.95148 0
M  V30 405 H 37.0875 3.90085 -1.8978 0
M  V30 406 H 37.7585 5.38478 -1.21431 0
M  V30 407 H 40.2345 4.15243 0.266965 0
M  V30 408 H 39.1105 5.43124 0.794221 0
M  V30 409 H 39.3715 4.02915 1.81966 0
M  V30 410 N 38.4306 0.297415 1.54768 0
M  V30 411 C 39.3936 -0.567375 2.22066 0
M  V30 412 C 40.3936 -1.06409 1.20556 0
M  V30 413 O 41.5836 -0.960691 1.45315 0
M  V30 414 C 38.7156 -1.78517 2.90421 0
M  V30 415 H 39.9086 0.0205534 2.99893 0
M  V30 416 H 37.4616 0.0482163 1.56226 0
M  V30 417 H 38.1966 -2.41303 2.16664 0
M  V30 418 H 37.9816 -1.43669 3.64831 0
M  V30 419 H 39.4716 -2.39964 3.41771 0
M  V30 420 N 39.9087 -1.5758 0.0250728 0
M  V30 421 C 41.3197 -1.79476 -0.514323 0
M  V30 422 C 41.6707 -0.934956 -1.72491 0
M  V30 423 O 40.7957 -0.144245 -2.15919 0
M  V30 424 C 41.3907 -3.25503 -0.939842 0
M  V30 425 C 39.9497 -3.48408 -1.42438 0
M  V30 426 C 39.0967 -2.74583 -0.387201 0
M  V30 427 H 42.0477 -1.567 0.25113 0
M  V30 428 H 42.0687 -3.34992 -1.80445 0
M  V30 429 H 41.5807 -3.88056 -0.0585628 0
M  V30 430 H 39.6817 -2.91103 -2.32572 0
M  V30 431 H 39.7947 -4.57119 -1.43455 0
M  V30 432 H 38.1587 -2.39942 -0.854409 0
M  V30 433 H 38.9417 -3.39849 0.485543 0
M  V30 434 N 41.3868 0.248026 -1.55636 0
M  V30 435 C 42.6328 0.97767 -1.77678 0
M  V30 436 C 42.9658 1.85016 -0.590135 0
M  V30 437 O 42.2408 1.90095 0.411611 0
M  V30 438 C 42.5238 1.83914 -3.09593 0
M  V30 439 C 42.3768 0.99491 -4.38659 0
M  V30 440 C 43.6958 2.82183 -3.37729 0
M  V30 441 H 40.8148 0.354005 -0.646413 0
M  V30 442 H 43.4568 0.248253 -1.88371 0
M  V30 443 H 41.6068 2.46104 -3.00608 0
M  V30 444 H 43.2788 0.391789 -4.59633 0
M  V30 445 H 41.5218 0.299231 -4.32767 0
M  V30 446 H 42.1928 1.63145 -5.2734 0
M  V30 447 H 44.6688 2.30129 -3.4667 0
M  V30 448 H 43.5448 3.39582 -4.31249 0
M  V30 449 H 43.8058 3.58588 -2.58586 0
M  V30 450 N 42.8649 1.48995 0.513639 0
M  V30 451 C 44.1419 1.48338 1.27495 0
M  V30 452 C 44.5219 0.204065 2.10111 0
M  V30 453 O 43.8699 -0.813881 2.13514 0
M  V30 454 C 44.0799 2.75498 2.14247 0
M  V30 455 C 45.4279 3.24484 2.73852 0
M  V30 456 O 46.4519 2.76528 2.24523 0
M  V30 457 O 45.3109 4.07974 3.6362 0
M  V30 458 H 42.4049 0.593149 0.576284 0
M  V30 459 H 44.9509 1.61246 0.528948 0
M  V30 460 H 43.7229 3.60109 1.53092 0
M  V30 461 H 43.3459 2.6539 2.96064 0
M  V30 462 N 44.343 -0.763751 1.37857 0
M  V30 463 C 45.573 -1.55067 1.3652 0
M  V30 464 C 45.981 -1.89135 -0.0494227 0
M  V30 465 O 45.324 -1.52529 -1.02375 0
M  V30 466 C 45.386 -2.8838 2.14656 0
M  V30 467 C 45.05 -2.76905 3.63555 0
M  V30 468 C 46.047 -2.4739 4.57268 0
M  V30 469 C 43.732 -2.94676 4.06781 0
M  V30 470 C 45.726 -2.35786 5.92186 0
M  V30 471 C 43.413 -2.82692 5.41782 0
M  V30 472 C 44.411 -2.53289 6.34298 0
M  V30 473 O 44.099 -2.41345 7.66817 0
M  V30 474 H 43.831 -0.486776 0.469069 0
M  V30 475 H 46.385 -0.953812 1.81911 0
M  V30 476 H 44.615 -3.50217 1.63967 0
M  V30 477 H 46.304 -3.49828 2.05852 0
M  V30 478 H 47.07 -2.33339 4.2518 0
M  V30 479 H 42.949 -3.16563 3.35126 0
M  V30 480 H 46.493 -2.12757 6.64365 0
M  V30 481 H 42.39 -2.96314 5.7347 0
M  V30 482 H 43.158 -2.56634 7.77226 0
M  V30 483 N 45.8211 -1.22559 -0.990812 0
M  V30 484 C 46.7511 -1.0218 -2.09956 0
M  V30 485 C 47.7321 0.0579394 -1.70001 0
M  V30 486 O 48.9171 -0.104684 -1.93918 0
M  V30 487 C 46.0471 -0.601023 -3.4206 0
M  V30 488 C 45.0011 -1.62694 -3.95872 0
M  V30 489 C 44.3271 -1.06193 -5.24049 0
M  V30 490 C 45.6271 -3.01743 -4.2632 0
M  V30 491 H 47.3211 -1.94916 -2.27262 0
M  V30 492 H 44.8671 -0.938566 -1.09211 0
M  V30 493 H 46.8201 -0.445561 -4.19038 0
M  V30 494 H 45.5441 0.362005 -3.24588 0
M  V30 495 H 44.2031 -1.77021 -3.21028 0
M  V30 496 H 43.8511 -0.0901903 -5.02919 0
M  V30 497 H 43.5511 -1.74732 -5.61019 0
M  V30 498 H 45.0751 -0.918092 -6.03658 0
M  V30 499 H 46.4891 -2.90777 -4.94087 0
M  V30 500 H 44.8861 -3.67425 -4.74467 0
M  V30 501 H 45.9561 -3.51518 -3.34011 0
M  V30 502 N 47.2992 1.18797 -1.03562 0
M  V30 503 C 48.5242 1.9314 -0.755764 0
M  V30 504 C 48.9492 1.7537 0.68022 0
M  V30 505 O 48.3072 1.06046 1.47051 0
M  V30 506 C 48.3552 3.42747 -1.12058 0
M  V30 507 O 47.4592 4.11683 -0.243124 0
M  V30 508 H 46.8002 0.602724 -0.278604 0
M  V30 509 H 49.3302 1.50678 -1.3841 0
M  V30 510 H 49.3402 3.93437 -1.08035 0
M  V30 511 H 48.0152 3.55002 -2.16672 0
M  V30 512 H 46.5922 3.71323 -0.342539 0
M  V30 513 N 48.7773 0.814389 1.34928 0
M  V30 514 C 49.7093 0.187834 2.28429 0
M  V30 515 C 50.7223 -0.617374 1.5064 0
M  V30 516 O 51.9113 -0.448454 1.72775 0
M  V30 517 C 49.0113 -0.755962 3.30361 0
M  V30 518 C 48.1843 0.00456686 4.374 0
M  V30 519 C 47.2433 -0.858876 5.19143 0
M  V30 520 O 46.2693 -0.306968 5.68372 0
M  V30 521 N 47.4713 -2.17988 5.38016 0
M  V30 522 H 50.2363 0.991105 2.82838 0
M  V30 523 H 47.7973 0.670561 1.4736 0
M  V30 524 H 49.7893 -1.338 3.81942 0
M  V30 525 H 48.3593 -1.46001 2.7641 0
M  V30 526 H 47.5793 0.767865 3.86649 0
M  V30 527 H 48.8673 0.528422 5.06049 0
M  V30 528 H 48.2653 -2.65212 4.99679 0
M  V30 529 H 46.8223 -2.71098 5.92747 0
M  V30 530 N 50.2554 -1.46986 0.568584 0
M  V30 531 C 51.4854 -2.0653 0.0539173 0
M  V30 532 C 51.8934 -1.42004 -1.25026 0
M  V30 533 O 51.2364 -0.514541 -1.76347 0
M  V30 534 C 51.2984 -3.58938 -0.200854 0
M  V30 535 C 50.9624 -4.45572 1.01559 0
M  V30 536 C 51.9594 -4.82986 1.92407 0
M  V30 537 C 49.6444 -4.8692 1.23346 0
M  V30 538 C 51.6384 -5.60559 3.03402 0
M  V30 539 C 49.3254 -5.64255 2.34649 0
M  V30 540 C 50.3234 -6.00986 3.24507 0
M  V30 541 O 50.0114 -6.76761 4.33878 0
M  V30 542 H 49.7434 -0.674292 0.0480234 0
M  V30 543 H 52.2974 -1.89812 0.784896 0
M  V30 544 H 50.5274 -3.73911 -0.986279 0
M  V30 545 H 52.2164 -4.0046 -0.662294 0
M  V30 546 H 52.9824 -4.51633 1.76785 0
M  V30 547 H 48.8614 -4.57789 0.543178 0
M  V30 548 H 52.4054 -5.89147 3.73565 0
M  V30 549 H 48.3024 -5.95021 2.5024 0
M  V30 550 H 49.0704 -6.95168 4.32068 0
M  V30 551 N 51.7335 -0.305618 -1.54608 0
M  V30 552 C 52.9815 0.301701 -1.99835 0
M  V30 553 C 53.3025 1.54054 -1.19551 0
M  V30 554 O 52.5725 1.93702 -0.292658 0
M  V30 555 H 51.1525 0.114468 -0.738178 0
M  V30 556 H 53.8145 -0.418016 -1.90364 0
M  V30 557 H 52.9105 0.570548 -3.06841 0
M  V30 558 N 53.2116 1.57565 -0.0334293 0
M  V30 559 C 54.4416 1.95996 0.653398 0
M  V30 560 C 54.8496 0.908749 1.65947 0
M  V30 561 O 54.1926 -0.117471 1.83324 0
M  V30 562 C 54.2546 3.30589 1.41249 0
M  V30 563 C 53.9186 4.53503 0.564263 0
M  V30 564 C 54.9156 5.19647 -0.16225 0
M  V30 565 C 52.6006 4.99801 0.500398 0
M  V30 566 C 54.5946 6.30412 -0.941255 0
M  V30 567 C 52.2816 6.10448 -0.282308 0
M  V30 568 C 53.2796 6.75612 -1.00184 0
M  V30 569 O 52.9676 7.84134 -1.77171 0
M  V30 570 H 52.6996 0.65027 0.184728 0
M  V30 571 H 55.2536 2.05199 -0.0907841 0
M  V30 572 H 53.4836 3.17888 2.20191 0
M  V30 573 H 55.1726 3.53892 1.98784 0
M  V30 574 H 55.9386 4.84846 -0.12227 0
M  V30 575 H 51.8176 4.48883 1.05002 0
M  V30 576 H 55.3616 6.81208 -1.50339 0
M  V30 577 H 51.2586 6.44686 -0.323989 0
M  V30 578 H 52.0266 8.00822 -1.69194 0
M  V30 579 N 54.6897 -0.239769 1.55765 0
M  V30 580 C 55.6197 -1.30052 1.9393 0
M  V30 581 C 56.6007 -1.49839 0.805132 0
M  V30 582 O 57.7857 -1.62328 1.06599 0
M  V30 583 C 54.9157 -2.65391 2.2402 0
M  V30 584 C 53.8697 -2.60289 3.39755 0
M  V30 585 C 53.1957 -3.99489 3.55405 0
M  V30 586 C 54.4957 -2.16654 4.75246 0
M  V30 587 H 56.1897 -0.983573 2.82783 0
M  V30 588 H 53.7357 -0.471701 1.36055 0
M  V30 589 H 55.6887 -3.3974 2.49308 0
M  V30 590 H 54.4127 -2.98736 1.32 0
M  V30 591 H 53.0717 -1.88398 3.14487 0
M  V30 592 H 52.7197 -4.30112 2.60793 0
M  V30 593 H 52.4197 -3.96962 4.33238 0
M  V30 594 H 53.9437 -4.75528 3.83022 0
M  V30 595 H 55.3577 -2.80737 4.99859 0
M  V30 596 H 53.7547 -2.25223 5.56232 0
M  V30 597 H 54.8247 -1.11835 4.71827 0
M  V30 598 N 56.1678 -1.49265 -0.50573 0
M  V30 599 C 57.0998 -1.617 -1.62437 0
M  V30 600 C 58.1128 -0.499924 -1.54934 0
M  V30 601 O 59.3018 -0.771785 -1.60953 0
M  V30 602 C 56.4018 -1.5533 -3.01207 0
M  V30 603 C 55.5748 -2.8249 -3.33943 0
M  V30 604 C 54.6338 -2.69238 -4.52103 0
M  V30 605 O 53.6598 -3.43167 -4.5412 0
M  V30 606 N 54.8618 -1.80468 -5.51735 0
M  V30 607 H 57.6268 -2.58177 -1.52199 0
M  V30 608 H 55.1878 -1.46294 -0.693511 0
M  V30 609 H 57.1798 -1.44125 -3.78167 0
M  V30 610 H 55.7498 -0.667297 -3.05395 0
M  V30 611 H 54.9698 -3.08081 -2.45926 0
M  V30 612 H 56.2578 -3.66802 -3.5261 0
M  V30 613 H 55.6558 -1.19653 -5.52901 0
M  V30 614 H 54.2128 -1.75188 -6.27816 0
M  V30 615 N 57.6459 0.756429 -1.3826 0
M  V30 616 C 58.5929 1.87011 -1.35261 0
M  V30 617 C 59.5629 1.64695 -0.215616 0
M  V30 618 O 60.7479 1.864 -0.407399 0
M  V30 619 C 57.8879 3.24275 -1.18068 0
M  V30 620 C 57.0009 3.58442 -2.41129 0
M  V30 621 C 56.1359 4.84994 -2.16689 0
M  V30 622 C 55.1749 5.11939 -3.35537 0
M  V30 623 N 54.3119 6.29685 -3.10549 0
M  V30 624 H 59.1519 1.8891 -2.30472 0
M  V30 625 H 56.6889 0.923373 -1.14509 0
M  V30 626 H 58.6469 4.03479 -1.06116 0
M  V30 627 H 57.2769 3.21711 -0.264973 0
M  V30 628 H 56.3289 2.74103 -2.63764 0
M  V30 629 H 57.6409 3.74283 -3.29717 0
M  V30 630 H 56.7949 5.72135 -2.01857 0
M  V30 631 H 55.5339 4.71286 -1.25462 0
M  V30 632 H 54.5389 4.23268 -3.50891 0
M  V30 633 H 55.7639 5.27546 -4.27635 0
M  V30 634 H 53.7099 6.17306 -2.21967 0
M  V30 635 H 53.6269 6.46014 -3.92686 0
M  V30 636 H 54.8949 7.19722 -2.99367 0
M  V30 637 N 59.124 1.23083 0.984299 0
M  V30 638 C 60.535 1.05609 1.5396 0
M  V30 639 C 60.886 -0.377793 1.92528 0
M  V30 640 O 60.011 -1.26398 1.75649 0
M  V30 641 C 60.606 1.91087 2.7977 0
M  V30 642 C 59.165 1.77885 3.31713 0
M  V30 643 C 58.312 1.87028 2.04733 0
M  V30 644 H 61.263 1.36802 0.804419 0
M  V30 645 H 61.284 1.43336 3.5247 0
M  V30 646 H 60.796 2.9544 2.51668 0
M  V30 647 H 58.897 0.762995 3.64704 0
M  V30 648 H 59.01 2.61047 4.01735 0
M  V30 649 H 57.374 1.30565 2.18689 0
M  V30 650 H 58.157 2.92929 1.79017 0
M  V30 651 N 60.6021 -1.18246 1.0419 0
M  V30 652 C 61.5321 -2.24127 0.654914 0
M  V30 653 C 62.5131 -1.66617 -0.342451 0
M  V30 654 O 63.6981 -1.92924 -0.222277 0
M  V30 655 C 60.8281 -3.47295 0.0183757 0
M  V30 656 C 59.7821 -4.17563 0.939414 0
M  V30 657 C 59.1081 -5.34438 0.167286 0
M  V30 658 C 60.4081 -4.70917 2.25908 0
M  V30 659 H 62.1021 -2.56753 1.54007 0
M  V30 660 H 59.6481 -1.23414 0.74195 0
M  V30 661 H 61.6011 -4.20572 -0.264082 0
M  V30 662 H 60.3251 -3.13907 -0.901664 0
M  V30 663 H 58.9841 -3.46186 1.20628 0
M  V30 664 H 58.6321 -4.97298 -0.7552 0
M  V30 665 H 58.3321 -5.82388 0.780901 0
M  V30 666 H 59.8561 -6.10504 -0.108125 0
M  V30 667 H 61.2701 -5.35882 2.03724 0
M  V30 668 H 59.6671 -5.29406 2.82577 0
M  V30 669 H 60.7371 -3.88272 2.9047 0
M  V30 670 N 62.0802 -0.821533 -1.34494 0
M  V30 671 C 62.9902 -0.244355 -2.33324 0
M  V30 672 C 64.0062 0.620527 -1.62559 0
M  V30 673 O 65.1822 0.528754 -1.94335 0
M  V30 674 C 62.2472 0.585368 -3.41723 0
M  V30 675 C 61.3082 -0.301752 -4.28238 0
M  V30 676 C 60.5412 0.488466 -5.3146 0
M  V30 677 O 60.7642 1.72186 -5.4379 0
M  V30 678 O 59.6982 -0.12848 -6.01763 0
M  V30 679 H 63.5242 -1.06231 -2.84515 0
M  V30 680 H 61.1092 -0.583645 -1.37528 0
M  V30 681 H 62.9912 1.05747 -4.07916 0
M  V30 682 H 61.6662 1.38068 -2.92778 0
M  V30 683 H 60.5732 -0.821315 -3.64973 0
M  V30 684 H 61.9062 -1.06138 -4.8062 0
M  V30 685 N 63.5583 1.46682 -0.576371 0
M  V30 686 C 64.8063 2.02013 -0.0594163 0
M  V30 687 C 65.1273 1.45101 1.30271 0
M  V30 688 O 64.3973 0.633317 1.8538 0
M  V30 689 H 62.9773 0.746759 -0.0189745 0
M  V30 690 H 65.6393 1.79862 -0.750717 0
M  V30 691 H 64.7353 3.12097 0.014345 0
M  V30 692 N 65.0364 0.313813 1.54444 0
M  V30 693 C 66.2614 -0.296681 2.05267 0
M  V30 694 C 66.6864 -1.45757 1.18897 0
M  V30 695 O 66.0444 -1.80239 0.195886 0
M  V30 696 C 66.0924 -0.71831 3.53373 0
M  V30 697 O 65.1964 -1.82175 3.69981 0
M  V30 698 H 64.5374 -0.0554061 0.661684 0
M  V30 699 H 67.0674 0.459387 1.99376 0
M  V30 700 H 67.0774 -1.00364 3.95463 0
M  V30 701 H 65.7524 0.130821 4.15694 0
M  V30 702 H 64.3294 -1.53598 3.39797 0
M  V30 703 N 66.5145 -1.57545 0.0417849 0
M  V30 704 C 67.4625 -2.12148 -0.953723 0
M  V30 705 C 68.4565 -1.05104 -1.32852 0
M  V30 706 O 69.6625 -1.23524 -1.30927 0
M  V30 707 H 66.0375 -0.677957 -0.325389 0
M  V30 708 H 68.0085 -2.94707 -0.467991 0
M  V30 709 C 66.7575 -2.6739 -2.22257 0
M  V30 710 H 66.0805 -3.49413 -1.94295 0
M  V30 711 H 67.5205 -3.09227 -2.90094 0
M  V30 712 C 65.9795 -1.60723 -2.96091 0
M  V30 713 O 66.5095 -1.01449 -3.88679 0
M  V30 714 N 64.7155 -1.32466 -2.58652 0
M  V30 715 H 64.2625 -1.80856 -1.83437 0
M  V30 716 H 64.2205 -0.61325 -3.08361 0
M  V30 717 N 67.9926 0.231505 -1.5589 0
M  V30 718 C 68.9406 1.30649 -1.92441 0
M  V30 719 C 69.9346 1.49037 -0.805254 0
M  V30 720 O 71.1406 1.50329 -0.990007 0
M  V30 721 H 67.5156 0.437812 -0.611412 0
M  V30 722 H 69.4866 0.970973 -2.82161 0
M  V30 723 C 68.2356 2.65179 -2.24889 0
M  V30 724 H 67.5586 2.51835 -3.10514 0
M  V30 725 H 68.9986 3.39234 -2.54355 0
M  V30 726 C 67.4576 3.19439 -1.07054 0
M  V30 727 O 67.9876 4.00371 -0.326499 0
M  V30 728 N 66.1936 2.77675 -0.85703 0
M  V30 729 H 65.7406 2.11969 -1.46379 0
M  V30 730 H 65.6986 3.14321 -0.0703223 0
M  V30 731 N 69.4707 1.49531 0.497807 0
M  V30 732 C 70.7177 1.59179 1.25173 0
M  V30 733 C 71.0457 0.279932 1.92475 0
M  V30 734 O 70.3007 -0.732383 1.81479 0
M  V30 735 C 70.5997 2.70252 2.33878 0
M  V30 736 C 70.2657 4.11644 1.84012 0
M  V30 737 C 68.9277 4.50121 1.70132 0
M  V30 738 C 71.2797 5.00121 1.46725 0
M  V30 739 C 68.6077 5.74845 1.17348 0
M  V30 740 C 70.9597 6.25366 0.95392 0
M  V30 741 C 69.6237 6.6267 0.801538 0
M  V30 742 H 68.8937 0.582478 0.45804 0
M  V30 743 H 71.5407 1.83373 0.551948 0
M  V30 744 H 69.8457 2.40041 3.09657 0
M  V30 745 H 71.5427 2.74925 2.9192 0
M  V30 746 H 68.1327 3.81274 1.95775 0
M  V30 747 H 72.3167 4.71048 1.56294 0
M  V30 748 H 67.5727 6.02444 1.04264 0
M  V30 749 H 71.7467 6.93301 0.656225 0
M  V30 750 H 69.3737 7.59197 0.390351 0
M  V30 751 N 70.9488 -0.749086 1.3866 0
M  V30 752 C 71.8958 -1.86291 1.36251 0
M  V30 753 C 72.8658 -1.64578 0.224347 0
M  V30 754 O 74.0508 -1.86181 0.417279 0
M  V30 755 C 71.1908 -3.23644 1.19786 0
M  V30 756 C 70.3038 -3.57158 2.43027 0
M  V30 757 C 69.4388 -4.83838 2.19258 0
M  V30 758 C 68.4778 -5.10152 3.38247 0
M  V30 759 N 67.6148 -6.28029 3.13884 0
M  V30 760 H 72.4548 -1.87685 2.3147 0
M  V30 761 H 69.9918 -0.917287 1.14997 0
M  V30 762 H 71.9498 -4.0291 1.08254 0
M  V30 763 H 70.5798 -3.21566 0.282031 0
M  V30 764 H 69.6318 -2.72701 2.65214 0
M  V30 765 H 70.9438 -3.7253 3.31697 0
M  V30 766 H 70.0978 -5.71057 2.04888 0
M  V30 767 H 68.8368 -4.70614 1.2796 0
M  V30 768 H 67.8418 -4.21401 3.53131 0
M  V30 769 H 69.0668 -5.25271 4.30427 0
M  V30 770 H 67.0128 -6.1612 2.25238 0
M  V30 771 H 66.9298 -6.43922 3.96106 0
M  V30 772 H 68.1978 -7.18124 3.03179 0
M  V30 773 N 72.4269 -1.23603 -0.977757 0
M  V30 774 C 73.8379 -1.06424 -1.53398 0
M  V30 775 C 74.1889 0.367578 -1.92726 0
M  V30 776 O 73.3139 1.25465 -1.76316 0
M  V30 777 C 73.9089 -1.92568 -2.78753 0
M  V30 778 C 72.4679 -1.79642 -3.30765 0
M  V30 779 C 71.6149 -1.88111 -2.03739 0
M  V30 780 H 74.5659 -1.37227 -0.797152 0
M  V30 781 H 74.5869 -1.45203 -3.51705 0
M  V30 782 H 74.0989 -2.96771 -2.50098 0
M  V30 783 H 72.1999 -0.782325 -3.64294 0
M  V30 784 H 72.3129 -2.63174 -4.00345 0
M  V30 785 H 70.6769 -1.31723 -2.17994 0
M  V30 786 H 71.4599 -2.93875 -1.77461 0
M  V30 787 N 73.905 1.17692 -1.04816 0
M  V30 788 C 74.815 2.25229 -0.65643 0
M  V30 789 C 75.831 1.71018 0.320761 0
M  V30 790 O 77.007 2.00649 0.173805 0
M  V30 791 C 74.072 3.46684 -0.0332629 0
M  V30 792 C 73.133 4.15997 -1.06042 0
M  V30 793 C 72.366 5.31654 -0.466893 0
M  V30 794 O 72.589 5.65777 0.724758 0
M  V30 795 O 71.523 5.89831 -1.1993 0
M  V30 796 H 75.349 2.61016 -1.55255 0
M  V30 797 H 72.934 1.24919 -0.81949 0
M  V30 798 H 74.816 4.20234 0.313256 0
M  V30 799 H 73.491 3.12703 0.836566 0
M  V30 800 H 72.398 3.44482 -1.45886 0
M  V30 801 H 73.731 4.53996 -1.90127 0
M  V30 802 N 75.3831 0.828654 1.34056 0
M  V30 803 C 76.6601 0.341809 1.9259 0
M  V30 804 C 77.0401 -1.17158 1.75605 0
M  V30 805 O 76.3881 -1.98132 1.13824 0
M  V30 806 C 76.5981 0.777453 3.4023 0
M  V30 807 C 77.9461 0.779579 4.17382 0
M  V30 808 O 78.9701 0.7204 3.48839 0
M  V30 809 O 77.8291 0.857996 5.39723 0
M  V30 810 H 74.9231 0.0946085 0.821571 0
M  V30 811 H 77.4691 0.913827 1.42994 0
M  V30 812 H 76.2411 1.8196 3.46419 0
M  V30 813 H 75.8641 0.181444 3.97186 0
M  V30 814 N 76.8612 -1.46375 0.584142 0
M  V30 815 C 78.1102 -2.01585 0.0679741 0
M  V30 816 C 78.4232 -1.46109 -1.30045 0
M  V30 817 O 79.6292 -1.93148 -1.90804 0
M  V30 818 C 78.0852 -3.5983 0.0709207 0
M  V30 819 C 77.6932 -4.24303 1.43775 0
M  V30 820 C 79.4372 -4.22693 -0.391228 0
M  V30 821 C 77.3442 -5.74631 1.39834 0
M  V30 822 H 76.2742 -0.753689 0.0216421 0
M  V30 823 H 78.9252 -1.68093 0.736001 0
M  V30 824 H 77.3072 -3.90405 -0.663299 0
M  V30 825 H 78.4812 -4.05335 2.19181 0
M  V30 826 H 76.7962 -3.73539 1.84004 0
M  V30 827 H 79.3932 -5.3289 -0.439524 0
M  V30 828 H 79.7362 -3.91728 -1.40906 0
M  V30 829 H 80.2692 -3.96749 0.288974 0
M  V30 830 H 77.0082 -6.10258 2.39303 0
M  V30 831 H 76.5282 -5.95858 0.686505 0
M  V30 832 H 78.2072 -6.37375 1.11187 0
M  V30 833 N 78.3393 -0.321999 -1.54275 0
M  V30 834 C 79.5673 0.283052 -2.04955 0
M  V30 835 C 79.9823 1.45904 -1.19823 0
M  V30 836 O 79.3393 1.81063 -0.228545 0
M  V30 837 C 79.3903 0.719028 -3.54277 0
M  V30 838 O 79.1113 -0.410175 -4.36176 0
M  V30 839 C 80.6123 1.38705 -4.21041 0
M  V30 840 H 77.8323 0.0584616 -0.668448 0
M  V30 841 H 80.3763 -0.467734 -1.99079 0
M  V30 842 H 78.5313 1.41979 -3.60445 0
M  V30 843 H 78.9453 -0.0669416 -5.24457 0
M  V30 844 H 80.4193 1.64306 -5.2698 0
M  V30 845 H 80.8963 2.33385 -3.72059 0
M  V30 846 H 81.5023 0.728906 -4.19007 0
M  V30 847 N 79.8174 1.5752 -0.0501392 0
M  V30 848 C 80.7274 2.14952 0.939827 0
M  V30 849 C 81.7434 1.10706 1.34239 0
M  V30 850 O 82.9194 1.42869 1.41952 0
M  V30 851 C 79.9844 2.68232 2.19665 0
M  V30 852 C 79.0454 3.87272 1.85253 0
M  V30 853 C 78.2784 4.38002 3.04943 0
M  V30 854 O 78.5014 3.87811 4.18281 0
M  V30 855 O 77.4354 5.29602 2.86017 0
M  V30 856 H 81.2614 2.9986 0.481392 0
M  V30 857 H 78.8464 1.4841 0.171699 0
M  V30 858 H 80.7284 3.02475 2.93406 0
M  V30 859 H 79.4034 1.86395 2.64648 0
M  V30 860 H 78.3104 3.5792 1.0883 0
M  V30 861 H 79.6434 4.70336 1.4507 0
M  V30 862 N 81.2955 -0.223234 1.56011 0
M  V30 863 C 82.2585 -1.26014 1.9145 0
M  V30 864 C 83.2585 -1.3989 0.792937 0
M  V30 865 O 84.4485 -1.38184 1.0607 0
M  V30 866 C 81.5805 -2.63422 2.16383 0
M  V30 867 H 82.7735 -0.95796 2.84189 0
M  V30 868 H 80.3265 -0.463576 1.49267 0
M  V30 869 H 81.0615 -2.98741 1.2619 0
M  V30 870 H 80.8465 -2.54728 2.98088 0
M  V30 871 H 82.3365 -3.38249 2.44903 0
M  V30 872 N 82.7736 -1.49793 -0.48987 0
M  V30 873 C 83.7036 -1.70201 -1.59856 0
M  V30 874 C 84.6846 -0.55076 -1.60937 0
M  V30 875 O 85.8696 -0.787841 -1.77501 0
M  V30 876 C 82.9996 -1.77882 -2.98287 0
M  V30 877 C 81.9536 -2.92907 -3.12073 0
M  V30 878 C 81.2796 -2.85712 -4.51965 0
M  V30 879 C 82.5796 -4.3369 -2.91051 0
M  V30 880 H 84.2736 -2.63025 -1.43032 0
M  V30 881 H 81.8196 -1.26574 -0.686664 0
M  V30 882 H 83.7726 -1.90744 -3.75759 0
M  V30 883 H 82.4966 -0.816653 -3.16225 0
M  V30 884 H 81.1556 -2.79665 -2.37029 0
M  V30 885 H 80.8036 -1.8738 -4.66795 0
M  V30 886 H 80.5036 -3.62921 -4.62128 0
M  V30 887 H 82.0276 -3.00598 -5.31482 0
M  V30 888 H 83.4416 -4.47555 -3.58284 0
M  V30 889 H 81.8386 -5.12205 -3.12675 0
M  V30 890 H 82.9086 -4.47362 -1.87071 0
M  V30 891 N 84.2517 0.741722 -1.39055 0
M  V30 892 C 85.6677 1.04638 -1.20512 0
M  V30 893 C 85.8677 2.01405 -0.0620218 0
M  V30 894 O 84.9237 2.45547 0.588457 0
M  V30 895 C 86.2367 1.6151 -2.53643 0
M  V30 896 C 87.7847 1.73623 -2.6043 0
M  V30 897 C 88.2597 2.33906 -3.93767 0
M  V30 898 N 89.7507 2.41323 -3.9537 0
M  V30 899 C 90.4857 2.88888 -4.95309 0
M  V30 900 N 89.9817 3.36401 -6.05645 0
M  V30 901 N 91.7747 2.88037 -4.82692 0
M  V30 902 H 83.9257 0.0998155 -2.12165 0
M  V30 903 H 86.1887 0.106907 -0.941953 0
M  V30 904 H 85.8947 0.978739 -3.37807 0
M  V30 905 H 85.7687 2.60411 -2.72885 0
M  V30 906 H 88.1557 2.36384 -1.76655 0
M  V30 907 H 88.2367 0.733945 -2.45045 0
M  V30 908 H 87.8807 1.71776 -4.7797 0
M  V30 909 H 87.8107 3.34799 -4.06469 0
M  V30 910 H 90.3017 2.07734 -3.15682 0
M  V30 911 H 90.6147 3.71186 -6.77821 0
M  V30 912 H 88.9597 3.34427 -6.09248 0
M  V30 913 H 92.1507 2.50237 -3.95599 0
M  V30 914 H 92.3237 3.24792 -5.60726 0
M  V30 915 N 85.7298 1.2412 0.971189 0
M  V30 916 C 86.6928 1.03156 2.04674 0
M  V30 917 C 87.6928 -0.00990322 1.60797 0
M  V30 918 O 88.8828 0.230729 1.72665 0
M  V30 919 C 86.0148 0.562765 3.36223 0
M  V30 920 H 87.2078 1.98614 2.24705 0
M  V30 921 H 84.7608 1.06293 1.14593 0
M  V30 922 H 85.4958 -0.395176 3.21883 0
M  V30 923 H 85.2808 1.31441 3.69413 0
M  V30 924 H 86.7708 0.437015 4.15307 0
M  V30 925 N 87.2079 -1.17134 1.05439 0
M  V30 926 C 88.4549 -1.87456 0.765942 0
M  V30 927 C 88.7829 -1.81189 -0.707153 0
M  V30 928 O 88.0379 -1.21633 -1.5331 0
M  V30 929 C 88.3369 -3.36833 1.19491 0
M  V30 930 C 88.0029 -3.63301 2.67063 0
M  V30 931 C 86.6649 -3.70234 3.07376 0
M  V30 932 C 89.0169 -3.74575 3.62413 0
M  V30 933 C 86.3449 -3.85933 4.41896 0
M  V30 934 C 88.6969 -3.91793 4.9667 0
M  V30 935 C 87.3609 -3.96966 5.36633 0
M  V30 936 H 86.6309 -0.685948 0.280278 0
M  V30 937 H 89.2779 -1.38556 1.32192 0
M  V30 938 H 87.5829 -3.87807 0.557969 0
M  V30 939 H 89.2799 -3.89611 0.948893 0
M  V30 940 H 85.8699 -3.58532 2.34846 0
M  V30 941 H 90.0539 -3.68537 3.32406 0
M  V30 942 H 85.3099 -3.88187 4.72357 0
M  V30 943 H 89.4839 -3.99458 5.70444 0
M  V30 944 H 87.1109 -4.08883 6.40874 0
M  V30 945 N 88.686 -0.835752 -1.33615 0
M  V30 946 C 89.618 -0.224151 -2.28101 0
M  V30 947 C 90.631 0.593331 -1.51603 0
M  V30 948 O 91.82 0.420911 -1.73466 0
M  V30 949 C 88.92 0.703309 -3.31522 0
M  V30 950 C 88.093 -0.0741528 -4.37337 0
M  V30 951 C 87.152 0.776176 -5.20444 0
M  V30 952 O 86.178 0.216506 -5.68788 0
M  V30 953 N 87.38 2.09401 -5.41416 0
M  V30 954 H 90.145 -1.03598 -2.81225 0
M  V30 955 H 87.706 -0.69392 -1.46275 0
M  V30 956 H 89.698 1.27707 -3.84022 0
M  V30 957 H 88.268 1.41585 -2.78698 0
M  V30 958 H 87.488 -0.82928 -3.85378 0
M  V30 959 H 88.776 -0.608863 -5.05144 0
M  V30 960 H 88.174 2.57229 -5.03835 0
M  V30 961 H 86.731 2.61633 -5.96985 0
M  V30 962 N 90.1641 1.46063 -0.591896 0
M  V30 963 C 91.0741 2.34192 0.13831 0
M  V30 964 C 92.0901 1.50305 0.876608 0
M  V30 965 O 93.2661 1.8315 0.837728 0
M  V30 966 C 90.3311 3.27656 1.13326 0
M  V30 967 C 89.3921 4.27445 0.39863 0
M  V30 968 C 88.6251 5.16443 1.34618 0
M  V30 969 O 88.8481 5.08553 2.58321 0
M  V30 970 O 87.7821 5.95843 0.851768 0
M  V30 971 H 91.6081 2.98002 -0.58552 0
M  V30 972 H 89.1931 1.45188 -0.352239 0
M  V30 973 H 91.0751 3.85291 1.70671 0
M  V30 974 H 89.7501 2.6643 1.83839 0
M  V30 975 H 88.6571 3.73471 -0.216895 0
M  V30 976 H 89.9901 4.91482 -0.265709 0
M  V30 977 N 91.6422 0.330177 1.54103 0
M  V30 978 C 92.6052 -0.520144 2.2322 0
M  V30 979 C 93.6052 -1.03828 1.22786 0
M  V30 980 O 94.7952 -0.929652 1.4732 0
M  V30 981 C 91.9272 -1.72317 2.94142 0
M  V30 982 H 93.1202 0.0841605 2.99782 0
M  V30 983 H 90.6732 0.0813433 1.56088 0
M  V30 984 H 91.4082 -2.36653 2.21734 0
M  V30 985 H 91.1932 -1.35898 3.67796 0
M  V30 986 H 92.6832 -2.3266 3.46784 0
M  V30 987 N 93.1203 -1.57491 0.0584922 0
M  V30 988 C 94.3453 -1.97711 -0.62652 0
M  V30 989 C 94.7703 -0.936132 -1.63151 0
M  V30 990 O 94.1283 0.099811 -1.81025 0
M  V30 991 C 94.1763 -3.36989 -1.28338 0
M  V30 992 O 93.2803 -3.35433 -2.39913 0
M  V30 993 H 92.6213 -0.643868 -0.162266 0
M  V30 994 H 95.1513 -2.04193 0.129064 0
M  V30 995 H 95.1613 -3.73879 -1.63335 0
M  V30 996 H 93.8363 -4.12289 -0.546889 0
M  V30 997 H 92.4133 -3.10298 -2.06809 0
M  V30 998 N 94.5984 0.214957 -1.56127 0
M  V30 999 C 95.5084 1.28727 -1.96129 0
M  V30 1000 C 96.5244 1.50916 -0.866044 0
M  V30 1001 O 97.7004 1.63918 -1.17016 0
M  V30 1002 C 94.7654 2.61569 -2.27558 0
M  V30 1003 C 93.8264 2.47625 -3.50685 0
M  V30 1004 C 93.0594 3.74132 -3.80606 0
M  V30 1005 O 93.2824 4.77438 -3.12104 0
M  V30 1006 O 92.2164 3.70849 -4.74083 0
M  V30 1007 H 96.0424 0.977855 -2.87527 0
M  V30 1008 H 93.6274 0.418358 -1.43423 0
M  V30 1009 H 95.5094 3.40012 -2.48938 0
M  V30 1010 H 94.1844 2.92178 -1.39332 0
M  V30 1011 H 93.0914 1.67361 -3.34576 0
M  V30 1012 H 94.4244 2.21954 -4.39315 0
M  V30 1013 N 96.0765 1.50051 0.48192 0
M  V30 1014 C 97.0065 1.71046 1.58951 0
M  V30 1015 C 97.9875 0.559288 1.60642 0
M  V30 1016 O 99.1725 0.797243 1.77081 0
M  V30 1017 C 96.3025 1.79462 2.97339 0
M  V30 1018 C 95.2565 2.94558 3.10515 0
M  V30 1019 C 94.5825 2.88105 4.50444 0
M  V30 1020 C 95.8825 4.35227 2.88747 0
M  V30 1021 H 97.5765 2.6378 1.41635 0
M  V30 1022 H 95.1225 1.26936 0.679942 0
M  V30 1023 H 97.0755 1.92734 3.74742 0
M  V30 1024 H 95.7995 0.833412 3.15788 0
M  V30 1025 H 94.4585 2.80918 2.35543 0
M  V30 1026 H 94.1065 1.89853 4.65795 0
M  V30 1027 H 93.8065 3.65366 4.60197 0
M  V30 1028 H 95.3305 3.03412 5.29881 0
M  V30 1029 H 96.7445 4.49449 3.55905 0
M  V30 1030 H 95.1415 5.13856 3.09955 0
M  V30 1031 H 96.2115 4.48347 1.84696 0
M  V30 1032 N 97.5546 -0.734337 1.39446 0
M  V30 1033 C 98.9656 -1.31264 1.32766 0
M  V30 1034 C 99.3166 -1.96198 -0.00767497 0
M  V30 1035 O 98.4416 -1.96346 -0.909796 0
M  V30 1036 C 99.0366 -2.38682 2.4045 0
M  V30 1037 C 97.5956 -2.92184 2.37288 0
M  V30 1038 C 96.7426 -1.6576 2.22304 0
M  V30 1039 H 99.6936 -0.531799 1.49525 0
M  V30 1040 H 99.7146 -3.19087 2.07276 0
M  V30 1041 H 99.2266 -1.91392 3.37625 0
M  V30 1042 H 97.3276 -3.43752 1.43754 0
M  V30 1043 H 97.4406 -3.45253 3.3217 0
M  V30 1044 H 95.8046 -1.9012 1.69489 0
M  V30 1045 H 96.5876 -1.20521 3.21449 0
M  V30 1046 N 99.0327 -1.24633 -0.964593 0
M  V30 1047 C 100.279 -1.08949 -1.71049 0
M  V30 1048 C 100.612 0.370302 -1.90637 0
M  V30 1049 O 99.8867 1.27349 -1.47011 0
M  V30 1050 C 100.17 -1.83329 -3.0994 0
M  V30 1051 C 100.023 -3.37077 -2.97824 0
M  V30 1052 C 101.342 -1.60846 -4.09654 0
M  V30 1053 H 98.4607 -0.397178 -0.620821 0
M  V30 1054 H 101.103 -1.5334 -1.12191 0
M  V30 1055 H 99.2527 -1.45597 -3.60186 0
M  V30 1056 H 100.925 -3.84425 -2.5498 0
M  V30 1057 H 99.1677 -3.65298 -2.33965 0
M  V30 1058 H 99.8387 -3.84324 -3.96231 0
M  V30 1059 H 102.315 -1.93674 -3.68279 0
M  V30 1060 H 101.191 -2.1534 -5.04896 0
M  V30 1061 H 101.452 -0.547434 -4.38698 0
M  V30 1062 N 100.511 1.16574 -1.06058 0
M  V30 1063 C 101.736 1.91493 -0.796562 0
M  V30 1064 C 102.161 1.76773 0.642868 0
M  V30 1065 O 101.519 1.09142 1.44768 0
M  V30 1066 C 101.567 3.40293 -1.19303 0
M  V30 1067 O 100.671 4.11074 -0.330394 0
M  V30 1068 H 100.012 0.596678 -0.291326 0
M  V30 1069 H 102.542 1.47708 -1.41575 0
M  V30 1070 H 102.552 3.91057 -1.16356 0
M  V30 1071 H 101.227 3.50326 -2.24153 0
M  V30 1072 H 99.8038 3.70513 -0.421225 0
M  V30 1073 N 101.989 0.842826 1.3317 0
M  V30 1074 C 103.237 0.439577 1.97262 0
M  V30 1075 C 103.558 -1.00548 1.67078 0
M  V30 1076 O 102.828 -1.70098 0.971779 0
M  V30 1077 H 101.408 0.159558 0.72976 0
M  V30 1078 H 104.07 1.07665 1.62463 0
M  V30 1079 H 103.166 0.574886 3.0676 0
M  V30 1080 N 103.467 -1.45747 0.599634 0
M  V30 1081 C 104.399 -2.28628 -0.161879 0
M  V30 1082 C 105.412 -1.39494 -0.839367 0
M  V30 1083 O 106.601 -1.63941 -0.706089 0
M  V30 1084 C 103.701 -3.15014 -1.24976 0
M  V30 1085 C 102.874 -4.32378 -0.660935 0
M  V30 1086 C 101.933 -5.00033 -1.63869 0
M  V30 1087 O 100.959 -5.57085 -1.1681 0
M  V30 1088 N 102.161 -4.98589 -2.97303 0
M  V30 1089 H 104.926 -2.94624 0.549265 0
M  V30 1090 H 102.487 -1.55847 0.438565 0
M  V30 1091 H 104.479 -3.5714 -1.9035 0
M  V30 1092 H 103.049 -2.5098 -1.86354 0
M  V30 1093 H 102.269 -3.9383 0.170688 0
M  V30 1094 H 103.557 -5.08197 -0.247619 0
M  V30 1095 H 102.955 -4.53514 -3.38145 0
M  V30 1096 H 101.512 -5.44603 -3.58121 0
M  V30 1097 N 104.945 -0.338344 -1.53925 0
M  V30 1098 C 105.875 0.51328 -2.27789 0
M  V30 1099 C 106.856 1.107 -1.29149 0
M  V30 1100 O 108.041 1.12937 -1.57984 0
M  V30 1101 C 105.171 1.66697 -3.04679 0
M  V30 1102 C 104.125 1.20183 -4.1078 0
M  V30 1103 C 103.451 2.44363 -4.75595 0
M  V30 1104 C 104.751 0.30605 -5.21403 0
M  V30 1105 H 106.445 -0.102883 -2.99223 0
M  V30 1106 H 103.991 -0.0509219 -1.4391 0
M  V30 1107 H 105.944 2.26915 -3.55088 0
M  V30 1108 H 104.668 2.30995 -2.30887 0
M  V30 1109 H 103.327 0.622499 -3.61276 0
M  V30 1110 H 102.975 3.07057 -3.98403 0
M  V30 1111 H 102.675 2.13925 -5.47275 0
M  V30 1112 H 104.199 3.05317 -5.28786 0
M  V30 1113 H 105.613 0.814929 -5.67478 0
M  V30 1114 H 104.01 0.0937929 -6.00027 0
M  V30 1115 H 105.08 -0.65921 -4.80398 0
M  V30 1116 N 106.423 1.57458 -0.0668435 0
M  V30 1117 C 107.7 1.8469 0.644132 0
M  V30 1118 C 108.08 0.958343 1.88093 0
M  V30 1119 O 107.428 0.0233579 2.28488 0
M  V30 1120 C 107.638 3.34767 0.986509 0
M  V30 1121 C 108.986 4.02159 1.36212 0
M  V30 1122 O 110.01 3.39484 1.07839 0
M  V30 1123 O 108.869 5.12694 1.89227 0
M  V30 1124 H 105.963 0.762816 0.319437 0
M  V30 1125 H 108.509 1.6942 -0.0973986 0
M  V30 1126 H 107.281 3.91151 0.107883 0
M  V30 1127 H 106.904 3.55281 1.78497 0
M  V30 1128 N 107.901 -0.206675 1.56239 0
M  V30 1129 C 109.178 -0.954051 1.70755 0
M  V30 1130 C 109.558 -2.01841 0.618353 0
M  V30 1131 O 108.906 -2.25444 -0.372434 0
M  V30 1132 C 109.116 -1.551 3.12642 0
M  V30 1133 C 110.464 -2.03757 3.72516 0
M  V30 1134 O 111.488 -1.64965 3.15698 0
M  V30 1135 O 110.347 -2.75103 4.72208 0
M  V30 1136 H 107.441 -0.446636 0.696021 0
M  V30 1137 H 109.987 -0.197283 1.68549 0
M  V30 1138 H 108.759 -0.783212 3.83382 0
M  V30 1139 H 108.382 -2.37291 3.19028 0
M  V30 1140 N 109.379 -1.50304 -0.473955 0
M  V30 1141 C 110.342 -1.6841 -1.55469 0
M  V30 1142 C 111.342 -0.554905 -1.50922 0
M  V30 1143 O 112.532 -0.821882 -1.53593 0
M  V30 1144 C 109.664 -1.70667 -2.95102 0
M  V30 1145 H 110.857 -2.64828 -1.40733 0
M  V30 1146 H 108.41 -1.39742 -0.700132 0
M  V30 1147 H 109.145 -0.75932 -3.15285 0
M  V30 1148 H 108.93 -2.52698 -2.9981 0
M  V30 1149 H 110.42 -1.8664 -3.73571 0
M  V30 1150 N 110.857 0.726932 -1.39834 0
M  V30 1151 C 112.085 1.51613 -1.40787 0
M  V30 1152 C 112.5 1.88799 -0.00451505 0
M  V30 1153 O 111.857 1.54662 0.968809 0
M  V30 1154 C 111.908 2.79863 -2.28821 0
M  V30 1155 O 111.629 2.44253 -3.63692 0
M  V30 1156 C 113.13 3.73837 -2.38245 0
M  V30 1157 H 110.35 0.468264 -0.480593 0
M  V30 1158 H 112.894 0.897607 -1.83748 0
M  V30 1159 H 111.049 3.38027 -1.89252 0
M  V30 1160 H 111.463 3.26695 -4.1033 0
M  V30 1161 H 112.937 4.60699 -3.04073 0
M  V30 1162 H 113.414 4.16153 -1.40403 0
M  V30 1163 H 114.02 3.21589 -2.78317 0
M  V30 1164 N 112.336 1.25143 0.95797 0
M  V30 1165 C 113.752 1.01892 1.22842 0
M  V30 1166 C 113.952 -0.266311 1.99732 0
M  V30 1167 O 113.008 -0.979913 2.3271 0
M  V30 1168 C 114.321 2.24004 2.00606 0
M  V30 1169 C 115.869 2.28731 2.13662 0
M  V30 1170 C 116.344 3.5049 2.94823 0
M  V30 1171 N 117.835 3.50866 3.02403 0
M  V30 1172 C 118.57 4.4174 3.65586 0
M  V30 1173 N 118.066 5.42882 4.30408 0
M  V30 1174 N 119.859 4.29429 3.62694 0
M  V30 1175 H 112.01 2.07718 0.443493 0
M  V30 1176 H 114.273 0.912031 0.258657 0
M  V30 1177 H 113.979 3.17395 1.51503 0
M  V30 1178 H 113.853 2.26907 3.01319 0
M  V30 1179 H 116.24 1.35865 2.61963 0
M  V30 1180 H 116.321 2.29848 1.12265 0
M  V30 1181 H 115.965 4.43676 2.47213 0
M  V30 1182 H 115.895 3.46617 3.96439 0
M  V30 1183 H 118.386 2.777 2.56302 0
M  V30 1184 H 118.699 6.0844 4.76467 0
M  V30 1185 H 117.044 5.46758 4.29047 0
M  V30 1186 H 120.235 3.49643 3.11236 0
M  V30 1187 H 120.408 5.00448 4.1165 0
M  V30 1188 N 113.814 -1.1601 1.06675 0
M  V30 1189 C 114.777 -2.18724 0.685001 0
M  V30 1190 C 115.777 -1.58496 -0.271246 0
M  V30 1191 O 116.967 -1.74119 -0.0531156 0
M  V30 1192 C 114.099 -3.40899 0.00853648 0
M  V30 1193 H 115.292 -2.54011 1.59431 0
M  V30 1194 H 112.845 -1.30352 0.862441 0
M  V30 1195 H 113.58 -3.11173 -0.913337 0
M  V30 1196 H 113.365 -3.8587 0.696204 0
M  V30 1197 H 114.855 -4.16886 -0.24414 0
M  V30 1198 N 115.292 -0.849877 -1.32721 0
M  V30 1199 C 116.708 -0.539102 -1.50219 0
M  V30 1200 C 116.908 0.931271 -1.78689 0
M  V30 1201 O 115.964 1.71455 -1.85363 0
M  V30 1202 C 117.277 -1.42196 -2.64954 0
M  V30 1203 C 118.825 -1.42189 -2.78839 0
M  V30 1204 C 119.3 -2.28985 -3.96648 0
M  V30 1205 N 120.791 -2.26754 -4.03902 0
M  V30 1206 C 121.526 -2.90644 -4.94281 0
M  V30 1207 N 121.022 -3.63629 -5.897 0
M  V30 1208 N 122.815 -2.80057 -4.87365 0
M  V30 1209 H 114.966 -1.80156 -1.12506 0
M  V30 1210 H 117.229 -0.769217 -0.554085 0
M  V30 1211 H 116.935 -2.46733 -2.50631 0
M  V30 1212 H 116.809 -1.10591 -3.60624 0
M  V30 1213 H 119.196 -0.38419 -2.92588 0
M  V30 1214 H 119.277 -1.77807 -1.83898 0
M  V30 1215 H 118.921 -3.32819 -3.83658 0
M  V30 1216 H 118.851 -1.90702 -4.90857 0
M  V30 1217 H 121.342 -1.73688 -3.3562 0
M  V30 1218 H 121.655 -4.09558 -6.55349 0
M  V30 1219 H 120 -3.67737 -5.89741 0
M  V30 1220 H 123.191 -2.22593 -4.11789 0
M  V30 1221 H 123.364 -3.30132 -5.57599 0
M  V30 1222 N 116.77 1.45427 -0.607355 0
M  V30 1223 C 117.703 2.27635 0.160482 0
M  V30 1224 C 118.681 1.37122 0.873857 0
M  V30 1225 O 119.865 1.66551 0.882775 0
M  V30 1226 C 116.992 3.15486 1.23231 0
M  V30 1227 C 116.038 4.21939 0.622097 0
M  V30 1228 S 116.871 5.32459 -0.569852 0
M  V30 1229 C 118.027 6.23879 0.502577 0
M  V30 1230 H 118.26 2.9241 -0.536983 0
M  V30 1231 H 115.793 1.49265 -0.394868 0
M  V30 1232 H 117.751 3.66659 1.84585 0
M  V30 1233 H 116.412 2.49977 1.90185 0
M  V30 1234 H 115.605 4.8333 1.42856 0
M  V30 1235 H 115.207 3.73906 0.0837063 0
M  V30 1236 H 117.499 6.63261 1.38171 0
M  V30 1237 H 118.442 7.0806 -0.0751759 0
M  V30 1238 H 118.85 5.58545 0.8178 0
M  V30 1239 N 118.248 0.346503 1.53744 0
M  V30 1240 C 119.664 -0.00530975 1.59599 0
M  V30 1241 C 119.864 -1.48465 1.36236 0
M  V30 1242 O 118.92 -2.24376 1.15808 0
M  V30 1243 C 120.233 0.433516 2.97559 0
M  V30 1244 C 121.781 0.386111 3.10609 0
M  V30 1245 C 122.256 0.800451 4.50951 0
M  V30 1246 N 123.747 0.754753 4.5701 0
M  V30 1247 C 124.482 1.04727 5.63755 0
M  V30 1248 N 123.978 1.4081 6.7834 0
M  V30 1249 N 125.771 0.971316 5.53644 0
M  V30 1250 H 117.922 1.31009 1.67184 0
M  V30 1251 H 120.185 0.534242 0.783128 0
M  V30 1252 H 119.891 1.46509 3.19731 0
M  V30 1253 H 119.765 -0.189753 3.76722 0
M  V30 1254 H 122.152 -0.636295 2.88158 0
M  V30 1255 H 122.233 1.04462 2.33498 0
M  V30 1256 H 121.877 1.82088 4.74137 0
M  V30 1257 H 121.807 0.119386 5.26465 0
M  V30 1258 H 124.298 0.488662 3.74727 0
M  V30 1259 H 124.611 1.61607 7.55714 0
M  V30 1260 H 122.956 1.44657 6.79779 0
M  V30 1261 H 126.147 0.688748 4.63005 0
M  V30 1262 H 126.32 1.20263 6.36742 0
M  V30 1263 N 119.726 -1.57421 0.075193 0
M  V30 1264 C 120.658 -2.09904 -0.920483 0
M  V30 1265 C 121.671 -1.03191 -1.25918 0
M  V30 1266 O 122.86 -1.30695 -1.21577 0
M  V30 1267 C 119.96 -2.54726 -2.23534 0
M  V30 1268 C 119.133 -3.8505 -2.07498 0
M  V30 1269 C 118.192 -4.15929 -3.22319 0
M  V30 1270 O 117.218 -4.85474 -2.9716 0
M  V30 1271 N 118.42 -3.69745 -4.47514 0
M  V30 1272 H 121.185 -2.95954 -0.472359 0
M  V30 1273 H 118.746 -1.61523 -0.110444 0
M  V30 1274 H 120.738 -2.72443 -2.9926 0
M  V30 1275 H 119.308 -1.73795 -2.59835 0
M  V30 1276 H 118.528 -3.76679 -1.16219 0
M  V30 1277 H 119.816 -4.70348 -1.94038 0
M  V30 1278 H 119.214 -3.13569 -4.7084 0
M  V30 1279 H 117.771 -3.92655 -5.20255 0
M  V30 1280 N 121.204 0.198386 -1.56346 0
M  V30 1281 C 122.615 0.763358 -1.70381 0
M  V30 1282 C 122.966 1.83995 -0.681203 0
M  V30 1283 O 122.091 2.15785 0.16305 0
M  V30 1284 C 122.686 1.39143 -3.08909 0
M  V30 1285 C 121.245 1.90352 -3.2472 0
M  V30 1286 C 120.392 0.772233 -2.6633 0
M  V30 1287 H 123.343 -0.0266377 -1.58678 0
M  V30 1288 H 123.364 2.26076 -3.06055 0
M  V30 1289 H 122.876 0.607638 -3.83314 0
M  V30 1290 H 120.977 2.71461 -2.55225 0
M  V30 1291 H 121.09 2.06757 -4.3219 0
M  V30 1292 H 119.454 1.18566 -2.2542 0
M  V30 1293 H 120.237 0.00073556 -3.433 0
M  V30 1294 N 122.682 1.50554 0.465978 0
M  V30 1295 C 124.098 1.38093 0.800154 0
M  V30 1296 C 124.298 0.440988 1.96615 0
M  V30 1297 O 123.354 -0.114499 2.5224 0
M  V30 1298 C 124.667 2.79565 1.10742 0
M  V30 1299 C 126.215 2.88516 1.21357 0
M  V30 1300 C 126.69 4.30833 1.55393 0
M  V30 1301 N 128.181 4.33807 1.62375 0
M  V30 1302 C 128.916 5.40927 1.90225 0
M  V30 1303 N 128.412 6.58247 2.16062 0
M  V30 1304 N 130.205 5.28376 1.9177 0
M  V30 1305 H 122.356 2.10237 -0.302366 0
M  V30 1306 H 124.619 0.945203 -0.0727746 0
M  V30 1307 H 124.325 3.50208 0.323661 0
M  V30 1308 H 124.199 3.17125 2.04234 0
M  V30 1309 H 126.586 2.1809 1.98799 0
M  V30 1310 H 126.667 2.54492 0.258321 0
M  V30 1311 H 126.311 5.01799 0.784889 0
M  V30 1312 H 126.241 4.62347 2.52076 0
M  V30 1313 H 128.732 3.49212 1.44427 0
M  V30 1314 H 129.045 7.3569 2.36601 0
M  V30 1315 H 127.39 6.61413 2.13444 0
M  V30 1316 H 130.581 4.35715 1.71085 0
M  V30 1317 H 130.754 6.11944 2.13139 0
M  V30 1318 N 124.16 -0.719506 1.40217 0
M  V30 1319 C 125.4 -1.49181 1.39729 0
M  V30 1320 C 125.764 -1.92 -0.00250614 0
M  V30 1321 O 126.965 -2.68473 -0.132479 0
M  V30 1322 C 125.236 -2.68767 2.35582 0
M  V30 1323 S 126.795 -3.58224 2.53418 0
M  V30 1324 H 123.613 -0.510091 0.495307 0
M  V30 1325 H 126.215 -0.841724 1.76452 0
M  V30 1326 H 124.919 -2.35475 3.36124 0
M  V30 1327 H 124.45 -3.38691 2.0013 0
M  V30 1328 H 126.465 -4.63033 1.78367 0
M  V30 1329 N 125.638 -1.25649 -0.95132 0
M  V30 1330 C 126.886 -1.10375 -1.69298 0
M  V30 1331 C 127.207 0.355339 -1.91735 0
M  V30 1332 O 126.477 1.25188 -1.50681 0
M  V30 1333 H 125.057 -0.405461 -0.627384 0
M  V30 1334 H 127.719 -1.57823 -1.14358 0
M  V30 1335 H 126.815 -1.61465 -2.67087 0
M  V30 1336 N 127.117 1.15442 -1.07289 0
M  V30 1337 C 128.047 2.22312 -0.714107 0
M  V30 1338 C 129.028 1.67467 0.298155 0
M  V30 1339 O 130.213 1.93445 0.171048 0
M  V30 1340 C 127.343 3.47124 -0.110448 0
M  V30 1341 C 126.297 4.14926 -1.04979 0
M  V30 1342 C 125.623 5.33807 -0.308924 0
M  V30 1343 C 126.923 4.64762 -2.38314 0
M  V30 1344 H 128.617 2.5258 -1.6076 0
M  V30 1345 H 126.163 1.21404 -0.77441 0
M  V30 1346 H 128.116 4.21124 0.152482 0
M  V30 1347 H 126.84 3.16187 0.81812 0
M  V30 1348 H 125.499 3.42866 -1.29764 0
M  V30 1349 H 125.147 4.99126 0.623084 0
M  V30 1350 H 124.847 5.80113 -0.935036 0
M  V30 1351 H 126.371 6.10576 -0.0537771 0
M  V30 1352 H 127.785 5.30292 -2.1786 0
M  V30 1353 H 126.182 5.21728 -2.96514 0
M  V30 1354 H 127.252 3.80434 -3.00663 0
M  V30 1355 N 128.595 0.856903 1.32268 0
M  V30 1356 C 129.505 0.306131 2.32594 0
M  V30 1357 C 130.521 -0.577209 1.64147 0
M  V30 1358 O 131.697 -0.477043 1.95669 0
M  V30 1359 C 128.762 -0.494561 3.43154 0
M  V30 1360 C 127.823 0.415186 4.27288 0
M  V30 1361 C 127.056 -0.347387 5.32568 0
M  V30 1362 O 127.279 -1.57708 5.48165 0
M  V30 1363 O 126.213 0.287982 6.01211 0
M  V30 1364 H 130.039 1.13737 2.81598 0
M  V30 1365 H 127.624 0.619902 1.35932 0
M  V30 1366 H 129.506 -0.948944 4.10576 0
M  V30 1367 H 128.181 -1.30257 2.96336 0
M  V30 1368 H 127.088 0.917793 3.62667 0
M  V30 1369 H 128.421 1.18844 4.77637 0
M  V30 1370 N 130.073 -1.45103 0.615059 0
M  V30 1371 C 131.35 -1.95549 0.0448276 0
M  V30 1372 C 131.73 -1.55737 -1.4251 0
M  V30 1373 O 131.078 -0.823556 -2.13143 0
M  V30 1374 C 131.288 -3.48098 0.250785 0
M  V30 1375 C 132.636 -4.24384 0.135509 0
M  V30 1376 O 133.66 -3.55738 0.181299 0
M  V30 1377 O 132.519 -5.46493 0.0268878 0
M  V30 1378 H 129.613 -0.8264 -0.0314845 0
M  V30 1379 H 132.159 -1.55232 0.685642 0
M  V30 1380 H 130.931 -3.7007 1.27139 0
M  V30 1381 H 130.554 -3.95323 -0.424937 0
M  V30 1382 N 131.551 -0.354651 -1.53558 0
M  V30 1383 C 132.962 0.126902 -1.86268 0
M  V30 1384 C 133.313 1.49075 -1.27558 0
M  V30 1385 O 132.438 2.08105 -0.5934 0
M  V30 1386 C 133.033 0.237046 -3.3797 0
M  V30 1387 C 131.592 0.662842 -3.70518 0
M  V30 1388 C 130.739 -0.196652 -2.76602 0
M  V30 1389 H 133.69 -0.573849 -1.47962 0
M  V30 1390 H 133.711 1.06259 -3.65362 0
M  V30 1391 H 133.223 -0.755725 -3.80671 0
M  V30 1392 H 131.324 1.66424 -3.33367 0
M  V30 1393 H 131.437 0.445034 -4.77029 0
M  V30 1394 H 129.801 0.332763 -2.52517 0
M  V30 1395 H 130.584 -1.18676 -3.22135 0
M  V30 1396 N 133.029 1.57378 -0.0835403 0
M  V30 1397 C 134.276 1.9393 0.58287 0
M  V30 1398 C 134.604 0.964455 1.68904 0
M  V30 1399 O 133.859 -0.0179474 1.95692 0
M  V30 1400 C 134.158 3.37063 1.1884 0
M  V30 1401 C 133.824 4.50424 0.207194 0
M  V30 1402 C 132.486 4.81159 -0.0627115 0
M  V30 1403 C 134.838 5.19136 -0.463426 0
M  V30 1404 C 132.166 5.77939 -1.01012 0
M  V30 1405 C 134.518 6.16931 -1.39924 0
M  V30 1406 C 133.182 6.46078 -1.67749 0
M  V30 1407 H 132.452 0.70964 0.213287 0
M  V30 1408 H 135.099 1.90856 -0.156916 0
M  V30 1409 H 133.404 3.3666 2.00418 0
M  V30 1410 H 135.101 3.6264 1.71153 0
M  V30 1411 H 131.691 4.2646 0.427747 0
M  V30 1412 H 135.875 4.95576 -0.268034 0
M  V30 1413 H 131.131 5.98842 -1.23283 0
M  V30 1414 H 135.305 6.69273 -1.92476 0
M  V30 1415 H 132.932 7.2088 -2.41321 0
M  V30 1416 N 134.507 -0.190092 1.56449 0
M  V30 1417 C 135.455 -1.25501 1.95837 0
M  V30 1418 C 136.449 -1.4685 0.844485 0
M  V30 1419 O 137.655 -1.47651 1.02952 0
M  V30 1420 H 134.03 -0.421447 0.622805 0
M  V30 1421 H 136.001 -0.895821 2.84636 0
M  V30 1422 C 134.75 -2.59124 2.31841 0
M  V30 1423 H 134.073 -2.43514 3.17082 0
M  V30 1424 H 135.513 -3.32371 2.6326 0
M  V30 1425 C 133.972 -3.16488 1.15486 0
M  V30 1426 O 134.502 -3.99365 0.432535 0
M  V30 1427 N 132.708 -2.75305 0.930349 0
M  V30 1428 H 132.255 -2.08013 1.51948 0
M  V30 1429 H 132.213 -3.14024 0.153634 0
M  V30 1430 N 135.985 -1.50799 -0.457987 0
M  V30 1431 C 136.917 -1.66786 -1.57211 0
M  V30 1432 C 137.93 -0.548962 -1.53265 0
M  V30 1433 O 139.119 -0.8226 -1.58416 0
M  V30 1434 C 136.219 -1.64834 -2.96113 0
M  V30 1435 C 135.392 -2.92971 -3.24787 0
M  V30 1436 C 134.451 -2.83485 -4.43309 0
M  V30 1437 O 133.477 -3.5744 -4.42973 0
M  V30 1438 N 134.679 -1.97929 -5.45714 0
M  V30 1439 H 137.444 -2.62889 -1.43909 0
M  V30 1440 H 135.005 -1.48427 -0.646617 0
M  V30 1441 H 136.997 -1.56084 -3.7339 0
M  V30 1442 H 135.567 -0.764118 -3.03117 0
M  V30 1443 H 134.787 -3.15749 -2.36 0
M  V30 1444 H 136.075 -3.77834 -3.40762 0
M  V30 1445 H 135.473 -1.37182 -5.48815 0
M  V30 1446 H 134.03 -1.95073 -6.21924 0
M  V30 1447 N 137.463 0.71206 -1.40597 0
M  V30 1448 C 138.41 1.82613 -1.41142 0
M  V30 1449 C 139.38 1.63925 -0.267903 0
M  V30 1450 O 140.565 1.85009 -0.466495 0
M  V30 1451 C 137.705 3.20354 -1.28324 0
M  V30 1452 C 136.818 3.50589 -2.52411 0
M  V30 1453 C 135.953 4.77855 -2.32009 0
M  V30 1454 C 134.992 5.01005 -3.51654 0
M  V30 1455 N 134.129 6.19487 -3.30425 0
M  V30 1456 H 138.969 1.81482 -2.36365 0
M  V30 1457 H 136.506 0.886475 -1.17388 0
M  V30 1458 H 138.464 3.99899 -1.18899 0
M  V30 1459 H 137.094 3.20705 -0.367189 0
M  V30 1460 H 136.146 2.65573 -2.72351 0
M  V30 1461 H 137.458 3.63604 -3.41458 0
M  V30 1462 H 136.612 5.65424 -2.19956 0
M  V30 1463 H 135.351 4.67056 -1.40392 0
M  V30 1464 H 134.356 4.1189 -3.64179 0
M  V30 1465 H 135.581 5.13674 -4.44202 0
M  V30 1466 H 133.527 6.09932 -2.41494 0
M  V30 1467 H 133.444 6.33194 -4.13039 0
M  V30 1468 H 134.712 7.09834 -3.22113 0
M  V30 1469 N 138.941 1.26152 0.944643 0
M  V30 1470 C 140.169 1.14259 1.72489 0
M  V30 1471 C 140.584 -0.302555 1.8636 0
M  V30 1472 O 139.941 -1.20741 1.36849 0
M  V30 1473 C 139.992 1.80266 3.13347 0
M  V30 1474 O 139.713 3.19133 3.00143 0
M  V30 1475 C 141.214 1.74283 4.07603 0
M  V30 1476 H 138.434 0.398051 0.540181 0
M  V30 1477 H 140.978 1.66706 1.18446 0
M  V30 1478 H 139.133 1.31766 3.64303 0
M  V30 1479 H 139.547 3.51744 3.89071 0
M  V30 1480 H 141.021 2.25111 5.04013 0
M  V30 1481 H 141.498 0.708631 4.33446 0
M  V30 1482 H 142.104 2.22319 3.62567 0
M  V30 1483 N 140.419 -1.14872 1.07899 0
M  V30 1484 C 141.349 -2.2193 0.725887 0
M  V30 1485 C 142.33 -1.67622 -0.28927 0
M  V30 1486 O 143.515 -1.93533 -0.160787 0
M  V30 1487 C 140.645 -3.47061 0.128856 0
M  V30 1488 C 139.599 -4.14363 1.07178 0
M  V30 1489 C 138.925 -5.33636 0.337229 0
M  V30 1490 C 140.225 -4.63492 2.40775 0
M  V30 1491 H 141.919 -2.51724 1.62097 0
M  V30 1492 H 139.465 -1.20991 0.780838 0
M  V30 1493 H 141.418 -4.21199 -0.130147 0
M  V30 1494 H 140.142 -3.16617 -0.80134 0
M  V30 1495 H 138.801 -3.42173 1.3158 0
M  V30 1496 H 138.449 -4.99449 -0.596606 0
M  V30 1497 H 138.149 -5.79609 0.965788 0
M  V30 1498 H 139.673 -6.10539 0.0861567 0
M  V30 1499 H 141.087 -5.2913 2.20669 0
M  V30 1500 H 139.484 -5.20148 2.99276 0
M  V30 1501 H 140.554 -3.78834 3.02676 0
M  V30 1502 N 141.898 -0.863906 -1.31812 0
M  V30 1503 C 142.845 -0.313303 -2.28664 0
M  V30 1504 C 143.815 0.584868 -1.55462 0
M  V30 1505 O 145 0.517805 -1.83639 0
M  V30 1506 C 142.14 0.48441 -3.41683 0
M  V30 1507 C 141.253 -0.440594 -4.29747 0
M  V30 1508 C 140.388 0.370652 -5.29905 0
M  V30 1509 C 139.427 -0.551164 -6.09613 0
M  V30 1510 N 138.564 0.223462 -7.01744 0
M  V30 1511 H 143.404 -1.14444 -2.75148 0
M  V30 1512 H 140.941 -0.575769 -1.35364 0
M  V30 1513 H 142.899 0.962627 -4.05943 0
M  V30 1514 H 141.529 1.28029 -2.96325 0
M  V30 1515 H 140.581 -1.03724 -3.65986 0
M  V30 1516 H 141.893 -1.14767 -4.85417 0
M  V30 1517 H 141.047 0.911638 -5.99812 0
M  V30 1518 H 139.786 1.11105 -4.74876 0
M  V30 1519 H 138.791 -1.10396 -5.38603 0
M  V30 1520 H 140.016 -1.29032 -6.66729 0
M  V30 1521 H 137.962 0.946787 -6.49132 0
M  V30 1522 H 137.879 -0.424399 -7.54808 0
M  V30 1523 H 139.147 0.745876 -7.75923 0
M  V30 1524 N 143.376 1.44774 -0.622745 0
M  V30 1525 C 144.606 2.06187 -0.130532 0
M  V30 1526 C 145.014 1.46547 1.19669 0
M  V30 1527 O 144.357 0.579636 1.74316 0
M  V30 1528 C 144.419 3.59437 0.0674983 0
M  V30 1529 C 144.083 4.41496 -1.18026 0
M  V30 1530 C 145.08 4.75512 -2.102 0
M  V30 1531 C 142.765 4.82007 -1.41333 0
M  V30 1532 C 144.759 5.48912 -3.23998 0
M  V30 1533 C 142.446 5.55157 -2.55429 0
M  V30 1534 C 143.444 5.88528 -3.46589 0
M  V30 1535 O 143.132 6.60191 -4.58697 0
M  V30 1536 H 142.864 0.672045 -0.0730162 0
M  V30 1537 H 145.418 1.86768 -0.854802 0
M  V30 1538 H 143.648 3.77314 0.846825 0
M  V30 1539 H 145.337 4.02642 0.513209 0
M  V30 1540 H 146.103 4.4476 -1.93425 0
M  V30 1541 H 141.982 4.55457 -0.712709 0
M  V30 1542 H 145.526 5.74877 -3.95174 0
M  V30 1543 H 141.423 5.85324 -2.72151 0
M  V30 1544 H 142.191 6.78654 -4.57571 0
M  V30 1545 N 144.854 0.36279 1.53368 0
M  V30 1546 C 145.784 -0.476976 2.28576 0
M  V30 1547 C 146.765 -1.08631 1.30894 0
M  V30 1548 O 147.95 -1.10409 1.59761 0
M  V30 1549 C 145.08 -1.61828 3.07293 0
M  V30 1550 C 144.034 -1.13633 4.1264 0
M  V30 1551 C 143.36 -2.36766 4.79423 0
M  V30 1552 C 144.66 -0.223061 5.21823 0
M  V30 1553 H 146.354 0.150474 2.99022 0
M  V30 1554 H 143.9 0.0738103 1.43811 0
M  V30 1555 H 145.853 -2.21237 3.58653 0
M  V30 1556 H 144.577 -2.27292 2.34533 0
M  V30 1557 H 143.236 -0.564945 3.62221 0
M  V30 1558 H 142.884 -3.0068 4.03238 0
M  V30 1559 H 142.584 -2.05192 5.50609 0
M  V30 1560 H 144.108 -2.96865 5.33576 0
M  V30 1561 H 145.522 -0.724545 5.68703 0
M  V30 1562 H 143.919 0.001678 6.001 0
M  V30 1563 H 144.989 0.735553 4.79289 0
M  V30 1564 N 146.332 -1.57332 0.0918853 0
M  V30 1565 C 147.262 -2.16872 -0.865371 0
M  V30 1566 C 148.243 -1.10118 -1.29646 0
M  V30 1567 O 149.428 -1.38242 -1.36392 0
M  V30 1568 C 146.558 -2.74649 -2.12569 0
M  V30 1569 C 145.512 -3.86747 -1.83333 0
M  V30 1570 C 144.838 -4.31212 -3.16166 0
M  V30 1571 C 146.138 -5.10089 -1.1228 0
M  V30 1572 H 147.832 -2.97114 -0.369307 0
M  V30 1573 H 145.378 -1.42918 -0.176194 0
M  V30 1574 H 147.331 -3.14952 -2.7997 0
M  V30 1575 H 146.055 -1.91657 -2.64452 0
M  V30 1576 H 144.714 -3.46978 -1.18331 0
M  V30 1577 H 144.362 -3.45115 -3.6593 0
M  V30 1578 H 144.062 -5.06788 -2.97388 0
M  V30 1579 H 145.586 -4.74146 -3.84731 0
M  V30 1580 H 147 -5.47582 -1.69785 0
M  V30 1581 H 145.397 -5.91073 -1.03693 0
M  V30 1582 H 146.467 -4.84786 -0.105041 0
M  V30 1583 N 147.81 0.181792 -1.56548 0
M  V30 1584 C 148.74 1.22765 -1.98623 0
M  V30 1585 C 149.721 1.46747 -0.860189 0
M  V30 1586 O 150.906 1.58259 -1.12551 0
M  V30 1587 C 148.036 2.56894 -2.33715 0
M  V30 1588 C 146.99 2.475 -3.49182 0
M  V30 1589 C 146.316 3.86023 -3.69986 0
M  V30 1590 C 147.616 1.98866 -4.82959 0
M  V30 1591 H 149.31 0.877942 -2.86239 0
M  V30 1592 H 146.856 0.42088 -1.37712 0
M  V30 1593 H 148.809 3.30253 -2.61746 0
M  V30 1594 H 147.533 2.93632 -1.42997 0
M  V30 1595 H 146.192 1.76596 -3.21262 0
M  V30 1596 H 145.84 4.20136 -2.76576 0
M  V30 1597 H 145.54 3.80609 -4.47672 0
M  V30 1598 H 147.064 4.60984 -4.00407 0
M  V30 1599 H 148.478 2.61992 -5.09934 0
M  V30 1600 H 146.875 2.04424 -5.64208 0
M  V30 1601 H 147.945 0.942465 -4.75653 0
M  V30 1602 N 149.288 1.51039 0.449983 0
M  V30 1603 C 150.536 1.62759 1.19808 0
M  V30 1604 C 150.857 0.339981 1.92013 0
M  V30 1605 O 150.127 -0.643606 1.85026 0
M  V30 1606 H 148.707 0.599811 0.445237 0
M  V30 1607 H 151.369 1.87914 0.517138 0
M  V30 1608 H 150.465 2.44911 1.93455 0
M  V30 1609 N 150.766 -0.704594 1.40972 0
M  V30 1610 C 152.182 -1.01406 1.23244 0
M  V30 1611 C 152.382 -2.01169 0.115399 0
M  V30 1612 O 151.438 -2.47021 -0.523147 0
M  V30 1613 C 152.751 -1.54728 2.57836 0
M  V30 1614 C 154.299 -1.66658 2.64942 0
M  V30 1615 C 154.774 -2.23383 3.9983 0
M  V30 1616 N 156.265 -2.30756 4.01629 0
M  V30 1617 C 157 -2.75655 5.02794 0
M  V30 1618 N 156.496 -3.20225 6.14352 0
M  V30 1619 N 158.289 -2.75138 4.90159 0
M  V30 1620 H 150.44 -0.0435285 2.12355 0
M  V30 1621 H 152.703 -0.0818951 0.944456 0
M  V30 1622 H 152.409 -0.888832 3.40283 0
M  V30 1623 H 152.283 -2.53084 2.79693 0
M  V30 1624 H 154.67 -2.31617 1.8286 0
M  V30 1625 H 154.751 -0.668717 2.46904 0
M  V30 1626 H 154.395 -1.59043 4.82357 0
M  V30 1627 H 154.325 -3.23904 4.15203 0
M  V30 1628 H 156.816 -1.99291 3.21079 0
M  V30 1629 H 157.129 -3.53084 6.87424 0
M  V30 1630 H 155.474 -3.18156 6.17901 0
M  V30 1631 H 158.665 -2.39661 4.02095 0
M  V30 1632 H 158.838 -3.09812 5.6914 0
M  V30 1633 N 152.244 -1.26651 -0.937939 0
M  V30 1634 C 153.49 -1.13562 -1.68746 0
M  V30 1635 C 153.845 0.317241 -1.89767 0
M  V30 1636 O 153.138 1.22939 -1.46957 0
M  V30 1637 C 153.332 -1.84168 -3.06295 0
M  V30 1638 C 153.161 -3.36171 -2.98696 0
M  V30 1639 C 151.931 -4.05468 -3.01535 0
M  V30 1640 C 154.129 -4.32312 -2.78588 0
M  V30 1641 N 152.111 -5.44118 -2.84269 0
M  V30 1642 C 153.482 -5.58159 -2.69924 0
M  V30 1643 C 155.537 -4.22524 -2.63396 0
M  V30 1644 C 154.24 -6.75335 -2.47618 0
M  V30 1645 C 156.266 -5.39411 -2.42466 0
M  V30 1646 C 155.628 -6.64208 -2.34536 0
M  V30 1647 H 151.727 -0.470361 -0.624728 0
M  V30 1648 H 154.311 -1.59982 -1.10968 0
M  V30 1649 H 152.482 -1.40219 -3.62206 0
M  V30 1650 H 154.214 -1.63674 -3.70126 0
M  V30 1651 H 150.969 -3.56854 -3.11372 0
M  V30 1652 H 151.393 -6.1693 -2.78795 0
M  V30 1653 H 156.035 -3.26771 -2.68292 0
M  V30 1654 H 153.753 -7.71182 -2.41463 0
M  V30 1655 H 157.339 -5.33711 -2.31611 0
M  V30 1656 H 156.219 -7.53129 -2.18555 0
M  V30 1657 N 153.722 1.14298 -1.08507 0
M  V30 1658 C 155.138 1.37347 -0.812901 0
M  V30 1659 C 155.338 1.93052 0.577325 0
M  V30 1660 O 154.394 2.14389 1.33393 0
M  V30 1661 C 155.707 2.33359 -1.89642 0
M  V30 1662 C 157.255 2.46996 -1.92255 0
M  V30 1663 C 157.73 3.46309 -2.99724 0
M  V30 1664 N 159.221 3.53853 -2.98902 0
M  V30 1665 C 159.956 4.3055 -3.787 0
M  V30 1666 N 159.452 5.10482 -4.6838 0
M  V30 1667 N 161.245 4.25757 -3.66998 0
M  V30 1668 H 153.396 0.764867 -1.9815 0
M  V30 1669 H 155.659 0.398966 -0.859959 0
M  V30 1670 H 155.365 1.99565 -2.89597 0
M  V30 1671 H 155.239 3.33274 -1.76659 0
M  V30 1672 H 157.626 2.80081 -0.929445 0
M  V30 1673 H 157.707 1.47039 -2.09316 0
M  V30 1674 H 157.351 3.13957 -3.99241 0
M  V30 1675 H 157.281 4.46049 -2.79907 0
M  V30 1676 H 159.772 2.96812 -2.33904 0
M  V30 1677 H 160.085 5.66284 -5.25873 0
M  V30 1678 H 158.43 5.09747 -4.72422 0
M  V30 1679 H 161.621 3.62383 -2.96304 0
M  V30 1680 H 161.794 4.85279 -4.29427 0
M  V30 1681 N 155.201 0.870884 1.31352 0
M  V30 1682 C 156.148 0.325425 2.28494 0
M  V30 1683 C 157.118 -0.576615 1.5577 0
M  V30 1684 O 158.303 -0.508059 1.83911 0
M  V30 1685 C 155.443 -0.466283 3.41935 0
M  V30 1686 C 154.556 0.463378 4.29508 0
M  V30 1687 C 153.691 -0.342544 5.30094 0
M  V30 1688 C 152.73 0.583486 6.09313 0
M  V30 1689 N 151.867 -0.186244 7.01853 0
M  V30 1690 H 156.707 1.15901 2.74538 0
M  V30 1691 H 154.244 0.58294 1.35056 0
M  V30 1692 H 156.202 -0.941085 4.06447 0
M  V30 1693 H 154.832 -1.26456 2.97 0
M  V30 1694 H 153.884 1.05663 3.65431 0
M  V30 1695 H 155.196 1.1734 4.84802 0
M  V30 1696 H 154.35 -0.879816 6.00287 0
M  V30 1697 H 153.089 -1.08585 4.75458 0
M  V30 1698 H 152.094 1.13251 5.3801 0
M  V30 1699 H 153.319 1.32566 6.66035 0
M  V30 1700 H 151.265 -0.912348 6.49625 0
M  V30 1701 H 151.182 0.464422 7.54572 0
M  V30 1702 H 152.45 -0.704716 7.76308 0
M  V30 1703 N 156.679 -1.44442 0.630414 0
M  V30 1704 C 157.626 -2.30678 -0.0749355 0
M  V30 1705 C 158.596 -1.4344 -0.837502 0
M  V30 1706 O 159.781 -1.72343 -0.818684 0
M  V30 1707 C 156.921 -3.28706 -1.05103 0
M  V30 1708 C 156.034 -4.31046 -0.286954 0
M  V30 1709 C 155.169 -5.16167 -1.2548 0
M  V30 1710 C 154.208 -6.10216 -0.479843 0
M  V30 1711 N 153.345 -6.88039 -1.39811 0
M  V30 1712 H 158.185 -2.90454 0.666386 0
M  V30 1713 H 155.722 -1.43107 0.340404 0
M  V30 1714 H 157.68 -3.84027 -1.63031 0
M  V30 1715 H 156.31 -2.70632 -1.75949 0
M  V30 1716 H 155.362 -3.78203 0.408243 0
M  V30 1717 H 156.674 -4.97794 0.316657 0
M  V30 1718 H 155.828 -5.76002 -1.90544 0
M  V30 1719 H 154.567 -4.49491 -1.89233 0
M  V30 1720 H 153.572 -5.49491 0.184295 0
M  V30 1721 H 154.797 -6.78928 0.152965 0
M  V30 1722 H 152.743 -6.24032 -2.02287 0
M  V30 1723 H 152.66 -7.51223 -0.848508 0
M  V30 1724 H 153.928 -7.52397 -2.03762 0
M  V30 1725 N 158.157 -0.370918 -1.53173 0
M  V30 1726 C 159.107 0.489588 -2.22681 0
M  V30 1727 C 160.091 1.04442 -1.22395 0
M  V30 1728 O 161.283 0.973578 -1.47819 0
M  V30 1729 C 158.412 1.626 -3.02351 0
M  V30 1730 C 157.498 1.08379 -4.10018 0
M  V30 1731 N 157.889 0.265004 -5.05105 0
M  V30 1732 C 156.187 1.35809 -4.2482 0
M  V30 1733 C 156.888 -0.0324755 -5.81691 0
M  V30 1734 N 155.864 0.566581 -5.40639 0
M  V30 1735 H 159.666 -0.142729 -2.93553 0
M  V30 1736 H 157.18 -0.179221 -1.61408 0
M  V30 1737 H 159.177 2.2547 -3.50669 0
M  V30 1738 H 157.837 2.26132 -2.33011 0
M  V30 1739 H 158.848 -0.0962352 -5.17811 0
M  V30 1740 H 155.525 1.9958 -3.66707 0
M  V30 1741 H 156.915 -0.69473 -6.68299 0
M  V30 1742 N 159.635 1.57281 -0.100228 0
M  V30 1743 C 160.565 2.17328 0.853857 0
M  V30 1744 C 161.546 1.10804 1.2906 0
M  V30 1745 O 162.731 1.38963 1.35657 0
M  V30 1746 C 159.861 2.75772 2.11109 0
M  V30 1747 C 158.815 3.87713 1.81279 0
M  V30 1748 C 158.141 4.32882 3.13874 0
M  V30 1749 C 159.441 5.10677 1.09574 0
M  V30 1750 H 161.135 2.97305 0.353545 0
M  V30 1751 H 158.681 1.43009 0.168612 0
M  V30 1752 H 160.634 3.16433 2.78296 0
M  V30 1753 H 159.358 1.93057 2.63432 0
M  V30 1754 H 158.017 3.476 1.16489 0
M  V30 1755 H 157.665 3.47051 3.64095 0
M  V30 1756 H 157.365 5.08358 2.94696 0
M  V30 1757 H 158.889 4.7618 3.82211 0
M  V30 1758 H 160.303 5.48474 1.66879 0
M  V30 1759 H 158.7 5.91615 1.00557 0
M  V30 1760 H 159.77 4.84835 0.0793299 0
M  V30 1761 N 161.113 -0.173488 1.56642 0
M  V30 1762 C 162.341 -0.906095 1.86004 0
M  V30 1763 C 162.756 -1.75921 0.685355 0
M  V30 1764 O 162.113 -1.79198 -0.345578 0
M  V30 1765 C 162.164 -1.78462 3.14378 0
M  V30 1766 O 161.885 -0.965914 4.27319 0
M  V30 1767 C 163.386 -2.62707 3.57071 0
M  V30 1768 H 160.606 -0.263341 0.617165 0
M  V30 1769 H 163.15 -0.174236 2.03756 0
M  V30 1770 H 161.305 -2.46984 2.98459 0
M  V30 1771 H 161.719 -1.56655 5.00559 0
M  V30 1772 H 163.193 -3.19969 4.49804 0
M  V30 1773 H 163.67 -3.37472 2.81086 0
M  V30 1774 H 164.276 -1.99521 3.75595 0
M  V30 1775 N 162.591 -1.51276 -0.441967 0
M  V30 1776 C 163.838 -1.63715 -1.19179 0
M  V30 1777 C 164.166 -0.351175 -1.91303 0
M  V30 1778 O 163.421 0.664524 -1.84072 0
M  V30 1779 C 163.72 -2.78746 -2.23686 0
M  V30 1780 C 163.386 -4.18189 -1.68607 0
M  V30 1781 C 162.048 -4.56125 -1.53308 0
M  V30 1782 C 164.4 -5.05222 -1.28062 0
M  V30 1783 C 161.728 -5.78804 -0.959317 0
M  V30 1784 C 164.08 -6.28476 -0.721162 0
M  V30 1785 C 162.744 -6.65188 -0.55504 0
M  V30 1786 H 162.014 -0.599076 -0.436106 0
M  V30 1787 H 164.661 -1.85296 -0.48351 0
M  V30 1788 H 162.966 -2.51369 -3.00535 0
M  V30 1789 H 164.663 -2.8557 -2.81515 0
M  V30 1790 H 161.253 -3.88277 -1.8149 0
M  V30 1791 H 165.437 -4.76524 -1.38704 0
M  V30 1792 H 160.693 -6.05899 -0.81833 0
M  V30 1793 H 164.867 -6.95259 -0.398458 0
M  V30 1794 H 162.494 -7.60123 -0.108311 0
M  V30 1795 N 164.069 0.697108 -1.41344 0
M  V30 1796 C 165.485 1.00751 -1.2378 0
M  V30 1797 C 165.685 2.01105 -0.126066 0
M  V30 1798 O 164.741 2.47295 0.51004 0
M  V30 1799 C 166.054 1.53359 -2.58653 0
M  V30 1800 C 167.602 1.6525 -2.65822 0
M  V30 1801 C 168.077 2.2126 -4.01009 0
M  V30 1802 N 169.568 2.28622 -4.02847 0
M  V30 1803 C 170.303 2.72984 -5.04249 0
M  V30 1804 N 169.799 3.16962 -6.16041 0
M  V30 1805 N 171.592 2.72534 -4.91611 0
M  V30 1806 H 163.743 0.0322662 -2.12375 0
M  V30 1807 H 166.006 0.0768853 -0.944877 0
M  V30 1808 H 165.712 0.870773 -3.4075 0
M  V30 1809 H 165.586 2.51597 -2.81032 0
M  V30 1810 H 167.973 2.30644 -1.84086 0
M  V30 1811 H 168.054 0.655614 -2.47256 0
M  V30 1812 H 167.698 1.56482 -4.83193 0
M  V30 1813 H 167.628 3.21698 -4.16915 0
M  V30 1814 H 170.119 1.97585 -3.22131 0
M  V30 1815 H 170.432 3.49434 -6.89287 0
M  V30 1816 H 168.777 3.14875 -6.1958 0
M  V30 1817 H 171.968 2.37525 -4.0336 0
M  V30 1818 H 172.141 3.06789 -5.70775 0
M  V30 1819 N 165.547 1.27147 0.931209 0
M  V30 1820 C 166.796 1.12664 1.67302 0
M  V30 1821 C 167.109 -0.327718 1.92835 0
M  V30 1822 O 168.315 -0.593392 2.64936 0
M  V30 1823 C 166.771 1.9683 3.01307 0
M  V30 1824 C 166.379 3.46901 2.83485 0
M  V30 1825 C 168.123 1.90985 3.79111 0
M  V30 1826 C 166.03 4.23279 4.13024 0
M  V30 1827 H 164.96 0.41803 0.627509 0
M  V30 1828 H 167.611 1.51539 1.03481 0
M  V30 1829 H 165.993 1.50797 3.66164 0
M  V30 1830 H 167.167 4.00773 2.27415 0
M  V30 1831 H 165.482 3.54088 2.19113 0
M  V30 1832 H 168.079 2.45328 4.75098 0
M  V30 1833 H 168.422 0.882718 4.06834 0
M  V30 1834 H 168.955 2.34895 3.21044 0
M  V30 1835 H 165.694 5.26503 3.90481 0
M  V30 1836 H 165.214 3.74186 4.6877 0
M  V30 1837 H 166.893 4.32265 4.81411 0
M  V30 1838 N 167.025 -1.13721 1.09112 0
M  V30 1839 C 167.955 -2.21148 0.749385 0
M  V30 1840 C 168.936 -1.6792 -0.271475 0
M  V30 1841 O 170.121 -1.93693 -0.140251 0
M  V30 1842 C 167.251 -3.46905 0.165659 0
M  V30 1843 C 166.205 -4.13203 1.11567 0
M  V30 1844 C 165.531 -5.33248 0.393809 0
M  V30 1845 C 166.831 -4.60912 2.45678 0
M  V30 1846 H 168.525 -2.4999 1.64758 0
M  V30 1847 H 166.071 -1.20156 0.793626 0
M  V30 1848 H 168.024 -4.21313 -0.085466 0
M  V30 1849 H 166.748 -3.17449 -0.767714 0
M  V30 1850 H 165.407 -3.40758 1.35202 0
M  V30 1851 H 165.055 -5.00054 -0.543599 0
M  V30 1852 H 164.755 -5.78552 1.02721 0
M  V30 1853 H 166.279 -6.10413 0.150908 0
M  V30 1854 H 167.693 -5.26759 2.26269 0
M  V30 1855 H 166.09 -5.16944 3.04776 0
M  V30 1856 H 167.16 -3.75603 3.06677 0
M  V30 1857 N 168.503 -0.877838 -1.30888 0
M  V30 1858 C 169.451 -0.328662 -2.30266 0
M  V30 1859 C 170.445 0.560496 -1.59859 0
M  V30 1860 O 171.651 0.445722 -1.74394 0
M  V30 1861 H 168.026 -0.0876142 -0.746879 0
M  V30 1862 H 169.997 -1.18061 -2.74051 0
M  V30 1863 C 168.746 0.448071 -3.44801 0
M  V30 1864 H 168.069 -0.226859 -3.99156 0
M  V30 1865 H 169.509 0.797541 -4.16432 0
M  V30 1866 C 167.968 1.64239 -2.94155 0
M  V30 1867 O 168.498 2.74175 -2.93583 0
M  V30 1868 N 166.704 1.47716 -2.50256 0
M  V30 1869 H 166.251 0.582821 -2.5092 0
M  V30 1870 H 166.209 2.27765 -2.16727 0
M  V30 1871 N 169.982 1.44106 -0.638065 0
M  V30 1872 C 170.912 2.33448 0.0494287 0
M  V30 1873 C 171.893 1.48606 0.827672 0
M  V30 1874 O 173.078 1.77308 0.792173 0
M  V30 1875 C 170.208 3.31771 1.02691 0
M  V30 1876 C 169.162 4.26485 0.359823 0
M  V30 1877 C 168.488 5.14729 1.44769 0
M  V30 1878 C 169.788 5.17056 -0.738296 0
M  V30 1879 H 171.482 2.91183 -0.696636 0
M  V30 1880 H 169.028 1.40014 -0.336456 0
M  V30 1881 H 170.981 3.93161 1.51666 0
M  V30 1882 H 169.705 2.7226 1.80395 0
M  V30 1883 H 168.364 3.66437 -0.10934 0
M  V30 1884 H 168.012 4.51566 2.21578 0
M  V30 1885 H 167.712 5.78913 1.00668 0
M  V30 1886 H 169.236 5.78991 1.93911 0
M  V30 1887 H 170.65 5.72342 -0.331354 0
M  V30 1888 H 169.047 5.89879 -1.10286 0
M  V30 1889 H 170.117 4.57652 -1.60258 0
M  V30 1890 N 171.46 0.379036 1.52974 0
M  V30 1891 C 172.871 -0.0972525 1.86447 0
M  V30 1892 C 173.222 -1.47027 1.29914 0
M  V30 1893 O 172.347 -2.07135 0.626433 0
M  V30 1894 C 172.942 -0.183248 3.38304 0
M  V30 1895 C 171.501 -0.603812 3.71525 0
M  V30 1896 C 170.648 0.240632 2.76254 0
M  V30 1897 H 173.599 0.597316 1.4703 0
M  V30 1898 H 173.62 -1.00432 3.67006 0
M  V30 1899 H 173.132 0.816191 3.79421 0
M  V30 1900 H 171.233 -1.61099 3.35973 0
M  V30 1901 H 171.346 -0.369086 4.77676 0
M  V30 1902 H 169.71 -0.292548 2.53014 0
M  V30 1903 H 170.493 1.23786 3.20206 0
M  V30 1904 N 172.938 -1.57226 0.108567 0
M  V30 1905 C 174.163 -1.99604 -0.563303 0
M  V30 1906 C 174.588 -0.987563 -1.6009 0
M  V30 1907 O 173.946 0.0421687 -1.81251 0
M  V30 1908 C 173.994 -3.40902 -1.17552 0
M  V30 1909 O 173.098 -3.42896 -2.2912 0
M  V30 1910 H 172.439 -0.648704 -0.1417 0
M  V30 1911 H 174.969 -2.03679 0.193961 0
M  V30 1912 H 174.979 -3.78886 -1.51357 0
M  V30 1913 H 173.654 -4.1382 -0.415445 0
M  V30 1914 H 172.231 -3.1672 -1.96832 0
M  V30 1915 N 174.416 0.165178 -1.56732 0
M  V30 1916 C 175.644 0.896218 -1.86482 0
M  V30 1917 C 176.059 1.75555 -0.694675 0
M  V30 1918 O 175.416 1.79379 0.33607 0
M  V30 1919 C 175.467 1.76792 -3.1532 0
M  V30 1920 O 175.188 0.943239 -4.27825 0
M  V30 1921 C 176.689 2.6081 -3.58459 0
M  V30 1922 H 173.909 0.260064 -0.618553 0
M  V30 1923 H 176.453 0.163428 -2.03846 0
M  V30 1924 H 174.608 2.45398 -2.99764 0
M  V30 1925 H 175.022 1.53998 -5.01383 0
M  V30 1926 H 176.496 3.17579 -4.51495 0
M  V30 1927 H 176.973 3.35977 -2.82872 0
M  V30 1928 H 177.579 1.97526 -3.76648 0
M  V30 1929 N 175.894 1.51508 0.433938 0
M  V30 1930 C 176.824 1.76016 1.53429 0
M  V30 1931 C 177.805 0.610112 1.58782 0
M  V30 1932 O 178.99 0.853177 1.74455 0
M  V30 1933 C 176.12 1.88831 2.9148 0
M  V30 1934 C 175.074 3.04288 3.00987 0
M  V30 1935 C 174.4 3.0229 4.4105 0
M  V30 1936 C 175.7 4.44193 2.74754 0
M  V30 1937 H 177.394 2.68152 1.33171 0
M  V30 1938 H 174.94 1.29035 0.639214 0
M  V30 1939 H 176.893 2.04559 3.6842 0
M  V30 1940 H 175.617 0.933455 3.12976 0
M  V30 1941 H 174.276 2.8827 2.26486 0
M  V30 1942 H 173.924 2.04576 4.59519 0
M  V30 1943 H 173.624 3.79822 4.4834 0
M  V30 1944 H 175.148 3.20116 5.1996 0
M  V30 1945 H 176.562 4.60544 3.41426 0
M  V30 1946 H 174.959 5.23457 2.9345 0
M  V30 1947 H 176.029 4.53996 1.70339 0
M  V30 1948 N 177.372 -0.689602 1.41712 0
M  V30 1949 C 178.783 -1.26973 1.36875 0
M  V30 1950 C 179.134 -1.96124 0.054748 0
M  V30 1951 O 178.259 -1.99141 -0.84687 0
M  V30 1952 C 178.854 -2.30912 2.47922 0
M  V30 1953 C 177.413 -2.84486 2.46464 0
M  V30 1954 C 176.56 -1.58603 2.27465 0
M  V30 1955 H 179.511 -0.48396 1.51141 0
M  V30 1956 H 179.532 -3.12331 2.17323 0
M  V30 1957 H 179.044 -1.80554 3.43543 0
M  V30 1958 H 177.145 -3.39005 1.54617 0
M  V30 1959 H 177.258 -3.34511 3.42986 0
M  V30 1960 H 175.622 -1.84632 1.75451 0
M  V30 1961 H 176.405 -1.10233 3.25121 0
M  V30 1962 N 178.85 -1.27639 -0.924453 0
M  V30 1963 C 180.261 -1.12834 -1.48746 0
M  V30 1964 C 180.612 0.285505 -1.94112 0
M  V30 1965 O 179.737 1.17874 -1.81479 0
M  V30 1966 C 180.332 -2.04217 -2.70334 0
M  V30 1967 C 178.891 -1.93509 -3.22848 0
M  V30 1968 C 178.038 -1.96583 -1.95577 0
M  V30 1969 H 180.989 -1.40484 -0.738233 0
M  V30 1970 H 181.01 -1.59989 -3.4523 0
M  V30 1971 H 180.522 -3.07111 -2.37285 0
M  V30 1972 H 178.623 -0.936131 -3.60649 0
M  V30 1973 H 178.736 -2.79917 -3.88823 0
M  V30 1974 H 177.1 -1.4085 -2.12211 0
M  V30 1975 H 177.883 -3.01137 -1.64837 0
M  V30 1976 N 180.328 1.1314 -1.09713 0
M  V30 1977 C 181.278 2.16709 -0.708593 0
M  V30 1978 C 182.262 1.58471 0.278523 0
M  V30 1979 O 183.454 1.76779 0.088427 0
M  V30 1980 C 180.583 3.43039 -0.133923 0
M  V30 1981 C 179.669 4.08277 -1.14763 0
M  V30 1982 N 180.06 4.48637 -2.33577 0
M  V30 1983 C 178.358 4.34954 -0.986446 0
M  V30 1984 C 179.059 4.9952 -2.98085 0
M  V30 1985 N 178.035 4.94561 -2.25632 0
M  V30 1986 H 181.837 2.45672 -1.61315 0
M  V30 1987 H 179.351 1.29967 -0.973775 0
M  V30 1988 H 181.348 4.16583 0.162465 0
M  V30 1989 H 180.008 3.15549 0.765447 0
M  V30 1990 H 181.019 4.41246 -2.7115 0
M  V30 1991 H 177.696 4.17258 -0.142008 0
M  V30 1992 H 179.086 5.40521 -3.99108 0
M  V30 1993 N 181.806 0.884767 1.30421 0
M  V30 1994 C 183.034 0.518044 2.0031 0
M  V30 1995 C 183.449 -0.893408 1.66324 0
M  V30 1996 O 182.806 -1.5875 0.900262 0
M  V30 1997 C 182.857 0.682997 3.54989 0
M  V30 1998 O 182.578 2.03888 3.87764 0
M  V30 1999 C 184.079 0.31924 4.42149 0
M  V30 2000 H 181.299 0.200265 0.640418 0
M  V30 2001 H 183.843 1.19001 1.6631 0
M  V30 2002 H 181.998 0.0584052 3.87356 0
M  V30 2003 H 182.412 2.05735 4.82466 0
M  V30 2004 H 183.886 0.485555 5.4986 0
M  V30 2005 H 184.363 -0.742717 4.32875 0
M  V30 2006 H 184.969 0.920147 4.15227 0
M  V30 2007 N 183.284 -1.43765 0.645699 0
M  V30 2008 C 184.247 -2.29163 -0.0409488 0
M  V30 2009 C 185.247 -1.41813 -0.757996 0
M  V30 2010 O 186.437 -1.63527 -0.600382 0
M  V30 2011 C 183.569 -3.23716 -1.06869 0
M  V30 2012 H 184.762 -2.91366 0.710345 0
M  V30 2013 H 182.315 -1.5092 0.406547 0
M  V30 2014 H 183.05 -2.66393 -1.84947 0
M  V30 2015 H 182.835 -3.88105 -0.558277 0
M  V30 2016 H 184.325 -3.87831 -1.54845 0
M  V30 2017 N 184.763 -0.387143 -1.52771 0
M  V30 2018 C 186.179 -0.037007 -1.59557 0
M  V30 2019 C 186.379 1.44801 -1.40124 0
M  V30 2020 O 185.435 2.21227 -1.21716 0
M  V30 2021 C 186.748 -0.512256 -2.96305 0
M  V30 2022 C 188.296 -0.468328 -3.09476 0
M  V30 2023 C 188.771 -0.919731 -4.4867 0
M  V30 2024 N 190.262 -0.875656 -4.54848 0
M  V30 2025 C 190.997 -1.19637 -5.6078 0
M  V30 2026 N 190.493 -1.58745 -6.74368 0
M  V30 2027 N 192.286 -1.11776 -5.50874 0
M  V30 2028 H 184.437 -1.35395 -1.63652 0
M  V30 2029 H 186.7 -0.554818 -0.768688 0
M  V30 2030 H 186.406 -1.54935 -3.15734 0
M  V30 2031 H 186.28 0.089805 -3.77093 0
M  V30 2032 H 188.667 0.559671 -2.89744 0
M  V30 2033 H 188.748 -1.10616 -2.30646 0
M  V30 2034 H 188.392 -1.94595 -4.69143 0
M  V30 2035 H 188.322 -0.258927 -5.25963 0
M  V30 2036 H 190.813 -0.587843 -3.733 0
M  V30 2037 H 191.126 -1.81586 -7.51163 0
M  V30 2038 H 189.471 -1.6263 -6.75705 0
M  V30 2039 H 192.662 -0.811264 -4.61016 0
M  V30 2040 H 192.835 -1.37103 -6.3333 0
M  V30 2041 N 186.241 1.57166 -0.116904 0
M  V30 2042 C 187.204 2.14039 0.819742 0
M  V30 2043 C 188.204 1.07477 1.19605 0
M  V30 2044 O 189.394 1.33263 1.1219 0
M  V30 2045 C 186.526 2.67891 2.10826 0
M  V30 2046 H 187.719 2.98128 0.325511 0
M  V30 2047 H 185.272 1.55739 0.132312 0
M  V30 2048 H 186.007 1.87384 2.64685 0
M  V30 2049 H 185.792 3.45823 1.84793 0
M  V30 2050 H 187.282 3.11809 2.77785 0
M  V30 2051 N 187.719 -0.156864 1.56817 0
M  V30 2052 C 188.682 -1.17781 1.96622 0
M  V30 2053 C 189.682 -1.36401 0.851555 0
M  V30 2054 O 190.872 -1.33561 1.11836 0
M  V30 2055 C 188.004 -2.54008 2.27361 0
M  V30 2056 H 189.197 -0.836564 2.87996 0
M  V30 2057 H 186.75 -0.39985 1.51099 0
M  V30 2058 H 187.485 -2.9312 1.38748 0
M  V30 2059 H 187.27 -2.41856 3.08623 0
M  V30 2060 H 188.76 -3.27558 2.59029 0
M  V30 2061 N 189.197 -1.51736 -0.425897 0
M  V30 2062 C 190.127 -1.76827 -1.52494 0
M  V30 2063 C 191.108 -0.618524 -1.58456 0
M  V30 2064 O 192.293 -0.862416 -1.74 0
M  V30 2065 C 189.423 -1.90374 -2.90474 0
M  V30 2066 C 188.377 -3.0588 -2.99369 0
M  V30 2067 C 187.703 -3.04625 -4.3944 0
M  V30 2068 C 189.003 -4.45644 -2.72394 0
M  V30 2069 H 190.697 -2.68855 -1.31748 0
M  V30 2070 H 188.243 -1.29372 -0.632362 0
M  V30 2071 H 190.196 -2.0651 -3.6733 0
M  V30 2072 H 188.92 -0.95004 -3.12477 0
M  V30 2073 H 187.579 -2.89467 -2.24954 0
M  V30 2074 H 187.227 -2.0701 -4.58428 0
M  V30 2075 H 186.927 -3.82195 -4.46319 0
M  V30 2076 H 188.451 -3.22869 -5.18255 0
M  V30 2077 H 189.865 -4.62348 -3.38979 0
M  V30 2078 H 188.262 -5.25006 -2.9067 0
M  V30 2079 H 189.332 -4.54893 -1.67929 0
M  V30 2080 N 190.675 0.682077 -1.42076 0
M  V30 2081 C 192.091 0.994324 -1.24841 0
M  V30 2082 C 192.291 2.0096 -0.147389 0
M  V30 2083 O 191.347 2.47822 0.483782 0
M  V30 2084 C 192.66 1.50607 -2.60265 0
M  V30 2085 C 194.208 1.62421 -2.6756 0
M  V30 2086 C 194.683 2.16994 -4.03333 0
M  V30 2087 N 196.174 2.24337 -4.0525 0
M  V30 2088 C 196.909 2.67621 -5.07116 0
M  V30 2089 N 196.405 3.1041 -6.19368 0
M  V30 2090 N 198.198 2.67305 -4.94474 0
M  V30 2091 H 190.349 0.00973908 -2.12398 0
M  V30 2092 H 192.612 0.0668593 -0.945639 0
M  V30 2093 H 192.318 0.834583 -3.41654 0
M  V30 2094 H 192.192 2.48602 -2.83684 0
M  V30 2095 H 194.579 2.28678 -1.86521 0
M  V30 2096 H 194.66 0.629352 -2.47937 0
M  V30 2097 H 194.304 1.51349 -4.84826 0
M  V30 2098 H 194.234 3.17258 -4.20304 0
M  V30 2099 H 196.725 1.94158 -3.24209 0
M  V30 2100 H 197.038 3.42103 -6.92954 0
M  V30 2101 H 195.383 3.08286 -6.22884 0
M  V30 2102 H 198.574 2.33233 -4.05857 0
M  V30 2103 H 198.747 3.00718 -5.73997 0
M  V30 2104 N 192.153 1.28127 0.917671 0
M  V30 2105 C 193.085 1.07517 2.02417 0
M  V30 2106 C 194.098 0.0281099 1.62776 0
M  V30 2107 O 195.287 0.270748 1.76435 0
M  V30 2108 C 192.387 0.610957 3.33347 0
M  V30 2109 C 191.56 1.73255 4.01624 0
M  V30 2110 C 190.619 1.26238 5.10833 0
M  V30 2111 O 189.645 1.96389 5.34247 0
M  V30 2112 N 190.847 0.123448 5.80369 0
M  V30 2113 H 193.612 2.02806 2.20658 0
M  V30 2114 H 191.173 1.19827 1.08871 0
M  V30 2115 H 193.165 0.280101 4.0373 0
M  V30 2116 H 191.735 -0.24898 3.11607 0
M  V30 2117 H 190.955 2.23319 3.24842 0
M  V30 2118 H 192.243 2.48503 4.43986 0
M  V30 2119 H 191.641 -0.461847 5.63812 0
M  V30 2120 H 190.198 -0.148158 6.51632 0
M  V30 2121 N 193.631 -1.12557 1.10312 0
M  V30 2122 C 194.594 -2.16434 0.75424 0
M  V30 2123 C 195.594 -1.59278 -0.220685 0
M  V30 2124 O 196.784 -1.742 0.00230591 0
M  V30 2125 C 193.916 -3.40699 0.116987 0
M  V30 2126 H 195.109 -2.48811 1.67431 0
M  V30 2127 H 192.662 -1.27542 0.903475 0
M  V30 2128 H 193.397 -3.13921 -0.813877 0
M  V30 2129 H 193.182 -3.83459 0.818613 0
M  V30 2130 H 194.672 -4.17451 -0.111387 0
M  V30 2131 N 195.109 -0.891671 -1.2995 0
M  V30 2132 C 196.356 -0.513501 -1.95881 0
M  V30 2133 C 196.684 0.938655 -1.70351 0
M  V30 2134 O 195.939 1.67936 -1.00478 0
M  V30 2135 C 196.238 -0.742868 -3.49594 0
M  V30 2136 C 195.904 -2.17114 -3.95186 0
M  V30 2137 C 194.566 -2.56169 -4.07346 0
M  V30 2138 C 196.918 -3.10162 -4.18866 0
M  V30 2139 C 194.246 -3.87469 -4.4055 0
M  V30 2140 C 196.598 -4.41001 -4.53542 0
M  V30 2141 C 195.262 -4.79941 -4.63911 0
M  V30 2142 H 194.532 -0.187903 -0.71678 0
M  V30 2143 H 197.179 -1.1288 -1.54694 0
M  V30 2144 H 195.484 -0.044586 -3.91775 0
M  V30 2145 H 197.181 -0.429767 -3.9869 0
M  V30 2146 H 193.771 -1.85801 -3.86233 0
M  V30 2147 H 197.955 -2.81206 -4.08946 0
M  V30 2148 H 193.211 -4.17371 -4.46779 0
M  V30 2149 H 197.385 -5.13133 -4.70815 0
M  V30 2150 H 195.012 -5.81719 -4.89395 0
M  V30 2151 N 196.587 1.43421 -0.653314 0
M  V30 2152 C 197.519 2.29071 0.0769134 0
M  V30 2153 C 198.532 1.42513 0.787017 0
M  V30 2154 O 199.721 1.66449 0.644757 0
M  V30 2155 C 196.821 3.19436 1.13199 0
M  V30 2156 C 195.994 4.34533 0.500006 0
M  V30 2157 C 195.053 5.05771 1.45198 0
M  V30 2158 O 194.079 5.61037 0.960538 0
M  V30 2159 N 195.281 5.0928 2.78594 0
M  V30 2160 H 198.046 2.92382 -0.658235 0
M  V30 2161 H 195.607 1.54112 -0.496104 0
M  V30 2162 H 197.599 3.63958 1.76964 0
M  V30 2163 H 196.169 2.57724 1.7691 0
M  V30 2164 H 195.389 3.92925 -0.316738 0
M  V30 2165 H 196.677 5.08766 0.0588345 0
M  V30 2166 H 196.075 4.65751 3.2108 0
M  V30 2167 H 194.632 5.57519 3.37662 0
M  V30 2168 N 198.065 0.39524 1.52563 0
M  V30 2169 C 199.342 -0.242908 1.94086 0
M  V30 2170 C 199.722 -1.63841 1.33114 0
M  V30 2171 O 199.07 -2.22928 0.501529 0
M  V30 2172 C 199.28 -0.26327 3.48006 0
M  V30 2173 C 200.628 -0.489354 4.21771 0
M  V30 2174 O 201.652 -0.343226 3.54543 0
M  V30 2175 O 200.511 -0.776169 5.4096 0
M  V30 2176 H 197.605 -0.152536 0.812811 0
M  V30 2177 H 200.151 0.450178 1.6362 0
M  V30 2178 H 198.923 0.713985 3.84731 0
M  V30 2179 H 198.546 -1.00103 3.84792 0
M  V30 2180 N 199.544 -1.57102 0.125237 0
M  V30 2181 C 200.79 -1.96488 -0.525753 0
M  V30 2182 C 201.145 -1.00786 -1.6389 0
M  V30 2183 O 200.438 -0.038979 -1.9156 0
M  V30 2184 C 200.632 -3.40096 -1.09862 0
M  V30 2185 C 200.461 -4.4968 -0.0425004 0
M  V30 2186 C 199.231 -5.03781 0.391463 0
M  V30 2187 C 201.429 -5.08936 0.740829 0
M  V30 2188 N 199.411 -5.96948 1.4327 0
M  V30 2189 C 200.782 -5.98105 1.6331 0
M  V30 2190 C 202.837 -4.91576 0.791029 0
M  V30 2191 C 201.54 -6.71774 2.57122 0
M  V30 2192 C 203.566 -5.6593 1.71688 0
M  V30 2193 C 202.928 -6.5479 2.59672 0
M  V30 2194 H 199.027 -0.765072 -0.161831 0
M  V30 2195 H 201.611 -1.93511 0.214801 0
M  V30 2196 H 199.782 -3.43707 -1.80887 0
M  V30 2197 H 201.514 -3.66591 -1.71444 0
M  V30 2198 H 198.269 -4.736 -0.00213584 0
M  V30 2199 H 198.693 -6.48236 1.95243 0
M  V30 2200 H 203.335 -4.22615 0.124915 0
M  V30 2201 H 201.053 -7.39977 3.24744 0
M  V30 2202 H 204.639 -5.54501 1.76125 0
M  V30 2203 H 203.519 -7.11316 3.30149 0
M  V30 2204 N 201.022 0.148545 -1.56898 0
M  V30 2205 C 202.247 0.880385 -1.87787 0
M  V30 2206 C 202.672 1.74018 -0.714093 0
M  V30 2207 O 202.03 1.78153 0.336343 0
M  V30 2208 C 202.078 1.71422 -3.17249 0
M  V30 2209 O 201.182 2.8183 -3.01074 0
M  V30 2210 H 200.523 0.245301 -0.617028 0
M  V30 2211 H 203.053 0.139826 -2.04122 0
M  V30 2212 H 203.063 2.10954 -3.49231 0
M  V30 2213 H 201.738 1.08284 -4.01556 0
M  V30 2214 H 200.315 2.45715 -2.80497 0
M  V30 2215 N 202.5 1.5196 0.417844 0
M  V30 2216 C 203.448 1.75278 1.52907 0
M  V30 2217 C 204.442 0.619611 1.57662 0
M  V30 2218 O 205.648 0.801457 1.61173 0
M  V30 2219 H 202.023 0.554141 0.508362 0
M  V30 2220 H 203.994 2.68389 1.30422 0
M  V30 2221 C 202.743 1.91262 2.90369 0
M  V30 2222 H 202.066 2.77872 2.8745 0
M  V30 2223 H 203.506 2.11581 3.67436 0
M  V30 2224 C 201.965 0.677431 3.30019 0
M  V30 2225 O 202.495 -0.158799 4.01386 0
M  V30 2226 N 200.701 0.515851 2.85985 0
M  V30 2227 H 200.248 1.19744 2.28077 0
M  V30 2228 H 200.206 -0.309315 3.12875 0
M  V30 2229 N 203.978 -0.674533 1.42435 0
M  V30 2230 C 205.224 -1.43671 1.43131 0
M  V30 2231 C 205.557 -1.94142 0.0476021 0
M  V30 2232 O 204.832 -1.70924 -0.928188 0
M  V30 2233 C 205.115 -2.63355 2.45594 0
M  V30 2234 C 204.968 -2.18514 3.93156 0
M  V30 2235 C 206.287 -3.65571 2.45043 0
M  V30 2236 H 203.406 -0.521077 0.521198 0
M  V30 2237 H 206.048 -0.766551 1.7385 0
M  V30 2238 H 204.198 -3.2053 2.19528 0
M  V30 2239 H 205.87 -1.66504 4.30202 0
M  V30 2240 H 204.113 -1.50086 4.07009 0
M  V30 2241 H 204.784 -3.04484 4.60428 0
M  V30 2242 H 207.26 -3.18113 2.68223 0
M  V30 2243 H 206.136 -4.46893 3.18713 0
M  V30 2244 H 206.397 -4.16716 1.47649 0
M  V30 2245 N 205.456 -1.28612 -0.910864 0
M  V30 2246 C 206.419 -1.12803 -1.9952 0
M  V30 2247 C 207.419 -0.0668264 -1.60661 0
M  V30 2248 O 208.609 -0.312847 -1.71368 0
M  V30 2249 C 205.741 -0.72254 -3.33155 0
M  V30 2250 H 206.934 -2.09109 -2.14973 0
M  V30 2251 H 204.487 -1.11639 -1.09391 0
M  V30 2252 H 205.222 0.241152 -3.23402 0
M  V30 2253 H 205.007 -1.48916 -3.62721 0
M  V30 2254 H 206.497 -0.634666 -4.12749 0
M  V30 2255 N 206.934 1.1197 -1.10907 0
M  V30 2256 C 208.345 1.65114 -0.871446 0
M  V30 2257 C 208.696 1.86885 0.597353 0
M  V30 2258 O 207.821 1.59896 1.45816 0
M  V30 2259 C 208.416 2.99944 -1.5754 0
M  V30 2260 C 206.975 3.50018 -1.38435 0
M  V30 2261 C 206.122 2.24941 -1.62164 0
M  V30 2262 H 209.073 0.956851 -1.2661 0
M  V30 2263 H 209.094 3.66651 -1.01721 0
M  V30 2264 H 208.606 2.84067 -2.64438 0
M  V30 2265 H 206.707 3.71071 -0.337214 0
M  V30 2266 H 206.82 4.29165 -2.12965 0
M  V30 2267 H 205.184 2.3229 -1.04467 0
M  V30 2268 H 205.967 2.11612 -2.70324 0
M  V30 2269 N 208.412 0.89855 1.29475 0
M  V30 2270 C 209.342 0.39201 2.30186 0
M  V30 2271 C 210.323 -0.532359 1.61555 0
M  V30 2272 O 211.508 -0.443331 1.89072 0
M  V30 2273 C 208.638 -0.382353 3.45189 0
M  V30 2274 C 207.592 0.451483 4.25612 0
M  V30 2275 C 206.918 -0.450307 5.328 0
M  V30 2276 C 208.218 1.70079 4.93832 0
M  V30 2277 H 209.912 1.23362 2.72804 0
M  V30 2278 H 207.458 0.594638 1.31149 0
M  V30 2279 H 209.411 -0.747451 4.14718 0
M  V30 2280 H 208.135 -1.25774 3.01411 0
M  V30 2281 H 206.794 0.798897 3.57789 0
M  V30 2282 H 206.442 -1.32379 4.85268 0
M  V30 2283 H 206.142 0.103902 5.87508 0
M  V30 2284 H 207.666 -0.811623 6.05182 0
M  V30 2285 H 209.08 1.40549 5.55805 0
M  V30 2286 H 207.477 2.19623 5.58467 0
M  V30 2287 H 208.547 2.43744 4.19186 0
M  V30 2288 N 209.89 -1.43072 0.660911 0
M  V30 2289 C 211.118 -2.06067 0.185422 0
M  V30 2290 C 211.533 -1.49582 -1.15198 0
M  V30 2291 O 210.89 -0.630134 -1.71276 0
M  V30 2292 C 210.941 -3.61371 0.0966523 0
M  V30 2293 O 210.662 -4.15758 1.38119 0
M  V30 2294 C 212.163 -4.41455 -0.403996 0
M  V30 2295 H 209.383 -0.664459 0.0934604 0
M  V30 2296 H 211.927 -1.83447 0.90373 0
M  V30 2297 H 210.082 -3.8315 -0.572259 0
M  V30 2298 H 210.496 -5.09499 1.24542 0
M  V30 2299 H 211.97 -5.50437 -0.415045 0
M  V30 2300 H 212.447 -4.15036 -1.43674 0
M  V30 2301 H 213.053 -4.24663 0.232691 0
M  V30 2302 N 211.368 -0.403325 -1.52352 0
M  V30 2303 C 212.615 0.174347 -2.01748 0
M  V30 2304 C 212.943 1.45636 -1.2892 0
M  V30 2305 O 212.198 1.9193 -0.382258 0
M  V30 2306 C 212.497 0.474665 -3.54234 0
M  V30 2307 C 212.163 -0.717458 -4.45155 0
M  V30 2308 C 210.825 -1.04447 -4.69728 0
M  V30 2309 C 213.177 -1.51432 -4.98716 0
M  V30 2310 C 210.505 -2.16963 -5.45109 0
M  V30 2311 C 212.857 -2.6302 -5.75329 0
M  V30 2312 C 211.521 -2.96213 -5.98175 0
M  V30 2313 H 210.791 0.0637981 -0.738248 0
M  V30 2314 H 213.438 -0.543553 -1.83624 0
M  V30 2315 H 211.743 1.27406 -3.70506 0
M  V30 2316 H 213.44 0.934496 -3.89959 0
M  V30 2317 H 210.03 -0.452596 -4.26204 0
M  V30 2318 H 214.214 -1.27491 -4.79645 0
M  V30 2319 H 209.47 -2.43034 -5.61021 0
M  V30 2320 H 213.644 -3.25158 -6.15829 0
M  V30 2321 H 211.271 -3.83516 -6.56368 0
M  V30 2322 N 212.846 1.57033 -0.133567 0
M  V30 2323 C 213.778 2.13176 0.841944 0
M  V30 2324 C 214.791 1.07794 1.22001 0
M  V30 2325 O 215.98 1.35117 1.16643 0
M  V30 2326 C 213.08 2.62847 2.13926 0
M  V30 2327 C 212.253 3.92486 1.93064 0
M  V30 2328 C 211.312 4.27605 3.0666 0
M  V30 2329 O 210.338 4.96168 2.78937 0
M  V30 2330 N 211.54 3.861 4.33483 0
M  V30 2331 H 214.305 2.97503 0.362192 0
M  V30 2332 H 211.866 1.61821 0.05042 0
M  V30 2333 H 213.858 2.83363 2.88942 0
M  V30 2334 H 212.428 1.83319 2.53205 0
M  V30 2335 H 211.648 3.80732 1.02159 0
M  V30 2336 H 212.936 4.77225 1.76447 0
M  V30 2337 H 212.334 3.30828 4.58878 0
M  V30 2338 H 210.891 4.11694 5.05323 0
M  V30 2339 N 214.325 -0.140222 1.56975 0
M  V30 2340 C 215.235 -1.19223 2.02047 0
M  V30 2341 C 216.251 -1.46612 0.937062 0
M  V30 2342 O 217.427 -1.58148 1.24704 0
M  V30 2343 C 214.492 -2.50414 2.39778 0
M  V30 2344 C 213.553 -2.30612 3.621 0
M  V30 2345 C 212.786 -3.55547 3.98023 0
M  V30 2346 O 213.009 -4.62004 3.34528 0
M  V30 2347 O 211.943 -3.47808 4.91237 0
M  V30 2348 H 215.769 -0.839559 2.91865 0
M  V30 2349 H 213.354 -0.349453 1.45256 0
M  V30 2350 H 215.236 -3.27747 2.64877 0
M  V30 2351 H 213.911 -2.85198 1.53114 0
M  V30 2352 H 212.818 -1.51207 3.4218 0
M  V30 2353 H 214.151 -2.00741 4.49404 0
M  V30 2354 N 215.803 -1.52179 -0.40978 0
M  V30 2355 C 217.049 -1.66453 -1.15851 0
M  V30 2356 C 217.382 -0.392972 -1.90182 0
M  V30 2357 O 216.657 0.608579 -1.84734 0
M  V30 2358 C 216.94 -2.88612 -2.15349 0
M  V30 2359 C 216.793 -4.25815 -1.44918 0
M  V30 2360 C 218.112 -3.06294 -3.16026 0
M  V30 2361 H 215.231 -0.60575 -0.419805 0
M  V30 2362 H 217.873 -1.84732 -0.444314 0
M  V30 2363 H 216.023 -2.73158 -2.76255 0
M  V30 2364 H 217.695 -4.52995 -0.871365 0
M  V30 2365 H 215.938 -4.27247 -0.751159 0
M  V30 2366 H 216.609 -5.07337 -2.17516 0
M  V30 2367 H 219.085 -3.20641 -2.65195 0
M  V30 2368 H 217.961 -3.93283 -3.8291 0
M  V30 2369 H 218.222 -2.19579 -3.83715 0
M  V30 2370 N 217.281 0.66697 -1.42791 0
M  V30 2371 C 218.213 1.7925 -1.42836 0
M  V30 2372 C 219.226 1.59496 -0.326333 0
M  V30 2373 O 220.415 1.6847 -0.589916 0
M  V30 2374 C 217.515 3.16476 -1.21229 0
M  V30 2375 C 216.688 3.63011 -2.44013 0
M  V30 2376 C 215.747 4.78993 -2.17834 0
M  V30 2377 O 214.773 4.89137 -2.91091 0
M  V30 2378 N 215.975 5.68248 -1.18635 0
M  V30 2379 H 218.74 1.79695 -2.39854 0
M  V30 2380 H 216.301 0.850338 -1.37771 0
M  V30 2381 H 218.293 3.91734 -1.01621 0
M  V30 2382 H 216.863 3.10884 -0.32706 0
M  V30 2383 H 216.083 2.78346 -2.79137 0
M  V30 2384 H 217.371 3.90845 -3.25757 0
M  V30 2385 H 216.769 5.62712 -0.580615 0
M  V30 2386 H 215.326 6.43285 -1.05013 0
M  V30 2387 N 218.759 1.29093 0.90403 0
M  V30 2388 C 219.722 1.1386 1.98919 0
M  V30 2389 C 220.722 0.0753457 1.60623 0
M  V30 2390 O 221.912 0.321931 1.71199 0
M  V30 2391 C 219.044 0.740198 3.32767 0
M  V30 2392 H 220.237 2.10246 2.13861 0
M  V30 2393 H 217.79 1.12218 1.08797 0
M  V30 2394 H 218.525 -0.223997 3.23525 0
M  V30 2395 H 218.31 1.50838 3.61926 0
M  V30 2396 H 219.8 0.656546 4.12407 0
M  V30 2397 N 220.237 -1.11381 1.11499 0
M  V30 2398 C 221.485 -1.8277 0.862524 0
M  V30 2399 C 221.806 -1.85097 -0.613534 0
M  V30 2400 O 221.076 -1.32198 -1.4457 0
M  V30 2401 H 219.656 -0.676823 0.316101 0
M  V30 2402 H 222.318 -1.34816 1.4075 0
M  V30 2403 H 221.414 -2.86614 1.23527 0
M  V30 2404 N 221.715 -0.905404 -1.28997 0
M  V30 2405 C 222.678 -0.392253 -2.25819 0
M  V30 2406 C 223.678 0.476753 -1.5357 0
M  V30 2407 O 224.868 0.280994 -1.71919 0
M  V30 2408 C 222 0.438588 -3.38067 0
M  V30 2409 H 223.193 -1.24743 -2.72725 0
M  V30 2410 H 220.746 -0.684051 -1.40536 0
M  V30 2411 H 221.481 1.31352 -2.96508 0
M  V30 2412 H 221.266 -0.184167 -3.91667 0
M  V30 2413 H 222.756 0.78873 -4.10084 0
M  V30 2414 N 223.193 1.4272 -0.668489 0
M  V30 2415 C 224.156 2.292 0.00448567 0
M  V30 2416 C 225.156 1.43001 0.735339 0
M  V30 2417 O 226.346 1.64461 0.57429 0
M  V30 2418 C 223.478 3.25375 1.01705 0
M  V30 2419 H 224.671 2.90199 -0.756608 0
M  V30 2420 H 222.224 1.50254 -0.430506 0
M  V30 2421 H 222.959 2.69301 1.80686 0
M  V30 2422 H 222.744 3.88944 0.496463 0
M  V30 2423 H 224.234 3.90245 1.48655 0
M  V30 2424 N 224.671 0.411399 1.52136 0
M  V30 2425 C 225.948 -0.222308 1.94333 0
M  V30 2426 C 226.328 -1.6242 1.34844 0
M  V30 2427 O 225.676 -2.22384 0.525145 0
M  V30 2428 C 225.886 -0.226345 3.48265 0
M  V30 2429 C 227.234 -0.444592 4.22266 0
M  V30 2430 O 228.258 -0.305602 3.54887 0
M  V30 2431 O 227.117 -0.718749 5.41753 0
M  V30 2432 H 224.211 -0.143907 0.814383 0
M  V30 2433 H 226.757 0.467506 1.63133 0
M  V30 2434 H 225.529 0.75475 3.83952 0
M  V30 2435 H 225.152 -0.960163 3.85832 0
M  V30 2436 N 226.149 -1.5696 0.141893 0
M  V30 2437 C 227.398 -1.95135 -0.510427 0
M  V30 2438 C 227.711 -1.02896 -1.66348 0
M  V30 2439 O 228.917 -1.30629 -2.38009 0
M  V30 2440 C 227.373 -3.46876 -0.959427 0
M  V30 2441 C 226.981 -4.47691 0.166419 0
M  V30 2442 C 228.725 -3.93927 -1.58183 0
M  V30 2443 C 226.632 -5.90636 -0.300565 0
M  V30 2444 H 225.562 -0.728494 -0.194454 0
M  V30 2445 H 228.213 -1.8211 0.22542 0
M  V30 2446 H 226.595 -3.55215 -1.75038 0
M  V30 2447 H 227.769 -4.51043 0.94325 0
M  V30 2448 H 226.084 -4.10527 0.696905 0
M  V30 2449 H 228.681 -4.98158 -1.94275 0
M  V30 2450 H 229.024 -3.3519 -2.46888 0
M  V30 2451 H 229.557 -3.88484 -0.855863 0
M  V30 2452 H 226.296 -6.5318 0.550989 0
M  V30 2453 H 225.816 -5.90655 -1.04338 0
M  V30 2454 H 227.495 -6.42588 -0.754265 0
M  V30 2455 N 227.627 0.131896 -1.57047 0
M  V30 2456 C 229.043 0.485031 -1.52051 0
M  V30 2457 C 229.243 1.82563 -0.85281 0
M  V30 2458 O 228.299 2.48817 -0.429694 0
M  V30 2459 C 229.612 0.481409 -2.96821 0
M  V30 2460 C 231.16 0.565868 -3.07842 0
M  V30 2461 C 231.635 0.592762 -4.54148 0
M  V30 2462 N 233.126 0.654564 -4.58552 0
M  V30 2463 C 233.861 0.696608 -5.69153 0
M  V30 2464 N 233.357 0.697078 -6.89284 0
M  V30 2465 N 235.15 0.738639 -5.57226 0
M  V30 2466 H 227.301 -0.746664 -1.98843 0
M  V30 2467 H 229.564 -0.273999 -0.90754 0
M  V30 2468 H 229.27 -0.435731 -3.4899 0
M  V30 2469 H 229.144 1.3139 -3.53577 0
M  V30 2470 H 231.531 1.47343 -2.55684 0
M  V30 2471 H 231.612 -0.29406 -2.54104 0
M  V30 2472 H 231.256 -0.310701 -5.06949 0
M  V30 2473 H 231.186 1.46939 -5.05684 0
M  V30 2474 H 233.677 0.660887 -3.72076 0
M  V30 2475 H 233.99 0.731426 -7.69331 0
M  V30 2476 H 232.335 0.66471 -6.91814 0
M  V30 2477 H 235.526 0.735545 -4.62285 0
M  V30 2478 H 235.699 0.767938 -6.43434 0
M  V30 2479 N 229.106 1.52395 0.401703 0
M  V30 2480 C 230.036 1.79231 1.49661 0
M  V30 2481 C 231.017 0.643654 1.57452 0
M  V30 2482 O 232.202 0.889989 1.72606 0
M  V30 2483 C 229.332 1.94971 2.87409 0
M  V30 2484 C 228.286 3.10604 2.94465 0
M  V30 2485 C 227.612 3.11577 4.34538 0
M  V30 2486 C 228.912 4.49921 2.6527 0
M  V30 2487 H 230.606 2.70917 1.27454 0
M  V30 2488 H 228.152 1.30362 0.6117 0
M  V30 2489 H 230.105 2.12328 3.63999 0
M  V30 2490 H 228.829 0.999632 3.10926 0
M  V30 2491 H 227.488 2.93009 2.20321 0
M  V30 2492 H 227.136 2.14277 4.55076 0
M  V30 2493 H 226.836 3.89247 4.40183 0
M  V30 2494 H 228.36 3.31073 5.13053 0
M  V30 2495 H 229.774 4.67683 3.31581 0
M  V30 2496 H 228.171 5.29564 2.82281 0
M  V30 2497 H 229.241 4.57507 1.60671 0
M  V30 2498 N 230.584 -0.659388 1.43143 0
M  V30 2499 C 231.809 -1.45221 1.48073 0
M  V30 2500 C 232.234 -1.87845 0.097995 0
M  V30 2501 O 231.592 -1.56985 -0.90694 0
M  V30 2502 C 231.64 -2.66748 2.42647 0
M  V30 2503 O 230.744 -3.65583 1.90848 0
M  V30 2504 H 230.085 -0.435669 0.501088 0
M  V30 2505 H 232.615 -0.807432 1.87994 0
M  V30 2506 H 232.625 -3.14637 2.59745 0
M  V30 2507 H 231.3 -2.35067 3.43098 0
M  V30 2508 H 229.877 -3.24693 1.83381 0
M  V30 2509 N 232.062 -1.29571 -0.897171 0
M  V30 2510 C 233.309 -1.17689 -1.6479 0
M  V30 2511 C 233.637 0.27107 -1.92602 0
M  V30 2512 O 232.892 1.21193 -1.53658 0
M  V30 2513 C 233.191 -1.9382 -3.00281 0
M  V30 2514 C 232.857 -3.43522 -2.92068 0
M  V30 2515 C 231.519 -3.84348 -2.89535 0
M  V30 2516 C 233.871 -4.38906 -2.81089 0
M  V30 2517 C 231.199 -5.18869 -2.73846 0
M  V30 2518 C 233.551 -5.73521 -2.66939 0
M  V30 2519 C 232.215 -6.13601 -2.62774 0
M  V30 2520 H 231.485 -0.430654 -0.603008 0
M  V30 2521 H 234.132 -1.60536 -1.04404 0
M  V30 2522 H 232.437 -1.4357 -3.64547 0
M  V30 2523 H 234.134 -1.82028 -3.57305 0
M  V30 2524 H 230.724 -3.11072 -2.94842 0
M  V30 2525 H 234.908 -4.08315 -2.82121 0
M  V30 2526 H 230.164 -5.4903 -2.69027 0
M  V30 2527 H 234.338 -6.47078 -2.57416 0
M  V30 2528 H 231.965 -7.17786 -2.50375 0
M  V30 2529 N 233.54 1.10788 -1.12088 0
M  V30 2530 C 234.49 2.15158 -0.754401 0
M  V30 2531 C 235.474 1.59026 0.244846 0
M  V30 2532 O 236.666 1.76927 0.0509097 0
M  V30 2533 C 233.795 3.42677 -0.206657 0
M  V30 2534 C 232.881 4.05751 -1.23398 0
M  V30 2535 N 233.272 4.43582 -2.43041 0
M  V30 2536 C 231.57 4.32764 -1.07848 0
M  V30 2537 C 232.271 4.93085 -3.08613 0
M  V30 2538 N 231.247 4.89664 -2.36072 0
M  V30 2539 H 235.049 2.42195 -1.6649 0
M  V30 2540 H 232.563 1.27872 -1.00112 0
M  V30 2541 H 234.56 4.16834 0.0740646 0
M  V30 2542 H 233.22 3.17101 0.698342 0
M  V30 2543 H 234.231 4.35395 -2.80449 0
M  V30 2544 H 230.908 4.16863 -0.230483 0
M  V30 2545 H 232.298 5.31933 -4.10483 0
M  V30 2546 N 235.018 0.912232 1.28515 0
M  V30 2547 C 236.266 0.543523 1.94654 0
M  V30 2548 C 236.587 -0.9155 1.72173 0
M  V30 2549 O 235.857 -1.64708 1.06058 0
M  V30 2550 H 234.437 0.198017 0.720277 0
M  V30 2551 H 237.099 1.16126 1.56527 0
M  V30 2552 H 236.195 0.736684 3.03281 0
M  V30 2553 N 236.496 -1.42363 0.676048 0
M  V30 2554 C 237.912 -1.55811 0.345718 0
M  V30 2555 C 238.112 -1.65544 -1.14879 0
M  V30 2556 O 237.168 -1.62306 -1.93424 0
M  V30 2557 C 238.481 -2.80746 1.07713 0
M  V30 2558 C 240.029 -2.9452 1.05958 0
M  V30 2559 C 240.504 -4.22318 1.77233 0
M  V30 2560 N 241.995 -4.29233 1.74108 0
M  V30 2561 C 242.73 -5.26935 2.26113 0
M  V30 2562 N 242.226 -6.30783 2.86505 0
M  V30 2563 N 244.019 -5.18741 2.1648 0
M  V30 2564 H 236.17 -1.34289 1.6456 0
M  V30 2565 H 238.433 -0.646506 0.69335 0
M  V30 2566 H 238.139 -2.79696 2.13221 0
M  V30 2567 H 238.013 -3.71676 0.64316 0
M  V30 2568 H 240.4 -2.95097 0.0128255 0
M  V30 2569 H 240.481 -2.04817 1.53244 0
M  V30 2570 H 240.125 -4.22502 2.81877 0
M  V30 2571 H 240.055 -5.10958 1.27396 0
M  V30 2572 H 242.546 -3.54814 1.30059 0
M  V30 2573 H 242.859 -7.01691 3.23805 0
M  V30 2574 H 241.204 -6.31341 2.90575 0
M  V30 2575 H 244.395 -4.36533 1.68987 0
M  V30 2576 H 244.568 -5.94721 2.57316 0
M  V30 2577 N 237.974 -0.419461 -1.51915 0
M  V30 2578 C 238.906 0.43646 -2.25006 0
M  V30 2579 C 239.919 1.00149 -1.28351 0
M  V30 2580 O 241.108 0.898674 -1.54227 0
M  V30 2581 C 238.208 1.6206 -2.9764 0
M  V30 2582 C 237.381 1.17763 -4.21249 0
M  V30 2583 C 236.44 2.22985 -4.76617 0
M  V30 2584 O 235.466 1.83151 -5.38929 0
M  V30 2585 N 236.668 3.55271 -4.59089 0
M  V30 2586 H 239.433 -0.18989 -2.99098 0
M  V30 2587 H 236.994 -0.247386 -1.59999 0
M  V30 2588 H 238.986 2.32038 -3.31573 0
M  V30 2589 H 237.556 2.15266 -2.2667 0
M  V30 2590 H 236.776 0.305582 -3.93014 0
M  V30 2591 H 238.064 0.858781 -5.015 0
M  V30 2592 H 237.462 3.90377 -4.09417 0
M  V30 2593 H 236.019 4.21195 -4.97432 0
M  V30 2594 N 239.452 1.56882 -0.150215 0
M  V30 2595 C 240.677 2.01027 0.510184 0
M  V30 2596 C 241.102 1.02966 1.57415 0
M  V30 2597 O 240.46 0.00590158 1.81299 0
M  V30 2598 C 240.508 3.43899 1.08472 0
M  V30 2599 O 239.612 3.4885 2.19948 0
M  V30 2600 H 238.953 0.652233 0.124451 0
M  V30 2601 H 241.483 2.03093 -0.247894 0
M  V30 2602 H 241.493 3.82766 1.41259 0
M  V30 2603 H 240.168 4.14776 0.305582 0
M  V30 2604 H 238.745 3.21827 1.88366 0
M  V30 2605 N 240.93 -0.123565 1.57115 0
M  V30 2606 C 242.155 -0.850398 1.89164 0
M  V30 2607 C 242.58 -1.7286 0.741688 0
M  V30 2608 O 241.938 -1.78665 -0.307958 0
M  V30 2609 C 241.986 -1.66353 3.19936 0
M  V30 2610 O 241.09 -2.77004 3.0552 0
M  V30 2611 H 240.431 -0.235454 0.620852 0
M  V30 2612 H 242.961 -0.107335 2.04318 0
M  V30 2613 H 242.971 -2.05372 3.52543 0
M  V30 2614 H 241.646 -1.01881 4.03228 0
M  V30 2615 H 240.223 -2.41221 2.84371 0
M  V30 2616 N 242.408 -1.52605 -0.393616 0
M  V30 2617 C 243.638 -1.71046 -1.15874 0
M  V30 2618 C 244.046 -0.426483 -1.84331 0
M  V30 2619 O 243.389 0.608513 -1.73329 0
M  V30 2620 C 243.451 -2.80118 -2.25332 0
M  V30 2621 C 243.115 -4.21381 -1.76881 0
M  V30 2622 C 244.112 -5.04697 -1.24808 0
M  V30 2623 C 241.797 -4.67683 -1.83244 0
M  V30 2624 C 243.791 -6.32393 -0.797387 0
M  V30 2625 C 241.478 -5.95364 -1.37787 0
M  V30 2626 C 242.476 -6.77549 -0.861208 0
M  V30 2627 O 242.164 -8.02837 -0.413252 0
M  V30 2628 H 241.896 -0.576155 -0.353583 0
M  V30 2629 H 244.45 -2.00018 -0.467123 0
M  V30 2630 H 242.68 -2.46557 -2.97904 0
M  V30 2631 H 244.369 -2.87006 -2.87023 0
M  V30 2632 H 245.135 -4.70111 -1.19252 0
M  V30 2633 H 241.014 -4.03805 -2.22401 0
M  V30 2634 H 244.558 -6.9649 -0.393437 0
M  V30 2635 H 240.455 -6.29455 -1.43026 0
M  V30 2636 H 241.223 -8.16749 -0.53515 0
M  V30 2637 N 243.887 0.651787 -1.4349 0
M  V30 2638 C 245.127 1.42345 -1.46688 0
M  V30 2639 C 245.491 1.91793 -0.0891023 0
M  V30 2640 O 246.692 2.688 0.00423594 0
M  V30 2641 C 244.963 2.57221 -2.48137 0
M  V30 2642 S 246.522 3.45725 -2.70221 0
M  V30 2643 H 243.34 0.485878 -0.51908 0
M  V30 2644 H 245.942 0.756578 -1.80267 0
M  V30 2645 H 244.646 2.1917 -3.46976 0
M  V30 2646 H 244.177 3.28757 -2.16061 0
M  V30 2647 H 246.192 4.53996 -2.00255 0
M  V30 2648 N 245.365 1.30045 0.890287 0
M  V30 2649 C 246.59 1.21598 1.68014 0
M  V30 2650 C 247.015 -0.218678 1.86825 0
M  V30 2651 O 246.373 -1.15756 1.39536 0
M  V30 2652 C 246.421 1.94434 3.03691 0
M  V30 2653 O 245.525 1.2678 3.92429 0
M  V30 2654 H 244.866 0.420856 0.513592 0
M  V30 2655 H 247.396 1.71775 1.11151 0
M  V30 2656 H 247.406 2.03251 3.5377 0
M  V30 2657 H 246.081 2.98777 2.89318 0
M  V30 2658 H 244.658 1.26282 3.50866 0
M  V30 2659 N 246.843 -1.10192 1.12674 0
M  V30 2660 C 247.791 -2.18694 0.792196 0
M  V30 2661 C 248.785 -1.67938 -0.222058 0
M  V30 2662 O 249.991 -1.79822 -0.0800074 0
M  V30 2663 H 246.366 -0.713223 0.238364 0
M  V30 2664 H 248.337 -2.44149 1.71564 0
M  V30 2665 C 247.086 -3.46682 0.265859 0
M  V30 2666 H 246.409 -3.86101 1.03761 0
M  V30 2667 H 247.849 -4.23942 0.0701128 0
M  V30 2668 C 246.308 -3.21506 -1.00675 0
M  V30 2669 O 246.838 -3.43408 -2.08408 0
M  V30 2670 N 245.044 -2.75158 -0.934692 0
M  V30 2671 H 244.591 -2.57535 -0.0578604 0
M  V30 2672 H 244.549 -2.58691 -1.7868 0
M  V30 2673 N 248.321 -0.919034 -1.28029 0
M  V30 2674 C 249.549 -0.570971 -1.98866 0
M  V30 2675 C 249.964 0.848996 -1.68634 0
M  V30 2676 O 249.321 1.56307 -0.942036 0
M  V30 2677 C 249.372 -0.776876 -3.53054 0
M  V30 2678 O 249.093 -2.14097 -3.82222 0
M  V30 2679 C 250.594 -0.436356 -4.41147 0
M  V30 2680 H 247.814 -0.217175 -0.634883 0
M  V30 2681 H 250.358 -1.23368 -1.63097 0
M  V30 2682 H 248.513 -0.161085 -3.87065 0
M  V30 2683 H 248.927 -2.18455 -4.76841 0
M  V30 2684 H 250.401 -0.63117 -5.4838 0
M  V30 2685 H 250.878 0.627686 -4.34692 0
M  V30 2686 H 251.484 -1.02991 -4.12641 0
M  V30 2687 N 249.799 1.42003 -0.683588 0
M  V30 2688 C 251.046 2.01413 -0.209514 0
M  V30 2689 C 251.374 1.54088 1.1869 0
M  V30 2690 O 250.629 0.737591 1.81268 0
M  V30 2691 C 250.928 3.56827 -0.202357 0
M  V30 2692 C 250.594 4.23617 -1.54464 0
M  V30 2693 C 249.256 4.41577 -1.91215 0
M  V30 2694 C 251.608 4.61178 -2.42826 0
M  V30 2695 C 248.936 4.9437 -3.15935 0
M  V30 2696 C 251.288 5.15355 -3.66867 0
M  V30 2697 C 249.952 5.31528 -4.03776 0
M  V30 2698 H 249.222 0.737023 -0.0766668 0
M  V30 2699 H 251.869 1.70067 -0.880312 0
M  V30 2700 H 250.174 3.87892 0.551969 0
M  V30 2701 H 251.871 4.00588 0.181793 0
M  V30 2702 H 248.461 4.10004 -1.24877 0
M  V30 2703 H 252.645 4.46968 -2.15717 0
M  V30 2704 H 247.901 5.05076 -3.44541 0
M  V30 2705 H 252.075 5.43402 -4.35531 0
M  V30 2706 H 249.702 5.72199 -5.00492 0
M  V30 2707 N 251.277 0.427512 1.51691 0
M  V30 2708 C 252.554 -0.201684 1.94557 0
M  V30 2709 C 252.934 -1.60981 1.36559 0
M  V30 2710 O 252.282 -2.21814 0.548702 0
M  V30 2711 C 252.492 -0.189394 3.48486 0
M  V30 2712 C 253.84 -0.39978 4.22714 0
M  V30 2713 O 254.864 -0.267945 3.55191 0
M  V30 2714 O 253.723 -0.661249 5.42485 0
M  V30 2715 H 250.817 -0.135261 0.815864 0
M  V30 2716 H 253.363 0.484782 1.62628 0
M  V30 2717 H 252.135 0.795431 3.8313 0
M  V30 2718 H 251.758 -0.919187 3.86829 0
M  V30 2719 N 252.755 -1.56801 0.158532 0
M  V30 2720 C 254.003 -1.96102 -0.488712 0
M  V30 2721 C 254.324 -1.04498 -1.64636 0
M  V30 2722 O 253.594 -0.108783 -1.95598 0
M  V30 2723 H 252.174 -0.724102 -0.183535 0
M  V30 2724 H 254.836 -1.93457 0.236728 0
M  V30 2725 H 253.932 -3.00097 -0.857219 0
M  V30 2726 N 254.233 0.115231 -1.57178 0
M  V30 2727 C 255.644 0.67197 -1.74188 0
M  V30 2728 C 255.995 1.80125 -0.777777 0
M  V30 2729 O 255.12 2.16346 0.0484376 0
M  V30 2730 C 255.715 1.22573 -3.1585 0
M  V30 2731 C 254.274 1.72872 -3.34353 0
M  V30 2732 C 253.421 0.629972 -2.70049 0
M  V30 2733 H 256.372 -0.110712 -1.58313 0
M  V30 2734 H 256.393 2.09535 -3.17609 0
M  V30 2735 H 255.905 0.403598 -3.85996 0
M  V30 2736 H 254.006 2.5755 -2.69256 0
M  V30 2737 H 254.119 1.83557 -4.42542 0
M  V30 2738 H 252.483 1.0645 -2.31388 0
M  V30 2739 H 253.266 -0.181241 -3.42821 0
M  V30 2740 N 255.711 1.52812 0.385517 0
M  V30 2741 C 256.959 1.67694 1.12797 0
M  V30 2742 C 257.28 0.421115 1.90399 0
M  V30 2743 O 256.55 -0.564551 1.87589 0
M  V30 2744 H 255.13 0.618155 0.419396 0
M  V30 2745 H 257.792 1.89938 0.436972 0
M  V30 2746 H 256.888 2.52896 1.82894 0
M  V30 2747 N 257.189 -0.644168 1.43834 0
M  V30 2748 C 258.605 -0.960875 1.27434 0
M  V30 2749 C 258.805 -2.00499 0.200618 0
M  V30 2750 O 257.861 -2.49018 -0.417906 0
M  V30 2751 C 259.174 -1.43653 2.64167 0
M  V30 2752 C 260.722 -1.55271 2.71772 0
M  V30 2753 C 261.197 -2.06224 4.08944 0
M  V30 2754 N 262.688 -2.13513 4.11055 0
M  V30 2755 C 263.423 -2.54081 5.14033 0
M  V30 2756 N 262.919 -2.9388 6.27381 0
M  V30 2757 N 264.712 -2.54101 5.01387 0
M  V30 2758 H 256.863 0.0465779 2.12349 0
M  V30 2759 H 259.126 -0.0417638 0.94708 0
M  V30 2760 H 258.832 -0.743706 3.43747 0
M  V30 2761 H 258.706 -2.40993 2.90176 0
M  V30 2762 H 261.093 -2.23653 1.92519 0
M  V30 2763 H 261.174 -0.563395 2.49519 0
M  V30 2764 H 260.818 -1.38441 4.88668 0
M  V30 2765 H 260.748 -3.06003 4.28567 0
M  V30 2766 H 263.239 -1.85493 3.29242 0
M  V30 2767 H 263.552 -3.2361 7.01781 0
M  V30 2768 H 261.897 -2.91663 6.30839 0
M  V30 2769 H 265.088 -2.22391 4.11898 0
M  V30 2770 H 265.261 -2.85394 5.81768 0
M  V30 2771 N 258.668 -1.30515 -0.883378 0
M  V30 2772 C 259.914 -1.19607 -1.63774 0
M  V30 2773 C 260.247 0.248314 -1.92606 0
M  V30 2774 O 259.522 1.17742 -1.54813 0
M  V30 2775 C 259.805 -2.02669 -2.97653 0
M  V30 2776 C 259.658 -3.55335 -2.75784 0
M  V30 2777 C 260.977 -1.86573 -3.98596 0
M  V30 2778 H 258.096 -0.435856 -0.594305 0
M  V30 2779 H 260.738 -1.60165 -1.02212 0
M  V30 2780 H 258.888 -1.68208 -3.50197 0
M  V30 2781 H 260.56 -3.99863 -2.30016 0
M  V30 2782 H 258.803 -3.79438 -2.1026 0
M  V30 2783 H 259.474 -4.08745 -3.70988 0
M  V30 2784 H 261.95 -2.16703 -3.55217 0
M  V30 2785 H 260.826 -2.47014 -4.90179 0
M  V30 2786 H 261.087 -0.825321 -4.34328 0
M  V30 2787 N 260.146 1.09593 -1.13257 0
M  V30 2788 C 261.076 2.18214 -0.830946 0
M  V30 2789 C 262.057 1.68812 0.208966 0
M  V30 2790 O 263.242 1.9408 0.0682666 0
M  V30 2791 C 260.372 3.46051 -0.294296 0
M  V30 2792 C 259.326 4.08778 -1.26826 0
M  V30 2793 C 258.652 5.31419 -0.591449 0
M  V30 2794 C 259.952 4.51476 -2.62615 0
M  V30 2795 H 261.646 2.43703 -1.73923 0
M  V30 2796 H 259.192 1.17128 -0.837675 0
M  V30 2797 H 261.145 4.2134 -0.0709606 0
M  V30 2798 H 259.869 3.20079 0.649366 0
M  V30 2799 H 258.528 3.35505 -1.47756 0
M  V30 2800 H 258.176 5.01727 0.357633 0
M  V30 2801 H 257.876 5.74341 -1.24123 0
M  V30 2802 H 259.4 6.09433 -0.377355 0
M  V30 2803 H 260.814 5.17999 -2.45663 0
M  V30 2804 H 259.211 5.05277 -3.23752 0
M  V30 2805 H 260.281 3.63962 -3.20406 0
M  V30 2806 N 261.624 0.925811 1.2754 0
M  V30 2807 C 262.587 0.428129 2.25166 0
M  V30 2808 C 263.587 -0.452261 1.54309 0
M  V30 2809 O 264.777 -0.253608 1.72344 0
M  V30 2810 C 261.909 -0.384749 3.38722 0
M  V30 2811 H 263.102 1.29066 2.70706 0
M  V30 2812 H 260.655 0.706323 1.3943 0
M  V30 2813 H 261.39 -1.26618 2.98561 0
M  V30 2814 H 261.175 0.246454 3.91325 0
M  V30 2815 H 262.665 -0.723389 4.11287 0
M  V30 2816 N 263.102 -1.41638 0.69111 0
M  V30 2817 C 264.052 -2.28 -0.000107832 0
M  V30 2818 C 265.036 -1.41964 -0.757304 0
M  V30 2819 O 266.228 -1.65274 -0.633532 0
M  V30 2820 C 263.357 -3.30209 -0.938983 0
M  V30 2821 C 262.443 -4.23725 -0.17827 0
M  V30 2822 N 262.834 -4.99017 0.825563 0
M  V30 2823 C 261.132 -4.44071 -0.414392 0
M  V30 2824 C 261.833 -5.67431 1.28052 0
M  V30 2825 N 260.809 -5.40197 0.607304 0
M  V30 2826 H 264.611 -2.83644 0.769617 0
M  V30 2827 H 262.125 -1.53797 0.521562 0
M  V30 2828 H 264.122 -3.90898 -1.44929 0
M  V30 2829 H 262.782 -2.76126 -1.70836 0
M  V30 2830 H 263.793 -5.03671 1.20566 0
M  V30 2831 H 260.47 -4.01004 -1.162 0
M  V30 2832 H 261.86 -6.37801 2.11327 0
M  V30 2833 N 264.58 -0.43555 -1.51462 0
M  V30 2834 C 265.543 0.365137 -2.26273 0
M  V30 2835 C 266.543 0.951227 -1.29647 0
M  V30 2836 O 267.733 0.825958 -1.53374 0
M  V30 2837 C 264.865 1.51645 -3.05314 0
M  V30 2838 H 266.058 -0.290474 -2.9849 0
M  V30 2839 H 263.611 -0.188676 -1.55157 0
M  V30 2840 H 264.346 2.20816 -2.3751 0
M  V30 2841 H 264.131 1.10238 -3.76284 0
M  V30 2842 H 265.621 2.08218 -3.61987 0
M  V30 2843 N 266.058 1.56714 -0.166846 0
M  V30 2844 C 267.335 1.88412 0.525373 0
M  V30 2845 C 267.715 1.07602 1.81618 0
M  V30 2846 O 267.063 0.168621 2.27877 0
M  V30 2847 C 267.273 3.40363 0.771613 0
M  V30 2848 C 268.621 4.10007 1.1036 0
M  V30 2849 O 269.645 3.45655 0.860304 0
M  V30 2850 O 268.504 5.2369 1.56239 0
M  V30 2851 H 265.598 0.781587 0.270278 0
M  V30 2852 H 268.144 1.68458 -0.204946 0
M  V30 2853 H 266.916 3.91046 -0.141093 0
M  V30 2854 H 266.539 3.65914 1.55541 0
M  V30 2855 N 267.536 -0.106894 1.57237 0
M  V30 2856 C 268.785 -0.811163 1.8467 0
M  V30 2857 C 269.098 -1.80469 0.754342 0
M  V30 2858 O 270.304 -2.55601 0.915439 0
M  V30 2859 C 268.76 -1.49337 3.27454 0
M  V30 2860 C 268.368 -0.540217 4.44731 0
M  V30 2861 C 270.112 -2.18206 3.64124 0
M  V30 2862 C 268.019 -1.22634 5.78545 0
M  V30 2863 H 266.949 -0.306679 0.688813 0
M  V30 2864 H 269.6 -0.0639887 1.83388 0
M  V30 2865 H 267.982 -2.2876 3.23241 0
M  V30 2866 H 269.156 0.221659 4.60267 0
M  V30 2867 H 267.471 0.042146 4.16379 0
M  V30 2868 H 270.068 -2.70253 4.61376 0
M  V30 2869 H 270.411 -2.96562 2.92158 0
M  V30 2870 H 270.944 -1.45658 3.70174 0
M  V30 2871 H 267.683 -0.483832 6.53712 0
M  V30 2872 H 267.203 -1.95993 5.66874 0
M  V30 2873 H 268.882 -1.75615 6.2271 0
M  V30 2874 N 269.014 -1.53014 -0.377408 0
M  V30 2875 C 270.425 -1.60438 -0.954798 0
M  V30 2876 C 270.776 -0.464418 -1.90624 0
M  V30 2877 O 269.901 0.41087 -2.12464 0
M  V30 2878 C 270.496 -2.90797 -1.73847 0
M  V30 2879 C 269.055 -3.00595 -2.26538 0
M  V30 2880 C 268.202 -2.55645 -1.07429 0
M  V30 2881 H 271.153 -1.57926 -0.156575 0
M  V30 2882 H 271.174 -2.77935 -2.5987 0
M  V30 2883 H 270.686 -3.73746 -1.04574 0
M  V30 2884 H 268.787 -2.22208 -2.99089 0
M  V30 2885 H 268.9 -4.05456 -2.5523 0
M  V30 2886 H 267.264 -2.10239 -1.43777 0
M  V30 2887 H 268.047 -3.41 -0.396728 0
M  V30 2888 N 270.492 0.636531 -1.44174 0
M  V30 2889 C 271.402 1.77754 -1.53103 0
M  V30 2890 C 272.418 1.68928 -0.417034 0
M  V30 2891 O 273.594 1.89801 -0.6736 0
M  V30 2892 C 270.659 3.14115 -1.46741 0
M  V30 2893 C 269.72 3.34612 -2.68948 0
M  V30 2894 C 268.953 4.64467 -2.6288 0
M  V30 2895 O 269.176 5.44919 -1.68581 0
M  V30 2896 O 268.11 4.87049 -3.53648 0
M  V30 2897 H 271.936 1.73174 -2.49489 0
M  V30 2898 H 269.521 0.79709 -1.2636 0
M  V30 2899 H 271.403 3.95412 -1.45696 0
M  V30 2900 H 270.078 3.19249 -0.534975 0
M  V30 2901 H 268.985 2.53014 -2.75562 0
M  V30 2902 H 270.318 3.34336 -3.61221 0
M  V30 2903 N 271.97 1.30982 0.876444 0
M  V30 2904 C 272.9 1.20668 1.99903 0
M  V30 2905 C 273.881 0.095354 1.69833 0
M  V30 2906 O 275.066 0.27885 1.92188 0
M  V30 2907 C 272.196 0.90655 3.3526 0
M  V30 2908 C 271.15 1.97675 3.79617 0
M  V30 2909 C 270.476 1.52943 5.1236 0
M  V30 2910 C 271.776 3.389 3.97422 0
M  V30 2911 H 273.47 2.14586 2.0879 0
M  V30 2912 H 271.016 1.03308 1.00317 0
M  V30 2913 H 272.969 0.821025 4.13324 0
M  V30 2914 H 271.693 -0.0682969 3.26529 0
M  V30 2915 H 270.352 2.05205 3.03787 0
M  V30 2916 H 270 0.54262 5.00065 0
M  V30 2917 H 269.7 2.24532 5.43009 0
M  V30 2918 H 271.224 1.45786 5.92941 0
M  V30 2919 H 272.638 3.34081 4.659 0
M  V30 2920 H 271.035 4.0865 4.3946 0
M  V30 2921 H 272.105 3.80163 3.01006 0
M  V30 2922 N 273.449 -1.08991 1.13837 0
M  V30 2923 C 274.697 -1.80899 0.901098 0
M  V30 2924 C 275.018 -1.86356 -0.574134 0
M  V30 2925 O 274.288 -1.35235 -1.41733 0
M  V30 2926 H 272.868 -0.669966 0.330386 0
M  V30 2927 H 275.53 -1.318 1.43578 0
M  V30 2928 H 274.626 -2.83929 1.29578 0
M  V30 2929 N 274.927 -0.932562 -1.27047 0
M  V30 2930 C 276.152 -0.591474 -1.98787 0
M  V30 2931 C 276.577 0.824601 -1.69062 0
M  V30 2932 O 275.935 1.5541 -0.933677 0
M  V30 2933 C 275.983 -0.829808 -3.50922 0
M  V30 2934 O 275.087 0.102266 -4.12273 0
M  V30 2935 H 274.428 -0.227185 -0.623926 0
M  V30 2936 H 276.958 -1.25314 -1.61733 0
M  V30 2937 H 276.968 -0.747292 -4.01098 0
M  V30 2938 H 275.643 -1.86201 -3.7189 0
M  V30 2939 H 274.22 -0.0305761 -3.72887 0
M  V30 2940 N 276.405 1.4127 -0.698611 0
M  V30 2941 C 277.651 2.01478 -0.231207 0
M  V30 2942 C 277.984 1.55215 1.16713 0
M  V30 2943 O 277.259 0.764672 1.78838 0
M  V30 2944 C 277.542 3.58912 -0.292281 0
M  V30 2945 C 277.395 4.15293 -1.72778 0
M  V30 2946 C 278.714 4.38736 0.346194 0
M  V30 2947 H 275.833 0.732025 -0.0854878 0
M  V30 2948 H 278.475 1.67977 -0.887906 0
M  V30 2949 H 276.625 3.87582 0.26686 0
M  V30 2950 H 278.297 3.97486 -2.341 0
M  V30 2951 H 276.54 3.7022 -2.26096 0
M  V30 2952 H 277.211 5.24452 -1.72202 0
M  V30 2953 H 279.687 4.15897 -0.130035 0
M  V30 2954 H 278.563 5.48221 0.272932 0
M  V30 2955 H 278.824 4.18425 1.42734 0
M  V30 2956 N 277.883 0.443576 1.51229 0
M  V30 2957 C 278.833 -0.382787 2.24764 0
M  V30 2958 C 279.817 -0.984836 1.27239 0
M  V30 2959 O 281.009 -0.901943 1.52296 0
M  V30 2960 C 278.138 -1.47989 3.09765 0
M  V30 2961 C 277.224 -0.886931 4.14722 0
M  V30 2962 N 277.615 -0.0237103 5.05794 0
M  V30 2963 C 275.913 -1.15385 4.30816 0
M  V30 2964 C 276.614 0.309971 5.80874 0
M  V30 2965 N 275.59 -0.307989 5.42727 0
M  V30 2966 H 279.392 0.282624 2.92538 0
M  V30 2967 H 276.906 0.256027 1.60369 0
M  V30 2968 H 278.903 -2.08482 3.61027 0
M  V30 2969 H 277.563 -2.14758 2.43535 0
M  V30 2970 H 278.574 0.34318 5.16762 0
M  V30 2971 H 275.251 -1.81857 3.75812 0
M  V30 2972 H 276.641 1.01279 6.64223 0
M  V30 2973 N 279.361 -1.56624 0.175154 0
M  V30 2974 C 280.608 -1.96999 -0.468811 0
M  V30 2975 C 280.936 -1.06129 -1.62994 0
M  V30 2976 O 280.191 -0.0961771 -1.95464 0
M  V30 2977 C 280.49 -3.43419 -0.989864 0
M  V30 2978 C 280.156 -4.50866 0.0557687 0
M  V30 2979 C 278.818 -4.79975 0.343134 0
M  V30 2980 C 281.17 -5.15551 0.765308 0
M  V30 2981 C 278.498 -5.71066 1.34536 0
M  V30 2982 C 280.85 -6.07724 1.75654 0
M  V30 2983 C 279.514 -6.35199 2.05132 0
M  V30 2984 H 278.784 -0.720869 -0.17155 0
M  V30 2985 H 281.431 -1.89616 0.267924 0
M  V30 2986 H 279.736 -3.47772 -1.80449 0
M  V30 2987 H 281.433 -3.72002 -1.49719 0
M  V30 2988 H 278.023 -4.28229 -0.178381 0
M  V30 2989 H 282.207 -4.9317 0.556513 0
M  V30 2990 H 277.463 -5.90635 1.57988 0
M  V30 2991 H 281.637 -6.56912 2.31169 0
M  V30 2992 H 279.264 -7.05584 2.8294 0
M  V30 2993 N 280.839 0.0985539 -1.57292 0
M  V30 2994 C 282.116 0.834155 -1.76921 0
M  V30 2995 C 282.496 1.97101 -0.755928 0
M  V30 2996 O 281.844 2.27474 0.216245 0
M  V30 2997 C 282.054 1.33194 -3.22584 0
M  V30 2998 C 283.402 1.77611 -3.85668 0
M  V30 2999 O 284.426 1.42825 -3.26312 0
M  V30 3000 O 283.285 2.4192 -4.90038 0
M  V30 3001 H 280.379 0.397628 -0.725135 0
M  V30 3002 H 282.925 0.0807044 -1.69508 0
M  V30 3003 H 281.697 0.517248 -3.87866 0
M  V30 3004 H 281.32 2.1475 -3.34616 0
M  V30 3005 N 282.317 1.53212 0.369288 0
M  V30 3006 C 283.227 1.82342 1.47609 0
M  V30 3007 C 284.243 0.711532 1.58787 0
M  V30 3008 O 285.419 1.0012 1.74751 0
M  V30 3009 C 282.484 2.00393 2.8292 0
M  V30 3010 C 281.545 3.24297 2.81301 0
M  V30 3011 C 280.778 3.41478 4.10157 0
M  V30 3012 O 281.001 2.63033 5.06132 0
M  V30 3013 O 279.935 4.34817 4.16194 0
M  V30 3014 H 283.761 2.76366 1.25918 0
M  V30 3015 H 281.346 1.38547 0.559034 0
M  V30 3016 H 283.228 2.13859 3.63101 0
M  V30 3017 H 281.903 1.09559 3.04596 0
M  V30 3018 H 280.81 3.16257 1.99831 0
M  V30 3019 H 282.143 4.15041 2.64578 0
M  V30 3020 N 283.795 -0.628877 1.44509 0
M  V30 3021 C 285.072 -1.38733 1.37886 0
M  V30 3022 C 285.452 -2.11065 0.0387008 0
M  V30 3023 O 284.8 -2.06476 -0.97878 0
M  V30 3024 C 285.01 -2.35188 2.57852 0
M  V30 3025 C 286.358 -2.9845 3.02014 0
M  V30 3026 O 287.382 -2.45513 2.58073 0
M  V30 3027 O 286.241 -3.94487 3.78209 0
M  V30 3028 H 283.335 -0.621015 0.54614 0
M  V30 3029 H 285.881 -0.653744 1.56602 0
M  V30 3030 H 284.653 -1.80855 3.46998 0
M  V30 3031 H 284.276 -3.1596 2.4136 0
M  V30 3032 N 285.273 -1.31445 -0.869486 0
M  V30 3033 C 286.183 -1.21097 -2.0093 0
M  V30 3034 C 287.199 -0.127584 -1.73532 0
M  V30 3035 O 288.375 -0.345477 -1.98415 0
M  V30 3036 C 285.44 -0.919378 -3.34288 0
M  V30 3037 C 284.501 -2.08971 -3.75006 0
M  V30 3038 C 283.734 -1.81194 -5.02001 0
M  V30 3039 O 283.957 -0.747296 -5.65484 0
M  V30 3040 O 282.891 -2.66883 -5.39497 0
M  V30 3041 H 286.717 -2.16883 -2.12592 0
M  V30 3042 H 284.302 -1.11189 -0.997868 0
M  V30 3043 H 286.184 -0.772625 -4.14257 0
M  V30 3044 H 284.859 0.00844772 -3.23699 0
M  V30 3045 H 283.766 -2.29187 -2.95676 0
M  V30 3046 H 285.099 -2.9998 -3.90221 0
M  V30 3047 N 286.751 1.08385 -1.14413 0
M  V30 3048 C 287.998 1.80776 -0.912482 0
M  V30 3049 C 288.326 1.86236 0.560934 0
M  V30 3050 O 287.581 1.33431 1.43159 0
M  V30 3051 C 287.88 3.26273 -1.45879 0
M  V30 3052 C 287.546 3.4093 -2.95089 0
M  V30 3053 C 286.208 3.44638 -3.35824 0
M  V30 3054 C 288.56 3.44591 -3.91033 0
M  V30 3055 C 285.888 3.49597 -4.71167 0
M  V30 3056 C 288.24 3.51086 -5.26233 0
M  V30 3057 C 286.904 3.53067 -5.6648 0
M  V30 3058 H 286.174 0.661507 -0.333901 0
M  V30 3059 H 288.821 1.27613 -1.42784 0
M  V30 3060 H 287.126 3.82146 -0.864376 0
M  V30 3061 H 288.823 3.80839 -1.2555 0
M  V30 3062 H 285.413 3.38736 -2.62594 0
M  V30 3063 H 289.597 3.40957 -3.60641 0
M  V30 3064 H 284.853 3.49424 -5.0171 0
M  V30 3065 H 289.027 3.52864 -6.00383 0
M  V30 3066 H 286.654 3.56662 -6.71339 0
M  V30 3067 N 288.23 0.939286 1.26551 0
M  V30 3068 C 289.476 0.596234 1.94465 0
M  V30 3069 C 289.831 -0.855013 1.72358 0
M  V30 3070 O 289.124 -1.6034 1.04889 0
M  V30 3071 C 289.318 0.872106 3.46596 0
M  V30 3072 C 289.147 2.34862 3.83497 0
M  V30 3073 C 287.917 3.00344 4.06352 0
M  V30 3074 C 290.115 3.32697 3.92195 0
M  V30 3075 N 288.097 4.38027 4.30123 0
M  V30 3076 C 289.468 4.55631 4.20476 0
M  V30 3077 C 291.523 3.27747 3.74815 0
M  V30 3078 C 290.226 5.74233 4.33185 0
M  V30 3079 C 292.252 4.45672 3.88755 0
M  V30 3080 C 291.614 5.67388 4.17433 0
M  V30 3081 H 287.713 0.268515 0.734455 0
M  V30 3082 H 290.297 1.2083 1.5267 0
M  V30 3083 H 288.468 0.289102 3.87323 0
M  V30 3084 H 290.2 0.490513 4.01716 0
M  V30 3085 H 286.955 2.50969 4.01636 0
M  V30 3086 H 287.379 5.09288 4.46044 0
M  V30 3087 H 292.021 2.34703 3.51673 0
M  V30 3088 H 289.739 6.67731 4.55149 0
M  V30 3089 H 293.325 4.43372 3.76713 0
M  V30 3090 H 292.205 6.57115 4.27983 0
M  V30 3091 N 289.708 -1.40897 0.706093 0
M  V30 3092 C 290.936 -2.05373 0.250887 0
M  V30 3093 C 291.351 -1.53172 -1.10381 0
M  V30 3094 O 290.708 -0.684305 -1.69185 0
M  V30 3095 C 290.759 -3.6088 0.211571 0
M  V30 3096 O 290.48 -4.11153 1.51276 0
M  V30 3097 C 291.981 -4.42517 -0.263346 0
M  V30 3098 H 289.201 -0.66115 0.114552 0
M  V30 3099 H 291.745 -1.80479 0.961635 0
M  V30 3100 H 289.9 -3.84777 -0.450073 0
M  V30 3101 H 290.314 -5.05279 1.40689 0
M  V30 3102 H 291.788 -5.51479 -0.239718 0
M  V30 3103 H 292.265 -4.19396 -1.30397 0
M  V30 3104 H 292.871 -4.23708 0.367677 0
M  V30 3105 N 291.186 -0.45159 -1.50991 0
M  V30 3106 C 292.096 0.358431 -2.31846 0
M  V30 3107 C 293.112 1.01438 -1.41373 0
M  V30 3108 O 294.288 1.00663 -1.74439 0
M  V30 3109 C 291.353 1.43704 -3.15515 0
M  V30 3110 C 290.414 0.799742 -4.21785 0
M  V30 3111 C 289.647 1.82696 -5.01456 0
M  V30 3112 O 289.87 3.05105 -4.81941 0
M  V30 3113 O 288.804 1.40958 -5.85162 0
M  V30 3114 H 292.63 -0.302032 -3.02194 0
M  V30 3115 H 290.215 -0.213825 -1.47862 0
M  V30 3116 H 292.097 2.06227 -3.67489 0
M  V30 3117 H 290.772 2.08133 -2.47916 0
M  V30 3118 H 289.679 0.136084 -3.73852 0
M  V30 3119 H 291.012 0.198718 -4.91799 0
M  V30 3120 N 292.664 1.56529 -0.183458 0
M  V30 3121 C 293.912 1.96855 0.457452 0
M  V30 3122 C 294.233 1.07104 1.62953 0
M  V30 3123 O 293.503 0.139887 1.954 0
M  V30 3124 H 292.083 0.72693 0.171992 0
M  V30 3125 H 294.745 1.93056 -0.267476 0
M  V30 3126 H 293.841 3.01423 0.809368 0
M  V30 3127 N 294.142 -0.090211 1.57342 0
M  V30 3128 C 295.37 -0.806224 1.90546 0
M  V30 3129 C 295.785 -1.72041 0.777644 0
M  V30 3130 O 295.142 -1.80778 -0.250103 0
M  V30 3131 C 295.193 -1.61546 3.23396 0
M  V30 3132 O 294.914 -0.738043 4.31839 0
M  V30 3133 C 296.415 -2.4341 3.70495 0
M  V30 3134 H 293.635 -0.230256 0.630257 0
M  V30 3135 H 296.179 -0.0659843 2.04394 0
M  V30 3136 H 294.334 -2.30816 3.11131 0
M  V30 3137 H 294.748 -1.29901 5.08159 0
M  V30 3138 H 296.222 -2.95676 4.66133 0
M  V30 3139 H 296.699 -3.22098 2.98579 0
M  V30 3140 H 297.305 -1.79331 3.85643 0
M  V30 3141 N 295.62 -1.53406 -0.361157 0
M  V30 3142 C 296.85 -1.73465 -1.1222 0
M  V30 3143 C 297.258 -0.465486 -1.83384 0
M  V30 3144 O 296.601 0.571611 -1.7458 0
M  V30 3145 C 296.663 -2.84834 -2.19339 0
M  V30 3146 C 296.327 -4.25038 -1.67903 0
M  V30 3147 C 297.324 -5.07231 -1.14074 0
M  V30 3148 C 295.009 -4.71464 -1.73282 0
M  V30 3149 C 297.003 -6.33942 -0.663068 0
M  V30 3150 C 294.69 -5.98153 -1.25127 0
M  V30 3151 C 295.688 -6.79223 -0.717296 0
M  V30 3152 O 295.376 -8.03533 -0.242865 0
M  V30 3153 H 295.108 -0.583526 -0.341283 0
M  V30 3154 H 297.662 -2.00964 -0.424591 0
M  V30 3155 H 295.892 -2.5282 -2.92607 0
M  V30 3156 H 297.581 -2.9303 -2.80871 0
M  V30 3157 H 298.347 -4.72534 -1.09254 0
M  V30 3158 H 294.226 -4.08432 -2.13786 0
M  V30 3159 H 297.77 -6.97167 -0.245612 0
M  V30 3160 H 293.667 -6.32347 -1.29642 0
M  V30 3161 H 294.435 -8.177 -0.361786 0
M  V30 3162 N 297.098 0.621204 -1.44841 0
M  V30 3163 C 298.514 0.94048 -1.28946 0
M  V30 3164 C 298.714 2.00154 -0.23249 0
M  V30 3165 O 297.77 2.49651 0.378237 0
M  V30 3166 C 299.083 1.39433 -2.66419 0
M  V30 3167 C 300.631 1.50927 -2.74208 0
M  V30 3168 C 301.106 1.99692 -4.12174 0
M  V30 3169 N 302.597 2.06947 -4.144 0
M  V30 3170 C 303.332 2.45871 -5.1801 0
M  V30 3171 N 302.828 2.83862 -6.31977 0
M  V30 3172 N 304.621 2.46092 -5.05366 0
M  V30 3173 H 296.772 -0.0803548 -2.12248 0
M  V30 3174 H 299.035 0.0266913 -0.947624 0
M  V30 3175 H 298.741 0.688925 -3.44887 0
M  V30 3176 H 298.615 2.36347 -2.93973 0
M  V30 3177 H 301.002 2.20561 -1.96053 0
M  V30 3178 H 301.083 0.523627 -2.50383 0
M  V30 3179 H 300.727 1.30649 -4.90809 0
M  V30 3180 H 300.657 2.99146 -4.33381 0
M  V30 3181 H 303.148 1.80232 -3.32152 0
M  V30 3182 H 303.461 3.12405 -7.0684 0
M  V30 3183 H 301.806 2.8159 -6.35399 0
M  V30 3184 H 304.997 2.1581 -4.15384 0
M  V30 3185 H 305.17 2.76102 -5.86235 0
M  V30 3186 N 298.576 1.31904 0.862503 0
M  V30 3187 C 299.824 1.21776 1.61292 0
M  V30 3188 C 300.145 -0.222413 1.93727 0
M  V30 3189 O 299.415 -1.1451 1.58947 0
M  V30 3190 H 297.995 0.447717 0.597962 0
M  V30 3191 H 300.657 1.65326 1.03215 0
M  V30 3192 H 299.753 1.7948 2.5533 0
M  V30 3193 N 300.054 -1.07777 1.14986 0
M  V30 3194 C 301.3 -1.80557 0.923422 0
M  V30 3195 C 301.633 -1.86298 -0.548337 0
M  V30 3196 O 300.908 -1.34354 -1.40639 0
M  V30 3197 C 301.191 -3.25839 1.53299 0
M  V30 3198 C 301.044 -3.28269 3.07505 0
M  V30 3199 C 302.363 -4.22991 1.21518 0
M  V30 3200 H 299.482 -0.655493 0.336894 0
M  V30 3201 H 302.124 -1.26144 1.42083 0
M  V30 3202 H 300.274 -3.72306 1.10999 0
M  V30 3203 H 301.946 -2.90079 3.58681 0
M  V30 3204 H 300.189 -2.67355 3.4162 0
M  V30 3205 H 300.86 -4.30691 3.45266 0
M  V30 3206 H 303.336 -3.84894 1.581 0
M  V30 3207 H 302.212 -5.22945 1.66793 0
M  V30 3208 H 302.473 -4.41904 0.131505 0
M  V30 3209 N 301.532 -0.945985 -1.26051 0
M  V30 3210 C 302.48 -0.450259 -2.282 0
M  V30 3211 C 303.474 0.47497 -1.62605 0
M  V30 3212 O 304.68 0.352653 -1.76512 0
M  V30 3213 H 301.055 -0.127081 -0.741184 0
M  V30 3214 H 303.026 -1.32422 -2.67408 0
M  V30 3215 C 301.775 0.26467 -3.46691 0
M  V30 3216 H 301.098 -0.438123 -3.97392 0
M  V30 3217 H 302.538 0.575678 -4.20074 0
M  V30 3218 C 300.997 1.48416 -3.02447 0
M  V30 3219 O 301.527 2.58227 -3.07704 0
M  V30 3220 N 299.733 1.34243 -2.57735 0
M  V30 3221 H 299.28 0.448994 -2.53657 0
M  V30 3222 H 299.238 2.15957 -2.28495 0
M  V30 3223 N 303.011 1.40521 -0.713556 0
M  V30 3224 C 303.941 2.33381 -0.0743864 0
M  V30 3225 C 304.922 1.52784 0.747735 0
M  V30 3226 O 306.107 1.81258 0.697071 0
M  V30 3227 C 303.237 3.36748 0.849598 0
M  V30 3228 C 302.191 4.27793 0.133247 0
M  V30 3229 C 301.517 5.21679 1.17281 0
M  V30 3230 C 302.817 5.12415 -1.01134 0
M  V30 3231 H 304.511 2.87081 -0.850007 0
M  V30 3232 H 302.057 1.38034 -0.410201 0
M  V30 3233 H 304.01 4.00648 1.30612 0
M  V30 3234 H 302.734 2.81439 1.65709 0
M  V30 3235 H 301.393 3.65342 -0.303426 0
M  V30 3236 H 301.041 4.62677 1.9733 0
M  V30 3237 H 300.741 5.83435 0.698397 0
M  V30 3238 H 302.265 5.88456 1.62947 0
M  V30 3239 H 303.679 5.69781 -0.634274 0
M  V30 3240 H 302.076 5.83203 -1.41399 0
M  V30 3241 H 303.146 4.48514 -1.84292 0
M  V30 3242 N 304.489 0.459591 1.5075 0
M  V30 3243 C 305.905 0.113092 1.59199 0
M  V30 3244 C 306.105 -1.37951 1.46874 0
M  V30 3245 O 305.161 -2.15168 1.32132 0
M  V30 3246 C 306.474 0.653043 2.93523 0
M  V30 3247 C 308.022 0.615449 3.0689 0
M  V30 3248 C 308.497 1.13275 4.43771 0
M  V30 3249 N 309.988 1.09167 4.50152 0
M  V30 3250 C 310.723 1.46256 5.54434 0
M  V30 3251 N 310.219 1.90739 6.66026 0
M  V30 3252 N 312.012 1.37932 5.44914 0
M  V30 3253 H 304.163 1.43049 1.57005 0
M  V30 3254 H 306.426 0.590861 0.741341 0
M  V30 3255 H 306.132 1.69822 3.07983 0
M  V30 3256 H 306.006 0.0902132 3.77092 0
M  V30 3257 H 308.393 -0.420793 2.92084 0
M  V30 3258 H 308.474 1.21495 2.25106 0
M  V30 3259 H 308.118 2.16757 4.59324 0
M  V30 3260 H 308.048 0.509576 5.24129 0
M  V30 3261 H 310.539 0.76528 3.7007 0
M  V30 3262 H 310.852 2.17218 7.41644 0
M  V30 3263 H 309.197 1.94683 6.67176 0
M  V30 3264 H 312.388 1.0303 4.56621 0
M  V30 3265 H 312.561 1.67164 6.26067 0
M  V30 3266 N 305.967 -1.56429 0.191757 0
M  V30 3267 C 307.216 -1.9666 -0.448088 0
M  V30 3268 C 307.529 -1.08136 -1.62991 0
M  V30 3269 O 308.735 -1.38135 -2.33733 0
M  V30 3270 C 307.191 -3.49753 -0.848585 0
M  V30 3271 C 306.799 -4.46935 0.308764 0
M  V30 3272 C 308.543 -3.9876 -1.4557 0
M  V30 3273 C 306.45 -5.91293 -0.112506 0
M  V30 3274 H 305.38 -0.734312 -0.171179 0
M  V30 3275 H 308.031 -1.81301 0.283242 0
M  V30 3276 H 306.413 -3.60604 -1.63649 0
M  V30 3277 H 307.587 -4.47813 1.08627 0
M  V30 3278 H 305.902 -4.08102 0.827158 0
M  V30 3279 H 308.499 -5.04086 -1.78328 0
M  V30 3280 H 308.842 -3.42875 -2.36099 0
M  V30 3281 H 309.375 -3.9101 -0.731836 0
M  V30 3282 H 306.114 -6.51097 0.758514 0
M  V30 3283 H 305.634 -5.93676 -0.854941 0
M  V30 3284 H 307.313 -6.44663 -0.549448 0
M  V30 3285 N 307.445 0.0818655 -1.57387 0
M  V30 3286 C 308.694 0.781681 -1.85937 0
M  V30 3287 C 309.007 1.79246 -0.782957 0
M  V30 3288 O 310.213 2.54112 -0.955987 0
M  V30 3289 C 308.669 1.44109 -3.29789 0
M  V30 3290 C 308.277 0.469396 -4.45534 0
M  V30 3291 C 310.021 2.12386 -3.67549 0
M  V30 3292 C 307.928 1.13415 -5.80423 0
M  V30 3293 H 306.858 0.295682 -0.693605 0
M  V30 3294 H 309.509 0.0348051 -1.83467 0
M  V30 3295 H 307.891 2.23588 -3.2684 0
M  V30 3296 H 309.065 -0.294856 -4.59856 0
M  V30 3297 H 307.38 -0.108383 -4.16259 0
M  V30 3298 H 309.977 2.62878 -4.65617 0
M  V30 3299 H 310.32 2.91877 -2.96839 0
M  V30 3300 H 310.853 1.39751 -3.72444 0
M  V30 3301 H 307.592 0.379771 -6.54399 0
M  V30 3302 H 307.112 1.8695 -5.69921 0
M  V30 3303 H 308.791 1.65686 -6.25426 0
M  V30 3304 N 308.923 1.53595 0.353017 0
M  V30 3305 C 309.886 1.80232 1.41594 0
M  V30 3306 C 310.886 0.673081 1.46035 0
M  V30 3307 O 312.076 0.941335 1.46576 0
M  V30 3308 C 309.208 1.93578 2.80607 0
M  V30 3309 H 310.401 2.75174 1.19244 0
M  V30 3310 H 307.954 1.44864 0.586872 0
M  V30 3311 H 308.689 1.00746 3.08254 0
M  V30 3312 H 308.474 2.75724 2.78781 0
M  V30 3313 H 309.964 2.15735 3.57558 0
M  V30 3314 N 310.401 -0.613514 1.45168 0
M  V30 3315 C 311.364 -1.7065 1.53007 0
M  V30 3316 C 312.364 -1.5548 0.410184 0
M  V30 3317 O 313.554 -1.60656 0.673455 0
M  V30 3318 C 310.686 -3.09875 1.42093 0
M  V30 3319 H 311.879 -1.65068 2.50385 0
M  V30 3320 H 309.432 -0.828728 1.32521 0
M  V30 3321 H 310.167 -3.21039 0.458769 0
M  V30 3322 H 309.952 -3.22293 2.23315 0
M  V30 3323 H 311.442 -3.895 1.50598 0
M  V30 3324 N 311.879 -1.3236 -0.855495 0
M  V30 3325 C 312.829 -1.17809 -1.95205 0
M  V30 3326 C 313.813 -0.0852319 -1.60674 0
M  V30 3327 O 315.005 -0.311651 -1.74235 0
M  V30 3328 C 312.134 -0.902437 -3.31226 0
M  V30 3329 C 311.22 -2.03695 -3.7198 0
M  V30 3330 N 311.611 -3.28544 -3.84568 0
M  V30 3331 C 309.909 -1.93993 -4.016 0
M  V30 3332 C 310.61 -4.02847 -4.19629 0
M  V30 3333 N 309.586 -3.31138 -4.31102 0
M  V30 3334 H 313.388 -2.12462 -2.0307 0
M  V30 3335 H 310.902 -1.24127 -1.0472 0
M  V30 3336 H 312.899 -0.77915 -4.09554 0
M  V30 3337 H 311.559 0.0357267 -3.2468 0
M  V30 3338 H 312.57 -3.6349 -3.68911 0
M  V30 3339 H 309.247 -1.07733 -4.03361 0
M  V30 3340 H 310.637 -5.10506 -4.36845 0
M  V30 3341 N 313.357 1.07166 -1.15556 0
M  V30 3342 C 314.267 2.17947 -0.868116 0
M  V30 3343 C 315.283 1.73297 0.156297 0
M  V30 3344 O 316.459 2.01392 -0.0182327 0
M  V30 3345 C 313.524 3.44789 -0.36355 0
M  V30 3346 C 312.585 4.03996 -1.45209 0
M  V30 3347 C 311.818 5.24783 -0.971508 0
M  V30 3348 O 312.041 5.70109 0.182194 0
M  V30 3349 O 310.975 5.75715 -1.75603 0
M  V30 3350 H 314.801 2.4503 -1.79427 0
M  V30 3351 H 312.386 1.16539 -0.934824 0
M  V30 3352 H 314.268 4.21307 -0.0887113 0
M  V30 3353 H 312.943 3.19253 0.534708 0
M  V30 3354 H 311.85 3.29009 -1.78056 0
M  V30 3355 H 313.183 4.33808 -2.32533 0
M  V30 3356 N 314.835 0.952656 1.25548 0
M  V30 3357 C 316.081 0.607272 1.93494 0
M  V30 3358 C 316.414 -0.853245 1.74452 0
M  V30 3359 O 315.689 -1.61194 1.08843 0
M  V30 3360 C 315.972 0.96435 3.46947 0
M  V30 3361 C 315.825 2.48045 3.75225 0
M  V30 3362 C 317.144 0.487987 4.37386 0
M  V30 3363 H 314.263 0.222096 0.702739 0
M  V30 3364 H 316.905 1.18895 1.48203 0
M  V30 3365 H 315.055 0.469361 3.85654 0
M  V30 3366 H 316.727 3.04905 3.46166 0
M  V30 3367 H 314.97 2.919 3.209 0
M  V30 3368 H 315.641 2.6808 4.82532 0
M  V30 3369 H 318.117 0.912558 4.0597 0
M  V30 3370 H 316.993 0.766547 5.43521 0
M  V30 3371 H 317.254 -0.612063 4.37843 0
M  V30 3372 N 316.313 -1.40141 0.720998 0
M  V30 3373 C 317.561 -2.0039 0.262323 0
M  V30 3374 C 317.882 -1.57469 -1.15015 0
M  V30 3375 O 317.152 -0.816582 -1.78069 0
M  V30 3376 H 315.732 -0.741063 0.093996 0
M  V30 3377 H 318.394 -1.71398 0.927835 0
M  V30 3378 H 317.49 -3.10658 0.299671 0
M  V30 3379 N 317.792 -0.46758 -1.50504 0
M  V30 3380 C 318.742 0.34698 -2.25344 0
M  V30 3381 C 319.726 0.964469 -1.2879 0
M  V30 3382 O 320.918 0.8776 -1.53711 0
M  V30 3383 C 318.047 1.43042 -3.1208 0
M  V30 3384 C 317.133 0.82084 -4.16081 0
M  V30 3385 N 317.524 -0.0567602 -5.05768 0
M  V30 3386 C 315.822 1.08517 -4.32597 0
M  V30 3387 C 316.523 -0.402343 -5.80307 0
M  V30 3388 N 315.499 0.221607 -5.43148 0
M  V30 3389 H 319.301 -0.329129 -2.92051 0
M  V30 3390 H 316.815 -0.281508 -1.59942 0
M  V30 3391 H 318.812 2.02712 -3.64299 0
M  V30 3392 H 317.472 2.10856 -2.46921 0
M  V30 3393 H 318.483 -0.425349 -5.1615 0
M  V30 3394 H 315.16 1.75855 -3.78657 0
M  V30 3395 H 316.55 -1.11834 -6.62528 0
M  V30 3396 N 319.27 1.56325 -0.20005 0
M  V30 3397 C 320.233 2.18084 0.705132 0
M  V30 3398 C 321.233 1.13666 1.1374 0
M  V30 3399 O 322.423 1.39023 1.04968 0
M  V30 3400 C 319.555 2.78689 1.96329 0
M  V30 3401 H 320.748 2.99435 0.167023 0
M  V30 3402 H 318.301 1.56221 0.0495725 0
M  V30 3403 H 319.036 2.0115 2.5438 0
M  V30 3404 H 318.821 3.55133 1.66202 0
M  V30 3405 H 320.311 3.26096 2.60866 0
M  V30 3406 N 320.748 -0.0735177 1.57428 0
M  V30 3407 C 321.678 -1.0879 2.06608 0
M  V30 3408 C 322.659 -1.40473 0.959237 0
M  V30 3409 O 323.844 -1.5013 1.23185 0
M  V30 3410 C 320.974 -2.40183 2.50857 0
M  V30 3411 C 319.928 -2.22858 3.65402 0
M  V30 3412 C 319.254 -3.59619 3.957 0
M  V30 3413 C 320.554 -1.65123 4.95511 0
M  V30 3414 H 322.248 -0.678673 2.91607 0
M  V30 3415 H 319.794 -0.325013 1.40284 0
M  V30 3416 H 321.747 -3.11437 2.83874 0
M  V30 3417 H 320.471 -2.83083 1.62885 0
M  V30 3418 H 319.13 -1.54045 3.32664 0
M  V30 3419 H 318.778 -4.00086 3.04861 0
M  V30 3420 H 318.478 -3.48866 4.72828 0
M  V30 3421 H 320.002 -4.32306 4.31212 0
M  V30 3422 H 321.416 -2.26241 5.26771 0
M  V30 3423 H 319.813 -1.65071 5.7695 0
M  V30 3424 H 320.883 -0.612559 4.81015 0
M  V30 3425 N 322.226 -1.5378 -0.344866 0
M  V30 3426 C 323.474 -1.70625 -1.08311 0
M  V30 3427 C 323.795 -0.471447 -1.89215 0
M  V30 3428 O 323.065 0.514616 -1.8902 0
M  V30 3429 H 321.645 -0.629058 -0.402859 0
M  V30 3430 H 324.307 -1.9103 -0.386459 0
M  V30 3431 H 323.403 -2.57656 -1.76124 0
M  V30 3432 N 323.704 0.605807 -1.45491 0
M  V30 3433 C 324.634 1.72709 -1.57143 0
M  V30 3434 C 325.615 1.6476 -0.422884 0
M  V30 3435 O 326.8 1.83132 -0.646247 0
M  V30 3436 C 323.93 3.11316 -1.53948 0
M  V30 3437 C 322.884 3.34077 -2.67537 0
M  V30 3438 C 322.21 4.72975 -2.49397 0
M  V30 3439 C 323.51 3.24158 -4.09535 0
M  V30 3440 H 325.204 1.63214 -2.51001 0
M  V30 3441 H 322.75 0.78379 -1.208 0
M  V30 3442 H 324.703 3.89557 -1.60696 0
M  V30 3443 H 323.427 3.21655 -0.566205 0
M  V30 3444 H 322.086 2.58227 -2.6022 0
M  V30 3445 H 321.734 4.8005 -1.50205 0
M  V30 3446 H 321.434 4.8916 -3.25571 0
M  V30 3447 H 322.958 5.53414 -2.58002 0
M  V30 3448 H 324.372 3.92271 -4.18086 0
M  V30 3449 H 322.769 3.51872 -4.86113 0
M  V30 3450 H 323.839 2.2157 -4.31317 0
M  V30 3451 N 325.182 1.32811 0.848464 0
M  V30 3452 C 326.43 1.23479 1.59991 0
M  V30 3453 C 326.751 -0.201853 1.93952 0
M  V30 3454 O 326.021 -1.12818 1.60153 0
M  V30 3455 H 324.601 0.454034 0.593179 0
M  V30 3456 H 327.263 1.66412 1.01455 0
M  V30 3457 H 326.359 1.82178 2.53412 0
M  V30 3458 N 326.66 -1.06551 1.16123 0
M  V30 3459 C 327.61 -2.12209 0.833736 0
M  V30 3460 C 328.594 -1.59825 -0.185656 0
M  V30 3461 O 329.786 -1.76994 0.0147906 0
M  V30 3462 C 326.915 -3.41674 0.333697 0
M  V30 3463 C 326.001 -4.00892 1.38372 0
M  V30 3464 N 326.392 -4.34256 2.59337 0
M  V30 3465 C 324.69 -4.28463 1.23836 0
M  V30 3466 C 325.391 -4.81291 3.26701 0
M  V30 3467 N 324.367 -4.80565 2.54083 0
M  V30 3468 H 328.169 -2.35849 1.75364 0
M  V30 3469 H 325.683 -1.24068 1.04789 0
M  V30 3470 H 327.68 -4.16822 0.0806918 0
M  V30 3471 H 326.34 -3.19475 -0.58017 0
M  V30 3472 H 327.351 -4.24687 2.96415 0
M  V30 3473 H 324.028 -4.15721 0.38504 0
M  V30 3474 H 325.418 -5.16332 4.29943 0
M  V30 3475 N 328.138 -0.959301 -1.25041 0
M  V30 3476 C 329.363 -0.633507 -1.97488 0
M  V30 3477 C 329.788 0.788555 -1.70773 0
M  V30 3478 O 329.146 1.53394 -0.966431 0
M  V30 3479 C 329.194 -0.904057 -3.49083 0
M  V30 3480 O 328.298 0.0147939 -4.12397 0
M  V30 3481 H 327.639 -0.240368 -0.618966 0
M  V30 3482 H 330.169 -1.28717 -1.59038 0
M  V30 3483 H 330.179 -0.832203 -3.99423 0
M  V30 3484 H 328.854 -1.94048 -3.67856 0
M  V30 3485 H 327.431 -0.109664 -3.72739 0
M  V30 3486 N 329.616 1.39756 -0.72842 0
M  V30 3487 C 331.032 1.5442 -0.403308 0
M  V30 3488 C 331.232 1.69694 1.08656 0
M  V30 3489 O 330.288 1.69373 1.87267 0
M  V30 3490 C 331.601 2.76555 -1.18058 0
M  V30 3491 C 333.149 2.90384 -1.16815 0
M  V30 3492 C 333.624 4.15449 -1.92785 0
M  V30 3493 N 335.115 4.22475 -1.89918 0
M  V30 3494 C 335.85 5.1818 -2.45514 0
M  V30 3495 N 335.346 6.19714 -3.09719 0
M  V30 3496 N 337.139 5.1035 -2.35584 0
M  V30 3497 H 329.29 1.28089 -1.69431 0
M  V30 3498 H 331.553 0.620327 -0.716867 0
M  V30 3499 H 331.259 2.7159 -2.23455 0
M  V30 3500 H 331.133 3.69033 -0.780662 0
M  V30 3501 H 333.52 2.94846 -0.12234 0
M  V30 3502 H 333.601 1.98988 -1.6074 0
M  V30 3503 H 333.245 4.11749 -2.97364 0
M  V30 3504 H 333.175 5.05877 -1.46272 0
M  V30 3505 H 335.666 3.49743 -1.43138 0
M  V30 3506 H 335.979 6.8919 -3.49625 0
M  V30 3507 H 334.324 6.20121 -3.13807 0
M  V30 3508 H 337.515 4.2996 -1.85072 0
M  V30 3509 H 337.688 5.84761 -2.79211 0
M  V30 3510 N 331.094 0.475555 1.50254 0
M  V30 3511 C 332.324 -0.0753399 2.06463 0
M  V30 3512 C 332.732 -1.33661 1.33908 0
M  V30 3513 O 332.075 -1.79219 0.403257 0
M  V30 3514 C 332.137 -0.424921 3.5698 0
M  V30 3515 C 331.801 0.734965 4.51051 0
M  V30 3516 C 332.798 1.61827 4.94073 0
M  V30 3517 C 330.483 0.926557 4.9368 0
M  V30 3518 C 332.477 2.67754 5.78434 0
M  V30 3519 C 330.164 1.98904 5.77824 0
M  V30 3520 C 331.162 2.8629 6.20103 0
M  V30 3521 O 330.85 3.90708 7.02568 0
M  V30 3522 H 330.582 0.00576308 0.675975 0
M  V30 3523 H 333.136 0.664662 1.94349 0
M  V30 3524 H 331.366 -1.21817 3.67012 0
M  V30 3525 H 333.055 -0.911422 3.95535 0
M  V30 3526 H 333.821 1.48196 4.61804 0
M  V30 3527 H 329.7 0.25584 4.6029 0
M  V30 3528 H 333.244 3.35992 6.11355 0
M  V30 3529 H 329.141 2.12541 6.09505 0
M  V30 3530 H 329.909 3.87751 7.20827 0
M  V30 3531 N 332.573 -1.56217 0.208337 0
M  V30 3532 C 333.798 -2.02782 -0.435222 0
M  V30 3533 C 334.223 -1.08738 -1.53485 0
M  V30 3534 O 333.581 -0.0731855 -1.81152 0
M  V30 3535 C 333.629 -3.47687 -0.956335 0
M  V30 3536 O 332.733 -3.56773 -2.06849 0
M  V30 3537 H 332.074 -0.656403 -0.100158 0
M  V30 3538 H 334.604 -2.02033 0.3231 0
M  V30 3539 H 334.614 -3.87745 -1.26955 0
M  V30 3540 H 333.289 -4.15624 -0.15143 0
M  V30 3541 H 331.866 -3.28597 -1.76292 0
M  V30 3542 N 334.051 0.0651679 -1.57465 0
M  V30 3543 C 334.983 1.10359 -2.00882 0
M  V30 3544 C 335.996 1.346 -0.915788 0
M  V30 3545 O 337.185 1.32723 -1.1936 0
M  V30 3546 C 334.285 2.45312 -2.33828 0
M  V30 3547 C 333.458 2.40934 -3.65061 0
M  V30 3548 C 332.517 3.58047 -3.85602 0
M  V30 3549 O 331.543 3.39175 -4.57109 0
M  V30 3550 N 332.745 4.78637 -3.28462 0
M  V30 3551 H 335.51 0.733807 -2.90578 0
M  V30 3552 H 333.071 0.253719 -1.599 0
M  V30 3553 H 335.063 3.22314 -2.44737 0
M  V30 3554 H 333.633 2.74267 -1.49988 0
M  V30 3555 H 332.853 1.49273 -3.64844 0
M  V30 3556 H 334.141 2.35117 -4.51218 0
M  V30 3557 H 333.539 4.96872 -2.70433 0
M  V30 3558 H 332.096 5.53127 -3.44809 0
M  V30 3559 N 335.529 1.53961 0.336706 0
M  V30 3560 C 336.492 1.81724 1.39675 0
M  V30 3561 C 337.492 0.688532 1.45313 0
M  V30 3562 O 338.682 0.956829 1.45569 0
M  V30 3563 C 335.814 1.96543 2.78538 0
M  V30 3564 H 337.007 2.76424 1.16318 0
M  V30 3565 H 334.56 1.45478 0.571474 0
M  V30 3566 H 335.295 1.0401 3.07168 0
M  V30 3567 H 335.08 2.78665 2.75841 0
M  V30 3568 H 336.57 2.19516 3.5525 0
M  V30 3569 N 337.007 -0.598083 1.45811 0
M  V30 3570 C 337.937 -1.71873 1.58057 0
M  V30 3571 C 338.918 -1.64533 0.431615 0
M  V30 3572 O 340.103 -1.82787 0.65595 0
M  V30 3573 C 337.233 -3.10495 1.55597 0
M  V30 3574 C 336.187 -3.32654 2.69305 0
M  V30 3575 C 335.513 -4.71646 2.51902 0
M  V30 3576 C 336.813 -3.21981 4.11248 0
M  V30 3577 H 338.507 -1.61881 2.51863 0
M  V30 3578 H 336.053 -0.777372 1.21214 0
M  V30 3579 H 338.006 -3.88699 1.6276 0
M  V30 3580 H 336.73 -3.2135 0.583255 0
M  V30 3581 H 335.389 -2.56843 2.61586 0
M  V30 3582 H 335.037 -4.79246 1.52748 0
M  V30 3583 H 334.737 -4.87426 3.2816 0
M  V30 3584 H 336.261 -5.52038 2.60933 0
M  V30 3585 H 337.675 -3.90049 4.20161 0
M  V30 3586 H 336.072 -3.49289 4.87972 0
M  V30 3587 H 337.142 -2.1928 4.32486 0
M  V30 3588 N 338.485 -1.33259 -0.841409 0
M  V30 3589 C 339.418 -1.1764 -1.95541 0
M  V30 3590 C 340.396 -0.072501 -1.62438 0
M  V30 3591 O 341.58 -0.23427 -1.87039 0
M  V30 3592 C 338.707 -0.803794 -3.29024 0
M  V30 3593 C 337.753 -1.91482 -3.81099 0
M  V30 3594 S 338.586 -3.52538 -4.03085 0
M  V30 3595 C 339.742 -3.17279 -5.39523 0
M  V30 3596 H 339.975 -2.11941 -2.08491 0
M  V30 3597 H 337.508 -1.18072 -0.9949 0
M  V30 3598 H 339.466 -0.595592 -4.06156 0
M  V30 3599 H 338.127 0.120574 -3.13868 0
M  V30 3600 H 337.32 -1.60742 -4.7768 0
M  V30 3601 H 336.922 -2.07956 -3.10854 0
M  V30 3602 H 339.214 -2.67946 -6.22263 0
M  V30 3603 H 340.157 -4.1293 -5.75234 0
M  V30 3604 H 340.565 -2.53943 -5.04156 0
M  V30 3605 N 339.963 1.05934 -1.16686 0
M  V30 3606 C 340.926 2.11669 -0.879144 0
M  V30 3607 C 341.926 1.60294 0.127445 0
M  V30 3608 O 343.116 1.7389 -0.103865 0
M  V30 3609 C 340.248 3.39438 -0.315425 0
M  V30 3610 H 341.441 2.38626 -1.81653 0
M  V30 3611 H 338.994 1.22058 -0.976299 0
M  V30 3612 H 339.729 3.18132 0.629468 0
M  V30 3613 H 339.514 3.78034 -1.04079 0
M  V30 3614 H 341.004 4.17391 -0.132189 0
M  V30 3615 N 341.441 0.965919 1.2453 0
M  V30 3616 C 342.852 0.665929 1.7442 0
M  V30 3617 C 343.203 -0.818407 1.78316 0
M  V30 3618 O 342.328 -1.64037 1.41141 0
M  V30 3619 C 342.923 1.20211 3.16757 0
M  V30 3620 C 341.482 0.952059 3.6416 0
M  V30 3621 C 340.629 1.33848 2.42858 0
M  V30 3622 H 343.58 1.14144 1.10258 0
M  V30 3623 H 343.601 0.567544 3.76244 0
M  V30 3624 H 343.113 2.28244 3.13889 0
M  V30 3625 H 341.214 -0.112821 3.72429 0
M  V30 3626 H 341.327 1.59645 4.51719 0
M  V30 3627 H 339.691 0.756864 2.43195 0
M  V30 3628 H 340.474 2.42827 2.42673 0
M  V30 3629 N 342.919 -1.39368 0.735821 0
M  V30 3630 C 344.165 -2.00794 0.284544 0
M  V30 3631 C 344.498 -1.58255 -1.12557 0
M  V30 3632 O 343.773 -0.811819 -1.76748 0
M  V30 3633 C 344.056 -3.58011 0.387337 0
M  V30 3634 C 343.909 -4.10566 1.83728 0
M  V30 3635 C 345.228 -4.395 -0.22975 0
M  V30 3636 H 342.347 -0.729501 0.104866 0
M  V30 3637 H 344.989 -1.65564 0.93213 0
M  V30 3638 H 343.139 -3.88154 -0.164006 0
M  V30 3639 H 344.811 -3.91139 2.44556 0
M  V30 3640 H 343.054 -3.64095 2.35833 0
M  V30 3641 H 343.725 -5.19702 1.86047 0
M  V30 3642 H 346.201 -4.15406 0.240257 0
M  V30 3643 H 345.077 -5.48752 -0.127485 0
M  V30 3644 H 345.338 -4.22062 -1.3159 0
M  V30 3645 N 344.397 -0.483516 -1.5 0
M  V30 3646 C 345.627 0.0643896 -2.065 0
M  V30 3647 C 346.035 1.32949 -1.34615 0
M  V30 3648 O 345.378 1.79003 -0.412756 0
M  V30 3649 C 345.44 0.405983 -3.572 0
M  V30 3650 C 345.104 -0.758875 -4.50655 0
M  V30 3651 C 346.101 -1.64445 -4.93208 0
M  V30 3652 C 343.786 -0.952725 -4.93182 0
M  V30 3653 C 345.78 -2.70818 -5.77006 0
M  V30 3654 C 343.467 -2.01966 -5.76761 0
M  V30 3655 C 344.465 -2.89574 -6.18576 0
M  V30 3656 O 344.153 -3.94429 -7.00486 0
M  V30 3657 H 343.885 -0.00934786 -0.675935 0
M  V30 3658 H 346.439 -0.674959 -1.93993 0
M  V30 3659 H 344.669 1.19869 -3.67652 0
M  V30 3660 H 346.358 0.890433 -3.96013 0
M  V30 3661 H 347.124 -1.50643 -4.61012 0
M  V30 3662 H 343.003 -0.280247 -4.60147 0
M  V30 3663 H 346.547 -3.3923 -6.09565 0
M  V30 3664 H 342.444 -2.1577 -6.0837 0
M  V30 3665 H 343.212 -3.91568 -7.1876 0
M  V30 3666 N 345.875 1.56104 -0.216619 0
M  V30 3667 C 346.785 2.23694 0.706982 0
M  V30 3668 C 347.801 1.24295 1.21765 0
M  V30 3669 O 348.977 1.57094 1.2603 0
M  V30 3670 C 346.042 2.8998 1.90033 0
M  V30 3671 C 345.103 4.04708 1.43213 0
M  V30 3672 C 344.336 4.67824 2.56859 0
M  V30 3673 O 344.559 4.29913 3.74874 0
M  V30 3674 O 343.493 5.56905 2.28343 0
M  V30 3675 H 347.319 3.03272 0.161235 0
M  V30 3676 H 344.904 1.49394 0.0136177 0
M  V30 3677 H 346.786 3.31837 2.59735 0
M  V30 3678 H 345.461 2.13365 2.43428 0
M  V30 3679 H 344.368 3.6743 0.70327 0
M  V30 3680 H 345.701 4.83051 0.944615 0
M  V30 3681 N 347.353 -0.0568162 1.57498 0
M  V30 3682 C 348.601 -0.751617 1.87604 0
M  V30 3683 C 348.922 -1.77351 0.81066 0
M  V30 3684 O 348.192 -1.95254 -0.159018 0
M  V30 3685 H 346.772 -0.280583 0.692302 0
M  V30 3686 H 349.434 -0.0293483 1.94878 0
M  V30 3687 H 348.53 -1.25852 2.856 0
M  V30 3688 N 348.832 -1.54138 -0.328536 0
M  V30 3689 C 350.062 -1.75807 -1.08516 0
M  V30 3690 C 350.47 -0.50428 -1.82356 0
M  V30 3691 O 349.813 0.534451 -1.75754 0
M  V30 3692 C 349.875 -2.89423 -2.13248 0
M  V30 3693 C 349.539 -4.28504 -1.5885 0
M  V30 3694 C 350.536 -5.09536 -1.03289 0
M  V30 3695 C 348.221 -4.75034 -1.63243 0
M  V30 3696 C 350.215 -6.35206 -0.52845 0
M  V30 3697 C 347.902 -6.00672 -1.12411 0
M  V30 3698 C 348.9 -6.80592 -0.573062 0
M  V30 3699 O 348.588 -8.03867 -0.0723692 0
M  V30 3700 H 348.32 -0.590633 -0.328829 0
M  V30 3701 H 350.874 -2.01819 -0.381868 0
M  V30 3702 H 349.104 -2.5897 -2.87178 0
M  V30 3703 H 350.793 -2.98921 -2.74592 0
M  V30 3704 H 351.559 -4.74745 -0.99206 0
M  V30 3705 H 347.438 -4.12875 -2.05074 0
M  V30 3706 H 350.982 -6.97532 -0.0976774 0
M  V30 3707 H 346.879 -6.34955 -1.162 0
M  V30 3708 H 347.647 -8.18283 -0.188258 0
M  V30 3709 N 350.31 0.590341 -1.46126 0
M  V30 3710 C 351.726 0.912917 -1.30912 0
M  V30 3711 C 351.926 1.99616 -0.274893 0
M  V30 3712 O 350.982 2.50397 0.325197 0
M  V30 3713 C 352.295 1.3375 -2.69317 0
M  V30 3714 C 353.843 1.45077 -2.77348 0
M  V30 3715 C 354.318 1.90904 -4.16317 0
M  V30 3716 N 355.809 1.9811 -4.18696 0
M  V30 3717 C 356.544 2.34828 -5.23109 0
M  V30 3718 N 356.04 2.70393 -6.37856 0
M  V30 3719 N 357.833 2.35317 -5.10473 0
M  V30 3720 H 349.984 -0.125358 -2.1203 0
M  V30 3721 H 352.247 0.00658481 -0.947977 0
M  V30 3722 H 351.953 0.615614 -3.4627 0
M  V30 3723 H 351.827 2.30058 -2.9892 0
M  V30 3724 H 354.214 2.16353 -2.00687 0
M  V30 3725 H 354.295 0.4704 -2.51438 0
M  V30 3726 H 353.939 1.20209 -4.9347 0
M  V30 3727 H 353.869 2.89886 -4.39629 0
M  V30 3728 H 356.36 1.73146 -3.359 0
M  V30 3729 H 356.673 2.97341 -7.13308 0
M  V30 3730 H 355.018 2.68048 -6.41229 0
M  V30 3731 H 358.209 2.0695 -4.19868 0
M  V30 3732 H 358.382 2.63605 -5.9196 0
M  V30 3733 N 351.788 1.33704 0.83433 0
M  V30 3734 C 353.199 1.22813 1.4062 0
M  V30 3735 C 353.55 -0.151107 1.95617 0
M  V30 3736 O 352.675 -1.05092 1.89168 0
M  V30 3737 C 353.27 2.22355 2.55624 0
M  V30 3738 C 351.829 2.1529 3.08751 0
M  V30 3739 C 350.976 2.09589 1.8157 0
M  V30 3740 H 353.927 1.45236 0.639702 0
M  V30 3741 H 353.948 1.83391 3.33389 0
M  V30 3742 H 353.46 3.22728 2.15566 0
M  V30 3743 H 351.561 1.18235 3.53343 0
M  V30 3744 H 351.674 3.06038 3.68616 0
M  V30 3745 H 350.038 1.55134 2.02004 0
M  V30 3746 H 350.821 3.11777 1.43701 0
M  V30 3747 N 353.266 -1.05314 1.17247 0
M  V30 3748 C 354.216 -2.11313 0.856196 0
M  V30 3749 C 355.2 -1.60013 -0.168694 0
M  V30 3750 O 356.392 -1.76968 0.0335624 0
M  V30 3751 C 353.521 -3.41301 0.369917 0
M  V30 3752 C 352.607 -3.99401 1.42616 0
M  V30 3753 N 352.998 -4.31481 2.63928 0
M  V30 3754 C 351.296 -4.27126 1.28373 0
M  V30 3755 C 351.997 -4.77799 3.31787 0
M  V30 3756 N 350.973 -4.77843 2.59166 0
M  V30 3757 H 354.775 -2.33976 1.77856 0
M  V30 3758 H 352.289 -1.2295 1.06099 0
M  V30 3759 H 354.286 -4.16713 0.124897 0
M  V30 3760 H 352.946 -3.20072 -0.546253 0
M  V30 3761 H 353.957 -4.21519 3.00902 0
M  V30 3762 H 350.634 -4.15289 0.429111 0
M  V30 3763 H 352.024 -5.11743 4.35395 0
M  V30 3764 N 354.744 -0.972509 -1.24016 0
M  V30 3765 C 355.991 -0.637034 -1.92219 0
M  V30 3766 C 356.319 0.828418 -1.75976 0
M  V30 3767 O 355.574 1.61206 -1.10955 0
M  V30 3768 C 355.873 -0.963694 -3.44162 0
M  V30 3769 C 355.539 -2.41807 -3.80579 0
M  V30 3770 C 354.201 -2.81556 -3.9023 0
M  V30 3771 C 356.553 -3.36172 -3.98293 0
M  V30 3772 C 353.881 -4.14702 -4.15017 0
M  V30 3773 C 356.233 -4.68952 -4.24578 0
M  V30 3774 C 354.897 -5.08472 -4.32449 0
M  V30 3775 H 354.167 -0.233107 -0.703379 0
M  V30 3776 H 356.814 -1.2249 -1.47202 0
M  V30 3777 H 355.119 -0.29365 -3.90698 0
M  V30 3778 H 356.816 -0.682449 -3.9515 0
M  V30 3779 H 353.406 -2.09988 -3.73635 0
M  V30 3780 H 357.59 -3.06644 -3.90234 0
M  V30 3781 H 352.846 -4.4494 -4.19331 0
M  V30 3782 H 357.02 -5.42037 -4.37229 0
M  V30 3783 H 354.647 -6.11665 -4.51409 0
M  V30 3784 N 356.222 1.38976 -0.743202 0
M  V30 3785 C 357.169 2.30544 -0.10861 0
M  V30 3786 C 358.139 1.49642 0.720869 0
M  V30 3787 O 359.324 1.78304 0.679142 0
M  V30 3788 C 356.464 3.36018 0.786496 0
M  V30 3789 C 355.577 4.31963 -0.0564849 0
M  V30 3790 C 354.712 5.24506 0.840657 0
M  V30 3791 C 353.751 6.121 -0.00658363 0
M  V30 3792 N 352.888 6.96973 0.846943 0
M  V30 3793 H 357.728 2.8424 -0.895088 0
M  V30 3794 H 355.265 1.3995 -0.453048 0
M  V30 3795 H 357.223 3.95768 1.31999 0
M  V30 3796 H 355.853 2.83758 1.53887 0
M  V30 3797 H 354.905 3.73763 -0.707492 0
M  V30 3798 H 356.217 4.93703 -0.711229 0
M  V30 3799 H 355.371 5.89322 1.4417 0
M  V30 3800 H 354.11 4.63107 1.52916 0
M  V30 3801 H 353.115 5.46289 -0.620366 0
M  V30 3802 H 354.34 6.75565 -0.691992 0
M  V30 3803 H 352.286 6.38133 1.52059 0
M  V30 3804 H 352.203 7.5559 0.248864 0
M  V30 3805 H 353.471 7.6621 1.43328 0
M  V30 3806 N 357.7 0.491464 1.49741 0
M  V30 3807 C 358.63 -0.28154 2.31796 0
M  V30 3808 C 359.611 -0.971473 1.3963 0
M  V30 3809 O 360.796 -0.964719 1.68543 0
M  V30 3810 C 357.926 -1.35203 3.19902 0
M  V30 3811 C 356.88 -0.782529 4.20786 0
M  V30 3812 C 356.206 -1.95283 4.97764 0
M  V30 3813 C 357.506 0.21999 5.21837 0
M  V30 3814 H 359.2 0.403355 2.96671 0
M  V30 3815 H 356.746 0.195425 1.42668 0
M  V30 3816 H 358.699 -1.90045 3.76113 0
M  V30 3817 H 357.423 -2.06598 2.52953 0
M  V30 3818 H 356.082 -0.255928 3.65706 0
M  V30 3819 H 355.73 -2.65423 4.2727 0
M  V30 3820 H 355.43 -1.57789 5.66018 0
M  V30 3821 H 356.954 -2.50577 5.56816 0
M  V30 3822 H 358.368 -0.23996 5.72798 0
M  V30 3823 H 356.765 0.51026 5.97927 0
M  V30 3824 H 357.835 1.13911 4.7133 0
M  V30 3825 N 359.178 -1.55987 0.224894 0
M  V30 3826 C 360.128 -2.17076 -0.697296 0
M  V30 3827 C 361.112 -1.12006 -1.15514 0
M  V30 3828 O 362.304 -1.37985 -1.10857 0
M  V30 3829 C 359.433 -2.85679 -1.90374 0
M  V30 3830 C 358.519 -3.97977 -1.46543 0
M  V30 3831 N 358.91 -5.00359 -0.739909 0
M  V30 3832 C 357.208 -4.10128 -1.75245 0
M  V30 3833 C 357.909 -5.79407 -0.515939 0
M  V30 3834 N 356.885 -5.32892 -1.07364 0
M  V30 3835 H 360.687 -2.93592 -0.134594 0
M  V30 3836 H 358.201 -1.62379 0.0262885 0
M  V30 3837 H 360.198 -3.27857 -2.57518 0
M  V30 3838 H 358.858 -2.1066 -2.47088 0
M  V30 3839 H 359.869 -5.16412 -0.392253 0
M  V30 3840 H 356.546 -3.46263 -2.33255 0
M  V30 3841 H 357.936 -6.71872 0.0617349 0
M  V30 3842 N 360.656 0.0484629 -1.57525 0
M  V30 3843 C 362.067 0.597486 -1.76881 0
M  V30 3844 C 362.418 1.76664 -0.853475 0
M  V30 3845 O 361.543 2.16357 -0.0433656 0
M  V30 3846 C 362.138 1.09066 -3.20765 0
M  V30 3847 C 360.697 1.58535 -3.41385 0
M  V30 3848 C 359.844 0.514868 -2.72478 0
M  V30 3849 H 362.795 -0.177758 -1.57701 0
M  V30 3850 H 362.816 1.95875 -3.2621 0
M  V30 3851 H 362.328 0.239521 -3.8736 0
M  V30 3852 H 360.429 2.45898 -2.79937 0
M  V30 3853 H 360.542 1.64622 -4.49929 0
M  V30 3854 H 358.906 0.965407 -2.35695 0
M  V30 3855 H 359.689 -0.32648 -3.41744 0
M  V30 3856 N 362.134 1.5431 0.320358 0
M  V30 3857 C 363.411 1.63322 1.07635 0
M  V30 3858 C 363.791 0.46912 2.05821 0
M  V30 3859 O 363.139 -0.536274 2.22118 0
M  V30 3860 C 363.349 3.00465 1.77544 0
M  V30 3861 C 364.697 3.56621 2.30449 0
M  V30 3862 O 365.721 3.02791 1.87606 0
M  V30 3863 O 364.58 4.5083 3.08892 0
M  V30 3864 H 361.674 0.661502 0.496331 0
M  V30 3865 H 364.22 1.66656 0.319992 0
M  V30 3866 H 362.992 3.76629 1.06143 0
M  V30 3867 H 362.615 3.00824 2.59982 0
M  V30 3868 N 363.613 -0.582584 1.46437 0
M  V30 3869 C 364.89 -1.34276 1.4223 0
M  V30 3870 C 365.27 -2.10835 0.10583 0
M  V30 3871 O 364.618 -2.09485 -0.912596 0
M  V30 3872 C 364.828 -2.26865 2.65204 0
M  V30 3873 C 366.176 -2.88691 3.11356 0
M  V30 3874 O 367.2 -2.37178 2.65753 0
M  V30 3875 O 366.059 -3.82255 3.90568 0
M  V30 3876 H 363.153 -0.603326 0.565621 0
M  V30 3877 H 365.699 -0.603591 1.58603 0
M  V30 3878 H 364.471 -1.69724 3.52576 0
M  V30 3879 H 364.094 -3.08122 2.5129 0
M  V30 3880 N 365.091 -1.34144 -0.827227 0
M  V30 3881 C 366.337 -1.26446 -1.58554 0
M  V30 3882 C 366.67 0.1664 -1.93486 0
M  V30 3883 O 365.945 1.1107 -1.59667 0
M  V30 3884 C 366.228 -2.15111 -2.8879 0
M  V30 3885 C 366.081 -3.66712 -2.60465 0
M  V30 3886 C 367.4 -2.03311 -3.90324 0
M  V30 3887 H 364.519 -0.46067 -0.575284 0
M  V30 3888 H 367.161 -1.64356 -0.953269 0
M  V30 3889 H 365.311 -1.8291 -3.42748 0
M  V30 3890 H 366.983 -4.09259 -2.1285 0
M  V30 3891 H 365.226 -3.88014 -1.93978 0
M  V30 3892 H 365.897 -4.24112 -3.53317 0
M  V30 3893 H 368.373 -2.31574 -3.45706 0
M  V30 3894 H 367.249 -2.67582 -4.79261 0
M  V30 3895 H 367.51 -1.00879 -4.30437 0
M  V30 3896 N 366.569 1.04691 -1.17803 0
M  V30 3897 C 367.532 2.10724 -0.901545 0
M  V30 3898 C 368.532 1.6042 0.110437 0
M  V30 3899 O 369.722 1.7377 -0.122303 0
M  V30 3900 C 366.854 3.39084 -0.351409 0
M  V30 3901 H 368.047 2.36686 -1.84174 0
M  V30 3902 H 365.6 1.21015 -0.98919 0
M  V30 3903 H 366.335 3.18782 0.59569 0
M  V30 3904 H 366.12 3.76909 -1.08083 0
M  V30 3905 H 367.61 4.17227 -0.176451 0
M  V30 3906 N 368.047 0.979072 1.23499 0
M  V30 3907 C 369.295 0.645941 1.91499 0
M  V30 3908 C 369.616 -0.822948 1.76784 0
M  V30 3909 O 368.886 -1.58854 1.14639 0
M  V30 3910 H 367.466 0.235919 0.708767 0
M  V30 3911 H 370.128 1.2426 1.50152 0
M  V30 3912 H 369.224 0.896411 2.9895 0
M  V30 3913 N 369.525 -1.3858 0.750561 0
M  V30 3914 C 370.774 -1.99424 0.302172 0
M  V30 3915 C 371.087 -1.60254 -1.12152 0
M  V30 3916 O 372.293 -2.14046 -1.67023 0
M  V30 3917 C 370.749 -3.56558 0.489307 0
M  V30 3918 C 370.357 -4.04682 1.92189 0
M  V30 3919 C 372.101 -4.24374 0.103478 0
M  V30 3920 C 370.008 -5.54446 2.05775 0
M  V30 3921 H 368.938 -0.746046 0.10923 0
M  V30 3922 H 371.589 -1.58383 0.92667 0
M  V30 3923 H 369.971 -3.95472 -0.204329 0
M  V30 3924 H 371.145 -3.77065 2.64875 0
M  V30 3925 H 369.46 -3.4958 2.26236 0
M  V30 3926 H 372.057 -5.34384 0.183787 0
M  V30 3927 H 372.4 -4.05468 -0.943481 0
M  V30 3928 H 372.933 -3.90688 0.748854 0
M  V30 3929 H 369.672 -5.78252 3.08714 0
M  V30 3930 H 369.192 -5.83816 1.37546 0
M  V30 3931 H 370.871 -6.20099 1.84626 0
M  V30 3932 N 371.003 -0.499398 -1.49478 0
M  V30 3933 C 371.935 0.316575 -2.27003 0
M  V30 3934 C 372.948 0.932047 -1.33479 0
M  V30 3935 O 374.137 0.815658 -1.58774 0
M  V30 3936 C 371.237 1.46055 -3.05812 0
M  V30 3937 C 370.41 0.952679 -4.26899 0
M  V30 3938 C 369.469 1.97407 -4.87767 0
M  V30 3939 O 368.495 1.54326 -5.4788 0
M  V30 3940 N 369.697 3.30436 -4.77276 0
M  V30 3941 H 372.462 -0.348168 -2.97671 0
M  V30 3942 H 370.023 -0.33185 -1.58463 0
M  V30 3943 H 372.015 2.14135 -3.43407 0
M  V30 3944 H 370.585 2.02948 -2.37762 0
M  V30 3945 H 369.805 0.0968248 -3.94081 0
M  V30 3946 H 371.093 0.59174 -5.05347 0
M  V30 3947 H 370.491 3.68126 -4.29534 0
M  V30 3948 H 369.048 3.94235 -5.19059 0
M  V30 3949 N 372.481 1.55866 -0.233164 0
M  V30 3950 C 373.444 2.1953 0.658715 0
M  V30 3951 C 374.444 1.16053 1.11303 0
M  V30 3952 O 375.634 1.41218 1.01996 0
M  V30 3953 C 372.766 2.82791 1.90373 0
M  V30 3954 H 373.959 2.99721 0.10347 0
M  V30 3955 H 371.512 1.56291 0.0164245 0
M  V30 3956 H 372.247 2.06501 2.50056 0
M  V30 3957 H 372.032 3.58578 1.58632 0
M  V30 3958 H 373.522 3.31556 2.53891 0
M  V30 3959 N 373.959 -0.0401083 1.57549 0
M  V30 3960 C 374.889 -1.04384 2.08869 0
M  V30 3961 C 375.87 -1.38407 0.988817 0
M  V30 3962 O 377.055 -1.47483 1.26342 0
M  V30 3963 C 374.185 -2.34808 2.55895 0
M  V30 3964 C 373.139 -2.15057 3.70047 0
M  V30 3965 C 372.465 -3.51145 4.03239 0
M  V30 3966 C 373.765 -1.54576 4.98902 0
M  V30 3967 H 375.459 -0.616666 2.92981 0
M  V30 3968 H 373.005 -0.295184 1.40942 0
M  V30 3969 H 374.958 -3.05346 2.90417 0
M  V30 3970 H 373.682 -2.79565 1.68853 0
M  V30 3971 H 372.341 -1.46954 3.35857 0
M  V30 3972 H 371.989 -3.93529 3.13279 0
M  V30 3973 H 371.689 -3.38758 4.80122 0
M  V30 3974 H 373.213 -4.23062 4.40285 0
M  V30 3975 H 374.627 -2.15017 5.31451 0
M  V30 3976 H 373.024 -1.52796 5.80322 0
M  V30 3977 H 374.094 -0.51039 4.82206 0
M  V30 3978 N 375.437 -1.54477 -0.31217 0
M  V30 3979 C 376.667 -1.76948 -1.06645 0
M  V30 3980 C 377.075 -0.523593 -1.81811 0
M  V30 3981 O 376.418 0.51578 -1.76311 0
M  V30 3982 C 376.48 -2.91668 -2.10166 0
M  V30 3983 C 376.144 -4.30165 -1.54296 0
M  V30 3984 C 377.141 -5.10603 -0.978793 0
M  V30 3985 C 374.826 -4.76738 -1.58196 0
M  V30 3986 C 376.82 -6.3573 -0.461048 0
M  V30 3987 C 374.507 -6.01831 -1.06034 0
M  V30 3988 C 375.505 -6.81161 -0.500844 0
M  V30 3989 O 375.193 -8.03899 0.0128958 0
M  V30 3990 H 374.925 -0.594088 -0.322546 0
M  V30 3991 H 377.479 -2.02213 -0.360441 0
M  V30 3992 H 375.709 -2.62001 -2.84416 0
M  V30 3993 H 377.398 -3.01817 -2.71406 0
M  V30 3994 H 378.164 -4.75771 -0.941651 0
M  V30 3995 H 374.043 -4.15027 -2.00683 0
M  V30 3996 H 377.587 -6.97596 -0.0236894 0
M  V30 3997 H 373.484 -6.36152 -1.09459 0
M  V30 3998 H 374.252 -8.18437 -0.101457 0
M  V30 3999 N 376.915 0.57481 -1.46744 0
M  V30 4000 C 378.163 1.33009 -1.52161 0
M  V30 4001 C 378.484 1.94185 -0.178092 0
M  V30 4002 O 377.754 1.7899 0.796196 0
M  V30 4003 H 376.334 0.493873 -0.560445 0
M  V30 4004 H 378.996 0.672589 -1.82927 0
M  V30 4005 H 378.092 2.13273 -2.27862 0
M  V30 4006 N 378.394 1.34581 0.820102 0
M  V30 4007 C 379.341 1.2639 1.93117 0
M  V30 4008 C 380.311 0.138554 1.65521 0
M  V30 4009 O 381.496 0.320004 1.88097 0
M  V30 4010 C 378.636 1.02812 3.29429 0
M  V30 4011 C 377.749 2.24146 3.693 0
M  V30 4012 C 376.884 1.93829 4.94574 0
M  V30 4013 C 375.923 3.1129 5.27034 0
M  V30 4014 N 375.06 2.80838 6.43486 0
M  V30 4015 H 379.9 2.21408 1.99455 0
M  V30 4016 H 377.437 1.10077 0.975784 0
M  V30 4017 H 379.395 0.871788 4.0799 0
M  V30 4018 H 378.025 0.114612 3.22596 0
M  V30 4019 H 377.077 2.50691 2.86109 0
M  V30 4020 H 378.389 3.11899 3.89257 0
M  V30 4021 H 377.543 1.74948 5.80929 0
M  V30 4022 H 376.282 1.03341 4.76626 0
M  V30 4023 H 375.287 3.30764 4.39175 0
M  V30 4024 H 376.512 4.02561 5.4692 0
M  V30 4025 H 374.458 1.92929 6.26988 0
M  V30 4026 H 374.375 3.62123 6.63629 0
M  V30 4027 H 375.643 2.65467 7.32903 0
M  V30 4028 N 379.872 -1.04064 1.18357 0
M  V30 4029 C 380.819 -2.12077 0.910603 0
M  V30 4030 C 381.789 -1.65421 -0.15 0
M  V30 4031 O 382.974 -1.90797 -0.0103614 0
M  V30 4032 C 380.114 -3.42252 0.442472 0
M  V30 4033 C 379.227 -4.0252 1.5685 0
M  V30 4034 C 378.362 -5.20657 1.05309 0
M  V30 4035 C 377.401 -5.72955 2.1538 0
M  V30 4036 N 376.538 -6.8238 1.65233 0
M  V30 4037 H 381.378 -2.34764 1.83548 0
M  V30 4038 H 378.915 -1.15157 0.915279 0
M  V30 4039 H 380.873 -4.16921 0.152534 0
M  V30 4040 H 379.503 -3.19712 -0.445428 0
M  V30 4041 H 378.555 -3.25178 1.97391 0
M  V30 4042 H 379.867 -4.37362 2.39824 0
M  V30 4043 H 379.021 -6.0244 0.717677 0
M  V30 4044 H 377.76 -4.87318 0.19293 0
M  V30 4045 H 376.765 -4.89793 2.49766 0
M  V30 4046 H 377.99 -6.08337 3.01832 0
M  V30 4047 H 375.936 -6.50917 0.815064 0
M  V30 4048 H 375.853 -7.16286 2.41805 0
M  V30 4049 H 377.121 -7.67788 1.34619 0
M  V30 4050 N 381.35 -0.985608 -1.22978 0
M  V30 4051 C 382.575 -0.675254 -1.961 0
M  V30 4052 C 383 0.752154 -1.72407 0
M  V30 4053 O 382.358 1.5131 -0.998751 0
M  V30 4054 C 382.406 -0.977899 -3.47087 0
M  V30 4055 O 381.51 -0.072685 -4.12336 0
M  V30 4056 H 380.851 -0.253443 -0.613728 0
M  V30 4057 H 383.381 -1.32061 -1.56272 0
M  V30 4058 H 383.391 -0.916739 -3.97567 0
M  V30 4059 H 382.066 -2.01807 -3.63657 0
M  V30 4060 H 380.643 -0.188703 -3.72422 0
M  V30 4061 N 382.828 1.3818 -0.7579 0
M  V30 4062 C 384.239 1.82726 -0.383134 0
M  V30 4063 C 384.59 1.63214 1.08884 0
M  V30 4064 O 383.715 1.13566 1.84205 0
M  V30 4065 C 384.31 3.31728 -0.688631 0
M  V30 4066 C 382.869 3.74606 -0.367091 0
M  V30 4067 C 382.016 2.60896 -0.939599 0
M  V30 4068 H 384.967 1.26847 -0.953699 0
M  V30 4069 H 384.988 3.80487 0.0316492 0
M  V30 4070 H 384.5 3.45898 -1.76001 0
M  V30 4071 H 382.601 3.66013 0.697532 0
M  V30 4072 H 382.714 4.71215 -0.865658 0
M  V30 4073 H 381.078 2.52075 -0.3647 0
M  V30 4074 H 381.861 2.77864 -2.0161 0
M  V30 4075 N 384.306 0.507319 1.49211 0
M  V30 4076 C 385.552 -0.0350047 2.0277 0
M  V30 4077 C 385.885 -1.3606 1.38569 0
M  V30 4078 O 385.16 -1.87321 0.523542 0
M  V30 4079 C 385.443 -0.180916 3.59645 0
M  V30 4080 C 385.296 1.16825 4.34364 0
M  V30 4081 C 386.615 -0.918558 4.30407 0
M  V30 4082 H 383.734 -0.0112473 0.736914 0
M  V30 4083 H 386.376 0.659956 1.7817 0
M  V30 4084 H 384.526 -0.772826 3.80736 0
M  V30 4085 H 386.198 1.79952 4.24753 0
M  V30 4086 H 384.441 1.75594 3.96673 0
M  V30 4087 H 385.112 1.01939 5.42506 0
M  V30 4088 H 387.588 -0.41649 4.1401 0
M  V30 4089 H 386.464 -0.989505 5.39907 0
M  V30 4090 H 386.725 -1.96373 3.96093 0
M  V30 4091 N 385.784 -1.5574 0.241426 0
M  V30 4092 C 387.033 -1.97986 -0.385295 0
M  V30 4093 C 387.346 -1.13267 -1.59468 0
M  V30 4094 O 388.552 -1.45501 -2.2922 0
M  V30 4095 C 387.008 -3.52275 -0.736884 0
M  V30 4096 C 386.616 -4.45726 0.450796 0
M  V30 4097 C 388.36 -4.03189 -1.3281 0
M  V30 4098 C 386.267 -5.91352 0.0756662 0
M  V30 4099 H 385.197 -0.739386 -0.147731 0
M  V30 4100 H 387.848 -1.80308 0.340779 0
M  V30 4101 H 386.23 -3.65628 -1.52094 0
M  V30 4102 H 387.404 -4.44131 1.22819 0
M  V30 4103 H 385.719 -4.05264 0.956573 0
M  V30 4104 H 388.316 -5.09505 -1.62201 0
M  V30 4105 H 388.659 -3.50212 -2.25071 0
M  V30 4106 H 389.192 -3.93141 -0.607069 0
M  V30 4107 H 385.931 -6.48354 0.965272 0
M  V30 4108 H 385.451 -5.96095 -0.665635 0
M  V30 4109 H 387.13 -6.46084 -0.344075 0
M  V30 4110 N 387.262 0.0317525 -1.57568 0
M  V30 4111 C 388.678 0.38735 -1.54828 0
M  V30 4112 C 388.878 1.7677 -0.967187 0
M  V30 4113 O 387.934 2.45581 -0.587063 0
M  V30 4114 C 389.247 0.291667 -2.99282 0
M  V30 4115 C 390.795 0.368946 -3.10818 0
M  V30 4116 C 391.27 0.302741 -4.56998 0
M  V30 4117 N 392.761 0.361617 -4.61786 0
M  V30 4118 C 393.496 0.333238 -5.72431 0
M  V30 4119 N 392.992 0.257308 -6.92322 0
M  V30 4120 N 394.785 0.382769 -5.60795 0
M  V30 4121 H 386.936 -0.871609 -1.93692 0
M  V30 4122 H 389.199 -0.331161 -0.888277 0
M  V30 4123 H 388.905 -0.656794 -3.45513 0
M  V30 4124 H 388.779 1.08638 -3.61217 0
M  V30 4125 H 391.166 1.30784 -2.64536 0
M  V30 4126 H 391.247 -0.455066 -2.5172 0
M  V30 4127 H 390.891 -0.632473 -5.03947 0
M  V30 4128 H 390.821 1.14482 -5.14005 0
M  V30 4129 H 393.312 0.422923 -3.75526 0
M  V30 4130 H 393.625 0.24068 -7.72425 0
M  V30 4131 H 391.97 0.223396 -6.94641 0
M  V30 4132 H 395.161 0.44006 -4.66027 0
M  V30 4133 H 395.334 0.357184 -6.47015 0
M  V30 4134 N 388.74 1.54641 0.303973 0
M  V30 4135 C 390.017 1.64455 1.05896 0
M  V30 4136 C 390.397 0.490923 2.05312 0
M  V30 4137 O 389.745 -0.512685 2.22674 0
M  V30 4138 C 389.955 3.02331 1.74347 0
M  V30 4139 C 391.303 3.59045 2.26653 0
M  V30 4140 O 392.327 3.04764 1.84384 0
M  V30 4141 O 391.186 4.54081 3.04093 0
M  V30 4142 H 388.28 0.666729 0.489287 0
M  V30 4143 H 390.826 1.66986 0.302298 0
M  V30 4144 H 389.598 3.77734 1.02142 0
M  V30 4145 H 389.221 3.03565 2.56777 0
M  V30 4146 N 390.218 -0.567019 1.47046 0
M  V30 4147 C 391.128 -1.70247 1.6141 0
M  V30 4148 C 392.144 -1.66746 0.497157 0
M  V30 4149 O 393.32 -1.86371 0.763389 0
M  V30 4150 C 390.385 -3.06756 1.61561 0
M  V30 4151 C 389.446 -3.21399 2.84607 0
M  V30 4152 C 388.679 -4.51396 2.84741 0
M  V30 4153 O 388.902 -5.36255 1.94388 0
M  V30 4154 O 387.836 -4.69621 3.76483 0
M  V30 4155 H 391.662 -1.61073 2.57467 0
M  V30 4156 H 389.247 -0.735894 1.30019 0
M  V30 4157 H 391.129 -3.8801 1.64396 0
M  V30 4158 H 389.804 -3.16333 0.686684 0
M  V30 4159 H 388.711 -2.39579 2.8732 0
M  V30 4160 H 390.044 -3.16721 3.76761 0
M  V30 4161 N 391.696 -1.35014 -0.812953 0
M  V30 4162 C 392.606 -1.2951 -1.95613 0
M  V30 4163 C 393.622 -0.20107 -1.72834 0
M  V30 4164 O 394.798 -0.42932 -1.96771 0
M  V30 4165 C 391.863 -1.06033 -3.30088 0
M  V30 4166 C 390.924 -2.24688 -3.65805 0
M  V30 4167 C 390.157 -2.02322 -4.93864 0
M  V30 4168 O 390.38 -0.986464 -5.61805 0
M  V30 4169 O 389.314 -2.89525 -5.27692 0
M  V30 4170 H 393.14 -2.25705 -2.03202 0
M  V30 4171 H 390.725 -1.15321 -0.949811 0
M  V30 4172 H 392.607 -0.94763 -4.10607 0
M  V30 4173 H 391.282 -0.128852 -3.23443 0
M  V30 4174 H 390.189 -2.41521 -2.85689 0
M  V30 4175 H 391.522 -3.16261 -3.77147 0
M  V30 4176 N 393.175 1.03435 -1.18907 0
M  V30 4177 C 394.085 2.15075 -0.937015 0
M  V30 4178 C 395.101 1.73706 0.101085 0
M  V30 4179 O 396.277 2.01232 -0.0822948 0
M  V30 4180 C 393.342 3.43458 -0.473057 0
M  V30 4181 C 392.403 3.99172 -1.57989 0
M  V30 4182 C 391.636 5.21427 -1.13797 0
M  V30 4183 O 391.859 5.704 0.000725941 0
M  V30 4184 O 390.793 5.69837 -1.9383 0
M  V30 4185 H 394.619 2.39198 -1.87131 0
M  V30 4186 H 392.204 1.13506 -0.971427 0
M  V30 4187 H 394.086 4.20811 -0.222702 0
M  V30 4188 H 392.761 3.20793 0.432869 0
M  V30 4189 H 391.668 3.23178 -1.88433 0
M  V30 4190 H 393.001 4.2619 -2.46217 0
M  V30 4191 N 394.653 0.992116 1.22453 0
M  V30 4192 C 395.563 0.55065 2.28046 0
M  V30 4193 C 396.579 -0.400189 1.69335 0
M  V30 4194 O 397.755 -0.267215 1.99619 0
M  V30 4195 C 394.82 -0.128496 3.46462 0
M  V30 4196 C 393.881 0.865208 4.20491 0
M  V30 4197 C 393.114 0.218377 5.33253 0
M  V30 4198 O 393.337 -0.987894 5.6178 0
M  V30 4199 O 392.271 0.922845 5.94783 0
M  V30 4200 H 396.097 1.4291 2.67975 0
M  V30 4201 H 393.682 0.760326 1.28606 0
M  V30 4202 H 395.564 -0.508947 4.18315 0
M  V30 4203 H 394.239 -0.981526 3.0846 0
M  V30 4204 H 393.146 1.29658 3.50913 0
M  V30 4205 H 394.479 1.68741 4.62371 0
M  V30 4206 N 396.131 -1.37776 0.765217 0
M  V30 4207 C 397.041 -2.34135 0.147666 0
M  V30 4208 C 398.057 -1.59854 -0.687215 0
M  V30 4209 O 399.233 -1.91983 -0.608659 0
M  V30 4210 C 396.298 -3.3901 -0.72617 0
M  V30 4211 C 395.359 -4.2912 0.124417 0
M  V30 4212 C 394.592 -5.28986 -0.707807 0
M  V30 4213 O 394.815 -5.36205 -1.94525 0
M  V30 4214 O 393.749 -6.01779 -0.12046 0
M  V30 4215 H 397.575 -2.88664 0.943758 0
M  V30 4216 H 395.16 -1.39824 0.526277 0
M  V30 4217 H 397.042 -4.03195 -1.22524 0
M  V30 4218 H 395.717 -2.86819 -1.50056 0
M  V30 4219 H 394.624 -3.68057 0.669696 0
M  V30 4220 H 395.957 -4.84598 0.861736 0
M  V30 4221 N 397.609 -0.515225 -1.4894 0
M  V30 4222 C 398.837 0.0206034 -2.0689 0
M  V30 4223 C 399.252 1.29514 -1.37374 0
M  V30 4224 O 398.609 1.76698 -0.456529 0
M  V30 4225 C 398.66 0.26351 -3.60538 0
M  V30 4226 O 398.381 -0.960517 -4.27441 0
M  V30 4227 C 399.882 0.841383 -4.35242 0
M  V30 4228 H 397.102 -0.0268608 -0.670462 0
M  V30 4229 H 399.646 -0.716651 -1.91532 0
M  V30 4230 H 397.801 0.950777 -3.75552 0
M  V30 4231 H 398.215 -0.73212 -5.19365 0
M  V30 4232 H 399.689 0.96085 -5.43573 0
M  V30 4233 H 400.166 1.8427 -3.98674 0
M  V30 4234 H 400.772 0.191143 -4.2487 0
M  V30 4235 N 399.087 1.5561 -0.249682 0
M  V30 4236 C 399.997 2.25143 0.659375 0
M  V30 4237 C 401.013 1.2685 1.19101 0
M  V30 4238 O 402.189 1.59732 1.22669 0
M  V30 4239 C 399.254 2.93945 1.8384 0
M  V30 4240 C 398.315 4.07655 1.34596 0
M  V30 4241 C 397.548 4.73167 2.46878 0
M  V30 4242 O 397.771 4.37768 3.65671 0
M  V30 4243 O 396.705 5.61623 2.16478 0
M  V30 4244 H 400.531 3.03545 0.0968698 0
M  V30 4245 H 398.116 1.49389 -0.018074 0
M  V30 4246 H 399.998 3.37271 2.52638 0
M  V30 4247 H 398.673 2.18481 2.38847 0
M  V30 4248 H 397.58 3.68839 0.625174 0
M  V30 4249 H 398.913 4.84946 0.841941 0
M  V30 4250 N 400.565 -0.0233959 1.57583 0
M  V30 4251 C 401.495 -1.02162 2.09965 0
M  V30 4252 C 402.476 -1.3735 1.00344 0
M  V30 4253 O 403.661 -1.46135 1.27899 0
M  V30 4254 C 400.791 -2.32081 2.58371 0
M  V30 4255 C 399.745 -2.1112 3.72307 0
M  V30 4256 C 399.071 -3.46848 4.06941 0
M  V30 4257 C 400.371 -1.49276 5.00514 0
M  V30 4258 H 402.065 -0.585557 2.93618 0
M  V30 4259 H 399.611 -0.280218 1.41247 0
M  V30 4260 H 401.564 -3.02249 2.93639 0
M  V30 4261 H 400.288 -2.77758 1.71808 0
M  V30 4262 H 398.947 -1.43384 3.37397 0
M  V30 4263 H 398.595 -3.90184 3.17436 0
M  V30 4264 H 398.295 -3.33646 4.83688 0
M  V30 4265 H 399.819 -4.18369 4.44747 0
M  V30 4266 H 401.233 -2.09368 5.33702 0
M  V30 4267 H 399.63 -1.46632 5.8191 0
M  V30 4268 H 400.7 -0.459217 4.82721 0
M  V30 4269 N 402.043 -1.548 -0.295768 0
M  V30 4270 C 403.454 -1.65274 -0.868411 0
M  V30 4271 C 403.805 -0.56481 -1.87894 0
M  V30 4272 O 402.93 0.29767 -2.14343 0
M  V30 4273 C 403.525 -2.99603 -1.58188 0
M  V30 4274 C 402.084 -3.12181 -2.10286 0
M  V30 4275 C 401.231 -2.6098 -0.93727 0
M  V30 4276 H 404.182 -1.58534 -0.0726422 0
M  V30 4277 H 404.203 -2.91319 -2.44772 0
M  V30 4278 H 403.715 -3.78764 -0.846151 0
M  V30 4279 H 401.816 -2.3775 -2.8689 0
M  V30 4280 H 401.929 -4.18415 -2.33379 0
M  V30 4281 H 400.293 -2.17564 -1.32431 0
M  V30 4282 H 401.076 -3.42623 -0.215414 0
M  V30 4283 N 403.521 0.559213 -1.47345 0
M  V30 4284 C 404.749 1.34194 -1.57479 0
M  V30 4285 C 405.164 1.87463 -0.224261 0
M  V30 4286 O 404.521 1.64888 0.782185 0
M  V30 4287 C 404.572 2.51324 -2.59843 0
M  V30 4288 O 404.293 2.00256 -3.89653 0
M  V30 4289 C 405.794 3.43563 -2.80142 0
M  V30 4290 H 403.014 0.409136 -0.531835 0
M  V30 4291 H 405.558 0.677609 -1.92947 0
M  V30 4292 H 403.713 3.13699 -2.27314 0
M  V30 4293 H 404.127 2.76708 -4.4557 0
M  V30 4294 H 405.601 4.2217 -3.55635 0
M  V30 4295 H 406.078 3.9698 -1.87892 0
M  V30 4296 H 406.684 2.87005 -3.1386 0
M  V30 4297 N 404.999 1.35443 0.805782 0
M  V30 4298 C 406.245 1.28952 1.56522 0
M  V30 4299 C 406.578 -0.135597 1.93726 0
M  V30 4300 O 405.853 -1.08516 1.61414 0
M  V30 4301 C 406.136 2.19678 2.85331 0
M  V30 4302 C 405.989 3.7081 2.54598 0
M  V30 4303 C 407.308 2.09495 3.8704 0
M  V30 4304 H 404.427 0.469764 0.567883 0
M  V30 4305 H 407.069 1.65851 0.927001 0
M  V30 4306 H 405.219 1.8834 3.39795 0
M  V30 4307 H 406.891 4.12593 2.06312 0
M  V30 4308 H 405.134 3.91051 1.8778 0
M  V30 4309 H 405.805 4.29679 3.46525 0
M  V30 4310 H 408.281 2.37045 3.41978 0
M  V30 4311 H 407.157 2.75173 4.74943 0
M  V30 4312 H 407.418 1.07714 4.28777 0
M  V30 4313 N 406.477 -1.02803 1.19454 0
M  V30 4314 C 407.888 -1.57667 0.999899 0
M  V30 4315 C 408.239 -1.91041 -0.446956 0
M  V30 4316 O 407.364 -1.70978 -1.32648 0
M  V30 4317 C 407.959 -2.86477 1.80877 0
M  V30 4318 C 406.518 -3.37911 1.65811 0
M  V30 4319 C 405.665 -2.11343 1.79526 0
M  V30 4320 H 408.616 -0.853214 1.33813 0
M  V30 4321 H 408.637 -3.57408 1.30536 0
M  V30 4322 H 408.149 -2.62155 2.86175 0
M  V30 4323 H 406.25 -3.67218 0.63102 0
M  V30 4324 H 406.363 -4.10885 2.46395 0
M  V30 4325 H 404.727 -2.23254 1.22596 0
M  V30 4326 H 405.51 -1.89461 2.86285 0
M  V30 4327 N 407.956 -0.998596 -1.21925 0
M  V30 4328 C 409.367 -0.711939 -1.72593 0
M  V30 4329 C 409.718 0.770842 -1.80423 0
M  V30 4330 O 408.843 1.60237 -1.4544 0
M  V30 4331 C 409.438 -1.28567 -3.13458 0
M  V30 4332 C 407.997 -1.04828 -3.61508 0
M  V30 4333 C 407.144 -1.4024 -2.39224 0
M  V30 4334 H 410.095 -1.17027 -1.07193 0
M  V30 4335 H 410.116 -0.667098 -3.74607 0
M  V30 4336 H 409.628 -2.36486 -3.07727 0
M  V30 4337 H 407.729 0.0140383 -3.72597 0
M  V30 4338 H 407.842 -1.71566 -4.47328 0
M  V30 4339 H 406.206 -0.821077 -2.41103 0
M  V30 4340 H 406.989 -2.49176 -2.36149 0
M  V30 4341 N 409.434 1.37368 -0.772513 0
M  V30 4342 C 410.68 1.99969 -0.337681 0
M  V30 4343 C 411.013 1.61184 1.08321 0
M  V30 4344 O 410.288 0.858395 1.74533 0
M  V30 4345 C 410.571 3.56858 -0.482121 0
M  V30 4346 C 410.424 4.0555 -1.94549 0
M  V30 4347 C 411.743 4.39955 0.113143 0
M  V30 4348 H 408.862 0.726464 -0.124171 0
M  V30 4349 H 411.504 1.63034 -0.975699 0
M  V30 4350 H 409.654 3.88452 0.0610361 0
M  V30 4351 H 411.326 3.84518 -2.54841 0
M  V30 4352 H 409.569 3.57715 -2.45403 0
M  V30 4353 H 410.24 5.14587 -1.9976 0
M  V30 4354 H 412.716 4.14623 -0.35031 0
M  V30 4355 H 411.592 5.48897 -0.0180514 0
M  V30 4356 H 411.853 4.25403 1.20354 0
M  V30 4357 N 410.912 0.523116 1.48665 0
M  V30 4358 C 412.323 0.0808997 1.86525 0
M  V30 4359 C 412.674 -1.33975 1.43336 0
M  V30 4360 O 411.799 -2.00221 0.821009 0
M  V30 4361 C 412.394 0.140037 3.3851 0
M  V30 4362 C 410.953 -0.246948 3.75589 0
M  V30 4363 C 410.1 0.502845 2.72703 0
M  V30 4364 H 413.051 0.734736 1.40667 0
M  V30 4365 H 413.072 -0.649945 3.74908 0
M  V30 4366 H 412.584 1.17412 3.69914 0
M  V30 4367 H 410.685 -1.28343 3.49798 0
M  V30 4368 H 410.798 0.0878859 4.79019 0
M  V30 4369 H 409.162 -0.0500581 2.54651 0
M  V30 4370 H 409.945 1.53743 3.0695 0
M  V30 4371 N 412.39 -1.55475 0.257931 0
M  V30 4372 C 413.618 -2.03609 -0.367559 0
M  V30 4373 C 414.033 -1.13687 -1.50734 0
M  V30 4374 O 413.39 -0.153479 -1.81853 0
M  V30 4375 C 413.441 -3.51001 -0.864908 0
M  V30 4376 O 413.162 -4.37499 0.229465 0
M  V30 4377 C 414.663 -4.14946 -1.55997 0
M  V30 4378 H 411.883 -0.665459 -0.0860521 0
M  V30 4379 H 414.427 -2.00843 0.385014 0
M  V30 4380 H 412.582 -3.54266 -1.56762 0
M  V30 4381 H 412.996 -5.24286 -0.14998 0
M  V30 4382 H 414.47 -5.19735 -1.85956 0
M  V30 4383 H 414.947 -3.6209 -2.4857 0
M  V30 4384 H 415.553 -4.15635 -0.901543 0
M  V30 4385 N 413.868 0.0150385 -1.57593 0
M  V30 4386 C 414.778 1.02791 -2.10882 0
M  V30 4387 C 415.794 1.38702 -1.0506 0
M  V30 4388 O 416.97 1.47739 -1.36877 0
M  V30 4389 C 414.035 2.30568 -2.58919 0
M  V30 4390 C 413.096 2.01108 -3.79281 0
M  V30 4391 C 412.329 3.22794 -4.25018 0
M  V30 4392 O 412.552 4.33959 -3.70183 0
M  V30 4393 O 411.486 3.07672 -5.17322 0
M  V30 4394 H 415.312 0.604973 -2.97613 0
M  V30 4395 H 412.897 0.23292 -1.47573 0
M  V30 4396 H 414.779 3.05662 -2.90084 0
M  V30 4397 H 413.454 2.72129 -1.75293 0
M  V30 4398 H 412.361 1.23537 -3.53114 0
M  V30 4399 H 413.694 1.64394 -4.63935 0
M  V30 4400 N 415.346 1.54954 0.287554 0
M  V30 4401 C 416.757 1.65732 0.859634 0
M  V30 4402 C 417.108 0.574767 1.87592 0
M  V30 4403 O 416.233 -0.286299 2.14498 0
M  V30 4404 C 416.828 3.00438 1.56597 0
M  V30 4405 C 415.387 3.13292 2.08627 0
M  V30 4406 C 414.534 2.61473 0.923416 0
M  V30 4407 H 417.485 1.5857 0.0642338 0
M  V30 4408 H 417.506 2.92613 2.43224 0
M  V30 4409 H 417.018 3.79207 0.826053 0
M  V30 4410 H 415.119 2.39268 2.85625 0
M  V30 4411 H 415.232 4.19647 2.31157 0
M  V30 4412 H 413.596 2.18264 1.31275 0
M  V30 4413 H 414.379 3.42733 0.197241 0
M  V30 4414 N 416.824 -0.551391 1.4764 0
M  V30 4415 C 418.049 -1.33837 1.58437 0
M  V30 4416 C 418.474 -1.866 0.237063 0
M  V30 4417 O 417.832 -1.6328 -0.787994 0
M  V30 4418 C 417.88 -2.48014 2.61766 0
M  V30 4419 O 416.984 -3.50419 2.1744 0
M  V30 4420 H 416.325 -0.397299 0.532024 0
M  V30 4421 H 418.855 -0.665759 1.93465 0
M  V30 4422 H 418.865 -2.94503 2.82369 0
M  V30 4423 H 417.54 -2.08969 3.5959 0
M  V30 4424 H 416.117 -3.10196 2.06961 0
M  V30 4425 N 418.302 -1.35869 -0.798587 0
M  V30 4426 C 419.713 -1.26498 -1.37314 0
M  V30 4427 C 420.064 0.0991899 -1.95949 0
M  V30 4428 O 419.189 1.0004 -1.91888 0
M  V30 4429 C 419.784 -2.29054 -2.49639 0
M  V30 4430 C 418.343 -2.234 -3.02935 0
M  V30 4431 C 417.49 -2.14329 -1.75949 0
M  V30 4432 H 420.441 -1.46881 -0.600971 0
M  V30 4433 H 420.462 -1.92166 -3.28409 0
M  V30 4434 H 419.974 -3.2833 -2.06933 0
M  V30 4435 H 418.075 -1.27562 -3.50084 0
M  V30 4436 H 418.188 -3.15703 -3.60372 0
M  V30 4437 H 416.552 -1.60435 -1.9782 0
M  V30 4438 H 417.335 -3.15477 -1.35384 0
M  V30 4439 N 419.78 1.02168 -1.19998 0
M  V30 4440 C 420.713 2.10232 -0.887558 0
M  V30 4441 C 421.691 1.61827 0.158317 0
M  V30 4442 O 422.875 1.88471 0.0330249 0
M  V30 4443 C 420.002 3.37092 -0.32964 0
M  V30 4444 C 419.048 4.0438 -1.3557 0
M  V30 4445 S 419.881 4.48956 -2.91888 0
M  V30 4446 C 421.037 5.79024 -2.37658 0
M  V30 4447 H 421.27 2.36409 -1.80272 0
M  V30 4448 H 418.803 1.15211 -1.0279 0
M  V30 4449 H 420.761 4.10498 -0.0142824 0
M  V30 4450 H 419.422 3.08996 0.563941 0
M  V30 4451 H 418.615 4.95632 -0.9146 0
M  V30 4452 H 418.217 3.37176 -1.61828 0
M  V30 4453 H 420.509 6.53942 -1.77103 0
M  V30 4454 H 421.452 6.27924 -3.27287 0
M  V30 4455 H 421.86 5.35043 -1.79971 0
M  V30 4456 N 421.258 1.00505 1.21394 0
M  V30 4457 C 422.669 0.721082 1.72213 0
M  V30 4458 C 423.02 -0.761263 1.80829 0
M  V30 4459 O 422.145 -1.59464 1.46288 0
M  V30 4460 C 422.74 1.30228 3.12772 0
M  V30 4461 C 421.299 1.06743 3.60947 0
M  V30 4462 C 420.446 1.41507 2.38477 0
M  V30 4463 H 423.397 1.17594 1.06571 0
M  V30 4464 H 423.418 0.686955 3.74247 0
M  V30 4465 H 422.93 2.38115 3.06468 0
M  V30 4466 H 421.031 0.00572162 3.726 0
M  V30 4467 H 421.144 1.73936 4.46411 0
M  V30 4468 H 419.508 0.833852 2.40664 0
M  V30 4469 H 420.291 2.50424 2.34824 0
M  V30 4470 N 422.737 -1.36956 0.779787 0
M  V30 4471 C 424.014 -1.93697 0.272156 0
M  V30 4472 C 424.394 -1.71267 -1.23413 0
M  V30 4473 O 423.742 -1.06607 -2.02107 0
M  V30 4474 C 423.952 -3.42812 0.654291 0
M  V30 4475 C 425.3 -4.19921 0.628602 0
M  V30 4476 O 426.324 -3.51209 0.594172 0
M  V30 4477 O 425.183 -5.42465 0.662864 0
M  V30 4478 H 422.277 -0.824447 0.0649286 0
M  V30 4479 H 424.823 -1.46196 0.861682 0
M  V30 4480 H 423.595 -3.52754 1.69353 0
M  V30 4481 H 423.218 -3.97582 0.0381369 0
M  V30 4482 N 424.215 -0.530993 -1.48385 0
M  V30 4483 C 425.626 -0.0907905 -1.86479 0
M  V30 4484 C 425.977 1.33213 -1.44044 0
M  V30 4485 O 425.102 1.99783 -0.831615 0
M  V30 4486 C 425.697 -0.157987 -3.38431 0
M  V30 4487 C 424.256 0.227026 -3.75715 0
M  V30 4488 C 423.403 -0.5173 -2.72432 0
M  V30 4489 H 426.354 -0.742186 -1.40276 0
M  V30 4490 H 426.375 0.630053 -3.75247 0
M  V30 4491 H 425.887 -1.19372 -3.69286 0
M  V30 4492 H 423.988 1.26486 -3.50474 0
M  V30 4493 H 424.101 -0.113288 -4.78966 0
M  V30 4494 H 422.465 0.0365527 -2.54674 0
M  V30 4495 H 423.248 -1.55368 -3.0613 0
M  V30 4496 N 425.693 1.55336 -0.266172 0
M  V30 4497 C 426.933 2.01303 0.354459 0
M  V30 4498 C 427.297 1.15046 1.53715 0
M  V30 4499 O 428.498 1.50554 2.22681 0
M  V30 4500 C 426.769 3.49748 0.735579 0
M  V30 4501 S 428.328 4.1771 1.34401 0
M  V30 4502 H 425.146 0.702333 0.110674 0
M  V30 4503 H 427.748 1.91653 -0.385916 0
M  V30 4504 H 426.452 4.10181 -0.134196 0
M  V30 4505 H 425.983 3.63364 1.50764 0
M  V30 4506 H 427.998 4.20594 2.63278 0
M  V30 4507 N 427.171 -0.0066808 1.57599 0
M  V30 4508 C 428.396 -0.707738 1.94951 0
M  V30 4509 C 428.821 -1.66882 0.867868 0
M  V30 4510 O 428.179 -1.80457 -0.17458 0
M  V30 4511 C 428.227 -1.42162 3.31394 0
M  V30 4512 O 427.331 -2.53578 3.25226 0
M  V30 4513 H 426.672 -0.188752 0.636607 0
M  V30 4514 H 429.202 0.0445193 2.04552 0
M  V30 4515 H 429.212 -1.78655 3.66806 0
M  V30 4516 H 427.887 -0.716903 4.09675 0
M  V30 4517 H 426.464 -2.19463 3.01481 0
M  V30 4518 N 428.649 -1.55105 -0.279332 0
M  V30 4519 C 429.874 -1.7976 -1.03446 0
M  V30 4520 C 430.299 -0.565952 -1.79384 0
M  V30 4521 O 429.657 0.484259 -1.74713 0
M  V30 4522 C 429.705 -3.0179 -1.97371 0
M  V30 4523 O 428.809 -2.76432 -3.06038 0
M  V30 4524 H 428.15 -0.594334 -0.29608 0
M  V30 4525 H 430.68 -2.02235 -0.310165 0
M  V30 4526 H 430.69 -3.30351 -2.39441 0
M  V30 4527 H 429.365 -3.91085 -1.4151 0
M  V30 4528 H 427.942 -2.58949 -2.68328 0
M  V30 4529 N 430.127 0.543554 -1.4793 0
M  V30 4530 C 431.037 1.67657 -1.64098 0
M  V30 4531 C 432.053 1.65934 -0.523622 0
M  V30 4532 O 433.229 1.85133 -0.792943 0
M  V30 4533 C 430.294 3.04146 -1.66421 0
M  V30 4534 C 429.355 3.16831 -2.89684 0
M  V30 4535 C 428.588 4.46809 -2.91886 0
M  V30 4536 O 428.811 5.33095 -2.02895 0
M  V30 4537 O 427.745 4.63573 -3.83906 0
M  V30 4538 H 431.571 1.56957 -2.59997 0
M  V30 4539 H 429.156 0.715116 -1.31173 0
M  V30 4540 H 431.038 3.85346 -1.70548 0
M  V30 4541 H 429.713 3.152 -0.736923 0
M  V30 4542 H 428.62 2.34977 -2.91095 0
M  V30 4543 H 429.953 3.10687 -3.81752 0
M  V30 4544 N 431.605 1.3629 0.791371 0
M  V30 4545 C 432.535 1.33137 1.91825 0
M  V30 4546 C 433.516 0.203168 1.68882 0
M  V30 4547 O 434.701 0.400509 1.90025 0
M  V30 4548 C 431.831 1.11793 3.28816 0
M  V30 4549 C 430.785 2.21417 3.66277 0
M  V30 4550 C 430.111 1.85218 5.01596 0
M  V30 4551 C 431.411 3.63489 3.75064 0
M  V30 4552 H 433.105 2.2743 1.9472 0
M  V30 4553 H 430.651 1.09479 0.935437 0
M  V30 4554 H 432.604 1.08222 4.07266 0
M  V30 4555 H 431.328 0.139501 3.26302 0
M  V30 4556 H 429.987 2.2411 2.90121 0
M  V30 4557 H 429.635 0.859544 4.95602 0
M  V30 4558 H 429.335 2.58611 5.27631 0
M  V30 4559 H 430.859 1.832 5.82469 0
M  V30 4560 H 432.273 3.63034 4.43711 0
M  V30 4561 H 430.67 4.35771 4.12582 0
M  V30 4562 H 431.74 3.98536 2.76219 0
M  V30 4563 N 433.083 -1.0153 1.20538 0
M  V30 4564 C 434.36 -1.72327 0.925343 0
M  V30 4565 C 434.74 -2.03383 -0.565547 0
M  V30 4566 O 434.088 -1.69934 -1.52757 0
M  V30 4567 C 434.298 -2.9902 1.79967 0
M  V30 4568 C 435.646 -3.72258 2.04228 0
M  V30 4569 O 436.67 -3.08979 1.77231 0
M  V30 4570 O 435.529 -4.86053 2.4983 0
M  V30 4571 H 432.623 -0.751099 0.346092 0
M  V30 4572 H 435.169 -1.07366 1.31417 0
M  V30 4573 H 433.941 -2.72402 2.80915 0
M  V30 4574 H 433.564 -3.71721 1.41099 0
M  V30 4575 N 434.561 -1.01147 -1.20859 0
M  V30 4576 C 435.524 -0.582224 -2.21682 0
M  V30 4577 C 436.524 0.344887 -1.57058 0
M  V30 4578 O 437.714 0.134281 -1.73682 0
M  V30 4579 C 434.846 0.150496 -3.40568 0
M  V30 4580 H 436.039 -1.47408 -2.61172 0
M  V30 4581 H 433.592 -0.800695 -1.34233 0
M  V30 4582 H 434.327 1.0575 -3.06574 0
M  V30 4583 H 434.112 -0.515444 -3.88697 0
M  V30 4584 H 435.602 0.438344 -4.15293 0
M  V30 4585 N 436.039 1.36541 -0.78704 0
M  V30 4586 C 436.972 2.27831 -0.129765 0
M  V30 4587 C 437.95 1.47105 0.692732 0
M  V30 4588 O 439.134 1.7641 0.664222 0
M  V30 4589 C 436.261 3.28577 0.821883 0
M  V30 4590 C 435.307 4.26422 0.0814771 0
M  V30 4591 S 436.14 5.20919 -1.24112 0
M  V30 4592 C 437.296 6.25212 -0.293409 0
M  V30 4593 H 437.529 2.83229 -0.903811 0
M  V30 4594 H 435.062 1.43046 -0.581144 0
M  V30 4595 H 437.02 3.87123 1.3655 0
M  V30 4596 H 435.681 2.72096 1.56916 0
M  V30 4597 H 434.874 4.97554 0.803485 0
M  V30 4598 H 434.476 3.71944 -0.391589 0
M  V30 4599 H 436.768 6.75435 0.528622 0
M  V30 4600 H 437.711 7.01378 -0.973344 0
M  V30 4601 H 438.119 5.64407 0.102196 0
M  V30 4602 N 437.518 0.538854 1.48102 0
M  V30 4603 C 438.451 -0.266495 2.26639 0
M  V30 4604 C 439.429 -0.93687 1.32897 0
M  V30 4605 O 440.613 -0.959507 1.62252 0
M  V30 4606 C 437.74 -1.37814 3.09394 0
M  V30 4607 C 436.786 -0.818247 4.18577 0
M  V30 4608 S 437.619 0.320848 5.34538 0
M  V30 4609 C 438.775 -0.793059 6.20855 0
M  V30 4610 H 439.008 0.399994 2.94597 0
M  V30 4611 H 436.541 0.324808 1.50945 0
M  V30 4612 H 438.499 -2.01488 3.57649 0
M  V30 4613 H 437.16 -2.01639 2.40833 0
M  V30 4614 H 436.353 -1.65247 4.7614 0
M  V30 4615 H 435.955 -0.258036 3.73109 0
M  V30 4616 H 438.247 -1.68961 6.56093 0
M  V30 4617 H 439.19 -0.255204 7.0764 0
M  V30 4618 H 439.598 -1.07746 5.54122 0
M  V30 4619 N 438.996 -1.55193 0.274407 0
M  V30 4620 C 439.926 -2.25471 -0.607032 0
M  V30 4621 C 440.907 -1.24461 -1.15946 0
M  V30 4622 O 442.092 -1.53179 -1.19373 0
M  V30 4623 C 439.222 -2.97526 -1.79153 0
M  V30 4624 C 438.176 -4.05459 -1.37067 0
M  V30 4625 C 437.502 -4.65084 -2.6382 0
M  V30 4626 C 438.802 -5.19691 -0.521389 0
M  V30 4627 H 440.496 -2.99393 -0.0209343 0
M  V30 4628 H 438.042 -1.43997 -0.00862866 0
M  V30 4629 H 439.995 -3.45402 -2.41404 0
M  V30 4630 H 438.719 -2.21138 -2.40344 0
M  V30 4631 H 437.378 -3.58393 -0.771355 0
M  V30 4632 H 437.026 -3.85365 -3.23268 0
M  V30 4633 H 436.726 -5.37961 -2.36372 0
M  V30 4634 H 438.25 -5.15708 -3.26921 0
M  V30 4635 H 439.664 -5.63623 -1.04889 0
M  V30 4636 H 438.061 -5.99126 -0.341825 0
M  V30 4637 H 439.131 -4.82713 0.46 0
M  V30 4638 N 440.474 -0.00167713 -1.576 0
M  V30 4639 C 441.722 0.681471 -1.90264 0
M  V30 4640 C 442.043 1.7422 -0.875924 0
M  V30 4641 O 441.313 1.95709 0.0864412 0
M  V30 4642 H 439.893 0.254696 -0.702239 0
M  V30 4643 H 442.555 -0.0429996 -1.94853 0
M  V30 4644 H 441.651 1.15166 -2.90075 0
M  V30 4645 N 441.952 1.55251 0.271103 0
M  V30 4646 C 443.363 1.66635 0.842007 0
M  V30 4647 C 443.714 0.594631 1.86972 0
M  V30 4648 O 442.839 -0.263532 2.14789 0
M  V30 4649 C 443.434 3.02082 1.53401 0
M  V30 4650 C 441.993 3.15487 2.05293 0
M  V30 4651 C 441.14 2.62438 0.895631 0
M  V30 4652 H 444.091 1.58629 0.0474117 0
M  V30 4653 H 444.112 2.95176 2.40107 0
M  V30 4654 H 443.624 3.80062 0.785786 0
M  V30 4655 H 441.725 2.42284 2.83071 0
M  V30 4656 H 441.838 4.22075 2.26693 0
M  V30 4657 H 440.202 2.19644 1.28953 0
M  V30 4658 H 440.985 3.42923 0.160878 0
M  V30 4659 N 443.43 -0.535701 1.48216 0
M  V30 4660 C 444.846 -0.863701 1.3421 0
M  V30 4661 C 445.046 -1.98458 0.34879 0
M  V30 4662 O 444.102 -2.51432 -0.23204 0
M  V30 4663 C 445.415 -1.23662 2.74095 0
M  V30 4664 C 446.963 -1.34683 2.82541 0
M  V30 4665 C 447.438 -1.75322 4.23115 0
M  V30 4666 N 448.929 -1.82434 4.2576 0
M  V30 4667 C 449.664 -2.15252 5.31464 0
M  V30 4668 N 449.16 -2.46533 6.47452 0
M  V30 4669 N 450.953 -2.16209 5.18855 0
M  V30 4670 H 443.104 0.203965 2.11418 0
M  V30 4671 H 445.367 0.0286033 0.947568 0
M  V30 4672 H 445.073 -0.486674 3.48316 0
M  V30 4673 H 444.947 -2.18805 3.07253 0
M  V30 4674 H 447.334 -2.08756 2.08579 0
M  V30 4675 H 447.415 -0.376756 2.5301 0
M  V30 4676 H 447.059 -1.01812 4.97591 0
M  V30 4677 H 446.989 -2.7337 4.50085 0
M  V30 4678 H 449.48 -1.6056 3.42095 0
M  V30 4679 H 449.793 -2.70662 7.23852 0
M  V30 4680 H 448.138 -2.44065 6.50736 0
M  V30 4681 H 451.329 -1.91224 4.2726 0
M  V30 4682 H 451.502 -2.41453 6.01335 0
M  V30 4683 N 444.908 -1.36708 -0.784132 0
M  V30 4684 C 446.156 -1.30972 -1.53918 0
M  V30 4685 C 446.477 0.109086 -1.94695 0
M  V30 4686 O 445.747 1.05048 -1.65353 0
M  V30 4687 H 444.327 -0.481819 -0.570841 0
M  V30 4688 H 446.989 -1.71063 -0.934002 0
M  V30 4689 H 446.085 -1.94061 -2.44431 0
M  V30 4690 N 446.386 1.0089 -1.21074 0
M  V30 4691 C 447.333 2.09588 -0.966512 0
M  V30 4692 C 448.303 1.65761 0.106089 0
M  V30 4693 O 449.488 1.90758 -0.0402287 0
M  V30 4694 C 446.628 3.40958 -0.533058 0
M  V30 4695 C 445.741 3.9822 -1.67467 0
M  V30 4696 C 444.876 5.17682 -1.19076 0
M  V30 4697 C 443.915 5.67043 -2.30496 0
M  V30 4698 N 443.052 6.77759 -1.83267 0
M  V30 4699 H 447.892 2.29815 -1.89708 0
M  V30 4700 H 445.429 1.12689 -0.945489 0
M  V30 4701 H 447.387 4.1637 -0.263019 0
M  V30 4702 H 446.017 3.20781 0.360505 0
M  V30 4703 H 445.069 3.1983 -2.05944 0
M  V30 4704 H 446.381 4.3085 -2.51336 0
M  V30 4705 H 445.535 6.00326 -0.877151 0
M  V30 4706 H 444.274 4.86635 -0.322066 0
M  V30 4707 H 443.279 4.82999 -2.62664 0
M  V30 4708 H 444.504 6.00121 -3.17855 0
M  V30 4709 H 442.45 6.48527 -0.987356 0
M  V30 4710 H 442.367 7.09624 -2.60711 0
M  V30 4711 H 443.635 7.63949 -1.54928 0
M  V30 4712 N 447.864 1.01787 1.20321 0
M  V30 4713 C 449.092 0.727194 1.937 0
M  V30 4714 C 449.507 -0.712305 1.74848 0
M  V30 4715 O 448.864 -1.48327 1.06327 0
M  V30 4716 C 448.915 1.05497 3.45764 0
M  V30 4717 O 448.636 2.43794 3.64 0
M  V30 4718 C 450.137 0.785534 4.36285 0
M  V30 4719 H 447.357 0.266939 0.615617 0
M  V30 4720 H 449.901 1.35939 1.52777 0
M  V30 4721 H 448.056 0.468158 3.84561 0
M  V30 4722 H 448.47 2.55656 4.57974 0
M  V30 4723 H 449.944 1.06495 5.4163 0
M  V30 4724 H 450.421 -0.280273 4.38305 0
M  V30 4725 H 451.027 1.35456 4.03152 0
M  V30 4726 N 449.342 -1.36122 0.79427 0
M  V30 4727 C 450.572 -2.03067 0.380437 0
M  V30 4728 C 450.98 -1.60018 -1.00949 0
M  V30 4729 O 450.323 -0.787425 -1.65968 0
M  V30 4730 C 450.385 -3.57587 0.37034 0
M  V30 4731 C 450.049 -4.23855 1.70867 0
M  V30 4732 C 451.046 -4.46404 2.66496 0
M  V30 4733 C 448.731 -4.61229 1.9893 0
M  V30 4734 C 450.725 -5.05412 3.88378 0
M  V30 4735 C 448.412 -5.19953 3.21079 0
M  V30 4736 C 449.41 -5.41985 4.15621 0
M  V30 4737 O 449.098 -5.99475 5.35616 0
M  V30 4738 H 448.83 -0.658168 0.154243 0
M  V30 4739 H 451.384 -1.7498 1.0757 0
M  V30 4740 H 449.614 -3.84814 -0.381444 0
M  V30 4741 H 451.303 -4.05895 -0.0194894 0
M  V30 4742 H 452.069 -4.17921 2.46103 0
M  V30 4743 H 447.948 -4.43402 1.26158 0
M  V30 4744 H 451.492 -5.22524 4.62185 0
M  V30 4745 H 447.389 -5.47862 3.41347 0
M  V30 4746 H 448.157 -6.17937 5.36745 0
M  V30 4747 N 450.82 -0.546701 -1.47814 0
M  V30 4748 C 451.783 0.196287 -2.28358 0
M  V30 4749 C 452.783 0.852437 -1.36346 0
M  V30 4750 O 453.973 0.709913 -1.59078 0
M  V30 4751 C 451.105 1.28579 -3.15722 0
M  V30 4752 H 452.298 -0.511086 -2.95513 0
M  V30 4753 H 449.851 -0.303248 -1.5333 0
M  V30 4754 H 450.586 2.0259 -2.53235 0
M  V30 4755 H 450.371 0.820229 -3.83425 0
M  V30 4756 H 451.861 1.80793 -3.76435 0
M  V30 4757 N 452.299 1.55045 -0.282633 0
M  V30 4758 C 453.546 1.9976 0.33199 0
M  V30 4759 C 453.874 1.17105 1.55295 0
M  V30 4760 O 453.129 0.230599 1.94337 0
M  V30 4761 C 453.428 3.49422 0.750938 0
M  V30 4762 C 453.094 4.4941 -0.366228 0
M  V30 4763 C 451.756 4.76471 -0.672964 0
M  V30 4764 C 454.108 5.09054 -1.11864 0
M  V30 4765 C 451.436 5.60442 -1.73556 0
M  V30 4766 C 453.788 5.9418 -2.17102 0
M  V30 4767 C 452.452 6.19558 -2.48402 0
M  V30 4768 H 451.722 0.730974 0.121484 0
M  V30 4769 H 454.369 1.8732 -0.39791 0
M  V30 4770 H 452.674 3.59377 1.56063 0
M  V30 4771 H 454.371 3.81432 1.23736 0
M  V30 4772 H 450.961 4.2844 -0.117041 0
M  V30 4773 H 455.145 4.88165 -0.894925 0
M  V30 4774 H 450.401 5.78349 -1.983 0
M  V30 4775 H 454.575 6.39427 -2.75873 0
M  V30 4776 H 452.202 6.84417 -3.30874 0
M  V30 4777 N 453.777 0.010035 1.57597 0
M  V30 4778 C 454.724 -0.978122 2.09049 0
M  V30 4779 C 455.694 -1.33509 0.988159 0
M  V30 4780 O 456.879 -1.43172 1.26121 0
M  V30 4781 C 454.019 -2.26158 2.60666 0
M  V30 4782 C 453.132 -1.96275 3.84838 0
M  V30 4783 C 452.267 -3.18776 4.24918 0
M  V30 4784 C 451.306 -2.84625 5.41899 0
M  V30 4785 N 450.443 -3.99693 5.77226 0
M  V30 4786 H 455.283 -0.532431 2.93205 0
M  V30 4787 H 452.82 -0.251234 1.44939 0
M  V30 4788 H 454.778 -3.01202 2.88675 0
M  V30 4789 H 453.408 -2.68378 1.79369 0
M  V30 4790 H 452.46 -1.11555 3.63675 0
M  V30 4791 H 453.772 -1.67111 4.69974 0
M  V30 4792 H 452.926 -4.02157 4.54262 0
M  V30 4793 H 451.665 -3.51087 3.38511 0
M  V30 4794 H 450.67 -1.99653 5.12268 0
M  V30 4795 H 451.895 -2.53551 6.29991 0
M  V30 4796 H 449.841 -4.31882 4.93776 0
M  V30 4797 H 449.758 -3.74087 6.56959 0
M  V30 4798 H 451.026 -4.83834 6.11167 0
M  V30 4799 N 455.255 -1.55392 -0.262866 0
M  V30 4800 C 456.503 -1.76127 -0.991147 0
M  V30 4801 C 456.824 -0.571083 -1.8645 0
M  V30 4802 O 456.094 0.413698 -1.91482 0
M  V30 4803 H 454.674 -0.649528 -0.368948 0
M  V30 4804 H 457.336 -1.9281 -0.284655 0
M  V30 4805 H 456.432 -2.6663 -1.62219 0
M  V30 4806 N 456.733 0.527833 -1.48498 0
M  V30 4807 C 458.01 1.28905 -1.47115 0
M  V30 4808 C 458.39 2.10297 -0.184007 0
M  V30 4809 O 457.738 2.12728 0.834218 0
M  V30 4810 C 457.948 2.16866 -2.73441 0
M  V30 4811 C 459.296 2.76936 -3.21857 0
M  V30 4812 O 460.32 2.27152 -2.74373 0
M  V30 4813 O 459.179 3.67496 -4.04486 0
M  V30 4814 H 456.273 0.581918 -0.587623 0
M  V30 4815 H 458.819 0.544311 -1.60734 0
M  V30 4816 H 457.591 1.56521 -3.58632 0
M  V30 4817 H 457.214 2.98583 -2.62553 0
M  V30 4818 N 458.211 1.37122 0.776871 0
M  V30 4819 C 459.441 1.35034 1.56363 0
M  V30 4820 C 459.849 -0.0674681 1.8908 0
M  V30 4821 O 459.192 -1.03826 1.51545 0
M  V30 4822 C 459.254 2.11894 2.90415 0
M  V30 4823 C 458.918 3.60897 2.80362 0
M  V30 4824 C 459.915 4.54887 2.51742 0
M  V30 4825 C 457.6 4.03951 2.98545 0
M  V30 4826 C 459.594 5.89909 2.41426 0
M  V30 4827 C 457.281 5.3906 2.87849 0
M  V30 4828 C 458.279 6.31852 2.5933 0
M  V30 4829 O 457.967 7.64479 2.48651 0
M  V30 4830 H 457.699 0.464402 0.49123 0
M  V30 4831 H 460.253 1.80992 0.971127 0
M  V30 4832 H 458.483 1.60618 3.51765 0
M  V30 4833 H 460.172 2.02505 3.51776 0
M  V30 4834 H 460.938 4.22934 2.37385 0
M  V30 4835 H 456.817 3.3209 3.19746 0
M  V30 4836 H 460.361 6.62304 2.19086 0
M  V30 4837 H 456.258 5.70617 3.01773 0
M  V30 4838 H 457.026 7.74742 2.64039 0
M  V30 4839 N 459.689 -1.00246 1.21608 0
M  V30 4840 C 460.935 -1.74319 1.03638 0
M  V30 4841 C 461.268 -1.89408 -0.428749 0
M  V30 4842 O 460.543 -1.43026 -1.3181 0
M  V30 4843 C 460.826 -3.15431 1.73711 0
M  V30 4844 C 460.679 -3.08049 3.27759 0
M  V30 4845 C 461.998 -4.14407 1.48173 0
M  V30 4846 H 459.117 -0.632741 0.377899 0
M  V30 4847 H 461.759 -1.16853 1.49818 0
M  V30 4848 H 459.909 -3.64493 1.34452 0
M  V30 4849 H 461.581 -2.66681 3.76403 0
M  V30 4850 H 459.824 -2.45088 3.57931 0
M  V30 4851 H 460.495 -4.07862 3.71958 0
M  V30 4852 H 462.971 -3.74061 1.82258 0
M  V30 4853 H 461.847 -5.11279 1.99713 0
M  V30 4854 H 462.108 -4.40174 0.412273 0
M  V30 4855 N 461.167 -1.02423 -1.1978 0
M  V30 4856 C 462.413 -0.72878 -1.89896 0
M  V30 4857 C 462.768 0.734248 -1.77839 0
M  V30 4858 O 462.061 1.52733 -1.15685 0
M  V30 4859 C 462.255 -1.1088 -3.39765 0
M  V30 4860 C 462.084 -2.60722 -3.66407 0
M  V30 4861 C 460.854 -3.27623 -3.84696 0
M  V30 4862 C 463.052 -3.58924 -3.68345 0
M  V30 4863 N 461.034 -4.66617 -3.98926 0
M  V30 4864 C 462.405 -4.83514 -3.8809 0
M  V30 4865 C 464.46 -3.52788 -3.51347 0
M  V30 4866 C 463.163 -6.0271 -3.92598 0
M  V30 4867 C 465.189 -4.71394 -3.5713 0
M  V30 4868 C 464.551 -5.94796 -3.77356 0
M  V30 4869 H 460.65 -0.318473 -0.714212 0
M  V30 4870 H 463.234 -1.3106 -1.43984 0
M  V30 4871 H 461.405 -0.555233 -3.84411 0
M  V30 4872 H 463.137 -0.766082 -3.97383 0
M  V30 4873 H 459.892 -2.7804 -3.83393 0
M  V30 4874 H 460.316 -5.38805 -4.099 0
M  V30 4875 H 464.958 -2.58372 -3.3467 0
M  V30 4876 H 462.676 -6.97499 -4.08069 0
M  V30 4877 H 466.262 -4.6827 -3.45275 0
M  V30 4878 H 465.142 -6.85037 -3.81699 0
M  V30 4879 N 462.645 1.35699 -0.801477 0
M  V30 4880 C 463.873 2.03157 -0.391768 0
M  V30 4881 C 464.288 1.60412 0.995668 0
M  V30 4882 O 463.645 0.799228 1.64069 0
M  V30 4883 C 463.696 3.58566 -0.459671 0
M  V30 4884 O 463.417 3.99756 -1.7924 0
M  V30 4885 C 464.918 4.4328 -0.0421205 0
M  V30 4886 H 462.138 0.651688 -0.159825 0
M  V30 4887 H 464.682 1.73426 -1.08368 0
M  V30 4888 H 462.837 3.86963 0.183939 0
M  V30 4889 H 463.251 4.94387 -1.75162 0
M  V30 4890 H 464.725 5.51821 -0.140754 0
M  V30 4891 H 465.202 4.27383 1.01196 0
M  V30 4892 H 465.808 4.20168 -0.658687 0
M  V30 4893 N 464.123 0.554532 1.47522 0
M  V30 4894 C 465.369 0.0295227 2.02779 0
M  V30 4895 C 465.702 -1.31582 1.42828 0
M  V30 4896 O 464.977 -1.85561 0.582872 0
M  V30 4897 C 465.26 -0.0664057 3.60039 0
M  V30 4898 C 465.113 1.30585 4.30427 0
M  V30 4899 C 466.432 -0.781162 4.33112 0
M  V30 4900 H 463.551 0.0122027 0.736899 0
M  V30 4901 H 466.193 0.716305 1.7598 0
M  V30 4902 H 464.343 -0.651307 3.83002 0
M  V30 4903 H 466.015 1.93374 4.18813 0
M  V30 4904 H 464.258 1.88125 3.90886 0
M  V30 4905 H 464.929 1.19147 5.38988 0
M  V30 4906 H 467.405 -0.284565 4.15126 0
M  V30 4907 H 466.281 -0.817237 5.42782 0
M  V30 4908 H 466.542 -1.83672 4.0214 0
M  V30 4909 N 465.601 -1.54893 0.290851 0
M  V30 4910 C 466.826 -2.04804 -0.32712 0
M  V30 4911 C 467.251 -1.16721 -1.47506 0
M  V30 4912 O 466.609 -0.169107 -1.8051 0
M  V30 4913 C 466.657 -3.52268 -0.770689 0
M  V30 4914 O 465.761 -3.67236 -1.87647 0
M  V30 4915 H 465.102 -0.660789 -0.0652227 0
M  V30 4916 H 467.632 -2.00036 0.429739 0
M  V30 4917 H 467.642 -3.9393 -1.06223 0
M  V30 4918 H 466.317 -4.15843 0.069096 0
M  V30 4919 H 464.894 -3.37479 -1.58626 0
M  V30 4920 N 467.08 -0.0183926 -1.57589 0
M  V30 4921 C 468.357 0.700621 -1.82622 0
M  V30 4922 C 468.737 1.90951 -0.90005 0
M  V30 4923 O 468.085 2.28452 0.0469145 0
M  V30 4924 C 468.295 1.08899 -3.31575 0
M  V30 4925 C 469.643 1.48514 -3.9778 0
M  V30 4926 O 470.667 1.18227 -3.36007 0
M  V30 4927 O 469.526 2.04903 -5.06633 0
M  V30 4928 H 466.62 0.342743 -0.752633 0
M  V30 4929 H 469.166 -0.0452548 -1.6964 0
M  V30 4930 H 467.938 0.228113 -3.90635 0
M  V30 4931 H 467.561 1.89338 -3.49624 0
M  V30 4932 N 468.558 1.5553 0.254621 0
M  V30 4933 C 469.783 1.81383 1.00573 0
M  V30 4934 C 470.208 0.594419 1.78461 0
M  V30 4935 O 469.566 -0.456403 1.75461 0
M  V30 4936 C 469.614 3.04892 1.92545 0
M  V30 4937 O 468.718 2.81266 3.01601 0
M  V30 4938 H 468.059 0.598969 0.286587 0
M  V30 4939 H 470.589 2.02703 0.277952 0
M  V30 4940 H 470.599 3.34119 2.34155 0
M  V30 4941 H 469.274 3.93287 1.3527 0
M  V30 4942 H 467.851 2.63185 2.64174 0
M  V30 4943 N 470.036 -0.519951 1.48776 0
M  V30 4944 C 471.284 -1.2727 1.56993 0
M  V30 4945 C 471.605 -1.9339 0.25004 0
M  V30 4946 O 470.875 -1.81822 -0.729216 0
M  V30 4947 H 469.455 -0.472732 0.578389 0
M  V30 4948 H 472.117 -0.604234 1.85297 0
M  V30 4949 H 471.213 -2.04669 2.3562 0
M  V30 4950 N 471.514 -1.37532 -0.769588 0
M  V30 4951 C 472.925 -1.29382 -1.346 0
M  V30 4952 C 473.276 0.0576039 -1.96115 0
M  V30 4953 O 472.401 0.95947 -1.93967 0
M  V30 4954 C 472.996 -2.34298 -2.44724 0
M  V30 4955 C 471.555 -2.29776 -2.98128 0
M  V30 4956 C 470.702 -2.18013 -1.71364 0
M  V30 4957 H 473.653 -1.48123 -0.56968 0
M  V30 4958 H 473.674 -1.99089 -3.24259 0
M  V30 4959 H 473.186 -3.32645 -1.99922 0
M  V30 4960 H 471.287 -1.34959 -3.47299 0
M  V30 4961 H 471.4 -3.23276 -3.53595 0
M  V30 4962 H 469.764 -1.64595 -1.94372 0
M  V30 4963 H 470.547 -3.18278 -1.28662 0
M  V30 4964 N 472.992 0.995999 -1.22138 0
M  V30 4965 C 474.24 1.73167 -1.042 0
M  V30 4966 C 474.561 1.90329 0.42423 0
M  V30 4967 O 473.831 1.4607 1.30539 0
M  V30 4968 H 472.411 0.641593 -0.38258 0
M  V30 4969 H 475.073 1.19974 -1.53598 0
M  V30 4970 H 474.169 2.72734 -1.51731 0
M  V30 4971 N 474.47 1.03057 1.19235 0
M  V30 4972 C 475.881 0.757449 1.70645 0
M  V30 4973 C 476.232 -0.722735 1.82403 0
M  V30 4974 O 475.357 -1.56325 1.49638 0
M  V30 4975 C 475.952 1.36833 3.09939 0
M  V30 4976 C 474.511 1.14375 3.58602 0
M  V30 4977 C 473.658 1.46533 2.35422 0
M  V30 4978 H 476.609 1.19828 1.04052 0
M  V30 4979 H 476.63 0.766184 3.72706 0
M  V30 4980 H 476.142 2.44562 3.01349 0
M  V30 4981 H 474.243 0.0847542 3.72504 0
M  V30 4982 H 474.356 1.83366 4.42622 0
M  V30 4983 H 472.72 0.884712 2.38841 0
M  V30 4984 H 473.503 2.55349 2.2946 0
M  V30 4985 N 475.948 -1.35272 0.808662 0
M  V30 4986 C 476.878 -2.32315 0.234981 0
M  V30 4987 C 477.859 -1.57572 -0.64071 0
M  V30 4988 O 479.044 -1.8563 -0.570551 0
M  V30 4989 C 476.174 -3.41801 -0.615601 0
M  V30 4990 C 475.128 -4.27694 0.161767 0
M  V30 4991 C 474.454 -5.28519 -0.810649 0
M  V30 4992 C 475.754 -5.04231 1.36193 0
M  V30 4993 H 477.448 -2.80543 1.04575 0
M  V30 4994 H 474.994 -1.3488 0.504315 0
M  V30 4995 H 476.947 -4.08693 -1.02702 0
M  V30 4996 H 475.671 -2.92186 -1.45928 0
M  V30 4997 H 474.33 -3.62384 0.554382 0
M  V30 4998 H 473.978 -4.75171 -1.64988 0
M  V30 4999 H 473.678 -5.8686 -0.294822 0
M  V30 5000 H 475.202 -5.98283 -1.22023 0
M  V30 5001 H 476.616 -5.64058 1.02528 0
M  V30 5002 H 475.013 -5.72077 1.81239 0
M  V30 5003 H 476.083 -4.34753 2.14751 0
M  V30 5004 N 477.426 -0.562348 -1.47226 0
M  V30 5005 C 478.673 -0.0402165 -2.0246 0
M  V30 5006 C 479.001 1.31169 -1.43614 0
M  V30 5007 O 478.256 1.86805 -0.5833 0
M  V30 5008 C 478.555 0.0969817 -3.57268 0
M  V30 5009 C 478.221 -1.1847 -4.35058 0
M  V30 5010 C 476.883 -1.53588 -4.56031 0
M  V30 5011 C 479.235 -2.03378 -4.79882 0
M  V30 5012 C 476.563 -2.73452 -5.19077 0
M  V30 5013 C 478.915 -3.2245 -5.44251 0
M  V30 5014 C 477.579 -3.57876 -5.63455 0
M  V30 5015 H 476.849 -0.0147163 -0.740854 0
M  V30 5016 H 479.496 -0.734895 -1.76838 0
M  V30 5017 H 477.801 0.87466 -3.81912 0
M  V30 5018 H 479.498 0.516408 -3.97661 0
M  V30 5019 H 476.088 -0.90126 -4.19017 0
M  V30 5020 H 480.272 -1.77553 -4.63453 0
M  V30 5021 H 475.528 -3.01062 -5.32139 0
M  V30 5022 H 479.702 -3.88526 -5.77945 0
M  V30 5023 H 477.329 -4.50849 -6.12078 0
M  V30 5024 N 478.904 1.54736 -0.299062 0
M  V30 5025 C 480.32 1.59507 0.0543849 0
M  V30 5026 C 480.52 1.31606 1.52585 0
M  V30 5027 O 479.576 1.08853 2.27832 0
M  V30 5028 C 480.889 2.98751 -0.34181 0
M  V30 5029 C 482.437 3.1165 -0.290414 0
M  V30 5030 C 482.912 4.53199 -0.661402 0
M  V30 5031 N 484.403 4.59114 -0.613863 0
M  V30 5032 C 485.138 5.66709 -0.873417 0
M  V30 5033 N 484.634 6.82349 -1.19884 0
M  V30 5034 N 486.427 5.56369 -0.800608 0
M  V30 5035 H 478.578 1.71133 -1.25806 0
M  V30 5036 H 480.841 0.799186 -0.509908 0
M  V30 5037 H 480.547 3.24085 -1.36608 0
M  V30 5038 H 480.421 3.75961 0.305508 0
M  V30 5039 H 482.808 2.86066 0.724605 0
M  V30 5040 H 482.889 2.366 -0.972327 0
M  V30 5041 H 482.533 4.79513 -1.67422 0
M  V30 5042 H 482.463 5.26583 0.0425612 0
M  V30 5043 H 484.954 3.76053 -0.3732 0
M  V30 5044 H 485.267 7.60326 -1.38291 0
M  V30 5045 H 483.612 6.83906 -1.23685 0
M  V30 5046 H 486.803 4.64904 -0.546045 0
M  V30 5047 H 486.976 6.40139 -1.00626 0
M  V30 5048 N 480.382 0.0267497 1.57577 0
M  V30 5049 C 481.628 -0.653371 1.91987 0
M  V30 5050 C 481.961 -1.71915 0.903263 0
M  V30 5051 O 481.236 -1.94358 -0.0743387 0
M  V30 5052 C 481.519 -1.272 3.36886 0
M  V30 5053 C 481.372 -0.215938 4.49281 0
M  V30 5054 C 482.691 -2.19069 3.81703 0
M  V30 5055 H 479.81 -0.236047 0.698177 0
M  V30 5056 H 482.452 0.0835236 1.89816 0
M  V30 5057 H 480.602 -1.90005 3.38866 0
M  V30 5058 H 482.274 0.41449 4.59434 0
M  V30 5059 H 480.517 0.458855 4.31366 0
M  V30 5060 H 481.188 -0.688347 5.47691 0
M  V30 5061 H 483.664 -1.66253 3.81444 0
M  V30 5062 H 482.54 -2.59307 4.83788 0
M  V30 5063 H 482.801 -3.08087 3.17072 0
M  V30 5064 N 481.861 -1.55662 -0.24637 0
M  V30 5065 C 483.086 -1.81914 -0.996093 0
M  V30 5066 C 483.511 -0.603875 -1.78143 0
M  V30 5067 O 482.869 0.447091 -1.75701 0
M  V30 5068 C 482.917 -3.05908 -1.90925 0
M  V30 5069 O 482.021 -2.82861 -3.00105 0
M  V30 5070 H 481.362 -0.600481 -0.283406 0
M  V30 5071 H 483.892 -2.02848 -0.267199 0
M  V30 5072 H 483.902 -3.35356 -2.3238 0
M  V30 5073 H 482.577 -3.93999 -1.33183 0
M  V30 5074 H 481.154 -2.64583 -2.62775 0
M  V30 5075 N 483.339 0.512053 -1.4905 0
M  V30 5076 C 484.302 1.59704 -1.64399 0
M  V30 5077 C 485.302 1.52285 -0.516317 0
M  V30 5078 O 486.492 1.55635 -0.782527 0
M  V30 5079 C 483.624 2.9935 -1.63102 0
M  V30 5080 H 484.817 1.47428 -2.61161 0
M  V30 5081 H 482.37 0.735469 -1.37915 0
M  V30 5082 H 483.105 3.17116 -0.678836 0
M  V30 5083 H 482.89 3.06144 -2.44986 0
M  V30 5084 H 484.38 3.782 -1.77072 0
M  V30 5085 N 484.817 1.37938 0.762283 0
M  V30 5086 C 485.747 1.37176 1.88958 0
M  V30 5087 C 486.728 0.238945 1.68413 0
M  V30 5088 O 487.913 0.440726 1.89133 0
M  V30 5089 C 485.043 1.18742 3.2637 0
M  V30 5090 C 483.997 2.29136 3.61498 0
M  V30 5091 C 483.323 1.95816 4.97554 0
M  V30 5092 C 484.623 3.71363 3.6727 0
M  V30 5093 H 486.317 2.31509 1.89853 0
M  V30 5094 H 483.863 1.11438 0.912005 0
M  V30 5095 H 485.816 1.16837 4.04879 0
M  V30 5096 H 484.54 0.208683 3.25933 0
M  V30 5097 H 483.199 2.30213 2.85303 0
M  V30 5098 H 482.847 0.964475 4.93667 0
M  V30 5099 H 482.547 2.69745 5.22026 0
M  V30 5100 H 484.071 1.95513 5.78452 0
M  V30 5101 H 485.485 3.72364 4.35911 0
M  V30 5102 H 483.882 4.44425 4.03245 0
M  V30 5103 H 484.952 4.04305 2.67704 0
M  V30 5104 N 486.295 -0.989507 1.22664 0
M  V30 5105 C 487.541 -1.73298 1.06487 0
M  V30 5106 C 487.896 -1.88292 -0.395438 0
M  V30 5107 O 487.189 -1.41748 -1.28911 0
M  V30 5108 C 487.383 -3.13649 1.71345 0
M  V30 5109 C 487.212 -3.12341 3.23532 0
M  V30 5110 C 485.982 -3.18044 3.92653 0
M  V30 5111 C 488.18 -2.96226 4.20422 0
M  V30 5112 N 486.162 -3.06526 5.31898 0
M  V30 5113 C 487.533 -2.92773 5.4652 0
M  V30 5114 C 489.588 -2.80642 4.11271 0
M  V30 5115 C 488.291 -2.75332 6.64519 0
M  V30 5116 C 490.317 -2.64563 5.28924 0
M  V30 5117 C 489.679 -2.618 6.53942 0
M  V30 5118 H 485.778 -0.643643 0.444126 0
M  V30 5119 H 488.362 -1.17489 1.55256 0
M  V30 5120 H 486.533 -3.67694 1.25122 0
M  V30 5121 H 488.265 -3.76577 1.48229 0
M  V30 5122 H 485.02 -3.25861 3.43673 0
M  V30 5123 H 485.444 -3.04067 6.04874 0
M  V30 5124 H 490.086 -2.81574 3.15398 0
M  V30 5125 H 487.804 -2.73145 7.60538 0
M  V30 5126 H 491.39 -2.53482 5.23677 0
M  V30 5127 H 490.27 -2.49511 7.43447 0
M  V30 5128 N 487.773 -1.03688 -1.18687 0
M  V30 5129 C 488.683 -0.634908 -2.25845 0
M  V30 5130 C 489.699 0.337065 -1.70704 0
M  V30 5131 O 490.875 0.192943 -2.00474 0
M  V30 5132 C 487.94 -0.000180054 -3.467 0
M  V30 5133 C 487.001 -1.02067 -4.1699 0
M  V30 5134 C 486.234 -0.41614 -5.32075 0
M  V30 5135 O 486.457 0.778712 -5.65059 0
M  V30 5136 O 485.391 -1.14296 -5.90948 0
M  V30 5137 H 489.217 -1.52757 -2.62486 0
M  V30 5138 H 486.802 -0.807533 -1.25695 0
M  V30 5139 H 488.684 0.353342 -4.19916 0
M  V30 5140 H 487.359 0.866367 -3.11891 0
M  V30 5141 H 486.266 -1.42592 -3.45859 0
M  V30 5142 H 487.599 -1.85786 -4.5579 0
M  V30 5143 N 489.251 1.34841 -0.815825 0
M  V30 5144 C 490.499 1.98107 -0.399744 0
M  V30 5145 C 490.82 1.65019 1.03894 0
M  V30 5146 O 490.09 0.937311 1.72021 0
M  V30 5147 H 488.67 0.732827 -0.144823 0
M  V30 5148 H 491.332 1.64599 -1.0437 0
M  V30 5149 H 490.428 3.07856 -0.512965 0
M  V30 5150 N 490.729 0.570148 1.46925 0
M  V30 5151 C 491.659 -0.158274 2.32963 0
M  V30 5152 C 492.64 -0.896093 1.44583 0
M  V30 5153 O 493.825 -0.874022 1.7342 0
M  V30 5154 C 490.955 -1.18055 3.26619 0
M  V30 5155 C 489.909 -0.558379 4.24342 0
M  V30 5156 C 489.235 -1.68623 5.07415 0
M  V30 5157 C 490.535 0.496295 5.19937 0
M  V30 5158 H 492.229 0.560046 2.94115 0
M  V30 5159 H 489.775 0.270775 1.41431 0
M  V30 5160 H 491.728 -1.69841 3.85658 0
M  V30 5161 H 490.452 -1.92899 2.63548 0
M  V30 5162 H 489.111 -0.0617157 3.66548 0
M  V30 5163 H 488.759 -2.42402 4.40738 0
M  V30 5164 H 488.459 -1.27564 5.73586 0
M  V30 5165 H 489.983 -2.20709 5.69315 0
M  V30 5166 H 491.397 0.0640052 5.73264 0
M  V30 5167 H 489.794 0.82649 5.94381 0
M  V30 5168 H 490.864 1.38735 4.6463 0
M  V30 5169 N 492.207 -1.54576 0.307264 0
M  V30 5170 C 493.618 -1.8579 -0.184121 0
M  V30 5171 C 493.969 -1.22914 -1.52927 0
M  V30 5172 O 493.094 -0.529126 -2.09831 0
M  V30 5173 C 493.689 -3.37081 -0.340862 0
M  V30 5174 C 492.248 -3.68304 -0.776465 0
M  V30 5175 C 491.395 -2.77076 0.111503 0
M  V30 5176 H 494.346 -1.49656 0.528078 0
M  V30 5177 H 494.367 -3.61922 -1.17443 0
M  V30 5178 H 493.879 -3.82815 0.638309 0
M  V30 5179 H 491.98 -3.28092 -1.76596 0
M  V30 5180 H 492.093 -4.75434 -0.591512 0
M  V30 5181 H 490.457 -2.51374 -0.410256 0
M  V30 5182 H 491.24 -3.25632 1.08714 0
M  V30 5183 N 493.685 -0.035106 -1.57561 0
M  V30 5184 C 494.933 0.64096 -1.91667 0
M  V30 5185 C 495.254 1.72323 -0.912681 0
M  V30 5186 O 494.524 1.95849 0.0449089 0
M  V30 5187 H 493.104 0.239743 -0.707483 0
M  V30 5188 H 495.766 -0.084321 -1.94718 0
M  V30 5189 H 494.862 1.08987 -2.92452 0
M  V30 5190 N 495.163 1.55791 0.238111 0
M  V30 5191 C 496.111 1.91885 1.31464 0
M  V30 5192 C 497.105 0.798929 1.49377 0
M  V30 5193 O 498.311 0.983626 1.50747 0
M  V30 5194 H 494.686 0.609551 0.440399 0
M  V30 5195 H 496.657 2.81747 0.982925 0
M  V30 5196 C 495.406 2.23763 2.6613 0
M  V30 5197 H 494.729 3.09444 2.53149 0
M  V30 5198 H 496.169 2.52915 3.40309 0
M  V30 5199 C 494.628 1.05699 3.1989 0
M  V30 5200 O 495.158 0.309524 4.00506 0
M  V30 5201 N 493.364 0.845251 2.78036 0
M  V30 5202 H 492.911 1.4548 2.12588 0
M  V30 5203 H 492.869 0.0569973 3.14348 0
M  V30 5204 N 496.642 -0.504142 1.49319 0
M  V30 5205 C 497.572 -1.61473 1.68667 0
M  V30 5206 C 498.553 -1.61455 0.535378 0
M  V30 5207 O 499.738 -1.78245 0.770868 0
M  V30 5208 C 496.868 -2.99971 1.75028 0
M  V30 5209 C 495.822 -3.14854 2.89916 0
M  V30 5210 C 495.148 -4.54671 2.81387 0
M  V30 5211 C 496.448 -2.95176 4.30893 0
M  V30 5212 H 498.142 -1.45535 2.61648 0
M  V30 5213 H 495.688 -0.698711 1.25913 0
M  V30 5214 H 497.641 -3.77562 1.8715 0
M  V30 5215 H 496.365 -3.1699 0.786441 0
M  V30 5216 H 495.024 -2.39687 2.77391 0
M  V30 5217 H 494.672 -4.68562 1.82917 0
M  V30 5218 H 494.372 -4.6557 3.58494 0
M  V30 5219 H 495.896 -5.34327 2.95512 0
M  V30 5220 H 497.31 -3.62538 4.44116 0
M  V30 5221 H 495.707 -3.17549 5.09198 0
M  V30 5222 H 496.777 -1.91332 4.45556 0
M  V30 5223 N 498.12 -1.38341 -0.754957 0
M  V30 5224 C 499.397 -1.24995 -1.50451 0
M  V30 5225 C 499.777 0.149244 -2.10572 0
M  V30 5226 O 499.125 1.15861 -1.96948 0
M  V30 5227 C 499.335 -2.35904 -2.57197 0
M  V30 5228 C 500.683 -2.74262 -3.24138 0
M  V30 5229 O 501.707 -2.35205 -2.67501 0
M  V30 5230 O 500.566 -3.4161 -4.26574 0
M  V30 5231 H 497.66 -0.48872 -0.667144 0
M  V30 5232 H 500.206 -1.50165 -0.790486 0
M  V30 5233 H 498.978 -3.2953 -2.11011 0
M  V30 5234 H 498.601 -2.12291 -3.36182 0
M  V30 5235 N 499.598 0.982988 -1.23187 0
M  V30 5236 C 500.561 2.05649 -1.01198 0
M  V30 5237 C 501.561 1.6078 0.0252464 0
M  V30 5238 O 502.751 1.72878 -0.214243 0
M  V30 5239 C 499.883 3.36744 -0.530656 0
M  V30 5240 H 501.076 2.2659 -1.96461 0
M  V30 5241 H 498.629 1.15602 -1.05195 0
M  V30 5242 H 499.364 3.21492 0.425873 0
M  V30 5243 H 499.149 3.7065 -1.2791 0
M  V30 5244 H 500.639 4.15705 -0.397366 0
M  V30 5245 N 501.076 1.04316 1.18135 0
M  V30 5246 C 502.039 0.640794 2.2006 0
M  V30 5247 C 503.039 -0.303124 1.57917 0
M  V30 5248 O 504.229 -0.0881855 1.73977 0
M  V30 5249 C 501.361 -0.060148 3.40847 0
M  V30 5250 H 502.554 1.54281 2.57172 0
M  V30 5251 H 500.107 0.836004 1.32063 0
M  V30 5252 H 500.842 -0.975845 3.0927 0
M  V30 5253 H 500.627 0.618319 3.87194 0
M  V30 5254 H 502.117 -0.328082 4.16309 0
M  V30 5255 N 502.554 -1.34406 0.822964 0
M  V30 5256 C 503.8 -1.98578 0.411666 0
M  V30 5257 C 504.133 -1.65093 -1.02264 0
M  V30 5258 O 503.408 -0.92258 -1.71227 0
M  V30 5259 C 503.691 -3.54823 0.614235 0
M  V30 5260 C 503.544 -3.9805 2.09466 0
M  V30 5261 C 504.863 -4.40071 0.050221 0
M  V30 5262 H 501.982 -0.721355 0.151047 0
M  V30 5263 H 504.624 -1.59301 1.03554 0
M  V30 5264 H 502.774 -3.88411 0.0831774 0
M  V30 5265 H 504.446 -3.74795 2.68936 0
M  V30 5266 H 502.689 -3.4836 2.5851 0
M  V30 5267 H 503.36 -5.06819 2.18721 0
M  V30 5268 H 505.836 -4.13037 0.503953 0
M  V30 5269 H 504.712 -5.48452 0.221759 0
M  V30 5270 H 504.973 -4.29576 -1.04482 0
M  V30 5271 N 504.032 -0.577932 -1.46621 0
M  V30 5272 C 505.262 -0.0670668 -2.06491 0
M  V30 5273 C 505.67 1.24119 -1.42798 0
M  V30 5274 O 505.013 1.76016 -0.525759 0
M  V30 5275 C 505.075 0.177995 -3.59059 0
M  V30 5276 C 504.739 -1.04394 -4.44917 0
M  V30 5277 C 505.736 -1.95479 -4.81751 0
M  V30 5278 C 503.421 -1.26444 -4.86125 0
M  V30 5279 C 505.415 -3.06965 -5.58615 0
M  V30 5280 C 503.102 -2.38237 -5.62749 0
M  V30 5281 C 504.1 -3.28327 -5.98908 0
M  V30 5282 O 503.788 -4.38179 -6.73984 0
M  V30 5283 H 503.52 -0.0523159 -0.673973 0
M  V30 5284 H 506.074 -0.796966 -1.89308 0
M  V30 5285 H 504.304 0.962451 -3.74531 0
M  V30 5286 H 505.993 0.636782 -4.00874 0
M  V30 5287 H 506.759 -1.79657 -4.50498 0
M  V30 5288 H 502.638 -0.572316 -4.57434 0
M  V30 5289 H 506.182 -3.77309 -5.86757 0
M  V30 5290 H 502.079 -2.54023 -5.93416 0
M  V30 5291 H 502.847 -4.36486 -6.92403 0
M  V30 5292 N 505.51 1.54411 -0.315457 0
M  V30 5293 C 506.735 2.05299 0.294496 0
M  V30 5294 C 507.16 1.19052 1.4563 0
M  V30 5295 O 506.518 0.197804 1.80218 0
M  V30 5296 C 506.566 3.5345 0.714549 0
M  V30 5297 O 505.67 3.70175 1.81781 0
M  V30 5298 H 505.011 0.661743 0.0547019 0
M  V30 5299 H 507.541 1.99327 -0.461508 0
M  V30 5300 H 507.551 3.9557 0.999426 0
M  V30 5301 H 506.226 4.1568 -0.135244 0
M  V30 5302 H 504.803 3.3996 1.53236 0
M  V30 5303 N 506.988 0.0434614 1.5754 0
M  V30 5304 C 508.399 -0.493343 1.80064 0
M  V30 5305 C 508.75 -1.71388 0.955023 0
M  V30 5306 O 507.875 -2.15736 0.169434 0
M  V30 5307 C 508.47 -0.90179 3.26578 0
M  V30 5308 C 507.029 -1.38362 3.50047 0
M  V30 5309 C 506.176 -0.355129 2.75017 0
M  V30 5310 H 509.127 0.2694 1.56397 0
M  V30 5311 H 509.148 -1.76523 3.37075 0
M  V30 5312 H 508.66 -0.013271 3.88098 0
M  V30 5313 H 506.761 -2.29159 2.93798 0
M  V30 5314 H 506.874 -1.3811 4.58762 0
M  V30 5315 H 505.238 -0.826348 2.40922 0
M  V30 5316 H 506.021 0.525172 3.39259 0
M  V30 5317 N 508.466 -1.55915 -0.229846 0
M  V30 5318 C 509.882 -1.48721 -0.579166 0
M  V30 5319 C 510.082 -0.736976 -1.87539 0
M  V30 5320 O 509.138 -0.273258 -2.51017 0
M  V30 5321 C 510.451 -2.9323 -0.666082 0
M  V30 5322 C 511.999 -3.03701 -0.757267 0
M  V30 5323 C 512.474 -4.49552 -0.8756 0
M  V30 5324 N 513.965 -4.53561 -0.940035 0
M  V30 5325 C 514.7 -5.63683 -1.05116 0
M  V30 5326 N 514.196 -6.83576 -1.12675 0
M  V30 5327 N 515.989 -5.51516 -1.08565 0
M  V30 5328 H 508.14 -2.03123 0.620857 0
M  V30 5329 H 510.403 -0.922898 0.21671 0
M  V30 5330 H 510.109 -3.51032 0.21664 0
M  V30 5331 H 509.983 -3.44668 -1.53243 0
M  V30 5332 H 512.37 -2.45969 -1.63043 0
M  V30 5333 H 512.451 -2.55446 0.134583 0
M  V30 5334 H 512.095 -5.079 -0.00692351 0
M  V30 5335 H 512.025 -4.95506 -1.78274 0
M  V30 5336 H 514.516 -3.67215 -0.892269 0
M  V30 5337 H 514.829 -7.63251 -1.21109 0
M  V30 5338 H 513.174 -6.86303 -1.09603 0
M  V30 5339 H 516.365 -4.5678 -1.02319 0
M  V30 5340 H 516.538 -6.37372 -1.1688 0
M  V30 5341 N 509.944 0.496216 -1.49584 0
M  V30 5342 C 511.172 1.27394 -1.63029 0
M  V30 5343 C 511.587 1.86344 -0.303569 0
M  V30 5344 O 510.944 1.68057 0.711547 0
M  V30 5345 C 510.995 2.40077 -2.70269 0
M  V30 5346 O 510.716 1.83549 -3.97796 0
M  V30 5347 C 512.217 3.31372 -2.94462 0
M  V30 5348 H 509.437 0.386211 -0.54871 0
M  V30 5349 H 511.981 0.595163 -1.95648 0
M  V30 5350 H 510.136 3.03775 -2.40415 0
M  V30 5351 H 510.55 2.57561 -4.56905 0
M  V30 5352 H 512.024 4.06707 -3.73221 0
M  V30 5353 H 512.501 3.88654 -2.0456 0
M  V30 5354 H 513.107 2.73435 -3.25751 0
M  V30 5355 N 511.423 1.38739 0.74761 0
M  V30 5356 C 512.355 1.32341 1.87132 0
M  V30 5357 C 513.368 0.234502 1.61102 0
M  V30 5358 O 514.557 0.492516 1.71571 0
M  V30 5359 C 511.657 1.02915 3.22896 0
M  V30 5360 C 510.83 2.22834 3.76383 0
M  V30 5361 C 509.889 1.90059 4.90677 0
M  V30 5362 O 508.915 2.62615 5.04997 0
M  V30 5363 N 510.117 0.859141 5.74107 0
M  V30 5364 H 512.882 2.29175 1.93129 0
M  V30 5365 H 510.443 1.32678 0.927805 0
M  V30 5366 H 512.435 0.79031 3.96908 0
M  V30 5367 H 511.005 0.148572 3.12247 0
M  V30 5368 H 510.225 2.62747 2.93867 0
M  V30 5369 H 511.513 3.02851 4.08851 0
M  V30 5370 H 510.911 0.257564 5.65113 0
M  V30 5371 H 509.468 0.680189 6.48241 0
M  V30 5372 N 512.901 -0.976442 1.23707 0
M  V30 5373 C 514.147 -1.72158 1.08319 0
M  V30 5374 C 514.502 -1.88701 -0.375445 0
M  V30 5375 O 513.795 -1.43107 -1.274 0
M  V30 5376 C 513.989 -3.11814 1.74662 0
M  V30 5377 C 513.818 -3.08892 3.26827 0
M  V30 5378 C 512.588 -3.13861 3.96004 0
M  V30 5379 C 514.786 -2.9175 4.2354 0
M  V30 5380 N 512.768 -3.00867 5.35119 0
M  V30 5381 C 514.139 -2.8696 5.49595 0
M  V30 5382 C 516.194 -2.76265 4.14225 0
M  V30 5383 C 514.897 -2.68268 6.67401 0
M  V30 5384 C 516.923 -2.58938 5.317 0
M  V30 5385 C 516.285 -2.54849 6.56682 0
M  V30 5386 H 512.384 -0.638896 0.450927 0
M  V30 5387 H 514.968 -1.15835 1.56494 0
M  V30 5388 H 513.139 -3.66347 1.29014 0
M  V30 5389 H 514.871 -3.74984 1.52215 0
M  V30 5390 H 511.626 -3.22198 3.4711 0
M  V30 5391 H 512.05 -2.97634 6.08065 0
M  V30 5392 H 516.692 -2.78213 3.18366 0
M  V30 5393 H 514.41 -2.65063 7.63392 0
M  V30 5394 H 517.996 -2.47914 5.26336 0
M  V30 5395 H 516.876 -2.41611 7.46052 0
M  V30 5396 N 514.379 -1.04941 -1.1758 0
M  V30 5397 C 515.628 -0.753124 -1.87112 0
M  V30 5398 C 515.941 0.722507 -1.81767 0
M  V30 5399 O 517.147 1.13265 -2.46746 0
M  V30 5400 C 515.603 -1.29695 -3.35719 0
M  V30 5401 C 515.211 -2.80184 -3.49572 0
M  V30 5402 C 516.955 -1.07759 -4.10595 0
M  V30 5403 C 514.862 -3.2788 -4.92187 0
M  V30 5404 H 513.792 -0.278034 -0.700866 0
M  V30 5405 H 516.443 -1.26637 -1.32798 0
M  V30 5406 H 514.825 -0.711522 -3.89555 0
M  V30 5407 H 515.999 -3.44561 -3.05965 0
M  V30 5408 H 514.314 -3.00632 -2.88113 0
M  V30 5409 H 516.911 -1.40899 -5.15802 0
M  V30 5410 H 517.254 -0.0152302 -4.16297 0
M  V30 5411 H 517.787 -1.62809 -3.62957 0
M  V30 5412 H 514.526 -4.33535 -4.91658 0
M  V30 5413 H 514.046 -2.68245 -5.36475 0
M  V30 5414 H 515.725 -3.22412 -5.60945 0
M  V30 5415 N 515.857 1.33968 -0.830081 0
M  V30 5416 C 516.807 2.26845 -0.229242 0
M  V30 5417 C 517.791 1.48862 0.610659 0
M  V30 5418 O 518.983 1.70808 0.464067 0
M  V30 5419 C 516.112 3.3798 0.602057 0
M  V30 5420 C 515.198 4.23369 -0.248866 0
M  V30 5421 N 515.589 4.88182 -1.32334 0
M  V30 5422 C 513.887 4.45987 -0.0344077 0
M  V30 5423 C 514.588 5.51671 -1.84482 0
M  V30 5424 N 513.564 5.31348 -1.14762 0
M  V30 5425 H 517.366 2.74464 -1.05104 0
M  V30 5426 H 514.88 1.4777 -0.673623 0
M  V30 5427 H 516.877 4.03494 1.04873 0
M  V30 5428 H 515.537 2.9191 1.42193 0
M  V30 5429 H 516.548 4.88988 -1.70619 0
M  V30 5430 H 513.225 4.10658 0.752727 0
M  V30 5431 H 514.615 6.13308 -2.74413 0
M  V30 5432 N 517.335 0.585699 1.46312 0
M  V30 5433 C 518.582 0.0724211 2.0237 0
M  V30 5434 C 518.91 -1.28868 1.45683 0
M  V30 5435 O 518.165 -1.85853 0.612945 0
M  V30 5436 C 518.464 -0.0401312 3.57377 0
M  V30 5437 C 518.13 1.25376 4.33119 0
M  V30 5438 C 516.792 1.60824 4.5353 0
M  V30 5439 C 519.144 2.10987 4.76586 0
M  V30 5440 C 516.472 2.81676 5.14661 0
M  V30 5441 C 518.824 3.31068 5.39052 0
M  V30 5442 C 517.488 3.66794 5.5769 0
M  V30 5443 H 516.758 0.0265007 0.740526 0
M  V30 5444 H 519.405 0.762935 1.75646 0
M  V30 5445 H 517.71 -0.813791 3.83255 0
M  V30 5446 H 519.407 -0.453078 3.98432 0
M  V30 5447 H 515.997 0.967808 4.1753 0
M  V30 5448 H 520.181 1.84904 4.60569 0
M  V30 5449 H 515.437 3.0949 5.27282 0
M  V30 5450 H 519.611 3.97672 5.71691 0
M  V30 5451 H 517.238 4.60529 6.04828 0
M  V30 5452 N 518.813 -1.54241 0.323641 0
M  V30 5453 C 520.06 -2.0057 -0.27891 0
M  V30 5454 C 520.388 -1.21181 -1.52136 0
M  V30 5455 O 519.643 -0.282043 -1.93657 0
M  V30 5456 C 519.942 -3.5129 -0.658031 0
M  V30 5457 C 519.608 -4.48281 0.485252 0
M  V30 5458 C 518.27 -4.74519 0.799055 0
M  V30 5459 C 520.622 -5.05909 1.25322 0
M  V30 5460 C 517.95 -5.55643 1.88354 0
M  V30 5461 C 520.302 -5.88215 2.32779 0
M  V30 5462 C 518.966 -6.12755 2.64741 0
M  V30 5463 H 518.236 -0.733938 -0.10206 0
M  V30 5464 H 520.883 -1.862 0.447435 0
M  V30 5465 H 519.188 -3.63388 -1.4648 0
M  V30 5466 H 520.885 -3.84578 -1.1358 0
M  V30 5467 H 517.475 -4.27979 0.230593 0
M  V30 5468 H 521.659 -4.8562 1.02404 0
M  V30 5469 H 516.915 -5.72888 2.13564 0
M  V30 5470 H 521.089 -6.31888 2.92729 0
M  V30 5471 H 518.716 -6.75404 3.48904 0
M  V30 5472 N 520.291 -0.0518155 -1.57515 0
M  V30 5473 C 521.238 0.922352 -2.11569 0
M  V30 5474 C 522.208 1.30842 -1.02321 0
M  V30 5475 O 523.393 1.39778 -1.29872 0
M  V30 5476 C 520.533 2.19167 -2.6657 0
M  V30 5477 C 519.646 1.86003 -3.89906 0
M  V30 5478 C 518.781 3.07398 -4.33221 0
M  V30 5479 C 517.82 2.70158 -5.49255 0
M  V30 5480 N 516.957 3.84248 -5.8762 0
M  V30 5481 H 521.797 0.454506 -2.94514 0
M  V30 5482 H 519.334 0.212718 -1.45554 0
M  V30 5483 H 521.292 2.93443 -2.96559 0
M  V30 5484 H 519.922 2.63528 -1.86421 0
M  V30 5485 H 518.974 1.01874 -3.66505 0
M  V30 5486 H 520.286 1.54592 -4.74239 0
M  V30 5487 H 519.44 3.89972 -4.64765 0
M  V30 5488 H 518.179 3.41988 -3.477 0
M  V30 5489 H 517.184 1.86001 -5.17382 0
M  V30 5490 H 518.409 2.36759 -6.36492 0
M  V30 5491 H 516.355 4.18638 -5.05053 0
M  V30 5492 H 516.272 3.56538 -6.66646 0
M  V30 5493 H 517.54 4.6746 -6.2378 0
M  V30 5494 N 521.769 1.56035 0.221574 0
M  V30 5495 C 523.017 1.78693 0.944102 0
M  V30 5496 C 523.338 0.620317 1.8487 0
M  V30 5497 O 522.608 -0.362784 1.92512 0
M  V30 5498 H 521.188 0.659082 0.351597 0
M  V30 5499 H 523.85 1.93497 0.233435 0
M  V30 5500 H 522.946 2.70837 1.55093 0
M  V30 5501 N 523.247 -0.488276 1.49845 0
M  V30 5502 C 524.524 -1.24959 1.50481 0
M  V30 5503 C 524.904 -2.09735 0.239698 0
M  V30 5504 O 524.252 -2.14865 -0.777524 0
M  V30 5505 C 524.462 -2.0954 2.79095 0
M  V30 5506 C 525.81 -2.68305 3.29086 0
M  V30 5507 O 526.834 -2.19797 2.80299 0
M  V30 5508 O 525.693 -3.56643 4.14087 0
M  V30 5509 H 522.787 -0.566133 0.602845 0
M  V30 5510 H 525.333 -0.501504 1.6212 0
M  V30 5511 H 524.105 -1.46958 3.62656 0
M  V30 5512 H 523.728 -2.91517 2.70377 0
M  V30 5513 N 524.725 -1.39134 -0.740242 0
M  V30 5514 C 525.672 -1.37434 -1.8542 0
M  V30 5515 C 526.642 -0.234822 -1.64432 0
M  V30 5516 O 527.827 -0.429125 -1.85912 0
M  V30 5517 C 524.967 -1.21844 -3.22875 0
M  V30 5518 C 524.08 -2.45296 -3.55603 0
M  V30 5519 C 523.215 -2.22334 -4.82432 0
M  V30 5520 C 522.254 -3.41488 -5.07988 0
M  V30 5521 N 521.391 -3.17877 -6.26018 0
M  V30 5522 H 526.231 -2.3266 -1.86207 0
M  V30 5523 H 523.768 -1.15578 -0.909946 0
M  V30 5524 H 525.726 -1.10818 -4.02213 0
M  V30 5525 H 524.356 -0.3025 -3.21379 0
M  V30 5526 H 523.408 -2.66945 -2.71006 0
M  V30 5527 H 524.72 -3.34063 -3.7041 0
M  V30 5528 H 523.874 -2.0852 -5.69741 0
M  V30 5529 H 522.613 -1.30954 -4.6979 0
M  V30 5530 H 521.618 -3.55807 -4.19144 0
M  V30 5531 H 522.843 -4.33763 -5.22519 0
M  V30 5532 H 520.789 -2.29156 -6.14673 0
M  V30 5533 H 520.706 -4.00198 -6.41387 0
M  V30 5534 H 521.974 -3.07746 -7.16179 0
M  V30 5535 N 526.204 0.969867 -1.24223 0
M  V30 5536 C 527.45 1.7151 -1.08223 0
M  V30 5537 C 527.783 1.90478 0.37838 0
M  V30 5538 O 527.058 1.4647 1.27971 0
M  V30 5539 C 527.341 3.10714 -1.82013 0
M  V30 5540 C 527.194 2.9925 -3.35811 0
M  V30 5541 C 528.513 4.10332 -1.59108 0
M  V30 5542 H 525.632 0.622499 -0.394543 0
M  V30 5543 H 528.274 1.1284 -1.52863 0
M  V30 5544 H 526.424 3.608 -1.44068 0
M  V30 5545 H 528.096 2.56608 -3.83341 0
M  V30 5546 H 526.339 2.35512 -3.64303 0
M  V30 5547 H 527.01 3.97857 -3.82641 0
M  V30 5548 H 529.486 3.69097 -1.92111 0
M  V30 5549 H 528.362 5.05804 -2.13198 0
M  V30 5550 H 528.623 4.38926 -0.528832 0
M  V30 5551 N 527.682 1.05563 1.17022 0
M  V30 5552 C 528.928 0.778872 1.87897 0
M  V30 5553 C 529.283 -0.686839 1.79723 0
M  V30 5554 O 528.576 -1.49612 1.19694 0
M  V30 5555 C 528.77 1.19849 3.36706 0
M  V30 5556 C 528.599 2.70345 3.59366 0
M  V30 5557 C 527.369 3.37707 3.75875 0
M  V30 5558 C 529.567 3.68564 3.58699 0
M  V30 5559 N 527.549 4.7703 3.86414 0
M  V30 5560 C 528.92 4.93634 3.75134 0
M  V30 5561 C 530.975 3.6198 3.4187 0
M  V30 5562 C 529.678 6.12907 3.76481 0
M  V30 5563 C 531.704 4.80697 3.44507 0
M  V30 5564 C 531.066 6.04592 3.61453 0
M  V30 5565 H 527.165 0.337297 0.705517 0
M  V30 5566 H 529.749 1.34832 1.40458 0
M  V30 5567 H 527.92 0.656958 3.82804 0
M  V30 5568 H 529.652 0.871172 3.95212 0
M  V30 5569 H 526.407 2.88108 3.75887 0
M  V30 5570 H 526.831 5.49483 3.95471 0
M  V30 5571 H 531.473 2.67154 3.27702 0
M  V30 5572 H 529.191 7.08073 3.89432 0
M  V30 5573 H 532.777 4.77259 3.32738 0
M  V30 5574 H 531.657 6.94916 3.63403 0
M  V30 5575 N 529.16 -1.33526 0.837174 0
M  V30 5576 C 530.576 -1.50727 0.524743 0
M  V30 5577 C 530.776 -1.77792 -0.948279 0
M  V30 5578 O 529.832 -1.83719 -1.73216 0
M  V30 5579 C 531.145 -2.66299 1.39661 0
M  V30 5580 C 532.693 -2.80183 1.39521 0
M  V30 5581 C 533.168 -3.98815 2.25189 0
M  V30 5582 N 534.659 -4.06047 2.2289 0
M  V30 5583 C 535.394 -4.97032 2.85915 0
M  V30 5584 N 534.89 -5.93143 3.57985 0
M  V30 5585 N 536.683 -4.90015 2.75394 0
M  V30 5586 H 528.834 -1.1422 1.79074 0
M  V30 5587 H 531.097 -0.561399 0.763894 0
M  V30 5588 H 530.803 -2.52974 2.4433 0
M  V30 5589 H 530.677 -3.61663 1.07145 0
M  V30 5590 H 533.064 -2.92942 0.356253 0
M  V30 5591 H 533.145 -1.85586 1.76044 0
M  V30 5592 H 532.789 -3.86817 3.29143 0
M  V30 5593 H 532.719 -4.92654 1.86009 0
M  V30 5594 H 535.21 -3.37262 1.70478 0
M  V30 5595 H 535.523 -6.59227 4.03286 0
M  V30 5596 H 533.868 -5.93223 3.62093 0
M  V30 5597 H 537.059 -4.13894 2.18654 0
M  V30 5598 H 537.232 -5.60724 3.24796 0
M  V30 5599 N 530.638 -0.59345 -1.46 0
M  V30 5600 C 531.868 -0.0889642 -2.06408 0
M  V30 5601 C 532.276 1.22597 -1.44106 0
M  V30 5602 O 531.619 1.75448 -0.544398 0
M  V30 5603 C 531.681 0.139902 -3.59228 0
M  V30 5604 C 531.345 -1.09107 -4.43784 0
M  V30 5605 C 532.342 -2.00577 -4.79651 0
M  V30 5606 C 530.027 -1.31593 -4.84756 0
M  V30 5607 C 532.021 -3.12873 -5.55328 0
M  V30 5608 C 529.708 -2.44192 -5.60191 0
M  V30 5609 C 530.706 -3.34661 -5.95392 0
M  V30 5610 O 530.394 -4.45302 -6.69299 0
M  V30 5611 H 530.126 -0.0594613 -0.67338 0
M  V30 5612 H 532.68 -0.817 -1.88452 0
M  V30 5613 H 530.91 0.922672 -3.75531 0
M  V30 5614 H 532.599 0.594228 -4.01527 0
M  V30 5615 H 533.365 -1.84425 -4.48567 0
M  V30 5616 H 529.244 -0.620801 -4.56801 0
M  V30 5617 H 532.788 -3.83511 -5.82722 0
M  V30 5618 H 528.685 -2.60303 -5.90688 0
M  V30 5619 H 529.453 -4.43805 -6.87735 0
M  V30 5620 N 532.116 1.54067 -0.331816 0
M  V30 5621 C 533.365 1.99895 0.269209 0
M  V30 5622 C 533.678 1.22371 1.52593 0
M  V30 5623 O 534.884 1.58618 2.20347 0
M  V30 5624 C 533.34 3.55972 0.530244 0
M  V30 5625 C 532.948 4.4234 -0.709901 0
M  V30 5626 C 534.692 4.10247 1.09077 0
M  V30 5627 C 532.599 5.89905 -0.420312 0
M  V30 5628 H 531.529 0.746741 0.104371 0
M  V30 5629 H 534.18 1.78014 -0.445324 0
M  V30 5630 H 532.562 3.73873 1.30518 0
M  V30 5631 H 533.736 4.36215 -1.48504 0
M  V30 5632 H 532.051 3.98997 -1.19123 0
M  V30 5633 H 534.648 5.18095 1.32219 0
M  V30 5634 H 534.991 3.62739 2.0427 0
M  V30 5635 H 535.524 3.96011 0.376824 0
M  V30 5636 H 532.263 6.41623 -1.34164 0
M  V30 5637 H 531.783 5.98962 0.316962 0
M  V30 5638 H 533.462 6.46991 -0.0331956 0
M  V30 5639 N 533.594 0.0601682 1.57485 0
M  V30 5640 C 534.542 -0.928899 2.13247 0
M  V30 5641 C 535.536 -1.31616 1.06647 0
M  V30 5642 O 536.742 -1.29476 1.25043 0
M  V30 5643 H 533.117 -0.317455 0.681708 0
M  V30 5644 H 535.088 -0.433566 2.95233 0
M  V30 5645 C 533.837 -2.19121 2.69965 0
M  V30 5646 H 533.16 -1.90204 3.51657 0
M  V30 5647 H 534.6 -2.86465 3.12592 0
M  V30 5648 C 533.059 -2.94195 1.64168 0
M  V30 5649 O 533.589 -3.87468 1.05978 0
M  V30 5650 N 531.795 -2.57089 1.35476 0
M  V30 5651 H 531.342 -1.81314 1.82984 0
M  V30 5652 H 531.3 -3.07624 0.649196 0
M  V30 5653 N 535.072 -1.5615 -0.213296 0
M  V30 5654 C 536.319 -1.79546 -0.936462 0
M  V30 5655 C 536.647 -0.630337 -1.84003 0
M  V30 5656 O 535.902 0.384883 -1.91878 0
M  V30 5657 C 536.201 -3.08772 -1.79985 0
M  V30 5658 C 535.867 -4.38532 -1.04882 0
M  V30 5659 C 534.529 -4.73787 -0.841393 0
M  V30 5660 C 536.881 -5.18609 -0.51907 0
M  V30 5661 C 534.209 -5.86627 -0.0924403 0
M  V30 5662 C 536.561 -6.32229 0.216581 0
M  V30 5663 C 535.225 -6.6608 0.435191 0
M  V30 5664 H 534.495 -0.657004 -0.342676 0
M  V30 5665 H 537.142 -1.9041 -0.204051 0
M  V30 5666 H 535.447 -2.93065 -2.60038 0
M  V30 5667 H 537.144 -3.24077 -2.36168 0
M  V30 5668 H 533.734 -4.10855 -1.22048 0
M  V30 5669 H 537.918 -4.91801 -0.666775 0
M  V30 5670 H 533.174 -6.11338 0.087081 0
M  V30 5671 H 537.348 -6.93503 0.634538 0
M  V30 5672 H 534.975 -7.5336 1.01746 0
M  V30 5673 N 536.55 0.480323 -1.50102 0
M  V30 5674 C 537.497 1.57946 -1.6829 0
M  V30 5675 C 538.467 1.57611 -0.524223 0
M  V30 5676 O 539.652 1.75282 -0.753709 0
M  V30 5677 C 536.792 2.95978 -1.77457 0
M  V30 5678 C 535.905 3.06173 -3.04766 0
M  V30 5679 C 535.04 4.35063 -3.04784 0
M  V30 5680 C 534.079 4.38966 -4.26586 0
M  V30 5681 N 533.216 5.59314 -4.24396 0
M  V30 5682 H 538.056 1.41743 -2.62131 0
M  V30 5683 H 535.593 0.689304 -1.2995 0
M  V30 5684 H 537.551 3.76011 -1.80752 0
M  V30 5685 H 536.181 3.10837 -0.870637 0
M  V30 5686 H 535.233 2.19071 -3.10986 0
M  V30 5687 H 536.545 3.04916 -3.9475 0
M  V30 5688 H 535.699 5.23436 -3.06757 0
M  V30 5689 H 534.438 4.38915 -2.12614 0
M  V30 5690 H 533.443 3.48992 -4.24835 0
M  V30 5691 H 534.668 4.36813 -5.19972 0
M  V30 5692 H 532.614 5.63969 -3.35074 0
M  V30 5693 H 532.531 5.5976 -5.08138 0
M  V30 5694 H 533.799 6.49837 -4.30502 0
M  V30 5695 N 538.028 1.39524 0.732853 0
M  V30 5696 C 538.961 1.32806 1.85574 0
M  V30 5697 C 539.939 0.201354 1.61348 0
M  V30 5698 O 541.123 0.38216 1.84585 0
M  V30 5699 C 538.25 1.06271 3.21596 0
M  V30 5700 C 537.296 2.21161 3.64678 0
M  V30 5701 S 538.129 3.83454 3.73796 0
M  V30 5702 C 539.285 3.59149 5.12604 0
M  V30 5703 H 539.518 2.27838 1.9099 0
M  V30 5704 H 537.051 1.25605 0.897927 0
M  V30 5705 H 539.009 0.916461 4.00139 0
M  V30 5706 H 537.67 0.129223 3.13834 0
M  V30 5707 H 536.863 1.98193 4.63396 0
M  V30 5708 H 536.465 2.32 2.93346 0
M  V30 5709 H 538.757 3.16547 5.99003 0
M  V30 5710 H 539.7 4.57335 5.40602 0
M  V30 5711 H 540.108 2.93203 4.82382 0
M  V30 5712 N 539.506 -0.963266 1.24736 0
M  V30 5713 C 540.731 -1.74699 1.11781 0
M  V30 5714 C 541.156 -1.85267 -0.325258 0
M  V30 5715 O 540.514 -1.32681 -1.23553 0
M  V30 5716 C 540.562 -3.14322 1.76731 0
M  V30 5717 O 539.666 -3.99043 1.04109 0
M  V30 5718 H 539.007 -0.53684 0.390767 0
M  V30 5719 H 541.537 -1.20801 1.65131 0
M  V30 5720 H 541.547 -3.64824 1.82668 0
M  V30 5721 H 540.222 -3.05946 2.81726 0
M  V30 5722 H 538.799 -3.5752 1.05991 0
M  V30 5723 N 540.985 -1.06182 -1.16461 0
M  V30 5724 C 542.396 -0.802426 -1.68576 0
M  V30 5725 C 542.747 0.67412 -1.84255 0
M  V30 5726 O 541.872 1.52303 -1.5373 0
M  V30 5727 C 542.467 -1.45002 -3.06202 0
M  V30 5728 C 541.026 -1.23843 -3.55443 0
M  V30 5729 C 540.173 -1.52724 -2.31454 0
M  V30 5730 H 543.124 -1.22545 -1.00839 0
M  V30 5731 H 543.145 -0.864731 -3.70544 0
M  V30 5732 H 542.657 -2.52466 -2.94759 0
M  V30 5733 H 540.758 -0.183487 -3.72148 0
M  V30 5734 H 540.871 -1.95036 -4.37604 0
M  V30 5735 H 539.235 -0.947726 -2.36411 0
M  V30 5736 H 540.018 -2.61343 -2.22609 0
M  V30 5737 N 542.463 1.3308 -0.844243 0
M  V30 5738 C 543.711 1.97215 -0.441676 0
M  V30 5739 C 544.032 1.67185 1.0037 0
M  V30 5740 O 543.302 0.973588 1.69994 0
M  V30 5741 H 541.882 0.72959 -0.160335 0
M  V30 5742 H 544.544 1.62348 -1.07838 0
M  V30 5743 H 543.64 3.06698 -0.57815 0
M  V30 5744 N 543.941 0.601185 1.45683 0
M  V30 5745 C 545.188 0.0938811 2.02282 0
M  V30 5746 C 545.516 -1.27315 1.47041 0
M  V30 5747 O 544.771 -1.85193 0.632623 0
M  V30 5748 C 545.07 -0.00222425 3.574 0
M  V30 5749 C 544.736 1.29963 4.31764 0
M  V30 5750 C 543.398 1.65625 4.51798 0
M  V30 5751 C 545.75 2.1603 4.74321 0
M  V30 5752 C 543.078 2.87119 5.11644 0
M  V30 5753 C 545.43 3.36766 5.3551 0
M  V30 5754 C 544.094 3.72689 5.53768 0
M  V30 5755 H 543.364 0.0343535 0.740203 0
M  V30 5756 H 546.011 0.781522 1.74827 0
M  V30 5757 H 544.316 -0.773096 3.84097 0
M  V30 5758 H 546.013 -0.410794 3.9889 0
M  V30 5759 H 542.603 1.01204 4.1648 0
M  V30 5760 H 546.787 1.89778 4.58582 0
M  V30 5761 H 542.043 3.15065 5.2397 0
M  V30 5762 H 546.217 4.03713 5.67441 0
M  V30 5763 H 543.844 4.66918 5.99909 0
M  V30 5764 N 545.419 -1.53889 0.339982 0
M  V30 5765 C 546.83 -1.86139 -0.144671 0
M  V30 5766 C 547.181 -1.2613 -1.50285 0
M  V30 5767 O 546.306 -0.573515 -2.08662 0
M  V30 5768 C 546.901 -3.37728 -0.269285 0
M  V30 5769 C 545.46 -3.69868 -0.698168 0
M  V30 5770 C 544.607 -2.76777 0.170249 0
M  V30 5771 H 547.558 -1.48503 0.559704 0
M  V30 5772 H 547.579 -3.64331 -1.0974 0
M  V30 5773 H 547.091 -3.81375 0.719366 0
M  V30 5774 H 545.192 -3.31764 -1.69597 0
M  V30 5775 H 545.305 -4.76582 -0.490533 0
M  V30 5776 H 543.669 -2.52188 -0.356844 0
M  V30 5777 H 544.452 -3.23253 1.15597 0
M  V30 5778 N 546.897 -0.0685191 -1.57451 0
M  V30 5779 C 547.844 0.899861 -2.12535 0
M  V30 5780 C 548.814 1.29749 -1.03703 0
M  V30 5781 O 549.999 1.38392 -1.31348 0
M  V30 5782 C 547.139 2.16328 -2.6888 0
M  V30 5783 C 546.252 1.81857 -3.91857 0
M  V30 5784 C 545.387 3.02786 -4.36457 0
M  V30 5785 C 544.426 2.64317 -5.5209 0
M  V30 5786 N 543.563 3.77994 -5.91663 0
M  V30 5787 H 548.403 0.423243 -2.94979 0
M  V30 5788 H 545.94 0.197268 -1.45771 0
M  V30 5789 H 547.898 2.90281 -2.99655 0
M  V30 5790 H 546.528 2.61536 -1.89206 0
M  V30 5791 H 545.58 0.979808 -3.67565 0
M  V30 5792 H 546.892 1.49553 -4.75852 0
M  V30 5793 H 546.046 3.85021 -4.68875 0
M  V30 5794 H 544.785 3.38281 -3.51308 0
M  V30 5795 H 543.79 1.80503 -5.19325 0
M  V30 5796 H 545.015 2.29995 -6.38967 0
M  V30 5797 H 542.961 4.13258 -5.09464 0
M  V30 5798 H 542.878 3.49447 -6.7039 0
M  V30 5799 H 544.146 4.60818 -6.28703 0
M  V30 5800 N 548.375 1.56261 0.205012 0
M  V30 5801 C 549.322 1.93754 1.25411 0
M  V30 5802 C 550.292 0.796826 1.45739 0
M  V30 5803 O 551.477 1.05414 1.59036 0
M  V30 5804 C 548.617 2.27383 2.59598 0
M  V30 5805 C 547.73 3.5447 2.46931 0
M  V30 5806 C 546.865 3.77468 3.73753 0
M  V30 5807 C 545.904 4.98014 3.55877 0
M  V30 5808 N 545.041 5.17316 4.74688 0
M  V30 5809 H 549.881 2.83203 0.92737 0
M  V30 5810 H 547.418 1.40158 0.446574 0
M  V30 5811 H 549.376 2.44895 3.37761 0
M  V30 5812 H 548.006 1.41088 2.90335 0
M  V30 5813 H 547.058 3.45061 1.60116 0
M  V30 5814 H 548.37 4.42789 2.29651 0
M  V30 5815 H 547.524 3.95165 4.60358 0
M  V30 5816 H 546.263 2.87461 3.93976 0
M  V30 5817 H 545.268 4.80249 2.67657 0
M  V30 5818 H 546.493 5.8952 3.37109 0
M  V30 5819 H 544.439 4.30255 4.95194 0
M  V30 5820 H 544.356 5.99796 4.60197 0
M  V30 5821 H 545.624 5.39463 5.62672 0
M  V30 5822 N 549.853 -0.472356 1.50355 0
M  V30 5823 C 550.783 -1.57859 1.72055 0
M  V30 5824 C 551.764 -1.60283 0.569505 0
M  V30 5825 O 552.949 -1.7657 0.808503 0
M  V30 5826 C 550.079 -2.96191 1.81351 0
M  V30 5827 C 549.033 -3.08633 2.96529 0
M  V30 5828 C 548.359 -4.486 2.90968 0
M  V30 5829 C 549.659 -2.85969 4.37057 0
M  V30 5830 H 551.353 -1.39953 2.64676 0
M  V30 5831 H 548.899 -0.671846 1.27367 0
M  V30 5832 H 550.852 -3.73507 1.95117 0
M  V30 5833 H 549.576 -3.15251 0.853502 0
M  V30 5834 H 548.235 -2.33749 2.82413 0
M  V30 5835 H 547.883 -4.64577 1.92815 0
M  V30 5836 H 547.583 -4.57861 3.68289 0
M  V30 5837 H 549.107 -5.27938 3.0678 0
M  V30 5838 H 550.521 -3.53036 4.51706 0
M  V30 5839 H 548.918 -3.06677 5.15819 0
M  V30 5840 H 549.988 -1.81838 4.49514 0
M  V30 5841 N 551.331 -1.39911 -0.725443 0
M  V30 5842 C 552.279 -1.39552 -1.86086 0
M  V30 5843 C 553.273 -0.277334 -1.67114 0
M  V30 5844 O 554.479 -0.447865 -1.74339 0
M  V30 5845 H 550.854 -0.435993 -0.612711 0
M  V30 5846 H 552.825 -2.35305 -1.83505 0
M  V30 5847 C 551.574 -1.26529 -3.2386 0
M  V30 5848 H 550.897 -2.11845 -3.3906 0
M  V30 5849 H 552.337 -1.30336 -4.03471 0
M  V30 5850 C 550.796 0.0254168 -3.3689 0
M  V30 5851 O 551.326 0.992048 -3.89257 0
M  V30 5852 N 549.532 0.0916528 -2.90455 0
M  V30 5853 H 549.079 -0.695675 -2.48028 0
M  V30 5854 H 549.037 0.954745 -2.99553 0
M  V30 5855 N 552.809 0.956637 -1.25245 0
M  V30 5856 C 554.225 1.22733 -1.02023 0
M  V30 5857 C 554.425 1.99761 0.264186 0
M  V30 5858 O 553.481 2.32814 0.977436 0
M  V30 5859 C 554.794 2.00367 -2.24217 0
M  V30 5860 C 556.342 2.13418 -2.28958 0
M  V30 5861 C 556.817 2.9445 -3.50803 0
M  V30 5862 N 558.308 3.02029 -3.51187 0
M  V30 5863 C 559.043 3.65116 -4.42129 0
M  V30 5864 N 558.539 4.2983 -5.43339 0
M  V30 5865 N 560.332 3.62237 -4.29815 0
M  V30 5866 H 552.483 0.441282 -2.07765 0
M  V30 5867 H 554.746 0.257686 -0.912306 0
M  V30 5868 H 554.452 1.51165 -3.17556 0
M  V30 5869 H 554.326 3.01077 -2.27228 0
M  V30 5870 H 556.713 2.61819 -1.36143 0
M  V30 5871 H 556.794 1.1202 -2.29968 0
M  V30 5872 H 556.438 2.46741 -4.43939 0
M  V30 5873 H 556.368 3.9607 -3.47039 0
M  V30 5874 H 558.859 2.56007 -2.77973 0
M  V30 5875 H 559.172 4.75819 -6.08947 0
M  V30 5876 H 557.517 4.28465 -5.47214 0
M  V30 5877 H 560.708 3.10863 -3.49974 0
M  V30 5878 H 560.881 4.11117 -5.00886 0
M  V30 5879 N 554.287 1.06798 1.15896 0
M  V30 5880 C 555.533 0.788934 1.86825 0
M  V30 5881 C 555.866 -0.683084 1.8179 0
M  V30 5882 O 555.141 -1.50086 1.23711 0
M  V30 5883 C 555.424 1.29065 3.36176 0
M  V30 5884 C 555.277 2.8268 3.49874 0
M  V30 5885 C 556.596 0.902655 4.30744 0
M  V30 5886 H 553.715 0.288066 0.678371 0
M  V30 5887 H 556.357 1.32479 1.36195 0
M  V30 5888 H 554.507 0.834806 3.79425 0
M  V30 5889 H 556.179 3.36511 3.15528 0
M  V30 5890 H 554.422 3.21157 2.91617 0
M  V30 5891 H 555.093 3.12852 4.54783 0
M  V30 5892 H 557.569 1.29535 3.95424 0
M  V30 5893 H 556.445 1.28111 5.3374 0
M  V30 5894 H 556.706 -0.191951 4.41683 0
M  V30 5895 N 555.766 -1.3263 0.851289 0
M  V30 5896 C 556.676 -2.32722 0.296268 0
M  V30 5897 C 557.692 -1.63901 -0.584162 0
M  V30 5898 O 558.868 -1.95465 -0.485334 0
M  V30 5899 C 555.933 -3.42942 -0.509103 0
M  V30 5900 C 554.994 -4.2746 0.397069 0
M  V30 5901 C 554.227 -5.32416 -0.36996 0
M  V30 5902 O 554.45 -5.47491 -1.6003 0
M  V30 5903 O 553.384 -6.01327 0.262493 0
M  V30 5904 H 557.21 -2.82078 1.12543 0
M  V30 5905 H 554.795 -1.36194 0.614135 0
M  V30 5906 H 556.677 -4.1017 -0.96634 0
M  V30 5907 H 555.352 -2.95781 -1.31512 0
M  V30 5908 H 554.259 -3.63053 0.902411 0
M  V30 5909 H 555.592 -4.78136 1.16818 0
M  V30 5910 N 557.244 -0.608902 -1.45362 0
M  V30 5911 C 558.655 -0.189511 -1.85736 0
M  V30 5912 C 559.006 1.2539 -1.50903 0
M  V30 5913 O 558.131 1.95094 -0.936347 0
M  V30 5914 C 558.726 -0.33716 -3.37118 0
M  V30 5915 C 557.285 0.0275487 -3.7639 0
M  V30 5916 C 556.432 -0.660983 -2.69307 0
M  V30 5917 H 559.383 -0.815499 -1.36144 0
M  V30 5918 H 559.404 0.430257 -3.7806 0
M  V30 5919 H 558.916 -1.38779 -3.62439 0
M  V30 5920 H 557.017 1.0773 -3.56686 0
M  V30 5921 H 557.13 -0.367018 -4.77692 0
M  V30 5922 H 555.494 -0.0984958 -2.54509 0
M  V30 5923 H 556.277 -1.71377 -2.97464 0
M  V30 5924 N 558.722 1.53707 -0.348139 0
M  V30 5925 C 559.67 2.26671 0.521808 0
M  V30 5926 C 560.664 1.28988 1.09811 0
M  V30 5927 O 561.87 1.4668 1.04332 0
M  V30 5928 H 558.245 0.728387 0.186968 0
M  V30 5929 H 560.216 2.98176 -0.115563 0
M  V30 5930 C 558.965 3.05591 1.6586 0
M  V30 5931 H 558.288 3.80589 1.22443 0
M  V30 5932 H 559.728 3.59851 2.24239 0
M  V30 5933 C 558.187 2.15366 2.59073 0
M  V30 5934 O 558.717 1.7528 3.61441 0
M  V30 5935 N 556.923 1.80352 2.27863 0
M  V30 5936 H 556.47 2.13149 1.44656 0
M  V30 5937 H 556.428 1.20268 2.90488 0
M  V30 5938 N 560.2 0.0768682 1.57412 0
M  V30 5939 C 561.13 -0.886026 2.16037 0
M  V30 5940 C 562.111 -1.30691 1.08876 0
M  V30 5941 O 563.296 -1.37705 1.36934 0
M  V30 5942 C 560.426 -2.1518 2.72608 0
M  V30 5943 C 559.38 -1.87015 3.8498 0
M  V30 5944 C 558.706 -3.20266 4.28175 0
M  V30 5945 C 560.006 -1.17143 5.08994 0
M  V30 5946 H 561.7 -0.397642 2.96748 0
M  V30 5947 H 559.246 -0.189823 1.42743 0
M  V30 5948 H 561.199 -2.82962 3.12266 0
M  V30 5949 H 559.923 -2.66269 1.89125 0
M  V30 5950 H 558.582 -1.21636 3.45833 0
M  V30 5951 H 558.23 -3.69207 3.41607 0
M  V30 5952 H 557.93 -3.0221 5.03927 0
M  V30 5953 H 559.454 -3.89237 4.70454 0
M  V30 5954 H 560.868 -1.75003 5.45937 0
M  V30 5955 H 559.265 -1.09328 5.90057 0
M  V30 5956 H 560.335 -0.151295 4.84664 0
M  V30 5957 N 561.678 -1.56367 -0.196722 0
M  V30 5958 C 562.955 -1.71359 -0.943159 0
M  V30 5959 C 563.335 -0.631192 -2.01443 0
M  V30 5960 O 562.683 0.358071 -2.25677 0
M  V30 5961 C 562.893 -3.13623 -1.53106 0
M  V30 5962 C 564.241 -3.73806 -2.01381 0
M  V30 5963 O 565.265 -3.16742 -1.62951 0
M  V30 5964 O 564.124 -4.73951 -2.7209 0
M  V30 5965 H 561.218 -0.698851 -0.442195 0
M  V30 5966 H 563.764 -1.68672 -0.186547 0
M  V30 5967 H 562.536 -3.83873 -0.758785 0
M  V30 5968 H 562.159 -3.20532 -2.35255 0
M  V30 5969 N 563.156 0.464375 -1.50603 0
M  V30 5970 C 564.119 1.54393 -1.69397 0
M  V30 5971 C 565.119 1.50566 -0.564504 0
M  V30 5972 O 566.309 1.53066 -0.831645 0
M  V30 5973 C 563.441 2.9401 -1.72543 0
M  V30 5974 H 564.634 1.39044 -2.65719 0
M  V30 5975 H 562.187 0.69122 -1.40185 0
M  V30 5976 H 562.922 3.14795 -0.77938 0
M  V30 5977 H 562.707 2.98195 -2.54602 0
M  V30 5978 H 564.197 3.72375 -1.89015 0
M  V30 5979 N 564.634 1.40294 0.718013 0
M  V30 5980 C 565.597 1.4012 1.81381 0
M  V30 5981 C 566.597 0.295405 1.58063 0
M  V30 5982 O 567.787 0.554187 1.6515 0
M  V30 5983 C 564.919 1.19056 3.19435 0
M  V30 5984 H 566.112 2.37645 1.82933 0
M  V30 5985 H 563.665 1.26107 0.923405 0
M  V30 5986 H 564.4 0.222809 3.23534 0
M  V30 5987 H 564.185 1.99152 3.37758 0
M  V30 5988 H 565.675 1.21716 3.99468 0
M  V30 5989 N 566.112 -0.949982 1.2575 0
M  V30 5990 C 567.042 -2.06483 1.09028 0
M  V30 5991 C 568.023 -1.701 -0.00201532 0
M  V30 5992 O 569.208 -1.93469 0.168383 0
M  V30 5993 C 566.338 -3.39899 0.71316 0
M  V30 5994 C 565.292 -3.90309 1.75621 0
M  V30 5995 C 564.618 -5.20274 1.23365 0
M  V30 5996 C 565.918 -4.16169 3.15596 0
M  V30 5997 H 567.612 -2.20731 2.02283 0
M  V30 5998 H 565.158 -1.06066 0.973964 0
M  V30 5999 H 567.111 -4.17346 0.58309 0
M  V30 6000 H 565.835 -3.25602 -0.255091 0
M  V30 6001 H 564.494 -3.15035 1.8748 0
M  V30 6002 H 564.142 -5.02351 0.255491 0
M  V30 6003 H 563.842 -5.54971 1.93082 0
M  V30 6004 H 565.366 -6.00314 1.11607 0
M  V30 6005 H 566.78 -4.84259 3.06864 0
M  V30 6006 H 565.177 -4.62131 3.82825 0
M  V30 6007 H 566.247 -3.22273 3.6231 0
M  V30 6008 N 567.59 -1.07411 -1.15328 0
M  V30 6009 C 568.82 -0.817595 -1.89734 0
M  V30 6010 C 569.228 0.63297 -1.78298 0
M  V30 6011 O 568.571 1.44594 -1.13306 0
M  V30 6012 C 568.633 -1.14748 -3.40695 0
M  V30 6013 C 568.297 -2.59876 -3.75917 0
M  V30 6014 C 569.294 -3.58122 -3.76888 0
M  V30 6015 C 566.979 -2.95469 -4.06206 0
M  V30 6016 C 568.973 -4.89996 -4.07655 0
M  V30 6017 C 566.66 -4.2754 -4.36638 0
M  V30 6018 C 567.658 -5.24614 -4.37344 0
M  V30 6019 O 567.346 -6.54312 -4.67045 0
M  V30 6020 H 567.078 -0.295175 -0.608151 0
M  V30 6021 H 569.632 -1.43409 -1.47048 0
M  V30 6022 H 567.862 -0.47395 -3.83785 0
M  V30 6023 H 569.551 -0.873397 -3.96392 0
M  V30 6024 H 570.317 -3.31966 -3.53587 0
M  V30 6025 H 566.196 -2.20558 -4.04815 0
M  V30 6026 H 569.74 -5.65759 -4.08121 0
M  V30 6027 H 565.637 -4.53449 -4.59407 0
M  V30 6028 H 566.405 -6.59473 -4.84807 0
M  V30 6029 N 569.068 1.32177 -0.85831 0
M  V30 6030 C 570.314 1.97813 -0.47346 0
M  V30 6031 C 570.669 1.66674 0.961122 0
M  V30 6032 O 569.962 0.94657 1.66585 0
M  V30 6033 C 570.156 3.51372 -0.653658 0
M  V30 6034 C 569.985 3.97433 -2.1042 0
M  V30 6035 C 568.755 4.24338 -2.74345 0
M  V30 6036 C 570.953 4.12233 -3.0752 0
M  V30 6037 N 568.935 4.56672 -4.10272 0
M  V30 6038 C 570.306 4.48146 -4.28445 0
M  V30 6039 C 572.361 3.94577 -3.03667 0
M  V30 6040 C 571.064 4.68246 -5.4602 0
M  V30 6041 C 573.09 4.15864 -4.20489 0
M  V30 6042 C 572.452 4.52098 -5.40173 0
M  V30 6043 H 568.551 0.749808 -0.222061 0
M  V30 6044 H 571.135 1.59927 -1.11047 0
M  V30 6045 H 569.306 3.88372 -0.0463267 0
M  V30 6046 H 571.038 4.03998 -0.238343 0
M  V30 6047 H 567.793 4.16544 -2.25362 0
M  V30 6048 H 568.217 4.77019 -4.80398 0
M  V30 6049 H 572.859 3.65662 -2.12252 0
M  V30 6050 H 570.577 4.96014 -6.37962 0
M  V30 6051 H 574.163 4.03702 -4.18947 0
M  V30 6052 H 573.043 4.68238 -6.29065 0
M  V30 6053 N 570.547 0.616602 1.45037 0
M  V30 6054 C 571.958 0.199359 1.85633 0
M  V30 6055 C 572.309 -1.24588 1.51566 0
M  V30 6056 O 571.434 -1.94594 0.94668 0
M  V30 6057 C 572.029 0.355033 3.36935 0
M  V30 6058 C 570.588 -0.00758748 3.76399 0
M  V30 6059 C 569.735 0.675256 2.68953 0
M  V30 6060 H 572.686 0.822708 1.3571 0
M  V30 6061 H 572.707 -0.410201 3.78282 0
M  V30 6062 H 572.219 1.40699 3.61698 0
M  V30 6063 H 570.32 -1.05837 3.57252 0
M  V30 6064 H 570.433 0.392346 4.77491 0
M  V30 6065 H 568.797 0.111992 2.54454 0
M  V30 6066 H 569.58 1.72952 2.96551 0
M  V30 6067 N 572.025 -1.5352 0.356285 0
M  V30 6068 C 572.955 -2.28372 -0.486661 0
M  V30 6069 C 573.936 -1.30432 -1.09185 0
M  V30 6070 O 575.121 -1.59291 -1.11085 0
M  V30 6071 C 572.251 -3.06604 -1.63129 0
M  V30 6072 C 571.205 -4.12154 -1.15381 0
M  V30 6073 C 570.531 -4.78415 -2.38796 0
M  V30 6074 C 571.831 -5.21724 -0.245179 0
M  V30 6075 H 573.525 -2.99083 0.137797 0
M  V30 6076 H 571.071 -1.43841 0.0677134 0
M  V30 6077 H 573.024 -3.57712 -2.22755 0
M  V30 6078 H 571.748 -2.33568 -2.28284 0
M  V30 6079 H 570.407 -3.61978 -0.580294 0
M  V30 6080 H 570.055 -4.01959 -3.02387 0
M  V30 6081 H 569.755 -5.49734 -2.07524 0
M  V30 6082 H 571.279 -5.32313 -2.99125 0
M  V30 6083 H 572.693 -5.68391 -0.748646 0
M  V30 6084 H 571.09 -6.00095 -0.0237608 0
M  V30 6085 H 572.16 -4.79596 0.715229 0
M  V30 6086 N 573.503 -0.0852151 -1.57369 0
M  V30 6087 C 574.451 0.894856 -2.14698 0
M  V30 6088 C 575.445 1.29903 -1.08727 0
M  V30 6089 O 576.651 1.27471 -1.27088 0
M  V30 6090 H 573.026 0.306569 -0.686673 0
M  V30 6091 H 574.997 0.386542 -2.95886 0
M  V30 6092 C 573.746 2.14798 -2.73417 0
M  V30 6093 H 573.069 1.84585 -3.54638 0
M  V30 6094 H 574.509 2.81456 -3.1711 0
M  V30 6095 C 572.968 2.91546 -1.68828 0
M  V30 6096 O 573.498 3.85733 -1.12129 0
M  V30 6097 N 571.704 2.54901 -1.39549 0
M  V30 6098 H 571.251 1.7838 -1.85845 0
M  V30 6099 H 571.209 3.06553 -0.698054 0
M  V30 6100 N 574.981 1.5647 0.188427 0
M  V30 6101 C 575.913 1.91611 1.25769 0
M  V30 6102 C 576.926 0.807436 1.41366 0
M  V30 6103 O 578.115 1.08586 1.41673 0
M  V30 6104 C 575.215 2.13874 2.6289 0
M  V30 6105 C 574.388 3.45047 2.68815 0
M  V30 6106 C 573.447 3.56342 3.87178 0
M  V30 6107 O 572.473 4.29109 3.73971 0
M  V30 6108 N 573.675 2.89924 5.02916 0
M  V30 6109 H 576.44 2.8393 0.959373 0
M  V30 6110 H 574.001 1.57418 0.378306 0
M  V30 6111 H 575.993 2.18713 3.4051 0
M  V30 6112 H 574.563 1.28022 2.85183 0
M  V30 6113 H 573.783 3.52017 1.77419 0
M  V30 6114 H 575.071 4.31395 2.6977 0
M  V30 6115 H 574.469 2.30644 5.16546 0
M  V30 6116 H 573.026 3.0038 5.78459 0
M  V30 6117 N 576.459 -0.456382 1.50847 0
M  V30 6118 C 577.406 -1.55249 1.70782 0
M  V30 6119 C 578.376 -1.56757 0.549231 0
M  V30 6120 O 579.561 -1.74061 0.7815 0
M  V30 6121 C 576.701 -2.93118 1.82143 0
M  V30 6122 C 575.814 -3.01285 3.09598 0
M  V30 6123 C 574.949 -4.30159 3.11667 0
M  V30 6124 C 573.988 -4.32124 4.33515 0
M  V30 6125 N 573.125 -5.52492 4.3324 0
M  V30 6126 H 577.965 -1.37555 2.64353 0
M  V30 6127 H 575.502 -0.668543 1.3103 0
M  V30 6128 H 577.46 -3.73088 1.86711 0
M  V30 6129 H 576.09 -3.09413 0.919978 0
M  V30 6130 H 575.142 -2.14096 3.14431 0
M  V30 6131 H 576.454 -2.98597 3.99551 0
M  V30 6132 H 575.608 -5.18489 3.15046 0
M  V30 6133 H 574.347 -4.35477 2.1957 0
M  V30 6134 H 573.352 -3.42189 4.30333 0
M  V30 6135 H 574.577 -4.28485 5.26856 0
M  V30 6136 H 572.523 -5.58567 3.44004 0
M  V30 6137 H 572.44 -5.51605 5.16979 0
M  V30 6138 H 573.708 -6.42906 4.40786 0
M  V30 6139 N 577.937 -1.40673 -0.710563 0
M  V30 6140 C 579.183 -1.39428 -1.47267 0
M  V30 6141 C 579.516 0.00182129 -1.942 0
M  V30 6142 O 578.791 0.971387 -1.68506 0
M  V30 6143 C 579.074 -2.38812 -2.6952 0
M  V30 6144 C 578.927 -3.87467 -2.28449 0
M  V30 6145 C 580.246 -2.3566 -3.71689 0
M  V30 6146 H 577.365 -0.507768 -0.534173 0
M  V30 6147 H 580.007 -1.71843 -0.810547 0
M  V30 6148 H 578.157 -2.113 -3.26013 0
M  V30 6149 H 579.829 -4.25825 -1.77399 0
M  V30 6150 H 578.072 -4.03058 -1.60395 0
M  V30 6151 H 578.743 -4.5253 -3.16103 0
M  V30 6152 H 581.219 -2.6004 -3.24836 0
M  V30 6153 H 580.095 -3.07237 -4.54859 0
M  V30 6154 H 580.356 -1.36996 -4.20339 0
M  V30 6155 N 579.415 0.9433 -1.26252 0
M  V30 6156 C 580.662 1.68925 -1.11672 0
M  V30 6157 C 580.99 1.91499 0.340329 0
M  V30 6158 O 580.245 1.49189 1.26653 0
M  V30 6159 C 580.544 3.07073 -1.82868 0
M  V30 6160 C 580.21 3.04262 -3.32769 0
M  V30 6161 C 578.872 3.03203 -3.7366 0
M  V30 6162 C 581.224 2.96729 -4.28487 0
M  V30 6163 C 578.552 2.92373 -5.0866 0
M  V30 6164 C 580.904 2.87442 -5.63525 0
M  V30 6165 C 579.568 2.84724 -6.03729 0
M  V30 6166 H 578.838 0.618141 -0.408635 0
M  V30 6167 H 581.485 1.10124 -1.56668 0
M  V30 6168 H 579.79 3.69486 -1.30335 0
M  V30 6169 H 581.487 3.63635 -1.69029 0
M  V30 6170 H 578.077 3.05865 -3.00241 0
M  V30 6171 H 582.261 2.96658 -3.97879 0
M  V30 6172 H 577.517 2.88645 -5.38975 0
M  V30 6173 H 581.691 2.80576 -6.37377 0
M  V30 6174 H 579.318 2.76089 -7.08293 0
M  V30 6175 N 580.893 1.08022 1.14757 0
M  V30 6176 C 581.823 0.728248 2.21853 0
M  V30 6177 C 582.804 -0.287486 1.67653 0
M  V30 6178 O 583.989 -0.158727 1.9355 0
M  V30 6179 C 581.119 0.132549 3.47047 0
M  V30 6180 C 580.073 1.07619 4.14249 0
M  V30 6181 C 579.399 0.342907 5.33599 0
M  V30 6182 C 580.699 2.41268 4.63235 0
M  V30 6183 H 582.393 1.62365 2.51551 0
M  V30 6184 H 579.939 0.782125 1.20908 0
M  V30 6185 H 581.892 -0.125665 4.21213 0
M  V30 6186 H 580.616 -0.797971 3.16702 0
M  V30 6187 H 579.275 1.31944 3.42033 0
M  V30 6188 H 578.923 -0.59129 4.99513 0
M  V30 6189 H 578.623 0.971955 5.79506 0
M  V30 6190 H 580.147 0.0926538 6.1053 0
M  V30 6191 H 581.561 2.21232 5.28894 0
M  V30 6192 H 579.958 2.9983 5.19829 0
M  V30 6193 H 581.028 3.03079 3.78512 0
M  V30 6194 N 582.371 -1.3172 0.865308 0
M  V30 6195 C 583.618 -1.96876 0.473931 0
M  V30 6196 C 583.946 -1.68425 -0.972786 0
M  V30 6197 O 583.201 -0.970742 -1.69927 0
M  V30 6198 C 583.5 -3.5102 0.672283 0
M  V30 6199 C 583.166 -3.9948 2.09108 0
M  V30 6200 C 581.828 -4.12425 2.4791 0
M  V30 6201 C 584.18 -4.2503 3.0166 0
M  V30 6202 C 581.508 -4.48267 3.78515 0
M  V30 6203 C 583.86 -4.62335 4.31774 0
M  V30 6204 C 582.524 -4.73486 4.70497 0
M  V30 6205 H 581.794 -0.72042 0.173424 0
M  V30 6206 H 584.441 -1.56937 1.0974 0
M  V30 6207 H 582.746 -3.91785 -0.034356 0
M  V30 6208 H 584.443 -3.99475 0.349353 0
M  V30 6209 H 581.033 -3.89898 1.77981 0
M  V30 6210 H 585.217 -4.14529 2.7291 0
M  V30 6211 H 580.473 -4.55097 4.08285 0
M  V30 6212 H 584.647 -4.81058 5.03543 0
M  V30 6213 H 582.274 -5.01016 5.71741 0
M  V30 6214 N 583.85 -0.624285 -1.44708 0
M  V30 6215 C 584.797 0.0847135 -2.30644 0
M  V30 6216 C 585.767 0.843575 -1.43084 0
M  V30 6217 O 586.952 0.825982 -1.71995 0
M  V30 6218 C 584.091 1.06495 -3.28257 0
M  V30 6219 C 583.205 0.305224 -4.3092 0
M  V30 6220 C 582.34 1.27667 -5.1563 0
M  V30 6221 C 581.379 0.505706 -6.10007 0
M  V30 6222 N 580.516 1.42727 -6.8744 0
M  V30 6223 H 585.356 -0.654068 -2.90733 0
M  V30 6224 H 582.893 -0.334334 -1.4325 0
M  V30 6225 H 584.851 1.64658 -3.83332 0
M  V30 6226 H 583.481 1.77094 -2.69884 0
M  V30 6227 H 582.533 -0.392207 -3.78373 0
M  V30 6228 H 583.845 -0.295553 -4.97924 0
M  V30 6229 H 582.999 1.92984 -5.75189 0
M  V30 6230 H 581.738 1.91137 -4.48685 0
M  V30 6231 H 580.743 -0.160999 -5.49564 0
M  V30 6232 H 581.968 -0.124183 -6.78986 0
M  V30 6233 H 579.913 2.04931 -6.23169 0
M  V30 6234 H 579.831 0.880345 -7.50857 0
M  V30 6235 H 581.099 2.0695 -7.51526 0
M  V30 6236 N 585.328 1.53329 -0.364422 0
M  V30 6237 C 586.576 2.00842 0.225189 0
M  V30 6238 C 586.897 1.25345 1.49378 0
M  V30 6239 O 586.167 0.366396 1.92443 0
M  V30 6240 H 584.747 0.742009 0.0862027 0
M  V30 6241 H 587.409 1.8863 -0.490389 0
M  V30 6242 H 586.505 3.08795 0.452987 0
M  V30 6243 N 586.806 0.0935595 1.57322 0
M  V30 6244 C 588.031 -0.582324 1.99057 0
M  V30 6245 C 588.456 -1.61025 0.972242 0
M  V30 6246 O 587.814 -1.81202 -0.0594622 0
M  V30 6247 C 587.862 -1.20799 3.39765 0
M  V30 6248 O 586.966 -2.32382 3.40694 0
M  V30 6249 H 586.307 -0.147884 0.647323 0
M  V30 6250 H 588.837 0.174516 2.03854 0
M  V30 6251 H 588.847 -1.54966 3.77425 0
M  V30 6252 H 587.522 -0.454914 4.13405 0
M  V30 6253 H 586.099 -1.99845 3.14827 0
M  V30 6254 N 588.284 -1.56567 -0.180126 0
M  V30 6255 C 589.532 -1.81133 -0.896392 0
M  V30 6256 C 589.853 -0.669114 -1.83161 0
M  V30 6257 O 589.123 0.311616 -1.93406 0
M  V30 6258 H 587.703 -0.668172 -0.333999 0
M  V30 6259 H 590.365 -1.94048 -0.182051 0
M  V30 6260 H 589.461 -2.74854 -1.47857 0
M  V30 6261 N 589.762 0.448376 -1.51087 0
M  V30 6262 C 590.992 1.21965 -1.66757 0
M  V30 6263 C 591.4 1.85748 -0.359753 0
M  V30 6264 O 590.743 1.71022 0.670604 0
M  V30 6265 C 590.805 2.35284 -2.71812 0
M  V30 6266 C 590.469 1.91957 -4.1473 0
M  V30 6267 C 591.466 1.42921 -4.9987 0
M  V30 6268 C 589.151 1.99985 -4.60772 0
M  V30 6269 C 591.145 1.02485 -6.29107 0
M  V30 6270 C 588.832 1.5916 -5.90009 0
M  V30 6271 C 589.83 1.10491 -6.74004 0
M  V30 6272 O 589.518 0.702413 -8.00825 0
M  V30 6273 H 589.25 0.374125 -0.563034 0
M  V30 6274 H 591.804 0.538927 -1.98204 0
M  V30 6275 H 590.034 3.06599 -2.35657 0
M  V30 6276 H 591.723 2.97184 -2.76472 0
M  V30 6277 H 592.489 1.36123 -4.65506 0
M  V30 6278 H 588.368 2.36814 -3.95525 0
M  V30 6279 H 591.912 0.644271 -6.94619 0
M  V30 6280 H 587.809 1.65626 -6.2389 0
M  V30 6281 H 588.577 0.829248 -8.14288 0
M  V30 6282 N 591.24 1.41047 0.703093 0
M  V30 6283 C 592.486 1.41209 1.46396 0
M  V30 6284 C 592.841 0.0180188 1.92392 0
M  V30 6285 O 592.134 -0.954739 1.66118 0
M  V30 6286 C 592.328 2.34686 2.6955 0
M  V30 6287 C 592.157 3.83044 2.35601 0
M  V30 6288 C 590.927 4.51777 2.26331 0
M  V30 6289 C 593.125 4.74215 1.9906 0
M  V30 6290 N 591.107 5.85302 1.85188 0
M  V30 6291 C 592.478 5.96631 1.68616 0
M  V30 6292 C 594.533 4.61932 1.85805 0
M  V30 6293 C 593.236 7.08134 1.26249 0
M  V30 6294 C 595.262 5.73389 1.44842 0
M  V30 6295 C 594.624 6.94899 1.15304 0
M  V30 6296 H 590.723 0.571951 0.533288 0
M  V30 6297 H 593.307 1.76859 0.814179 0
M  V30 6298 H 591.478 2.01143 3.32259 0
M  V30 6299 H 593.21 2.25618 3.35974 0
M  V30 6300 H 589.965 4.05618 2.44482 0
M  V30 6301 H 590.389 6.56049 1.67119 0
M  V30 6302 H 595.031 3.68494 2.07298 0
M  V30 6303 H 592.749 8.01445 1.035 0
M  V30 6304 H 596.335 5.65886 1.35146 0
M  V30 6305 H 595.215 7.79679 0.840854 0
M  V30 6306 N 592.718 -0.936591 1.26751 0
M  V30 6307 C 593.65 -2.03991 1.045 0
M  V30 6308 C 594.663 -1.628 0.00394261 0
M  V30 6309 O 595.852 -1.76817 0.244526 0
M  V30 6310 C 592.952 -3.34218 0.561403 0
M  V30 6311 C 592.125 -4.04151 1.67274 0
M  V30 6312 C 591.184 -5.12651 1.1864 0
M  V30 6313 O 590.21 -5.37104 1.88437 0
M  V30 6314 N 591.412 -5.80488 0.037278 0
M  V30 6315 H 594.177 -2.23644 1.99508 0
M  V30 6316 H 591.738 -1.10638 1.18198 0
M  V30 6317 H 593.73 -4.04101 0.220136 0
M  V30 6318 H 592.3 -3.11203 -0.295211 0
M  V30 6319 H 591.52 -3.28121 2.18472 0
M  V30 6320 H 592.808 -4.47626 2.41885 0
M  V30 6321 H 592.206 -5.63064 -0.545494 0
M  V30 6322 H 590.763 -6.5134 -0.244877 0
M  V30 6323 N 594.196 -1.08629 -1.14182 0
M  V30 6324 C 595.442 -0.828415 -1.85766 0
M  V30 6325 C 595.797 0.638947 -1.81481 0
M  V30 6326 O 595.09 1.46386 -1.23619 0
M  V30 6327 C 595.284 -1.28734 -3.3341 0
M  V30 6328 C 595.113 -2.79778 -3.52071 0
M  V30 6329 C 593.883 -3.47554 -3.66789 0
M  V30 6330 C 596.081 -3.77945 -3.48801 0
M  V30 6331 N 594.063 -4.87107 -3.73631 0
M  V30 6332 C 595.434 -5.03406 -3.61914 0
M  V30 6333 C 597.489 -3.70917 -3.32152 0
M  V30 6334 C 596.192 -6.22673 -3.60098 0
M  V30 6335 C 598.218 -4.89662 -3.31641 0
M  V30 6336 C 597.58 -6.13962 -3.45296 0
M  V30 6337 H 593.679 -0.355884 -0.696327 0
M  V30 6338 H 596.263 -1.38508 -1.36834 0
M  V30 6339 H 594.434 -0.75822 -3.80927 0
M  V30 6340 H 596.166 -0.975649 -3.92764 0
M  V30 6341 H 592.921 -2.97972 -3.68116 0
M  V30 6342 H 593.345 -5.59775 -3.80763 0
M  V30 6343 H 597.987 -2.75749 -3.20504 0
M  V30 6344 H 595.705 -7.1815 -3.70522 0
M  V30 6345 H 599.291 -4.85914 -3.19968 0
M  V30 6346 H 598.171 -7.04307 -3.44851 0
M  V30 6347 N 595.674 1.31259 -0.872281 0
M  V30 6348 C 596.951 1.91362 -0.404943 0
M  V30 6349 C 597.331 1.79362 1.11321 0
M  V30 6350 O 596.679 1.20277 1.94283 0
M  V30 6351 C 596.889 3.3749 -0.888893 0
M  V30 6352 C 598.237 4.14593 -0.916384 0
M  V30 6353 O 599.261 3.46282 -0.834701 0
M  V30 6354 O 598.12 5.3661 -1.03498 0
M  V30 6355 H 595.214 0.818016 -0.121569 0
M  V30 6356 H 597.76 1.39912 -0.960346 0
M  V30 6357 H 596.532 3.40249 -1.93251 0
M  V30 6358 H 596.155 3.96375 -0.311932 0
M  V30 6359 N 597.152 0.631951 1.44375 0
M  V30 6360 C 598.062 -0.073674 2.34484 0
M  V30 6361 C 599.078 -0.834825 1.52665 0
M  V30 6362 O 600.254 -0.786902 1.85391 0
M  V30 6363 C 597.319 -1.04247 3.30656 0
M  V30 6364 C 596.38 -0.280602 4.28382 0
M  V30 6365 C 595.613 -1.20325 5.19959 0
M  V30 6366 O 595.836 -2.44199 5.15484 0
M  V30 6367 O 594.77 -0.687128 5.97965 0
M  V30 6368 H 598.596 0.667477 2.96274 0
M  V30 6369 H 596.181 0.392144 1.44162 0
M  V30 6370 H 598.063 -1.59981 3.89851 0
M  V30 6371 H 596.738 -1.76422 2.71398 0
M  V30 6372 H 595.645 0.319804 3.72731 0
M  V30 6373 H 596.978 0.401144 4.90563 0
M  V30 6374 N 598.631 -1.53133 0.372548 0
M  V30 6375 C 599.561 -2.28876 -0.462412 0
M  V30 6376 C 600.542 -1.31583 -1.07796 0
M  V30 6377 O 601.727 -1.60461 -1.09389 0
M  V30 6378 C 598.857 -3.08317 -1.59868 0
M  V30 6379 C 597.811 -4.13355 -1.11003 0
M  V30 6380 C 597.137 -4.8092 -2.33708 0
M  V30 6381 C 598.437 -5.21955 -0.18983 0
M  V30 6382 H 600.131 -2.9892 0.169511 0
M  V30 6383 H 597.677 -1.43761 0.0829658 0
M  V30 6384 H 599.63 -3.60055 -2.18949 0
M  V30 6385 H 598.354 -2.35976 -2.25794 0
M  V30 6386 H 597.013 -3.62573 -0.541869 0
M  V30 6387 H 596.661 -4.05144 -2.98106 0
M  V30 6388 H 596.361 -5.51904 -2.01682 0
M  V30 6389 H 597.885 -5.35455 -2.93462 0
M  V30 6390 H 599.299 -5.69153 -0.688319 0
M  V30 6391 H 597.696 -6.00087 0.0398887 0
M  V30 6392 H 598.766 -4.78811 0.766057 0
M  V30 6393 N 600.109 -0.101901 -1.5727 0
M  V30 6394 C 601.072 0.840129 -2.13247 0
M  V30 6395 C 602.072 1.20625 -1.06331 0
M  V30 6396 O 603.262 1.13456 -1.32186 0
M  V30 6397 C 600.394 2.13372 -2.65867 0
M  V30 6398 H 601.587 0.353945 -2.97804 0
M  V30 6399 H 599.14 0.147167 -1.55606 0
M  V30 6400 H 599.875 2.66461 -1.84849 0
M  V30 6401 H 599.66 1.88085 -3.44044 0
M  V30 6402 H 601.15 2.80748 -3.09145 0
M  V30 6403 N 601.587 1.56661 0.17182 0
M  V30 6404 C 603.003 1.50768 0.52357 0
M  V30 6405 C 603.203 0.806072 1.84675 0
M  V30 6406 O 602.259 0.366233 2.4983 0
M  V30 6407 C 603.572 2.955 0.556793 0
M  V30 6408 C 605.12 3.06303 0.644029 0
M  V30 6409 C 605.595 4.52492 0.708148 0
M  V30 6410 N 607.086 4.56737 0.771051 0
M  V30 6411 C 607.821 5.67196 0.841229 0
M  V30 6412 N 607.317 6.87287 0.872272 0
M  V30 6413 N 609.11 5.55165 0.88021 0
M  V30 6414 H 601.261 2.00679 -0.695817 0
M  V30 6415 H 603.524 0.914219 -0.250814 0
M  V30 6416 H 603.23 3.49986 -0.346774 0
M  V30 6417 H 603.104 3.50119 1.40346 0
M  V30 6418 H 605.491 2.51851 1.53802 0
M  V30 6419 H 605.572 2.5477 -0.229297 0
M  V30 6420 H 605.216 5.07575 -0.181585 0
M  V30 6421 H 605.146 5.01781 1.59761 0
M  V30 6422 H 607.637 3.70274 0.755364 0
M  V30 6423 H 607.95 7.6722 0.92698 0
M  V30 6424 H 606.295 6.89898 0.840557 0
M  V30 6425 H 609.486 4.60263 0.852956 0
M  V30 6426 H 609.659 6.41271 0.931439 0
M  V30 6427 N 603.065 -0.440357 1.51323 0
M  V30 6428 C 604.293 -1.21255 1.67645 0
M  V30 6429 C 604.708 -1.85088 0.37252 0
M  V30 6430 O 604.065 -1.70582 -0.648683 0
M  V30 6431 C 604.116 -2.29881 2.78993 0
M  V30 6432 O 603.837 -1.68659 4.04334 0
M  V30 6433 C 605.338 -3.20214 3.06558 0
M  V30 6434 H 602.558 -0.36558 0.562666 0
M  V30 6435 H 605.102 -0.52214 1.97722 0
M  V30 6436 H 603.257 -2.94643 2.51524 0
M  V30 6437 H 603.671 -2.40426 4.6615 0
M  V30 6438 H 605.145 -3.92575 3.88058 0
M  V30 6439 H 605.622 -3.80794 2.18844 0
M  V30 6440 H 606.228 -2.61156 3.35675 0
M  V30 6441 N 604.543 -1.41418 -0.695603 0
M  V30 6442 C 605.82 -1.31264 -1.45014 0
M  V30 6443 C 606.2 0.0597994 -2.11015 0
M  V30 6444 O 605.548 1.07403 -2.01685 0
M  V30 6445 C 605.758 -2.466 -2.4696 0
M  V30 6446 C 607.106 -2.87763 -3.12214 0
M  V30 6447 O 608.13 -2.46339 -2.57285 0
M  V30 6448 O 606.989 -3.59395 -4.11701 0
M  V30 6449 H 604.083 -0.516576 -0.645816 0
M  V30 6450 H 606.629 -1.53382 -0.726084 0
M  V30 6451 H 605.401 -3.38183 -1.96845 0
M  V30 6452 H 605.024 -2.26358 -3.26876 0
M  V30 6453 N 606.021 0.929856 -1.27246 0
M  V30 6454 C 607.268 1.67731 -1.13457 0
M  V30 6455 C 607.596 1.9185 0.319998 0
M  V30 6456 O 606.851 1.50524 1.25064 0
M  V30 6457 C 607.15 3.05116 -1.86115 0
M  V30 6458 C 606.816 3.00715 -3.35978 0
M  V30 6459 C 605.478 2.99222 -3.76855 0
M  V30 6460 C 607.83 2.92168 -4.3161 0
M  V30 6461 C 605.158 2.86962 -5.11732 0
M  V30 6462 C 607.51 2.81449 -5.66542 0
M  V30 6463 C 606.174 2.78305 -6.06715 0
M  V30 6464 H 605.444 0.613772 -0.415168 0
M  V30 6465 H 608.091 1.08456 -1.57827 0
M  V30 6466 H 606.396 3.68083 -1.34246 0
M  V30 6467 H 608.093 3.61822 -1.72876 0
M  V30 6468 H 604.683 3.02664 -3.03468 0
M  V30 6469 H 608.867 2.92421 -4.01003 0
M  V30 6470 H 604.123 2.82913 -5.42006 0
M  V30 6471 H 608.297 2.738 -6.40317 0
M  V30 6472 H 605.924 2.68561 -7.11181 0
M  V30 6473 N 607.499 1.09233 1.13605 0
M  V30 6474 C 608.724 0.849067 1.89224 0
M  V30 6475 C 609.149 -0.593875 1.78479 0
M  V30 6476 O 608.507 -1.41703 1.13092 0
M  V30 6477 C 608.555 1.28642 3.36873 0
M  V30 6478 O 607.659 0.44363 4.10007 0
M  V30 6479 H 607 0.30767 0.588417 0
M  V30 6480 H 609.53 1.45595 1.43748 0
M  V30 6481 H 609.54 1.27096 3.87699 0
M  V30 6482 H 608.215 2.33729 3.44011 0
M  V30 6483 H 606.792 0.523241 3.69211 0
M  V30 6484 N 608.977 -1.30795 0.87923 0
M  V30 6485 C 610.202 -2.01063 0.508769 0
M  V30 6486 C 610.627 -1.65508 -0.893803 0
M  V30 6487 O 609.985 -0.868616 -1.59138 0
M  V30 6488 C 610.033 -3.54054 0.683991 0
M  V30 6489 O 609.137 -4.11498 -0.272654 0
M  V30 6490 H 608.478 -0.632786 0.201191 0
M  V30 6491 H 611.008 -1.66776 1.18519 0
M  V30 6492 H 611.018 -4.03845 0.580798 0
M  V30 6493 H 609.693 -3.79271 1.70665 0
M  V30 6494 H 608.27 -3.72695 -0.12364 0
M  V30 6495 N 610.455 -0.639598 -1.44038 0
M  V30 6496 C 611.685 -0.154586 -2.06021 0
M  V30 6497 C 612.093 1.17951 -1.47933 0
M  V30 6498 O 611.436 1.73627 -0.59994 0
M  V30 6499 C 611.498 0.0255459 -3.59491 0
M  V30 6500 C 611.162 -1.2317 -4.40089 0
M  V30 6501 C 612.159 -2.15735 -4.73027 0
M  V30 6502 C 609.844 -1.46949 -4.80324 0
M  V30 6503 C 611.838 -3.30382 -5.45093 0
M  V30 6504 C 609.525 -2.61891 -5.52138 0
M  V30 6505 C 610.523 -3.53433 -5.84443 0
M  V30 6506 O 610.211 -4.6637 -6.54793 0
M  V30 6507 H 609.943 -0.0808543 -0.671147 0
M  V30 6508 H 612.497 -0.876541 -1.85758 0
M  V30 6509 H 610.727 0.802733 -3.78276 0
M  V30 6510 H 612.416 0.466184 -4.03214 0
M  V30 6511 H 613.182 -1.98602 -4.42473 0
M  V30 6512 H 609.061 -0.765815 -4.54595 0
M  V30 6513 H 612.605 -4.01856 -5.70226 0
M  V30 6514 H 608.502 -2.78964 -5.82108 0
M  V30 6515 H 609.27 -4.6546 -6.73267 0
M  V30 6516 N 611.933 1.52934 -0.380664 0
M  V30 6517 C 613.344 1.86457 0.0952684 0
M  V30 6518 C 613.695 1.3007 1.46889 0
M  V30 6519 O 612.82 0.628636 2.07068 0
M  V30 6520 C 613.415 3.38323 0.179648 0
M  V30 6521 C 611.974 3.71589 0.599858 0
M  V30 6522 C 611.121 2.76228 -0.243572 0
M  V30 6523 H 614.072 1.46966 -0.59888 0
M  V30 6524 H 614.093 3.67113 1.00042 0
M  V30 6525 H 613.605 3.79333 -0.820228 0
M  V30 6526 H 611.706 3.36144 1.60742 0
M  V30 6527 H 611.819 4.77715 0.364003 0
M  V30 6528 H 610.183 2.53045 0.289855 0
M  V30 6529 H 610.966 3.20074 -1.24127 0
M  V30 6530 N 613.412 0.11024 1.57214 0
M  V30 6531 C 614.359 -0.843195 2.14846 0
M  V30 6532 C 615.329 -1.26954 1.07107 0
M  V30 6533 O 616.514 -1.34861 1.34971 0
M  V30 6534 C 613.654 -2.09123 2.74521 0
M  V30 6535 C 612.767 -1.71404 3.96541 0
M  V30 6536 C 611.902 -2.91107 4.44331 0
M  V30 6537 C 610.941 -2.49586 5.58903 0
M  V30 6538 N 610.078 -3.62175 6.01477 0
M  V30 6539 H 614.918 -0.344886 2.95998 0
M  V30 6540 H 612.455 -0.15855 1.46243 0
M  V30 6541 H 614.413 -2.82234 3.07246 0
M  V30 6542 H 613.043 -2.56427 1.96074 0
M  V30 6543 H 612.095 -0.88201 3.70033 0
M  V30 6544 H 613.407 -1.36884 4.7965 0
M  V30 6545 H 612.561 -3.72454 4.78919 0
M  V30 6546 H 611.3 -3.28848 3.60153 0
M  V30 6547 H 610.305 -1.6667 5.23929 0
M  V30 6548 H 611.53 -2.12973 6.4484 0
M  V30 6549 H 609.476 -3.99605 5.20242 0
M  V30 6550 H 609.393 -3.3155 6.79419 0
M  V30 6551 H 610.661 -4.43987 6.407 0
M  V30 6552 N 614.89 -1.56749 -0.16351 0
M  V30 6553 C 616.301 -1.72039 -0.725216 0
M  V30 6554 C 616.652 -0.72202 -1.82432 0
M  V30 6555 O 615.777 0.114942 -2.16095 0
M  V30 6556 C 616.372 -3.11932 -1.32227 0
M  V30 6557 C 614.931 -3.28879 -1.83072 0
M  V30 6558 C 614.078 -2.67984 -0.712716 0
M  V30 6559 H 617.029 -1.58579 0.0619772 0
M  V30 6560 H 617.05 -3.11015 -2.19202 0
M  V30 6561 H 616.562 -3.84572 -0.522103 0
M  V30 6562 H 614.663 -2.61209 -2.65708 0
M  V30 6563 H 614.776 -4.36688 -1.97079 0
M  V30 6564 H 613.14 -2.28005 -1.13515 0
M  V30 6565 H 613.923 -3.43216 0.0757361 0
M  V30 6566 N 616.368 0.432326 -1.51554 0
M  V30 6567 C 617.617 1.17831 -1.63703 0
M  V30 6568 C 617.93 1.92229 -0.36156 0
M  V30 6569 O 619.136 2.69069 -0.362495 0
M  V30 6570 C 617.592 2.14318 -2.89129 0
M  V30 6571 C 617.2 1.45544 -4.23699 0
M  V30 6572 C 618.944 2.89319 -3.10636 0
M  V30 6573 C 616.851 2.40545 -5.4027 0
M  V30 6574 H 615.781 0.443533 -0.60975 0
M  V30 6575 H 618.432 0.444878 -1.78026 0
M  V30 6576 H 616.814 2.91117 -2.68452 0
M  V30 6577 H 617.988 0.742693 -4.54775 0
M  V30 6578 H 616.303 0.826772 -4.0811 0
M  V30 6579 H 618.9 3.60495 -3.94902 0
M  V30 6580 H 619.243 3.50951 -2.23918 0
M  V30 6581 H 619.776 2.19625 -3.31677 0
M  V30 6582 H 616.515 1.83594 -6.29264 0
M  V30 6583 H 616.035 3.09859 -5.13563 0
M  V30 6584 H 617.714 3.01569 -5.72421 0
M  V30 6585 N 617.846 1.41785 0.688094 0
M  V30 6586 C 618.793 1.44221 1.80191 0
M  V30 6587 C 619.763 0.295688 1.63447 0
M  V30 6588 O 620.948 0.49783 1.84191 0
M  V30 6589 C 618.088 1.33743 3.1813 0
M  V30 6590 C 617.201 2.58325 3.46254 0
M  V30 6591 C 616.336 2.40086 4.73848 0
M  V30 6592 C 615.375 3.60107 4.94964 0
M  V30 6593 N 614.512 3.40892 6.13789 0
M  V30 6594 H 619.352 2.39411 1.77444 0
M  V30 6595 H 616.889 1.18876 0.866423 0
M  V30 6596 H 618.847 1.25669 3.97823 0
M  V30 6597 H 617.477 0.42157 3.20035 0
M  V30 6598 H 616.529 2.7682 2.60912 0
M  V30 6599 H 617.841 3.4758 3.57756 0
M  V30 6600 H 616.995 2.29522 5.61609 0
M  V30 6601 H 615.734 1.483 4.64606 0
M  V30 6602 H 614.739 3.71118 4.05649 0
M  V30 6603 H 615.964 4.52857 5.06061 0
M  V30 6604 H 613.91 2.51812 6.05745 0
M  V30 6605 H 613.827 4.23727 6.26092 0
M  V30 6606 H 615.095 3.34114 7.04264 0
M  V30 6607 N 619.324 -0.923095 1.27737 0
M  V30 6608 C 620.572 -1.66797 1.14119 0
M  V30 6609 C 620.893 -1.92479 -0.312541 0
M  V30 6610 O 620.163 -1.53432 -1.218 0
M  V30 6611 H 618.743 -0.618196 0.419336 0
M  V30 6612 H 621.405 -1.10815 1.60331 0
M  V30 6613 H 620.501 -2.63424 1.67374 0
M  V30 6614 N 620.802 -1.09834 -1.13024 0
M  V30 6615 C 621.732 -0.763451 -2.20666 0
M  V30 6616 C 622.713 0.260778 -1.68089 0
M  V30 6617 O 623.898 0.127915 -1.93778 0
M  V30 6618 C 621.028 -0.187744 -3.46792 0
M  V30 6619 C 619.982 -1.14196 -4.12484 0
M  V30 6620 C 619.308 -0.427755 -5.32986 0
M  V30 6621 C 620.608 -2.48607 -4.59338 0
M  V30 6622 H 622.302 -1.66347 -2.48936 0
M  V30 6623 H 619.848 -0.801261 -1.19649 0
M  V30 6624 H 621.801 0.0586375 -4.21359 0
M  V30 6625 H 620.525 0.747485 -3.17931 0
M  V30 6626 H 619.184 -1.37369 -3.3989 0
M  V30 6627 H 618.832 0.511747 -5.0039 0
M  V30 6628 H 618.532 -1.06403 -5.77886 0
M  V30 6629 H 620.056 -0.189772 -6.10305 0
M  V30 6630 H 621.47 -2.29618 -5.25308 0
M  V30 6631 H 619.867 -3.08062 -5.14993 0
M  V30 6632 H 620.937 -3.09062 -3.73642 0
M  V30 6633 N 622.28 1.30327 -0.886154 0
M  V30 6634 C 623.527 1.96097 -0.505192 0
M  V30 6635 C 623.855 1.69952 0.945868 0
M  V30 6636 O 623.11 0.997653 1.68361 0
M  V30 6637 C 623.409 3.49906 -0.728042 0
M  V30 6638 C 623.075 3.96103 -2.15437 0
M  V30 6639 C 621.737 4.08428 -2.5444 0
M  V30 6640 C 624.089 4.20177 -3.08384 0
M  V30 6641 C 621.417 4.42189 -3.85598 0
M  V30 6642 C 623.769 4.55407 -4.39075 0
M  V30 6643 C 622.433 4.65941 -4.7797 0
M  V30 6644 H 621.703 0.71757 -0.184863 0
M  V30 6645 H 624.35 1.55171 -1.12223 0
M  V30 6646 H 622.655 3.9179 -0.027978 0
M  V30 6647 H 624.352 3.98869 -0.412862 0
M  V30 6648 H 620.942 3.87017 -1.84162 0
M  V30 6649 H 625.126 4.10134 -2.7947 0
M  V30 6650 H 620.382 4.48544 -4.15473 0
M  V30 6651 H 624.556 4.72986 -5.11133 0
M  V30 6652 H 622.183 4.91856 -5.79639 0
M  V30 6653 N 623.758 0.647228 1.43697 0
M  V30 6654 C 624.986 0.16575 2.06235 0
M  V30 6655 C 625.401 -1.1662 1.48476 0
M  V30 6656 O 624.758 -1.7187 0.613762 0
M  V30 6657 C 624.809 0.0621651 3.61447 0
M  V30 6658 O 624.53 1.34146 4.17057 0
M  V30 6659 C 626.031 -0.446102 4.4105 0
M  V30 6660 H 623.251 0.0871158 0.665321 0
M  V30 6661 H 625.795 0.886183 1.84301 0
M  V30 6662 H 623.95 -0.608794 3.82587 0
M  V30 6663 H 624.364 1.19675 5.10664 0
M  V30 6664 H 625.838 -0.46755 5.50016 0
M  V30 6665 H 626.315 -1.47627 4.13646 0
M  V30 6666 H 626.921 0.192159 4.24866 0
M  V30 6667 N 625.236 -1.5273 0.388769 0
M  V30 6668 C 626.484 -2.01174 -0.193208 0
M  V30 6669 C 626.805 -1.27705 -1.47365 0
M  V30 6670 O 626.075 -0.396966 -1.91836 0
M  V30 6671 H 624.655 -0.743287 -0.0743871 0
M  V30 6672 H 627.317 -1.87826 0.520336 0
M  V30 6673 H 626.413 -3.09477 -0.403803 0
M  V30 6674 N 626.714 -0.118576 -1.57153 0
M  V30 6675 C 627.96 0.540326 -1.95469 0
M  V30 6676 C 628.293 1.66356 -1.00196 0
M  V30 6677 O 627.568 1.94461 -0.039104 0
M  V30 6678 C 627.851 1.07342 -3.43729 0
M  V30 6679 C 627.704 -0.0463732 -4.49776 0
M  V30 6680 C 629.023 1.96442 -3.93826 0
M  V30 6681 H 626.142 0.19494 -0.710751 0
M  V30 6682 H 628.784 -0.19405 -1.89006 0
M  V30 6683 H 626.934 1.69925 -3.49368 0
M  V30 6684 H 628.606 -0.681648 -4.56236 0
M  V30 6685 H 626.849 -0.709574 -4.27957 0
M  V30 6686 H 627.52 0.367856 -5.50773 0
M  V30 6687 H 629.996 1.43731 -3.90488 0
M  V30 6688 H 628.872 2.3066 -4.98084 0
M  V30 6689 H 629.133 2.89077 -3.34495 0
M  V30 6690 N 628.193 1.56834 0.155195 0
M  V30 6691 C 629.604 1.72421 0.716082 0
M  V30 6692 C 629.955 0.731685 1.82046 0
M  V30 6693 O 629.08 -0.103481 2.16152 0
M  V30 6694 C 629.675 3.12629 1.30571 0
M  V30 6695 C 628.234 3.29846 1.81325 0
M  V30 6696 C 627.381 2.68359 0.698494 0
M  V30 6697 H 630.332 1.58544 -0.0703861 0
M  V30 6698 H 630.353 3.12174 2.1755 0
M  V30 6699 H 629.865 3.84844 0.501701 0
M  V30 6700 H 627.966 2.62614 2.64319 0
M  V30 6701 H 628.079 4.37727 1.9476 0
M  V30 6702 H 626.443 2.28604 1.12305 0
M  V30 6703 H 627.226 3.43171 -0.0939366 0
M  V30 6704 N 629.671 -0.424282 1.51781 0
M  V30 6705 C 630.619 -1.53649 1.74628 0
M  V30 6706 C 631.613 -1.57923 0.612922 0
M  V30 6707 O 632.819 -1.61511 0.794618 0
M  V30 6708 H 629.194 -0.510706 0.551981 0
M  V30 6709 H 631.165 -1.31558 2.67834 0
M  V30 6710 C 629.914 -2.91177 1.9003 0
M  V30 6711 H 629.237 -2.88625 2.76651 0
M  V30 6712 H 630.677 -3.6833 2.10021 0
M  V30 6713 C 629.136 -3.30303 0.663435 0
M  V30 6714 O 629.666 -4.01315 -0.175812 0
M  V30 6715 N 627.872 -2.86201 0.503723 0
M  V30 6716 H 627.419 -2.28583 1.18776 0
M  V30 6717 H 627.377 -3.12741 -0.322575 0
M  V30 6718 N 631.149 -1.42148 -0.680565 0
M  V30 6719 C 632.081 -1.41119 -1.80605 0
M  V30 6720 C 633.094 -0.311099 -1.598 0
M  V30 6721 O 634.283 -0.573813 -1.69026 0
M  V30 6722 C 631.383 -1.18204 -3.17618 0
M  V30 6723 C 630.556 -2.40537 -3.65322 0
M  V30 6724 C 629.615 -2.13254 -4.8105 0
M  V30 6725 O 628.641 -2.8641 -4.91892 0
M  V30 6726 N 629.843 -1.13208 -5.69354 0
M  V30 6727 H 632.608 -2.38128 -1.81975 0
M  V30 6728 H 630.169 -1.36953 -0.863446 0
M  V30 6729 H 632.161 -0.97878 -3.92686 0
M  V30 6730 H 630.731 -0.29738 -3.11182 0
M  V30 6731 H 629.951 -2.76468 -2.80996 0
M  V30 6732 H 631.239 -3.22012 -3.93936 0
M  V30 6733 H 630.637 -0.526893 -5.63241 0
M  V30 6734 H 629.194 -0.988699 -6.44258 0
M  V30 6735 N 632.627 0.916307 -1.28225 0
M  V30 6736 C 634.038 1.48024 -1.13779 0
M  V30 6737 C 634.389 1.94289 0.273139 0
M  V30 6738 O 633.514 1.82226 1.16716 0
M  V30 6739 C 634.109 2.69029 -2.05935 0
M  V30 6740 C 632.668 3.2161 -1.95561 0
M  V30 6741 C 631.815 1.94321 -1.97825 0
M  V30 6742 H 634.766 0.729272 -1.40951 0
M  V30 6743 H 634.787 3.44204 -1.62184 0
M  V30 6744 H 634.299 2.35325 -3.08616 0
M  V30 6745 H 632.4 3.60045 -0.959076 0
M  V30 6746 H 632.513 3.87032 -2.82388 0
M  V30 6747 H 630.877 2.1131 -1.42198 0
M  V30 6748 H 631.66 1.62917 -3.0218 0
M  V30 6749 N 634.105 1.10431 1.1244 0
M  V30 6750 C 635.33 0.869089 1.88313 0
M  V30 6751 C 635.755 -0.574912 1.79099 0
M  V30 6752 O 635.113 -1.40496 1.14589 0
M  V30 6753 C 635.161 1.32208 3.3549 0
M  V30 6754 O 634.265 0.487092 4.09513 0
M  V30 6755 H 633.606 0.313894 0.585121 0
M  V30 6756 H 636.136 1.47111 1.42195 0
M  V30 6757 H 636.146 1.31201 3.86329 0
M  V30 6758 H 634.821 2.37364 3.41513 0
M  V30 6759 H 633.398 0.562372 3.68635 0
M  V30 6760 N 635.583 -1.29855 0.893053 0
M  V30 6761 C 636.546 -2.26183 0.370687 0
M  V30 6762 C 637.546 -1.53108 -0.491385 0
M  V30 6763 O 638.736 -1.71643 -0.297386 0
M  V30 6764 C 635.868 -3.37633 -0.470827 0
M  V30 6765 H 637.061 -2.73903 1.22135 0
M  V30 6766 H 634.614 -1.41183 0.67061 0
M  V30 6767 H 635.349 -2.95241 -1.34175 0
M  V30 6768 H 635.134 -3.91825 0.146784 0
M  V30 6769 H 636.624 -4.09313 -0.827825 0
M  V30 6770 N 637.061 -0.65484 -1.43351 0
M  V30 6771 C 638.024 0.0263562 -2.29185 0
M  V30 6772 C 639.024 0.748951 -1.42293 0
M  V30 6773 O 640.214 0.589957 -1.63906 0
M  V30 6774 C 637.346 1.04806 -3.2439 0
M  V30 6775 H 638.539 -0.728883 -2.90908 0
M  V30 6776 H 636.092 -0.416149 -1.50658 0
M  V30 6777 H 636.827 1.83247 -2.67565 0
M  V30 6778 H 636.612 0.533554 -3.88453 0
M  V30 6779 H 638.102 1.52372 -3.88809 0
M  V30 6780 N 638.539 1.52521 -0.396863 0
M  V30 6781 C 639.472 2.23118 0.478926 0
M  V30 6782 C 640.45 1.23475 1.05796 0
M  V30 6783 O 641.634 1.52486 1.10817 0
M  V30 6784 C 638.761 2.95028 1.66362 0
M  V30 6785 C 637.807 4.09002 1.20913 0
M  V30 6786 S 638.64 5.35182 0.184407 0
M  V30 6787 C 639.796 6.10616 1.37471 0
M  V30 6788 H 640.029 2.97056 -0.120542 0
M  V30 6789 H 637.562 1.53334 -0.18109 0
M  V30 6790 H 639.52 3.37066 2.34301 0
M  V30 6791 H 638.181 2.20756 2.23441 0
M  V30 6792 H 637.374 4.58445 2.09389 0
M  V30 6793 H 636.976 3.69016 0.608559 0
M  V30 6794 H 639.268 6.37247 2.30048 0
M  V30 6795 H 640.211 7.02084 0.921051 0
M  V30 6796 H 640.619 5.41499 1.59495 0
M  V30 6797 N 640.017 0.126909 1.57088 0
M  V30 6798 C 641.242 -0.53997 2.00248 0
M  V30 6799 C 641.667 -1.58927 1.00618 0
M  V30 6800 O 641.025 -1.81288 -0.0210131 0
M  V30 6801 C 641.073 -1.13565 3.4225 0
M  V30 6802 O 640.177 -2.25103 3.45547 0
M  V30 6803 H 639.518 -0.13412 0.650314 0
M  V30 6804 H 642.048 0.217718 2.03438 0
M  V30 6805 H 642.058 -1.46925 3.80627 0
M  V30 6806 H 640.733 -0.367122 4.14277 0
M  V30 6807 H 639.31 -1.93123 3.18995 0
M  V30 6808 N 641.495 -1.56914 -0.146875 0
M  V30 6809 C 642.741 -1.84515 -0.855914 0
M  V30 6810 C 643.096 -0.710909 -1.78784 0
M  V30 6811 O 642.389 0.291123 -1.89375 0
M  V30 6812 C 642.583 -3.16128 -1.66727 0
M  V30 6813 C 642.412 -4.42246 -0.815405 0
M  V30 6814 C 641.182 -5.03006 -0.480976 0
M  V30 6815 C 643.38 -5.14094 -0.145684 0
M  V30 6816 N 641.362 -6.12695 0.384476 0
M  V30 6817 C 642.733 -6.17282 0.579902 0
M  V30 6818 C 644.788 -4.97856 -0.0663705 0
M  V30 6819 C 643.491 -7.0599 1.37731 0
M  V30 6820 C 645.517 -5.87028 0.71778 0
M  V30 6821 C 644.879 -6.89698 1.43165 0
M  V30 6822 H 640.978 -0.725829 -0.291026 0
M  V30 6823 H 643.562 -1.94322 -0.121279 0
M  V30 6824 H 641.733 -3.07468 -2.37315 0
M  V30 6825 H 643.465 -3.31635 -2.31949 0
M  V30 6826 H 640.22 -4.66504 -0.816789 0
M  V30 6827 H 640.644 -6.72158 0.80823 0
M  V30 6828 H 645.286 -4.18465 -0.603929 0
M  V30 6829 H 643.004 -7.84809 1.92613 0
M  V30 6830 H 646.59 -5.76532 0.781141 0
M  V30 6831 H 645.47 -7.57505 2.02868 0
M  V30 6832 N 642.974 0.416227 -1.52004 0
M  V30 6833 C 643.906 1.52552 -1.71058 0
M  V30 6834 C 644.919 1.51693 -0.59102 0
M  V30 6835 O 646.108 1.56087 -0.865973 0
M  V30 6836 C 643.208 2.91455 -1.72937 0
M  V30 6837 C 642.381 3.16584 -3.01816 0
M  V30 6838 C 641.44 4.35322 -2.95603 0
M  V30 6839 O 640.466 4.32947 -3.6952 0
M  V30 6840 N 641.668 5.40049 -2.12903 0
M  V30 6841 H 644.433 1.36604 -2.66757 0
M  V30 6842 H 641.994 0.60544 -1.50153 0
M  V30 6843 H 643.986 3.68944 -1.66321 0
M  V30 6844 H 642.556 3.00895 -0.847418 0
M  V30 6845 H 641.776 2.27203 -3.22137 0
M  V30 6846 H 643.064 3.30213 -3.87088 0
M  V30 6847 H 642.462 5.44823 -1.52265 0
M  V30 6848 H 641.019 6.16308 -2.1215 0
M  V30 6849 N 644.452 1.42507 0.673017 0
M  V30 6850 C 645.729 1.33554 1.42908 0
M  V30 6851 C 646.109 -0.0262211 2.11084 0
M  V30 6852 O 645.457 -1.04181 2.03368 0
M  V30 6853 C 645.667 2.50498 2.43006 0
M  V30 6854 C 647.015 2.92694 3.07596 0
M  V30 6855 O 648.039 2.50401 2.53333 0
M  V30 6856 O 646.898 3.65899 4.05931 0
M  V30 6857 H 643.992 0.526785 0.637516 0
M  V30 6858 H 646.538 1.54518 0.701591 0
M  V30 6859 H 645.31 3.41272 1.9144 0
M  V30 6860 H 644.933 2.3153 3.23233 0
M  V30 6861 N 645.93 -0.909495 1.28709 0
M  V30 6862 C 647.178 -1.65577 1.15882 0
M  V30 6863 C 647.499 -1.928 -0.292108 0
M  V30 6864 O 646.769 -1.54716 -1.20166 0
M  V30 6865 H 645.349 -0.613714 0.425869 0
M  V30 6866 H 648.011 -1.09108 1.61498 0
M  V30 6867 H 647.107 -2.61634 1.70159 0
M  V30 6868 N 647.408 -1.11026 -1.11852 0
M  V30 6869 C 648.824 -0.843294 -1.35502 0
M  V30 6870 C 649.024 0.534179 -1.9429 0
M  V30 6871 O 648.08 1.28585 -2.17307 0
M  V30 6872 C 649.393 -1.94793 -2.29077 0
M  V30 6873 C 650.941 -1.97709 -2.42652 0
M  V30 6874 C 651.416 -3.07364 -3.39546 0
M  V30 6875 N 652.907 -3.0671 -3.47107 0
M  V30 6876 C 653.642 -3.88197 -4.22008 0
M  V30 6877 N 653.138 -4.79635 -4.99922 0
M  V30 6878 N 654.931 -3.76391 -4.17476 0
M  V30 6879 H 647.082 -1.99805 -0.720538 0
M  V30 6880 H 649.345 -0.868633 -0.379711 0
M  V30 6881 H 649.051 -2.93971 -1.93065 0
M  V30 6882 H 648.925 -1.84039 -3.29256 0
M  V30 6883 H 651.312 -0.991604 -2.77941 0
M  V30 6884 H 651.393 -2.1254 -1.4234 0
M  V30 6885 H 651.037 -4.06136 -3.04985 0
M  V30 6886 H 650.967 -2.89774 -4.39703 0
M  V30 6887 H 653.458 -2.40457 -2.91528 0
M  V30 6888 H 653.771 -5.38357 -5.54429 0
M  V30 6889 H 652.116 -4.8366 -4.99097 0
M  V30 6890 H 655.307 -3.04303 -3.55693 0
M  V30 6891 H 655.48 -4.40131 -4.75593 0
M  V30 6892 N 648.886 1.2938 -0.899927 0
M  V30 6893 C 650.132 1.9584 -0.526742 0
M  V30 6894 C 650.465 1.70774 0.924651 0
M  V30 6895 O 649.74 1.02084 1.65557 0
M  V30 6896 C 650.023 3.50638 -0.820062 0
M  V30 6897 C 649.876 3.85161 -2.32317 0
M  V30 6898 C 651.195 4.3903 -0.30671 0
M  V30 6899 H 648.314 0.711322 -0.192848 0
M  V30 6900 H 650.956 1.52992 -1.12665 0
M  V30 6901 H 649.106 3.87265 -0.309491 0
M  V30 6902 H 650.778 3.58477 -2.9033 0
M  V30 6903 H 649.021 3.32696 -2.78381 0
M  V30 6904 H 649.692 4.93204 -2.47898 0
M  V30 6905 H 652.168 4.09396 -0.743908 0
M  V30 6906 H 651.044 5.46226 -0.541144 0
M  V30 6907 H 651.305 4.34937 0.792588 0
M  V30 6908 N 650.364 0.662433 1.43002 0
M  V30 6909 C 651.594 0.187343 2.05749 0
M  V30 6910 C 652.002 -1.15582 1.49791 0
M  V30 6911 O 651.345 -1.72651 0.627487 0
M  V30 6912 C 651.407 0.0316493 3.59486 0
M  V30 6913 C 651.071 1.30156 4.38073 0
M  V30 6914 C 652.068 2.23234 4.69535 0
M  V30 6915 C 649.753 1.54572 4.77926 0
M  V30 6916 C 651.747 3.39012 5.39768 0
M  V30 6917 C 649.434 2.70641 5.47902 0
M  V30 6918 C 650.432 3.62687 5.78746 0
M  V30 6919 O 650.12 4.76728 6.47291 0
M  V30 6920 H 649.852 0.0915214 0.669776 0
M  V30 6921 H 652.406 0.905982 1.8434 0
M  V30 6922 H 650.636 -0.742451 3.79506 0
M  V30 6923 H 652.325 -0.401977 4.03905 0
M  V30 6924 H 653.091 2.05616 4.39257 0
M  V30 6925 H 648.97 0.83804 4.53319 0
M  V30 6926 H 652.514 4.10877 5.63761 0
M  V30 6927 H 648.411 2.88189 5.77596 0
M  V30 6928 H 649.179 4.76113 6.65777 0
M  V30 6929 N 651.842 -1.52309 0.404946 0
M  V30 6930 C 653.089 -2.01767 -0.1722 0
M  V30 6931 C 653.417 -1.29075 -1.45498 0
M  V30 6932 O 652.672 -0.3843 -1.9189 0
M  V30 6933 C 652.971 -3.54284 -0.470895 0
M  V30 6934 C 652.637 -4.45079 0.722194 0
M  V30 6935 C 651.299 -4.69617 1.04946 0
M  V30 6936 C 653.651 -4.98555 1.51962 0
M  V30 6937 C 650.979 -5.44878 2.17543 0
M  V30 6938 C 653.331 -5.75049 2.63632 0
M  V30 6939 C 651.995 -5.9786 2.9685 0
M  V30 6940 H 651.265 -0.738316 -0.0630125 0
M  V30 6941 H 653.912 -1.83566 0.545506 0
M  V30 6942 H 652.217 -3.70642 -1.27012 0
M  V30 6943 H 653.914 -3.90058 -0.930346 0
M  V30 6944 H 650.504 -4.26155 0.457131 0
M  V30 6945 H 654.688 -4.79509 1.28002 0
M  V30 6946 H 649.944 -5.60762 2.43631 0
M  V30 6947 H 654.118 -6.15483 3.25813 0
M  V30 6948 H 651.745 -6.5596 3.84215 0
M  V30 6949 N 653.32 -0.135238 -1.57019 0
M  V30 6950 C 654.567 0.518794 -1.95742 0
M  V30 6951 C 654.895 1.65642 -1.01947 0
M  V30 6952 O 654.15 1.95645 -0.0464016 0
M  V30 6953 C 654.449 1.07694 -3.40788 0
M  V30 6954 C 654.115 0.058992 -4.50861 0
M  V30 6955 C 652.777 -0.220872 -4.80693 0
M  V30 6956 C 655.129 -0.633856 -5.17331 0
M  V30 6957 C 652.457 -1.19959 -5.74305 0
M  V30 6958 C 654.809 -1.60131 -6.11997 0
M  V30 6959 C 653.473 -1.889 -6.40213 0
M  V30 6960 H 652.743 0.18984 -0.716269 0
M  V30 6961 H 655.39 -0.219581 -1.90237 0
M  V30 6962 H 653.695 1.89241 -3.43067 0
M  V30 6963 H 655.392 1.59137 -3.68071 0
M  V30 6964 H 651.982 0.287304 -4.27636 0
M  V30 6965 H 656.166 -0.430823 -4.94427 0
M  V30 6966 H 651.422 -1.42905 -5.94465 0
M  V30 6967 H 655.596 -2.14376 -6.62583 0
M  V30 6968 H 653.223 -2.64891 -7.12556 0
M  V30 6969 N 654.798 1.5699 0.138552 0
M  V30 6970 C 655.745 1.98899 1.17081 0
M  V30 6971 C 656.715 0.857922 1.42228 0
M  V30 6972 O 657.9 1.12065 1.54422 0
M  V30 6973 C 655.04 2.38189 2.4972 0
M  V30 6974 C 654.153 3.64624 2.31674 0
M  V30 6975 C 653.288 3.9298 3.57407 0
M  V30 6976 C 652.327 5.1266 3.34435 0
M  V30 6977 N 651.464 5.36983 4.5232 0
M  V30 6978 H 656.304 2.86881 0.80642 0
M  V30 6979 H 653.841 1.41925 0.386727 0
M  V30 6980 H 655.799 2.59 3.2707 0
M  V30 6981 H 654.429 1.53275 2.84089 0
M  V30 6982 H 653.481 3.51542 1.45337 0
M  V30 6983 H 654.793 4.52131 2.10664 0
M  V30 6984 H 653.947 4.14335 4.43183 0
M  V30 6985 H 652.686 3.03912 3.8143 0
M  V30 6986 H 651.691 4.9117 2.47048 0
M  V30 6987 H 652.916 6.03288 3.11802 0
M  V30 6988 H 650.862 4.50871 4.76499 0
M  V30 6989 H 650.779 6.18775 4.34343 0
M  V30 6990 H 652.047 5.62842 5.39285 0
M  V30 6991 N 656.276 -0.40816 1.52223 0
M  V30 6992 C 657.524 -1.15274 1.66001 0
M  V30 6993 C 657.845 -1.91003 0.392803 0
M  V30 6994 O 657.115 -1.8673 -0.592336 0
M  V30 6995 H 655.695 -0.428526 0.611861 0
M  V30 6996 H 658.357 -0.46512 1.89269 0
M  V30 6997 H 657.453 -1.86628 2.50153 0
M  V30 6998 N 657.755 -1.42862 -0.66545 0
M  V30 6999 C 658.702 -1.4707 -1.77874 0
M  V30 7000 C 659.672 -0.321654 -1.62956 0
M  V30 7001 O 660.857 -0.52707 -1.83376 0
M  V30 7002 C 657.997 -1.38788 -3.15962 0
M  V30 7003 C 657.11 -2.63801 -3.42101 0
M  V30 7004 C 656.245 -2.47594 -4.69969 0
M  V30 7005 C 655.284 -3.67936 -4.89172 0
M  V30 7006 N 654.421 -3.50614 -6.08288 0
M  V30 7007 H 659.261 -2.42204 -1.73613 0
M  V30 7008 H 656.798 -1.20239 -0.847401 0
M  V30 7009 H 658.756 -1.31982 -3.95773 0
M  V30 7010 H 657.386 -0.472431 -3.19324 0
M  V30 7011 H 656.438 -2.80935 -2.56475 0
M  V30 7012 H 657.75 -3.53228 -3.52181 0
M  V30 7013 H 656.904 -2.38427 -5.57886 0
M  V30 7014 H 655.643 -1.55672 -4.62188 0
M  V30 7015 H 654.648 -3.77525 -3.99694 0
M  V30 7016 H 655.873 -4.60851 -4.98792 0
M  V30 7017 H 653.819 -2.61417 -6.01662 0
M  V30 7018 H 653.736 -4.33634 -6.19272 0
M  V30 7019 H 655.004 -3.45276 -6.98859 0
M  V30 7020 N 659.233 0.902656 -1.29189 0
M  V30 7021 C 660.479 1.65532 -1.17163 0
M  V30 7022 C 660.812 1.92216 0.276879 0
M  V30 7023 O 660.087 1.53048 1.20027 0
M  V30 7024 C 660.37 3.00629 -1.98228 0
M  V30 7025 C 660.223 2.81029 -3.51202 0
M  V30 7026 C 661.542 4.01321 -1.80635 0
M  V30 7027 H 658.661 0.60071 -0.426985 0
M  V30 7028 H 661.303 1.04578 -1.5863 0
M  V30 7029 H 659.453 3.52656 -1.62991 0
M  V30 7030 H 661.125 2.35927 -3.96404 0
M  V30 7031 H 659.368 2.1587 -3.76275 0
M  V30 7032 H 660.039 3.77014 -4.03192 0
M  V30 7033 H 662.515 3.58394 -2.11406 0
M  V30 7034 H 661.391 4.93792 -2.3971 0
M  V30 7035 H 661.652 4.35505 -0.760754 0
M  V30 7036 N 660.711 1.11618 1.11262 0
M  V30 7037 C 661.941 0.88745 1.86569 0
M  V30 7038 C 662.349 -0.56636 1.80524 0
M  V30 7039 O 661.692 -1.40289 1.18594 0
M  V30 7040 C 661.754 1.27313 3.36202 0
M  V30 7041 C 661.418 2.73649 3.66013 0
M  V30 7042 C 662.415 3.71863 3.63337 0
M  V30 7043 C 660.1 3.10342 3.9496 0
M  V30 7044 C 662.094 5.04788 3.89188 0
M  V30 7045 C 659.781 4.43451 4.20469 0
M  V30 7046 C 660.779 5.40484 4.17572 0
M  V30 7047 O 660.467 6.71195 4.42439 0
M  V30 7048 H 660.199 0.317543 0.596777 0
M  V30 7049 H 662.753 1.48768 1.41624 0
M  V30 7050 H 660.983 0.616062 3.81761 0
M  V30 7051 H 662.672 1.01991 3.92877 0
M  V30 7052 H 663.438 3.44861 3.41022 0
M  V30 7053 H 659.317 2.35431 3.9635 0
M  V30 7054 H 662.861 5.80516 3.86842 0
M  V30 7055 H 658.758 4.70187 4.42261 0
M  V30 7056 H 659.526 6.77012 4.59997 0
M  V30 7057 N 662.189 -1.289 0.906776 0
M  V30 7058 C 663.435 -1.95919 0.546551 0
M  V30 7059 C 663.79 -1.70126 -0.8986 0
M  V30 7060 O 663.083 -1.00775 -1.62957 0
M  V30 7061 C 663.277 -3.48704 0.783617 0
M  V30 7062 C 663.106 -3.8935 2.25026 0
M  V30 7063 C 661.876 -4.13864 2.89905 0
M  V30 7064 C 664.074 -4.00535 3.22608 0
M  V30 7065 N 662.056 -4.41131 4.26939 0
M  V30 7066 C 663.427 -4.31936 4.44783 0
M  V30 7067 C 665.482 -3.83035 3.18102 0
M  V30 7068 C 664.185 -4.47659 5.63022 0
M  V30 7069 C 666.211 -3.99971 4.35634 0
M  V30 7070 C 665.573 -4.31738 5.5658 0
M  V30 7071 H 661.672 -0.74105 0.249737 0
M  V30 7072 H 664.256 -1.55696 1.16906 0
M  V30 7073 H 662.427 -3.87933 0.190437 0
M  V30 7074 H 664.159 -4.02835 0.38812 0
M  V30 7075 H 660.914 -4.07893 2.40666 0
M  V30 7076 H 661.338 -4.5886 4.97771 0
M  V30 7077 H 665.98 -3.57533 2.25677 0
M  V30 7078 H 663.698 -4.71995 6.55932 0
M  V30 7079 H 667.284 -3.87874 4.33641 0
M  V30 7080 H 666.164 -4.44568 6.4601 0
M  V30 7081 N 663.667 -0.670007 -1.42649 0
M  V30 7082 C 665.083 -0.33911 -1.55956 0
M  V30 7083 C 665.283 1.1558 -1.65056 0
M  V30 7084 O 664.339 1.94111 -1.61485 0
M  V30 7085 C 665.652 -1.06522 -2.812 0
M  V30 7086 C 667.2 -1.04708 -2.94966 0
M  V30 7087 C 667.675 -1.75442 -4.23065 0
M  V30 7088 N 669.166 -1.72286 -4.29967 0
M  V30 7089 C 669.901 -2.23877 -5.27889 0
M  V30 7090 N 669.397 -2.83829 -6.31991 0
M  V30 7091 N 671.19 -2.14279 -5.19654 0
M  V30 7092 H 663.341 -1.6399 -1.34986 0
M  V30 7093 H 665.604 -0.690603 -0.649439 0
M  V30 7094 H 665.31 -2.12033 -2.80597 0
M  V30 7095 H 665.184 -0.627398 -3.71946 0
M  V30 7096 H 667.571 -0.000315966 -2.951 0
M  V30 7097 H 667.652 -1.52374 -2.05465 0
M  V30 7098 H 667.296 -2.80084 -4.23693 0
M  V30 7099 H 667.226 -1.25229 -5.11493 0
M  V30 7100 H 669.717 -1.28554 -3.55362 0
M  V30 7101 H 670.03 -3.20827 -7.03057 0
M  V30 7102 H 668.375 -2.87896 -6.32567 0
M  V30 7103 H 671.566 -1.67135 -4.37245 0
M  V30 7104 H 671.739 -2.54792 -5.95806 0
M  V30 7105 N 665.145 1.52092 -0.413018 0
M  V30 7106 C 666.075 2.30021 0.401567 0
M  V30 7107 C 667.056 1.34395 1.04269 0
M  V30 7108 O 668.241 1.63304 1.05097 0
M  V30 7109 C 665.371 3.12447 1.51638 0
M  V30 7110 C 664.325 4.16153 1.00005 0
M  V30 7111 C 663.651 4.86948 2.20875 0
M  V30 7112 C 664.951 5.22275 0.0513757 0
M  V30 7113 H 666.645 2.98365 -0.248704 0
M  V30 7114 H 664.191 1.4349 -0.121052 0
M  V30 7115 H 666.144 3.65733 2.09326 0
M  V30 7116 H 664.868 2.41879 2.19458 0
M  V30 7117 H 663.527 3.63882 0.445549 0
M  V30 7118 H 663.175 4.12905 2.8726 0
M  V30 7119 H 662.875 5.57057 1.86978 0
M  V30 7120 H 664.399 5.43048 2.79162 0
M  V30 7121 H 665.813 5.70778 0.537176 0
M  V30 7122 H 664.21 5.9977 -0.198977 0
M  V30 7123 H 665.28 4.76611 -0.892736 0
M  V30 7124 N 666.623 0.143563 1.56945 0
M  V30 7125 C 667.571 -0.814556 2.17871 0
M  V30 7126 C 668.565 -1.25778 1.13474 0
M  V30 7127 O 669.771 -1.22666 1.31731 0
M  V30 7128 H 666.146 -0.280873 0.697578 0
M  V30 7129 H 668.117 -0.276459 2.97117 0
M  V30 7130 C 666.866 -2.04503 2.81201 0
M  V30 7131 H 666.189 -1.71296 3.61245 0
M  V30 7132 H 667.629 -2.69493 3.27337 0
M  V30 7133 C 666.088 -2.85079 1.79532 0
M  V30 7134 O 666.618 -3.81306 1.26368 0
M  V30 7135 N 664.824 -2.49546 1.48913 0
M  V30 7136 H 664.371 -1.71359 1.92338 0
M  V30 7137 H 664.329 -3.03751 0.811348 0
M  V30 7138 N 668.101 -1.57061 -0.130224 0
M  V30 7139 C 669.033 -1.96147 -1.18571 0
M  V30 7140 C 670.046 -0.859347 -1.38272 0
M  V30 7141 O 671.235 -1.13769 -1.37545 0
M  V30 7142 C 668.335 -2.23484 -2.54771 0
M  V30 7143 C 667.508 -3.54786 -2.55824 0
M  V30 7144 C 666.567 -3.70467 -3.73686 0
M  V30 7145 O 665.593 -4.42693 -3.57787 0
M  V30 7146 N 666.795 -3.08389 -4.91809 0
M  V30 7147 H 669.56 -2.87295 -0.853333 0
M  V30 7148 H 667.121 -1.58714 -0.319621 0
M  V30 7149 H 669.113 -2.312 -3.32158 0
M  V30 7150 H 667.683 -1.38518 -2.80235 0
M  V30 7151 H 666.903 -3.5836 -1.64232 0
M  V30 7152 H 668.191 -4.4111 -2.53573 0
M  V30 7153 H 667.589 -2.49656 -5.0763 0
M  V30 7154 H 666.146 -3.21642 -5.66912 0
M  V30 7155 N 669.579 0.400081 -1.52437 0
M  V30 7156 C 670.511 1.50729 -1.72666 0
M  V30 7157 C 671.524 1.51058 -0.607075 0
M  V30 7158 O 672.713 1.5516 -0.88248 0
M  V30 7159 C 669.813 2.89604 -1.76019 0
M  V30 7160 C 668.986 3.13365 -3.05157 0
M  V30 7161 C 668.045 4.32163 -3.00203 0
M  V30 7162 O 667.071 4.29004 -3.74092 0
M  V30 7163 N 668.273 5.3776 -2.18619 0
M  V30 7164 H 671.038 1.33767 -2.68191 0
M  V30 7165 H 668.599 0.58948 -1.50787 0
M  V30 7166 H 670.591 3.67159 -1.70225 0
M  V30 7167 H 669.161 2.99979 -0.879284 0
M  V30 7168 H 668.381 2.23774 -3.24529 0
M  V30 7169 H 669.669 3.26089 -3.90568 0
M  V30 7170 H 669.067 5.43177 -1.58035 0
M  V30 7171 H 667.624 6.14023 -2.18674 0
M  V30 7172 N 671.057 1.43213 0.657864 0
M  V30 7173 C 671.987 1.50815 1.78262 0
M  V30 7174 C 672.968 0.363211 1.66177 0
M  V30 7175 O 674.153 0.579806 1.85343 0
M  V30 7176 C 671.283 1.42625 3.16663 0
M  V30 7177 C 670.237 2.5532 3.43505 0
M  V30 7178 C 669.563 2.32184 4.81658 0
M  V30 7179 C 670.863 3.97583 3.38711 0
M  V30 7180 H 672.557 2.44954 1.72157 0
M  V30 7181 H 670.103 1.17896 0.82683 0
M  V30 7182 H 672.056 1.46548 3.95097 0
M  V30 7183 H 670.78 0.449877 3.23487 0
M  V30 7184 H 669.439 2.50742 2.6744 0
M  V30 7185 H 669.087 1.32801 4.85153 0
M  V30 7186 H 668.787 3.07724 5.00579 0
M  V30 7187 H 670.311 2.37883 5.62356 0
M  V30 7188 H 671.725 4.03673 4.07089 0
M  V30 7189 H 670.122 4.73112 3.69168 0
M  V30 7190 H 671.192 4.23049 2.36976 0
M  V30 7191 N 672.536 -0.895792 1.29666 0
M  V30 7192 C 673.952 -1.17726 1.07763 0
M  V30 7193 C 674.152 -2.00794 -0.168576 0
M  V30 7194 O 673.208 -2.37213 -0.865244 0
M  V30 7195 C 674.521 -1.89441 2.33522 0
M  V30 7196 C 676.069 -2.02251 2.3888 0
M  V30 7197 C 676.544 -2.77378 3.64452 0
M  V30 7198 N 678.035 -2.8493 3.65198 0
M  V30 7199 C 678.77 -3.43606 4.59045 0
M  V30 7200 N 678.266 -4.03417 5.63228 0
M  V30 7201 N 680.059 -3.41317 4.46608 0
M  V30 7202 H 672.21 -0.341652 2.09634 0
M  V30 7203 H 674.473 -0.213865 0.923561 0
M  V30 7204 H 674.179 -1.35842 3.24407 0
M  V30 7205 H 674.053 -2.89893 2.41334 0
M  V30 7206 H 676.44 -2.55025 1.4848 0
M  V30 7207 H 676.521 -1.0092 2.3505 0
M  V30 7208 H 676.165 -2.25279 4.55205 0
M  V30 7209 H 676.095 -3.79062 3.65541 0
M  V30 7210 H 678.586 -2.42453 2.89871 0
M  V30 7211 H 678.899 -4.46224 6.30955 0
M  V30 7212 H 677.244 -4.01868 5.67033 0
M  V30 7213 H 680.435 -2.93812 3.64407 0
M  V30 7214 H 680.608 -3.86751 5.1993 0
M  V30 7215 N 674.014 -1.12206 -1.10668 0
M  V30 7216 C 675.26 -0.877172 -1.82848 0
M  V30 7217 C 675.593 0.595571 -1.84842 0
M  V30 7218 O 674.868 1.44013 -1.30731 0
M  V30 7219 C 675.151 -1.44957 -3.29635 0
M  V30 7220 C 675.004 -2.99051 -3.35989 0
M  V30 7221 C 676.323 -1.10714 -4.25946 0
M  V30 7222 H 673.442 -0.320103 -0.663854 0
M  V30 7223 H 676.084 -1.38827 -1.2972 0
M  V30 7224 H 674.234 -1.01488 -3.7501 0
M  V30 7225 H 675.906 -3.51182 -2.99113 0
M  V30 7226 H 674.149 -3.34705 -2.75962 0
M  V30 7227 H 674.82 -3.34194 -4.39339 0
M  V30 7228 H 677.296 -1.48254 -3.88793 0
M  V30 7229 H 676.172 -1.5343 -5.2702 0
M  V30 7230 H 676.433 -0.019 -4.42096 0
M  V30 7231 N 675.492 1.28418 -0.913599 0
M  V30 7232 C 676.402 2.31043 -0.406965 0
M  V30 7233 C 677.418 1.66501 0.505298 0
M  V30 7234 O 678.594 1.97558 0.391522 0
M  V30 7235 C 675.659 3.4498 0.344901 0
M  V30 7236 C 674.72 4.25078 -0.600563 0
M  V30 7237 C 673.953 5.33575 0.115516 0
M  V30 7238 O 674.176 5.54503 1.33727 0
M  V30 7239 O 673.11 5.9939 -0.549095 0
M  V30 7240 H 676.936 2.76387 -1.25873 0
M  V30 7241 H 674.521 1.33109 -0.678415 0
M  V30 7242 H 676.403 4.14314 0.769542 0
M  V30 7243 H 675.078 3.01719 1.1725 0
M  V30 7244 H 673.985 3.58334 -1.0746 0
M  V30 7245 H 675.318 4.72018 -1.39497 0
M  V30 7246 N 676.97 0.677563 1.42291 0
M  V30 7247 C 677.917 0.000947061 2.308 0
M  V30 7248 C 678.887 -0.789889 1.46116 0
M  V30 7249 O 680.072 -0.761578 1.74942 0
M  V30 7250 C 677.212 -0.942387 3.31984 0
M  V30 7251 C 676.325 -0.14508 4.31756 0
M  V30 7252 C 675.46 -1.08442 5.20013 0
M  V30 7253 C 674.499 -0.278958 6.11464 0
M  V30 7254 N 673.636 -1.17115 6.92263 0
M  V30 7255 H 678.476 0.761521 2.88106 0
M  V30 7256 H 676.013 0.38727 1.41911 0
M  V30 7257 H 677.971 -1.50317 3.89179 0
M  V30 7258 H 676.601 -1.66956 2.76271 0
M  V30 7259 H 675.653 0.532368 3.76656 0
M  V30 7260 H 676.965 0.48015 4.96484 0
M  V30 7261 H 676.119 -1.71504 5.81955 0
M  V30 7262 H 674.858 -1.74353 4.55469 0
M  V30 7263 H 673.863 0.364856 5.48588 0
M  V30 7264 H 675.088 0.376099 6.78058 0
M  V30 7265 H 673.034 -1.81661 6.30345 0
M  V30 7266 H 672.951 -0.601063 7.53607 0
M  V30 7267 H 674.219 -1.78915 7.58689 0
M  V30 7268 N 678.448 -1.51871 0.421078 0
M  V30 7269 C 679.696 -2.01539 -0.150492 0
M  V30 7270 C 680.017 -1.30803 -1.44623 0
M  V30 7271 O 679.287 -0.437568 -1.90951 0
M  V30 7272 H 677.867 -0.744698 -0.0586041 0
M  V30 7273 H 680.529 -1.8668 0.560059 0
M  V30 7274 H 679.625 -3.10264 -0.338068 0
M  V30 7275 N 679.926 -0.151884 -1.56866 0
M  V30 7276 C 681.156 0.504081 -2.00356 0
M  V30 7277 C 681.564 1.58639 -1.03103 0
M  V30 7278 O 680.907 1.83688 -0.0207931 0
M  V30 7279 C 680.969 1.15975 -3.40279 0
M  V30 7280 C 680.633 0.221453 -4.56463 0
M  V30 7281 C 681.63 -0.552766 -5.16953 0
M  V30 7282 C 679.315 0.122936 -5.0215 0
M  V30 7283 C 681.309 -1.4129 -6.21543 0
M  V30 7284 C 678.996 -0.740801 -6.06593 0
M  V30 7285 C 679.994 -1.50732 -6.6616 0
M  V30 7286 O 679.682 -2.35666 -7.68581 0
M  V30 7287 H 679.414 0.135279 -0.662326 0
M  V30 7288 H 681.968 -0.244916 -2.03935 0
M  V30 7289 H 680.198 1.95649 -3.33554 0
M  V30 7290 H 681.887 1.71594 -3.67846 0
M  V30 7291 H 682.653 -0.486716 -4.82552 0
M  V30 7292 H 678.532 0.70931 -4.5551 0
M  V30 7293 H 682.076 -2.01166 -6.67966 0
M  V30 7294 H 677.973 -0.808125 -6.40421 0
M  V30 7295 H 678.741 -2.28967 -7.85822 0
M  V30 7296 N 681.404 1.57128 0.121893 0
M  V30 7297 C 682.815 1.73902 0.679348 0
M  V30 7298 C 683.166 0.770135 1.80453 0
M  V30 7299 O 682.291 -0.0576083 2.16323 0
M  V30 7300 C 682.886 3.15328 1.2391 0
M  V30 7301 C 681.445 3.33618 1.74288 0
M  V30 7302 C 680.592 2.6978 0.641414 0
M  V30 7303 H 683.543 1.58359 -0.104 0
M  V30 7304 H 683.564 3.16718 2.10879 0
M  V30 7305 H 683.076 3.85821 0.419957 0
M  V30 7306 H 681.177 2.68162 2.58689 0
M  V30 7307 H 681.29 4.4176 1.85432 0
M  V30 7308 H 679.654 2.30935 1.0743 0
M  V30 7309 H 680.437 3.42895 -0.166707 0
M  V30 7310 N 682.882 -0.391992 1.52647 0
M  V30 7311 C 684.298 -0.731848 1.41831 0
M  V30 7312 C 684.498 -1.9423 0.536361 0
M  V30 7313 O 683.554 -2.52499 0.00866571 0
M  V30 7314 C 684.867 -0.969743 2.84634 0
M  V30 7315 C 686.415 -1.0714 2.94092 0
M  V30 7316 C 686.89 -1.34195 4.37899 0
M  V30 7317 N 688.381 -1.41023 4.41211 0
M  V30 7318 C 689.116 -1.63616 5.49561 0
M  V30 7319 N 688.612 -1.83699 6.68002 0
M  V30 7320 N 690.405 -1.65771 5.371 0
M  V30 7321 H 682.556 0.404547 2.08512 0
M  V30 7322 H 684.819 0.11879 0.940528 0
M  V30 7323 H 684.525 -0.152465 3.51369 0
M  V30 7324 H 684.399 -1.88523 3.26709 0
M  V30 7325 H 686.786 -1.87925 2.27526 0
M  V30 7326 H 686.867 -0.133887 2.55449 0
M  V30 7327 H 686.511 -0.539207 5.0503 0
M  V30 7328 H 686.441 -2.29226 4.74092 0
M  V30 7329 H 688.932 -1.27223 3.55841 0
M  V30 7330 H 689.245 -2.00437 7.46354 0
M  V30 7331 H 687.59 -1.8093 6.71036 0
M  V30 7332 H 690.781 -1.4963 4.43541 0
M  V30 7333 H 690.954 -1.83038 6.21612 0
M  V30 7334 N 684.36 -1.4356 -0.65026 0
M  V30 7335 C 685.308 -1.49219 -1.78427 0
M  V30 7336 C 686.302 -0.365528 -1.65409 0
M  V30 7337 O 687.508 -0.539649 -1.7172 0
M  V30 7338 H 683.883 -0.467858 -0.588738 0
M  V30 7339 H 685.854 -2.44701 -1.70774 0
M  V30 7340 C 684.603 -1.43519 -3.16698 0
M  V30 7341 H 683.926 -2.2952 -3.27354 0
M  V30 7342 H 685.366 -1.5154 -3.95995 0
M  V30 7343 C 683.825 -0.153197 -3.36552 0
M  V30 7344 O 684.355 0.784317 -3.93969 0
M  V30 7345 N 682.561 -0.0624402 -2.90533 0
M  V30 7346 H 682.108 -0.826172 -2.43992 0
M  V30 7347 H 682.066 0.794616 -3.04193 0
M  V30 7348 N 685.838 0.888903 -1.30139 0
M  V30 7349 C 687.087 1.63507 -1.18103 0
M  V30 7350 C 687.4 1.93808 0.264141 0
M  V30 7351 O 688.606 2.66744 0.505966 0
M  V30 7352 C 687.062 2.94673 -2.0663 0
M  V30 7353 C 686.67 2.71926 -3.56034 0
M  V30 7354 C 688.414 3.72626 -2.03346 0
M  V30 7355 C 686.321 3.98884 -4.3663 0
M  V30 7356 H 685.251 0.613426 -0.438435 0
M  V30 7357 H 687.902 0.984427 -1.54859 0
M  V30 7358 H 686.284 3.61009 -1.62754 0
M  V30 7359 H 687.458 2.14116 -4.08033 0
M  V30 7360 H 685.773 2.07353 -3.61101 0
M  V30 7361 H 688.37 4.66775 -2.60816 0
M  V30 7362 H 688.713 4.03712 -1.016 0
M  V30 7363 H 689.246 3.13147 -2.45324 0
M  V30 7364 H 685.985 3.72959 -5.39056 0
M  V30 7365 H 685.505 4.56214 -3.89396 0
M  V30 7366 H 687.184 4.66938 -4.47859 0
M  V30 7367 N 687.317 1.12792 1.10072 0
M  V30 7368 C 688.542 0.908838 1.86427 0
M  V30 7369 C 688.967 -0.536793 1.80278 0
M  V30 7370 O 688.325 -1.38033 1.17543 0
M  V30 7371 C 688.373 1.39295 3.3261 0
M  V30 7372 O 687.477 0.573846 4.08388 0
M  V30 7373 H 686.818 0.326234 0.578331 0
M  V30 7374 H 689.348 1.50094 1.39043 0
M  V30 7375 H 689.358 1.39366 3.83459 0
M  V30 7376 H 688.033 2.44555 3.36401 0
M  V30 7377 H 686.61 0.640438 3.67359 0
M  V30 7378 N 688.795 -1.27931 0.920396 0
M  V30 7379 C 689.745 -2.24727 0.384966 0
M  V30 7380 C 690.729 -1.52715 -0.506661 0
M  V30 7381 O 691.921 -1.73599 -0.345298 0
M  V30 7382 C 689.05 -3.41324 -0.3678 0
M  V30 7383 C 688.136 -4.20649 0.539925 0
M  V30 7384 N 688.527 -4.77906 1.6565 0
M  V30 7385 C 686.825 -4.4469 0.341557 0
M  V30 7386 C 687.526 -5.37652 2.22047 0
M  V30 7387 N 686.502 -5.2218 1.51093 0
M  V30 7388 H 690.304 -2.66572 1.23761 0
M  V30 7389 H 687.818 -1.42779 0.773819 0
M  V30 7390 H 689.815 -4.0976 -0.768277 0
M  V30 7391 H 688.475 -3.01012 -1.21746 0
M  V30 7392 H 689.486 -4.76073 2.03899 0
M  V30 7393 H 686.163 -4.14868 -0.468045 0
M  V30 7394 H 687.553 -5.92948 3.1601 0
M  V30 7395 N 690.273 -0.685099 -1.4193 0
M  V30 7396 C 691.221 -0.00165985 -2.326 0
M  V30 7397 C 692.215 0.779678 -1.50391 0
M  V30 7398 O 693.421 0.68648 -1.66395 0
M  V30 7399 H 689.796 0.0182616 -0.751778 0
M  V30 7400 H 691.767 -0.783592 -2.87928 0
M  V30 7401 C 690.516 0.928385 -3.35077 0
M  V30 7402 H 689.839 0.336578 -3.98381 0
M  V30 7403 H 691.279 1.37509 -4.01083 0
M  V30 7404 C 689.738 2.03964 -2.68142 0
M  V30 7405 O 690.268 3.12727 -2.5212 0
M  V30 7406 N 688.474 1.81433 -2.27003 0
M  V30 7407 H 688.021 0.929807 -2.40234 0
M  V30 7408 H 687.979 2.55973 -1.82552 0
M  V30 7409 N 691.751 1.51645 -0.429126 0
M  V30 7410 C 692.997 2.02967 0.132584 0
M  V30 7411 C 693.352 1.30804 1.41096 0
M  V30 7412 O 692.645 0.411705 1.87124 0
M  V30 7413 C 692.839 3.54989 0.414472 0
M  V30 7414 C 692.668 4.41879 -0.83503 0
M  V30 7415 C 691.438 4.86482 -1.36614 0
M  V30 7416 C 693.636 4.84727 -1.71886 0
M  V30 7417 N 691.618 5.5756 -2.56904 0
M  V30 7418 C 692.989 5.54788 -2.76786 0
M  V30 7419 C 695.044 4.66721 -1.73425 0
M  V30 7420 C 693.747 6.08753 -3.8316 0
M  V30 7421 C 695.773 5.21597 -2.7873 0
M  V30 7422 C 695.135 5.91598 -3.8235 0
M  V30 7423 H 691.234 0.781942 0.00956367 0
M  V30 7424 H 693.818 1.8561 -0.587957 0
M  V30 7425 H 691.989 3.72378 1.10405 0
M  V30 7426 H 693.721 3.92982 0.966817 0
M  V30 7427 H 690.476 4.64553 -0.921255 0
M  V30 7428 H 690.9 5.97731 -3.17879 0
M  V30 7429 H 695.542 4.1207 -0.946467 0
M  V30 7430 H 693.26 6.62464 -4.62782 0
M  V30 7431 H 696.846 5.09522 -2.80853 0
M  V30 7432 H 695.726 6.33299 -4.62495 0
M  V30 7433 N 693.229 0.160201 1.56784 0
M  V30 7434 C 694.162 -0.812797 2.13234 0
M  V30 7435 C 695.14 -1.2335 1.05942 0
M  V30 7436 O 696.324 -1.32725 1.33852 0
M  V30 7437 C 693.451 -2.09311 2.66283 0
M  V30 7438 C 692.497 -1.8173 3.85845 0
M  V30 7439 S 693.33 -0.996473 5.26147 0
M  V30 7440 C 694.486 -2.28769 5.82594 0
M  V30 7441 H 694.719 -0.332794 2.95432 0
M  V30 7442 H 692.252 -0.0542971 1.54304 0
M  V30 7443 H 694.21 -2.82854 2.97496 0
M  V30 7444 H 692.871 -2.54425 1.84192 0
M  V30 7445 H 692.064 -2.76699 4.21253 0
M  V30 7446 H 691.666 -1.16289 3.55462 0
M  V30 7447 H 693.958 -3.24319 5.9483 0
M  V30 7448 H 694.901 -1.97846 6.79899 0
M  V30 7449 H 695.309 -2.40021 5.10931 0
M  V30 7450 N 694.707 -1.5719 -0.113559 0
M  V30 7451 C 695.657 -1.97166 -1.14497 0
M  V30 7452 C 696.641 -0.847413 -1.36776 0
M  V30 7453 O 697.833 -1.11114 -1.37777 0
M  V30 7454 C 694.962 -2.38411 -2.47013 0
M  V30 7455 C 694.048 -3.5748 -2.28185 0
M  V30 7456 N 694.439 -4.72998 -1.79182 0
M  V30 7457 C 692.737 -3.63218 -2.58821 0
M  V30 7458 C 693.438 -5.55007 -1.74191 0
M  V30 7459 N 692.414 -4.9765 -2.18735 0
M  V30 7460 H 696.216 -2.83937 -0.758733 0
M  V30 7461 H 693.73 -1.59191 -0.321234 0
M  V30 7462 H 695.727 -2.65269 -3.21618 0
M  V30 7463 H 694.387 -1.53007 -2.8639 0
M  V30 7464 H 695.398 -4.96109 -1.48649 0
M  V30 7465 H 692.075 -2.88434 -3.01847 0
M  V30 7466 H 693.465 -6.57678 -1.37512 0
M  V30 7467 N 696.185 0.383891 -1.52853 0
M  V30 7468 C 697.425 1.13731 -1.69837 0
M  V30 7469 C 697.789 1.87086 -0.431611 0
M  V30 7470 O 698.99 2.64518 -0.477886 0
M  V30 7471 C 697.261 2.08551 -2.90243 0
M  V30 7472 S 698.82 2.9166 -3.27841 0
M  V30 7473 H 695.638 0.384911 -0.5978 0
M  V30 7474 H 698.24 0.42103 -1.90913 0
M  V30 7475 H 696.944 1.53392 -3.80656 0
M  V30 7476 H 696.475 2.8468 -2.71516 0
M  V30 7477 H 698.49 4.10723 -2.78426 0
M  V30 7478 N 697.663 1.43903 0.642637 0
M  V30 7479 C 699.079 1.27536 0.959519 0
M  V30 7480 C 699.279 0.202751 2.00477 0
M  V30 7481 O 698.335 -0.415256 2.49062 0
M  V30 7482 C 699.648 2.6432 1.43372 0
M  V30 7483 C 701.196 2.71937 1.54981 0
M  V30 7484 C 701.671 4.09164 2.05789 0
M  V30 7485 N 703.162 4.11282 2.13076 0
M  V30 7486 C 703.897 5.14303 2.53534 0
M  V30 7487 N 703.393 6.27693 2.93212 0
M  V30 7488 N 705.186 5.01657 2.53567 0
M  V30 7489 H 697.337 2.12344 -0.0488376 0
M  V30 7490 H 699.6 0.947124 0.0407559 0
M  V30 7491 H 699.306 3.43826 0.740048 0
M  V30 7492 H 699.18 2.90432 2.40685 0
M  V30 7493 H 701.567 1.92757 2.23448 0
M  V30 7494 H 701.648 2.49578 0.560739 0
M  V30 7495 H 701.292 4.88815 1.37921 0
M  V30 7496 H 701.222 4.28893 3.05546 0
M  V30 7497 H 703.713 3.2944 1.85143 0
M  V30 7498 H 704.026 7.02125 3.22863 0
M  V30 7499 H 702.371 6.31149 2.90991 0
M  V30 7500 H 705.562 4.12134 2.21952 0
M  V30 7501 H 705.735 5.82072 2.84774 0
M  V30 7502 N 699.141 -0.881989 1.30609 0
M  V30 7503 C 700.552 -1.44956 1.17664 0
M  V30 7504 C 700.903 -1.94945 -0.221531 0
M  V30 7505 O 700.028 -1.85257 -1.11844 0
M  V30 7506 C 700.623 -2.63474 2.12995 0
M  V30 7507 C 699.182 -3.16312 2.04019 0
M  V30 7508 C 698.329 -1.89008 2.02907 0
M  V30 7509 H 701.28 -0.691645 1.42835 0
M  V30 7510 H 701.301 -3.39783 1.71253 0
M  V30 7511 H 700.813 -2.2706 3.14746 0
M  V30 7512 H 698.914 -3.57376 1.0542 0
M  V30 7513 H 699.027 -3.79409 2.9255 0
M  V30 7514 H 697.391 -2.07465 1.47751 0
M  V30 7515 H 698.174 -1.54848 3.06394 0
M  V30 7516 N 700.619 -1.13374 -1.09472 0
M  V30 7517 C 702.035 -0.871846 -1.33682 0
M  V30 7518 C 702.235 0.492847 -1.9538 0
M  V30 7519 O 701.291 1.23946 -2.19985 0
M  V30 7520 C 702.604 -1.99608 -2.24893 0
M  V30 7521 C 704.152 -2.02812 -2.38404 0
M  V30 7522 C 704.627 -3.14497 -3.3295 0
M  V30 7523 N 706.118 -3.14004 -3.40523 0
M  V30 7524 C 706.853 -3.97061 -4.13679 0
M  V30 7525 N 706.349 -4.90131 -4.89636 0
M  V30 7526 N 708.142 -3.85162 -4.09398 0
M  V30 7527 H 700.293 -2.01288 -0.677995 0
M  V30 7528 H 702.556 -0.876492 -0.361201 0
M  V30 7529 H 702.262 -2.98 -1.86786 0
M  V30 7530 H 702.136 -1.90981 -3.25278 0
M  V30 7531 H 704.523 -1.05034 -2.75775 0
M  V30 7532 H 704.604 -2.15511 -1.37799 0
M  V30 7533 H 704.248 -4.12514 -2.96302 0
M  V30 7534 H 704.178 -2.99035 -4.33458 0
M  V30 7535 H 706.669 -2.46587 -2.86362 0
M  V30 7536 H 706.982 -5.49996 -5.42885 0
M  V30 7537 H 705.327 -4.94138 -4.88726 0
M  V30 7538 H 708.518 -3.11779 -3.49158 0
M  V30 7539 H 708.691 -4.5012 -4.6615 0
M  V30 7540 N 702.098 1.27442 -0.927168 0
M  V30 7541 C 703.326 1.98498 -0.583622 0
M  V30 7542 C 703.741 1.69171 0.838241 0
M  V30 7543 O 703.098 0.951969 1.55704 0
M  V30 7544 C 703.149 3.52552 -0.799341 0
M  V30 7545 O 702.87 3.80851 -2.16527 0
M  V30 7546 C 704.371 4.4086 -0.464436 0
M  V30 7547 H 701.591 0.633487 -0.221213 0
M  V30 7548 H 704.135 1.62308 -1.24404 0
M  V30 7549 H 702.29 3.86955 -0.185728 0
M  V30 7550 H 702.704 4.75441 -2.21487 0
M  V30 7551 H 704.178 5.47967 -0.666075 0
M  V30 7552 H 704.655 4.35082 0.599995 0
M  V30 7553 H 705.261 4.11977 -1.05617 0
M  V30 7554 N 703.576 0.692616 1.41565 0
M  V30 7555 C 704.825 0.219452 2.00503 0
M  V30 7556 C 705.138 -1.18683 1.55479 0
M  V30 7557 O 706.344 -1.75731 2.06956 0
M  V30 7558 C 704.8 0.341451 3.58277 0
M  V30 7559 C 704.408 1.75291 4.12283 0
M  V30 7560 C 706.152 -0.0720899 4.24439 0
M  V30 7561 C 704.059 1.82673 5.62481 0
M  V30 7562 H 702.989 0.0782874 0.749925 0
M  V30 7563 H 705.64 0.860386 1.62079 0
M  V30 7564 H 704.022 -0.367683 3.94289 0
M  V30 7565 H 705.196 2.49057 3.87695 0
M  V30 7566 H 703.511 2.11587 3.58636 0
M  V30 7567 H 706.108 -0.0373385 5.34687 0
M  V30 7568 H 706.451 -1.11034 4.0122 0
M  V30 7569 H 706.984 0.586663 3.9345 0
M  V30 7570 H 703.723 2.84539 5.90523 0
M  V30 7571 H 703.243 1.13288 5.89004 0
M  V30 7572 H 704.922 1.58827 6.27203 0
M  V30 7573 N 705.054 -1.51416 0.437162 0
M  V30 7574 C 706.331 -1.94682 -0.189292 0
M  V30 7575 C 706.711 -1.37581 -1.60108 0
M  V30 7576 O 706.059 -0.562815 -2.2146 0
M  V30 7577 C 706.269 -3.48599 -0.167201 0
M  V30 7578 C 707.617 -4.2296 -0.372856 0
M  V30 7579 O 708.641 -3.55354 -0.245323 0
M  V30 7580 O 707.5 -5.42895 -0.626693 0
M  V30 7581 H 704.594 -0.816708 -0.130063 0
M  V30 7582 H 707.14 -1.62316 0.495128 0
M  V30 7583 H 705.912 -3.82616 0.81981 0
M  V30 7584 H 705.535 -3.87406 -0.894537 0
M  V30 7585 N 706.532 -0.168513 -1.56696 0
M  V30 7586 C 707.76 0.483503 -2.01171 0
M  V30 7587 C 708.175 1.56994 -1.04872 0
M  V30 7588 O 707.532 1.82434 -0.0491337 0
M  V30 7589 C 707.583 1.0644 -3.45475 0
M  V30 7590 O 707.304 0.0213375 -4.38095 0
M  V30 7591 C 708.805 1.79493 -4.05336 0
M  V30 7592 H 706.025 0.124002 -0.659443 0
M  V30 7593 H 708.569 -0.269419 -2.02717 0
M  V30 7594 H 706.724 1.76784 -3.44712 0
M  V30 7595 H 707.138 0.449837 -5.22567 0
M  V30 7596 H 708.612 2.15401 -5.08238 0
M  V30 7597 H 709.089 2.68889 -3.47269 0
M  V30 7598 H 709.695 1.13798 -4.09793 0
M  V30 7599 N 708.01 1.57248 0.105221 0
M  V30 7600 C 709.238 1.89768 0.82437 0
M  V30 7601 C 709.653 0.761192 1.72775 0
M  V30 7602 O 709.01 -0.267342 1.80531 0
M  V30 7603 C 709.061 3.2184 1.64625 0
M  V30 7604 O 708.782 4.31115 0.779217 0
M  V30 7605 C 710.283 3.68155 2.46935 0
M  V30 7606 H 707.503 0.628031 0.236259 0
M  V30 7607 H 710.047 2.04321 0.085485 0
M  V30 7608 H 708.202 3.08915 2.33775 0
M  V30 7609 H 708.616 5.06897 1.34745 0
M  V30 7610 H 710.09 4.6329 3.00111 0
M  V30 7611 H 710.567 2.95492 3.24932 0
M  V30 7612 H 711.173 3.83914 1.83002 0
M  V30 7613 N 709.488 -0.375779 1.53054 0
M  V30 7614 C 710.899 -0.95309 1.6054 0
M  V30 7615 C 711.25 -1.90575 0.466446 0
M  V30 7616 O 710.375 -2.12507 -0.408609 0
M  V30 7617 C 710.97 -1.73537 2.90982 0
M  V30 7618 C 709.529 -2.26218 3.00836 0
M  V30 7619 C 708.676 -1.07157 2.55759 0
M  V30 7620 H 711.627 -0.154895 1.57942 0
M  V30 7621 H 711.648 -2.59574 2.78211 0
M  V30 7622 H 711.16 -1.04176 3.73857 0
M  V30 7623 H 709.261 -2.98852 2.22527 0
M  V30 7624 H 709.374 -2.54799 4.05727 0
M  V30 7625 H 707.738 -1.43553 2.10391 0
M  V30 7626 H 708.521 -0.393099 3.41042 0
M  V30 7627 N 710.966 -1.44241 -0.634997 0
M  V30 7628 C 712.191 -1.50516 -1.42687 0
M  V30 7629 C 712.616 -0.129864 -1.87651 0
M  V30 7630 O 711.974 0.880164 -1.58502 0
M  V30 7631 C 712.022 -2.4714 -2.62591 0
M  V30 7632 O 711.126 -1.97025 -3.62291 0
M  V30 7633 H 710.467 -0.50841 -0.427101 0
M  V30 7634 H 712.997 -1.89337 -0.775408 0
M  V30 7635 H 713.007 -2.65048 -3.10183 0
M  V30 7636 H 711.682 -3.47039 -2.29209 0
M  V30 7637 H 710.259 -1.88866 -3.21534 0
M  V30 7638 N 712.444 0.87505 -1.31075 0
M  V30 7639 C 713.692 1.62447 -1.20231 0
M  V30 7640 C 714.013 1.93506 0.240888 0
M  V30 7641 O 713.283 1.57847 1.16022 0
M  V30 7642 H 711.863 0.602207 -0.441991 0
M  V30 7643 H 714.525 1.04788 -1.64334 0
M  V30 7644 H 713.621 2.57031 -1.77036 0
M  V30 7645 N 713.922 1.13953 1.08869 0
M  V30 7646 C 715.17 0.903023 1.80803 0
M  V30 7647 C 715.491 -0.572151 1.86417 0
M  V30 7648 O 714.761 -1.41589 1.35386 0
M  V30 7649 H 713.341 0.331099 0.669614 0
M  V30 7650 H 716.003 1.43719 1.31647 0
M  V30 7651 H 715.099 1.29881 2.83791 0
M  V30 7652 N 715.4 -1.26948 0.933913 0
M  V30 7653 C 716.348 -2.2862 0.428463 0
M  V30 7654 C 717.342 -1.62144 -0.490464 0
M  V30 7655 O 718.548 -1.76167 -0.36948 0
M  V30 7656 H 714.923 -0.742363 0.120003 0
M  V30 7657 H 716.894 -2.68659 1.29865 0
M  V30 7658 C 715.643 -3.46423 -0.29774 0
M  V30 7659 H 714.966 -3.97792 0.400183 0
M  V30 7660 H 716.406 -4.19505 -0.615736 0
M  V30 7661 C 714.865 -3.01017 -1.51295 0
M  V30 7662 O 715.395 -3.05226 -2.61151 0
M  V30 7663 N 713.601 -2.56442 -1.36696 0
M  V30 7664 H 713.148 -2.53217 -0.473178 0
M  V30 7665 H 713.106 -2.26424 -2.18127 0
M  V30 7666 N 716.879 -0.700114 -1.41195 0
M  V30 7667 C 718.107 -0.242179 -2.05478 0
M  V30 7668 C 718.522 1.11029 -1.52702 0
M  V30 7669 O 717.879 1.69473 -0.677127 0
M  V30 7670 C 717.93 -0.196271 -3.60967 0
M  V30 7671 O 717.651 -1.49532 -4.11791 0
M  V30 7672 C 719.152 0.282102 -4.42401 0
M  V30 7673 H 716.372 -0.111749 -0.661629 0
M  V30 7674 H 718.916 -0.953975 -1.80885 0
M  V30 7675 H 717.071 0.46638 -3.84582 0
M  V30 7676 H 717.485 -1.38545 -5.05871 0
M  V30 7677 H 718.959 0.263093 -5.51373 0
M  V30 7678 H 719.436 1.32174 -4.1884 0
M  V30 7679 H 720.042 -0.349712 -4.2386 0
M  V30 7680 N 718.357 1.51182 -0.445186 0
M  V30 7681 C 719.585 2.06568 0.117091 0
M  V30 7682 C 720 1.31182 1.35781 0
M  V30 7683 O 719.357 0.373605 1.78635 0
M  V30 7684 C 719.408 3.58917 0.431408 0
M  V30 7685 O 719.129 4.31456 -0.760078 0
M  V30 7686 C 720.63 4.30843 1.0435 0
M  V30 7687 H 717.85 0.670985 0.00444436 0
M  V30 7688 H 720.394 1.94666 -0.626525 0
M  V30 7689 H 718.549 3.70708 1.12493 0
M  V30 7690 H 718.963 5.22215 -0.489048 0
M  V30 7691 H 720.437 5.38499 1.21337 0
M  V30 7692 H 720.914 3.89644 2.02667 0
M  V30 7693 H 721.52 4.23516 0.38913 0
M  V30 7694 N 719.835 0.176821 1.56605 0
M  V30 7695 C 721.246 -0.338963 1.83597 0
M  V30 7696 C 721.597 -1.62677 1.09684 0
M  V30 7697 O 720.722 -2.13524 0.351661 0
M  V30 7698 C 721.317 -0.62177 3.33046 0
M  V30 7699 C 719.876 -1.08198 3.60514 0
M  V30 7700 C 719.023 -0.120774 2.77037 0
M  V30 7701 H 721.974 0.400978 1.53551 0
M  V30 7702 H 721.995 -1.47321 3.50823 0
M  V30 7703 H 721.507 0.315692 3.86814 0
M  V30 7704 H 719.608 -2.03435 3.12162 0
M  V30 7705 H 719.721 -0.987329 4.68816 0
M  V30 7706 H 718.085 -0.619192 2.47059 0
M  V30 7707 H 718.868 0.810806 3.33588 0
M  V30 7708 N 721.313 -1.57302 -0.09688 0
M  V30 7709 C 722.538 -1.9058 -0.818169 0
M  V30 7710 C 722.963 -0.770921 -1.71576 0
M  V30 7711 O 722.321 0.277588 -1.79162 0
M  V30 7712 C 722.369 -3.22714 -1.60898 0
M  V30 7713 O 721.473 -3.10178 -2.71779 0
M  V30 7714 H 720.814 -0.624759 -0.224882 0
M  V30 7715 H 723.344 -2.04471 -0.07264 0
M  V30 7716 H 723.354 -3.55978 -1.99358 0
M  V30 7717 H 722.029 -4.04899 -0.950227 0
M  V30 7718 H 720.606 -2.88424 -2.3636 0
M  V30 7719 N 722.791 0.367657 -1.53252 0
M  V30 7720 C 724.039 1.10832 -1.68999 0
M  V30 7721 C 724.36 1.89894 -0.443306 0
M  V30 7722 O 723.63 1.88235 0.54262 0
M  V30 7723 H 722.21 0.412153 -0.623008 0
M  V30 7724 H 724.872 0.414775 -1.90435 0
M  V30 7725 H 723.968 1.7993 -2.55013 0
M  V30 7726 N 724.269 1.44576 0.627338 0
M  V30 7727 C 725.497 1.51048 1.41394 0
M  V30 7728 C 725.912 0.136568 1.88305 0
M  V30 7729 O 725.269 -0.858251 1.6106 0
M  V30 7730 C 725.32 2.47837 2.63172 0
M  V30 7731 O 725.041 3.79887 2.18215 0
M  V30 7732 C 726.542 2.63811 3.56257 0
M  V30 7733 H 723.762 0.512171 0.4335 0
M  V30 7734 H 726.306 1.89576 0.766878 0
M  V30 7735 H 724.461 2.12433 3.23961 0
M  V30 7736 H 724.875 4.32177 2.97192 0
M  V30 7737 H 726.349 3.35554 4.38301 0
M  V30 7738 H 726.826 1.69169 4.05313 0
M  V30 7739 H 727.432 3.0013 3.01333 0
M  V30 7740 N 725.747 -0.868086 1.31537 0
M  V30 7741 C 726.995 -1.61807 1.21091 0
M  V30 7742 C 727.316 -1.93631 -0.230623 0
M  V30 7743 O 726.586 -1.5846 -1.15183 0
M  V30 7744 H 725.166 -0.599854 0.445178 0
M  V30 7745 H 727.828 -1.03915 1.64887 0
M  V30 7746 H 726.924 -2.56088 1.78396 0
M  V30 7747 N 727.225 -1.14528 -1.08264 0
M  V30 7748 C 728.474 -0.908992 -1.80056 0
M  V30 7749 C 728.787 0.565859 -1.87236 0
M  V30 7750 O 729.993 0.919454 -2.55457 0
M  V30 7751 C 728.449 -1.57681 -3.23519 0
M  V30 7752 C 728.057 -3.08803 -3.24569 0
M  V30 7753 C 729.801 -1.4217 -3.99985 0
M  V30 7754 C 727.708 -3.68414 -4.62629 0
M  V30 7755 H 726.638 -0.336432 -0.674781 0
M  V30 7756 H 729.289 -1.37437 -1.21587 0
M  V30 7757 H 727.671 -1.03911 -3.82124 0
M  V30 7758 H 728.845 -3.69252 -2.75663 0
M  V30 7759 H 727.16 -3.23968 -2.61598 0
M  V30 7760 H 729.757 -1.84106 -5.02005 0
M  V30 7761 H 730.1 -0.367989 -4.1467 0
M  V30 7762 H 730.633 -1.92984 -3.47853 0
M  V30 7763 H 727.372 -4.73644 -4.53147 0
M  V30 7764 H 726.892 -3.12746 -5.11811 0
M  V30 7765 H 728.571 -3.68793 -5.31602 0
M  V30 7766 N 728.703 1.26451 -0.940633 0
M  V30 7767 C 729.931 1.97868 -0.604642 0
M  V30 7768 C 730.346 1.70051 0.820251 0
M  V30 7769 O 729.703 0.96843 1.54686 0
M  V30 7770 C 729.754 3.51684 -0.836689 0
M  V30 7771 O 729.475 3.78533 -2.20554 0
M  V30 7772 C 730.976 4.40343 -0.511169 0
M  V30 7773 H 728.196 0.631105 -0.227919 0
M  V30 7774 H 730.74 1.60979 -1.26119 0
M  V30 7775 H 728.895 3.86736 -0.226759 0
M  V30 7776 H 729.309 4.73065 -2.26517 0
M  V30 7777 H 730.783 5.47229 -0.724157 0
M  V30 7778 H 731.26 4.35694 0.553815 0
M  V30 7779 H 731.866 4.10834 -1.0998 0
M  V30 7780 N 730.181 0.707592 1.40822 0
M  V30 7781 C 731.111 0.0644925 2.33411 0
M  V30 7782 C 732.092 -0.754205 1.52466 0
M  V30 7783 O 733.277 -0.704749 1.80961 0
M  V30 7784 C 730.407 -0.863865 3.36385 0
M  V30 7785 C 729.361 -0.15138 4.27732 0
M  V30 7786 C 728.687 -1.19491 5.21177 0
M  V30 7787 C 729.987 0.989607 5.12839 0
M  V30 7788 H 731.681 0.837829 2.87438 0
M  V30 7789 H 729.227 0.404346 1.38207 0
M  V30 7790 H 731.18 -1.32309 4.0009 0
M  V30 7791 H 729.904 -1.66901 2.80734 0
M  V30 7792 H 728.563 0.287937 3.65467 0
M  V30 7793 H 728.211 -1.9929 4.61836 0
M  V30 7794 H 727.911 -0.723123 5.83134 0
M  V30 7795 H 729.435 -1.6544 5.8776 0
M  V30 7796 H 730.849 0.610114 5.70044 0
M  V30 7797 H 729.246 1.38926 5.83798 0
M  V30 7798 H 730.316 1.82389 4.49291 0
M  V30 7799 N 731.66 -1.50943 0.453197 0
M  V30 7800 C 732.937 -1.94872 -0.168633 0
M  V30 7801 C 733.317 -1.39272 -1.5864 0
M  V30 7802 O 732.665 -0.586272 -2.20851 0
M  V30 7803 C 732.875 -3.48757 -0.130217 0
M  V30 7804 C 734.223 -4.23331 -0.327975 0
M  V30 7805 O 735.247 -3.55594 -0.207619 0
M  V30 7806 O 734.106 -5.43529 -0.569077 0
M  V30 7807 H 731.2 -0.818042 -0.121394 0
M  V30 7808 H 733.746 -1.61782 0.512316 0
M  V30 7809 H 732.518 -3.81725 0.860346 0
M  V30 7810 H 732.141 -3.88333 -0.853397 0
M  V30 7811 N 733.138 -0.185124 -1.56509 0
M  V30 7812 C 734.366 0.462139 -2.01673 0
M  V30 7813 C 734.781 1.55873 -1.06532 0
M  V30 7814 O 734.138 1.82371 -0.0684805 0
M  V30 7815 C 734.189 1.0277 -3.46584 0
M  V30 7816 O 733.91 -0.0251296 -4.38093 0
M  V30 7817 C 735.411 1.75183 -4.07217 0
M  V30 7818 H 732.631 0.117001 -0.660721 0
M  V30 7819 H 735.175 -0.290905 -2.0242 0
M  V30 7820 H 733.33 1.73118 -3.46568 0
M  V30 7821 H 733.744 0.394387 -5.23015 0
M  V30 7822 H 735.218 2.09999 -5.10494 0
M  V30 7823 H 735.695 2.6519 -3.50101 0
M  V30 7824 H 736.301 1.09445 -4.10977 0
M  V30 7825 N 734.616 1.57351 0.0885366 0
M  V30 7826 C 735.844 1.90631 0.804196 0
M  V30 7827 C 736.259 0.779474 1.71958 0
M  V30 7828 O 735.616 -0.248179 1.80805 0
M  V30 7829 C 735.667 3.23568 1.61202 0
M  V30 7830 O 735.388 4.31917 0.733447 0
M  V30 7831 C 736.889 3.70753 2.43016 0
M  V30 7832 H 734.109 0.630501 0.229585 0
M  V30 7833 H 736.653 2.044 0.0638092 0
M  V30 7834 H 734.808 3.11377 2.30485 0
M  V30 7835 H 735.222 5.08297 1.29361 0
M  V30 7836 H 736.696 4.66447 2.9518 0
M  V30 7837 H 737.173 2.98922 3.2178 0
M  V30 7838 H 737.779 3.85834 1.7892 0
M  V30 7839 N 736.094 -0.359525 1.53444 0
M  V30 7840 C 737.024 -1.44662 1.8329 0
M  V30 7841 C 738.005 -1.55617 0.68683 0
M  V30 7842 O 739.19 -1.70086 0.93725 0
M  V30 7843 C 736.32 -2.81923 2.02822 0
M  V30 7844 C 735.274 -2.85787 3.18606 0
M  V30 7845 C 734.6 -4.25781 3.23442 0
M  V30 7846 C 735.9 -2.52762 4.57065 0
M  V30 7847 H 737.594 -1.19934 2.74329 0
M  V30 7848 H 735.14 -0.575517 1.31999 0
M  V30 7849 H 737.093 -3.58005 2.22285 0
M  V30 7850 H 735.817 -3.08051 1.085 0
M  V30 7851 H 734.476 -2.12157 2.98973 0
M  V30 7852 H 734.124 -4.48994 2.26745 0
M  V30 7853 H 733.824 -4.29281 4.01238 0
M  V30 7854 H 735.348 -5.03727 3.45096 0
M  V30 7855 H 736.762 -3.18557 4.76649 0
M  V30 7856 H 735.159 -2.67569 5.37147 0
M  V30 7857 H 736.229 -1.47993 4.61764 0
M  V30 7858 N 737.572 -1.44907 -0.619662 0
M  V30 7859 C 738.797 -1.52021 -1.41083 0
M  V30 7860 C 739.222 -0.14976 -1.87503 0
M  V30 7861 O 738.58 0.863303 -1.59426 0
M  V30 7862 C 738.628 -2.49911 -2.59955 0
M  V30 7863 O 737.732 -2.00857 -3.60181 0
M  V30 7864 H 737.073 -0.512912 -0.421684 0
M  V30 7865 H 739.603 -1.90149 -0.755282 0
M  V30 7866 H 739.613 -2.68323 -3.07354 0
M  V30 7867 H 738.288 -3.4945 -2.25516 0
M  V30 7868 H 736.865 -1.92265 -3.19513 0
M  V30 7869 N 739.05 0.861098 -1.31996 0
M  V30 7870 C 740.013 1.95068 -1.20338 0
M  V30 7871 C 741.013 1.60289 -0.128114 0
M  V30 7872 O 742.203 1.70048 -0.378044 0
M  V30 7873 C 739.335 3.30153 -0.849205 0
M  V30 7874 H 740.528 2.06833 -2.17164 0
M  V30 7875 H 738.081 1.05049 -1.15734 0
M  V30 7876 H 738.816 3.24087 0.117508 0
M  V30 7877 H 738.601 3.56771 -1.62655 0
M  V30 7878 H 740.091 4.10025 -0.791782 0
M  V30 7879 N 740.528 1.15101 1.07655 0
M  V30 7880 C 741.756 0.947731 1.83918 0
M  V30 7881 C 742.171 -0.503927 1.81951 0
M  V30 7882 O 741.528 -1.34941 1.2287 0
M  V30 7883 C 741.579 1.4503 3.31132 0
M  V30 7884 O 741.3 2.84508 3.33146 0
M  V30 7885 C 742.801 1.28806 4.24174 0
M  V30 7886 H 740.021 0.336786 0.580358 0
M  V30 7887 H 742.565 1.52799 1.35914 0
M  V30 7888 H 740.72 0.912632 3.76497 0
M  V30 7889 H 741.134 3.0723 4.251 0
M  V30 7890 H 742.608 1.6882 5.25551 0
M  V30 7891 H 743.085 0.231851 4.38588 0
M  V30 7892 H 743.691 1.81465 3.84643 0
M  V30 7893 N 742.006 -1.2595 0.947325 0
M  V30 7894 C 742.916 -2.29883 0.468079 0
M  V30 7895 C 743.932 -1.67783 -0.460975 0
M  V30 7896 O 745.108 -1.98526 -0.339006 0
M  V30 7897 C 742.173 -3.45773 -0.253315 0
M  V30 7898 C 741.234 -4.23337 0.713054 0
M  V30 7899 C 740.467 -5.33694 0.025993 0
M  V30 7900 O 740.69 -5.57853 -1.18978 0
M  V30 7901 O 739.624 -5.97724 0.70782 0
M  V30 7902 H 743.45 -2.72952 1.33156 0
M  V30 7903 H 741.035 -1.31263 0.713468 0
M  V30 7904 H 742.917 -4.16209 -0.659423 0
M  V30 7905 H 741.592 -3.04721 -1.09209 0
M  V30 7906 H 740.499 -3.55359 1.16923 0
M  V30 7907 H 741.832 -4.68154 1.51963 0
M  V30 7908 N 743.484 -0.715051 -1.40445 0
M  V30 7909 C 744.712 -0.263959 -2.05209 0
M  V30 7910 C 745.127 1.09403 -1.53871 0
M  V30 7911 O 744.484 1.68746 -0.695064 0
M  V30 7912 C 744.535 -0.234545 -3.60738 0
M  V30 7913 O 744.256 -1.53891 -4.10182 0
M  V30 7914 C 745.757 0.235164 -4.42676 0
M  V30 7915 H 742.977 -0.11876 -0.660407 0
M  V30 7916 H 745.521 -0.973107 -1.79864 0
M  V30 7917 H 743.676 0.425563 -3.85055 0
M  V30 7918 H 744.09 -1.43903 -5.04373 0
M  V30 7919 H 745.564 0.204598 -5.51621 0
M  V30 7920 H 746.041 1.27724 -4.20218 0
M  V30 7921 H 746.647 -0.394649 -4.23465 0
M  V30 7922 N 744.962 1.50701 -0.461195 0
M  V30 7923 C 746.19 2.06681 0.0951756 0
M  V30 7924 C 746.605 1.32615 1.34382 0
M  V30 7925 O 745.962 0.392531 1.78229 0
M  V30 7926 C 746.013 3.59354 0.393316 0
M  V30 7927 O 745.734 4.30626 -0.805797 0
M  V30 7928 C 747.235 4.31926 0.997744 0
M  V30 7929 H 744.455 0.670995 -0.00267259 0
M  V30 7930 H 746.999 1.93991 -0.647137 0
M  V30 7931 H 745.154 3.7188 1.08555 0
M  V30 7932 H 745.568 5.21667 -0.544409 0
M  V30 7933 H 747.042 5.39756 1.15619 0
M  V30 7934 H 747.519 3.91772 1.98523 0
M  V30 7935 H 748.125 4.23905 0.344188 0
M  V30 7936 N 746.441 0.193421 1.56409 0
M  V30 7937 C 747.688 -0.445789 1.97532 0
M  V30 7938 C 748.016 -1.61744 1.08024 0
M  V30 7939 O 747.271 -1.95338 0.118982 0
M  V30 7940 C 747.57 -0.949718 3.44551 0
M  V30 7941 C 747.236 0.108383 4.5077 0
M  V30 7942 C 745.898 0.399126 4.79542 0
M  V30 7943 C 748.25 0.825423 5.14622 0
M  V30 7944 C 745.578 1.41192 5.69457 0
M  V30 7945 C 747.93 1.82735 6.05632 0
M  V30 7946 C 746.594 2.12531 6.32761 0
M  V30 7947 H 745.864 -0.163126 0.722822 0
M  V30 7948 H 748.511 0.290035 1.89291 0
M  V30 7949 H 746.816 -1.76378 3.49854 0
M  V30 7950 H 748.513 -1.45367 3.73724 0
M  V30 7951 H 745.103 -0.128392 4.28408 0
M  V30 7952 H 749.287 0.61403 4.92487 0
M  V30 7953 H 744.543 1.6487 5.88751 0
M  V30 7954 H 748.717 2.3882 6.5417 0
M  V30 7955 H 746.344 2.91155 7.02234 0
M  V30 7956 N 747.919 -1.57396 -0.0801906 0
M  V30 7957 C 748.829 -2.06451 -1.11423 0
M  V30 7958 C 749.845 -0.992352 -1.42928 0
M  V30 7959 O 751.021 -1.30651 -1.53272 0
M  V30 7960 C 748.086 -2.49164 -2.41077 0
M  V30 7961 C 747.147 -3.70641 -2.16619 0
M  V30 7962 C 746.38 -4.11307 -3.40092 0
M  V30 7963 O 746.603 -3.51922 -4.48895 0
M  V30 7964 O 745.537 -5.04157 -3.288 0
M  V30 7965 H 749.363 -2.94857 -0.727519 0
M  V30 7966 H 746.948 -1.46484 -0.293743 0
M  V30 7967 H 748.83 -2.77196 -3.17396 0
M  V30 7968 H 747.505 -1.6389 -2.79145 0
M  V30 7969 H 746.412 -3.47703 -1.38033 0
M  V30 7970 H 747.745 -4.5674 -1.83437 0
M  V30 7971 N 749.397 0.351382 -1.53633 0
M  V30 7972 C 750.627 1.11113 -1.74176 0
M  V30 7973 C 751.035 1.83084 -0.477154 0
M  V30 7974 O 750.378 1.74941 0.560483 0
M  V30 7975 C 750.44 2.17521 -2.86225 0
M  V30 7976 C 750.104 1.65193 -4.26099 0
M  V30 7977 C 751.101 1.10842 -5.07947 0
M  V30 7978 C 748.786 1.70277 -4.72558 0
M  V30 7979 C 750.78 0.622689 -6.34351 0
M  V30 7980 C 748.467 1.21316 -5.98937 0
M  V30 7981 C 749.465 0.674033 -6.79666 0
M  V30 7982 O 749.153 0.191696 -8.03671 0
M  V30 7983 H 748.885 0.33756 -0.585687 0
M  V30 7984 H 751.439 0.411786 -2.0123 0
M  V30 7985 H 749.669 2.90991 -2.54678 0
M  V30 7986 H 751.358 2.78999 -2.94812 0
M  V30 7987 H 752.124 1.06243 -4.7322 0
M  V30 7988 H 748.003 2.11181 -4.09785 0
M  V30 7989 H 751.547 0.201216 -6.9731 0
M  V30 7990 H 747.444 1.25613 -6.3316 0
M  V30 7991 H 748.212 0.309712 -8.17914 0
M  V30 7992 O 750.914 1.53651 0.497361 0
M  V30 7993 H 751.605 1.55706 1.15218 0
M  V30 END ATOM
M  V30 BEGIN BOND
M  V30 END BOND
M  V30 END CTAB
M  END
$$$$
