drugbank_target|Q86WA6 Valacyclovir hydrolase (DB03380)
 OpenBabel12092120523D

  0  0  0     0  0            999 V3000
M  V30 BEGIN CTAB
M  V30 COUNTS 4606 4669 0 0 0
M  V30 BEGIN ATOM
M  V30 1 H -0.908 1.98254 -0.117106 0
M  V30 2 N 0 1.576 0 0
M  V30 3 C 0.933 2.03868 1.02534 0
M  V30 4 C 1.911 0.928543 1.3348 0
M  V30 5 O 3.095 1.19667 1.45644 0
M  V30 6 C 0.222 2.43627 2.35294 0
M  V30 7 C -0.732 3.65373 2.2001 0
M  V30 8 S 0.101 5.13292 1.52614 0
M  V30 9 C 1.257 5.56322 2.86805 0
M  V30 10 H 1.49 2.90518 0.631377 0
M  V30 11 H -0.977 1.52953 0.210867 0
M  V30 12 H 0.981 2.67203 3.11629 0
M  V30 13 H -0.358 1.57376 2.7183 0
M  V30 14 H -1.165 3.90944 3.18086 0
M  V30 15 H -1.563 3.418 1.51819 0
M  V30 16 H 0.729 5.58782 3.83104 0
M  V30 17 H 1.672 6.56266 2.65933 0
M  V30 18 H 2.08 4.83886 2.90714 0
M  V30 19 N 1.4781 -0.272755 1.55222 0
M  V30 20 C 2.7241 -1.00581 1.761 0
M  V30 21 C 3.0571 -1.85932 0.560625 0
M  V30 22 O 2.3321 -1.89416 -0.441801 0
M  V30 23 C 2.6151 -1.88816 3.06628 0
M  V30 24 C 2.4681 -1.06457 4.37021 0
M  V30 25 C 3.7871 -2.8752 3.33197 0
M  V30 26 H 0.9061 -0.364244 0.640699 0
M  V30 27 H 3.5481 -0.278189 1.87952 0
M  V30 28 H 1.6981 -2.50856 2.96654 0
M  V30 29 H 3.3701 -0.464863 4.58952 0
M  V30 30 H 1.6131 -0.368043 4.32236 0
M  V30 31 H 2.2841 -1.71514 5.24678 0
M  V30 32 H 4.7601 -2.35615 3.42965 0
M  V30 33 H 3.6361 -3.46399 4.25792 0
M  V30 34 H 3.8971 -3.62657 2.52849 0
M  V30 35 N 2.9562 -1.48159 -0.537278 0
M  V30 36 C 3.9192 -1.61665 -1.62472 0
M  V30 37 C 4.9192 -0.490395 -1.5314 0
M  V30 38 O 6.1092 -0.755998 -1.5694 0
M  V30 39 C 3.2412 -1.57997 -3.02076 0
M  V30 40 H 4.4342 -2.58621 -1.51839 0
M  V30 41 H 1.9872 -1.36647 -0.758771 0
M  V30 42 H 2.7222 -0.624913 -3.18222 0
M  V30 43 H 2.5072 -2.39755 -3.10258 0
M  V30 44 H 3.9972 -1.70627 -3.81151 0
M  V30 45 N 4.4343 0.785586 -1.36625 0
M  V30 46 C 5.6803 1.54591 -1.31261 0
M  V30 47 C 6.0133 1.93906 0.106823 0
M  V30 48 O 5.2883 1.63007 1.06108 0
M  V30 49 C 5.5713 2.82038 -2.23889 0
M  V30 50 C 5.4243 2.49066 -3.74548 0
M  V30 51 C 6.7433 3.83887 -2.15217 0
M  V30 52 H 3.8623 0.560846 -0.478143 0
M  V30 53 H 6.5043 0.902278 -1.67209 0
M  V30 54 H 4.6543 3.36961 -1.93363 0
M  V30 55 H 6.3263 2.00164 -4.15611 0
M  V30 56 H 4.5693 1.81954 -3.93796 0
M  V30 57 H 5.2403 3.40109 -4.34776 0
M  V30 58 H 7.7163 3.38421 -2.42096 0
M  V30 59 H 6.5923 4.70806 -2.82193 0
M  V30 60 H 6.8533 4.27131 -1.14068 0
M  V30 61 N 5.9124 1.20967 1.01018 0
M  V30 62 C 6.8424 0.988272 2.11555 0
M  V30 63 C 7.8234 -0.0849778 1.69888 0
M  V30 64 O 9.0084 0.0738202 1.9406 0
M  V30 65 C 6.1384 0.546528 3.42973 0
M  V30 66 C 5.0924 1.56375 3.9841 0
M  V30 67 C 4.4184 0.97842 5.25672 0
M  V30 68 C 5.7184 2.94922 4.31066 0
M  V30 69 H 7.4124 1.91276 2.30334 0
M  V30 70 H 4.9584 0.921073 1.1069 0
M  V30 71 H 6.9114 0.378839 4.19694 0
M  V30 72 H 5.6354 -0.413598 3.23971 0
M  V30 73 H 4.2944 1.71891 3.23804 0
M  V30 74 H 3.9424 0.0101688 5.02999 0
M  V30 75 H 3.6424 1.65784 5.63728 0
M  V30 76 H 5.1664 0.821939 6.05043 0
M  V30 77 H 6.5804 2.8288 4.9865 0
M  V30 78 H 4.9774 3.5983 4.80253 0
M  V30 79 H 6.0474 3.4616 3.39561 0
M  V30 80 N 7.3905 -1.2043 1.01659 0
M  V30 81 C 8.6385 -1.89423 0.704522 0
M  V30 82 C 8.9595 -1.79231 -0.768197 0
M  V30 83 O 8.2295 -1.1947 -1.55254 0
M  V30 84 H 6.8095 -0.701178 0.257602 0
M  V30 85 H 9.4715 -1.4626 1.28818 0
M  V30 86 H 8.5675 -2.96052 0.987916 0
M  V30 87 N 8.8686 -0.792821 -1.36206 0
M  V30 88 C 10.1166 -0.366062 -1.98757 0
M  V30 89 C 10.4376 1.0668 -1.63231 0
M  V30 90 O 9.7076 1.73587 -0.907978 0
M  V30 91 H 8.2876 -0.132364 -0.735179 0
M  V30 92 H 10.9496 -1.01562 -1.66347 0
M  V30 93 H 10.0456 -0.460638 -3.08682 0
M  V30 94 N 10.3467 1.47872 -0.545128 0
M  V30 95 C 11.7627 1.5829 -0.204032 0
M  V30 96 C 11.9627 1.54529 1.29317 0
M  V30 97 O 11.0187 1.44232 2.07252 0
M  V30 98 C 12.3317 2.89304 -0.819987 0
M  V30 99 C 13.8797 3.02864 -0.790105 0
M  V30 100 C 14.3547 4.3656 -1.38491 0
M  V30 101 N 15.8457 4.43165 -1.34755 0
M  V30 102 C 16.5807 5.45153 -1.77753 0
M  V30 103 N 16.0767 6.54016 -2.2855 0
M  V30 104 N 17.8697 5.36125 -1.68897 0
M  V30 105 H 10.0207 1.4856 -1.51802 0
M  V30 106 H 12.2837 0.706305 -0.632327 0
M  V30 107 H 11.9897 2.97757 -1.87173 0
M  V30 108 H 11.8637 3.75957 -0.305915 0
M  V30 109 H 14.2507 2.94014 0.252913 0
M  V30 110 H 14.3317 2.17782 -1.34181 0
M  V30 111 H 13.9757 4.46164 -2.42693 0
M  V30 112 H 13.9057 5.20353 -0.808754 0
M  V30 113 H 16.3967 3.65083 -0.975855 0
M  V30 114 H 16.7097 7.27994 -2.59314 0
M  V30 115 H 15.0547 6.54938 -2.32553 0
M  V30 116 H 18.2457 4.49975 -1.28998 0
M  V30 117 H 18.4187 6.15472 -2.02726 0
M  V30 118 N 11.8248 0.280983 1.55075 0
M  V30 119 C 13.0728 -0.333455 1.9933 0
M  V30 120 C 13.3938 -1.55937 1.17085 0
M  V30 121 O 12.6638 -1.94143 0.261805 0
M  V30 122 H 11.2438 -0.126197 0.736263 0
M  V30 123 H 13.9058 0.387678 1.91005 0
M  V30 124 H 13.0018 -0.619292 3.05894 0
M  V30 125 N 13.3029 -1.57598 0.00835791 0
M  V30 126 C 14.5489 -1.91211 -0.675732 0
M  V30 127 C 14.8819 -0.883139 -1.72958 0
M  V30 128 O 14.1569 0.097016 -1.94258 0
M  V30 129 C 14.4399 -3.35379 -1.31123 0
M  V30 130 C 14.2929 -4.48999 -0.268356 0
M  V30 131 C 15.6119 -3.7912 -2.23508 0
M  V30 132 H 12.7309 -0.695374 -0.244179 0
M  V30 133 H 15.3729 -1.89901 0.0613655 0
M  V30 134 H 13.5229 -3.36626 -1.93946 0
M  V30 135 H 15.1949 -4.59887 0.360844 0
M  V30 136 H 13.4379 -4.31873 0.408482 0
M  V30 137 H 14.1089 -5.46851 -0.752218 0
M  V30 138 H 16.5849 -3.79477 -1.70693 0
M  V30 139 H 15.4609 -4.80729 -2.64936 0
M  V30 140 H 15.7219 -3.13455 -3.11766 0
M  V30 141 N 14.781 0.264519 -1.55364 0
M  V30 142 C 15.711 1.33121 -1.91836 0
M  V30 143 C 16.692 1.51101 -0.781192 0
M  V30 144 O 17.877 1.64003 -1.04003 0
M  V30 145 C 15.007 2.68921 -2.19769 0
M  V30 146 C 13.961 2.65661 -3.35571 0
M  V30 147 C 13.287 4.05093 -3.49004 0
M  V30 148 C 14.587 2.24187 -4.71739 0
M  V30 149 H 16.281 1.02844 -2.81182 0
M  V30 150 H 13.827 0.493286 -1.35287 0
M  V30 151 H 15.78 3.43663 -2.43872 0
M  V30 152 H 14.504 3.00799 -1.27231 0
M  V30 153 H 13.163 1.93377 -3.1145 0
M  V30 154 H 12.811 4.34206 -2.53917 0
M  V30 155 H 12.511 4.03804 -4.26868 0
M  V30 156 H 14.035 4.81561 -3.75408 0
M  V30 157 H 15.449 2.88654 -4.9533 0
M  V30 158 H 13.846 2.34044 -5.52579 0
M  V30 159 H 14.916 1.19327 -4.69988 0
M  V30 160 N 16.2591 1.48442 0.529413 0
M  V30 161 C 17.6751 1.34575 0.858004 0
M  V30 162 C 17.8751 0.3572 1.98309 0
M  V30 163 O 16.9311 -0.221379 2.51528 0
M  V30 164 C 18.2441 2.74617 1.22499 0
M  V30 165 C 19.7921 2.83109 1.33484 0
M  V30 166 C 20.2671 4.23854 1.73526 0
M  V30 167 N 21.7581 4.2653 1.80628 0
M  V30 168 C 22.4931 5.32372 2.12997 0
M  V30 169 N 21.9891 6.48491 2.43786 0
M  V30 170 N 23.7821 5.19766 2.14008 0
M  V30 171 H 15.9331 2.1133 -0.212925 0
M  V30 172 H 18.1961 0.947439 -0.0326199 0
M  V30 173 H 17.9021 3.4852 0.471905 0
M  V30 174 H 17.7761 3.08177 2.17501 0
M  V30 175 H 20.1631 2.09462 2.0787 0
M  V30 176 H 20.2441 2.53168 0.366027 0
M  V30 177 H 19.8881 4.98018 0.997013 0
M  V30 178 H 19.8181 4.5124 2.71459 0
M  V30 179 H 22.3091 3.42772 1.59108 0
M  V30 180 H 22.6221 7.24993 2.67592 0
M  V30 181 H 20.9671 6.51765 2.41304 0
M  V30 182 H 24.1581 4.28066 1.89412 0
M  V30 183 H 24.3311 6.02354 2.38902 0
M  V30 184 N 17.7372 -0.778329 1.37039 0
M  V30 185 C 18.6672 -1.90546 1.34962 0
M  V30 186 C 19.6482 -1.68681 0.219274 0
M  V30 187 O 20.8332 -1.89634 0.418624 0
M  V30 188 C 17.9632 -3.27734 1.14925 0
M  V30 189 C 16.9172 -3.64147 2.24902 0
M  V30 190 C 16.2432 -4.99806 1.89996 0
M  V30 191 C 17.5432 -3.71579 3.67051 0
M  V30 192 H 19.2372 -1.92541 2.29277 0
M  V30 193 H 16.7832 -0.924948 1.10366 0
M  V30 194 H 18.7362 -4.06215 1.12104 0
M  V30 195 H 17.4602 -3.26154 0.170631 0
M  V30 196 H 16.1192 -2.8797 2.26868 0
M  V30 197 H 15.7672 -4.94759 0.906796 0
M  V30 198 H 15.4672 -5.25139 2.63634 0
M  V30 199 H 16.9912 -5.80694 1.88749 0
M  V30 200 H 18.4052 -4.40227 3.67251 0
M  V30 201 H 16.8022 -4.08405 4.39688 0
M  V30 202 H 17.8722 -2.72404 4.01154 0
M  V30 203 N 19.2153 -1.21501 -1.00376 0
M  V30 204 C 20.6313 -0.972629 -1.26539 0
M  V30 205 C 20.8313 0.340257 -1.98606 0
M  V30 206 O 19.8873 1.06561 -2.28913 0
M  V30 207 C 21.2003 -2.16404 -2.08781 0
M  V30 208 C 22.7483 -2.20643 -2.22004 0
M  V30 209 C 23.2233 -3.39306 -3.07629 0
M  V30 210 N 24.7143 -3.39401 -3.15217 0
M  V30 211 C 25.4493 -4.27867 -3.81729 0
M  V30 212 N 24.9453 -5.26533 -4.5026 0
M  V30 213 N 26.7383 -4.15672 -3.78382 0
M  V30 214 H 18.8893 -2.05929 -0.520281 0
M  V30 215 H 21.1523 -0.901803 -0.292328 0
M  V30 216 H 20.8583 -3.11554 -1.63178 0
M  V30 217 H 20.7323 -2.15567 -3.09533 0
M  V30 218 H 23.1193 -1.26048 -2.66825 0
M  V30 219 H 23.2003 -2.25523 -1.20718 0
M  V30 220 H 22.8443 -4.34195 -2.63509 0
M  V30 221 H 22.7743 -3.31665 -4.09031 0
M  V30 222 H 25.2653 -2.67997 -2.66432 0
M  V30 223 H 25.5783 -5.90337 -4.98721 0
M  V30 224 H 23.9233 -5.30457 -4.49044 0
M  V30 225 H 27.1143 -3.3785 -3.23998 0
M  V30 226 H 27.2873 -4.84825 -4.2994 0
M  V30 227 N 20.6934 1.19889 -1.02296 0
M  V30 228 C 21.6234 2.25141 -0.619174 0
M  V30 229 C 22.6044 1.66051 0.368915 0
M  V30 230 O 23.7894 1.92546 0.252941 0
M  V30 231 C 20.9194 3.4728 0.0368783 0
M  V30 232 C 19.8734 4.19005 -0.872865 0
M  V30 233 C 19.1994 5.34637 -0.0822402 0
M  V30 234 C 20.4994 4.74452 -2.18387 0
M  V30 235 H 22.1934 2.59171 -1.49903 0
M  V30 236 H 19.7394 1.24579 -0.722222 0
M  V30 237 H 21.6924 4.20098 0.330958 0
M  V30 238 H 20.4164 3.12433 0.95149 0
M  V30 239 H 19.0754 3.48061 -1.15105 0
M  V30 240 H 18.7234 4.96034 0.83422 0
M  V30 241 H 18.4234 5.83557 -0.688149 0
M  V30 242 H 19.9474 6.10255 0.205238 0
M  V30 243 H 21.3614 5.39055 -1.95172 0
M  V30 244 H 19.7584 5.33834 -2.74119 0
M  V30 245 H 20.8284 3.92844 -2.84257 0
M  V30 246 N 22.1715 0.800033 1.35784 0
M  V30 247 C 23.1015 0.220184 2.3246 0
M  V30 248 C 24.0825 -0.65073 1.57161 0
M  V30 249 O 25.2675 -0.582359 1.85263 0
M  V30 250 C 22.3975 -0.637353 3.41402 0
M  V30 251 C 21.3515 0.134531 4.27789 0
M  V30 252 C 20.6775 -0.844285 5.27992 0
M  V30 253 C 21.9775 1.32979 5.05088 0
M  V30 254 H 23.6715 1.02787 2.81203 0
M  V30 255 H 21.2175 0.495717 1.35199 0
M  V30 256 H 23.1705 -1.05302 4.08031 0
M  V30 257 H 21.8945 -1.47785 2.91251 0
M  V30 258 H 20.5535 0.531296 3.6273 0
M  V30 259 H 20.2015 -1.68011 4.74111 0
M  V30 260 H 19.9015 -0.332184 5.8666 0
M  V30 261 H 21.4255 -1.2583 5.97494 0
M  V30 262 H 22.8395 0.98934 5.64699 0
M  V30 263 H 21.2365 1.77593 5.7322 0
M  V30 264 H 22.3065 2.11978 4.36111 0
M  V30 265 N 23.6496 -1.47581 0.552962 0
M  V30 266 C 24.5796 -2.32762 -0.185451 0
M  V30 267 C 25.5606 -1.43527 -0.912905 0
M  V30 268 O 26.7456 -1.72388 -0.894201 0
M  V30 269 C 23.8756 -3.25219 -1.21859 0
M  V30 270 C 22.8296 -4.23661 -0.607864 0
M  V30 271 C 22.1556 -5.05413 -1.74533 0
M  V30 272 C 23.4556 -5.20481 0.435582 0
M  V30 273 H 25.1496 -2.94749 0.525684 0
M  V30 274 H 22.6956 -1.41738 0.254251 0
M  V30 275 H 24.6486 -3.8365 -1.7433 0
M  V30 276 H 23.3726 -2.61279 -1.95961 0
M  V30 277 H 22.0316 -3.66451 -0.104489 0
M  V30 278 H 21.6796 -4.3788 -2.47529 0
M  V30 279 H 21.3796 -5.72059 -1.34249 0
M  V30 280 H 22.9036 -5.66701 -2.27338 0
M  V30 281 H 24.3176 -5.733 -0.00290157 0
M  V30 282 H 22.7146 -5.95305 0.757067 0
M  V30 283 H 23.7846 -4.66217 1.33303 0
M  V30 284 N 25.1277 -0.289203 -1.54924 0
M  V30 285 C 26.3527 0.329299 -2.04769 0
M  V30 286 C 26.7777 1.4763 -1.16564 0
M  V30 287 O 26.1357 1.80527 -0.167186 0
M  V30 288 C 26.1837 0.774438 -3.52186 0
M  V30 289 O 25.2877 1.88038 -3.67036 0
M  V30 290 H 24.6287 0.0659259 -0.660719 0
M  V30 291 H 27.1587 -0.42761 -2.00082 0
M  V30 292 H 27.1687 1.06642 -3.93816 0
M  V30 293 H 25.8437 -0.0646707 -4.1585 0
M  V30 294 H 24.4207 1.58985 -3.3731 0
M  V30 295 N 26.6058 1.57591 -0.0167156 0
M  V30 296 C 27.5688 2.08393 0.954204 0
M  V30 297 C 28.5688 0.996531 1.26198 0
M  V30 298 O 29.7588 1.25858 1.20438 0
M  V30 299 C 26.8908 2.5394 2.27436 0
M  V30 300 H 28.0838 2.95455 0.514451 0
M  V30 301 H 25.6368 1.54582 0.231089 0
M  V30 302 H 26.3718 1.70171 2.76066 0
M  V30 303 H 26.1568 3.33371 2.06412 0
M  V30 304 H 27.6468 2.93512 2.97053 0
M  V30 305 N 28.0839 -0.256276 1.55502 0
M  V30 306 C 29.0139 -1.32102 1.92539 0
M  V30 307 C 29.9949 -1.50684 0.789194 0
M  V30 308 O 31.1799 -1.63449 1.04872 0
M  V30 309 C 28.3099 -2.67752 2.21192 0
M  V30 310 C 27.2639 -2.63878 3.36975 0
M  V30 311 C 26.5899 -4.03236 3.51147 0
M  V30 312 C 27.8899 -2.21682 4.72921 0
M  V30 313 H 29.5839 -1.01351 2.81724 0
M  V30 314 H 27.1299 -0.486105 1.35547 0
M  V30 315 H 29.0829 -3.42365 2.45691 0
M  V30 316 H 27.8069 -3.0012 1.28824 0
M  V30 317 H 26.4659 -1.91722 3.12471 0
M  V30 318 H 26.1139 -4.32854 2.56216 0
M  V30 319 H 25.8139 -4.01535 4.29003 0
M  V30 320 H 27.3379 -4.79563 3.77957 0
M  V30 321 H 28.7519 -2.86023 4.96854 0
M  V30 322 H 27.1489 -2.3111 5.53812 0
M  V30 323 H 28.2189 -1.16833 4.70615 0
M  V30 324 N 29.562 -1.4872 -0.521534 0
M  V30 325 C 30.509 -1.63871 -1.62527 0
M  V30 326 C 31.479 -0.480559 -1.58996 0
M  V30 327 O 32.664 -0.705085 -1.77294 0
M  V30 328 C 29.804 -1.69227 -3.00759 0
M  V30 329 C 28.917 -2.96207 -3.14461 0
M  V30 330 C 28.052 -2.92671 -4.43303 0
M  V30 331 C 27.091 -4.14318 -4.50563 0
M  V30 332 N 26.228 -4.0881 -5.70805 0
M  V30 333 H 31.068 -2.58123 -1.48918 0
M  V30 334 H 28.605 -1.28 -0.724878 0
M  V30 335 H 30.563 -1.70314 -3.80853 0
M  V30 336 H 29.193 -0.784586 -3.1312 0
M  V30 337 H 28.245 -3.04826 -2.27564 0
M  V30 338 H 29.557 -3.86192 -3.15686 0
M  V30 339 H 28.711 -2.92206 -5.31696 0
M  V30 340 H 27.45 -2.00429 -4.44612 0
M  V30 341 H 26.455 -4.15049 -3.60575 0
M  V30 342 H 27.68 -5.07729 -4.50986 0
M  V30 343 H 25.626 -3.19394 -5.72995 0
M  V30 344 H 25.543 -4.92509 -5.7356 0
M  V30 345 H 26.811 -4.12418 -6.61462 0
M  V30 346 N 31.0401 0.771051 -1.3745 0
M  V30 347 C 32.4511 1.34737 -1.29239 0
M  V30 348 C 32.8021 1.96109 0.0596908 0
M  V30 349 O 31.9271 1.93865 0.961534 0
M  V30 350 C 32.5221 2.44973 -2.34037 0
M  V30 351 C 31.0811 2.98372 -2.29458 0
M  V30 352 C 30.2281 1.71595 -2.17831 0
M  V30 353 H 33.1791 0.571256 -1.48062 0
M  V30 354 H 33.2001 3.24471 -1.98744 0
M  V30 355 H 32.7121 2.00276 -3.32432 0
M  V30 356 H 30.8131 3.47443 -1.34589 0
M  V30 357 H 30.9261 3.53939 -3.229 0
M  V30 358 H 29.2901 1.94547 -1.64388 0
M  V30 359 H 30.0731 1.29001 -3.18141 0
M  V30 360 N 32.5182 1.22032 0.997298 0
M  V30 361 C 33.7662 1.04016 1.73278 0
M  V30 362 C 34.0872 -0.426255 1.90284 0
M  V30 363 O 33.3572 -1.30694 1.45931 0
M  V30 364 H 31.9372 0.381897 0.642 0
M  V30 365 H 34.5992 1.5347 1.20137 0
M  V30 366 H 33.6952 1.51441 2.72896 0
M  V30 367 N 33.9963 -1.19345 1.0293 0
M  V30 368 C 35.2453 -1.88363 0.721256 0
M  V30 369 C 35.5583 -1.80514 -0.753254 0
M  V30 370 O 36.7643 -2.44788 -1.17436 0
M  V30 371 C 35.2203 -3.37872 1.23978 0
M  V30 372 C 34.8283 -3.54278 2.74211 0
M  V30 373 C 36.5723 -4.12365 1.00775 0
M  V30 374 C 34.4793 -4.97682 3.19479 0
M  V30 375 H 33.4093 -0.705484 0.266098 0
M  V30 376 H 36.0603 -1.34928 1.24365 0
M  V30 377 H 34.4423 -3.90707 0.6453 0
M  V30 378 H 35.6163 -3.11769 3.39318 0
M  V30 379 H 33.9313 -2.93174 2.95699 0
M  V30 380 H 36.5283 -5.18119 1.32123 0
M  V30 381 H 36.8713 -4.16263 -0.0554308 0
M  V30 382 H 37.4043 -3.65668 1.56625 0
M  V30 383 H 34.1433 -4.98945 4.25128 0
M  V30 384 H 33.6633 -5.4095 2.591 0
M  V30 385 H 35.3423 -5.66337 3.12845 0
M  V30 386 N 35.4744 -0.807222 -1.35358 0
M  V30 387 C 36.4244 -0.190706 -2.27201 0
M  V30 388 C 37.4084 0.635838 -1.47804 0
M  V30 389 O 38.6004 0.492991 -1.69996 0
M  V30 390 C 35.7294 0.659337 -3.36909 0
M  V30 391 C 34.8154 -0.176971 -4.23731 0
M  V30 392 N 35.2064 -1.24029 -4.90357 0
M  V30 393 C 33.5044 0.0412953 -4.45981 0
M  V30 394 C 34.2054 -1.75092 -5.54723 0
M  V30 395 N 33.1814 -1.05727 -5.33219 0
M  V30 396 H 36.9834 -1.0043 -2.76208 0
M  V30 397 H 34.4974 -0.648445 -1.48892 0
M  V30 398 H 36.4944 1.11706 -4.01656 0
M  V30 399 H 35.1544 1.47127 -2.89454 0
M  V30 400 H 36.1654 -1.62295 -4.91814 0
M  V30 401 H 32.8424 0.82232 -4.09322 0
M  V30 402 H 34.2324 -2.63963 -6.17878 0
M  V30 403 N 36.9525 1.47285 -0.560781 0
M  V30 404 C 38.1985 2.02764 -0.0381184 0
M  V30 405 C 38.5315 1.43384 1.30976 0
M  V30 406 O 37.8065 0.590733 1.85312 0
M  V30 407 C 38.0895 3.60064 0.0511427 0
M  V30 408 C 37.9425 4.2987 -1.32408 0
M  V30 409 C 39.2615 4.33439 0.762795 0
M  V30 410 H 36.3805 0.736841 -0.0153264 0
M  V30 411 H 39.0225 1.75675 -0.723759 0
M  V30 412 H 37.1725 3.83274 0.635065 0
M  V30 413 H 38.8445 4.17989 -1.95148 0
M  V30 414 H 37.0875 3.90085 -1.8978 0
M  V30 415 H 37.7585 5.38478 -1.21431 0
M  V30 416 H 40.2345 4.15243 0.266965 0
M  V30 417 H 39.1105 5.43124 0.794221 0
M  V30 418 H 39.3715 4.02915 1.81966 0
M  V30 419 N 38.4306 0.297415 1.54768 0
M  V30 420 C 39.8416 -0.195947 1.85669 0
M  V30 421 C 40.1926 -1.53707 1.21937 0
M  V30 422 O 39.3176 -2.10164 0.515754 0
M  V30 423 C 39.9126 -0.362318 3.36857 0
M  V30 424 C 38.4716 -0.799901 3.67802 0
M  V30 425 C 37.6186 0.0938578 2.77141 0
M  V30 426 H 40.5696 0.518538 1.4999 0
M  V30 427 H 40.5906 -1.19745 3.61167 0
M  V30 428 H 40.1026 0.613921 3.83214 0
M  V30 429 H 38.2036 -1.78682 3.26961 0
M  V30 430 H 38.3166 -0.621773 4.75048 0
M  V30 431 H 36.6806 -0.426254 2.51108 0
M  V30 432 H 37.4636 1.06639 3.26318 0
M  V30 433 N 39.9087 -1.5758 0.0250728 0
M  V30 434 C 41.3247 -1.56124 -0.331282 0
M  V30 435 C 41.5247 -1.03029 -1.73169 0
M  V30 436 O 40.5807 -0.675215 -2.43305 0
M  V30 437 C 41.8937 -3.00139 -0.183584 0
M  V30 438 C 43.4417 -3.11946 -0.256654 0
M  V30 439 C 43.9167 -4.57793 -0.137792 0
M  V30 440 N 45.4077 -4.6279 -0.194904 0
M  V30 441 C 46.1427 -5.7326 -0.126655 0
M  V30 442 N 45.6387 -6.928 -0.00755288 0
M  V30 443 N 47.4317 -5.61811 -0.180348 0
M  V30 444 H 39.5827 -1.90424 0.94087 0
M  V30 445 H 41.8457 -0.875761 0.362968 0
M  V30 446 H 41.5517 -3.4292 0.780927 0
M  V30 447 H 41.4257 -3.64899 -0.955448 0
M  V30 448 H 43.8127 -2.69079 -1.21162 0
M  V30 449 H 43.8937 -2.49915 0.545517 0
M  V30 450 H 43.5377 -5.01339 0.813739 0
M  V30 451 H 43.4677 -5.17798 -0.958775 0
M  V30 452 H 45.9587 -3.76807 -0.287267 0
M  V30 453 H 46.2717 -7.72791 0.0379428 0
M  V30 454 H 44.6167 -6.94995 0.0271731 0
M  V30 455 H 47.8077 -4.6731 -0.271767 0
M  V30 456 H 47.9807 -6.47882 -0.123697 0
M  V30 457 N 41.3868 0.248026 -1.55636 0
M  V30 458 C 42.3498 1.29044 -1.89421 0
M  V30 459 C 43.3498 1.41134 -0.770581 0
M  V30 460 O 44.5398 1.39854 -1.03858 0
M  V30 461 C 41.6718 2.66831 -2.12165 0
M  V30 462 H 42.8648 1.00305 -2.82629 0
M  V30 463 H 40.4178 0.487265 -1.48511 0
M  V30 464 H 41.1528 3.00711 -1.21422 0
M  V30 465 H 40.9378 2.59438 -2.93997 0
M  V30 466 H 42.4278 3.42103 -2.3949 0
M  V30 467 N 42.8649 1.48995 0.513639 0
M  V30 468 C 44.1129 1.57531 1.26604 0
M  V30 469 C 44.4339 0.258236 1.93283 0
M  V30 470 O 43.7039 -0.721502 1.8213 0
M  V30 471 H 42.2839 0.580387 0.470276 0
M  V30 472 H 44.9459 1.85552 0.596373 0
M  V30 473 H 44.0419 2.36486 2.03669 0
M  V30 474 N 44.343 -0.763751 1.37857 0
M  V30 475 C 45.754 -1.3405 1.29952 0
M  V30 476 C 46.105 -1.96138 -0.0492898 0
M  V30 477 O 45.23 -1.94372 -0.951239 0
M  V30 478 C 45.825 -2.43729 2.35333 0
M  V30 479 C 44.384 -2.97151 2.31037 0
M  V30 480 C 43.531 -1.70438 2.18738 0
M  V30 481 H 46.482 -0.563396 1.48363 0
M  V30 482 H 46.503 -3.23412 2.00462 0
M  V30 483 H 46.015 -1.9851 3.33489 0
M  V30 484 H 44.116 -3.46724 1.3643 0
M  V30 485 H 44.229 -3.52221 3.24772 0
M  V30 486 H 42.593 -1.93673 1.65418 0
M  V30 487 H 43.376 -1.27312 3.18821 0
M  V30 488 N 45.8211 -1.22559 -0.990812 0
M  V30 489 C 46.7841 -0.998863 -2.0629 0
M  V30 490 C 47.7841 0.0354834 -1.60761 0
M  V30 491 O 48.9741 -0.203231 -1.7301 0
M  V30 492 C 46.1061 -0.509203 -3.37076 0
M  V30 493 H 47.2991 -1.95014 -2.27837 0
M  V30 494 H 44.8521 -1.04456 -1.16269 0
M  V30 495 H 45.5871 0.446335 -3.21214 0
M  V30 496 H 45.3721 -1.25547 -3.71457 0
M  V30 497 H 46.8621 -0.370888 -4.1595 0
M  V30 498 N 47.2992 1.18797 -1.03562 0
M  V30 499 C 48.2622 2.20464 -0.626769 0
M  V30 500 C 49.2622 1.57721 0.313173 0
M  V30 501 O 50.4522 1.73917 0.0992615 0
M  V30 502 C 47.5842 3.40802 0.0818498 0
M  V30 503 H 48.7772 2.58149 -1.5264 0
M  V30 504 H 46.3302 1.32593 -0.827578 0
M  V30 505 H 47.0652 3.08642 0.995518 0
M  V30 506 H 46.8502 3.8758 -0.593652 0
M  V30 507 H 48.3402 4.16092 0.354584 0
M  V30 508 N 48.7773 0.814389 1.34928 0
M  V30 509 C 49.7403 0.235759 2.27984 0
M  V30 510 C 50.7403 -0.581412 1.49921 0
M  V30 511 O 51.9303 -0.398758 1.69575 0
M  V30 512 C 49.0623 -0.670433 3.34242 0
M  V30 513 H 50.2553 1.05659 2.80671 0
M  V30 514 H 47.8083 0.585614 1.44915 0
M  V30 515 H 48.5433 -1.51466 2.86755 0
M  V30 516 H 48.3283 -0.0860822 3.92005 0
M  V30 517 H 49.8183 -1.06935 4.03676 0
M  V30 518 N 50.2554 -1.46986 0.568584 0
M  V30 519 C 51.5024 -2.02441 0.0487986 0
M  V30 520 C 51.8304 -1.44169 -1.30559 0
M  V30 521 O 51.0854 -0.591213 -1.86556 0
M  V30 522 C 51.3844 -3.57306 -0.081836 0
M  V30 523 C 51.0504 -4.34552 1.20313 0
M  V30 524 C 49.7124 -4.55376 1.5552 0
M  V30 525 C 52.0644 -4.79016 2.05411 0
M  V30 526 C 49.3924 -5.17913 2.7565 0
M  V30 527 C 51.7444 -5.42879 3.24754 0
M  V30 528 C 50.4084 -5.61933 3.60261 0
M  V30 529 H 49.6784 -0.740785 0.0178567 0
M  V30 530 H 52.3254 -1.76525 0.742384 0
M  V30 531 H 50.6304 -3.8228 -0.858463 0
M  V30 532 H 52.3274 -3.97876 -0.499546 0
M  V30 533 H 48.9174 -4.18631 0.919014 0
M  V30 534 H 53.1014 -4.62696 1.79516 0
M  V30 535 H 48.3574 -5.30858 3.03315 0
M  V30 536 H 52.5314 -5.76293 3.90973 0
M  V30 537 H 50.1584 -6.10161 4.53439 0
M  V30 538 N 51.7335 -0.305618 -1.54608 0
M  V30 539 C 52.9815 0.301701 -1.99835 0
M  V30 540 C 53.3025 1.54054 -1.19551 0
M  V30 541 O 52.5725 1.93702 -0.292658 0
M  V30 542 H 51.1525 0.114468 -0.738178 0
M  V30 543 H 53.8145 -0.418016 -1.90364 0
M  V30 544 H 52.9105 0.570548 -3.06841 0
M  V30 545 N 53.2116 1.57565 -0.0334293 0
M  V30 546 C 54.4396 1.9628 0.654347 0
M  V30 547 C 54.8546 0.910138 1.65414 0
M  V30 548 O 54.2116 -0.107595 1.82183 0
M  V30 549 C 54.2626 3.35067 1.35693 0
M  V30 550 O 53.9836 4.36296 0.397191 0
M  V30 551 C 55.4846 3.88439 2.13613 0
M  V30 552 H 52.7046 0.646369 0.180132 0
M  V30 553 H 55.2486 2.04282 -0.0944721 0
M  V30 554 H 53.4036 3.2827 2.05712 0
M  V30 555 H 53.8176 5.1678 0.896597 0
M  V30 556 H 55.2916 4.8788 2.58219 0
M  V30 557 H 55.7686 3.22914 2.97696 0
M  V30 558 H 56.3746 3.98516 1.48543 0
M  V30 559 N 54.6897 -0.239769 1.55765 0
M  V30 560 C 55.9147 -0.988373 1.82335 0
M  V30 561 C 56.3397 -1.77886 0.611421 0
M  V30 562 O 55.6977 -1.75889 -0.439639 0
M  V30 563 C 55.7457 -1.89627 3.06715 0
M  V30 564 O 54.8497 -2.98904 2.84131 0
M  V30 565 H 54.1907 -0.280858 0.601677 0
M  V30 566 H 56.7207 -0.258597 2.02959 0
M  V30 567 H 56.7307 -2.30957 3.36338 0
M  V30 568 H 55.4057 -1.31511 3.9456 0
M  V30 569 H 53.9827 -2.61651 2.65694 0
M  V30 570 N 56.1678 -1.49265 -0.50573 0
M  V30 571 C 57.4138 -1.58748 -1.26202 0
M  V30 572 C 57.7468 -0.271227 -1.92297 0
M  V30 573 O 57.0218 0.724831 -1.80489 0
M  V30 574 C 57.3048 -2.74332 -2.33268 0
M  V30 575 C 57.1578 -4.15737 -1.71705 0
M  V30 576 C 58.4768 -2.85576 -3.34865 0
M  V30 577 H 55.5958 -0.577826 -0.457478 0
M  V30 578 H 58.2378 -1.81532 -0.560897 0
M  V30 579 H 56.3878 -2.55036 -2.93068 0
M  V30 580 H 58.0598 -4.46537 -1.15769 0
M  V30 581 H 56.3028 -4.21605 -1.02135 0
M  V30 582 H 56.9738 -4.92477 -2.49341 0
M  V30 583 H 59.4498 -3.03127 -2.8505 0
M  V30 584 H 58.3258 -3.68135 -4.07146 0
M  V30 585 H 58.5868 -1.94732 -3.96903 0
M  V30 586 N 57.6459 0.756429 -1.3826 0
M  V30 587 C 58.8739 1.54565 -1.3754 0
M  V30 588 C 59.2889 1.88767 0.0355331 0
M  V30 589 O 58.6459 1.52572 1.0014 0
M  V30 590 C 58.6969 2.84654 -2.22833 0
M  V30 591 O 58.4179 2.51912 -3.5843 0
M  V30 592 C 59.9189 3.78807 -2.30261 0
M  V30 593 H 57.1389 0.478353 -0.470553 0
M  V30 594 H 59.6829 0.936381 -1.81803 0
M  V30 595 H 57.8379 3.41965 -1.8204 0
M  V30 596 H 58.2519 3.35325 -4.03308 0
M  V30 597 H 59.7259 4.67045 -2.94233 0
M  V30 598 H 60.2029 4.19038 -1.31545 0
M  V30 599 H 60.8089 3.2742 -2.71433 0
M  V30 600 N 59.124 1.23083 0.984299 0
M  V30 601 C 60.349 1.088 1.76571 0
M  V30 602 C 60.774 -0.356657 1.84688 0
M  V30 603 O 60.132 -1.25788 1.30565 0
M  V30 604 C 60.18 1.71371 3.17277 0
M  V30 605 O 59.284 0.973213 4.00752 0
M  V30 606 H 58.625 0.381599 0.543395 0
M  V30 607 H 61.155 1.63057 1.23587 0
M  V30 608 H 61.165 1.76449 3.67872 0
M  V30 609 H 59.84 2.76493 3.10684 0
M  V30 610 H 58.417 0.999078 3.59267 0
M  V30 611 N 60.6021 -1.18246 1.0419 0
M  V30 612 C 61.5651 -2.20128 0.638452 0
M  V30 613 C 62.5651 -1.57885 -0.304805 0
M  V30 614 O 63.7551 -1.73967 -0.0900369 0
M  V30 615 C 60.8871 -3.4084 -0.0637751 0
M  V30 616 H 62.0801 -2.57336 1.54007 0
M  V30 617 H 59.6331 -1.32152 0.834598 0
M  V30 618 H 60.3681 -3.09166 -0.979136 0
M  V30 619 H 60.1531 -3.8726 0.614198 0
M  V30 620 H 61.6431 -4.16274 -0.332512 0
M  V30 621 N 62.0802 -0.821533 -1.34494 0
M  V30 622 C 63.0272 -0.240397 -2.29545 0
M  V30 623 C 63.9972 0.634031 -1.53523 0
M  V30 624 O 65.1822 0.575966 -1.81899 0
M  V30 625 C 62.3222 0.592869 -3.39969 0
M  V30 626 C 61.4352 -0.30365 -4.30932 0
M  V30 627 C 60.5702 0.539049 -5.28458 0
M  V30 628 C 59.6092 -0.356942 -6.11058 0
M  V30 629 N 58.7462 0.446603 -7.00678 0
M  V30 630 H 63.5862 -1.05632 -2.7865 0
M  V30 631 H 61.1232 -0.532413 -1.37127 0
M  V30 632 H 63.0812 1.09129 -4.02675 0
M  V30 633 H 61.7112 1.37392 -2.92102 0
M  V30 634 H 60.7632 -0.920276 -3.691 0
M  V30 635 H 62.0752 -0.992661 -4.88823 0
M  V30 636 H 61.2292 1.102 -5.96608 0
M  V30 637 H 59.9682 1.26157 -4.71101 0
M  V30 638 H 58.9732 -0.932047 -5.41842 0
M  V30 639 H 60.1982 -1.07755 -6.70497 0
M  V30 640 H 58.1442 1.15282 -6.45791 0
M  V30 641 H 58.0612 -0.184048 -7.55776 0
M  V30 642 H 59.3292 0.992352 -7.73158 0
M  V30 643 N 63.5583 1.46682 -0.576371 0
M  V30 644 C 64.8043 2.02712 -0.0596221 0
M  V30 645 C 65.1373 1.44765 1.29448 0
M  V30 646 O 64.4123 0.610355 1.84675 0
M  V30 647 C 64.6953 3.60098 0.0129503 0
M  V30 648 C 64.5483 4.28441 -1.3696 0
M  V30 649 C 65.8673 4.34224 0.71678 0
M  V30 650 H 62.9863 0.736637 -0.0231407 0
M  V30 651 H 65.6283 1.74898 -0.742351 0
M  V30 652 H 63.7783 3.83926 0.594378 0
M  V30 653 H 65.4503 4.15896 -1.9957 0
M  V30 654 H 63.6933 3.8805 -1.93907 0
M  V30 655 H 64.3643 5.3716 -1.27135 0
M  V30 656 H 66.8403 4.15503 0.222908 0
M  V30 657 H 65.7163 5.43936 0.73657 0
M  V30 658 H 65.9773 4.04823 1.77682 0
M  V30 659 N 65.0364 0.313813 1.54444 0
M  V30 660 C 65.9994 -0.54379 2.22656 0
M  V30 661 C 66.9994 -1.05124 1.21678 0
M  V30 662 O 68.1894 -0.945225 1.46325 0
M  V30 663 C 65.3214 -1.75427 2.92298 0
M  V30 664 H 66.5144 0.0523599 2.99854 0
M  V30 665 H 64.0674 0.0647834 1.56166 0
M  V30 666 H 64.8024 -2.38991 2.19211 0
M  V30 667 H 64.5874 -1.39791 3.66334 0
M  V30 668 H 66.0774 -2.36325 3.44297 0
M  V30 669 N 66.5145 -1.57545 0.0417849 0
M  V30 670 C 67.7605 -1.92601 -0.635021 0
M  V30 671 C 68.0935 -0.919627 -1.71045 0
M  V30 672 O 67.3685 0.0557892 -1.9442 0
M  V30 673 C 67.6515 -3.38085 -1.23979 0
M  V30 674 C 67.5045 -4.49467 -0.173057 0
M  V30 675 C 68.8235 -3.83776 -2.15416 0
M  V30 676 H 65.9425 -0.700397 -0.229374 0
M  V30 677 H 68.5845 -1.89728 0.101633 0
M  V30 678 H 66.7345 -3.40664 -1.86762 0
M  V30 679 H 68.4065 -4.59018 0.458312 0
M  V30 680 H 66.6495 -4.30909 0.499996 0
M  V30 681 H 67.3205 -5.48323 -0.636054 0
M  V30 682 H 69.7965 -3.83013 -1.62605 0
M  V30 683 H 68.6725 -4.8624 -2.54679 0
M  V30 684 H 68.9335 -3.19998 -3.05047 0
M  V30 685 N 67.9926 0.231505 -1.5589 0
M  V30 686 C 68.9406 1.30649 -1.92441 0
M  V30 687 C 69.9346 1.49037 -0.805254 0
M  V30 688 O 71.1406 1.50329 -0.990007 0
M  V30 689 H 67.5156 0.437812 -0.611412 0
M  V30 690 H 69.4866 0.970973 -2.82161 0
M  V30 691 C 68.2356 2.65179 -2.24889 0
M  V30 692 H 67.5586 2.51835 -3.10514 0
M  V30 693 H 68.9986 3.39234 -2.54355 0
M  V30 694 C 67.4576 3.19439 -1.07054 0
M  V30 695 O 67.9876 4.00371 -0.326499 0
M  V30 696 N 66.1936 2.77675 -0.85703 0
M  V30 697 H 65.7406 2.11969 -1.46379 0
M  V30 698 H 65.6986 3.14321 -0.0703223 0
M  V30 699 N 69.4707 1.49531 0.497807 0
M  V30 700 C 70.7187 1.58865 1.24926 0
M  V30 701 C 71.0397 0.278721 1.92998 0
M  V30 702 O 70.3097 -0.702144 1.82885 0
M  V30 703 H 68.8897 0.585343 0.464094 0
M  V30 704 H 71.5517 1.86174 0.57666 0
M  V30 705 H 70.6477 2.38633 2.01149 0
M  V30 706 N 70.9488 -0.749086 1.3866 0
M  V30 707 C 72.1948 -1.51056 1.35314 0
M  V30 708 C 72.5278 -1.94121 -0.0553751 0
M  V30 709 O 71.8028 -1.65763 -1.01749 0
M  V30 710 C 72.0858 -2.76003 2.31288 0
M  V30 711 C 71.9388 -2.39047 3.8102 0
M  V30 712 C 73.2578 -3.78046 2.2532 0
M  V30 713 H 70.3768 -0.547972 0.492844 0
M  V30 714 H 73.0188 -0.857628 1.69543 0
M  V30 715 H 71.1688 -3.31716 2.02229 0
M  V30 716 H 72.8408 -1.89074 4.20771 0
M  V30 717 H 71.0838 -1.71449 3.98482 0
M  V30 718 H 71.7548 -3.28462 4.4364 0
M  V30 719 H 74.2308 -3.31884 2.50983 0
M  V30 720 H 73.1068 -4.63159 2.94576 0
M  V30 721 H 73.3678 -4.23957 1.25352 0
M  V30 722 N 72.4269 -1.23603 -0.977757 0
M  V30 723 C 73.3589 -0.977369 -2.07317 0
M  V30 724 C 74.3719 0.0495845 -1.62724 0
M  V30 725 O 75.5609 -0.186261 -1.77526 0
M  V30 726 C 72.6609 -0.451216 -3.35883 0
M  V30 727 C 71.8339 -1.53896 -4.09432 0
M  V30 728 C 70.8929 -1.01721 -5.16274 0
M  V30 729 O 69.9189 -1.70676 -5.43009 0
M  V30 730 N 71.1209 0.153594 -5.80297 0
M  V30 731 H 73.8859 -1.92047 -2.30082 0
M  V30 732 H 71.4469 -1.14497 -1.14465 0
M  V30 733 H 73.4389 -0.0871574 -4.04606 0
M  V30 734 H 72.0089 0.397368 -3.10064 0
M  V30 735 H 71.2289 -2.07566 -3.35127 0
M  V30 736 H 72.5169 -2.27037 -4.55337 0
M  V30 737 H 71.9149 0.730323 -5.60966 0
M  V30 738 H 70.4719 0.458892 -6.50183 0
M  V30 739 N 73.905 1.17692 -1.04816 0
M  V30 740 C 74.835 2.23777 -0.666791 0
M  V30 741 C 75.816 1.66796 0.33361 0
M  V30 742 O 77.001 1.93039 0.212042 0
M  V30 743 C 74.131 3.47281 -0.0367933 0
M  V30 744 C 73.085 4.17059 -0.961546 0
M  V30 745 C 72.411 5.34342 -0.195626 0
M  V30 746 C 73.711 4.69713 -2.28402 0
M  V30 747 H 75.405 2.55933 -1.55367 0
M  V30 748 H 72.951 1.23019 -0.748484 0
M  V30 749 H 74.904 4.20706 0.241775 0
M  V30 750 H 73.628 3.14381 0.885004 0
M  V30 751 H 72.287 3.45541 -1.22462 0
M  V30 752 H 71.935 4.97692 0.728816 0
M  V30 753 H 71.635 5.81966 -0.811775 0
M  V30 754 H 73.159 6.10553 0.0757473 0
M  V30 755 H 74.573 5.34794 -2.06563 0
M  V30 756 H 72.97 5.279 -2.8538 0
M  V30 757 H 74.04 3.86726 -2.92525 0
M  V30 758 N 75.3831 0.828654 1.34056 0
M  V30 759 C 76.3331 0.226828 2.26869 0
M  V30 760 C 77.3171 -0.612243 1.48796 0
M  V30 761 O 78.5091 -0.465884 1.70759 0
M  V30 762 C 75.6381 -0.605654 3.37915 0
M  V30 763 C 74.7241 0.244361 4.23395 0
M  V30 764 N 75.1151 1.31815 4.88322 0
M  V30 765 C 73.4131 0.0296616 4.4599 0
M  V30 766 C 74.1141 1.83895 5.51867 0
M  V30 767 N 73.0901 1.14196 5.3147 0
M  V30 768 H 76.8921 1.04811 2.74576 0
M  V30 769 H 74.4061 0.67205 1.47842 0
M  V30 770 H 76.4031 -1.05302 4.03382 0
M  V30 771 H 75.0631 -1.42504 2.91758 0
M  V30 772 H 76.0741 1.70099 4.8917 0
M  V30 773 H 72.7511 -0.757097 4.10578 0
M  V30 774 H 74.1411 2.7376 6.136 0
M  V30 775 N 76.8612 -1.46375 0.584142 0
M  V30 776 C 78.0912 -2.06461 0.0758195 0
M  V30 777 C 78.4992 -1.43322 -1.23512 0
M  V30 778 O 77.8422 -0.533216 -1.75791 0
M  V30 779 C 77.9042 -3.59131 -0.162773 0
M  V30 780 C 77.5682 -4.4447 1.06279 0
M  V30 781 C 78.5652 -4.80918 1.97519 0
M  V30 782 C 76.2502 -4.85584 1.28504 0
M  V30 783 C 78.2442 -5.57309 3.09331 0
M  V30 784 C 75.9312 -5.61734 2.4062 0
M  V30 785 C 76.9292 -5.9751 3.30863 0
M  V30 786 O 76.6172 -6.72121 4.41032 0
M  V30 787 H 76.3492 -0.673745 0.0551725 0
M  V30 788 H 78.9032 -1.88969 0.804984 0
M  V30 789 H 77.1332 -3.74936 -0.946565 0
M  V30 790 H 78.8222 -4.0114 -0.619782 0
M  V30 791 H 79.5882 -4.49732 1.81565 0
M  V30 792 H 75.4672 -4.57187 0.591702 0
M  V30 793 H 79.0112 -5.85152 3.79793 0
M  V30 794 H 74.9082 -5.92334 2.56537 0
M  V30 795 H 75.6762 -6.90547 4.39417 0
M  V30 796 N 78.3393 -0.321999 -1.54275 0
M  V30 797 C 79.2713 0.578671 -2.21775 0
M  V30 798 C 80.2843 1.08109 -1.21722 0
M  V30 799 O 81.4733 0.994938 -1.482 0
M  V30 800 C 78.5733 1.80661 -2.86731 0
M  V30 801 C 77.7463 1.44314 -4.12907 0
M  V30 802 C 76.8053 2.52845 -4.61472 0
M  V30 803 O 75.8313 2.17054 -5.2619 0
M  V30 804 N 77.0333 3.83748 -4.35566 0
M  V30 805 H 79.7983 0.000709447 -2.997 0
M  V30 806 H 77.3593 -0.145132 -1.61248 0
M  V30 807 H 79.3513 2.52655 -3.16145 0
M  V30 808 H 77.9213 2.29245 -2.12521 0
M  V30 809 H 77.1413 0.554906 -3.90275 0
M  V30 810 H 78.4293 1.17598 -4.95023 0
M  V30 811 H 77.8273 4.15625 -3.83761 0
M  V30 812 H 76.3843 4.51977 -4.69638 0
M  V30 813 N 79.8174 1.5752 -0.0501392 0
M  V30 814 C 80.7494 2.08413 0.95376 0
M  V30 815 C 81.7624 1.01175 1.27544 0
M  V30 816 O 82.9514 1.28744 1.23641 0
M  V30 817 C 80.0514 2.51138 2.27559 0
M  V30 818 C 79.2244 3.817 2.13598 0
M  V30 819 C 78.2834 4.10749 3.28895 0
M  V30 820 O 77.3094 4.80685 3.04845 0
M  V30 821 N 78.5114 3.62579 4.5334 0
M  V30 822 H 81.2764 2.95165 0.519383 0
M  V30 823 H 78.8374 1.61327 0.136127 0
M  V30 824 H 80.8294 2.67648 3.03557 0
M  V30 825 H 79.3994 1.6964 2.62567 0
M  V30 826 H 78.6194 3.74782 1.22197 0
M  V30 827 H 79.9074 4.67201 2.01496 0
M  V30 828 H 79.3054 3.06039 4.75769 0
M  V30 829 H 77.8624 3.84329 5.26436 0
M  V30 830 N 81.2955 -0.223234 1.56011 0
M  V30 831 C 82.5235 -0.964812 1.83027 0
M  V30 832 C 82.9385 -1.78013 0.62904 0
M  V30 833 O 82.2955 -1.78008 -0.402414 0
M  V30 834 C 82.3465 -1.88373 3.08542 0
M  V30 835 O 82.0675 -1.10137 4.2403 0
M  V30 836 C 83.5685 -2.73934 3.48533 0
M  V30 837 H 80.7885 -0.282842 0.608475 0
M  V30 838 H 83.3325 -0.238971 2.03099 0
M  V30 839 H 81.4875 -2.56354 2.9045 0
M  V30 840 H 81.9015 -1.72501 4.95322 0
M  V30 841 H 83.3755 -3.34117 4.39397 0
M  V30 842 H 83.8525 -3.46244 2.70207 0
M  V30 843 H 84.4585 -2.11369 3.69057 0
M  V30 844 N 82.7736 -1.49793 -0.48987 0
M  V30 845 C 84.0216 -1.59525 -1.24081 0
M  V30 846 C 84.3426 -0.288953 -1.92847 0
M  V30 847 O 83.6126 0.692436 -1.83254 0
M  V30 848 H 82.1926 -0.587796 -0.460983 0
M  V30 849 H 84.8546 -1.86477 -0.566778 0
M  V30 850 H 83.9506 -2.39696 -1.99881 0
M  V30 851 N 84.2517 0.741722 -1.39055 0
M  V30 852 C 85.1617 1.88621 -1.39496 0
M  V30 853 C 86.1777 1.71557 -0.290578 0
M  V30 854 O 87.3537 1.94275 -0.530954 0
M  V30 855 C 84.4187 3.24134 -1.23037 0
M  V30 856 C 83.4797 3.5364 -2.43387 0
M  V30 857 C 82.7127 4.82687 -2.27703 0
M  V30 858 O 82.9357 5.55922 -1.27696 0
M  V30 859 O 81.8697 5.1194 -3.16545 0
M  V30 860 H 85.6957 1.91203 -2.35956 0
M  V30 861 H 83.2807 0.888625 -1.20099 0
M  V30 862 H 85.1627 4.0513 -1.15964 0
M  V30 863 H 83.8377 3.22337 -0.296691 0
M  V30 864 H 82.7447 2.72758 -2.56035 0
M  V30 865 H 84.0777 3.60209 -3.35425 0
M  V30 866 N 85.7298 1.2412 0.971189 0
M  V30 867 C 86.9778 1.07668 1.71032 0
M  V30 868 C 87.2988 -0.385797 1.91146 0
M  V30 869 O 86.5688 -1.27569 1.4867 0
M  V30 870 H 85.1488 0.395429 0.633755 0
M  V30 871 H 87.8108 1.55984 1.16855 0
M  V30 872 H 86.9068 1.57195 2.69622 0
M  V30 873 N 87.2079 -1.17134 1.05439 0
M  V30 874 C 88.4849 -1.83411 0.679699 0
M  V30 875 C 88.8649 -1.9368 -0.839726 0
M  V30 876 O 88.2129 -1.47325 -1.74664 0
M  V30 877 C 88.4229 -3.20918 1.37159 0
M  V30 878 C 89.7709 -3.96796 1.51123 0
M  V30 879 O 90.7949 -3.30406 1.3308 0
M  V30 880 O 89.6539 -5.15778 1.80651 0
M  V30 881 H 86.7479 -0.79154 0.239569 0
M  V30 882 H 89.2939 -1.24411 1.15413 0
M  V30 883 H 88.0659 -3.08428 2.40807 0
M  V30 884 H 87.6889 -3.87587 0.886674 0
M  V30 885 N 88.686 -0.835752 -1.33615 0
M  V30 886 C 89.636 -0.238856 -2.26745 0
M  V30 887 C 90.62 0.604343 -1.49119 0
M  V30 888 O 91.812 0.456822 -1.71003 0
M  V30 889 C 88.941 0.587725 -3.38232 0
M  V30 890 C 88.027 -0.266811 -4.2326 0
M  V30 891 N 88.418 -1.34403 -4.87616 0
M  V30 892 C 86.716 -0.0533131 -4.45968 0
M  V30 893 C 87.417 -1.86819 -5.50884 0
M  V30 894 N 86.393 -1.17013 -5.30857 0
M  V30 895 H 90.195 -1.06266 -2.74016 0
M  V30 896 H 87.709 -0.679881 -1.47483 0
M  V30 897 H 89.706 1.03161 -4.03935 0
M  V30 898 H 88.366 1.40954 -2.9251 0
M  V30 899 H 89.377 -1.7269 -4.88261 0
M  V30 900 H 86.054 0.735312 -4.10974 0
M  V30 901 H 87.444 -2.7701 -6.1214 0
M  V30 902 N 90.1641 1.46063 -0.591896 0
M  V30 903 C 91.1271 2.28854 0.125973 0
M  V30 904 C 92.1271 1.38903 0.810107 0
M  V30 905 O 93.3171 1.61186 0.66066 0
M  V30 906 C 90.4491 3.19526 1.1881 0
M  V30 907 H 91.6421 2.93802 -0.601717 0
M  V30 908 H 89.1951 1.52325 -0.350254 0
M  V30 909 H 89.9301 2.59345 1.94707 0
M  V30 910 H 89.7151 3.85766 0.701936 0
M  V30 911 H 91.2051 3.81817 1.69132 0
M  V30 912 N 91.6422 0.330177 1.54103 0
M  V30 913 C 92.8882 -0.270806 2.00984 0
M  V30 914 C 93.2212 -1.51265 1.21789 0
M  V30 915 O 92.4962 -1.92142 0.301927 0
M  V30 916 C 92.7792 -0.598339 3.55094 0
M  V30 917 C 92.6322 0.654674 4.4501 0
M  V30 918 C 93.9512 -1.41334 4.16789 0
M  V30 919 H 91.0702 -0.0969531 0.730595 0
M  V30 920 H 93.7122 0.448066 1.84641 0
M  V30 921 H 91.8622 -1.21078 3.69151 0
M  V30 922 H 93.5342 1.29285 4.42813 0
M  V30 923 H 91.7772 1.28224 4.14416 0
M  V30 924 H 92.4482 0.380944 5.50684 0
M  V30 925 H 94.9242 -0.895597 4.06347 0
M  V30 926 H 93.8002 -1.61127 5.24718 0
M  V30 927 H 94.0612 -2.41146 3.70541 0
M  V30 928 N 93.1203 -1.57491 0.0584922 0
M  V30 929 C 94.0503 -2.14988 -0.911178 0
M  V30 930 C 95.0313 -1.07343 -1.31952 0
M  V30 931 O 96.2163 -1.35318 -1.39294 0
M  V30 932 C 93.3463 -2.70078 -2.18347 0
M  V30 933 C 92.3003 -3.82771 -1.91495 0
M  V30 934 C 91.6263 -4.24408 -3.25241 0
M  V30 935 C 92.9263 -5.07592 -1.23075 0
M  V30 936 H 94.6203 -2.96263 -0.432246 0
M  V30 937 H 92.1663 -1.42512 -0.206469 0
M  V30 938 H 94.1193 -3.08943 -2.86587 0
M  V30 939 H 92.8433 -1.86005 -2.68458 0
M  V30 940 H 91.5023 -3.44389 -1.25664 0
M  V30 941 H 91.1503 -3.37275 -3.73168 0
M  V30 942 H 90.8503 -5.00366 -3.08071 0
M  V30 943 H 92.3743 -4.65879 -3.94701 0
M  V30 944 H 93.7883 -5.43857 -1.81362 0
M  V30 945 H 92.1853 -5.88741 -1.16207 0
M  V30 946 H 93.2553 -4.84454 -0.207847 0
M  V30 947 N 94.5984 0.214957 -1.56127 0
M  V30 948 C 95.5284 1.2695 -1.95974 0
M  V30 949 C 96.5094 1.48539 -0.828868 0
M  V30 950 O 97.6944 1.60611 -1.09168 0
M  V30 951 C 94.8244 2.61794 -2.28214 0
M  V30 952 C 93.7784 2.54851 -3.43853 0
M  V30 953 C 93.1044 3.93785 -3.61715 0
M  V30 954 C 94.4044 2.09065 -4.78632 0
M  V30 955 H 96.0984 0.93846 -2.84312 0
M  V30 956 H 93.6444 0.449996 -1.36788 0
M  V30 957 H 95.5974 3.35731 -2.54682 0
M  V30 958 H 94.3214 2.96599 -1.36736 0
M  V30 959 H 92.9804 1.8337 -3.17444 0
M  V30 960 H 92.6284 4.25908 -2.67602 0
M  V30 961 H 92.3284 3.90019 -4.39498 0
M  V30 962 H 93.8524 4.69374 -3.90539 0
M  V30 963 H 95.2664 2.7275 -5.04262 0
M  V30 964 H 93.6634 2.16346 -5.59745 0
M  V30 965 H 94.7334 1.04315 -4.73547 0
M  V30 966 N 96.0765 1.50051 0.48192 0
M  V30 967 C 97.0065 1.71046 1.58951 0
M  V30 968 C 97.9875 0.559288 1.60642 0
M  V30 969 O 99.1725 0.797243 1.77081 0
M  V30 970 C 96.3025 1.79462 2.97339 0
M  V30 971 C 95.2565 2.94558 3.10515 0
M  V30 972 C 94.5825 2.88105 4.50444 0
M  V30 973 C 95.8825 4.35227 2.88747 0
M  V30 974 H 97.5765 2.6378 1.41635 0
M  V30 975 H 95.1225 1.26936 0.679942 0
M  V30 976 H 97.0755 1.92734 3.74742 0
M  V30 977 H 95.7995 0.833412 3.15788 0
M  V30 978 H 94.4585 2.80918 2.35543 0
M  V30 979 H 94.1065 1.89853 4.65795 0
M  V30 980 H 93.8065 3.65366 4.60197 0
M  V30 981 H 95.3305 3.03412 5.29881 0
M  V30 982 H 96.7445 4.49449 3.55905 0
M  V30 983 H 95.1415 5.13856 3.09955 0
M  V30 984 H 96.2115 4.48347 1.84696 0
M  V30 985 N 97.5546 -0.734337 1.39446 0
M  V30 986 C 98.9656 -1.31264 1.32766 0
M  V30 987 C 99.3166 -1.96198 -0.00767497 0
M  V30 988 O 98.4416 -1.96346 -0.909796 0
M  V30 989 C 99.0366 -2.38682 2.4045 0
M  V30 990 C 97.5956 -2.92184 2.37288 0
M  V30 991 C 96.7426 -1.6576 2.22304 0
M  V30 992 H 99.6936 -0.531799 1.49525 0
M  V30 993 H 99.7146 -3.19087 2.07276 0
M  V30 994 H 99.2266 -1.91392 3.37625 0
M  V30 995 H 97.3276 -3.43752 1.43754 0
M  V30 996 H 97.4406 -3.45253 3.3217 0
M  V30 997 H 95.8046 -1.9012 1.69489 0
M  V30 998 H 96.5876 -1.20521 3.21449 0
M  V30 999 N 99.0327 -1.24633 -0.964593 0
M  V30 1000 C 100.281 -1.08573 -1.70459 0
M  V30 1001 C 100.602 0.375655 -1.91347 0
M  V30 1002 O 99.8717 1.26779 -1.49345 0
M  V30 1003 H 98.4517 -0.398784 -0.631649 0
M  V30 1004 H 101.114 -1.56601 -1.16026 0
M  V30 1005 H 100.21 -1.58623 -2.68785 0
M  V30 1006 N 100.511 1.16574 -1.06058 0
M  V30 1007 C 101.444 2.19798 -0.61352 0
M  V30 1008 C 102.422 1.58509 0.362453 0
M  V30 1009 O 103.606 1.86527 0.271994 0
M  V30 1010 C 100.733 3.3855 0.100915 0
M  V30 1011 C 99.7788 4.18317 -0.831438 0
M  V30 1012 S 100.612 4.82375 -2.32539 0
M  V30 1013 C 101.768 6.04508 -1.62238 0
M  V30 1014 H 102.001 2.5738 -1.48805 0
M  V30 1015 H 99.5338 1.27327 -0.873338 0
M  V30 1016 H 101.492 4.07358 0.506898 0
M  V30 1017 H 100.153 2.99338 0.951604 0
M  V30 1018 H 99.3458 5.03232 -0.278071 0
M  V30 1019 H 98.9478 3.5499 -1.17719 0
M  V30 1020 H 101.24 6.71133 -0.926622 0
M  V30 1021 H 102.183 6.64389 -2.44934 0
M  V30 1022 H 102.591 5.53559 -1.106 0
M  V30 1023 N 101.989 0.842826 1.3317 0
M  V30 1024 C 102.919 0.294028 2.31641 0
M  V30 1025 C 103.9 -0.600401 1.59151 0
M  V30 1026 O 105.085 -0.523124 1.87022 0
M  V30 1027 C 102.215 -0.528416 3.43257 0
M  V30 1028 C 101.169 0.27056 4.27144 0
M  V30 1029 C 100.495 -0.675881 5.30411 0
M  V30 1030 C 101.795 1.48981 5.00602 0
M  V30 1031 H 103.489 1.11681 2.77791 0
M  V30 1032 H 101.035 0.538478 1.33553 0
M  V30 1033 H 102.988 -0.922674 4.11175 0
M  V30 1034 H 101.712 -1.38445 2.95805 0
M  V30 1035 H 100.371 0.646427 3.60856 0
M  V30 1036 H 100.019 -1.52842 4.79216 0
M  V30 1037 H 99.7189 -0.145374 5.8742 0
M  V30 1038 H 101.243 -1.06757 6.01195 0
M  V30 1039 H 102.657 1.16849 5.61266 0
M  V30 1040 H 101.054 1.95739 5.6728 0
M  V30 1041 H 102.124 2.25746 4.29147 0
M  V30 1042 N 103.467 -1.45747 0.599634 0
M  V30 1043 C 104.715 -2.01893 0.0915472 0
M  V30 1044 C 105.036 -1.47155 -1.27946 0
M  V30 1045 O 104.306 -0.66273 -1.84349 0
M  V30 1046 H 102.886 -0.746363 0.0308524 0
M  V30 1047 H 105.548 -1.78645 0.779237 0
M  V30 1048 H 104.644 -3.1208 0.0353086 0
M  V30 1049 N 104.945 -0.338344 -1.53925 0
M  V30 1050 C 106.17 0.263987 -2.05713 0
M  V30 1051 C 106.595 1.43847 -1.21201 0
M  V30 1052 O 105.953 1.79904 -0.224535 0
M  V30 1053 C 106.001 0.662 -3.54471 0
M  V30 1054 O 105.105 1.76265 -3.72833 0
M  V30 1055 H 104.446 0.0448722 -0.662482 0
M  V30 1056 H 106.976 -0.491048 -1.9862 0
M  V30 1057 H 106.986 0.940594 -3.9701 0
M  V30 1058 H 105.661 -0.196937 -4.15433 0
M  V30 1059 H 104.238 1.48173 -3.42198 0
M  V30 1060 N 106.423 1.57458 -0.0668435 0
M  V30 1061 C 107.671 1.92919 0.602214 0
M  V30 1062 C 107.992 0.947215 1.70449 0
M  V30 1063 O 107.262 -0.00544117 1.95899 0
M  V30 1064 H 105.842 0.71217 0.22544 0
M  V30 1065 H 108.504 1.94508 -0.123535 0
M  V30 1066 H 107.6 2.94589 1.03073 0
M  V30 1067 N 107.901 -0.206675 1.56239 0
M  V30 1068 C 108.811 -1.27686 1.96808 0
M  V30 1069 C 109.827 -1.50455 0.874035 0
M  V30 1070 O 111.003 -1.63295 1.17884 0
M  V30 1071 C 108.068 -2.60358 2.28942 0
M  V30 1072 C 107.129 -2.45762 3.51994 0
M  V30 1073 C 106.362 -3.72108 3.82585 0
M  V30 1074 O 106.585 -4.75776 3.14631 0
M  V30 1075 O 105.519 -3.6833 4.76043 0
M  V30 1076 H 109.345 -0.962593 2.88041 0
M  V30 1077 H 106.93 -0.410746 1.43643 0
M  V30 1078 H 108.812 -3.38687 2.50737 0
M  V30 1079 H 107.487 -2.91435 1.4088 0
M  V30 1080 H 106.394 -1.65584 3.35459 0
M  V30 1081 H 107.727 -2.19621 4.40486 0
M  V30 1082 N 109.379 -1.50304 -0.473955 0
M  V30 1083 C 110.607 -1.64902 -1.24959 0
M  V30 1084 C 111.022 -0.331198 -1.85872 0
M  V30 1085 O 110.379 0.68652 -1.69095 0
M  V30 1086 C 110.43 -2.73803 -2.36038 0
M  V30 1087 O 110.151 -4.00477 -1.77624 0
M  V30 1088 C 111.652 -2.99349 -3.26964 0
M  V30 1089 H 108.872 -0.554383 -0.378022 0
M  V30 1090 H 111.416 -1.9651 -0.566054 0
M  V30 1091 H 109.571 -2.44898 -3.00173 0
M  V30 1092 H 109.985 -4.60678 -2.5075 0
M  V30 1093 H 111.459 -3.79217 -4.01121 0
M  V30 1094 H 111.936 -2.10307 -3.85574 0
M  V30 1095 H 112.542 -3.29774 -2.68569 0
M  V30 1096 N 110.857 0.726932 -1.39834 0
M  V30 1097 C 112.134 1.47902 -1.28001 0
M  V30 1098 C 112.514 2.1083 0.106789 0
M  V30 1099 O 111.862 1.99242 1.11869 0
M  V30 1100 C 112.072 2.52392 -2.41038 0
M  V30 1101 C 113.42 3.18546 -2.80737 0
M  V30 1102 O 114.444 2.62708 -2.40547 0
M  V30 1103 O 113.303 4.19604 -3.50135 0
M  V30 1104 H 110.397 0.657163 -0.502062 0
M  V30 1105 H 112.943 0.760071 -1.51727 0
M  V30 1106 H 111.715 2.04329 -3.33715 0
M  V30 1107 H 111.338 3.31837 -2.19021 0
M  V30 1108 N 112.336 1.25143 0.95797 0
M  V30 1109 C 113.583 1.09692 1.70217 0
M  V30 1110 C 113.911 -0.362654 1.91089 0
M  V30 1111 O 113.166 -1.28386 1.47701 0
M  V30 1112 C 113.465 1.79272 3.09187 0
M  V30 1113 C 113.131 3.29196 3.08125 0
M  V30 1114 C 111.793 3.70096 3.07543 0
M  V30 1115 C 114.145 4.24995 3.0171 0
M  V30 1116 C 111.473 5.05213 2.9829 0
M  V30 1117 C 113.825 5.60132 2.93999 0
M  V30 1118 C 112.489 6.00365 2.9175 0
M  V30 1119 H 111.759 0.401393 0.622868 0
M  V30 1120 H 114.406 1.55372 1.11945 0
M  V30 1121 H 112.711 1.26014 3.70982 0
M  V30 1122 H 114.408 1.64773 3.65583 0
M  V30 1123 H 110.998 2.96651 3.09348 0
M  V30 1124 H 115.182 3.9439 3.01281 0
M  V30 1125 H 110.438 5.35569 2.94916 0
M  V30 1126 H 114.612 6.3406 2.87996 0
M  V30 1127 H 112.239 7.05023 2.84336 0
M  V30 1128 N 113.814 -1.1601 1.06675 0
M  V30 1129 C 115.062 -1.86264 0.784229 0
M  V30 1130 C 115.383 -1.82328 -0.691488 0
M  V30 1131 O 114.653 -1.25947 -1.50047 0
M  V30 1132 H 113.233 -0.689621 0.28711 0
M  V30 1133 H 115.895 -1.40664 1.34906 0
M  V30 1134 H 114.991 -2.91595 1.11259 0
M  V30 1135 N 115.292 -0.849877 -1.32721 0
M  V30 1136 C 116.703 -0.506188 -1.79707 0
M  V30 1137 C 117.054 0.975627 -1.70223 0
M  V30 1138 O 116.179 1.76078 -1.25799 0
M  V30 1139 C 116.774 -0.912044 -3.26293 0
M  V30 1140 C 115.333 -0.620326 -3.71253 0
M  V30 1141 C 114.48 -1.11439 -2.53922 0
M  V30 1142 H 117.431 -1.03754 -1.20087 0
M  V30 1143 H 117.452 -0.226493 -3.79825 0
M  V30 1144 H 116.964 -1.99057 -3.33164 0
M  V30 1145 H 115.065 0.447674 -3.69901 0
M  V30 1146 H 115.178 -1.18327 -4.64258 0
M  V30 1147 H 113.542 -0.534834 -2.49021 0
M  V30 1148 H 114.325 -2.19992 -2.6355 0
M  V30 1149 N 116.77 1.45427 -0.607355 0
M  V30 1150 C 117.702 2.2871 0.149752 0
M  V30 1151 C 118.715 1.39937 0.831958 0
M  V30 1152 O 119.904 1.64313 0.697385 0
M  V30 1153 C 117.004 3.15673 1.23304 0
M  V30 1154 C 116.177 4.32722 0.637996 0
M  V30 1155 C 115.236 5.00895 1.61215 0
M  V30 1156 O 114.262 5.57697 1.13854 0
M  V30 1157 N 115.464 5.00159 2.94655 0
M  V30 1158 H 118.229 2.94328 -0.564882 0
M  V30 1159 H 115.79 1.55612 -0.446823 0
M  V30 1160 H 117.782 3.58144 1.88454 0
M  V30 1161 H 116.352 2.51965 1.8502 0
M  V30 1162 H 115.572 3.93734 -0.191572 0
M  V30 1163 H 116.86 5.08321 0.220665 0
M  V30 1164 H 116.258 4.553 3.35735 0
M  V30 1165 H 114.815 5.46495 3.55228 0
M  V30 1166 N 118.248 0.346503 1.53744 0
M  V30 1167 C 119.178 -0.501193 2.28058 0
M  V30 1168 C 120.159 -1.10014 1.29734 0
M  V30 1169 O 121.344 -1.12097 1.58581 0
M  V30 1170 C 118.474 -1.65078 3.05559 0
M  V30 1171 C 117.428 -1.18003 4.11411 0
M  V30 1172 C 116.754 -2.41837 4.76884 0
M  V30 1173 C 118.054 -0.278394 5.21558 0
M  V30 1174 H 119.748 0.11875 2.99164 0
M  V30 1175 H 117.294 0.0585531 1.43881 0
M  V30 1176 H 119.247 -2.25028 3.56287 0
M  V30 1177 H 117.971 -2.29767 2.32109 0
M  V30 1178 H 116.63 -0.603331 3.61601 0
M  V30 1179 H 116.278 -3.0494 4.00026 0
M  V30 1180 H 115.978 -2.1102 5.48402 0
M  V30 1181 H 117.502 -3.02508 5.30397 0
M  V30 1182 H 118.916 -0.784823 5.67903 0
M  V30 1183 H 117.313 -0.0619707 6.00068 0
M  V30 1184 H 118.383 0.684677 4.80042 0
M  V30 1185 N 119.726 -1.57421 0.075193 0
M  V30 1186 C 120.673 -2.12915 -0.890843 0
M  V30 1187 C 121.643 -1.04252 -1.29309 0
M  V30 1188 O 122.828 -1.31933 -1.37834 0
M  V30 1189 C 119.968 -2.69795 -2.15186 0
M  V30 1190 C 119.081 -3.92624 -1.80194 0
M  V30 1191 C 118.216 -4.37736 -3.00933 0
M  V30 1192 C 117.255 -5.53205 -2.61974 0
M  V30 1193 N 116.392 -5.9326 -3.75483 0
M  V30 1194 H 121.232 -2.95156 -0.410735 0
M  V30 1195 H 118.769 -1.45854 -0.191086 0
M  V30 1196 H 120.727 -3.00883 -2.89008 0
M  V30 1197 H 119.357 -1.90313 -2.60731 0
M  V30 1198 H 118.409 -3.67977 -0.964218 0
M  V30 1199 H 119.721 -4.76482 -1.47534 0
M  V30 1200 H 118.875 -4.70503 -3.8303 0
M  V30 1201 H 117.614 -3.52739 -3.36789 0
M  V30 1202 H 116.619 -5.20086 -1.783 0
M  V30 1203 H 117.844 -6.39936 -2.27284 0
M  V30 1204 H 115.79 -5.11212 -4.11094 0
M  V30 1205 H 115.707 -6.71865 -3.46602 0
M  V30 1206 H 116.975 -6.30651 -4.58148 0
M  V30 1207 N 121.204 0.198386 -1.56346 0
M  V30 1208 C 122.152 1.26538 -1.95169 0
M  V30 1209 C 123.146 1.47295 -0.836685 0
M  V30 1210 O 124.352 1.48195 -1.02167 0
M  V30 1211 H 120.727 0.424744 -0.620561 0
M  V30 1212 H 122.698 0.910904 -2.84157 0
M  V30 1213 C 121.447 2.6035 -2.30463 0
M  V30 1214 H 120.77 2.45192 -3.15786 0
M  V30 1215 H 122.21 3.33762 -2.61494 0
M  V30 1216 C 120.669 3.17096 -1.13806 0
M  V30 1217 O 121.199 3.99588 -0.41135 0
M  V30 1218 N 119.405 2.75795 -0.915736 0
M  V30 1219 H 118.952 2.08816 -1.50843 0
M  V30 1220 H 118.91 3.14101 -0.136979 0
M  V30 1221 N 122.682 1.50554 0.465978 0
M  V30 1222 C 123.612 1.72722 1.57128 0
M  V30 1223 C 124.593 0.576294 1.6004 0
M  V30 1224 O 125.778 0.81598 1.76225 0
M  V30 1225 C 122.908 1.82605 2.95419 0
M  V30 1226 C 121.862 2.97835 3.07373 0
M  V30 1227 C 121.188 2.92867 4.47363 0
M  V30 1228 C 122.488 4.38265 2.84114 0
M  V30 1229 H 124.182 2.65267 1.38829 0
M  V30 1230 H 121.728 1.2765 0.666441 0
M  V30 1231 H 123.681 1.96698 3.72677 0
M  V30 1232 H 122.405 0.866858 3.14886 0
M  V30 1233 H 121.064 2.83401 2.3255 0
M  V30 1234 H 120.712 1.94783 4.63755 0
M  V30 1235 H 120.412 3.70227 4.56296 0
M  V30 1236 H 121.936 3.09015 5.26633 0
M  V30 1237 H 123.35 4.53198 3.51118 0
M  V30 1238 H 121.747 5.17115 3.04487 0
M  V30 1239 H 122.817 4.50281 1.7993 0
M  V30 1240 N 124.16 -0.719506 1.40217 0
M  V30 1241 C 125.108 -1.85493 1.40339 0
M  V30 1242 C 126.102 -1.66995 0.284415 0
M  V30 1243 O 127.308 -1.74148 0.455252 0
M  V30 1244 H 123.683 -0.610857 0.438586 0
M  V30 1245 H 125.654 -1.82506 2.36081 0
M  V30 1246 C 124.403 -3.23321 1.27901 0
M  V30 1247 H 123.726 -3.38159 2.1328 0
M  V30 1248 H 125.166 -4.02914 1.32045 0
M  V30 1249 C 123.625 -3.36898 -0.0111355 0
M  V30 1250 O 124.155 -3.89674 -0.975538 0
M  V30 1251 N 122.361 -2.90492 -0.0793393 0
M  V30 1252 H 121.908 -2.47731 0.706183 0
M  V30 1253 H 121.866 -2.99955 -0.942038 0
M  V30 1254 N 125.638 -1.25649 -0.95132 0
M  V30 1255 C 126.585 -1.06323 -2.04851 0
M  V30 1256 C 127.555 0.0286491 -1.66075 0
M  V30 1257 O 128.74 -0.12917 -1.90362 0
M  V30 1258 C 125.88 -0.691529 -3.381 0
M  V30 1259 C 124.993 -1.85861 -3.89974 0
M  V30 1260 C 124.128 -1.43096 -5.11563 0
M  V30 1261 C 123.167 -2.56696 -5.55674 0
M  V30 1262 N 122.304 -2.14684 -6.68472 0
M  V30 1263 H 127.144 -2.00222 -2.20715 0
M  V30 1264 H 124.681 -0.997027 -1.08156 0
M  V30 1265 H 126.639 -0.456963 -4.1469 0
M  V30 1266 H 125.269 0.210474 -3.22113 0
M  V30 1267 H 124.321 -2.20639 -3.09875 0
M  V30 1268 H 125.633 -2.71161 -4.18657 0
M  V30 1269 H 124.787 -1.15624 -5.9558 0
M  V30 1270 H 123.526 -0.548722 -4.84603 0
M  V30 1271 H 122.531 -2.84909 -4.7022 0
M  V30 1272 H 123.756 -3.45503 -5.8464 0
M  V30 1273 H 121.702 -1.28881 -6.43215 0
M  V30 1274 H 121.619 -2.9353 -6.96689 0
M  V30 1275 H 122.887 -1.90397 -7.5589 0
M  V30 1276 N 127.117 1.15442 -1.07289 0
M  V30 1277 C 128.064 2.20161 -0.692653 0
M  V30 1278 C 129.034 1.63073 0.31564 0
M  V30 1279 O 130.219 1.89725 0.202235 0
M  V30 1280 C 127.359 3.44967 -0.0959509 0
M  V30 1281 C 126.472 4.16256 -1.15564 0
M  V30 1282 C 125.607 5.28609 -0.524011 0
M  V30 1283 C 124.646 5.91715 -1.56653 0
M  V30 1284 N 123.783 6.9554 -0.957531 0
M  V30 1285 H 128.623 2.52037 -1.59002 0
M  V30 1286 H 126.16 1.2378 -0.794798 0
M  V30 1287 H 128.118 4.16341 0.267628 0
M  V30 1288 H 126.748 3.1361 0.764772 0
M  V30 1289 H 125.8 3.43385 -1.6368 0
M  V30 1290 H 127.112 4.59268 -1.94613 0
M  V30 1291 H 126.266 6.06604 -0.108032 0
M  V30 1292 H 125.005 4.86787 0.29825 0
M  V30 1293 H 124.01 5.12433 -1.9923 0
M  V30 1294 H 125.235 6.35614 -2.39107 0
M  V30 1295 H 123.181 6.55814 -0.156162 0
M  V30 1296 H 123.098 7.36977 -1.68526 0
M  V30 1297 H 124.366 7.77435 -0.567032 0
M  V30 1298 N 128.595 0.856903 1.32268 0
M  V30 1299 C 129.525 0.31858 2.31316 0
M  V30 1300 C 130.506 -0.583487 1.59779 0
M  V30 1301 O 131.691 -0.503259 1.87566 0
M  V30 1302 C 128.821 -0.491979 3.43798 0
M  V30 1303 C 127.775 0.315849 4.26833 0
M  V30 1304 C 127.101 -0.619586 5.31098 0
M  V30 1305 C 128.401 1.54282 4.98993 0
M  V30 1306 H 130.095 1.14621 2.76591 0
M  V30 1307 H 127.641 0.552613 1.32974 0
M  V30 1308 H 129.594 -0.879012 4.1213 0
M  V30 1309 H 128.318 -1.35299 2.97257 0
M  V30 1310 H 126.977 0.684664 3.6015 0
M  V30 1311 H 126.625 -1.47751 4.8081 0
M  V30 1312 H 126.325 -0.0830621 5.87541 0
M  V30 1313 H 127.849 -1.00375 6.02293 0
M  V30 1314 H 129.263 1.22796 5.59995 0
M  V30 1315 H 127.66 2.01745 5.65172 0
M  V30 1316 H 128.73 2.30285 4.26728 0
M  V30 1317 N 130.073 -1.45103 0.615059 0
M  V30 1318 C 131.32 -2.02183 0.113179 0
M  V30 1319 C 131.648 -1.48249 -1.25906 0
M  V30 1320 O 130.903 -0.650265 -1.84581 0
M  V30 1321 C 131.202 -3.57386 0.0318797 0
M  V30 1322 C 130.868 -4.30505 1.34077 0
M  V30 1323 C 129.53 -4.50197 1.69929 0
M  V30 1324 C 131.882 -4.72238 2.20546 0
M  V30 1325 C 129.21 -5.08881 2.91988 0
M  V30 1326 C 131.562 -5.32272 3.41861 0
M  V30 1327 C 130.226 -5.50187 3.77956 0
M  V30 1328 H 129.496 -0.739842 0.0414151 0
M  V30 1329 H 132.143 -1.74073 0.798168 0
M  V30 1330 H 130.448 -3.84817 -0.736409 0
M  V30 1331 H 132.145 -3.99264 -0.372712 0
M  V30 1332 H 128.735 -4.15496 1.05173 0
M  V30 1333 H 132.919 -4.56751 1.94146 0
M  V30 1334 H 128.175 -5.20939 3.2005 0
M  V30 1335 H 132.349 -5.63563 4.09109 0
M  V30 1336 H 129.976 -5.95427 4.72622 0
M  V30 1337 N 131.551 -0.354651 -1.53558 0
M  V30 1338 C 132.779 0.239515 -2.05509 0
M  V30 1339 C 133.194 1.4333 -1.2289 0
M  V30 1340 O 132.551 1.80538 -0.266899 0
M  V30 1341 C 132.602 0.643719 -3.55723 0
M  V30 1342 O 132.323 -0.502602 -4.35207 0
M  V30 1343 C 133.824 1.29743 -4.23889 0
M  V30 1344 H 131.044 0.0442697 -0.669538 0
M  V30 1345 H 133.588 -0.509856 -1.98042 0
M  V30 1346 H 131.743 1.34302 -3.63376 0
M  V30 1347 H 132.157 -0.178172 -5.24197 0
M  V30 1348 H 133.631 1.53091 -5.30346 0
M  V30 1349 H 134.108 2.25441 -3.76926 0
M  V30 1350 H 134.714 0.639865 -4.20459 0
M  V30 1351 N 133.029 1.57378 -0.0835403 0
M  V30 1352 C 134.275 1.94217 0.583733 0
M  V30 1353 C 134.608 0.964653 1.68547 0
M  V30 1354 O 133.883 -0.00422258 1.945 0
M  V30 1355 C 134.166 3.41253 1.14972 0
M  V30 1356 C 134.019 4.49768 0.0538277 0
M  V30 1357 C 135.338 3.89352 2.05166 0
M  V30 1358 H 132.457 0.706233 0.210724 0
M  V30 1359 H 135.099 1.89392 -0.1519 0
M  V30 1360 H 133.249 3.45496 1.77665 0
M  V30 1361 H 134.921 4.57641 -0.579851 0
M  V30 1362 H 133.164 4.29432 -0.614068 0
M  V30 1363 H 133.835 5.49817 0.490452 0
M  V30 1364 H 136.311 3.87189 1.52393 0
M  V30 1365 H 135.187 4.92822 2.41698 0
M  V30 1366 H 135.448 3.27973 2.96456 0
M  V30 1367 N 134.507 -0.190092 1.56449 0
M  V30 1368 C 135.753 -0.911052 1.81184 0
M  V30 1369 C 136.086 -1.82699 0.658396 0
M  V30 1370 O 135.361 -1.91491 -0.340775 0
M  V30 1371 C 135.644 -1.72297 3.16205 0
M  V30 1372 C 135.497 -0.831419 4.42049 0
M  V30 1373 C 136.816 -2.69454 3.47969 0
M  V30 1374 H 133.935 -0.32977 0.659106 0
M  V30 1375 H 136.577 -0.178169 1.89163 0
M  V30 1376 H 134.727 -2.34778 3.09534 0
M  V30 1377 H 136.399 -0.220929 4.60771 0
M  V30 1378 H 134.642 -0.138406 4.33579 0
M  V30 1379 H 135.313 -1.43461 5.33032 0
M  V30 1380 H 137.789 -2.17104 3.54972 0
M  V30 1381 H 136.665 -3.23342 4.43555 0
M  V30 1382 H 136.926 -3.48744 2.71717 0
M  V30 1383 N 135.985 -1.50799 -0.457987 0
M  V30 1384 C 136.948 -1.7005 -1.53674 0
M  V30 1385 C 137.948 -0.570881 -1.50325 0
M  V30 1386 O 139.138 -0.838126 -1.52712 0
M  V30 1387 C 136.27 -1.73788 -2.93276 0
M  V30 1388 H 137.463 -2.66306 -1.37917 0
M  V30 1389 H 135.016 -1.40477 -0.685271 0
M  V30 1390 H 135.751 -0.792717 -3.14462 0
M  V30 1391 H 135.536 -2.55864 -2.97113 0
M  V30 1392 H 137.026 -1.90591 -3.71571 0
M  V30 1393 N 137.463 0.71206 -1.40597 0
M  V30 1394 C 138.709 1.47292 -1.40274 0
M  V30 1395 C 139.064 1.92399 -0.00576812 0
M  V30 1396 O 138.357 1.65507 0.965297 0
M  V30 1397 C 138.551 2.71039 -2.32965 0
M  V30 1398 C 138.38 2.38035 -3.81536 0
M  V30 1399 C 137.15 2.29203 -4.50327 0
M  V30 1400 C 139.348 2.02076 -4.72938 0
M  V30 1401 N 137.33 1.88911 -5.84111 0
M  V30 1402 C 138.701 1.72412 -5.95545 0
M  V30 1403 C 140.756 1.88742 -4.60739 0
M  V30 1404 C 139.459 1.30756 -7.07316 0
M  V30 1405 C 141.485 1.4849 -5.72455 0
M  V30 1406 C 140.847 1.19726 -6.94151 0
M  V30 1407 H 136.946 0.536919 -0.568544 0
M  V30 1408 H 139.53 0.825424 -1.76337 0
M  V30 1409 H 137.701 3.33533 -1.99023 0
M  V30 1410 H 139.433 3.37404 -2.23474 0
M  V30 1411 H 136.188 2.47059 -4.04053 0
M  V30 1412 H 136.612 1.71293 -6.54972 0
M  V30 1413 H 141.254 2.0964 -3.67166 0
M  V30 1414 H 138.972 1.08601 -8.00769 0
M  V30 1415 H 142.558 1.38747 -5.65014 0
M  V30 1416 H 141.438 0.890482 -7.79128 0
M  V30 1417 N 138.941 1.26152 0.944643 0
M  V30 1418 C 140.218 1.02247 1.66748 0
M  V30 1419 C 140.598 -0.448202 2.06287 0
M  V30 1420 O 139.946 -1.42779 1.78399 0
M  V30 1421 C 140.156 1.96788 2.88228 0
M  V30 1422 C 141.504 2.25201 3.59958 0
M  V30 1423 O 142.528 1.94626 2.98327 0
M  V30 1424 O 141.387 2.77242 4.70956 0
M  V30 1425 H 138.481 0.388517 0.730057 0
M  V30 1426 H 141.027 1.37348 0.99668 0
M  V30 1427 H 139.799 2.96047 2.55875 0
M  V30 1428 H 139.422 1.62145 3.63035 0
M  V30 1429 N 140.419 -1.14872 1.07899 0
M  V30 1430 C 141.83 -1.67367 0.827363 0
M  V30 1431 C 142.181 -1.85236 -0.646693 0
M  V30 1432 O 141.306 -1.55974 -1.50004 0
M  V30 1433 C 141.901 -3.04016 1.49532 0
M  V30 1434 C 140.46 -3.53566 1.29106 0
M  V30 1435 C 139.607 -2.29161 1.56143 0
M  V30 1436 H 142.558 -0.990083 1.24028 0
M  V30 1437 H 142.579 -3.69219 0.919643 0
M  V30 1438 H 142.091 -2.90978 2.56814 0
M  V30 1439 H 140.192 -3.71835 0.238713 0
M  V30 1440 H 140.305 -4.34661 2.01511 0
M  V30 1441 H 138.669 -2.34978 0.982717 0
M  V30 1442 H 139.452 -2.18705 2.64619 0
M  V30 1443 N 141.898 -0.863906 -1.31812 0
M  V30 1444 C 143.314 -0.555004 -1.49639 0
M  V30 1445 C 143.514 0.912266 -1.79666 0
M  V30 1446 O 142.57 1.69479 -1.87171 0
M  V30 1447 C 143.883 -1.44998 -2.63431 0
M  V30 1448 C 145.431 -1.45138 -2.77316 0
M  V30 1449 C 145.906 -2.33179 -3.94197 0
M  V30 1450 N 147.397 -2.31025 -4.01474 0
M  V30 1451 C 148.132 -2.95871 -4.9117 0
M  V30 1452 N 147.628 -3.69863 -5.8581 0
M  V30 1453 N 149.421 -2.85211 -4.84367 0
M  V30 1454 H 141.572 -1.81339 -1.10589 0
M  V30 1455 H 143.835 -0.77505 -0.545895 0
M  V30 1456 H 143.541 -2.49377 -2.48 0
M  V30 1457 H 143.415 -1.14409 -3.59431 0
M  V30 1458 H 145.802 -0.415201 -2.92164 0
M  V30 1459 H 145.883 -1.79747 -1.82001 0
M  V30 1460 H 145.527 -3.3687 -3.80107 0
M  V30 1461 H 145.457 -1.95897 -4.88807 0
M  V30 1462 H 147.948 -1.77238 -3.33759 0
M  V30 1463 H 148.261 -4.16486 -6.50968 0
M  V30 1464 H 146.606 -3.73971 -5.85808 0
M  V30 1465 H 149.797 -2.26948 -4.09405 0
M  V30 1466 H 149.97 -3.36027 -5.54066 0
M  V30 1467 N 143.376 1.44774 -0.622745 0
M  V30 1468 C 144.624 2.01721 -0.123655 0
M  V30 1469 C 144.945 1.49172 1.25589 0
M  V30 1470 O 144.215 0.691974 1.83272 0
M  V30 1471 H 142.795 0.745777 -0.0427225 0
M  V30 1472 H 145.457 1.77382 -0.807559 0
M  V30 1473 H 144.553 3.11984 -0.0849534 0
M  V30 1474 N 144.854 0.36279 1.53368 0
M  V30 1475 C 146.084 -0.228281 2.05335 0
M  V30 1476 C 146.492 -1.43226 1.23625 0
M  V30 1477 O 145.835 -1.81717 0.269206 0
M  V30 1478 C 145.897 -0.688549 3.52845 0
M  V30 1479 C 145.561 0.398362 4.5526 0
M  V30 1480 C 146.558 1.24732 5.04716 0
M  V30 1481 C 144.243 0.557805 4.99193 0
M  V30 1482 C 146.237 2.2411 5.96702 0
M  V30 1483 C 143.924 1.55495 5.90986 0
M  V30 1484 C 144.922 2.39503 6.39631 0
M  V30 1485 O 144.61 3.37517 7.29615 0
M  V30 1486 H 144.342 -0.044395 0.674541 0
M  V30 1487 H 146.896 0.518668 1.98744 0
M  V30 1488 H 145.126 -1.48706 3.56964 0
M  V30 1489 H 146.815 -1.20231 3.87685 0
M  V30 1490 H 147.581 1.13532 4.71525 0
M  V30 1491 H 143.46 -0.0862959 4.60919 0
M  V30 1492 H 147.004 2.89718 6.34594 0
M  V30 1493 H 142.901 1.66744 6.23592 0
M  V30 1494 H 143.669 3.33213 7.47604 0
M  V30 1495 N 146.332 -1.57332 0.0918853 0
M  V30 1496 C 147.58 -1.93853 -0.571446 0
M  V30 1497 C 147.901 -0.974212 -1.6892 0
M  V30 1498 O 147.171 -0.0257254 -1.95883 0
M  V30 1499 H 145.751 -0.715666 -0.214082 0
M  V30 1500 H 148.413 -1.94287 0.154464 0
M  V30 1501 H 147.509 -2.96191 -0.983729 0
M  V30 1502 N 147.81 0.181792 -1.56548 0
M  V30 1503 C 148.76 1.22961 -1.92002 0
M  V30 1504 C 149.744 1.40331 -0.787146 0
M  V30 1505 O 150.936 1.42478 -1.05019 0
M  V30 1506 C 148.065 2.57144 -2.27446 0
M  V30 1507 C 147.151 2.43512 -3.47222 0
M  V30 1508 N 147.542 1.99577 -4.64761 0
M  V30 1509 C 145.84 2.74368 -3.51622 0
M  V30 1510 C 146.541 1.98156 -5.46909 0
M  V30 1511 N 145.517 2.40164 -4.8767 0
M  V30 1512 H 149.319 0.881462 -2.8037 0
M  V30 1513 H 146.833 0.390141 -1.57644 0
M  V30 1514 H 148.83 3.32847 -2.51035 0
M  V30 1515 H 147.49 2.92771 -1.40411 0
M  V30 1516 H 148.501 1.70078 -4.89177 0
M  V30 1517 H 145.178 3.14102 -2.75038 0
M  V30 1518 H 146.568 1.65975 -6.51077 0
M  V30 1519 N 149.288 1.51039 0.449983 0
M  V30 1520 C 150.513 1.6715 1.22783 0
M  V30 1521 C 150.938 0.363081 1.84563 0
M  V30 1522 O 150.296 -0.675433 1.68249 0
M  V30 1523 C 150.344 2.77985 2.29689 0
M  V30 1524 O 149.448 2.40707 3.34864 0
M  V30 1525 H 148.789 0.557746 0.360299 0
M  V30 1526 H 151.319 1.97535 0.533005 0
M  V30 1527 H 151.329 3.01693 2.74673 0
M  V30 1528 H 150.004 3.72935 1.84098 0
M  V30 1529 H 148.581 2.27523 2.95445 0
M  V30 1530 N 150.766 -0.704594 1.40972 0
M  V30 1531 C 152.182 -1.01406 1.23244 0
M  V30 1532 C 152.382 -2.01169 0.115399 0
M  V30 1533 O 151.438 -2.47021 -0.523147 0
M  V30 1534 C 152.751 -1.54728 2.57836 0
M  V30 1535 C 154.299 -1.66658 2.64942 0
M  V30 1536 C 154.774 -2.23383 3.9983 0
M  V30 1537 N 156.265 -2.30756 4.01629 0
M  V30 1538 C 157 -2.75655 5.02794 0
M  V30 1539 N 156.496 -3.20225 6.14352 0
M  V30 1540 N 158.289 -2.75138 4.90159 0
M  V30 1541 H 150.44 -0.0435285 2.12355 0
M  V30 1542 H 152.703 -0.0818951 0.944456 0
M  V30 1543 H 152.409 -0.888832 3.40283 0
M  V30 1544 H 152.283 -2.53084 2.79693 0
M  V30 1545 H 154.67 -2.31617 1.8286 0
M  V30 1546 H 154.751 -0.668717 2.46904 0
M  V30 1547 H 154.395 -1.59043 4.82357 0
M  V30 1548 H 154.325 -3.23904 4.15203 0
M  V30 1549 H 156.816 -1.99291 3.21079 0
M  V30 1550 H 157.129 -3.53084 6.87424 0
M  V30 1551 H 155.474 -3.18156 6.17901 0
M  V30 1552 H 158.665 -2.39661 4.02095 0
M  V30 1553 H 158.838 -3.09812 5.6914 0
M  V30 1554 N 152.244 -1.26651 -0.937939 0
M  V30 1555 C 153.655 -1.1125 -1.49934 0
M  V30 1556 C 154.006 0.306077 -1.93798 0
M  V30 1557 O 153.131 1.19792 -1.80219 0
M  V30 1558 C 153.726 -2.01339 -2.72485 0
M  V30 1559 C 152.285 -1.90074 -3.24883 0
M  V30 1560 C 151.432 -1.94498 -1.97651 0
M  V30 1561 H 154.383 -1.39693 -0.753091 0
M  V30 1562 H 154.404 -1.56319 -3.46907 0
M  V30 1563 H 153.916 -3.04577 -2.40529 0
M  V30 1564 H 152.017 -0.897827 -3.61621 0
M  V30 1565 H 152.13 -2.75778 -3.9177 0
M  V30 1566 H 150.494 -1.38591 -2.13693 0
M  V30 1567 H 151.277 -2.99372 -1.68022 0
M  V30 1568 N 153.722 1.14298 -1.08507 0
M  V30 1569 C 155.133 1.66926 -0.836227 0
M  V30 1570 C 155.484 1.85576 0.63686 0
M  V30 1571 O 154.609 1.56767 1.49175 0
M  V30 1572 C 155.204 3.03219 -1.51142 0
M  V30 1573 C 153.763 3.52876 -1.30979 0
M  V30 1574 C 152.91 2.2833 -1.57356 0
M  V30 1575 H 155.861 0.983491 -1.24552 0
M  V30 1576 H 155.882 3.68726 -0.939211 0
M  V30 1577 H 155.394 2.89612 -2.58353 0
M  V30 1578 H 153.495 3.71703 -0.258429 0
M  V30 1579 H 153.608 4.33586 -2.03814 0
M  V30 1580 H 151.972 2.34454 -0.995164 0
M  V30 1581 H 152.755 2.17298 -2.65775 0
M  V30 1582 N 155.201 0.870884 1.31352 0
M  V30 1583 C 156.478 0.402907 1.91405 0
M  V30 1584 C 156.858 -1.11512 1.79244 0
M  V30 1585 O 156.206 -1.94411 1.2007 0
M  V30 1586 C 156.416 0.885301 3.37585 0
M  V30 1587 C 157.764 0.911971 4.14691 0
M  V30 1588 O 158.788 0.831016 3.46371 0
M  V30 1589 O 157.647 1.02927 5.3672 0
M  V30 1590 H 154.741 0.120698 0.818145 0
M  V30 1591 H 157.287 0.958857 1.40014 0
M  V30 1592 H 156.059 1.92889 3.40455 0
M  V30 1593 H 155.682 0.307714 3.96407 0
M  V30 1594 N 156.679 -1.44442 0.630414 0
M  V30 1595 C 158.095 -1.56832 0.295973 0
M  V30 1596 C 158.295 -1.61806 -1.20088 0
M  V30 1597 O 157.351 -1.5607 -1.9849 0
M  V30 1598 C 158.664 -2.84031 0.987264 0
M  V30 1599 C 160.212 -2.97742 0.96534 0
M  V30 1600 C 160.687 -4.27743 1.63708 0
M  V30 1601 N 162.178 -4.34555 1.60364 0
M  V30 1602 C 162.913 -5.33862 2.09234 0
M  V30 1603 N 162.409 -6.39578 2.66292 0
M  V30 1604 N 164.202 -5.25366 1.99867 0
M  V30 1605 H 156.353 -1.39457 1.60205 0
M  V30 1606 H 158.616 -0.668237 0.672431 0
M  V30 1607 H 158.322 -2.86338 2.04215 0
M  V30 1608 H 158.196 -3.73534 0.524588 0
M  V30 1609 H 160.583 -2.94989 -0.0810639 0
M  V30 1610 H 160.664 -2.09589 1.4665 0
M  V30 1611 H 160.308 -4.31255 2.68293 0
M  V30 1612 H 160.238 -5.14752 1.11076 0
M  V30 1613 H 162.729 -3.58772 1.18705 0
M  V30 1614 H 163.042 -7.11637 3.01317 0
M  V30 1615 H 161.387 -6.40265 2.70343 0
M  V30 1616 H 164.578 -4.41688 1.55013 0
M  V30 1617 H 164.751 -6.02606 2.38265 0
M  V30 1618 N 158.157 -0.370918 -1.53173 0
M  V30 1619 C 159.434 0.273754 -1.93675 0
M  V30 1620 C 159.814 1.65938 -1.3049 0
M  V30 1621 O 159.162 2.23698 -0.465999 0
M  V30 1622 C 159.372 0.318602 -3.47543 0
M  V30 1623 C 160.72 0.556392 -4.20939 0
M  V30 1624 O 161.744 0.399587 -3.53952 0
M  V30 1625 O 160.603 0.862133 -5.39657 0
M  V30 1626 H 157.697 0.165448 -0.810281 0
M  V30 1627 H 160.243 -0.42409 -1.64315 0
M  V30 1628 H 159.015 -0.652687 -3.85818 0
M  V30 1629 H 158.638 1.06212 -3.83151 0
M  V30 1630 N 159.635 1.57281 -0.100228 0
M  V30 1631 C 160.882 1.94537 0.562268 0
M  V30 1632 C 161.21 0.982315 1.67871 0
M  V30 1633 O 160.465 0.00280936 1.957 0
M  V30 1634 C 160.764 3.38305 1.15259 0
M  V30 1635 C 160.43 4.50618 0.159409 0
M  V30 1636 C 159.092 4.81066 -0.113741 0
M  V30 1637 C 161.444 5.18615 -0.518461 0
M  V30 1638 C 158.772 5.76835 -1.07137 0
M  V30 1639 C 161.124 6.15412 -1.46459 0
M  V30 1640 C 159.788 6.44262 -1.74592 0
M  V30 1641 H 159.058 0.711863 0.205748 0
M  V30 1642 H 161.705 1.90679 -0.17715 0
M  V30 1643 H 160.01 3.38766 1.96836 0
M  V30 1644 H 161.707 3.64435 1.67297 0
M  V30 1645 H 158.297 4.2689 0.382491 0
M  V30 1646 H 162.481 4.95264 -0.320581 0
M  V30 1647 H 157.737 5.975 -1.29628 0
M  V30 1648 H 161.911 6.67194 -1.99564 0
M  V30 1649 H 159.538 7.1828 -2.48953 0
M  V30 1650 N 161.113 -0.173488 1.56642 0
M  V30 1651 C 162.524 -0.736155 1.71574 0
M  V30 1652 C 162.875 -1.82888 0.710389 0
M  V30 1653 O 162 -2.16017 -0.1287 0
M  V30 1654 C 162.595 -1.34211 3.11083 0
M  V30 1655 C 161.154 -1.85162 3.27707 0
M  V30 1656 C 160.301 -0.729765 2.67525 0
M  V30 1657 H 163.252 0.0518786 1.58615 0
M  V30 1658 H 163.273 -2.21178 3.09613 0
M  V30 1659 H 162.785 -0.546579 3.84232 0
M  V30 1660 H 160.886 -2.67366 2.59512 0
M  V30 1661 H 160.999 -1.99855 4.35425 0
M  V30 1662 H 159.363 -1.14965 2.27278 0
M  V30 1663 H 160.146 0.0538806 3.43258 0
M  V30 1664 N 162.591 -1.51276 -0.441967 0
M  V30 1665 C 163.554 -1.7167 -1.51862 0
M  V30 1666 C 164.554 -0.586793 -1.49711 0
M  V30 1667 O 165.744 -0.854276 -1.51815 0
M  V30 1668 C 162.876 -1.76889 -2.91416 0
M  V30 1669 H 164.069 -2.67754 -1.35084 0
M  V30 1670 H 161.622 -1.41196 -0.670333 0
M  V30 1671 H 162.357 -0.826026 -3.13604 0
M  V30 1672 H 162.142 -2.59001 -2.94382 0
M  V30 1673 H 163.632 -1.94522 -3.69528 0
M  V30 1674 N 164.069 0.697108 -1.41344 0
M  V30 1675 C 165.346 1.45154 -1.31109 0
M  V30 1676 C 165.726 2.11009 0.0620449 0
M  V30 1677 O 165.074 2.01571 1.07618 0
M  V30 1678 C 165.284 2.47223 -2.46337 0
M  V30 1679 C 166.632 3.1252 -2.87431 0
M  V30 1680 O 167.656 2.57547 -2.46065 0
M  V30 1681 O 166.515 4.12083 -3.58957 0
M  V30 1682 H 163.609 0.646365 -0.515889 0
M  V30 1683 H 166.155 0.727716 -1.53305 0
M  V30 1684 H 164.927 1.97204 -3.37974 0
M  V30 1685 H 164.55 3.27116 -2.2601 0
M  V30 1686 N 165.547 1.27147 0.931209 0
M  V30 1687 C 166.794 1.13278 1.67852 0
M  V30 1688 C 167.122 -0.32204 1.91815 0
M  V30 1689 O 166.377 -1.25224 1.50391 0
M  V30 1690 C 166.676 1.8579 3.05314 0
M  V30 1691 C 166.342 3.35657 3.01073 0
M  V30 1692 C 165.004 3.76536 2.99623 0
M  V30 1693 C 167.356 4.31299 2.92627 0
M  V30 1694 C 164.684 5.11426 2.87506 0
M  V30 1695 C 167.036 5.66242 2.82051 0
M  V30 1696 C 165.7 6.06418 2.7895 0
M  V30 1697 H 164.97 0.414515 0.614214 0
M  V30 1698 H 167.617 1.57712 1.08624 0
M  V30 1699 H 165.922 1.33854 3.68226 0
M  V30 1700 H 167.619 1.72491 3.62005 0
M  V30 1701 H 164.209 3.03146 3.02986 0
M  V30 1702 H 168.393 4.00692 2.92848 0
M  V30 1703 H 163.649 5.41705 2.83489 0
M  V30 1704 H 167.823 6.40026 2.74481 0
M  V30 1705 H 165.45 7.10895 2.69318 0
M  V30 1706 N 167.025 -1.13721 1.09112 0
M  V30 1707 C 168.272 -1.84924 0.825192 0
M  V30 1708 C 168.6 -1.83347 -0.649151 0
M  V30 1709 O 167.855 -1.26449 -1.49362 0
M  V30 1710 C 168.154 -3.32861 1.30146 0
M  V30 1711 C 167.82 -3.54621 2.78486 0
M  V30 1712 C 166.482 -3.60268 3.18999 0
M  V30 1713 C 168.834 -3.62855 3.74146 0
M  V30 1714 C 166.162 -3.71679 4.53951 0
M  V30 1715 C 168.514 -3.75793 5.08883 0
M  V30 1716 C 167.178 -3.79692 5.4899 0
M  V30 1717 H 166.448 -0.676684 0.301959 0
M  V30 1718 H 169.095 -1.3428 1.36533 0
M  V30 1719 H 167.4 -3.85835 0.681064 0
M  V30 1720 H 169.097 -3.86395 1.07236 0
M  V30 1721 H 165.687 -3.50879 2.46134 0
M  V30 1722 H 169.871 -3.57775 3.43963 0
M  V30 1723 H 165.127 -3.72963 4.84467 0
M  V30 1724 H 169.301 -3.81107 5.82864 0
M  V30 1725 H 166.928 -3.88287 6.53558 0
M  V30 1726 N 168.503 -0.877838 -1.30888 0
M  V30 1727 C 169.413 -0.343096 -2.32078 0
M  V30 1728 C 170.429 0.551022 -1.65045 0
M  V30 1729 O 171.605 0.445854 -1.96403 0
M  V30 1730 C 168.67 0.439905 -3.43898 0
M  V30 1731 C 167.731 -0.483111 -4.26573 0
M  V30 1732 C 166.964 0.262616 -5.33053 0
M  V30 1733 O 167.187 1.48967 -5.50604 0
M  V30 1734 O 166.121 -0.383593 -6.00676 0
M  V30 1735 H 169.947 -1.18203 -2.79753 0
M  V30 1736 H 167.532 -0.64145 -1.34929 0
M  V30 1737 H 169.414 0.883504 -4.12034 0
M  V30 1738 H 168.089 1.25526 -2.98371 0
M  V30 1739 H 166.996 -0.975374 -3.61161 0
M  V30 1740 H 168.329 -1.26427 -4.75686 0
M  V30 1741 N 169.982 1.44106 -0.638065 0
M  V30 1742 C 171.398 1.56672 -0.304286 0
M  V30 1743 C 171.598 1.6244 1.19228 0
M  V30 1744 O 170.654 1.57121 1.9766 0
M  V30 1745 C 171.967 2.83503 -1.00231 0
M  V30 1746 C 173.515 2.97226 -0.981116 0
M  V30 1747 C 173.99 4.26868 -1.65974 0
M  V30 1748 N 175.481 4.33698 -1.62666 0
M  V30 1749 C 176.216 5.32745 -2.12063 0
M  V30 1750 N 175.712 6.38157 -2.6968 0
M  V30 1751 N 177.505 5.24299 -2.02651 0
M  V30 1752 H 169.656 1.38605 -1.60942 0
M  V30 1753 H 171.919 0.664661 -0.675965 0
M  V30 1754 H 171.625 2.85251 -2.0573 0
M  V30 1755 H 171.499 3.73251 -0.54439 0
M  V30 1756 H 173.886 2.95027 0.0654188 0
M  V30 1757 H 173.967 2.08808 -1.47759 0
M  V30 1758 H 173.611 4.29826 -2.70576 0
M  V30 1759 H 173.541 5.14156 -1.13804 0
M  V30 1760 H 176.032 3.58138 -1.20606 0
M  V30 1761 H 176.345 7.10029 -3.05087 0
M  V30 1762 H 174.69 6.38823 -2.73734 0
M  V30 1763 H 177.881 4.4086 -1.57353 0
M  V30 1764 H 178.054 6.01334 -2.41457 0
M  V30 1765 N 171.46 0.379036 1.52974 0
M  V30 1766 C 172.737 -0.263479 1.93817 0
M  V30 1767 C 173.117 -1.65244 1.31368 0
M  V30 1768 O 172.465 -2.23448 0.477856 0
M  V30 1769 C 172.675 -0.300166 3.47707 0
M  V30 1770 C 174.023 -0.534061 4.21228 0
M  V30 1771 O 175.047 -0.38081 3.54159 0
M  V30 1772 O 173.906 -0.833501 5.40106 0
M  V30 1773 H 171 -0.161149 0.811147 0
M  V30 1774 H 173.546 0.432798 1.64088 0
M  V30 1775 H 172.318 0.673138 3.85467 0
M  V30 1776 H 171.941 -1.04179 3.83709 0
M  V30 1777 N 172.938 -1.57226 0.108567 0
M  V30 1778 C 173.901 -2.13602 -0.831082 0
M  V30 1779 C 174.901 -1.06841 -1.20173 0
M  V30 1780 O 176.091 -1.32666 -1.12895 0
M  V30 1781 C 173.223 -2.66769 -2.12243 0
M  V30 1782 H 174.416 -2.97951 -0.341317 0
M  V30 1783 H 171.969 -1.55667 -0.14057 0
M  V30 1784 H 172.704 -1.85977 -2.65675 0
M  V30 1785 H 172.489 -3.44839 -1.86625 0
M  V30 1786 H 173.979 -3.10332 -2.79435 0
M  V30 1787 N 174.416 0.165178 -1.56732 0
M  V30 1788 C 175.363 1.2044 -1.96883 0
M  V30 1789 C 176.333 1.43664 -0.833657 0
M  V30 1790 O 177.518 1.56302 -1.09427 0
M  V30 1791 C 174.658 2.53727 -2.33916 0
M  V30 1792 C 173.771 2.3783 -3.6064 0
M  V30 1793 C 172.906 3.64026 -3.86857 0
M  V30 1794 C 171.945 3.43088 -5.06909 0
M  V30 1795 N 171.082 4.61369 -5.29229 0
M  V30 1796 H 175.922 0.854996 -2.85471 0
M  V30 1797 H 173.459 0.41076 -1.41249 0
M  V30 1798 H 175.417 3.31419 -2.53411 0
M  V30 1799 H 174.047 2.8665 -1.48431 0
M  V30 1800 H 173.099 1.51282 -3.49024 0
M  V30 1801 H 174.411 2.18308 -4.4849 0
M  V30 1802 H 173.565 4.50152 -4.06753 0
M  V30 1803 H 172.304 3.86533 -2.97394 0
M  V30 1804 H 171.309 2.55349 -4.86906 0
M  V30 1805 H 172.534 3.21997 -5.97909 0
M  V30 1806 H 170.48 4.84084 -4.42718 0
M  V30 1807 H 170.397 4.44783 -6.11313 0
M  V30 1808 H 171.665 5.48761 -5.53608 0
M  V30 1809 N 175.894 1.51508 0.433938 0
M  V30 1810 C 177.171 1.54888 1.19453 0
M  V30 1811 C 177.551 0.315154 2.08734 0
M  V30 1812 O 176.899 -0.699558 2.17528 0
M  V30 1813 C 177.109 2.86467 1.99342 0
M  V30 1814 C 178.457 3.38545 2.56267 0
M  V30 1815 O 179.481 2.88041 2.0955 0
M  V30 1816 O 178.34 4.26675 3.41483 0
M  V30 1817 H 175.434 0.622863 0.544032 0
M  V30 1818 H 177.98 1.63823 0.442732 0
M  V30 1819 H 176.752 3.67718 1.33788 0
M  V30 1820 H 176.375 2.8071 2.8158 0
M  V30 1821 N 177.372 -0.689602 1.41712 0
M  V30 1822 C 178.335 -1.78521 1.43746 0
M  V30 1823 C 179.335 -1.57436 0.327191 0
M  V30 1824 O 180.525 -1.64 0.587348 0
M  V30 1825 C 177.657 -3.16971 1.25467 0
M  V30 1826 H 178.85 -1.78108 2.41283 0
M  V30 1827 H 176.403 -0.89781 1.27942 0
M  V30 1828 H 177.138 -3.23019 0.287948 0
M  V30 1829 H 176.923 -3.33678 2.05917 0
M  V30 1830 H 178.413 -3.96935 1.2974 0
M  V30 1831 N 178.85 -1.27639 -0.924453 0
M  V30 1832 C 180.096 -1.14336 -1.67497 0
M  V30 1833 C 180.429 0.309465 -1.91718 0
M  V30 1834 O 179.704 1.22608 -1.50989 0
M  V30 1835 C 179.987 -1.93096 -3.0395 0
M  V30 1836 C 179.84 -3.46381 -2.8695 0
M  V30 1837 C 181.159 -1.73798 -4.0433 0
M  V30 1838 H 178.278 -0.416728 -0.607871 0
M  V30 1839 H 180.92 -1.56832 -1.07256 0
M  V30 1840 H 179.07 -1.56982 -3.55372 0
M  V30 1841 H 180.742 -3.92343 -2.42621 0
M  V30 1842 H 178.985 -3.72557 -2.22225 0
M  V30 1843 H 179.656 -3.96735 -3.83804 0
M  V30 1844 H 182.132 -2.05293 -3.61931 0
M  V30 1845 H 181.008 -2.31294 -4.97789 0
M  V30 1846 H 181.269 -0.686725 -4.36734 0
M  V30 1847 N 180.328 1.1314 -1.09713 0
M  V30 1848 C 181.605 1.80762 -0.747302 0
M  V30 1849 C 181.985 1.96663 0.767265 0
M  V30 1850 O 181.333 1.53706 1.69076 0
M  V30 1851 C 181.543 3.15606 -1.48975 0
M  V30 1852 C 182.891 3.90914 -1.65746 0
M  V30 1853 O 183.915 3.25239 -1.45251 0
M  V30 1854 O 182.774 5.08718 -1.9967 0
M  V30 1855 H 179.868 0.782103 -0.268782 0
M  V30 1856 H 182.414 1.20041 -1.19951 0
M  V30 1857 H 181.186 2.99278 -2.52088 0
M  V30 1858 H 180.809 3.84029 -1.02991 0
M  V30 1859 N 181.806 0.884767 1.30421 0
M  V30 1860 C 182.736 0.367574 2.30589 0
M  V30 1861 C 183.717 -0.549464 1.60981 0
M  V30 1862 O 184.902 -0.46336 1.88591 0
M  V30 1863 C 182.032 -0.418944 3.44764 0
M  V30 1864 C 180.986 0.406316 4.26067 0
M  V30 1865 C 180.312 -0.506793 5.32293 0
M  V30 1866 C 181.612 1.64832 4.95608 0
M  V30 1867 H 183.306 1.20462 2.74097 0
M  V30 1868 H 180.852 0.580695 1.31772 0
M  V30 1869 H 182.805 -0.791395 4.13902 0
M  V30 1870 H 181.529 -1.28964 3.0006 0
M  V30 1871 H 180.188 0.760903 3.58617 0
M  V30 1872 H 179.836 -1.37519 4.83836 0
M  V30 1873 H 179.536 0.0415828 5.87585 0
M  V30 1874 H 181.06 -0.875764 6.04287 0
M  V30 1875 H 182.474 1.34646 5.57264 0
M  V30 1876 H 180.871 2.13688 5.60765 0
M  V30 1877 H 181.941 2.39284 4.21748 0
M  V30 1878 N 183.284 -1.43765 0.645699 0
M  V30 1879 C 184.217 -2.2798 -0.100072 0
M  V30 1880 C 185.195 -1.39391 -0.837194 0
M  V30 1881 O 186.379 -1.68833 -0.838306 0
M  V30 1882 C 183.506 -3.18643 -1.14823 0
M  V30 1883 C 182.552 -4.2344 -0.510009 0
M  V30 1884 S 183.385 -5.30761 0.710824 0
M  V30 1885 C 184.541 -6.24992 -0.33699 0
M  V30 1886 H 184.774 -2.90884 0.614322 0
M  V30 1887 H 182.307 -1.48166 0.434304 0
M  V30 1888 H 184.265 -3.71424 -1.74799 0
M  V30 1889 H 182.926 -2.54932 -1.8349 0
M  V30 1890 H 182.119 -4.86948 -1.29991 0
M  V30 1891 H 181.721 -3.73997 0.0154577 0
M  V30 1892 H 184.013 -6.66691 -1.20537 0
M  V30 1893 H 184.956 -7.07612 0.262879 0
M  V30 1894 H 185.364 -5.60517 -0.669425 0
M  V30 1895 N 184.763 -0.387143 -1.52771 0
M  V30 1896 C 185.71 0.449048 -2.26389 0
M  V30 1897 C 186.68 1.05961 -1.27912 0
M  V30 1898 O 187.865 1.08804 -1.56737 0
M  V30 1899 C 185.005 1.57155 -3.0724 0
M  V30 1900 C 184.118 0.984066 -4.20643 0
M  V30 1901 C 183.253 2.07745 -4.88892 0
M  V30 1902 C 182.292 1.46574 -5.94292 0
M  V30 1903 N 181.429 2.49834 -6.56146 0
M  V30 1904 H 186.269 -0.185205 -2.97424 0
M  V30 1905 H 183.806 -0.103164 -1.46738 0
M  V30 1906 H 185.764 2.23309 -3.52405 0
M  V30 1907 H 184.394 2.17615 -2.38419 0
M  V30 1908 H 183.446 0.212193 -3.79808 0
M  V30 1909 H 184.758 0.497029 -4.96318 0
M  V30 1910 H 183.912 2.81673 -5.3735 0
M  V30 1911 H 182.651 2.59807 -4.12737 0
M  V30 1912 H 181.656 0.711696 -5.45174 0
M  V30 1913 H 182.881 0.953088 -6.72379 0
M  V30 1914 H 180.827 3.0107 -5.82832 0
M  V30 1915 H 180.744 2.05879 -7.27427 0
M  V30 1916 H 182.012 3.23399 -7.09249 0
M  V30 1917 N 186.241 1.57166 -0.116904 0
M  V30 1918 C 187.204 2.14039 0.819742 0
M  V30 1919 C 188.204 1.07477 1.19605 0
M  V30 1920 O 189.394 1.33263 1.1219 0
M  V30 1921 C 186.526 2.67891 2.10826 0
M  V30 1922 H 187.719 2.98128 0.325511 0
M  V30 1923 H 185.272 1.55739 0.132312 0
M  V30 1924 H 186.007 1.87384 2.64685 0
M  V30 1925 H 185.792 3.45823 1.84793 0
M  V30 1926 H 187.282 3.11809 2.77785 0
M  V30 1927 N 187.719 -0.156864 1.56817 0
M  V30 1928 C 188.649 -1.19589 2.00551 0
M  V30 1929 C 189.63 -1.4536 0.883426 0
M  V30 1930 O 190.815 -1.56449 1.15054 0
M  V30 1931 C 187.945 -2.53143 2.37773 0
M  V30 1932 C 186.899 -2.41913 3.53075 0
M  V30 1933 C 186.225 -3.80088 3.76081 0
M  V30 1934 C 187.525 -1.91157 4.86062 0
M  V30 1935 H 189.219 -0.832293 2.87599 0
M  V30 1936 H 186.765 -0.398918 1.38364 0
M  V30 1937 H 188.718 -3.26047 2.66967 0
M  V30 1938 H 187.442 -2.91319 1.4765 0
M  V30 1939 H 186.101 -1.71462 3.24031 0
M  V30 1940 H 185.749 -4.15683 2.83225 0
M  V30 1941 H 185.449 -3.73439 4.53671 0
M  V30 1942 H 186.973 -4.54556 4.0769 0
M  V30 1943 H 188.387 -2.53846 5.14038 0
M  V30 1944 H 186.784 -1.95422 5.67389 0
M  V30 1945 H 187.854 -0.866673 4.77092 0
M  V30 1946 N 189.197 -1.51736 -0.425897 0
M  V30 1947 C 190.144 -1.73875 -1.51776 0
M  V30 1948 C 191.114 -0.580702 -1.55618 0
M  V30 1949 O 192.299 -0.81641 -1.72451 0
M  V30 1950 C 189.439 -1.88012 -2.89388 0
M  V30 1951 C 188.552 -3.15606 -2.94986 0
M  V30 1952 C 187.687 -3.20271 -4.23793 0
M  V30 1953 C 186.726 -4.42134 -4.23302 0
M  V30 1954 N 185.863 -4.44284 -5.43651 0
M  V30 1955 H 190.703 -2.67071 -1.32201 0
M  V30 1956 H 188.24 -1.32351 -0.642008 0
M  V30 1957 H 190.198 -1.9419 -3.69251 0
M  V30 1958 H 188.828 -0.98213 -3.07496 0
M  V30 1959 H 187.88 -3.18681 -2.07717 0
M  V30 1960 H 189.192 -4.05486 -2.90486 0
M  V30 1961 H 188.346 -3.25428 -5.12036 0
M  V30 1962 H 187.085 -2.28299 -4.30965 0
M  V30 1963 H 186.09 -4.3714 -3.3345 0
M  V30 1964 H 187.315 -5.35382 -4.17783 0
M  V30 1965 H 185.261 -3.55188 -5.51523 0
M  V30 1966 H 185.178 -5.27988 -5.41078 0
M  V30 1967 H 186.446 -4.53649 -6.33895 0
M  V30 1968 N 190.675 0.682077 -1.42076 0
M  V30 1969 C 191.922 1.44215 -1.42156 0
M  V30 1970 C 192.25 1.94468 -0.0354186 0
M  V30 1971 O 191.505 1.70816 0.955002 0
M  V30 1972 C 191.804 2.66036 -2.38662 0
M  V30 1973 C 191.47 2.34366 -3.85206 0
M  V30 1974 C 190.132 2.25439 -4.25124 0
M  V30 1975 C 192.484 2.08513 -4.77673 0
M  V30 1976 C 189.812 1.88775 -5.55501 0
M  V30 1977 C 192.164 1.73354 -6.08384 0
M  V30 1978 C 190.828 1.62933 -6.47309 0
M  V30 1979 H 190.098 0.527718 -0.520187 0
M  V30 1980 H 192.745 0.778387 -1.74967 0
M  V30 1981 H 191.05 3.3741 -1.99152 0
M  V30 1982 H 192.747 3.24205 -2.35991 0
M  V30 1983 H 189.337 2.42213 -3.53597 0
M  V30 1984 H 193.521 2.14346 -4.47626 0
M  V30 1985 H 188.777 1.7927 -5.84527 0
M  V30 1986 H 192.951 1.52373 -6.79526 0
M  V30 1987 H 190.578 1.34292 -7.48244 0
M  V30 1988 N 192.153 1.28127 0.917671 0
M  V30 1989 C 193.1 1.11717 2.0196 0
M  V30 1990 C 194.07 0.0153929 1.66093 0
M  V30 1991 O 195.255 0.179596 1.89953 0
M  V30 1992 C 192.395 0.780927 3.36148 0
M  V30 1993 C 191.508 1.96135 3.84909 0
M  V30 1994 C 190.643 1.56609 5.0759 0
M  V30 1995 C 189.682 2.71339 5.48673 0
M  V30 1996 N 188.819 2.32332 6.62545 0
M  V30 1997 H 193.659 2.06003 2.15329 0
M  V30 1998 H 191.196 1.02535 1.05475 0
M  V30 1999 H 193.154 0.56675 4.13333 0
M  V30 2000 H 191.784 -0.124998 3.22558 0
M  V30 2001 H 190.836 2.28777 3.03916 0
M  V30 2002 H 192.148 2.82165 4.1132 0
M  V30 2003 H 191.302 1.31374 5.92305 0
M  V30 2004 H 190.041 0.677014 4.82978 0
M  V30 2005 H 189.046 2.97276 4.62501 0
M  V30 2006 H 190.271 3.60882 5.75274 0
M  V30 2007 H 188.217 1.45889 6.39572 0
M  V30 2008 H 188.134 3.11899 6.88662 0
M  V30 2009 H 189.402 2.10371 7.50576 0
M  V30 2010 N 193.631 -1.12557 1.10312 0
M  V30 2011 C 194.578 -2.18247 0.750781 0
M  V30 2012 C 195.548 -1.63853 -0.272293 0
M  V30 2013 O 196.733 -1.90195 -0.151862 0
M  V30 2014 C 193.873 -3.44591 0.187379 0
M  V30 2015 C 192.986 -4.13046 1.2656 0
M  V30 2016 C 192.121 -5.27034 0.663978 0
M  V30 2017 C 191.16 -5.87353 1.72287 0
M  V30 2018 N 190.297 -6.92757 1.1416 0
M  V30 2019 H 195.137 -2.47732 1.65628 0
M  V30 2020 H 192.674 -1.21629 0.827337 0
M  V30 2021 H 194.632 -4.16904 -0.157148 0
M  V30 2022 H 193.262 -3.15527 -0.681355 0
M  V30 2023 H 192.314 -3.38924 1.72727 0
M  V30 2024 H 193.626 -4.53947 2.06721 0
M  V30 2025 H 192.78 -6.06104 0.268824 0
M  V30 2026 H 191.519 -4.87407 -0.169082 0
M  V30 2027 H 190.524 -5.06971 2.12746 0
M  V30 2028 H 191.749 -6.29051 2.55875 0
M  V30 2029 H 189.695 -6.5517 0.329984 0
M  V30 2030 H 189.612 -7.3225 1.88007 0
M  V30 2031 H 190.88 -7.75658 0.772956 0
M  V30 2032 N 195.109 -0.891671 -1.2995 0
M  V30 2033 C 196.355 -0.514261 -1.96171 0
M  V30 2034 C 196.688 0.935506 -1.70182 0
M  V30 2035 O 195.963 1.66204 -1.01028 0
M  V30 2036 C 196.246 -0.797719 -3.51153 0
M  V30 2037 C 196.099 -2.2986 -3.86632 0
M  V30 2038 C 197.418 -0.278749 -4.39216 0
M  V30 2039 H 194.537 -0.188314 -0.712535 0
M  V30 2040 H 197.179 -1.11689 -1.53706 0
M  V30 2041 H 195.329 -0.284826 -3.87455 0
M  V30 2042 H 197.001 -2.88042 -3.60319 0
M  V30 2043 H 195.244 -2.76257 -3.34462 0
M  V30 2044 H 195.915 -2.44753 -4.94773 0
M  V30 2045 H 198.391 -0.717825 -4.09862 0
M  V30 2046 H 197.267 -0.506353 -5.46559 0
M  V30 2047 H 197.528 0.820266 -4.34424 0
M  V30 2048 N 196.587 1.43421 -0.653314 0
M  V30 2049 C 197.812 2.06678 -0.172846 0
M  V30 2050 C 198.237 1.48648 1.15262 0
M  V30 2051 O 197.595 0.596457 1.71208 0
M  V30 2052 C 197.643 3.60474 -0.0953184 0
M  V30 2053 O 196.747 4.01487 0.942442 0
M  V30 2054 H 196.088 0.657181 -0.0949155 0
M  V30 2055 H 198.618 1.83925 -0.896265 0
M  V30 2056 H 198.628 4.07905 0.0879728 0
M  V30 2057 H 197.303 4.02088 -1.06291 0
M  V30 2058 H 195.88 3.65646 0.731932 0
M  V30 2059 N 198.065 0.39524 1.52563 0
M  V30 2060 C 198.995 -0.428384 2.29537 0
M  V30 2061 C 199.976 -1.05831 1.33169 0
M  V30 2062 O 201.161 -1.06995 1.62067 0
M  V30 2063 C 198.291 -1.55274 3.10656 0
M  V30 2064 C 197.245 -1.04855 4.14957 0
M  V30 2065 C 196.571 -2.26543 4.84337 0
M  V30 2066 C 197.871 -0.112324 5.22179 0
M  V30 2067 H 199.565 0.213867 2.98635 0
M  V30 2068 H 197.111 0.104298 1.43622 0
M  V30 2069 H 199.064 -2.1358 3.63265 0
M  V30 2070 H 197.788 -2.22266 2.39302 0
M  V30 2071 H 196.447 -0.487985 3.63338 0
M  V30 2072 H 196.095 -2.92059 4.09525 0
M  V30 2073 H 195.795 -1.93466 5.54837 0
M  V30 2074 H 197.319 -2.85481 5.39753 0
M  V30 2075 H 198.733 -0.603752 5.70112 0
M  V30 2076 H 197.13 0.128968 5.99961 0
M  V30 2077 H 198.2 0.837052 4.77621 0
M  V30 2078 N 199.544 -1.57102 0.125237 0
M  V30 2079 C 200.474 -2.18659 -0.819174 0
M  V30 2080 C 201.455 -1.12843 -1.27281 0
M  V30 2081 O 202.64 -1.41104 -1.33429 0
M  V30 2082 C 199.77 -2.79096 -2.06695 0
M  V30 2083 C 198.724 -3.90548 -1.75088 0
M  V30 2084 C 198.05 -4.37821 -3.06948 0
M  V30 2085 C 199.35 -5.12356 -1.01435 0
M  V30 2086 H 201.044 -2.9783 -0.306202 0
M  V30 2087 H 198.59 -1.4326 -0.145839 0
M  V30 2088 H 200.543 -3.2082 -2.73226 0
M  V30 2089 H 199.267 -1.97223 -2.60328 0
M  V30 2090 H 197.926 -3.49409 -1.10944 0
M  V30 2091 H 197.574 -3.52799 -3.58527 0
M  V30 2092 H 197.274 -5.12982 -2.86571 0
M  V30 2093 H 198.798 -4.822 -3.74587 0
M  V30 2094 H 200.212 -5.5106 -1.58132 0
M  V30 2095 H 198.609 -5.9314 -0.911319 0
M  V30 2096 H 199.679 -4.849 -0.00218681 0
M  V30 2097 N 201.022 0.148545 -1.56898 0
M  V30 2098 C 202.27 0.859717 -1.82902 0
M  V30 2099 C 202.591 1.81775 -0.70588 0
M  V30 2100 O 201.861 1.93994 0.272586 0
M  V30 2101 H 200.441 0.320469 -0.674766 0
M  V30 2102 H 203.103 0.142918 -1.94375 0
M  V30 2103 H 202.199 1.4229 -2.77777 0
M  V30 2104 N 202.5 1.5196 0.417844 0
M  V30 2105 C 203.746 1.66793 1.16411 0
M  V30 2106 C 204.101 0.388758 1.88432 0
M  V30 2107 O 203.394 -0.616409 1.81414 0
M  V30 2108 C 203.588 2.82269 2.19223 0
M  V30 2109 C 203.417 4.21293 1.57297 0
M  V30 2110 C 202.187 4.86948 1.34944 0
M  V30 2111 C 204.385 5.03704 1.03858 0
M  V30 2112 N 202.367 6.1003 0.688195 0
M  V30 2113 C 203.738 6.1795 0.503742 0
M  V30 2114 C 205.793 4.89095 0.932203 0
M  V30 2115 C 204.496 7.19188 -0.127034 0
M  V30 2116 C 206.522 5.90559 0.315293 0
M  V30 2117 C 205.884 7.0409 -0.208906 0
M  V30 2118 H 201.983 0.66407 0.412959 0
M  V30 2119 H 204.567 1.89242 0.457772 0
M  V30 2120 H 202.738 2.61451 2.87225 0
M  V30 2121 H 204.47 2.86183 2.86149 0
M  V30 2122 H 201.225 4.45156 1.61657 0
M  V30 2123 H 201.649 6.75964 0.374449 0
M  V30 2124 H 206.291 4.01557 1.32332 0
M  V30 2125 H 204.009 8.06359 -0.530231 0
M  V30 2126 H 207.595 5.81327 0.234625 0
M  V30 2127 H 206.475 7.81257 -0.67875 0
M  V30 2128 N 203.978 -0.674533 1.42435 0
M  V30 2129 C 205.203 -1.46784 1.46524 0
M  V30 2130 C 205.628 -1.87938 0.078066 0
M  V30 2131 O 204.986 -1.56014 -0.92354 0
M  V30 2132 C 205.034 -2.69307 2.39805 0
M  V30 2133 O 204.138 -3.67587 1.86959 0
M  V30 2134 H 203.479 -0.440959 0.496439 0
M  V30 2135 H 206.009 -0.827326 1.87127 0
M  V30 2136 H 206.019 -3.17374 2.56393 0
M  V30 2137 H 204.694 -2.38692 3.40586 0
M  V30 2138 H 203.271 -3.2662 1.79927 0
M  V30 2139 N 205.456 -1.28612 -0.910864 0
M  V30 2140 C 206.733 -1.06632 -1.63979 0
M  V30 2141 C 207.113 0.393351 -2.07403 0
M  V30 2142 O 206.461 1.37999 -1.82122 0
M  V30 2143 C 206.671 -2.0436 -2.8291 0
M  V30 2144 C 208.019 -2.34666 -3.5386 0
M  V30 2145 O 209.043 -2.02467 -2.93062 0
M  V30 2146 O 207.902 -2.89631 -4.63439 0
M  V30 2147 H 204.996 -0.407737 -0.7195 0
M  V30 2148 H 207.542 -1.39942 -0.959914 0
M  V30 2149 H 206.314 -3.02727 -2.47936 0
M  V30 2150 H 205.937 -1.71714 -3.58609 0
M  V30 2151 N 206.934 1.1197 -1.10907 0
M  V30 2152 C 208.182 1.83225 -0.852819 0
M  V30 2153 C 208.503 1.84769 0.623341 0
M  V30 2154 O 207.773 1.3143 1.45269 0
M  V30 2155 H 206.353 0.67849 -0.312507 0
M  V30 2156 H 209.015 1.3556 -1.40033 0
M  V30 2157 H 208.111 2.87265 -1.22005 0
M  V30 2158 N 208.412 0.89855 1.29475 0
M  V30 2159 C 209.66 0.522847 1.9522 0
M  V30 2160 C 209.981 -0.93371 1.71192 0
M  V30 2161 O 209.251 -1.65823 1.04305 0
M  V30 2162 H 207.831 0.190366 0.722336 0
M  V30 2163 H 210.493 1.14459 1.5775 0
M  V30 2164 H 209.589 0.704476 3.04045 0
M  V30 2165 N 209.89 -1.43072 0.660911 0
M  V30 2166 C 211.139 -2.00942 0.174735 0
M  V30 2167 C 211.452 -1.52797 -1.22117 0
M  V30 2168 O 212.658 -2.02991 -1.80297 0
M  V30 2169 C 211.114 -3.58948 0.261559 0
M  V30 2170 C 210.722 -4.16085 1.66064 0
M  V30 2171 C 212.466 -4.24173 -0.166617 0
M  V30 2172 C 210.373 -5.6641 1.70098 0
M  V30 2173 H 209.303 -0.751483 0.0615631 0
M  V30 2174 H 211.954 -1.63955 0.824069 0
M  V30 2175 H 210.336 -3.93372 -0.455421 0
M  V30 2176 H 211.51 -3.93147 2.40359 0
M  V30 2177 H 209.825 -3.6326 2.03546 0
M  V30 2178 H 212.422 -5.34471 -0.156433 0
M  V30 2179 H 212.765 -3.98647 -1.19943 0
M  V30 2180 H 213.298 -3.94659 0.498875 0
M  V30 2181 H 210.037 -5.96715 2.71315 0
M  V30 2182 H 209.557 -5.91382 1.00139 0
M  V30 2183 H 211.236 -6.30585 1.44816 0
M  V30 2184 N 211.368 -0.403325 -1.52352 0
M  V30 2185 C 212.596 0.174012 -2.06167 0
M  V30 2186 C 213.011 1.39347 -1.27388 0
M  V30 2187 O 212.368 1.79597 -0.324201 0
M  V30 2188 C 212.419 0.530223 -3.5759 0
M  V30 2189 O 212.14 -0.640806 -4.33388 0
M  V30 2190 C 213.641 1.16192 -4.27802 0
M  V30 2191 H 210.861 0.0229464 -0.670608 0
M  V30 2192 H 213.405 -0.572604 -1.9632 0
M  V30 2193 H 211.56 1.22673 -3.67464 0
M  V30 2194 H 211.974 -0.344851 -5.23365 0
M  V30 2195 H 213.448 1.36141 -5.34948 0
M  V30 2196 H 213.925 2.13335 -3.83907 0
M  V30 2197 H 214.531 0.505775 -4.22282 0
M  V30 2198 N 212.846 1.57033 -0.133567 0
M  V30 2199 C 213.809 2.14897 0.796995 0
M  V30 2200 C 214.809 1.0874 1.18458 0
M  V30 2201 O 215.999 1.34446 1.1077 0
M  V30 2202 C 213.131 2.70112 2.07973 0
M  V30 2203 H 214.324 2.98457 0.293873 0
M  V30 2204 H 211.877 1.55871 0.115787 0
M  V30 2205 H 212.612 1.9018 2.62682 0
M  V30 2206 H 212.397 3.47764 1.81115 0
M  V30 2207 H 213.887 3.14738 2.74462 0
M  V30 2208 N 214.325 -0.140222 1.56975 0
M  V30 2209 C 215.255 -1.17456 2.01808 0
M  V30 2210 C 216.236 -1.44415 0.898794 0
M  V30 2211 O 217.421 -1.5522 1.16707 0
M  V30 2212 C 214.551 -2.50607 2.40444 0
M  V30 2213 C 213.505 -2.38155 3.55621 0
M  V30 2214 C 212.831 -3.76078 3.80091 0
M  V30 2215 C 214.131 -1.85991 4.88062 0
M  V30 2216 H 215.825 -0.801743 2.88466 0
M  V30 2217 H 213.371 -0.38422 1.38779 0
M  V30 2218 H 215.324 -3.23197 2.7041 0
M  V30 2219 H 214.048 -2.89737 1.50732 0
M  V30 2220 H 212.707 -1.68016 3.25832 0
M  V30 2221 H 212.355 -4.12656 2.87618 0
M  V30 2222 H 212.055 -3.68606 4.57606 0
M  V30 2223 H 213.579 -4.50206 4.12488 0
M  V30 2224 H 214.993 -2.4838 5.16701 0
M  V30 2225 H 213.39 -1.89393 5.6943 0
M  V30 2226 H 214.46 -0.816023 4.77984 0
M  V30 2227 N 215.803 -1.52179 -0.40978 0
M  V30 2228 C 217.052 -1.65434 -1.15388 0
M  V30 2229 C 217.365 -0.390056 -1.91671 0
M  V30 2230 O 218.571 -0.402399 -2.68501 0
M  V30 2231 C 217.027 -2.92279 -2.10003 0
M  V30 2232 C 216.635 -4.25813 -1.39239 0
M  V30 2233 C 218.379 -3.14897 -2.84675 0
M  V30 2234 C 216.286 -5.43782 -2.32498 0
M  V30 2235 H 215.216 -0.616267 -0.434432 0
M  V30 2236 H 217.867 -1.78666 -0.418401 0
M  V30 2237 H 216.249 -2.72744 -2.871 0
M  V30 2238 H 217.423 -4.55828 -0.675099 0
M  V30 2239 H 215.738 -4.09292 -0.766097 0
M  V30 2240 H 218.335 -4.0021 -3.54593 0
M  V30 2241 H 218.678 -2.29103 -3.47588 0
M  V30 2242 H 219.211 -3.34901 -2.14677 0
M  V30 2243 H 215.95 -6.3192 -1.74233 0
M  V30 2244 H 215.47 -5.18106 -3.02201 0
M  V30 2245 H 217.149 -5.76834 -2.93038 0
M  V30 2246 N 217.281 0.66697 -1.42791 0
M  V30 2247 C 218.244 1.76211 -1.46568 0
M  V30 2248 C 219.244 1.56896 -0.352196 0
M  V30 2249 O 220.434 1.63044 -0.613364 0
M  V30 2250 C 217.566 3.14935 -1.30494 0
M  V30 2251 H 218.759 1.74247 -2.44086 0
M  V30 2252 H 216.312 0.877342 -1.29354 0
M  V30 2253 H 217.047 3.2252 -0.339301 0
M  V30 2254 H 216.832 3.30359 -2.11199 0
M  V30 2255 H 218.322 3.94821 -1.36038 0
M  V30 2256 N 218.759 1.29093 0.90403 0
M  V30 2257 C 219.722 1.1386 1.98919 0
M  V30 2258 C 220.722 0.0753457 1.60623 0
M  V30 2259 O 221.912 0.321931 1.71199 0
M  V30 2260 C 219.044 0.740198 3.32767 0
M  V30 2261 H 220.237 2.10246 2.13861 0
M  V30 2262 H 217.79 1.12218 1.08797 0
M  V30 2263 H 218.525 -0.223997 3.23525 0
M  V30 2264 H 218.31 1.50838 3.61926 0
M  V30 2265 H 219.8 0.656546 4.12407 0
M  V30 2266 N 220.237 -1.11381 1.11499 0
M  V30 2267 C 221.2 -2.15622 0.777153 0
M  V30 2268 C 222.2 -1.59504 -0.203779 0
M  V30 2269 O 223.39 -1.74188 0.020782 0
M  V30 2270 C 220.522 -3.40556 0.153116 0
M  V30 2271 H 221.715 -2.47021 1.70061 0
M  V30 2272 H 219.268 -1.26577 0.916952 0
M  V30 2273 H 220.003 -3.14767 -0.780536 0
M  V30 2274 H 219.788 -3.8257 0.859238 0
M  V30 2275 H 221.278 -4.17546 -0.0671044 0
M  V30 2276 N 221.715 -0.905404 -1.28997 0
M  V30 2277 C 222.662 -0.385892 -2.27551 0
M  V30 2278 C 223.632 0.535113 -1.57244 0
M  V30 2279 O 224.817 0.459119 -1.85194 0
M  V30 2280 C 221.957 0.375461 -3.43051 0
M  V30 2281 C 221.07 -0.577092 -4.28128 0
M  V30 2282 C 220.205 0.201879 -5.30816 0
M  V30 2283 C 219.244 -0.744829 -6.07551 0
M  V30 2284 N 218.381 9.42587e-05 -7.021 0
M  V30 2285 H 223.221 -1.23139 -2.71368 0
M  V30 2286 H 220.758 -0.618542 -1.33463 0
M  V30 2287 H 222.716 0.832992 -4.088 0
M  V30 2288 H 221.346 1.18537 -3.00248 0
M  V30 2289 H 220.398 -1.15315 -3.62501 0
M  V30 2290 H 221.71 -1.30152 -4.8152 0
M  V30 2291 H 220.864 0.720351 -6.02408 0
M  V30 2292 H 219.603 0.959413 -4.7817 0
M  V30 2293 H 218.608 -1.27475 -5.34818 0
M  V30 2294 H 219.833 -1.50178 -6.62286 0
M  V30 2295 H 217.779 0.739791 -6.51815 0
M  V30 2296 H 217.696 -0.664321 -7.53076 0
M  V30 2297 H 218.964 0.498644 -7.77903 0
M  V30 2298 N 223.193 1.4272 -0.668489 0
M  V30 2299 C 224.423 2.05668 -0.196063 0
M  V30 2300 C 224.831 1.5028 1.14946 0
M  V30 2301 O 224.174 0.6348 1.72383 0
M  V30 2302 C 224.236 3.59469 -0.0468879 0
M  V30 2303 C 223.9 4.37518 -1.32012 0
M  V30 2304 C 224.897 4.68584 -2.25222 0
M  V30 2305 C 222.582 4.77266 -1.56596 0
M  V30 2306 C 224.576 5.38326 -3.41297 0
M  V30 2307 C 222.263 5.4675 -2.72962 0
M  V30 2308 C 223.261 5.77204 -3.65137 0
M  V30 2309 O 222.949 6.45264 -4.79468 0
M  V30 2310 H 222.681 0.669382 -0.0943599 0
M  V30 2311 H 225.235 1.83954 -0.913788 0
M  V30 2312 H 223.465 3.79817 0.726357 0
M  V30 2313 H 225.154 4.04071 0.384852 0
M  V30 2314 H 225.92 4.38382 -2.07477 0
M  V30 2315 H 221.799 4.52959 -0.857249 0
M  V30 2316 H 225.343 5.62014 -4.13263 0
M  V30 2317 H 221.24 5.76369 -2.90635 0
M  V30 2318 H 222.008 6.63753 -4.78931 0
M  V30 2319 N 224.671 0.411399 1.52136 0
M  V30 2320 C 226.082 -0.0576826 1.86611 0
M  V30 2321 C 226.433 -1.44238 1.33003 0
M  V30 2322 O 225.558 -2.05759 0.670228 0
M  V30 2323 C 226.153 -0.111448 3.38617 0
M  V30 2324 C 224.712 -0.52487 3.72723 0
M  V30 2325 C 223.859 0.299176 2.75681 0
M  V30 2326 H 226.81 0.628368 1.4573 0
M  V30 2327 H 226.831 -0.926252 3.69054 0
M  V30 2328 H 226.343 0.896488 3.77604 0
M  V30 2329 H 224.444 -1.53936 3.39315 0
M  V30 2330 H 224.557 -0.267681 4.78352 0
M  V30 2331 H 222.921 -0.238814 2.53578 0
M  V30 2332 H 223.704 1.3055 3.17508 0
M  V30 2333 N 226.149 -1.5696 0.141893 0
M  V30 2334 C 227.374 -2.00754 -0.520838 0
M  V30 2335 C 227.799 -1.0213 -1.57959 0
M  V30 2336 O 227.157 0.00371324 -1.813 0
M  V30 2337 C 227.205 -3.43318 -1.10294 0
M  V30 2338 O 226.309 -3.47679 -2.21795 0
M  V30 2339 H 225.65 -0.651564 -0.127908 0
M  V30 2340 H 228.18 -2.03221 0.23712 0
M  V30 2341 H 228.19 -3.82012 -1.43287 0
M  V30 2342 H 226.865 -4.14608 -0.327574 0
M  V30 2343 H 225.442 -3.20824 -1.9007 0
M  V30 2344 N 227.627 0.131896 -1.57047 0
M  V30 2345 C 228.857 0.855219 -1.88068 0
M  V30 2346 C 229.265 1.74557 -0.729817 0
M  V30 2347 O 228.608 1.81083 0.308962 0
M  V30 2348 C 228.67 1.75119 -3.13964 0
M  V30 2349 C 228.334 1.03646 -4.45091 0
M  V30 2350 C 229.331 0.383276 -5.18485 0
M  V30 2351 C 227.016 1.02148 -4.91804 0
M  V30 2352 C 229.01 -0.275347 -6.36805 0
M  V30 2353 C 226.697 0.359047 -6.10044 0
M  V30 2354 C 227.695 -0.288222 -6.82392 0
M  V30 2355 O 227.383 -0.94011 -7.98384 0
M  V30 2356 H 227.115 0.251864 -0.627328 0
M  V30 2357 H 229.669 0.124782 -2.05021 0
M  V30 2358 H 227.899 2.52295 -2.9306 0
M  V30 2359 H 229.588 2.3478 -3.31109 0
M  V30 2360 H 230.354 0.386562 -4.83457 0
M  V30 2361 H 226.233 1.5147 -4.35405 0
M  V30 2362 H 229.777 -0.781148 -6.93213 0
M  V30 2363 H 225.674 0.35348 -6.44531 0
M  V30 2364 H 226.442 -0.84329 -8.14144 0
M  V30 2365 N 229.106 1.52395 0.401703 0
M  V30 2366 C 230.355 1.66044 1.14509 0
M  V30 2367 C 230.668 0.400216 1.91462 0
M  V30 2368 O 231.874 0.416632 2.68284 0
M  V30 2369 C 230.33 2.93388 2.0845 0
M  V30 2370 C 229.938 4.26545 1.36978 0
M  V30 2371 C 231.682 3.16402 2.83001 0
M  V30 2372 C 229.589 5.45007 2.29611 0
M  V30 2373 H 228.519 0.618562 0.431158 0
M  V30 2374 H 231.17 1.78886 0.40892 0
M  V30 2375 H 229.552 2.74263 2.8565 0
M  V30 2376 H 230.726 4.56179 0.650916 0
M  V30 2377 H 229.041 4.09692 0.74438 0
M  V30 2378 H 231.638 4.02085 3.52465 0
M  V30 2379 H 231.981 2.30943 3.46368 0
M  V30 2380 H 232.514 3.36034 2.12898 0
M  V30 2381 H 229.253 6.32835 1.70879 0
M  V30 2382 H 228.773 5.19702 2.9945 0
M  V30 2383 H 230.452 5.7838 2.89974 0
M  V30 2384 N 230.584 -0.659388 1.43143 0
M  V30 2385 C 231.534 -1.7655 1.44271 0
M  V30 2386 C 232.518 -1.57847 0.311961 0
M  V30 2387 O 233.71 -1.68064 0.555306 0
M  V30 2388 C 230.839 -3.15104 1.36251 0
M  V30 2389 C 229.925 -3.39377 2.54331 0
M  V30 2390 N 230.316 -3.34153 3.79704 0
M  V30 2391 C 228.614 -3.70072 2.48922 0
M  V30 2392 C 229.315 -3.58337 4.58225 0
M  V30 2393 N 228.291 -3.79851 3.88863 0
M  V30 2394 H 232.093 -1.70928 2.39083 0
M  V30 2395 H 229.607 -0.860823 1.37708 0
M  V30 2396 H 231.604 -3.94389 1.35141 0
M  V30 2397 H 230.264 -3.21913 0.424531 0
M  V30 2398 H 231.275 -3.13704 4.1208 0
M  V30 2399 H 227.952 -3.84034 1.63781 0
M  V30 2400 H 229.342 -3.60129 5.67236 0
M  V30 2401 N 232.062 -1.29571 -0.897171 0
M  V30 2402 C 233.009 -1.14916 -2.00158 0
M  V30 2403 C 233.979 -0.0418149 -1.66047 0
M  V30 2404 O 235.164 -0.209793 -1.89643 0
M  V30 2405 C 232.304 -0.834307 -3.34863 0
M  V30 2406 C 231.417 -2.02234 -3.8174 0
M  V30 2407 C 230.552 -1.64664 -5.05034 0
M  V30 2408 C 229.591 -2.80033 -5.44286 0
M  V30 2409 N 228.728 -2.42843 -6.58765 0
M  V30 2410 H 233.568 -2.09403 -2.12025 0
M  V30 2411 H 231.105 -1.042 -1.0383 0
M  V30 2412 H 233.063 -0.632436 -4.12379 0
M  V30 2413 H 231.693 0.0736656 -3.22716 0
M  V30 2414 H 230.745 -2.33583 -3.00238 0
M  V30 2415 H 232.057 -2.88673 -4.06779 0
M  V30 2416 H 231.211 -1.4078 -5.9014 0
M  V30 2417 H 229.95 -0.753766 -4.8184 0
M  V30 2418 H 228.955 -3.04596 -4.57713 0
M  V30 2419 H 230.18 -3.69989 -5.6946 0
M  V30 2420 H 228.126 -1.56046 -6.3717 0
M  V30 2421 H 228.043 -3.22815 -6.83613 0
M  V30 2422 H 229.311 -2.22285 -7.47134 0
M  V30 2423 N 233.54 1.10788 -1.12088 0
M  V30 2424 C 234.473 2.16237 -0.729168 0
M  V30 2425 C 235.451 1.60207 0.277921 0
M  V30 2426 O 236.635 1.87707 0.172737 0
M  V30 2427 C 233.762 3.38609 -0.0786848 0
M  V30 2428 C 232.808 4.13322 -1.05201 0
M  V30 2429 S 233.641 4.69371 -2.57781 0
M  V30 2430 C 234.797 5.95058 -1.94053 0
M  V30 2431 H 235.03 2.4913 -1.62239 0
M  V30 2432 H 232.563 1.22519 -0.939603 0
M  V30 2433 H 234.521 4.09473 0.290254 0
M  V30 2434 H 233.182 3.03962 0.791593 0
M  V30 2435 H 232.375 5.01051 -0.544433 0
M  V30 2436 H 231.977 3.48251 -1.36371 0
M  V30 2437 H 234.269 6.65278 -1.28107 0
M  V30 2438 H 235.212 6.50472 -2.79807 0
M  V30 2439 H 235.62 5.46918 -1.39787 0
M  V30 2440 N 235.018 0.912232 1.28515 0
M  V30 2441 C 236.264 0.545405 1.95328 0
M  V30 2442 C 236.597 -0.908313 1.71649 0
M  V30 2443 O 235.872 -1.64575 1.03659 0
M  V30 2444 C 236.155 0.853483 3.4984 0
M  V30 2445 C 236.008 2.35982 3.82926 0
M  V30 2446 C 237.327 0.348589 4.38717 0
M  V30 2447 H 234.446 0.199626 0.709449 0
M  V30 2448 H 237.088 1.1412 1.5191 0
M  V30 2449 H 235.238 0.34643 3.86952 0
M  V30 2450 H 236.91 2.93738 3.55691 0
M  V30 2451 H 235.153 2.81543 3.30024 0
M  V30 2452 H 235.824 2.52593 4.90816 0
M  V30 2453 H 238.3 0.78294 4.08668 0
M  V30 2454 H 237.176 0.593242 5.45685 0
M  V30 2455 H 237.437 -0.751049 4.35674 0
M  V30 2456 N 236.496 -1.42363 0.676048 0
M  V30 2457 C 237.745 -2.00745 0.196037 0
M  V30 2458 C 238.058 -1.54083 -1.20489 0
M  V30 2459 O 239.264 -2.04891 -1.78134 0
M  V30 2460 C 237.72 -3.58651 0.299616 0
M  V30 2461 C 237.328 -4.143 1.70468 0
M  V30 2462 C 239.072 -4.24326 -0.121619 0
M  V30 2463 C 236.979 -5.64574 1.76096 0
M  V30 2464 H 235.909 -0.750787 0.0695301 0
M  V30 2465 H 238.56 -1.63072 0.841412 0
M  V30 2466 H 236.942 -3.93833 -0.413673 0
M  V30 2467 H 238.116 -3.90575 2.44515 0
M  V30 2468 H 236.431 -3.61081 2.07387 0
M  V30 2469 H 239.028 -5.34607 -0.0997362 0
M  V30 2470 H 239.371 -3.99897 -1.15708 0
M  V30 2471 H 239.904 -3.94108 0.540706 0
M  V30 2472 H 236.643 -5.93804 2.77628 0
M  V30 2473 H 236.163 -5.90286 1.06406 0
M  V30 2474 H 237.842 -6.29013 1.51496 0
M  V30 2475 N 237.974 -0.419461 -1.51915 0
M  V30 2476 C 239.22 0.145505 -2.02879 0
M  V30 2477 C 239.575 1.41926 -1.29903 0
M  V30 2478 O 238.868 1.87383 -0.399782 0
M  V30 2479 C 239.062 0.437067 -3.54717 0
M  V30 2480 C 238.891 -0.806877 -4.42402 0
M  V30 2481 C 237.661 -1.33514 -4.87342 0
M  V30 2482 C 239.859 -1.68796 -4.85811 0
M  V30 2483 N 237.841 -2.53349 -5.59185 0
M  V30 2484 C 239.212 -2.73247 -5.56539 0
M  V30 2485 C 241.267 -1.70449 -4.67816 0
M  V30 2486 C 239.97 -3.79276 -6.11181 0
M  V30 2487 C 241.996 -2.75403 -5.23361 0
M  V30 2488 C 241.358 -3.78575 -5.9402 0
M  V30 2489 H 237.457 0.0145424 -0.781865 0
M  V30 2490 H 240.041 -0.576126 -1.85981 0
M  V30 2491 H 238.212 1.12774 -3.71667 0
M  V30 2492 H 239.944 0.99182 -3.92358 0
M  V30 2493 H 236.699 -0.891657 -4.65131 0
M  V30 2494 H 237.123 -3.14066 -5.99743 0
M  V30 2495 H 241.765 -0.920209 -4.12664 0
M  V30 2496 H 239.483 -4.58554 -6.65397 0
M  V30 2497 H 243.069 -2.77603 -5.113 0
M  V30 2498 H 241.949 -4.58453 -6.36231 0
M  V30 2499 N 239.452 1.56882 -0.150215 0
M  V30 2500 C 240.7 1.9584 0.499105 0
M  V30 2501 C 241.021 1.03623 1.65188 0
M  V30 2502 O 240.291 0.0984084 1.95653 0
M  V30 2503 H 238.871 0.723119 0.187373 0
M  V30 2504 H 241.533 1.9358 -0.226466 0
M  V30 2505 H 240.629 2.99638 0.873122 0
M  V30 2506 N 240.93 -0.123565 1.57115 0
M  V30 2507 C 241.893 -1.13583 1.99076 0
M  V30 2508 C 242.893 -1.34564 0.880296 0
M  V30 2509 O 244.083 -1.31158 1.14644 0
M  V30 2510 C 241.215 -2.49128 2.32698 0
M  V30 2511 H 242.408 -0.775287 2.89706 0
M  V30 2512 H 239.961 -0.36771 1.51913 0
M  V30 2513 H 240.696 -2.90111 1.44934 0
M  V30 2514 H 240.481 -2.35255 3.13684 0
M  V30 2515 H 241.971 -3.2199 2.65918 0
M  V30 2516 N 242.408 -1.52605 -0.393616 0
M  V30 2517 C 243.356 -1.77688 -1.50099 0
M  V30 2518 C 244.35 -0.644615 -1.56656 0
M  V30 2519 O 245.556 -0.826997 -1.59877 0
M  V30 2520 H 241.931 -0.562159 -0.499481 0
M  V30 2521 H 243.902 -2.7043 -1.26135 0
M  V30 2522 C 242.651 -1.95858 -2.87289 0
M  V30 2523 H 241.974 -2.8241 -2.82992 0
M  V30 2524 H 243.414 -2.174 -3.64024 0
M  V30 2525 C 241.873 -0.729848 -3.28899 0
M  V30 2526 O 242.403 0.0949217 -4.01588 0
M  V30 2527 N 240.609 -0.561283 -2.85128 0
M  V30 2528 H 240.156 -1.23357 -2.26143 0
M  V30 2529 H 240.114 0.2595 -3.13327 0
M  V30 2530 N 243.887 0.651787 -1.4349 0
M  V30 2531 C 244.85 1.74647 -1.48429 0
M  V30 2532 C 245.85 1.56513 -0.368817 0
M  V30 2533 O 247.04 1.62385 -0.630623 0
M  V30 2534 C 244.172 3.13533 -1.33827 0
M  V30 2535 H 245.365 1.71649 -2.4592 0
M  V30 2536 H 242.918 0.863573 -1.30277 0
M  V30 2537 H 243.653 3.22142 -0.37349 0
M  V30 2538 H 243.438 3.28101 -2.14691 0
M  V30 2539 H 244.928 3.93356 -1.40218 0
M  V30 2540 N 245.365 1.30045 0.890287 0
M  V30 2541 C 246.595 1.21296 1.67245 0
M  V30 2542 C 247.003 -0.227471 1.87828 0
M  V30 2543 O 246.346 -1.16296 1.422 0
M  V30 2544 C 246.408 1.86519 3.07329 0
M  V30 2545 C 246.072 3.35837 3.09939 0
M  V30 2546 C 247.069 4.31915 2.89389 0
M  V30 2547 C 244.754 3.77196 3.31706 0
M  V30 2548 C 246.748 5.67325 2.90552 0
M  V30 2549 C 244.435 5.12725 3.32499 0
M  V30 2550 C 245.433 6.076 3.11947 0
M  V30 2551 O 245.121 7.40655 3.12547 0
M  V30 2552 H 244.853 0.4211 0.528821 0
M  V30 2553 H 247.407 1.72111 1.12103 0
M  V30 2554 H 245.637 1.30228 3.64112 0
M  V30 2555 H 247.326 1.71963 3.67673 0
M  V30 2556 H 248.092 4.01294 2.72375 0
M  V30 2557 H 243.971 3.03796 3.4674 0
M  V30 2558 H 247.515 6.41354 2.74429 0
M  V30 2559 H 243.412 5.42988 3.49047 0
M  V30 2560 H 244.18 7.49577 3.28749 0
M  V30 2561 N 246.843 -1.10192 1.12674 0
M  V30 2562 C 248.089 -1.82475 0.884915 0
M  V30 2563 C 248.422 -1.85093 -0.58773 0
M  V30 2564 O 247.697 -1.3134 -1.43457 0
M  V30 2565 C 247.98 -3.29018 1.46353 0
M  V30 2566 C 247.833 -3.34718 3.00473 0
M  V30 2567 C 249.152 -4.25473 1.12519 0
M  V30 2568 H 246.271 -0.662492 0.322915 0
M  V30 2569 H 248.913 -1.2913 1.39375 0
M  V30 2570 H 247.063 -3.74576 1.03077 0
M  V30 2571 H 248.735 -2.97622 3.52447 0
M  V30 2572 H 246.978 -2.74541 3.35872 0
M  V30 2573 H 247.649 -4.37918 3.36053 0
M  V30 2574 H 250.125 -3.88161 1.499 0
M  V30 2575 H 249.001 -5.26365 1.55663 0
M  V30 2576 H 249.262 -4.42084 0.0377407 0
M  V30 2577 N 248.321 -0.919034 -1.28029 0
M  V30 2578 C 249.549 -0.570971 -1.98866 0
M  V30 2579 C 249.964 0.848996 -1.68634 0
M  V30 2580 O 249.321 1.56307 -0.942036 0
M  V30 2581 C 249.372 -0.776876 -3.53054 0
M  V30 2582 O 249.093 -2.14097 -3.82222 0
M  V30 2583 C 250.594 -0.436356 -4.41147 0
M  V30 2584 H 247.814 -0.217175 -0.634883 0
M  V30 2585 H 250.358 -1.23368 -1.63097 0
M  V30 2586 H 248.513 -0.161085 -3.87065 0
M  V30 2587 H 248.927 -2.18455 -4.76841 0
M  V30 2588 H 250.401 -0.63117 -5.4838 0
M  V30 2589 H 250.878 0.627686 -4.34692 0
M  V30 2590 H 251.484 -1.02991 -4.12641 0
M  V30 2591 N 249.799 1.42003 -0.683588 0
M  V30 2592 C 251.076 1.95112 -0.138075 0
M  V30 2593 C 251.456 1.62359 1.34918 0
M  V30 2594 O 250.804 0.924311 2.08971 0
M  V30 2595 C 251.014 3.46505 -0.416581 0
M  V30 2596 C 252.362 4.23254 -0.337834 0
M  V30 2597 O 253.386 3.54468 -0.35082 0
M  V30 2598 O 252.245 5.45743 -0.287596 0
M  V30 2599 H 249.339 0.826961 -0.00797996 0
M  V30 2600 H 251.885 1.51784 -0.758924 0
M  V30 2601 H 250.657 3.63582 -1.4465 0
M  V30 2602 H 250.28 3.969 0.235839 0
M  V30 2603 N 251.277 0.427512 1.51691 0
M  V30 2604 C 252.187 -0.39527 2.31246 0
M  V30 2605 C 253.203 -1.03674 1.39742 0
M  V30 2606 O 254.379 -1.03425 1.72816 0
M  V30 2607 C 251.444 -1.48706 3.13189 0
M  V30 2608 C 250.505 -0.866743 4.20459 0
M  V30 2609 C 249.738 -1.90651 4.98486 0
M  V30 2610 O 249.961 -3.12733 4.77026 0
M  V30 2611 O 248.895 -1.5025 5.82845 0
M  V30 2612 H 252.721 0.253918 3.02637 0
M  V30 2613 H 250.306 0.190274 1.48183 0
M  V30 2614 H 252.188 -2.12047 3.64162 0
M  V30 2615 H 250.863 -2.12051 2.44573 0
M  V30 2616 H 249.77 -0.195544 3.73589 0
M  V30 2617 H 251.103 -0.276934 4.9142 0
M  V30 2618 N 252.755 -1.56801 0.158532 0
M  V30 2619 C 254.032 -1.88131 -0.535357 0
M  V30 2620 C 254.412 -1.06638 -1.82186 0
M  V30 2621 O 253.76 -0.156533 -2.27963 0
M  V30 2622 C 253.97 -3.39949 -0.789653 0
M  V30 2623 C 255.318 -4.09416 -1.12533 0
M  V30 2624 O 256.342 -3.45194 -0.878622 0
M  V30 2625 O 255.201 -5.22855 -1.59014 0
M  V30 2626 H 252.295 -0.780143 -0.27442 0
M  V30 2627 H 254.841 -1.68564 0.19601 0
M  V30 2628 H 253.613 -3.91115 0.120353 0
M  V30 2629 H 253.236 -3.65084 -1.57479 0
M  V30 2630 N 254.233 0.115231 -1.57178 0
M  V30 2631 C 255.458 0.840354 -1.89612 0
M  V30 2632 C 255.883 1.72464 -0.750845 0
M  V30 2633 O 255.241 1.78826 0.298478 0
M  V30 2634 C 255.289 1.64654 -3.20814 0
M  V30 2635 O 254.393 2.7538 -3.06985 0
M  V30 2636 H 253.734 0.232158 -0.622092 0
M  V30 2637 H 256.264 0.0964977 -2.04372 0
M  V30 2638 H 256.274 2.03499 -3.53627 0
M  V30 2639 H 254.949 0.997416 -4.03763 0
M  V30 2640 H 253.526 2.3971 -2.85646 0
M  V30 2641 N 255.711 1.52812 0.385517 0
M  V30 2642 C 256.644 1.72592 1.49289 0
M  V30 2643 C 257.622 0.573819 1.52138 0
M  V30 2644 O 258.806 0.80404 1.70492 0
M  V30 2645 C 255.933 1.78669 2.87741 0
M  V30 2646 C 254.979 3.00455 3.02703 0
M  V30 2647 S 255.812 4.60366 2.73538 0
M  V30 2648 C 256.968 4.69263 4.14177 0
M  V30 2649 H 257.201 2.66248 1.32285 0
M  V30 2650 H 254.734 1.43148 0.578611 0
M  V30 2651 H 256.692 1.82855 3.67524 0
M  V30 2652 H 255.353 0.861 3.02069 0
M  V30 2653 H 254.546 3.01258 4.04054 0
M  V30 2654 H 254.148 2.94278 2.30817 0
M  V30 2655 H 256.44 4.48092 5.08153 0
M  V30 2656 H 257.383 5.71276 4.18388 0
M  V30 2657 H 257.791 3.98072 4.00249 0
M  V30 2658 N 257.189 -0.644168 1.43834 0
M  V30 2659 C 258.438 -1.39985 1.45214 0
M  V30 2660 C 258.751 -1.95421 0.0835494 0
M  V30 2661 O 259.957 -2.71488 -0.0251748 0
M  V30 2662 C 258.413 -2.53384 2.55587 0
M  V30 2663 C 258.021 -2.04517 3.98594 0
M  V30 2664 C 259.765 -3.30685 2.66172 0
M  V30 2665 C 257.672 -3.1518 5.00416 0
M  V30 2666 H 256.602 -0.526005 0.540218 0
M  V30 2667 H 259.253 -0.694367 1.69855 0
M  V30 2668 H 257.635 -3.26446 2.24163 0
M  V30 2669 H 258.809 -1.38405 4.39523 0
M  V30 2670 H 257.124 -1.40068 3.92135 0
M  V30 2671 H 259.721 -4.13158 3.39418 0
M  V30 2672 H 260.064 -3.79312 1.71546 0
M  V30 2673 H 260.597 -2.64708 2.96942 0
M  V30 2674 H 257.336 -2.71511 5.96625 0
M  V30 2675 H 256.856 -3.79974 4.64091 0
M  V30 2676 H 258.535 -3.80166 5.23529 0
M  V30 2677 N 258.668 -1.30515 -0.883378 0
M  V30 2678 C 259.898 -1.22182 -1.66599 0
M  V30 2679 C 260.306 0.217507 -1.87946 0
M  V30 2680 O 259.649 1.1554 -1.42815 0
M  V30 2681 C 259.711 -1.88146 -3.06335 0
M  V30 2682 C 259.375 -3.37476 -3.08154 0
M  V30 2683 C 260.372 -4.33443 -2.87094 0
M  V30 2684 C 258.057 -3.7895 -3.29701 0
M  V30 2685 C 260.051 -5.68858 -2.8754 0
M  V30 2686 C 257.738 -5.14482 -3.29776 0
M  V30 2687 C 258.736 -6.09246 -3.0872 0
M  V30 2688 O 258.424 -7.42302 -3.08615 0
M  V30 2689 H 258.156 -0.423898 -0.52658 0
M  V30 2690 H 260.71 -1.72703 -1.11188 0
M  V30 2691 H 258.94 -1.32157 -3.63416 0
M  V30 2692 H 260.629 -1.7391 -3.66756 0
M  V30 2693 H 261.395 -4.02733 -2.70243 0
M  V30 2694 H 257.274 -3.05631 -3.45124 0
M  V30 2695 H 260.818 -6.428 -2.71024 0
M  V30 2696 H 256.715 -5.44832 -3.46163 0
M  V30 2697 H 257.483 -7.5131 -3.24769 0
M  V30 2698 N 260.146 1.09593 -1.13257 0
M  V30 2699 C 261.056 2.19739 -0.821691 0
M  V30 2700 C 262.072 1.72926 0.19302 0
M  V30 2701 O 263.248 2.01385 0.0244895 0
M  V30 2702 C 260.313 3.45482 -0.290333 0
M  V30 2703 C 259.374 4.06985 -1.36607 0
M  V30 2704 C 258.607 5.26726 -0.859975 0
M  V30 2705 O 258.83 5.69594 0.303082 0
M  V30 2706 O 257.764 5.7931 -1.63351 0
M  V30 2707 H 261.59 2.48781 -1.74189 0
M  V30 2708 H 259.175 1.18496 -0.909894 0
M  V30 2709 H 261.057 4.214 0.000674022 0
M  V30 2710 H 259.732 3.18047 0.602306 0
M  V30 2711 H 258.639 3.32712 -1.71037 0
M  V30 2712 H 259.972 4.38643 -2.23279 0
M  V30 2713 N 261.624 0.925811 1.2754 0
M  V30 2714 C 262.872 0.564138 1.94067 0
M  V30 2715 C 263.193 -0.897188 1.73134 0
M  V30 2716 O 262.463 -1.63573 1.07799 0
M  V30 2717 H 261.043 0.205645 0.718136 0
M  V30 2718 H 263.705 1.1778 1.55287 0
M  V30 2719 H 262.801 0.76881 3.02483 0
M  V30 2720 N 263.102 -1.41638 0.69111 0
M  V30 2721 C 264.351 -2.00526 0.217318 0
M  V30 2722 C 264.664 -1.55353 -1.18848 0
M  V30 2723 O 265.87 -2.06769 -1.75951 0
M  V30 2724 C 264.326 -3.58313 0.337639 0
M  V30 2725 C 263.934 -4.12469 1.74852 0
M  V30 2726 C 265.678 -4.24431 -0.0766066 0
M  V30 2727 C 263.585 -5.62675 1.82074 0
M  V30 2728 H 262.515 -0.750008 0.0774893 0
M  V30 2729 H 265.166 -1.6217 0.858661 0
M  V30 2730 H 263.548 -3.9425 -0.371879 0
M  V30 2731 H 264.722 -3.8796 2.48644 0
M  V30 2732 H 263.037 -3.58861 2.11205 0
M  V30 2733 H 265.634 -5.34683 -0.0430284 0
M  V30 2734 H 265.977 -4.01101 -1.1146 0
M  V30 2735 H 266.51 -3.93512 0.582476 0
M  V30 2736 H 263.249 -5.90826 2.83911 0
M  V30 2737 H 262.769 -5.89124 1.12661 0
M  V30 2738 H 264.448 -6.27371 1.58159 0
M  V30 2739 N 264.58 -0.43555 -1.51462 0
M  V30 2740 C 265.996 -0.0877501 -1.59359 0
M  V30 2741 C 266.196 1.4027 -1.4466 0
M  V30 2742 O 265.252 2.17243 -1.28693 0
M  V30 2743 C 266.565 -0.606264 -2.94525 0
M  V30 2744 C 268.113 -0.566548 -3.0783 0
M  V30 2745 C 268.588 -1.06201 -4.45517 0
M  V30 2746 N 270.079 -1.01992 -4.51832 0
M  V30 2747 C 270.814 -1.37417 -5.5669 0
M  V30 2748 N 270.31 -1.80119 -6.68976 0
M  V30 2749 N 272.103 -1.29245 -5.47039 0
M  V30 2750 H 264.254 -1.40533 -1.59261 0
M  V30 2751 H 266.517 -0.578992 -0.750648 0
M  V30 2752 H 266.223 -1.64901 -3.10645 0
M  V30 2753 H 266.097 -0.0302097 -3.77188 0
M  V30 2754 H 268.484 0.467208 -2.91378 0
M  V30 2755 H 268.565 -1.17898 -2.2701 0
M  V30 2756 H 268.209 -2.09422 -4.62715 0
M  V30 2757 H 268.139 -0.426127 -5.24873 0
M  V30 2758 H 270.63 -0.706308 -3.71241 0
M  V30 2759 H 270.943 -2.05392 -7.45006 0
M  V30 2760 H 269.288 -1.84044 -6.70189 0
M  V30 2761 H 272.479 -0.957522 -4.58202 0
M  V30 2762 H 272.652 -1.57182 -6.28648 0
M  V30 2763 N 266.058 1.56714 -0.166846 0
M  V30 2764 C 267.335 1.88412 0.525373 0
M  V30 2765 C 267.715 1.07602 1.81618 0
M  V30 2766 O 267.063 0.168621 2.27877 0
M  V30 2767 C 267.273 3.40363 0.771613 0
M  V30 2768 C 268.621 4.10007 1.1036 0
M  V30 2769 O 269.645 3.45655 0.860304 0
M  V30 2770 O 268.504 5.2369 1.56239 0
M  V30 2771 H 265.598 0.781587 0.270278 0
M  V30 2772 H 268.144 1.68458 -0.204946 0
M  V30 2773 H 266.916 3.91046 -0.141093 0
M  V30 2774 H 266.539 3.65914 1.55541 0
M  V30 2775 N 267.536 -0.106894 1.57237 0
M  V30 2776 C 268.782 -0.81373 1.85759 0
M  V30 2777 C 269.115 -1.78952 0.754315 0
M  V30 2778 O 268.39 -1.93029 -0.23879 0
M  V30 2779 C 268.673 -1.55293 3.24894 0
M  V30 2780 C 268.526 -0.595929 4.45835 0
M  V30 2781 C 269.845 -2.5063 3.61763 0
M  V30 2782 H 266.964 -0.294369 0.67566 0
M  V30 2783 H 269.606 -0.0776472 1.89841 0
M  V30 2784 H 267.756 -2.1804 3.21544 0
M  V30 2785 H 269.428 0.0236262 4.61294 0
M  V30 2786 H 267.671 0.0916191 4.33703 0
M  V30 2787 H 268.342 -1.15004 5.39887 0
M  V30 2788 H 270.818 -1.97982 3.65981 0
M  V30 2789 H 269.694 -2.99376 4.60071 0
M  V30 2790 H 269.955 -3.3385 2.89821 0
M  V30 2791 N 269.014 -1.53014 -0.377408 0
M  V30 2792 C 270.239 -1.72818 -1.14668 0
M  V30 2793 C 270.664 -0.450725 -1.8262 0
M  V30 2794 O 270.022 0.59439 -1.7128 0
M  V30 2795 C 270.07 -2.88627 -2.16164 0
M  V30 2796 O 269.174 -2.56409 -3.22998 0
M  V30 2797 H 268.515 -0.574301 -0.333278 0
M  V30 2798 H 271.045 -1.99853 -0.438152 0
M  V30 2799 H 271.055 -3.14455 -2.59966 0
M  V30 2800 H 269.73 -3.81294 -1.66095 0
M  V30 2801 H 268.307 -2.4136 -2.84253 0
M  V30 2802 N 270.492 0.636531 -1.44174 0
M  V30 2803 C 271.439 1.74875 -1.50624 0
M  V30 2804 C 272.409 1.62275 -0.35442 0
M  V30 2805 O 273.594 1.82276 -0.563908 0
M  V30 2806 C 270.734 3.13102 -1.45125 0
M  V30 2807 C 269.847 3.36717 -2.7064 0
M  V30 2808 C 268.982 4.64885 -2.57013 0
M  V30 2809 C 268.021 4.8166 -3.77717 0
M  V30 2810 N 267.158 6.01101 -3.62798 0
M  V30 2811 H 271.998 1.68697 -2.45653 0
M  V30 2812 H 269.535 0.823004 -1.21922 0
M  V30 2813 H 271.493 3.93034 -1.39929 0
M  V30 2814 H 270.123 3.18308 -0.536671 0
M  V30 2815 H 269.175 2.50763 -2.86046 0
M  V30 2816 H 270.487 3.44993 -3.60252 0
M  V30 2817 H 269.641 5.52969 -2.49619 0
M  V30 2818 H 268.38 4.58957 -1.64953 0
M  V30 2819 H 267.385 3.92007 -3.85501 0
M  V30 2820 H 268.61 4.89406 -4.70807 0
M  V30 2821 H 266.556 5.96273 -2.73486 0
M  V30 2822 H 266.473 6.10409 -4.46023 0
M  V30 2823 H 267.741 6.91761 -3.59286 0
M  V30 2824 N 271.97 1.30982 0.876444 0
M  V30 2825 C 273.216 1.21484 1.63136 0
M  V30 2826 C 273.571 -0.226339 1.91064 0
M  V30 2827 O 272.864 -1.15788 1.52656 0
M  V30 2828 C 273.058 1.98572 2.9716 0
M  V30 2829 C 272.887 3.50039 2.82317 0
M  V30 2830 C 271.657 4.19393 2.81847 0
M  V30 2831 C 273.855 4.45111 2.57644 0
M  V30 2832 N 271.837 5.57061 2.57985 0
M  V30 2833 C 273.208 5.70402 2.42986 0
M  V30 2834 C 275.263 4.3461 2.42937 0
M  V30 2835 C 273.966 6.8638 2.15115 0
M  V30 2836 C 275.992 5.50365 2.16454 0
M  V30 2837 C 275.354 6.74642 2.02578 0
M  V30 2838 H 271.453 0.499632 0.601575 0
M  V30 2839 H 274.037 1.65094 1.03209 0
M  V30 2840 H 272.208 1.5734 3.55104 0
M  V30 2841 H 273.94 1.81146 3.61895 0
M  V30 2842 H 270.695 3.71303 2.93991 0
M  V30 2843 H 271.119 6.29529 2.49043 0
M  V30 2844 H 275.761 3.39199 2.52396 0
M  V30 2845 H 273.479 7.81824 2.04394 0
M  V30 2846 H 277.065 5.44154 2.05884 0
M  V30 2847 H 275.945 7.62699 1.82374 0
M  V30 2848 N 273.449 -1.08991 1.13837 0
M  V30 2849 C 274.674 -1.85551 0.926585 0
M  V30 2850 C 275.099 -1.80782 -0.519566 0
M  V30 2851 O 274.457 -1.18855 -1.36906 0
M  V30 2852 C 274.505 -3.31266 1.42462 0
M  V30 2853 O 273.609 -4.07822 0.612789 0
M  V30 2854 H 272.95 -0.575192 0.331738 0
M  V30 2855 H 275.48 -1.37604 1.51414 0
M  V30 2856 H 275.49 -3.82112 1.43019 0
M  V30 2857 H 274.165 -3.34052 2.47754 0
M  V30 2858 H 272.742 -3.66731 0.675463 0
M  V30 2859 N 274.927 -0.932562 -1.27047 0
M  V30 2860 C 275.837 -0.441219 -2.30414 0
M  V30 2861 C 276.853 0.480525 -1.67233 0
M  V30 2862 O 278.029 0.362151 -1.98117 0
M  V30 2863 C 275.094 0.293651 -3.45454 0
M  V30 2864 C 274.155 -0.663601 -4.2414 0
M  V30 2865 C 273.388 0.0362932 -5.33688 0
M  V30 2866 O 273.611 1.2548 -5.56427 0
M  V30 2867 O 272.545 -0.638015 -5.98509 0
M  V30 2868 H 276.371 -1.29962 -2.74488 0
M  V30 2869 H 273.956 -0.6981 -1.32087 0
M  V30 2870 H 275.838 0.707951 -4.15411 0
M  V30 2871 H 274.513 1.12758 -3.03426 0
M  V30 2872 H 273.42 -1.12768 -3.56699 0
M  V30 2873 H 274.753 -1.46489 -4.69896 0
M  V30 2874 N 276.405 1.4127 -0.698611 0
M  V30 2875 C 277.821 1.55241 -0.370462 0
M  V30 2876 C 278.021 1.67351 1.12231 0
M  V30 2877 O 277.077 1.65363 1.90818 0
M  V30 2878 C 278.39 2.78997 -1.12165 0
M  V30 2879 C 279.938 2.92797 -1.1063 0
M  V30 2880 C 280.413 4.19445 -1.8393 0
M  V30 2881 N 281.904 4.26409 -1.80914 0
M  V30 2882 C 282.639 5.23271 -2.34467 0
M  V30 2883 N 282.135 6.26145 -2.96504 0
M  V30 2884 N 283.928 5.15232 -2.24706 0
M  V30 2885 H 276.079 1.31654 -1.66676 0
M  V30 2886 H 278.342 0.635393 -0.703548 0
M  V30 2887 H 278.048 2.76268 -2.17644 0
M  V30 2888 H 277.922 3.70606 -0.702209 0
M  V30 2889 H 280.309 2.95039 -0.0597713 0
M  V30 2890 H 280.39 2.02353 -1.56483 0
M  V30 2891 H 280.034 4.17964 -2.88563 0
M  V30 2892 H 279.964 5.08866 -1.35509 0
M  V30 2893 H 282.455 3.527 -1.35687 0
M  V30 2894 H 282.768 6.96451 -3.34927 0
M  V30 2895 H 281.113 6.26638 -3.00583 0
M  V30 2896 H 284.304 4.33789 -1.7591 0
M  V30 2897 H 284.477 5.90552 -2.66745 0
M  V30 2898 N 277.883 0.443576 1.51229 0
M  V30 2899 C 279.111 -0.11929 2.06556 0
M  V30 2900 C 279.526 -1.35921 1.31038 0
M  V30 2901 O 278.883 -1.78675 0.371704 0
M  V30 2902 C 278.934 -0.435228 3.5887 0
M  V30 2903 O 278.655 0.755486 4.31537 0
M  V30 2904 C 280.156 -1.04808 4.30732 0
M  V30 2905 H 277.376 -0.0051584 0.67098 0
M  V30 2906 H 279.92 0.624453 1.94733 0
M  V30 2907 H 278.075 -1.12887 3.70588 0
M  V30 2908 H 278.489 0.483491 5.22267 0
M  V30 2909 H 279.963 -1.2191 5.3837 0
M  V30 2910 H 280.44 -2.03081 3.89429 0
M  V30 2911 H 281.046 -0.393637 4.23474 0
M  V30 2912 N 279.361 -1.56624 0.175154 0
M  V30 2913 C 280.777 -1.58571 -0.180966 0
M  V30 2914 C 280.977 -1.19065 -1.6256 0
M  V30 2915 O 280.033 -0.904044 -2.35761 0
M  V30 2916 C 281.346 -3.00522 0.103326 0
M  V30 2917 C 282.894 -3.12972 0.0418426 0
M  V30 2918 C 283.369 -4.57022 0.299175 0
M  V30 2919 N 284.86 -4.62541 0.247086 0
M  V30 2920 C 285.595 -5.71857 0.420318 0
M  V30 2921 N 285.091 -6.89717 0.652816 0
M  V30 2922 N 286.884 -5.60972 0.355957 0
M  V30 2923 H 279.035 -1.80589 1.11809 0
M  V30 2924 H 281.298 -0.837178 0.444788 0
M  V30 2925 H 281.004 -3.33916 1.10422 0
M  V30 2926 H 280.878 -3.72344 -0.603299 0
M  V30 2927 H 283.265 -2.79403 -0.949636 0
M  V30 2928 H 283.346 -2.43578 0.781238 0
M  V30 2929 H 282.99 -4.913 1.28788 0
M  V30 2930 H 282.92 -5.24579 -0.460876 0
M  V30 2931 H 285.411 -3.77829 0.0731895 0
M  V30 2932 H 285.724 -7.68911 0.774347 0
M  V30 2933 H 284.069 -6.91572 0.689476 0
M  V30 2934 H 287.26 -4.67773 0.174882 0
M  V30 2935 H 287.433 -6.46111 0.494388 0
M  V30 2936 N 280.839 0.0985539 -1.57292 0
M  V30 2937 C 281.786 1.11981 -2.01814 0
M  V30 2938 C 282.756 1.39999 -0.89384 0
M  V30 2939 O 283.941 1.5152 -1.15958 0
M  V30 2940 C 281.081 2.43577 -2.44467 0
M  V30 2941 C 280.194 2.2232 -3.70402 0
M  V30 2942 C 279.329 3.4729 -4.01949 0
M  V30 2943 C 278.368 3.2128 -5.21005 0
M  V30 2944 N 277.505 4.38507 -5.48321 0
M  V30 2945 H 282.345 0.733149 -2.88841 0
M  V30 2946 H 279.882 0.350482 -1.42864 0
M  V30 2947 H 281.84 3.20373 -2.6724 0
M  V30 2948 H 280.47 2.80097 -1.60455 0
M  V30 2949 H 279.522 1.36343 -3.55126 0
M  V30 2950 H 280.834 1.99089 -4.57345 0
M  V30 2951 H 279.988 4.32495 -4.25479 0
M  V30 2952 H 278.727 3.73572 -3.13521 0
M  V30 2953 H 277.732 2.34468 -4.97298 0
M  V30 2954 H 278.957 2.96348 -6.11028 0
M  V30 2955 H 276.903 4.64871 -4.62851 0
M  V30 2956 H 276.82 4.18455 -6.29628 0
M  V30 2957 H 278.088 5.24787 -5.76385 0
M  V30 2958 N 282.317 1.53212 0.369288 0
M  V30 2959 C 283.728 1.60943 0.946276 0
M  V30 2960 C 284.079 0.47452 1.90375 0
M  V30 2961 O 283.204 -0.399597 2.12679 0
M  V30 2962 C 283.799 2.91715 1.72302 0
M  V30 2963 C 282.358 3.01792 2.24941 0
M  V30 2964 C 281.505 2.56211 1.06072 0
M  V30 2965 H 284.456 1.58007 0.148198 0
M  V30 2966 H 284.477 2.79309 2.58393 0
M  V30 2967 H 283.989 3.74295 1.0259 0
M  V30 2968 H 282.09 2.23791 2.97906 0
M  V30 2969 H 282.203 4.06803 2.53077 0
M  V30 2970 H 280.567 2.10998 1.4266 0
M  V30 2971 H 281.35 3.41206 0.378639 0
M  V30 2972 N 283.795 -0.628877 1.44509 0
M  V30 2973 C 284.725 -1.75187 1.54376 0
M  V30 2974 C 285.706 -1.65411 0.396618 0
M  V30 2975 O 286.891 -1.84137 0.617031 0
M  V30 2976 C 284.021 -3.13725 1.48976 0
M  V30 2977 C 282.975 -3.38291 2.62189 0
M  V30 2978 C 282.301 -4.76883 2.41841 0
M  V30 2979 C 283.601 -3.30632 4.04326 0
M  V30 2980 H 285.295 -1.67187 2.48373 0
M  V30 2981 H 282.841 -0.802909 1.19538 0
M  V30 2982 H 284.794 -3.92064 1.54478 0
M  V30 2983 H 283.518 -3.22515 0.514961 0
M  V30 2984 H 282.177 -2.62334 2.56079 0
M  V30 2985 H 281.825 -4.82378 1.42548 0
M  V30 2986 H 281.525 -4.94278 3.17747 0
M  V30 2987 H 283.049 -5.57449 2.49165 0
M  V30 2988 H 284.463 -3.98873 4.11793 0
M  V30 2989 H 282.86 -3.59561 4.80454 0
M  V30 2990 H 283.93 -2.28404 4.27738 0
M  V30 2991 N 285.273 -1.31445 -0.869486 0
M  V30 2992 C 286.183 -1.21097 -2.0093 0
M  V30 2993 C 287.199 -0.127584 -1.73532 0
M  V30 2994 O 288.375 -0.345477 -1.98415 0
M  V30 2995 C 285.44 -0.919378 -3.34288 0
M  V30 2996 C 284.501 -2.08971 -3.75006 0
M  V30 2997 C 283.734 -1.81194 -5.02001 0
M  V30 2998 O 283.957 -0.747296 -5.65484 0
M  V30 2999 O 282.891 -2.66883 -5.39497 0
M  V30 3000 H 286.717 -2.16883 -2.12592 0
M  V30 3001 H 284.302 -1.11189 -0.997868 0
M  V30 3002 H 286.184 -0.772625 -4.14257 0
M  V30 3003 H 284.859 0.00844772 -3.23699 0
M  V30 3004 H 283.766 -2.29187 -2.95676 0
M  V30 3005 H 285.099 -2.9998 -3.90221 0
M  V30 3006 N 286.751 1.08385 -1.14413 0
M  V30 3007 C 287.714 2.13486 -0.834048 0
M  V30 3008 C 288.714 1.59988 0.161418 0
M  V30 3009 O 289.904 1.74071 -0.0669575 0
M  V30 3010 C 287.036 3.4003 -0.243354 0
M  V30 3011 H 288.229 2.42425 -1.7655 0
M  V30 3012 H 285.782 1.24101 -0.950189 0
M  V30 3013 H 286.517 3.16726 0.696807 0
M  V30 3014 H 286.302 3.80157 -0.960367 0
M  V30 3015 H 287.792 4.17577 -0.0436242 0
M  V30 3016 N 288.23 0.939286 1.26551 0
M  V30 3017 C 289.16 0.465044 2.28822 0
M  V30 3018 C 290.141 -0.480692 1.63167 0
M  V30 3019 O 291.326 -0.382955 1.90387 0
M  V30 3020 C 288.456 -0.27234 3.46231 0
M  V30 3021 C 287.41 0.58666 4.2396 0
M  V30 3022 C 286.736 -0.280573 5.33963 0
M  V30 3023 C 288.036 1.85704 4.88171 0
M  V30 3024 H 289.73 1.31979 2.68741 0
M  V30 3025 H 287.276 0.636061 1.29191 0
M  V30 3026 H 289.229 -0.615133 4.16886 0
M  V30 3027 H 287.953 -1.16121 3.0526 0
M  V30 3028 H 286.612 0.91232 3.55067 0
M  V30 3029 H 286.26 -1.16874 4.89234 0
M  V30 3030 H 285.96 0.29076 5.8688 0
M  V30 3031 H 287.484 -0.618678 6.07458 0
M  V30 3032 H 288.898 1.58161 5.51052 0
M  V30 3033 H 287.295 2.37279 5.51197 0
M  V30 3034 H 288.365 2.56957 4.11219 0
M  V30 3035 N 289.708 -1.40897 0.706093 0
M  V30 3036 C 290.938 -2.05075 0.250523 0
M  V30 3037 C 291.346 -1.53275 -1.10921 0
M  V30 3038 O 290.689 -0.680281 -1.7064 0
M  V30 3039 C 290.751 -3.59219 0.142178 0
M  V30 3040 C 290.415 -4.33864 1.43566 0
M  V30 3041 C 291.412 -4.62448 2.37566 0
M  V30 3042 C 289.097 -4.72946 1.69195 0
M  V30 3043 C 291.091 -5.29088 3.5545 0
M  V30 3044 C 288.778 -5.3932 2.87362 0
M  V30 3045 C 289.776 -5.6732 3.80312 0
M  V30 3046 O 289.464 -6.32325 4.96408 0
M  V30 3047 H 289.196 -0.666645 0.112074 0
M  V30 3048 H 291.75 -1.81467 0.962239 0
M  V30 3049 H 289.98 -3.81609 -0.6254 0
M  V30 3050 H 291.669 -4.0495 -0.277584 0
M  V30 3051 H 292.435 -4.32727 2.19027 0
M  V30 3052 H 288.314 -4.50527 0.977042 0
M  V30 3053 H 291.858 -5.50859 4.28018 0
M  V30 3054 H 287.755 -5.68461 3.05814 0
M  V30 3055 H 288.523 -6.50821 4.9636 0
M  V30 3056 N 291.186 -0.45159 -1.50991 0
M  V30 3057 C 292.434 0.109857 -2.01801 0
M  V30 3058 C 292.755 1.41958 -1.3369 0
M  V30 3059 O 292.025 1.9003 -0.475951 0
M  V30 3060 H 290.605 0.0435884 -0.745727 0
M  V30 3061 H 293.267 -0.597557 -1.85514 0
M  V30 3062 H 292.363 0.275489 -3.10882 0
M  V30 3063 N 292.664 1.56529 -0.183458 0
M  V30 3064 C 293.894 2.01331 0.463612 0
M  V30 3065 C 294.302 1.06278 1.5653 0
M  V30 3066 O 293.645 0.0577976 1.83609 0
M  V30 3067 C 293.707 3.42547 1.09096 0
M  V30 3068 C 293.371 4.56817 0.129442 0
M  V30 3069 C 294.368 5.15734 -0.656807 0
M  V30 3070 C 292.053 5.02295 0.02174 0
M  V30 3071 C 294.047 6.1857 -1.53784 0
M  V30 3072 C 291.734 6.04978 -0.862864 0
M  V30 3073 C 292.732 6.62988 -1.64123 0
M  V30 3074 O 292.42 7.63677 -2.51103 0
M  V30 3075 H 292.152 0.664917 0.121907 0
M  V30 3076 H 294.706 2.034 -0.285954 0
M  V30 3077 H 292.936 3.37428 1.88889 0
M  V30 3078 H 294.625 3.71228 1.64148 0
M  V30 3079 H 295.391 4.81473 -0.583839 0
M  V30 3080 H 291.27 4.56847 0.617392 0
M  V30 3081 H 294.814 6.63777 -2.14583 0
M  V30 3082 H 290.711 6.38663 -0.93699 0
M  V30 3083 H 291.479 7.81049 -2.44753 0
M  V30 3084 N 294.142 -0.090211 1.57342 0
M  V30 3085 C 295.419 -0.824761 1.77361 0
M  V30 3086 C 295.799 -1.96698 0.76637 0
M  V30 3087 O 295.147 -2.27586 -0.204179 0
M  V30 3088 C 295.357 -1.31481 3.23286 0
M  V30 3089 C 296.705 -1.75563 3.86604 0
M  V30 3090 O 297.729 -1.41093 3.27065 0
M  V30 3091 O 296.588 -2.39317 4.91314 0
M  V30 3092 H 293.682 -0.393776 0.727234 0
M  V30 3093 H 296.228 -0.0717138 1.69548 0
M  V30 3094 H 295 -0.496671 3.88135 0
M  V30 3095 H 294.623 -2.12973 3.35751 0
M  V30 3096 N 295.62 -1.53406 -0.361157 0
M  V30 3097 C 296.85 -1.73465 -1.1222 0
M  V30 3098 C 297.258 -0.465486 -1.83384 0
M  V30 3099 O 296.601 0.571611 -1.7458 0
M  V30 3100 C 296.663 -2.84834 -2.19339 0
M  V30 3101 C 296.327 -4.25038 -1.67903 0
M  V30 3102 C 297.324 -5.07231 -1.14074 0
M  V30 3103 C 295.009 -4.71464 -1.73282 0
M  V30 3104 C 297.003 -6.33942 -0.663068 0
M  V30 3105 C 294.69 -5.98153 -1.25127 0
M  V30 3106 C 295.688 -6.79223 -0.717296 0
M  V30 3107 O 295.376 -8.03533 -0.242865 0
M  V30 3108 H 295.108 -0.583526 -0.341283 0
M  V30 3109 H 297.662 -2.00964 -0.424591 0
M  V30 3110 H 295.892 -2.5282 -2.92607 0
M  V30 3111 H 297.581 -2.9303 -2.80871 0
M  V30 3112 H 298.347 -4.72534 -1.09254 0
M  V30 3113 H 294.226 -4.08432 -2.13786 0
M  V30 3114 H 297.77 -6.97167 -0.245612 0
M  V30 3115 H 293.667 -6.32347 -1.29642 0
M  V30 3116 H 294.435 -8.177 -0.361786 0
M  V30 3117 N 297.098 0.621204 -1.44841 0
M  V30 3118 C 298.345 1.38055 -1.48145 0
M  V30 3119 C 298.673 1.94143 -0.117867 0
M  V30 3120 O 297.928 1.74713 0.881694 0
M  V30 3121 C 298.227 2.55675 -2.4973 0
M  V30 3122 C 297.893 2.17817 -3.94799 0
M  V30 3123 C 296.555 2.07205 -4.34303 0
M  V30 3124 C 298.907 1.88065 -4.86087 0
M  V30 3125 C 296.235 1.65045 -5.63007 0
M  V30 3126 C 298.587 1.47394 -6.15189 0
M  V30 3127 C 297.251 1.35331 -6.53637 0
M  V30 3128 H 296.521 0.505181 -0.542101 0
M  V30 3129 H 299.168 0.703477 -1.78111 0
M  V30 3130 H 297.473 3.2866 -2.13284 0
M  V30 3131 H 299.17 3.13904 -2.4953 0
M  V30 3132 H 295.76 2.26998 -3.63552 0
M  V30 3133 H 299.944 1.95168 -4.56315 0
M  V30 3134 H 295.2 1.54317 -5.91605 0
M  V30 3135 H 299.374 1.23415 -6.85377 0
M  V30 3136 H 297.001 1.02435 -7.53267 0
M  V30 3137 N 298.576 1.31904 0.862503 0
M  V30 3138 C 299.539 1.20131 1.95195 0
M  V30 3139 C 300.539 0.126409 1.60302 0
M  V30 3140 O 301.729 0.376234 1.70089 0
M  V30 3141 C 298.861 0.845691 3.30244 0
M  V30 3142 H 300.054 2.16943 2.07064 0
M  V30 3143 H 297.607 1.15622 1.05172 0
M  V30 3144 H 298.342 -0.120957 3.24074 0
M  V30 3145 H 298.127 1.62276 3.56944 0
M  V30 3146 H 299.617 0.787418 4.10109 0
M  V30 3147 N 300.054 -1.07777 1.14986 0
M  V30 3148 C 301.47 -1.32373 0.891596 0
M  V30 3149 C 301.67 -1.9609 -0.463788 0
M  V30 3150 O 300.726 -2.21801 -1.20667 0
M  V30 3151 C 302.039 -2.21905 2.02925 0
M  V30 3152 C 303.587 -2.35367 2.06329 0
M  V30 3153 C 304.062 -3.28245 3.19405 0
M  V30 3154 N 305.553 -3.35824 3.19024 0
M  V30 3155 C 306.288 -4.07739 4.03158 0
M  V30 3156 N 305.784 -4.82306 4.97346 0
M  V30 3157 N 307.577 -4.03635 3.91197 0
M  V30 3158 H 299.728 -0.648039 2.02273 0
M  V30 3159 H 301.991 -0.348149 0.881757 0
M  V30 3160 H 301.697 -1.82342 3.0074 0
M  V30 3161 H 301.571 -3.22407 1.95789 0
M  V30 3162 H 303.958 -2.74186 1.09116 0
M  V30 3163 H 304.039 -1.34585 2.17533 0
M  V30 3164 H 303.683 -2.90146 4.16867 0
M  V30 3165 H 303.613 -4.28971 3.05437 0
M  V30 3166 H 306.104 -2.8267 2.50811 0
M  V30 3167 H 306.417 -5.34661 5.57994 0
M  V30 3168 H 304.762 -4.81337 5.01338 0
M  V30 3169 H 307.953 -3.44491 3.16928 0
M  V30 3170 H 308.126 -4.59417 4.5699 0
M  V30 3171 N 301.532 -0.945985 -1.26051 0
M  V30 3172 C 302.76 -0.613025 -1.9761 0
M  V30 3173 C 303.175 0.813035 -1.70397 0
M  V30 3174 O 302.532 1.54274 -0.974979 0
M  V30 3175 C 302.583 -0.85159 -3.51326 0
M  V30 3176 O 302.304 -2.22157 -3.77595 0
M  V30 3177 C 303.805 -0.529831 -4.40122 0
M  V30 3178 H 301.025 -0.230593 -0.630133 0
M  V30 3179 H 303.569 -1.268 -1.60443 0
M  V30 3180 H 301.724 -0.243151 -3.86636 0
M  V30 3181 H 302.138 -2.2852 -4.721 0
M  V30 3182 H 303.612 -0.747348 -5.46917 0
M  V30 3183 H 304.089 0.535341 -4.35925 0
M  V30 3184 H 304.695 -1.11721 -4.10364 0
M  V30 3185 N 303.011 1.40521 -0.713556 0
M  V30 3186 C 304.251 2.02783 -0.256584 0
M  V30 3187 C 304.615 1.55352 1.12827 0
M  V30 3188 O 305.816 2.09663 1.68211 0
M  V30 3189 C 304.087 3.5586 -0.331414 0
M  V30 3190 S 305.646 4.38773 0.0488703 0
M  V30 3191 H 302.464 0.703655 -0.101934 0
M  V30 3192 H 305.066 1.71674 -0.935325 0
M  V30 3193 H 303.77 3.87874 -1.34098 0
M  V30 3194 H 303.301 3.91695 0.365873 0
M  V30 3195 H 305.316 4.79633 1.2715 0
M  V30 3196 N 304.489 0.459591 1.5075 0
M  V30 3197 C 305.399 -0.34613 2.32033 0
M  V30 3198 C 306.415 -1.00686 1.41909 0
M  V30 3199 O 307.591 -0.997361 1.7497 0
M  V30 3200 C 304.656 -1.42029 3.16273 0
M  V30 3201 C 303.717 -0.777362 4.22203 0
M  V30 3202 C 302.95 -1.80034 5.02418 0
M  V30 3203 O 303.173 -3.02544 4.83553 0
M  V30 3204 O 302.107 -1.37853 5.85901 0
M  V30 3205 H 305.933 0.318054 3.0203 0
M  V30 3206 H 303.518 0.221663 1.47746 0
M  V30 3207 H 305.4 -2.04275 3.68578 0
M  V30 3208 H 304.075 -2.06815 2.49016 0
M  V30 3209 H 302.982 -0.116256 3.73919 0
M  V30 3210 H 304.315 -0.172634 4.91897 0
M  V30 3211 N 305.967 -1.56429 0.191757 0
M  V30 3212 C 306.914 -2.18936 -0.730454 0
M  V30 3213 C 307.884 -1.13557 -1.21219 0
M  V30 3214 O 309.069 -1.41794 -1.27668 0
M  V30 3215 C 306.209 -2.85013 -1.9458 0
M  V30 3216 C 305.322 -4.04909 -1.50574 0
M  V30 3217 C 304.457 -4.58853 -2.67634 0
M  V30 3218 C 303.496 -5.71114 -2.20217 0
M  V30 3219 N 302.633 -6.19478 -3.30442 0
M  V30 3220 H 307.473 -2.97389 -0.190664 0
M  V30 3221 H 305.01 -1.46869 -0.0823694 0
M  V30 3222 H 306.968 -3.21492 -2.65893 0
M  V30 3223 H 305.598 -2.09129 -2.45896 0
M  V30 3224 H 304.65 -3.74115 -0.688605 0
M  V30 3225 H 305.962 -4.86113 -1.11784 0
M  V30 3226 H 305.116 -4.97619 -3.47074 0
M  V30 3227 H 303.855 -3.76749 -3.09696 0
M  V30 3228 H 302.86 -5.31879 -1.3923 0
M  V30 3229 H 304.085 -6.55033 -1.79189 0
M  V30 3230 H 302.031 -5.40297 -3.72041 0
M  V30 3231 H 301.948 -6.95725 -2.9581 0
M  V30 3232 H 303.216 -6.62898 -4.10106 0
M  V30 3233 N 307.445 0.0818655 -1.57387 0
M  V30 3234 C 308.691 0.778884 -1.87896 0
M  V30 3235 C 309.046 1.75692 -0.784229 0
M  V30 3236 O 308.339 1.90417 0.212567 0
M  V30 3237 C 308.533 1.53513 -3.22752 0
M  V30 3238 C 308.362 0.631838 -4.45239 0
M  V30 3239 C 307.132 0.272571 -5.04564 0
M  V30 3240 C 309.33 -0.0670191 -5.14256 0
M  V30 3241 N 307.312 -0.637498 -6.10581 0
M  V30 3242 C 308.683 -0.834653 -6.14356 0
M  V30 3243 C 310.738 -0.139551 -4.97704 0
M  V30 3244 C 309.441 -1.66806 -6.99691 0
M  V30 3245 C 311.467 -0.959903 -5.83558 0
M  V30 3246 C 310.829 -1.71561 -6.83188 0
M  V30 3247 H 306.928 0.260764 -0.737242 0
M  V30 3248 H 309.512 0.0408227 -1.94657 0
M  V30 3249 H 307.683 2.24398 -3.17018 0
M  V30 3250 H 309.415 2.18038 -3.40942 0
M  V30 3251 H 306.17 0.62319 -4.69482 0
M  V30 3252 H 306.594 -1.08548 -6.68241 0
M  V30 3253 H 311.236 0.430376 -4.20604 0
M  V30 3254 H 308.954 -2.249 -7.76174 0
M  V30 3255 H 312.54 -1.01887 -5.72809 0
M  V30 3256 H 311.42 -2.34017 -7.48469 0
M  V30 3257 N 308.923 1.53595 0.353017 0
M  V30 3258 C 310.169 1.70638 1.09593 0
M  V30 3259 C 310.502 0.463286 1.88593 0
M  V30 3260 O 309.777 -0.539597 1.86865 0
M  V30 3261 C 310.06 2.96406 2.04489 0
M  V30 3262 C 309.913 4.30901 1.29014 0
M  V30 3263 C 311.232 3.17812 3.0444 0
M  V30 3264 H 308.351 0.620913 0.397034 0
M  V30 3265 H 310.993 1.86254 0.375446 0
M  V30 3266 H 309.143 2.83223 2.65927 0
M  V30 3267 H 310.815 4.55917 0.702638 0
M  V30 3268 H 309.058 4.29741 0.592071 0
M  V30 3269 H 309.729 5.1506 1.98537 0
M  V30 3270 H 312.205 3.30263 2.53112 0
M  V30 3271 H 311.081 4.07223 3.6805 0
M  V30 3272 H 311.342 2.33669 3.75301 0
M  V30 3273 N 310.401 -0.613514 1.45168 0
M  V30 3274 C 311.678 -1.37263 1.39349 0
M  V30 3275 C 312.058 -2.11012 0.0610848 0
M  V30 3276 O 311.406 -2.07502 -0.956825 0
M  V30 3277 C 311.616 -2.3244 2.60332 0
M  V30 3278 C 312.964 -2.9523 3.05163 0
M  V30 3279 O 313.988 -2.42762 2.60663 0
M  V30 3280 O 312.847 -3.90454 3.82372 0
M  V30 3281 H 309.941 -0.615188 0.552696 0
M  V30 3282 H 312.487 -0.637097 1.57287 0
M  V30 3283 H 311.259 -1.77164 3.48896 0
M  V30 3284 H 310.882 -3.13383 2.44698 0
M  V30 3285 N 311.879 -1.3236 -0.855495 0
M  V30 3286 C 313.127 -1.22629 -1.60644 0
M  V30 3287 C 313.448 0.212136 -1.93843 0
M  V30 3288 O 312.718 1.13666 -1.59552 0
M  V30 3289 H 311.298 -0.450882 -0.595579 0
M  V30 3290 H 313.96 -1.65871 -1.02337 0
M  V30 3291 H 313.056 -1.80832 -2.54374 0
M  V30 3292 N 313.357 1.07166 -1.15556 0
M  V30 3293 C 314.606 1.79181 -0.926132 0
M  V30 3294 C 314.919 1.87768 0.547967 0
M  V30 3295 O 316.125 2.56323 0.895036 0
M  V30 3296 C 314.581 3.22 -1.60761 0
M  V30 3297 C 314.189 3.21607 -3.11886 0
M  V30 3298 C 315.933 3.9861 -1.4598 0
M  V30 3299 C 313.84 4.59092 -3.72812 0
M  V30 3300 H 312.77 0.67154 -0.342856 0
M  V30 3301 H 315.421 1.2027 -1.3859 0
M  V30 3302 H 313.803 3.81115 -1.07553 0
M  V30 3303 H 314.977 2.72127 -3.71865 0
M  V30 3304 H 313.292 2.58495 -3.2645 0
M  V30 3305 H 315.889 5.00225 -1.88888 0
M  V30 3306 H 316.232 4.143 -0.407541 0
M  V30 3307 H 316.765 3.45996 -1.96295 0
M  V30 3308 H 313.504 4.48606 -4.77946 0
M  V30 3309 H 313.024 5.08803 -3.17616 0
M  V30 3310 H 314.703 5.28059 -3.73848 0
M  V30 3311 N 314.835 0.952656 1.25548 0
M  V30 3312 C 316.251 0.656769 1.4546 0
M  V30 3313 C 316.451 -0.78633 1.85524 0
M  V30 3314 O 315.507 -1.56183 1.98402 0
M  V30 3315 C 316.82 1.62801 2.52817 0
M  V30 3316 C 318.368 1.63897 2.66659 0
M  V30 3317 C 318.843 2.5978 3.77198 0
M  V30 3318 N 320.334 2.58133 3.84606 0
M  V30 3319 C 321.069 3.29003 4.69621 0
M  V30 3320 N 320.565 4.09339 5.58939 0
M  V30 3321 N 322.358 3.179 4.63569 0
M  V30 3322 H 314.509 1.88526 0.978344 0
M  V30 3323 H 316.772 0.810815 0.491206 0
M  V30 3324 H 316.478 2.65869 2.30232 0
M  V30 3325 H 316.352 1.38898 3.50695 0
M  V30 3326 H 318.739 0.615481 2.8861 0
M  V30 3327 H 318.82 1.91858 1.69187 0
M  V30 3328 H 318.464 3.62254 3.55997 0
M  V30 3329 H 318.394 2.29105 4.7415 0
M  V30 3330 H 320.885 1.99809 3.20757 0
M  V30 3331 H 321.198 4.6034 6.20731 0
M  V30 3332 H 319.543 4.13438 5.58654 0
M  V30 3333 H 322.734 2.54612 3.92798 0
M  V30 3334 H 322.907 3.73398 5.29602 0
M  V30 3335 N 316.313 -1.40141 0.720998 0
M  V30 3336 C 317.245 -2.29177 0.0324669 0
M  V30 3337 C 318.258 -1.46105 -0.718126 0
M  V30 3338 O 319.447 -1.69335 -0.564608 0
M  V30 3339 C 316.547 -3.24473 -0.978292 0
M  V30 3340 C 315.72 -4.36423 -0.292115 0
M  V30 3341 C 314.779 -5.12122 -1.20901 0
M  V30 3342 O 313.805 -5.64981 -0.691766 0
M  V30 3343 N 315.007 -5.21992 -2.53978 0
M  V30 3344 H 317.772 -2.88909 0.796984 0
M  V30 3345 H 315.333 -1.51569 0.569068 0
M  V30 3346 H 317.325 -3.71987 -1.59398 0
M  V30 3347 H 315.895 -2.65871 -1.64413 0
M  V30 3348 H 315.115 -3.90967 0.503847 0
M  V30 3349 H 316.403 -5.08467 0.183971 0
M  V30 3350 H 315.801 -4.8054 -2.98493 0
M  V30 3351 H 314.358 -5.72995 -3.10677 0
M  V30 3352 N 317.792 -0.46758 -1.50504 0
M  V30 3353 C 319.039 0.0886219 -2.02306 0
M  V30 3354 C 319.367 1.40037 -1.34981 0
M  V30 3355 O 318.622 1.90136 -0.463318 0
M  V30 3356 C 318.921 0.323995 -3.55928 0
M  V30 3357 C 318.587 -0.905618 -4.41712 0
M  V30 3358 C 317.249 -1.24275 -4.64875 0
M  V30 3359 C 319.601 -1.72448 -4.91845 0
M  V30 3360 C 316.929 -2.39888 -5.35417 0
M  V30 3361 C 319.281 -2.87185 -5.63656 0
M  V30 3362 C 317.945 -3.21317 -5.85074 0
M  V30 3363 H 317.215 0.0324291 -0.74029 0
M  V30 3364 H 319.862 -0.620945 -1.81153 0
M  V30 3365 H 318.167 1.11577 -3.75577 0
M  V30 3366 H 319.864 0.76826 -3.93572 0
M  V30 3367 H 316.454 -0.632956 -4.239 0
M  V30 3368 H 320.638 -1.4772 -4.73806 0
M  V30 3369 H 315.894 -2.66611 -5.50208 0
M  V30 3370 H 320.068 -3.50985 -6.01484 0
M  V30 3371 H 317.695 -4.1101 -6.39511 0
M  V30 3372 N 319.27 1.56325 -0.20005 0
M  V30 3373 C 320.217 2.1932 0.718833 0
M  V30 3374 C 321.187 1.14198 1.20615 0
M  V30 3375 O 322.372 1.42469 1.26914 0
M  V30 3376 C 319.512 2.86041 1.93066 0
M  V30 3377 C 318.625 4.05702 1.48425 0
M  V30 3378 C 317.76 4.60266 2.65196 0
M  V30 3379 C 316.799 5.72273 2.17185 0
M  V30 3380 N 315.936 6.21221 3.27152 0
M  V30 3381 H 320.776 2.97486 0.17489 0
M  V30 3382 H 318.313 1.46911 0.0745794 0
M  V30 3383 H 320.271 3.22897 2.64184 0
M  V30 3384 H 318.901 2.1043 2.44783 0
M  V30 3385 H 317.953 3.74475 0.668755 0
M  V30 3386 H 319.265 4.86699 1.09204 0
M  V30 3387 H 318.419 4.99453 3.4443 0
M  V30 3388 H 317.158 3.78386 3.07693 0
M  V30 3389 H 316.163 5.3261 1.36407 0
M  V30 3390 H 317.388 6.55974 1.75713 0
M  V30 3391 H 315.334 5.42263 3.69171 0
M  V30 3392 H 315.251 6.97284 2.92116 0
M  V30 3393 H 316.519 6.65063 4.06585 0
M  V30 3394 N 320.748 -0.0735177 1.57428 0
M  V30 3395 C 321.698 -1.09442 2.00016 0
M  V30 3396 C 322.682 -1.34575 0.881947 0
M  V30 3397 O 323.874 -1.34905 1.14585 0
M  V30 3398 C 321.003 -2.40865 2.4462 0
M  V30 3399 C 320.089 -2.19014 3.63172 0
M  V30 3400 N 320.48 -1.67087 4.77405 0
M  V30 3401 C 318.778 -2.49494 3.69688 0
M  V30 3402 C 319.479 -1.6001 5.5926 0
M  V30 3403 N 318.455 -2.05999 5.03056 0
M  V30 3404 H 322.257 -0.686227 2.85776 0
M  V30 3405 H 319.771 -0.280617 1.59957 0
M  V30 3406 H 321.768 -3.14763 2.73368 0
M  V30 3407 H 320.428 -2.82403 1.60246 0
M  V30 3408 H 321.439 -1.35975 4.99731 0
M  V30 3409 H 318.116 -2.94409 2.96023 0
M  V30 3410 H 319.506 -1.2073 6.60964 0
M  V30 3411 N 322.226 -1.5378 -0.344866 0
M  V30 3412 C 323.156 -1.84662 -1.42906 0
M  V30 3413 C 324.137 -0.701648 -1.54955 0
M  V30 3414 O 325.322 -0.953438 -1.69184 0
M  V30 3415 C 322.452 -2.05503 -2.79974 0
M  V30 3416 C 321.406 -3.21318 -2.82734 0
M  V30 3417 C 320.732 -3.2749 -4.22675 0
M  V30 3418 C 322.032 -4.59456 -2.48389 0
M  V30 3419 H 323.726 -2.75461 -1.17311 0
M  V30 3420 H 321.272 -1.32542 -0.562896 0
M  V30 3421 H 323.225 -2.25691 -3.55867 0
M  V30 3422 H 321.949 -1.11434 -3.07002 0
M  V30 3423 H 320.608 -3.00984 -2.09294 0
M  V30 3424 H 320.256 -2.31019 -4.4681 0
M  V30 3425 H 319.956 -4.05316 -4.25433 0
M  V30 3426 H 321.48 -3.49887 -5.00412 0
M  V30 3427 H 322.894 -4.79667 -3.13995 0
M  V30 3428 H 321.291 -5.39675 -2.62432 0
M  V30 3429 H 322.361 -4.63155 -1.4358 0
M  V30 3430 N 323.704 0.605807 -1.45491 0
M  V30 3431 C 325.115 1.18777 -1.44045 0
M  V30 3432 C 325.466 1.95471 -0.169001 0
M  V30 3433 O 324.591 2.0374 0.729324 0
M  V30 3434 C 325.186 2.16064 -2.60963 0
M  V30 3435 C 323.745 2.69633 -2.62631 0
M  V30 3436 C 322.892 1.45072 -2.36325 0
M  V30 3437 H 325.843 0.395017 -1.53705 0
M  V30 3438 H 325.864 2.9913 -2.35163 0
M  V30 3439 H 325.376 1.60217 -3.53486 0
M  V30 3440 H 323.477 3.29414 -1.74119 0
M  V30 3441 H 323.59 3.13944 -3.61906 0
M  V30 3442 H 321.954 1.74089 -1.85917 0
M  V30 3443 H 322.737 0.910899 -3.30995 0
M  V30 3444 N 325.182 1.32811 0.848464 0
M  V30 3445 C 326.459 1.14334 1.58704 0
M  V30 3446 C 326.839 -0.293948 2.09043 0
M  V30 3447 O 326.187 -1.29153 1.88499 0
M  V30 3448 C 326.397 2.17626 2.72837 0
M  V30 3449 C 327.745 2.51282 3.42261 0
M  V30 3450 O 328.769 2.16219 2.83068 0
M  V30 3451 O 327.628 3.11413 4.49093 0
M  V30 3452 H 324.722 0.441601 0.699226 0
M  V30 3453 H 327.268 1.44362 0.892053 0
M  V30 3454 H 326.04 3.14211 2.3321 0
M  V30 3455 H 325.663 1.88628 3.50008 0
M  V30 3456 N 326.66 -1.06551 1.16123 0
M  V30 3457 C 327.908 -1.78947 0.939267 0
M  V30 3458 C 328.229 -1.87532 -0.534476 0
M  V30 3459 O 327.499 -1.38211 -1.38833 0
M  V30 3460 H 326.079 -0.662807 0.344523 0
M  V30 3461 H 328.741 -1.28725 1.46342 0
M  V30 3462 H 327.837 -2.81117 1.35572 0
M  V30 3463 N 328.138 -0.959301 -1.25041 0
M  V30 3464 C 329.086 -0.474437 -2.2771 0
M  V30 3465 C 330.08 0.457697 -1.631 0
M  V30 3466 O 331.286 0.333912 -1.76876 0
M  V30 3467 H 327.661 -0.134936 -0.739795 0
M  V30 3468 H 329.632 -1.35251 -2.65988 0
M  V30 3469 C 328.381 0.227884 -3.46952 0
M  V30 3470 H 327.704 -0.480248 -3.96905 0
M  V30 3471 H 329.144 0.531091 -4.20661 0
M  V30 3472 C 327.603 1.452 -3.04004 0
M  V30 3473 O 328.133 2.54949 -3.10426 0
M  V30 3474 N 326.339 1.31502 -2.59144 0
M  V30 3475 H 325.886 0.422065 -2.54119 0
M  V30 3476 H 325.844 2.13521 -2.30773 0
M  V30 3477 N 329.616 1.39756 -0.72842 0
M  V30 3478 C 330.865 1.99879 -0.270407 0
M  V30 3479 C 331.178 1.58449 1.14688 0
M  V30 3480 O 332.384 2.11362 1.70407 0
M  V30 3481 C 330.84 3.57292 -0.43252 0
M  V30 3482 C 330.448 4.07688 -1.85727 0
M  V30 3483 C 332.192 4.24485 -0.0359507 0
M  V30 3484 C 330.099 5.5765 -1.96928 0
M  V30 3485 H 329.029 0.747689 -0.0973472 0
M  V30 3486 H 331.68 1.59837 -0.901355 0
M  V30 3487 H 330.062 3.95097 0.267219 0
M  V30 3488 H 331.236 3.81231 -2.58843 0
M  V30 3489 H 329.551 3.53135 -2.20646 0
M  V30 3490 H 332.148 5.34609 -0.0987484 0
M  V30 3491 H 332.491 4.03915 1.00787 0
M  V30 3492 H 333.024 3.9183 -0.686604 0
M  V30 3493 H 329.763 5.8309 -2.99476 0
M  V30 3494 H 329.283 5.8593 -1.28241 0
M  V30 3495 H 330.962 6.22957 -1.74737 0
M  V30 3496 N 331.094 0.475555 1.50254 0
M  V30 3497 C 332.334 -0.0765802 2.04256 0
M  V30 3498 C 332.698 -1.36587 1.34937 0
M  V30 3499 O 333.899 -2.00066 1.79519 0
M  V30 3500 C 332.17 -0.251668 3.56513 0
M  V30 3501 S 333.729 -0.761716 4.32138 0
M  V30 3502 H 330.547 -0.0138456 0.710865 0
M  V30 3503 H 333.149 0.643714 1.84598 0
M  V30 3504 H 331.853 0.692404 4.04517 0
M  V30 3505 H 331.384 -0.997946 3.80532 0
M  V30 3506 H 333.399 -2.03451 4.52573 0
M  V30 3507 N 332.573 -1.56217 0.208337 0
M  V30 3508 C 333.989 -1.58919 -0.14729 0
M  V30 3509 C 334.189 -1.22486 -1.59998 0
M  V30 3510 O 333.245 -0.953849 -2.3379 0
M  V30 3511 C 334.558 -3.00236 0.167048 0
M  V30 3512 C 336.106 -3.12813 0.108219 0
M  V30 3513 C 336.581 -4.56284 0.396049 0
M  V30 3514 N 338.072 -4.61912 0.345142 0
M  V30 3515 C 338.807 -5.70837 0.541523 0
M  V30 3516 N 338.303 -6.88178 0.798968 0
M  V30 3517 N 340.096 -5.60091 0.474867 0
M  V30 3518 H 332.247 -1.78177 1.15614 0
M  V30 3519 H 334.51 -0.827555 0.462446 0
M  V30 3520 H 334.216 -3.31499 1.1748 0
M  V30 3521 H 334.09 -3.7354 -0.524184 0
M  V30 3522 H 336.477 -2.81354 -0.890157 0
M  V30 3523 H 336.558 -2.41866 0.832729 0
M  V30 3524 H 336.202 -4.88458 1.3918 0
M  V30 3525 H 336.132 -5.25439 -0.349502 0
M  V30 3526 H 338.623 -3.77589 0.153316 0
M  V30 3527 H 338.936 -7.67095 0.93727 0
M  V30 3528 H 337.281 -6.89953 0.836013 0
M  V30 3529 H 340.472 -4.67297 0.274064 0
M  V30 3530 H 340.645 -6.44917 0.631326 0
M  V30 3531 N 334.051 0.0651679 -1.57465 0
M  V30 3532 C 335.001 1.0838 -2.00594 0
M  V30 3533 C 335.985 1.34106 -0.889071 0
M  V30 3534 O 337.177 1.34295 -1.15299 0
M  V30 3535 C 334.306 2.39565 -2.45894 0
M  V30 3536 C 333.392 2.17085 -3.64328 0
M  V30 3537 N 333.783 1.64553 -4.78285 0
M  V30 3538 C 332.081 2.4753 -3.71006 0
M  V30 3539 C 332.782 1.57042 -5.60101 0
M  V30 3540 N 331.758 2.03328 -5.04141 0
M  V30 3541 H 335.56 0.671062 -2.86136 0
M  V30 3542 H 333.074 0.27213 -1.60104 0
M  V30 3543 H 335.071 3.13308 -2.75034 0
M  V30 3544 H 333.731 2.81549 -1.61741 0
M  V30 3545 H 334.742 1.33323 -5.00445 0
M  V30 3546 H 331.419 2.92835 -2.9758 0
M  V30 3547 H 332.809 1.17223 -6.61595 0
M  V30 3548 N 335.529 1.53961 0.336706 0
M  V30 3549 C 336.459 1.85417 1.41925 0
M  V30 3550 C 337.44 0.709856 1.5458 0
M  V30 3551 O 338.625 0.962396 1.68676 0
M  V30 3552 C 335.755 2.06985 2.78881 0
M  V30 3553 C 334.709 3.22813 2.81026 0
M  V30 3554 C 334.035 3.29727 4.20932 0
M  V30 3555 C 335.335 4.60767 2.45949 0
M  V30 3556 H 337.029 2.76079 1.15848 0
M  V30 3557 H 334.575 1.32839 0.555859 0
M  V30 3558 H 336.528 2.27575 3.54665 0
M  V30 3559 H 335.252 1.13061 3.06406 0
M  V30 3560 H 333.911 3.0209 2.07695 0
M  V30 3561 H 333.559 2.33385 4.45579 0
M  V30 3562 H 333.259 4.07566 4.23277 0
M  V30 3563 H 334.783 3.52536 4.98549 0
M  V30 3564 H 336.197 4.81325 3.11446 0
M  V30 3565 H 334.594 5.4106 2.59566 0
M  V30 3566 H 335.664 4.6391 1.41122 0
M  V30 3567 N 337.007 -0.598083 1.45811 0
M  V30 3568 C 337.937 -1.71873 1.58057 0
M  V30 3569 C 338.918 -1.64533 0.431615 0
M  V30 3570 O 340.103 -1.82787 0.65595 0
M  V30 3571 C 337.233 -3.10495 1.55597 0
M  V30 3572 C 336.187 -3.32654 2.69305 0
M  V30 3573 C 335.513 -4.71646 2.51902 0
M  V30 3574 C 336.813 -3.21981 4.11248 0
M  V30 3575 H 338.507 -1.61881 2.51863 0
M  V30 3576 H 336.053 -0.777372 1.21214 0
M  V30 3577 H 338.006 -3.88699 1.6276 0
M  V30 3578 H 336.73 -3.2135 0.583255 0
M  V30 3579 H 335.389 -2.56843 2.61586 0
M  V30 3580 H 335.037 -4.79246 1.52748 0
M  V30 3581 H 334.737 -4.87426 3.2816 0
M  V30 3582 H 336.261 -5.52038 2.60933 0
M  V30 3583 H 337.675 -3.90049 4.20161 0
M  V30 3584 H 336.072 -3.49289 4.87972 0
M  V30 3585 H 337.142 -2.1928 4.32486 0
M  V30 3586 N 338.485 -1.33259 -0.841409 0
M  V30 3587 C 339.896 -1.22066 -1.41269 0
M  V30 3588 C 340.247 0.161479 -1.95534 0
M  V30 3589 O 339.372 1.06094 -1.88608 0
M  V30 3590 C 339.967 -2.20996 -2.568 0
M  V30 3591 C 338.526 -2.13649 -3.09888 0
M  V30 3592 C 337.673 -2.08623 -1.82679 0
M  V30 3593 H 340.624 -1.44895 -0.647395 0
M  V30 3594 H 340.645 -1.81621 -3.34356 0
M  V30 3595 H 340.157 -3.2158 -2.17274 0
M  V30 3596 H 338.258 -1.16359 -3.53965 0
M  V30 3597 H 338.371 -3.04079 -3.70234 0
M  V30 3598 H 336.735 -1.54061 -2.02824 0
M  V30 3599 H 337.518 -3.1101 -1.45353 0
M  V30 3600 N 339.963 1.05934 -1.16686 0
M  V30 3601 C 341.379 1.30938 -0.912542 0
M  V30 3602 C 341.579 1.96803 0.432533 0
M  V30 3603 O 340.635 2.23693 1.17123 0
M  V30 3604 C 341.948 2.18649 -2.06429 0
M  V30 3605 C 343.496 2.32055 -2.10047 0
M  V30 3606 C 343.971 3.23122 -3.24586 0
M  V30 3607 N 345.462 3.30706 -3.24327 0
M  V30 3608 C 346.197 4.01273 -4.09594 0
M  V30 3609 N 345.693 4.74332 -5.04956 0
M  V30 3610 N 347.486 3.97361 -3.97569 0
M  V30 3611 H 339.637 0.615777 -2.03278 0
M  V30 3612 H 341.9 0.334077 -0.887185 0
M  V30 3613 H 341.606 1.77534 -3.03603 0
M  V30 3614 H 341.48 3.19252 -2.00894 0
M  V30 3615 H 343.867 2.72415 -1.13464 0
M  V30 3616 H 343.948 1.31107 -2.19647 0
M  V30 3617 H 343.592 2.83477 -4.2143 0
M  V30 3618 H 343.522 4.24057 -3.12223 0
M  V30 3619 H 346.013 2.78644 -2.55276 0
M  V30 3620 H 346.326 5.25716 -5.6643 0
M  V30 3621 H 344.671 4.733 -5.08933 0
M  V30 3622 H 347.862 3.39405 -3.22369 0
M  V30 3623 H 348.035 4.52089 -4.64241 0
M  V30 3624 N 341.441 0.965919 1.2453 0
M  V30 3625 C 342.687 0.62776 1.92839 0
M  V30 3626 C 343.02 -0.834694 1.75347 0
M  V30 3627 O 342.295 -1.60031 1.10546 0
M  V30 3628 C 342.578 1.00109 3.45905 0
M  V30 3629 C 342.431 2.52011 3.72573 0
M  V30 3630 C 343.75 0.53435 4.36844 0
M  V30 3631 H 340.869 0.229537 0.700344 0
M  V30 3632 H 343.511 1.2046 1.46933 0
M  V30 3633 H 341.661 0.510238 3.85135 0
M  V30 3634 H 343.333 3.08559 3.42912 0
M  V30 3635 H 341.576 2.95287 3.17786 0
M  V30 3636 H 342.247 2.73183 4.79661 0
M  V30 3637 H 344.723 0.955565 4.04979 0
M  V30 3638 H 343.599 0.824152 5.42678 0
M  V30 3639 H 343.86 -0.565589 4.38467 0
M  V30 3640 N 342.919 -1.39368 0.735821 0
M  V30 3641 C 343.851 -2.2913 0.0567723 0
M  V30 3642 C 344.864 -1.46859 -0.702589 0
M  V30 3643 O 346.053 -1.69925 -0.546616 0
M  V30 3644 C 343.153 -3.25492 -0.943823 0
M  V30 3645 C 342.326 -4.36709 -0.24581 0
M  V30 3646 C 341.385 -5.13376 -1.15463 0
M  V30 3647 O 340.411 -5.65683 -0.631803 0
M  V30 3648 N 341.613 -5.24656 -2.48427 0
M  V30 3649 H 344.378 -2.88047 0.827582 0
M  V30 3650 H 341.939 -1.50957 0.585112 0
M  V30 3651 H 343.931 -3.73657 -1.55443 0
M  V30 3652 H 342.501 -2.676 -1.61583 0
M  V30 3653 H 341.721 -3.9041 0.545286 0
M  V30 3654 H 343.009 -5.08244 0.237891 0
M  V30 3655 H 342.407 -4.83679 -2.93379 0
M  V30 3656 H 340.964 -5.76258 -3.04582 0
M  V30 3657 N 344.397 -0.483516 -1.5 0
M  V30 3658 C 345.637 0.0657469 -2.04294 0
M  V30 3659 C 346.001 1.35869 -1.35659 0
M  V30 3660 O 347.202 1.99111 -1.80578 0
M  V30 3661 C 345.473 0.232758 -3.56641 0
M  V30 3662 S 347.032 0.738788 -4.32536 0
M  V30 3663 H 343.85 0.0100755 -0.710929 0
M  V30 3664 H 346.452 -0.653494 -1.84254 0
M  V30 3665 H 345.156 -0.713847 -4.04144 0
M  V30 3666 H 344.687 0.977751 -3.81056 0
M  V30 3667 H 346.702 2.01048 -4.53645 0
M  V30 3668 N 345.875 1.56104 -0.216619 0
M  V30 3669 C 347.286 1.844 0.292128 0
M  V30 3670 C 347.637 1.13788 1.59833 0
M  V30 3671 O 346.762 0.405888 2.12559 0
M  V30 3672 C 347.357 3.3452 0.53681 0
M  V30 3673 C 345.916 3.63151 0.989876 0
M  V30 3674 C 345.063 2.77255 0.0502302 0
M  V30 3675 H 348.014 1.52481 -0.439926 0
M  V30 3676 H 348.035 3.54459 1.38345 0
M  V30 3677 H 347.547 3.85885 -0.414031 0
M  V30 3678 H 345.648 3.17238 1.95425 0
M  V30 3679 H 345.761 4.71177 0.867698 0
M  V30 3680 H 344.125 2.48555 0.556117 0
M  V30 3681 H 344.908 3.31416 -0.89544 0
M  V30 3682 N 347.353 -0.0568162 1.57498 0
M  V30 3683 C 348.316 -1.05038 2.03715 0
M  V30 3684 C 349.316 -1.30709 0.936577 0
M  V30 3685 O 350.506 -1.26178 1.20103 0
M  V30 3686 C 347.638 -2.39034 2.43055 0
M  V30 3687 H 348.831 -0.651715 2.92733 0
M  V30 3688 H 346.384 -0.302947 1.53336 0
M  V30 3689 H 347.119 -2.83703 1.57108 0
M  V30 3690 H 346.904 -2.21739 3.2338 0
M  V30 3691 H 348.394 -3.10421 2.79336 0
M  V30 3692 N 348.832 -1.54138 -0.328536 0
M  V30 3693 C 349.762 -1.86167 -1.40939 0
M  V30 3694 C 350.743 -0.718044 -1.54202 0
M  V30 3695 O 351.928 -0.971328 -1.68163 0
M  V30 3696 C 349.058 -2.08461 -2.77779 0
M  V30 3697 C 348.012 -3.24299 -2.7931 0
M  V30 3698 C 347.338 -3.31955 -4.19178 0
M  V30 3699 C 348.638 -4.62065 -2.43502 0
M  V30 3700 H 350.332 -2.76689 -1.14383 0
M  V30 3701 H 347.878 -1.33132 -0.548806 0
M  V30 3702 H 349.831 -2.29453 -3.53454 0
M  V30 3703 H 348.555 -1.14684 -3.05802 0
M  V30 3704 H 347.214 -3.03187 -2.0609 0
M  V30 3705 H 346.862 -2.35745 -4.44335 0
M  V30 3706 H 346.562 -4.09805 -4.2111 0
M  V30 3707 H 348.086 -3.55175 -4.96672 0
M  V30 3708 H 349.5 -4.8297 -3.08889 0
M  V30 3709 H 347.897 -5.42429 -2.56693 0
M  V30 3710 H 348.967 -4.64652 -1.38659 0
M  V30 3711 N 350.31 0.590341 -1.46126 0
M  V30 3712 C 351.559 1.34499 -1.50309 0
M  V30 3713 C 351.872 1.94977 -0.156021 0
M  V30 3714 O 353.078 2.71395 -0.0756037 0
M  V30 3715 C 351.534 2.43723 -2.64815 0
M  V30 3716 C 351.142 1.89582 -4.0591 0
M  V30 3717 C 352.886 3.20579 -2.78262 0
M  V30 3718 C 350.793 2.9639 -5.11769 0
M  V30 3719 H 349.723 0.505593 -0.559368 0
M  V30 3720 H 352.374 0.630848 -1.72315 0
M  V30 3721 H 350.756 3.17902 -2.36124 0
M  V30 3722 H 351.93 1.21997 -4.44357 0
M  V30 3723 H 350.245 1.25418 -3.97063 0
M  V30 3724 H 352.842 4.00276 -3.54519 0
M  V30 3725 H 353.185 3.72684 -1.85505 0
M  V30 3726 H 353.718 2.53505 -3.06562 0
M  V30 3727 H 350.457 2.49181 -6.06291 0
M  V30 3728 H 349.977 3.62487 -4.77873 0
M  V30 3729 H 351.656 3.60474 -5.37278 0
M  V30 3730 N 351.788 1.33704 0.83433 0
M  V30 3731 C 353.034 1.25603 1.59222 0
M  V30 3732 C 353.367 -0.176659 1.93395 0
M  V30 3733 O 352.642 -1.11915 1.59076 0
M  V30 3734 C 352.925 2.13576 2.89926 0
M  V30 3735 C 352.778 3.65326 2.62406 0
M  V30 3736 C 354.097 2.01238 3.91397 0
M  V30 3737 H 351.216 0.457613 0.577719 0
M  V30 3738 H 353.858 1.63848 0.961972 0
M  V30 3739 H 352.008 1.8109 3.43713 0
M  V30 3740 H 353.68 4.08124 2.15017 0
M  V30 3741 H 351.923 3.8698 1.96033 0
M  V30 3742 H 352.594 4.22232 3.55562 0
M  V30 3743 H 355.07 2.29738 3.46929 0
M  V30 3744 H 353.946 2.65036 4.80673 0
M  V30 3745 H 354.207 0.985951 4.30966 0
M  V30 3746 N 353.266 -1.05314 1.17247 0
M  V30 3747 C 354.216 -2.11313 0.856196 0
M  V30 3748 C 355.2 -1.60013 -0.168694 0
M  V30 3749 O 356.392 -1.76968 0.0335624 0
M  V30 3750 C 353.521 -3.41301 0.369917 0
M  V30 3751 C 352.607 -3.99401 1.42616 0
M  V30 3752 N 352.998 -4.31481 2.63928 0
M  V30 3753 C 351.296 -4.27126 1.28373 0
M  V30 3754 C 351.997 -4.77799 3.31787 0
M  V30 3755 N 350.973 -4.77843 2.59166 0
M  V30 3756 H 354.775 -2.33976 1.77856 0
M  V30 3757 H 352.289 -1.2295 1.06099 0
M  V30 3758 H 354.286 -4.16713 0.124897 0
M  V30 3759 H 352.946 -3.20072 -0.546253 0
M  V30 3760 H 353.957 -4.21519 3.00902 0
M  V30 3761 H 350.634 -4.15289 0.429111 0
M  V30 3762 H 352.024 -5.11743 4.35395 0
M  V30 3763 N 354.744 -0.972509 -1.24016 0
M  V30 3764 C 355.992 -0.635776 -1.91839 0
M  V30 3765 C 356.313 0.832312 -1.76345 0
M  V30 3766 O 355.583 1.5946 -1.13795 0
M  V30 3767 H 354.163 -0.232157 -0.710009 0
M  V30 3768 H 356.825 -1.23462 -1.50809 0
M  V30 3769 H 355.921 -0.880545 -2.99421 0
M  V30 3770 N 356.222 1.38976 -0.743202 0
M  V30 3771 C 357.132 2.3434 -0.110399 0
M  V30 3772 C 358.148 1.58741 0.712559 0
M  V30 3773 O 359.324 1.9099 0.639125 0
M  V30 3774 C 356.389 3.37812 0.780012 0
M  V30 3775 C 355.45 4.29263 -0.0561319 0
M  V30 3776 C 354.683 5.27793 0.791875 0
M  V30 3777 O 354.906 5.33043 2.03031 0
M  V30 3778 O 353.84 6.01512 0.216183 0
M  V30 3779 H 357.666 2.90129 -0.897714 0
M  V30 3780 H 355.251 1.40643 -0.503966 0
M  V30 3781 H 357.133 4.01194 1.28923 0
M  V30 3782 H 355.808 2.84395 1.546 0
M  V30 3783 H 354.715 3.69076 -0.611056 0
M  V30 3784 H 356.048 4.85907 -0.784531 0
M  V30 3785 N 357.7 0.491464 1.49741 0
M  V30 3786 C 358.647 -0.292027 2.28945 0
M  V30 3787 C 359.617 -0.968973 1.34908 0
M  V30 3788 O 360.802 -0.97748 1.6386 0
M  V30 3789 C 357.942 -1.35617 3.17336 0
M  V30 3790 C 357.055 -0.691957 4.26422 0
M  V30 3791 C 356.19 -1.73572 5.02042 0
M  V30 3792 C 355.229 -1.05286 6.02977 0
M  V30 3793 N 354.366 -2.0404 6.71798 0
M  V30 3794 H 359.206 0.389654 2.95442 0
M  V30 3795 H 356.743 0.204003 1.45679 0
M  V30 3796 H 358.701 -1.98502 3.66951 0
M  V30 3797 H 357.331 -2.00674 2.52844 0
M  V30 3798 H 356.383 0.0499523 3.80367 0
M  V30 3799 H 357.695 -0.153946 4.98562 0
M  V30 3800 H 356.849 -2.43987 5.55478 0
M  V30 3801 H 355.588 -2.30757 4.29654 0
M  V30 3802 H 354.593 -0.334446 5.48782 0
M  V30 3803 H 355.818 -0.487636 6.77347 0
M  V30 3804 H 353.764 -2.60205 6.02187 0
M  V30 3805 H 353.681 -1.55279 7.39881 0
M  V30 3806 H 354.949 -2.73772 7.29842 0
M  V30 3807 N 359.178 -1.55987 0.224894 0
M  V30 3808 C 360.455 -1.90232 -0.455083 0
M  V30 3809 C 360.835 -1.14269 -1.77499 0
M  V30 3810 O 360.183 -0.253079 -2.27094 0
M  V30 3811 C 360.393 -3.42993 -0.644758 0
M  V30 3812 C 361.741 -4.13821 -0.950669 0
M  V30 3813 O 362.765 -3.4861 -0.731423 0
M  V30 3814 O 361.624 -5.29128 -1.36695 0
M  V30 3815 H 358.718 -0.79108 -0.241084 0
M  V30 3816 H 361.264 -1.67581 0.267327 0
M  V30 3817 H 360.036 -3.90252 0.28613 0
M  V30 3818 H 359.659 -3.71434 -1.41853 0
M  V30 3819 N 360.656 0.0484629 -1.57525 0
M  V30 3820 C 362.067 0.597486 -1.76881 0
M  V30 3821 C 362.418 1.76664 -0.853475 0
M  V30 3822 O 361.543 2.16357 -0.0433656 0
M  V30 3823 C 362.138 1.09066 -3.20765 0
M  V30 3824 C 360.697 1.58535 -3.41385 0
M  V30 3825 C 359.844 0.514868 -2.72478 0
M  V30 3826 H 362.795 -0.177758 -1.57701 0
M  V30 3827 H 362.816 1.95875 -3.2621 0
M  V30 3828 H 362.328 0.239521 -3.8736 0
M  V30 3829 H 360.429 2.45898 -2.79937 0
M  V30 3830 H 360.542 1.64622 -4.49929 0
M  V30 3831 H 358.906 0.965407 -2.35695 0
M  V30 3832 H 359.689 -0.32648 -3.41744 0
M  V30 3833 N 362.134 1.5431 0.320358 0
M  V30 3834 C 363.064 1.86912 1.3995 0
M  V30 3835 C 364.045 0.726211 1.53819 0
M  V30 3836 O 365.23 0.980233 1.67646 0
M  V30 3837 C 362.36 2.09932 2.7667 0
M  V30 3838 C 361.314 3.25776 2.77586 0
M  V30 3839 C 360.64 3.34173 4.17412 0
M  V30 3840 C 361.94 4.6335 2.41048 0
M  V30 3841 H 363.634 2.77292 1.12914 0
M  V30 3842 H 361.18 1.33421 0.541738 0
M  V30 3843 H 363.133 2.31324 3.52232 0
M  V30 3844 H 361.857 1.16304 3.0519 0
M  V30 3845 H 360.516 3.04276 2.04479 0
M  V30 3846 H 360.164 2.38098 4.43078 0
M  V30 3847 H 359.864 4.12033 4.18931 0
M  V30 3848 H 361.388 3.57803 4.94782 0
M  V30 3849 H 362.802 4.84602 3.06324 0
M  V30 3850 H 361.199 5.43782 2.53813 0
M  V30 3851 H 362.269 4.65381 1.36193 0
M  V30 3852 N 363.613 -0.582584 1.46437 0
M  V30 3853 C 364.859 -1.34278 1.51978 0
M  V30 3854 C 365.192 -1.93446 0.170973 0
M  V30 3855 O 364.467 -1.76481 -0.817608 0
M  V30 3856 C 364.75 -2.47203 2.61845 0
M  V30 3857 C 364.603 -1.93069 4.06257 0
M  V30 3858 C 365.922 -3.49247 2.67795 0
M  V30 3859 H 363.041 -0.486876 0.553282 0
M  V30 3860 H 365.683 -0.654437 1.78374 0
M  V30 3861 H 363.833 -3.0592 2.39469 0
M  V30 3862 H 365.505 -1.38808 4.3992 0
M  V30 3863 H 363.748 -1.23898 4.1573 0
M  V30 3864 H 364.419 -2.74586 4.7886 0
M  V30 3865 H 366.895 -3.00411 2.8791 0
M  V30 3866 H 365.771 -4.25719 3.46489 0
M  V30 3867 H 366.032 -4.06482 1.73852 0
M  V30 3868 N 365.091 -1.34144 -0.827227 0
M  V30 3869 C 366.502 -1.23557 -1.39966 0
M  V30 3870 C 366.853 0.140731 -1.95695 0
M  V30 3871 O 365.978 1.04087 -1.89723 0
M  V30 3872 C 366.573 -2.23708 -2.54441 0
M  V30 3873 C 365.132 -2.16924 -3.07605 0
M  V30 3874 C 364.279 -2.10549 -1.80456 0
M  V30 3875 H 367.23 -1.45573 -0.631991 0
M  V30 3876 H 367.251 -1.85157 -3.32411 0
M  V30 3877 H 366.763 -3.23866 -2.13851 0
M  V30 3878 H 364.864 -1.20107 -3.52711 0
M  V30 3879 H 364.977 -3.07988 -3.66988 0
M  V30 3880 H 363.341 -1.56203 -2.01178 0
M  V30 3881 H 364.124 -3.12535 -1.42046 0
M  V30 3882 N 366.569 1.04691 -1.17803 0
M  V30 3883 C 367.985 1.29963 -0.926379 0
M  V30 3884 C 368.185 1.97251 0.411635 0
M  V30 3885 O 367.241 2.24922 1.14744 0
M  V30 3886 C 368.554 2.16447 -2.08737 0
M  V30 3887 C 370.102 2.29814 -2.12496 0
M  V30 3888 C 370.577 3.19661 -3.27995 0
M  V30 3889 N 372.068 3.27247 -3.27816 0
M  V30 3890 C 372.803 3.96906 -4.13827 0
M  V30 3891 N 372.299 4.6895 -5.09959 0
M  V30 3892 N 374.092 3.93122 -4.01761 0
M  V30 3893 H 366.243 0.594182 -2.0392 0
M  V30 3894 H 368.506 0.324649 -0.890678 0
M  V30 3895 H 368.212 1.74304 -3.05469 0
M  V30 3896 H 368.086 3.17103 -2.04268 0
M  V30 3897 H 370.473 2.71196 -1.16347 0
M  V30 3898 H 370.554 1.2877 -2.21025 0
M  V30 3899 H 370.198 2.78991 -4.24413 0
M  V30 3900 H 370.128 4.20722 -3.16703 0
M  V30 3901 H 372.619 2.75921 -2.58217 0
M  V30 3902 H 372.932 5.19679 -5.71974 0
M  V30 3903 H 371.277 4.67875 -5.13924 0
M  V30 3904 H 374.468 3.35967 -3.2595 0
M  V30 3905 H 374.641 4.47139 -4.6901 0
M  V30 3906 N 368.047 0.979072 1.23499 0
M  V30 3907 C 369.294 0.647219 1.91878 0
M  V30 3908 C 369.622 -0.819074 1.76413 0
M  V30 3909 O 368.877 -1.60616 1.11808 0
M  V30 3910 C 369.176 0.981932 3.43646 0
M  V30 3911 C 368.842 2.43822 3.79291 0
M  V30 3912 C 367.504 2.83622 3.88731 0
M  V30 3913 C 369.856 3.3828 3.96505 0
M  V30 3914 C 367.184 4.16897 4.12812 0
M  V30 3915 C 369.536 4.71197 4.22085 0
M  V30 3916 C 368.2 5.10758 4.29747 0
M  V30 3917 H 367.47 0.236834 0.702133 0
M  V30 3918 H 370.117 1.23268 1.46551 0
M  V30 3919 H 368.422 0.314365 3.90537 0
M  V30 3920 H 370.119 0.703395 3.94783 0
M  V30 3921 H 366.709 2.11966 3.72516 0
M  V30 3922 H 370.893 3.0871 3.88603 0
M  V30 3923 H 366.149 4.47157 4.16966 0
M  V30 3924 H 370.323 5.44348 4.34348 0
M  V30 3925 H 367.95 6.1405 4.48159 0
M  V30 3926 N 369.525 -1.3858 0.750561 0
M  V30 3927 C 370.475 -2.27795 0.0965949 0
M  V30 3928 C 371.459 -1.45048 -0.696411 0
M  V30 3929 O 372.651 -1.67812 -0.562863 0
M  V30 3930 C 369.78 -3.33894 -0.798085 0
M  V30 3931 C 368.866 -4.241 0.0016067 0
M  V30 3932 N 369.257 -4.95067 1.03647 0
M  V30 3933 C 367.555 -4.45429 -0.225674 0
M  V30 3934 C 368.256 -5.61489 1.52004 0
M  V30 3935 N 367.232 -5.37135 0.835874 0
M  V30 3936 H 371.034 -2.80125 0.889228 0
M  V30 3937 H 368.548 -1.51446 0.586323 0
M  V30 3938 H 370.545 -3.96693 -1.28219 0
M  V30 3939 H 369.205 -2.83123 -1.5897 0
M  V30 3940 H 370.216 -4.98104 1.41819 0
M  V30 3941 H 366.893 -4.05571 -0.990872 0
M  V30 3942 H 368.283 -6.28264 2.38188 0
M  V30 3943 N 371.003 -0.499398 -1.49478 0
M  V30 3944 C 371.966 0.268838 -2.27618 0
M  V30 3945 C 372.966 0.895383 -1.33565 0
M  V30 3946 O 374.156 0.760164 -1.56739 0
M  V30 3947 C 371.288 1.38559 -3.11471 0
M  V30 3948 H 372.481 -0.416812 -2.96989 0
M  V30 3949 H 370.034 -0.254313 -1.54217 0
M  V30 3950 H 370.769 2.10544 -2.46661 0
M  V30 3951 H 370.554 0.941797 -3.80621 0
M  V30 3952 H 372.044 1.92678 -3.70493 0
M  V30 3953 N 372.481 1.55866 -0.233164 0
M  V30 3954 C 373.758 1.90471 0.444988 0
M  V30 3955 C 374.138 1.15209 1.7689 0
M  V30 3956 O 373.486 0.265119 2.26957 0
M  V30 3957 C 373.696 3.4333 0.626559 0
M  V30 3958 C 375.044 4.14319 0.92871 0
M  V30 3959 O 376.068 3.48993 0.712926 0
M  V30 3960 O 374.927 5.29846 1.33887 0
M  V30 3961 H 372.021 0.792347 0.236885 0
M  V30 3962 H 374.567 1.67437 -0.276211 0
M  V30 3963 H 373.339 3.90095 -0.306822 0
M  V30 3964 H 372.962 3.72181 1.39881 0
M  V30 3965 N 373.959 -0.0401083 1.57549 0
M  V30 3966 C 375.206 -0.733125 1.88763 0
M  V30 3967 C 375.534 -1.75946 0.829058 0
M  V30 3968 O 374.789 -1.94949 -0.171323 0
M  V30 3969 C 375.088 -1.44902 3.26708 0
M  V30 3970 C 374.754 -0.559707 4.47413 0
M  V30 3971 C 373.416 -0.314731 4.8017 0
M  V30 3972 C 375.768 0.0549743 5.21171 0
M  V30 3973 C 373.096 0.553886 5.8408 0
M  V30 3974 C 375.448 0.911229 6.26003 0
M  V30 3975 C 374.112 1.16577 6.57241 0
M  V30 3976 H 373.382 -0.268269 0.690733 0
M  V30 3977 H 376.029 0.00679408 1.91499 0
M  V30 3978 H 374.334 -2.26197 3.1991 0
M  V30 3979 H 376.031 -1.99058 3.48105 0
M  V30 3980 H 372.621 -0.760793 4.21794 0
M  V30 3981 H 376.805 -0.121344 4.96152 0
M  V30 3982 H 372.061 0.759518 6.06664 0
M  V30 3983 H 376.235 1.3941 6.82303 0
M  V30 3984 H 373.862 1.84058 7.37582 0
M  V30 3985 N 375.437 -1.54477 -0.31217 0
M  V30 3986 C 376.686 -1.72438 -1.04633 0
M  V30 3987 C 376.999 -0.511163 -1.88803 0
M  V30 3988 O 378.205 -0.572341 -2.65399 0
M  V30 3989 C 376.661 -3.05043 -1.9099 0
M  V30 3990 C 376.269 -4.33806 -1.11877 0
M  V30 3991 C 378.013 -3.32364 -2.64073 0
M  V30 3992 C 375.92 -5.57467 -1.97445 0
M  V30 3993 H 374.85 -0.642647 -0.394361 0
M  V30 3994 H 377.501 -1.80966 -0.303929 0
M  V30 3995 H 375.883 -2.90451 -2.69173 0
M  V30 3996 H 377.057 -4.59199 -0.383843 0
M  V30 3997 H 375.372 -4.13336 -0.504252 0
M  V30 3998 H 377.969 -4.21951 -3.28423 0
M  V30 3999 H 378.312 -2.50745 -3.32314 0
M  V30 4000 H 378.845 -3.47875 -1.92944 0
M  V30 4001 H 375.584 -6.41722 -1.33692 0
M  V30 4002 H 375.104 -5.36277 -2.6864 0
M  V30 4003 H 376.783 -5.94303 -2.5576 0
M  V30 4004 N 376.915 0.57481 -1.46744 0
M  V30 4005 C 377.865 1.67838 -1.54319 0
M  V30 4006 C 378.849 1.55759 -0.40346 0
M  V30 4007 O 380.041 1.6454 -0.652347 0
M  V30 4008 C 377.17 3.06624 -1.5439 0
M  V30 4009 C 376.256 3.23971 -2.73685 0
M  V30 4010 N 376.647 3.11447 -3.9854 0
M  V30 4011 C 374.945 3.5493 -2.70075 0
M  V30 4012 C 375.646 3.31011 -4.78337 0
M  V30 4013 N 374.622 3.56533 -4.10348 0
M  V30 4014 H 378.424 1.56698 -2.48642 0
M  V30 4015 H 375.938 0.779071 -1.42493 0
M  V30 4016 H 377.935 3.85839 -1.57905 0
M  V30 4017 H 376.595 3.1889 -0.611493 0
M  V30 4018 H 377.606 2.89145 -4.29669 0
M  V30 4019 H 374.283 3.73832 -1.85893 0
M  V30 4020 H 375.673 3.26445 -5.87268 0
M  V30 4021 N 378.394 1.34581 0.820102 0
M  V30 4022 C 379.341 1.2639 1.93117 0
M  V30 4023 C 380.311 0.138554 1.65521 0
M  V30 4024 O 381.496 0.320004 1.88097 0
M  V30 4025 C 378.636 1.02812 3.29429 0
M  V30 4026 C 377.749 2.24146 3.693 0
M  V30 4027 C 376.884 1.93829 4.94574 0
M  V30 4028 C 375.923 3.1129 5.27034 0
M  V30 4029 N 375.06 2.80838 6.43486 0
M  V30 4030 H 379.9 2.21408 1.99455 0
M  V30 4031 H 377.437 1.10077 0.975784 0
M  V30 4032 H 379.395 0.871788 4.0799 0
M  V30 4033 H 378.025 0.114612 3.22596 0
M  V30 4034 H 377.077 2.50691 2.86109 0
M  V30 4035 H 378.389 3.11899 3.89257 0
M  V30 4036 H 377.543 1.74948 5.80929 0
M  V30 4037 H 376.282 1.03341 4.76626 0
M  V30 4038 H 375.287 3.30764 4.39175 0
M  V30 4039 H 376.512 4.02561 5.4692 0
M  V30 4040 H 374.458 1.92929 6.26988 0
M  V30 4041 H 374.375 3.62123 6.63629 0
M  V30 4042 H 375.643 2.65467 7.32903 0
M  V30 4043 N 379.872 -1.04064 1.18357 0
M  V30 4044 C 380.822 -2.10393 0.878561 0
M  V30 4045 C 381.806 -1.60183 -0.151713 0
M  V30 4046 O 382.998 -1.76923 0.0523303 0
M  V30 4047 C 380.127 -3.4089 0.406096 0
M  V30 4048 C 379.213 -3.97866 1.46844 0
M  V30 4049 N 379.604 -4.28657 2.68489 0
M  V30 4050 C 377.902 -4.2574 1.32896 0
M  V30 4051 C 378.603 -4.74253 3.36836 0
M  V30 4052 N 377.579 -4.75068 2.64219 0
M  V30 4053 H 381.381 -2.32076 1.80327 0
M  V30 4054 H 378.895 -1.21818 1.07397 0
M  V30 4055 H 380.892 -4.16557 0.169088 0
M  V30 4056 H 379.552 -3.20633 -0.512275 0
M  V30 4057 H 380.563 -4.18304 3.05356 0
M  V30 4058 H 377.24 -4.1481 0.473134 0
M  V30 4059 H 378.63 -5.07096 4.40798 0
M  V30 4060 N 381.35 -0.985608 -1.22978 0
M  V30 4061 C 382.596 -0.65836 -1.91816 0
M  V30 4062 C 382.929 0.806692 -1.76653 0
M  V30 4063 O 382.204 1.58252 -1.13078 0
M  V30 4064 C 382.487 -1.056 -3.44268 0
M  V30 4065 C 382.34 -2.57906 -3.68516 0
M  V30 4066 C 383.659 -0.603781 -4.35939 0
M  V30 4067 H 380.778 -0.24065 -0.696604 0
M  V30 4068 H 383.42 -1.22783 -1.44998 0
M  V30 4069 H 381.57 -0.571445 -3.84274 0
M  V30 4070 H 383.242 -3.13976 -3.3796 0
M  V30 4071 H 381.485 -3.00305 -3.13048 0
M  V30 4072 H 382.156 -2.80779 -4.75255 0
M  V30 4073 H 384.632 -1.01987 -4.03408 0
M  V30 4074 H 383.508 -0.910383 -5.41298 0
M  V30 4075 H 383.769 0.495761 -4.39312 0
M  V30 4076 N 382.828 1.3818 -0.7579 0
M  V30 4077 C 383.775 2.30416 -0.133057 0
M  V30 4078 C 384.745 1.50398 0.704957 0
M  V30 4079 O 385.93 1.79014 0.660192 0
M  V30 4080 C 383.07 3.36834 0.750813 0
M  V30 4081 C 382.183 4.31879 -0.102297 0
M  V30 4082 C 381.318 5.25368 0.784979 0
M  V30 4083 C 380.357 6.12058 -0.0715046 0
M  V30 4084 N 379.494 6.97832 0.772972 0
M  V30 4085 H 384.334 2.83274 -0.925186 0
M  V30 4086 H 381.871 1.39461 -0.467866 0
M  V30 4087 H 383.829 3.97145 1.27794 0
M  V30 4088 H 382.459 2.85374 1.50868 0
M  V30 4089 H 381.511 3.72991 -0.747095 0
M  V30 4090 H 382.823 4.92921 -0.763552 0
M  V30 4091 H 381.977 5.90818 1.37911 0
M  V30 4092 H 380.716 4.64703 1.47996 0
M  V30 4093 H 379.721 5.456 -0.678272 0
M  V30 4094 H 380.946 6.74793 -0.763606 0
M  V30 4095 H 378.892 6.3971 1.45282 0
M  V30 4096 H 378.809 7.55812 0.168709 0
M  V30 4097 H 380.077 7.67687 1.35194 0
M  V30 4098 N 384.306 0.507319 1.49211 0
M  V30 4099 C 385.554 -0.0348839 2.0207 0
M  V30 4100 C 385.875 -1.36898 1.38866 0
M  V30 4101 O 385.145 -1.88133 0.546151 0
M  V30 4102 H 383.725 -0.0158812 0.746831 0
M  V30 4103 H 386.387 0.665998 1.83168 0
M  V30 4104 H 385.483 -0.159917 3.1169 0
M  V30 4105 N 385.784 -1.5574 0.241426 0
M  V30 4106 C 387.009 -2.0366 -0.392111 0
M  V30 4107 C 387.434 -1.11969 -1.51144 0
M  V30 4108 O 386.792 -0.111594 -1.80956 0
M  V30 4109 C 386.84 -3.49638 -0.882371 0
M  V30 4110 O 385.944 -3.6108 -1.99235 0
M  V30 4111 H 385.285 -0.658379 -0.0862122 0
M  V30 4112 H 387.815 -2.01302 0.365881 0
M  V30 4113 H 387.825 -3.90351 -1.18702 0
M  V30 4114 H 386.5 -4.15852 -0.0632361 0
M  V30 4115 H 385.077 -3.32262 -1.69282 0
M  V30 4116 N 387.262 0.0317525 -1.57568 0
M  V30 4117 C 388.678 0.38735 -1.54828 0
M  V30 4118 C 388.878 1.7677 -0.967187 0
M  V30 4119 O 387.934 2.45581 -0.587063 0
M  V30 4120 C 389.247 0.291667 -2.99282 0
M  V30 4121 C 390.795 0.368946 -3.10818 0
M  V30 4122 C 391.27 0.302741 -4.56998 0
M  V30 4123 N 392.761 0.361617 -4.61786 0
M  V30 4124 C 393.496 0.333238 -5.72431 0
M  V30 4125 N 392.992 0.257308 -6.92322 0
M  V30 4126 N 394.785 0.382769 -5.60795 0
M  V30 4127 H 386.936 -0.871609 -1.93692 0
M  V30 4128 H 389.199 -0.331161 -0.888277 0
M  V30 4129 H 388.905 -0.656794 -3.45513 0
M  V30 4130 H 388.779 1.08638 -3.61217 0
M  V30 4131 H 391.166 1.30784 -2.64536 0
M  V30 4132 H 391.247 -0.455066 -2.5172 0
M  V30 4133 H 390.891 -0.632473 -5.03947 0
M  V30 4134 H 390.821 1.14482 -5.14005 0
M  V30 4135 H 393.312 0.422923 -3.75526 0
M  V30 4136 H 393.625 0.24068 -7.72425 0
M  V30 4137 H 391.97 0.223396 -6.94641 0
M  V30 4138 H 395.161 0.44006 -4.66027 0
M  V30 4139 H 395.334 0.357184 -6.47015 0
M  V30 4140 N 388.74 1.54641 0.303973 0
M  V30 4141 C 389.67 1.88386 1.3796 0
M  V30 4142 C 390.651 0.742485 1.5304 0
M  V30 4143 O 391.836 0.997959 1.66597 0
M  V30 4144 C 388.966 2.12854 2.74427 0
M  V30 4145 C 387.92 3.28702 2.74115 0
M  V30 4146 C 387.246 3.38582 4.13844 0
M  V30 4147 C 388.546 4.65881 2.3612 0
M  V30 4148 H 390.24 2.78474 1.09966 0
M  V30 4149 H 387.786 1.33988 0.527556 0
M  V30 4150 H 389.739 2.35047 3.49758 0
M  V30 4151 H 388.463 1.19535 3.03939 0
M  V30 4152 H 387.122 3.06428 2.0124 0
M  V30 4153 H 386.77 2.42784 4.40528 0
M  V30 4154 H 386.47 4.16453 4.14537 0
M  V30 4155 H 387.994 3.63031 4.90959 0
M  V30 4156 H 389.408 4.87823 3.01167 0
M  V30 4157 H 387.805 5.46444 2.48031 0
M  V30 4158 H 388.875 4.66799 1.3125 0
M  V30 4159 N 390.218 -0.567019 1.47046 0
M  V30 4160 C 391.168 -1.67018 1.55207 0
M  V30 4161 C 392.152 -1.55543 0.411714 0
M  V30 4162 O 393.344 -1.64192 0.661064 0
M  V30 4163 C 390.473 -3.05801 1.56014 0
M  V30 4164 C 389.559 -3.22515 2.75399 0
M  V30 4165 N 389.95 -3.09329 4.00186 0
M  V30 4166 C 388.248 -3.53493 2.71954 0
M  V30 4167 C 388.949 -3.2847 4.80086 0
M  V30 4168 N 387.925 -3.54352 4.12233 0
M  V30 4169 H 391.727 -1.55377 2.4947 0
M  V30 4170 H 389.241 -0.771503 1.42904 0
M  V30 4171 H 391.238 -3.84996 1.59949 0
M  V30 4172 H 389.898 -3.18561 0.628396 0
M  V30 4173 H 390.909 -2.86863 4.31196 0
M  V30 4174 H 387.586 -3.7284 1.87873 0
M  V30 4175 H 388.976 -3.23326 5.88991 0
M  V30 4176 N 391.696 -1.35014 -0.812953 0
M  V30 4177 C 392.626 -1.30069 -1.93919 0
M  V30 4178 C 393.607 -0.176275 -1.69184 0
M  V30 4179 O 394.792 -0.370227 -1.90638 0
M  V30 4180 C 391.922 -1.06547 -3.30552 0
M  V30 4181 C 390.876 -2.15561 -3.69753 0
M  V30 4182 C 390.202 -1.77214 -5.04479 0
M  V30 4183 C 391.502 -3.57476 -3.808 0
M  V30 4184 H 393.196 -2.24303 -1.98314 0
M  V30 4185 H 390.742 -1.07977 -0.952736 0
M  V30 4186 H 392.695 -1.01729 -4.08937 0
M  V30 4187 H 391.419 -0.0875719 -3.26483 0
M  V30 4188 H 390.078 -2.19466 -2.9365 0
M  V30 4189 H 389.726 -0.780589 -4.96906 0
M  V30 4190 H 389.426 -2.50184 -5.31678 0
M  V30 4191 H 390.95 -1.7391 -5.8531 0
M  V30 4192 H 392.364 -3.55929 -4.4943 0
M  V30 4193 H 390.761 -4.29152 -4.19462 0
M  V30 4194 H 391.831 -3.94091 -2.82525 0
M  V30 4195 N 393.175 1.03435 -1.18907 0
M  V30 4196 C 394.108 2.11162 -0.86521 0
M  V30 4197 C 395.086 1.6165 0.175473 0
M  V30 4198 O 396.27 1.88425 0.0530129 0
M  V30 4199 C 393.397 3.37423 -0.293868 0
M  V30 4200 C 392.443 4.05795 -1.31274 0
M  V30 4201 S 393.276 4.52027 -2.8711 0
M  V30 4202 C 394.432 5.81513 -2.31504 0
M  V30 4203 H 394.665 2.38308 -1.77754 0
M  V30 4204 H 392.198 1.16295 -1.01562 0
M  V30 4205 H 394.156 4.1049 0.0292572 0
M  V30 4206 H 392.817 3.0838 0.596682 0
M  V30 4207 H 392.01 4.96574 -0.86198 0
M  V30 4208 H 391.612 3.38874 -1.58242 0
M  V30 4209 H 393.904 6.55784 -1.70157 0
M  V30 4210 H 394.847 6.3136 -3.20608 0
M  V30 4211 H 395.255 5.36921 -1.74286 0
M  V30 4212 N 394.653 0.992116 1.22453 0
M  V30 4213 C 396.064 0.702776 1.72968 0
M  V30 4214 C 396.415 -0.780399 1.80012 0
M  V30 4215 O 395.54 -1.61007 1.44589 0
M  V30 4216 C 396.135 1.26903 3.14135 0
M  V30 4217 C 394.694 1.02909 3.62059 0
M  V30 4218 C 393.841 1.38969 2.39964 0
M  V30 4219 H 396.792 1.16457 1.07812 0
M  V30 4220 H 396.813 0.647223 3.74955 0
M  V30 4221 H 396.325 2.34851 3.08977 0
M  V30 4222 H 394.426 -0.0337979 3.72585 0
M  V30 4223 H 394.539 1.69191 4.48231 0
M  V30 4224 H 392.903 0.808279 2.41535 0
M  V30 4225 H 393.686 2.4792 2.37467 0
M  V30 4226 N 396.131 -1.37776 0.765217 0
M  V30 4227 C 397.041 -2.34135 0.147666 0
M  V30 4228 C 398.057 -1.59854 -0.687215 0
M  V30 4229 O 399.233 -1.91983 -0.608659 0
M  V30 4230 C 396.298 -3.3901 -0.72617 0
M  V30 4231 C 395.359 -4.2912 0.124417 0
M  V30 4232 C 394.592 -5.28986 -0.707807 0
M  V30 4233 O 394.815 -5.36205 -1.94525 0
M  V30 4234 O 393.749 -6.01779 -0.12046 0
M  V30 4235 H 397.575 -2.88664 0.943758 0
M  V30 4236 H 395.16 -1.39824 0.526277 0
M  V30 4237 H 397.042 -4.03195 -1.22524 0
M  V30 4238 H 395.717 -2.86819 -1.50056 0
M  V30 4239 H 394.624 -3.68057 0.669696 0
M  V30 4240 H 395.957 -4.84598 0.861736 0
M  V30 4241 N 397.609 -0.515225 -1.4894 0
M  V30 4242 C 398.857 0.0241671 -2.02086 0
M  V30 4243 C 399.178 1.3616 -1.3959 0
M  V30 4244 O 398.448 1.87841 -0.556121 0
M  V30 4245 H 397.028 0.0119203 -0.746905 0
M  V30 4246 H 399.69 -0.675702 -1.82812 0
M  V30 4247 H 398.786 0.143385 -3.1177 0
M  V30 4248 N 399.087 1.5561 -0.249682 0
M  V30 4249 C 400.034 2.21496 0.648694 0
M  V30 4250 C 401.004 1.17977 1.16921 0
M  V30 4251 O 402.189 1.46434 1.22318 0
M  V30 4252 C 399.329 2.92039 1.83868 0
M  V30 4253 C 398.442 4.10219 1.35442 0
M  V30 4254 C 397.577 4.6847 2.50419 0
M  V30 4255 C 396.616 5.78893 1.98869 0
M  V30 4256 N 395.753 6.31315 3.07223 0
M  V30 4257 H 400.593 2.97892 0.0801582 0
M  V30 4258 H 398.13 1.47074 0.0278031 0
M  V30 4259 H 400.088 3.31138 2.53778 0
M  V30 4260 H 398.718 2.18111 2.37965 0
M  V30 4261 H 397.77 3.76413 0.54928 0
M  V30 4262 H 399.082 4.89927 0.936649 0
M  V30 4263 H 398.236 5.10158 3.28366 0
M  V30 4264 H 396.975 3.87984 2.95499 0
M  V30 4265 H 395.98 5.3668 1.19393 0
M  V30 4266 H 397.205 6.61232 1.54755 0
M  V30 4267 H 395.151 5.53733 3.51732 0
M  V30 4268 H 395.068 7.06224 2.69784 0
M  V30 4269 H 396.336 6.77662 3.8522 0
M  V30 4270 N 400.565 -0.0233959 1.57583 0
M  V30 4271 C 401.515 -1.03023 2.03397 0
M  V30 4272 C 402.499 -1.31701 0.924315 0
M  V30 4273 O 403.691 -1.31191 1.18819 0
M  V30 4274 C 400.82 -2.32961 2.52159 0
M  V30 4275 C 399.906 -2.07349 3.69956 0
M  V30 4276 N 400.297 -1.51814 4.82479 0
M  V30 4277 C 398.595 -2.37606 3.77438 0
M  V30 4278 C 399.296 -1.42136 5.64068 0
M  V30 4279 N 398.272 -1.89891 5.09355 0
M  V30 4280 H 402.074 -0.594962 2.87815 0
M  V30 4281 H 399.588 -0.229586 1.60769 0
M  V30 4282 H 401.585 -3.05906 2.83244 0
M  V30 4283 H 400.245 -2.77162 1.69149 0
M  V30 4284 H 401.256 -1.20008 5.03804 0
M  V30 4285 H 397.933 -2.84842 3.05239 0
M  V30 4286 H 399.323 -0.996405 6.64471 0
M  V30 4287 N 402.043 -1.548 -0.295768 0
M  V30 4288 C 402.991 -1.86874 -1.38495 0
M  V30 4289 C 403.985 -0.742938 -1.52239 0
M  V30 4290 O 405.191 -0.926999 -1.54294 0
M  V30 4291 H 401.566 -0.592786 -0.462719 0
M  V30 4292 H 403.537 -2.77904 -1.08682 0
M  V30 4293 C 402.286 -2.13732 -2.74252 0
M  V30 4294 H 401.609 -2.99835 -2.64459 0
M  V30 4295 H 403.049 -2.4011 -3.49461 0
M  V30 4296 C 401.508 -0.937539 -3.23592 0
M  V30 4297 O 402.038 -0.160665 -4.01379 0
M  V30 4298 N 400.244 -0.741478 -2.80981 0
M  V30 4299 H 399.791 -1.37489 -2.1784 0
M  V30 4300 H 399.749 0.0597103 -3.14343 0
M  V30 4301 N 403.521 0.559213 -1.47345 0
M  V30 4302 C 404.451 1.67622 -1.62558 0
M  V30 4303 C 405.432 1.63331 -0.475087 0
M  V30 4304 O 406.617 1.80983 -0.704182 0
M  V30 4305 C 403.747 3.0626 -1.63774 0
M  V30 4306 C 402.701 3.25397 -2.7803 0
M  V30 4307 C 402.027 4.64801 -2.64318 0
M  V30 4308 C 403.327 3.10965 -4.19641 0
M  V30 4309 H 405.021 1.55146 -2.56067 0
M  V30 4310 H 402.567 0.744961 -1.23233 0
M  V30 4311 H 404.52 3.84247 -1.73008 0
M  V30 4312 H 403.244 3.1969 -0.66825 0
M  V30 4313 H 401.903 2.49817 -2.68304 0
M  V30 4314 H 401.551 4.75028 -1.65401 0
M  V30 4315 H 401.251 4.78555 -3.40968 0
M  V30 4316 H 402.775 5.44926 -2.75478 0
M  V30 4317 H 404.189 3.78772 -4.30354 0
M  V30 4318 H 402.586 3.36229 -4.97062 0
M  V30 4319 H 403.656 2.07736 -4.38148 0
M  V30 4320 N 404.999 1.35443 0.805782 0
M  V30 4321 C 405.949 1.24972 1.90699 0
M  V30 4322 C 406.933 0.144806 1.60247 0
M  V30 4323 O 408.125 0.376102 1.72958 0
M  V30 4324 C 405.254 1.02475 3.27649 0
M  V30 4325 C 404.34 2.17361 3.64164 0
M  V30 4326 N 404.731 3.42591 3.72109 0
M  V30 4327 C 403.029 2.08765 3.94123 0
M  V30 4328 C 403.73 4.18144 4.04389 0
M  V30 4329 N 402.706 3.4691 4.18515 0
M  V30 4330 H 406.508 2.19852 1.95044 0
M  V30 4331 H 404.022 1.27928 1.00041 0
M  V30 4332 H 406.019 0.930617 4.06381 0
M  V30 4333 H 404.679 0.0848009 3.24589 0
M  V30 4334 H 405.69 3.76932 3.55166 0
M  V30 4335 H 402.367 1.22629 3.99084 0
M  V30 4336 H 403.757 5.26367 4.17597 0
M  V30 4337 N 406.477 -1.02803 1.19454 0
M  V30 4338 C 407.407 -2.12999 0.956758 0
M  V30 4339 C 408.388 -1.69743 -0.110188 0
M  V30 4340 O 409.573 -1.94148 0.0450038 0
M  V30 4341 C 406.703 -3.43746 0.495553 0
M  V30 4342 C 405.657 -4.00688 1.50443 0
M  V30 4343 C 404.983 -5.27067 0.900275 0
M  V30 4344 C 406.283 -4.35397 2.8849 0
M  V30 4345 H 407.977 -2.33148 1.87836 0
M  V30 4346 H 405.523 -1.12045 0.904539 0
M  V30 4347 H 407.476 -4.2021 0.316493 0
M  V30 4348 H 406.2 -3.23321 -0.461646 0
M  V30 4349 H 404.859 -3.2632 1.67065 0
M  V30 4350 H 404.507 -5.02959 -0.064503 0
M  V30 4351 H 404.207 -5.66127 1.57397 0
M  V30 4352 H 405.731 -6.06196 0.73203 0
M  V30 4353 H 407.145 -5.02795 2.75446 0
M  V30 4354 H 405.542 -4.85541 3.52661 0
M  V30 4355 H 406.612 -3.44662 3.41081 0
M  V30 4356 N 407.956 -0.998596 -1.21925 0
M  V30 4357 C 409.372 -0.710303 -1.42923 0
M  V30 4358 C 409.572 0.716933 -1.88314 0
M  V30 4359 O 408.628 1.48712 -2.04062 0
M  V30 4360 C 409.941 -1.72072 -2.466 0
M  V30 4361 C 411.489 -1.73681 -2.60392 0
M  V30 4362 C 411.964 -2.73601 -3.67296 0
M  V30 4363 N 413.455 -2.7223 -3.7476 0
M  V30 4364 C 414.19 -3.46206 -4.57087 0
M  V30 4365 N 413.686 -4.29802 -5.43362 0
M  V30 4366 N 415.479 -3.34886 -4.51451 0
M  V30 4367 H 407.63 -1.92028 -0.9077 0
M  V30 4368 H 409.893 -0.828487 -0.460775 0
M  V30 4369 H 409.599 -2.74231 -2.20206 0
M  V30 4370 H 409.473 -1.51818 -3.45299 0
M  V30 4371 H 411.86 -0.722173 -2.86127 0
M  V30 4372 H 411.941 -1.98005 -1.61949 0
M  V30 4373 H 411.585 -3.75217 -3.42307 0
M  V30 4374 H 411.515 -2.46545 -4.65321 0
M  V30 4375 H 414.006 -2.11576 -3.1312 0
M  V30 4376 H 414.319 -4.83061 -6.03218 0
M  V30 4377 H 412.664 -4.33887 -5.42925 0
M  V30 4378 H 415.855 -2.69015 -3.83078 0
M  V30 4379 H 416.028 -3.92796 -5.15379 0
M  V30 4380 N 409.434 1.37368 -0.772513 0
M  V30 4381 C 410.681 1.99673 -0.337182 0
M  V30 4382 C 411.009 1.61324 1.0865 0
M  V30 4383 O 410.264 0.851377 1.7621 0
M  V30 4384 C 410.563 3.54817 -0.428876 0
M  V30 4385 C 410.229 4.12936 -1.81092 0
M  V30 4386 C 408.891 4.28523 -2.1891 0
M  V30 4387 C 411.243 4.44801 -2.71664 0
M  V30 4388 C 408.571 4.73277 -3.46735 0
M  V30 4389 C 410.923 4.90981 -3.98899 0
M  V30 4390 C 409.587 5.04773 -4.36761 0
M  V30 4391 H 408.857 0.730656 -0.123384 0
M  V30 4392 H 411.504 1.64124 -0.986686 0
M  V30 4393 H 409.809 3.90618 0.304167 0
M  V30 4394 H 411.506 4.00933 -0.0733334 0
M  V30 4395 H 408.096 4.01233 -1.50699 0
M  V30 4396 H 412.28 4.32344 -2.43706 0
M  V30 4397 H 407.536 4.82142 -3.75964 0
M  V30 4398 H 411.71 5.14603 -4.69208 0
M  V30 4399 H 409.337 5.39211 -5.35868 0
M  V30 4400 N 410.912 0.523116 1.48665 0
M  V30 4401 C 411.875 -0.232592 2.28017 0
M  V30 4402 C 412.875 -0.874021 1.34972 0
M  V30 4403 O 414.065 -0.735132 1.57929 0
M  V30 4404 C 411.197 -1.33586 3.13636 0
M  V30 4405 H 412.39 0.464008 2.96289 0
M  V30 4406 H 409.943 0.278816 1.53793 0
M  V30 4407 H 410.678 -2.06593 2.4998 0
M  V30 4408 H 410.463 -0.881125 3.82071 0
M  V30 4409 H 411.953 -1.86759 3.73511 0
M  V30 4410 N 412.39 -1.55475 0.257931 0
M  V30 4411 C 413.667 -1.91155 -0.414629 0
M  V30 4412 C 414.047 -1.18008 -1.75035 0
M  V30 4413 O 413.395 -0.301193 -2.26506 0
M  V30 4414 C 413.605 -3.44283 -0.571859 0
M  V30 4415 C 414.953 -4.15744 -0.862678 0
M  V30 4416 O 415.977 -3.50083 -0.657314 0
M  V30 4417 O 414.836 -5.31909 -1.2544 0
M  V30 4418 H 411.93 -0.796016 -0.22425 0
M  V30 4419 H 414.476 -1.66976 0.302814 0
M  V30 4420 H 413.248 -3.89558 0.368844 0
M  V30 4421 H 412.871 -3.7436 -1.33943 0
M  V30 4422 N 413.868 0.0150385 -1.57593 0
M  V30 4423 C 414.778 1.02791 -2.10882 0
M  V30 4424 C 415.794 1.38702 -1.0506 0
M  V30 4425 O 416.97 1.47739 -1.36877 0
M  V30 4426 C 414.035 2.30568 -2.58919 0
M  V30 4427 C 413.096 2.01108 -3.79281 0
M  V30 4428 C 412.329 3.22794 -4.25018 0
M  V30 4429 O 412.552 4.33959 -3.70183 0
M  V30 4430 O 411.486 3.07672 -5.17322 0
M  V30 4431 H 415.312 0.604973 -2.97613 0
M  V30 4432 H 412.897 0.23292 -1.47573 0
M  V30 4433 H 414.779 3.05662 -2.90084 0
M  V30 4434 H 413.454 2.72129 -1.75293 0
M  V30 4435 H 412.361 1.23537 -3.53114 0
M  V30 4436 H 413.694 1.64394 -4.63935 0
M  V30 4437 N 415.346 1.54954 0.287554 0
M  V30 4438 C 416.593 1.74873 1.02106 0
M  V30 4439 C 416.921 0.541829 1.86801 0
M  V30 4440 O 416.176 -0.475992 1.89823 0
M  V30 4441 C 416.475 2.99833 1.94512 0
M  V30 4442 C 416.141 4.33029 1.25686 0
M  V30 4443 C 414.803 4.69233 1.06649 0
M  V30 4444 C 417.155 5.15542 0.765913 0
M  V30 4445 C 414.483 5.85518 0.372222 0
M  V30 4446 C 416.835 6.32542 0.0853101 0
M  V30 4447 C 415.499 6.67398 -0.1169 0
M  V30 4448 H 414.769 0.639906 0.373632 0
M  V30 4449 H 417.416 1.89219 0.294665 0
M  V30 4450 H 415.721 2.80325 2.73725 0
M  V30 4451 H 417.418 3.1244 2.51361 0
M  V30 4452 H 414.008 4.04564 1.41512 0
M  V30 4453 H 418.192 4.88059 0.90066 0
M  V30 4454 H 413.448 6.11057 0.204695 0
M  V30 4455 H 417.622 6.95741 -0.302936 0
M  V30 4456 H 415.249 7.57357 -0.656859 0
M  V30 4457 N 416.824 -0.551391 1.4764 0
M  V30 4458 C 417.772 -1.67896 1.60978 0
M  V30 4459 C 418.766 -1.62549 0.476877 0
M  V30 4460 O 419.972 -1.67664 0.654878 0
M  V30 4461 H 416.347 -0.555649 0.506713 0
M  V30 4462 H 418.318 -1.53784 2.55721 0
M  V30 4463 C 417.067 -3.06234 1.64669 0
M  V30 4464 H 416.39 -3.11033 2.51194 0
M  V30 4465 H 417.83 -3.84804 1.7805 0
M  V30 4466 C 416.289 -3.34737 0.381115 0
M  V30 4467 O 416.819 -3.98381 -0.515297 0
M  V30 4468 N 415.025 -2.8944 0.259354 0
M  V30 4469 H 414.572 -2.37827 0.98976 0
M  V30 4470 H 414.53 -3.08882 -0.586464 0
M  V30 4471 N 418.302 -1.35869 -0.798587 0
M  V30 4472 C 419.249 -1.29446 -1.91082 0
M  V30 4473 C 420.219 -0.16487 -1.6528 0
M  V30 4474 O 421.404 -0.349888 -1.87564 0
M  V30 4475 C 418.544 -1.0804 -3.27752 0
M  V30 4476 C 417.657 -2.29993 -3.65687 0
M  V30 4477 C 416.792 -2.01673 -4.91428 0
M  V30 4478 C 415.831 -3.19636 -5.22015 0
M  V30 4479 N 414.968 -2.91039 -6.38937 0
M  V30 4480 H 419.808 -2.24553 -1.95907 0
M  V30 4481 H 417.345 -1.11615 -0.958148 0
M  V30 4482 H 419.303 -0.936586 -4.06551 0
M  V30 4483 H 417.933 -0.16592 -3.22373 0
M  V30 4484 H 416.985 -2.55211 -2.82085 0
M  V30 4485 H 418.297 -3.18052 -3.84245 0
M  V30 4486 H 417.451 -1.84168 -5.78072 0
M  V30 4487 H 416.19 -1.10911 -4.74921 0
M  V30 4488 H 415.195 -3.37709 -4.33858 0
M  V30 4489 H 416.42 -4.11211 -5.40447 0
M  V30 4490 H 414.366 -2.0288 -6.2384 0
M  V30 4491 H 414.283 -3.72635 -6.57784 0
M  V30 4492 H 415.551 -2.77093 -7.28587 0
M  V30 4493 N 419.78 1.02168 -1.19998 0
M  V30 4494 C 420.71 2.12488 -0.96804 0
M  V30 4495 C 421.691 1.69799 0.101185 0
M  V30 4496 O 422.876 1.94121 -0.0552993 0
M  V30 4497 C 420.006 3.43479 -0.513776 0
M  V30 4498 C 418.96 3.99884 -1.52566 0
M  V30 4499 C 418.286 5.26582 -0.928214 0
M  V30 4500 C 419.586 4.33861 -2.90795 0
M  V30 4501 H 421.28 2.32149 -1.89069 0
M  V30 4502 H 418.826 1.11564 -0.910468 0
M  V30 4503 H 420.779 4.20036 -0.338774 0
M  V30 4504 H 419.503 3.23561 0.444493 0
M  V30 4505 H 418.162 3.25429 -1.68794 0
M  V30 4506 H 417.81 5.02986 0.0378289 0
M  V30 4507 H 417.51 5.65284 -1.60397 0
M  V30 4508 H 419.034 6.05799 -0.764167 0
M  V30 4509 H 420.448 5.01327 -2.78109 0
M  V30 4510 H 418.845 4.83664 -3.55231 0
M  V30 4511 H 419.915 3.42848 -3.42904 0
M  V30 4512 N 421.258 1.00505 1.21394 0
M  V30 4513 C 422.221 0.570459 2.21987 0
M  V30 4514 C 423.221 -0.353211 1.56873 0
M  V30 4515 O 424.411 -0.14349 1.73608 0
M  V30 4516 C 421.543 -0.168555 3.40483 0
M  V30 4517 H 422.736 1.46021 2.6195 0
M  V30 4518 H 420.289 0.793565 1.34656 0
M  V30 4519 H 421.024 -1.07374 3.06009 0
M  V30 4520 H 420.809 0.494823 3.88965 0
M  V30 4521 H 422.299 -0.460362 4.15055 0
M  V30 4522 N 422.737 -1.36956 0.779787 0
M  V30 4523 C 423.647 -2.33965 0.172491 0
M  V30 4524 C 424.663 -1.60574 -0.670222 0
M  V30 4525 O 425.839 -1.92617 -0.588263 0
M  V30 4526 C 422.904 -3.39761 -0.690173 0
M  V30 4527 C 421.965 -4.28964 0.169924 0
M  V30 4528 C 421.198 -5.29707 -0.651662 0
M  V30 4529 O 421.421 -5.38238 -1.88827 0
M  V30 4530 O 420.355 -6.01873 -0.0566264 0
M  V30 4531 H 424.181 -2.87647 0.974321 0
M  V30 4532 H 421.766 -1.39258 0.541078 0
M  V30 4533 H 423.648 -4.04471 -1.1824 0
M  V30 4534 H 422.323 -2.88394 -1.47006 0
M  V30 4535 H 421.23 -3.67326 0.708696 0
M  V30 4536 H 422.563 -4.83656 0.913085 0
M  V30 4537 N 424.215 -0.530993 -1.48385 0
M  V30 4538 C 425.492 0.0671788 -1.95485 0
M  V30 4539 C 425.872 1.51191 -1.47324 0
M  V30 4540 O 425.22 2.17507 -0.700202 0
M  V30 4541 C 425.43 -0.0511206 -3.48963 0
M  V30 4542 C 426.778 0.107632 -4.24464 0
M  V30 4543 O 427.802 0.0226248 -3.56193 0
M  V30 4544 O 426.661 0.285972 -5.45751 0
M  V30 4545 H 423.755 0.0787365 -0.823243 0
M  V30 4546 H 426.301 -0.595662 -1.58902 0
M  V30 4547 H 425.073 -1.05747 -3.7674 0
M  V30 4548 H 424.696 0.650525 -3.92242 0
M  V30 4549 N 425.693 1.55336 -0.266172 0
M  V30 4550 C 426.94 1.99397 0.353158 0
M  V30 4551 C 427.268 1.15451 1.56529 0
M  V30 4552 O 426.523 0.209974 1.9457 0
M  V30 4553 C 426.822 3.48606 0.787957 0
M  V30 4554 C 426.488 4.49773 -0.318541 0
M  V30 4555 C 425.15 4.77158 -0.62239 0
M  V30 4556 C 427.502 5.10212 -1.06459 0
M  V30 4557 C 424.83 5.62251 -1.67602 0
M  V30 4558 C 427.182 5.96449 -2.10788 0
M  V30 4559 C 425.846 6.22158 -2.41817 0
M  V30 4560 H 425.116 0.729644 0.12923 0
M  V30 4561 H 427.763 1.87732 -0.37802 0
M  V30 4562 H 426.068 3.57701 1.59866 0
M  V30 4563 H 427.765 3.80098 1.27775 0
M  V30 4564 H 424.355 4.2854 -0.0715925 0
M  V30 4565 H 428.539 4.89086 -0.843098 0
M  V30 4566 H 423.795 5.80419 -1.92155 0
M  V30 4567 H 427.969 6.42317 -2.69076 0
M  V30 4568 H 425.596 6.87888 -3.23596 0
M  V30 4569 N 427.171 -0.0066808 1.57599 0
M  V30 4570 C 428.101 -0.999296 2.11036 0
M  V30 4571 C 429.082 -1.36278 1.01795 0
M  V30 4572 O 430.267 -1.4477 1.29442 0
M  V30 4573 C 427.397 -2.29328 2.60818 0
M  V30 4574 C 426.351 -2.07159 3.74525 0
M  V30 4575 C 425.677 -3.42512 4.10596 0
M  V30 4576 C 426.977 -1.43959 5.02069 0
M  V30 4577 H 428.671 -0.554382 2.94223 0
M  V30 4578 H 426.217 -0.265221 1.41536 0
M  V30 4579 H 428.17 -2.99117 2.96828 0
M  V30 4580 H 426.894 -2.7592 1.74745 0
M  V30 4581 H 425.553 -1.39797 3.38899 0
M  V30 4582 H 425.201 -3.86795 3.21556 0
M  V30 4583 H 424.901 -3.28498 4.87199 0
M  V30 4584 H 426.425 -4.13628 4.4916 0
M  V30 4585 H 427.839 -2.03696 5.35893 0
M  V30 4586 H 426.236 -1.40452 5.83432 0
M  V30 4587 H 427.306 -0.407992 4.83181 0
M  V30 4588 N 428.649 -1.55105 -0.279332 0
M  V30 4589 C 429.581 -1.83952 -1.36727 0
M  V30 4590 C 430.594 -0.723642 -1.45833 0
M  V30 4591 O 431.783 -1.00141 -1.47763 0
M  V30 4592 C 428.883 -1.98183 -2.74912 0
M  V30 4593 C 428.056 -3.28787 -2.88475 0
M  V30 4594 C 427.115 -3.33162 -4.07295 0
M  V30 4595 O 426.141 -4.06576 -3.98353 0
M  V30 4596 N 427.343 -2.60109 -5.18964 0
M  V30 4597 H 430.108 -2.77853 -1.12328 0
M  V30 4598 H 427.669 -1.54945 -0.469442 0
M  V30 4599 H 429.661 -1.98488 -3.52682 0
M  V30 4600 H 428.231 -1.11177 -2.92162 0
M  V30 4601 H 427.451 -3.41075 -1.97641 0
M  V30 4602 H 428.739 -4.14933 -2.94463 0
M  V30 4603 H 428.137 -2.00136 -5.29115 0
M  V30 4604 H 426.694 -2.66143 -5.94988 0
M  V30 4605 O 430.166 0.425144 -1.55804 0
M  V30 4606 H 430.857 1.07829 -1.60912 0
M  V30 END ATOM
M  V30 BEGIN BOND
M  V30 END BOND
M  V30 END CTAB
M  END
$$$$
