drugbank_target|P19838 Nuclear factor NF-kappa-B p105 subunit (DB00852; DB01041; DB01411; DB05212; DB05451; DB05464; DB05471; DB05487; DB05767; DB08814)
 OpenBabel12092119473D

  0  0  0     0  0            999 V3000
M  V30 BEGIN CTAB
M  V30 COUNTS 14708 14853 0 0 0
M  V30 BEGIN ATOM
M  V30 1 H -0.908 1.98254 -0.117106 0
M  V30 2 N 0 1.576 0 0
M  V30 3 C 0.933 2.03868 1.02534 0
M  V30 4 C 1.911 0.928543 1.3348 0
M  V30 5 O 3.095 1.19667 1.45644 0
M  V30 6 C 0.222 2.43627 2.35294 0
M  V30 7 C -0.732 3.65373 2.2001 0
M  V30 8 S 0.101 5.13292 1.52614 0
M  V30 9 C 1.257 5.56322 2.86805 0
M  V30 10 H 1.49 2.90518 0.631377 0
M  V30 11 H -0.977 1.52953 0.210867 0
M  V30 12 H 0.981 2.67203 3.11629 0
M  V30 13 H -0.358 1.57376 2.7183 0
M  V30 14 H -1.165 3.90944 3.18086 0
M  V30 15 H -1.563 3.418 1.51819 0
M  V30 16 H 0.729 5.58782 3.83104 0
M  V30 17 H 1.672 6.56266 2.65933 0
M  V30 18 H 2.08 4.83886 2.90714 0
M  V30 19 N 1.4781 -0.272755 1.55222 0
M  V30 20 C 2.4411 -1.32041 1.87344 0
M  V30 21 C 3.4411 -1.42342 0.74803 0
M  V30 22 O 4.6311 -1.41488 1.0162 0
M  V30 23 C 1.7631 -2.70173 2.07893 0
M  V30 24 H 2.9561 -1.04789 2.80997 0
M  V30 25 H 0.5091 -0.51083 1.47717 0
M  V30 26 H 1.2441 -3.02605 1.16622 0
M  V30 27 H 1.0291 -2.64082 2.89833 0
M  V30 28 H 2.5191 -3.45869 2.34017 0
M  V30 29 N 2.9562 -1.48159 -0.537278 0
M  V30 30 C 3.8662 -1.64807 -1.6696 0
M  V30 31 C 4.8822 -0.530651 -1.65711 0
M  V30 32 O 6.0582 -0.800784 -1.84796 0
M  V30 33 C 3.1232 -1.67708 -3.03438 0
M  V30 34 C 2.1842 -2.91025 -3.156 0
M  V30 35 C 1.4172 -2.93778 -4.45567 0
M  V30 36 O 1.6402 -2.05153 -5.3223 0
M  V30 37 O 0.5742 -3.85868 -4.61941 0
M  V30 38 H 4.4002 -2.6066 -1.55853 0
M  V30 39 H 1.9852 -1.31475 -0.709549 0
M  V30 40 H 3.8672 -1.7218 -3.84619 0
M  V30 41 H 2.5422 -0.750278 -3.14885 0
M  V30 42 H 1.4492 -2.92089 -2.33741 0
M  V30 43 H 2.7822 -3.83065 -3.09066 0
M  V30 44 N 4.4343 0.785586 -1.36625 0
M  V30 45 C 5.7113 1.53198 -1.21613 0
M  V30 46 C 6.0913 2.10187 0.196113 0
M  V30 47 O 5.4393 1.94318 1.20219 0
M  V30 48 C 5.6493 2.62388 -2.30116 0
M  V30 49 C 6.9973 3.30167 -2.66974 0
M  V30 50 O 8.0213 2.72674 -2.29188 0
M  V30 51 O 6.8803 4.34077 -3.32023 0
M  V30 52 H 3.9743 0.677865 -0.473738 0
M  V30 53 H 6.5203 0.823739 -1.48367 0
M  V30 54 H 5.2923 2.18299 -3.24748 0
M  V30 55 H 4.9153 3.40827 -2.0475 0
M  V30 56 N 5.9124 1.20967 1.01018 0
M  V30 57 C 7.1894 0.93264 1.71934 0
M  V30 58 C 7.5694 -0.55692 2.03621 0
M  V30 59 O 6.9174 -1.52035 1.7058 0
M  V30 60 C 7.1274 1.81233 2.98254 0
M  V30 61 C 8.4754 2.05804 3.71389 0
M  V30 62 O 9.4994 1.78539 3.08225 0
M  V30 63 O 8.3584 2.51888 4.84989 0
M  V30 64 H 5.4524 0.349272 0.749625 0
M  V30 65 H 7.9984 1.31871 1.06808 0
M  V30 66 H 6.7704 2.82067 2.71208 0
M  V30 67 H 6.3934 1.42674 3.7112 0
M  V30 68 N 7.3905 -1.2043 1.01659 0
M  V30 69 C 8.8015 -1.71517 0.737482 0
M  V30 70 C 9.1525 -1.81547 -0.743973 0
M  V30 71 O 8.2775 -1.47803 -1.58061 0
M  V30 72 C 8.8725 -3.11515 1.33206 0
M  V30 73 C 7.4315 -3.59912 1.10183 0
M  V30 74 C 6.5785 -2.37116 1.43776 0
M  V30 75 H 9.5295 -1.05444 1.18606 0
M  V30 76 H 9.5505 -3.73575 0.722636 0
M  V30 77 H 9.0625 -3.04182 2.41028 0
M  V30 78 H 7.1635 -3.72577 0.0412756 0
M  V30 79 H 7.2765 -4.44731 1.78188 0
M  V30 80 H 5.6405 -2.39857 0.856778 0
M  V30 81 H 6.4235 -2.32424 2.52654 0
M  V30 82 N 8.8686 -0.792821 -1.36206 0
M  V30 83 C 10.0986 -0.378275 -2.03107 0
M  V30 84 C 10.5066 1.01119 -1.59911 0
M  V30 85 O 9.8496 1.66052 -0.785658 0
M  V30 86 C 9.9116 -0.366535 -3.57627 0
M  V30 87 C 9.5756 -1.70416 -4.24037 0
M  V30 88 C 10.5726 -2.6602 -4.46687 0
M  V30 89 C 8.2576 -1.98439 -4.6144 0
M  V30 90 C 10.2516 -3.8784 -5.05825 0
M  V30 91 C 7.9386 -3.20525 -5.20295 0
M  V30 92 C 8.9366 -4.15044 -5.42427 0
M  V30 93 O 8.6246 -5.34978 -6.00045 0
M  V30 94 H 8.3566 -0.153543 -0.658332 0
M  V30 95 H 10.9106 -1.07383 -1.75094 0
M  V30 96 H 9.1406 0.385539 -3.84773 0
M  V30 97 H 10.8296 0.0238088 -4.05893 0
M  V30 98 H 11.5956 -2.45658 -4.18183 0
M  V30 99 H 7.4746 -1.25686 -4.43536 0
M  V30 100 H 11.0186 -4.61628 -5.23015 0
M  V30 101 H 6.9156 -3.40764 -5.48225 0
M  V30 102 H 7.6836 -5.36088 -6.18508 0
M  V30 103 N 10.3467 1.47872 -0.545128 0
M  V30 104 C 11.2767 2.32661 0.197793 0
M  V30 105 C 12.2577 1.43041 0.920504 0
M  V30 106 O 13.4427 1.71912 0.90333 0
M  V30 107 C 10.5727 3.24569 1.23582 0
M  V30 108 C 9.5267 4.23333 0.630323 0
M  V30 109 C 8.8527 5.0448 1.77211 0
M  V30 110 C 10.1527 5.20704 -0.407974 0
M  V30 111 H 11.8467 2.95024 -0.510045 0
M  V30 112 H 9.3927 1.4187 -0.246731 0
M  V30 113 H 11.3457 3.8272 1.76362 0
M  V30 114 H 10.0697 2.60236 1.97344 0
M  V30 115 H 8.7287 3.6639 0.123922 0
M  V30 116 H 8.3767 4.36561 2.49847 0
M  V30 117 H 8.0767 5.71339 1.37281 0
M  V30 118 H 9.6007 5.65487 2.3034 0
M  V30 119 H 11.0147 5.7329 0.033305 0
M  V30 120 H 9.4117 5.95699 -0.725486 0
M  V30 121 H 10.4817 4.66917 -1.30828 0
M  V30 122 N 11.8248 0.280983 1.55075 0
M  V30 123 C 13.0728 -0.333455 1.9933 0
M  V30 124 C 13.3938 -1.55937 1.17085 0
M  V30 125 O 12.6638 -1.94143 0.261805 0
M  V30 126 H 11.2438 -0.126197 0.736263 0
M  V30 127 H 13.9058 0.387678 1.91005 0
M  V30 128 H 13.0018 -0.619292 3.05894 0
M  V30 129 N 13.3029 -1.57598 0.00835791 0
M  V30 130 C 14.7189 -1.55764 -0.347822 0
M  V30 131 C 14.9189 -1.01186 -1.74252 0
M  V30 132 O 13.9749 -0.649371 -2.44007 0
M  V30 133 C 15.2879 -2.99927 -0.215407 0
M  V30 134 C 16.8359 -3.11656 -0.289725 0
M  V30 135 C 17.3109 -4.57621 -0.18634 0
M  V30 136 N 18.8019 -4.62557 -0.243978 0
M  V30 137 C 19.5369 -5.73094 -0.18745 0
M  V30 138 N 19.0329 -6.92753 -0.0810331 0
M  V30 139 N 20.8259 -5.61588 -0.239925 0
M  V30 140 H 12.9769 -1.91411 0.92062 0
M  V30 141 H 15.2399 -0.879562 0.353659 0
M  V30 142 H 14.9459 -3.43729 0.744512 0
M  V30 143 H 14.8199 -3.63865 -0.994097 0
M  V30 144 H 17.2069 -2.67779 -1.24009 0
M  V30 145 H 17.2879 -2.5048 0.51898 0
M  V30 146 H 16.9319 -5.02174 0.760519 0
M  V30 147 H 16.8619 -5.16752 -1.01364 0
M  V30 148 H 19.3529 -3.76481 -0.327217 0
M  V30 149 H 19.6659 -7.72787 -0.0440241 0
M  V30 150 H 18.0109 -6.94984 -0.0465419 0
M  V30 151 H 21.2019 -4.66996 -0.321317 0
M  V30 152 H 21.3749 -6.47714 -0.192407 0
M  V30 153 N 14.781 0.264519 -1.55364 0
M  V30 154 C 16.192 0.834936 -1.6699 0
M  V30 155 C 16.543 1.86718 -0.602552 0
M  V30 156 O 15.668 2.14899 0.254425 0
M  V30 157 C 16.263 1.5212 -3.02729 0
M  V30 158 C 14.822 2.03954 -3.16354 0
M  V30 159 C 13.969 0.884498 -2.62815 0
M  V30 160 H 16.92 0.0406869 -1.58648 0
M  V30 161 H 16.941 2.38853 -2.96191 0
M  V30 162 H 16.453 0.769668 -3.80392 0
M  V30 163 H 14.554 2.82041 -2.43482 0
M  V30 164 H 14.667 2.24902 -4.23032 0
M  V30 165 H 13.031 1.2802 -2.20188 0
M  V30 166 H 13.814 0.14634 -3.42988 0
M  V30 167 N 16.2591 1.48442 0.529413 0
M  V30 168 C 17.1691 1.6569 1.66084 0
M  V30 169 C 18.1851 0.539432 1.65427 0
M  V30 170 O 19.3611 0.810572 1.84368 0
M  V30 171 C 16.4261 1.69315 3.02545 0
M  V30 172 C 15.4871 2.92694 3.14052 0
M  V30 173 C 14.7201 2.96137 4.44003 0
M  V30 174 O 14.9431 2.07973 5.31134 0
M  V30 175 O 13.8771 3.88312 4.59888 0
M  V30 176 H 17.7031 2.61483 1.54469 0
M  V30 177 H 15.2881 1.3185 0.702567 0
M  V30 178 H 17.1701 1.74217 3.83701 0
M  V30 179 H 15.8451 0.766966 3.14483 0
M  V30 180 H 14.7521 2.93324 2.32189 0
M  V30 181 H 16.0851 3.84699 3.0703 0
M  V30 182 N 17.7372 -0.778329 1.37039 0
M  V30 183 C 18.6692 -1.90034 1.2814 0
M  V30 184 C 19.6822 -1.61585 0.198558 0
M  V30 185 O 20.8712 -1.72625 0.454175 0
M  V30 186 C 17.9712 -3.25108 0.956968 0
M  V30 187 C 17.1442 -3.81253 2.14394 0
M  V30 188 C 16.2032 -4.94789 1.79082 0
M  V30 189 O 15.2292 -5.10721 2.51301 0
M  V30 190 N 16.4312 -5.75878 0.731043 0
M  V30 191 H 19.1962 -1.98186 2.24816 0
M  V30 192 H 16.7572 -0.957129 1.30578 0
M  V30 193 H 18.7492 -3.9857 0.701701 0
M  V30 194 H 17.3192 -3.125 0.0789812 0
M  V30 195 H 16.5392 -2.99647 2.56135 0
M  V30 196 H 17.8272 -4.15495 2.93668 0
M  V30 197 H 17.2252 -5.65547 0.131618 0
M  V30 198 H 15.7822 -6.49596 0.535622 0
M  V30 199 N 19.2153 -1.21501 -1.00376 0
M  V30 200 C 20.1483 -0.918669 -2.08892 0
M  V30 201 C 21.1263 0.134277 -1.62045 0
M  V30 202 O 22.3103 0.00504255 -1.88499 0
M  V30 203 C 19.4373 -0.379645 -3.36566 0
M  V30 204 C 18.4833 -1.41559 -4.02323 0
M  V30 205 S 19.3163 -2.98521 -4.44574 0
M  V30 206 C 20.4723 -2.46228 -5.75433 0
M  V30 207 H 20.7053 -1.83761 -2.33707 0
M  V30 208 H 18.2383 -1.04489 -1.13673 0
M  V30 209 H 20.1963 -0.0752195 -4.10431 0
M  V30 210 H 18.8573 0.518008 -3.09799 0
M  V30 211 H 18.0503 -0.988076 -4.9422 0
M  V30 212 H 17.6523 -1.66815 -3.34737 0
M  V30 213 H 19.9443 -1.86791 -6.51241 0
M  V30 214 H 20.8873 -3.36572 -6.22997 0
M  V30 215 H 21.2953 -1.87894 -5.32312 0
M  V30 216 N 20.6934 1.19889 -1.02296 0
M  V30 217 C 21.9404 1.8942 -0.715972 0
M  V30 218 C 22.2684 1.79251 0.754944 0
M  V30 219 O 21.5234 1.17526 1.56481 0
M  V30 220 C 21.8224 3.39883 -1.10518 0
M  V30 221 C 21.4884 3.70254 -2.57337 0
M  V30 222 C 20.1504 3.78254 -2.97452 0
M  V30 223 C 22.5024 3.84052 -3.52354 0
M  V30 224 C 19.8304 3.97514 -4.31509 0
M  V30 225 C 22.1824 4.04824 -4.86108 0
M  V30 226 C 20.8464 4.11054 -5.25919 0
M  V30 227 H 20.1164 0.693138 -0.261993 0
M  V30 228 H 22.7634 1.42012 -1.28472 0
M  V30 229 H 21.0684 3.8915 -0.454953 0
M  V30 230 H 22.7654 3.9199 -0.845261 0
M  V30 231 H 19.3554 3.64632 -2.25258 0
M  V30 232 H 23.5394 3.77221 -3.22518 0
M  V30 233 H 18.7954 4.00574 -4.61898 0
M  V30 234 H 22.9694 4.14442 -5.59653 0
M  V30 235 H 20.5964 4.2573 -6.29808 0
M  V30 236 N 22.1715 0.800033 1.35784 0
M  V30 237 C 23.1215 0.178654 2.27299 0
M  V30 238 C 24.1055 -0.643667 1.47464 0
M  V30 239 O 25.2975 -0.502 1.69732 0
M  V30 240 C 22.4265 -0.677194 3.36555 0
M  V30 241 C 21.5125 0.154497 4.23818 0
M  V30 242 N 21.9035 1.21427 4.91008 0
M  V30 243 C 20.2015 -0.0649462 4.45953 0
M  V30 244 C 20.9025 1.72147 5.55644 0
M  V30 245 N 19.8785 1.02897 5.33773 0
M  V30 246 H 23.6805 0.989637 2.76737 0
M  V30 247 H 21.1945 0.64054 1.49234 0
M  V30 248 H 23.1915 -1.13835 4.01058 0
M  V30 249 H 21.8515 -1.4866 2.8867 0
M  V30 250 H 22.8625 1.59684 4.92668 0
M  V30 251 H 19.5395 -0.844016 4.0888 0
M  V30 252 H 20.9295 2.60683 6.19269 0
M  V30 253 N 23.6496 -1.47581 0.552962 0
M  V30 254 C 24.5796 -2.32762 -0.185451 0
M  V30 255 C 25.5606 -1.43527 -0.912905 0
M  V30 256 O 26.7456 -1.72388 -0.894201 0
M  V30 257 C 23.8756 -3.25219 -1.21859 0
M  V30 258 C 22.8296 -4.23661 -0.607864 0
M  V30 259 C 22.1556 -5.05413 -1.74533 0
M  V30 260 C 23.4556 -5.20481 0.435582 0
M  V30 261 H 25.1496 -2.94749 0.525684 0
M  V30 262 H 22.6956 -1.41738 0.254251 0
M  V30 263 H 24.6486 -3.8365 -1.7433 0
M  V30 264 H 23.3726 -2.61279 -1.95961 0
M  V30 265 H 22.0316 -3.66451 -0.104489 0
M  V30 266 H 21.6796 -4.3788 -2.47529 0
M  V30 267 H 21.3796 -5.72059 -1.34249 0
M  V30 268 H 22.9036 -5.66701 -2.27338 0
M  V30 269 H 24.3176 -5.733 -0.00290157 0
M  V30 270 H 22.7146 -5.95305 0.757067 0
M  V30 271 H 23.7846 -4.66217 1.33303 0
M  V30 272 N 25.1277 -0.289203 -1.54924 0
M  V30 273 C 26.4047 0.376032 -1.91951 0
M  V30 274 C 26.7847 1.72622 -1.21511 0
M  V30 275 O 26.1327 2.25853 -0.346767 0
M  V30 276 C 26.3427 0.502378 -3.45365 0
M  V30 277 C 27.6907 0.778741 -4.17398 0
M  V30 278 O 28.7147 0.586647 -3.51336 0
M  V30 279 O 27.5737 1.14698 -5.34328 0
M  V30 280 H 24.6677 0.208167 -0.800372 0
M  V30 281 H 27.2137 -0.336394 -1.66332 0
M  V30 282 H 25.9857 -0.447255 -3.88736 0
M  V30 283 H 25.6087 1.26373 -3.76982 0
M  V30 284 N 26.6058 1.57591 -0.0167156 0
M  V30 285 C 28.0168 1.79201 0.523834 0
M  V30 286 C 28.3678 0.925796 1.72984 0
M  V30 287 O 27.4928 0.132792 2.15992 0
M  V30 288 C 28.0878 3.25 0.957091 0
M  V30 289 C 26.6468 3.47648 1.44283 0
M  V30 290 C 25.7938 2.74374 0.401757 0
M  V30 291 H 28.7448 1.56831 -0.242816 0
M  V30 292 H 28.7658 3.34031 1.82219 0
M  V30 293 H 28.2778 3.88019 0.0791415 0
M  V30 294 H 26.3788 2.89866 2.34113 0
M  V30 295 H 26.4918 4.56352 1.45877 0
M  V30 296 H 24.8558 2.39485 0.867121 0
M  V30 297 H 25.6388 3.40102 -0.467513 0
M  V30 298 N 28.0839 -0.256276 1.55502 0
M  V30 299 C 29.3089 -1.00766 1.81276 0
M  V30 300 C 29.7339 -1.78524 0.59252 0
M  V30 301 O 29.0919 -1.75413 -0.45827 0
M  V30 302 C 29.1399 -1.92869 3.04687 0
M  V30 303 O 28.2439 -3.019 2.80945 0
M  V30 304 H 27.5849 -0.287224 0.598664 0
M  V30 305 H 30.1149 -0.280109 2.02674 0
M  V30 306 H 30.1249 -2.34511 3.33869 0
M  V30 307 H 28.7999 -1.35689 3.93143 0
M  V30 308 H 27.3769 -2.64454 2.62904 0
M  V30 309 N 29.562 -1.4872 -0.521534 0
M  V30 310 C 30.492 -1.66771 -1.63431 0
M  V30 311 C 31.473 -0.516499 -1.62069 0
M  V30 312 O 32.658 -0.750013 -1.79132 0
M  V30 313 C 29.788 -1.71515 -3.01993 0
M  V30 314 C 28.742 -2.86222 -3.18216 0
M  V30 315 C 28.068 -2.76061 -4.57924 0
M  V30 316 C 29.368 -4.27419 -3.00184 0
M  V30 317 H 31.062 -2.59932 -1.48579 0
M  V30 318 H 28.608 -1.25089 -0.713358 0
M  V30 319 H 30.561 -1.82731 -3.7972 0
M  V30 320 H 29.285 -0.749393 -3.17886 0
M  V30 321 H 27.944 -2.74575 -2.42908 0
M  V30 322 H 27.592 -1.77437 -4.70665 0
M  V30 323 H 27.292 -3.53037 -4.69722 0
M  V30 324 H 28.816 -2.89256 -5.37739 0
M  V30 325 H 30.23 -4.39855 -3.67697 0
M  V30 326 H 28.627 -5.05458 -3.2347 0
M  V30 327 H 29.697 -4.43293 -1.96518 0
M  V30 328 N 31.0401 0.771051 -1.3745 0
M  V30 329 C 32.2681 1.56015 -1.35893 0
M  V30 330 C 32.6831 1.88718 0.0555523 0
M  V30 331 O 32.0401 1.51502 1.01752 0
M  V30 332 C 32.0911 2.87001 -2.19801 0
M  V30 333 O 31.8121 2.557 -3.55738 0
M  V30 334 C 33.3131 3.81228 -2.26231 0
M  V30 335 H 30.5331 0.483317 -0.465453 0
M  V30 336 H 33.0771 0.955611 -1.80799 0
M  V30 337 H 31.2321 3.43877 -1.78402 0
M  V30 338 H 31.6461 3.39584 -3.99729 0
M  V30 339 H 33.1201 4.70139 -2.89263 0
M  V30 340 H 33.5971 4.20409 -1.27093 0
M  V30 341 H 34.2031 3.30281 -2.67945 0
M  V30 342 N 32.5182 1.22032 0.997298 0
M  V30 343 C 33.4682 0.953838 2.07089 0
M  V30 344 C 34.4522 -0.0938669 1.60626 0
M  V30 345 O 35.6442 0.116078 1.76619 0
M  V30 346 C 32.7732 0.528726 3.39204 0
M  V30 347 C 31.8592 1.61092 3.92314 0
M  V30 348 N 32.2502 2.83768 4.18699 0
M  V30 349 C 30.5482 1.48158 4.20672 0
M  V30 350 C 31.2492 3.53715 4.61802 0
M  V30 351 N 30.2252 2.81174 4.65233 0
M  V30 352 H 34.0272 1.88577 2.25424 0
M  V30 353 H 31.5412 1.11719 1.17867 0
M  V30 354 H 33.5382 0.31915 4.15677 0
M  V30 355 H 32.1982 -0.39635 3.22272 0
M  V30 356 H 33.2092 3.20238 4.07023 0
M  V30 357 H 29.8862 0.622369 4.12835 0
M  V30 358 H 31.2762 4.58793 4.90875 0
M  V30 359 N 33.9963 -1.19345 1.0293 0
M  V30 360 C 35.2243 -1.92997 0.745644 0
M  V30 361 C 35.6393 -1.75519 -0.695589 0
M  V30 362 O 34.9963 -1.07737 -1.47306 0
M  V30 363 C 35.0473 -3.44741 1.08792 0
M  V30 364 O 34.7683 -3.61658 2.47256 0
M  V30 365 C 36.2693 -4.35515 0.827129 0
M  V30 366 H 33.4893 -0.613042 0.272801 0
M  V30 367 H 36.0333 -1.51473 1.3739 0
M  V30 368 H 34.1883 -3.84097 0.504832 0
M  V30 369 H 34.6023 -4.55514 2.60015 0
M  V30 370 H 36.0763 -5.40589 1.11658 0
M  V30 371 H 36.5533 -4.38552 -0.238436 0
M  V30 372 H 37.1593 -4.01841 1.39297 0
M  V30 373 N 35.4744 -0.807222 -1.35358 0
M  V30 374 C 36.7234 -0.384376 -1.98004 0
M  V30 375 C 37.0364 1.0543 -1.64754 0
M  V30 376 O 38.2424 1.58029 -2.20769 0
M  V30 377 C 36.6984 -0.636326 -3.5423 0
M  V30 378 C 36.3064 -2.08759 -3.96388 0
M  V30 379 C 38.0504 -0.278869 -4.23583 0
M  V30 380 C 35.9574 -2.28525 -5.45463 0
M  V30 381 H 34.8874 -0.139986 -0.740891 0
M  V30 382 H 37.5384 -0.991369 -1.54415 0
M  V30 383 H 35.9204 0.0406256 -3.95979 0
M  V30 384 H 37.0944 -2.8024 -3.6579 0
M  V30 385 H 35.4094 -2.40497 -3.39926 0
M  V30 386 H 38.0064 -0.404599 -5.33167 0
M  V30 387 H 38.3494 0.775012 -4.09022 0
M  V30 388 H 38.8824 -0.909764 -3.87257 0
M  V30 389 H 35.6214 -3.32361 -5.64992 0
M  V30 390 H 35.1414 -1.61569 -5.77629 0
M  V30 391 H 36.8204 -2.10109 -6.11934 0
M  V30 392 N 36.9525 1.47285 -0.560781 0
M  V30 393 C 38.1995 2.02464 -0.038062 0
M  V30 394 C 38.5275 1.43474 1.31322 0
M  V30 395 O 37.7825 0.581311 1.86867 0
M  V30 396 C 38.0815 3.57258 0.100784 0
M  V30 397 C 37.7475 4.35184 -1.18007 0
M  V30 398 C 36.4095 4.56194 -1.53103 0
M  V30 399 C 38.7615 4.80098 -2.02867 0
M  V30 400 C 36.0895 5.19367 -2.729 0
M  V30 401 C 38.4415 5.44593 -3.21871 0
M  V30 402 C 37.1055 5.63835 -3.57276 0
M  V30 403 H 36.3755 0.740869 -0.0139279 0
M  V30 404 H 39.0225 1.76916 -0.733012 0
M  V30 405 H 37.3275 3.81819 0.878724 0
M  V30 406 H 39.0245 3.97606 0.520639 0
M  V30 407 H 35.6145 4.19113 -0.8968 0
M  V30 408 H 39.7985 4.63642 -1.7706 0
M  V30 409 H 35.0545 5.32459 -3.00496 0
M  V30 410 H 39.2285 5.78358 -3.87911 0
M  V30 411 H 36.8555 6.12557 -4.50197 0
M  V30 412 N 38.4306 0.297415 1.54768 0
M  V30 413 C 39.3786 -0.596051 2.24833 0
M  V30 414 C 40.3726 -1.13992 1.25308 0
M  V30 415 O 41.5786 -1.09098 1.4317 0
M  V30 416 H 37.9536 -0.210814 0.721846 0
M  V30 417 H 39.9246 0.0174667 2.98395 0
M  V30 418 C 38.6736 -1.75818 2.99972 0
M  V30 419 H 37.9966 -1.3489 3.76357 0
M  V30 420 H 39.4366 -2.35949 3.52284 0
M  V30 421 C 37.8956 -2.66014 2.06732 0
M  V30 422 O 38.4256 -3.67009 1.63302 0
M  V30 423 N 36.6316 -2.33669 1.72763 0
M  V30 424 H 36.1786 -1.51586 2.08277 0
M  V30 425 H 36.1366 -2.94285 1.10652 0
M  V30 426 N 39.9087 -1.5758 0.0250728 0
M  V30 427 C 41.3197 -1.79476 -0.514323 0
M  V30 428 C 41.6707 -0.934956 -1.72491 0
M  V30 429 O 40.7957 -0.144245 -2.15919 0
M  V30 430 C 41.3907 -3.25503 -0.939842 0
M  V30 431 C 39.9497 -3.48408 -1.42438 0
M  V30 432 C 39.0967 -2.74583 -0.387201 0
M  V30 433 H 42.0477 -1.567 0.25113 0
M  V30 434 H 42.0687 -3.34992 -1.80445 0
M  V30 435 H 41.5807 -3.88056 -0.0585628 0
M  V30 436 H 39.6817 -2.91103 -2.32572 0
M  V30 437 H 39.7947 -4.57119 -1.43455 0
M  V30 438 H 38.1587 -2.39942 -0.854409 0
M  V30 439 H 38.9417 -3.39849 0.485543 0
M  V30 440 N 41.3868 0.248026 -1.55636 0
M  V30 441 C 42.2968 1.32859 -1.93354 0
M  V30 442 C 43.3128 1.52719 -0.833838 0
M  V30 443 O 44.4888 1.66363 -1.13513 0
M  V30 444 C 41.5538 2.66337 -2.21958 0
M  V30 445 C 40.6148 2.55008 -3.45354 0
M  V30 446 C 39.8478 3.82121 -3.72584 0
M  V30 447 O 40.0708 4.83951 -3.01907 0
M  V30 448 O 39.0048 3.80822 -4.6611 0
M  V30 449 H 42.8308 1.03862 -2.85388 0
M  V30 450 H 40.4158 0.448686 -1.42503 0
M  V30 451 H 42.2978 3.45216 -2.4167 0
M  V30 452 H 40.9728 2.95068 -1.33103 0
M  V30 453 H 39.8798 1.7442 -3.30951 0
M  V30 454 H 41.2128 2.31222 -4.34508 0
M  V30 455 N 42.8649 1.48995 0.513639 0
M  V30 456 C 44.1109 1.58076 1.27042 0
M  V30 457 C 44.4439 0.261026 1.92438 0
M  V30 458 O 43.7189 -0.734393 1.80103 0
M  V30 459 C 44.0019 2.73091 2.34719 0
M  V30 460 C 43.8549 4.14821 1.73907 0
M  V30 461 C 45.1739 2.83796 3.36375 0
M  V30 462 H 42.2929 0.575391 0.460536 0
M  V30 463 H 44.9349 1.81232 0.570516 0
M  V30 464 H 43.0849 2.53479 2.94416 0
M  V30 465 H 44.7569 4.45917 1.18135 0
M  V30 466 H 42.9999 4.21058 1.0437 0
M  V30 467 H 43.6709 4.91147 2.51949 0
M  V30 468 H 46.1469 3.01611 2.86653 0
M  V30 469 H 45.0229 3.65971 4.09093 0
M  V30 470 H 45.2839 1.92624 3.9793 0
M  V30 471 N 44.343 -0.763751 1.37857 0
M  V30 472 C 45.59 -1.52257 1.33506 0
M  V30 473 C 45.918 -1.94343 -0.078022 0
M  V30 474 O 45.173 -1.64958 -1.05297 0
M  V30 475 C 45.472 -2.79499 2.22745 0
M  V30 476 C 45.138 -2.56426 3.70886 0
M  V30 477 C 43.8 -2.49842 4.11257 0
M  V30 478 C 46.152 -2.36008 4.64704 0
M  V30 479 C 43.48 -2.20841 5.43549 0
M  V30 480 C 45.832 -2.0853 5.97242 0
M  V30 481 C 44.496 -2.00396 6.36709 0
M  V30 482 H 43.766 -0.557149 0.488534 0
M  V30 483 H 46.413 -0.879073 1.70131 0
M  V30 484 H 44.718 -3.48447 1.79142 0
M  V30 485 H 46.415 -3.37413 2.16688 0
M  V30 486 H 43.005 -2.62416 3.38874 0
M  V30 487 H 47.189 -2.40079 4.34368 0
M  V30 488 H 42.445 -2.13045 5.73081 0
M  V30 489 H 46.619 -1.91732 6.69486 0
M  V30 490 H 44.246 -1.77688 7.39142 0
M  V30 491 N 45.8211 -1.22559 -0.990812 0
M  V30 492 C 46.7531 -0.955325 -2.08342 0
M  V30 493 C 47.7661 0.0668408 -1.62663 0
M  V30 494 O 48.9551 -0.167421 -1.77713 0
M  V30 495 C 46.0551 -0.415566 -3.36342 0
M  V30 496 C 45.2281 -1.49544 -4.11042 0
M  V30 497 C 44.2871 -0.962399 -5.17324 0
M  V30 498 O 43.3131 -1.64907 -5.44788 0
M  V30 499 N 44.5151 0.215134 -5.80101 0
M  V30 500 H 47.2801 -1.89596 -2.32106 0
M  V30 501 H 44.8411 -1.13276 -1.15673 0
M  V30 502 H 46.8331 -0.0442386 -4.04676 0
M  V30 503 H 45.4031 0.430232 -3.09625 0
M  V30 504 H 44.6231 -2.04 -3.37309 0
M  V30 505 H 45.9111 -2.22195 -4.57719 0
M  V30 506 H 45.3091 0.789779 -5.6016 0
M  V30 507 H 43.8661 0.527826 -6.49659 0
M  V30 508 N 47.2992 1.18797 -1.03562 0
M  V30 509 C 48.7102 1.70322 -0.764676 0
M  V30 510 C 49.0612 1.82708 0.714996 0
M  V30 511 O 48.1862 1.50299 1.55689 0
M  V30 512 C 48.7812 3.09356 -1.38145 0
M  V30 513 C 47.3402 3.58114 -1.15895 0
M  V30 514 C 46.4872 2.34798 -1.4753 0
M  V30 515 H 49.4382 1.03543 -1.20268 0
M  V30 516 H 49.4592 3.72378 -0.781977 0
M  V30 517 H 48.9712 3.00309 -2.45837 0
M  V30 518 H 47.0722 3.72464 -0.100544 0
M  V30 519 H 47.1852 4.4184 -1.8524 0
M  V30 520 H 45.5492 2.38464 -0.894829 0
M  V30 521 H 46.3322 2.28375 -2.56319 0
M  V30 522 N 48.7773 0.814389 1.34928 0
M  V30 523 C 49.7093 0.187834 2.28429 0
M  V30 524 C 50.7223 -0.617374 1.5064 0
M  V30 525 O 51.9113 -0.448454 1.72775 0
M  V30 526 C 49.0113 -0.755962 3.30361 0
M  V30 527 C 48.1843 0.00456686 4.374 0
M  V30 528 C 47.2433 -0.858876 5.19143 0
M  V30 529 O 46.2693 -0.306968 5.68372 0
M  V30 530 N 47.4713 -2.17988 5.38016 0
M  V30 531 H 50.2363 0.991105 2.82838 0
M  V30 532 H 47.7973 0.670561 1.4736 0
M  V30 533 H 49.7893 -1.338 3.81942 0
M  V30 534 H 48.3593 -1.46001 2.7641 0
M  V30 535 H 47.5793 0.767865 3.86649 0
M  V30 536 H 48.8673 0.528422 5.06049 0
M  V30 537 H 48.2653 -2.65212 4.99679 0
M  V30 538 H 46.8223 -2.71098 5.92747 0
M  V30 539 N 50.2554 -1.46986 0.568584 0
M  V30 540 C 51.1884 -2.27129 -0.220779 0
M  V30 541 C 52.1664 -1.34757 -0.909905 0
M  V30 542 O 53.3504 -1.64152 -0.926622 0
M  V30 543 C 50.4774 -3.12108 -1.31553 0
M  V30 544 C 49.5234 -4.20141 -0.733748 0
M  V30 545 S 50.3564 -5.33783 0.428479 0
M  V30 546 C 51.5124 -6.22327 -0.667811 0
M  V30 547 H 51.7454 -2.93731 0.459267 0
M  V30 548 H 49.2784 -1.5026 0.355154 0
M  V30 549 H 51.2364 -3.61636 -1.94241 0
M  V30 550 H 49.8974 -2.44847 -1.96746 0
M  V30 551 H 49.0904 -4.79373 -1.5562 0
M  V30 552 H 48.6924 -3.73553 -0.182812 0
M  V30 553 H 50.9844 -6.59364 -1.55708 0
M  V30 554 H 51.9274 -7.0801 -0.11258 0
M  V30 555 H 52.3354 -5.5618 -0.965601 0
M  V30 556 N 51.7335 -0.305618 -1.54608 0
M  V30 557 C 52.6965 0.555591 -2.22364 0
M  V30 558 C 53.6965 1.05768 -1.21119 0
M  V30 559 O 54.8865 0.952972 -1.45822 0
M  V30 560 C 52.0185 1.76974 -2.91364 0
M  V30 561 H 53.2115 -0.0364572 -2.99878 0
M  V30 562 H 50.7645 -0.0565007 -1.56198 0
M  V30 563 H 51.4995 2.40151 -2.17941 0
M  V30 564 H 51.2845 1.41732 -3.65588 0
M  V30 565 H 52.7745 2.38148 -3.43038 0
M  V30 566 N 53.2116 1.57565 -0.0334293 0
M  V30 567 C 54.1416 2.13511 0.945265 0
M  V30 568 C 55.1226 1.05231 1.33643 0
M  V30 569 O 56.3076 1.33084 1.41429 0
M  V30 570 C 53.4376 2.6657 2.22616 0
M  V30 571 C 52.3916 3.79676 1.97561 0
M  V30 572 C 51.7176 4.1918 3.31952 0
M  V30 573 C 53.0176 5.0557 1.31135 0
M  V30 574 H 54.7116 2.95538 0.479325 0
M  V30 575 H 52.2576 1.42166 0.229115 0
M  V30 576 H 54.2106 3.04344 2.91466 0
M  V30 577 H 52.9346 1.8171 2.71384 0
M  V30 578 H 51.5936 3.42347 1.31127 0
M  V30 579 H 51.2416 3.31296 3.78487 0
M  V30 580 H 50.9416 4.95402 3.15992 0
M  V30 581 H 52.4656 4.59541 4.02063 0
M  V30 582 H 53.8796 5.40903 1.89992 0
M  V30 583 H 52.2766 5.86818 1.25559 0
M  V30 584 H 53.3466 4.84062 0.284894 0
M  V30 585 N 54.6897 -0.239769 1.55765 0
M  V30 586 C 56.1007 -0.808263 1.68297 0
M  V30 587 C 56.4517 -1.85736 0.632181 0
M  V30 588 O 55.5767 -2.15277 -0.220204 0
M  V30 589 C 56.1717 -1.47284 3.05111 0
M  V30 590 C 54.7307 -1.98895 3.19559 0
M  V30 591 C 53.8777 -0.842575 2.64189 0
M  V30 592 H 56.8287 -0.0154422 1.58692 0
M  V30 593 H 56.8497 -2.34111 2.99954 0
M  V30 594 H 56.3617 -0.709053 3.81568 0
M  V30 595 H 54.4627 -2.78132 2.47938 0
M  V30 596 H 54.5757 -2.18143 4.26556 0
M  V30 597 H 52.9397 -1.24501 2.22197 0
M  V30 598 H 53.7227 -0.0917552 3.43177 0
M  V30 599 N 56.1678 -1.49265 -0.50573 0
M  V30 600 C 57.3958 -1.62215 -1.28429 0
M  V30 601 C 57.8108 -0.291697 -1.86533 0
M  V30 602 O 57.1678 0.722233 -1.67601 0
M  V30 603 C 57.2188 -2.68735 -2.41793 0
M  V30 604 O 56.9398 -3.96619 -1.86078 0
M  V30 605 C 58.4408 -2.92346 -3.3324 0
M  V30 606 H 55.6608 -0.546239 -0.389697 0
M  V30 607 H 58.2048 -1.95265 -0.607609 0
M  V30 608 H 56.3598 -2.38476 -3.053 0
M  V30 609 H 56.7738 -4.55256 -2.60465 0
M  V30 610 H 58.2478 -3.70623 -4.09075 0
M  V30 611 H 58.7248 -2.02081 -3.89948 0
M  V30 612 H 59.3308 -3.24003 -2.75503 0
M  V30 613 N 57.6459 0.756429 -1.3826 0
M  V30 614 C 58.9229 1.50584 -1.24835 0
M  V30 615 C 59.3029 2.10556 0.151485 0
M  V30 616 O 58.6509 1.96825 1.1607 0
M  V30 617 C 58.8609 2.57448 -2.3563 0
M  V30 618 C 60.2089 3.24429 -2.73917 0
M  V30 619 O 61.2329 2.67751 -2.34921 0
M  V30 620 O 60.0919 4.26937 -3.41156 0
M  V30 621 H 57.1859 0.667664 -0.48801 0
M  V30 622 H 59.7319 0.792083 -1.5008 0
M  V30 623 H 58.5039 2.11362 -3.29305 0
M  V30 624 H 58.1269 3.36408 -2.11933 0
M  V30 625 N 59.124 1.23083 0.984299 0
M  V30 626 C 60.372 1.05848 1.72165 0
M  V30 627 C 60.693 -0.406049 1.90726 0
M  V30 628 O 59.963 -1.29139 1.47309 0
M  V30 629 H 58.543 0.388685 0.637913 0
M  V30 630 H 61.205 1.54736 1.18503 0
M  V30 631 H 60.301 1.54327 2.71274 0
M  V30 632 N 60.6021 -1.18246 1.0419 0
M  V30 633 C 62.0131 -1.69914 0.773698 0
M  V30 634 C 62.3641 -1.83085 -0.705297 0
M  V30 635 O 61.4891 -1.51123 -1.5489 0
M  V30 636 C 62.0841 -3.08619 1.39784 0
M  V30 637 C 60.6431 -3.57494 1.17792 0
M  V30 638 C 59.7901 -2.34013 1.48773 0
M  V30 639 H 62.7411 -1.02904 1.20816 0
M  V30 640 H 62.7621 -3.71958 0.801714 0
M  V30 641 H 62.2741 -2.99001 2.47426 0
M  V30 642 H 60.3751 -3.72406 0.120295 0
M  V30 643 H 60.4881 -4.40852 1.87581 0
M  V30 644 H 58.8521 -2.37986 0.907463 0
M  V30 645 H 59.6351 -2.27013 2.57527 0
M  V30 646 N 62.0802 -0.821533 -1.34494 0
M  V30 647 C 63.3102 -0.421272 -2.02259 0
M  V30 648 C 63.7182 0.977047 -1.6202 0
M  V30 649 O 63.0612 1.64348 -0.820703 0
M  V30 650 C 63.1232 -0.44231 -3.56769 0
M  V30 651 C 62.7872 -1.79372 -4.20327 0
M  V30 652 C 63.7842 -2.75435 -4.40944 0
M  V30 653 C 61.4692 -2.08182 -4.57127 0
M  V30 654 C 63.4632 -3.98482 -4.97484 0
M  V30 655 C 61.1502 -3.31489 -5.13379 0
M  V30 656 C 62.1482 -4.26457 -5.33501 0
M  V30 657 O 61.8362 -5.47585 -5.88562 0
M  V30 658 H 61.5682 -0.167473 -0.654927 0
M  V30 659 H 64.1222 -1.11073 -1.72777 0
M  V30 660 H 62.3522 0.303836 -3.85505 0
M  V30 661 H 64.0412 -0.0622925 -4.05852 0
M  V30 662 H 64.8072 -2.54473 -4.12878 0
M  V30 663 H 60.6862 -1.35066 -4.4077 0
M  V30 664 H 64.2302 -4.72618 -5.13106 0
M  V30 665 H 60.1272 -3.52316 -5.40873 0
M  V30 666 H 60.8952 -5.49086 -6.06998 0
M  V30 667 N 63.5583 1.46682 -0.576371 0
M  V30 668 C 64.4883 2.33028 0.148397 0
M  V30 669 C 65.4693 1.44961 0.889956 0
M  V30 670 O 66.6543 1.73789 0.866662 0
M  V30 671 C 63.7843 3.27117 1.1667 0
M  V30 672 C 62.7383 4.24575 0.540386 0
M  V30 673 C 62.0643 5.08126 1.6647 0
M  V30 674 C 63.3643 5.19722 -0.518331 0
M  V30 675 H 65.0583 2.93875 -0.572509 0
M  V30 676 H 62.6043 1.41315 -0.276768 0
M  V30 677 H 64.5573 3.86374 1.68204 0
M  V30 678 H 63.2813 2.64364 1.9178 0
M  V30 679 H 61.9403 3.66571 0.0461769 0
M  V30 680 H 61.5883 4.41762 2.40531 0
M  V30 681 H 61.2883 5.74122 1.25131 0
M  V30 682 H 62.8123 5.70246 2.18293 0
M  V30 683 H 64.2263 5.73232 -0.0883058 0
M  V30 684 H 62.6233 5.94026 -0.851679 0
M  V30 685 H 63.6933 4.64037 -1.40703 0
M  V30 686 N 65.0364 0.313813 1.54444 0
M  V30 687 C 65.9684 -0.590425 2.21465 0
M  V30 688 C 66.9814 -1.08753 1.21147 0
M  V30 689 O 68.1704 -1.00278 1.4767 0
M  V30 690 C 65.2704 -1.82179 2.85769 0
M  V30 691 C 64.4434 -1.46502 4.12136 0
M  V30 692 C 63.5024 -2.55288 4.60124 0
M  V30 693 O 62.5284 -2.19842 5.25032 0
M  V30 694 N 63.7304 -3.86053 4.33525 0
M  V30 695 H 66.4954 -0.0166033 2.99695 0
M  V30 696 H 64.0564 0.136578 1.61323 0
M  V30 697 H 66.0484 -2.54328 3.14801 0
M  V30 698 H 64.6184 -2.30369 2.11303 0
M  V30 699 H 63.8384 -0.575595 3.89975 0
M  V30 700 H 65.1264 -1.20221 4.94393 0
M  V30 701 H 64.5244 -4.17654 3.81552 0
M  V30 702 H 63.0814 -4.54461 4.67235 0
M  V30 703 N 66.5145 -1.57545 0.0417849 0
M  V30 704 C 67.7635 -1.91494 -0.633492 0
M  V30 705 C 68.0765 -0.921084 -1.72556 0
M  V30 706 O 69.2825 -1.15228 -2.45835 0
M  V30 707 C 67.7385 -3.40072 -1.17808 0
M  V30 708 C 67.3465 -4.47843 -0.118633 0
M  V30 709 C 69.0905 -3.8307 -1.82915 0
M  V30 710 C 66.9975 -5.87529 -0.675578 0
M  V30 711 H 65.9275 -0.714653 -0.24039 0
M  V30 712 H 68.5785 -1.83175 0.109148 0
M  V30 713 H 66.9605 -3.43364 -1.97274 0
M  V30 714 H 68.1345 -4.56128 0.654494 0
M  V30 715 H 66.4495 -4.14128 0.434414 0
M  V30 716 H 69.0465 -4.84794 -2.25563 0
M  V30 717 H 69.3895 -3.1881 -2.67705 0
M  V30 718 H 69.9225 -3.82255 -1.10119 0
M  V30 719 H 66.6615 -6.55362 0.134475 0
M  V30 720 H 66.1815 -5.82824 -1.4169 0
M  V30 721 H 67.8605 -6.36491 -1.1614 0
M  V30 722 N 67.9926 0.231505 -1.5589 0
M  V30 723 C 68.9226 1.29022 -1.94617 0
M  V30 724 C 69.9036 1.4941 -0.813067 0
M  V30 725 O 71.0886 1.6176 -1.07459 0
M  V30 726 C 68.2186 2.64199 -2.25424 0
M  V30 727 C 67.1726 2.58484 -3.41131 0
M  V30 728 C 66.4986 3.97599 -3.57518 0
M  V30 729 C 67.7986 2.1413 -4.76388 0
M  V30 730 H 69.4926 0.968563 -2.83301 0
M  V30 731 H 67.0386 0.464479 -1.36303 0
M  V30 732 H 68.9916 3.38413 -2.51107 0
M  V30 733 H 67.7156 2.98032 -1.33583 0
M  V30 734 H 66.3746 1.86727 -3.15481 0
M  V30 735 H 66.0226 4.28723 -2.6307 0
M  V30 736 H 65.7226 3.94659 -4.35337 0
M  V30 737 H 67.2466 4.7349 -3.85538 0
M  V30 738 H 68.6606 2.78083 -5.01341 0
M  V30 739 H 67.0576 2.2227 -5.57419 0
M  V30 740 H 68.1276 1.09331 -4.72414 0
M  V30 741 N 69.4707 1.49531 0.497807 0
M  V30 742 C 70.3807 1.69176 1.62532 0
M  V30 743 C 71.3967 0.5744 1.64246 0
M  V30 744 O 72.5727 0.849497 1.82608 0
M  V30 745 C 69.6377 1.75695 2.98885 0
M  V30 746 C 68.6987 2.9929 3.07773 0
M  V30 747 C 67.9317 3.05488 4.37622 0
M  V30 748 O 68.1547 2.19192 5.26603 0
M  V30 749 O 67.0887 3.9798 4.51548 0
M  V30 750 H 70.9147 2.647 1.48887 0
M  V30 751 H 68.4997 1.3331 0.674441 0
M  V30 752 H 70.3817 1.82317 3.79919 0
M  V30 753 H 69.0567 0.8335 3.12785 0
M  V30 754 H 67.9637 2.98183 2.25915 0
M  V30 755 H 69.2967 3.91125 2.98801 0
M  V30 756 N 70.9488 -0.749086 1.3866 0
M  V30 757 C 71.8808 -1.87273 1.32142 0
M  V30 758 C 72.8938 -1.61127 0.232787 0
M  V30 759 O 74.0828 -1.71623 0.49069 0
M  V30 760 C 71.1828 -3.23005 1.02571 0
M  V30 761 C 70.3558 -3.7662 2.22433 0
M  V30 762 C 69.4148 -4.90879 1.89537 0
M  V30 763 O 68.4408 -5.05276 2.62078 0
M  V30 764 N 69.6428 -5.74198 0.853031 0
M  V30 765 H 72.4078 -1.93373 2.28969 0
M  V30 766 H 69.9688 -0.929216 1.32579 0
M  V30 767 H 71.9608 -3.96992 0.786085 0
M  V30 768 H 70.5308 -3.12262 0.145249 0
M  V30 769 H 69.7508 -2.94147 2.62434 0
M  V30 770 H 71.0388 -4.09173 3.02415 0
M  V30 771 H 70.4368 -5.6514 0.25155 0
M  V30 772 H 68.9938 -6.48313 0.67329 0
M  V30 773 N 72.4269 -1.23603 -0.977757 0
M  V30 774 C 73.8379 -1.06424 -1.53398 0
M  V30 775 C 74.1889 0.367578 -1.92726 0
M  V30 776 O 73.3139 1.25465 -1.76316 0
M  V30 777 C 73.9089 -1.92568 -2.78753 0
M  V30 778 C 72.4679 -1.79642 -3.30765 0
M  V30 779 C 71.6149 -1.88111 -2.03739 0
M  V30 780 H 74.5659 -1.37227 -0.797152 0
M  V30 781 H 74.5869 -1.45203 -3.51705 0
M  V30 782 H 74.0989 -2.96771 -2.50098 0
M  V30 783 H 72.1999 -0.782325 -3.64294 0
M  V30 784 H 72.3129 -2.63174 -4.00345 0
M  V30 785 H 70.6769 -1.31723 -2.17994 0
M  V30 786 H 71.4599 -2.93875 -1.77461 0
M  V30 787 N 73.905 1.17692 -1.04816 0
M  V30 788 C 74.852 2.21581 -0.645797 0
M  V30 789 C 75.822 1.62367 0.350159 0
M  V30 790 O 77.007 1.89254 0.242433 0
M  V30 791 C 74.147 3.45092 -0.0227568 0
M  V30 792 C 73.26 4.18613 -1.06709 0
M  V30 793 C 72.395 5.29602 -0.411767 0
M  V30 794 C 71.434 5.94904 -1.44067 0
M  V30 795 N 70.571 6.97414 -0.809781 0
M  V30 796 H 75.411 2.55353 -1.5362 0
M  V30 797 H 72.948 1.25438 -0.768364 0
M  V30 798 H 74.906 4.15679 0.35588 0
M  V30 799 H 73.536 3.11917 0.831122 0
M  V30 800 H 72.588 3.46779 -1.5636 0
M  V30 801 H 73.9 4.63293 -1.84827 0
M  V30 802 H 73.054 6.06696 0.0206623 0
M  V30 803 H 71.793 4.86045 0.401438 0
M  V30 804 H 70.798 5.16544 -1.88316 0
M  V30 805 H 72.023 6.40542 -2.25571 0
M  V30 806 H 69.969 6.55998 -0.0170186 0
M  V30 807 H 69.886 7.40386 -1.52856 0
M  V30 808 H 71.154 7.78463 -0.401999 0
M  V30 809 N 75.3831 0.828654 1.34056 0
M  V30 810 C 76.3151 0.212052 2.28217 0
M  V30 811 C 77.3281 -0.601362 1.51286 0
M  V30 812 O 78.5171 -0.430104 1.73241 0
M  V30 813 C 75.6171 -0.72088 3.31144 0
M  V30 814 C 74.7901 0.0509587 4.3737 0
M  V30 815 C 73.8491 -0.803766 5.20025 0
M  V30 816 O 72.8751 -0.246667 5.68665 0
M  V30 817 N 74.0771 -2.1227 5.40298 0
M  V30 818 H 76.8421 1.02105 2.81771 0
M  V30 819 H 74.4031 0.686153 1.46641 0
M  V30 820 H 76.3951 -1.29742 3.8334 0
M  V30 821 H 74.9651 -1.43061 2.77943 0
M  V30 822 H 74.1851 0.808831 3.85813 0
M  V30 823 H 75.4731 0.582065 5.0546 0
M  V30 824 H 74.8711 -2.59898 5.02464 0
M  V30 825 H 73.4281 -2.64796 5.95589 0
M  V30 826 N 76.8612 -1.46375 0.584142 0
M  V30 827 C 78.2772 -1.57694 0.245929 0
M  V30 828 C 78.4772 -1.57903 -1.25175 0
M  V30 829 O 77.5332 -1.49676 -2.03355 0
M  V30 830 C 78.8462 -2.87028 0.896402 0
M  V30 831 C 80.3942 -3.00662 0.870127 0
M  V30 832 C 80.8692 -4.32734 1.50017 0
M  V30 833 N 82.3602 -4.39436 1.46458 0
M  V30 834 C 83.0952 -5.40248 1.92144 0
M  V30 835 N 82.5912 -6.47726 2.4581 0
M  V30 836 N 84.3842 -5.31459 1.83052 0
M  V30 837 H 76.5352 -1.44483 1.55687 0
M  V30 838 H 78.7982 -0.689291 0.650831 0
M  V30 839 H 78.5042 -2.9269 1.95002 0
M  V30 840 H 78.3782 -3.75014 0.405486 0
M  V30 841 H 80.7652 -2.94581 -0.174871 0
M  V30 842 H 80.8462 -2.14148 1.39908 0
M  V30 843 H 80.4902 -4.39573 2.54437 0
M  V30 844 H 80.4202 -5.18025 0.946432 0
M  V30 845 H 82.9112 -3.62367 1.07231 0
M  V30 846 H 83.2242 -7.20863 2.78525 0
M  V30 847 H 81.5692 -6.48542 2.49836 0
M  V30 848 H 84.7602 -4.46396 1.40883 0
M  V30 849 H 84.9332 -6.09881 2.18973 0
M  V30 850 N 78.3393 -0.321999 -1.54275 0
M  V30 851 C 79.5873 0.280489 -2.00144 0
M  V30 852 C 79.9083 1.52777 -1.21178 0
M  V30 853 O 79.1783 1.9338 -0.313187 0
M  V30 854 H 77.7583 0.106632 -0.73935 0
M  V30 855 H 80.4203 -0.438184 -1.8991 0
M  V30 856 H 79.5163 0.537972 -3.07428 0
M  V30 857 N 79.8174 1.5752 -0.0501392 0
M  V30 858 C 81.0644 1.9265 0.623874 0
M  V30 859 C 81.3924 0.928411 1.70912 0
M  V30 860 O 80.6474 -0.0594525 1.9561 0
M  V30 861 C 80.9464 3.34467 1.25963 0
M  V30 862 C 80.6124 4.49883 0.302689 0
M  V30 863 C 79.2744 4.81184 0.0393636 0
M  V30 864 C 81.6264 5.20002 -0.353205 0
M  V30 865 C 78.9544 5.79951 -0.887308 0
M  V30 866 C 81.3064 6.1976 -1.26806 0
M  V30 867 C 79.9704 6.49491 -1.54007 0
M  V30 868 H 79.2404 0.704957 0.228292 0
M  V30 869 H 81.8874 1.91146 -0.116398 0
M  V30 870 H 80.1924 3.32333 2.07514 0
M  V30 871 H 81.8894 3.58928 1.78806 0
M  V30 872 H 78.4794 4.25457 0.518109 0
M  V30 873 H 82.6634 4.96033 -0.162854 0
M  V30 874 H 77.9194 6.01322 -1.10553 0
M  V30 875 H 82.0934 6.73205 -1.78236 0
M  V30 876 H 79.7204 7.25837 -2.25976 0
M  V30 877 N 81.2955 -0.223234 1.56011 0
M  V30 878 C 82.7115 -0.572856 1.48965 0
M  V30 879 C 82.9115 -1.87225 0.74492 0
M  V30 880 O 81.9675 -2.50899 0.283896 0
M  V30 881 C 83.2805 -0.653646 2.9351 0
M  V30 882 C 84.8285 -0.744386 3.0402 0
M  V30 883 C 85.3035 -0.856535 4.49919 0
M  V30 884 N 86.7945 -0.9208 4.53955 0
M  V30 885 C 87.5295 -1.02726 5.64123 0
M  V30 886 N 87.0255 -1.09777 6.84047 0
M  V30 887 N 88.8185 -1.06226 5.51971 0
M  V30 888 H 80.9695 0.629462 2.02858 0
M  V30 889 H 83.2325 0.220621 0.921971 0
M  V30 890 H 82.9385 0.231518 3.50937 0
M  V30 891 H 82.8125 -1.51781 3.45315 0
M  V30 892 H 85.1995 -1.61999 2.46658 0
M  V30 893 H 85.2805 0.14541 2.55386 0
M  V30 894 H 84.9245 0.0146069 5.07898 0
M  V30 895 H 84.8545 -1.76172 4.96257 0
M  V30 896 H 87.3455 -0.876694 3.6759 0
M  V30 897 H 87.6585 -1.17872 7.63758 0
M  V30 898 H 86.0035 -1.06693 6.86762 0
M  V30 899 H 89.1945 -1.00382 4.5721 0
M  V30 900 H 89.3675 -1.14177 6.37862 0
M  V30 901 N 82.7736 -1.49793 -0.48987 0
M  V30 902 C 84.0206 -1.59841 -1.24327 0
M  V30 903 C 84.3486 -0.290135 -1.92324 0
M  V30 904 O 83.6036 0.722749 -1.81865 0
M  V30 905 C 83.9026 -2.71488 -2.32441 0
M  V30 906 C 83.5686 -4.12614 -1.81826 0
M  V30 907 C 82.2306 -4.51017 -1.67742 0
M  V30 908 C 84.5826 -5.00892 -1.4407 0
M  V30 909 C 81.9106 -5.75459 -1.14297 0
M  V30 910 C 84.2626 -6.25863 -0.920742 0
M  V30 911 C 82.9266 -6.63086 -0.766383 0
M  V30 912 H 82.1966 -0.584899 -0.454944 0
M  V30 913 H 84.8436 -1.83663 -0.542215 0
M  V30 914 H 83.1486 -2.4168 -3.0838 0
M  V30 915 H 84.8456 -2.76469 -2.90458 0
M  V30 916 H 81.4356 -3.82307 -1.93751 0
M  V30 917 H 85.6196 -4.7187 -1.53794 0
M  V30 918 H 80.8756 -6.02989 -1.01068 0
M  V30 919 H 85.0496 -6.9364 -0.619448 0
M  V30 920 H 82.6766 -7.59393 -0.350083 0
M  V30 921 N 84.2517 0.741722 -1.39055 0
M  V30 922 C 85.6677 1.04638 -1.20512 0
M  V30 923 C 85.8677 2.01405 -0.0620218 0
M  V30 924 O 84.9237 2.45547 0.588457 0
M  V30 925 C 86.2367 1.6151 -2.53643 0
M  V30 926 C 87.7847 1.73623 -2.6043 0
M  V30 927 C 88.2597 2.33906 -3.93767 0
M  V30 928 N 89.7507 2.41323 -3.9537 0
M  V30 929 C 90.4857 2.88888 -4.95309 0
M  V30 930 N 89.9817 3.36401 -6.05645 0
M  V30 931 N 91.7747 2.88037 -4.82692 0
M  V30 932 H 83.9257 0.0998155 -2.12165 0
M  V30 933 H 86.1887 0.106907 -0.941953 0
M  V30 934 H 85.8947 0.978739 -3.37807 0
M  V30 935 H 85.7687 2.60411 -2.72885 0
M  V30 936 H 88.1557 2.36384 -1.76655 0
M  V30 937 H 88.2367 0.733945 -2.45045 0
M  V30 938 H 87.8807 1.71776 -4.7797 0
M  V30 939 H 87.8107 3.34799 -4.06469 0
M  V30 940 H 90.3017 2.07734 -3.15682 0
M  V30 941 H 90.6147 3.71186 -6.77821 0
M  V30 942 H 88.9597 3.34427 -6.09248 0
M  V30 943 H 92.1507 2.50237 -3.95599 0
M  V30 944 H 92.3237 3.24792 -5.60726 0
M  V30 945 N 85.7298 1.2412 0.971189 0
M  V30 946 C 86.9598 1.10415 1.7462 0
M  V30 947 C 87.3678 -0.346462 1.86001 0
M  V30 948 O 86.7108 -1.25104 1.34517 0
M  V30 949 C 86.7728 1.66596 3.18568 0
M  V30 950 C 86.4368 3.15446 3.3067 0
M  V30 951 C 87.4338 4.12636 3.16271 0
M  V30 952 C 85.1188 3.55337 3.55022 0
M  V30 953 C 87.1128 5.47699 3.26044 0
M  V30 954 C 84.7998 4.90542 3.64434 0
M  V30 955 C 85.7978 5.86532 3.49956 0
M  V30 956 O 85.4858 7.19279 3.59017 0
M  V30 957 H 85.2178 0.386616 0.55453 0
M  V30 958 H 87.7718 1.64633 1.22821 0
M  V30 959 H 86.0018 1.06808 3.71657 0
M  V30 960 H 87.6908 1.48232 3.77865 0
M  V30 961 H 88.4568 3.8316 2.97344 0
M  V30 962 H 84.3358 2.8113 3.65359 0
M  V30 963 H 87.8798 6.22603 3.14661 0
M  V30 964 H 83.7768 5.19691 3.82873 0
M  V30 965 H 84.5448 7.27153 3.75754 0
M  V30 966 N 87.2079 -1.17134 1.05439 0
M  V30 967 C 88.4539 -1.87733 0.767077 0
M  V30 968 C 88.7869 -1.8098 -0.704253 0
M  V30 969 O 88.0619 -1.21951 -1.5152 0
M  V30 970 C 88.3449 -3.37659 1.25133 0
M  V30 971 C 88.1979 -3.53149 2.78578 0
M  V30 972 C 89.5169 -4.31768 0.852324 0
M  V30 973 H 86.6359 -0.681687 0.280129 0
M  V30 974 H 89.2779 -1.37732 1.30881 0
M  V30 975 H 87.4279 -3.80373 0.790469 0
M  V30 976 H 89.0999 -3.19434 3.32806 0
M  V30 977 H 87.3429 -2.95345 3.17732 0
M  V30 978 H 88.0139 -4.58403 3.07523 0
M  V30 979 H 90.4899 -3.96909 1.24911 0
M  V30 980 H 89.3659 -5.35199 1.21873 0
M  V30 981 H 89.6269 -4.41429 -0.243485 0
M  V30 982 N 88.686 -0.835752 -1.33615 0
M  V30 983 C 89.926 -0.43599 -1.99696 0
M  V30 984 C 90.29 0.98557 -1.64774 0
M  V30 985 O 91.491 1.48889 -2.23798 0
M  V30 986 C 89.762 -0.646721 -3.515 0
M  V30 987 S 91.321 -0.341715 -4.37467 0
M  V30 988 H 88.139 -0.164136 -0.691795 0
M  V30 989 H 90.741 -1.08436 -1.62671 0
M  V30 990 H 89.445 -1.68077 -3.74404 0
M  V30 991 H 88.976 0.0159173 -3.93397 0
M  V30 992 H 90.991 0.839708 -4.89043 0
M  V30 993 N 90.1641 1.46063 -0.591896 0
M  V30 994 C 91.0741 2.34192 0.13831 0
M  V30 995 C 92.0901 1.50305 0.876608 0
M  V30 996 O 93.2661 1.8315 0.837728 0
M  V30 997 C 90.3311 3.27656 1.13326 0
M  V30 998 C 89.3921 4.27445 0.39863 0
M  V30 999 C 88.6251 5.16443 1.34618 0
M  V30 1000 O 88.8481 5.08553 2.58321 0
M  V30 1001 O 87.7821 5.95843 0.851768 0
M  V30 1002 H 91.6081 2.98002 -0.58552 0
M  V30 1003 H 89.1931 1.45188 -0.352239 0
M  V30 1004 H 91.0751 3.85291 1.70671 0
M  V30 1005 H 89.7501 2.6643 1.83839 0
M  V30 1006 H 88.6571 3.73471 -0.216895 0
M  V30 1007 H 89.9901 4.91482 -0.265709 0
M  V30 1008 N 91.6422 0.330177 1.54103 0
M  V30 1009 C 92.8902 -0.269871 2.0029 0
M  V30 1010 C 93.2112 -1.52133 1.21986 0
M  V30 1011 O 92.4812 -1.93212 0.323438 0
M  V30 1012 H 91.0612 -0.10271 0.739905 0
M  V30 1013 H 93.7232 0.448249 1.89675 0
M  V30 1014 H 92.8192 -0.52166 3.07709 0
M  V30 1015 N 93.1203 -1.57491 0.0584922 0
M  V30 1016 C 94.5313 -1.80526 -0.476138 0
M  V30 1017 C 94.8823 -0.971334 -1.70469 0
M  V30 1018 O 94.0073 -0.190012 -2.15564 0
M  V30 1019 C 94.6023 -3.27424 -0.870587 0
M  V30 1020 C 93.1613 -3.51351 -1.35015 0
M  V30 1021 C 92.3083 -2.75343 -0.32887 0
M  V30 1022 H 95.2593 -1.56133 0.284312 0
M  V30 1023 H 95.2803 -3.38745 -1.73299 0
M  V30 1024 H 94.7923 -3.88093 0.0237627 0
M  V30 1025 H 92.8933 -2.95971 -2.26345 0
M  V30 1026 H 93.0063 -4.60059 -1.33726 0
M  V30 1027 H 91.3703 -2.417 -0.803321 0
M  V30 1028 H 92.1533 -3.38743 0.557521 0
M  V30 1029 N 94.5984 0.214957 -1.56127 0
M  V30 1030 C 95.8234 0.95924 -1.83884 0
M  V30 1031 C 96.2484 1.7689 -0.639644 0
M  V30 1032 O 95.6064 1.76566 0.411601 0
M  V30 1033 C 95.6544 1.84723 -3.09693 0
M  V30 1034 O 94.7584 2.94346 -2.8885 0
M  V30 1035 H 94.0994 0.27125 -0.606069 0
M  V30 1036 H 96.6294 0.226276 -2.03345 0
M  V30 1037 H 96.6394 2.25576 -3.39969 0
M  V30 1038 H 95.3144 1.25218 -3.96602 0
M  V30 1039 H 93.8914 2.57391 -2.69823 0
M  V30 1040 N 96.0765 1.50051 0.48192 0
M  V30 1041 C 97.0265 1.64512 1.5786 0
M  V30 1042 C 98.0105 0.500073 1.52932 0
M  V30 1043 O 99.2025 0.753964 1.60139 0
M  V30 1044 C 96.3315 1.73263 2.9637 0
M  V30 1045 C 95.4175 2.93409 3.06222 0
M  V30 1046 N 95.8085 4.17236 2.85915 0
M  V30 1047 C 94.1065 2.91742 3.37346 0
M  V30 1048 C 94.8075 4.981 3.00451 0
M  V30 1049 N 93.7835 4.3184 3.30174 0
M  V30 1050 H 97.5855 2.57955 1.40842 0
M  V30 1051 H 95.0995 1.47086 0.688439 0
M  V30 1052 H 97.0965 1.81724 3.75209 0
M  V30 1053 H 95.7565 0.809711 3.14442 0
M  V30 1054 H 96.7675 4.46909 2.6171 0
M  V30 1055 H 93.4445 2.08907 3.61475 0
M  V30 1056 H 94.8345 6.06532 2.89082 0
M  V30 1057 N 97.5546 -0.734337 1.39446 0
M  V30 1058 C 98.8026 -1.49096 1.36436 0
M  V30 1059 C 99.1236 -1.94961 -0.0388255 0
M  V30 1060 O 98.3936 -1.69033 -0.990191 0
M  V30 1061 H 96.9736 -0.5531 0.502085 0
M  V30 1062 H 99.6356 -0.871725 1.74319 0
M  V30 1063 H 98.7316 -2.37276 2.02747 0
M  V30 1064 N 99.0327 -1.24633 -0.964593 0
M  V30 1065 C 100.281 -1.08573 -1.70459 0
M  V30 1066 C 100.602 0.375655 -1.91347 0
M  V30 1067 O 99.8717 1.26779 -1.49345 0
M  V30 1068 H 98.4517 -0.398784 -0.631649 0
M  V30 1069 H 101.114 -1.56601 -1.16026 0
M  V30 1070 H 100.21 -1.58623 -2.68785 0
M  V30 1071 N 100.511 1.16574 -1.06058 0
M  V30 1072 C 101.441 2.23057 -0.690488 0
M  V30 1073 C 102.422 1.67141 0.315901 0
M  V30 1074 O 103.607 1.93253 0.191556 0
M  V30 1075 C 100.737 3.47222 -0.073625 0
M  V30 1076 C 99.6908 4.16016 -1.00573 0
M  V30 1077 C 99.0168 5.34104 -0.252289 0
M  V30 1078 C 100.317 4.67264 -2.33371 0
M  V30 1079 H 102.011 2.54271 -1.58072 0
M  V30 1080 H 99.5568 1.22218 -0.76149 0
M  V30 1081 H 101.51 4.20939 0.19714 0
M  V30 1082 H 100.234 3.15302 0.85161 0
M  V30 1083 H 98.8928 3.44223 -1.2612 0
M  V30 1084 H 98.5408 4.98437 0.675988 0
M  V30 1085 H 98.2408 5.81072 -0.873455 0
M  V30 1086 H 99.7648 6.10599 0.0109857 0
M  V30 1087 H 101.179 5.32573 -2.12223 0
M  V30 1088 H 99.5758 5.24843 -2.90963 0
M  V30 1089 H 100.646 3.83602 -2.96611 0
M  V30 1090 N 101.989 0.842826 1.3317 0
M  V30 1091 C 103.4 0.496651 1.79973 0
M  V30 1092 C 103.751 -0.984641 1.69703 0
M  V30 1093 O 102.876 -1.76743 1.24863 0
M  V30 1094 C 103.471 0.894727 3.26772 0
M  V30 1095 C 102.03 0.600629 3.71577 0
M  V30 1096 C 101.177 1.10091 2.5451 0
M  V30 1097 H 104.128 1.03116 1.20635 0
M  V30 1098 H 104.149 0.206347 3.7994 0
M  V30 1099 H 103.661 1.97287 3.34215 0
M  V30 1100 H 101.762 -0.467284 3.69658 0
M  V30 1101 H 101.875 1.15863 4.64879 0
M  V30 1102 H 100.239 0.52162 2.49301 0
M  V30 1103 H 101.022 2.18591 2.64713 0
M  V30 1104 N 103.467 -1.45747 0.599634 0
M  V30 1105 C 104.715 -2.01893 0.0915472 0
M  V30 1106 C 105.036 -1.47155 -1.27946 0
M  V30 1107 O 104.306 -0.66273 -1.84349 0
M  V30 1108 H 102.886 -0.746363 0.0308524 0
M  V30 1109 H 105.548 -1.78645 0.779237 0
M  V30 1110 H 104.644 -3.1208 0.0353086 0
M  V30 1111 N 104.945 -0.338344 -1.53925 0
M  V30 1112 C 105.908 0.508299 -2.23493 0
M  V30 1113 C 106.908 1.03175 -1.23335 0
M  V30 1114 O 108.098 0.921826 -1.47811 0
M  V30 1115 C 105.23 1.70754 -2.95052 0
M  V30 1116 H 106.423 -0.100058 -2.99733 0
M  V30 1117 H 103.976 -0.0896198 -1.56043 0
M  V30 1118 H 104.711 2.35474 -2.22986 0
M  V30 1119 H 104.496 1.33946 -3.68512 0
M  V30 1120 H 105.986 2.30818 -3.48013 0
M  V30 1121 N 106.423 1.57458 -0.0668435 0
M  V30 1122 C 107.648 1.9804 0.616027 0
M  V30 1123 C 108.073 0.944771 1.62652 0
M  V30 1124 O 107.431 -0.0902094 1.81075 0
M  V30 1125 C 107.479 3.37665 1.26549 0
M  V30 1126 O 106.583 3.36701 2.38131 0
M  V30 1127 H 105.924 0.644719 0.158849 0
M  V30 1128 H 108.454 2.04121 -0.139891 0
M  V30 1129 H 108.464 3.7474 1.6135 0
M  V30 1130 H 107.139 4.12573 0.525016 0
M  V30 1131 H 105.716 3.1139 2.0516 0
M  V30 1132 N 107.901 -0.206675 1.56239 0
M  V30 1133 C 109.126 -0.949474 1.8439 0
M  V30 1134 C 109.551 -1.76549 0.649016 0
M  V30 1135 O 108.909 -1.76782 -0.402231 0
M  V30 1136 C 108.957 -1.83078 3.10668 0
M  V30 1137 O 108.061 -2.9281 2.90407 0
M  V30 1138 H 107.402 -0.268033 0.607499 0
M  V30 1139 H 109.932 -0.215488 2.03462 0
M  V30 1140 H 109.942 -2.2377 3.41161 0
M  V30 1141 H 108.617 -1.23112 3.97261 0
M  V30 1142 H 107.194 -2.55956 2.71184 0
M  V30 1143 N 109.379 -1.50304 -0.473955 0
M  V30 1144 C 110.289 -1.7174 -1.5982 0
M  V30 1145 C 111.305 -0.600457 -1.63311 0
M  V30 1146 O 112.481 -0.878441 -1.81233 0
M  V30 1147 C 109.546 -1.80427 -2.96052 0
M  V30 1148 C 108.607 -3.04148 -3.02972 0
M  V30 1149 C 107.84 -3.12411 -4.32706 0
M  V30 1150 O 108.063 -2.27542 -5.23049 0
M  V30 1151 O 106.997 -4.05113 -4.45159 0
M  V30 1152 H 110.823 -2.67035 -1.44657 0
M  V30 1153 H 108.408 -1.34366 -0.653148 0
M  V30 1154 H 110.29 -1.88338 -3.7697 0
M  V30 1155 H 108.965 -0.883156 -3.11419 0
M  V30 1156 H 107.872 -3.0174 -2.21142 0
M  V30 1157 H 109.205 -3.95829 -2.92541 0
M  V30 1158 N 110.857 0.726932 -1.39834 0
M  V30 1159 C 111.804 1.841 -1.39197 0
M  V30 1160 C 112.774 1.642 -0.250502 0
M  V30 1161 O 113.959 1.85494 -0.446846 0
M  V30 1162 C 111.099 3.21697 -1.24919 0
M  V30 1163 C 110.212 3.53247 -2.48678 0
M  V30 1164 C 109.347 4.80289 -2.26928 0
M  V30 1165 C 108.386 5.04707 -3.4632 0
M  V30 1166 N 107.523 6.22956 -3.23836 0
M  V30 1167 H 112.363 1.83979 -2.34427 0
M  V30 1168 H 109.9 0.898876 -1.16442 0
M  V30 1169 H 111.858 4.01137 -1.1465 0
M  V30 1170 H 110.488 3.21076 -0.333153 0
M  V30 1171 H 109.54 2.68447 -2.69519 0
M  V30 1172 H 110.852 3.67205 -3.37582 0
M  V30 1173 H 110.006 5.67725 -2.13947 0
M  V30 1174 H 108.745 4.68519 -1.35431 0
M  V30 1175 H 107.75 4.1573 -3.5979 0
M  V30 1176 H 108.975 5.18357 -4.38729 0
M  V30 1177 H 106.921 6.12459 -2.35011 0
M  V30 1178 H 106.838 6.37539 -4.063 0
M  V30 1179 H 108.106 7.1321 -3.14566 0
M  V30 1180 N 112.336 1.25143 0.95797 0
M  V30 1181 C 113.284 1.05019 2.07542 0
M  V30 1182 C 114.278 -0.0178751 1.69391 0
M  V30 1183 O 115.484 0.137472 1.79474 0
M  V30 1184 H 111.859 0.32265 0.679265 0
M  V30 1185 H 113.83 1.99759 2.21673 0
M  V30 1186 C 112.579 0.682074 3.40944 0
M  V30 1187 H 111.902 1.49573 3.70767 0
M  V30 1188 H 113.342 0.580945 4.20001 0
M  V30 1189 C 111.801 -0.611608 3.31302 0
M  V30 1190 O 112.331 -1.65465 3.66038 0
M  V30 1191 N 110.537 -0.595982 2.84423 0
M  V30 1192 H 110.084 0.253192 2.56353 0
M  V30 1193 H 110.042 -1.46173 2.78354 0
M  V30 1194 N 113.814 -1.1601 1.06675 0
M  V30 1195 C 114.761 -2.20525 0.680967 0
M  V30 1196 C 115.731 -1.62904 -0.324283 0
M  V30 1197 O 116.916 -1.89615 -0.212294 0
M  V30 1198 C 114.056 -3.45013 0.0776551 0
M  V30 1199 C 113.169 -4.16863 1.13355 0
M  V30 1200 C 112.304 -5.2888 0.49597 0
M  V30 1201 C 111.343 -5.92537 1.53513 0
M  V30 1202 N 110.48 -6.96038 0.920631 0
M  V30 1203 H 115.32 -2.52876 1.57663 0
M  V30 1204 H 112.857 -1.24199 0.788223 0
M  V30 1205 H 114.815 -4.16193 -0.289704 0
M  V30 1206 H 113.445 -3.132 -0.781393 0
M  V30 1207 H 112.497 -3.44248 1.61857 0
M  V30 1208 H 113.809 -4.60294 1.92174 0
M  V30 1209 H 112.963 -6.06653 0.0758604 0
M  V30 1210 H 111.702 -4.86622 -0.324062 0
M  V30 1211 H 110.707 -5.13482 1.9651 0
M  V30 1212 H 111.932 -6.36873 2.35733 0
M  V30 1213 H 109.878 -6.55888 0.12138 0
M  V30 1214 H 109.795 -7.3786 1.64616 0
M  V30 1215 H 111.063 -7.77725 0.525795 0
M  V30 1216 N 115.292 -0.849877 -1.32721 0
M  V30 1217 C 116.239 -0.289033 -2.28983 0
M  V30 1218 C 117.209 0.601324 -1.54833 0
M  V30 1219 O 118.394 0.537253 -1.8308 0
M  V30 1220 C 115.534 0.520623 -3.4115 0
M  V30 1221 C 114.647 -0.394989 -4.3019 0
M  V30 1222 C 113.782 0.426834 -5.29482 0
M  V30 1223 C 112.821 -0.486476 -6.10164 0
M  V30 1224 N 111.958 0.297879 -7.01468 0
M  V30 1225 H 116.798 -1.11519 -2.76347 0
M  V30 1226 H 114.335 -0.56138 -1.35967 0
M  V30 1227 H 116.293 1.00563 -4.04899 0
M  V30 1228 H 114.923 1.31165 -2.9495 0
M  V30 1229 H 113.975 -0.99836 -3.67065 0
M  V30 1230 H 115.287 -1.09612 -4.86607 0
M  V30 1231 H 114.441 0.975205 -5.98811 0
M  V30 1232 H 113.18 1.16136 -4.73671 0
M  V30 1233 H 112.185 -1.04677 -5.39743 0
M  V30 1234 H 113.41 -1.21953 -6.6806 0
M  V30 1235 H 111.356 1.01558 -6.48091 0
M  V30 1236 H 111.273 -0.344318 -7.55216 0
M  V30 1237 H 112.541 0.828131 -7.75089 0
M  V30 1238 N 116.77 1.45427 -0.607355 0
M  V30 1239 C 117.995 2.07124 -0.107006 0
M  V30 1240 C 118.42 1.44906 1.19933 0
M  V30 1241 O 117.778 0.541687 1.73019 0
M  V30 1242 C 117.826 3.60595 0.0194119 0
M  V30 1243 O 116.93 3.98285 1.0697 0
M  V30 1244 H 116.271 0.659868 -0.0739597 0
M  V30 1245 H 118.801 1.86683 -0.837297 0
M  V30 1246 H 118.811 4.07419 0.2177 0
M  V30 1247 H 117.486 4.05266 -0.934453 0
M  V30 1248 H 116.063 3.63133 0.847889 0
M  V30 1249 N 118.248 0.346503 1.53744 0
M  V30 1250 C 119.478 -0.250047 2.05081 0
M  V30 1251 C 119.886 -1.44529 1.22098 0
M  V30 1252 O 119.229 -1.81992 0.249917 0
M  V30 1253 C 119.291 -0.725934 3.52094 0
M  V30 1254 C 118.955 0.350053 4.55657 0
M  V30 1255 C 119.952 1.19372 5.0601 0
M  V30 1256 C 117.637 0.504827 4.99757 0
M  V30 1257 C 119.631 2.17768 5.99046 0
M  V30 1258 C 117.318 1.49218 5.92602 0
M  V30 1259 C 118.316 2.32706 6.42135 0
M  V30 1260 O 118.004 3.2976 7.33153 0
M  V30 1261 H 117.736 -0.0515469 0.674032 0
M  V30 1262 H 120.29 0.497559 1.99282 0
M  V30 1263 H 118.52 -1.52483 3.55367 0
M  V30 1264 H 120.209 -1.24336 3.86388 0
M  V30 1265 H 120.975 1.08525 4.72702 0
M  V30 1266 H 116.854 -0.135178 4.60802 0
M  V30 1267 H 120.398 2.82971 6.37631 0
M  V30 1268 H 116.295 1.6012 6.25325 0
M  V30 1269 H 117.063 3.25265 7.51096 0
M  V30 1270 N 119.726 -1.57421 0.075193 0
M  V30 1271 C 121.137 -1.81021 -0.456964 0
M  V30 1272 C 121.488 -0.98936 -1.69429 0
M  V30 1273 O 120.613 -0.212865 -2.15351 0
M  V30 1274 C 121.208 -3.28329 -0.83581 0
M  V30 1275 C 119.767 -3.52764 -1.31281 0
M  V30 1276 C 118.914 -2.75676 -0.299648 0
M  V30 1277 H 121.865 -1.55822 0.300856 0
M  V30 1278 H 121.886 -3.40564 -1.69696 0
M  V30 1279 H 121.398 -3.88046 0.0649238 0
M  V30 1280 H 119.499 -2.98355 -2.23193 0
M  V30 1281 H 119.612 -4.61451 -1.28839 0
M  V30 1282 H 117.976 -2.42538 -0.777641 0
M  V30 1283 H 118.759 -3.38132 0.593417 0
M  V30 1284 N 121.204 0.198386 -1.56346 0
M  V30 1285 C 122.136 1.26987 -1.90806 0
M  V30 1286 C 123.149 1.41877 -0.798419 0
M  V30 1287 O 124.338 1.42362 -1.07682 0
M  V30 1288 C 121.438 2.64246 -2.12196 0
M  V30 1289 C 120.611 2.71007 -3.43328 0
M  V30 1290 C 119.67 3.89439 -3.5387 0
M  V30 1291 O 118.696 3.76695 -4.26719 0
M  V30 1292 N 119.898 5.04752 -2.86715 0
M  V30 1293 H 122.663 0.977433 -2.83313 0
M  V30 1294 H 120.224 0.388322 -1.57174 0
M  V30 1295 H 122.216 3.41896 -2.1654 0
M  V30 1296 H 120.786 2.85992 -1.26204 0
M  V30 1297 H 120.006 1.79657 -3.50881 0
M  V30 1298 H 121.294 2.72512 -4.29668 0
M  V30 1299 H 120.692 5.18004 -2.2735 0
M  V30 1300 H 119.249 5.8036 -2.96691 0
M  V30 1301 N 122.682 1.50554 0.465978 0
M  V30 1302 C 123.928 1.62038 1.21949 0
M  V30 1303 C 124.261 0.322116 1.9151 0
M  V30 1304 O 123.536 -0.676723 1.82348 0
M  V30 1305 C 123.819 2.80421 2.25912 0
M  V30 1306 C 123.672 4.20144 1.60622 0
M  V30 1307 C 124.991 2.94354 3.27176 0
M  V30 1308 H 122.11 0.589752 0.441998 0
M  V30 1309 H 124.752 1.82956 0.51257 0
M  V30 1310 H 122.902 2.62717 2.86203 0
M  V30 1311 H 124.574 4.49449 1.03889 0
M  V30 1312 H 122.817 4.24165 0.909211 0
M  V30 1313 H 123.488 4.98914 2.36196 0
M  V30 1314 H 125.964 3.10578 2.76913 0
M  V30 1315 H 124.84 3.788 3.97242 0
M  V30 1316 H 125.101 2.05186 3.916 0
M  V30 1317 N 124.16 -0.719506 1.40217 0
M  V30 1318 C 125.107 -1.83359 1.40172 0
M  V30 1319 C 126.077 -1.64065 0.259206 0
M  V30 1320 O 127.262 -1.85254 0.456677 0
M  V30 1321 C 124.402 -3.2103 1.26624 0
M  V30 1322 C 123.515 -3.51923 2.50548 0
M  V30 1323 C 122.65 -4.79079 2.29471 0
M  V30 1324 C 121.689 -5.02863 3.48992 0
M  V30 1325 N 120.826 -6.2123 3.27135 0
M  V30 1326 H 125.666 -1.82733 2.35399 0
M  V30 1327 H 123.203 -0.892688 1.16917 0
M  V30 1328 H 125.161 -4.00524 1.16776 0
M  V30 1329 H 123.791 -3.20895 0.350176 0
M  V30 1330 H 122.843 -2.67014 2.70939 0
M  V30 1331 H 124.155 -3.6541 3.39525 0
M  V30 1332 H 123.309 -5.66582 2.16955 0
M  V30 1333 H 122.048 -4.67794 1.37913 0
M  V30 1334 H 121.053 -4.13816 3.6199 0
M  V30 1335 H 122.278 -5.16023 4.41472 0
M  V30 1336 H 120.224 -6.11204 2.38256 0
M  V30 1337 H 120.141 -6.35375 4.09675 0
M  V30 1338 H 121.409 -7.11532 3.18344 0
M  V30 1339 N 125.638 -1.25649 -0.95132 0
M  V30 1340 C 126.887 -1.09988 -1.69073 0
M  V30 1341 C 127.2 0.358355 -1.92289 0
M  V30 1342 O 128.406 0.635466 -2.63958 0
M  V30 1343 C 126.862 -1.92012 -3.044 0
M  V30 1344 C 126.47 -3.42347 -2.88968 0
M  V30 1345 C 128.214 -1.8493 -3.82101 0
M  V30 1346 C 126.121 -4.16655 -4.19705 0
M  V30 1347 H 125.051 -0.407993 -0.63408 0
M  V30 1348 H 127.702 -1.49873 -1.05879 0
M  V30 1349 H 126.084 -1.44952 -3.68517 0
M  V30 1350 H 127.258 -3.97104 -2.33762 0
M  V30 1351 H 125.573 -3.50557 -2.24719 0
M  V30 1352 H 128.17 -2.37739 -4.78941 0
M  V30 1353 H 128.513 -0.817883 -4.08187 0
M  V30 1354 H 129.046 -2.29758 -3.2474 0
M  V30 1355 H 125.785 -5.20224 -3.98807 0
M  V30 1356 H 125.305 -3.66681 -4.74663 0
M  V30 1357 H 126.984 -4.24551 -4.88227 0
M  V30 1358 N 127.117 1.15442 -1.07289 0
M  V30 1359 C 128.357 1.8788 -0.805012 0
M  V30 1360 C 128.721 1.80413 0.656907 0
M  V30 1361 O 129.922 2.47874 1.0398 0
M  V30 1362 C 128.193 3.3298 -1.29843 0
M  V30 1363 S 129.752 4.23158 -1.16114 0
M  V30 1364 H 126.57 0.64839 -0.291739 0
M  V30 1365 H 129.172 1.39285 -1.37186 0
M  V30 1366 H 127.876 3.35958 -2.35712 0
M  V30 1367 H 127.407 3.86629 -0.726767 0
M  V30 1368 H 129.422 4.96103 -0.0982778 0
M  V30 1369 N 128.595 0.856903 1.32268 0
M  V30 1370 C 129.543 0.291987 2.3076 0
M  V30 1371 C 130.537 -0.585857 1.58947 0
M  V30 1372 O 131.743 -0.47341 1.73663 0
M  V30 1373 H 128.118 0.075721 0.748178 0
M  V30 1374 H 130.089 1.13687 2.75895 0
M  V30 1375 C 128.838 -0.502869 3.44044 0
M  V30 1376 H 128.161 0.163328 3.99466 0
M  V30 1377 H 129.601 -0.863691 4.1511 0
M  V30 1378 C 128.06 -1.68898 2.91505 0
M  V30 1379 O 128.59 -2.78811 2.89184 0
M  V30 1380 N 126.796 -1.51679 2.47875 0
M  V30 1381 H 126.343 -0.622666 2.49961 0
M  V30 1382 H 126.301 -2.31184 2.13076 0
M  V30 1383 N 130.073 -1.45103 0.615059 0
M  V30 1384 C 131.303 -2.06254 0.119596 0
M  V30 1385 C 131.711 -1.4591 -1.20445 0
M  V30 1386 O 131.054 -0.570384 -1.7462 0
M  V30 1387 C 131.116 -3.59396 -0.0865591 0
M  V30 1388 C 130.78 -4.42116 1.15683 0
M  V30 1389 C 131.777 -4.7662 2.07676 0
M  V30 1390 C 129.462 -4.82749 1.38775 0
M  V30 1391 C 131.456 -5.50622 3.21082 0
M  V30 1392 C 129.143 -5.56504 2.52481 0
M  V30 1393 C 130.141 -5.90358 3.43463 0
M  V30 1394 O 129.829 -6.62615 4.55189 0
M  V30 1395 H 129.561 -0.672423 0.0694512 0
M  V30 1396 H 132.115 -1.87219 0.844885 0
M  V30 1397 H 130.345 -3.76859 -0.866823 0
M  V30 1398 H 132.034 -4.02365 -0.534555 0
M  V30 1399 H 132.8 -4.4578 1.91063 0
M  V30 1400 H 128.679 -4.55829 0.688545 0
M  V30 1401 H 132.223 -5.76965 3.92119 0
M  V30 1402 H 128.12 -5.86759 2.69043 0
M  V30 1403 H 128.888 -6.81071 4.53966 0
M  V30 1404 N 131.551 -0.354651 -1.53558 0
M  V30 1405 C 132.797 0.238797 -2.01389 0
M  V30 1406 C 133.13 1.49309 -1.2418 0
M  V30 1407 O 132.405 1.91638 -0.332457 0
M  V30 1408 C 132.688 0.541771 -3.56001 0
M  V30 1409 C 132.541 -0.725388 -4.43912 0
M  V30 1410 C 133.86 1.34685 -4.18984 0
M  V30 1411 H 130.979 0.0853177 -0.732045 0
M  V30 1412 H 133.621 -0.477384 -1.83905 0
M  V30 1413 H 131.771 1.15189 -3.71031 0
M  V30 1414 H 133.443 -1.36313 -4.407 0
M  V30 1415 H 131.686 -1.34801 -4.12324 0
M  V30 1416 H 132.357 -0.468505 -5.50008 0
M  V30 1417 H 134.833 0.830837 -4.07721 0
M  V30 1418 H 133.709 1.52759 -5.27215 0
M  V30 1419 H 133.97 2.35221 -3.74331 0
M  V30 1420 N 133.029 1.57378 -0.0835403 0
M  V30 1421 C 134.277 1.93547 0.581718 0
M  V30 1422 C 134.598 0.96524 1.69435 0
M  V30 1423 O 133.868 0.0153369 1.95894 0
M  V30 1424 H 132.448 0.714521 0.217874 0
M  V30 1425 H 135.11 1.94366 -0.144158 0
M  V30 1426 H 134.206 2.95665 0.999423 0
M  V30 1427 N 134.507 -0.190092 1.56449 0
M  V30 1428 C 135.918 -0.754312 1.70784 0
M  V30 1429 C 136.269 -1.83631 0.690951 0
M  V30 1430 O 135.394 -2.15868 -0.151604 0
M  V30 1431 C 135.989 -1.37503 3.09642 0
M  V30 1432 C 134.548 -1.88628 3.25725 0
M  V30 1433 C 133.695 -0.758098 2.66736 0
M  V30 1434 H 136.646 0.0350524 1.58661 0
M  V30 1435 H 136.667 -2.2445 3.0725 0
M  V30 1436 H 136.179 -0.587302 3.83631 0
M  V30 1437 H 134.28 -2.70103 2.56661 0
M  V30 1438 H 134.393 -2.04462 4.3328 0
M  V30 1439 H 132.757 -1.17369 2.26046 0
M  V30 1440 H 133.54 0.0174705 3.43296 0
M  V30 1441 N 135.985 -1.50799 -0.457987 0
M  V30 1442 C 136.948 -1.7005 -1.53674 0
M  V30 1443 C 137.948 -0.570881 -1.50325 0
M  V30 1444 O 139.138 -0.838126 -1.52712 0
M  V30 1445 C 136.27 -1.73788 -2.93276 0
M  V30 1446 H 137.463 -2.66306 -1.37917 0
M  V30 1447 H 135.016 -1.40477 -0.685271 0
M  V30 1448 H 135.751 -0.792717 -3.14462 0
M  V30 1449 H 135.536 -2.55864 -2.97113 0
M  V30 1450 H 137.026 -1.90591 -3.71571 0
M  V30 1451 N 137.463 0.71206 -1.40597 0
M  V30 1452 C 138.41 1.82613 -1.41142 0
M  V30 1453 C 139.38 1.63925 -0.267903 0
M  V30 1454 O 140.565 1.85009 -0.466495 0
M  V30 1455 C 137.705 3.20354 -1.28324 0
M  V30 1456 C 136.818 3.50589 -2.52411 0
M  V30 1457 C 135.953 4.77855 -2.32009 0
M  V30 1458 C 134.992 5.01005 -3.51654 0
M  V30 1459 N 134.129 6.19487 -3.30425 0
M  V30 1460 H 138.969 1.81482 -2.36365 0
M  V30 1461 H 136.506 0.886475 -1.17388 0
M  V30 1462 H 138.464 3.99899 -1.18899 0
M  V30 1463 H 137.094 3.20705 -0.367189 0
M  V30 1464 H 136.146 2.65573 -2.72351 0
M  V30 1465 H 137.458 3.63604 -3.41458 0
M  V30 1466 H 136.612 5.65424 -2.19956 0
M  V30 1467 H 135.351 4.67056 -1.40392 0
M  V30 1468 H 134.356 4.1189 -3.64179 0
M  V30 1469 H 135.581 5.13674 -4.44202 0
M  V30 1470 H 133.527 6.09932 -2.41494 0
M  V30 1471 H 133.444 6.33194 -4.13039 0
M  V30 1472 H 134.712 7.09834 -3.22113 0
M  V30 1473 N 138.941 1.26152 0.944643 0
M  V30 1474 C 140.187 1.11657 1.69294 0
M  V30 1475 C 140.52 -0.339926 1.91202 0
M  V30 1476 O 139.795 -1.24994 1.49019 0
M  V30 1477 C 140.078 1.88236 3.06984 0
M  V30 1478 C 139.931 3.41772 2.92424 0
M  V30 1479 C 141.25 1.67343 4.07043 0
M  V30 1480 H 138.369 0.407004 0.614424 0
M  V30 1481 H 141.011 1.55106 1.09737 0
M  V30 1482 H 139.161 1.51308 3.57824 0
M  V30 1483 H 140.833 3.88433 2.48832 0
M  V30 1484 H 139.076 3.68974 2.28124 0
M  V30 1485 H 139.747 3.90579 3.90067 0
M  V30 1486 H 142.223 1.99509 3.65151 0
M  V30 1487 H 141.099 2.23346 5.01406 0
M  V30 1488 H 141.36 0.617158 4.37771 0
M  V30 1489 N 140.419 -1.14872 1.07899 0
M  V30 1490 C 141.668 -1.85135 0.800499 0
M  V30 1491 C 141.981 -1.83547 -0.676014 0
M  V30 1492 O 143.187 -2.49548 -1.06948 0
M  V30 1493 C 141.643 -3.3231 1.38197 0
M  V30 1494 C 141.251 -3.42329 2.8899 0
M  V30 1495 C 142.995 -4.0772 1.18174 0
M  V30 1496 C 140.902 -4.83684 3.403 0
M  V30 1497 H 139.832 -0.693563 0.29578 0
M  V30 1498 H 142.483 -1.29532 1.29976 0
M  V30 1499 H 140.865 -3.87618 0.810431 0
M  V30 1500 H 142.039 -2.97097 3.52236 0
M  V30 1501 H 140.354 -2.80369 3.07867 0
M  V30 1502 H 142.951 -5.12049 1.5398 0
M  V30 1503 H 143.294 -4.16124 0.12117 0
M  V30 1504 H 143.827 -3.58696 1.71994 0
M  V30 1505 H 140.566 -4.80465 4.45907 0
M  V30 1506 H 140.086 -5.29474 2.81811 0
M  V30 1507 H 141.765 -5.52558 3.36584 0
M  V30 1508 N 141.898 -0.863906 -1.31812 0
M  V30 1509 C 143.144 -0.472535 -1.97218 0
M  V30 1510 C 143.477 0.971394 -1.68159 0
M  V30 1511 O 142.752 1.68309 -0.974798 0
M  V30 1512 C 143.035 -0.723054 -3.52766 0
M  V30 1513 C 142.888 -2.21608 -3.91421 0
M  V30 1514 C 144.207 -0.185522 -4.39709 0
M  V30 1515 H 141.326 -0.173158 -0.71637 0
M  V30 1516 H 143.968 -1.08403 -1.56041 0
M  V30 1517 H 142.118 -0.202577 -3.87971 0
M  V30 1518 H 143.79 -2.80334 -3.66347 0
M  V30 1519 H 142.033 -2.691 -3.40246 0
M  V30 1520 H 142.704 -2.34203 -4.99853 0
M  V30 1521 H 145.18 -0.630726 -4.11292 0
M  V30 1522 H 144.056 -0.390306 -5.47511 0
M  V30 1523 H 144.317 0.912229 -4.32586 0
M  V30 1524 N 143.376 1.44774 -0.622745 0
M  V30 1525 C 144.308 2.28856 0.125485 0
M  V30 1526 C 145.321 1.40811 0.817069 0
M  V30 1527 O 146.51 1.65044 0.679918 0
M  V30 1528 C 143.61 3.16963 1.19949 0
M  V30 1529 C 142.783 4.33374 0.592064 0
M  V30 1530 C 141.842 5.02577 1.55893 0
M  V30 1531 O 140.868 5.58873 1.07933 0
M  V30 1532 N 142.07 5.03256 2.89334 0
M  V30 1533 H 144.835 2.93713 -0.596068 0
M  V30 1534 H 142.396 1.55129 -0.463303 0
M  V30 1535 H 144.388 3.60123 1.84644 0
M  V30 1536 H 142.958 2.53913 1.82337 0
M  V30 1537 H 142.178 3.93509 -0.233322 0
M  V30 1538 H 143.466 5.08527 0.166738 0
M  V30 1539 H 142.864 4.58836 3.30887 0
M  V30 1540 H 141.421 5.50232 3.49412 0
M  V30 1541 N 144.854 0.36279 1.53368 0
M  V30 1542 C 145.784 -0.476976 2.28576 0
M  V30 1543 C 146.765 -1.08631 1.30894 0
M  V30 1544 O 147.95 -1.10409 1.59761 0
M  V30 1545 C 145.08 -1.61828 3.07293 0
M  V30 1546 C 144.034 -1.13633 4.1264 0
M  V30 1547 C 143.36 -2.36766 4.79423 0
M  V30 1548 C 144.66 -0.223061 5.21823 0
M  V30 1549 H 146.354 0.150474 2.99022 0
M  V30 1550 H 143.9 0.0738103 1.43811 0
M  V30 1551 H 145.853 -2.21237 3.58653 0
M  V30 1552 H 144.577 -2.27292 2.34533 0
M  V30 1553 H 143.236 -0.564945 3.62221 0
M  V30 1554 H 142.884 -3.0068 4.03238 0
M  V30 1555 H 142.584 -2.05192 5.50609 0
M  V30 1556 H 144.108 -2.96865 5.33576 0
M  V30 1557 H 145.522 -0.724545 5.68703 0
M  V30 1558 H 143.919 0.001678 6.001 0
M  V30 1559 H 144.989 0.735553 4.79289 0
M  V30 1560 N 146.332 -1.57332 0.0918853 0
M  V30 1561 C 147.578 -1.94524 -0.573425 0
M  V30 1562 C 147.911 -0.973578 -1.68033 0
M  V30 1563 O 147.186 -0.00609226 -1.94499 0
M  V30 1564 C 147.469 -3.41858 -1.13161 0
M  V30 1565 C 147.322 -4.4979 -0.0299747 0
M  V30 1566 C 148.641 -3.90435 -2.03098 0
M  V30 1567 H 145.76 -0.70734 -0.206975 0
M  V30 1568 H 148.402 -1.89309 0.161942 0
M  V30 1569 H 146.552 -3.46433 -1.7583 0
M  V30 1570 H 148.224 -4.57327 0.604112 0
M  V30 1571 H 146.467 -4.291 0.636833 0
M  V30 1572 H 147.138 -5.50069 -0.461287 0
M  V30 1573 H 149.614 -3.87992 -1.50338 0
M  V30 1574 H 148.49 -4.94097 -2.39081 0
M  V30 1575 H 148.751 -3.29541 -2.94712 0
M  V30 1576 N 147.81 0.181792 -1.56548 0
M  V30 1577 C 149.038 0.915947 -1.85521 0
M  V30 1578 C 149.453 1.76282 -0.676016 0
M  V30 1579 O 148.81 1.79012 0.355077 0
M  V30 1580 C 148.861 1.80126 -3.13427 0
M  V30 1581 O 148.582 0.988562 -4.26801 0
M  V30 1582 C 150.083 2.64597 -3.55673 0
M  V30 1583 H 147.303 0.26661 -0.61576 0
M  V30 1584 H 149.847 0.185039 -2.03661 0
M  V30 1585 H 148.002 2.48563 -2.97145 0
M  V30 1586 H 148.416 1.59308 -4.99721 0
M  V30 1587 H 149.89 3.2235 -4.48101 0
M  V30 1588 H 150.367 3.38958 -2.79292 0
M  V30 1589 H 150.973 2.0151 -3.74532 0
M  V30 1590 N 149.288 1.51039 0.449983 0
M  V30 1591 C 150.236 1.71995 1.5659 0
M  V30 1592 C 151.23 0.586029 1.5894 0
M  V30 1593 O 152.436 0.76709 1.62837 0
M  V30 1594 H 148.811 0.543233 0.520001 0
M  V30 1595 H 150.782 2.65562 1.36085 0
M  V30 1596 C 149.531 1.8506 2.9436 0
M  V30 1597 H 148.854 2.71712 2.93279 0
M  V30 1598 H 150.294 2.0374 3.71842 0
M  V30 1599 C 148.753 0.607277 3.31382 0
M  V30 1600 O 149.283 -0.243903 4.00959 0
M  V30 1601 N 147.489 0.455073 2.87015 0
M  V30 1602 H 147.036 1.14879 2.30566 0
M  V30 1603 H 146.994 -0.375611 3.12148 0
M  V30 1604 N 150.766 -0.704594 1.40972 0
M  V30 1605 C 152.014 -1.46169 1.39568 0
M  V30 1606 C 152.335 -1.95 0.00253745 0
M  V30 1607 O 151.605 -1.71095 -0.954114 0
M  V30 1608 H 150.185 -0.542326 0.513704 0
M  V30 1609 H 152.847 -0.834553 1.76128 0
M  V30 1610 H 151.943 -2.32922 2.07735 0
M  V30 1611 N 152.244 -1.26651 -0.937939 0
M  V30 1612 C 153.191 -1.0849 -2.03712 0
M  V30 1613 C 154.161 0.011033 -1.66096 0
M  V30 1614 O 155.346 -0.149353 -1.90215 0
M  V30 1615 C 152.486 -0.72735 -3.37348 0
M  V30 1616 C 151.599 -1.89986 -3.87981 0
M  V30 1617 C 150.734 -1.48513 -5.10017 0
M  V30 1618 C 149.773 -2.62575 -5.5292 0
M  V30 1619 N 148.91 -2.21762 -6.66158 0
M  V30 1620 H 153.75 -2.02551 -2.18579 0
M  V30 1621 H 151.287 -1.00844 -1.07093 0
M  V30 1622 H 153.245 -0.50092 -4.14182 0
M  V30 1623 H 151.875 0.176298 -3.22318 0
M  V30 1624 H 150.927 -2.23913 -3.07518 0
M  V30 1625 H 152.239 -2.75586 -4.15757 0
M  V30 1626 H 151.393 -1.21934 -5.94321 0
M  V30 1627 H 150.132 -0.60009 -4.83994 0
M  V30 1628 H 149.137 -2.8988 -4.67172 0
M  V30 1629 H 150.362 -3.51685 -5.80943 0
M  V30 1630 H 148.308 -1.35696 -6.41812 0
M  V30 1631 H 148.225 -3.00903 -6.93537 0
M  V30 1632 H 149.493 -1.98403 -7.53828 0
M  V30 1633 N 153.722 1.14298 -1.08507 0
M  V30 1634 C 154.67 2.21483 -0.710483 0
M  V30 1635 C 155.664 1.66998 0.284234 0
M  V30 1636 O 156.87 1.79401 0.146692 0
M  V30 1637 H 153.245 0.721578 -0.211729 0
M  V30 1638 H 155.216 2.50348 -1.62384 0
M  V30 1639 C 153.965 3.4743 -0.137007 0
M  V30 1640 H 153.288 3.89686 -0.893592 0
M  V30 1641 H 154.728 4.2391 0.0872789 0
M  V30 1642 C 153.187 3.17548 1.12538 0
M  V30 1643 O 153.717 3.35437 2.21009 0
M  V30 1644 N 151.923 2.71499 1.03617 0
M  V30 1645 H 151.47 2.57143 0.153403 0
M  V30 1646 H 151.428 2.51881 1.88158 0
M  V30 1647 N 155.201 0.870884 1.31352 0
M  V30 1648 C 156.45 0.478408 1.95944 0
M  V30 1649 C 156.763 -0.974493 1.69597 0
M  V30 1650 O 157.969 -1.47316 2.28058 0
M  V30 1651 C 156.425 0.804609 3.50791 0
M  V30 1652 C 156.033 2.27433 3.85977 0
M  V30 1653 C 157.777 0.480648 4.2177 0
M  V30 1654 C 155.684 2.5429 5.33939 0
M  V30 1655 H 154.614 0.175175 0.733369 0
M  V30 1656 H 157.265 1.06391 1.4951 0
M  V30 1657 H 155.647 0.148347 3.95722 0
M  V30 1658 H 156.821 2.97373 3.52002 0
M  V30 1659 H 155.136 2.56442 3.28065 0
M  V30 1660 H 157.733 0.658519 5.30629 0
M  V30 1661 H 158.076 -0.578979 4.12254 0
M  V30 1662 H 158.609 1.09349 3.82476 0
M  V30 1663 H 155.348 3.58939 5.48491 0
M  V30 1664 H 154.868 1.88945 5.69263 0
M  V30 1665 H 156.547 2.39066 6.01212 0
M  V30 1666 N 156.679 -1.44442 0.630414 0
M  V30 1667 C 157.629 -2.27794 -0.0968103 0
M  V30 1668 C 158.613 -1.38624 -0.816834 0
M  V30 1669 O 159.805 -1.62438 -0.70306 0
M  V30 1670 C 156.934 -3.25929 -1.07819 0
M  V30 1671 C 156.02 -4.22588 -0.357826 0
M  V30 1672 N 156.411 -5.0207 0.613169 0
M  V30 1673 C 154.709 -4.41914 -0.602365 0
M  V30 1674 C 155.41 -5.72351 1.03871 0
M  V30 1675 N 154.386 -5.42287 0.377642 0
M  V30 1676 H 158.188 -2.86653 0.648621 0
M  V30 1677 H 155.702 -1.55871 0.455862 0
M  V30 1678 H 157.699 -3.84399 -1.61378 0
M  V30 1679 H 156.359 -2.68631 -1.82393 0
M  V30 1680 H 157.37 -5.08331 0.990947 0
M  V30 1681 H 154.047 -3.95714 -1.33103 0
M  V30 1682 H 155.437 -6.4619 1.84086 0
M  V30 1683 N 158.157 -0.370918 -1.53173 0
M  V30 1684 C 159.087 0.464847 -2.28826 0
M  V30 1685 C 160.068 1.07936 -1.31468 0
M  V30 1686 O 161.253 1.0956 -1.60344 0
M  V30 1687 C 158.383 1.60196 -3.08147 0
M  V30 1688 C 157.337 1.11443 -4.13237 0
M  V30 1689 C 156.663 2.3422 -4.80672 0
M  V30 1690 C 157.963 0.195384 -5.21934 0
M  V30 1691 H 159.657 -0.166329 -2.98938 0
M  V30 1692 H 157.203 -0.0814359 -1.4377 0
M  V30 1693 H 159.156 2.19332 -3.59822 0
M  V30 1694 H 157.88 2.26045 -2.35735 0
M  V30 1695 H 156.539 0.545727 -3.62515 0
M  V30 1696 H 156.187 2.98537 -4.04827 0
M  V30 1697 H 155.887 2.02269 -5.51689 0
M  V30 1698 H 157.411 2.94032 -5.35143 0
M  V30 1699 H 158.825 0.694375 -5.69079 0
M  V30 1700 H 157.222 -0.0335027 -6.00091 0
M  V30 1701 H 158.292 -0.760961 -4.78892 0
M  V30 1702 N 159.635 1.57281 -0.100228 0
M  V30 1703 C 160.585 2.10848 0.86759 0
M  V30 1704 C 161.569 1.02473 1.24049 0
M  V30 1705 O 162.761 1.28739 1.21471 0
M  V30 1706 C 159.89 2.69648 2.12474 0
M  V30 1707 C 158.976 3.85074 1.77704 0
M  V30 1708 N 159.367 4.92897 1.13518 0
M  V30 1709 C 157.665 3.94905 2.07282 0
M  V30 1710 C 158.366 5.73475 0.974735 0
M  V30 1711 N 157.342 5.22675 1.4937 0
M  V30 1712 H 161.144 2.91594 0.367471 0
M  V30 1713 H 158.658 1.62074 0.102829 0
M  V30 1714 H 160.655 3.06356 2.82757 0
M  V30 1715 H 159.315 1.90359 2.63047 0
M  V30 1716 H 160.326 5.11662 0.801381 0
M  V30 1717 H 157.003 3.26633 2.60033 0
M  V30 1718 H 158.393 6.70238 0.472364 0
M  V30 1719 N 161.113 -0.173488 1.56642 0
M  V30 1720 C 162.076 -1.19859 1.95362 0
M  V30 1721 C 163.076 -1.37296 0.83704 0
M  V30 1722 O 164.266 -1.34739 1.10413 0
M  V30 1723 C 161.398 -2.56405 2.24654 0
M  V30 1724 H 162.591 -0.867062 2.87092 0
M  V30 1725 H 160.144 -0.415853 1.50666 0
M  V30 1726 H 160.879 -2.94576 1.35631 0
M  V30 1727 H 160.664 -2.45115 3.06041 0
M  V30 1728 H 162.154 -3.30287 2.5554 0
M  V30 1729 N 162.591 -1.51276 -0.441967 0
M  V30 1730 C 163.541 -1.6864 -1.53442 0
M  V30 1731 C 164.525 -0.540444 -1.51552 0
M  V30 1732 O 165.717 -0.796157 -1.58083 0
M  V30 1733 C 162.846 -1.8106 -2.91672 0
M  V30 1734 C 161.932 -3.01424 -2.98336 0
M  V30 1735 N 162.323 -4.2467 -2.74752 0
M  V30 1736 C 160.621 -3.00584 -3.29493 0
M  V30 1737 C 161.322 -5.05891 -2.87139 0
M  V30 1738 N 160.298 -4.40442 -3.18609 0
M  V30 1739 H 164.1 -2.61598 -1.33954 0
M  V30 1740 H 161.614 -1.4886 -0.6492 0
M  V30 1741 H 163.611 -1.91609 -3.70259 0
M  V30 1742 H 162.271 -0.892795 -3.12185 0
M  V30 1743 H 163.282 -4.53691 -2.49769 0
M  V30 1744 H 159.959 -2.18417 -3.55809 0
M  V30 1745 H 161.349 -6.13983 -2.72899 0
M  V30 1746 N 164.069 0.697108 -1.41344 0
M  V30 1747 C 165.294 1.49096 -1.44171 0
M  V30 1748 C 165.719 1.88038 -0.0481568 0
M  V30 1749 O 165.077 1.54525 0.948243 0
M  V30 1750 C 165.125 2.73088 -2.3549 0
M  V30 1751 O 164.229 3.70514 -1.81088 0
M  V30 1752 H 163.57 0.448801 -0.489361 0
M  V30 1753 H 166.1 0.856992 -1.85787 0
M  V30 1754 H 166.11 3.21413 -2.51312 0
M  V30 1755 H 164.785 2.44081 -3.36745 0
M  V30 1756 H 163.362 3.29441 -1.74708 0
M  V30 1757 N 165.547 1.27147 0.931209 0
M  V30 1758 C 166.477 1.12081 2.04842 0
M  V30 1759 C 167.458 0.0232364 1.70084 0
M  V30 1760 O 168.643 0.197085 1.93197 0
M  V30 1761 C 165.773 0.76354 3.38803 0
M  V30 1762 C 164.727 1.81396 3.87659 0
M  V30 1763 C 164.053 1.31075 5.18385 0
M  V30 1764 C 165.353 3.21739 4.11438 0
M  V30 1765 H 167.047 2.05537 2.17703 0
M  V30 1766 H 164.593 0.989603 1.04608 0
M  V30 1767 H 166.546 0.644982 4.16435 0
M  V30 1768 H 165.27 -0.206727 3.25945 0
M  V30 1769 H 163.929 1.92136 3.12217 0
M  V30 1770 H 163.577 0.330037 5.01916 0
M  V30 1771 H 163.277 2.013 5.52044 0
M  V30 1772 H 164.801 1.20506 5.98591 0
M  V30 1773 H 166.215 3.14019 4.79651 0
M  V30 1774 H 164.612 3.89644 4.56397 0
M  V30 1775 H 165.682 3.67054 3.16859 0
M  V30 1776 N 167.025 -1.13721 1.09112 0
M  V30 1777 C 168.271 -1.85198 0.826414 0
M  V30 1778 C 168.604 -1.83129 -0.646319 0
M  V30 1779 O 167.879 -1.2671 -1.47563 0
M  V30 1780 C 168.162 -3.33507 1.35812 0
M  V30 1781 C 168.015 -3.44108 2.89672 0
M  V30 1782 C 169.334 -4.28838 0.989256 0
M  V30 1783 H 166.453 -0.67243 0.301675 0
M  V30 1784 H 169.095 -1.33499 1.35197 0
M  V30 1785 H 167.245 -3.77666 0.911082 0
M  V30 1786 H 168.917 -3.08684 3.428 0
M  V30 1787 H 167.16 -2.85087 3.26967 0
M  V30 1788 H 167.831 -4.48388 3.21951 0
M  V30 1789 H 170.307 -3.92734 1.37475 0
M  V30 1790 H 169.183 -5.31051 1.38838 0
M  V30 1791 H 169.444 -4.4198 -0.102924 0
M  V30 1792 N 168.503 -0.877838 -1.30888 0
M  V30 1793 C 169.751 -0.491723 -1.96027 0
M  V30 1794 C 170.072 0.960827 -1.69685 0
M  V30 1795 O 169.342 1.67462 -1.01654 0
M  V30 1796 H 167.922 -0.17885 -0.725273 0
M  V30 1797 H 170.584 -1.11935 -1.59551 0
M  V30 1798 H 169.68 -0.656016 -3.05128 0
M  V30 1799 N 169.982 1.44106 -0.638065 0
M  V30 1800 C 170.929 2.30715 0.062701 0
M  V30 1801 C 171.899 1.43882 0.829883 0
M  V30 1802 O 173.084 1.72775 0.809532 0
M  V30 1803 C 170.224 3.29258 1.03358 0
M  V30 1804 C 169.337 4.31192 0.26409 0
M  V30 1805 C 168.472 5.16825 1.22741 0
M  V30 1806 C 167.511 6.10462 0.447475 0
M  V30 1807 N 166.648 6.8877 1.36161 0
M  V30 1808 H 171.488 2.90096 -0.681781 0
M  V30 1809 H 169.025 1.42925 -0.347988 0
M  V30 1810 H 170.983 3.84886 1.60992 0
M  V30 1811 H 169.613 2.71562 1.74511 0
M  V30 1812 H 168.665 3.77981 -0.428295 0
M  V30 1813 H 169.977 4.97619 -0.343052 0
M  V30 1814 H 169.131 5.77004 1.87487 0
M  V30 1815 H 167.87 4.50488 1.86847 0
M  V30 1816 H 166.875 5.49386 -0.213433 0
M  V30 1817 H 168.1 6.78837 -0.188968 0
M  V30 1818 H 166.046 6.25096 1.98975 0
M  V30 1819 H 165.963 7.51663 0.808656 0
M  V30 1820 H 167.231 7.53467 1.99769 0
M  V30 1821 N 171.46 0.379036 1.52974 0
M  V30 1822 C 172.41 -0.477772 2.22938 0
M  V30 1823 C 173.394 -1.03792 1.22948 0
M  V30 1824 O 174.586 -0.965725 1.48333 0
M  V30 1825 C 171.715 -1.60994 3.03209 0
M  V30 1826 C 170.801 -1.06203 4.10587 0
M  V30 1827 N 171.192 -0.238214 5.05239 0
M  V30 1828 C 169.49 -1.33554 4.25534 0
M  V30 1829 C 170.191 0.0633235 5.81666 0
M  V30 1830 N 169.167 -0.537901 5.40932 0
M  V30 1831 H 172.969 0.158295 2.93473 0
M  V30 1832 H 170.483 0.187778 1.61311 0
M  V30 1833 H 172.48 -2.23607 3.5186 0
M  V30 1834 H 171.14 -2.24893 2.34207 0
M  V30 1835 H 172.151 0.123695 5.17752 0
M  V30 1836 H 168.828 -1.97632 3.6776 0
M  V30 1837 H 170.218 0.730161 6.67921 0
M  V30 1838 N 172.938 -1.57226 0.108567 0
M  V30 1839 C 174.178 -1.96717 -0.555155 0
M  V30 1840 C 174.542 -0.990003 -1.64508 0
M  V30 1841 O 175.743 -1.2739 -2.36696 0
M  V30 1842 C 174.014 -3.40575 -1.08367 0
M  V30 1843 S 175.573 -4.02072 -1.75737 0
M  V30 1844 H 172.391 -0.687638 -0.180762 0
M  V30 1845 H 174.993 -1.94563 0.191172 0
M  V30 1846 H 173.697 -4.0945 -0.279092 0
M  V30 1847 H 173.228 -3.46356 -1.86551 0
M  V30 1848 H 175.243 -3.91977 -3.04251 0
M  V30 1849 N 174.416 0.165178 -1.56732 0
M  V30 1850 C 175.326 1.22423 -2.00125 0
M  V30 1851 C 176.342 1.48084 -0.913619 0
M  V30 1852 O 177.518 1.60112 -1.22172 0
M  V30 1853 C 174.583 2.54197 -2.35764 0
M  V30 1854 C 173.644 2.36343 -3.58386 0
M  V30 1855 C 172.877 3.61834 -3.92316 0
M  V30 1856 O 173.1 4.67267 -3.27135 0
M  V30 1857 O 172.034 3.55579 -4.85641 0
M  V30 1858 H 175.86 0.885886 -2.90492 0
M  V30 1859 H 173.445 0.372518 -1.44681 0
M  V30 1860 H 175.327 3.3192 -2.59629 0
M  V30 1861 H 174.002 2.87598 -1.48557 0
M  V30 1862 H 172.909 1.56632 -3.39731 0
M  V30 1863 H 174.242 2.07865 -4.46154 0
M  V30 1864 N 175.894 1.51508 0.433938 0
M  V30 1865 C 177.171 1.54888 1.19453 0
M  V30 1866 C 177.551 0.315154 2.08734 0
M  V30 1867 O 176.899 -0.699558 2.17528 0
M  V30 1868 C 177.109 2.86467 1.99342 0
M  V30 1869 C 178.457 3.38545 2.56267 0
M  V30 1870 O 179.481 2.88041 2.0955 0
M  V30 1871 O 178.34 4.26675 3.41483 0
M  V30 1872 H 175.434 0.622863 0.544032 0
M  V30 1873 H 177.98 1.63823 0.442732 0
M  V30 1874 H 176.752 3.67718 1.33788 0
M  V30 1875 H 176.375 2.8071 2.8158 0
M  V30 1876 N 177.372 -0.689602 1.41712 0
M  V30 1877 C 178.62 -1.4468 1.4111 0
M  V30 1878 C 178.941 -1.94986 0.0232196 0
M  V30 1879 O 178.211 -1.72097 -0.935913 0
M  V30 1880 H 176.791 -0.536847 0.519427 0
M  V30 1881 H 179.453 -0.815825 1.77004 0
M  V30 1882 H 178.549 -2.30706 2.10193 0
M  V30 1883 N 178.85 -1.27639 -0.924453 0
M  V30 1884 C 180.099 -1.13549 -1.66702 0
M  V30 1885 C 180.412 0.317487 -1.93006 0
M  V30 1886 O 181.618 0.579333 -2.65247 0
M  V30 1887 C 180.074 -1.98426 -3.00259 0
M  V30 1888 C 179.682 -3.484 -2.81641 0
M  V30 1889 C 181.426 -1.92993 -3.78092 0
M  V30 1890 C 179.333 -4.25464 -4.10773 0
M  V30 1891 H 178.263 -0.421351 -0.625283 0
M  V30 1892 H 180.914 -1.52085 -1.02676 0
M  V30 1893 H 179.296 -1.52736 -3.6536 0
M  V30 1894 H 180.47 -4.01973 -2.25287 0
M  V30 1895 H 178.785 -3.55245 -2.17232 0
M  V30 1896 H 181.382 -2.47844 -4.7379 0
M  V30 1897 H 181.725 -0.904281 -4.0636 0
M  V30 1898 H 182.258 -2.36595 -3.19793 0
M  V30 1899 H 178.997 -5.28566 -3.87683 0
M  V30 1900 H 178.517 -3.76667 -4.66779 0
M  V30 1901 H 180.196 -4.34812 -4.79111 0
M  V30 1902 N 180.328 1.1314 -1.09713 0
M  V30 1903 C 181.568 1.8613 -0.844683 0
M  V30 1904 C 181.932 1.81765 0.618491 0
M  V30 1905 O 183.133 2.50024 0.98699 0
M  V30 1906 C 181.404 3.30151 -1.36877 0
M  V30 1907 S 182.963 4.206 -1.25064 0
M  V30 1908 H 179.781 0.642056 -0.305427 0
M  V30 1909 H 182.383 1.36343 -1.4011 0
M  V30 1910 H 181.087 3.30883 -2.42786 0
M  V30 1911 H 180.618 3.85 -0.808614 0
M  V30 1912 H 182.633 4.95783 -0.203486 0
M  V30 1913 N 181.806 0.884767 1.30421 0
M  V30 1914 C 183.034 0.518044 2.0031 0
M  V30 1915 C 183.449 -0.893408 1.66324 0
M  V30 1916 O 182.806 -1.5875 0.900262 0
M  V30 1917 C 182.857 0.682997 3.54989 0
M  V30 1918 O 182.578 2.03888 3.87764 0
M  V30 1919 C 184.079 0.31924 4.42149 0
M  V30 1920 H 181.299 0.200265 0.640418 0
M  V30 1921 H 183.843 1.19001 1.6631 0
M  V30 1922 H 181.998 0.0584052 3.87356 0
M  V30 1923 H 182.412 2.05735 4.82466 0
M  V30 1924 H 183.886 0.485555 5.4986 0
M  V30 1925 H 184.363 -0.742717 4.32875 0
M  V30 1926 H 184.969 0.920147 4.15227 0
M  V30 1927 N 183.284 -1.43765 0.645699 0
M  V30 1928 C 184.53 -2.02197 0.156271 0
M  V30 1929 C 184.863 -1.50776 -1.22393 0
M  V30 1930 O 184.138 -0.697771 -1.81553 0
M  V30 1931 C 184.421 -3.59749 0.158872 0
M  V30 1932 C 184.274 -4.21419 1.57245 0
M  V30 1933 C 185.593 -4.37149 -0.50879 0
M  V30 1934 H 182.712 -0.734694 0.0582602 0
M  V30 1935 H 185.354 -1.71157 0.824951 0
M  V30 1936 H 183.504 -3.86325 -0.410525 0
M  V30 1937 H 185.176 -4.059 2.19186 0
M  V30 1938 H 183.419 -3.78356 2.122 0
M  V30 1939 H 184.09 -5.30482 1.52619 0
M  V30 1940 H 186.566 -4.16093 -0.024412 0
M  V30 1941 H 185.442 -5.4683 -0.476213 0
M  V30 1942 H 185.703 -4.12839 -1.58165 0
M  V30 1943 N 184.763 -0.387143 -1.52771 0
M  V30 1944 C 185.991 0.195869 -2.05971 0
M  V30 1945 C 186.406 1.40691 -1.25903 0
M  V30 1946 O 185.763 1.79931 -0.305134 0
M  V30 1947 C 185.814 0.56812 -3.57008 0
M  V30 1948 O 185.535 -0.594803 -4.34043 0
M  V30 1949 C 187.036 1.20723 -4.26545 0
M  V30 1950 H 184.256 0.0300578 -0.670326 0
M  V30 1951 H 186.8 -0.551749 -1.96916 0
M  V30 1952 H 184.955 1.26564 -3.66143 0
M  V30 1953 H 185.369 -0.289322 -5.23701 0
M  V30 1954 H 186.843 1.41807 -5.33474 0
M  V30 1955 H 187.32 2.17395 -3.81623 0
M  V30 1956 H 187.926 0.550535 -4.21722 0
M  V30 1957 N 186.241 1.57166 -0.116904 0
M  V30 1958 C 187.204 2.14039 0.819742 0
M  V30 1959 C 188.204 1.07477 1.19605 0
M  V30 1960 O 189.394 1.33263 1.1219 0
M  V30 1961 C 186.526 2.67891 2.10826 0
M  V30 1962 H 187.719 2.98128 0.325511 0
M  V30 1963 H 185.272 1.55739 0.132312 0
M  V30 1964 H 186.007 1.87384 2.64685 0
M  V30 1965 H 185.792 3.45823 1.84793 0
M  V30 1966 H 187.282 3.11809 2.77785 0
M  V30 1967 N 187.719 -0.156864 1.56817 0
M  V30 1968 C 188.967 -0.869404 1.82444 0
M  V30 1969 C 189.288 -1.82147 0.69623 0
M  V30 1970 O 188.558 -1.93847 -0.28287 0
M  V30 1971 H 187.138 -0.324043 0.673056 0
M  V30 1972 H 189.8 -0.153224 1.94297 0
M  V30 1973 H 188.896 -1.43761 2.77019 0
M  V30 1974 N 189.197 -1.51736 -0.425897 0
M  V30 1975 C 190.608 -1.5732 -1.00536 0
M  V30 1976 C 190.959 -0.403537 -1.92005 0
M  V30 1977 O 190.084 0.478256 -2.11049 0
M  V30 1978 C 190.679 -2.85119 -1.8301 0
M  V30 1979 C 189.238 -2.93236 -2.35987 0
M  V30 1980 C 188.385 -2.52098 -1.15508 0
M  V30 1981 H 191.336 -1.57348 -0.206739 0
M  V30 1982 H 191.357 -2.69526 -2.68581 0
M  V30 1983 H 190.869 -3.7023 -1.16411 0
M  V30 1984 H 188.97 -2.12581 -3.06007 0
M  V30 1985 H 189.083 -3.9713 -2.68001 0
M  V30 1986 H 187.447 -2.05558 -1.50393 0
M  V30 1987 H 188.23 -3.39565 -0.505014 0
M  V30 1988 N 190.675 0.682077 -1.42076 0
M  V30 1989 C 191.622 1.79578 -1.44984 0
M  V30 1990 C 192.592 1.6332 -0.302614 0
M  V30 1991 O 193.777 1.83978 -0.505633 0
M  V30 1992 C 190.917 3.1756 -1.35091 0
M  V30 1993 C 190.03 3.45156 -2.59791 0
M  V30 1994 C 189.165 4.72826 -2.42093 0
M  V30 1995 C 188.204 4.93433 -3.62202 0
M  V30 1996 N 187.341 6.12338 -3.43491 0
M  V30 1997 H 192.181 1.76427 -2.40161 0
M  V30 1998 H 189.718 0.861376 -1.19242 0
M  V30 1999 H 191.676 3.97287 -1.27354 0
M  V30 2000 H 190.306 3.19854 -0.435133 0
M  V30 2001 H 189.358 2.59736 -2.77923 0
M  V30 2002 H 190.67 3.5628 -3.49094 0
M  V30 2003 H 189.824 5.60631 -2.319 0
M  V30 2004 H 188.563 4.63973 -1.50268 0
M  V30 2005 H 187.568 4.04073 -3.72834 0
M  V30 2006 H 188.793 5.04136 -4.54998 0
M  V30 2007 H 186.739 6.04672 -2.54377 0
M  V30 2008 H 186.656 6.2429 -4.26377 0
M  V30 2009 H 187.924 7.02841 -3.37097 0
M  V30 2010 N 192.153 1.28127 0.917671 0
M  V30 2011 C 193.43 1.05761 1.64542 0
M  V30 2012 C 193.81 -0.404344 2.07191 0
M  V30 2013 O 193.158 -1.38963 1.81388 0
M  V30 2014 C 193.368 2.02857 2.83989 0
M  V30 2015 C 194.716 2.32786 3.551 0
M  V30 2016 O 195.74 2.0091 2.94132 0
M  V30 2017 O 194.599 2.87169 4.64969 0
M  V30 2018 H 191.693 0.403916 0.721652 0
M  V30 2019 H 194.239 1.39431 0.967322 0
M  V30 2020 H 193.011 3.01407 2.49538 0
M  V30 2021 H 192.634 1.69809 3.59514 0
M  V30 2022 N 193.631 -1.12557 1.10312 0
M  V30 2023 C 194.564 -2.1737 0.694674 0
M  V30 2024 C 195.542 -1.59745 -0.303373 0
M  V30 2025 O 196.726 -1.87408 -0.202578 0
M  V30 2026 C 193.853 -3.38691 0.0248052 0
M  V30 2027 C 192.899 -4.14943 0.986121 0
M  V30 2028 S 193.732 -4.73413 2.50281 0
M  V30 2029 C 194.888 -5.9807 1.84562 0
M  V30 2030 H 195.121 -2.5168 1.58255 0
M  V30 2031 H 192.654 -1.23998 0.919992 0
M  V30 2032 H 194.612 -4.08959 -0.355361 0
M  V30 2033 H 193.273 -3.02664 -0.839851 0
M  V30 2034 H 192.466 -5.01854 0.464651 0
M  V30 2035 H 192.068 -3.50377 1.30813 0
M  V30 2036 H 194.36 -6.67232 1.17507 0
M  V30 2037 H 195.303 -6.54841 2.69423 0
M  V30 2038 H 195.711 -5.49073 1.31069 0
M  V30 2039 N 195.109 -0.891671 -1.2995 0
M  V30 2040 C 196.355 -0.514261 -1.96171 0
M  V30 2041 C 196.688 0.935506 -1.70182 0
M  V30 2042 O 195.963 1.66204 -1.01028 0
M  V30 2043 C 196.246 -0.797719 -3.51153 0
M  V30 2044 C 196.099 -2.2986 -3.86632 0
M  V30 2045 C 197.418 -0.278749 -4.39216 0
M  V30 2046 H 194.537 -0.188314 -0.712535 0
M  V30 2047 H 197.179 -1.11689 -1.53706 0
M  V30 2048 H 195.329 -0.284826 -3.87455 0
M  V30 2049 H 197.001 -2.88042 -3.60319 0
M  V30 2050 H 195.244 -2.76257 -3.34462 0
M  V30 2051 H 195.915 -2.44753 -4.94773 0
M  V30 2052 H 198.391 -0.717825 -4.09862 0
M  V30 2053 H 197.267 -0.506353 -5.46559 0
M  V30 2054 H 197.528 0.820266 -4.34424 0
M  V30 2055 N 196.587 1.43421 -0.653314 0
M  V30 2056 C 197.833 2.02111 -0.166992 0
M  V30 2057 C 198.166 1.51423 1.21592 0
M  V30 2058 O 197.441 0.707389 1.8118 0
M  V30 2059 C 197.724 3.5966 -0.177948 0
M  V30 2060 C 197.577 4.20579 -1.59478 0
M  V30 2061 C 198.896 4.37413 0.4856 0
M  V30 2062 H 196.015 0.734374 -0.0621557 0
M  V30 2063 H 198.657 1.70717 -0.834016 0
M  V30 2064 H 196.807 3.86537 0.390032 0
M  V30 2065 H 198.479 4.04732 -2.21336 0
M  V30 2066 H 196.722 3.77226 -2.14204 0
M  V30 2067 H 197.393 5.29665 -1.5543 0
M  V30 2068 H 199.869 4.161 0.00234528 0
M  V30 2069 H 198.745 5.47075 0.447207 0
M  V30 2070 H 199.006 4.13672 1.55974 0
M  V30 2071 N 198.065 0.39524 1.52563 0
M  V30 2072 C 199.313 -0.184678 2.01254 0
M  V30 2073 C 199.634 -1.46822 1.28329 0
M  V30 2074 O 198.904 -1.91666 0.405094 0
M  V30 2075 H 197.484 -0.0712355 0.743596 0
M  V30 2076 H 200.146 0.528293 1.87603 0
M  V30 2077 H 199.242 -0.390681 3.09645 0
M  V30 2078 N 199.544 -1.57102 0.125237 0
M  V30 2079 C 200.791 -1.95407 -0.531248 0
M  V30 2080 C 201.119 -1.0089 -1.66287 0
M  V30 2081 O 200.374 -0.0339431 -1.95671 0
M  V30 2082 C 200.673 -3.40096 -1.09862 0
M  V30 2083 C 200.339 -4.50815 -0.0876989 0
M  V30 2084 C 199.001 -4.80824 0.19026 0
M  V30 2085 C 201.353 -5.17724 0.600902 0
M  V30 2086 C 198.681 -5.75058 1.163 0
M  V30 2087 C 201.033 -6.13005 1.56231 0
M  V30 2088 C 199.697 -6.41403 1.8482 0
M  V30 2089 H 198.967 -0.715046 -0.194397 0
M  V30 2090 H 201.614 -1.90373 0.207463 0
M  V30 2091 H 199.919 -3.41855 -1.91422 0
M  V30 2092 H 201.616 -3.6705 -1.61478 0
M  V30 2093 H 198.206 -4.27444 -0.314528 0
M  V30 2094 H 202.39 -4.94691 0.399333 0
M  V30 2095 H 197.646 -5.95362 1.39117 0
M  V30 2096 H 201.82 -6.63934 2.10153 0
M  V30 2097 H 199.447 -7.14229 2.60349 0
M  V30 2098 N 201.022 0.148545 -1.56898 0
M  V30 2099 C 201.985 1.16736 -1.97244 0
M  V30 2100 C 202.985 1.35947 -0.858777 0
M  V30 2101 O 204.175 1.32966 -1.12542 0
M  V30 2102 C 201.307 2.52798 -2.28705 0
M  V30 2103 H 202.5 0.821279 -2.88435 0
M  V30 2104 H 200.053 0.391831 -1.51309 0
M  V30 2105 H 200.788 2.92381 -1.403 0
M  V30 2106 H 200.573 2.40216 -3.09901 0
M  V30 2107 H 202.063 3.26179 -2.60762 0
M  V30 2108 N 202.5 1.5196 0.417844 0
M  V30 2109 C 203.448 1.75278 1.52907 0
M  V30 2110 C 204.442 0.619611 1.57662 0
M  V30 2111 O 205.648 0.801457 1.61173 0
M  V30 2112 H 202.023 0.554141 0.508362 0
M  V30 2113 H 203.994 2.68389 1.30422 0
M  V30 2114 C 202.743 1.91262 2.90369 0
M  V30 2115 H 202.066 2.77872 2.8745 0
M  V30 2116 H 203.506 2.11581 3.67436 0
M  V30 2117 C 201.965 0.677431 3.30019 0
M  V30 2118 O 202.495 -0.158799 4.01386 0
M  V30 2119 N 200.701 0.515851 2.85985 0
M  V30 2120 H 200.248 1.19744 2.28077 0
M  V30 2121 H 200.206 -0.309315 3.12875 0
M  V30 2122 N 203.978 -0.674533 1.42435 0
M  V30 2123 C 204.908 -1.80009 1.48724 0
M  V30 2124 C 205.889 -1.6659 0.343793 0
M  V30 2125 O 207.074 -1.86007 0.558137 0
M  V30 2126 C 204.204 -3.18306 1.38919 0
M  V30 2127 C 203.158 -3.46461 2.51294 0
M  V30 2128 C 202.484 -4.84335 2.26547 0
M  V30 2129 C 203.784 -3.43328 3.93603 0
M  V30 2130 H 205.478 -1.75004 2.42928 0
M  V30 2131 H 203.024 -0.840533 1.16923 0
M  V30 2132 H 204.977 -3.9678 1.41927 0
M  V30 2133 H 203.701 -3.2399 0.412094 0
M  V30 2134 H 202.36 -2.70348 2.47604 0
M  V30 2135 H 202.008 -4.86669 1.2713 0
M  V30 2136 H 201.708 -5.04136 3.01861 0
M  V30 2137 H 203.232 -5.65094 2.31304 0
M  V30 2138 H 204.646 -4.11772 3.98894 0
M  V30 2139 H 203.043 -3.74664 4.68771 0
M  V30 2140 H 204.113 -2.41897 4.20255 0
M  V30 2141 N 205.456 -1.28612 -0.910864 0
M  V30 2142 C 206.704 -1.15705 -1.65701 0
M  V30 2143 C 207.025 0.29416 -1.92769 0
M  V30 2144 O 206.295 1.20331 -1.54588 0
M  V30 2145 H 204.875 -0.425216 -0.614167 0
M  V30 2146 H 207.537 -1.61381 -1.0928 0
M  V30 2147 H 206.633 -1.6988 -2.61815 0
M  V30 2148 N 206.934 1.1197 -1.10907 0
M  V30 2149 C 208.183 1.82947 -0.849302 0
M  V30 2150 C 208.496 1.85275 0.627112 0
M  V30 2151 O 209.702 2.52296 1.00295 0
M  V30 2152 C 208.158 3.28529 -1.46959 0
M  V30 2153 C 207.766 3.34546 -2.97965 0
M  V30 2154 C 209.51 4.04443 -1.28942 0
M  V30 2155 C 207.417 4.74491 -3.53004 0
M  V30 2156 H 206.347 0.685477 -0.314065 0
M  V30 2157 H 208.998 1.2604 -1.33365 0
M  V30 2158 H 207.38 3.85333 -0.912917 0
M  V30 2159 H 208.554 2.87654 -3.59989 0
M  V30 2160 H 206.869 2.72108 -3.15192 0
M  V30 2161 H 209.466 5.07787 -1.67502 0
M  V30 2162 H 209.809 4.15656 -0.231456 0
M  V30 2163 H 210.342 3.5401 -1.81443 0
M  V30 2164 H 207.081 4.68474 -4.58489 0
M  V30 2165 H 206.601 5.21816 -2.9575 0
M  V30 2166 H 208.28 5.4344 -3.51115 0
M  V30 2167 N 208.412 0.89855 1.29475 0
M  V30 2168 C 209.342 0.39201 2.30186 0
M  V30 2169 C 210.323 -0.532359 1.61555 0
M  V30 2170 O 211.508 -0.443331 1.89072 0
M  V30 2171 C 208.638 -0.382353 3.45189 0
M  V30 2172 C 207.592 0.451483 4.25612 0
M  V30 2173 C 206.918 -0.450307 5.328 0
M  V30 2174 C 208.218 1.70079 4.93832 0
M  V30 2175 H 209.912 1.23362 2.72804 0
M  V30 2176 H 207.458 0.594638 1.31149 0
M  V30 2177 H 209.411 -0.747451 4.14718 0
M  V30 2178 H 208.135 -1.25774 3.01411 0
M  V30 2179 H 206.794 0.798897 3.57789 0
M  V30 2180 H 206.442 -1.32379 4.85268 0
M  V30 2181 H 206.142 0.103902 5.87508 0
M  V30 2182 H 207.666 -0.811623 6.05182 0
M  V30 2183 H 209.08 1.40549 5.55805 0
M  V30 2184 H 207.477 2.19623 5.58467 0
M  V30 2185 H 208.547 2.43744 4.19186 0
M  V30 2186 N 209.89 -1.43072 0.660911 0
M  V30 2187 C 210.84 -2.27948 -0.04847 0
M  V30 2188 C 211.824 -1.40325 -0.787246 0
M  V30 2189 O 213.016 -1.63893 -0.668446 0
M  V30 2190 C 210.145 -3.28143 -1.00881 0
M  V30 2191 C 209.231 -4.23252 -0.268108 0
M  V30 2192 N 209.622 -5.00656 0.719528 0
M  V30 2193 C 207.92 -4.43092 -0.508493 0
M  V30 2194 C 208.621 -5.70019 1.15988 0
M  V30 2195 N 207.597 -5.41364 0.492584 0
M  V30 2196 H 211.399 -2.85213 0.709279 0
M  V30 2197 H 208.913 -1.54869 0.488822 0
M  V30 2198 H 210.91 -3.87736 -1.53188 0
M  V30 2199 H 209.57 -2.7244 -1.76654 0
M  V30 2200 H 210.581 -5.06115 1.09855 0
M  V30 2201 H 207.258 -3.98449 -1.24679 0
M  V30 2202 H 208.648 -6.4214 1.97751 0
M  V30 2203 N 211.368 -0.403325 -1.52352 0
M  V30 2204 C 212.614 0.174605 -2.02047 0
M  V30 2205 C 212.947 1.45282 -1.28867 0
M  V30 2206 O 212.222 1.90483 -0.393257 0
M  V30 2207 C 212.505 0.428238 -3.57545 0
M  V30 2208 C 212.358 -0.866248 -4.4138 0
M  V30 2209 C 213.677 1.21287 -4.23057 0
M  V30 2210 H 210.796 0.0619851 -0.734389 0
M  V30 2211 H 213.438 -0.53565 -1.82293 0
M  V30 2212 H 211.588 1.03327 -3.74507 0
M  V30 2213 H 213.26 -1.50265 -4.3614 0
M  V30 2214 H 211.503 -1.47851 -4.07827 0
M  V30 2215 H 212.174 -0.643249 -5.48239 0
M  V30 2216 H 214.65 0.700703 -4.10158 0
M  V30 2217 H 213.526 1.35909 -5.31808 0
M  V30 2218 H 213.787 2.23193 -3.81625 0
M  V30 2219 N 212.846 1.57033 -0.133567 0
M  V30 2220 C 214.074 2.00044 0.528195 0
M  V30 2221 C 214.489 1.01349 1.59291 0
M  V30 2222 O 213.846 0.00848369 1.82498 0
M  V30 2223 C 213.897 3.43018 1.1411 0
M  V30 2224 O 213.618 4.37939 0.11892 0
M  V30 2225 C 215.119 4.01237 1.88477 0
M  V30 2226 H 212.339 0.656517 0.138661 0
M  V30 2227 H 214.883 2.03267 -0.224196 0
M  V30 2228 H 213.038 3.40688 1.84418 0
M  V30 2229 H 213.452 5.21436 0.56613 0
M  V30 2230 H 214.926 5.03314 2.26669 0
M  V30 2231 H 215.403 3.41193 2.76558 0
M  V30 2232 H 216.009 4.07156 1.22898 0
M  V30 2233 N 214.325 -0.140222 1.56975 0
M  V30 2234 C 215.272 -1.17292 1.98774 0
M  V30 2235 C 216.242 -1.4232 0.856408 0
M  V30 2236 O 217.427 -1.54541 1.119 0
M  V30 2237 C 214.567 -2.49973 2.37923 0
M  V30 2238 C 213.68 -2.32062 3.64378 0
M  V30 2239 C 212.815 -3.57825 3.926 0
M  V30 2240 C 211.854 -3.3498 5.12303 0
M  V30 2241 N 210.991 -4.52891 5.36502 0
M  V30 2242 H 215.831 -0.809472 2.86795 0
M  V30 2243 H 213.368 -0.388237 1.41884 0
M  V30 2244 H 215.326 -3.27346 2.58652 0
M  V30 2245 H 213.956 -2.84252 1.52972 0
M  V30 2246 H 213.008 -1.45711 3.51387 0
M  V30 2247 H 214.32 -2.11145 4.51906 0
M  V30 2248 H 213.474 -4.43624 4.13863 0
M  V30 2249 H 212.213 -3.81753 3.03506 0
M  V30 2250 H 211.218 -2.4757 4.90906 0
M  V30 2251 H 212.443 -3.12444 6.02956 0
M  V30 2252 H 210.389 -4.76979 4.50363 0
M  V30 2253 H 210.306 -4.35001 6.18312 0
M  V30 2254 H 211.574 -5.39884 5.62268 0
M  V30 2255 N 215.803 -1.52179 -0.40978 0
M  V30 2256 C 216.75 -1.75475 -1.49924 0
M  V30 2257 C 217.72 -0.597175 -1.54994 0
M  V30 2258 O 218.905 -0.834655 -1.71575 0
M  V30 2259 C 216.045 -1.9107 -2.87378 0
M  V30 2260 C 215.158 -3.18717 -2.91622 0
M  V30 2261 C 214.293 -3.24747 -4.20372 0
M  V30 2262 C 213.332 -4.46598 -4.18588 0
M  V30 2263 N 212.469 -4.50025 -5.38908 0
M  V30 2264 H 217.309 -2.68458 -1.29361 0
M  V30 2265 H 214.846 -1.33024 -0.627934 0
M  V30 2266 H 216.804 -1.98096 -3.6717 0
M  V30 2267 H 215.434 -1.01469 -3.06437 0
M  V30 2268 H 214.486 -3.20866 -2.04326 0
M  V30 2269 H 215.798 -4.08544 -2.86169 0
M  V30 2270 H 214.952 -3.30841 -5.08556 0
M  V30 2271 H 213.691 -2.32857 -4.28519 0
M  V30 2272 H 212.696 -4.40652 -3.28794 0
M  V30 2273 H 213.921 -5.39783 -4.12081 0
M  V30 2274 H 211.867 -3.61017 -5.47725 0
M  V30 2275 H 211.784 -5.33697 -5.35447 0
M  V30 2276 H 213.052 -4.60347 -6.29048 0
M  V30 2277 N 217.281 0.66697 -1.42791 0
M  V30 2278 C 218.228 1.7803 -1.4688 0
M  V30 2279 C 219.198 1.6299 -0.319919 0
M  V30 2280 O 220.383 1.83432 -0.525118 0
M  V30 2281 C 217.523 3.1611 -1.38451 0
M  V30 2282 C 216.636 3.42381 -2.63437 0
M  V30 2283 C 215.771 4.70232 -2.47094 0
M  V30 2284 C 214.81 4.89564 -3.67415 0
M  V30 2285 N 213.947 6.08661 -3.49966 0
M  V30 2286 H 218.787 1.7387 -2.42019 0
M  V30 2287 H 216.324 0.84868 -1.20149 0
M  V30 2288 H 218.282 3.95914 -1.31561 0
M  V30 2289 H 216.912 3.19374 -0.469033 0
M  V30 2290 H 215.964 2.56774 -2.80662 0
M  V30 2291 H 217.276 3.52557 -3.52853 0
M  V30 2292 H 216.43 5.5814 -2.37834 0
M  V30 2293 H 215.169 4.62353 -1.5518 0
M  V30 2294 H 214.174 4.00096 -3.77099 0
M  V30 2295 H 215.399 4.99282 -4.6032 0
M  V30 2296 H 213.345 6.0194 -2.60776 0
M  V30 2297 H 213.262 6.19733 -4.32975 0
M  V30 2298 H 214.53 6.99226 -3.44532 0
M  V30 2299 N 218.759 1.29093 0.90403 0
M  V30 2300 C 220.005 1.16986 1.65656 0
M  V30 2301 C 220.338 -0.278925 1.92186 0
M  V30 2302 O 219.613 -1.2019 1.5292 0
M  V30 2303 C 219.896 1.97908 3.0084 0
M  V30 2304 C 219.749 3.50903 2.81403 0
M  V30 2305 C 221.068 1.80208 4.01513 0
M  V30 2306 H 218.187 0.426346 0.601164 0
M  V30 2307 H 220.829 1.58518 1.04747 0
M  V30 2308 H 218.979 1.62616 3.52829 0
M  V30 2309 H 220.651 3.96153 2.36348 0
M  V30 2310 H 218.894 3.76045 2.1627 0
M  V30 2311 H 219.565 4.02791 3.77443 0
M  V30 2312 H 222.041 2.11025 3.58619 0
M  V30 2313 H 220.917 2.39184 4.94047 0
M  V30 2314 H 221.178 0.756119 4.35586 0
M  V30 2315 N 220.237 -1.11381 1.11499 0
M  V30 2316 C 221.484 -1.83132 0.864231 0
M  V30 2317 C 221.812 -1.84683 -0.610114 0
M  V30 2318 O 221.067 -1.29589 -1.46646 0
M  V30 2319 C 221.366 -3.30026 1.37177 0
M  V30 2320 C 221.032 -3.48634 2.85946 0
M  V30 2321 C 219.694 -3.53421 3.26569 0
M  V30 2322 C 222.046 -3.54837 3.81759 0
M  V30 2323 C 219.374 -3.61967 4.61733 0
M  V30 2324 C 221.726 -3.64915 5.1674 0
M  V30 2325 C 220.39 -3.67962 5.5692 0
M  V30 2326 H 219.66 -0.670127 0.316245 0
M  V30 2327 H 222.307 -1.31354 1.3935 0
M  V30 2328 H 220.612 -3.84304 0.762753 0
M  V30 2329 H 222.309 -3.84034 1.15408 0
M  V30 2330 H 218.899 -3.45579 2.53521 0
M  V30 2331 H 223.083 -3.50399 3.51474 0
M  V30 2332 H 218.339 -3.62603 4.92269 0
M  V30 2333 H 222.513 -3.68658 5.90816 0
M  V30 2334 H 220.14 -3.74336 6.61647 0
M  V30 2335 N 221.715 -0.905404 -1.28997 0
M  V30 2336 C 222.625 -0.392246 -2.31298 0
M  V30 2337 C 223.641 0.515889 -1.66176 0
M  V30 2338 O 224.817 0.404093 -1.97304 0
M  V30 2339 C 221.882 0.36686 -3.44754 0
M  V30 2340 C 220.943 -0.573485 -4.25452 0
M  V30 2341 C 220.176 0.149488 -5.33491 0
M  V30 2342 O 220.399 1.37255 -5.5364 0
M  V30 2343 O 219.333 -0.510919 -5.99728 0
M  V30 2344 H 223.159 -1.2411 -2.77183 0
M  V30 2345 H 220.744 -0.669926 -1.33538 0
M  V30 2346 H 222.626 0.795907 -4.13816 0
M  V30 2347 H 221.301 1.19169 -3.00966 0
M  V30 2348 H 220.208 -1.05176 -3.59011 0
M  V30 2349 H 221.541 -1.36489 -4.72897 0
M  V30 2350 N 223.193 1.4272 -0.668489 0
M  V30 2351 C 224.421 2.05966 -0.196348 0
M  V30 2352 C 224.836 1.50191 1.14403 0
M  V30 2353 O 224.193 0.639208 1.7094 0
M  V30 2354 C 224.244 3.61314 -0.115815 0
M  V30 2355 O 223.965 4.1502 -1.40322 0
M  V30 2356 C 225.466 4.41663 0.380579 0
M  V30 2357 H 222.686 0.663954 -0.0969829 0
M  V30 2358 H 225.23 1.82966 -0.913446 0
M  V30 2359 H 223.385 3.83448 0.551931 0
M  V30 2360 H 223.799 5.08832 -1.27243 0
M  V30 2361 H 225.273 5.5065 0.385848 0
M  V30 2362 H 225.75 4.15792 1.41471 0
M  V30 2363 H 226.356 4.24534 -0.255209 0
M  V30 2364 N 224.671 0.411399 1.52136 0
M  V30 2365 C 225.601 -0.404015 2.29978 0
M  V30 2366 C 226.582 -1.04412 1.34284 0
M  V30 2367 O 227.767 -1.0527 1.63192 0
M  V30 2368 C 224.897 -1.5197 3.12286 0
M  V30 2369 C 223.851 -1.00448 4.16046 0
M  V30 2370 C 223.177 -2.21393 4.86712 0
M  V30 2371 C 224.477 -0.0569336 5.22269 0
M  V30 2372 H 226.171 0.245529 2.98392 0
M  V30 2373 H 223.717 0.119525 1.43503 0
M  V30 2374 H 225.67 -2.09715 3.6551 0
M  V30 2375 H 224.394 -2.19716 2.41646 0
M  V30 2376 H 223.053 -0.449421 3.63835 0
M  V30 2377 H 222.701 -2.87699 4.12599 0
M  V30 2378 H 222.401 -1.87571 5.56858 0
M  V30 2379 H 223.925 -2.7974 5.4275 0
M  V30 2380 H 225.339 -0.54325 5.7072 0
M  V30 2381 H 223.736 0.192594 5.99791 0
M  V30 2382 H 224.806 0.887663 4.76706 0
M  V30 2383 N 226.149 -1.5696 0.141893 0
M  V30 2384 C 227.059 -2.20066 -0.812905 0
M  V30 2385 C 228.075 -1.18344 -1.27557 0
M  V30 2386 O 229.251 -1.50902 -1.33381 0
M  V30 2387 C 226.316 -2.80583 -2.03652 0
M  V30 2388 C 225.377 -3.97414 -1.62359 0
M  V30 2389 C 224.61 -4.55036 -2.78887 0
M  V30 2390 O 224.833 -4.11538 -3.94959 0
M  V30 2391 O 223.767 -5.45376 -2.54653 0
M  V30 2392 H 227.593 -3.02157 -0.305746 0
M  V30 2393 H 225.178 -1.49159 -0.0848799 0
M  V30 2394 H 227.06 -3.19067 -2.75272 0
M  V30 2395 H 225.735 -2.01508 -2.5333 0
M  V30 2396 H 224.642 -3.63656 -0.877775 0
M  V30 2397 H 225.975 -4.77994 -1.17401 0
M  V30 2398 N 227.627 0.131896 -1.57047 0
M  V30 2399 C 228.59 1.14638 -1.98471 0
M  V30 2400 C 229.59 1.35029 -0.873148 0
M  V30 2401 O 230.78 1.31764 -1.13946 0
M  V30 2402 C 227.912 2.50358 -2.31373 0
M  V30 2403 H 229.105 0.79064 -2.8929 0
M  V30 2404 H 226.658 0.375761 -1.51716 0
M  V30 2405 H 227.393 2.90876 -1.43393 0
M  V30 2406 H 227.178 2.36915 -3.12432 0
M  V30 2407 H 228.668 3.23395 -2.64207 0
M  V30 2408 N 229.106 1.52395 0.401703 0
M  V30 2409 C 230.522 1.41363 0.740864 0
M  V30 2410 C 230.722 0.523982 1.94568 0
M  V30 2411 O 229.778 -0.00741204 2.52499 0
M  V30 2412 C 231.091 2.84011 0.987847 0
M  V30 2413 C 232.639 2.93404 1.09011 0
M  V30 2414 C 233.114 4.37036 1.3698 0
M  V30 2415 N 234.605 4.40304 1.43829 0
M  V30 2416 C 235.34 5.48508 1.67112 0
M  V30 2417 N 234.836 6.66819 1.87949 0
M  V30 2418 N 236.629 5.36034 1.69187 0
M  V30 2419 H 228.78 2.08765 -0.391262 0
M  V30 2420 H 231.043 0.941265 -0.112798 0
M  V30 2421 H 230.749 3.51265 0.174835 0
M  V30 2422 H 230.623 3.25502 1.906 0
M  V30 2423 H 233.01 2.26325 1.8937 0
M  V30 2424 H 233.091 2.55359 0.15015 0
M  V30 2425 H 232.735 5.04676 0.571353 0
M  V30 2426 H 232.665 4.72623 2.3224 0
M  V30 2427 H 235.156 3.55024 1.29486 0
M  V30 2428 H 235.469 7.45063 2.05185 0
M  V30 2429 H 233.814 6.6987 1.85199 0
M  V30 2430 H 237.005 4.42579 1.52451 0
M  V30 2431 H 237.178 6.20434 1.86993 0
M  V30 2432 N 230.584 -0.659388 1.43143 0
M  V30 2433 C 231.517 -1.78425 1.42267 0
M  V30 2434 C 232.495 -1.60085 0.284894 0
M  V30 2435 O 233.679 -1.82351 0.477527 0
M  V30 2436 C 230.806 -3.15642 1.22833 0
M  V30 2437 C 229.852 -3.52698 2.39806 0
M  V30 2438 S 230.685 -3.53372 4.02353 0
M  V30 2439 C 231.841 -4.93256 3.85291 0
M  V30 2440 H 232.074 -1.78897 2.37452 0
M  V30 2441 H 229.607 -0.831469 1.301 0
M  V30 2442 H 231.565 -3.94838 1.12308 0
M  V30 2443 H 230.226 -3.12739 0.29207 0
M  V30 2444 H 229.419 -4.52475 2.21996 0
M  V30 2445 H 229.021 -2.80899 2.46925 0
M  V30 2446 H 231.313 -5.81751 3.47235 0
M  V30 2447 H 232.256 -5.16115 4.84799 0
M  V30 2448 H 232.664 -4.665 3.17865 0
M  V30 2449 N 232.062 -1.29571 -0.897171 0
M  V30 2450 C 233.29 -1.20583 -1.68129 0
M  V30 2451 C 233.705 0.233181 -1.87354 0
M  V30 2452 O 233.062 1.15579 -1.41236 0
M  V30 2453 C 233.113 -1.91772 -3.06441 0
M  V30 2454 O 232.834 -3.30053 -2.88091 0
M  V30 2455 C 234.335 -1.89291 -4.00854 0
M  V30 2456 H 231.555 -0.417826 -0.525036 0
M  V30 2457 H 234.099 -1.70987 -1.12177 0
M  V30 2458 H 232.254 -1.45196 -3.59161 0
M  V30 2459 H 232.668 -3.65942 -3.75748 0
M  V30 2460 H 234.142 -2.43662 -4.95311 0
M  V30 2461 H 234.619 -0.869014 -4.30517 0
M  V30 2462 H 235.225 -2.35622 -3.54066 0
M  V30 2463 N 233.54 1.10788 -1.12088 0
M  V30 2464 C 234.45 2.20599 -0.798338 0
M  V30 2465 C 235.466 1.72712 0.21135 0
M  V30 2466 O 236.642 2.01348 0.0458477 0
M  V30 2467 C 233.707 3.45771 -0.253674 0
M  V30 2468 C 232.768 4.08411 -1.32283 0
M  V30 2469 C 232.001 5.27608 -0.80406 0
M  V30 2470 O 232.224 5.69241 0.363478 0
M  V30 2471 O 231.158 5.8101 -1.57198 0
M  V30 2472 H 234.984 2.50614 -1.7154 0
M  V30 2473 H 232.569 1.19454 -0.897275 0
M  V30 2474 H 234.451 4.21376 0.0453691 0
M  V30 2475 H 233.126 3.1739 0.636005 0
M  V30 2476 H 232.033 3.34507 -1.67499 0
M  V30 2477 H 233.366 4.40986 -2.18614 0
M  V30 2478 N 235.018 0.912232 1.28515 0
M  V30 2479 C 235.981 0.404223 2.25607 0
M  V30 2480 C 236.981 -0.468602 1.53821 0
M  V30 2481 O 238.171 -0.271873 1.72065 0
M  V30 2482 C 235.303 -0.420653 3.38295 0
M  V30 2483 H 236.496 1.26188 2.7206 0
M  V30 2484 H 234.049 0.691495 1.40171 0
M  V30 2485 H 234.784 -1.29777 2.97201 0
M  V30 2486 H 234.569 0.204935 3.91564 0
M  V30 2487 H 236.059 -0.766971 4.10496 0
M  V30 2488 N 236.496 -1.42363 0.676048 0
M  V30 2489 C 237.736 -2.03392 0.20273 0
M  V30 2490 C 238.1 -1.52306 -1.16906 0
M  V30 2491 O 239.301 -2.05129 -1.73711 0
M  V30 2492 C 237.572 -3.56614 0.236947 0
M  V30 2493 S 239.131 -4.38489 -0.165186 0
M  V30 2494 H 235.949 -0.70611 0.0832418 0
M  V30 2495 H 238.551 -1.74093 0.88948 0
M  V30 2496 H 237.255 -3.91293 1.23767 0
M  V30 2497 H 236.786 -3.90587 -0.469596 0
M  V30 2498 H 238.801 -4.76093 -1.39822 0
M  V30 2499 N 237.974 -0.419461 -1.51915 0
M  V30 2500 C 239.223 0.154346 -2.01109 0
M  V30 2501 C 239.536 1.45338 -1.30905 0
M  V30 2502 O 240.742 2.10906 -1.7097 0
M  V30 2503 C 239.198 0.325615 -3.58424 0
M  V30 2504 C 238.806 -0.961934 -4.37551 0
M  V30 2505 C 240.55 0.854155 -4.15818 0
M  V30 2506 C 238.457 -0.757287 -5.86531 0
M  V30 2507 H 237.387 0.0614563 -0.751491 0
M  V30 2508 H 240.038 -0.54649 -1.75173 0
M  V30 2509 H 238.42 1.08903 -3.80731 0
M  V30 2510 H 239.594 -1.7323 -4.26999 0
M  V30 2511 H 237.909 -1.41766 -3.91524 0
M  V30 2512 H 240.506 1.02346 -5.24814 0
M  V30 2513 H 240.849 1.83172 -3.73837 0
M  V30 2514 H 241.382 0.149528 -3.97519 0
M  V30 2515 H 238.121 -1.70671 -6.32892 0
M  V30 2516 H 237.641 -0.0264061 -5.99794 0
M  V30 2517 H 239.32 -0.403482 -6.45741 0
M  V30 2518 N 239.452 1.56882 -0.150215 0
M  V30 2519 C 240.868 1.58263 0.20617 0
M  V30 2520 C 241.068 1.16464 1.64434 0
M  V30 2521 O 240.124 0.866422 2.3717 0
M  V30 2522 C 241.437 3.00649 -0.0555025 0
M  V30 2523 C 242.985 3.12999 0.00795388 0
M  V30 2524 C 243.46 4.5744 -0.226429 0
M  V30 2525 N 244.951 4.62875 -0.173469 0
M  V30 2526 C 245.686 5.72454 -0.329288 0
M  V30 2527 N 245.182 6.90669 -0.543005 0
M  V30 2528 N 246.975 5.61467 -0.266666 0
M  V30 2529 H 239.126 1.82345 -1.08922 0
M  V30 2530 H 241.389 0.844149 -0.431413 0
M  V30 2531 H 241.095 3.3563 -1.05096 0
M  V30 2532 H 240.969 3.71337 0.66246 0
M  V30 2533 H 243.356 2.77857 0.993966 0
M  V30 2534 H 243.437 2.4479 -0.742388 0
M  V30 2535 H 243.081 4.93287 -1.20956 0
M  V30 2536 H 243.011 5.2378 0.544274 0
M  V30 2537 H 245.502 3.77898 -0.0130709 0
M  V30 2538 H 245.815 7.70045 -0.651922 0
M  V30 2539 H 244.16 6.92581 -0.579366 0
M  V30 2540 H 247.351 4.67992 -0.100441 0
M  V30 2541 H 247.524 6.46816 -0.391535 0
M  V30 2542 N 240.93 -0.123565 1.57115 0
M  V30 2543 C 242.178 -0.83051 1.84247 0
M  V30 2544 C 242.499 -1.80629 0.73471 0
M  V30 2545 O 241.769 -1.94403 -0.241688 0
M  V30 2546 H 240.349 -0.309694 0.679778 0
M  V30 2547 H 243.011 -0.111976 1.94578 0
M  V30 2548 H 242.107 -1.37852 2.80006 0
M  V30 2549 N 242.408 -1.52605 -0.393616 0
M  V30 2550 C 243.638 -1.71046 -1.15874 0
M  V30 2551 C 244.046 -0.426483 -1.84331 0
M  V30 2552 O 243.389 0.608513 -1.73329 0
M  V30 2553 C 243.451 -2.80118 -2.25332 0
M  V30 2554 C 243.115 -4.21381 -1.76881 0
M  V30 2555 C 244.112 -5.04697 -1.24808 0
M  V30 2556 C 241.797 -4.67683 -1.83244 0
M  V30 2557 C 243.791 -6.32393 -0.797387 0
M  V30 2558 C 241.478 -5.95364 -1.37787 0
M  V30 2559 C 242.476 -6.77549 -0.861208 0
M  V30 2560 O 242.164 -8.02837 -0.413252 0
M  V30 2561 H 241.896 -0.576155 -0.353583 0
M  V30 2562 H 244.45 -2.00018 -0.467123 0
M  V30 2563 H 242.68 -2.46557 -2.97904 0
M  V30 2564 H 244.369 -2.87006 -2.87023 0
M  V30 2565 H 245.135 -4.70111 -1.19252 0
M  V30 2566 H 241.014 -4.03805 -2.22401 0
M  V30 2567 H 244.558 -6.9649 -0.393437 0
M  V30 2568 H 240.455 -6.29455 -1.43026 0
M  V30 2569 H 241.223 -8.16749 -0.53515 0
M  V30 2570 N 243.887 0.651787 -1.4349 0
M  V30 2571 C 244.835 1.78586 -1.49029 0
M  V30 2572 C 245.829 1.65448 -0.363767 0
M  V30 2573 O 247.035 1.71777 -0.537821 0
M  V30 2574 H 243.41 0.589236 -0.467231 0
M  V30 2575 H 245.381 1.71035 -2.44519 0
M  V30 2576 C 244.13 3.16851 -1.43181 0
M  V30 2577 H 243.453 3.27598 -2.29171 0
M  V30 2578 H 244.893 3.96156 -1.51118 0
M  V30 2579 C 243.352 3.36568 -0.149616 0
M  V30 2580 O 243.882 3.93885 0.788509 0
M  V30 2581 N 242.088 2.90539 -0.0593484 0
M  V30 2582 H 241.635 2.4408 -0.823575 0
M  V30 2583 H 241.593 3.04108 0.797853 0
M  V30 2584 N 245.365 1.30045 0.890287 0
M  V30 2585 C 246.776 1.16738 1.45702 0
M  V30 2586 C 247.127 -0.233939 1.948 0
M  V30 2587 O 246.252 -1.13021 1.84541 0
M  V30 2588 C 246.847 2.11313 2.64825 0
M  V30 2589 C 245.406 2.02001 3.17604 0
M  V30 2590 C 244.553 2.01699 1.90296 0
M  V30 2591 H 247.504 1.42392 0.700726 0
M  V30 2592 H 247.525 1.69086 3.40867 0
M  V30 2593 H 247.037 3.13294 2.2906 0
M  V30 2594 H 245.138 1.03142 3.5804 0
M  V30 2595 H 245.251 2.90128 3.81264 0
M  V30 2596 H 243.615 1.46427 2.08402 0
M  V30 2597 H 244.398 3.05402 1.56795 0
M  V30 2598 N 246.843 -1.10192 1.12674 0
M  V30 2599 C 248.091 -1.81845 0.881861 0
M  V30 2600 C 248.412 -1.85737 -0.593867 0
M  V30 2601 O 247.682 -1.33724 -1.4316 0
M  V30 2602 H 246.262 -0.673432 0.323261 0
M  V30 2603 H 248.924 -1.33316 1.42172 0
M  V30 2604 H 248.02 -2.85288 1.2656 0
M  V30 2605 N 248.321 -0.919034 -1.28029 0
M  V30 2606 C 249.251 -0.428581 -2.29533 0
M  V30 2607 C 250.232 0.50659 -1.62381 0
M  V30 2608 O 251.417 0.413195 -1.89753 0
M  V30 2609 C 248.547 0.327388 -3.45753 0
M  V30 2610 C 247.501 -0.519137 -4.2484 0
M  V30 2611 C 246.827 0.365486 -5.33449 0
M  V30 2612 C 248.127 -1.77914 -4.91064 0
M  V30 2613 H 249.821 -1.27687 -2.70807 0
M  V30 2614 H 247.367 -0.615428 -1.30186 0
M  V30 2615 H 249.32 0.681378 -4.15855 0
M  V30 2616 H 248.044 1.20963 -3.03374 0
M  V30 2617 H 246.703 -0.855717 -3.56473 0
M  V30 2618 H 246.351 1.24642 -4.87312 0
M  V30 2619 H 246.051 -0.197356 -5.87268 0
M  V30 2620 H 247.575 0.715241 -6.06396 0
M  V30 2621 H 248.989 -1.49374 -5.53498 0
M  V30 2622 H 247.386 -2.2848 -5.54903 0
M  V30 2623 H 248.456 -2.50382 -4.15255 0
M  V30 2624 N 249.799 1.42003 -0.683588 0
M  V30 2625 C 250.729 2.33487 -0.024866 0
M  V30 2626 C 251.71 1.51163 0.779975 0
M  V30 2627 O 252.895 1.79739 0.735362 0
M  V30 2628 C 250.025 3.3487 0.920836 0
M  V30 2629 C 248.979 4.27414 0.223958 0
M  V30 2630 C 248.305 5.19074 1.2832 0
M  V30 2631 C 249.605 5.14445 -0.90242 0
M  V30 2632 H 251.299 2.88819 -0.788921 0
M  V30 2633 H 248.845 1.38873 -0.38083 0
M  V30 2634 H 250.798 3.97787 1.39081 0
M  V30 2635 H 249.522 2.77861 1.71642 0
M  V30 2636 H 248.181 3.65904 -0.225864 0
M  V30 2637 H 247.829 4.58387 2.071 0
M  V30 2638 H 247.529 5.81822 0.821995 0
M  V30 2639 H 249.053 5.84867 1.75392 0
M  V30 2640 H 250.467 5.70998 -0.513272 0
M  V30 2641 H 248.864 5.86072 -1.28997 0
M  V30 2642 H 249.934 4.52322 -1.74737 0
M  V30 2643 N 251.277 0.427512 1.51691 0
M  V30 2644 C 252.523 -0.142439 2.02299 0
M  V30 2645 C 252.856 -1.43214 1.31162 0
M  V30 2646 O 252.131 -1.89833 0.423511 0
M  V30 2647 C 252.414 -0.371301 3.58181 0
M  V30 2648 C 252.267 0.936358 4.39946 0
M  V30 2649 C 253.586 -1.14542 4.24933 0
M  V30 2650 H 250.705 -0.0502937 0.735282 0
M  V30 2651 H 253.347 0.564584 1.81418 0
M  V30 2652 H 251.497 -0.973559 3.76104 0
M  V30 2653 H 253.169 1.57184 4.33694 0
M  V30 2654 H 251.412 1.5432 4.05423 0
M  V30 2655 H 252.083 0.730388 5.47147 0
M  V30 2656 H 254.559 -0.635362 4.11221 0
M  V30 2657 H 253.435 -1.27431 5.33903 0
M  V30 2658 H 253.696 -2.17093 3.85127 0
M  V30 2659 N 252.755 -1.56801 0.158532 0
M  V30 2660 C 253.705 -2.13923 -0.788738 0
M  V30 2661 C 254.689 -1.07006 -1.2016 0
M  V30 2662 O 255.881 -1.33159 -1.1661 0
M  V30 2663 C 253.01 -2.77348 -2.02319 0
M  V30 2664 C 252.096 -3.91404 -1.6329 0
M  V30 2665 N 252.487 -4.9677 -0.951463 0
M  V30 2666 C 250.785 -4.02326 -1.92482 0
M  V30 2667 C 251.486 -5.76698 -0.761221 0
M  V30 2668 N 250.462 -5.27859 -1.29869 0
M  V30 2669 H 254.264 -2.92757 -0.258995 0
M  V30 2670 H 251.778 -1.62344 -0.0426055 0
M  V30 2671 H 253.775 -3.16639 -2.71192 0
M  V30 2672 H 252.435 -1.99991 -2.558 0
M  V30 2673 H 253.446 -5.14284 -0.610928 0
M  V30 2674 H 250.123 -3.36059 -2.47732 0
M  V30 2675 H 251.513 -6.71529 -0.223284 0
M  V30 2676 N 254.233 0.115231 -1.57178 0
M  V30 2677 C 255.644 0.67197 -1.74188 0
M  V30 2678 C 255.995 1.80125 -0.777777 0
M  V30 2679 O 255.12 2.16346 0.0484376 0
M  V30 2680 C 255.715 1.22573 -3.1585 0
M  V30 2681 C 254.274 1.72872 -3.34353 0
M  V30 2682 C 253.421 0.629972 -2.70049 0
M  V30 2683 H 256.372 -0.110712 -1.58313 0
M  V30 2684 H 256.393 2.09535 -3.17609 0
M  V30 2685 H 255.905 0.403598 -3.85996 0
M  V30 2686 H 254.006 2.5755 -2.69256 0
M  V30 2687 H 254.119 1.83557 -4.42542 0
M  V30 2688 H 252.483 1.0645 -2.31388 0
M  V30 2689 H 253.266 -0.181241 -3.42821 0
M  V30 2690 N 255.711 1.52812 0.385517 0
M  V30 2691 C 256.988 1.5861 1.14465 0
M  V30 2692 C 257.368 0.381402 2.07626 0
M  V30 2693 O 256.716 -0.629999 2.19643 0
M  V30 2694 C 256.926 2.92664 1.90128 0
M  V30 2695 C 258.274 3.46526 2.45367 0
M  V30 2696 O 259.298 2.94562 2.0028 0
M  V30 2697 O 258.157 4.37323 3.27736 0
M  V30 2698 H 255.251 0.639855 0.523941 0
M  V30 2699 H 257.797 1.65149 0.390389 0
M  V30 2700 H 256.569 3.71788 1.22022 0
M  V30 2701 H 256.192 2.89527 2.72507 0
M  V30 2702 N 257.189 -0.644168 1.43834 0
M  V30 2703 C 258.119 -1.76814 1.52509 0
M  V30 2704 C 259.1 -1.65823 0.379052 0
M  V30 2705 O 260.285 -1.84781 0.597466 0
M  V30 2706 C 257.415 -3.15288 1.4564 0
M  V30 2707 C 256.369 -3.41053 2.58586 0
M  V30 2708 C 255.695 -4.79421 2.36769 0
M  V30 2709 C 256.995 -3.34902 4.00797 0
M  V30 2710 H 258.689 -1.69812 2.46586 0
M  V30 2711 H 256.235 -0.815542 1.1868 0
M  V30 2712 H 258.188 -3.93681 1.50311 0
M  V30 2713 H 256.912 -3.23043 0.480725 0
M  V30 2714 H 255.571 -2.65035 2.53282 0
M  V30 2715 H 255.219 -4.83863 1.37424 0
M  V30 2716 H 254.919 -4.9762 3.12487 0
M  V30 2717 H 256.443 -5.6006 2.43238 0
M  V30 2718 H 257.857 -4.03218 4.07539 0
M  V30 2719 H 256.254 -3.64637 4.76613 0
M  V30 2720 H 257.324 -2.32928 4.25291 0
M  V30 2721 N 258.668 -1.30515 -0.883378 0
M  V30 2722 C 259.631 -1.1701 -1.97082 0
M  V30 2723 C 260.631 -0.10089 -1.60483 0
M  V30 2724 O 261.821 -0.349127 -1.70666 0
M  V30 2725 C 258.953 -0.793045 -3.31547 0
M  V30 2726 H 260.146 -2.13622 -2.10489 0
M  V30 2727 H 257.699 -1.13935 -1.06998 0
M  V30 2728 H 258.434 0.172499 -3.23841 0
M  V30 2729 H 258.219 -1.56576 -3.5948 0
M  V30 2730 H 259.709 -0.722073 -4.1131 0
M  V30 2731 N 260.146 1.09593 -1.13257 0
M  V30 2732 C 261.376 1.85231 -0.915049 0
M  V30 2733 C 261.784 1.81345 0.539498 0
M  V30 2734 O 261.127 1.20664 1.38513 0
M  V30 2735 C 261.189 3.34275 -1.3229 0
M  V30 2736 C 260.853 3.6191 -2.79052 0
M  V30 2737 C 261.85 3.57777 -3.77216 0
M  V30 2738 C 259.535 3.90309 -3.16171 0
M  V30 2739 C 261.529 3.81652 -5.1051 0
M  V30 2740 C 259.216 4.13839 -4.49644 0
M  V30 2741 C 260.214 4.09502 -5.46623 0
M  V30 2742 O 259.902 4.32426 -6.77689 0
M  V30 2743 H 259.634 0.591997 -0.326367 0
M  V30 2744 H 262.188 1.394 -1.50854 0
M  V30 2745 H 260.418 3.80805 -0.672667 0
M  V30 2746 H 262.107 3.9132 -1.07812 0
M  V30 2747 H 262.873 3.35865 -3.49885 0
M  V30 2748 H 258.752 3.92811 -2.41289 0
M  V30 2749 H 262.296 3.78182 -5.86195 0
M  V30 2750 H 258.193 4.35232 -4.767 0
M  V30 2751 H 258.961 4.49896 -6.83766 0
M  V30 2752 N 261.624 0.925811 1.2754 0
M  V30 2753 C 262.554 0.440748 2.29303 0
M  V30 2754 C 263.535 -0.497971 1.62648 0
M  V30 2755 O 264.72 -0.403126 1.8997 0
M  V30 2756 C 261.85 -0.309048 3.45922 0
M  V30 2757 C 260.804 0.54166 4.24559 0
M  V30 2758 C 260.13 -0.337191 5.33636 0
M  V30 2759 C 261.43 1.80516 4.90114 0
M  V30 2760 H 263.124 1.29121 2.70126 0
M  V30 2761 H 260.67 0.622323 1.29858 0
M  V30 2762 H 262.623 -0.659315 4.1621 0
M  V30 2763 H 261.347 -1.19352 3.04011 0
M  V30 2764 H 260.006 0.874609 3.56014 0
M  V30 2765 H 259.654 -1.22056 4.87966 0
M  V30 2766 H 259.354 0.228497 5.87156 0
M  V30 2767 H 260.878 -0.683072 6.06767 0
M  V30 2768 H 262.292 1.52307 5.52698 0
M  V30 2769 H 260.689 2.3142 5.53683 0
M  V30 2770 H 261.759 2.52581 4.13921 0
M  V30 2771 N 263.102 -1.41638 0.69111 0
M  V30 2772 C 264.034 -2.29194 -0.0161523 0
M  V30 2773 C 265.047 -1.44549 -0.748955 0
M  V30 2774 O 266.236 -1.681 -0.6004 0
M  V30 2775 C 263.336 -3.22325 -1.0469 0
M  V30 2776 C 262.509 -4.35706 -0.384621 0
M  V30 2777 C 261.568 -5.09443 -1.31737 0
M  V30 2778 O 260.594 -5.63386 -0.811451 0
M  V30 2779 N 261.796 -5.16487 -2.64993 0
M  V30 2780 H 264.561 -2.90534 0.735523 0
M  V30 2781 H 262.122 -1.52742 0.53679 0
M  V30 2782 H 264.114 -3.68522 -1.67252 0
M  V30 2783 H 262.684 -2.62323 -1.70015 0
M  V30 2784 H 261.904 -3.91948 0.420804 0
M  V30 2785 H 263.192 -5.08743 0.0760765 0
M  V30 2786 H 262.59 -4.741 -3.08619 0
M  V30 2787 H 261.147 -5.66276 -3.22761 0
M  V30 2788 N 264.58 -0.43555 -1.51462 0
M  V30 2789 C 265.543 0.365137 -2.26273 0
M  V30 2790 C 266.543 0.951227 -1.29647 0
M  V30 2791 O 267.733 0.825958 -1.53374 0
M  V30 2792 C 264.865 1.51645 -3.05314 0
M  V30 2793 H 266.058 -0.290474 -2.9849 0
M  V30 2794 H 263.611 -0.188676 -1.55157 0
M  V30 2795 H 264.346 2.20816 -2.3751 0
M  V30 2796 H 264.131 1.10238 -3.76284 0
M  V30 2797 H 265.621 2.08218 -3.61987 0
M  V30 2798 N 266.058 1.56714 -0.166846 0
M  V30 2799 C 266.968 2.21331 0.777791 0
M  V30 2800 C 267.984 1.20358 1.25658 0
M  V30 2801 O 269.16 1.53005 1.30964 0
M  V30 2802 C 266.225 2.83787 1.99163 0
M  V30 2803 C 265.286 3.99947 1.56016 0
M  V30 2804 C 264.519 4.59415 2.71613 0
M  V30 2805 O 264.742 4.17769 3.88362 0
M  V30 2806 O 263.676 5.49359 2.45945 0
M  V30 2807 H 267.502 3.02605 0.257636 0
M  V30 2808 H 265.087 1.49275 0.0611393 0
M  V30 2809 H 266.969 3.23405 2.70161 0
M  V30 2810 H 265.644 2.05513 2.50092 0
M  V30 2811 H 264.551 3.65007 0.819809 0
M  V30 2812 H 265.884 4.79801 1.09782 0
M  V30 2813 N 267.536 -0.106894 1.57237 0
M  V30 2814 C 268.784 -0.810921 1.85117 0
M  V30 2815 C 269.105 -1.7984 0.753827 0
M  V30 2816 O 268.375 -1.94649 -0.221056 0
M  V30 2817 H 266.955 -0.302466 0.683025 0
M  V30 2818 H 269.617 -0.0913324 1.94686 0
M  V30 2819 H 268.713 -1.34875 2.81452 0
M  V30 2820 N 269.014 -1.53014 -0.377408 0
M  V30 2821 C 270.262 -1.6829 -1.11906 0
M  V30 2822 C 270.583 -0.431206 -1.90173 0
M  V30 2823 O 269.853 0.554595 -1.87886 0
M  V30 2824 H 268.433 -0.620371 -0.416112 0
M  V30 2825 H 271.095 -1.90167 -0.426893 0
M  V30 2826 H 270.191 -2.53862 -1.8155 0
M  V30 2827 N 270.492 0.636531 -1.44174 0
M  V30 2828 C 271.74 1.39343 -1.46383 0
M  V30 2829 C 272.061 1.94766 -0.0955715 0
M  V30 2830 O 271.331 1.75452 0.871395 0
M  V30 2831 H 269.911 0.517199 -0.538994 0
M  V30 2832 H 272.573 0.74957 -1.7991 0
M  V30 2833 H 271.669 2.22746 -2.18611 0
M  V30 2834 N 271.97 1.30982 0.876444 0
M  V30 2835 C 273.247 1.10942 1.61094 0
M  V30 2836 C 273.627 -0.338223 2.08373 0
M  V30 2837 O 272.975 -1.33122 1.85717 0
M  V30 2838 C 273.185 2.11789 2.77392 0
M  V30 2839 C 274.533 2.43965 3.47514 0
M  V30 2840 O 275.557 2.10166 2.87591 0
M  V30 2841 O 274.416 3.01817 4.55597 0
M  V30 2842 H 271.51 0.42667 0.708436 0
M  V30 2843 H 274.056 1.42438 0.922474 0
M  V30 2844 H 272.828 3.09194 2.39823 0
M  V30 2845 H 272.451 1.81161 3.5393 0
M  V30 2846 N 273.449 -1.08991 1.13837 0
M  V30 2847 C 274.865 -1.33312 0.877506 0
M  V30 2848 C 275.065 -1.95587 -0.48456 0
M  V30 2849 O 274.121 -2.20509 -1.23013 0
M  V30 2850 C 275.434 -2.24045 2.0056 0
M  V30 2851 C 276.982 -2.37542 2.03821 0
M  V30 2852 C 277.457 -3.31614 3.15905 0
M  V30 2853 N 278.948 -3.39189 3.15445 0
M  V30 2854 C 279.683 -4.11992 3.98811 0
M  V30 2855 N 279.179 -4.87553 4.92203 0
M  V30 2856 N 280.972 -4.07762 3.86894 0
M  V30 2857 H 273.123 -0.669456 2.01574 0
M  V30 2858 H 275.386 -0.357482 0.878015 0
M  V30 2859 H 275.092 -1.85521 2.98789 0
M  V30 2860 H 274.966 -3.24466 1.92359 0
M  V30 2861 H 277.353 -2.75327 1.06202 0
M  V30 2862 H 277.434 -1.36884 2.16093 0
M  V30 2863 H 277.078 -2.94551 4.13766 0
M  V30 2864 H 277.008 -4.32186 3.0087 0
M  V30 2865 H 279.499 -2.85314 2.47799 0
M  V30 2866 H 279.812 -5.40549 5.52292 0
M  V30 2867 H 278.157 -4.86627 4.96205 0
M  V30 2868 H 281.348 -3.47833 3.13257 0
M  V30 2869 H 281.521 -4.64238 4.52092 0
M  V30 2870 N 274.927 -0.932562 -1.27047 0
M  V30 2871 C 275.859 -0.392734 -2.2581 0
M  V30 2872 C 276.872 0.479241 -1.55586 0
M  V30 2873 O 278.061 0.291078 -1.76111 0
M  V30 2874 C 275.161 0.455456 -3.35826 0
M  V30 2875 C 274.334 -0.398355 -4.35582 0
M  V30 2876 C 273.393 0.387985 -5.24768 0
M  V30 2877 O 272.419 -0.206003 -5.68827 0
M  V30 2878 N 273.621 1.68664 -5.55457 0
M  V30 2879 H 276.386 -1.24173 -2.72766 0
M  V30 2880 H 273.947 -0.800511 -1.40725 0
M  V30 2881 H 275.939 0.988692 -3.92437 0
M  V30 2882 H 274.509 1.20522 -2.88432 0
M  V30 2883 H 273.729 -1.11286 -3.78165 0
M  V30 2884 H 275.017 -0.981889 -4.99236 0
M  V30 2885 H 274.415 2.19147 -5.21528 0
M  V30 2886 H 272.972 2.1663 -6.14748 0
M  V30 2887 N 276.405 1.4127 -0.698611 0
M  V30 2888 C 277.335 2.33447 -0.049629 0
M  V30 2889 C 278.316 1.51982 0.763898 0
M  V30 2890 O 279.501 1.80509 0.716257 0
M  V30 2891 C 276.631 3.35828 0.885267 0
M  V30 2892 C 275.585 4.27627 0.178613 0
M  V30 2893 C 274.911 5.20406 1.22807 0
M  V30 2894 C 276.211 5.13459 -0.956933 0
M  V30 2895 H 277.905 2.87966 -0.81951 0
M  V30 2896 H 275.451 1.38461 -0.395538 0
M  V30 2897 H 277.404 3.9924 1.34854 0
M  V30 2898 H 276.128 2.79666 1.68685 0
M  V30 2899 H 274.787 3.65643 -0.26466 0
M  V30 2900 H 274.435 4.60558 2.02226 0
M  V30 2901 H 274.135 5.82661 0.760239 0
M  V30 2902 H 275.659 5.86695 1.69179 0
M  V30 2903 H 277.073 5.70421 -0.573805 0
M  V30 2904 H 275.47 5.8467 -1.35205 0
M  V30 2905 H 276.54 4.50443 -1.79524 0
M  V30 2906 N 277.883 0.443576 1.51229 0
M  V30 2907 C 279.131 -0.120557 2.0174 0
M  V30 2908 C 279.452 -1.42665 1.32935 0
M  V30 2909 O 278.722 -1.9028 0.465866 0
M  V30 2910 H 277.302 -0.0475426 0.745486 0
M  V30 2911 H 279.964 0.587711 1.85828 0
M  V30 2912 H 279.06 -0.291972 3.10731 0
M  V30 2913 N 279.361 -1.56624 0.175154 0
M  V30 2914 C 280.638 -1.88688 -0.515373 0
M  V30 2915 C 281.018 -1.08564 -1.81044 0
M  V30 2916 O 280.366 -0.180703 -2.27784 0
M  V30 2917 C 280.576 -3.40768 -0.753552 0
M  V30 2918 C 281.924 -4.10587 -1.08184 0
M  V30 2919 O 282.948 -3.46106 -0.841961 0
M  V30 2920 O 281.807 -5.24512 -1.53459 0
M  V30 2921 H 278.901 -0.78301 -0.26613 0
M  V30 2922 H 281.447 -1.68347 0.213877 0
M  V30 2923 H 280.219 -3.90965 0.161829 0
M  V30 2924 H 279.842 -3.66733 -1.53598 0
M  V30 2925 N 280.839 0.0985539 -1.57292 0
M  V30 2926 C 282.255 0.45267 -1.53046 0
M  V30 2927 C 282.455 1.80713 -0.891342 0
M  V30 2928 O 281.511 2.4785 -0.482375 0
M  V30 2929 C 282.824 0.418341 -2.97776 0
M  V30 2930 C 284.372 0.500443 -3.08973 0
M  V30 2931 C 284.847 0.496297 -4.55303 0
M  V30 2932 N 286.338 0.557151 -4.59837 0
M  V30 2933 C 287.073 0.575726 -5.70502 0
M  V30 2934 N 286.569 0.550714 -6.90608 0
M  V30 2935 N 288.362 0.620277 -5.58667 0
M  V30 2936 H 280.513 -0.788673 -1.97215 0
M  V30 2937 H 282.776 -0.293188 -0.901524 0
M  V30 2938 H 282.482 -0.509659 -3.47988 0
M  V30 2939 H 282.356 1.2386 -3.56284 0
M  V30 2940 H 284.743 1.41886 -2.58751 0
M  V30 2941 H 284.824 -0.347894 -2.53423 0
M  V30 2942 H 284.468 -0.418162 -5.06176 0
M  V30 2943 H 284.398 1.3618 -5.08687 0
M  V30 2944 H 286.889 0.581816 -3.73394 0
M  V30 2945 H 287.202 0.568075 -7.70709 0
M  V30 2946 H 285.547 0.517816 -6.93068 0
M  V30 2947 H 288.738 0.637322 -4.63741 0
M  V30 2948 H 288.911 0.631283 -6.44918 0
M  V30 2949 N 282.317 1.53212 0.369288 0
M  V30 2950 C 283.227 1.82342 1.47609 0
M  V30 2951 C 284.243 0.711532 1.58787 0
M  V30 2952 O 285.419 1.0012 1.74751 0
M  V30 2953 C 282.484 2.00393 2.8292 0
M  V30 2954 C 281.545 3.24297 2.81301 0
M  V30 2955 C 280.778 3.41478 4.10157 0
M  V30 2956 O 281.001 2.63033 5.06132 0
M  V30 2957 O 279.935 4.34817 4.16194 0
M  V30 2958 H 283.761 2.76366 1.25918 0
M  V30 2959 H 281.346 1.38547 0.559034 0
M  V30 2960 H 283.228 2.13859 3.63101 0
M  V30 2961 H 281.903 1.09559 3.04596 0
M  V30 2962 H 280.81 3.16257 1.99831 0
M  V30 2963 H 282.143 4.15041 2.64578 0
M  V30 2964 N 283.795 -0.628877 1.44509 0
M  V30 2965 C 284.742 -1.74074 1.51549 0
M  V30 2966 C 285.712 -1.62084 0.363021 0
M  V30 2967 O 286.897 -1.81975 0.573567 0
M  V30 2968 C 284.037 -3.12328 1.46784 0
M  V30 2969 C 283.15 -3.35277 2.72422 0
M  V30 2970 C 282.285 -4.63515 2.59475 0
M  V30 2971 C 281.324 -4.7965 3.80266 0
M  V30 2972 N 280.461 -5.99168 3.65981 0
M  V30 2973 H 285.301 -1.67392 2.46544 0
M  V30 2974 H 282.838 -0.816527 1.22357 0
M  V30 2975 H 284.796 -3.92286 1.42012 0
M  V30 2976 H 283.426 -3.18018 0.553544 0
M  V30 2977 H 282.478 -2.49242 2.87372 0
M  V30 2978 H 283.79 -3.43078 3.62076 0
M  V30 2979 H 282.944 -5.51638 2.52548 0
M  V30 2980 H 281.683 -4.58076 1.67384 0
M  V30 2981 H 280.688 -3.89957 3.87574 0
M  V30 2982 H 281.913 -4.86902 4.73395 0
M  V30 2983 H 279.859 -5.94814 2.76644 0
M  V30 2984 H 279.776 -6.08035 4.49254 0
M  V30 2985 H 281.044 -6.89846 3.6295 0
M  V30 2986 N 285.273 -1.31445 -0.869486 0
M  V30 2987 C 286.183 -1.21097 -2.0093 0
M  V30 2988 C 287.199 -0.127584 -1.73532 0
M  V30 2989 O 288.375 -0.345477 -1.98415 0
M  V30 2990 C 285.44 -0.919378 -3.34288 0
M  V30 2991 C 284.501 -2.08971 -3.75006 0
M  V30 2992 C 283.734 -1.81194 -5.02001 0
M  V30 2993 O 283.957 -0.747296 -5.65484 0
M  V30 2994 O 282.891 -2.66883 -5.39497 0
M  V30 2995 H 286.717 -2.16883 -2.12592 0
M  V30 2996 H 284.302 -1.11189 -0.997868 0
M  V30 2997 H 286.184 -0.772625 -4.14257 0
M  V30 2998 H 284.859 0.00844772 -3.23699 0
M  V30 2999 H 283.766 -2.29187 -2.95676 0
M  V30 3000 H 285.099 -2.9998 -3.90221 0
M  V30 3001 N 286.751 1.08385 -1.14413 0
M  V30 3002 C 287.681 2.17321 -0.854044 0
M  V30 3003 C 288.662 1.69024 0.191049 0
M  V30 3004 O 289.847 1.94141 0.0476779 0
M  V30 3005 C 286.977 3.45719 -0.330983 0
M  V30 3006 C 285.931 4.07409 -1.31155 0
M  V30 3007 C 285.257 5.30762 -0.64778 0
M  V30 3008 C 286.557 4.48665 -2.67388 0
M  V30 3009 H 288.251 2.41845 -1.76498 0
M  V30 3010 H 285.797 1.16233 -0.850051 0
M  V30 3011 H 287.75 4.21241 -0.115645 0
M  V30 3012 H 286.474 3.2075 0.615381 0
M  V30 3013 H 285.133 3.33919 -1.51306 0
M  V30 3014 H 284.781 5.02078 0.304398 0
M  V30 3015 H 284.481 5.72992 -1.30207 0
M  V30 3016 H 286.005 6.08998 -0.441972 0
M  V30 3017 H 287.419 5.15364 -2.51143 0
M  V30 3018 H 285.816 5.01814 -3.29093 0
M  V30 3019 H 286.886 3.60543 -3.24248 0
M  V30 3020 N 288.23 0.939286 1.26551 0
M  V30 3021 C 289.479 0.581601 1.93133 0
M  V30 3022 C 289.792 -0.883224 1.74524 0
M  V30 3023 O 290.998 -1.3502 2.35546 0
M  V30 3024 C 289.454 0.989425 3.46032 0
M  V30 3025 C 289.062 2.47573 3.73379 0
M  V30 3026 C 290.806 0.703544 4.18629 0
M  V30 3027 C 288.713 2.82235 5.19709 0
M  V30 3028 H 287.643 0.213803 0.723052 0
M  V30 3029 H 290.294 1.14167 1.4366 0
M  V30 3030 H 288.676 0.357902 3.94379 0
M  V30 3031 H 289.85 3.15614 3.35744 0
M  V30 3032 H 288.165 2.73471 3.1401 0
M  V30 3033 H 290.762 0.938869 5.26393 0
M  V30 3034 H 291.105 -0.359639 4.14744 0
M  V30 3035 H 291.638 1.2947 3.76141 0
M  V30 3036 H 288.377 3.87509 5.28694 0
M  V30 3037 H 287.897 2.18854 5.58447 0
M  V30 3038 H 289.576 2.70599 5.87695 0
M  V30 3039 N 289.708 -1.40897 0.706093 0
M  V30 3040 C 291.124 -1.55042 0.37869 0
M  V30 3041 C 291.324 -1.67944 -1.11342 0
M  V30 3042 O 290.38 -1.66372 -1.89938 0
M  V30 3043 C 291.693 -2.78398 1.13643 0
M  V30 3044 C 293.241 -2.92206 1.12181 0
M  V30 3045 C 293.716 -4.18463 1.86152 0
M  V30 3046 N 295.207 -4.25443 1.83173 0
M  V30 3047 C 295.942 -5.2202 2.37239 0
M  V30 3048 N 295.438 -6.24563 2.99821 0
M  V30 3049 N 297.231 -5.14033 2.27435 0
M  V30 3050 H 289.382 -1.30769 1.67372 0
M  V30 3051 H 291.645 -0.631653 0.706907 0
M  V30 3052 H 291.351 -2.7511 2.19106 0
M  V30 3053 H 291.225 -3.70228 0.721853 0
M  V30 3054 H 293.612 -2.95004 0.0754171 0
M  V30 3055 H 293.693 -2.01521 1.57554 0
M  V30 3056 H 293.337 -4.16427 2.90776 0
M  V30 3057 H 293.267 -5.08141 1.38206 0
M  V30 3058 H 295.758 -3.51976 1.37556 0
M  V30 3059 H 296.071 -6.94665 3.38616 0
M  V30 3060 H 294.416 -6.25035 3.03902 0
M  V30 3061 H 297.607 -4.3285 1.78208 0
M  V30 3062 H 297.78 -5.89129 2.69873 0
M  V30 3063 N 291.186 -0.45159 -1.50991 0
M  V30 3064 C 292.118 0.388634 -2.25881 0
M  V30 3065 C 293.131 0.974041 -1.30446 0
M  V30 3066 O 294.32 0.865758 -1.56099 0
M  V30 3067 C 291.42 1.5571 -3.01011 0
M  V30 3068 C 290.593 1.08801 -4.23652 0
M  V30 3069 C 289.652 2.12825 -4.8124 0
M  V30 3070 O 288.678 1.71678 -5.42693 0
M  V30 3071 N 289.88 3.45453 -4.66522 0
M  V30 3072 H 292.645 -0.25329 -2.98628 0
M  V30 3073 H 290.206 -0.281268 -1.59438 0
M  V30 3074 H 292.198 2.24952 -3.3642 0
M  V30 3075 H 290.768 2.10409 -2.31186 0
M  V30 3076 H 289.988 0.22215 -3.93574 0
M  V30 3077 H 291.276 0.752213 -5.03209 0
M  V30 3078 H 290.674 3.81605 -4.17605 0
M  V30 3079 H 289.231 4.10549 -5.06254 0
M  V30 3080 N 292.664 1.56529 -0.183458 0
M  V30 3081 C 293.627 2.17324 0.728223 0
M  V30 3082 C 294.627 1.12453 1.14939 0
M  V30 3083 O 295.817 1.37902 1.06437 0
M  V30 3084 C 292.949 2.76591 1.99274 0
M  V30 3085 H 294.142 2.99241 0.198772 0
M  V30 3086 H 291.695 1.5616 0.0661391 0
M  V30 3087 H 292.43 1.98441 2.56499 0
M  V30 3088 H 292.215 3.5335 1.69959 0
M  V30 3089 H 293.705 3.23311 2.6431 0
M  V30 3090 N 294.142 -0.090211 1.57342 0
M  V30 3091 C 295.105 -1.09335 2.01441 0
M  V30 3092 C 296.105 -1.32666 0.908641 0
M  V30 3093 O 297.295 -1.28697 1.174 0
M  V30 3094 C 294.427 -2.44136 2.3793 0
M  V30 3095 H 295.62 -0.713662 2.91285 0
M  V30 3096 H 293.173 -0.335404 1.52659 0
M  V30 3097 H 293.908 -2.86972 1.51055 0
M  V30 3098 H 293.693 -2.28548 3.18603 0
M  V30 3099 H 295.183 -3.16277 2.72688 0
M  V30 3100 N 295.62 -1.53406 -0.361157 0
M  V30 3101 C 296.55 -1.83136 -1.44857 0
M  V30 3102 C 297.531 -0.685174 -1.5569 0
M  V30 3103 O 298.716 -0.93544 -1.70186 0
M  V30 3104 C 295.846 -2.02522 -2.82138 0
M  V30 3105 C 294.8 -3.18302 -2.86126 0
M  V30 3106 C 294.126 -3.22989 -4.26125 0
M  V30 3107 C 295.426 -4.56796 -2.53248 0
M  V30 3108 H 297.12 -2.74201 -1.20226 0
M  V30 3109 H 294.666 -1.31938 -0.576922 0
M  V30 3110 H 296.619 -2.21904 -3.58241 0
M  V30 3111 H 295.343 -1.08172 -3.08166 0
M  V30 3112 H 294.002 -2.98747 -2.12475 0
M  V30 3113 H 293.65 -2.26267 -4.49235 0
M  V30 3114 H 293.35 -4.00781 -4.29708 0
M  V30 3115 H 294.874 -3.44559 -5.04094 0
M  V30 3116 H 296.288 -4.7631 -3.19064 0
M  V30 3117 H 294.685 -5.36862 -2.68141 0
M  V30 3118 H 295.755 -4.61606 -1.48484 0
M  V30 3119 N 297.098 0.621204 -1.44841 0
M  V30 3120 C 298.03 1.74615 -1.48466 0
M  V30 3121 C 299.043 1.58377 -0.37691 0
M  V30 3122 O 300.232 1.66508 -0.643215 0
M  V30 3123 C 297.332 3.12459 -1.31236 0
M  V30 3124 C 296.505 3.55064 -2.55438 0
M  V30 3125 C 295.564 4.71821 -2.32963 0
M  V30 3126 O 294.59 4.79628 -3.06505 0
M  V30 3127 N 295.792 5.64186 -1.36654 0
M  V30 3128 H 298.557 1.71973 -2.45449 0
M  V30 3129 H 296.118 0.806077 -1.40407 0
M  V30 3130 H 298.11 3.88302 -1.14032 0
M  V30 3131 H 296.68 3.09686 -0.4258 0
M  V30 3132 H 295.9 2.69324 -2.87851 0
M  V30 3133 H 297.188 3.80284 -3.38026 0
M  V30 3134 H 296.586 5.6058 -0.759344 0
M  V30 3135 H 295.143 6.39618 -1.25425 0
M  V30 3136 N 298.576 1.31904 0.862503 0
M  V30 3137 C 299.508 1.16005 1.97675 0
M  V30 3138 C 300.521 0.0971234 1.6251 0
M  V30 3139 O 301.71 0.345337 1.75128 0
M  V30 3140 C 298.81 0.751791 3.30456 0
M  V30 3141 C 297.983 1.90133 3.93914 0
M  V30 3142 C 297.042 1.4779 5.05019 0
M  V30 3143 O 296.068 2.18872 5.25437 0
M  V30 3144 N 297.27 0.369491 5.79323 0
M  V30 3145 H 300.035 2.11982 2.11857 0
M  V30 3146 H 297.596 1.24337 1.03691 0
M  V30 3147 H 299.588 0.451084 4.02178 0
M  V30 3148 H 298.158 -0.116593 3.12382 0
M  V30 3149 H 297.378 2.36896 3.15078 0
M  V30 3150 H 298.666 2.67111 4.33047 0
M  V30 3151 H 298.064 -0.222299 5.65263 0
M  V30 3152 H 296.621 0.128354 6.51674 0
M  V30 3153 N 300.054 -1.07777 1.14986 0
M  V30 3154 C 301.282 -1.84018 0.945773 0
M  V30 3155 C 301.697 -1.81897 -0.505863 0
M  V30 3156 O 301.054 -1.22726 -1.35072 0
M  V30 3157 C 301.105 -3.31287 1.44677 0
M  V30 3158 O 300.826 -3.33449 2.84154 0
M  V30 3159 C 302.327 -4.24311 1.28355 0
M  V30 3160 H 299.547 -0.580716 0.336169 0
M  V30 3161 H 302.091 -1.36077 1.52654 0
M  V30 3162 H 300.246 -3.76594 0.908625 0
M  V30 3163 H 300.66 -4.25427 3.06777 0
M  V30 3164 H 302.134 -5.2573 1.68261 0
M  V30 3165 H 302.611 -4.38612 0.227184 0
M  V30 3166 H 303.217 -3.84836 1.81056 0
M  V30 3167 N 301.532 -0.945985 -1.26051 0
M  V30 3168 C 302.479 -0.45809 -2.26208 0
M  V30 3169 C 303.449 0.484816 -1.58867 0
M  V30 3170 O 304.634 0.399969 -1.86561 0
M  V30 3171 C 301.774 0.266131 -3.44072 0
M  V30 3172 C 300.887 -0.713005 -4.26075 0
M  V30 3173 C 300.022 0.0329013 -5.3119 0
M  V30 3174 C 299.061 -0.93774 -6.04874 0
M  V30 3175 N 298.198 -0.223274 -7.01745 0
M  V30 3176 H 303.038 -1.3171 -2.67313 0
M  V30 3177 H 300.575 -0.66069 -1.31428 0
M  V30 3178 H 302.533 0.702514 -4.11243 0
M  V30 3179 H 301.163 1.08925 -3.03867 0
M  V30 3180 H 300.215 -1.26789 -3.58648 0
M  V30 3181 H 301.527 -1.45406 -4.77136 0
M  V30 3182 H 300.681 0.528335 -6.04395 0
M  V30 3183 H 299.42 0.806801 -4.8098 0
M  V30 3184 H 298.425 -1.44425 -5.30492 0
M  V30 3185 H 299.65 -1.71172 -6.57173 0
M  V30 3186 H 297.596 0.532046 -6.53839 0
M  V30 3187 H 297.513 -0.90357 -7.50581 0
M  V30 3188 H 298.781 0.250907 -7.79096 0
M  V30 3189 N 303.011 1.40521 -0.713556 0
M  V30 3190 C 303.921 2.34522 -0.0606667 0
M  V30 3191 C 304.937 1.57193 0.74607 0
M  V30 3192 O 306.113 1.89591 0.679493 0
M  V30 3193 C 303.178 3.36081 0.851491 0
M  V30 3194 C 302.239 4.29286 0.0349339 0
M  V30 3195 C 301.472 5.25994 0.903649 0
M  V30 3196 O 301.695 5.28616 2.14292 0
M  V30 3197 O 300.629 6.00918 0.343723 0
M  V30 3198 H 304.455 2.91968 -0.835972 0
M  V30 3199 H 302.04 1.41681 -0.47402 0
M  V30 3200 H 303.922 3.98369 1.37404 0
M  V30 3201 H 302.597 2.81052 1.60598 0
M  V30 3202 H 301.504 3.70289 -0.532633 0
M  V30 3203 H 302.837 4.87462 -0.681287 0
M  V30 3204 N 304.489 0.459591 1.5075 0
M  V30 3205 C 305.422 -0.386257 2.24907 0
M  V30 3206 C 306.4 -1.006 1.27744 0
M  V30 3207 O 307.584 -1.04416 1.56938 0
M  V30 3208 C 304.711 -1.54021 3.01654 0
M  V30 3209 C 303.757 -1.03898 4.13651 0
M  V30 3210 S 304.59 0.0370501 5.35487 0
M  V30 3211 C 305.746 -1.12105 6.15779 0
M  V30 3212 H 305.979 0.243272 2.96303 0
M  V30 3213 H 303.512 0.244339 1.52454 0
M  V30 3214 H 305.47 -2.20163 3.46466 0
M  V30 3215 H 304.131 -2.14121 2.29806 0
M  V30 3216 H 303.324 -1.90254 4.66711 0
M  V30 3217 H 302.926 -0.45545 3.71216 0
M  V30 3218 H 305.218 -2.03501 6.46215 0
M  V30 3219 H 306.161 -0.62995 7.05292 0
M  V30 3220 H 306.569 -1.36967 5.47631 0
M  V30 3221 N 305.967 -1.56429 0.191757 0
M  V30 3222 C 307.244 -1.89224 -0.495332 0
M  V30 3223 C 307.624 -1.10478 -1.79883 0
M  V30 3224 O 306.972 -0.204852 -2.2758 0
M  V30 3225 C 307.182 -3.41548 -0.717367 0
M  V30 3226 C 308.53 -4.11711 -1.03823 0
M  V30 3227 O 309.554 -3.4698 -0.805204 0
M  V30 3228 O 308.413 -5.2611 -1.47887 0
M  V30 3229 H 305.507 -0.785788 -0.25781 0
M  V30 3230 H 308.053 -1.68111 0.231721 0
M  V30 3231 H 306.825 -3.90772 0.203287 0
M  V30 3232 H 306.448 -3.68342 -1.497 0
M  V30 3233 N 307.445 0.0818655 -1.57387 0
M  V30 3234 C 308.375 1.09885 -2.06028 0
M  V30 3235 C 309.356 1.4098 -0.951774 0
M  V30 3236 O 310.541 1.50781 -1.22387 0
M  V30 3237 C 307.671 2.4151 -2.4958 0
M  V30 3238 C 306.625 2.24792 -3.64215 0
M  V30 3239 C 305.951 3.61712 -3.93787 0
M  V30 3240 C 307.251 1.67749 -4.94629 0
M  V30 3241 H 308.945 0.694128 -2.91243 0
M  V30 3242 H 306.491 0.332448 -1.4011 0
M  V30 3243 H 308.444 3.12939 -2.82219 0
M  V30 3244 H 307.168 2.83943 -1.61381 0
M  V30 3245 H 305.827 1.55807 -3.31843 0
M  V30 3246 H 305.475 4.01697 -3.02735 0
M  V30 3247 H 305.175 3.51368 -4.70971 0
M  V30 3248 H 306.699 4.34587 -4.28913 0
M  V30 3249 H 308.113 2.29032 -5.25564 0
M  V30 3250 H 306.51 1.68128 -5.76067 0
M  V30 3251 H 307.58 0.638059 -4.80684 0
M  V30 3252 N 308.923 1.53595 0.353017 0
M  V30 3253 C 310.148 1.7462 1.11904 0
M  V30 3254 C 310.573 0.479721 1.8188 0
M  V30 3255 O 309.931 -0.567066 1.72204 0
M  V30 3256 C 309.979 2.92029 2.11545 0
M  V30 3257 O 309.083 2.61516 3.18878 0
M  V30 3258 H 308.424 0.579531 0.324099 0
M  V30 3259 H 310.954 2.00525 0.406301 0
M  V30 3260 H 310.964 3.18551 2.5493 0
M  V30 3261 H 309.639 3.83888 1.60008 0
M  V30 3262 H 308.216 2.45852 2.80377 0
M  V30 3263 N 310.401 -0.613514 1.45168 0
M  V30 3264 C 311.647 -1.37471 1.49096 0
M  V30 3265 C 311.98 -1.93765 0.129901 0
M  V30 3266 O 311.255 -1.74707 -0.854858 0
M  V30 3267 C 311.538 -2.52701 2.56542 0
M  V30 3268 C 311.391 -2.01643 4.0207 0
M  V30 3269 C 312.71 -3.54849 2.60327 0
M  V30 3270 H 309.829 -0.498502 0.54283 0
M  V30 3271 H 312.471 -0.692125 1.76945 0
M  V30 3272 H 310.621 -3.10931 2.32926 0
M  V30 3273 H 312.293 -1.48108 4.36877 0
M  V30 3274 H 310.536 -1.32688 4.13009 0
M  V30 3275 H 311.207 -2.84681 4.72928 0
M  V30 3276 H 313.683 -3.0645 2.81474 0
M  V30 3277 H 312.559 -4.32973 3.37381 0
M  V30 3278 H 312.82 -4.10079 1.6519 0
M  V30 3279 N 311.879 -1.3236 -0.855495 0
M  V30 3280 C 313.125 -1.23054 -1.612 0
M  V30 3281 C 313.458 0.207404 -1.93089 0
M  V30 3282 O 312.733 1.14432 -1.57275 0
M  V30 3283 C 313.016 -2.08937 -2.93287 0
M  V30 3284 C 312.869 -3.61105 -2.68185 0
M  V30 3285 C 314.188 -1.94986 -3.94549 0
M  V30 3286 H 311.307 -0.448364 -0.584926 0
M  V30 3287 H 313.949 -1.62297 -0.987917 0
M  V30 3288 H 312.099 -1.75599 -3.46551 0
M  V30 3289 H 313.771 -4.04652 -2.21483 0
M  V30 3290 H 312.014 -3.83813 -2.02164 0
M  V30 3291 H 312.685 -4.16522 -3.62234 0
M  V30 3292 H 315.161 -2.24189 -3.5054 0
M  V30 3293 H 314.037 -2.57356 -4.84829 0
M  V30 3294 H 314.298 -0.917263 -4.3248 0
M  V30 3295 N 313.357 1.07166 -1.15556 0
M  V30 3296 C 314.773 1.31899 -0.898603 0
M  V30 3297 C 314.973 1.96333 0.453383 0
M  V30 3298 O 314.029 2.22438 1.19489 0
M  V30 3299 C 315.342 2.20826 -2.04099 0
M  V30 3300 C 316.89 2.34269 -2.07574 0
M  V30 3301 C 317.365 3.26546 -3.21141 0
M  V30 3302 N 318.856 3.34127 -3.20801 0
M  V30 3303 C 319.591 4.05595 -4.05315 0
M  V30 3304 N 319.087 4.79661 -4.99897 0
M  V30 3305 N 320.88 4.01555 -3.93332 0
M  V30 3306 H 313.031 0.637302 -2.02613 0
M  V30 3307 H 315.294 0.343468 -0.883591 0
M  V30 3308 H 315 1.80744 -3.01703 0
M  V30 3309 H 314.874 3.21364 -1.97496 0
M  V30 3310 H 317.261 2.73603 -1.10568 0
M  V30 3311 H 317.342 1.33429 -2.18244 0
M  V30 3312 H 316.986 2.87931 -4.184 0
M  V30 3313 H 316.916 4.27345 -3.07708 0
M  V30 3314 H 319.407 2.81336 -2.52306 0
M  V30 3315 H 319.72 5.31694 -5.60822 0
M  V30 3316 H 318.065 4.78671 -5.03884 0
M  V30 3317 H 321.256 3.42806 -3.18751 0
M  V30 3318 H 321.429 4.56987 -4.5942 0
M  V30 3319 N 314.835 0.952656 1.25548 0
M  V30 3320 C 315.765 0.489287 2.28316 0
M  V30 3321 C 316.746 -0.463359 1.63667 0
M  V30 3322 O 317.931 -0.36274 1.90782 0
M  V30 3323 C 315.061 -0.235603 3.465 0
M  V30 3324 C 314.015 0.631593 4.23314 0
M  V30 3325 C 313.341 -0.223923 5.34231 0
M  V30 3326 C 314.641 1.90871 4.86174 0
M  V30 3327 H 316.335 1.34822 2.67326 0
M  V30 3328 H 313.881 0.649728 1.28509 0
M  V30 3329 H 315.834 -0.570882 4.17515 0
M  V30 3330 H 314.558 -1.12877 3.06474 0
M  V30 3331 H 313.217 0.949929 3.54079 0
M  V30 3332 H 312.865 -1.11678 4.90446 0
M  V30 3333 H 312.565 0.35299 5.86539 0
M  V30 3334 H 314.089 -0.554214 6.0808 0
M  V30 3335 H 315.503 1.63997 5.49343 0
M  V30 3336 H 313.9 2.43112 5.4865 0
M  V30 3337 H 314.97 2.61304 4.08471 0
M  V30 3338 N 316.313 -1.40141 0.720998 0
M  V30 3339 C 317.246 -2.2819 0.020916 0
M  V30 3340 C 318.224 -1.43633 -0.762129 0
M  V30 3341 O 319.408 -1.7304 -0.747633 0
M  V30 3342 C 316.535 -3.24281 -0.977715 0
M  V30 3343 C 315.581 -4.25548 -0.284836 0
M  V30 3344 S 316.414 -5.26247 0.991169 0
M  V30 3345 C 317.57 -6.259 -0.0052214 0
M  V30 3346 H 317.803 -2.87218 0.767649 0
M  V30 3347 H 315.336 -1.45656 0.512233 0
M  V30 3348 H 317.294 -3.80167 -1.54865 0
M  V30 3349 H 315.955 -2.643 -1.69719 0
M  V30 3350 H 315.148 -4.93154 -1.03996 0
M  V30 3351 H 314.75 -3.73389 0.213684 0
M  V30 3352 H 317.042 -6.72143 -0.850279 0
M  V30 3353 H 317.985 -7.05224 0.637599 0
M  V30 3354 H 318.393 -5.63277 -0.371366 0
M  V30 3355 N 317.792 -0.46758 -1.50504 0
M  V30 3356 C 319.039 0.0886219 -2.02306 0
M  V30 3357 C 319.367 1.40037 -1.34981 0
M  V30 3358 O 318.622 1.90136 -0.463318 0
M  V30 3359 C 318.921 0.323995 -3.55928 0
M  V30 3360 C 318.587 -0.905618 -4.41712 0
M  V30 3361 C 317.249 -1.24275 -4.64875 0
M  V30 3362 C 319.601 -1.72448 -4.91845 0
M  V30 3363 C 316.929 -2.39888 -5.35417 0
M  V30 3364 C 319.281 -2.87185 -5.63656 0
M  V30 3365 C 317.945 -3.21317 -5.85074 0
M  V30 3366 H 317.215 0.0324291 -0.74029 0
M  V30 3367 H 319.862 -0.620945 -1.81153 0
M  V30 3368 H 318.167 1.11577 -3.75577 0
M  V30 3369 H 319.864 0.76826 -3.93572 0
M  V30 3370 H 316.454 -0.632956 -4.239 0
M  V30 3371 H 320.638 -1.4772 -4.73806 0
M  V30 3372 H 315.894 -2.66611 -5.50208 0
M  V30 3373 H 320.068 -3.50985 -6.01484 0
M  V30 3374 H 317.695 -4.1101 -6.39511 0
M  V30 3375 N 319.27 1.56325 -0.20005 0
M  V30 3376 C 320.498 2.02105 0.442874 0
M  V30 3377 C 320.913 1.08014 1.5485 0
M  V30 3378 O 320.27 0.0858797 1.82298 0
M  V30 3379 C 320.321 3.47549 0.994583 0
M  V30 3380 O 320.042 4.38049 -0.0669322 0
M  V30 3381 C 321.543 4.0887 1.7129 0
M  V30 3382 H 318.763 0.661807 0.110691 0
M  V30 3383 H 321.307 2.02134 -0.310207 0
M  V30 3384 H 319.462 3.48204 1.69803 0
M  V30 3385 H 319.876 5.23368 0.344462 0
M  V30 3386 H 321.35 5.12475 2.05118 0
M  V30 3387 H 321.827 3.52615 2.61838 0
M  V30 3388 H 322.433 4.12002 1.05518 0
M  V30 3389 N 320.748 -0.0735177 1.57428 0
M  V30 3390 C 321.711 -1.07192 2.02589 0
M  V30 3391 C 322.711 -1.31695 0.922661 0
M  V30 3392 O 323.901 -1.27445 1.18758 0
M  V30 3393 C 321.033 -2.41599 2.40506 0
M  V30 3394 H 322.226 -0.682727 2.92025 0
M  V30 3395 H 319.779 -0.319193 1.53006 0
M  V30 3396 H 320.514 -2.85354 1.5409 0
M  V30 3397 H 320.299 -2.25156 3.21009 0
M  V30 3398 H 321.789 -3.13367 2.76027 0
M  V30 3399 N 322.226 -1.5378 -0.344866 0
M  V30 3400 C 323.473 -1.70963 -1.08526 0
M  V30 3401 C 323.801 -0.472126 -1.88683 0
M  V30 3402 O 323.056 0.546116 -1.87926 0
M  V30 3403 C 323.355 -2.92407 -2.05506 0
M  V30 3404 C 323.021 -4.28066 -1.41671 0
M  V30 3405 C 321.683 -4.64951 -1.2399 0
M  V30 3406 C 324.035 -5.12344 -0.956726 0
M  V30 3407 C 321.363 -5.83733 -0.589277 0
M  V30 3408 C 323.715 -6.3179 -0.320015 0
M  V30 3409 C 322.379 -6.67372 -0.130881 0
M  V30 3410 H 321.649 -0.625598 -0.397124 0
M  V30 3411 H 324.296 -1.87995 -0.36469 0
M  V30 3412 H 322.601 -2.69973 -2.8394 0
M  V30 3413 H 324.298 -3.02895 -2.62784 0
M  V30 3414 H 320.888 -3.99034 -1.56429 0
M  V30 3415 H 325.072 -4.8438 -1.08118 0
M  V30 3416 H 320.328 -6.09877 -0.431344 0
M  V30 3417 H 324.502 -6.96386 0.0445072 0
M  V30 3418 H 322.129 -7.59273 0.375318 0
M  V30 3419 N 323.704 0.605807 -1.45491 0
M  V30 3420 C 324.634 1.72709 -1.57143 0
M  V30 3421 C 325.615 1.6476 -0.422884 0
M  V30 3422 O 326.8 1.83132 -0.646247 0
M  V30 3423 C 323.93 3.11316 -1.53948 0
M  V30 3424 C 322.884 3.34077 -2.67537 0
M  V30 3425 C 322.21 4.72975 -2.49397 0
M  V30 3426 C 323.51 3.24158 -4.09535 0
M  V30 3427 H 325.204 1.63214 -2.51001 0
M  V30 3428 H 322.75 0.78379 -1.208 0
M  V30 3429 H 324.703 3.89557 -1.60696 0
M  V30 3430 H 323.427 3.21655 -0.566205 0
M  V30 3431 H 322.086 2.58227 -2.6022 0
M  V30 3432 H 321.734 4.8005 -1.50205 0
M  V30 3433 H 321.434 4.8916 -3.25571 0
M  V30 3434 H 322.958 5.53414 -2.58002 0
M  V30 3435 H 324.372 3.92271 -4.18086 0
M  V30 3436 H 322.769 3.51872 -4.86113 0
M  V30 3437 H 323.839 2.2157 -4.31317 0
M  V30 3438 N 325.182 1.32811 0.848464 0
M  V30 3439 C 326.593 1.21315 1.41914 0
M  V30 3440 C 326.944 -0.171847 1.95446 0
M  V30 3441 O 326.069 -1.07093 1.88043 0
M  V30 3442 C 326.664 2.19631 2.57968 0
M  V30 3443 C 325.223 2.12003 3.11017 0
M  V30 3444 C 324.37 2.07651 1.83783 0
M  V30 3445 H 327.321 1.44549 0.655071 0
M  V30 3446 H 327.342 1.79845 3.35315 0
M  V30 3447 H 326.854 3.20423 2.18976 0
M  V30 3448 H 324.955 1.14481 3.54577 0
M  V30 3449 H 325.068 3.02111 3.71841 0
M  V30 3450 H 323.432 1.52983 2.03638 0
M  V30 3451 H 324.215 3.10235 1.47 0
M  V30 3452 N 326.66 -1.06551 1.16123 0
M  V30 3453 C 327.937 -1.76097 0.85142 0
M  V30 3454 C 328.317 -2.00802 -0.6513 0
M  V30 3455 O 327.665 -1.63302 -1.59827 0
M  V30 3456 C 327.875 -3.06384 1.67122 0
M  V30 3457 C 329.223 -3.80585 1.88255 0
M  V30 3458 O 330.247 -3.16218 1.63966 0
M  V30 3459 O 329.106 -4.96212 2.2899 0
M  V30 3460 H 326.2 -0.765102 0.313923 0
M  V30 3461 H 328.746 -1.12844 1.26745 0
M  V30 3462 H 327.518 -2.84071 2.69108 0
M  V30 3463 H 327.141 -3.77371 1.25206 0
M  V30 3464 N 328.138 -0.959301 -1.25041 0
M  V30 3465 C 329.363 -0.633507 -1.97488 0
M  V30 3466 C 329.788 0.788555 -1.70773 0
M  V30 3467 O 329.146 1.53394 -0.966431 0
M  V30 3468 C 329.194 -0.904057 -3.49083 0
M  V30 3469 O 328.298 0.0147939 -4.12397 0
M  V30 3470 H 327.639 -0.240368 -0.618966 0
M  V30 3471 H 330.169 -1.28717 -1.59038 0
M  V30 3472 H 330.179 -0.832203 -3.99423 0
M  V30 3473 H 328.854 -1.94048 -3.67856 0
M  V30 3474 H 327.431 -0.109664 -3.72739 0
M  V30 3475 N 329.616 1.39756 -0.72842 0
M  V30 3476 C 330.844 2.04948 -0.283528 0
M  V30 3477 C 331.259 1.54908 1.0793 0
M  V30 3478 O 330.616 0.711135 1.68075 0
M  V30 3479 C 330.667 3.60498 -0.268957 0
M  V30 3480 O 330.388 4.08695 -1.57798 0
M  V30 3481 C 331.889 4.4288 0.192912 0
M  V30 3482 H 329.109 0.659243 -0.125056 0
M  V30 3483 H 331.653 1.78927 -0.990226 0
M  V30 3484 H 329.808 3.85444 0.388801 0
M  V30 3485 H 330.222 5.02977 -1.48709 0
M  V30 3486 H 331.696 5.51791 0.151952 0
M  V30 3487 H 332.173 4.21418 1.23708 0
M  V30 3488 H 332.779 4.23069 -0.435039 0
M  V30 3489 N 331.094 0.475555 1.50254 0
M  V30 3490 C 332.342 -0.077738 2.0195 0
M  V30 3491 C 332.663 -1.39813 1.35931 0
M  V30 3492 O 331.933 -1.89249 0.506123 0
M  V30 3493 H 330.513 -0.031719 0.746326 0
M  V30 3494 H 333.175 0.626995 1.84539 0
M  V30 3495 H 332.271 -0.225995 3.11281 0
M  V30 3496 N 332.573 -1.56217 0.208337 0
M  V30 3497 C 333.798 -2.02782 -0.435222 0
M  V30 3498 C 334.223 -1.08738 -1.53485 0
M  V30 3499 O 333.581 -0.0731855 -1.81152 0
M  V30 3500 C 333.629 -3.47687 -0.956335 0
M  V30 3501 O 332.733 -3.56773 -2.06849 0
M  V30 3502 H 332.074 -0.656403 -0.100158 0
M  V30 3503 H 334.604 -2.02033 0.3231 0
M  V30 3504 H 334.614 -3.87745 -1.26955 0
M  V30 3505 H 333.289 -4.15624 -0.15143 0
M  V30 3506 H 331.866 -3.28597 -1.76292 0
M  V30 3507 N 334.051 0.0651679 -1.57465 0
M  V30 3508 C 335.298 0.763063 -1.87573 0
M  V30 3509 C 335.626 1.77242 -0.800961 0
M  V30 3510 O 334.881 1.94651 0.202316 0
M  V30 3511 C 335.18 1.50081 -3.24362 0
M  V30 3512 C 334.846 0.630816 -4.46466 0
M  V30 3513 C 333.508 0.391082 -4.79608 0
M  V30 3514 C 335.86 0.0279465 -5.21193 0
M  V30 3515 C 333.188 -0.460894 -5.84887 0
M  V30 3516 C 335.54 -0.811522 -6.27373 0
M  V30 3517 C 334.204 -1.06106 -6.59013 0
M  V30 3518 H 333.474 0.279224 -0.686378 0
M  V30 3519 H 336.121 0.0236726 -1.91485 0
M  V30 3520 H 334.426 2.31258 -3.16271 0
M  V30 3521 H 336.123 2.04571 -3.44894 0
M  V30 3522 H 332.713 0.8278 -4.2053 0
M  V30 3523 H 336.897 0.200262 -4.95896 0
M  V30 3524 H 332.153 -0.662907 -6.07796 0
M  V30 3525 H 336.327 -1.28537 -6.84435 0
M  V30 3526 H 333.954 -1.723 -7.40417 0
M  V30 3527 N 335.529 1.53961 0.336706 0
M  V30 3528 C 336.757 1.75483 1.09605 0
M  V30 3529 C 337.172 0.4972 1.82136 0
M  V30 3530 O 336.529 -0.53149 1.74589 0
M  V30 3531 C 336.58 2.93943 2.10428 0
M  V30 3532 O 336.301 4.14842 1.40846 0
M  V30 3533 C 337.802 3.27571 2.98684 0
M  V30 3534 H 335.022 0.586166 0.326574 0
M  V30 3535 H 337.566 2.00808 0.38683 0
M  V30 3536 H 335.721 2.70929 2.76905 0
M  V30 3537 H 336.135 4.81383 2.08255 0
M  V30 3538 H 337.609 4.13791 3.6535 0
M  V30 3539 H 338.086 2.44168 3.65074 0
M  V30 3540 H 338.692 3.52615 2.37787 0
M  V30 3541 N 337.007 -0.598083 1.45811 0
M  V30 3542 C 338.423 -0.919847 1.30426 0
M  V30 3543 C 338.623 -1.99759 0.264303 0
M  V30 3544 O 337.679 -2.50221 -0.338472 0
M  V30 3545 C 338.992 -1.35176 2.68603 0
M  V30 3546 C 340.54 -1.46546 2.76574 0
M  V30 3547 C 341.015 -1.9311 4.15298 0
M  V30 3548 N 342.506 -2.00328 4.1764 0
M  V30 3549 C 343.241 -2.37599 5.21856 0
M  V30 3550 N 342.737 -2.73771 6.36413 0
M  V30 3551 N 344.53 -2.38021 5.09218 0
M  V30 3552 H 336.681 0.114111 2.12093 0
M  V30 3553 H 338.944 -0.0116121 0.947929 0
M  V30 3554 H 338.65 -0.633969 3.45939 0
M  V30 3555 H 338.524 -2.3164 2.97696 0
M  V30 3556 H 340.911 -2.17415 1.99537 0
M  V30 3557 H 340.992 -0.483727 2.51185 0
M  V30 3558 H 340.636 -1.22824 4.92825 0
M  V30 3559 H 340.566 -2.92213 4.38086 0
M  V30 3560 H 343.057 -1.74925 3.34977 0
M  V30 3561 H 343.37 -3.0112 7.11721 0
M  V30 3562 H 341.715 -2.71445 6.39799 0
M  V30 3563 H 344.906 -2.09174 4.18765 0
M  V30 3564 H 345.079 -2.66741 5.90554 0
M  V30 3565 N 338.485 -1.33259 -0.841409 0
M  V30 3566 C 339.901 -1.12538 -1.13169 0
M  V30 3567 C 340.101 0.0854037 -2.01319 0
M  V30 3568 O 339.157 0.766417 -2.40587 0
M  V30 3569 C 340.47 -2.41156 -1.79623 0
M  V30 3570 C 342.018 -2.47038 -1.922 0
M  V30 3571 C 342.493 -3.7561 -2.6207 0
M  V30 3572 N 343.984 -3.76667 -2.69585 0
M  V30 3573 C 344.719 -4.72861 -3.2433 0
M  V30 3574 N 344.215 -5.79428 -3.79783 0
M  V30 3575 N 346.008 -4.6034 -3.22558 0
M  V30 3576 H 338.159 -2.10868 -0.254676 0
M  V30 3577 H 340.422 -0.931615 -0.175493 0
M  V30 3578 H 340.128 -3.29747 -1.22311 0
M  V30 3579 H 340.002 -2.53114 -2.79666 0
M  V30 3580 H 342.389 -1.58898 -2.48667 0
M  V30 3581 H 342.47 -2.39022 -0.911148 0
M  V30 3582 H 342.114 -4.64131 -2.06263 0
M  V30 3583 H 342.044 -3.80902 -3.63622 0
M  V30 3584 H 344.535 -2.99648 -2.30259 0
M  V30 3585 H 344.848 -6.48867 -4.19752 0
M  V30 3586 H 343.193 -5.83166 -3.78078 0
M  V30 3587 H 346.384 -3.76244 -2.78492 0
M  V30 3588 H 346.557 -5.35478 -3.64921 0
M  V30 3589 N 339.963 1.05934 -1.16686 0
M  V30 3590 C 340.893 2.1546 -0.899949 0
M  V30 3591 C 341.874 1.69391 0.155154 0
M  V30 3592 O 343.059 1.94199 0.00648693 0
M  V30 3593 C 340.189 3.44939 -0.404241 0
M  V30 3594 C 339.143 4.04536 -1.39767 0
M  V30 3595 C 338.469 5.29268 -0.760216 0
M  V30 3596 C 339.769 4.42893 -2.76845 0
M  V30 3597 H 341.463 2.38046 -1.81588 0
M  V30 3598 H 339.009 1.14404 -0.874514 0
M  V30 3599 H 340.962 4.20901 -0.204971 0
M  V30 3600 H 339.686 3.21983 0.547206 0
M  V30 3601 H 338.345 3.30635 -1.58355 0
M  V30 3602 H 337.993 5.02611 0.197831 0
M  V30 3603 H 337.693 5.70101 -1.42332 0
M  V30 3604 H 339.217 6.07924 -0.57105 0
M  V30 3605 H 340.631 5.09921 -2.62019 0
M  V30 3606 H 339.028 4.94721 -3.39663 0
M  V30 3607 H 340.098 3.53584 -3.31823 0
M  V30 3608 N 341.441 0.965919 1.2453 0
M  V30 3609 C 342.351 0.502154 2.29163 0
M  V30 3610 C 343.367 -0.436017 1.68448 0
M  V30 3611 O 344.543 -0.309497 1.99008 0
M  V30 3612 C 341.608 -0.201956 3.46111 0
M  V30 3613 C 340.669 0.775821 4.22232 0
M  V30 3614 C 339.902 0.105217 5.33596 0
M  V30 3615 O 340.125 -1.10683 5.59558 0
M  V30 3616 O 339.059 0.796475 5.96607 0
M  V30 3617 H 342.885 1.37194 2.70946 0
M  V30 3618 H 340.47 0.732875 1.30189 0
M  V30 3619 H 342.352 -0.597564 4.17142 0
M  V30 3620 H 341.027 -1.04673 3.06309 0
M  V30 3621 H 339.934 1.22185 3.53584 0
M  V30 3622 H 341.267 1.58896 4.65846 0
M  V30 3623 N 342.919 -1.39368 0.735821 0
M  V30 3624 C 344.33 -1.83313 0.354015 0
M  V30 3625 C 344.681 -1.61461 -1.11466 0
M  V30 3626 O 343.806 -1.10621 -1.85989 0
M  V30 3627 C 344.401 -3.32781 0.635769 0
M  V30 3628 C 342.96 -3.75142 0.307448 0
M  V30 3629 C 342.107 -2.62358 0.897974 0
M  V30 3630 H 345.058 -1.28349 0.933398 0
M  V30 3631 H 345.079 -3.80388 -0.0921773 0
M  V30 3632 H 344.591 -3.48654 1.70476 0
M  V30 3633 H 342.692 -3.64857 -0.755674 0
M  V30 3634 H 342.805 -4.72532 0.790583 0
M  V30 3635 H 341.169 -2.52624 0.324551 0
M  V30 3636 H 341.952 -2.81036 1.97164 0
M  V30 3637 N 344.397 -0.483516 -1.5 0
M  V30 3638 C 345.643 0.0672592 -2.02688 0
M  V30 3639 C 345.976 1.38247 -1.36387 0
M  V30 3640 O 345.251 1.88131 -0.493675 0
M  V30 3641 C 345.534 0.238109 -3.59312 0
M  V30 3642 C 345.387 -1.099 -4.36168 0
M  V30 3643 C 346.706 0.986916 -4.28892 0
M  V30 3644 H 343.825 0.0229696 -0.736642 0
M  V30 3645 H 346.467 -0.631527 -1.79197 0
M  V30 3646 H 344.617 0.8333 -3.79458 0
M  V30 3647 H 346.289 -1.73172 -4.27562 0
M  V30 3648 H 344.532 -1.69261 -3.99416 0
M  V30 3649 H 345.203 -0.932954 -5.44059 0
M  V30 3650 H 347.679 0.482302 -4.13295 0
M  V30 3651 H 346.555 1.07527 -5.38265 0
M  V30 3652 H 346.816 2.0265 -3.92919 0
M  V30 3653 N 345.875 1.56104 -0.216619 0
M  V30 3654 C 347.121 1.98466 0.417033 0
M  V30 3655 C 347.454 1.10403 1.59765 0
M  V30 3656 O 346.729 0.160632 1.93836 0
M  V30 3657 C 347.012 3.49769 0.85637 0
M  V30 3658 C 346.865 4.48606 -0.327546 0
M  V30 3659 C 348.184 4.05339 1.7143 0
M  V30 3660 H 345.303 0.721551 0.150112 0
M  V30 3661 H 347.945 1.87423 -0.311864 0
M  V30 3662 H 346.095 3.5931 1.47745 0
M  V30 3663 H 347.767 4.5108 -0.965618 0
M  V30 3664 H 346.01 4.22682 -0.975805 0
M  V30 3665 H 346.681 5.51995 0.0227149 0
M  V30 3666 H 349.157 3.98712 1.19031 0
M  V30 3667 H 348.033 5.11533 1.99061 0
M  V30 3668 H 348.294 3.51918 2.67593 0
M  V30 3669 N 347.353 -0.0568162 1.57498 0
M  V30 3670 C 348.578 -0.769402 1.92601 0
M  V30 3671 C 349.003 -1.69559 0.814336 0
M  V30 3672 O 348.361 -1.79811 -0.231903 0
M  V30 3673 C 348.409 -1.52634 3.26704 0
M  V30 3674 O 347.513 -2.63797 3.16994 0
M  V30 3675 H 346.854 -0.208909 0.63028 0
M  V30 3676 H 349.384 -0.0205798 2.0459 0
M  V30 3677 H 349.394 -1.90234 3.60936 0
M  V30 3678 H 348.069 -0.846875 4.07186 0
M  V30 3679 H 346.646 -2.28943 2.94346 0
M  V30 3680 N 348.832 -1.54138 -0.328536 0
M  V30 3681 C 350.109 -1.62749 -1.08499 0
M  V30 3682 C 350.489 -0.458198 -2.06067 0
M  V30 3683 O 349.837 0.548046 -2.2183 0
M  V30 3684 C 350.047 -2.99519 -1.79135 0
M  V30 3685 C 351.395 -3.55394 -2.32337 0
M  V30 3686 O 352.419 -3.01792 -1.89209 0
M  V30 3687 O 351.278 -4.49186 -3.11279 0
M  V30 3688 H 348.372 -0.65886 -0.499832 0
M  V30 3689 H 350.918 -1.66484 -0.328826 0
M  V30 3690 H 349.69 -3.76061 -1.08139 0
M  V30 3691 H 349.313 -2.99441 -2.61574 0
M  V30 3692 N 350.31 0.590341 -1.46126 0
M  V30 3693 C 351.273 1.68194 -1.55703 0
M  V30 3694 C 352.273 1.54808 -0.434868 0
M  V30 3695 O 353.463 1.59564 -0.698928 0
M  V30 3696 C 350.595 3.07575 -1.47005 0
M  V30 3697 H 351.788 1.61064 -2.52979 0
M  V30 3698 H 349.341 0.807541 -1.33823 0
M  V30 3699 H 350.076 3.20268 -0.509785 0
M  V30 3700 H 349.861 3.187 -2.28414 0
M  V30 3701 H 351.351 3.87055 -1.56776 0
M  V30 3702 N 351.788 1.33704 0.83433 0
M  V30 3703 C 353.037 1.24763 1.58484 0
M  V30 3704 C 353.35 -0.183775 1.94735 0
M  V30 3705 O 354.556 -0.395234 2.68608 0
M  V30 3706 C 353.012 2.18638 2.85876 0
M  V30 3707 C 352.62 3.66974 2.56971 0
M  V30 3708 C 354.364 2.18581 3.63899 0
M  V30 3709 C 352.271 4.5275 3.80488 0
M  V30 3710 H 351.201 0.463425 0.594772 0
M  V30 3711 H 353.852 1.58797 0.919551 0
M  V30 3712 H 352.234 1.77542 3.5397 0
M  V30 3713 H 353.408 4.16538 1.9706 0
M  V30 3714 H 351.723 3.69366 1.92244 0
M  V30 3715 H 354.32 2.79894 4.55591 0
M  V30 3716 H 354.663 1.18207 3.99165 0
M  V30 3717 H 355.196 2.58062 3.02735 0
M  V30 3718 H 351.935 5.54017 3.5035 0
M  V30 3719 H 351.455 4.07927 4.39722 0
M  V30 3720 H 353.134 4.66784 4.4802 0
M  V30 3721 N 353.266 -1.05314 1.17247 0
M  V30 3722 C 354.496 -1.81707 0.983166 0
M  V30 3723 C 354.904 -1.83222 -0.471822 0
M  V30 3724 O 354.247 -1.25721 -1.3394 0
M  V30 3725 C 354.309 -3.29134 1.44606 0
M  V30 3726 C 353.973 -3.51304 2.92292 0
M  V30 3727 C 354.97 -3.4353 3.90235 0
M  V30 3728 C 352.655 -3.78306 3.30439 0
M  V30 3729 C 354.649 -3.62442 5.24323 0
M  V30 3730 C 352.336 -3.96866 4.64694 0
M  V30 3731 C 353.334 -3.88933 5.61445 0
M  V30 3732 O 353.022 -4.06976 6.93272 0
M  V30 3733 H 352.754 -0.579476 0.348114 0
M  V30 3734 H 355.308 -1.33705 1.55924 0
M  V30 3735 H 353.538 -3.78046 0.813537 0
M  V30 3736 H 355.227 -3.87049 1.22262 0
M  V30 3737 H 355.993 -3.22648 3.62109 0
M  V30 3738 H 351.872 -3.83585 2.55702 0
M  V30 3739 H 355.416 -3.56165 5.99827 0
M  V30 3740 H 351.313 -4.1724 4.92525 0
M  V30 3741 H 352.081 -4.24209 6.99992 0
M  V30 3742 N 354.744 -0.972509 -1.24016 0
M  V30 3743 C 356.021 -0.553733 -1.87598 0
M  V30 3744 C 356.401 0.969158 -1.87538 0
M  V30 3745 O 355.749 1.84255 -1.35139 0
M  V30 3746 C 355.959 -1.15076 -3.29482 0
M  V30 3747 C 357.307 -1.23862 -4.06132 0
M  V30 3748 O 358.331 -1.10363 -3.38672 0
M  V30 3749 O 357.19 -1.45252 -5.26844 0
M  V30 3750 H 354.284 -0.185331 -0.805966 0
M  V30 3751 H 356.83 -1.06709 -1.31952 0
M  V30 3752 H 355.602 -2.19333 -3.2405 0
M  V30 3753 H 355.225 -0.621746 -3.92709 0
M  V30 3754 N 356.222 1.38976 -0.743202 0
M  V30 3755 C 357.447 2.05161 -0.303936 0
M  V30 3756 C 357.872 1.55677 1.05576 0
M  V30 3757 O 357.23 0.704131 1.67068 0
M  V30 3758 C 357.278 3.59138 -0.324373 0
M  V30 3759 O 356.382 4.06668 0.685204 0
M  V30 3760 H 355.723 0.649815 -0.136518 0
M  V30 3761 H 358.253 1.77852 -1.01142 0
M  V30 3762 H 358.263 4.07639 -0.171618 0
M  V30 3763 H 356.938 3.94515 -1.31647 0
M  V30 3764 H 355.515 3.69561 0.497913 0
M  V30 3765 N 357.7 0.491464 1.49741 0
M  V30 3766 C 358.647 -0.292027 2.28945 0
M  V30 3767 C 359.617 -0.968973 1.34908 0
M  V30 3768 O 360.802 -0.97748 1.6386 0
M  V30 3769 C 357.942 -1.35617 3.17336 0
M  V30 3770 C 357.055 -0.691957 4.26422 0
M  V30 3771 C 356.19 -1.73572 5.02042 0
M  V30 3772 C 355.229 -1.05286 6.02977 0
M  V30 3773 N 354.366 -2.0404 6.71798 0
M  V30 3774 H 359.206 0.389654 2.95442 0
M  V30 3775 H 356.743 0.204003 1.45679 0
M  V30 3776 H 358.701 -1.98502 3.66951 0
M  V30 3777 H 357.331 -2.00674 2.52844 0
M  V30 3778 H 356.383 0.0499523 3.80367 0
M  V30 3779 H 357.695 -0.153946 4.98562 0
M  V30 3780 H 356.849 -2.43987 5.55478 0
M  V30 3781 H 355.588 -2.30757 4.29654 0
M  V30 3782 H 354.593 -0.334446 5.48782 0
M  V30 3783 H 355.818 -0.487636 6.77347 0
M  V30 3784 H 353.764 -2.60205 6.02187 0
M  V30 3785 H 353.681 -1.55279 7.39881 0
M  V30 3786 H 354.949 -2.73772 7.29842 0
M  V30 3787 N 359.178 -1.55987 0.224894 0
M  V30 3788 C 360.141 -2.19178 -0.670348 0
M  V30 3789 C 361.141 -1.15461 -1.11917 0
M  V30 3790 O 362.331 -1.40675 -1.02743 0
M  V30 3791 C 359.463 -2.81777 -1.9187 0
M  V30 3792 H 360.656 -2.99662 -0.119364 0
M  V30 3793 H 358.209 -1.5628 -0.0247128 0
M  V30 3794 H 358.944 -2.05172 -2.51147 0
M  V30 3795 H 358.729 -3.57732 -1.60531 0
M  V30 3796 H 360.219 -3.30205 -2.55645 0
M  V30 3797 N 360.656 0.0484629 -1.57525 0
M  V30 3798 C 362.067 0.597486 -1.76881 0
M  V30 3799 C 362.418 1.76664 -0.853475 0
M  V30 3800 O 361.543 2.16357 -0.0433656 0
M  V30 3801 C 362.138 1.09066 -3.20765 0
M  V30 3802 C 360.697 1.58535 -3.41385 0
M  V30 3803 C 359.844 0.514868 -2.72478 0
M  V30 3804 H 362.795 -0.177758 -1.57701 0
M  V30 3805 H 362.816 1.95875 -3.2621 0
M  V30 3806 H 362.328 0.239521 -3.8736 0
M  V30 3807 H 360.429 2.45898 -2.79937 0
M  V30 3808 H 360.542 1.64622 -4.49929 0
M  V30 3809 H 358.906 0.965407 -2.35695 0
M  V30 3810 H 359.689 -0.32648 -3.41744 0
M  V30 3811 N 362.134 1.5431 0.320358 0
M  V30 3812 C 363.082 1.84647 1.4145 0
M  V30 3813 C 364.076 0.718624 1.53402 0
M  V30 3814 O 365.282 0.902335 1.5575 0
M  V30 3815 H 361.657 0.585349 0.472091 0
M  V30 3816 H 363.628 2.7614 1.13089 0
M  V30 3817 C 362.377 2.09341 2.77617 0
M  V30 3818 H 361.7 2.9559 2.69196 0
M  V30 3819 H 363.14 2.3452 3.53237 0
M  V30 3820 C 361.599 0.885939 3.25043 0
M  V30 3821 O 362.129 0.0967891 4.01583 0
M  V30 3822 N 360.335 0.696682 2.82125 0
M  V30 3823 H 359.882 1.34006 2.2 0
M  V30 3824 H 359.84 -0.109712 3.14209 0
M  V30 3825 N 363.613 -0.582584 1.46437 0
M  V30 3826 C 364.576 -1.67366 1.56592 0
M  V30 3827 C 365.576 -1.54575 0.443072 0
M  V30 3828 O 366.766 -1.59191 0.707381 0
M  V30 3829 C 363.898 -3.06791 1.48634 0
M  V30 3830 H 365.091 -1.5972 2.5383 0
M  V30 3831 H 362.644 -0.800432 1.34249 0
M  V30 3832 H 363.379 -3.19993 0.526763 0
M  V30 3833 H 363.164 -3.17484 2.30101 0
M  V30 3834 H 364.654 -3.86218 1.58826 0
M  V30 3835 N 365.091 -1.34144 -0.827227 0
M  V30 3836 C 366.316 -1.29476 -1.62021 0
M  V30 3837 C 366.741 0.129292 -1.87655 0
M  V30 3838 O 366.099 1.08967 -1.449 0
M  V30 3839 C 366.147 -2.08702 -2.94068 0
M  V30 3840 O 365.251 -1.45359 -3.85933 0
M  V30 3841 H 364.592 -0.444881 -0.492927 0
M  V30 3842 H 367.122 -1.76882 -1.02829 0
M  V30 3843 H 367.132 -2.19898 -3.43669 0
M  V30 3844 H 365.807 -3.12241 -2.74734 0
M  V30 3845 H 364.384 -1.42879 -3.44442 0
M  V30 3846 N 366.569 1.04691 -1.17803 0
M  V30 3847 C 367.517 2.14665 -0.895635 0
M  V30 3848 C 368.511 1.68806 0.141679 0
M  V30 3849 O 369.717 1.79999 -0.00587914 0
M  V30 3850 H 366.092 0.701038 -0.272121 0
M  V30 3851 H 368.063 2.35685 -1.83017 0
M  V30 3852 C 366.812 3.45019 -0.430962 0
M  V30 3853 H 366.135 3.8071 -1.22064 0
M  V30 3854 H 367.575 4.23125 -0.272301 0
M  V30 3855 C 366.034 3.25943 0.852207 0
M  V30 3856 O 366.564 3.5296 1.91786 0
M  V30 3857 N 364.77 2.79304 0.802346 0
M  V30 3858 H 364.317 2.57518 -0.0650788 0
M  V30 3859 H 364.275 2.66921 1.66134 0
M  V30 3860 N 368.047 0.979072 1.23499 0
M  V30 3861 C 368.977 0.537606 2.27227 0
M  V30 3862 C 369.958 -0.428539 1.64613 0
M  V30 3863 O 371.143 -0.322191 1.91509 0
M  V30 3864 C 368.273 -0.162052 3.46922 0
M  V30 3865 C 367.227 0.721242 4.21879 0
M  V30 3866 C 366.553 -0.110555 5.34586 0
M  V30 3867 C 367.853 2.01141 4.82016 0
M  V30 3868 H 369.547 1.40462 2.64406 0
M  V30 3869 H 367.093 0.67684 1.27102 0
M  V30 3870 H 369.046 -0.482192 4.18632 0
M  V30 3871 H 367.77 -1.06351 3.08799 0
M  V30 3872 H 366.429 1.02482 3.51984 0
M  V30 3873 H 366.077 -1.0125 4.92704 0
M  V30 3874 H 365.777 0.477325 5.85658 0
M  V30 3875 H 367.301 -0.425107 6.09118 0
M  V30 3876 H 368.715 1.75612 5.45741 0
M  V30 3877 H 367.112 2.54695 5.43369 0
M  V30 3878 H 368.182 2.69909 4.02836 0
M  V30 3879 N 369.525 -1.3858 0.750561 0
M  V30 3880 C 370.472 -2.30483 0.120835 0
M  V30 3881 C 371.442 -1.50022 -0.712923 0
M  V30 3882 O 372.627 -1.78662 -0.669676 0
M  V30 3883 C 369.767 -3.36431 -0.768666 0
M  V30 3884 C 368.88 -4.31927 0.0793922 0
M  V30 3885 C 368.015 -5.24944 -0.81283 0
M  V30 3886 C 367.054 -6.12088 0.0390447 0
M  V30 3887 N 366.191 -6.97412 -0.809969 0
M  V30 3888 H 371.031 -2.83761 0.91015 0
M  V30 3889 H 368.568 -1.39707 0.460463 0
M  V30 3890 H 370.526 -3.96462 -1.29898 0
M  V30 3891 H 369.156 -2.8457 -1.5238 0
M  V30 3892 H 368.208 -3.73382 0.727303 0
M  V30 3893 H 369.52 -4.93319 0.737401 0
M  V30 3894 H 368.674 -5.90078 -1.41042 0
M  V30 3895 H 367.413 -4.63911 -1.50458 0
M  V30 3896 H 366.418 -5.45952 0.649328 0
M  V30 3897 H 367.643 -6.75189 0.727809 0
M  V30 3898 H 365.589 -6.38931 -1.48672 0
M  V30 3899 H 365.506 -7.55712 -0.208789 0
M  V30 3900 H 366.774 -7.66959 -1.39263 0
M  V30 3901 N 371.003 -0.499398 -1.49478 0
M  V30 3902 C 372.252 0.0475259 -2.01644 0
M  V30 3903 C 372.565 1.38195 -1.38425 0
M  V30 3904 O 373.771 2.01547 -1.8191 0
M  V30 3905 C 372.227 0.135164 -3.59646 0
M  V30 3906 C 371.835 -1.19252 -4.31837 0
M  V30 3907 C 373.579 0.632538 -4.19761 0
M  V30 3908 C 371.486 -1.06713 -5.81693 0
M  V30 3909 H 370.416 0.0215349 -0.753692 0
M  V30 3910 H 373.067 -0.638577 -1.7203 0
M  V30 3911 H 371.449 0.885681 -3.85969 0
M  V30 3912 H 372.623 -1.9562 -4.17216 0
M  V30 3913 H 370.938 -1.62321 -3.83459 0
M  V30 3914 H 373.535 0.743833 -5.29501 0
M  V30 3915 H 373.878 1.63098 -3.83021 0
M  V30 3916 H 374.411 -0.0613987 -3.97753 0
M  V30 3917 H 371.15 -2.03979 -6.22955 0
M  V30 3918 H 370.67 -0.344307 -5.98811 0
M  V30 3919 H 372.349 -0.745208 -6.42694 0
M  V30 3920 N 372.481 1.55866 -0.233164 0
M  V30 3921 C 373.727 1.98897 0.395959 0
M  V30 3922 C 374.06 1.12091 1.58585 0
M  V30 3923 O 373.335 0.181182 1.93654 0
M  V30 3924 C 373.618 3.50658 0.819224 0
M  V30 3925 C 373.471 4.48233 -0.375109 0
M  V30 3926 C 374.79 4.07135 1.67121 0
M  V30 3927 H 371.909 0.723102 0.142451 0
M  V30 3928 H 374.551 1.87082 -0.331725 0
M  V30 3929 H 372.701 3.60857 1.43925 0
M  V30 3930 H 374.373 4.50031 -1.01341 0
M  V30 3931 H 372.616 4.21624 -1.02058 0
M  V30 3932 H 373.287 5.51988 -0.0358328 0
M  V30 3933 H 375.763 3.99952 1.14795 0
M  V30 3934 H 374.639 5.13615 1.93625 0
M  V30 3935 H 374.9 3.54736 2.63846 0
M  V30 3936 N 373.959 -0.0401083 1.57549 0
M  V30 3937 C 375.375 -0.395556 1.54621 0
M  V30 3938 C 375.575 -1.77281 0.957799 0
M  V30 3939 O 374.631 -2.45888 0.574031 0
M  V30 3940 C 375.944 -0.307535 2.99123 0
M  V30 3941 C 377.492 -0.385425 3.10618 0
M  V30 3942 C 377.967 -0.326973 4.56831 0
M  V30 3943 N 379.458 -0.386102 4.61588 0
M  V30 3944 C 380.193 -0.363591 5.72246 0
M  V30 3945 N 379.689 -0.29402 6.92176 0
M  V30 3946 N 381.482 -0.412503 5.60584 0
M  V30 3947 H 373.633 0.861325 1.94152 0
M  V30 3948 H 375.896 0.326445 0.890021 0
M  V30 3949 H 375.602 0.638461 3.45856 0
M  V30 3950 H 375.476 -1.10552 3.60636 0
M  V30 3951 H 377.863 -1.32185 2.63839 0
M  V30 3952 H 377.944 0.44171 2.51957 0
M  V30 3953 H 377.588 0.605738 5.04275 0
M  V30 3954 H 377.518 -1.17207 5.13391 0
M  V30 3955 H 380.009 -0.442832 3.75296 0
M  V30 3956 H 380.322 -0.28164 7.72287 0
M  V30 3957 H 378.667 -0.260232 6.94513 0
M  V30 3958 H 381.858 -0.464769 4.65787 0
M  V30 3959 H 382.031 -0.391492 6.46816 0
M  V30 3960 N 375.437 -1.54477 -0.31217 0
M  V30 3961 C 376.37 -1.79519 -1.40884 0
M  V30 3962 C 377.348 -0.645753 -1.49227 0
M  V30 3963 O 378.532 -0.884468 -1.66461 0
M  V30 3964 C 375.659 -1.92194 -2.78889 0
M  V30 3965 C 374.705 -3.14555 -2.88023 0
M  V30 3966 S 375.538 -4.72893 -2.51262 0
M  V30 3967 C 376.694 -4.8849 -3.91317 0
M  V30 3968 H 376.927 -2.72256 -1.19432 0
M  V30 3969 H 374.46 -1.45746 -0.509654 0
M  V30 3970 H 376.418 -2.00182 -3.58382 0
M  V30 3971 H 375.079 -1.00414 -2.97617 0
M  V30 3972 H 374.272 -3.20193 -3.89221 0
M  V30 3973 H 373.874 -3.04955 -2.16514 0
M  V30 3974 H 376.166 -4.71826 -4.86196 0
M  V30 3975 H 377.109 -5.90588 -3.90656 0
M  V30 3976 H 377.517 -4.16715 -3.80801 0
M  V30 3977 N 376.915 0.57481 -1.46744 0
M  V30 3978 C 378.192 1.3352 -1.4294 0
M  V30 3979 C 378.572 2.10775 -0.117009 0
M  V30 3980 O 377.92 2.09966 0.901474 0
M  V30 3981 C 378.13 2.25456 -2.66403 0
M  V30 3982 C 379.478 2.87035 -3.12883 0
M  V30 3983 O 380.502 2.35766 -2.67007 0
M  V30 3984 O 379.361 3.80179 -3.92589 0
M  V30 3985 H 376.455 0.600318 -0.568812 0
M  V30 3986 H 379.001 0.595171 -1.58921 0
M  V30 3987 H 377.773 1.67851 -3.53471 0
M  V30 3988 H 377.396 3.06785 -2.52921 0
M  V30 3989 N 378.394 1.34581 0.820102 0
M  V30 3990 C 379.81 1.14325 1.11364 0
M  V30 3991 C 380.01 -0.0533648 2.01429 0
M  V30 3992 O 379.066 -0.728044 2.41776 0
M  V30 3993 C 380.379 2.43983 1.75764 0
M  V30 3994 C 381.927 2.50065 1.88246 0
M  V30 3995 C 382.402 3.79732 2.56061 0
M  V30 3996 N 383.893 3.80908 2.63558 0
M  V30 3997 C 384.628 4.77961 3.16766 0
M  V30 3998 N 384.124 5.85397 3.70517 0
M  V30 3999 N 385.917 4.65413 3.15194 0
M  V30 4000 H 378.068 2.11246 0.221096 0
M  V30 4001 H 380.331 0.934289 0.160649 0
M  V30 4002 H 380.037 3.31651 1.1705 0
M  V30 4003 H 379.911 2.57531 2.75604 0
M  V30 4004 H 382.298 1.62834 2.46108 0
M  V30 4005 H 382.379 2.40442 0.873006 0
M  V30 4006 H 382.023 4.67354 1.98853 0
M  V30 4007 H 381.953 3.86639 3.57516 0
M  V30 4008 H 384.444 3.03274 2.25463 0
M  V30 4009 H 384.757 6.55463 4.09376 0
M  V30 4010 H 383.102 5.89107 3.68752 0
M  V30 4011 H 386.293 3.80627 2.72471 0
M  V30 4012 H 386.466 5.41216 3.56356 0
M  V30 4013 N 379.872 -1.04064 1.18357 0
M  V30 4014 C 381.1 -1.80916 1.00384 0
M  V30 4015 C 381.515 -1.83414 -0.447738 0
M  V30 4016 O 380.872 -1.26962 -1.31099 0
M  V30 4017 C 380.923 -3.26516 1.55144 0
M  V30 4018 O 380.644 -3.2424 2.94618 0
M  V30 4019 C 382.145 -4.20013 1.41789 0
M  V30 4020 H 379.365 -0.569728 0.354474 0
M  V30 4021 H 381.909 -1.31151 1.56906 0
M  V30 4022 H 380.064 -3.73512 1.02798 0
M  V30 4023 H 380.478 -4.15452 3.20156 0
M  V30 4024 H 381.952 -5.20111 1.84901 0
M  V30 4025 H 382.429 -4.37667 0.36661 0
M  V30 4026 H 383.035 -3.78881 1.93207 0
M  V30 4027 N 381.35 -0.985608 -1.22978 0
M  V30 4028 C 382.313 -0.535071 -2.22867 0
M  V30 4029 C 383.313 0.378123 -1.56291 0
M  V30 4030 O 384.503 0.171092 -1.73358 0
M  V30 4031 C 381.635 0.222702 -3.40172 0
M  V30 4032 H 382.828 -1.41835 -2.6424 0
M  V30 4033 H 380.381 -0.772042 -1.35901 0
M  V30 4034 H 381.116 1.12229 -3.04262 0
M  V30 4035 H 380.901 -0.43288 -3.89703 0
M  V30 4036 H 382.391 0.526335 -4.1427 0
M  V30 4037 N 382.828 1.3818 -0.7579 0
M  V30 4038 C 384.076 1.99624 -0.315361 0
M  V30 4039 C 384.397 1.60464 1.10799 0
M  V30 4040 O 383.667 0.863507 1.75842 0
M  V30 4041 H 382.247 0.73831 -0.113611 0
M  V30 4042 H 384.909 1.68878 -0.972952 0
M  V30 4043 H 384.005 3.09754 -0.381931 0
M  V30 4044 N 384.306 0.507319 1.49211 0
M  V30 4045 C 385.546 -0.0332372 2.04373 0
M  V30 4046 C 385.91 -1.33694 1.37804 0
M  V30 4047 O 387.111 -1.96213 1.83722 0
M  V30 4048 C 385.382 -0.17599 3.56966 0
M  V30 4049 S 386.941 -0.669882 4.33657 0
M  V30 4050 H 383.759 0.00123603 0.710999 0
M  V30 4051 H 386.361 0.682725 1.83191 0
M  V30 4052 H 385.065 0.778053 4.02957 0
M  V30 4053 H 384.596 -0.917005 3.82563 0
M  V30 4054 H 386.611 -1.93806 4.56786 0
M  V30 4055 N 385.784 -1.5574 0.241426 0
M  V30 4056 C 387.03 -1.99104 -0.385406 0
M  V30 4057 C 387.363 -1.1293 -1.57988 0
M  V30 4058 O 386.638 -0.191449 -1.93555 0
M  V30 4059 C 386.921 -3.51087 -0.800616 0
M  V30 4060 C 386.774 -4.48028 0.398874 0
M  V30 4061 C 388.093 -4.08015 -1.64959 0
M  V30 4062 H 385.212 -0.723848 -0.138614 0
M  V30 4063 H 387.854 -1.86903 0.341642 0
M  V30 4064 H 386.004 -3.61615 -1.4201 0
M  V30 4065 H 387.676 -4.49487 1.03726 0
M  V30 4066 H 385.919 -4.21077 1.04293 0
M  V30 4067 H 386.59 -5.51962 0.0651056 0
M  V30 4068 H 389.066 -4.00555 -1.12672 0
M  V30 4069 H 387.942 -5.14635 -1.90898 0
M  V30 4070 H 388.203 -3.56131 -2.61961 0
M  V30 4071 N 387.262 0.0317525 -1.57568 0
M  V30 4072 C 388.49 0.734949 -1.93407 0
M  V30 4073 C 388.905 1.69036 -0.84096 0
M  V30 4074 O 388.262 1.81582 0.182836 0
M  V30 4075 C 388.313 1.49432 -3.29169 0
M  V30 4076 O 388.034 0.577261 -4.3428 0
M  V30 4077 C 389.535 2.29492 -3.79273 0
M  V30 4078 H 386.755 0.206706 -0.638368 0
M  V30 4079 H 389.299 -0.00992046 -2.04498 0
M  V30 4080 H 387.454 2.1911 -3.19483 0
M  V30 4081 H 387.868 1.10952 -5.1263 0
M  V30 4082 H 389.342 2.78172 -4.76785 0
M  V30 4083 H 389.819 3.10794 -3.10328 0
M  V30 4084 H 390.425 1.64894 -3.92033 0
M  V30 4085 N 388.74 1.54641 0.303973 0
M  V30 4086 C 389.988 1.73437 1.0375 0
M  V30 4087 C 390.309 0.521449 1.87899 0
M  V30 4088 O 389.579 -0.46432 1.90318 0
M  V30 4089 H 388.159 0.639518 0.386039 0
M  V30 4090 H 390.821 1.91988 0.335675 0
M  V30 4091 H 389.917 2.62235 1.69231 0
M  V30 4092 N 390.218 -0.567019 1.47046 0
M  V30 4093 C 391.466 -1.322 1.52864 0
M  V30 4094 C 391.787 -1.94088 0.188388 0
M  V30 4095 O 391.057 -1.7941 -0.786693 0
M  V30 4096 H 389.637 -0.490894 0.563056 0
M  V30 4097 H 392.299 -0.662879 1.83281 0
M  V30 4098 H 391.395 -2.12062 2.2899 0
M  V30 4099 N 391.696 -1.35014 -0.812953 0
M  V30 4100 C 392.606 -1.2951 -1.95613 0
M  V30 4101 C 393.622 -0.20107 -1.72834 0
M  V30 4102 O 394.798 -0.42932 -1.96771 0
M  V30 4103 C 391.863 -1.06033 -3.30088 0
M  V30 4104 C 390.924 -2.24688 -3.65805 0
M  V30 4105 C 390.157 -2.02322 -4.93864 0
M  V30 4106 O 390.38 -0.986464 -5.61805 0
M  V30 4107 O 389.314 -2.89525 -5.27692 0
M  V30 4108 H 393.14 -2.25705 -2.03202 0
M  V30 4109 H 390.725 -1.15321 -0.949811 0
M  V30 4110 H 392.607 -0.94763 -4.10607 0
M  V30 4111 H 391.282 -0.128852 -3.23443 0
M  V30 4112 H 390.189 -2.41521 -2.85689 0
M  V30 4113 H 391.522 -3.16261 -3.77147 0
M  V30 4114 N 393.175 1.03435 -1.18907 0
M  V30 4115 C 394.085 2.15075 -0.937015 0
M  V30 4116 C 395.101 1.73706 0.101085 0
M  V30 4117 O 396.277 2.01232 -0.0822948 0
M  V30 4118 C 393.342 3.43458 -0.473057 0
M  V30 4119 C 392.403 3.99172 -1.57989 0
M  V30 4120 C 391.636 5.21427 -1.13797 0
M  V30 4121 O 391.859 5.704 0.000725941 0
M  V30 4122 O 390.793 5.69837 -1.9383 0
M  V30 4123 H 394.619 2.39198 -1.87131 0
M  V30 4124 H 392.204 1.13506 -0.971427 0
M  V30 4125 H 394.086 4.20811 -0.222702 0
M  V30 4126 H 392.761 3.20793 0.432869 0
M  V30 4127 H 391.668 3.23178 -1.88433 0
M  V30 4128 H 393.001 4.2619 -2.46217 0
M  V30 4129 N 394.653 0.992116 1.22453 0
M  V30 4130 C 395.902 0.662992 1.90492 0
M  V30 4131 C 396.215 -0.808407 1.78113 0
M  V30 4132 O 397.421 -1.24908 2.41061 0
M  V30 4133 C 395.877 1.1353 3.41524 0
M  V30 4134 C 395.485 2.63187 3.62542 0
M  V30 4135 C 397.229 0.880465 4.15269 0
M  V30 4136 C 395.136 3.04024 5.0727 0
M  V30 4137 H 394.066 0.244278 0.713333 0
M  V30 4138 H 396.717 1.20157 1.38688 0
M  V30 4139 H 395.099 0.52485 3.92506 0
M  V30 4140 H 396.273 3.2957 3.22056 0
M  V30 4141 H 394.588 2.86543 3.02129 0
M  V30 4142 H 397.185 1.16128 5.21937 0
M  V30 4143 H 397.528 -0.183408 4.15896 0
M  V30 4144 H 398.061 1.45307 3.70312 0
M  V30 4145 H 394.8 4.09584 5.11782 0
M  V30 4146 H 394.32 2.42343 5.48662 0
M  V30 4147 H 395.999 2.95282 5.75689 0
M  V30 4148 N 396.131 -1.37776 0.765217 0
M  V30 4149 C 397.361 -2.03828 0.337277 0
M  V30 4150 C 397.769 -1.57841 -1.04321 0
M  V30 4151 O 397.112 -0.752043 -1.67601 0
M  V30 4152 C 397.174 -3.58292 0.294407 0
M  V30 4153 C 396.838 -4.27384 1.61838 0
M  V30 4154 C 397.835 -4.51956 2.56967 0
M  V30 4155 C 395.52 -4.65345 1.89102 0
M  V30 4156 C 397.514 -5.13536 3.77571 0
M  V30 4157 C 395.201 -5.26647 3.09978 0
M  V30 4158 C 396.199 -5.50679 4.04032 0
M  V30 4159 O 395.887 -6.10702 5.2278 0
M  V30 4160 H 395.619 -0.661292 0.140248 0
M  V30 4161 H 398.173 -1.77222 1.03834 0
M  V30 4162 H 396.403 -3.83918 -0.462983 0
M  V30 4163 H 398.092 -4.05763 -0.105581 0
M  V30 4164 H 398.858 -4.23048 2.37183 0
M  V30 4165 H 394.737 -4.45978 1.16725 0
M  V30 4166 H 398.281 -5.3221 4.50997 0
M  V30 4167 H 394.178 -5.54979 3.29649 0
M  V30 4168 H 394.946 -6.29183 5.23517 0
M  V30 4169 N 397.609 -0.515225 -1.4894 0
M  V30 4170 C 398.539 0.244628 -2.32215 0
M  V30 4171 C 399.52 0.949136 -1.41157 0
M  V30 4172 O 400.705 0.937783 -1.70057 0
M  V30 4173 C 397.835 1.30096 -3.22013 0
M  V30 4174 C 396.789 0.715486 -4.21977 0
M  V30 4175 C 396.115 1.87339 -5.00808 0
M  V30 4176 C 397.415 -0.302982 -5.2142 0
M  V30 4177 H 399.109 -0.450501 -2.95991 0
M  V30 4178 H 396.655 -0.218098 -1.42339 0
M  V30 4179 H 398.608 1.84037 -3.79089 0
M  V30 4180 H 397.332 2.02547 -2.56207 0
M  V30 4181 H 395.991 0.197715 -3.66066 0
M  V30 4182 H 395.639 2.58592 -4.31438 0
M  V30 4183 H 395.339 1.48764 -5.68457 0
M  V30 4184 H 396.863 2.41686 -5.60732 0
M  V30 4185 H 398.277 0.148802 -5.73107 0
M  V30 4186 H 396.674 -0.60532 -5.97039 0
M  V30 4187 H 397.744 -1.21395 -4.69459 0
M  V30 4188 N 399.087 1.5561 -0.249682 0
M  V30 4189 C 400.017 2.24477 0.642826 0
M  V30 4190 C 400.998 1.22601 1.17911 0
M  V30 4191 O 402.183 1.5126 1.21795 0
M  V30 4192 C 399.313 2.94638 1.83863 0
M  V30 4193 C 398.267 4.03227 1.435 0
M  V30 4194 C 397.593 4.60828 2.71186 0
M  V30 4195 C 398.893 5.18796 0.604002 0
M  V30 4196 H 400.587 2.99321 0.0685625 0
M  V30 4197 H 398.133 1.43965 0.0315363 0
M  V30 4198 H 400.086 3.41517 2.46868 0
M  V30 4199 H 398.81 2.17287 2.43832 0
M  V30 4200 H 397.469 3.57121 0.828275 0
M  V30 4201 H 397.117 3.80174 3.29358 0
M  V30 4202 H 396.817 5.34132 2.44901 0
M  V30 4203 H 398.341 5.10442 3.35084 0
M  V30 4204 H 399.755 5.61883 1.13842 0
M  V30 4205 H 398.152 5.98506 0.437097 0
M  V30 4206 H 399.222 4.83384 -0.383147 0
M  V30 4207 N 400.565 -0.0233959 1.57583 0
M  V30 4208 C 401.805 -0.71784 1.9138 0
M  V30 4209 C 402.169 -1.72216 0.848853 0
M  V30 4210 O 403.37 -2.46527 1.07134 0
M  V30 4211 C 401.641 -1.36489 3.30311 0
M  V30 4212 S 403.2 -2.0877 3.85954 0
M  V30 4213 H 400.018 -0.237676 0.670098 0
M  V30 4214 H 402.62 0.0276709 1.9548 0
M  V30 4215 H 401.324 -0.620782 4.05678 0
M  V30 4216 H 400.855 -2.14883 3.29528 0
M  V30 4217 H 402.87 -3.35988 3.65139 0
M  V30 4218 N 402.043 -1.548 -0.295768 0
M  V30 4219 C 403.32 -1.65014 -1.05023 0
M  V30 4220 C 403.7 -0.501805 -2.05049 0
M  V30 4221 O 403.048 0.500869 -2.22943 0
M  V30 4222 C 403.258 -3.03252 -1.72741 0
M  V30 4223 C 404.606 -3.60242 -2.24746 0
M  V30 4224 O 405.63 -3.05737 -1.82765 0
M  V30 4225 O 404.489 -4.55687 -3.01681 0
M  V30 4226 H 401.583 -0.669314 -0.485744 0
M  V30 4227 H 404.129 -1.67144 -0.293438 0
M  V30 4228 H 402.901 -3.7827 -1.00138 0
M  V30 4229 H 402.524 -3.04922 -2.55163 0
M  V30 4230 N 403.521 0.559213 -1.47345 0
M  V30 4231 C 404.468 1.66645 -1.59682 0
M  V30 4232 C 405.438 1.60168 -0.43994 0
M  V30 4233 O 406.623 1.79031 -0.659736 0
M  V30 4234 C 403.763 3.04969 -1.61518 0
M  V30 4235 C 402.876 3.21897 -2.88108 0
M  V30 4236 C 402.011 4.50608 -2.81294 0
M  V30 4237 C 401.05 4.60961 -4.02717 0
M  V30 4238 N 400.187 5.81024 -3.94151 0
M  V30 4239 H 405.027 1.55439 -2.54249 0
M  V30 4240 H 402.564 0.757219 -1.26113 0
M  V30 4241 H 404.522 3.85064 -1.60566 0
M  V30 4242 H 403.152 3.15015 -0.704645 0
M  V30 4243 H 402.204 2.35248 -2.98936 0
M  V30 4244 H 403.516 3.25412 -3.78032 0
M  V30 4245 H 402.67 5.3896 -2.7858 0
M  V30 4246 H 401.409 4.49568 -1.89049 0
M  V30 4247 H 400.414 3.71021 -4.05738 0
M  V30 4248 H 401.639 4.63761 -4.96087 0
M  V30 4249 H 399.585 5.80938 -3.04708 0
M  V30 4250 H 399.502 5.85909 -4.77752 0
M  V30 4251 H 400.77 6.71744 -3.9545 0
M  V30 4252 N 404.999 1.35443 0.805782 0
M  V30 4253 C 406.245 1.28952 1.56522 0
M  V30 4254 C 406.578 -0.135597 1.93726 0
M  V30 4255 O 405.853 -1.08516 1.61414 0
M  V30 4256 C 406.136 2.19678 2.85331 0
M  V30 4257 C 405.989 3.7081 2.54598 0
M  V30 4258 C 407.308 2.09495 3.8704 0
M  V30 4259 H 404.427 0.469764 0.567883 0
M  V30 4260 H 407.069 1.65851 0.927001 0
M  V30 4261 H 405.219 1.8834 3.39795 0
M  V30 4262 H 406.891 4.12593 2.06312 0
M  V30 4263 H 405.134 3.91051 1.8778 0
M  V30 4264 H 405.805 4.29679 3.46525 0
M  V30 4265 H 408.281 2.37045 3.41978 0
M  V30 4266 H 407.157 2.75173 4.74943 0
M  V30 4267 H 407.418 1.07714 4.28777 0
M  V30 4268 N 406.477 -1.02803 1.19454 0
M  V30 4269 C 407.409 -2.11181 0.890807 0
M  V30 4270 C 408.422 -1.6238 -0.116829 0
M  V30 4271 O 409.611 -1.78144 0.112694 0
M  V30 4272 C 406.711 -3.37461 0.311942 0
M  V30 4273 C 405.884 -4.15446 1.36834 0
M  V30 4274 C 404.943 -5.20039 0.802864 0
M  V30 4275 O 403.969 -5.49602 1.48077 0
M  V30 4276 N 405.171 -5.79165 -0.393417 0
M  V30 4277 H 407.936 -2.37827 1.82369 0
M  V30 4278 H 405.497 -1.19101 1.09666 0
M  V30 4279 H 407.489 -4.0462 -0.0802225 0
M  V30 4280 H 406.059 -3.08156 -0.52524 0
M  V30 4281 H 405.279 -3.43423 1.93531 0
M  V30 4282 H 406.567 -4.64335 2.08015 0
M  V30 4283 H 405.965 -5.57466 -0.961658 0
M  V30 4284 H 404.522 -6.47729 -0.727351 0
M  V30 4285 N 407.956 -0.998596 -1.21925 0
M  V30 4286 C 408.903 -0.553621 -2.24062 0
M  V30 4287 C 409.873 0.416999 -1.6078 0
M  V30 4288 O 411.058 0.320482 -1.88089 0
M  V30 4289 C 408.198 0.119959 -3.44891 0
M  V30 4290 C 407.311 -0.893077 -4.22668 0
M  V30 4291 C 406.446 -0.192424 -5.30851 0
M  V30 4292 C 405.485 -1.19344 -6.00353 0
M  V30 4293 N 404.622 -0.520707 -7.00166 0
M  V30 4294 H 409.462 -1.4293 -2.61486 0
M  V30 4295 H 406.999 -0.715838 -1.28507 0
M  V30 4296 H 408.957 0.527459 -4.13852 0
M  V30 4297 H 407.587 0.959389 -3.08214 0
M  V30 4298 H 406.639 -1.41886 -3.52948 0
M  V30 4299 H 407.951 -1.65512 -4.70539 0
M  V30 4300 H 407.105 0.271515 -6.06092 0
M  V30 4301 H 405.844 0.602075 -4.83969 0
M  V30 4302 H 404.849 -1.66795 -5.23889 0
M  V30 4303 H 406.074 -1.98891 -6.49322 0
M  V30 4304 H 404.02 0.254252 -6.55507 0
M  V30 4305 H 403.937 -1.2211 -7.46073 0
M  V30 4306 H 405.205 -0.0797596 -7.79459 0
M  V30 4307 N 409.434 1.37368 -0.772513 0
M  V30 4308 C 410.711 1.93839 -0.26188 0
M  V30 4309 C 411.091 1.7061 1.24319 0
M  V30 4310 O 410.439 1.05534 2.02669 0
M  V30 4311 C 410.649 3.43154 -0.636102 0
M  V30 4312 C 411.997 4.20249 -0.606324 0
M  V30 4313 O 413.021 3.5152 -0.575538 0
M  V30 4314 O 411.88 5.42809 -0.634086 0
M  V30 4315 H 408.974 0.82478 -0.0605555 0
M  V30 4316 H 411.52 1.4665 -0.853917 0
M  V30 4317 H 410.292 3.53647 -1.6748 0
M  V30 4318 H 409.915 3.97596 -0.0170516 0
M  V30 4319 N 410.912 0.523116 1.48665 0
M  V30 4320 C 412.189 -0.0775449 1.95446 0
M  V30 4321 C 412.569 -1.5197 1.4652 0
M  V30 4322 O 411.917 -2.17876 0.688657 0
M  V30 4323 C 412.127 0.0326135 3.48985 0
M  V30 4324 C 413.475 -0.130141 4.24401 0
M  V30 4325 O 414.499 -0.0415142 3.56176 0
M  V30 4326 O 413.358 -0.31491 5.45592 0
M  V30 4327 H 410.452 -0.0831012 0.822814 0
M  V30 4328 H 412.998 0.587227 1.59216 0
M  V30 4329 H 411.77 1.03748 3.77296 0
M  V30 4330 H 411.393 -0.671317 3.91892 0
M  V30 4331 N 412.39 -1.55475 0.257931 0
M  V30 4332 C 413.639 -1.98383 -0.364275 0
M  V30 4333 C 413.952 -1.14952 -1.58258 0
M  V30 4334 O 415.158 -1.47924 -2.27664 0
M  V30 4335 C 413.614 -3.53037 -0.699479 0
M  V30 4336 C 413.222 -4.45223 0.498046 0
M  V30 4337 C 414.966 -4.04575 -1.28526 0
M  V30 4338 C 412.873 -5.91238 0.138383 0
M  V30 4339 H 411.803 -0.740911 -0.13988 0
M  V30 4340 H 414.454 -1.79936 0.359883 0
M  V30 4341 H 412.836 -3.6722 -1.48207 0
M  V30 4342 H 414.01 -4.42803 1.27522 0
M  V30 4343 H 412.325 -4.04226 0.999503 0
M  V30 4344 H 414.922 -5.11196 -1.56788 0
M  V30 4345 H 415.265 -3.5258 -2.21344 0
M  V30 4346 H 415.798 -3.93762 -0.565337 0
M  V30 4347 H 412.537 -6.47294 1.03398 0
M  V30 4348 H 412.057 -5.96768 -0.602374 0
M  V30 4349 H 413.736 -6.46413 -0.27553 0
M  V30 4350 N 413.868 0.0150385 -1.57593 0
M  V30 4351 C 414.8 1.03912 -2.04291 0
M  V30 4352 C 415.813 1.31618 -0.958146 0
M  V30 4353 O 417.002 1.28859 -1.23522 0
M  V30 4354 C 414.102 2.37749 -2.41514 0
M  V30 4355 C 413.275 2.29198 -3.72541 0
M  V30 4356 C 412.334 3.45598 -3.96797 0
M  V30 4357 O 411.36 3.24461 -4.67668 0
M  V30 4358 N 412.562 4.67945 -3.43523 0
M  V30 4359 H 415.327 0.64099 -2.92765 0
M  V30 4360 H 412.888 0.20272 -1.60626 0
M  V30 4361 H 414.88 3.14364 -2.54867 0
M  V30 4362 H 413.45 2.69357 -1.58637 0
M  V30 4363 H 412.67 1.3759 -3.69408 0
M  V30 4364 H 413.958 2.20642 -4.5847 0
M  V30 4365 H 413.356 4.88017 -2.86104 0
M  V30 4366 H 411.913 5.41878 -3.62232 0
M  V30 4367 N 415.346 1.54954 0.287554 0
M  V30 4368 C 416.595 1.74081 1.01877 0
M  V30 4369 C 416.908 0.541135 1.87966 0
M  V30 4370 O 418.114 0.614491 2.64455 0
M  V30 4371 C 416.57 3.08042 1.86113 0
M  V30 4372 C 416.178 4.35531 1.04961 0
M  V30 4373 C 417.922 3.36523 2.58752 0
M  V30 4374 C 415.829 5.60538 1.88551 0
M  V30 4375 H 414.759 0.64884 0.384087 0
M  V30 4376 H 417.41 1.81426 0.275101 0
M  V30 4377 H 415.792 2.94696 2.64519 0
M  V30 4378 H 416.966 4.59751 0.31074 0
M  V30 4379 H 415.281 4.14085 0.43843 0
M  V30 4380 H 417.878 4.27122 3.21668 0
M  V30 4381 H 418.221 2.56 3.28283 0
M  V30 4382 H 418.754 3.50901 1.87386 0
M  V30 4383 H 415.493 6.43767 1.23466 0
M  V30 4384 H 415.013 5.40483 2.60074 0
M  V30 4385 H 416.692 5.98297 2.46273 0
M  V30 4386 N 416.824 -0.551391 1.4764 0
M  V30 4387 C 418.24 -0.877887 1.33287 0
M  V30 4388 C 418.44 -1.98817 0.327721 0
M  V30 4389 O 417.496 -2.51171 -0.258695 0
M  V30 4390 C 418.809 -1.26563 2.72768 0
M  V30 4391 C 420.357 -1.37673 2.81097 0
M  V30 4392 C 420.832 -1.79799 4.21232 0
M  V30 4393 N 422.323 -1.8694 4.23802 0
M  V30 4394 C 423.058 -2.20876 5.29151 0
M  V30 4395 N 422.554 -2.53386 6.448 0
M  V30 4396 N 424.347 -2.217 5.16532 0
M  V30 4397 H 416.498 0.18153 2.11623 0
M  V30 4398 H 418.761 0.0185514 0.947818 0
M  V30 4399 H 418.467 -0.523591 3.47781 0
M  V30 4400 H 418.341 -2.22052 3.04915 0
M  V30 4401 H 420.728 -2.10956 2.06353 0
M  V30 4402 H 420.809 -0.40357 2.52596 0
M  V30 4403 H 420.453 -1.07083 4.96483 0
M  V30 4404 H 420.383 -2.78128 4.4716 0
M  V30 4405 H 422.874 -1.64179 3.40373 0
M  V30 4406 H 423.187 -2.78325 7.20941 0
M  V30 4407 H 421.532 -2.50953 6.48111 0
M  V30 4408 H 424.723 -1.95745 4.25207 0
M  V30 4409 H 424.896 -2.47818 5.98741 0
M  V30 4410 N 418.302 -1.35869 -0.798587 0
M  V30 4411 C 419.549 -1.29588 -1.55606 0
M  V30 4412 C 419.877 0.127456 -1.94082 0
M  V30 4413 O 419.132 1.09461 -1.62225 0
M  V30 4414 C 419.431 -2.1556 -2.85077 0
M  V30 4415 C 419.097 -3.6424 -2.65781 0
M  V30 4416 C 417.759 -4.04766 -2.60227 0
M  V30 4417 C 420.111 -4.58547 -2.47758 0
M  V30 4418 C 417.439 -5.37753 -2.34603 0
M  V30 4419 C 419.791 -5.91742 -2.23662 0
M  V30 4420 C 418.455 -6.31402 -2.16534 0
M  V30 4421 H 417.725 -0.474197 -0.569402 0
M  V30 4422 H 420.372 -1.67839 -0.922086 0
M  V30 4423 H 418.677 -1.70216 -3.52893 0
M  V30 4424 H 420.374 -2.08031 -3.42818 0
M  V30 4425 H 416.964 -3.32086 -2.70956 0
M  V30 4426 H 421.148 -4.28117 -2.51056 0
M  V30 4427 H 416.404 -5.67474 -2.2756 0
M  V30 4428 H 420.578 -6.6439 -2.08708 0
M  V30 4429 H 418.205 -7.34381 -1.96441 0
M  V30 4430 N 419.78 1.02168 -1.19998 0
M  V30 4431 C 421.01 1.79036 -1.031 0
M  V30 4432 C 421.418 1.84409 0.423078 0
M  V30 4433 O 420.761 1.29228 1.30559 0
M  V30 4434 C 420.823 3.25185 -1.53281 0
M  V30 4435 C 420.487 3.43431 -3.01503 0
M  V30 4436 C 421.484 3.33063 -3.99206 0
M  V30 4437 C 419.169 3.69412 -3.40353 0
M  V30 4438 C 421.163 3.48413 -5.33748 0
M  V30 4439 C 418.85 3.84406 -4.75053 0
M  V30 4440 C 419.848 3.7391 -5.71559 0
M  V30 4441 O 419.536 3.88452 -7.03818 0
M  V30 4442 H 419.268 0.570043 -0.363355 0
M  V30 4443 H 421.822 1.29524 -1.59414 0
M  V30 4444 H 420.052 3.75756 -0.913483 0
M  V30 4445 H 421.741 3.83671 -1.32481 0
M  V30 4446 H 422.507 3.12934 -3.70537 0
M  V30 4447 H 418.386 3.76671 -2.65782 0
M  V30 4448 H 421.93 3.40137 -6.09059 0
M  V30 4449 H 417.827 4.04035 -5.03415 0
M  V30 4450 H 418.595 4.055 -7.10993 0
M  V30 4451 N 421.258 1.00505 1.21394 0
M  V30 4452 C 422.168 0.574806 2.27449 0
M  V30 4453 C 423.184 -0.382206 1.6975 0
M  V30 4454 O 424.36 -0.246027 1.99892 0
M  V30 4455 C 421.425 -0.0917414 3.46579 0
M  V30 4456 C 420.486 0.909758 4.1955 0
M  V30 4457 C 419.719 0.274924 5.32991 0
M  V30 4458 O 419.942 -0.928254 5.62796 0
M  V30 4459 O 418.876 0.985877 5.93771 0
M  V30 4460 H 422.702 1.45744 2.66444 0
M  V30 4461 H 420.287 0.773923 1.27792 0
M  V30 4462 H 422.169 -0.464551 4.18832 0
M  V30 4463 H 420.844 -0.948755 3.09484 0
M  V30 4464 H 419.751 1.33372 3.49518 0
M  V30 4465 H 421.084 1.73636 4.60555 0
M  V30 4466 N 422.737 -1.36956 0.779787 0
M  V30 4467 C 423.647 -2.33965 0.172491 0
M  V30 4468 C 424.663 -1.60574 -0.670222 0
M  V30 4469 O 425.839 -1.92617 -0.588263 0
M  V30 4470 C 422.904 -3.39761 -0.690173 0
M  V30 4471 C 421.965 -4.28964 0.169924 0
M  V30 4472 C 421.198 -5.29707 -0.651662 0
M  V30 4473 O 421.421 -5.38238 -1.88827 0
M  V30 4474 O 420.355 -6.01873 -0.0566264 0
M  V30 4475 H 424.181 -2.87647 0.974321 0
M  V30 4476 H 421.766 -1.39258 0.541078 0
M  V30 4477 H 423.648 -4.04471 -1.1824 0
M  V30 4478 H 422.323 -2.88394 -1.47006 0
M  V30 4479 H 421.23 -3.67326 0.708696 0
M  V30 4480 H 422.563 -4.83656 0.913085 0
M  V30 4481 N 424.215 -0.530993 -1.48385 0
M  V30 4482 C 425.125 0.23503 -2.3342 0
M  V30 4483 C 426.141 0.93801 -1.46552 0
M  V30 4484 O 427.317 0.912745 -1.7953 0
M  V30 4485 C 424.382 1.26778 -3.22689 0
M  V30 4486 C 423.443 0.575038 -4.25431 0
M  V30 4487 C 422.676 1.55858 -5.10435 0
M  V30 4488 O 422.899 2.79129 -4.97437 0
M  V30 4489 O 421.833 1.09742 -5.91811 0
M  V30 4490 H 425.659 -0.461794 -3.00169 0
M  V30 4491 H 423.244 -0.291903 -1.46521 0
M  V30 4492 H 425.126 1.86457 -3.77904 0
M  V30 4493 H 423.801 1.94699 -2.586 0
M  V30 4494 H 422.708 -0.0622782 -3.74048 0
M  V30 4495 H 424.041 -0.062253 -4.92161 0
M  V30 4496 N 425.693 1.55336 -0.266172 0
M  V30 4497 C 426.603 2.2583 0.635458 0
M  V30 4498 C 427.619 1.28106 1.17749 0
M  V30 4499 O 428.795 1.61024 1.20968 0
M  V30 4500 C 425.86 2.95879 1.80712 0
M  V30 4501 C 424.921 4.09059 1.30265 0
M  V30 4502 C 424.154 4.75759 2.41846 0
M  V30 4503 O 424.377 4.41622 3.61007 0
M  V30 4504 O 423.311 5.63888 2.1051 0
M  V30 4505 H 427.137 3.03631 0.0646693 0
M  V30 4506 H 424.722 1.49361 -0.0339177 0
M  V30 4507 H 426.604 3.39932 2.49047 0
M  V30 4508 H 425.279 2.21002 2.36516 0
M  V30 4509 H 424.186 3.69482 0.586019 0
M  V30 4510 H 425.519 4.85811 0.790458 0
M  V30 4511 N 427.171 -0.0066808 1.57599 0
M  V30 4512 C 428.119 -1.01851 2.09115 0
M  V30 4513 C 429.113 -1.36021 1.00969 0
M  V30 4514 O 430.319 -1.34663 1.19439 0
M  V30 4515 H 426.694 -0.346083 0.667631 0
M  V30 4516 H 428.665 -0.558394 2.93129 0
M  V30 4517 C 427.414 -2.30374 2.60429 0
M  V30 4518 H 426.737 -2.04947 3.43273 0
M  V30 4519 H 428.177 -2.99466 3.00161 0
M  V30 4520 C 426.636 -3.00893 1.51542 0
M  V30 4521 O 427.166 -3.91614 0.894484 0
M  V30 4522 N 425.372 -2.62603 1.2445 0
M  V30 4523 H 424.919 -1.88911 1.75129 0
M  V30 4524 H 424.877 -3.10101 0.518137 0
M  V30 4525 N 428.649 -1.55105 -0.279332 0
M  V30 4526 C 429.897 -1.75066 -1.00977 0
M  V30 4527 C 430.218 -0.551276 -1.87045 0
M  V30 4528 O 429.488 0.433984 -1.91032 0
M  V30 4529 H 428.068 -0.645578 -0.375816 0
M  V30 4530 H 430.73 -1.92497 -0.305089 0
M  V30 4531 H 429.826 -2.64894 -1.65038 0
M  V30 4532 N 430.127 0.543554 -1.4793 0
M  V30 4533 C 431.375 1.29752 -1.54948 0
M  V30 4534 C 431.696 1.93764 -0.219242 0
M  V30 4535 O 430.966 1.80639 0.75805 0
M  V30 4536 H 429.546 0.481874 -0.570795 0
M  V30 4537 H 432.208 0.633636 -1.84312 0
M  V30 4538 H 431.304 2.08392 -2.32334 0
M  V30 4539 N 431.605 1.3629 0.791371 0
M  V30 4540 C 432.851 1.30605 1.55146 0
M  V30 4541 C 433.184 -0.115042 1.93859 0
M  V30 4542 O 432.459 -1.06798 1.62556 0
M  V30 4543 C 432.742 2.22692 2.82985 0
M  V30 4544 C 432.595 3.73489 2.50651 0
M  V30 4545 C 433.914 2.13588 3.84796 0
M  V30 4546 H 431.033 0.475761 0.562868 0
M  V30 4547 H 433.675 1.66825 0.909358 0
M  V30 4548 H 431.825 1.91933 3.37778 0
M  V30 4549 H 433.497 4.14758 2.01924 0
M  V30 4550 H 431.74 3.93021 1.83622 0
M  V30 4551 H 432.411 4.3333 3.41949 0
M  V30 4552 H 434.887 2.40659 3.39445 0
M  V30 4553 H 433.763 2.80195 4.71998 0
M  V30 4554 H 434.024 1.12256 4.27611 0
M  V30 4555 N 433.083 -1.0153 1.20538 0
M  V30 4556 C 434.329 -1.75517 1.02787 0
M  V30 4557 C 434.684 -1.87411 -0.435289 0
M  V30 4558 O 433.977 -1.38982 -1.31889 0
M  V30 4559 C 434.171 -3.17213 1.64654 0
M  V30 4560 C 434 -3.19134 3.16834 0
M  V30 4561 C 432.77 -3.26301 3.85818 0
M  V30 4562 C 434.968 -3.05077 4.14044 0
M  V30 4563 N 432.95 -3.17739 5.25276 0
M  V30 4564 C 434.321 -3.04299 5.40187 0
M  V30 4565 C 436.376 -2.89303 4.05226 0
M  V30 4566 C 435.079 -2.89365 6.58529 0
M  V30 4567 C 437.105 -2.75723 5.23193 0
M  V30 4568 C 436.467 -2.75612 6.48242 0
M  V30 4569 H 432.566 -0.652919 0.430373 0
M  V30 4570 H 435.15 -1.20755 1.52729 0
M  V30 4571 H 433.321 -3.70266 1.17294 0
M  V30 4572 H 435.053 -3.79637 1.40208 0
M  V30 4573 H 431.808 -3.33078 3.36684 0
M  V30 4574 H 432.232 -3.16829 5.98288 0
M  V30 4575 H 436.874 -2.88201 3.09354 0
M  V30 4576 H 434.592 -2.89216 7.54573 0
M  V30 4577 H 438.178 -2.64533 5.18183 0
M  V30 4578 H 437.058 -2.65224 7.37988 0
M  V30 4579 N 434.561 -1.01147 -1.20859 0
M  V30 4580 C 435.471 -0.58686 -2.27141 0
M  V30 4581 C 436.487 0.373198 -1.69951 0
M  V30 4582 O 437.663 0.235423 -2.00019 0
M  V30 4583 C 434.728 0.0733602 -3.46622 0
M  V30 4584 C 433.789 -0.931995 -4.19061 0
M  V30 4585 C 433.022 -0.303186 -5.32838 0
M  V30 4586 O 433.245 0.898395 -5.63281 0
M  V30 4587 O 432.179 -1.01735 -5.9324 0
M  V30 4588 H 436.005 -1.47155 -2.65667 0
M  V30 4589 H 433.59 -0.780689 -1.2738 0
M  V30 4590 H 435.472 0.442333 -4.19072 0
M  V30 4591 H 434.147 0.932329 -3.09983 0
M  V30 4592 H 433.054 -1.35224 -3.48805 0
M  V30 4593 H 434.387 -1.76076 -4.59628 0
M  V30 4594 N 436.039 1.36541 -0.78704 0
M  V30 4595 C 437.287 1.98911 -0.357633 0
M  V30 4596 C 437.608 1.62778 1.07371 0
M  V30 4597 O 436.878 0.900612 1.73971 0
M  V30 4598 H 435.458 0.735734 -0.129246 0
M  V30 4599 H 438.12 1.66776 -1.00855 0
M  V30 4600 H 437.216 3.08874 -0.447549 0
M  V30 4601 N 437.518 0.538854 1.48102 0
M  V30 4602 C 438.765 0.0080018 2.02498 0
M  V30 4603 C 439.093 -1.33437 1.41509 0
M  V30 4604 O 438.348 -1.87709 0.553507 0
M  V30 4605 C 438.647 -0.153808 3.57069 0
M  V30 4606 C 438.313 1.11533 4.36888 0
M  V30 4607 C 436.975 1.46314 4.58417 0
M  V30 4608 C 439.327 1.95718 4.83057 0
M  V30 4609 C 436.655 2.6516 5.23361 0
M  V30 4610 C 439.007 3.13751 5.49312 0
M  V30 4611 C 437.671 3.48866 5.69077 0
M  V30 4612 H 436.941 0.00292807 0.740994 0
M  V30 4613 H 439.588 0.706668 1.77984 0
M  V30 4614 H 437.893 -0.935309 3.80472 0
M  V30 4615 H 439.59 -0.579607 3.96789 0
M  V30 4616 H 436.18 0.834484 4.20398 0
M  V30 4617 H 440.364 1.70158 4.66219 0
M  V30 4618 H 435.62 2.92558 5.36861 0
M  V30 4619 H 439.794 3.79282 5.84053 0
M  V30 4620 H 437.421 4.41054 6.19173 0
M  V30 4621 N 438.996 -1.55193 0.274407 0
M  V30 4622 C 440.244 -1.99187 -0.341902 0
M  V30 4623 C 440.565 -1.16422 -1.56431 0
M  V30 4624 O 439.835 -0.253573 -1.94252 0
M  V30 4625 H 438.415 -0.735721 -0.129317 0
M  V30 4626 H 441.077 -1.91168 0.379578 0
M  V30 4627 H 440.173 -3.05629 -0.632253 0
M  V30 4628 N 440.474 -0.00167713 -1.576 0
M  V30 4629 C 441.751 0.719951 -1.81868 0
M  V30 4630 C 442.131 1.91895 -0.879747 0
M  V30 4631 O 441.479 2.28389 0.0711423 0
M  V30 4632 C 441.689 1.12409 -3.30402 0
M  V30 4633 C 443.037 1.52724 -3.96182 0
M  V30 4634 O 444.061 1.21784 -3.34734 0
M  V30 4635 O 442.92 2.10265 -5.04431 0
M  V30 4636 H 440.014 0.350707 -0.748955 0
M  V30 4637 H 442.56 -0.0272597 -1.69678 0
M  V30 4638 H 441.332 0.269532 -3.90371 0
M  V30 4639 H 440.955 1.93035 -3.47596 0
M  V30 4640 N 441.952 1.55251 0.271103 0
M  V30 4641 C 443.199 1.75946 1.00245 0
M  V30 4642 C 443.527 0.561611 1.86215 0
M  V30 4643 O 442.782 -0.455832 1.90317 0
M  V30 4644 C 443.081 3.01879 1.91321 0
M  V30 4645 C 442.747 4.34337 1.21086 0
M  V30 4646 C 441.409 4.70338 1.01666 0
M  V30 4647 C 443.761 5.16325 0.71119 0
M  V30 4648 C 441.089 5.8588 0.310099 0
M  V30 4649 C 443.441 6.32597 0.0182157 0
M  V30 4650 C 442.105 6.67236 -0.18768 0
M  V30 4651 H 441.375 0.643833 0.366824 0
M  V30 4652 H 444.022 1.89521 0.27458 0
M  V30 4653 H 442.327 2.83212 2.70736 0
M  V30 4654 H 444.024 3.15088 2.48033 0
M  V30 4655 H 440.614 4.06043 1.37213 0
M  V30 4656 H 444.798 4.88987 0.848844 0
M  V30 4657 H 440.054 6.1124 0.139873 0
M  V30 4658 H 444.228 6.9538 -0.376711 0
M  V30 4659 H 441.855 7.56618 -0.73715 0
M  V30 4660 N 443.43 -0.535701 1.48216 0
M  V30 4661 C 444.655 -1.32149 1.59848 0
M  V30 4662 C 445.08 -1.86338 0.256842 0
M  V30 4663 O 444.438 -1.64107 -0.770632 0
M  V30 4664 C 444.486 -2.45224 2.64381 0
M  V30 4665 O 443.59 -3.48093 2.21144 0
M  V30 4666 H 442.931 -0.391634 0.536208 0
M  V30 4667 H 445.461 -0.645202 1.94161 0
M  V30 4668 H 445.471 -2.91491 2.85476 0
M  V30 4669 H 444.146 -2.05143 3.61786 0
M  V30 4670 H 442.723 -3.07984 2.10239 0
M  V30 4671 N 444.908 -1.36708 -0.784132 0
M  V30 4672 C 446.319 -1.27947 -1.35965 0
M  V30 4673 C 446.67 0.0784013 -1.96043 0
M  V30 4674 O 445.795 0.979989 -1.92938 0
M  V30 4675 C 446.39 -2.31689 -2.47195 0
M  V30 4676 C 444.949 -2.26601 -3.00548 0
M  V30 4677 C 444.096 -2.16184 -1.73666 0
M  V30 4678 H 447.047 -1.4751 -0.585358 0
M  V30 4679 H 447.068 -1.95638 -3.26352 0
M  V30 4680 H 446.58 -3.30506 -2.03439 0
M  V30 4681 H 444.681 -1.31268 -3.48711 0
M  V30 4682 H 444.794 -3.19508 -3.57004 0
M  V30 4683 H 443.158 -1.62524 -1.96107 0
M  V30 4684 H 443.941 -3.16896 -1.32031 0
M  V30 4685 N 446.386 1.0089 -1.21074 0
M  V30 4686 C 447.614 1.78191 -1.05145 0
M  V30 4687 C 448.029 1.84537 0.398952 0
M  V30 4688 O 447.386 1.30393 1.27687 0
M  V30 4689 C 447.437 3.22288 -1.63746 0
M  V30 4690 O 447.158 3.16315 -3.03111 0
M  V30 4691 C 448.659 4.16106 -1.52875 0
M  V30 4692 H 445.879 0.560129 -0.369454 0
M  V30 4693 H 448.423 1.26945 -1.60328 0
M  V30 4694 H 446.578 3.70655 -1.12664 0
M  V30 4695 H 446.992 4.06817 -3.31059 0
M  V30 4696 H 448.466 5.15026 -1.98626 0
M  V30 4697 H 448.943 4.36541 -0.482521 0
M  V30 4698 H 449.549 3.73625 -2.03185 0
M  V30 4699 N 447.864 1.01787 1.20321 0
M  V30 4700 C 449.141 0.622978 1.85414 0
M  V30 4701 C 449.521 -0.898887 1.91006 0
M  V30 4702 O 448.869 -1.79112 1.41884 0
M  V30 4703 C 449.079 1.27226 3.24984 0
M  V30 4704 C 450.427 1.3885 4.01255 0
M  V30 4705 O 451.451 1.22857 3.34342 0
M  V30 4706 O 450.31 1.64705 5.2109 0
M  V30 4707 H 447.404 0.215116 0.798533 0
M  V30 4708 H 449.95 1.11533 1.27901 0
M  V30 4709 H 448.722 2.31209 3.15687 0
M  V30 4710 H 448.345 0.767069 3.90131 0
M  V30 4711 N 449.342 -1.36122 0.79427 0
M  V30 4712 C 450.588 -1.99406 0.369452 0
M  V30 4713 C 450.921 -1.62886 -1.05743 0
M  V30 4714 O 450.196 -0.886053 -1.73145 0
M  V30 4715 C 450.479 -3.56046 0.538833 0
M  V30 4716 C 450.332 -4.02404 2.00976 0
M  V30 4717 C 451.651 -4.40079 -0.0431359 0
M  V30 4718 H 448.77 -0.724397 0.135712 0
M  V30 4719 H 451.412 -1.61461 1.00151 0
M  V30 4720 H 449.562 -3.885 0.000771004 0
M  V30 4721 H 451.234 -3.80415 2.60926 0
M  V30 4722 H 449.477 -3.53765 2.51063 0
M  V30 4723 H 450.148 -5.11344 2.07922 0
M  V30 4724 H 452.624 -4.14013 0.416228 0
M  V30 4725 H 451.5 -5.48799 0.105374 0
M  V30 4726 H 451.761 -4.27264 -1.13571 0
M  V30 4727 N 450.82 -0.546701 -1.47814 0
M  V30 4728 C 451.77 0.227042 -2.26867 0
M  V30 4729 C 452.754 0.894844 -1.33721 0
M  V30 4730 O 453.946 0.794887 -1.58147 0
M  V30 4731 C 451.075 1.26299 -3.19223 0
M  V30 4732 C 450.161 0.59913 -4.19847 0
M  V30 4733 N 450.552 -0.324777 -5.04756 0
M  V30 4734 C 448.85 0.854331 -4.37741 0
M  V30 4735 C 449.551 -0.709386 -5.77358 0
M  V30 4736 N 448.527 -0.0666153 -5.43559 0
M  V30 4737 H 452.329 -0.483476 -2.89896 0
M  V30 4738 H 449.843 -0.365893 -1.58224 0
M  V30 4739 H 451.84 1.83116 -3.74532 0
M  V30 4740 H 450.5 1.97471 -2.57751 0
M  V30 4741 H 451.511 -0.698351 -5.1317 0
M  V30 4742 H 448.188 1.55536 -3.87447 0
M  V30 4743 H 449.578 -1.46796 -6.55668 0
M  V30 4744 N 452.299 1.55045 -0.282633 0
M  V30 4745 C 453.715 1.59441 0.0712997 0
M  V30 4746 C 453.915 1.2998 1.53972 0
M  V30 4747 O 452.971 1.06431 2.28973 0
M  V30 4748 C 454.284 2.99097 -0.310104 0
M  V30 4749 C 455.832 3.1194 -0.257343 0
M  V30 4750 C 456.307 4.53875 -0.613297 0
M  V30 4751 N 457.798 4.5974 -0.565134 0
M  V30 4752 C 458.533 5.67603 -0.81326 0
M  V30 4753 N 458.029 6.83582 -1.1264 0
M  V30 4754 N 459.822 5.57187 -0.741553 0
M  V30 4755 H 451.973 1.72458 -1.23984 0
M  V30 4756 H 454.236 0.804549 -0.501403 0
M  V30 4757 H 453.942 3.25516 -1.33163 0
M  V30 4758 H 453.816 3.75616 0.345366 0
M  V30 4759 H 456.203 2.85281 0.754905 0
M  V30 4760 H 456.284 2.37618 -0.947178 0
M  V30 4761 H 455.928 4.81261 -1.62327 0
M  V30 4762 H 455.858 5.26508 0.09841 0
M  V30 4763 H 458.349 3.76427 -0.333294 0
M  V30 4764 H 458.662 7.6175 -1.30219 0
M  V30 4765 H 457.007 6.85179 -1.16425 0
M  V30 4766 H 460.198 4.65457 -0.496705 0
M  V30 4767 H 460.371 6.41171 -0.938306 0
M  V30 4768 N 453.777 0.010035 1.57597 0
M  V30 4769 C 454.709 -1.00649 2.05918 0
M  V30 4770 C 455.722 -1.30077 0.978964 0
M  V30 4771 O 456.911 -1.26878 1.25556 0
M  V30 4772 C 454.011 -2.33876 2.45265 0
M  V30 4773 C 453.184 -2.23242 3.7614 0
M  V30 4774 C 452.243 -3.39242 4.02245 0
M  V30 4775 O 451.269 -3.1698 4.72771 0
M  V30 4776 N 452.471 -4.6242 3.50924 0
M  V30 4777 H 455.236 -0.594333 2.93748 0
M  V30 4778 H 452.797 -0.17714 1.60928 0
M  V30 4779 H 454.789 -3.1027 2.59836 0
M  V30 4780 H 453.359 -2.66799 1.62902 0
M  V30 4781 H 452.579 -1.31696 3.71551 0
M  V30 4782 H 453.867 -2.13321 4.61922 0
M  V30 4783 H 453.265 -4.83404 2.93832 0
M  V30 4784 H 451.822 -5.36046 3.70807 0
M  V30 4785 N 455.255 -1.55392 -0.262866 0
M  V30 4786 C 456.502 -1.76476 -0.993109 0
M  V30 4787 C 456.83 -0.571479 -1.85915 0
M  V30 4788 O 456.085 0.445733 -1.90556 0
M  V30 4789 C 456.384 -3.02889 -1.89718 0
M  V30 4790 C 456.05 -4.34974 -1.18781 0
M  V30 4791 C 454.712 -4.7087 -0.991699 0
M  V30 4792 C 457.064 -5.16695 -0.683798 0
M  V30 4793 C 454.392 -5.86036 -0.279024 0
M  V30 4794 C 456.744 -6.32598 0.0153327 0
M  V30 4795 C 455.408 -6.67127 0.223062 0
M  V30 4796 H 454.678 -0.64577 -0.363404 0
M  V30 4797 H 457.325 -1.89664 -0.264525 0
M  V30 4798 H 455.63 -2.84644 -2.6923 0
M  V30 4799 H 457.327 -3.16399 -2.46359 0
M  V30 4800 H 453.917 -4.06765 -1.35058 0
M  V30 4801 H 458.101 -4.8943 -0.8229 0
M  V30 4802 H 453.357 -6.11306 -0.107456 0
M  V30 4803 H 457.531 -6.95171 0.413584 0
M  V30 4804 H 455.158 -7.56216 0.777265 0
M  V30 4805 N 456.733 0.527833 -1.48498 0
M  V30 4806 C 457.696 1.61439 -1.62696 0
M  V30 4807 C 458.696 1.52824 -0.500136 0
M  V30 4808 O 459.886 1.56456 -0.765976 0
M  V30 4809 C 457.018 3.01063 -1.59918 0
M  V30 4810 H 458.211 1.50189 -2.59583 0
M  V30 4811 H 455.764 0.750055 -1.37127 0
M  V30 4812 H 456.499 3.17818 -0.645163 0
M  V30 4813 H 456.284 3.08725 -2.41726 0
M  V30 4814 H 457.774 3.80057 -1.73051 0
M  V30 4815 N 458.211 1.37122 0.776871 0
M  V30 4816 C 459.46 1.31373 1.53049 0
M  V30 4817 C 459.773 -0.101016 1.95339 0
M  V30 4818 O 460.979 -0.280953 2.70042 0
M  V30 4819 C 459.435 2.30567 2.76346 0
M  V30 4820 C 459.043 3.77543 2.41175 0
M  V30 4821 C 460.787 2.33818 3.54301 0
M  V30 4822 C 458.694 4.68481 3.60943 0
M  V30 4823 H 457.624 0.488234 0.574581 0
M  V30 4824 H 460.275 1.62554 0.851372 0
M  V30 4825 H 458.657 1.92396 3.46121 0
M  V30 4826 H 459.831 4.24521 1.79216 0
M  V30 4827 H 458.146 3.77187 1.76405 0
M  V30 4828 H 460.743 2.98965 4.4331 0
M  V30 4829 H 461.086 1.3503 3.93793 0
M  V30 4830 H 461.619 2.7067 2.91518 0
M  V30 4831 H 458.358 5.68378 3.26537 0
M  V30 4832 H 457.878 4.2621 4.22025 0
M  V30 4833 H 459.557 4.85366 4.27819 0
M  V30 4834 N 459.689 -1.00246 1.21608 0
M  V30 4835 C 460.935 -1.74319 1.03638 0
M  V30 4836 C 461.268 -1.89408 -0.428749 0
M  V30 4837 O 460.543 -1.43026 -1.3181 0
M  V30 4838 C 460.826 -3.15431 1.73711 0
M  V30 4839 C 460.679 -3.08049 3.27759 0
M  V30 4840 C 461.998 -4.14407 1.48173 0
M  V30 4841 H 459.117 -0.632741 0.377899 0
M  V30 4842 H 461.759 -1.16853 1.49818 0
M  V30 4843 H 459.909 -3.64493 1.34452 0
M  V30 4844 H 461.581 -2.66681 3.76403 0
M  V30 4845 H 459.824 -2.45088 3.57931 0
M  V30 4846 H 460.495 -4.07862 3.71958 0
M  V30 4847 H 462.971 -3.74061 1.82258 0
M  V30 4848 H 461.847 -5.11279 1.99713 0
M  V30 4849 H 462.108 -4.40174 0.412273 0
M  V30 4850 N 461.167 -1.02423 -1.1978 0
M  V30 4851 C 462.414 -0.717988 -1.89344 0
M  V30 4852 C 462.742 0.753036 -1.79331 0
M  V30 4853 O 461.997 1.56355 -1.17692 0
M  V30 4854 C 462.296 -1.1088 -3.39765 0
M  V30 4855 C 461.962 -2.57731 -3.6998 0
M  V30 4856 C 460.624 -2.97854 -3.77937 0
M  V30 4857 C 462.976 -3.52763 -3.83677 0
M  V30 4858 C 460.304 -4.31931 -3.97054 0
M  V30 4859 C 462.656 -4.86538 -4.04306 0
M  V30 4860 C 461.32 -5.26356 -4.10494 0
M  V30 4861 H 460.59 -0.26273 -0.692859 0
M  V30 4862 H 463.237 -1.28623 -1.41875 0
M  V30 4863 H 461.542 -0.459094 -3.89101 0
M  V30 4864 H 463.239 -0.849432 -3.919 0
M  V30 4865 H 459.829 -2.25646 -3.64393 0
M  V30 4866 H 464.013 -3.2292 -3.76877 0
M  V30 4867 H 459.269 -4.62324 -4.00083 0
M  V30 4868 H 463.443 -5.60093 -4.13846 0
M  V30 4869 H 461.07 -6.3026 -4.2506 0
M  V30 4870 N 462.645 1.35699 -0.801477 0
M  V30 4871 C 463.592 2.29876 -0.206294 0
M  V30 4872 C 464.562 1.52565 0.656752 0
M  V30 4873 O 465.747 1.81024 0.602906 0
M  V30 4874 C 462.887 3.39052 0.643272 0
M  V30 4875 C 462 4.31335 -0.239644 0
M  V30 4876 C 461.135 5.27599 0.61744 0
M  V30 4877 C 460.174 6.11521 -0.26619 0
M  V30 4878 N 459.311 6.99938 0.550571 0
M  V30 4879 H 464.151 2.80187 -1.01484 0
M  V30 4880 H 461.688 1.37902 -0.511997 0
M  V30 4881 H 463.646 4.0101 1.15094 0
M  V30 4882 H 462.276 2.9003 1.41713 0
M  V30 4883 H 461.328 3.70426 -0.865381 0
M  V30 4884 H 462.64 4.90243 -0.919985 0
M  V30 4885 H 461.794 5.94906 1.19045 0
M  V30 4886 H 460.533 4.69176 1.33137 0
M  V30 4887 H 459.538 5.43166 -0.851507 0
M  V30 4888 H 460.763 6.72022 -0.9779 0
M  V30 4889 H 458.709 6.44008 1.24856 0
M  V30 4890 H 458.626 7.55966 -0.071832 0
M  V30 4891 H 459.894 7.71599 1.10702 0
M  V30 4892 N 464.123 0.554532 1.47522 0
M  V30 4893 C 465.351 0.034257 2.06872 0
M  V30 4894 C 465.766 -1.25826 1.40759 0
M  V30 4895 O 465.123 -1.75425 0.503217 0
M  V30 4896 C 465.174 -0.167827 3.6111 0
M  V30 4897 O 464.895 1.07351 4.24744 0
M  V30 4898 C 466.396 -0.72569 4.3732 0
M  V30 4899 H 463.616 0.0446275 0.669514 0
M  V30 4900 H 466.16 0.767181 1.89564 0
M  V30 4901 H 464.315 -0.850872 3.7794 0
M  V30 4902 H 464.729 0.869563 5.17242 0
M  V30 4903 H 466.203 -0.816394 5.45929 0
M  V30 4904 H 466.68 -1.73635 4.0342 0
M  V30 4905 H 467.286 -0.0784292 4.25228 0
M  V30 4906 N 465.601 -1.54893 0.290851 0
M  V30 4907 C 467.012 -1.85584 -0.203816 0
M  V30 4908 C 467.363 -1.21285 -1.54222 0
M  V30 4909 O 466.488 -0.506841 -2.10381 0
M  V30 4910 C 467.083 -3.367 -0.376595 0
M  V30 4911 C 465.642 -3.6746 -0.815485 0
M  V30 4912 C 464.789 -2.77178 0.0821087 0
M  V30 4913 H 467.74 -1.50208 0.512175 0
M  V30 4914 H 467.761 -3.60656 -1.21275 0
M  V30 4915 H 467.273 -3.8347 0.59767 0
M  V30 4916 H 465.374 -3.26201 -1.80066 0
M  V30 4917 H 465.487 -4.7478 -0.641905 0
M  V30 4918 H 463.851 -2.50925 -0.436895 0
M  V30 4919 H 464.634 -3.26767 1.05254 0
M  V30 4920 N 467.08 -0.0183926 -1.57589 0
M  V30 4921 C 468.027 0.967022 -2.09565 0
M  V30 4922 C 468.997 1.32983 -0.995225 0
M  V30 4923 O 470.182 1.42501 -1.26878 0
M  V30 4924 C 467.322 2.24772 -2.61861 0
M  V30 4925 C 466.435 1.94232 -3.85873 0
M  V30 4926 C 465.57 3.16518 -4.26603 0
M  V30 4927 C 464.609 2.81748 -5.43401 0
M  V30 4928 N 463.746 3.96626 -5.79338 0
M  V30 4929 H 468.586 0.516874 -2.93483 0
M  V30 4930 H 466.123 0.243544 -1.4507 0
M  V30 4931 H 468.081 2.99667 -2.90268 0
M  V30 4932 H 466.711 2.67423 -1.8079 0
M  V30 4933 H 465.763 1.09625 -3.64262 0
M  V30 4934 H 467.075 1.64616 -4.70853 0
M  V30 4935 H 466.229 3.99743 -4.56389 0
M  V30 4936 H 464.968 3.49286 -3.40368 0
M  V30 4937 H 463.973 1.96933 -5.1332 0
M  V30 4938 H 465.198 2.50207 -6.31327 0
M  V30 4939 H 463.144 4.29257 -4.96059 0
M  V30 4940 H 463.061 3.70598 -6.58933 0
M  V30 4941 H 464.329 4.80586 -6.13724 0
M  V30 4942 N 468.558 1.5553 0.254621 0
M  V30 4943 C 469.788 1.80784 1.00004 0
M  V30 4944 C 470.196 0.59071 1.79742 0
M  V30 4945 O 469.539 -0.449988 1.78103 0
M  V30 4946 C 469.601 2.99268 1.99196 0
M  V30 4947 C 469.265 4.35595 1.38224 0
M  V30 4948 C 470.262 5.13884 0.788611 0
M  V30 4949 C 467.947 4.82281 1.40393 0
M  V30 4950 C 469.941 6.37004 0.224783 0
M  V30 4951 C 467.628 6.05351 0.836243 0
M  V30 4952 C 468.626 6.82551 0.24769 0
M  V30 4953 O 468.314 8.03297 -0.311249 0
M  V30 4954 H 468.046 0.60565 0.300274 0
M  V30 4955 H 470.6 2.03411 0.285143 0
M  V30 4956 H 468.83 2.72377 2.74496 0
M  V30 4957 H 470.519 3.11682 2.60018 0
M  V30 4958 H 471.285 4.78938 0.764423 0
M  V30 4959 H 467.164 4.22189 1.85142 0
M  V30 4960 H 470.708 6.97203 -0.235235 0
M  V30 4961 H 466.605 6.39776 0.857733 0
M  V30 4962 H 467.373 8.1825 -0.20237 0
M  V30 4963 N 470.036 -0.519951 1.48776 0
M  V30 4964 C 470.983 -1.62352 1.64044 0
M  V30 4965 C 471.953 -1.58945 0.482251 0
M  V30 4966 O 473.138 -1.77219 0.706971 0
M  V30 4967 C 470.278 -3.00579 1.69547 0
M  V30 4968 C 469.391 -3.14145 2.96541 0
M  V30 4969 C 468.526 -4.42991 2.93142 0
M  V30 4970 C 467.565 -4.50122 4.14797 0
M  V30 4971 N 466.702 -5.7037 4.09418 0
M  V30 4972 H 471.542 -1.48643 2.58281 0
M  V30 4973 H 469.079 -0.723516 1.28077 0
M  V30 4974 H 471.037 -3.80671 1.70719 0
M  V30 4975 H 469.667 -3.13036 0.787918 0
M  V30 4976 H 468.719 -2.27239 3.05068 0
M  V30 4977 H 470.031 -3.15275 3.86527 0
M  V30 4978 H 469.185 -5.31385 2.92772 0
M  V30 4979 H 467.924 -4.44398 2.00902 0
M  V30 4980 H 466.929 -3.60133 4.15433 0
M  V30 4981 H 468.154 -4.50445 5.08208 0
M  V30 4982 H 466.1 -5.72655 3.20004 0
M  V30 4983 H 466.017 -5.73036 4.93119 0
M  V30 4984 H 467.285 -6.61023 4.13121 0
M  V30 4985 N 471.514 -1.37532 -0.769588 0
M  V30 4986 C 472.791 -1.23392 -1.51768 0
M  V30 4987 C 473.171 0.17157 -2.10402 0
M  V30 4988 O 472.519 1.17943 -1.95708 0
M  V30 4989 C 472.729 -2.33163 -2.59685 0
M  V30 4990 C 474.077 -2.70809 -3.27028 0
M  V30 4991 O 475.101 -2.32355 -2.69981 0
M  V30 4992 O 473.96 -3.37066 -4.30173 0
M  V30 4993 H 471.054 -0.481617 -0.67229 0
M  V30 4994 H 473.6 -1.49318 -0.806368 0
M  V30 4995 H 472.372 -3.27273 -2.14494 0
M  V30 4996 H 471.995 -2.08713 -3.38415 0
M  V30 4997 N 472.992 0.995999 -1.22138 0
M  V30 4998 C 474.241 1.72928 -1.03821 0
M  V30 4999 C 474.554 1.90872 0.427444 0
M  V30 5000 O 475.76 2.61496 0.730212 0
M  V30 5001 C 474.216 3.11124 -1.80913 0
M  V30 5002 C 473.824 3.01122 -3.31707 0
M  V30 5003 C 475.568 3.8852 -1.71035 0
M  V30 5004 C 473.475 4.34453 -4.01253 0
M  V30 5005 H 472.405 0.648376 -0.384869 0
M  V30 5006 H 475.056 1.11213 -1.45959 0
M  V30 5007 H 473.438 3.73503 -1.31573 0
M  V30 5008 H 474.612 2.47926 -3.88419 0
M  V30 5009 H 472.927 2.3721 -3.42228 0
M  V30 5010 H 475.524 4.872 -2.20318 0
M  V30 5011 H 475.867 4.1087 -0.670196 0
M  V30 5012 H 476.4 3.32812 -2.17902 0
M  V30 5013 H 473.139 4.17303 -5.05508 0
M  V30 5014 H 472.659 4.87574 -3.49331 0
M  V30 5015 H 474.338 5.03215 -4.06674 0
M  V30 5016 N 474.47 1.03057 1.19235 0
M  V30 5017 C 475.418 0.606391 2.24557 0
M  V30 5018 C 476.412 -0.361826 1.65491 0
M  V30 5019 O 477.618 -0.23022 1.78522 0
M  V30 5020 H 473.993 0.177838 0.730669 0
M  V30 5021 H 475.964 1.50529 2.5765 0
M  V30 5022 C 474.713 -0.0252127 3.47691 0
M  V30 5023 H 474.036 0.710838 3.9343 0
M  V30 5024 H 475.476 -0.284931 4.23042 0
M  V30 5025 C 473.935 -1.27229 3.11953 0
M  V30 5026 O 474.465 -2.36416 3.24762 0
M  V30 5027 N 472.671 -1.16169 2.6637 0
M  V30 5028 H 472.218 -0.273189 2.56147 0
M  V30 5029 H 472.176 -1.99703 2.42829 0
M  V30 5030 N 475.948 -1.35272 0.808662 0
M  V30 5031 C 477.197 -1.97963 0.386483 0
M  V30 5032 C 477.51 -1.64866 -1.05255 0
M  V30 5033 O 478.716 -2.20937 -1.57794 0
M  V30 5034 C 477.172 -3.54162 0.640096 0
M  V30 5035 C 476.78 -3.96166 2.0918 0
M  V30 5036 C 478.524 -4.23553 0.283376 0
M  V30 5037 C 476.431 -5.4522 2.29106 0
M  V30 5038 H 475.361 -0.740742 0.140774 0
M  V30 5039 H 478.012 -1.5431 0.993012 0
M  V30 5040 H 476.394 -3.95983 -0.0364117 0
M  V30 5041 H 477.568 -3.65491 2.80629 0
M  V30 5042 H 475.883 -3.3967 2.40859 0
M  V30 5043 H 478.48 -5.33124 0.410273 0
M  V30 5044 H 478.823 -4.09105 -0.770659 0
M  V30 5045 H 479.356 -3.8716 0.913884 0
M  V30 5046 H 476.095 -5.64638 3.32962 0
M  V30 5047 H 475.615 -5.77457 1.62184 0
M  V30 5048 H 477.294 -6.1171 2.1076 0
M  V30 5049 N 477.426 -0.562348 -1.47226 0
M  V30 5050 C 478.654 -0.0452275 -2.06851 0
M  V30 5051 C 479.069 1.25078 -1.41424 0
M  V30 5052 O 478.426 1.75156 -0.512513 0
M  V30 5053 C 478.477 0.148674 -3.61194 0
M  V30 5054 O 478.198 -1.09602 -4.24169 0
M  V30 5055 C 479.699 0.702488 -4.37699 0
M  V30 5056 H 476.919 -0.0481775 -0.669268 0
M  V30 5057 H 479.463 -0.777223 -1.89155 0
M  V30 5058 H 477.618 0.830817 -3.78386 0
M  V30 5059 H 478.032 -0.896982 -5.16773 0
M  V30 5060 H 479.506 0.78743 -5.46355 0
M  V30 5061 H 479.983 1.71493 -4.04335 0
M  V30 5062 H 480.589 0.0558772 -4.25263 0
M  V30 5063 N 478.904 1.54736 -0.299062 0
M  V30 5064 C 479.851 2.23448 0.577899 0
M  V30 5065 C 480.821 1.21637 1.13109 0
M  V30 5066 O 482.006 1.50252 1.17597 0
M  V30 5067 C 479.146 2.9774 1.74484 0
M  V30 5068 C 478.259 4.1432 1.22323 0
M  V30 5069 C 477.394 4.76199 2.35388 0
M  V30 5070 C 476.433 5.84927 1.80351 0
M  V30 5071 N 475.57 6.4077 2.86982 0
M  V30 5072 H 480.41 2.97996 -0.0146545 0
M  V30 5073 H 477.947 1.47088 -0.0190013 0
M  V30 5074 H 479.905 3.39045 2.43114 0
M  V30 5075 H 478.535 2.25572 2.30905 0
M  V30 5076 H 477.587 3.7797 0.429249 0
M  V30 5077 H 478.899 4.92659 0.780309 0
M  V30 5078 H 478.053 5.20346 3.11969 0
M  V30 5079 H 476.792 3.97188 2.83006 0
M  V30 5080 H 475.797 5.40207 1.02259 0
M  V30 5081 H 477.022 6.65821 1.3364 0
M  V30 5082 H 474.968 5.64643 3.33938 0
M  V30 5083 H 474.885 7.1445 2.4718 0
M  V30 5084 H 476.153 6.89574 3.63466 0
M  V30 5085 N 480.382 0.0267497 1.57577 0
M  V30 5086 C 481.793 -0.512413 1.79531 0
M  V30 5087 C 482.144 -1.72391 0.936791 0
M  V30 5088 O 481.269 -2.15903 0.146543 0
M  V30 5089 C 481.864 -0.936378 3.25603 0
M  V30 5090 C 480.423 -1.42067 3.4856 0
M  V30 5091 C 479.57 -0.384278 2.74624 0
M  V30 5092 H 482.521 0.252797 1.56674 0
M  V30 5093 H 482.542 -1.80088 3.35184 0
M  V30 5094 H 482.054 -0.0544332 3.88062 0
M  V30 5095 H 480.155 -2.32262 2.9135 0
M  V30 5096 H 480.268 -1.42968 4.57271 0
M  V30 5097 H 478.632 -0.851855 2.40032 0
M  V30 5098 H 479.415 0.489159 3.39797 0
M  V30 5099 N 481.861 -1.55662 -0.24637 0
M  V30 5100 C 482.824 -1.89558 -1.28842 0
M  V30 5101 C 483.824 -0.772082 -1.41052 0
M  V30 5102 O 485.014 -1.04007 -1.39743 0
M  V30 5103 C 482.146 -2.12449 -2.66605 0
M  V30 5104 H 483.339 -2.82735 -1.00004 0
M  V30 5105 H 480.892 -1.48562 -0.485684 0
M  V30 5106 H 481.627 -1.21742 -3.00582 0
M  V30 5107 H 481.412 -2.94273 -2.59125 0
M  V30 5108 H 482.902 -2.39854 -3.41847 0
M  V30 5109 N 483.339 0.512053 -1.4905 0
M  V30 5110 C 484.564 1.2959 -1.6193 0
M  V30 5111 C 484.989 1.85906 -0.286454 0
M  V30 5112 O 484.347 1.65312 0.744426 0
M  V30 5113 C 484.395 2.40987 -2.68249 0
M  V30 5114 O 483.499 3.44531 -2.26654 0
M  V30 5115 H 482.84 0.383053 -0.542371 0
M  V30 5116 H 485.37 0.614231 -1.95162 0
M  V30 5117 H 485.38 2.86913 -2.90078 0
M  V30 5118 H 484.055 1.99361 -3.65004 0
M  V30 5119 H 482.632 3.046 -2.15112 0
M  V30 5120 N 484.817 1.37938 0.762283 0
M  V30 5121 C 486.063 1.33866 1.52341 0
M  V30 5122 C 486.396 -0.0738961 1.94059 0
M  V30 5123 O 485.671 -1.03326 1.64785 0
M  V30 5124 C 485.954 2.28644 2.78197 0
M  V30 5125 C 485.807 3.78722 2.42672 0
M  V30 5126 C 487.126 2.21702 3.80179 0
M  V30 5127 H 484.245 0.487593 0.55265 0
M  V30 5128 H 486.887 1.68717 0.873767 0
M  V30 5129 H 485.037 1.99055 3.33631 0
M  V30 5130 H 486.709 4.18948 1.93081 0
M  V30 5131 H 484.952 3.96827 1.75244 0
M  V30 5132 H 485.623 4.40486 3.3268 0
M  V30 5133 H 488.099 2.47805 3.34263 0
M  V30 5134 H 486.975 2.90143 4.65949 0
M  V30 5135 H 487.236 1.21301 4.25133 0
M  V30 5136 N 486.295 -0.989507 1.22664 0
M  V30 5137 C 487.542 -1.72953 1.05325 0
M  V30 5138 C 487.87 -1.90104 -0.411168 0
M  V30 5139 O 487.125 -1.44386 -1.32103 0
M  V30 5140 C 487.424 -3.13649 1.71345 0
M  V30 5141 C 487.09 -3.16403 3.21248 0
M  V30 5142 C 485.752 -3.16862 3.62149 0
M  V30 5143 C 488.104 -3.12428 4.17179 0
M  V30 5144 C 485.432 -3.11051 4.97458 0
M  V30 5145 C 487.784 -3.08159 5.52468 0
M  V30 5146 C 486.448 -3.06935 5.92746 0
M  V30 5147 H 485.718 -0.632881 0.385412 0
M  V30 5148 H 488.365 -1.15863 1.52473 0
M  V30 5149 H 486.67 -3.74069 1.16532 0
M  V30 5150 H 488.367 -3.69658 1.55416 0
M  V30 5151 H 484.957 -3.16798 2.88682 0
M  V30 5152 H 489.141 -3.11221 3.86595 0
M  V30 5153 H 484.397 -3.0845 5.27891 0
M  V30 5154 H 488.571 -3.04039 6.26525 0
M  V30 5155 H 486.198 -3.02186 6.97558 0
M  V30 5156 N 487.773 -1.03688 -1.18687 0
M  V30 5157 C 489.019 -0.739123 -1.88851 0
M  V30 5158 C 489.352 0.731042 -1.79915 0
M  V30 5159 O 488.627 1.53313 -1.19688 0
M  V30 5160 C 488.91 -1.20106 -3.3948 0
M  V30 5161 C 488.763 -2.73304 -3.57246 0
M  V30 5162 C 490.082 -0.788134 -4.32986 0
M  V30 5163 H 487.201 -0.269978 -0.68577 0
M  V30 5164 H 489.843 -1.28822 -1.3966 0
M  V30 5165 H 487.993 -0.733915 -3.81505 0
M  V30 5166 H 489.665 -3.28027 -3.24339 0
M  V30 5167 H 487.908 -3.13313 -3.00029 0
M  V30 5168 H 488.579 -3.00684 -4.62918 0
M  V30 5169 H 491.055 -1.19005 -3.98719 0
M  V30 5170 H 489.931 -1.13915 -5.36949 0
M  V30 5171 H 490.192 0.308988 -4.41019 0
M  V30 5172 N 489.251 1.34841 -0.815825 0
M  V30 5173 C 490.183 2.28409 -0.190265 0
M  V30 5174 C 491.196 1.50705 0.615771 0
M  V30 5175 O 492.385 1.72822 0.446616 0
M  V30 5176 C 489.485 3.30441 0.752446 0
M  V30 5177 C 488.658 4.37399 -0.00922152 0
M  V30 5178 C 487.717 5.19234 0.853351 0
M  V30 5179 O 486.743 5.68404 0.300919 0
M  V30 5180 N 487.945 5.38248 2.17416 0
M  V30 5181 H 490.71 2.82732 -0.994114 0
M  V30 5182 H 488.271 1.47289 -0.672129 0
M  V30 5183 H 490.263 3.82084 1.33394 0
M  V30 5184 H 488.833 2.76565 1.45707 0
M  V30 5185 H 488.053 3.86567 -0.771979 0
M  V30 5186 H 489.341 5.05992 -0.533807 0
M  V30 5187 H 488.739 4.99961 2.6468 0
M  V30 5188 H 487.296 5.93035 2.70467 0
M  V30 5189 N 490.729 0.570148 1.46925 0
M  V30 5190 C 491.659 -0.158274 2.32963 0
M  V30 5191 C 492.64 -0.896093 1.44583 0
M  V30 5192 O 493.825 -0.874022 1.7342 0
M  V30 5193 C 490.955 -1.18055 3.26619 0
M  V30 5194 C 489.909 -0.558379 4.24342 0
M  V30 5195 C 489.235 -1.68623 5.07415 0
M  V30 5196 C 490.535 0.496295 5.19937 0
M  V30 5197 H 492.229 0.560046 2.94115 0
M  V30 5198 H 489.775 0.270775 1.41431 0
M  V30 5199 H 491.728 -1.69841 3.85658 0
M  V30 5200 H 490.452 -1.92899 2.63548 0
M  V30 5201 H 489.111 -0.0617157 3.66548 0
M  V30 5202 H 488.759 -2.42402 4.40738 0
M  V30 5203 H 488.459 -1.27564 5.73586 0
M  V30 5204 H 489.983 -2.20709 5.69315 0
M  V30 5205 H 491.397 0.0640052 5.73264 0
M  V30 5206 H 489.794 0.82649 5.94381 0
M  V30 5207 H 490.864 1.38735 4.6463 0
M  V30 5208 N 492.207 -1.54576 0.307264 0
M  V30 5209 C 493.623 -1.59534 -0.0459251 0
M  V30 5210 C 493.823 -1.32414 -1.51884 0
M  V30 5211 O 492.879 -1.1006 -2.27251 0
M  V30 5212 C 494.192 -2.98566 0.357649 0
M  V30 5213 C 495.74 -3.11491 0.306937 0
M  V30 5214 C 496.215 -4.52842 0.685427 0
M  V30 5215 N 497.706 -4.58782 0.638203 0
M  V30 5216 C 498.441 -5.66238 0.903458 0
M  V30 5217 N 497.937 -6.81703 1.23501 0
M  V30 5218 N 499.73 -5.55937 0.830102 0
M  V30 5219 H 491.881 -1.70464 1.26712 0
M  V30 5220 H 494.144 -0.79647 0.514139 0
M  V30 5221 H 493.85 -3.23356 1.38325 0
M  V30 5222 H 493.724 -3.76117 -0.285565 0
M  V30 5223 H 496.111 -2.86446 -0.709424 0
M  V30 5224 H 496.192 -2.36081 0.984861 0
M  V30 5225 H 495.836 -4.78618 1.69963 0
M  V30 5226 H 495.766 -5.26598 -0.0146346 0
M  V30 5227 H 498.257 -3.75849 0.393138 0
M  V30 5228 H 498.57 -7.59582 1.42322 0
M  V30 5229 H 496.915 -6.8324 1.27311 0
M  V30 5230 H 500.106 -4.64608 0.570693 0
M  V30 5231 H 500.279 -6.39597 1.04019 0
M  V30 5232 N 493.685 -0.035106 -1.57561 0
M  V30 5233 C 495.101 0.321334 -1.56332 0
M  V30 5234 C 495.301 1.72509 -1.04129 0
M  V30 5235 O 494.357 2.4287 -0.690694 0
M  V30 5236 C 495.67 0.164469 -3.0025 0
M  V30 5237 C 497.218 0.236786 -3.12103 0
M  V30 5238 C 497.693 0.10864 -4.57871 0
M  V30 5239 N 499.184 0.165433 -4.62904 0
M  V30 5240 C 499.919 0.0901506 -5.73329 0
M  V30 5241 N 499.415 -0.0365606 -6.9279 0
M  V30 5242 N 501.208 0.144572 -5.61914 0
M  V30 5243 H 493.359 -0.952976 -1.89821 0
M  V30 5244 H 495.622 -0.368537 -0.873432 0
M  V30 5245 H 495.328 -0.802746 -3.42416 0
M  V30 5246 H 495.202 0.932194 -3.655 0
M  V30 5247 H 497.589 1.19446 -2.69845 0
M  V30 5248 H 497.67 -0.561419 -2.49563 0
M  V30 5249 H 497.314 -0.845644 -5.00811 0
M  V30 5250 H 497.244 0.925786 -5.18398 0
M  V30 5251 H 499.735 0.263269 -3.76982 0
M  V30 5252 H 500.048 -0.0871487 -7.72751 0
M  V30 5253 H 498.393 -0.0714256 -6.94963 0
M  V30 5254 H 501.584 0.242006 -4.67474 0
M  V30 5255 H 501.757 0.0824413 -6.47948 0
M  V30 5256 N 495.163 1.55791 0.238111 0
M  V30 5257 C 496.11 1.9105 1.29493 0
M  V30 5258 C 497.08 0.765733 1.47397 0
M  V30 5259 O 498.265 1.02017 1.61236 0
M  V30 5260 C 495.405 2.21826 2.64362 0
M  V30 5261 C 494.518 3.49153 2.54394 0
M  V30 5262 C 493.653 3.69455 3.81676 0
M  V30 5263 C 492.692 4.90353 3.66361 0
M  V30 5264 N 491.829 5.07131 4.85554 0
M  V30 5265 H 496.669 2.81172 0.987233 0
M  V30 5266 H 494.206 1.39179 0.476203 0
M  V30 5267 H 496.164 2.37675 3.4288 0
M  V30 5268 H 494.794 1.34897 2.93262 0
M  V30 5269 H 493.846 3.41587 1.67399 0
M  V30 5270 H 495.158 4.37818 2.38991 0
M  V30 5271 H 494.312 3.85311 4.68636 0
M  V30 5272 H 493.051 2.7904 3.99985 0
M  V30 5273 H 492.056 4.74464 2.77784 0
M  V30 5274 H 493.281 5.82237 3.49538 0
M  V30 5275 H 491.227 4.19654 5.04209 0
M  V30 5276 H 491.144 5.89899 4.72816 0
M  V30 5277 H 492.412 5.27407 5.73988 0
M  V30 5278 N 496.642 -0.504142 1.49319 0
M  V30 5279 C 497.867 -1.28729 1.62615 0
M  V30 5280 C 498.292 -1.85752 0.296309 0
M  V30 5281 O 497.65 -1.65704 -0.735649 0
M  V30 5282 C 497.698 -2.39561 2.69524 0
M  V30 5283 O 496.802 -3.43324 2.28478 0
M  V30 5284 H 496.143 -0.380172 0.544395 0
M  V30 5285 H 498.673 -0.603872 1.95485 0
M  V30 5286 H 498.683 -2.8537 2.91595 0
M  V30 5287 H 497.358 -1.97423 3.66056 0
M  V30 5288 H 495.935 -3.03455 2.16725 0
M  V30 5289 N 498.12 -1.38341 -0.754957 0
M  V30 5290 C 499.397 -1.24995 -1.50451 0
M  V30 5291 C 499.777 0.149244 -2.10572 0
M  V30 5292 O 499.125 1.15861 -1.96948 0
M  V30 5293 C 499.335 -2.35904 -2.57197 0
M  V30 5294 C 500.683 -2.74262 -3.24138 0
M  V30 5295 O 501.707 -2.35205 -2.67501 0
M  V30 5296 O 500.566 -3.4161 -4.26574 0
M  V30 5297 H 497.66 -0.48872 -0.667144 0
M  V30 5298 H 500.206 -1.50165 -0.790486 0
M  V30 5299 H 498.978 -3.2953 -2.11011 0
M  V30 5300 H 498.601 -2.12291 -3.36182 0
M  V30 5301 N 499.598 0.982988 -1.23187 0
M  V30 5302 C 500.528 2.09301 -1.03515 0
M  V30 5303 C 501.509 1.70035 0.0471136 0
M  V30 5304 O 502.694 1.93847 -0.117029 0
M  V30 5305 C 499.824 3.4167 -0.622791 0
M  V30 5306 C 498.778 3.94828 -1.65211 0
M  V30 5307 C 498.104 5.23362 -1.09527 0
M  V30 5308 C 499.404 4.2439 -3.04451 0
M  V30 5309 H 501.098 2.26016 -1.96359 0
M  V30 5310 H 498.644 1.08611 -0.945501 0
M  V30 5311 H 500.597 4.18746 -0.472233 0
M  V30 5312 H 499.321 3.24811 0.341329 0
M  V30 5313 H 497.98 3.19895 -1.79061 0
M  V30 5314 H 497.628 5.02852 -0.122211 0
M  V30 5315 H 497.328 5.59895 -1.783 0
M  V30 5316 H 498.852 6.03062 -0.956511 0
M  V30 5317 H 500.266 4.92225 -2.93917 0
M  V30 5318 H 498.663 4.72118 -3.70438 0
M  V30 5319 H 499.733 3.31765 -3.53638 0
M  V30 5320 N 501.076 1.04316 1.18135 0
M  V30 5321 C 501.986 0.646876 2.25505 0
M  V30 5322 C 503.002 -0.328008 1.7088 0
M  V30 5323 O 504.178 -0.182309 2.00573 0
M  V30 5324 C 501.243 0.0185664 3.46695 0
M  V30 5325 C 500.304 1.04277 4.16443 0
M  V30 5326 C 499.537 0.444352 5.31847 0
M  V30 5327 O 499.76 -0.748735 5.65465 0
M  V30 5328 O 498.694 1.17428 5.90334 0
M  V30 5329 H 502.52 1.54147 2.61672 0
M  V30 5330 H 500.105 0.814188 1.25265 0
M  V30 5331 H 501.987 -0.331068 4.20097 0
M  V30 5332 H 500.662 -0.849814 3.12346 0
M  V30 5333 H 499.569 1.44425 3.45098 0
M  V30 5334 H 500.902 1.882 4.54798 0
M  V30 5335 N 502.554 -1.34406 0.822964 0
M  V30 5336 C 503.782 -2.02508 0.424039 0
M  V30 5337 C 504.197 -1.61975 -0.970022 0
M  V30 5338 O 503.554 -0.825228 -1.62777 0
M  V30 5339 C 503.605 -3.57789 0.516657 0
M  V30 5340 O 503.326 -3.96853 1.85577 0
M  V30 5341 C 504.827 -4.43157 0.112637 0
M  V30 5342 H 502.047 -0.649063 0.170173 0
M  V30 5343 H 504.591 -1.7168 1.11113 0
M  V30 5344 H 502.746 -3.87207 -0.122353 0
M  V30 5345 H 503.16 -4.91538 1.83005 0
M  V30 5346 H 504.634 -5.51527 0.228526 0
M  V30 5347 H 505.111 -4.28939 -0.943837 0
M  V30 5348 H 505.717 -4.19067 0.725449 0
M  V30 5349 N 504.032 -0.577932 -1.46621 0
M  V30 5350 C 505.257 -0.0652536 -2.07297 0
M  V30 5351 C 505.682 1.22828 -1.4246 0
M  V30 5352 O 505.04 1.74075 -0.506718 0
M  V30 5353 C 505.088 0.0920589 -3.60482 0
M  V30 5354 O 504.192 1.14972 -3.96049 0
M  V30 5355 H 503.533 -0.06065 -0.661224 0
M  V30 5356 H 506.063 -0.799515 -1.88332 0
M  V30 5357 H 506.073 0.299741 -4.06897 0
M  V30 5358 H 504.748 -0.852612 -4.07067 0
M  V30 5359 H 503.325 0.920879 -3.61351 0
M  V30 5360 N 505.51 1.54411 -0.315457 0
M  V30 5361 C 506.42 2.27737 0.56329 0
M  V30 5362 C 507.436 1.31787 1.13614 0
M  V30 5363 O 508.612 1.64791 1.15784 0
M  V30 5364 C 505.677 3.01478 1.71207 0
M  V30 5365 C 504.738 4.12997 1.17185 0
M  V30 5366 C 503.971 4.83212 2.26588 0
M  V30 5367 O 504.194 4.52884 3.46775 0
M  V30 5368 O 503.128 5.70299 1.92463 0
M  V30 5369 H 506.954 3.03683 -0.0319614 0
M  V30 5370 H 504.539 1.49178 -0.0814188 0
M  V30 5371 H 506.421 3.47683 2.38106 0
M  V30 5372 H 505.096 2.28414 2.29366 0
M  V30 5373 H 504.003 3.71159 0.468174 0
M  V30 5374 H 505.336 4.8808 0.635501 0
M  V30 5375 N 506.988 0.0434614 1.5754 0
M  V30 5376 C 508.399 -0.493343 1.80064 0
M  V30 5377 C 508.75 -1.71388 0.955023 0
M  V30 5378 O 507.875 -2.15736 0.169434 0
M  V30 5379 C 508.47 -0.90179 3.26578 0
M  V30 5380 C 507.029 -1.38362 3.50047 0
M  V30 5381 C 506.176 -0.355129 2.75017 0
M  V30 5382 H 509.127 0.2694 1.56397 0
M  V30 5383 H 509.148 -1.76523 3.37075 0
M  V30 5384 H 508.66 -0.013271 3.88098 0
M  V30 5385 H 506.761 -2.29159 2.93798 0
M  V30 5386 H 506.874 -1.3811 4.58762 0
M  V30 5387 H 505.238 -0.826348 2.40922 0
M  V30 5388 H 506.021 0.525172 3.39259 0
M  V30 5389 N 508.466 -1.55915 -0.229846 0
M  V30 5390 C 509.413 -1.91734 -1.28478 0
M  V30 5391 C 510.383 -0.773539 -1.46988 0
M  V30 5392 O 511.568 -1.02871 -1.60693 0
M  V30 5393 C 508.708 -2.23224 -2.63182 0
M  V30 5394 C 507.821 -3.50497 -2.52539 0
M  V30 5395 C 506.956 -3.71474 -3.79711 0
M  V30 5396 C 505.995 -4.92289 -3.63755 0
M  V30 5397 N 505.132 -5.09698 -4.82858 0
M  V30 5398 H 509.972 -2.81692 -0.972308 0
M  V30 5399 H 507.509 -1.39429 -0.468815 0
M  V30 5400 H 509.467 -2.3949 -3.41614 0
M  V30 5401 H 508.097 -1.36451 -2.92542 0
M  V30 5402 H 507.149 -3.4247 -1.65585 0
M  V30 5403 H 508.461 -4.39079 -2.36666 0
M  V30 5404 H 507.615 -3.87791 -4.66586 0
M  V30 5405 H 506.354 -2.81157 -3.985 0
M  V30 5406 H 505.359 -4.7593 -2.75264 0
M  V30 5407 H 506.584 -5.84083 -3.46445 0
M  V30 5408 H 504.53 -4.22322 -5.01976 0
M  V30 5409 H 504.447 -5.92399 -4.69681 0
M  V30 5410 H 505.715 -5.30443 -5.71183 0
M  V30 5411 N 509.944 0.496216 -1.49584 0
M  V30 5412 C 511.355 1.07765 -1.52459 0
M  V30 5413 C 511.706 1.93679 -0.31353 0
M  V30 5414 O 510.831 2.08588 0.576186 0
M  V30 5415 C 511.426 1.96111 -2.76271 0
M  V30 5416 C 509.985 2.49409 -2.81908 0
M  V30 5417 C 509.132 1.27142 -2.46435 0
M  V30 5418 H 512.083 0.279914 -1.56212 0
M  V30 5419 H 512.104 2.80862 -2.56704 0
M  V30 5420 H 511.616 1.33555 -3.64396 0
M  V30 5421 H 509.717 3.1559 -1.98074 0
M  V30 5422 H 509.83 2.86234 -3.84196 0
M  V30 5423 H 508.194 1.59818 -1.98319 0
M  V30 5424 H 508.977 0.662866 -3.3684 0
M  V30 5425 N 511.423 1.38739 0.74761 0
M  V30 5426 C 512.67 1.35274 1.50689 0
M  V30 5427 C 512.998 -0.0553359 1.94421 0
M  V30 5428 O 512.253 -1.03365 1.66175 0
M  V30 5429 C 512.552 2.25992 2.7688 0
M  V30 5430 C 512.218 3.73854 2.5208 0
M  V30 5431 C 510.88 4.14145 2.45025 0
M  V30 5432 C 513.232 4.67427 2.30568 0
M  V30 5433 C 510.56 5.4609 2.14483 0
M  V30 5434 C 512.912 5.99635 2.01545 0
M  V30 5435 C 511.576 6.39004 1.92951 0
M  V30 5436 H 510.846 0.495003 0.55141 0
M  V30 5437 H 513.493 1.71145 0.859158 0
M  V30 5438 H 511.798 1.83196 3.46333 0
M  V30 5439 H 513.495 2.20611 3.34861 0
M  V30 5440 H 510.085 3.41913 2.58444 0
M  V30 5441 H 514.269 4.3714 2.34994 0
M  V30 5442 H 509.525 5.75528 2.06342 0
M  V30 5443 H 513.699 6.71678 1.83906 0
M  V30 5444 H 511.326 7.41165 1.6905 0
M  V30 5445 N 512.901 -0.976442 1.23707 0
M  V30 5446 C 513.831 -2.08749 1.04624 0
M  V30 5447 C 514.812 -1.70057 -0.0380956 0
M  V30 5448 O 515.997 -1.93782 0.127308 0
M  V30 5449 C 513.127 -3.41335 0.640902 0
M  V30 5450 C 512.081 -3.93947 1.67302 0
M  V30 5451 C 511.407 -5.22774 1.12301 0
M  V30 5452 C 512.707 -4.22769 3.06697 0
M  V30 5453 H 514.401 -2.24972 1.97555 0
M  V30 5454 H 511.947 -1.08108 0.951247 0
M  V30 5455 H 513.9 -4.18489 0.494434 0
M  V30 5456 H 512.624 -3.24988 -0.324099 0
M  V30 5457 H 511.283 -3.18941 1.80755 0
M  V30 5458 H 510.931 -5.0278 0.148877 0
M  V30 5459 H 510.631 -5.58942 1.81267 0
M  V30 5460 H 512.155 -6.02546 0.988479 0
M  V30 5461 H 513.569 -4.90659 2.96524 0
M  V30 5462 H 511.966 -4.70147 3.72937 0
M  V30 5463 H 513.036 -3.29885 3.55392 0
M  V30 5464 N 514.379 -1.04941 -1.1758 0
M  V30 5465 C 515.609 -0.777166 -1.91425 0
M  V30 5466 C 516.017 0.670647 -1.76915 0
M  V30 5467 O 515.36 1.46965 -1.10213 0
M  V30 5468 C 515.422 -1.07495 -3.43052 0
M  V30 5469 C 515.086 -2.51844 -3.81345 0
M  V30 5470 C 516.083 -3.50047 -3.844 0
M  V30 5471 C 513.768 -2.86787 -4.12382 0
M  V30 5472 C 515.762 -4.81239 -4.17957 0
M  V30 5473 C 513.449 -4.18182 -4.45608 0
M  V30 5474 C 514.447 -5.15219 -4.48373 0
M  V30 5475 O 514.135 -6.44258 -4.80819 0
M  V30 5476 H 513.867 -0.282209 -0.614275 0
M  V30 5477 H 516.421 -1.40258 -1.50056 0
M  V30 5478 H 514.651 -0.392437 -3.84704 0
M  V30 5479 H 516.34 -0.78912 -3.98155 0
M  V30 5480 H 517.106 -3.24391 -3.60548 0
M  V30 5481 H 512.985 -2.11922 -4.09402 0
M  V30 5482 H 516.529 -5.56974 -4.2003 0
M  V30 5483 H 512.426 -4.43602 -4.68922 0
M  V30 5484 H 513.194 -6.49041 -4.98686 0
M  V30 5485 N 515.857 1.33968 -0.830081 0
M  V30 5486 C 517.087 2.01987 -0.434142 0
M  V30 5487 C 517.495 1.62639 0.96671 0
M  V30 5488 O 516.838 0.831151 1.63822 0
M  V30 5489 C 516.9 3.5648 -0.465018 0
M  V30 5490 C 516.564 4.19176 -1.82045 0
M  V30 5491 C 517.561 4.39181 -2.78237 0
M  V30 5492 C 515.246 4.55792 -2.11089 0
M  V30 5493 C 517.24 4.94937 -4.01642 0
M  V30 5494 C 514.927 5.11258 -3.34752 0
M  V30 5495 C 515.925 5.30775 -4.29845 0
M  V30 5496 O 515.613 5.85064 -5.51322 0
M  V30 5497 H 515.345 0.653847 -0.171639 0
M  V30 5498 H 517.899 1.72066 -1.12171 0
M  V30 5499 H 516.129 3.8569 0.279284 0
M  V30 5500 H 517.818 4.05804 -0.0881334 0
M  V30 5501 H 518.584 4.11249 -2.57097 0
M  V30 5502 H 514.463 4.39901 -1.3787 0
M  V30 5503 H 518.007 5.10086 -4.75876 0
M  V30 5504 H 513.904 5.38619 -3.55753 0
M  V30 5505 H 514.672 6.03489 -5.5294 0
M  V30 5506 N 517.335 0.585699 1.46312 0
M  V30 5507 C 518.746 0.159938 1.86014 0
M  V30 5508 C 519.097 -1.27775 1.48889 0
M  V30 5509 O 518.222 -1.96559 0.90519 0
M  V30 5510 C 518.817 0.283485 3.37612 0
M  V30 5511 C 517.376 -0.0874256 3.76298 0
M  V30 5512 C 516.523 0.618055 2.70325 0
M  V30 5513 H 519.474 0.793737 1.37425 0
M  V30 5514 H 519.495 -0.490348 3.77327 0
M  V30 5515 H 519.007 1.32995 3.64601 0
M  V30 5516 H 517.108 -1.13391 3.54927 0
M  V30 5517 H 517.221 0.290975 4.78216 0
M  V30 5518 H 515.585 0.057993 2.54634 0
M  V30 5519 H 516.368 1.66623 3.00153 0
M  V30 5520 N 518.813 -1.54241 0.323641 0
M  V30 5521 C 519.723 -2.28033 -0.551205 0
M  V30 5522 C 520.739 -1.32388 -1.12913 0
M  V30 5523 O 521.915 -1.65403 -1.14908 0
M  V30 5524 C 518.98 -3.02382 -1.69606 0
M  V30 5525 C 518.041 -4.13612 -1.14993 0
M  V30 5526 C 517.274 -4.84407 -2.24022 0
M  V30 5527 O 517.497 -4.54716 -3.44368 0
M  V30 5528 O 516.431 -5.71312 -1.89436 0
M  V30 5529 H 520.257 -3.03662 0.048066 0
M  V30 5530 H 517.842 -1.49133 0.0893289 0
M  V30 5531 H 519.724 -3.48941 -2.36259 0
M  V30 5532 H 518.399 -2.29628 -2.28151 0
M  V30 5533 H 517.306 -3.71402 -0.448484 0
M  V30 5534 H 518.639 -4.8841 -0.609608 0
M  V30 5535 N 520.291 -0.0518155 -1.57515 0
M  V30 5536 C 521.54 0.621286 -1.91893 0
M  V30 5537 C 521.853 1.71966 -0.932052 0
M  V30 5538 O 523.059 2.45096 -1.16791 0
M  V30 5539 C 521.515 1.15641 -3.40816 0
M  V30 5540 C 521.123 0.0901146 -4.47909 0
M  V30 5541 C 522.867 1.80472 -3.84227 0
M  V30 5542 C 520.774 0.638154 -5.87947 0
M  V30 5543 H 519.704 0.235835 -0.716169 0
M  V30 5544 H 522.355 -0.120809 -1.83102 0
M  V30 5545 H 520.737 1.95084 -3.44613 0
M  V30 5546 H 521.911 -0.683525 -4.55702 0
M  V30 5547 H 520.226 -0.460774 -4.13843 0
M  V30 5548 H 522.823 2.22471 -4.86221 0
M  V30 5549 H 523.166 2.65669 -3.20508 0
M  V30 5550 H 523.699 1.07683 -3.82948 0
M  V30 5551 H 520.438 -0.176202 -6.55263 0
M  V30 5552 H 519.958 1.37976 -5.83714 0
M  V30 5553 H 521.637 1.12085 -6.37217 0
M  V30 5554 N 521.769 1.56035 0.221574 0
M  V30 5555 C 522.716 1.92413 1.27459 0
M  V30 5556 C 523.686 0.781323 1.46576 0
M  V30 5557 O 524.871 1.03721 1.60145 0
M  V30 5558 C 522.011 2.24617 2.61995 0
M  V30 5559 C 521.124 3.51831 2.50677 0
M  V30 5560 C 520.259 3.73482 3.77736 0
M  V30 5561 C 519.298 4.94211 3.6114 0
M  V30 5562 N 518.435 5.12252 4.80148 0
M  V30 5563 H 523.275 2.82203 0.957355 0
M  V30 5564 H 520.812 1.39676 0.461415 0
M  V30 5565 H 522.77 2.41298 3.40339 0
M  V30 5566 H 521.4 1.38 2.91815 0
M  V30 5567 H 520.452 3.43343 1.63767 0
M  V30 5568 H 521.764 4.40328 2.34334 0
M  V30 5569 H 520.918 3.9026 4.64523 0
M  V30 5570 H 519.657 2.83266 3.97003 0
M  V30 5571 H 518.662 4.77384 2.72736 0
M  V30 5572 H 519.887 5.85912 3.43343 0
M  V30 5573 H 517.833 4.24978 4.99729 0
M  V30 5574 H 517.75 5.94881 4.66532 0
M  V30 5575 H 519.018 5.33465 5.68362 0
M  V30 5576 N 523.247 -0.488276 1.49845 0
M  V30 5577 C 524.524 -1.24959 1.50481 0
M  V30 5578 C 524.904 -2.09735 0.239698 0
M  V30 5579 O 524.252 -2.14865 -0.777524 0
M  V30 5580 C 524.462 -2.0954 2.79095 0
M  V30 5581 C 525.81 -2.68305 3.29086 0
M  V30 5582 O 526.834 -2.19797 2.80299 0
M  V30 5583 O 525.693 -3.56643 4.14087 0
M  V30 5584 H 522.787 -0.566133 0.602845 0
M  V30 5585 H 525.333 -0.501504 1.6212 0
M  V30 5586 H 524.105 -1.46958 3.62656 0
M  V30 5587 H 523.728 -2.91517 2.70377 0
M  V30 5588 N 524.725 -1.39134 -0.740242 0
M  V30 5589 C 525.672 -1.37434 -1.8542 0
M  V30 5590 C 526.642 -0.234822 -1.64432 0
M  V30 5591 O 527.827 -0.429125 -1.85912 0
M  V30 5592 C 524.967 -1.21844 -3.22875 0
M  V30 5593 C 524.08 -2.45296 -3.55603 0
M  V30 5594 C 523.215 -2.22334 -4.82432 0
M  V30 5595 C 522.254 -3.41488 -5.07988 0
M  V30 5596 N 521.391 -3.17877 -6.26018 0
M  V30 5597 H 526.231 -2.3266 -1.86207 0
M  V30 5598 H 523.768 -1.15578 -0.909946 0
M  V30 5599 H 525.726 -1.10818 -4.02213 0
M  V30 5600 H 524.356 -0.3025 -3.21379 0
M  V30 5601 H 523.408 -2.66945 -2.71006 0
M  V30 5602 H 524.72 -3.34063 -3.7041 0
M  V30 5603 H 523.874 -2.0852 -5.69741 0
M  V30 5604 H 522.613 -1.30954 -4.6979 0
M  V30 5605 H 521.618 -3.55807 -4.19144 0
M  V30 5606 H 522.843 -4.33763 -5.22519 0
M  V30 5607 H 520.789 -2.29156 -6.14673 0
M  V30 5608 H 520.706 -4.00198 -6.41387 0
M  V30 5609 H 521.974 -3.07746 -7.16179 0
M  V30 5610 N 526.204 0.969867 -1.24223 0
M  V30 5611 C 527.114 2.09806 -1.0497 0
M  V30 5612 C 528.13 1.73998 0.00886455 0
M  V30 5613 O 529.306 2.00513 -0.188848 0
M  V30 5614 C 526.371 3.40467 -0.654452 0
M  V30 5615 C 525.432 3.90236 -1.78926 0
M  V30 5616 C 524.665 5.14662 -1.41277 0
M  V30 5617 O 524.888 5.69602 -0.301632 0
M  V30 5618 O 523.822 5.58761 -2.23763 0
M  V30 5619 H 527.648 2.28942 -1.99548 0
M  V30 5620 H 525.233 1.08197 -1.03023 0
M  V30 5621 H 527.115 4.19039 -0.445452 0
M  V30 5622 H 525.79 3.22636 0.262216 0
M  V30 5623 H 524.697 3.12735 -2.05299 0
M  V30 5624 H 526.03 4.1254 -2.68462 0
M  V30 5625 N 527.682 1.05563 1.17022 0
M  V30 5626 C 528.592 0.670758 2.24807 0
M  V30 5627 C 529.608 -0.309865 1.71219 0
M  V30 5628 O 530.784 -0.161025 2.00755 0
M  V30 5629 C 527.849 0.055337 3.46656 0
M  V30 5630 C 526.91 1.08688 4.15314 0
M  V30 5631 C 526.143 0.500736 5.31346 0
M  V30 5632 O 526.366 -0.688718 5.66227 0
M  V30 5633 O 525.3 1.23683 5.89055 0
M  V30 5634 H 529.126 1.56914 2.60023 0
M  V30 5635 H 526.711 0.827428 1.24395 0
M  V30 5636 H 528.593 -0.286492 4.20425 0
M  V30 5637 H 527.268 -0.816638 3.13229 0
M  V30 5638 H 526.175 1.48077 3.43546 0
M  V30 5639 H 527.508 1.93014 4.52777 0
M  V30 5640 N 529.16 -1.33526 0.837174 0
M  V30 5641 C 530.406 -1.9813 0.432704 0
M  V30 5642 C 530.739 -1.66168 -1.00508 0
M  V30 5643 O 530.014 -0.94069 -1.70239 0
M  V30 5644 C 530.297 -3.54151 0.651834 0
M  V30 5645 C 530.15 -3.95806 2.13676 0
M  V30 5646 C 531.469 -4.39993 0.0968937 0
M  V30 5647 H 528.588 -0.719713 0.15869 0
M  V30 5648 H 531.23 -1.58193 1.05237 0
M  V30 5649 H 529.38 -3.88301 0.124369 0
M  V30 5650 H 531.052 -3.71921 2.72896 0
M  V30 5651 H 529.295 -3.45599 2.62191 0
M  V30 5652 H 529.966 -5.0447 2.24084 0
M  V30 5653 H 532.442 -4.12479 0.547733 0
M  V30 5654 H 531.318 -5.48186 0.279917 0
M  V30 5655 H 531.579 -4.3066 -0.9992 0
M  V30 5656 N 530.638 -0.59345 -1.46 0
M  V30 5657 C 531.57 0.171569 -2.28557 0
M  V30 5658 C 532.583 0.845273 -1.39137 0
M  V30 5659 O 533.772 0.713033 -1.6364 0
M  V30 5660 C 530.872 1.26311 -3.14482 0
M  V30 5661 C 530.045 0.679258 -4.32094 0
M  V30 5662 C 529.104 1.65987 -4.99334 0
M  V30 5663 O 528.13 1.19171 -5.56585 0
M  V30 5664 N 529.332 2.99414 -4.97324 0
M  V30 5665 H 532.097 -0.536771 -2.94854 0
M  V30 5666 H 529.658 -0.431954 -1.56031 0
M  V30 5667 H 531.65 1.91863 -3.5633 0
M  V30 5668 H 530.22 1.87416 -2.50188 0
M  V30 5669 H 529.44 -0.153992 -3.93899 0
M  V30 5670 H 530.728 0.26916 -5.08088 0
M  V30 5671 H 530.126 3.40064 -4.52076 0
M  V30 5672 H 528.683 3.60426 -5.4308 0
M  V30 5673 N 532.116 1.54067 -0.331816 0
M  V30 5674 C 533.532 1.59587 0.0205388 0
M  V30 5675 C 533.732 1.34813 1.49759 0
M  V30 5676 O 532.788 1.13661 2.25471 0
M  V30 5677 C 534.101 2.97959 -0.405103 0
M  V30 5678 C 535.649 3.10964 -0.356454 0
M  V30 5679 C 536.124 4.51694 -0.757384 0
M  V30 5680 N 537.615 4.57709 -0.71111 0
M  V30 5681 C 538.35 5.64729 -0.993427 0
M  V30 5682 N 537.846 6.79652 -1.3433 0
M  V30 5683 N 539.639 5.54546 -0.918442 0
M  V30 5684 H 531.79 1.68426 -1.29407 0
M  V30 5685 H 534.053 0.78819 -0.526745 0
M  V30 5686 H 533.759 3.21115 -1.43451 0
M  V30 5687 H 533.633 3.76524 0.225692 0
M  V30 5688 H 536.02 2.87538 0.663763 0
M  V30 5689 H 536.101 2.34484 -1.02229 0
M  V30 5690 H 535.745 4.75853 -1.77555 0
M  V30 5691 H 535.675 5.26555 -0.0691444 0
M  V30 5692 H 538.166 3.75176 -0.452883 0
M  V30 5693 H 538.479 7.57221 -1.54388 0
M  V30 5694 H 536.824 6.81128 -1.38164 0
M  V30 5695 H 540.015 4.63641 -0.644536 0
M  V30 5696 H 540.188 6.37861 -1.14181 0
M  V30 5697 N 533.594 0.0601682 1.57485 0
M  V30 5698 C 534.541 -0.91112 2.12055 0
M  V30 5699 C 535.511 -1.30298 1.03013 0
M  V30 5700 O 536.696 -1.39087 1.30612 0
M  V30 5701 C 533.836 -2.1775 2.67729 0
M  V30 5702 C 532.949 -1.83933 3.90887 0
M  V30 5703 C 532.084 -3.05096 4.34845 0
M  V30 5704 C 531.123 -2.67241 5.5068 0
M  V30 5705 N 530.26 -3.81127 5.8965 0
M  V30 5706 H 535.1 -0.43888 2.9475 0
M  V30 5707 H 532.637 -0.204995 1.45665 0
M  V30 5708 H 534.595 -2.91866 2.98111 0
M  V30 5709 H 533.225 -2.62535 1.87816 0
M  V30 5710 H 532.277 -0.999287 3.6704 0
M  V30 5711 H 533.589 -1.52074 4.75052 0
M  V30 5712 H 532.743 -3.87502 4.66827 0
M  V30 5713 H 531.482 -3.40139 3.49509 0
M  V30 5714 H 530.487 -1.83254 5.18361 0
M  V30 5715 H 531.712 -2.3338 6.37738 0
M  V30 5716 H 529.658 -4.15954 5.07266 0
M  V30 5717 H 529.575 -3.52997 6.68528 0
M  V30 5718 H 530.843 -4.64145 6.2625 0
M  V30 5719 N 535.072 -1.5615 -0.213296 0
M  V30 5720 C 536.488 -1.49327 -0.56336 0
M  V30 5721 C 536.688 -0.756826 -1.86747 0
M  V30 5722 O 535.744 -0.299866 -2.50713 0
M  V30 5723 C 537.057 -2.9392 -0.634944 0
M  V30 5724 C 538.605 -3.04487 -0.725013 0
M  V30 5725 C 539.08 -4.50456 -0.82787 0
M  V30 5726 N 540.571 -4.54533 -0.891876 0
M  V30 5727 C 541.306 -5.64766 -0.991315 0
M  V30 5728 N 540.802 -6.84733 -1.05419 0
M  V30 5729 N 542.595 -5.52637 -1.02709 0
M  V30 5730 H 534.746 -2.02453 0.642366 0
M  V30 5731 H 537.009 -0.920548 0.226487 0
M  V30 5732 H 536.715 -3.50783 0.253859 0
M  V30 5733 H 536.589 -3.46274 -1.49579 0
M  V30 5734 H 538.976 -2.47685 -1.60425 0
M  V30 5735 H 539.057 -2.55289 0.161669 0
M  V30 5736 H 538.701 -5.07878 0.0469464 0
M  V30 5737 H 538.631 -4.97369 -1.73009 0
M  V30 5738 H 541.122 -3.68141 -0.85327 0
M  V30 5739 H 541.435 -7.64493 -1.13007 0
M  V30 5740 H 539.78 -6.87427 -1.02318 0
M  V30 5741 H 542.971 -4.5784 -0.974687 0
M  V30 5742 H 543.144 -6.38576 -1.10113 0
M  V30 5743 N 536.55 0.480323 -1.50102 0
M  V30 5744 C 537.482 1.59669 -1.64433 0
M  V30 5745 C 538.495 1.54063 -0.52615 0
M  V30 5746 O 539.684 1.59619 -0.798992 0
M  V30 5747 C 536.784 2.98527 -1.6042 0
M  V30 5748 C 535.957 3.291 -2.88117 0
M  V30 5749 C 535.016 4.47468 -2.76873 0
M  V30 5750 O 534.042 4.4823 -3.50825 0
M  V30 5751 N 535.244 5.48593 -1.89806 0
M  V30 5752 H 538.009 1.47795 -2.60723 0
M  V30 5753 H 535.57 0.66858 -1.4745 0
M  V30 5754 H 537.562 3.75666 -1.50523 0
M  V30 5755 H 536.132 3.04218 -0.719036 0
M  V30 5756 H 535.352 2.40662 -3.12211 0
M  V30 5757 H 536.64 3.46334 -3.72734 0
M  V30 5758 H 536.038 5.50791 -1.2902 0
M  V30 5759 H 534.595 6.24752 -1.85819 0
M  V30 5760 N 538.028 1.39524 0.732853 0
M  V30 5761 C 538.975 1.38416 1.84688 0
M  V30 5762 C 539.945 0.243539 1.64305 0
M  V30 5763 O 541.13 0.438979 1.85681 0
M  V30 5764 C 538.27 1.23555 3.22224 0
M  V30 5765 C 537.383 2.47179 3.54298 0
M  V30 5766 C 536.518 2.2489 4.81246 0
M  V30 5767 C 535.557 3.44178 5.0617 0
M  V30 5768 N 534.694 3.21192 6.24323 0
M  V30 5769 H 539.534 2.33645 1.84971 0
M  V30 5770 H 537.071 1.16059 0.903804 0
M  V30 5771 H 539.029 1.12949 4.0162 0
M  V30 5772 H 537.659 0.31954 3.21215 0
M  V30 5773 H 536.711 2.68379 2.69587 0
M  V30 5774 H 538.023 3.36022 3.68633 0
M  V30 5775 H 537.177 2.11538 5.68627 0
M  V30 5776 H 535.916 1.33443 4.69089 0
M  V30 5777 H 534.921 3.58025 4.17251 0
M  V30 5778 H 536.146 4.36528 5.20212 0
M  V30 5779 H 534.092 2.32413 6.1345 0
M  V30 5780 H 534.009 4.03594 6.39256 0
M  V30 5781 H 535.277 3.1154 7.14537 0
M  V30 5782 N 539.506 -0.963266 1.24736 0
M  V30 5783 C 540.436 -2.07628 1.06832 0
M  V30 5784 C 541.417 -1.70088 -0.0200566 0
M  V30 5785 O 542.602 -1.93636 0.147854 0
M  V30 5786 C 539.732 -3.40636 0.677069 0
M  V30 5787 C 538.686 -3.9215 1.71471 0
M  V30 5788 C 538.012 -5.21553 1.1784 0
M  V30 5789 C 539.312 -4.19493 3.11164 0
M  V30 5790 H 541.006 -2.22864 1.9993 0
M  V30 5791 H 538.552 -1.07093 0.96266 0
M  V30 5792 H 540.505 -4.17941 0.538792 0
M  V30 5793 H 539.229 -3.25313 -0.289612 0
M  V30 5794 H 537.888 -3.17005 1.84128 0
M  V30 5795 H 537.536 -5.02593 0.202195 0
M  V30 5796 H 537.236 -5.56988 1.87185 0
M  V30 5797 H 538.76 -6.01463 1.05233 0
M  V30 5798 H 540.174 -4.87487 3.01711 0
M  V30 5799 H 538.571 -4.66165 3.77902 0
M  V30 5800 H 539.641 -3.26097 3.58871 0
M  V30 5801 N 540.985 -1.06182 -1.16461 0
M  V30 5802 C 541.918 -0.615859 -2.19733 0
M  V30 5803 C 542.896 0.360766 -1.58547 0
M  V30 5804 O 544.08 0.270009 -1.86556 0
M  V30 5805 C 541.207 0.097312 -3.3856 0
M  V30 5806 C 540.253 -0.835889 -4.18229 0
M  V30 5807 S 541.086 -2.33052 -4.82128 0
M  V30 5808 C 542.242 -1.62881 -6.04335 0
M  V30 5809 H 542.475 -1.49079 -2.57221 0
M  V30 5810 H 540.008 -0.874692 -1.27234 0
M  V30 5811 H 541.966 0.502563 -4.07412 0
M  V30 5812 H 540.627 0.948418 -2.99439 0
M  V30 5813 H 539.82 -0.283426 -5.03202 0
M  V30 5814 H 539.422 -1.18097 -3.54865 0
M  V30 5815 H 541.714 -0.933764 -6.71034 0
M  V30 5816 H 542.657 -2.45641 -6.64128 0
M  V30 5817 H 543.065 -1.11189 -5.53441 0
M  V30 5818 N 542.463 1.3308 -0.844243 0
M  V30 5819 C 543.874 1.7992 -0.498566 0
M  V30 5820 C 544.225 1.69808 0.982834 0
M  V30 5821 O 543.35 1.25051 1.7661 0
M  V30 5822 C 543.945 3.26677 -0.898204 0
M  V30 5823 C 542.504 3.71513 -0.604583 0
M  V30 5824 C 541.651 2.54393 -1.10362 0
M  V30 5825 H 544.602 1.20526 -1.03244 0
M  V30 5826 H 544.623 3.79918 -0.21039 0
M  V30 5827 H 544.135 3.34004 -1.97643 0
M  V30 5828 H 542.236 3.69708 0.46335 0
M  V30 5829 H 542.349 4.64755 -1.16358 0
M  V30 5830 H 540.713 2.49246 -0.524273 0
M  V30 5831 H 541.496 2.6448 -2.18873 0
M  V30 5832 N 543.941 0.601185 1.45683 0
M  V30 5833 C 544.889 -0.133955 2.32214 0
M  V30 5834 C 545.883 -0.866034 1.45589 0
M  V30 5835 O 547.089 -0.782326 1.6211 0
M  V30 5836 H 543.464 -0.0620613 0.749435 0
M  V30 5837 H 545.435 0.614389 2.92007 0
M  V30 5838 C 544.184 -1.12216 3.29094 0
M  V30 5839 H 543.507 -0.568273 3.95741 0
M  V30 5840 H 544.947 -1.60659 3.92383 0
M  V30 5841 C 543.406 -2.19251 2.55794 0
M  V30 5842 O 543.936 -3.26894 2.33459 0
M  V30 5843 N 542.142 -1.9436 2.16039 0
M  V30 5844 H 541.689 -1.06829 2.34404 0
M  V30 5845 H 541.647 -2.66181 1.67318 0
M  V30 5846 N 545.419 -1.53889 0.339982 0
M  V30 5847 C 546.666 -2.00855 -0.257621 0
M  V30 5848 C 546.994 -1.22788 -1.50842 0
M  V30 5849 O 546.249 -0.302567 -1.93347 0
M  V30 5850 C 546.548 -3.51968 -0.620735 0
M  V30 5851 C 546.214 -4.47741 0.532771 0
M  V30 5852 C 544.876 -4.73645 0.849339 0
M  V30 5853 C 547.228 -5.04551 1.3068 0
M  V30 5854 C 544.556 -5.53614 1.94237 0
M  V30 5855 C 546.908 -5.85713 2.39005 0
M  V30 5856 C 545.572 -6.09912 2.71225 0
M  V30 5857 H 544.842 -0.734979 -0.0942703 0
M  V30 5858 H 547.489 -1.85714 0.467159 0
M  V30 5859 H 545.794 -3.64921 -1.42618 0
M  V30 5860 H 547.491 -3.85762 -1.09495 0
M  V30 5861 H 544.081 -4.27711 0.275973 0
M  V30 5862 H 548.265 -4.84507 1.07549 0
M  V30 5863 H 543.521 -5.7059 2.19628 0
M  V30 5864 H 547.695 -6.28748 2.99415 0
M  V30 5865 H 545.322 -6.71665 3.56047 0
M  V30 5866 N 546.897 -0.0685191 -1.57451 0
M  V30 5867 C 548.122 0.613919 -1.98106 0
M  V30 5868 C 548.547 1.62551 -0.946501 0
M  V30 5869 O 547.905 1.81085 0.0882824 0
M  V30 5870 C 547.953 1.26189 -3.378 0
M  V30 5871 O 547.057 2.37773 -3.36954 0
M  V30 5872 H 546.398 0.158163 -0.644888 0
M  V30 5873 H 548.928 -0.142063 -2.04106 0
M  V30 5874 H 548.938 1.60951 -3.74912 0
M  V30 5875 H 547.613 0.520625 -4.12629 0
M  V30 5876 H 546.19 2.04829 -3.11608 0
M  V30 5877 N 548.375 1.56261 0.205012 0
M  V30 5878 C 549.652 1.70856 0.952233 0
M  V30 5879 C 550.032 0.620501 2.01775 0
M  V30 5880 O 549.38 -0.370035 2.25484 0
M  V30 5881 C 549.59 3.12807 1.54767 0
M  V30 5882 C 550.938 3.72733 2.0336 0
M  V30 5883 O 551.962 3.15873 1.64629 0
M  V30 5884 O 550.821 4.72501 2.746 0
M  V30 5885 H 547.915 0.696496 0.445895 0
M  V30 5886 H 550.461 1.6857 0.195489 0
M  V30 5887 H 549.233 3.83465 0.779132 0
M  V30 5888 H 548.856 3.1928 2.36951 0
M  V30 5889 N 549.853 -0.472356 1.50355 0
M  V30 5890 C 551.078 -1.25251 1.65309 0
M  V30 5891 C 551.503 -1.85081 0.335643 0
M  V30 5892 O 550.861 -1.67227 -0.700335 0
M  V30 5893 C 550.909 -2.3379 2.74544 0
M  V30 5894 O 550.013 -3.38401 2.35709 0
M  V30 5895 H 549.354 -0.368539 0.552336 0
M  V30 5896 H 551.884 -0.562271 1.96722 0
M  V30 5897 H 551.894 -2.79121 2.97583 0
M  V30 5898 H 550.569 -1.89614 3.70161 0
M  V30 5899 H 549.146 -2.9879 2.23112 0
M  V30 5900 N 551.331 -1.39911 -0.725443 0
M  V30 5901 C 552.578 -1.37654 -1.48518 0
M  V30 5902 C 552.906 0.0243982 -1.94485 0
M  V30 5903 O 552.161 1.00708 -1.67799 0
M  V30 5904 C 552.46 -2.30368 -2.7325 0
M  V30 5905 C 552.126 -3.77817 -2.461 0
M  V30 5906 C 550.788 -4.17991 -2.38405 0
M  V30 5907 C 553.14 -4.71036 -2.23103 0
M  V30 5908 C 550.468 -5.49433 -2.05768 0
M  V30 5909 C 552.82 -6.02766 -1.9198 0
M  V30 5910 C 551.484 -6.41993 -1.82761 0
M  V30 5911 H 550.754 -0.503713 -0.543465 0
M  V30 5912 H 553.401 -1.7249 -0.831822 0
M  V30 5913 H 551.706 -1.88683 -3.43375 0
M  V30 5914 H 553.403 -2.2591 -3.31309 0
M  V30 5915 H 549.993 -3.45982 -2.52972 0
M  V30 5916 H 554.177 -4.40823 -2.2801 0
M  V30 5917 H 549.433 -5.78738 -1.9716 0
M  V30 5918 H 553.607 -6.74519 -1.73197 0
M  V30 5919 H 551.234 -7.43761 -1.57237 0
M  V30 5920 N 552.809 0.956637 -1.25245 0
M  V30 5921 C 554.057 1.69764 -1.09657 0
M  V30 5922 C 554.378 1.91583 0.363464 0
M  V30 5923 O 553.648 1.50149 1.25825 0
M  V30 5924 H 552.228 0.629097 -0.402798 0
M  V30 5925 H 554.89 1.15026 -1.57337 0
M  V30 5926 H 553.986 2.67769 -1.60331 0
M  V30 5927 N 554.287 1.06798 1.15896 0
M  V30 5928 C 555.535 0.786211 1.8618 0
M  V30 5929 C 555.856 -0.689547 1.82401 0
M  V30 5930 O 555.126 -1.49913 1.26107 0
M  V30 5931 H 553.706 0.287843 0.689315 0
M  V30 5932 H 556.368 1.35055 1.40521 0
M  V30 5933 H 555.464 1.1157 2.91477 0
M  V30 5934 N 555.766 -1.3263 0.851289 0
M  V30 5935 C 557.014 -1.96978 0.452128 0
M  V30 5936 C 557.335 -1.67715 -0.99482 0
M  V30 5937 O 556.605 -0.98259 -1.69476 0
M  V30 5938 H 555.185 -0.72873 0.164202 0
M  V30 5939 H 557.847 -1.61774 1.08698 0
M  V30 5940 H 556.943 -3.06387 0.594407 0
M  V30 5941 N 557.244 -0.608902 -1.45362 0
M  V30 5942 C 558.469 -0.10921 -2.07112 0
M  V30 5943 C 558.894 1.19779 -1.45033 0
M  V30 5944 O 558.252 1.72961 -0.543527 0
M  V30 5945 C 558.3 0.0155745 -3.60597 0
M  V30 5946 O 557.404 1.06546 -3.98399 0
M  V30 5947 H 556.745 -0.0746619 -0.659789 0
M  V30 5948 H 559.275 -0.839283 -1.86594 0
M  V30 5949 H 559.285 0.213364 -4.07442 0
M  V30 5950 H 557.96 -0.938765 -4.05167 0
M  V30 5951 H 556.537 0.844024 -3.63223 0
M  V30 5952 N 558.722 1.53707 -0.348139 0
M  V30 5953 C 559.97 2.00591 0.246478 0
M  V30 5954 C 560.291 1.23753 1.50699 0
M  V30 5955 O 559.561 0.345964 1.92821 0
M  V30 5956 H 558.141 0.741053 0.0940679 0
M  V30 5957 H 560.803 1.89139 -0.470354 0
M  V30 5958 H 559.899 3.08297 0.485714 0
M  V30 5959 N 560.2 0.0768682 1.57412 0
M  V30 5960 C 561.163 -0.873949 2.11884 0
M  V30 5961 C 562.163 -1.22301 1.04398 0
M  V30 5962 O 563.353 -1.15545 1.30365 0
M  V30 5963 C 560.485 -2.17575 2.62438 0
M  V30 5964 H 561.678 -0.401278 2.97203 0
M  V30 5965 H 559.231 -0.171904 1.55352 0
M  V30 5966 H 559.966 -2.69368 1.80587 0
M  V30 5967 H 559.751 -1.93534 3.41009 0
M  V30 5968 H 561.241 -2.85631 3.04639 0
M  V30 5969 N 561.678 -1.56367 -0.196722 0
M  V30 5970 C 562.926 -1.80172 -0.915554 0
M  V30 5971 C 563.247 -0.649649 -1.8386 0
M  V30 5972 O 562.517 0.332111 -1.93064 0
M  V30 5973 H 561.097 -0.664592 -0.341067 0
M  V30 5974 H 563.759 -1.93844 -0.202622 0
M  V30 5975 H 562.855 -2.7327 -1.50764 0
M  V30 5976 N 563.156 0.464375 -1.50603 0
M  V30 5977 C 564.119 1.54393 -1.69397 0
M  V30 5978 C 565.119 1.50566 -0.564504 0
M  V30 5979 O 566.309 1.53066 -0.831645 0
M  V30 5980 C 563.441 2.9401 -1.72543 0
M  V30 5981 H 564.634 1.39044 -2.65719 0
M  V30 5982 H 562.187 0.69122 -1.40185 0
M  V30 5983 H 562.922 3.14795 -0.77938 0
M  V30 5984 H 562.707 2.98195 -2.54602 0
M  V30 5985 H 564.197 3.72375 -1.89015 0
M  V30 5986 N 564.634 1.40294 0.718013 0
M  V30 5987 C 565.882 1.38167 1.47494 0
M  V30 5988 C 566.203 -0.01607 1.94993 0
M  V30 5989 O 565.473 -0.970396 1.70177 0
M  V30 5990 H 564.053 0.508505 0.547203 0
M  V30 5991 H 566.715 1.75324 0.851322 0
M  V30 5992 H 565.811 2.05503 2.34894 0
M  V30 5993 N 566.112 -0.949982 1.2575 0
M  V30 5994 C 567.36 -1.6918 1.10555 0
M  V30 5995 C 567.681 -1.91773 -0.353298 0
M  V30 5996 O 566.951 -1.50814 -1.25027 0
M  V30 5997 H 565.531 -0.626952 0.406129 0
M  V30 5998 H 568.193 -1.1419 1.57945 0
M  V30 5999 H 567.289 -2.66915 1.61749 0
M  V30 6000 N 567.59 -1.07411 -1.15328 0
M  V30 6001 C 568.838 -0.796073 -1.85761 0
M  V30 6002 C 569.159 0.679864 -1.82764 0
M  V30 6003 O 568.429 1.49242 -1.269 0
M  V30 6004 H 567.009 -0.291495 -0.687779 0
M  V30 6005 H 569.671 -1.35799 -1.39802 0
M  V30 6006 H 568.767 -1.13114 -2.90881 0
M  V30 6007 N 569.068 1.32177 -0.85831 0
M  V30 6008 C 570.316 1.96735 -0.462568 0
M  V30 6009 C 570.637 1.6824 0.985911 0
M  V30 6010 O 569.907 0.991564 1.68952 0
M  V30 6011 H 568.487 0.727849 -0.168064 0
M  V30 6012 H 571.149 1.61195 -1.09554 0
M  V30 6013 H 570.245 3.06068 -0.610647 0
M  V30 6014 N 570.547 0.616602 1.45037 0
M  V30 6015 C 571.48 -0.145984 2.27733 0
M  V30 6016 C 572.458 -0.865108 1.37676 0
M  V30 6017 O 573.642 -0.872152 1.6711 0
M  V30 6018 C 570.769 -1.2122 3.16265 0
M  V30 6019 C 569.815 -0.595218 4.22326 0
M  V30 6020 S 570.648 0.603744 5.32086 0
M  V30 6021 C 571.804 -0.462842 6.24186 0
M  V30 6022 H 572.037 0.555591 2.92062 0
M  V30 6023 H 569.57 0.404364 1.49011 0
M  V30 6024 H 571.528 -1.82247 3.67827 0
M  V30 6025 H 570.189 -1.88589 2.51183 0
M  V30 6026 H 569.382 -1.39775 4.8423 0
M  V30 6027 H 568.984 -0.0598965 3.73952 0
M  V30 6028 H 571.276 -1.33945 6.64127 0
M  V30 6029 H 572.219 0.120259 7.07998 0
M  V30 6030 H 572.627 -0.782219 5.59054 0
M  V30 6031 N 572.025 -1.5352 0.356285 0
M  V30 6032 C 573.272 -2.01117 -0.236303 0
M  V30 6033 C 573.6 -1.24381 -1.49531 0
M  V30 6034 O 572.855 -0.323057 -1.93015 0
M  V30 6035 C 573.154 -3.52607 -0.583369 0
M  V30 6036 C 572.82 -4.47151 0.58023 0
M  V30 6037 C 571.482 -4.72718 0.899528 0
M  V30 6038 C 573.834 -5.03137 1.36024 0
M  V30 6039 C 571.162 -5.51523 2.00098 0
M  V30 6040 C 573.514 -5.83145 2.45204 0
M  V30 6041 C 572.178 -6.07001 2.77679 0
M  V30 6042 H 571.448 -0.735938 -0.0864695 0
M  V30 6043 H 574.095 -1.85209 0.48683 0
M  V30 6044 H 572.4 -3.66413 -1.38739 0
M  V30 6045 H 574.097 -3.86901 -1.05397 0
M  V30 6046 H 570.687 -4.27394 0.321322 0
M  V30 6047 H 574.871 -4.83339 1.12682 0
M  V30 6048 H 570.127 -5.68229 2.25668 0
M  V30 6049 H 574.301 -6.25537 3.06067 0
M  V30 6050 H 571.928 -6.67851 3.63151 0
M  V30 6051 N 573.503 -0.0852151 -1.57369 0
M  V30 6052 C 574.751 0.579658 -1.93609 0
M  V30 6053 C 575.072 1.69332 -0.967043 0
M  V30 6054 O 574.342 1.95892 -0.0174215 0
M  V30 6055 H 572.922 0.217113 -0.714752 0
M  V30 6056 H 575.584 -0.146226 -1.94351 0
M  V30 6057 H 574.68 0.996276 -2.95771 0
M  V30 6058 N 574.981 1.5647 0.188427 0
M  V30 6059 C 576.206 1.85486 0.927891 0
M  V30 6060 C 576.631 0.669575 1.75779 0
M  V30 6061 O 575.989 -0.381573 1.77239 0
M  V30 6062 C 576.037 3.12784 1.7944 0
M  V30 6063 O 575.141 2.93805 2.894 0
M  V30 6064 H 574.482 0.610585 0.260925 0
M  V30 6065 H 577.012 2.037 0.191729 0
M  V30 6066 H 577.022 3.43749 2.19774 0
M  V30 6067 H 575.697 3.98671 1.18468 0
M  V30 6068 H 574.274 2.74153 2.52774 0
M  V30 6069 N 576.459 -0.456382 1.50847 0
M  V30 6070 C 577.707 -1.20497 1.62249 0
M  V30 6071 C 578.028 -1.92156 0.331839 0
M  V30 6072 O 577.298 -1.84751 -0.651443 0
M  V30 6073 H 575.878 -0.447775 0.597918 0
M  V30 6074 H 578.54 -0.525099 1.87693 0
M  V30 6075 H 577.636 -1.94492 2.44089 0
M  V30 6076 N 577.937 -1.40673 -0.710563 0
M  V30 6077 C 579.185 -1.38947 -1.46759 0
M  V30 6078 C 579.506 0.00572879 -1.94999 0
M  V30 6079 O 578.776 0.961358 -1.70689 0
M  V30 6080 H 577.356 -0.5114 -0.544499 0
M  V30 6081 H 580.018 -1.75773 -0.842012 0
M  V30 6082 H 579.114 -2.06745 -2.33801 0
M  V30 6083 N 579.415 0.9433 -1.26252 0
M  V30 6084 C 580.663 1.68592 -1.11451 0
M  V30 6085 C 580.984 1.91957 0.343123 0
M  V30 6086 O 580.254 1.51475 1.24226 0
M  V30 6087 H 578.834 0.624789 -0.409448 0
M  V30 6088 H 581.496 1.13351 -1.58548 0
M  V30 6089 H 580.592 2.66054 -1.63162 0
M  V30 6090 N 580.893 1.08022 1.14757 0
M  V30 6091 C 582.141 0.805913 1.85336 0
M  V30 6092 C 582.462 -0.670162 1.83122 0
M  V30 6093 O 581.732 -1.48567 1.2769 0
M  V30 6094 H 580.312 0.295138 0.686223 0
M  V30 6095 H 582.974 1.36538 1.3908 0
M  V30 6096 H 582.07 1.14655 2.90277 0
M  V30 6097 N 582.371 -1.3172 0.865308 0
M  V30 6098 C 583.619 -1.96487 0.472995 0
M  V30 6099 C 583.94 -1.68761 -0.976975 0
M  V30 6100 O 583.21 -1.00051 -1.68424 0
M  V30 6101 H 581.79 -0.726947 0.171922 0
M  V30 6102 H 584.452 -1.60612 1.10407 0
M  V30 6103 H 583.548 -3.0574 0.62687 0
M  V30 6104 N 583.85 -0.624285 -1.44708 0
M  V30 6105 C 585.098 -0.125802 -2.01708 0
M  V30 6106 C 585.418 1.2543 -1.49306 0
M  V30 6107 O 584.689 1.83198 -0.693924 0
M  V30 6108 H 583.269 -0.0435161 -0.745731 0
M  V30 6109 H 585.931 -0.809446 -1.77296 0
M  V30 6110 H 585.027 -0.0882734 -3.11975 0
M  V30 6111 N 585.328 1.53329 -0.364422 0
M  V30 6112 C 586.556 2.05657 0.226424 0
M  V30 6113 C 586.971 1.23801 1.42544 0
M  V30 6114 O 586.328 0.27839 1.80364 0
M  V30 6115 C 586.379 3.56125 0.621056 0
M  V30 6116 O 586.1 4.34879 -0.530304 0
M  V30 6117 C 587.601 4.24706 1.27041 0
M  V30 6118 H 584.821 0.669806 0.0400056 0
M  V30 6119 H 587.365 1.97714 -0.522456 0
M  V30 6120 H 585.52 3.64223 1.31985 0
M  V30 6121 H 585.934 5.24073 -0.211546 0
M  V30 6122 H 587.408 5.3131 1.49711 0
M  V30 6123 H 587.885 3.78354 2.23036 0
M  V30 6124 H 588.491 4.20858 0.613079 0
M  V30 6125 N 586.806 0.0935595 1.57322 0
M  V30 6126 C 588.054 -0.569383 1.93913 0
M  V30 6127 C 588.375 -1.68817 0.976009 0
M  V30 6128 O 587.645 -1.9588 0.0278099 0
M  V30 6129 H 586.225 -0.21332 0.715894 0
M  V30 6130 H 588.887 0.156531 1.9427 0
M  V30 6131 H 587.983 -0.980577 2.96296 0
M  V30 6132 N 588.284 -1.56567 -0.180126 0
M  V30 6133 C 589.509 -1.85975 -0.918041 0
M  V30 6134 C 589.934 -0.678888 -1.75422 0
M  V30 6135 O 589.292 0.372168 -1.77439 0
M  V30 6136 C 589.34 -3.13731 -1.77779 0
M  V30 6137 O 588.444 -2.95335 -2.87838 0
M  V30 6138 H 587.785 -0.61196 -0.257683 0
M  V30 6139 H 590.315 -2.03798 -0.180923 0
M  V30 6140 H 590.325 -3.4491 -2.17948 0
M  V30 6141 H 589 -3.99293 -1.16352 0
M  V30 6142 H 587.577 -2.7549 -2.51316 0
M  V30 6143 N 589.762 0.448376 -1.51087 0
M  V30 6144 C 590.99 1.22143 -1.66999 0
M  V30 6145 C 591.405 1.85283 -0.362699 0
M  V30 6146 O 590.762 1.70236 0.65772 0
M  V30 6147 C 590.813 2.31357 -2.7777 0
M  V30 6148 O 590.534 1.70801 -4.03434 0
M  V30 6149 C 592.035 3.21836 -3.04855 0
M  V30 6150 H 589.255 0.368558 -0.560719 0
M  V30 6151 H 591.799 0.532618 -1.97442 0
M  V30 6152 H 589.954 2.95973 -2.49958 0
M  V30 6153 H 590.368 2.42895 -4.64868 0
M  V30 6154 H 591.842 3.94627 -3.85971 0
M  V30 6155 H 592.319 3.81949 -2.16821 0
M  V30 6156 H 592.925 2.62933 -3.34285 0
M  V30 6157 N 591.24 1.41047 0.703093 0
M  V30 6158 C 592.488 1.39723 1.4602 0
M  V30 6159 C 592.809 0.00461257 1.94999 0
M  V30 6160 O 592.079 -0.952292 1.71196 0
M  V30 6161 H 590.659 0.514281 0.541779 0
M  V30 6162 H 593.321 1.76217 0.832678 0
M  V30 6163 H 592.417 2.07982 2.32701 0
M  V30 6164 N 592.718 -0.936591 1.26751 0
M  V30 6165 C 594.129 -1.49816 1.1141 0
M  V30 6166 C 594.48 -1.9383 -0.304015 0
M  V30 6167 O 593.605 -1.80346 -1.196 0
M  V30 6168 C 594.2 -2.72271 2.01629 0
M  V30 6169 C 592.759 -3.2468 1.9042 0
M  V30 6170 C 591.906 -1.97444 1.94708 0
M  V30 6171 H 594.857 -0.751604 1.39773 0
M  V30 6172 H 594.878 -3.46741 1.56688 0
M  V30 6173 H 594.39 -2.40205 3.04833 0
M  V30 6174 H 592.491 -3.61525 0.901674 0
M  V30 6175 H 592.604 -3.91476 2.76195 0
M  V30 6176 H 590.968 -2.13545 1.38818 0
M  V30 6177 H 591.751 -1.67703 2.9955 0
M  V30 6178 N 594.196 -1.08629 -1.14182 0
M  V30 6179 C 595.444 -0.815731 -1.84906 0
M  V30 6180 C 595.765 0.660441 -1.83475 0
M  V30 6181 O 595.035 1.47888 -1.28476 0
M  V30 6182 H 593.615 -0.298773 -0.684648 0
M  V30 6183 H 596.277 -1.37274 -1.38354 0
M  V30 6184 H 595.373 -1.16193 -2.89665 0
M  V30 6185 N 595.674 1.31259 -0.872281 0
M  V30 6186 C 596.904 2.00504 -0.498183 0
M  V30 6187 C 597.312 1.65632 0.914479 0
M  V30 6188 O 596.655 0.882849 1.61095 0
M  V30 6189 C 596.717 3.5482 -0.578194 0
M  V30 6190 C 596.381 4.13172 -1.95289 0
M  V30 6191 C 597.378 4.30107 -2.92069 0
M  V30 6192 C 595.063 4.48846 -2.25483 0
M  V30 6193 C 597.057 4.81908 -4.17185 0
M  V30 6194 C 594.744 5.00349 -3.50847 0
M  V30 6195 C 595.742 5.16831 -4.46514 0
M  V30 6196 O 595.43 5.67228 -5.69656 0
M  V30 6197 H 595.162 0.648055 -0.192354 0
M  V30 6198 H 597.716 1.6841 -1.17589 0
M  V30 6199 H 595.946 3.86383 0.156438 0
M  V30 6200 H 597.635 4.05318 -0.217192 0
M  V30 6201 H 598.401 4.02862 -2.7005 0
M  V30 6202 H 594.28 4.35292 -1.51795 0
M  V30 6203 H 597.824 4.94688 -4.91863 0
M  V30 6204 H 593.721 5.27028 -3.72708 0
M  V30 6205 H 594.489 5.85592 -5.7186 0
M  V30 6206 N 597.152 0.631951 1.44375 0
M  V30 6207 C 598.377 0.142146 2.06912 0
M  V30 6208 C 598.802 -1.17456 1.4692 0
M  V30 6209 O 598.16 -1.72074 0.570975 0
M  V30 6210 C 598.208 0.0417952 3.60576 0
M  V30 6211 O 597.312 -1.00194 4.00044 0
M  V30 6212 H 596.653 0.0851491 0.658518 0
M  V30 6213 H 599.183 0.868863 1.85235 0
M  V30 6214 H 599.193 -0.148517 4.0773 0
M  V30 6215 H 597.868 1.0031 4.03622 0
M  V30 6216 H 596.445 -0.786131 3.64519 0
M  V30 6217 N 598.631 -1.53133 0.372548 0
M  V30 6218 C 599.878 -2.01356 -0.214959 0
M  V30 6219 C 600.206 -1.2596 -1.48204 0
M  V30 6220 O 599.461 -0.343511 -1.92662 0
M  V30 6221 C 599.76 -3.53206 -0.545938 0
M  V30 6222 C 599.426 -4.46511 0.627624 0
M  V30 6223 C 598.088 -4.71737 0.949615 0
M  V30 6224 C 600.44 -5.01666 1.41353 0
M  V30 6225 C 597.768 -5.4937 2.05936 0
M  V30 6226 C 600.12 -5.80511 2.51375 0
M  V30 6227 C 598.784 -6.04022 2.84101 0
M  V30 6228 H 598.054 -0.736813 -0.078659 0
M  V30 6229 H 600.701 -1.84682 0.506447 0
M  V30 6230 H 599.006 -3.67864 -1.34845 0
M  V30 6231 H 600.703 -3.87997 -1.01287 0
M  V30 6232 H 597.293 -4.27029 0.366635 0
M  V30 6233 H 601.477 -4.82117 1.17802 0
M  V30 6234 H 596.733 -5.65803 2.31682 0
M  V30 6235 H 600.907 -6.22255 3.12684 0
M  V30 6236 H 598.534 -6.63962 3.70214 0
M  V30 6237 N 600.109 -0.101901 -1.5727 0
M  V30 6238 C 601.52 0.426173 -1.81771 0
M  V30 6239 C 601.871 1.67725 -1.01797 0
M  V30 6240 O 600.996 2.14958 -0.249386 0
M  V30 6241 C 601.591 0.779962 -3.297 0
M  V30 6242 C 600.15 1.25275 -3.54941 0
M  V30 6243 C 599.297 0.252814 -2.76145 0
M  V30 6244 H 602.248 -0.32726 -1.55289 0
M  V30 6245 H 602.269 1.63891 -3.43395 0
M  V30 6246 H 601.781 -0.130778 -3.8788 0
M  V30 6247 H 599.882 2.18097 -3.021 0
M  V30 6248 H 599.995 1.20988 -4.63572 0
M  V30 6249 H 598.359 0.736362 -2.43823 0
M  V30 6250 H 599.142 -0.650724 -3.37076 0
M  V30 6251 N 601.587 1.56661 0.17182 0
M  V30 6252 C 602.537 1.92781 1.21736 0
M  V30 6253 C 603.521 0.796065 1.39827 0
M  V30 6254 O 604.713 1.05924 1.41806 0
M  V30 6255 C 601.842 2.29079 2.55691 0
M  V30 6256 C 600.928 3.48765 2.41296 0
M  V30 6257 N 601.319 4.66022 1.96614 0
M  V30 6258 C 599.617 3.53362 2.72124 0
M  V30 6259 C 600.318 5.48159 1.94669 0
M  V30 6260 N 599.294 4.89189 2.37054 0
M  V30 6261 H 603.096 2.80926 0.863592 0
M  V30 6262 H 600.61 1.57889 0.380096 0
M  V30 6263 H 602.607 2.5315 3.31241 0
M  V30 6264 H 601.267 1.42272 2.91871 0
M  V30 6265 H 602.278 4.9025 1.66959 0
M  V30 6266 H 598.955 2.77033 3.12345 0
M  V30 6267 H 600.345 6.52121 1.61826 0
M  V30 6268 N 603.065 -0.440357 1.51323 0
M  V30 6269 C 604.295 -1.21079 1.67402 0
M  V30 6270 C 604.703 -1.85555 0.369599 0
M  V30 6271 O 604.046 -1.71375 -0.661525 0
M  V30 6272 C 604.108 -2.33839 2.73056 0
M  V30 6273 C 603.772 -1.89755 4.15743 0
M  V30 6274 C 604.769 -1.40268 5.0062 0
M  V30 6275 C 602.454 -1.97539 4.61826 0
M  V30 6276 C 604.448 -0.991474 6.29642 0
M  V30 6277 C 602.135 -1.56029 5.90845 0
M  V30 6278 C 603.133 -1.06915 6.7458 0
M  V30 6279 O 602.821 -0.659933 8.01187 0
M  V30 6280 H 602.553 -0.371133 0.56501 0
M  V30 6281 H 605.107 -0.528409 1.98487 0
M  V30 6282 H 603.337 -3.05345 2.37279 0
M  V30 6283 H 605.026 -2.95713 2.78044 0
M  V30 6284 H 605.792 -1.33652 4.66221 0
M  V30 6285 H 601.671 -2.34713 3.96776 0
M  V30 6286 H 605.215 -0.607425 6.9495 0
M  V30 6287 H 601.112 -1.62315 6.24759 0
M  V30 6288 H 601.88 -0.786052 8.14717 0
M  V30 6289 N 604.543 -1.41418 -0.695603 0
M  V30 6290 C 605.791 -1.40496 -1.45277 0
M  V30 6291 C 606.112 -0.0149538 -1.94994 0
M  V30 6292 O 605.382 0.9432 -1.71699 0
M  V30 6293 H 603.962 -0.517147 -0.539044 0
M  V30 6294 H 606.624 -1.76656 -0.823321 0
M  V30 6295 H 605.72 -2.09214 -2.31595 0
M  V30 6296 N 606.021 0.929856 -1.27246 0
M  V30 6297 C 607.268 1.67731 -1.13457 0
M  V30 6298 C 607.596 1.9185 0.319998 0
M  V30 6299 O 606.851 1.50524 1.25064 0
M  V30 6300 C 607.15 3.05116 -1.86115 0
M  V30 6301 C 606.816 3.00715 -3.35978 0
M  V30 6302 C 605.478 2.99222 -3.76855 0
M  V30 6303 C 607.83 2.92168 -4.3161 0
M  V30 6304 C 605.158 2.86962 -5.11732 0
M  V30 6305 C 607.51 2.81449 -5.66542 0
M  V30 6306 C 606.174 2.78305 -6.06715 0
M  V30 6307 H 605.444 0.613772 -0.415168 0
M  V30 6308 H 608.091 1.08456 -1.57827 0
M  V30 6309 H 606.396 3.68083 -1.34246 0
M  V30 6310 H 608.093 3.61822 -1.72876 0
M  V30 6311 H 604.683 3.02664 -3.03468 0
M  V30 6312 H 608.867 2.92421 -4.01003 0
M  V30 6313 H 604.123 2.82913 -5.42006 0
M  V30 6314 H 608.297 2.738 -6.40317 0
M  V30 6315 H 605.924 2.68561 -7.11181 0
M  V30 6316 N 607.499 1.09233 1.13605 0
M  V30 6317 C 608.91 0.846839 1.6639 0
M  V30 6318 C 609.261 -0.625031 1.85978 0
M  V30 6319 O 608.386 -1.48173 1.57714 0
M  V30 6320 C 608.981 1.5307 3.0225 0
M  V30 6321 C 607.54 1.33223 3.52035 0
M  V30 6322 C 606.687 1.58806 2.27323 0
M  V30 6323 H 609.638 1.25175 0.975541 0
M  V30 6324 H 609.659 0.96267 3.68121 0
M  V30 6325 H 609.171 2.60192 2.87961 0
M  V30 6326 H 607.272 0.282091 3.71531 0
M  V30 6327 H 607.385 2.0657 4.32279 0
M  V30 6328 H 605.749 1.01007 2.33815 0
M  V30 6329 H 606.532 2.67153 2.15602 0
M  V30 6330 N 608.977 -1.30795 0.87923 0
M  V30 6331 C 610.205 -2.00527 0.509548 0
M  V30 6332 C 610.62 -1.65944 -0.90045 0
M  V30 6333 O 609.977 -0.893525 -1.5913 0
M  V30 6334 C 610.028 -3.55276 0.667943 0
M  V30 6335 O 609.749 -3.88625 2.02242 0
M  V30 6336 C 611.25 -4.4228 0.300494 0
M  V30 6337 H 608.47 -0.641261 0.197549 0
M  V30 6338 H 611.014 -1.66813 1.18295 0
M  V30 6339 H 609.169 -3.87377 0.0419843 0
M  V30 6340 H 609.583 -4.83334 2.03688 0
M  V30 6341 H 611.057 -5.50061 0.462242 0
M  V30 6342 H 611.534 -4.32556 -0.76106 0
M  V30 6343 H 612.14 -4.15613 0.902536 0
M  V30 6344 N 610.455 -0.639598 -1.44038 0
M  V30 6345 C 611.685 -0.154586 -2.06021 0
M  V30 6346 C 612.093 1.17951 -1.47933 0
M  V30 6347 O 611.436 1.73627 -0.59994 0
M  V30 6348 C 611.498 0.0255459 -3.59491 0
M  V30 6349 C 611.162 -1.2317 -4.40089 0
M  V30 6350 C 612.159 -2.15735 -4.73027 0
M  V30 6351 C 609.844 -1.46949 -4.80324 0
M  V30 6352 C 611.838 -3.30382 -5.45093 0
M  V30 6353 C 609.525 -2.61891 -5.52138 0
M  V30 6354 C 610.523 -3.53433 -5.84443 0
M  V30 6355 O 610.211 -4.6637 -6.54793 0
M  V30 6356 H 609.943 -0.0808543 -0.671147 0
M  V30 6357 H 612.497 -0.876541 -1.85758 0
M  V30 6358 H 610.727 0.802733 -3.78276 0
M  V30 6359 H 612.416 0.466184 -4.03214 0
M  V30 6360 H 613.182 -1.98602 -4.42473 0
M  V30 6361 H 609.061 -0.765815 -4.54595 0
M  V30 6362 H 612.605 -4.01856 -5.70226 0
M  V30 6363 H 608.502 -2.78964 -5.82108 0
M  V30 6364 H 609.27 -4.6546 -6.73267 0
M  V30 6365 N 611.933 1.52934 -0.380664 0
M  V30 6366 C 613.181 2.01069 0.203874 0
M  V30 6367 C 613.502 1.26922 1.4804 0
M  V30 6368 O 612.772 0.386787 1.92044 0
M  V30 6369 H 611.352 0.742882 0.0783279 0
M  V30 6370 H 614.014 1.88099 -0.510368 0
M  V30 6371 H 613.11 3.09258 0.42021 0
M  V30 6372 N 613.412 0.11024 1.57214 0
M  V30 6373 C 614.66 -0.548783 1.94506 0
M  V30 6374 C 614.981 -1.67772 0.99386 0
M  V30 6375 O 614.251 -1.9584 0.0485841 0
M  V30 6376 H 612.831 -0.205715 0.718116 0
M  V30 6377 H 615.493 0.177127 1.94093 0
M  V30 6378 H 614.589 -0.949096 2.97319 0
M  V30 6379 N 614.89 -1.56749 -0.16351 0
M  V30 6380 C 616.139 -1.81626 -0.877211 0
M  V30 6381 C 616.452 -0.688791 -1.83071 0
M  V30 6382 O 617.658 -0.822697 -2.58735 0
M  V30 6383 C 616.114 -3.21858 -1.61045 0
M  V30 6384 C 615.722 -4.42494 -0.700195 0
M  V30 6385 C 617.466 -3.56021 -2.31192 0
M  V30 6386 C 615.373 -5.73748 -1.43412 0
M  V30 6387 H 614.303 -0.67731 -0.331312 0
M  V30 6388 H 616.954 -1.83039 -0.13006 0
M  V30 6389 H 615.336 -3.14784 -2.40264 0
M  V30 6390 H 616.51 -4.60766 0.0555849 0
M  V30 6391 H 614.825 -4.1626 -0.10799 0
M  V30 6392 H 617.422 -4.51333 -2.8671 0
M  V30 6393 H 617.765 -2.81277 -3.06902 0
M  V30 6394 H 618.298 -3.64682 -1.58909 0
M  V30 6395 H 615.037 -6.51543 -0.719186 0
M  V30 6396 H 614.557 -5.5944 -2.16302 0
M  V30 6397 H 616.236 -6.15975 -1.9795 0
M  V30 6398 N 616.368 0.432326 -1.51554 0
M  V30 6399 C 617.596 1.20364 -1.68286 0
M  V30 6400 C 618.011 1.84888 -0.38233 0
M  V30 6401 O 617.368 1.70924 0.639627 0
M  V30 6402 C 617.419 2.28398 -2.80208 0
M  V30 6403 O 617.14 1.66512 -4.05223 0
M  V30 6404 C 618.641 3.18584 -3.08251 0
M  V30 6405 H 615.861 0.36259 -0.564596 0
M  V30 6406 H 618.405 0.511647 -1.97996 0
M  V30 6407 H 616.56 2.93305 -2.53083 0
M  V30 6408 H 616.974 2.37951 -4.67418 0
M  V30 6409 H 618.448 3.90511 -3.90135 0
M  V30 6410 H 618.925 3.79628 -2.2086 0
M  V30 6411 H 619.531 2.59372 -3.37055 0
M  V30 6412 N 617.846 1.41785 0.688094 0
M  V30 6413 C 619.093 1.41544 1.44816 0
M  V30 6414 C 619.421 0.0271746 1.94481 0
M  V30 6415 O 618.676 -0.962235 1.7041 0
M  V30 6416 C 618.975 2.37532 2.67046 0
M  V30 6417 C 618.641 3.84209 2.35996 0
M  V30 6418 C 617.303 4.24165 2.27239 0
M  V30 6419 C 619.655 4.76785 2.10536 0
M  V30 6420 C 616.983 5.54695 1.91128 0
M  V30 6421 C 619.335 6.07644 1.75931 0
M  V30 6422 C 617.999 6.46613 1.65675 0
M  V30 6423 H 617.269 0.517945 0.529919 0
M  V30 6424 H 619.916 1.74635 0.785797 0
M  V30 6425 H 618.221 1.9772 3.38251 0
M  V30 6426 H 619.918 2.34615 3.25203 0
M  V30 6427 H 616.508 3.52567 2.4371 0
M  V30 6428 H 620.692 4.46714 2.16242 0
M  V30 6429 H 615.948 5.83762 1.81746 0
M  V30 6430 H 620.122 6.78874 1.55252 0
M  V30 6431 H 617.749 7.47668 1.37463 0
M  V30 6432 N 619.324 -0.923095 1.27737 0
M  V30 6433 C 620.274 -2.01061 1.0751 0
M  V30 6434 C 621.258 -1.609 0.00165451 0
M  V30 6435 O 622.45 -1.75618 0.220724 0
M  V30 6436 C 619.579 -3.35467 0.729162 0
M  V30 6437 C 618.665 -3.82059 1.84098 0
M  V30 6438 N 619.056 -4.01115 3.08124 0
M  V30 6439 C 617.354 -4.11135 1.7287 0
M  V30 6440 C 618.055 -4.39989 3.80506 0
M  V30 6441 N 617.031 -4.47721 3.08297 0
M  V30 6442 H 620.833 -2.13832 2.01626 0
M  V30 6443 H 618.347 -1.11027 1.18519 0
M  V30 6444 H 620.344 -4.13049 0.565355 0
M  V30 6445 H 619.004 -3.24056 -0.204334 0
M  V30 6446 H 620.015 -3.87294 3.43836 0
M  V30 6447 H 616.692 -4.08412 0.866352 0
M  V30 6448 H 618.082 -4.62773 4.87125 0
M  V30 6449 N 620.802 -1.09834 -1.13024 0
M  V30 6450 C 622.213 -0.855651 -1.65938 0
M  V30 6451 C 622.564 0.615159 -1.86307 0
M  V30 6452 O 621.689 1.47335 -1.58497 0
M  V30 6453 C 622.284 -1.5467 -3.01434 0
M  V30 6454 C 620.843 -1.35088 -3.51323 0
M  V30 6455 C 619.99 -1.6001 -2.26478 0
M  V30 6456 H 622.941 -1.25691 -0.968889 0
M  V30 6457 H 622.962 -0.982179 -3.67605 0
M  V30 6458 H 622.474 -2.61715 -2.86578 0
M  V30 6459 H 620.575 -0.30179 -3.71376 0
M  V30 6460 H 620.688 -2.0886 -4.31178 0
M  V30 6461 H 619.052 -1.02246 -2.33276 0
M  V30 6462 H 619.835 -2.68293 -2.14182 0
M  V30 6463 N 622.28 1.30327 -0.886154 0
M  V30 6464 C 623.528 1.9571 -0.504195 0
M  V30 6465 C 623.849 1.70294 0.950003 0
M  V30 6466 O 623.119 1.02718 1.66811 0
M  V30 6467 H 621.699 0.72412 -0.183465 0
M  V30 6468 H 624.361 1.58835 -1.12949 0
M  V30 6469 H 623.457 3.04704 -0.675431 0
M  V30 6470 N 623.758 0.647228 1.43697 0
M  V30 6471 C 624.986 0.16575 2.06235 0
M  V30 6472 C 625.401 -1.1662 1.48476 0
M  V30 6473 O 624.758 -1.7187 0.613762 0
M  V30 6474 C 624.809 0.0621651 3.61447 0
M  V30 6475 O 624.53 1.34146 4.17057 0
M  V30 6476 C 626.031 -0.446102 4.4105 0
M  V30 6477 H 623.251 0.0871158 0.665321 0
M  V30 6478 H 625.795 0.886183 1.84301 0
M  V30 6479 H 623.95 -0.608794 3.82587 0
M  V30 6480 H 624.364 1.19675 5.10664 0
M  V30 6481 H 625.838 -0.46755 5.50016 0
M  V30 6482 H 626.315 -1.47627 4.13646 0
M  V30 6483 H 626.921 0.192159 4.24866 0
M  V30 6484 N 625.236 -1.5273 0.388769 0
M  V30 6485 C 626.464 -2.05992 -0.193677 0
M  V30 6486 C 626.879 -1.26053 -1.40557 0
M  V30 6487 O 626.236 -0.307049 -1.79898 0
M  V30 6488 C 626.287 -3.57068 -0.564321 0
M  V30 6489 O 626.008 -4.3398 0.599422 0
M  V30 6490 C 627.509 -4.26674 -1.20269 0
M  V30 6491 H 624.729 -0.670358 -0.0293445 0
M  V30 6492 H 627.273 -1.96857 0.553844 0
M  V30 6493 H 625.428 -3.66277 -1.26174 0
M  V30 6494 H 625.842 -5.2367 0.294895 0
M  V30 6495 H 627.316 -5.33625 -1.4124 0
M  V30 6496 H 627.793 -3.81854 -2.16989 0
M  V30 6497 H 628.399 -4.2178 -0.546047 0
M  V30 6498 N 626.714 -0.118576 -1.57153 0
M  V30 6499 C 627.661 0.831789 -2.1529 0
M  V30 6500 C 628.631 1.26385 -1.07778 0
M  V30 6501 O 629.816 1.34144 -1.35684 0
M  V30 6502 C 626.956 2.07664 -2.75626 0
M  V30 6503 C 626.069 1.69298 -3.97444 0
M  V30 6504 C 625.204 2.88747 -4.45868 0
M  V30 6505 C 624.243 2.46619 -5.60219 0
M  V30 6506 N 623.38 3.5898 -6.03389 0
M  V30 6507 H 628.22 0.329183 -2.96176 0
M  V30 6508 H 625.757 0.150792 -1.46325 0
M  V30 6509 H 627.715 2.80601 -3.08738 0
M  V30 6510 H 626.345 2.55384 -1.97431 0
M  V30 6511 H 625.397 0.862374 -3.70496 0
M  V30 6512 H 626.709 1.34338 -4.80369 0
M  V30 6513 H 625.863 3.69909 -4.80887 0
M  V30 6514 H 624.602 3.26933 -3.61892 0
M  V30 6515 H 623.607 1.63889 -5.24805 0
M  V30 6516 H 624.832 2.0955 -6.45961 0
M  V30 6517 H 622.778 3.9684 -5.22354 0
M  V30 6518 H 622.695 3.27942 -6.81168 0
M  V30 6519 H 623.963 4.40583 -6.43045 0
M  V30 6520 N 628.193 1.56834 0.155195 0
M  V30 6521 C 629.418 1.87412 0.888337 0
M  V30 6522 C 629.843 0.70671 1.74319 0
M  V30 6523 O 629.201 -0.343892 1.78009 0
M  V30 6524 C 629.249 3.1652 1.72765 0
M  V30 6525 O 628.353 2.99877 2.83103 0
M  V30 6526 H 627.694 0.615983 0.247914 0
M  V30 6527 H 630.224 2.04061 0.148478 0
M  V30 6528 H 630.234 3.48334 2.12433 0
M  V30 6529 H 628.909 4.01094 1.09985 0
M  V30 6530 H 627.486 2.79453 2.46902 0
M  V30 6531 N 629.671 -0.424282 1.51781 0
M  V30 6532 C 630.619 -1.53649 1.74628 0
M  V30 6533 C 631.613 -1.57923 0.612922 0
M  V30 6534 O 632.819 -1.61511 0.794618 0
M  V30 6535 H 629.194 -0.510706 0.551981 0
M  V30 6536 H 631.165 -1.31558 2.67834 0
M  V30 6537 C 629.914 -2.91177 1.9003 0
M  V30 6538 H 629.237 -2.88625 2.76651 0
M  V30 6539 H 630.677 -3.6833 2.10021 0
M  V30 6540 C 629.136 -3.30303 0.663435 0
M  V30 6541 O 629.666 -4.01315 -0.175812 0
M  V30 6542 N 627.872 -2.86201 0.503723 0
M  V30 6543 H 627.419 -2.28583 1.18776 0
M  V30 6544 H 627.377 -3.12741 -0.322575 0
M  V30 6545 N 631.149 -1.42148 -0.680565 0
M  V30 6546 C 632.112 -1.4488 -1.77602 0
M  V30 6547 C 633.112 -0.337209 -1.57224 0
M  V30 6548 O 634.302 -0.597778 -1.63622 0
M  V30 6549 C 631.434 -1.27483 -3.16166 0
M  V30 6550 H 632.627 -2.42412 -1.76568 0
M  V30 6551 H 630.18 -1.28511 -0.889645 0
M  V30 6552 H 630.915 -0.30851 -3.22829 0
M  V30 6553 H 630.7 -2.08037 -3.3236 0
M  V30 6554 H 632.19 -1.32265 -3.96101 0
M  V30 6555 N 632.627 0.916307 -1.28225 0
M  V30 6556 C 633.875 1.6619 -1.15002 0
M  V30 6557 C 634.196 1.92642 0.302329 0
M  V30 6558 O 633.466 1.54076 1.20985 0
M  V30 6559 H 632.046 0.615964 -0.422608 0
M  V30 6560 H 634.708 1.09963 -1.60917 0
M  V30 6561 H 633.804 2.62533 -1.68769 0
M  V30 6562 N 634.105 1.10431 1.1244 0
M  V30 6563 C 635.038 0.696987 2.17296 0
M  V30 6564 C 636.016 -0.301673 1.59777 0
M  V30 6565 O 637.2 -0.200583 1.8743 0
M  V30 6566 C 634.327 0.0284094 3.38688 0
M  V30 6567 C 633.373 0.990536 4.14838 0
M  V30 6568 S 634.206 2.50785 4.73146 0
M  V30 6569 C 635.362 1.85198 5.97873 0
M  V30 6570 H 635.595 1.58523 2.51511 0
M  V30 6571 H 633.128 0.921312 1.239 0
M  V30 6572 H 635.086 -0.351009 4.08997 0
M  V30 6573 H 633.747 -0.836629 3.02753 0
M  V30 6574 H 632.94 0.469991 5.01804 0
M  V30 6575 H 632.542 1.31186 3.50237 0
M  V30 6576 H 634.834 1.18217 6.67106 0
M  V30 6577 H 635.777 2.7012 6.54554 0
M  V30 6578 H 636.185 1.31653 5.48933 0
M  V30 6579 N 635.583 -1.29855 0.893053 0
M  V30 6580 C 636.53 -2.27909 0.364161 0
M  V30 6581 C 637.5 -1.56726 -0.550093 0
M  V30 6582 O 638.685 -1.84747 -0.47677 0
M  V30 6583 C 635.825 -3.42678 -0.408178 0
M  V30 6584 C 634.938 -4.28659 0.536212 0
M  V30 6585 C 634.073 -5.30599 -0.252521 0
M  V30 6586 C 633.112 -6.08234 0.686822 0
M  V30 6587 N 632.249 -7.02068 -0.0670902 0
M  V30 6588 H 637.089 -2.72531 1.20544 0
M  V30 6589 H 634.626 -1.34047 0.605779 0
M  V30 6590 H 636.584 -4.07986 -0.871962 0
M  V30 6591 H 635.214 -2.99103 -1.21397 0
M  V30 6592 H 634.266 -3.63584 1.1185 0
M  V30 6593 H 635.578 -4.8274 1.25552 0
M  V30 6594 H 634.732 -6.01694 -0.777801 0
M  V30 6595 H 633.471 -4.77233 -1.005 0
M  V30 6596 H 632.476 -5.3601 1.22366 0
M  V30 6597 H 633.701 -6.63689 1.43852 0
M  V30 6598 H 631.647 -6.5108 -0.801955 0
M  V30 6599 H 631.564 -7.53675 0.59243 0
M  V30 6600 H 632.832 -7.77392 -0.572851 0
M  V30 6601 N 637.061 -0.65484 -1.43351 0
M  V30 6602 C 638.011 0.0581325 -2.27926 0
M  V30 6603 C 638.995 0.793188 -1.3999 0
M  V30 6604 O 640.187 0.675387 -1.63608 0
M  V30 6605 C 637.316 1.02272 -3.27712 0
M  V30 6606 C 636.402 0.286048 -4.23134 0
M  V30 6607 N 636.793 -0.698298 -5.00957 0
M  V30 6608 C 635.091 0.527272 -4.42872 0
M  V30 6609 C 635.792 -1.1357 -5.70506 0
M  V30 6610 N 634.768 -0.469631 -5.41568 0
M  V30 6611 H 638.57 -0.697182 -2.85511 0
M  V30 6612 H 636.084 -0.482252 -1.55074 0
M  V30 6613 H 638.081 1.5483 -3.87083 0
M  V30 6614 H 636.741 1.77807 -2.71688 0
M  V30 6615 H 637.752 -1.07708 -5.06576 0
M  V30 6616 H 634.429 1.26367 -3.97916 0
M  V30 6617 H 635.819 -1.95027 -6.42973 0
M  V30 6618 N 638.539 1.52521 -0.396863 0
M  V30 6619 C 639.787 2.01274 0.182536 0
M  V30 6620 C 640.108 1.28485 1.46685 0
M  V30 6621 O 639.378 0.407134 1.91623 0
M  V30 6622 H 637.958 0.743671 0.0704442 0
M  V30 6623 H 640.62 1.87547 -0.530289 0
M  V30 6624 H 639.716 3.09687 0.387385 0
M  V30 6625 N 640.017 0.126909 1.57088 0
M  V30 6626 C 641.245 -0.53667 1.99819 0
M  V30 6627 C 641.66 -1.5972 1.00673 0
M  V30 6628 O 641.017 -1.825 0.000747365 0
M  V30 6629 C 641.068 -1.15563 3.42531 0
M  V30 6630 O 640.789 -0.137483 4.37884 0
M  V30 6631 C 642.29 -1.90176 4.00435 0
M  V30 6632 H 639.51 -0.141443 0.655923 0
M  V30 6633 H 642.054 0.215578 2.03361 0
M  V30 6634 H 640.209 -1.85861 3.39904 0
M  V30 6635 H 640.623 -0.588229 5.21191 0
M  V30 6636 H 642.097 -2.28801 5.02349 0
M  V30 6637 H 642.574 -2.78002 3.40017 0
M  V30 6638 H 643.18 -1.24623 4.06632 0
M  V30 6639 N 641.495 -1.56914 -0.146875 0
M  V30 6640 C 642.428 -1.93425 -1.21087 0
M  V30 6641 C 643.406 -0.800106 -1.41552 0
M  V30 6642 O 644.59 -1.05572 -1.56162 0
M  V30 6643 C 641.717 -2.20639 -2.56975 0
M  V30 6644 C 640.763 -3.43279 -2.53104 0
M  V30 6645 S 641.596 -4.96836 -1.99786 0
M  V30 6646 C 642.752 -5.27172 -3.37403 0
M  V30 6647 H 642.985 -2.8337 -0.899378 0
M  V30 6648 H 640.518 -1.50322 -0.352494 0
M  V30 6649 H 642.476 -2.36998 -3.35175 0
M  V30 6650 H 641.137 -1.31357 -2.85314 0
M  V30 6651 H 640.33 -3.59599 -3.53136 0
M  V30 6652 H 639.932 -3.26163 -1.83012 0
M  V30 6653 H 642.224 -5.20647 -4.33513 0
M  V30 6654 H 643.167 -6.28626 -3.25937 0
M  V30 6655 H 643.575 -4.54687 -3.34544 0
M  V30 6656 N 642.974 0.416227 -1.52004 0
M  V30 6657 C 644.251 1.17637 -1.56272 0
M  V30 6658 C 644.631 2.08352 -0.339493 0
M  V30 6659 O 643.979 2.1833 0.674124 0
M  V30 6660 C 644.189 1.95986 -2.88774 0
M  V30 6661 C 645.537 2.52299 -3.41512 0
M  V30 6662 O 646.561 2.06174 -2.90467 0
M  V30 6663 O 645.42 3.3648 -4.30631 0
M  V30 6664 H 642.514 0.536726 -0.629169 0
M  V30 6665 H 645.06 0.423583 -1.64329 0
M  V30 6666 H 643.832 1.29487 -3.69254 0
M  V30 6667 H 643.455 2.78285 -2.83978 0
M  V30 6668 N 644.452 1.42507 0.673017 0
M  V30 6669 C 645.68 1.46473 1.46128 0
M  V30 6670 C 646.095 0.0765912 1.88645 0
M  V30 6671 O 645.452 -0.909057 1.58248 0
M  V30 6672 C 645.503 2.39339 2.70923 0
M  V30 6673 O 645.224 3.72752 2.3019 0
M  V30 6674 C 646.725 2.52343 3.64469 0
M  V30 6675 H 643.945 0.49812 0.449575 0
M  V30 6676 H 646.489 1.87041 0.826802 0
M  V30 6677 H 644.644 2.02019 3.30556 0
M  V30 6678 H 645.058 4.22503 3.10791 0
M  V30 6679 H 646.532 3.2144 4.48754 0
M  V30 6680 H 647.009 1.56189 4.1049 0
M  V30 6681 H 647.615 2.90392 3.10729 0
M  V30 6682 N 645.93 -0.909495 1.28709 0
M  V30 6683 C 646.84 -2.04558 1.14861 0
M  V30 6684 C 647.856 -1.73842 0.0741621 0
M  V30 6685 O 649.032 -1.99383 0.2843 0
M  V30 6686 C 646.097 -3.36957 0.816148 0
M  V30 6687 C 645.158 -3.81255 1.97341 0
M  V30 6688 C 644.391 -5.07335 1.65671 0
M  V30 6689 O 644.614 -5.67514 0.573053 0
M  V30 6690 O 643.548 -5.47449 2.50167 0
M  V30 6691 H 647.374 -2.19161 2.10243 0
M  V30 6692 H 644.959 -1.03159 1.08068 0
M  V30 6693 H 646.841 -4.16436 0.644873 0
M  V30 6694 H 645.516 -3.2352 -0.107983 0
M  V30 6695 H 644.423 -3.02584 2.19986 0
M  V30 6696 H 645.756 -3.99261 2.87839 0
M  V30 6697 N 647.408 -1.11026 -1.11852 0
M  V30 6698 C 648.633 -0.879064 -1.87849 0
M  V30 6699 C 649.058 0.565406 -1.79401 0
M  V30 6700 O 648.416 1.39886 -1.15333 0
M  V30 6701 C 648.464 -1.33985 -3.34784 0
M  V30 6702 O 647.568 -0.508803 -4.09249 0
M  V30 6703 H 646.909 -0.316992 -0.583448 0
M  V30 6704 H 649.439 -1.47863 -1.41413 0
M  V30 6705 H 649.449 -1.33248 -3.85628 0
M  V30 6706 H 648.124 -2.39172 -3.40249 0
M  V30 6707 H 646.701 -0.581913 -3.68332 0
M  V30 6708 N 648.886 1.2938 -0.899927 0
M  V30 6709 C 649.833 2.27713 -0.376243 0
M  V30 6710 C 650.803 1.57016 0.541774 0
M  V30 6711 O 651.988 1.84997 0.466966 0
M  V30 6712 C 649.128 3.42889 0.39 0
M  V30 6713 C 648.241 4.28369 -0.558938 0
M  V30 6714 C 647.376 5.30726 0.224379 0
M  V30 6715 C 646.415 6.07862 -0.719068 0
M  V30 6716 N 645.552 7.02094 0.0298569 0
M  V30 6717 H 650.392 2.71888 -1.21988 0
M  V30 6718 H 647.929 1.33724 -0.612879 0
M  V30 6719 H 649.887 4.08443 0.850314 0
M  V30 6720 H 648.517 2.99743 1.19809 0
M  V30 6721 H 647.569 3.62986 -1.13777 0
M  V30 6722 H 648.881 4.82068 -1.2811 0
M  V30 6723 H 648.035 6.02098 0.745881 0
M  V30 6724 H 646.774 4.77759 0.979674 0
M  V30 6725 H 645.779 5.35353 -1.25207 0
M  V30 6726 H 647.004 6.62917 -1.4737 0
M  V30 6727 H 644.95 6.51496 0.767415 0
M  V30 6728 H 644.867 7.5335 -0.632391 0
M  V30 6729 H 646.135 7.77685 0.531615 0
M  V30 6730 N 650.364 0.662433 1.43002 0
M  V30 6731 C 651.311 -0.0235324 2.30788 0
M  V30 6732 C 652.281 -0.805342 1.4527 0
M  V30 6733 O 653.466 -0.78009 1.74124 0
M  V30 6734 C 650.606 -0.977545 3.30965 0
M  V30 6735 C 649.719 -0.190865 4.31578 0
M  V30 6736 C 648.854 -1.13951 5.18834 0
M  V30 6737 C 647.893 -0.343796 6.11134 0
M  V30 6738 N 647.03 -1.2445 6.90982 0
M  V30 6739 H 651.87 0.730921 2.88897 0
M  V30 6740 H 649.407 0.372197 1.42313 0
M  V30 6741 H 651.365 -1.54437 3.87563 0
M  V30 6742 H 649.995 -1.69877 2.74484 0
M  V30 6743 H 649.047 0.492388 3.772 0
M  V30 6744 H 650.359 0.427464 4.96965 0
M  V30 6745 H 649.513 -1.77666 5.80103 0
M  V30 6746 H 648.252 -1.79174 4.53595 0
M  V30 6747 H 647.257 0.30665 5.48944 0
M  V30 6748 H 648.482 0.304161 6.78419 0
M  V30 6749 H 646.428 -1.88336 6.28383 0
M  V30 6750 H 646.345 -0.680959 7.52927 0
M  V30 6751 H 647.613 -1.86952 7.56749 0
M  V30 6752 N 651.842 -1.52309 0.404946 0
M  V30 6753 C 653.119 -1.94237 -0.230544 0
M  V30 6754 C 653.499 -1.34154 -1.6299 0
M  V30 6755 O 652.847 -0.515713 -2.22604 0
M  V30 6756 C 653.057 -3.48166 -0.241106 0
M  V30 6757 C 654.405 -4.22074 -0.462488 0
M  V30 6758 O 655.429 -3.54754 -0.320644 0
M  V30 6759 O 654.288 -5.41443 -0.741708 0
M  V30 6760 H 651.382 -0.813766 -0.147358 0
M  V30 6761 H 653.928 -1.6333 0.460587 0
M  V30 6762 H 652.7 -3.84269 0.738467 0
M  V30 6763 H 652.323 -3.85422 -0.97651 0
M  V30 6764 N 653.32 -0.135238 -1.57019 0
M  V30 6765 C 654.731 0.387521 -1.82634 0
M  V30 6766 C 655.082 1.65528 -1.05332 0
M  V30 6767 O 654.207 2.14381 -0.294926 0
M  V30 6768 C 654.802 0.709852 -3.3128 0
M  V30 6769 C 653.361 1.17718 -3.57518 0
M  V30 6770 C 652.508 0.194183 -2.76619 0
M  V30 6771 H 655.459 -0.360126 -1.5456 0
M  V30 6772 H 655.48 1.5657 -3.46794 0
M  V30 6773 H 654.992 -0.213024 -3.87515 0
M  V30 6774 H 653.093 2.1164 -3.06658 0
M  V30 6775 H 653.206 1.11128 -4.66034 0
M  V30 6776 H 651.57 0.684478 -2.4533 0
M  V30 6777 H 652.353 -0.722076 -3.3562 0
M  V30 6778 N 654.798 1.5699 0.138552 0
M  V30 6779 C 655.708 2.02174 1.19008 0
M  V30 6780 C 656.724 0.938622 1.46512 0
M  V30 6781 O 657.9 1.24872 1.58016 0
M  V30 6782 C 654.965 2.40045 2.50159 0
M  V30 6783 C 654.026 3.62346 2.30226 0
M  V30 6784 C 653.259 3.98401 3.55123 0
M  V30 6785 O 653.482 3.35019 4.61647 0
M  V30 6786 O 652.416 4.91606 3.47285 0
M  V30 6787 H 656.242 2.91954 0.836452 0
M  V30 6788 H 653.827 1.45293 0.347907 0
M  V30 6789 H 655.709 2.65225 3.27465 0
M  V30 6790 H 654.384 1.53417 2.85035 0
M  V30 6791 H 653.291 3.42341 1.50843 0
M  V30 6792 H 654.624 4.49617 2.00262 0
M  V30 6793 N 656.276 -0.40816 1.52223 0
M  V30 6794 C 657.524 -1.15274 1.66001 0
M  V30 6795 C 657.845 -1.91003 0.392803 0
M  V30 6796 O 657.115 -1.8673 -0.592336 0
M  V30 6797 H 655.695 -0.428526 0.611861 0
M  V30 6798 H 658.357 -0.46512 1.89269 0
M  V30 6799 H 657.453 -1.86628 2.50153 0
M  V30 6800 N 657.755 -1.42862 -0.66545 0
M  V30 6801 C 658.995 -1.45323 -1.43738 0
M  V30 6802 C 659.359 -0.0707969 -1.91869 0
M  V30 6803 O 660.56 0.0298852 -2.68783 0
M  V30 6804 C 658.831 -2.45671 -2.59577 0
M  V30 6805 S 660.39 -2.6691 -3.48288 0
M  V30 6806 H 657.208 -0.51442 -0.490809 0
M  V30 6807 H 659.81 -1.79537 -0.773745 0
M  V30 6808 H 658.514 -3.44869 -2.22471 0
M  V30 6809 H 658.045 -2.12914 -3.30804 0
M  V30 6810 H 660.06 -1.95914 -4.55886 0
M  V30 6811 N 659.233 0.902656 -1.29189 0
M  V30 6812 C 660.51 1.63296 -1.07674 0
M  V30 6813 C 660.89 2.07649 0.380137 0
M  V30 6814 O 660.238 1.82997 1.36837 0
M  V30 6815 C 660.448 2.81603 -2.06158 0
M  V30 6816 C 661.796 3.52359 -2.36914 0
M  V30 6817 O 662.82 2.91767 -2.04329 0
M  V30 6818 O 661.679 4.61586 -2.92576 0
M  V30 6819 H 658.773 0.716889 -0.41231 0
M  V30 6820 H 661.319 0.950984 -1.4055 0
M  V30 6821 H 660.091 2.46004 -3.04299 0
M  V30 6822 H 659.714 3.57508 -1.73993 0
M  V30 6823 N 660.711 1.11618 1.11262 0
M  V30 6824 C 661.658 0.7762 2.17356 0
M  V30 6825 C 662.628 -0.253152 1.6416 0
M  V30 6826 O 663.813 -0.129655 1.90359 0
M  V30 6827 C 660.953 0.227581 3.44349 0
M  V30 6828 C 660.066 1.31372 4.1154 0
M  V30 6829 C 659.201 0.72544 5.26223 0
M  V30 6830 C 658.24 1.7913 5.85302 0
M  V30 6831 N 657.377 1.22237 6.91377 0
M  V30 6832 H 662.217 1.68508 2.45783 0
M  V30 6833 H 659.754 0.841475 1.20655 0
M  V30 6834 H 661.712 -0.108483 4.17059 0
M  V30 6835 H 660.342 -0.644486 3.16301 0
M  V30 6836 H 659.394 1.7667 3.36885 0
M  V30 6837 H 660.706 2.12005 4.51504 0
M  V30 6838 H 659.86 0.339541 6.05749 0
M  V30 6839 H 658.599 -0.112188 4.87571 0
M  V30 6840 H 657.604 2.18648 5.04453 0
M  V30 6841 H 658.829 2.63199 6.26022 0
M  V30 6842 H 656.775 0.406423 6.5474 0
M  V30 6843 H 656.692 1.9654 7.30006 0
M  V30 6844 H 657.96 0.863426 7.74703 0
M  V30 6845 N 662.189 -1.289 0.906776 0
M  V30 6846 C 663.414 -1.99939 0.551303 0
M  V30 6847 C 663.839 -1.67366 -0.858496 0
M  V30 6848 O 663.197 -0.902176 -1.57259 0
M  V30 6849 C 663.245 -3.52523 0.758937 0
M  V30 6850 O 662.349 -4.11983 -0.185308 0
M  V30 6851 H 661.69 -0.628376 0.214568 0
M  V30 6852 H 664.22 -1.64225 1.2203 0
M  V30 6853 H 664.23 -4.02522 0.666329 0
M  V30 6854 H 662.905 -3.75566 1.78671 0
M  V30 6855 H 661.482 -3.72873 -0.0445577 0
M  V30 6856 N 663.667 -0.670007 -1.42649 0
M  V30 6857 C 664.944 -0.119451 -1.95235 0
M  V30 6858 C 665.324 1.36461 -1.61064 0
M  V30 6859 O 664.672 2.09843 -0.904329 0
M  V30 6860 C 664.882 -0.383498 -3.46887 0
M  V30 6861 C 666.23 -0.297431 -4.23557 0
M  V30 6862 O 667.254 -0.31698 -3.54787 0
M  V30 6863 O 666.113 -0.235507 -5.45992 0
M  V30 6864 H 663.207 -8.85474e-05 -0.827 0
M  V30 6865 H 665.753 -0.744406 -1.52501 0
M  V30 6866 H 664.525 -1.41174 -3.64946 0
M  V30 6867 H 664.148 0.273702 -3.96657 0
M  V30 6868 N 665.145 1.52092 -0.413018 0
M  V30 6869 C 666.422 1.94356 0.22024 0
M  V30 6870 C 666.802 1.35017 1.62277 0
M  V30 6871 O 666.15 0.527511 2.22328 0
M  V30 6872 C 666.36 3.48289 0.222638 0
M  V30 6873 C 667.708 4.22313 0.440098 0
M  V30 6874 O 668.732 3.54919 0.301826 0
M  V30 6875 O 667.591 5.41829 0.712984 0
M  V30 6876 H 664.685 0.814536 0.14304 0
M  V30 6877 H 667.231 1.63083 -0.469242 0
M  V30 6878 H 666.003 3.83872 -0.758836 0
M  V30 6879 H 665.626 3.85934 0.956057 0
M  V30 6880 N 666.623 0.143563 1.56945 0
M  V30 6881 C 667.57 -0.797433 2.16586 0
M  V30 6882 C 668.54 -1.24654 1.09775 0
M  V30 6883 O 669.725 -1.31968 1.37801 0
M  V30 6884 C 666.865 -2.03253 2.78895 0
M  V30 6885 C 665.978 -1.62954 4.00087 0
M  V30 6886 C 665.113 -2.81617 4.50406 0
M  V30 6887 C 664.152 -2.37675 5.64072 0
M  V30 6888 N 663.289 -3.49335 6.09023 0
M  V30 6889 H 668.129 -0.282023 2.96662 0
M  V30 6890 H 665.666 -0.127494 1.46546 0
M  V30 6891 H 667.624 -2.75653 3.13163 0
M  V30 6892 H 666.254 -2.52211 2.01469 0
M  V30 6893 H 665.306 -0.803322 3.71821 0
M  V30 6894 H 666.618 -1.26679 4.82446 0
M  V30 6895 H 665.772 -3.62212 4.86711 0
M  V30 6896 H 664.511 -3.21134 3.67048 0
M  V30 6897 H 663.516 -1.55519 5.27346 0
M  V30 6898 H 664.741 -1.99247 6.49213 0
M  V30 6899 H 662.687 -3.8848 5.28601 0
M  V30 6900 H 662.604 -3.17064 6.86299 0
M  V30 6901 H 663.872 -4.30297 6.49973 0
M  V30 6902 N 668.101 -1.57061 -0.130224 0
M  V30 6903 C 669.049 -2.00486 -1.17933 0
M  V30 6904 C 670.043 -0.899933 -1.43519 0
M  V30 6905 O 671.249 -1.08514 -1.43613 0
M  V30 6906 H 667.624 -0.638441 -0.397363 0
M  V30 6907 H 669.595 -2.87848 -0.786501 0
M  V30 6908 C 668.344 -2.41565 -2.50084 0
M  V30 6909 H 667.667 -3.26148 -2.31231 0
M  V30 6910 H 669.107 -2.75757 -3.22078 0
M  V30 6911 C 667.566 -1.27485 -3.11848 0
M  V30 6912 O 668.096 -0.584688 -3.97422 0
M  V30 6913 N 666.302 -1.03478 -2.71552 0
M  V30 6914 H 665.849 -1.59779 -2.02061 0
M  V30 6915 H 665.807 -0.27341 -3.13209 0
M  V30 6916 N 669.579 0.400081 -1.52437 0
M  V30 6917 C 670.807 1.16768 -1.70801 0
M  V30 6918 C 671.222 1.84036 -0.421462 0
M  V30 6919 O 670.579 1.72242 0.603228 0
M  V30 6920 C 670.63 2.22403 -2.8499 0
M  V30 6921 O 670.351 1.57879 -4.08663 0
M  V30 6922 C 671.852 3.11974 -3.1494 0
M  V30 6923 H 669.072 0.350533 -0.57216 0
M  V30 6924 H 671.616 0.469534 -1.99037 0
M  V30 6925 H 669.771 2.87871 -2.59247 0
M  V30 6926 H 670.185 2.27982 -4.7236 0
M  V30 6927 H 671.659 3.82148 -3.9833 0
M  V30 6928 H 672.136 3.74858 -2.28863 0
M  V30 6929 H 672.742 2.52165 -3.42481 0
M  V30 6930 N 671.057 1.43213 0.657864 0
M  V30 6931 C 672.303 1.44798 1.41991 0
M  V30 6932 C 672.636 0.070256 1.94073 0
M  V30 6933 O 671.911 -0.908177 1.71995 0
M  V30 6934 C 672.194 2.4865 2.60471 0
M  V30 6935 C 672.047 3.95679 2.13911 0
M  V30 6936 C 673.366 2.49292 3.62686 0
M  V30 6937 H 670.485 0.527244 0.514959 0
M  V30 6938 H 673.127 1.74733 0.74621 0
M  V30 6939 H 671.277 2.23254 3.17946 0
M  V30 6940 H 672.949 4.32116 1.61472 0
M  V30 6941 H 671.192 4.08733 1.45325 0
M  V30 6942 H 671.863 4.6395 2.99089 0
M  V30 6943 H 674.339 2.71917 3.14961 0
M  V30 6944 H 673.215 3.23907 4.43143 0
M  V30 6945 H 673.476 1.52502 4.14964 0
M  V30 6946 N 672.536 -0.895792 1.29666 0
M  V30 6947 C 673.484 -2.02173 1.15017 0
M  V30 6948 C 674.478 -1.69276 0.0647651 0
M  V30 6949 O 675.684 -1.7859 0.224846 0
M  V30 6950 H 672.059 -0.662719 0.355397 0
M  V30 6951 H 674.03 -2.11666 2.10334 0
M  V30 6952 C 672.779 -3.37212 0.847555 0
M  V30 6953 H 672.102 -3.6303 1.67479 0
M  V30 6954 H 673.542 -4.16668 0.785106 0
M  V30 6955 C 672.001 -3.33891 -0.44929 0
M  V30 6956 O 672.531 -3.73673 -1.47415 0
M  V30 6957 N 670.737 -2.86991 -0.456547 0
M  V30 6958 H 670.284 -2.54813 0.377925 0
M  V30 6959 H 670.242 -2.85152 -1.32423 0
M  V30 6960 N 674.014 -1.12206 -1.10668 0
M  V30 6961 C 674.944 -0.810086 -2.18997 0
M  V30 6962 C 675.925 0.225065 -1.68604 0
M  V30 6963 O 677.11 0.086783 -1.94006 0
M  V30 6964 C 674.24 -0.261262 -3.46316 0
M  V30 6965 C 673.194 -1.2292 -4.09969 0
M  V30 6966 C 672.52 -0.540713 -5.31959 0
M  V30 6967 C 673.82 -2.58295 -4.53962 0
M  V30 6968 H 675.514 -1.7159 -2.45352 0
M  V30 6969 H 673.06 -0.82646 -1.17922 0
M  V30 6970 H 675.013 -0.0307522 -4.21389 0
M  V30 6971 H 673.737 0.679879 -3.19445 0
M  V30 6972 H 672.396 -1.44548 -3.369 0
M  V30 6973 H 672.044 0.405492 -5.01363 0
M  V30 6974 H 671.744 -1.18637 -5.75499 0
M  V30 6975 H 673.268 -0.319184 -6.09765 0
M  V30 6976 H 674.682 -2.40709 -5.20319 0
M  V30 6977 H 673.079 -3.18916 -5.08343 0
M  V30 6978 H 674.149 -3.16918 -3.67002 0
M  V30 6979 N 675.492 1.28418 -0.913599 0
M  V30 6980 C 676.739 1.94981 -0.546674 0
M  V30 6981 C 677.067 1.7192 0.909606 0
M  V30 6982 O 676.322 1.03314 1.66207 0
M  V30 6983 C 676.621 3.48283 -0.802099 0
M  V30 6984 C 676.287 3.91444 -2.2379 0
M  V30 6985 C 674.949 4.02939 -2.63046 0
M  V30 6986 C 677.301 4.13542 -3.17227 0
M  V30 6987 C 674.629 4.3391 -3.94891 0
M  V30 6988 C 676.981 4.45992 -4.48636 0
M  V30 6989 C 675.645 4.55698 -4.87746 0
M  V30 6990 H 674.915 0.713487 -0.200042 0
M  V30 6991 H 677.562 1.52756 -1.15489 0
M  V30 6992 H 675.867 3.91643 -0.111076 0
M  V30 6993 H 677.564 3.97903 -0.497375 0
M  V30 6994 H 674.154 3.83024 -1.9233 0
M  V30 6995 H 678.338 4.04114 -2.88107 0
M  V30 6996 H 673.594 4.39631 -4.24894 0
M  V30 6997 H 677.768 4.62038 -5.21051 0
M  V30 6998 H 675.395 4.79451 -5.89942 0
M  V30 6999 N 676.97 0.677563 1.42291 0
M  V30 7000 C 678.218 0.200578 2.01102 0
M  V30 7001 C 678.539 -1.19803 1.53858 0
M  V30 7002 O 677.809 -1.80496 0.761439 0
M  V30 7003 H 676.389 0.0711634 0.743603 0
M  V30 7004 H 679.051 0.874691 1.7417 0
M  V30 7005 H 678.147 0.204 3.11433 0
M  V30 7006 N 678.448 -1.51871 0.421078 0
M  V30 7007 C 679.395 -2.27334 -0.398508 0
M  V30 7008 C 680.365 -1.30241 -1.03085 0
M  V30 7009 O 681.55 -1.59121 -1.05285 0
M  V30 7010 C 678.69 -3.10664 -1.50272 0
M  V30 7011 C 677.803 -4.2273 -0.890122 0
M  V30 7012 C 676.938 -4.93399 -1.96803 0
M  V30 7013 C 675.977 -5.97409 -1.333 0
M  V30 7014 N 675.114 -6.61548 -2.35156 0
M  V30 7015 H 679.954 -2.96938 0.251411 0
M  V30 7016 H 677.491 -1.46472 0.135825 0
M  V30 7017 H 679.449 -3.57292 -2.15403 0
M  V30 7018 H 678.079 -2.43207 -2.1225 0
M  V30 7019 H 677.131 -3.80186 -0.127537 0
M  V30 7020 H 678.443 -4.97302 -0.386349 0
M  V30 7021 H 677.597 -5.43491 -2.69633 0
M  V30 7022 H 676.336 -4.18421 -2.50549 0
M  V30 7023 H 675.341 -5.46624 -0.59008 0
M  V30 7024 H 676.566 -6.74335 -0.803076 0
M  V30 7025 H 674.512 -5.89394 -2.88012 0
M  V30 7026 H 674.429 -7.31832 -1.89624 0
M  V30 7027 H 675.697 -7.16276 -3.0752 0
M  V30 7028 N 679.926 -0.151884 -1.56866 0
M  V30 7029 C 681.172 0.498742 -1.96572 0
M  V30 7030 C 681.505 1.64194 -1.03702 0
M  V30 7031 O 680.78 1.94334 -0.0803432 0
M  V30 7032 C 681.063 1.00027 -3.45929 0
M  V30 7033 C 680.916 -0.141767 -4.49577 0
M  V30 7034 C 682.235 1.88044 -3.97904 0
M  V30 7035 H 679.354 0.17982 -0.714726 0
M  V30 7036 H 681.996 -0.234097 -1.88552 0
M  V30 7037 H 680.146 1.62476 -3.52894 0
M  V30 7038 H 681.818 -0.778269 -4.54687 0
M  V30 7039 H 680.061 -0.80019 -4.26356 0
M  V30 7040 H 680.732 0.250947 -5.51429 0
M  V30 7041 H 683.208 1.35416 -3.93449 0
M  V30 7042 H 682.084 2.20043 -5.02864 0
M  V30 7043 H 682.345 2.81916 -3.40552 0
M  V30 7044 N 681.404 1.57128 0.121893 0
M  V30 7045 C 682.653 1.83888 0.828748 0
M  V30 7046 C 682.966 0.737087 1.81181 0
M  V30 7047 O 684.172 0.891007 2.56463 0
M  V30 7048 C 682.628 3.26014 1.52455 0
M  V30 7049 C 682.236 4.44195 0.58263 0
M  V30 7050 C 683.98 3.62025 2.21671 0
M  V30 7051 C 681.887 5.77349 1.28149 0
M  V30 7052 H 680.817 0.685856 0.313238 0
M  V30 7053 H 683.468 1.83319 0.0814851 0
M  V30 7054 H 681.85 3.21044 2.31834 0
M  V30 7055 H 683.024 4.60457 -0.177729 0
M  V30 7056 H 681.339 4.164 -0.00241228 0
M  V30 7057 H 683.936 4.58776 2.74643 0
M  V30 7058 H 684.279 2.89315 2.99337 0
M  V30 7059 H 684.812 3.68767 1.49184 0
M  V30 7060 H 681.551 6.53221 0.546189 0
M  V30 7061 H 681.071 5.64978 2.01394 0
M  V30 7062 H 682.75 6.21006 1.81549 0
M  V30 7063 N 682.882 -0.391992 1.52647 0
M  V30 7064 C 683.792 -1.503 1.80131 0
M  V30 7065 C 684.808 -1.59825 0.687882 0
M  V30 7066 O 685.984 -1.76218 0.975149 0
M  V30 7067 C 683.049 -2.85863 1.96171 0
M  V30 7068 C 682.11 -2.86084 3.20085 0
M  V30 7069 C 681.343 -4.15181 3.35351 0
M  V30 7070 O 681.566 -5.09981 2.55491 0
M  V30 7071 O 680.5 -4.22603 4.28591 0
M  V30 7072 H 684.326 -1.30007 2.74466 0
M  V30 7073 H 681.911 -0.579539 1.37701 0
M  V30 7074 H 683.793 -3.66236 2.08445 0
M  V30 7075 H 682.468 -3.06189 1.05025 0
M  V30 7076 H 681.375 -2.04504 3.13256 0
M  V30 7077 H 682.708 -2.7071 4.11068 0
M  V30 7078 N 684.36 -1.4356 -0.65026 0
M  V30 7079 C 685.588 -1.48779 -1.43779 0
M  V30 7080 C 686.003 -0.106593 -1.88499 0
M  V30 7081 O 685.36 0.883766 -1.59674 0
M  V30 7082 C 685.411 -2.43618 -2.67081 0
M  V30 7083 O 685.132 -3.76367 -2.24231 0
M  V30 7084 C 686.633 -2.5811 -3.60409 0
M  V30 7085 H 683.853 -0.50521 -0.441593 0
M  V30 7086 H 686.397 -1.88332 -0.796941 0
M  V30 7087 H 684.552 -2.07253 -3.273 0
M  V30 7088 H 684.966 -4.27394 -3.0403 0
M  V30 7089 H 686.44 -3.28539 -4.43583 0
M  V30 7090 H 686.917 -1.627 -4.07953 0
M  V30 7091 H 687.523 -2.95298 -3.0607 0
M  V30 7092 N 685.838 0.888903 -1.30139 0
M  V30 7093 C 687.066 1.67358 -1.21651 0
M  V30 7094 C 687.481 1.87499 0.221246 0
M  V30 7095 O 686.838 1.41969 1.14677 0
M  V30 7096 C 686.889 3.05213 -1.93719 0
M  V30 7097 O 686.61 2.85984 -3.31881 0
M  V30 7098 C 688.111 3.9964 -1.9184 0
M  V30 7099 H 685.331 0.522365 -0.42116 0
M  V30 7100 H 687.875 1.11086 -1.71698 0
M  V30 7101 H 686.03 3.5823 -1.4748 0
M  V30 7102 H 686.444 3.73411 -3.68327 0
M  V30 7103 H 687.918 4.93749 -2.46811 0
M  V30 7104 H 688.395 4.29955 -0.896409 0
M  V30 7105 H 689.001 3.52558 -2.37872 0
M  V30 7106 N 687.317 1.12792 1.10072 0
M  V30 7107 C 688.227 0.812369 2.20086 0
M  V30 7108 C 689.243 -0.200349 1.72843 0
M  V30 7109 O 690.419 -0.0330262 2.01373 0
M  V30 7110 C 687.484 0.275685 3.45602 0
M  V30 7111 C 686.545 1.34881 4.07561 0
M  V30 7112 C 685.778 0.837639 5.27086 0
M  V30 7113 O 686.001 -0.327224 5.69461 0
M  V30 7114 O 684.935 1.60894 5.79997 0
M  V30 7115 H 688.761 1.73133 2.49517 0
M  V30 7116 H 686.346 0.904863 1.18881 0
M  V30 7117 H 688.228 -0.0185375 4.21396 0
M  V30 7118 H 686.903 -0.615783 3.17789 0
M  V30 7119 H 685.81 1.69625 3.33434 0
M  V30 7120 H 687.143 2.21418 4.39585 0
M  V30 7121 N 688.795 -1.27931 0.920396 0
M  V30 7122 C 689.727 -2.26175 0.371169 0
M  V30 7123 C 690.74 -1.55122 -0.494065 0
M  V30 7124 O 691.929 -1.75825 -0.30787 0
M  V30 7125 C 689.029 -3.35376 -0.487481 0
M  V30 7126 C 688.202 -4.35943 0.356772 0
M  V30 7127 C 687.261 -5.24374 -0.438042 0
M  V30 7128 O 686.287 -5.68998 0.151715 0
M  V30 7129 N 687.489 -5.53823 -1.73956 0
M  V30 7130 H 690.254 -2.73938 1.21564 0
M  V30 7131 H 687.815 -1.41482 0.787047 0
M  V30 7132 H 689.807 -3.91476 -1.02609 0
M  V30 7133 H 688.377 -2.87269 -1.23269 0
M  V30 7134 H 687.597 -3.7921 1.07672 0
M  V30 7135 H 688.885 -5.0015 0.934206 0
M  V30 7136 H 688.283 -5.19413 -2.24114 0
M  V30 7137 H 686.84 -6.12653 -2.22486 0
M  V30 7138 N 690.273 -0.685099 -1.4193 0
M  V30 7139 C 691.55 -0.140152 -1.95097 0
M  V30 7140 C 691.93 1.34745 -1.62502 0
M  V30 7141 O 691.278 2.08872 -0.926534 0
M  V30 7142 C 691.488 -0.420268 -3.4646 0
M  V30 7143 C 692.836 -0.342338 -4.23218 0
M  V30 7144 O 693.86 -0.354592 -3.54431 0
M  V30 7145 O 692.719 -0.293404 -5.45712 0
M  V30 7146 H 689.813 -0.00885998 -0.826953 0
M  V30 7147 H 692.359 -0.760539 -1.51703 0
M  V30 7148 H 691.131 -1.45037 -3.63428 0
M  V30 7149 H 690.754 0.231616 -3.96925 0
M  V30 7150 N 691.751 1.51645 -0.429126 0
M  V30 7151 C 692.683 2.25279 0.422124 0
M  V30 7152 C 693.696 1.28986 0.993299 0
M  V30 7153 O 694.885 1.54797 0.888836 0
M  V30 7154 C 691.985 2.98666 1.60162 0
M  V30 7155 C 691.158 4.2199 1.15078 0
M  V30 7156 C 690.217 4.78028 2.19946 0
M  V30 7157 O 689.243 5.40084 1.79716 0
M  V30 7158 N 690.445 4.61342 3.5234 0
M  V30 7159 H 693.21 2.98971 -0.208931 0
M  V30 7160 H 690.771 1.59838 -0.257568 0
M  V30 7161 H 692.763 3.33044 2.29922 0
M  V30 7162 H 691.333 2.28036 2.13818 0
M  V30 7163 H 690.553 3.932 0.280552 0
M  V30 7164 H 691.841 5.02037 0.826831 0
M  V30 7165 H 691.239 4.11894 3.87763 0
M  V30 7166 H 689.796 5.00104 4.18019 0
M  V30 7167 N 693.229 0.160201 1.56784 0
M  V30 7168 C 694.139 -0.787167 2.21 0
M  V30 7169 C 695.155 -1.26167 1.19825 0
M  V30 7170 O 696.331 -1.31611 1.52448 0
M  V30 7171 C 693.396 -2.00364 2.8294 0
M  V30 7172 C 692.457 -1.5771 3.99282 0
M  V30 7173 C 691.69 -2.73558 4.58259 0
M  V30 7174 O 691.913 -3.90129 4.16119 0
M  V30 7175 O 690.847 -2.48271 5.48311 0
M  V30 7176 H 694.673 -0.270462 3.02493 0
M  V30 7177 H 692.258 -0.0674666 1.49248 0
M  V30 7178 H 694.14 -2.71529 3.22257 0
M  V30 7179 H 692.815 -2.50961 2.04451 0
M  V30 7180 H 691.722 -0.835274 3.64656 0
M  V30 7181 H 693.055 -1.11815 4.79331 0
M  V30 7182 N 694.707 -1.5719 -0.113559 0
M  V30 7183 C 696.118 -1.74259 -0.670116 0
M  V30 7184 C 696.469 -0.779694 -1.80042 0
M  V30 7185 O 695.594 0.0461353 -2.16351 0
M  V30 7186 C 696.189 -3.15981 -1.22236 0
M  V30 7187 C 694.748 -3.34537 -1.72516 0
M  V30 7188 C 693.895 -2.70116 -0.627098 0
M  V30 7189 H 696.846 -1.58301 0.112396 0
M  V30 7190 H 696.867 -3.17832 -2.09197 0
M  V30 7191 H 696.379 -3.86038 -0.39949 0
M  V30 7192 H 694.48 -2.6953 -2.57263 0
M  V30 7193 H 694.593 -4.42737 -1.83086 0
M  V30 7194 H 692.957 -2.31501 -1.06204 0
M  V30 7195 H 693.74 -3.42802 0.184889 0
M  V30 7196 N 696.185 0.383891 -1.52853 0
M  V30 7197 C 697.41 1.154 -1.7233 0
M  V30 7198 C 697.835 1.82809 -0.44298 0
M  V30 7199 O 697.193 1.71026 0.601645 0
M  V30 7200 C 697.241 2.17386 -2.87708 0
M  V30 7201 O 696.345 3.24082 -2.55038 0
M  V30 7202 H 695.686 0.335709 -0.572883 0
M  V30 7203 H 698.216 0.44662 -1.99666 0
M  V30 7204 H 698.226 2.61296 -3.1335 0
M  V30 7205 H 696.901 1.6771 -3.80587 0
M  V30 7206 H 695.478 2.85273 -2.40153 0
M  V30 7207 N 697.663 1.43903 0.642637 0
M  V30 7208 C 698.573 1.52349 1.78401 0
M  V30 7209 C 699.589 0.409869 1.69104 0
M  V30 7210 O 700.765 0.665548 1.90085 0
M  V30 7211 C 697.83 1.45408 3.14734 0
M  V30 7212 C 696.891 2.67528 3.35749 0
M  V30 7213 C 696.124 2.60909 4.65577 0
M  V30 7214 O 696.347 1.6627 5.45628 0
M  V30 7215 O 695.281 3.5158 4.88544 0
M  V30 7216 H 699.107 2.48752 1.7423 0
M  V30 7217 H 696.692 1.26021 0.802439 0
M  V30 7218 H 698.574 1.44019 3.96026 0
M  V30 7219 H 697.249 0.521437 3.19473 0
M  V30 7220 H 696.156 2.74487 2.5418 0
M  V30 7221 H 697.489 3.598 3.35864 0
M  V30 7222 N 699.141 -0.881989 1.30609 0
M  V30 7223 C 700.104 -1.96957 1.1722 0
M  V30 7224 C 701.104 -1.60472 0.102598 0
M  V30 7225 O 702.294 -1.70628 0.350943 0
M  V30 7226 C 699.426 -3.31463 0.796572 0
M  V30 7227 H 700.619 -2.10262 2.13846 0
M  V30 7228 H 698.172 -1.06877 1.14048 0
M  V30 7229 H 698.907 -3.23859 -0.169053 0
M  V30 7230 H 698.692 -3.59314 1.56959 0
M  V30 7231 H 700.182 -4.11233 0.72645 0
M  V30 7232 N 700.619 -1.13374 -1.09472 0
M  V30 7233 C 701.847 -0.918351 -1.85402 0
M  V30 7234 C 702.262 0.53281 -1.81126 0
M  V30 7235 O 701.619 1.36879 -1.20708 0
M  V30 7236 C 701.67 -1.39743 -3.33398 0
M  V30 7237 O 701.391 -2.79172 -3.37631 0
M  V30 7238 C 702.892 -1.22042 -4.2617 0
M  V30 7239 H 700.112 -0.327511 -0.585643 0
M  V30 7240 H 702.656 -1.50617 -1.38328 0
M  V30 7241 H 700.811 -0.852619 -3.77901 0
M  V30 7242 H 701.225 -3.00428 -4.29934 0
M  V30 7243 H 702.699 -1.60438 -5.2817 0
M  V30 7244 H 703.176 -0.162047 -4.38901 0
M  V30 7245 H 703.782 -1.75323 -3.87482 0
M  V30 7246 N 702.098 1.27442 -0.927168 0
M  V30 7247 C 703.344 1.94679 -0.568164 0
M  V30 7248 C 703.677 1.72697 0.888219 0
M  V30 7249 O 702.952 1.05573 1.63354 0
M  V30 7250 C 703.235 3.4882 -0.894253 0
M  V30 7251 C 703.088 3.80146 -2.40435 0
M  V30 7252 C 704.407 4.38281 -0.399766 0
M  V30 7253 H 701.526 0.707071 -0.207892 0
M  V30 7254 H 704.168 1.50568 -1.15885 0
M  V30 7255 H 702.318 3.86522 -0.391566 0
M  V30 7256 H 703.99 3.52238 -2.97869 0
M  V30 7257 H 702.233 3.26716 -2.85375 0
M  V30 7258 H 702.904 4.87835 -2.58304 0
M  V30 7259 H 705.38 4.07726 -0.83058 0
M  V30 7260 H 704.256 5.44955 -0.656885 0
M  V30 7261 H 704.517 4.36521 0.700153 0
M  V30 7262 N 703.576 0.692616 1.41565 0
M  V30 7263 C 704.824 0.221896 2.00878 0
M  V30 7264 C 705.145 -1.18164 1.5512 0
M  V30 7265 O 704.415 -1.79679 0.78054 0
M  V30 7266 H 702.995 0.0790463 0.742806 0
M  V30 7267 H 705.657 0.893115 1.73232 0
M  V30 7268 H 704.753 0.23702 3.11199 0
M  V30 7269 N 705.054 -1.51416 0.437162 0
M  V30 7270 C 706.002 -2.29328 -0.388765 0
M  V30 7271 C 706.996 -1.35171 -1.02104 0
M  V30 7272 O 708.202 -1.52513 -0.956024 0
M  V30 7273 H 704.577 -0.738048 -0.144183 0
M  V30 7274 H 706.548 -2.96995 0.289212 0
M  V30 7275 C 705.297 -3.14741 -1.47761 0
M  V30 7276 H 704.62 -3.8708 -1.00045 0
M  V30 7277 H 706.06 -3.72313 -2.02877 0
M  V30 7278 C 704.519 -2.30105 -2.46076 0
M  V30 7279 O 705.049 -1.96055 -3.50607 0
M  V30 7280 N 703.255 -1.93331 -2.1696 0
M  V30 7281 H 702.802 -2.2122 -1.31983 0
M  V30 7282 H 702.76 -1.36999 -2.82982 0
M  V30 7283 N 706.532 -0.168513 -1.56696 0
M  V30 7284 C 707.78 0.476216 -1.96409 0
M  V30 7285 C 708.101 1.63968 -1.05544 0
M  V30 7286 O 707.371 1.95525 -0.121235 0
M  V30 7287 H 705.951 0.178921 -0.725256 0
M  V30 7288 H 708.613 -0.249042 -1.93302 0
M  V30 7289 H 707.709 0.838094 -3.00637 0
M  V30 7290 N 708.01 1.57248 0.105221 0
M  V30 7291 C 708.92 2.04653 1.14693 0
M  V30 7292 C 709.936 0.969488 1.44489 0
M  V30 7293 O 711.112 1.28196 1.55331 0
M  V30 7294 C 708.177 2.45297 2.45011 0
M  V30 7295 C 707.238 3.67148 2.22489 0
M  V30 7296 C 706.471 4.05844 3.46592 0
M  V30 7297 O 706.694 3.44736 4.54437 0
M  V30 7298 O 705.628 4.98862 3.36779 0
M  V30 7299 H 709.454 2.93663 0.774336 0
M  V30 7300 H 707.039 1.45998 0.31701 0
M  V30 7301 H 708.921 2.72112 3.21766 0
M  V30 7302 H 707.596 1.59429 2.81717 0
M  V30 7303 H 706.503 3.45463 1.43547 0
M  V30 7304 H 707.836 4.53764 1.9068 0
M  V30 7305 N 709.488 -0.375779 1.53054 0
M  V30 7306 C 710.734 -1.12114 1.68992 0
M  V30 7307 C 711.067 -1.8926 0.435238 0
M  V30 7308 O 710.342 -1.86044 -0.567278 0
M  V30 7309 C 710.625 -2.08867 2.93337 0
M  V30 7310 C 710.478 -1.35397 4.28938 0
M  V30 7311 C 711.797 -3.09124 3.13257 0
M  V30 7312 H 708.916 -0.406207 0.614951 0
M  V30 7313 H 711.558 -0.403054 1.85676 0
M  V30 7314 H 709.708 -2.70102 2.79244 0
M  V30 7315 H 711.38 -0.770242 4.54824 0
M  V30 7316 H 709.623 -0.655801 4.28814 0
M  V30 7317 H 710.294 -2.06161 5.12056 0
M  V30 7318 H 712.77 -2.57987 3.26469 0
M  V30 7319 H 711.646 -3.74054 4.01715 0
M  V30 7320 H 711.907 -3.78729 2.28072 0
M  V30 7321 N 710.966 -1.44241 -0.634997 0
M  V30 7322 C 712.194 -1.50296 -1.42193 0
M  V30 7323 C 712.609 -0.12658 -1.88375 0
M  V30 7324 O 711.966 0.86678 -1.60603 0
M  V30 7325 C 712.017 -2.46437 -2.64482 0
M  V30 7326 O 711.738 -3.78724 -2.20226 0
M  V30 7327 C 713.239 -2.61918 -3.57651 0
M  V30 7328 H 710.459 -0.509865 -0.43621 0
M  V30 7329 H 713.003 -1.89167 -0.776921 0
M  V30 7330 H 711.158 -2.10712 -3.25083 0
M  V30 7331 H 711.572 -4.30595 -2.9948 0
M  V30 7332 H 713.046 -3.33225 -4.40074 0
M  V30 7333 H 713.523 -1.67017 -4.06204 0
M  V30 7334 H 714.129 -2.98528 -3.02921 0
M  V30 7335 N 712.444 0.87505 -1.31075 0
M  V30 7336 C 713.374 1.99775 -1.20881 0
M  V30 7337 C 714.355 1.69822 -0.0971612 0
M  V30 7338 O 715.54 1.92158 -0.280895 0
M  V30 7339 C 712.67 3.35163 -0.910118 0
M  V30 7340 C 711.624 3.79406 -1.98078 0
M  V30 7341 C 710.95 5.12197 -1.53488 0
M  V30 7342 C 712.25 3.97061 -3.39323 0
M  V30 7343 H 713.944 2.08562 -2.14808 0
M  V30 7344 H 711.49 1.00207 -1.03415 0
M  V30 7345 H 713.443 4.13237 -0.825423 0
M  V30 7346 H 712.167 3.26536 0.064822 0
M  V30 7347 H 710.826 3.03568 -2.05528 0
M  V30 7348 H 710.474 5.00007 -0.547941 0
M  V30 7349 H 710.174 5.4277 -2.2511 0
M  V30 7350 H 711.698 5.92785 -1.46417 0
M  V30 7351 H 713.112 4.65545 -3.34576 0
M  V30 7352 H 711.509 4.39025 -4.09118 0
M  V30 7353 H 712.579 3.00601 -3.80483 0
M  V30 7354 N 713.922 1.13953 1.08869 0
M  V30 7355 C 715.15 0.92817 1.84912 0
M  V30 7356 C 715.565 -0.523197 1.81406 0
M  V30 7357 O 714.922 -1.36237 1.21432 0
M  V30 7358 C 714.973 1.41509 3.32652 0
M  V30 7359 O 714.694 2.80959 3.36145 0
M  V30 7360 C 716.195 1.243 4.25517 0
M  V30 7361 H 713.415 0.330612 0.583898 0
M  V30 7362 H 715.959 1.51349 1.37527 0
M  V30 7363 H 714.114 0.872648 3.77444 0
M  V30 7364 H 714.528 3.02704 4.28335 0
M  V30 7365 H 716.002 1.63237 5.27312 0
M  V30 7366 H 716.479 0.18532 4.38809 0
M  V30 7367 H 717.085 1.77375 3.86546 0
M  V30 7368 N 715.4 -1.26948 0.933913 0
M  V30 7369 C 716.63 -1.97898 0.593279 0
M  V30 7370 C 717.038 -1.69806 -0.834412 0
M  V30 7371 O 716.381 -0.958704 -1.56699 0
M  V30 7372 C 716.443 -3.51657 0.746825 0
M  V30 7373 C 716.107 -4.03384 2.14779 0
M  V30 7374 C 717.104 -4.15682 3.12257 0
M  V30 7375 C 714.789 -4.37577 2.46641 0
M  V30 7376 C 716.783 -4.61455 4.39702 0
M  V30 7377 C 714.47 -4.8304 3.7432 0
M  V30 7378 C 715.468 -4.94939 4.70664 0
M  V30 7379 O 715.156 -5.39403 5.96071 0
M  V30 7380 H 714.888 -0.63814 0.223055 0
M  V30 7381 H 717.442 -1.62608 1.2549 0
M  V30 7382 H 715.672 -3.8669 0.0280889 0
M  V30 7383 H 717.361 -4.03821 0.410328 0
M  V30 7384 H 718.127 -3.89519 2.88964 0
M  V30 7385 H 714.006 -4.27554 1.72391 0
M  V30 7386 H 717.55 -4.70658 5.14905 0
M  V30 7387 H 713.447 -5.08646 3.97429 0
M  V30 7388 H 714.215 -5.57641 5.99148 0
M  V30 7389 N 716.879 -0.700114 -1.41195 0
M  V30 7390 C 717.842 -0.0465706 -2.29153 0
M  V30 7391 C 718.842 0.703302 -1.44604 0
M  V30 7392 O 720.032 0.537513 -1.657 0
M  V30 7393 C 717.164 0.944324 -3.2756 0
M  V30 7394 H 718.357 -0.821064 -2.88442 0
M  V30 7395 H 715.91 -0.463869 -1.49258 0
M  V30 7396 H 716.645 1.74642 -2.73259 0
M  V30 7397 H 716.43 0.409701 -3.89954 0
M  V30 7398 H 717.92 1.39925 -3.9346 0
M  V30 7399 N 718.357 1.51182 -0.445186 0
M  V30 7400 C 719.585 2.06568 0.117091 0
M  V30 7401 C 720 1.31182 1.35781 0
M  V30 7402 O 719.357 0.373605 1.78635 0
M  V30 7403 C 719.408 3.58917 0.431408 0
M  V30 7404 O 719.129 4.31456 -0.760078 0
M  V30 7405 C 720.63 4.30843 1.0435 0
M  V30 7406 H 717.85 0.670985 0.00444436 0
M  V30 7407 H 720.394 1.94666 -0.626525 0
M  V30 7408 H 718.549 3.70708 1.12493 0
M  V30 7409 H 718.963 5.22215 -0.489048 0
M  V30 7410 H 720.437 5.38499 1.21337 0
M  V30 7411 H 720.914 3.89644 2.02667 0
M  V30 7412 H 721.52 4.23516 0.38913 0
M  V30 7413 N 719.835 0.176821 1.56605 0
M  V30 7414 C 721.083 -0.465793 1.96659 0
M  V30 7415 C 721.404 -1.63406 1.06412 0
M  V30 7416 O 720.674 -1.95457 0.131603 0
M  V30 7417 H 719.254 -0.175072 0.726195 0
M  V30 7418 H 721.916 0.25929 1.93168 0
M  V30 7419 H 721.012 -0.822138 3.01077 0
M  V30 7420 N 721.313 -1.57302 -0.09688 0
M  V30 7421 C 722.541 -1.90202 -0.814295 0
M  V30 7422 C 722.956 -0.770344 -1.72369 0
M  V30 7423 O 722.313 0.257764 -1.8067 0
M  V30 7424 C 722.364 -3.22708 -1.62916 0
M  V30 7425 O 722.085 -4.31522 -0.756343 0
M  V30 7426 C 723.586 -3.69459 -2.44979 0
M  V30 7427 H 720.806 -0.629275 -0.232925 0
M  V30 7428 H 723.35 -2.04364 -0.0746482 0
M  V30 7429 H 721.505 -3.1015 -2.32133 0
M  V30 7430 H 721.919 -5.07604 -1.32054 0
M  V30 7431 H 723.393 -4.64875 -2.9765 0
M  V30 7432 H 723.87 -2.97211 -3.23361 0
M  V30 7433 H 724.476 -3.84879 -1.80964 0
M  V30 7434 N 722.791 0.367657 -1.53252 0
M  V30 7435 C 723.738 1.45028 -1.79543 0
M  V30 7436 C 724.708 1.53288 -0.63969 0
M  V30 7437 O 725.893 1.69209 -0.881653 0
M  V30 7438 C 723.033 2.82 -1.98923 0
M  V30 7439 C 722.146 2.82722 -3.26638 0
M  V30 7440 C 721.281 4.11257 -3.36216 0
M  V30 7441 C 720.32 4.06113 -4.57972 0
M  V30 7442 N 719.457 5.26293 -4.64715 0
M  V30 7443 H 724.297 1.21908 -2.71923 0
M  V30 7444 H 721.834 0.591011 -1.34705 0
M  V30 7445 H 723.792 3.61568 -2.08146 0
M  V30 7446 H 722.422 3.03523 -1.09881 0
M  V30 7447 H 721.474 1.95399 -3.26379 0
M  V30 7448 H 722.786 2.74794 -4.16281 0
M  V30 7449 H 721.94 4.99239 -3.44739 0
M  V30 7450 H 720.679 4.21935 -2.44586 0
M  V30 7451 H 719.684 3.16517 -4.49552 0
M  V30 7452 H 720.909 3.97039 -5.50942 0
M  V30 7453 H 718.855 5.37561 -3.75985 0
M  V30 7454 H 718.772 5.20526 -5.4826 0
M  V30 7455 H 720.04 6.16113 -4.77519 0
M  V30 7456 N 724.269 1.44576 0.627338 0
M  V30 7457 C 725.179 1.54232 1.76776 0
M  V30 7458 C 726.195 0.427782 1.6866 0
M  V30 7459 O 727.371 0.685671 1.89369 0
M  V30 7460 C 724.436 1.48738 3.13174 0
M  V30 7461 C 723.497 2.71074 3.32893 0
M  V30 7462 C 722.73 2.65832 4.62784 0
M  V30 7463 O 722.953 1.72048 5.43834 0
M  V30 7464 O 721.887 3.56742 4.84787 0
M  V30 7465 H 725.713 2.50586 1.71582 0
M  V30 7466 H 723.298 1.26865 0.789028 0
M  V30 7467 H 725.18 1.48211 3.94476 0
M  V30 7468 H 723.855 0.555292 3.18902 0
M  V30 7469 H 722.762 2.77168 2.51254 0
M  V30 7470 H 724.095 3.63342 3.32029 0
M  V30 7471 N 725.747 -0.868086 1.31537 0
M  V30 7472 C 726.657 -2.00801 1.21311 0
M  V30 7473 C 727.673 -1.73518 0.129431 0
M  V30 7474 O 728.849 -1.98378 0.347588 0
M  V30 7475 C 725.914 -3.3419 0.922935 0
M  V30 7476 C 724.975 -3.74783 2.0937 0
M  V30 7477 C 724.208 -5.01807 1.81728 0
M  V30 7478 O 724.431 -5.65404 0.753313 0
M  V30 7479 O 723.365 -5.39213 2.67457 0
M  V30 7480 H 727.191 -2.12361 2.17109 0
M  V30 7481 H 724.776 -0.996684 1.11295 0
M  V30 7482 H 726.658 -4.14174 0.777033 0
M  V30 7483 H 725.333 -3.237 -0.00500301 0
M  V30 7484 H 724.24 -2.95432 2.29501 0
M  V30 7485 H 725.573 -3.89902 3.00396 0
M  V30 7486 N 727.225 -1.14528 -1.08264 0
M  V30 7487 C 728.45 -0.938381 -1.84957 0
M  V30 7488 C 728.875 0.508044 -1.81109 0
M  V30 7489 O 728.233 1.36146 -1.19724 0
M  V30 7490 C 728.281 -1.44568 -3.30352 0
M  V30 7491 O 727.385 -0.638745 -4.07423 0
M  V30 7492 H 726.726 -0.335394 -0.573068 0
M  V30 7493 H 729.256 -1.52287 -1.36637 0
M  V30 7494 H 729.266 -1.45449 -3.81194 0
M  V30 7495 H 727.941 -2.49876 -3.32468 0
M  V30 7496 H 726.518 -0.698801 -3.66294 0
M  V30 7497 N 728.703 1.26451 -0.940633 0
M  V30 7498 C 729.666 2.24651 -0.454378 0
M  V30 7499 C 730.666 1.54826 0.434222 0
M  V30 7500 O 731.856 1.72628 0.233477 0
M  V30 7501 C 728.988 3.39148 0.345192 0
M  V30 7502 H 730.181 2.69182 -1.32217 0
M  V30 7503 H 727.734 1.38596 -0.722547 0
M  V30 7504 H 728.469 3.00018 1.23125 0
M  V30 7505 H 728.254 3.9101 -0.292107 0
M  V30 7506 H 729.744 4.12103 0.675341 0
M  V30 7507 N 730.181 0.707592 1.40822 0
M  V30 7508 C 731.429 0.243189 2.00632 0
M  V30 7509 C 731.75 -1.16512 1.56365 0
M  V30 7510 O 731.02 -1.78841 0.799553 0
M  V30 7511 H 729.6 0.0869203 0.741926 0
M  V30 7512 H 732.262 0.911438 1.72275 0
M  V30 7513 H 731.358 0.270014 3.1093 0
M  V30 7514 N 731.66 -1.50943 0.453197 0
M  V30 7515 C 732.906 -2.02512 -0.108082 0
M  V30 7516 C 733.239 -1.33574 -1.40967 0
M  V30 7517 O 732.514 -0.455671 -1.89087 0
M  V30 7518 C 732.797 -3.58759 -0.310453 0
M  V30 7519 C 732.65 -4.38293 1.0109 0
M  V30 7520 C 733.969 -4.26816 -1.07313 0
M  V30 7521 H 731.088 -0.73603 -0.0378064 0
M  V30 7522 H 733.73 -1.80433 0.595295 0
M  V30 7523 H 731.88 -3.77702 -0.909582 0
M  V30 7524 H 733.552 -4.30964 1.64523 0
M  V30 7525 H 731.795 -4.02745 1.61179 0
M  V30 7526 H 732.466 -5.45828 0.82315 0
M  V30 7527 H 734.942 -4.1224 -0.565473 0
M  V30 7528 H 733.818 -5.35989 -1.1835 0
M  V30 7529 H 734.079 -3.88757 -2.10525 0
M  V30 7530 N 733.138 -0.185124 -1.56509 0
M  V30 7531 C 734.07 0.771401 -2.15829 0
M  V30 7532 C 735.083 1.18392 -1.11747 0
M  V30 7533 O 736.272 1.12137 -1.38879 0
M  V30 7534 C 733.372 2.05169 -2.69739 0
M  V30 7535 C 732.545 1.80056 -3.98621 0
M  V30 7536 C 731.604 2.92435 -4.37456 0
M  V30 7537 O 730.63 2.62473 -5.05071 0
M  V30 7538 N 731.832 4.20554 -4.00143 0
M  V30 7539 H 734.597 0.264184 -2.98533 0
M  V30 7540 H 732.158 -0.00281069 -1.619 0
M  V30 7541 H 734.15 2.7947 -2.92709 0
M  V30 7542 H 732.72 2.47041 -1.91545 0
M  V30 7543 H 731.94 0.895862 -3.83885 0
M  V30 7544 H 733.228 1.60662 -4.82768 0
M  V30 7545 H 732.626 4.47753 -3.45736 0
M  V30 7546 H 731.183 4.91514 -4.28085 0
M  V30 7547 N 734.616 1.57351 0.0885366 0
M  V30 7548 C 735.893 1.77449 0.822873 0
M  V30 7549 C 736.273 0.768463 1.96616 0
M  V30 7550 O 735.621 -0.201757 2.27608 0
M  V30 7551 C 735.831 3.23425 1.31137 0
M  V30 7552 C 737.179 3.86791 1.75152 0
M  V30 7553 O 738.203 3.27215 1.40745 0
M  V30 7554 O 737.062 4.91568 2.38794 0
M  V30 7555 H 734.156 0.727653 0.393002 0
M  V30 7556 H 736.702 1.69556 0.0699095 0
M  V30 7557 H 735.474 3.88188 0.49254 0
M  V30 7558 H 735.097 3.35977 2.12615 0
M  V30 7559 N 736.094 -0.359525 1.53444 0
M  V30 7560 C 737.042 -1.46104 1.80987 0
M  V30 7561 C 738.036 -1.55181 0.679351 0
M  V30 7562 O 739.242 -1.57995 0.862405 0
M  V30 7563 H 735.617 -0.486835 0.573145 0
M  V30 7564 H 737.588 -1.2008 2.73173 0
M  V30 7565 C 736.337 -2.82855 2.02208 0
M  V30 7566 H 735.66 -2.76631 2.88644 0
M  V30 7567 H 737.1 -3.59091 2.25455 0
M  V30 7568 C 735.559 -3.27192 0.802931 0
M  V30 7569 O 736.089 -4.017 -0.00544286 0
M  V30 7570 N 734.295 -2.83807 0.624657 0
M  V30 7571 H 733.842 -2.23339 1.28364 0
M  V30 7572 H 733.8 -3.13828 -0.189641 0
M  V30 7573 N 737.572 -1.44907 -0.619662 0
M  V30 7574 C 738.502 -1.55488 -1.742 0
M  V30 7575 C 739.483 -0.407143 -1.65156 0
M  V30 7576 O 740.668 -0.628743 -1.8374 0
M  V30 7577 C 737.798 -1.5097 -3.1277 0
M  V30 7578 C 736.752 -2.64337 -3.36615 0
M  V30 7579 C 736.078 -2.44872 -4.75333 0
M  V30 7580 C 737.378 -4.06423 -3.28051 0
M  V30 7581 H 739.072 -2.49432 -1.65602 0
M  V30 7582 H 736.618 -1.20047 -0.795281 0
M  V30 7583 H 738.571 -1.56971 -3.91073 0
M  V30 7584 H 737.295 -0.535486 -3.2218 0
M  V30 7585 H 735.954 -2.57744 -2.60698 0
M  V30 7586 H 735.602 -1.45617 -4.81461 0
M  V30 7587 H 735.302 -3.20888 -4.92244 0
M  V30 7588 H 736.826 -2.52709 -5.55851 0
M  V30 7589 H 738.24 -4.14324 -3.96243 0
M  V30 7590 H 736.637 -4.82733 -3.56495 0
M  V30 7591 H 737.707 -4.29183 -2.25676 0
M  V30 7592 N 739.05 0.861098 -1.31996 0
M  V30 7593 C 740.297 1.61481 -1.22188 0
M  V30 7594 C 740.625 1.93276 0.217853 0
M  V30 7595 O 739.88 1.56942 1.16909 0
M  V30 7596 C 740.179 2.94822 -2.02027 0
M  V30 7597 C 739.845 2.82483 -3.51446 0
M  V30 7598 C 738.507 2.78825 -3.92186 0
M  V30 7599 C 740.859 2.68878 -4.46491 0
M  V30 7600 C 738.187 2.59433 -5.26224 0
M  V30 7601 C 740.539 2.51022 -5.80664 0
M  V30 7602 C 739.203 2.45753 -6.20614 0
M  V30 7603 H 738.473 0.590902 -0.447119 0
M  V30 7604 H 741.12 0.999376 -1.63355 0
M  V30 7605 H 739.425 3.6045 -1.53569 0
M  V30 7606 H 741.122 3.52149 -1.91812 0
M  V30 7607 H 737.712 2.86152 -3.19085 0
M  V30 7608 H 741.896 2.70754 -4.1594 0
M  V30 7609 H 737.152 2.53784 -5.5624 0
M  V30 7610 H 741.326 2.39473 -6.53931 0
M  V30 7611 H 738.953 2.30485 -7.24417 0
M  V30 7612 N 740.528 1.15101 1.07655 0
M  V30 7613 C 741.458 0.867864 2.16773 0
M  V30 7614 C 742.439 -0.180283 1.69142 0
M  V30 7615 O 743.624 -0.0353152 1.94168 0
M  V30 7616 C 740.754 0.35299 3.45501 0
M  V30 7617 C 739.708 1.33746 4.06566 0
M  V30 7618 C 739.034 0.681562 5.30338 0
M  V30 7619 C 740.334 2.7024 4.46954 0
M  V30 7620 H 742.028 1.78034 2.40716 0
M  V30 7621 H 739.574 0.857435 1.15689 0
M  V30 7622 H 741.527 0.142465 4.21159 0
M  V30 7623 H 740.251 -0.594945 3.21135 0
M  V30 7624 H 738.91 1.53429 3.32949 0
M  V30 7625 H 738.558 -0.272422 5.02262 0
M  V30 7626 H 738.258 1.33853 5.72151 0
M  V30 7627 H 739.782 0.48074 6.08705 0
M  V30 7628 H 741.196 2.5442 5.13754 0
M  V30 7629 H 739.593 3.32282 4.99709 0
M  V30 7630 H 740.663 3.26537 3.58471 0
M  V30 7631 N 742.006 -1.2595 0.947325 0
M  V30 7632 C 742.916 -2.29883 0.468079 0
M  V30 7633 C 743.932 -1.67783 -0.460975 0
M  V30 7634 O 745.108 -1.98526 -0.339006 0
M  V30 7635 C 742.173 -3.45773 -0.253315 0
M  V30 7636 C 741.234 -4.23337 0.713054 0
M  V30 7637 C 740.467 -5.33694 0.025993 0
M  V30 7638 O 740.69 -5.57853 -1.18978 0
M  V30 7639 O 739.624 -5.97724 0.70782 0
M  V30 7640 H 743.45 -2.72952 1.33156 0
M  V30 7641 H 741.035 -1.31263 0.713468 0
M  V30 7642 H 742.917 -4.16209 -0.659423 0
M  V30 7643 H 741.592 -3.04721 -1.09209 0
M  V30 7644 H 740.499 -3.55359 1.16923 0
M  V30 7645 H 741.832 -4.68154 1.51963 0
M  V30 7646 N 743.484 -0.715051 -1.40445 0
M  V30 7647 C 744.431 -0.0621393 -2.30716 0
M  V30 7648 C 745.401 0.750871 -1.48159 0
M  V30 7649 O 746.586 0.714928 -1.76899 0
M  V30 7650 C 743.726 0.854036 -3.34365 0
M  V30 7651 C 742.839 0.0305565 -4.31989 0
M  V30 7652 C 741.974 0.946162 -5.22706 0
M  V30 7653 C 741.013 0.116741 -6.11989 0
M  V30 7654 N 740.15 0.987194 -6.95125 0
M  V30 7655 H 744.99 -0.83764 -2.85985 0
M  V30 7656 H 742.527 -0.424759 -1.40834 0
M  V30 7657 H 744.485 1.39946 -3.93028 0
M  V30 7658 H 743.115 1.59572 -2.806 0
M  V30 7659 H 742.167 -0.632044 -3.75112 0
M  V30 7660 H 743.479 -0.611615 -4.95036 0
M  V30 7661 H 742.633 1.56014 -5.86297 0
M  V30 7662 H 741.372 1.62216 -4.59932 0
M  V30 7663 H 740.377 -0.510176 -5.47428 0
M  V30 7664 H 741.602 -0.555742 -6.76822 0
M  V30 7665 H 739.548 1.64885 -6.3494 0
M  V30 7666 H 739.465 0.401046 -7.54936 0
M  V30 7667 H 740.733 1.58737 -7.63166 0
M  V30 7668 N 744.962 1.50701 -0.461195 0
M  V30 7669 C 745.925 2.2686 0.326679 0
M  V30 7670 C 746.925 1.31243 0.929085 0
M  V30 7671 O 748.115 1.54754 0.799807 0
M  V30 7672 C 745.247 3.07844 1.46441 0
M  V30 7673 H 746.44 2.97954 -0.341095 0
M  V30 7674 H 743.993 1.54814 -0.214984 0
M  V30 7675 H 744.728 2.41223 2.16753 0
M  V30 7676 H 744.513 3.78101 1.03836 0
M  V30 7677 H 746.003 3.65469 2.02044 0
M  V30 7678 N 746.441 0.193421 1.56409 0
M  V30 7679 C 747.374 -0.767384 2.1491 0
M  V30 7680 C 748.352 -1.21075 1.08534 0
M  V30 7681 O 749.536 -1.29856 1.36637 0
M  V30 7682 C 746.663 -2.03615 2.70663 0
M  V30 7683 C 745.709 -1.73505 3.89613 0
M  V30 7684 S 746.542 -0.884645 5.28142 0
M  V30 7685 C 747.698 -2.1636 5.87315 0
M  V30 7686 H 747.931 -0.270053 2.96071 0
M  V30 7687 H 745.464 -0.0215546 1.54385 0
M  V30 7688 H 747.422 -2.7648 3.03429 0
M  V30 7689 H 746.083 -2.50461 1.89547 0
M  V30 7690 H 745.276 -2.67701 4.27027 0
M  V30 7691 H 744.878 -1.08723 3.57848 0
M  V30 7692 H 747.17 -3.11629 6.01576 0
M  V30 7693 H 748.113 -1.8338 6.83943 0
M  V30 7694 H 748.521 -2.29129 5.15907 0
M  V30 7695 N 747.919 -1.57396 -0.0801906 0
M  V30 7696 C 748.851 -1.9982 -1.12271 0
M  V30 7697 C 749.864 -0.902902 -1.35468 0
M  V30 7698 O 751.053 -1.18088 -1.33856 0
M  V30 7699 C 748.153 -2.31476 -2.47532 0
M  V30 7700 C 747.326 -3.62745 -2.44407 0
M  V30 7701 C 746.385 -3.82168 -3.6171 0
M  V30 7702 O 745.411 -4.53852 -3.43522 0
M  V30 7703 N 746.613 -3.2388 -4.81749 0
M  V30 7704 H 749.378 -2.89864 -0.761501 0
M  V30 7705 H 746.939 -1.5965 -0.268965 0
M  V30 7706 H 748.931 -2.4165 -3.24634 0
M  V30 7707 H 747.501 -1.47364 -2.75686 0
M  V30 7708 H 746.721 -3.63403 -1.52747 0
M  V30 7709 H 748.009 -4.48954 -2.39412 0
M  V30 7710 H 747.407 -2.6568 -4.9943 0
M  V30 7711 H 745.964 -3.39515 -5.56392 0
M  V30 7712 N 749.397 0.351382 -1.53633 0
M  V30 7713 C 750.327 1.43688 -1.84055 0
M  V30 7714 C 751.308 1.55251 -0.695073 0
M  V30 7715 O 752.493 1.69587 -0.946257 0
M  V30 7716 C 749.623 2.80843 -2.04315 0
M  V30 7717 C 748.577 2.84094 -3.20117 0
M  V30 7718 C 747.903 4.2406 -3.25696 0
M  V30 7719 C 749.203 2.50334 -4.58399 0
M  V30 7720 H 750.897 1.18478 -2.74961 0
M  V30 7721 H 748.443 0.568509 -1.32303 0
M  V30 7722 H 750.396 3.56821 -2.2418 0
M  V30 7723 H 749.12 3.07471 -1.10132 0
M  V30 7724 H 747.779 2.10568 -3.00094 0
M  V30 7725 H 747.427 4.47785 -2.29123 0
M  V30 7726 H 747.127 4.27147 -4.03509 0
M  V30 7727 H 748.651 5.0189 -3.47762 0
M  V30 7728 H 750.065 3.16025 -4.78332 0
M  V30 7729 H 748.462 2.64717 -5.38558 0
M  V30 7730 H 749.532 1.45542 -4.62543 0
M  V30 7731 N 750.875 1.45233 0.611969 0
M  V30 7732 C 751.838 1.53189 1.70487 0
M  V30 7733 C 752.838 0.411839 1.55437 0
M  V30 7734 O 754.028 0.675164 1.60584 0
M  V30 7735 C 751.16 1.42422 3.09723 0
M  V30 7736 H 752.353 2.5056 1.64802 0
M  V30 7737 H 749.906 1.32609 0.827318 0
M  V30 7738 H 750.641 0.462185 3.2099 0
M  V30 7739 H 750.426 2.23658 3.22055 0
M  V30 7740 H 751.916 1.51012 3.89339 0
M  V30 7741 N 752.353 -0.854086 1.3245 0
M  V30 7742 C 753.3 -1.96271 1.21434 0
M  V30 7743 C 754.27 -1.6582 0.0963851 0
M  V30 7744 O 755.455 -1.88851 0.27203 0
M  V30 7745 C 752.595 -3.31939 0.943952 0
M  V30 7746 C 751.708 -3.74885 2.14675 0
M  V30 7747 C 750.843 -4.99347 1.81179 0
M  V30 7748 C 749.882 -5.34785 2.97777 0
M  V30 7749 N 749.019 -6.50425 2.6437 0
M  V30 7750 H 753.859 -2.05025 2.16261 0
M  V30 7751 H 751.396 -1.00348 1.07558 0
M  V30 7752 H 753.354 -4.10076 0.767675 0
M  V30 7753 H 751.984 -3.22784 0.0324763 0
M  V30 7754 H 751.036 -2.92396 2.43328 0
M  V30 7755 H 752.348 -3.97068 3.01891 0
M  V30 7756 H 751.502 -5.85193 1.60107 0
M  V30 7757 H 750.241 -4.79101 0.911777 0
M  V30 7758 H 749.246 -4.47451 3.1948 0
M  V30 7759 H 750.471 -5.56988 3.88511 0
M  V30 7760 H 748.417 -6.31695 1.7691 0
M  V30 7761 H 748.334 -6.7263 3.45116 0
M  V30 7762 H 749.602 -7.39422 2.46729 0
M  V30 7763 N 753.831 -1.1567 -1.07043 0
M  V30 7764 C 755.247 -0.900006 -1.31803 0
M  V30 7765 C 755.447 0.451293 -1.96381 0
M  V30 7766 O 754.503 1.19252 -2.22565 0
M  V30 7767 C 755.816 -2.04334 -2.20609 0
M  V30 7768 C 757.364 -2.07823 -2.34048 0
M  V30 7769 C 757.839 -3.21488 -3.26204 0
M  V30 7770 N 759.33 -3.21156 -3.33786 0
M  V30 7771 C 760.065 -4.05746 -4.05163 0
M  V30 7772 N 759.561 -5.00407 -4.79129 0
M  V30 7773 N 761.354 -3.93759 -4.01136 0
M  V30 7774 H 753.505 -2.02681 -0.635146 0
M  V30 7775 H 755.768 -0.883956 -0.342528 0
M  V30 7776 H 755.474 -3.01895 -1.80423 0
M  V30 7777 H 755.348 -1.97838 -3.21154 0
M  V30 7778 H 757.735 -1.1086 -2.73485 0
M  V30 7779 H 757.816 -2.18386 -1.33197 0
M  V30 7780 H 757.46 -4.18706 -2.87485 0
M  V30 7781 H 757.39 -3.08162 -4.27017 0
M  V30 7782 H 759.881 -2.52606 -2.81067 0
M  V30 7783 H 760.194 -5.61387 -5.31097 0
M  V30 7784 H 758.539 -5.04393 -4.78135 0
M  V30 7785 H 761.73 -3.19115 -3.42466 0
M  V30 7786 H 761.903 -4.59906 -4.56498 0
M  V30 7787 N 755.309 1.25446 -0.953992 0
M  V30 7788 C 756.259 2.23627 -0.444413 0
M  V30 7789 C 757.243 1.54004 0.465993 0
M  V30 7790 O 758.435 1.74454 0.29915 0
M  V30 7791 C 755.564 3.42179 0.277175 0
M  V30 7792 C 754.65 4.1907 -0.651263 0
M  V30 7793 N 755.041 4.73346 -1.78262 0
M  V30 7794 C 753.339 4.43628 -0.459338 0
M  V30 7795 C 754.04 5.31576 -2.36224 0
M  V30 7796 N 753.016 5.17991 -1.64884 0
M  V30 7797 H 756.818 2.63197 -1.30785 0
M  V30 7798 H 754.332 1.40677 -0.811402 0
M  V30 7799 H 756.329 4.11653 0.659367 0
M  V30 7800 H 754.989 3.04134 1.13723 0
M  V30 7801 H 756 4.705 -2.1645 0
M  V30 7802 H 752.677 4.15963 0.357885 0
M  V30 7803 H 754.067 5.84361 -3.3162 0
M  V30 7804 N 756.787 0.722489 1.40064 0
M  V30 7805 C 757.75 0.0830209 2.2905 0
M  V30 7806 C 758.75 -0.680208 1.45705 0
M  V30 7807 O 759.94 -0.511084 1.66534 0
M  V30 7808 C 757.072 -0.892092 3.29021 0
M  V30 7809 H 758.265 0.866848 2.87099 0
M  V30 7810 H 755.818 0.487556 1.48501 0
M  V30 7811 H 756.553 -1.70273 2.76003 0
M  V30 7812 H 756.338 -0.34761 3.90556 0
M  V30 7813 H 757.828 -1.33648 3.95636 0
M  V30 7814 N 758.265 -1.50454 0.469181 0
M  V30 7815 C 759.213 -2.30101 -0.340033 0
M  V30 7816 C 760.207 -1.37306 -0.992135 0
M  V30 7817 O 761.413 -1.54506 -0.923458 0
M  V30 7818 H 757.788 -0.740941 -0.128495 0
M  V30 7819 H 759.759 -2.96315 0.352144 0
M  V30 7820 C 758.508 -3.17804 -1.41052 0
M  V30 7821 H 757.831 -3.89115 -0.918124 0
M  V30 7822 H 759.271 -3.76533 -1.94934 0
M  V30 7823 C 757.73 -2.35272 -2.4114 0
M  V30 7824 O 758.26 -2.03448 -3.4637 0
M  V30 7825 N 756.466 -1.97889 -2.1281 0
M  V30 7826 H 756.013 -2.2397 -1.27261 0
M  V30 7827 H 755.971 -1.42971 -2.80012 0
M  V30 7828 N 759.743 -0.201713 -1.56304 0
M  V30 7829 C 760.706 0.702811 -2.18159 0
M  V30 7830 C 761.706 1.13619 -1.13787 0
M  V30 7831 O 762.896 1.0482 -1.39134 0
M  V30 7832 C 760.028 1.96032 -2.78898 0
M  V30 7833 H 761.221 0.163836 -2.99452 0
M  V30 7834 H 758.774 0.04791 -1.56227 0
M  V30 7835 H 759.509 2.54165 -2.01421 0
M  V30 7836 H 759.294 1.65824 -3.55309 0
M  V30 7837 H 760.784 2.60519 -3.26373 0
M  V30 7838 N 761.222 1.57436 0.0718424 0
M  V30 7839 C 762.152 2.06724 1.08571 0
M  V30 7840 C 763.133 0.960731 1.40371 0
M  V30 7841 O 764.318 1.23345 1.49999 0
M  V30 7842 C 761.448 2.51112 2.39916 0
M  V30 7843 C 760.402 3.65639 2.22469 0
M  V30 7844 C 759.728 3.96082 3.59198 0
M  V30 7845 C 761.028 4.95687 1.64596 0
M  V30 7846 H 762.722 2.91679 0.675569 0
M  V30 7847 H 760.268 1.40319 0.32352 0
M  V30 7848 H 762.221 2.84206 3.11135 0
M  V30 7849 H 760.945 1.63186 2.8291 0
M  V30 7850 H 759.604 3.32828 1.53691 0
M  V30 7851 H 759.252 3.05287 3.99761 0
M  V30 7852 H 758.952 4.73199 3.48362 0
M  V30 7853 H 760.476 4.31672 4.31847 0
M  V30 7854 H 761.89 5.27011 2.25681 0
M  V30 7855 H 760.287 5.77126 1.64457 0
M  V30 7856 H 761.357 4.8108 0.60744 0
M  V30 7857 N 762.7 -0.34323 1.53817 0
M  V30 7858 C 763.947 -1.08344 1.71079 0
M  V30 7859 C 764.275 -1.88633 0.474133 0
M  V30 7860 O 763.53 -1.87984 -0.544116 0
M  V30 7861 C 763.829 -2.05195 2.92626 0
M  V30 7862 C 763.495 -1.41215 4.28216 0
M  V30 7863 C 762.157 -1.23495 4.65083 0
M  V30 7864 C 764.509 -0.951273 5.12445 0
M  V30 7865 C 761.837 -0.583065 5.83796 0
M  V30 7866 C 764.189 -0.313292 6.31824 0
M  V30 7867 C 762.853 -0.123779 6.67385 0
M  V30 7868 H 762.123 -0.396458 0.626021 0
M  V30 7869 H 764.77 -0.362689 1.88034 0
M  V30 7870 H 763.075 -2.83653 2.70275 0
M  V30 7871 H 764.772 -2.62462 3.03175 0
M  V30 7872 H 761.362 -1.56005 3.992 0
M  V30 7873 H 765.546 -1.07602 4.84495 0
M  V30 7874 H 760.802 -0.424854 6.09922 0
M  V30 7875 H 764.976 0.0519179 6.96381 0
M  V30 7876 H 762.603 0.383398 7.59233 0
M  V30 7877 N 764.178 -1.45556 -0.604258 0
M  V30 7878 C 765.455 -1.40221 -1.36373 0
M  V30 7879 C 765.835 -0.0745195 -2.10968 0
M  V30 7880 O 765.183 0.943594 -2.08107 0
M  V30 7881 C 765.393 -2.61807 -2.30777 0
M  V30 7882 C 766.741 -3.07037 -2.93281 0
M  V30 7883 O 767.765 -2.62203 -2.41097 0
M  V30 7884 O 766.624 -3.8485 -3.88011 0
M  V30 7885 H 763.718 -0.556602 -0.611656 0
M  V30 7886 H 766.264 -1.57689 -0.627069 0
M  V30 7887 H 765.036 -3.50017 -1.74939 0
M  V30 7888 H 764.659 -2.46688 -3.11818 0
M  V30 7889 N 765.656 0.84705 -1.32902 0
M  V30 7890 C 766.886 1.63166 -1.26729 0
M  V30 7891 C 767.294 1.88474 0.165595 0
M  V30 7892 O 766.637 1.45947 1.11558 0
M  V30 7893 C 766.699 3.0103 -1.96522 0
M  V30 7894 C 766.363 2.9873 -3.45846 0
M  V30 7895 C 767.36 2.75032 -4.41196 0
M  V30 7896 C 765.045 3.19125 -3.87898 0
M  V30 7897 C 767.039 2.71743 -5.76571 0
M  V30 7898 C 764.726 3.15462 -5.2338 0
M  V30 7899 C 765.724 2.91801 -6.17528 0
M  V30 7900 O 765.412 2.88027 -7.5053 0
M  V30 7901 H 765.144 0.51469 -0.438258 0
M  V30 7902 H 767.698 1.06383 -1.75704 0
M  V30 7903 H 765.928 3.59634 -1.42128 0
M  V30 7904 H 767.617 3.61821 -1.83958 0
M  V30 7905 H 768.383 2.59034 -4.10032 0
M  V30 7906 H 764.262 3.36565 -3.15032 0
M  V30 7907 H 767.806 2.53194 -6.5003 0
M  V30 7908 H 763.703 3.31006 -5.54171 0
M  V30 7909 H 764.471 3.03927 -7.59981 0
M  V30 7910 N 767.134 1.16236 1.06428 0
M  V30 7911 C 768.097 0.870163 2.1204 0
M  V30 7912 C 769.097 -0.134239 1.60239 0
M  V30 7913 O 770.287 0.0964932 1.73933 0
M  V30 7914 C 767.419 0.301033 3.39568 0
M  V30 7915 H 768.612 1.8064 2.39394 0
M  V30 7916 H 766.165 0.971116 1.2247 0
M  V30 7917 H 766.9 -0.642948 3.17863 0
M  V30 7918 H 766.685 1.02475 3.78472 0
M  V30 7919 H 768.175 0.114494 4.17443 0
M  V30 7920 N 768.612 -1.24939 0.960631 0
M  V30 7921 C 769.858 -1.93104 0.61958 0
M  V30 7922 C 770.191 -1.74991 -0.84212 0
M  V30 7923 O 769.466 -1.09867 -1.60498 0
M  V30 7924 C 769.749 -3.46326 0.986422 0
M  V30 7925 C 769.602 -3.73638 2.50429 0
M  V30 7926 C 770.921 -4.37067 0.515827 0
M  V30 7927 H 768.04 -0.701311 0.226566 0
M  V30 7928 H 770.682 -1.47442 1.19836 0
M  V30 7929 H 768.832 -3.85348 0.493907 0
M  V30 7930 H 770.504 -3.44217 3.07103 0
M  V30 7931 H 768.747 -3.19035 2.93937 0
M  V30 7932 H 769.418 -4.80815 2.71147 0
M  V30 7933 H 771.894 -4.05381 0.938389 0
M  V30 7934 H 770.77 -5.43022 0.80114 0
M  V30 7935 H 771.031 -4.38224 -0.584171 0
M  V30 7936 N 770.09 -0.729906 -1.39679 0
M  V30 7937 C 771.318 -0.285709 -2.04918 0
M  V30 7938 C 771.733 1.07765 -1.55023 0
M  V30 7939 O 771.09 1.67999 -0.712923 0
M  V30 7940 C 771.141 -0.272793 -3.60469 0
M  V30 7941 O 770.862 -1.58233 -4.08527 0
M  V30 7942 C 772.363 0.188199 -4.429 0
M  V30 7943 H 769.583 -0.125758 -0.65911 0
M  V30 7944 H 772.127 -0.992129 -1.78821 0
M  V30 7945 H 770.282 0.384699 -3.85485 0
M  V30 7946 H 770.696 -1.49245 -5.02818 0
M  V30 7947 H 772.17 0.14608 -5.51807 0
M  V30 7948 H 772.647 1.2326 -4.21549 0
M  V30 7949 H 773.253 -0.439541 -4.23023 0
M  V30 7950 N 771.568 1.50203 -0.477153 0
M  V30 7951 C 772.816 2.01959 0.0755889 0
M  V30 7952 C 773.137 1.3608 1.39668 0
M  V30 7953 O 772.407 0.508136 1.89195 0
M  V30 7954 H 770.987 0.74636 0.0309248 0
M  V30 7955 H 773.649 1.84473 -0.628959 0
M  V30 7956 H 772.745 3.11305 0.222683 0
M  V30 7957 N 773.046 0.209999 1.56195 0
M  V30 7958 C 774.323 -0.473214 1.89789 0
M  V30 7959 C 774.703 -1.78581 1.1257 0
M  V30 7960 O 774.051 -2.27325 0.231398 0
M  V30 7961 C 774.261 -0.677458 3.42362 0
M  V30 7962 C 775.609 -0.990114 4.12895 0
M  V30 7963 O 776.633 -0.764655 3.47896 0
M  V30 7964 O 775.492 -1.41737 5.278 0
M  V30 7965 H 772.586 -0.248622 0.788743 0
M  V30 7966 H 775.132 0.251324 1.67829 0
M  V30 7967 H 773.904 0.248878 3.90508 0
M  V30 7968 H 773.527 -1.45391 3.70064 0
M  V30 7969 N 774.524 -1.57472 -0.0634922 0
M  V30 7970 C 775.77 -1.87932 -0.762194 0
M  V30 7971 C 776.103 -0.803377 -1.76804 0
M  V30 7972 O 775.378 0.185468 -1.93614 0
M  V30 7973 C 775.661 -3.29053 -1.46275 0
M  V30 7974 C 775.514 -4.47309 -0.472755 0
M  V30 7975 C 776.833 -3.68537 -2.40558 0
M  V30 7976 H 773.952 -0.683521 -0.275624 0
M  V30 7977 H 776.594 -1.89983 -0.0252651 0
M  V30 7978 H 774.744 -3.27435 -2.0909 0
M  V30 7979 H 776.416 -4.61053 0.150828 0
M  V30 7980 H 774.659 -4.33286 0.211187 0
M  V30 7981 H 775.33 -5.42853 -1.00072 0
M  V30 7982 H 777.806 -3.71302 -1.87814 0
M  V30 7983 H 776.682 -4.68152 -2.86574 0
M  V30 7984 H 776.943 -2.98917 -3.25731 0
M  V30 7985 N 776.003 0.335068 -1.53997 0
M  V30 7986 C 776.95 1.41187 -1.82579 0
M  V30 7987 C 777.92 1.51897 -0.672061 0
M  V30 7988 O 779.105 1.673 -0.917346 0
M  V30 7989 C 776.245 2.77717 -2.0486 0
M  V30 7990 C 775.358 2.7573 -3.32561 0
M  V30 7991 C 774.493 4.04032 -3.44864 0
M  V30 7992 C 773.532 3.96308 -4.66483 0
M  V30 7993 N 772.669 5.16317 -4.75774 0
M  V30 7994 H 777.509 1.16113 -2.74448 0
M  V30 7995 H 775.046 0.562305 -1.35928 0
M  V30 7996 H 777.004 3.57071 -2.15768 0
M  V30 7997 H 775.634 3.01124 -1.16294 0
M  V30 7998 H 774.686 1.88432 -3.3045 0
M  V30 7999 H 775.998 2.65902 -4.22016 0
M  V30 8000 H 775.152 4.91814 -3.55251 0
M  V30 8001 H 773.891 4.16652 -2.53481 0
M  V30 8002 H 772.896 3.06911 -4.56164 0
M  V30 8003 H 774.121 3.85263 -5.5924 0
M  V30 8004 H 772.067 5.29464 -3.87303 0
M  V30 8005 H 771.984 5.08779 -5.59178 0
M  V30 8006 H 773.252 6.05846 -4.9048 0
M  V30 8007 N 777.481 1.45874 0.596531 0
M  V30 8008 C 778.414 1.49889 1.72071 0
M  V30 8009 C 779.392 0.354224 1.58695 0
M  V30 8010 O 780.576 0.556355 1.80103 0
M  V30 8011 C 777.703 1.3644 3.10003 0
M  V30 8012 C 776.749 2.54913 3.41938 0
M  V30 8013 S 777.582 4.17336 3.35545 0
M  V30 8014 C 778.738 4.06372 4.76039 0
M  V30 8015 H 778.971 2.45005 1.68404 0
M  V30 8016 H 776.504 1.33592 0.77412 0
M  V30 8017 H 778.462 1.29368 3.89582 0
M  V30 8018 H 777.123 0.427762 3.11174 0
M  V30 8019 H 776.316 2.41458 4.42396 0
M  V30 8020 H 775.918 2.58904 2.69898 0
M  V30 8021 H 778.21 3.72199 5.66105 0
M  V30 8022 H 779.153 5.0678 4.9455 0
M  V30 8023 H 779.561 3.37846 4.52239 0
M  V30 8024 N 778.959 -0.83999 1.33349 0
M  V30 8025 C 779.889 -1.965 1.26135 0
M  V30 8026 C 780.87 -1.69505 0.142152 0
M  V30 8027 O 782.055 -1.91346 0.331743 0
M  V30 8028 C 779.185 -3.32632 0.99866 0
M  V30 8029 C 778.139 -3.74021 2.08068 0
M  V30 8030 C 777.465 -5.07947 1.67014 0
M  V30 8031 C 778.765 -3.87925 3.49731 0
M  V30 8032 H 780.459 -2.02793 2.20262 0
M  V30 8033 H 778.005 -0.974297 1.06035 0
M  V30 8034 H 779.958 -4.10903 0.934696 0
M  V30 8035 H 778.682 -3.26593 0.0217759 0
M  V30 8036 H 777.341 -2.98012 2.13505 0
M  V30 8037 H 776.989 -4.98378 0.680316 0
M  V30 8038 H 776.689 -5.36611 2.39422 0
M  V30 8039 H 778.213 -5.88695 1.62082 0
M  V30 8040 H 779.627 -4.5651 3.46802 0
M  V30 8041 H 778.024 -4.28023 4.20614 0
M  V30 8042 H 779.094 -2.90407 3.88319 0
M  V30 8043 N 780.437 -1.16799 -1.0581 0
M  V30 8044 C 781.367 -0.902241 -2.15364 0
M  V30 8045 C 782.348 0.153351 -1.69407 0
M  V30 8046 O 783.533 0.00442032 -1.94199 0
M  V30 8047 C 780.663 -0.407911 -3.44896 0
M  V30 8048 C 779.617 -1.40197 -4.04387 0
M  V30 8049 C 778.943 -0.765848 -5.29187 0
M  V30 8050 C 780.243 -2.77316 -4.42598 0
M  V30 8051 H 781.937 -1.81841 -2.37853 0
M  V30 8052 H 779.483 -0.875731 -1.14311 0
M  V30 8053 H 781.436 -0.20945 -4.20879 0
M  V30 8054 H 780.16 0.54378 -3.22041 0
M  V30 8055 H 778.819 -1.58707 -3.30466 0
M  V30 8056 H 778.467 0.192482 -5.02632 0
M  V30 8057 H 778.167 -1.42939 -5.69949 0
M  V30 8058 H 779.691 -0.577519 -6.07863 0
M  V30 8059 H 781.105 -2.62561 -5.09642 0
M  V30 8060 H 779.502 -3.4019 -4.94359 0
M  V30 8061 H 780.572 -3.32199 -3.53231 0
M  V30 8062 N 781.915 1.24427 -0.967243 0
M  V30 8063 C 782.878 2.23637 -0.501927 0
M  V30 8064 C 783.878 1.55712 0.401283 0
M  V30 8065 O 785.068 1.73085 0.196808 0
M  V30 8066 C 782.2 3.39804 0.273176 0
M  V30 8067 H 783.393 2.66317 -1.37897 0
M  V30 8068 H 780.946 1.37033 -0.751783 0
M  V30 8069 H 781.681 3.02562 1.16733 0
M  V30 8070 H 781.466 3.90303 -0.37498 0
M  V30 8071 H 782.956 4.13443 0.587776 0
M  V30 8072 N 783.393 0.737304 1.3929 0
M  V30 8073 C 784.639 0.286681 2.00763 0
M  V30 8074 C 784.972 -1.12388 1.58375 0
M  V30 8075 O 784.247 -1.76661 0.813699 0
M  V30 8076 C 784.53 0.391147 3.57969 0
M  V30 8077 C 784.383 1.84165 4.1037 0
M  V30 8078 C 785.702 -0.225072 4.39524 0
M  V30 8079 H 782.821 0.105642 0.729389 0
M  V30 8080 H 785.463 0.933892 1.65464 0
M  V30 8081 H 783.613 -0.159875 3.88171 0
M  V30 8082 H 785.285 2.44972 3.90879 0
M  V30 8083 H 783.528 2.3622 3.63844 0
M  V30 8084 H 784.199 1.866 5.19504 0
M  V30 8085 H 786.675 0.244677 4.1538 0
M  V30 8086 H 785.551 -0.121646 5.48765 0
M  V30 8087 H 785.812 -1.31141 4.22202 0
M  V30 8088 N 784.871 -1.49948 0.485112 0
M  V30 8089 C 785.803 -2.26691 -0.338222 0
M  V30 8090 C 786.816 -1.32584 -0.944742 0
M  V30 8091 O 788.005 -1.57989 -0.830772 0
M  V30 8092 C 785.105 -3.04405 -1.48966 0
M  V30 8093 C 784.278 -4.25971 -0.993371 0
M  V30 8094 C 783.337 -4.85861 -2.02052 0
M  V30 8095 O 782.363 -5.46382 -1.59547 0
M  V30 8096 N 783.565 -4.74101 -3.34975 0
M  V30 8097 H 786.33 -2.97989 0.319748 0
M  V30 8098 H 783.891 -1.58772 0.316714 0
M  V30 8099 H 785.883 -3.41348 -2.17403 0
M  V30 8100 H 784.453 -2.35815 -2.05207 0
M  V30 8101 H 783.673 -3.93971 -0.134424 0
M  V30 8102 H 784.961 -5.0476 -0.639934 0
M  V30 8103 H 784.359 -4.26002 -3.72208 0
M  V30 8104 H 782.916 -5.15274 -3.9917 0
M  V30 8105 N 786.349 -0.21828 -1.56081 0
M  V30 8106 C 787.765 0.137168 -1.59009 0
M  V30 8107 C 787.965 1.59215 -1.23503 0
M  V30 8108 O 787.021 2.33178 -0.968716 0
M  V30 8109 C 788.334 -0.186162 -3.00123 0
M  V30 8110 C 789.882 -0.128135 -3.12738 0
M  V30 8111 C 790.357 -0.425094 -4.56023 0
M  V30 8112 N 791.848 -0.374547 -4.61683 0
M  V30 8113 C 792.583 -0.57786 -5.70481 0
M  V30 8114 N 792.079 -0.842771 -6.87655 0
M  V30 8115 N 793.872 -0.510521 -5.59777 0
M  V30 8116 H 786.023 -1.16746 -1.77437 0
M  V30 8117 H 788.286 -0.467706 -0.824594 0
M  V30 8118 H 787.992 -1.19589 -3.30744 0
M  V30 8119 H 787.866 0.500388 -3.73866 0
M  V30 8120 H 790.253 0.872224 -2.81915 0
M  V30 8121 H 790.334 -0.848112 -2.41331 0
M  V30 8122 H 789.978 -1.42288 -4.87562 0
M  V30 8123 H 789.908 0.316038 -5.25651 0
M  V30 8124 H 792.399 -0.177356 -3.77484 0
M  V30 8125 H 792.712 -0.986095 -7.66483 0
M  V30 8126 H 791.057 -0.879929 -6.89407 0
M  V30 8127 H 794.248 -0.303813 -4.67113 0
M  V30 8128 H 794.421 -0.672378 -6.44502 0
M  V30 8129 N 787.827 1.57504 0.0551401 0
M  V30 8130 C 788.777 2.0128 1.071 0
M  V30 8131 C 789.761 0.897592 1.33537 0
M  V30 8132 O 790.953 1.16151 1.33558 0
M  V30 8133 C 788.082 2.47414 2.37994 0
M  V30 8134 C 787.168 3.65703 2.14761 0
M  V30 8135 N 787.559 4.79323 1.61504 0
M  V30 8136 C 785.857 3.72574 2.45162 0
M  V30 8137 C 786.558 5.61089 1.53472 0
M  V30 8138 N 785.534 5.05426 2.00114 0
M  V30 8139 H 789.336 2.86558 0.652829 0
M  V30 8140 H 786.85 1.60274 0.26193 0
M  V30 8141 H 788.847 2.77023 3.11551 0
M  V30 8142 H 787.507 1.6353 2.80514 0
M  V30 8143 H 788.518 5.01284 1.30134 0
M  V30 8144 H 785.195 2.99439 2.90934 0
M  V30 8145 H 786.585 6.62328 1.13008 0
M  V30 8146 N 789.305 -0.326896 1.54172 0
M  V30 8147 C 790.235 -1.40741 1.86317 0
M  V30 8148 C 791.216 -1.54125 0.719684 0
M  V30 8149 O 792.401 -1.6806 0.973117 0
M  V30 8150 C 789.531 -2.77557 2.08757 0
M  V30 8151 C 788.485 -2.78965 3.24596 0
M  V30 8152 C 787.811 -4.18824 3.32401 0
M  V30 8153 C 789.111 -2.4301 4.62324 0
M  V30 8154 H 790.805 -1.14088 2.76811 0
M  V30 8155 H 788.351 -0.547389 1.3319 0
M  V30 8156 H 790.304 -3.53209 2.29829 0
M  V30 8157 H 789.028 -3.0568 1.15009 0
M  V30 8158 H 787.687 -2.05767 3.03406 0
M  V30 8159 H 787.335 -4.44083 2.36218 0
M  V30 8160 H 787.035 -4.20673 4.10253 0
M  V30 8161 H 788.559 -4.96294 3.55703 0
M  V30 8162 H 789.973 -3.08375 4.83299 0
M  V30 8163 H 788.37 -2.56116 5.42701 0
M  V30 8164 H 789.44 -1.38165 4.64799 0
M  V30 8165 N 790.784 -1.46188 -0.588786 0
M  V30 8166 C 792.012 -1.54743 -1.37339 0
M  V30 8167 C 792.427 -0.186446 -1.87877 0
M  V30 8168 O 791.784 0.815247 -1.63279 0
M  V30 8169 C 791.835 -2.54727 -2.56508 0
M  V30 8170 O 791.556 -3.85539 -2.08066 0
M  V30 8171 C 793.057 -2.73163 -3.49137 0
M  V30 8172 H 790.277 -0.523484 -0.419768 0
M  V30 8173 H 792.821 -1.91543 -0.716345 0
M  V30 8174 H 790.976 -2.20948 -3.18215 0
M  V30 8175 H 791.39 -4.39905 -2.85629 0
M  V30 8176 H 792.864 -3.47057 -4.2925 0
M  V30 8177 H 793.341 -1.79856 -4.00685 0
M  V30 8178 H 793.947 -3.08014 -2.9327 0
M  V30 8179 N 792.262 0.832906 -1.33792 0
M  V30 8180 C 793.225 1.92471 -1.24449 0
M  V30 8181 C 794.225 1.59981 -0.162085 0
M  V30 8182 O 795.415 1.69208 -0.414029 0
M  V30 8183 C 792.547 3.28278 -0.919044 0
M  V30 8184 H 793.74 2.0218 -2.21502 0
M  V30 8185 H 791.293 1.0257 -1.17936 0
M  V30 8186 H 792.028 3.24263 0.048738 0
M  V30 8187 H 791.813 3.53241 -1.70187 0
M  V30 8188 H 793.303 4.08253 -0.878576 0
M  V30 8189 N 793.74 1.17359 1.05189 0
M  V30 8190 C 794.986 0.963413 1.78455 0
M  V30 8191 C 795.319 -0.506703 1.87473 0
M  V30 8192 O 794.594 -1.37611 1.37453 0
M  V30 8193 C 794.877 1.60519 3.22344 0
M  V30 8194 C 794.73 3.14741 3.21338 0
M  V30 8195 C 796.049 1.3091 4.20179 0
M  V30 8196 H 793.168 0.351412 0.647826 0
M  V30 8197 H 795.81 1.44858 1.22948 0
M  V30 8198 H 793.96 1.19265 3.69741 0
M  V30 8199 H 795.632 3.65053 2.82017 0
M  V30 8200 H 793.875 3.4749 2.59679 0
M  V30 8201 H 794.546 3.54775 4.22894 0
M  V30 8202 H 797.022 1.66635 3.81277 0
M  V30 8203 H 795.898 1.784 5.191 0
M  V30 8204 H 796.159 0.229908 4.41502 0
M  V30 8205 N 795.218 -1.23913 0.973828 0
M  V30 8206 C 796.15 -2.24397 0.466763 0
M  V30 8207 C 797.163 -1.57078 -0.427828 0
M  V30 8208 O 798.352 -1.76973 -0.233019 0
M  V30 8209 C 795.452 -3.37141 -0.344798 0
M  V30 8210 C 794.625 -4.34037 0.541349 0
M  V30 8211 C 793.684 -5.2576 -0.215243 0
M  V30 8212 O 792.71 -5.67842 0.39291 0
M  V30 8213 N 793.912 -5.60702 -1.5031 0
M  V30 8214 H 796.677 -2.68536 1.33074 0
M  V30 8215 H 794.238 -1.38017 0.846346 0
M  V30 8216 H 796.23 -3.95476 -0.859133 0
M  V30 8217 H 794.8 -2.92239 -1.10974 0
M  V30 8218 H 794.02 -3.74302 1.23659 0
M  V30 8219 H 795.308 -4.95738 1.1455 0
M  V30 8220 H 794.706 -5.28451 -2.01882 0
M  V30 8221 H 793.263 -6.21538 -1.96301 0
M  V30 8222 N 796.696 -0.74468 -1.38897 0
M  V30 8223 C 797.973 -0.222773 -1.94327 0
M  V30 8224 C 798.353 1.27731 -1.68071 0
M  V30 8225 O 797.701 2.04754 -1.01429 0
M  V30 8226 C 797.911 -0.566836 -3.44366 0
M  V30 8227 C 799.259 -0.521531 -4.21385 0
M  V30 8228 O 800.283 -0.504599 -3.52608 0
M  V30 8229 O 799.142 -0.524595 -5.43976 0
M  V30 8230 H 796.236 -0.0439259 -0.825833 0
M  V30 8231 H 798.782 -0.824197 -1.48341 0
M  V30 8232 H 797.554 -1.60321 -3.56949 0
M  V30 8233 H 797.177 0.0630577 -3.9755 0
M  V30 8234 N 798.174 1.49689 -0.493057 0
M  V30 8235 C 799.084 2.32746 0.294358 0
M  V30 8236 C 800.1 1.44117 0.975003 0
M  V30 8237 O 801.276 1.77149 0.958138 0
M  V30 8238 C 798.341 3.19358 1.34949 0
M  V30 8239 C 797.402 4.2383 0.683122 0
M  V30 8240 C 796.635 5.06303 1.68798 0
M  V30 8241 O 796.858 4.90172 2.91698 0
M  V30 8242 O 795.792 5.88826 1.24768 0
M  V30 8243 H 799.618 3.01247 -0.385254 0
M  V30 8244 H 797.203 1.47216 -0.254519 0
M  V30 8245 H 799.085 3.73037 1.96014 0
M  V30 8246 H 797.76 2.53561 2.01217 0
M  V30 8247 H 796.667 3.74086 0.0329351 0
M  V30 8248 H 798 4.9216 0.0630192 0
M  V30 8249 N 799.652 0.226554 1.55963 0
M  V30 8250 C 800.6 -0.697922 2.21882 0
M  V30 8251 C 801.594 -1.19586 1.19981 0
M  V30 8252 O 802.8 -1.15511 1.38048 0
M  V30 8253 H 799.175 -0.243501 0.711485 0
M  V30 8254 H 801.146 -0.118576 2.98164 0
M  V30 8255 C 799.895 -1.89309 2.91646 0
M  V30 8256 H 799.218 -1.51906 3.69817 0
M  V30 8257 H 800.658 -2.51762 3.41162 0
M  V30 8258 C 799.117 -2.75162 1.94391 0
M  V30 8259 O 799.647 -3.74071 1.46402 0
M  V30 8260 N 797.853 -2.41302 1.61932 0
M  V30 8261 H 797.4 -1.60923 2.01151 0
M  V30 8262 H 797.358 -2.99023 0.971219 0
M  V30 8263 N 801.13 -1.57531 -0.0467866 0
M  V30 8264 C 802.378 -1.88078 -0.739656 0
M  V30 8265 C 802.699 -0.821936 -1.76831 0
M  V30 8266 O 801.969 0.146582 -1.95351 0
M  V30 8267 H 800.549 -0.694075 -0.276169 0
M  V30 8268 H 803.211 -1.94893 -0.0169391 0
M  V30 8269 H 802.307 -2.86396 -1.24031 0
M  V30 8270 N 802.608 0.318715 -1.54344 0
M  V30 8271 C 803.885 1.07461 -1.63437 0
M  V30 8272 C 804.265 2.05771 -0.47131 0
M  V30 8273 O 803.613 2.22175 0.53391 0
M  V30 8274 C 803.823 1.77224 -3.00654 0
M  V30 8275 C 805.171 2.30069 -3.56866 0
M  V30 8276 O 806.195 1.87284 -3.0299 0
M  V30 8277 O 805.054 3.08412 -4.51159 0
M  V30 8278 H 802.148 0.495627 -0.66203 0
M  V30 8279 H 804.694 0.318218 -1.6669 0
M  V30 8280 H 803.466 1.05742 -3.76742 0
M  V30 8281 H 803.089 2.59662 -3.01101 0
M  V30 8282 N 804.086 1.46499 0.581025 0
M  V30 8283 C 805.311 1.55708 1.37002 0
M  V30 8284 C 805.736 0.19942 1.8704 0
M  V30 8285 O 805.094 -0.820731 1.61659 0
M  V30 8286 C 805.142 2.56716 2.53238 0
M  V30 8287 O 804.246 2.10336 3.54729 0
M  V30 8288 H 803.587 0.523912 0.407937 0
M  V30 8289 H 806.117 1.92085 0.704602 0
M  V30 8290 H 806.127 2.76378 3.00132 0
M  V30 8291 H 804.802 3.55307 2.16171 0
M  V30 8292 H 803.379 2.00669 3.14303 0
M  V30 8293 N 805.565 -0.825799 1.34232 0
M  V30 8294 C 806.811 -1.58419 1.26614 0
M  V30 8295 C 807.144 -1.93503 -0.164341 0
M  V30 8296 O 806.419 -1.59785 -1.109 0
M  V30 8297 C 806.702 -2.8856 2.15418 0
M  V30 8298 C 806.555 -2.60075 3.66989 0
M  V30 8299 C 807.874 -3.90107 2.03726 0
M  V30 8300 H 804.993 -0.574794 0.461282 0
M  V30 8301 H 807.635 -0.951519 1.64457 0
M  V30 8302 H 805.785 -3.42553 1.83275 0
M  V30 8303 H 807.457 -2.12414 4.09485 0
M  V30 8304 H 805.7 -1.93565 3.88221 0
M  V30 8305 H 806.371 -3.52866 4.24488 0
M  V30 8306 H 808.847 -3.45459 2.31942 0
M  V30 8307 H 807.723 -4.78976 2.68092 0
M  V30 8308 H 807.984 -4.30329 1.01337 0
M  V30 8309 N 807.043 -1.17915 -1.04565 0
M  V30 8310 C 807.973 -0.925033 -2.14395 0
M  V30 8311 C 808.954 0.135375 -1.6956 0
M  V30 8312 O 810.139 -0.0161774 -1.94193 0
M  V30 8313 C 807.269 -0.444469 -3.44444 0
M  V30 8314 C 806.223 -1.44478 -4.02877 0
M  V30 8315 C 805.549 -0.821933 -5.28345 0
M  V30 8316 C 806.849 -2.81995 -4.39632 0
M  V30 8317 H 808.543 -1.84354 -2.35911 0
M  V30 8318 H 806.089 -0.887806 -1.13375 0
M  V30 8319 H 808.042 -0.254078 -4.20633 0
M  V30 8320 H 806.766 0.509592 -3.226 0
M  V30 8321 H 805.425 -1.62203 -3.28764 0
M  V30 8322 H 805.073 0.139161 -5.02807 0
M  V30 8323 H 804.773 -1.48976 -5.68401 0
M  V30 8324 H 806.297 -0.641959 -6.07216 0
M  V30 8325 H 807.711 -2.67952 -5.06828 0
M  V30 8326 H 806.108 -3.45414 -4.90723 0
M  V30 8327 H 807.178 -3.35927 -3.49687 0
M  V30 8328 N 808.521 1.23394 -0.980386 0
M  V30 8329 C 809.471 2.22634 -0.491747 0
M  V30 8330 C 810.455 1.54958 0.433222 0
M  V30 8331 O 811.647 1.75049 0.262078 0
M  V30 8332 C 808.776 3.4269 0.204531 0
M  V30 8333 C 807.862 4.17594 -0.740007 0
M  V30 8334 N 808.253 4.69458 -1.88263 0
M  V30 8335 C 806.551 4.42554 -0.553335 0
M  V30 8336 C 807.252 5.26446 -2.47446 0
M  V30 8337 N 806.228 5.14377 -1.75834 0
M  V30 8338 H 810.03 2.60363 -1.36339 0
M  V30 8339 H 807.544 1.38924 -0.841059 0
M  V30 8340 H 809.541 4.12959 0.571901 0
M  V30 8341 H 808.201 3.06477 1.07246 0
M  V30 8342 H 809.212 4.65803 -2.26381 0
M  V30 8343 H 805.889 4.16629 0.269573 0
M  V30 8344 H 807.279 5.77195 -3.43941 0
M  V30 8345 N 809.999 0.752036 1.385 0
M  V30 8346 C 810.929 0.138718 2.33088 0
M  V30 8347 C 811.91 -0.705318 1.54788 0
M  V30 8348 O 813.095 -0.646821 1.83112 0
M  V30 8349 C 810.225 -0.75641 3.38963 0
M  V30 8350 C 809.179 -0.0152239 4.27997 0
M  V30 8351 C 808.505 -1.0285 5.24715 0
M  V30 8352 C 809.805 1.15226 5.09431 0
M  V30 8353 H 811.499 0.928852 2.84627 0
M  V30 8354 H 809.045 0.448111 1.3685 0
M  V30 8355 H 810.998 -1.19513 4.04097 0
M  V30 8356 H 809.722 -1.57885 2.85902 0
M  V30 8357 H 808.381 0.404061 3.64366 0
M  V30 8358 H 808.029 -1.84496 4.67943 0
M  V30 8359 H 807.729 -0.537238 5.85139 0
M  V30 8360 H 809.253 -1.46657 5.92726 0
M  V30 8361 H 810.667 0.791161 5.67815 0
M  V30 8362 H 809.064 1.57428 5.79082 0
M  V30 8363 H 810.134 1.9659 4.43261 0
M  V30 8364 N 811.477 -1.49425 0.500989 0
M  V30 8365 C 812.44 -2.27646 -0.266416 0
M  V30 8366 C 813.44 -1.3366 -0.893961 0
M  V30 8367 O 814.63 -1.5682 -0.758495 0
M  V30 8368 C 811.762 -3.11618 -1.38227 0
M  V30 8369 H 812.955 -2.96945 0.419973 0
M  V30 8370 H 810.508 -1.5419 0.255954 0
M  V30 8371 H 811.243 -2.46885 -2.10281 0
M  V30 8372 H 811.028 -3.80721 -0.937746 0
M  V30 8373 H 812.518 -3.70698 -1.92283 0
M  V30 8374 N 812.955 -0.234822 -1.55841 0
M  V30 8375 C 814.204 0.393685 -1.97821 0
M  V30 8376 C 814.517 1.59947 -1.1259 0
M  V30 8377 O 815.723 2.29835 -1.44528 0
M  V30 8378 C 814.179 0.751811 -3.5196 0
M  V30 8379 C 813.787 -0.431898 -4.45913 0
M  V30 8380 C 815.531 1.34518 -4.02623 0
M  V30 8381 C 813.438 -0.0505976 -5.91378 0
M  V30 8382 H 812.368 0.150864 -0.738753 0
M  V30 8383 H 815.019 -0.333132 -1.80451 0
M  V30 8384 H 813.401 1.53642 -3.6498 0
M  V30 8385 H 814.575 -1.20935 -4.44647 0
M  V30 8386 H 812.89 -0.939385 -4.05666 0
M  V30 8387 H 815.487 1.64359 -5.08813 0
M  V30 8388 H 815.83 2.26554 -3.49255 0
M  V30 8389 H 816.363 0.623729 -3.9288 0
M  V30 8390 H 813.102 -0.937779 -6.48757 0
M  V30 8391 H 812.622 0.690898 -5.95808 0
M  V30 8392 H 814.301 0.37146 -6.45933 0
M  V30 8393 N 814.433 1.57553 0.0384317 0
M  V30 8394 C 815.682 1.88022 0.730108 0
M  V30 8395 C 815.995 0.83209 1.77019 0
M  V30 8396 O 817.201 1.0257 2.51379 0
M  V30 8397 C 815.657 3.33637 1.3496 0
M  V30 8398 C 815.265 4.46659 0.346352 0
M  V30 8399 C 817.009 3.73266 2.02169 0
M  V30 8400 C 814.916 5.8333 0.973652 0
M  V30 8401 H 813.846 0.701496 0.276442 0
M  V30 8402 H 816.497 1.83493 -0.0158028 0
M  V30 8403 H 814.879 3.32882 2.1449 0
M  V30 8404 H 816.053 4.58868 -0.421558 0
M  V30 8405 H 814.368 4.15802 -0.223133 0
M  V30 8406 H 816.965 4.72689 2.49938 0
M  V30 8407 H 817.308 3.04776 2.8358 0
M  V30 8408 H 817.841 3.76156 1.29427 0
M  V30 8409 H 814.58 6.55197 0.199163 0
M  V30 8410 H 814.1 5.7486 1.71162 0
M  V30 8411 H 815.779 6.29757 1.48376 0
M  V30 8412 N 815.911 -0.310526 1.54511 0
M  V30 8413 C 816.861 -1.38405 1.81185 0
M  V30 8414 C 817.845 -1.46355 0.668499 0
M  V30 8415 O 819.037 -1.50668 0.928873 0
M  V30 8416 C 816.166 -2.75059 2.0542 0
M  V30 8417 C 815.252 -2.7137 3.25913 0
M  V30 8418 N 815.643 -2.37298 4.4668 0
M  V30 8419 C 813.941 -3.02484 3.27749 0
M  V30 8420 C 814.642 -2.42669 5.28665 0
M  V30 8421 N 813.618 -2.79639 4.66158 0
M  V30 8422 H 817.42 -1.11012 2.72128 0
M  V30 8423 H 814.934 -0.519068 1.53881 0
M  V30 8424 H 816.931 -3.52451 2.22674 0
M  V30 8425 H 815.591 -3.03372 1.15739 0
M  V30 8426 H 816.602 -2.09917 4.73451 0
M  V30 8427 H 813.279 -3.35754 2.48144 0
M  V30 8428 H 814.669 -2.19206 6.35136 0
M  V30 8429 N 817.389 -1.46805 -0.573248 0
M  V30 8430 C 818.319 -1.60951 -1.69165 0
M  V30 8431 C 819.3 -0.45948 -1.63777 0
M  V30 8432 O 820.485 -0.68688 -1.81647 0
M  V30 8433 C 817.615 -1.60844 -3.07809 0
M  V30 8434 C 816.569 -2.74913 -3.28035 0
M  V30 8435 C 815.895 -2.59871 -4.67302 0
M  V30 8436 C 817.195 -4.16654 -3.14955 0
M  V30 8437 H 818.889 -2.54574 -1.57582 0
M  V30 8438 H 816.435 -1.22516 -0.756686 0
M  V30 8439 H 818.388 -1.69334 -3.85881 0
M  V30 8440 H 817.112 -0.637714 -3.20314 0
M  V30 8441 H 815.771 -2.65908 -2.52366 0
M  V30 8442 H 815.419 -1.60861 -4.76585 0
M  V30 8443 H 815.119 -3.36386 -4.81786 0
M  V30 8444 H 816.643 -2.70265 -5.4753 0
M  V30 8445 H 818.057 -4.26721 -3.82861 0
M  V30 8446 H 816.454 -4.93831 -3.40956 0
M  V30 8447 H 817.524 -4.36146 -2.11908 0
M  V30 8448 N 818.867 0.818669 -1.34668 0
M  V30 8449 C 819.817 1.91882 -1.23147 0
M  V30 8450 C 820.801 1.60378 -0.129509 0
M  V30 8451 O 821.993 1.73309 -0.359581 0
M  V30 8452 C 819.122 3.28612 -0.993436 0
M  V30 8453 C 818.208 3.66221 -2.13876 0
M  V30 8454 N 818.599 3.75361 -3.39024 0
M  V30 8455 C 816.897 3.96098 -2.04994 0
M  V30 8456 C 817.598 4.0836 -4.14266 0
M  V30 8457 N 816.574 4.21806 -3.429 0
M  V30 8458 H 820.376 1.97133 -2.17981 0
M  V30 8459 H 817.89 1.01257 -1.26967 0
M  V30 8460 H 819.887 4.0725 -0.891797 0
M  V30 8461 H 818.547 3.24655 -0.053824 0
M  V30 8462 H 819.558 3.58747 -3.73525 0
M  V30 8463 H 816.235 4.00236 -1.18816 0
M  V30 8464 H 817.625 4.226 -5.22359 0
M  V30 8465 N 820.346 1.18468 1.03938 0
M  V30 8466 C 821.571 1.00638 1.81347 0
M  V30 8467 C 821.996 -0.440477 1.8287 0
M  V30 8468 O 821.354 -1.31609 1.24695 0
M  V30 8469 C 821.402 1.5673 3.24759 0
M  V30 8470 O 820.506 0.789517 4.04772 0
M  V30 8471 H 819.847 0.356432 0.560225 0
M  V30 8472 H 822.377 1.57253 1.30891 0
M  V30 8473 H 822.387 1.59496 3.75533 0
M  V30 8474 H 821.062 2.62043 3.22965 0
M  V30 8475 H 819.639 0.834267 3.63448 0
M  V30 8476 N 821.824 -1.22873 0.986916 0
M  V30 8477 C 822.756 -2.23889 0.490537 0
M  V30 8478 C 823.769 -1.57523 -0.411144 0
M  V30 8479 O 824.958 -1.7721 -0.214236 0
M  V30 8480 C 822.058 -3.37488 -0.30902 0
M  V30 8481 C 821.231 -4.33438 0.587354 0
M  V30 8482 C 820.29 -5.25958 -0.159467 0
M  V30 8483 O 819.316 -5.67394 0.453115 0
M  V30 8484 N 820.518 -5.62265 -1.44355 0
M  V30 8485 H 823.283 -2.67109 1.35914 0
M  V30 8486 H 820.844 -1.37111 0.860937 0
M  V30 8487 H 822.836 -3.96365 -0.817139 0
M  V30 8488 H 821.406 -2.934 -1.07868 0
M  V30 8489 H 820.626 -3.72969 1.27622 0
M  V30 8490 H 821.914 -4.94495 1.19801 0
M  V30 8491 H 821.312 -5.30562 -1.96266 0
M  V30 8492 H 819.869 -6.23585 -1.89698 0
M  V30 8493 N 823.302 -0.75937 -1.38099 0
M  V30 8494 C 824.232 -0.151077 -2.33011 0
M  V30 8495 C 825.213 0.697099 -1.5516 0
M  V30 8496 O 826.398 0.637101 -1.83452 0
M  V30 8497 C 823.528 0.738423 -3.39359 0
M  V30 8498 C 822.482 -0.0074741 -4.27999 0
M  V30 8499 C 821.808 1.00066 -5.25253 0
M  V30 8500 C 823.108 -1.17926 -5.08813 0
M  V30 8501 H 824.802 -0.943933 -2.84131 0
M  V30 8502 H 822.348 -0.455362 -1.36611 0
M  V30 8503 H 824.301 1.17369 -4.04725 0
M  V30 8504 H 823.025 1.56366 -2.86735 0
M  V30 8505 H 821.684 -0.423379 -3.64147 0
M  V30 8506 H 821.332 1.82012 -4.68914 0
M  V30 8507 H 821.032 0.506199 -5.85416 0
M  V30 8508 H 822.556 1.43512 -5.93495 0
M  V30 8509 H 823.97 -0.821262 -5.67387 0
M  V30 8510 H 822.367 -1.60497 -5.78239 0
M  V30 8511 H 823.437 -1.98938 -4.42212 0
M  V30 8512 N 824.78 1.49157 -0.508906 0
M  V30 8513 C 826.026 2.02773 0.0328469 0
M  V30 8514 C 826.359 1.38714 1.35912 0
M  V30 8515 O 825.634 0.525536 1.87266 0
M  V30 8516 C 825.917 3.59664 0.177088 0
M  V30 8517 C 825.77 4.34239 -1.17287 0
M  V30 8518 C 827.089 4.30505 0.913977 0
M  V30 8519 H 824.208 0.736926 0.0104631 0
M  V30 8520 H 826.85 1.781 -0.661851 0
M  V30 8521 H 825 3.80818 0.768774 0
M  V30 8522 H 826.672 4.24561 -1.80404 0
M  V30 8523 H 824.915 3.96486 -1.76016 0
M  V30 8524 H 825.586 5.42397 -1.02516 0
M  V30 8525 H 828.062 4.14054 0.412084 0
M  V30 8526 H 826.938 5.40012 0.983759 0
M  V30 8527 H 827.199 3.96302 1.95951 0
M  V30 8528 N 826.258 0.243083 1.55714 0
M  V30 8529 C 827.674 -0.111853 1.59208 0
M  V30 8530 C 827.874 -1.5723 1.2602 0
M  V30 8531 O 826.93 -2.31608 1.00569 0
M  V30 8532 C 828.243 0.233885 2.99789 0
M  V30 8533 C 829.791 0.177873 3.12494 0
M  V30 8534 C 830.266 0.49759 4.55289 0
M  V30 8535 N 831.757 0.447949 4.61029 0
M  V30 8536 C 832.492 0.668545 5.69489 0
M  V30 8537 N 831.988 0.952064 6.86227 0
M  V30 8538 N 833.781 0.599512 5.58894 0
M  V30 8539 H 825.932 1.19554 1.75558 0
M  V30 8540 H 828.195 0.480765 0.817049 0
M  V30 8541 H 827.901 1.24835 3.28799 0
M  V30 8542 H 827.775 -0.440846 3.74615 0
M  V30 8543 H 830.162 -0.827263 2.83267 0
M  V30 8544 H 830.243 0.886399 2.39951 0
M  V30 8545 H 829.887 1.50026 4.85237 0
M  V30 8546 H 829.817 -0.232371 5.26087 0
M  V30 8547 H 832.308 0.237388 3.77154 0
M  V30 8548 H 832.621 1.10791 7.64817 0
M  V30 8549 H 830.966 0.989496 6.8792 0
M  V30 8550 H 834.157 0.378088 4.66571 0
M  V30 8551 H 834.33 0.774828 6.43351 0
M  V30 8552 N 827.736 -1.57571 -0.0300757 0
M  V30 8553 C 829.013 -1.80381 -0.756447 0
M  V30 8554 C 829.393 -0.840906 -1.93628 0
M  V30 8555 O 828.741 0.117143 -2.282 0
M  V30 8556 C 828.951 -3.2807 -1.19043 0
M  V30 8557 C 830.299 -3.93025 -1.60676 0
M  V30 8558 O 831.323 -3.32213 -1.28503 0
M  V30 8559 O 830.182 -5.00092 -2.20386 0
M  V30 8560 H 827.276 -0.741737 -0.365725 0
M  V30 8561 H 829.822 -1.69699 -0.00693177 0
M  V30 8562 H 828.594 -3.89748 -0.348128 0
M  V30 8563 H 828.217 -3.43637 -1.99999 0
M  V30 8564 N 829.214 0.302327 -1.54673 0
M  V30 8565 C 830.144 1.37759 -1.88533 0
M  V30 8566 C 831.125 1.52961 -0.744113 0
M  V30 8567 O 832.31 1.6649 -0.999731 0
M  V30 8568 C 829.44 2.74201 -2.13146 0
M  V30 8569 C 828.394 2.73765 -3.28993 0
M  V30 8570 C 827.72 4.13483 -3.39022 0
M  V30 8571 C 829.02 2.35624 -4.66132 0
M  V30 8572 H 830.714 1.0967 -2.78591 0
M  V30 8573 H 828.26 0.52613 -1.34044 0
M  V30 8574 H 830.213 3.49508 -2.35419 0
M  V30 8575 H 828.937 3.03812 -1.19858 0
M  V30 8576 H 827.596 2.00914 -3.06642 0
M  V30 8577 H 827.244 4.40269 -2.43253 0
M  V30 8578 H 826.944 4.14093 -4.16894 0
M  V30 8579 H 828.468 4.90572 -3.63553 0
M  V30 8580 H 829.882 3.00647 -4.88143 0
M  V30 8581 H 828.279 2.47449 -5.46707 0
M  V30 8582 H 829.349 1.30753 -4.66939 0
M  V30 8583 N 830.692 1.47107 0.565454 0
M  V30 8584 C 831.622 1.61846 1.68309 0
M  V30 8585 C 832.603 0.468159 1.63531 0
M  V30 8586 O 833.788 0.696504 1.8128 0
M  V30 8587 C 830.918 1.62474 3.06952 0
M  V30 8588 C 829.872 2.76649 3.26572 0
M  V30 8589 C 829.198 2.62345 4.65917 0
M  V30 8590 C 830.498 4.18319 3.12741 0
M  V30 8591 H 832.192 2.55407 1.5623 0
M  V30 8592 H 829.738 1.22916 0.750179 0
M  V30 8593 H 831.691 1.71378 3.84977 0
M  V30 8594 H 830.415 0.654692 3.19971 0
M  V30 8595 H 829.074 2.67242 2.50952 0
M  V30 8596 H 828.722 1.63386 4.75725 0
M  V30 8597 H 828.422 3.38936 4.79996 0
M  V30 8598 H 829.946 2.73165 5.46089 0
M  V30 8599 H 831.36 4.28745 3.80593 0
M  V30 8600 H 829.757 4.95632 3.38333 0
M  V30 8601 H 830.827 4.37263 2.09592 0
M  V30 8602 N 832.17 -0.811516 1.35101 0
M  V30 8603 C 833.08 -1.95475 1.29718 0
M  V30 8604 C 834.096 -1.72813 0.202909 0
M  V30 8605 O 835.272 -1.96725 0.431414 0
M  V30 8606 C 832.337 -3.29975 1.06385 0
M  V30 8607 C 831.398 -3.65566 2.25077 0
M  V30 8608 C 830.631 -4.93648 2.02848 0
M  V30 8609 O 830.854 -5.617 0.992442 0
M  V30 8610 O 829.788 -5.27384 2.90087 0
M  V30 8611 H 833.614 -2.02961 2.25921 0
M  V30 8612 H 831.199 -0.948583 1.15422 0
M  V30 8613 H 833.081 -4.10506 0.951999 0
M  V30 8614 H 831.756 -3.2343 0.132294 0
M  V30 8615 H 830.663 -2.85432 2.41825 0
M  V30 8616 H 831.996 -3.7681 3.16662 0
M  V30 8617 N 833.648 -1.19017 -1.03309 0
M  V30 8618 C 834.894 -0.991681 -1.769 0
M  V30 8619 C 835.227 0.476813 -1.88255 0
M  V30 8620 O 834.502 1.35407 -1.39625 0
M  V30 8621 C 834.785 -1.65627 -3.19749 0
M  V30 8622 C 834.638 -3.19813 -3.1629 0
M  V30 8623 C 835.957 -1.37579 -4.18043 0
M  V30 8624 H 833.076 -0.361674 -0.642153 0
M  V30 8625 H 835.718 -1.46795 -1.20628 0
M  V30 8626 H 833.868 -1.25132 -3.67796 0
M  V30 8627 H 835.54 -3.69494 -2.76174 0
M  V30 8628 H 833.783 -3.51578 -2.54117 0
M  V30 8629 H 834.454 -3.61457 -4.17196 0
M  V30 8630 H 836.93 -1.72679 -3.78578 0
M  V30 8631 H 835.806 -1.86636 -5.16196 0
M  V30 8632 H 836.067 -0.300118 -4.4108 0
M  V30 8633 N 835.127 1.22348 -0.993418 0
M  V30 8634 C 836.355 1.95125 -0.688021 0
M  V30 8635 C 836.77 1.73377 0.747388 0
M  V30 8636 O 836.127 1.03317 1.50439 0
M  V30 8637 C 836.178 3.47819 -0.985097 0
M  V30 8638 O 835.899 3.68838 -2.3641 0
M  V30 8639 C 837.4 4.37779 -0.697474 0
M  V30 8640 H 834.62 0.62087 -0.254481 0
M  V30 8641 H 837.164 1.55485 -1.32833 0
M  V30 8642 H 835.319 3.85426 -0.390583 0
M  V30 8643 H 835.733 4.63032 -2.46377 0
M  V30 8644 H 837.207 5.43666 -0.955604 0
M  V30 8645 H 837.684 4.37651 0.368524 0
M  V30 8646 H 838.29 4.05799 -1.27306 0
M  V30 8647 N 836.605 0.766683 1.37694 0
M  V30 8648 C 837.83 0.338715 2.04615 0
M  V30 8649 C 838.255 -1.02918 1.57447 0
M  V30 8650 O 837.613 -1.65849 0.732386 0
M  V30 8651 C 837.661 0.385284 3.58536 0
M  V30 8652 O 836.765 -0.616081 4.07772 0
M  V30 8653 H 836.106 0.147527 0.647404 0
M  V30 8654 H 838.636 1.04146 1.7611 0
M  V30 8655 H 838.646 0.240782 4.07289 0
M  V30 8656 H 837.321 1.38325 3.92223 0
M  V30 8657 H 835.898 -0.435115 3.70353 0
M  V30 8658 N 838.083 -1.48885 0.516809 0
M  V30 8659 C 839.331 -2.02088 -0.0220166 0
M  V30 8660 C 839.652 -1.39735 -1.36011 0
M  V30 8661 O 838.922 -0.558119 -1.87781 0
M  V30 8662 H 837.502 -0.746917 -0.0111255 0
M  V30 8663 H 840.164 -1.8274 0.677647 0
M  V30 8664 H 839.26 -3.11786 -0.140067 0
M  V30 8665 N 839.561 -0.251338 -1.55583 0
M  V30 8666 C 840.491 0.640437 -2.24545 0
M  V30 8667 C 841.472 1.17781 -1.22726 0
M  V30 8668 O 842.657 1.21633 -1.5139 0
M  V30 8669 C 839.787 1.8355 -2.94834 0
M  V30 8670 C 838.741 1.4307 -4.03379 0
M  V30 8671 C 838.067 2.70695 -4.61116 0
M  V30 8672 C 839.367 0.59848 -5.1886 0
M  V30 8673 H 841.061 0.0653772 -2.99329 0
M  V30 8674 H 838.607 0.0300042 -1.43969 0
M  V30 8675 H 840.56 2.46505 -3.4178 0
M  V30 8676 H 839.284 2.43601 -2.17546 0
M  V30 8677 H 837.943 0.824474 -3.57209 0
M  V30 8678 H 837.591 3.28954 -3.80524 0
M  V30 8679 H 837.291 2.44332 -5.34393 0
M  V30 8680 H 838.815 3.34541 -5.10798 0
M  V30 8681 H 840.229 1.13244 -5.62004 0
M  V30 8682 H 838.626 0.430728 -5.98552 0
M  V30 8683 H 839.696 -0.38829 -4.83343 0
M  V30 8684 N 841.039 1.57585 0.0217189 0
M  V30 8685 C 842.288 1.88786 0.710125 0
M  V30 8686 C 842.601 0.850819 1.76126 0
M  V30 8687 O 843.807 1.0523 2.50277 0
M  V30 8688 C 842.263 3.3505 1.31413 0
M  V30 8689 C 841.871 4.47001 0.298959 0
M  V30 8690 C 843.615 3.7539 1.98199 0
M  V30 8691 C 841.522 5.8433 0.911727 0
M  V30 8692 H 840.452 0.704388 0.268986 0
M  V30 8693 H 843.103 1.83466 -0.0352638 0
M  V30 8694 H 841.485 3.35138 2.10947 0
M  V30 8695 H 842.659 4.58395 -0.470203 0
M  V30 8696 H 840.974 4.15542 -0.267222 0
M  V30 8697 H 843.571 4.75314 2.4491 0
M  V30 8698 H 843.914 3.07766 2.80331 0
M  V30 8699 H 844.447 3.77508 1.2543 0
M  V30 8700 H 841.186 6.55372 0.129659 0
M  V30 8701 H 840.706 5.76643 1.65056 0
M  V30 8702 H 842.385 6.31295 1.41688 0
M  V30 8703 N 842.517 -0.29412 1.54831 0
M  V30 8704 C 843.742 -1.05156 1.78765 0
M  V30 8705 C 844.167 -1.79916 0.548809 0
M  V30 8706 O 843.525 -1.74243 -0.500909 0
M  V30 8707 C 843.573 -2.00242 2.99893 0
M  V30 8708 O 842.677 -3.08662 2.73499 0
M  V30 8709 H 842.018 -0.301737 0.591482 0
M  V30 8710 H 844.548 -0.329449 2.0193 0
M  V30 8711 H 844.558 -2.42583 3.28051 0
M  V30 8712 H 843.233 -1.45235 3.89717 0
M  V30 8713 H 841.81 -2.70786 2.56377 0
M  V30 8714 N 843.995 -1.47404 -0.557645 0
M  V30 8715 C 845.272 -1.44488 -1.31843 0
M  V30 8716 C 845.652 -0.1416 -2.10625 0
M  V30 8717 O 845 0.876908 -2.11004 0
M  V30 8718 C 845.21 -2.69016 -2.22331 0
M  V30 8719 C 846.558 -3.16212 -2.83364 0
M  V30 8720 O 847.582 -2.69741 -2.32634 0
M  V30 8721 O 846.441 -3.96999 -3.75571 0
M  V30 8722 H 843.535 -0.57578 -0.593639 0
M  V30 8723 H 846.081 -1.59605 -0.576584 0
M  V30 8724 H 844.853 -3.55406 -1.63715 0
M  V30 8725 H 844.476 -2.56484 -3.03812 0
M  V30 8726 N 845.473 0.80434 -1.35529 0
M  V30 8727 C 846.75 1.5486 -1.1949 0
M  V30 8728 C 847.13 2.09897 0.22506 0
M  V30 8729 O 846.478 1.92643 1.22886 0
M  V30 8730 C 846.688 2.65535 -2.26478 0
M  V30 8731 C 848.036 3.33814 -2.62399 0
M  V30 8732 O 849.06 2.75807 -2.25409 0
M  V30 8733 O 847.919 4.38612 -3.26009 0
M  V30 8734 H 845.013 0.68433 -0.464351 0
M  V30 8735 H 847.559 0.844107 -1.47217 0
M  V30 8736 H 846.331 2.22754 -3.21709 0
M  V30 8737 H 845.954 3.43617 -2.00033 0
M  V30 8738 N 846.951 1.19563 1.02676 0
M  V30 8739 C 848.2 0.993864 1.75514 0
M  V30 8740 C 848.513 -0.475882 1.89723 0
M  V30 8741 O 849.719 -0.796525 2.59553 0
M  V30 8742 C 848.175 1.72937 3.15628 0
M  V30 8743 C 847.783 3.23937 3.09466 0
M  V30 8744 C 849.527 1.61092 3.92746 0
M  V30 8745 C 847.434 3.90067 4.44524 0
M  V30 8746 H 846.364 0.368244 0.657961 0
M  V30 8747 H 849.015 1.43081 1.14891 0
M  V30 8748 H 847.397 1.22025 3.76731 0
M  V30 8749 H 848.571 3.81983 2.57731 0
M  V30 8750 H 846.886 3.3608 2.45843 0
M  V30 8751 H 849.483 2.07848 4.92649 0
M  V30 8752 H 849.826 0.565415 4.12442 0
M  V30 8753 H 850.359 2.09361 3.3825 0
M  V30 8754 H 847.098 4.94725 4.30032 0
M  V30 8755 H 846.618 3.36809 4.96306 0
M  V30 8756 H 848.297 3.93736 5.13401 0
M  V30 8757 N 848.429 -1.21819 0.999893 0
M  V30 8758 C 849.678 -1.90066 0.675108 0
M  V30 8759 C 849.991 -1.78624 -0.79705 0
M  V30 8760 O 851.197 -2.41851 -1.23371 0
M  V30 8761 C 849.653 -3.40795 1.15702 0
M  V30 8762 C 849.261 -3.60859 2.6549 0
M  V30 8763 C 851.005 -4.147 0.906889 0
M  V30 8764 C 848.912 -5.05324 3.07248 0
M  V30 8765 H 847.842 -0.711763 0.248815 0
M  V30 8766 H 850.493 -1.3792 1.21038 0
M  V30 8767 H 848.875 -3.92164 0.549832 0
M  V30 8768 H 850.049 -3.19951 3.31614 0
M  V30 8769 H 848.364 -3.00298 2.88461 0
M  V30 8770 H 850.961 -5.21187 1.1945 0
M  V30 8771 H 851.304 -4.16004 -0.156923 0
M  V30 8772 H 851.837 -3.69379 1.47662 0
M  V30 8773 H 848.576 -5.09164 4.12834 0
M  V30 8774 H 848.096 -5.47108 2.45832 0
M  V30 8775 H 849.775 -5.73797 2.98941 0
M  V30 8776 N 849.908 -0.773975 -1.37286 0
M  V30 8777 C 850.856 -0.149581 -2.32119 0
M  V30 8778 C 851.85 0.682457 -1.55045 0
M  V30 8779 O 853.056 0.579269 -1.70424 0
M  V30 8780 H 849.431 -0.0295857 -0.751418 0
M  V30 8781 H 851.402 -0.965117 -2.82362 0
M  V30 8782 C 850.151 0.713409 -3.40302 0
M  V30 8783 H 849.474 0.0825416 -3.99715 0
M  V30 8784 H 850.914 1.11723 -4.09016 0
M  V30 8785 C 849.373 1.86498 -2.80571 0
M  V30 8786 O 849.903 2.9606 -2.71498 0
M  V30 8787 N 848.109 1.66629 -2.38082 0
M  V30 8788 H 847.656 0.775145 -2.45661 0
M  V30 8789 H 847.614 2.43845 -1.98461 0
M  V30 8790 N 851.386 1.48609 -0.524698 0
M  V30 8791 C 852.319 2.26374 0.288109 0
M  V30 8792 C 853.297 1.31997 0.949509 0
M  V30 8793 O 854.481 1.61329 0.974946 0
M  V30 8794 C 851.608 3.08065 1.4076 0
M  V30 8795 C 850.654 4.17777 0.858152 0
M  V30 8796 S 851.487 5.3482 -0.269827 0
M  V30 8797 C 852.643 6.2007 0.852266 0
M  V30 8798 H 852.876 2.94965 -0.371865 0
M  V30 8799 H 850.409 1.51248 -0.31039 0
M  V30 8800 H 852.367 3.5571 2.04892 0
M  V30 8801 H 851.028 2.38898 2.03928 0
M  V30 8802 H 850.221 4.74542 1.69783 0
M  V30 8803 H 849.823 3.72846 0.293627 0
M  V30 8804 H 852.115 6.54451 1.75213 0
M  V30 8805 H 853.058 7.07364 0.322717 0
M  V30 8806 H 853.466 5.53068 1.13029 0
M  V30 8807 N 852.864 0.259585 1.55447 0
M  V30 8808 C 854.28 -0.094961 1.59317 0
M  V30 8809 C 854.48 -1.55884 1.2768 0
M  V30 8810 O 853.536 -2.30528 1.0302 0
M  V30 8811 C 854.849 0.265669 2.99524 0
M  V30 8812 C 856.397 0.211007 3.12288 0
M  V30 8813 C 856.872 0.545851 4.54736 0
M  V30 8814 N 858.363 0.496823 4.60528 0
M  V30 8815 C 859.098 0.728909 5.68748 0
M  V30 8816 N 858.594 1.02479 6.85179 0
M  V30 8817 N 860.387 0.658756 5.58226 0
M  V30 8818 H 852.538 1.2141 1.7428 0
M  V30 8819 H 854.801 0.489404 0.811904 0
M  V30 8820 H 854.507 1.28316 3.27457 0
M  V30 8821 H 854.381 -0.401089 3.75061 0
M  V30 8822 H 856.768 -0.797172 2.84129 0
M  V30 8823 H 856.849 0.911799 2.38998 0
M  V30 8824 H 856.493 1.55164 4.83618 0
M  V30 8825 H 856.423 -0.17656 5.26304 0
M  V30 8826 H 858.914 0.277376 3.76881 0
M  V30 8827 H 859.227 1.18897 7.63599 0
M  V30 8828 H 857.572 1.0624 6.86832 0
M  V30 8829 H 860.763 0.427553 4.66143 0
M  V30 8830 H 860.936 0.84302 6.42493 0
M  V30 8831 N 854.342 -1.57594 -0.0133615 0
M  V30 8832 C 855.29 -2.08682 -1.02736 0
M  V30 8833 C 856.284 -1.00391 -1.36448 0
M  V30 8834 O 857.49 -1.18868 -1.35168 0
M  V30 8835 H 853.865 -0.666158 -0.34891 0
M  V30 8836 H 855.836 -2.9289 -0.570815 0
M  V30 8837 C 854.585 -2.5945 -2.31476 0
M  V30 8838 H 853.908 -3.42401 -2.06401 0
M  V30 8839 H 855.348 -2.98888 -3.00735 0
M  V30 8840 C 853.807 -1.50266 -3.01533 0
M  V30 8841 O 854.337 -0.877875 -3.9199 0
M  V30 8842 N 852.543 -1.23336 -2.63129 0
M  V30 8843 H 852.09 -1.74327 -1.89652 0
M  V30 8844 H 852.048 -0.504987 -3.10318 0
M  V30 8845 N 855.82 0.285905 -1.54985 0
M  V30 8846 C 857.097 1.0397 -1.65679 0
M  V30 8847 C 857.477 2.04725 -0.514851 0
M  V30 8848 O 856.825 2.23257 0.486663 0
M  V30 8849 C 857.035 1.70807 -3.04345 0
M  V30 8850 C 858.383 2.22447 -3.61666 0
M  V30 8851 O 859.407 1.80815 -3.06895 0
M  V30 8852 O 858.266 2.98773 -4.57599 0
M  V30 8853 H 855.36 0.481473 -0.672394 0
M  V30 8854 H 857.906 0.282789 -1.67327 0
M  V30 8855 H 856.678 0.977271 -3.789 0
M  V30 8856 H 856.301 2.53217 -3.06541 0
M  V30 8857 N 857.298 1.47698 0.54982 0
M  V30 8858 C 858.228 1.63622 1.66583 0
M  V30 8859 C 859.209 0.485477 1.63025 0
M  V30 8860 O 860.394 0.715692 1.80531 0
M  V30 8861 C 857.524 1.65721 3.05211 0
M  V30 8862 C 856.478 2.80097 3.2362 0
M  V30 8863 C 855.804 2.67272 4.63109 0
M  V30 8864 C 857.104 4.21612 3.08286 0
M  V30 8865 H 858.798 2.57049 1.53512 0
M  V30 8866 H 856.344 1.23705 0.737099 0
M  V30 8867 H 858.297 1.75451 3.83138 0
M  V30 8868 H 857.021 0.688593 3.19258 0
M  V30 8869 H 855.68 2.69889 2.48104 0
M  V30 8870 H 855.328 1.68422 4.73965 0
M  V30 8871 H 855.028 3.44008 4.76374 0
M  V30 8872 H 856.552 2.78942 5.43161 0
M  V30 8873 H 857.966 4.32758 3.76024 0
M  V30 8874 H 856.363 4.99193 3.33057 0
M  V30 8875 H 857.433 4.39462 2.04942 0
M  V30 8876 N 858.776 -0.797141 1.35954 0
M  V30 8877 C 860.006 -1.5835 1.32698 0
M  V30 8878 C 860.414 -1.88959 -0.0955298 0
M  V30 8879 O 859.757 -1.49987 -1.06064 0
M  V30 8880 C 859.819 -2.93529 2.0756 0
M  V30 8881 C 859.483 -2.85688 3.56695 0
M  V30 8882 C 860.48 -2.58467 4.51099 0
M  V30 8883 C 858.165 -3.04508 3.99475 0
M  V30 8884 C 860.159 -2.50157 5.8626 0
M  V30 8885 C 857.846 -2.9582 5.34728 0
M  V30 8886 C 858.844 -2.68681 6.27933 0
M  V30 8887 O 858.532 -2.59973 7.60703 0
M  V30 8888 H 858.264 -0.49807 0.457059 0
M  V30 8889 H 860.818 -0.997889 1.79531 0
M  V30 8890 H 859.048 -3.54111 1.55378 0
M  V30 8891 H 860.737 -3.54744 1.9726 0
M  V30 8892 H 861.503 -2.43638 4.19363 0
M  V30 8893 H 857.382 -3.24641 3.27306 0
M  V30 8894 H 860.926 -2.28894 6.58979 0
M  V30 8895 H 856.823 -3.10211 5.66074 0
M  V30 8896 H 857.591 -2.75511 7.70737 0
M  V30 8897 N 860.254 -1.20106 -1.0204 0
M  V30 8898 C 861.186 -0.904236 -2.10609 0
M  V30 8899 C 862.199 0.106487 -1.62451 0
M  V30 8900 O 863.388 -0.124035 -1.78069 0
M  V30 8901 C 860.488 -0.333423 -3.37256 0
M  V30 8902 C 859.661 -1.39476 -4.14566 0
M  V30 8903 C 858.72 -0.835961 -5.19517 0
M  V30 8904 O 857.746 -1.51573 -5.48648 0
M  V30 8905 N 858.948 0.356531 -5.79404 0
M  V30 8906 H 861.713 -1.8388 -2.36661 0
M  V30 8907 H 859.274 -1.10422 -1.184 0
M  V30 8908 H 861.266 0.0544571 -4.04663 0
M  V30 8909 H 859.836 0.505608 -3.08484 0
M  V30 8910 H 859.056 -1.95714 -3.42184 0
M  V30 8911 H 860.344 -2.10967 -4.63001 0
M  V30 8912 H 859.742 0.926143 -5.58067 0
M  V30 8913 H 858.299 0.686093 -6.48179 0
M  V30 8914 N 861.732 1.21287 -1.00634 0
M  V30 8915 C 862.96 1.94385 -0.708678 0
M  V30 8916 C 863.375 1.7416 0.728957 0
M  V30 8917 O 862.732 1.04906 1.49335 0
M  V30 8918 C 862.783 3.46755 -1.02193 0
M  V30 8919 O 862.504 3.6631 -2.40309 0
M  V30 8920 C 864.005 4.37014 -0.743867 0
M  V30 8921 H 861.225 0.618136 -0.261052 0
M  V30 8922 H 863.769 1.54067 -1.34475 0
M  V30 8923 H 861.924 3.8499 -0.431441 0
M  V30 8924 H 862.338 4.60393 -2.51274 0
M  V30 8925 H 863.812 5.42621 -1.01321 0
M  V30 8926 H 864.289 4.38017 0.322084 0
M  V30 8927 H 864.895 4.04426 -1.31603 0
M  V30 8928 N 863.21 0.781244 1.36873 0
M  V30 8929 C 864.621 0.414093 1.8205 0
M  V30 8930 C 864.972 -1.06098 1.65039 0
M  V30 8931 O 864.097 -1.82251 1.16677 0
M  V30 8932 C 864.692 0.744837 3.30511 0
M  V30 8933 C 863.251 0.430621 3.73929 0
M  V30 8934 C 862.398 0.983746 2.59264 0
M  V30 8935 H 865.349 0.975091 1.2521 0
M  V30 8936 H 865.37 0.032936 3.80486 0
M  V30 8937 H 864.882 1.81847 3.42861 0
M  V30 8938 H 862.983 -0.635308 3.67144 0
M  V30 8939 H 863.096 0.945514 4.69677 0
M  V30 8940 H 861.46 0.407433 2.5142 0
M  V30 8941 H 862.243 2.06297 2.74402 0
M  V30 8942 N 864.689 -1.48329 0.532571 0
M  V30 8943 C 865.619 -2.32485 -0.217511 0
M  V30 8944 C 866.6 -1.42255 -0.932598 0
M  V30 8945 O 867.785 -1.7114 -0.917873 0
M  V30 8946 C 864.915 -3.23509 -1.26329 0
M  V30 8947 C 863.869 -4.22784 -0.666191 0
M  V30 8948 C 863.195 -5.0296 -1.81482 0
M  V30 8949 C 864.495 -5.21031 0.363813 0
M  V30 8950 H 866.189 -2.95445 0.485014 0
M  V30 8951 H 863.735 -1.42075 0.234694 0
M  V30 8952 H 865.688 -3.81211 -1.79601 0
M  V30 8953 H 864.412 -2.58554 -1.99543 0
M  V30 8954 H 863.071 -3.66272 -0.15498 0
M  V30 8955 H 862.719 -4.34427 -2.5354 0
M  V30 8956 H 862.419 -5.70154 -1.4212 0
M  V30 8957 H 863.943 -5.63514 -2.35126 0
M  V30 8958 H 865.357 -5.73241 -0.0819079 0
M  V30 8959 H 863.754 -5.96292 0.674956 0
M  V30 8960 H 864.824 -4.6801 1.26865 0
M  V30 8961 N 866.167 -0.267825 -1.55308 0
M  V30 8962 C 867.117 0.637168 -2.18916 0
M  V30 8963 C 868.101 1.12381 -1.15149 0
M  V30 8964 O 869.293 1.0701 -1.40989 0
M  V30 8965 C 866.422 1.82423 -2.90821 0
M  V30 8966 C 865.508 1.35512 -4.01867 0
M  V30 8967 N 865.899 0.601644 -5.02209 0
M  V30 8968 C 864.197 1.63868 -4.14805 0
M  V30 8969 C 864.898 0.35596 -5.8061 0
M  V30 8970 N 863.874 0.926271 -5.3565 0
M  V30 8971 H 867.676 0.0535787 -2.93851 0
M  V30 8972 H 865.19 -0.0710577 -1.62244 0
M  V30 8973 H 867.187 2.48379 -3.34834 0
M  V30 8974 H 865.847 2.41185 -2.17394 0
M  V30 8975 H 866.858 0.249693 -5.17298 0
M  V30 8976 H 863.535 2.23618 -3.52564 0
M  V30 8977 H 864.925 -0.246994 -6.71446 0
M  V30 8978 N 867.645 1.57599 0.00500368 0
M  V30 8979 C 868.575 2.11143 0.99705 0
M  V30 8980 C 869.556 1.0194 1.3617 0
M  V30 8981 O 870.741 1.29596 1.44632 0
M  V30 8982 C 867.871 2.61062 2.2905 0
M  V30 8983 C 866.825 3.74745 2.0676 0
M  V30 8984 C 866.151 4.10961 3.42075 0
M  V30 8985 C 867.451 5.02222 1.43424 0
M  V30 8986 H 869.145 2.94281 0.551251 0
M  V30 8987 H 866.691 1.41565 0.263715 0
M  V30 8988 H 868.644 2.97146 2.98801 0
M  V30 8989 H 867.368 1.75038 2.75734 0
M  V30 8990 H 866.027 3.39047 1.39436 0
M  V30 8991 H 865.675 3.21968 3.86453 0
M  V30 8992 H 865.375 4.87549 3.27979 0
M  V30 8993 H 866.899 4.49599 4.1315 0
M  V30 8994 H 868.313 5.36109 2.03125 0
M  V30 8995 H 866.71 5.83581 1.39831 0
M  V30 8996 H 867.78 4.83224 0.40285 0
M  V30 8997 N 869.123 -0.277682 1.55134 0
M  V30 8998 C 870.086 -1.32635 1.86924 0
M  V30 8999 C 871.086 -1.42578 0.743507 0
M  V30 9000 O 872.276 -1.4181 1.01171 0
M  V30 9001 C 869.408 -2.70832 2.07034 0
M  V30 9002 H 870.601 -1.0568 2.80663 0
M  V30 9003 H 868.154 -0.515517 1.47554 0
M  V30 9004 H 868.889 -3.02974 1.15661 0
M  V30 9005 H 868.674 -2.65001 2.88993 0
M  V30 9006 H 870.164 -3.46611 2.32918 0
M  V30 9007 N 870.601 -1.47988 -0.541979 0
M  V30 9008 C 871.847 -1.55623 -1.30036 0
M  V30 9009 C 872.18 -0.224254 -1.92901 0
M  V30 9010 O 871.455 0.768629 -1.78668 0
M  V30 9011 C 871.738 -2.68562 -2.39888 0
M  V30 9012 C 871.591 -4.11426 -1.81792 0
M  V30 9013 C 872.91 -2.77325 -3.41729 0
M  V30 9014 H 870.029 -0.566498 -0.471433 0
M  V30 9015 H 872.671 -1.8011 -0.604998 0
M  V30 9016 H 870.821 -2.47814 -2.992 0
M  V30 9017 H 872.493 -4.43581 -1.26624 0
M  V30 9018 H 870.736 -4.18989 -1.12386 0
M  V30 9019 H 871.407 -4.8625 -2.61276 0
M  V30 9020 H 873.883 -2.96085 -2.92357 0
M  V30 9021 H 872.759 -3.58097 -4.16002 0
M  V30 9022 H 873.02 -1.84995 -4.01534 0
M  V30 9023 N 872.079 0.78992 -1.36375 0
M  V30 9024 C 873.328 1.54296 -1.29906 0
M  V30 9025 C 873.641 1.95234 0.119651 0
M  V30 9026 O 874.847 2.69762 0.306708 0
M  V30 9027 C 873.303 2.78533 -2.27919 0
M  V30 9028 C 872.911 2.44767 -3.75224 0
M  V30 9029 C 874.655 3.56516 -2.30427 0
M  V30 9030 C 872.562 3.65397 -4.65015 0
M  V30 9031 H 871.492 0.579214 -0.482729 0
M  V30 9032 H 874.143 0.866845 -1.61735 0
M  V30 9033 H 872.525 3.47941 -1.89084 0
M  V30 9034 H 873.699 1.83259 -4.22792 0
M  V30 9035 H 872.014 1.79996 -3.75487 0
M  V30 9036 H 874.611 4.46143 -2.94722 0
M  V30 9037 H 874.954 3.95063 -1.31266 0
M  V30 9038 H 875.487 2.94087 -2.67876 0
M  V30 9039 H 872.226 3.31946 -5.65236 0
M  V30 9040 H 871.746 4.26072 -4.22164 0
M  V30 9041 H 873.425 4.32431 -4.81261 0
M  V30 9042 N 873.557 1.20646 1.01402 0
M  V30 9043 C 874.785 1.04389 1.78635 0
M  V30 9044 C 875.2 -0.406771 1.84366 0
M  V30 9045 O 874.557 -1.28239 1.2985 0
M  V30 9046 C 874.608 1.62378 3.22979 0
M  V30 9047 O 874.329 3.01768 3.17597 0
M  V30 9048 C 875.83 1.5111 4.1675 0
M  V30 9049 H 873.05 0.367077 0.56169 0
M  V30 9050 H 875.594 1.59789 1.27624 0
M  V30 9051 H 873.749 1.11092 3.7113 0
M  V30 9052 H 874.163 3.29331 4.08217 0
M  V30 9053 H 875.637 1.96441 5.15863 0
M  V30 9054 H 876.114 0.464011 4.36742 0
M  V30 9055 H 876.72 2.01599 3.74483 0
M  V30 9056 N 875.035 -1.20752 1.01276 0
M  V30 9057 C 875.982 -2.234 0.579732 0
M  V30 9058 C 876.952 -1.61256 -0.398206 0
M  V30 9059 O 878.137 -1.8845 -0.29851 0
M  V30 9060 C 875.277 -3.45008 -0.0797006 0
M  V30 9061 C 874.39 -4.21597 0.942343 0
M  V30 9062 C 873.525 -5.30591 0.254364 0
M  V30 9063 C 872.564 -5.98919 1.26343 0
M  V30 9064 N 871.701 -6.99511 0.602384 0
M  V30 9065 H 876.541 -2.59801 1.45971 0
M  V30 9066 H 874.078 -1.27663 0.730787 0
M  V30 9067 H 876.036 -4.1444 -0.479125 0
M  V30 9068 H 874.666 -3.09312 -0.923354 0
M  V30 9069 H 873.718 -3.51268 1.45996 0
M  V30 9070 H 875.03 -4.68576 1.70992 0
M  V30 9071 H 874.184 -6.06368 -0.200763 0
M  V30 9072 H 872.923 -4.84639 -0.545553 0
M  V30 9073 H 871.928 -5.21906 1.72898 0
M  V30 9074 H 873.153 -6.46957 2.06456 0
M  V30 9075 H 871.099 -6.55759 -0.177734 0
M  V30 9076 H 871.016 -7.44597 1.30809 0
M  V30 9077 H 872.284 -7.79313 0.17072 0
M  V30 9078 N 876.513 -0.788492 -1.36457 0
M  V30 9079 C 877.445 -0.144208 -2.28746 0
M  V30 9080 C 878.458 0.646009 -1.49434 0
M  V30 9081 O 879.647 0.481344 -1.71888 0
M  V30 9082 C 876.747 0.818869 -3.28858 0
M  V30 9083 C 875.92 0.0789055 -4.37329 0
M  V30 9084 C 874.979 0.957791 -5.1741 0
M  V30 9085 O 874.005 0.415378 -5.67682 0
M  V30 9086 N 875.207 2.28216 -5.33758 0
M  V30 9087 H 877.972 -0.936949 -2.84678 0
M  V30 9088 H 875.533 -0.642317 -1.48613 0
M  V30 9089 H 877.525 1.41065 -3.79319 0
M  V30 9090 H 876.095 1.51249 -2.73573 0
M  V30 9091 H 875.315 -0.693939 -3.88044 0
M  V30 9092 H 876.603 -0.431753 -5.06965 0
M  V30 9093 H 876.001 2.747 -4.94527 0
M  V30 9094 H 874.558 2.8236 -5.87466 0
M  V30 9095 N 877.991 1.48044 -0.54043 0
M  V30 9096 C 878.901 2.33565 0.220163 0
M  V30 9097 C 879.917 1.47146 0.928659 0
M  V30 9098 O 881.093 1.80107 0.901295 0
M  V30 9099 C 878.158 3.2349 1.2472 0
M  V30 9100 C 877.219 4.25789 0.547938 0
M  V30 9101 C 876.452 5.11417 1.52605 0
M  V30 9102 O 876.675 4.99204 2.75956 0
M  V30 9103 O 875.609 5.92498 1.05972 0
M  V30 9104 H 879.435 2.99868 -0.480898 0
M  V30 9105 H 877.02 1.46332 -0.301226 0
M  V30 9106 H 878.902 3.79084 1.84047 0
M  V30 9107 H 877.577 2.59835 1.93048 0
M  V30 9108 H 876.484 3.74001 -0.0860941 0
M  V30 9109 H 877.817 4.92111 -0.0935896 0
M  V30 9110 N 879.47 0.276058 1.55163 0
M  V30 9111 C 880.747 -0.392292 1.91626 0
M  V30 9112 C 881.127 -1.73646 1.20043 0
M  V30 9113 O 880.475 -2.26139 0.327606 0
M  V30 9114 C 880.685 -0.531641 3.44927 0
M  V30 9115 C 882.033 -0.8141 4.16722 0
M  V30 9116 O 883.057 -0.616413 3.50826 0
M  V30 9117 O 881.916 -1.19224 5.33337 0
M  V30 9118 H 879.01 -0.214945 0.798579 0
M  V30 9119 H 881.556 0.32228 1.66612 0
M  V30 9120 H 880.328 0.414282 3.89101 0
M  V30 9121 H 879.951 -1.29564 3.75897 0
M  V30 9122 N 880.948 -1.576 0.00335426 0
M  V30 9123 C 882.194 -1.90996 -0.681799 0
M  V30 9124 C 882.527 -0.877643 -1.73237 0
M  V30 9125 O 881.802 0.103183 -1.94226 0
M  V30 9126 C 882.085 -3.34961 -1.32187 0
M  V30 9127 C 881.938 -4.48911 -0.28261 0
M  V30 9128 C 883.257 -3.78408 -2.24711 0
M  V30 9129 H 880.376 -0.694596 -0.246386 0
M  V30 9130 H 883.018 -1.89919 0.055336 0
M  V30 9131 H 881.168 -3.36008 -1.95014 0
M  V30 9132 H 882.84 -4.59999 0.346241 0
M  V30 9133 H 881.083 -4.32 0.394768 0
M  V30 9134 H 881.754 -5.46609 -0.769576 0
M  V30 9135 H 884.23 -3.78934 -1.71897 0
M  V30 9136 H 883.106 -4.79885 -2.66461 0
M  V30 9137 H 883.367 -3.12464 -3.1276 0
M  V30 9138 N 882.426 0.269451 -1.5528 0
M  V30 9139 C 883.672 1.00206 -1.76314 0
M  V30 9140 C 884.005 1.85812 -0.564581 0
M  V30 9141 O 883.28 1.89509 0.437769 0
M  V30 9142 C 883.563 1.88163 -3.07029 0
M  V30 9143 C 883.416 1.05527 -4.37246 0
M  V30 9144 C 884.735 2.8681 -3.33808 0
M  V30 9145 H 881.854 0.36288 -0.641473 0
M  V30 9146 H 884.496 0.274188 -1.88011 0
M  V30 9147 H 882.646 2.50224 -2.97187 0
M  V30 9148 H 884.318 0.455094 -4.5905 0
M  V30 9149 H 882.561 0.358842 -4.32313 0
M  V30 9150 H 883.232 1.70397 -5.25042 0
M  V30 9151 H 885.708 2.34884 -3.43466 0
M  V30 9152 H 884.584 3.45492 -4.26528 0
M  V30 9153 H 884.845 3.62118 -2.5362 0
M  V30 9154 N 883.904 1.48273 0.534124 0
M  V30 9155 C 884.814 1.65162 1.66609 0
M  V30 9156 C 885.83 0.534177 1.65598 0
M  V30 9157 O 887.006 0.804715 1.84625 0
M  V30 9158 C 884.071 1.68354 3.03081 0
M  V30 9159 C 883.132 2.91696 3.1498 0
M  V30 9160 C 882.365 2.94725 4.44941 0
M  V30 9161 O 882.588 2.06285 5.31792 0
M  V30 9162 O 881.522 3.8685 4.61119 0
M  V30 9163 H 885.348 2.60991 1.55298 0
M  V30 9164 H 882.933 1.31626 0.706749 0
M  V30 9165 H 884.815 1.72998 3.84252 0
M  V30 9166 H 883.49 0.756978 3.14725 0
M  V30 9167 H 882.397 2.92586 2.33119 0
M  V30 9168 H 883.73 3.83722 3.0825 0
M  V30 9169 N 885.382 -0.782676 1.36792 0
M  V30 9170 C 886.659 -1.52939 1.21939 0
M  V30 9171 C 887.039 -2.10228 -0.191639 0
M  V30 9172 O 886.387 -1.94574 -1.19805 0
M  V30 9173 C 886.597 -2.61898 2.30674 0
M  V30 9174 C 887.945 -3.29598 2.67676 0
M  V30 9175 O 888.969 -2.72186 2.29768 0
M  V30 9176 O 887.828 -4.3337 3.32946 0
M  V30 9177 H 884.922 -0.676856 0.47518 0
M  V30 9178 H 887.468 -0.82058 1.48542 0
M  V30 9179 H 886.24 -2.17607 3.25212 0
M  V30 9180 H 885.863 -3.40391 2.05475 0
M  V30 9181 N 886.86 -1.21182 -1.00761 0
M  V30 9182 C 887.79 -0.992773 -2.11344 0
M  V30 9183 C 888.771 0.0813618 -1.69905 0
M  V30 9184 O 889.956 -0.0779503 -1.94043 0
M  V30 9185 C 887.086 -0.553826 -3.42856 0
M  V30 9186 C 886.04 -1.57223 -3.98077 0
M  V30 9187 C 885.366 -0.989605 -5.25463 0
M  V30 9188 C 886.666 -2.95839 -4.30438 0
M  V30 9189 H 888.36 -1.91766 -2.29927 0
M  V30 9190 H 885.906 -0.923426 -1.10494 0
M  V30 9191 H 887.859 -0.387771 -4.19612 0
M  V30 9192 H 886.583 0.406702 -3.24058 0
M  V30 9193 H 885.242 -1.7258 -3.23437 0
M  V30 9194 H 884.89 -0.0208743 -5.02996 0
M  V30 9195 H 884.59 -1.66984 -5.63374 0
M  V30 9196 H 886.114 -0.834815 -6.04866 0
M  V30 9197 H 887.528 -2.8394 -4.98047 0
M  V30 9198 H 885.925 -3.60851 -4.79486 0
M  V30 9199 H 886.995 -3.46882 -3.38823 0
M  V30 9200 N 888.338 1.20213 -1.01915 0
M  V30 9201 C 889.268 2.25336 -0.612023 0
M  V30 9202 C 890.249 1.65933 0.374186 0
M  V30 9203 O 891.434 1.92464 0.259053 0
M  V30 9204 C 888.564 3.47267 0.047904 0
M  V30 9205 C 887.518 4.1928 -0.859557 0
M  V30 9206 C 886.844 5.3466 -0.0652655 0
M  V30 9207 C 888.144 4.75143 -2.1688 0
M  V30 9208 H 889.838 2.59645 -1.49079 0
M  V30 9209 H 887.384 1.24808 -0.718263 0
M  V30 9210 H 889.337 4.19991 0.344294 0
M  V30 9211 H 888.061 3.12129 0.961404 0
M  V30 9212 H 886.72 3.48425 -1.13999 0
M  V30 9213 H 886.368 4.95767 0.849964 0
M  V30 9214 H 886.068 5.83772 -0.669618 0
M  V30 9215 H 887.592 6.10187 0.224612 0
M  V30 9216 H 889.006 5.39672 -1.9346 0
M  V30 9217 H 887.403 5.34702 -2.72422 0
M  V30 9218 H 888.473 3.93744 -2.83008 0
M  V30 9219 N 889.816 0.795718 1.36037 0
M  V30 9220 C 891.232 0.478145 1.52269 0
M  V30 9221 C 891.432 -1.0025 1.74792 0
M  V30 9222 O 890.488 -1.78783 1.78305 0
M  V30 9223 C 891.801 1.31406 2.70468 0
M  V30 9224 C 893.349 1.3084 2.84341 0
M  V30 9225 C 893.824 2.12819 4.05551 0
M  V30 9226 N 895.315 2.10298 4.12709 0
M  V30 9227 C 896.05 2.70495 5.05589 0
M  V30 9228 N 895.546 3.39576 6.03871 0
M  V30 9229 N 897.339 2.60195 4.98252 0
M  V30 9230 H 889.49 1.75477 1.19673 0
M  V30 9231 H 891.753 0.74627 0.584624 0
M  V30 9232 H 891.459 2.36435 2.60368 0
M  V30 9233 H 891.333 0.959726 3.64786 0
M  V30 9234 H 893.72 0.266003 2.93899 0
M  V30 9235 H 893.801 1.70254 1.90912 0
M  V30 9236 H 893.445 3.17093 3.96755 0
M  V30 9237 H 893.375 1.70772 4.98141 0
M  V30 9238 H 895.866 1.60026 3.42345 0
M  V30 9239 H 896.179 3.82823 6.71317 0
M  V30 9240 H 894.524 3.43679 6.04077 0
M  V30 9241 H 897.715 2.05823 4.20422 0
M  V30 9242 H 897.888 3.074 5.70447 0
M  V30 9243 N 891.294 -1.47756 0.548274 0
M  V30 9244 C 892.257 -2.28379 -0.193857 0
M  V30 9245 C 893.257 -1.36436 -0.850986 0
M  V30 9246 O 894.447 -1.59154 -0.70822 0
M  V30 9247 C 891.579 -3.15858 -1.28243 0
M  V30 9248 H 892.772 -2.95458 0.514231 0
M  V30 9249 H 890.325 -1.53298 0.304879 0
M  V30 9250 H 891.06 -2.5345 -2.0232 0
M  V30 9251 H 890.845 -3.83512 -0.816148 0
M  V30 9252 H 892.335 -3.76627 -1.80393 0
M  V30 9253 N 892.772 -0.284283 -1.55015 0
M  V30 9254 C 894.02 0.329212 -1.99401 0
M  V30 9255 C 894.341 1.55687 -1.17416 0
M  V30 9256 O 893.611 1.94087 -0.265937 0
M  V30 9257 H 892.191 0.12463 -0.73653 0
M  V30 9258 H 894.853 -0.391743 -1.90922 0
M  V30 9259 H 893.949 0.61278 -3.06025 0
M  V30 9260 N 894.251 1.57596 -0.0117121 0
M  V30 9261 C 895.214 2.08089 0.960816 0
M  V30 9262 C 896.214 0.992519 1.26514 0
M  V30 9263 O 897.404 1.25475 1.20837 0
M  V30 9264 C 894.536 2.53217 2.28241 0
M  V30 9265 H 895.729 2.9529 0.523829 0
M  V30 9266 H 893.282 1.54508 0.235995 0
M  V30 9267 H 894.017 1.69294 2.76604 0
M  V30 9268 H 893.802 3.32714 2.0747 0
M  V30 9269 H 895.292 2.92568 2.97983 0
M  V30 9270 N 895.729 -0.261212 1.5542 0
M  V30 9271 C 897.006 -1.01321 1.67312 0
M  V30 9272 C 897.386 -2.0388 0.547356 0
M  V30 9273 O 896.734 -2.24003 -0.451083 0
M  V30 9274 C 896.944 -1.65943 3.07024 0
M  V30 9275 C 898.292 -2.16666 3.65159 0
M  V30 9276 O 899.316 -1.75909 3.09733 0
M  V30 9277 O 898.175 -2.91455 4.62294 0
M  V30 9278 H 895.269 -0.470714 0.679968 0
M  V30 9279 H 897.815 -0.256133 1.67756 0
M  V30 9280 H 896.587 -0.916868 3.80407 0
M  V30 9281 H 896.21 -2.48308 3.1053 0
M  V30 9282 N 897.207 -1.48554 -0.526253 0
M  V30 9283 C 898.137 -1.66252 -1.63959 0
M  V30 9284 C 899.118 -0.511351 -1.62232 0
M  V30 9285 O 900.303 -0.744322 -1.7937 0
M  V30 9286 C 897.433 -1.70556 -3.02536 0
M  V30 9287 C 896.387 -2.8521 -3.19123 0
M  V30 9288 C 895.713 -2.74606 -4.58798 0
M  V30 9289 C 897.013 -4.26463 -3.0154 0
M  V30 9290 H 898.707 -2.59459 -1.49404 0
M  V30 9291 H 896.253 -1.24862 -0.717326 0
M  V30 9292 H 898.206 -1.81524 -3.80298 0
M  V30 9293 H 896.93 -0.739297 -3.18123 0
M  V30 9294 H 895.589 -2.73802 -2.43779 0
M  V30 9295 H 895.237 -1.75941 -4.71226 0
M  V30 9296 H 894.937 -3.51544 -4.70841 0
M  V30 9297 H 896.461 -2.87548 -5.38655 0
M  V30 9298 H 897.875 -4.38685 -3.69091 0
M  V30 9299 H 896.272 -5.04428 -3.25073 0
M  V30 9300 H 897.342 -4.42667 -1.97925 0
M  V30 9301 N 898.685 0.775411 -1.37205 0
M  V30 9302 C 899.91 1.5696 -1.35567 0
M  V30 9303 C 900.335 1.88012 0.0575554 0
M  V30 9304 O 899.693 1.48954 1.03355 0
M  V30 9305 C 899.741 2.85886 -2.19776 0
M  V30 9306 O 898.845 3.80103 -1.59987 0
M  V30 9307 H 898.186 0.475583 -0.463375 0
M  V30 9308 H 900.716 0.96001 -1.80679 0
M  V30 9309 H 900.726 3.35024 -2.32859 0
M  V30 9310 H 899.401 2.62613 -3.22502 0
M  V30 9311 H 897.978 3.38736 -1.55924 0
M  V30 9312 N 900.163 1.21714 1.00117 0
M  V30 9313 C 901.093 1.00397 2.10815 0
M  V30 9314 C 902.074 -0.0723502 1.69946 0
M  V30 9315 O 903.259 0.0882398 1.93999 0
M  V30 9316 C 900.389 0.572001 3.42557 0
M  V30 9317 C 899.343 1.59331 3.97237 0
M  V30 9318 C 898.669 1.01746 5.2493 0
M  V30 9319 C 899.969 2.98117 4.28863 0
M  V30 9320 H 901.663 1.92983 2.28906 0
M  V30 9321 H 899.209 0.929273 1.10002 0
M  V30 9322 H 901.162 0.410018 4.19401 0
M  V30 9323 H 899.886 -0.38951 3.24269 0
M  V30 9324 H 898.545 1.74293 3.22518 0
M  V30 9325 H 898.193 0.0475491 5.02978 0
M  V30 9326 H 897.893 1.69969 5.62481 0
M  V30 9327 H 899.417 0.866881 6.04415 0
M  V30 9328 H 900.831 2.86578 4.96534 0
M  V30 9329 H 899.228 3.63389 4.77565 0
M  V30 9330 H 900.298 3.48674 3.36979 0
M  V30 9331 N 901.641 -1.19671 1.02551 0
M  V30 9332 C 902.571 -2.25009 0.623965 0
M  V30 9333 C 903.552 -1.66129 -0.36538 0
M  V30 9334 O 904.737 -1.92599 -0.248842 0
M  V30 9335 C 901.867 -3.47287 -0.0294869 0
M  V30 9336 C 900.821 -4.18818 0.881781 0
M  V30 9337 C 900.147 -5.34618 0.0936189 0
M  V30 9338 C 901.447 -4.73986 2.19396 0
M  V30 9339 H 903.141 -2.58851 1.50454 0
M  V30 9340 H 900.687 -1.24425 0.724872 0
M  V30 9341 H 902.64 -4.20168 -0.322016 0
M  V30 9342 H 901.364 -3.12635 -0.944838 0
M  V30 9343 H 900.023 -3.47815 1.15845 0
M  V30 9344 H 899.671 -4.9621 -0.823661 0
M  V30 9345 H 899.371 -5.83409 0.700568 0
M  V30 9346 H 900.895 -6.10297 -0.192249 0
M  V30 9347 H 902.309 -5.38639 1.96319 0
M  V30 9348 H 900.706 -5.3325 2.75254 0
M  V30 9349 H 901.776 -3.92238 2.85092 0
M  V30 9350 N 903.119 -0.802921 -1.35613 0
M  V30 9351 C 904.396 -0.304993 -1.93208 0
M  V30 9352 C 904.776 1.20488 -1.73337 0
M  V30 9353 O 904.124 2.00268 -1.10022 0
M  V30 9354 C 904.334 -0.712383 -3.41652 0
M  V30 9355 C 905.682 -0.699785 -4.18794 0
M  V30 9356 O 906.706 -0.653698 -3.5015 0
M  V30 9357 O 905.565 -0.754842 -5.41262 0
M  V30 9358 H 902.659 -0.0789127 -0.823226 0
M  V30 9359 H 905.205 -0.886372 -1.44712 0
M  V30 9360 H 903.977 -1.75316 -3.49829 0
M  V30 9361 H 903.6 -0.105614 -3.9746 0
M  V30 9362 N 904.597 1.47463 -0.556102 0
M  V30 9363 C 906.013 1.58134 -0.21579 0
M  V30 9364 C 906.213 1.55486 1.28166 0
M  V30 9365 O 905.269 1.45768 2.06174 0
M  V30 9366 C 906.582 2.88686 -0.841464 0
M  V30 9367 C 908.13 3.02268 -0.812591 0
M  V30 9368 C 908.605 4.35518 -1.41731 0
M  V30 9369 N 910.096 4.42151 -1.38045 0
M  V30 9370 C 910.831 5.43817 -1.81799 0
M  V30 9371 N 910.327 6.52299 -2.33404 0
M  V30 9372 N 912.12 5.34855 -1.72877 0
M  V30 9373 H 904.271 1.47428 -1.52901 0
M  V30 9374 H 906.534 0.701586 -0.637559 0
M  V30 9375 H 906.24 2.96358 -1.8938 0
M  V30 9376 H 906.114 3.7572 -0.333846 0
M  V30 9377 H 908.501 2.94194 0.231056 0
M  V30 9378 H 908.582 2.16779 -1.35796 0
M  V30 9379 H 908.226 4.44348 -2.46002 0
M  V30 9380 H 908.156 5.19737 -0.847402 0
M  V30 9381 H 910.647 3.64348 -1.00296 0
M  V30 9382 H 910.96 7.26047 -2.64717 0
M  V30 9383 H 909.305 6.53192 -2.37414 0
M  V30 9384 H 912.496 4.49004 -1.32338 0
M  V30 9385 H 912.669 6.13949 -2.07294 0
M  V30 9386 N 906.075 0.2925 1.54862 0
M  V30 9387 C 907.005 -0.580677 2.26165 0
M  V30 9388 C 907.986 -1.14485 1.25806 0
M  V30 9389 O 909.171 -1.17577 1.54562 0
M  V30 9390 C 906.301 -1.75668 2.99596 0
M  V30 9391 C 905.255 -1.32325 4.07031 0
M  V30 9392 C 904.581 -2.58374 4.68131 0
M  V30 9393 C 905.881 -0.460703 5.20264 0
M  V30 9394 H 907.575 0.0140075 2.99397 0
M  V30 9395 H 905.121 0.00817706 1.43998 0
M  V30 9396 H 907.074 -2.37356 3.48195 0
M  V30 9397 H 905.798 -2.37747 2.23928 0
M  V30 9398 H 904.457 -0.729477 3.59269 0
M  V30 9399 H 904.105 -3.18749 3.89112 0
M  V30 9400 H 903.805 -2.30078 5.40683 0
M  V30 9401 H 905.329 -3.2088 5.19489 0
M  V30 9402 H 906.743 -0.983037 5.64809 0
M  V30 9403 H 905.14 -0.271881 5.99484 0
M  V30 9404 H 906.21 0.516304 4.82143 0
M  V30 9405 N 907.553 -1.57587 0.0200696 0
M  V30 9406 C 908.801 -1.91046 -0.65922 0
M  V30 9407 C 909.122 -0.896197 -1.73186 0
M  V30 9408 O 908.392 0.0635952 -1.95797 0
M  V30 9409 H 906.972 -0.705163 -0.246483 0
M  V30 9410 H 909.634 -1.94789 0.0657368 0
M  V30 9411 H 908.73 -2.91399 -1.11773 0
M  V30 9412 N 909.032 0.252966 -1.55557 0
M  V30 9413 C 909.98 1.33289 -1.90622 0
M  V30 9414 C 910.974 1.50133 -0.784638 0
M  V30 9415 O 912.18 1.51679 -0.969196 0
M  V30 9416 H 908.555 0.446196 -0.605321 0
M  V30 9417 H 910.526 1.00977 -2.80796 0
M  V30 9418 C 909.275 2.68254 -2.21213 0
M  V30 9419 H 908.598 2.5609 -3.07014 0
M  V30 9420 H 910.038 3.42707 -2.49656 0
M  V30 9421 C 908.497 3.20884 -1.02642 0
M  V30 9422 O 909.027 4.00783 -0.271292 0
M  V30 9423 N 907.233 2.7883 -0.818682 0
M  V30 9424 H 906.78 2.13966 -1.43444 0
M  V30 9425 H 906.738 3.14388 -0.0269989 0
M  V30 9426 N 910.51 1.48831 0.518367 0
M  V30 9427 C 911.735 1.61379 1.30275 0
M  V30 9428 C 912.16 0.278571 1.86026 0
M  V30 9429 O 911.518 -0.751427 1.64995 0
M  V30 9430 C 911.566 2.67225 2.42122 0
M  V30 9431 O 910.67 2.25192 3.45489 0
M  V30 9432 H 910.011 0.540742 0.385349 0
M  V30 9433 H 912.541 1.949 0.622498 0
M  V30 9434 H 912.551 2.88859 2.8814 0
M  V30 9435 H 911.226 3.64155 2.00907 0
M  V30 9436 H 909.803 2.13819 3.05509 0
M  V30 9437 N 911.988 -0.768124 1.37614 0
M  V30 9438 C 913.234 -1.52907 1.33219 0
M  V30 9439 C 913.567 -1.94026 -0.0821218 0
M  V30 9440 O 912.842 -1.64345 -1.04023 0
M  V30 9441 C 913.125 -2.79164 2.27463 0
M  V30 9442 C 912.978 -2.44276 3.7769 0
M  V30 9443 C 914.297 -3.81115 2.20089 0
M  V30 9444 H 911.416 -0.554712 0.485246 0
M  V30 9445 H 914.058 -0.880911 1.68345 0
M  V30 9446 H 912.208 -3.34472 1.97639 0
M  V30 9447 H 913.88 -1.94855 4.18126 0
M  V30 9448 H 912.123 -1.76925 3.96081 0
M  V30 9449 H 912.794 -3.34544 4.39072 0
M  V30 9450 H 915.27 -3.35311 2.46386 0
M  V30 9451 H 914.146 -4.67174 2.88166 0
M  V30 9452 H 914.407 -4.25644 1.19498 0
M  V30 9453 N 913.466 -1.22244 -0.994698 0
M  V30 9454 C 914.396 -1.01513 -2.10279 0
M  V30 9455 C 915.377 0.0633365 -1.69982 0
M  V30 9456 O 916.562 -0.0985268 -1.9395 0
M  V30 9457 C 913.692 -0.59016 -3.42249 0
M  V30 9458 C 912.646 -1.61436 -3.96387 0
M  V30 9459 C 911.972 -1.04528 -5.24383 0
M  V30 9460 C 913.272 -3.00388 -4.27276 0
M  V30 9461 H 914.966 -1.94194 -2.2788 0
M  V30 9462 H 912.512 -0.935094 -1.09508 0
M  V30 9463 H 914.465 -0.432254 -4.19177 0
M  V30 9464 H 913.189 0.372308 -3.24471 0
M  V30 9465 H 911.848 -1.76001 -3.21589 0
M  V30 9466 H 911.496 -0.0742225 -5.02945 0
M  V30 9467 H 911.196 -1.72949 -5.61571 0
M  V30 9468 H 912.72 -0.898922 -6.03947 0
M  V30 9469 H 914.134 -2.89207 -4.95007 0
M  V30 9470 H 912.531 -3.65916 -4.75631 0
M  V30 9471 H 913.601 -3.50456 -3.35125 0
M  V30 9472 N 914.944 1.19125 -1.03184 0
M  V30 9473 C 915.894 2.20348 -0.585731 0
M  V30 9474 C 916.878 1.56656 0.367109 0
M  V30 9475 O 918.07 1.76003 0.187598 0
M  V30 9476 C 915.199 3.43249 0.0590006 0
M  V30 9477 C 914.285 4.1408 -0.916457 0
M  V30 9478 N 914.676 4.61051 -2.08005 0
M  V30 9479 C 912.974 4.39809 -0.74054 0
M  V30 9480 C 913.675 5.15477 -2.69552 0
M  V30 9481 N 912.651 5.06456 -1.97493 0
M  V30 9482 H 916.453 2.54346 -1.47259 0
M  V30 9483 H 913.967 1.35232 -0.899225 0
M  V30 9484 H 915.964 4.15013 0.396236 0
M  V30 9485 H 914.624 3.1075 0.941507 0
M  V30 9486 H 915.635 4.55782 -2.45934 0
M  V30 9487 H 912.312 4.17397 0.0926238 0
M  V30 9488 H 913.702 5.62088 -3.68112 0
M  V30 9489 N 916.422 0.810101 1.35185 0
M  V30 9490 C 917.352 0.237453 2.32289 0
M  V30 9491 C 918.333 -0.639032 1.5764 0
M  V30 9492 O 919.518 -0.568575 1.8569 0
M  V30 9493 C 916.648 -0.611964 3.41866 0
M  V30 9494 C 915.602 0.166318 4.27677 0
M  V30 9495 C 914.928 -0.805024 5.28605 0
M  V30 9496 C 916.228 1.36729 5.04086 0
M  V30 9497 H 917.922 1.04874 2.80432 0
M  V30 9498 H 915.468 0.505751 1.34826 0
M  V30 9499 H 917.421 -1.02267 4.08802 0
M  V30 9500 H 916.145 -1.45617 2.92341 0
M  V30 9501 H 914.804 0.558238 3.62325 0
M  V30 9502 H 914.452 -1.64483 4.75347 0
M  V30 9503 H 914.152 -0.288577 5.86891 0
M  V30 9504 H 915.676 -1.21386 5.98413 0
M  V30 9505 H 917.09 1.03128 5.63948 0
M  V30 9506 H 915.487 1.81848 5.71884 0
M  V30 9507 H 916.557 2.15214 4.34524 0
M  V30 9508 N 917.9 -1.47166 0.563914 0
M  V30 9509 C 918.863 -2.28571 -0.169624 0
M  V30 9510 C 919.863 -1.37331 -0.836467 0
M  V30 9511 O 921.053 -1.59896 -0.6913 0
M  V30 9512 C 918.185 -3.17201 -1.24886 0
M  V30 9513 H 919.378 -2.94896 0.545539 0
M  V30 9514 H 916.931 -1.52966 0.321121 0
M  V30 9515 H 917.666 -2.55582 -1.99621 0
M  V30 9516 H 917.451 -3.84356 -0.775426 0
M  V30 9517 H 918.941 -3.7852 -1.76388 0
M  V30 9518 N 919.378 -0.300708 -1.54705 0
M  V30 9519 C 920.341 0.562648 -2.22187 0
M  V30 9520 C 921.341 1.06152 -1.20782 0
M  V30 9521 O 922.531 0.957596 -1.45519 0
M  V30 9522 C 919.663 1.77899 -2.908 0
M  V30 9523 H 920.856 -0.0269361 -2.99888 0
M  V30 9524 H 918.409 -0.0515412 -1.56215 0
M  V30 9525 H 919.144 2.40841 -2.17177 0
M  V30 9526 H 918.929 1.42892 -3.65136 0
M  V30 9527 H 920.419 2.39236 -3.42281 0
M  V30 9528 N 920.856 1.57574 -0.0284266 0
M  V30 9529 C 921.803 2.10176 0.953658 0
M  V30 9530 C 922.773 1.00367 1.32347 0
M  V30 9531 O 923.958 1.27783 1.4169 0
M  V30 9532 C 921.098 2.63287 2.231 0
M  V30 9533 C 920.211 3.87102 1.91771 0
M  V30 9534 C 919.346 4.28609 3.13795 0
M  V30 9535 C 918.385 5.45184 2.78282 0
M  V30 9536 N 917.522 5.81851 3.92929 0
M  V30 9537 H 922.362 2.93806 0.498176 0
M  V30 9538 H 919.899 1.45222 0.234302 0
M  V30 9539 H 921.857 2.9217 2.97813 0
M  V30 9540 H 920.487 1.82489 2.66266 0
M  V30 9541 H 919.539 3.64952 1.07303 0
M  V30 9542 H 920.851 4.71892 1.61615 0
M  V30 9543 H 920.005 4.58925 3.96829 0
M  V30 9544 H 918.744 3.42585 3.47112 0
M  V30 9545 H 917.749 5.14563 1.93661 0
M  V30 9546 H 918.974 6.32907 2.46182 0
M  V30 9547 H 916.92 4.98782 4.2609 0
M  V30 9548 H 916.837 6.6128 3.66395 0
M  V30 9549 H 918.105 6.16772 4.76669 0
M  V30 9550 N 922.334 -0.244713 1.55689 0
M  V30 9551 C 923.244 -1.32447 1.93636 0
M  V30 9552 C 924.26 -1.52541 0.837086 0
M  V30 9553 O 925.436 -1.66121 1.13867 0
M  V30 9554 C 922.501 -2.65864 2.22525 0
M  V30 9555 C 921.562 -2.54273 3.45896 0
M  V30 9556 C 920.795 -3.81327 3.73397 0
M  V30 9557 O 921.018 -4.83307 3.02936 0
M  V30 9558 O 919.952 -3.79829 4.66919 0
M  V30 9559 H 923.778 -1.03255 2.85608 0
M  V30 9560 H 921.363 -0.445652 1.42598 0
M  V30 9561 H 923.245 -3.447 2.42404 0
M  V30 9562 H 921.92 -2.94784 1.33731 0
M  V30 9563 H 920.827 -1.73715 3.31321 0
M  V30 9564 H 922.16 -2.30297 4.34999 0
M  V30 9565 N 923.813 -1.49104 -0.510467 0
M  V30 9566 C 925.061 -1.578 -1.26268 0
M  V30 9567 C 925.382 -0.262349 -1.93227 0
M  V30 9568 O 924.652 0.717624 -1.82283 0
M  V30 9569 H 923.232 -0.581387 -0.46904 0
M  V30 9570 H 925.894 -1.85678 -0.592423 0
M  V30 9571 H 924.99 -2.36919 -2.03165 0
M  V30 9572 N 925.291 0.760815 -1.38019 0
M  V30 9573 C 926.241 1.86487 -1.31174 0
M  V30 9574 C 927.225 1.59684 -0.197414 0
M  V30 9575 O 928.417 1.71628 -0.432764 0
M  V30 9576 C 925.546 3.24103 -1.13192 0
M  V30 9577 C 924.632 3.5682 -2.29216 0
M  V30 9578 N 925.023 3.60644 -3.5464 0
M  V30 9579 C 923.321 3.87047 -2.2161 0
M  V30 9580 C 924.022 3.90423 -4.31214 0
M  V30 9581 N 922.998 4.06883 -3.60482 0
M  V30 9582 H 926.8 1.87711 -2.26146 0
M  V30 9583 H 924.314 0.957811 -1.31148 0
M  V30 9584 H 926.311 4.03101 -1.06372 0
M  V30 9585 H 924.971 3.24135 -0.191473 0
M  V30 9586 H 925.982 3.42581 -3.88405 0
M  V30 9587 H 922.659 3.94837 -1.35684 0
M  V30 9588 H 924.049 4.00065 -5.39812 0
M  V30 9589 N 926.769 1.22769 0.988202 0
M  V30 9590 C 928.046 0.9635 1.70223 0
M  V30 9591 C 928.426 -0.520102 2.04593 0
M  V30 9592 O 927.774 -1.48934 1.73295 0
M  V30 9593 C 927.984 1.86583 2.94937 0
M  V30 9594 C 929.332 2.12469 3.67616 0
M  V30 9595 O 930.356 1.84069 3.04954 0
M  V30 9596 O 929.215 2.60595 4.80367 0
M  V30 9597 H 926.309 0.362737 0.743203 0
M  V30 9598 H 928.855 1.33776 1.04412 0
M  V30 9599 H 927.627 2.86913 2.66077 0
M  V30 9600 H 927.25 1.49344 3.68486 0
M  V30 9601 N 928.247 -1.18576 1.03814 0
M  V30 9602 C 929.194 -2.2212 0.626988 0
M  V30 9603 C 930.164 -1.62064 -0.363912 0
M  V30 9604 O 931.349 -1.89041 -0.258469 0
M  V30 9605 C 928.489 -3.45099 -0.00650133 0
M  V30 9606 C 927.602 -4.19503 1.03156 0
M  V30 9607 C 926.737 -5.29932 0.366852 0
M  V30 9608 C 925.776 -5.96104 1.39018 0
M  V30 9609 N 924.913 -6.98076 0.750625 0
M  V30 9610 H 929.753 -2.56646 1.51449 0
M  V30 9611 H 927.29 -1.26084 0.757702 0
M  V30 9612 H 929.248 -4.15363 -0.391108 0
M  V30 9613 H 927.878 -3.11201 -0.857536 0
M  V30 9614 H 926.93 -3.48092 1.53414 0
M  V30 9615 H 928.242 -4.64843 1.80893 0
M  V30 9616 H 927.396 -6.06657 -0.0720979 0
M  V30 9617 H 926.135 -4.85687 -0.442631 0
M  V30 9618 H 925.14 -5.18122 1.8393 0
M  V30 9619 H 926.365 -6.42432 2.20132 0
M  V30 9620 H 924.311 -6.55989 -0.0385981 0
M  V30 9621 H 924.228 -7.41655 1.46574 0
M  V30 9622 H 925.496 -7.78776 0.335986 0
M  V30 9623 N 929.725 -0.817259 -1.34754 0
M  V30 9624 C 930.971 -0.403244 -1.98751 0
M  V30 9625 C 931.304 1.02963 -1.64658 0
M  V30 9626 O 930.579 1.71617 -0.915314 0
M  V30 9627 C 930.862 -0.599188 -3.5508 0
M  V30 9628 C 930.715 -2.07777 -3.98934 0
M  V30 9629 C 932.034 -0.0315656 -4.40089 0
M  V30 9630 H 929.153 -0.147988 -0.721989 0
M  V30 9631 H 931.795 -1.02877 -1.59738 0
M  V30 9632 H 929.945 -0.0667116 -3.88443 0
M  V30 9633 H 931.617 -2.67345 -3.75931 0
M  V30 9634 H 929.86 -2.57031 -3.49453 0
M  V30 9635 H 930.531 -2.16571 -5.07741 0
M  V30 9636 H 933.007 -0.48644 -4.13247 0
M  V30 9637 H 931.883 -0.198507 -5.48541 0
M  V30 9638 H 932.144 1.06302 -4.2913 0
M  V30 9639 N 931.203 1.46865 -0.571711 0
M  V30 9640 C 932.133 2.3298 0.155795 0
M  V30 9641 C 933.114 1.44678 0.894553 0
M  V30 9642 O 934.299 1.73513 0.872176 0
M  V30 9643 C 931.429 3.26745 1.17708 0
M  V30 9644 C 930.383 4.24401 0.553863 0
M  V30 9645 C 929.709 5.07595 1.68083 0
M  V30 9646 C 931.009 5.19884 -0.501827 0
M  V30 9647 H 932.703 2.94056 -0.563176 0
M  V30 9648 H 930.249 1.41402 -0.27228 0
M  V30 9649 H 932.202 3.85838 1.6943 0
M  V30 9650 H 930.926 2.63753 1.92618 0
M  V30 9651 H 929.585 3.66554 0.057815 0
M  V30 9652 H 929.233 4.40996 2.41933 0
M  V30 9653 H 928.933 5.73722 1.26953 0
M  V30 9654 H 930.457 5.6955 2.20103 0
M  V30 9655 H 931.871 5.73257 -0.0701057 0
M  V30 9656 H 930.268 5.94293 -0.832815 0
M  V30 9657 H 931.338 4.64482 -1.39229 0
M  V30 9658 N 932.681 0.308908 1.54543 0
M  V30 9659 C 933.906 -0.303196 2.05172 0
M  V30 9660 C 934.331 -1.46133 1.18434 0
M  V30 9661 O 933.689 -1.803 0.190162 0
M  V30 9662 C 933.737 -0.729526 3.53143 0
M  V30 9663 O 932.841 -1.83348 3.69401 0
M  V30 9664 H 932.182 -0.0575066 0.661505 0
M  V30 9665 H 934.712 0.453055 1.99521 0
M  V30 9666 H 934.722 -1.01619 3.95143 0
M  V30 9667 H 933.397 0.117622 4.15734 0
M  V30 9668 H 931.974 -1.54676 3.39308 0
M  V30 9669 N 934.159 -1.57557 0.0367827 0
M  V30 9670 C 935.408 -1.91291 -0.639569 0
M  V30 9671 C 935.721 -0.915601 -1.72847 0
M  V30 9672 O 936.927 -1.14447 -2.46199 0
M  V30 9673 C 935.383 -3.39697 -1.18888 0
M  V30 9674 C 934.991 -4.47803 -0.132851 0
M  V30 9675 C 936.735 -3.82487 -1.8413 0
M  V30 9676 C 934.642 -5.87311 -0.694229 0
M  V30 9677 H 933.572 -0.713886 -0.242658 0
M  V30 9678 H 936.223 -1.83209 0.103332 0
M  V30 9679 H 934.605 -3.42736 -1.98363 0
M  V30 9680 H 935.779 -4.56334 0.640009 0
M  V30 9681 H 934.094 -4.14264 0.421264 0
M  V30 9682 H 936.691 -4.84076 -2.27101 0
M  V30 9683 H 937.034 -3.17959 -2.68716 0
M  V30 9684 H 937.567 -3.81903 -1.11332 0
M  V30 9685 H 934.306 -6.55401 0.113667 0
M  V30 9686 H 933.826 -5.82371 -1.4354 0
M  V30 9687 H 935.505 -6.36119 -1.1816 0
M  V30 9688 N 935.637 0.236453 -1.55816 0
M  V30 9689 C 936.567 1.29639 -1.94206 0
M  V30 9690 C 937.548 1.49667 -0.808319 0
M  V30 9691 O 938.733 1.621 -1.06945 0
M  V30 9692 C 935.863 2.64914 -2.24584 0
M  V30 9693 C 934.817 2.59565 -3.40308 0
M  V30 9694 C 934.143 3.98732 -3.56254 0
M  V30 9695 C 935.443 2.15642 -4.75706 0
M  V30 9696 H 937.137 0.977552 -2.82992 0
M  V30 9697 H 934.683 0.468804 -1.36155 0
M  V30 9698 H 936.636 3.39209 -2.50031 0
M  V30 9699 H 935.36 2.98455 -1.32636 0
M  V30 9700 H 934.019 1.87728 -3.14887 0
M  V30 9701 H 933.667 4.29556 -2.61707 0
M  V30 9702 H 933.367 3.96039 -4.34082 0
M  V30 9703 H 934.891 4.74711 -3.84033 0
M  V30 9704 H 936.305 2.79673 -5.00456 0
M  V30 9705 H 934.702 2.24039 -5.56711 0
M  V30 9706 H 935.772 1.10831 -4.72064 0
M  V30 9707 N 937.115 1.49373 0.502552 0
M  V30 9708 C 938.045 1.68839 1.61294 0
M  V30 9709 C 939.026 0.537096 1.61398 0
M  V30 9710 O 940.211 0.772764 1.78163 0
M  V30 9711 C 937.341 1.75347 2.99784 0
M  V30 9712 C 936.295 2.90251 3.14545 0
M  V30 9713 C 935.621 2.8187 4.54371 0
M  V30 9714 C 936.921 4.31207 2.94717 0
M  V30 9715 H 938.615 2.61803 1.45257 0
M  V30 9716 H 936.161 1.25987 0.697371 0
M  V30 9717 H 938.114 1.87552 3.77362 0
M  V30 9718 H 936.838 0.789814 3.16906 0
M  V30 9719 H 935.497 2.77646 2.39392 0
M  V30 9720 H 935.145 1.83416 4.68367 0
M  V30 9721 H 934.845 3.5899 4.65188 0
M  V30 9722 H 936.369 2.96081 5.34012 0
M  V30 9723 H 937.783 4.44501 3.62065 0
M  V30 9724 H 936.18 5.09536 3.17007 0
M  V30 9725 H 937.25 4.45759 1.90857 0
M  V30 9726 N 938.594 -0.753485 1.38421 0
M  V30 9727 C 939.541 -1.86723 1.35659 0
M  V30 9728 C 940.511 -1.64648 0.219121 0
M  V30 9729 O 941.696 -1.86313 0.411366 0
M  V30 9730 C 938.836 -3.24023 1.18758 0
M  V30 9731 C 937.949 -3.57928 2.41892 0
M  V30 9732 C 937.084 -4.84532 2.17721 0
M  V30 9733 C 936.123 -5.11224 3.36626 0
M  V30 9734 N 935.26 -6.29023 3.11889 0
M  V30 9735 H 940.1 -1.88419 2.30873 0
M  V30 9736 H 937.637 -0.920934 1.14705 0
M  V30 9737 H 939.595 -4.03252 1.06974 0
M  V30 9738 H 938.225 -3.21654 0.27182 0
M  V30 9739 H 937.277 -2.73541 2.64347 0
M  V30 9740 H 938.589 -3.73581 3.30513 0
M  V30 9741 H 937.743 -5.71704 2.03074 0
M  V30 9742 H 936.482 -4.71018 1.26465 0
M  V30 9743 H 935.487 -4.2252 3.51791 0
M  V30 9744 H 936.712 -5.26635 4.28757 0
M  V30 9745 H 934.658 -6.16832 2.2328 0
M  V30 9746 H 934.575 -6.45177 3.9406 0
M  V30 9747 H 935.843 -7.19083 3.00898 0
M  V30 9748 N 940.072 -1.23292 -0.981677 0
M  V30 9749 C 941.022 -0.980133 -2.05858 0
M  V30 9750 C 942.006 0.0734044 -1.60732 0
M  V30 9751 O 943.198 -0.138561 -1.76457 0
M  V30 9752 C 940.327 -0.571879 -3.38503 0
M  V30 9753 C 939.413 -1.66075 -3.90231 0
M  V30 9754 N 939.804 -2.89077 -4.15052 0
M  V30 9755 C 938.102 -1.53503 -4.18751 0
M  V30 9756 C 938.803 -3.59567 -4.5726 0
M  V30 9757 N 937.779 -2.87076 -4.61615 0
M  V30 9758 H 941.581 -1.91432 -2.23005 0
M  V30 9759 H 939.095 -1.13211 -1.16434 0
M  V30 9760 H 941.092 -0.372059 -4.15236 0
M  V30 9761 H 939.752 0.355278 -3.2275 0
M  V30 9762 H 940.763 -3.25395 -4.02912 0
M  V30 9763 H 937.44 -0.674891 -4.12009 0
M  V30 9764 H 938.83 -4.65007 -4.84993 0
M  V30 9765 N 941.55 1.18024 -1.04442 0
M  V30 9766 C 942.497 2.21785 -0.638759 0
M  V30 9767 C 943.467 1.62255 0.355312 0
M  V30 9768 O 944.652 1.89176 0.24844 0
M  V30 9769 C 941.792 3.45098 -0.0118002 0
M  V30 9770 C 940.905 4.1895 -1.05379 0
M  V30 9771 C 940.04 5.2973 -0.394951 0
M  V30 9772 C 939.079 5.95359 -1.42178 0
M  V30 9773 N 938.216 6.97668 -0.787635 0
M  V30 9774 H 943.056 2.55839 -1.52808 0
M  V30 9775 H 940.593 1.25681 -0.764378 0
M  V30 9776 H 942.551 4.15564 0.369075 0
M  V30 9777 H 941.181 3.11652 0.84102 0
M  V30 9778 H 940.233 3.47274 -1.55258 0
M  V30 9779 H 941.545 4.63877 -1.83355 0
M  V30 9780 H 940.699 6.06687 0.0399244 0
M  V30 9781 H 939.438 4.85915 0.416867 0
M  V30 9782 H 938.443 5.17139 -1.86675 0
M  V30 9783 H 939.668 6.41255 -2.23536 0
M  V30 9784 H 937.614 6.56 0.00380893 0
M  V30 9785 H 937.531 7.40867 -1.50505 0
M  V30 9786 H 938.799 7.78586 -0.377282 0
M  V30 9787 N 943.028 0.824394 1.34319 0
M  V30 9788 C 943.975 0.245282 2.29493 0
M  V30 9789 C 944.945 -0.630762 1.53657 0
M  V30 9790 O 946.13 -0.572094 1.82021 0
M  V30 9791 C 943.27 -0.585631 3.40095 0
M  V30 9792 C 942.383 0.312821 4.30866 0
M  V30 9793 C 941.518 -0.527801 5.28571 0
M  V30 9794 C 940.557 0.369946 6.10981 0
M  V30 9795 N 939.694 -0.43169 7.00772 0
M  V30 9796 H 944.534 1.06225 2.78425 0
M  V30 9797 H 942.071 0.53533 1.37013 0
M  V30 9798 H 944.029 -1.08271 4.02906 0
M  V30 9799 H 942.659 -1.3677 2.92393 0
M  V30 9800 H 941.711 0.928129 3.68904 0
M  V30 9801 H 943.023 1.00306 4.8861 0
M  V30 9802 H 942.177 -1.0893 5.96841 0
M  V30 9803 H 940.916 -1.25154 4.71368 0
M  V30 9804 H 939.921 0.943577 5.41643 0
M  V30 9805 H 941.146 1.09182 6.70266 0
M  V30 9806 H 939.092 -1.13908 6.46035 0
M  V30 9807 H 939.009 0.200133 7.55735 0
M  V30 9808 H 940.277 -0.975894 7.73367 0
M  V30 9809 N 944.506 -1.46559 0.579492 0
M  V30 9810 C 945.469 -2.28739 -0.145371 0
M  V30 9811 C 946.469 -1.38211 -0.821854 0
M  V30 9812 O 947.659 -1.6062 -0.674302 0
M  V30 9813 C 944.791 -3.18507 -1.21515 0
M  V30 9814 H 945.984 -2.94301 0.576786 0
M  V30 9815 H 943.537 -1.52616 0.337327 0
M  V30 9816 H 944.272 -2.57685 -1.96899 0
M  V30 9817 H 944.057 -3.85157 -0.734616 0
M  V30 9818 H 945.547 -3.80369 -1.72363 0
M  V30 9819 N 945.984 -0.3171 -1.54377 0
M  V30 9820 C 946.947 0.53905 -2.22771 0
M  V30 9821 C 947.947 1.04865 -1.21901 0
M  V30 9822 O 949.137 0.942108 -1.46526 0
M  V30 9823 C 946.269 1.74804 -2.92671 0
M  V30 9824 H 947.462 -0.0587417 -2.99842 0
M  V30 9825 H 945.015 -0.068107 -1.56152 0
M  V30 9826 H 945.75 2.38524 -2.1972 0
M  V30 9827 H 945.535 1.39011 -3.66631 0
M  V30 9828 H 947.025 2.35592 -3.44799 0
M  V30 9829 N 947.462 1.57535 -0.0451378 0
M  V30 9830 C 948.392 2.14208 0.929372 0
M  V30 9831 C 949.373 1.06221 1.32858 0
M  V30 9832 O 950.558 1.34132 1.40436 0
M  V30 9833 C 947.688 2.68217 2.20629 0
M  V30 9834 C 946.642 3.81134 1.94734 0
M  V30 9835 C 945.968 4.21636 3.28828 0
M  V30 9836 C 947.268 5.06531 1.27374 0
M  V30 9837 H 948.962 2.95886 0.457348 0
M  V30 9838 H 946.508 1.42332 0.218544 0
M  V30 9839 H 948.461 3.06502 2.89196 0
M  V30 9840 H 947.185 1.83722 2.70026 0
M  V30 9841 H 945.844 3.43312 1.28579 0
M  V30 9842 H 945.492 3.34099 3.76014 0
M  V30 9843 H 945.192 4.97736 3.12302 0
M  V30 9844 H 946.716 4.62516 3.98637 0
M  V30 9845 H 948.13 5.423 1.85967 0
M  V30 9846 H 946.527 5.87735 1.21194 0
M  V30 9847 H 947.597 4.84261 0.248913 0
M  V30 9848 N 948.94 -0.228186 1.55939 0
M  V30 9849 C 949.87 -1.28607 1.94891 0
M  V30 9850 C 950.851 -1.49236 0.816245 0
M  V30 9851 O 952.036 -1.61531 1.07803 0
M  V30 9852 C 949.166 -2.63719 2.25986 0
M  V30 9853 C 948.12 -2.57757 3.4168 0
M  V30 9854 C 947.446 -3.96837 3.58364 0
M  V30 9855 C 948.746 -2.13116 4.76843 0
M  V30 9856 H 950.44 -0.962531 2.83506 0
M  V30 9857 H 947.986 -0.461577 1.36402 0
M  V30 9858 H 949.939 -3.37878 2.51826 0
M  V30 9859 H 948.663 -2.97747 1.34217 0
M  V30 9860 H 947.322 -1.86055 3.15878 0
M  V30 9861 H 946.97 -4.28162 2.63982 0
M  V30 9862 H 946.67 -3.93731 4.36176 0
M  V30 9863 H 948.194 -4.72668 3.86545 0
M  V30 9864 H 949.608 -2.77015 5.01932 0
M  V30 9865 H 948.005 -2.21083 5.57891 0
M  V30 9866 H 949.075 -1.08326 4.72645 0
M  V30 9867 N 950.418 -1.49637 -0.494624 0
M  V30 9868 C 951.348 -1.69692 -1.60396 0
M  V30 9869 C 952.329 -0.545648 -1.61111 0
M  V30 9870 O 953.514 -0.782202 -1.77751 0
M  V30 9871 C 950.644 -1.76934 -2.9885 0
M  V30 9872 C 949.598 -2.91915 -3.13001 0
M  V30 9873 C 948.924 -2.84276 -4.5287 0
M  V30 9874 C 950.224 -4.32764 -2.92426 0
M  V30 9875 H 951.918 -2.6257 -1.43866 0
M  V30 9876 H 949.464 -1.26355 -0.690679 0
M  V30 9877 H 951.417 -1.8955 -3.76362 0
M  V30 9878 H 950.141 -0.806609 -3.16483 0
M  V30 9879 H 948.8 -2.78911 -2.37916 0
M  V30 9880 H 948.448 -1.85897 -4.67388 0
M  V30 9881 H 948.148 -3.61452 -4.63278 0
M  V30 9882 H 949.672 -2.98909 -5.32434 0
M  V30 9883 H 951.086 -4.46415 -3.59703 0
M  V30 9884 H 949.483 -5.1121 -3.143 0
M  V30 9885 H 950.553 -4.46765 -1.88491 0
M  V30 9886 N 951.896 0.746133 -1.38819 0
M  V30 9887 C 953.173 1.49652 -1.25951 0
M  V30 9888 C 953.553 2.10663 0.135833 0
M  V30 9889 O 952.901 1.97682 1.14604 0
M  V30 9890 C 953.111 2.5569 -2.37537 0
M  V30 9891 C 954.459 3.22385 -2.76321 0
M  V30 9892 O 955.483 2.65998 -2.36904 0
M  V30 9893 O 954.342 4.2439 -3.44319 0
M  V30 9894 H 951.436 0.664019 -0.492958 0
M  V30 9895 H 953.982 0.780908 -1.50665 0
M  V30 9896 H 952.754 2.08908 -3.30867 0
M  V30 9897 H 952.377 3.34823 -2.14427 0
M  V30 9898 N 953.375 1.23811 0.975125 0
M  V30 9899 C 954.325 0.991036 2.05335 0
M  V30 9900 C 955.309 -0.0648793 1.60769 0
M  V30 9901 O 956.501 0.147917 1.76381 0
M  V30 9902 C 953.63 0.589822 3.38195 0
M  V30 9903 C 952.716 1.68142 3.89344 0
M  V30 9904 N 953.107 2.91274 4.13513 0
M  V30 9905 C 951.405 1.55722 4.17931 0
M  V30 9906 C 952.106 3.61987 4.55347 0
M  V30 9907 N 951.082 2.8952 4.60086 0
M  V30 9908 H 954.884 1.92612 2.21986 0
M  V30 9909 H 952.398 1.13827 1.15832 0
M  V30 9910 H 954.395 0.394075 4.15033 0
M  V30 9911 H 953.055 -0.338157 3.22934 0
M  V30 9912 H 954.066 3.27528 4.01181 0
M  V30 9913 H 950.743 0.696732 4.11645 0
M  V30 9914 H 952.133 4.67572 4.8252 0
M  V30 9915 N 954.853 -1.17469 1.05066 0
M  V30 9916 C 956.264 -1.69334 0.786304 0
M  V30 9917 C 956.615 -1.83604 -0.691671 0
M  V30 9918 O 955.74 -1.52269 -1.53763 0
M  V30 9919 C 956.335 -3.07572 1.42074 0
M  V30 9920 C 954.894 -3.56609 1.20446 0
M  V30 9921 C 954.041 -2.329 1.50508 0
M  V30 9922 H 956.992 -1.02003 1.21577 0
M  V30 9923 H 957.013 -3.71352 0.829334 0
M  V30 9924 H 956.525 -2.97154 2.49642 0
M  V30 9925 H 954.626 -3.72306 0.147968 0
M  V30 9926 H 954.739 -4.39446 1.90852 0
M  V30 9927 H 953.103 -2.37305 0.925124 0
M  V30 9928 H 953.886 -2.25093 2.59207 0
M  V30 9929 N 956.331 -0.831506 -1.3388 0
M  V30 9930 C 957.279 -0.247896 -2.31275 0
M  V30 9931 C 958.273 0.616083 -1.578 0
M  V30 9932 O 959.479 0.506465 -1.72728 0
M  V30 9933 H 955.854 -0.0614293 -0.749487 0
M  V30 9934 H 957.825 -1.08401 -2.78014 0
M  V30 9935 C 956.574 0.568434 -3.43022 0
M  V30 9936 H 955.897 -0.0870654 -3.99705 0
M  V30 9937 H 957.337 0.942751 -4.13386 0
M  V30 9938 C 955.796 1.74431 -2.88228 0
M  V30 9939 O 956.326 2.84278 -2.83811 0
M  V30 9940 N 954.532 1.56382 -2.44935 0
M  V30 9941 H 954.079 0.670255 -2.48727 0
M  V30 9942 H 954.037 2.35208 -2.08625 0
M  V30 9943 N 957.809 1.4625 -0.587256 0
M  V30 9944 C 959.057 2.01963 -0.0744273 0
M  V30 9945 C 959.378 1.46065 1.29189 0
M  V30 9946 O 958.648 0.647077 1.84905 0
M  V30 9947 H 957.228 0.746597 -0.0245236 0
M  V30 9948 H 959.89 1.79299 -0.764063 0
M  V30 9949 H 958.986 3.12099 -0.00884894 0
M  V30 9950 N 959.287 0.325282 1.54207 0
M  V30 9951 C 960.564 -0.33113 1.92777 0
M  V30 9952 C 960.944 -1.69739 1.25506 0
M  V30 9953 O 960.292 -2.24983 0.399385 0
M  V30 9954 C 960.502 -0.421636 3.46444 0
M  V30 9955 C 961.85 -0.681111 4.19101 0
M  V30 9956 O 962.874 -0.504488 3.52609 0
M  V30 9957 O 961.733 -1.02196 5.3686 0
M  V30 9958 H 958.827 -0.18943 0.805013 0
M  V30 9959 H 961.373 0.375123 1.65502 0
M  V30 9960 H 960.145 0.537862 3.87586 0
M  V30 9961 H 959.768 -1.1754 3.79829 0
M  V30 9962 N 960.765 -1.57509 0.0534917 0
M  V30 9963 C 962.013 -1.92402 -0.618548 0
M  V30 9964 C 962.334 -0.93273 -1.71246 0
M  V30 9965 O 961.604 0.0220495 -1.95888 0
M  V30 9966 H 960.184 -0.710233 -0.23147 0
M  V30 9967 H 962.846 -1.94606 0.10704 0
M  V30 9968 H 961.942 -2.93704 -1.05566 0
M  V30 9969 N 962.243 0.219913 -1.56058 0
M  V30 9970 C 963.173 1.27572 -1.9557 0
M  V30 9971 C 964.154 1.48801 -0.824148 0
M  V30 9972 O 965.339 1.60957 -1.08658 0
M  V30 9973 C 962.469 2.62517 -2.27381 0
M  V30 9974 C 961.423 2.55941 -3.43042 0
M  V30 9975 C 960.749 3.94931 -3.60463 0
M  V30 9976 C 962.049 2.10584 -4.77966 0
M  V30 9977 H 963.743 0.947482 -2.84013 0
M  V30 9978 H 961.289 0.454337 -1.36645 0
M  V30 9979 H 963.242 3.36538 -2.53615 0
M  V30 9980 H 961.966 2.97031 -1.35794 0
M  V30 9981 H 960.625 1.84377 -3.1686 0
M  V30 9982 H 960.273 4.26756 -2.66249 0
M  V30 9983 H 959.973 3.91413 -4.38258 0
M  V30 9984 H 961.497 4.70611 -3.89046 0
M  V30 9985 H 962.911 2.74349 -5.03394 0
M  V30 9986 H 961.308 2.18122 -5.59055 0
M  V30 9987 H 962.378 1.05818 -4.73213 0
M  V30 9988 N 963.721 1.49897 0.486681 0
M  V30 9989 C 964.669 1.68125 1.60738 0
M  V30 9990 C 965.663 0.547097 1.60322 0
M  V30 9991 O 966.869 0.727153 1.64659 0
M  V30 9992 H 963.244 0.530391 0.533094 0
M  V30 9993 H 965.215 2.62165 1.42521 0
M  V30 9994 C 963.964 1.77827 2.98786 0
M  V30 9995 H 963.287 2.6448 2.99818 0
M  V30 9996 H 964.727 1.94611 3.76699 0
M  V30 9997 C 963.186 0.526287 3.32764 0
M  V30 9998 O 963.716 -0.341607 4.00245 0
M  V30 9999 N 961.922 0.384947 2.88039 0
M  V30 10000 H 961.469 1.09222 2.33299 0
M  V30 10001 H 961.427 -0.451618 3.11139 0
M  V30 10002 N 965.199 -0.738761 1.39212 0
M  V30 10003 C 966.162 -1.83441 1.37412 0
M  V30 10004 C 967.162 -1.58484 0.271908 0
M  V30 10005 O 968.352 -1.65954 0.529609 0
M  V30 10006 C 965.484 -3.21167 1.143 0
M  V30 10007 H 966.677 -1.86441 2.34904 0
M  V30 10008 H 964.23 -0.942023 1.24722 0
M  V30 10009 H 964.965 -3.23829 0.174756 0
M  V30 10010 H 964.75 -3.40678 1.94116 0
M  V30 10011 H 966.24 -4.01231 1.15773 0
M  V30 10012 N 966.677 -1.24326 -0.968545 0
M  V30 10013 C 967.926 -1.07647 -1.70572 0
M  V30 10014 C 968.239 0.384821 -1.91777 0
M  V30 10015 O 969.445 0.671782 -2.63058 0
M  V30 10016 C 967.901 -1.87799 -3.07017 0
M  V30 10017 C 967.509 -3.38333 -2.93658 0
M  V30 10018 C 969.253 -1.79647 -3.84613 0
M  V30 10019 C 967.16 -4.10831 -4.25407 0
M  V30 10020 H 966.09 -0.399216 -0.639642 0
M  V30 10021 H 968.741 -1.484 -1.07934 0
M  V30 10022 H 967.123 -1.3986 -3.7048 0
M  V30 10023 H 968.297 -3.93845 -2.39213 0
M  V30 10024 H 966.612 -3.47427 -2.29528 0
M  V30 10025 H 969.209 -2.31116 -4.82172 0
M  V30 10026 H 969.552 -0.761553 -4.09275 0
M  V30 10027 H 970.085 -2.25261 -3.27875 0
M  V30 10028 H 966.824 -5.14679 -4.05939 0
M  V30 10029 H 966.344 -3.60105 -4.79671 0
M  V30 10030 H 968.023 -4.17783 -4.94031 0
M  V30 10031 N 968.156 1.1691 -1.05688 0
M  V30 10032 C 969.106 2.19056 -0.632339 0
M  V30 10033 C 970.09 1.574 0.333797 0
M  V30 10034 O 971.282 1.76361 0.150223 0
M  V30 10035 C 968.411 3.43297 -0.0138209 0
M  V30 10036 C 967.497 4.12042 -1.00408 0
M  V30 10037 N 967.888 4.56535 -2.17737 0
M  V30 10038 C 966.186 4.38139 -0.833663 0
M  V30 10039 C 966.887 5.09644 -2.80425 0
M  V30 10040 N 965.863 5.02153 -2.08191 0
M  V30 10041 H 969.665 2.51165 -1.52621 0
M  V30 10042 H 967.179 1.33294 -0.927707 0
M  V30 10043 H 969.176 4.1576 0.308117 0
M  V30 10044 H 967.836 3.12677 0.87538 0
M  V30 10045 H 968.847 4.50463 -2.55546 0
M  V30 10046 H 965.524 4.175 0.00406684 0
M  V30 10047 H 966.914 5.54153 -3.79952 0
M  V30 10048 N 969.634 0.838594 1.33437 0
M  V30 10049 C 970.564 0.286672 2.31734 0
M  V30 10050 C 971.545 -0.605451 1.5896 0
M  V30 10051 O 972.73 -0.529059 1.86854 0
M  V30 10052 C 969.86 -0.539311 3.43087 0
M  V30 10053 C 968.814 0.256997 4.27228 0
M  V30 10054 C 968.14 -0.692718 5.30194 0
M  V30 10055 C 969.44 1.47391 5.01072 0
M  V30 10056 H 971.134 1.10798 2.78144 0
M  V30 10057 H 968.68 0.534235 1.33723 0
M  V30 10058 H 970.633 -0.935724 4.1088 0
M  V30 10059 H 969.357 -1.39383 2.95364 0
M  V30 10060 H 968.016 0.634967 3.61059 0
M  V30 10061 H 967.664 -1.54363 4.78729 0
M  V30 10062 H 967.364 -0.164023 5.87371 0
M  V30 10063 H 968.888 -1.08665 6.00853 0
M  V30 10064 H 970.302 1.15067 5.61634 0
M  V30 10065 H 968.699 1.93937 5.67898 0
M  V30 10066 H 969.769 2.24382 4.29861 0
M  V30 10067 N 971.112 -1.45937 0.595003 0
M  V30 10068 C 972.075 -2.2888 -0.121102 0
M  V30 10069 C 973.075 -1.39075 -0.807149 0
M  V30 10070 O 974.265 -1.61326 -0.657228 0
M  V30 10071 C 971.397 -3.19778 -1.1813 0
M  V30 10072 H 972.59 -2.93673 0.607968 0
M  V30 10073 H 970.143 -1.5225 0.353495 0
M  V30 10074 H 970.878 -2.59759 -1.94154 0
M  V30 10075 H 970.663 -3.85914 -0.693724 0
M  V30 10076 H 972.153 -3.82176 -1.68319 0
M  V30 10077 N 972.59 -0.333456 -1.54032 0
M  V30 10078 C 973.523 0.570776 -2.20947 0
M  V30 10079 C 974.501 1.10811 -1.18994 0
M  V30 10080 O 975.685 1.17027 -1.47773 0
M  V30 10081 C 972.812 1.7842 -2.87896 0
M  V30 10082 C 971.858 1.37722 -4.03652 0
M  V30 10083 S 972.691 0.405548 -5.33962 0
M  V30 10084 C 973.847 1.62603 -6.0441 0
M  V30 10085 H 974.08 0.0023936 -2.973 0
M  V30 10086 H 971.613 -0.117531 -1.53952 0
M  V30 10087 H 973.571 2.48038 -3.27089 0
M  V30 10088 H 972.232 2.32378 -2.11327 0
M  V30 10089 H 971.425 2.28167 -4.49395 0
M  V30 10090 H 971.027 0.760628 -3.66184 0
M  V30 10091 H 973.319 2.56202 -6.2719 0
M  V30 10092 H 974.262 1.21058 -6.97675 0
M  V30 10093 H 974.67 1.8175 -5.34441 0
M  V30 10094 N 974.068 1.57479 -0.061844 0
M  V30 10095 C 975.001 2.07734 0.94455 0
M  V30 10096 C 975.979 0.980207 1.29733 0
M  V30 10097 O 977.163 1.2529 1.40836 0
M  V30 10098 C 974.29 2.52673 2.25553 0
M  V30 10099 C 973.336 3.73725 2.05503 0
M  V30 10100 S 974.169 5.18886 1.32354 0
M  V30 10101 C 975.325 5.67148 2.64753 0
M  V30 10102 H 975.558 2.92772 0.516888 0
M  V30 10103 H 973.091 1.53663 0.150684 0
M  V30 10104 H 975.049 2.79226 3.00904 0
M  V30 10105 H 973.71 1.67921 2.65445 0
M  V30 10106 H 972.903 4.03125 3.025 0
M  V30 10107 H 972.505 3.47494 1.3829 0
M  V30 10108 H 974.797 5.73385 3.60882 0
M  V30 10109 H 975.74 6.66196 2.39976 0
M  V30 10110 H 976.148 4.94921 2.71502 0
M  V30 10111 N 975.546 -0.211634 1.56173 0
M  V30 10112 C 976.771 -0.955324 1.84088 0
M  V30 10113 C 977.196 -1.76754 0.643407 0
M  V30 10114 O 976.554 -1.76653 -0.407842 0
M  V30 10115 C 976.602 -1.84063 3.10085 0
M  V30 10116 O 975.706 -2.9373 2.89476 0
M  V30 10117 H 975.047 -0.26996 0.606645 0
M  V30 10118 H 977.577 -0.221947 2.03393 0
M  V30 10119 H 977.587 -2.24852 3.40449 0
M  V30 10120 H 976.262 -1.24373 3.96868 0
M  V30 10121 H 974.839 -2.56816 2.7037 0
M  V30 10122 N 977.024 -1.50153 -0.478725 0
M  V30 10123 C 977.972 -1.68975 -1.59844 0
M  V30 10124 C 978.966 -0.555591 -1.6003 0
M  V30 10125 O 980.172 -0.735875 -1.64271 0
M  V30 10126 H 976.547 -0.533211 -0.530274 0
M  V30 10127 H 978.518 -2.62917 -1.41128 0
M  V30 10128 C 977.267 -1.79409 -2.97838 0
M  V30 10129 H 976.59 -2.66066 -2.98411 0
M  V30 10130 H 978.03 -1.96606 -3.75662 0
M  V30 10131 C 976.489 -0.543927 -3.3248 0
M  V30 10132 O 977.019 0.320376 -4.0042 0
M  V30 10133 N 975.225 -0.400217 -2.87831 0
M  V30 10134 H 974.772 -1.10458 -2.32716 0
M  V30 10135 H 974.73 0.435111 -3.11375 0
M  V30 10136 N 978.502 0.731368 -1.39602 0
M  V30 10137 C 979.727 1.52567 -1.40492 0
M  V30 10138 C 980.152 1.881 -0.00228828 0
M  V30 10139 O 979.51 1.52167 0.985643 0
M  V30 10140 C 979.558 2.78749 -2.2876 0
M  V30 10141 O 978.662 3.7482 -1.71999 0
M  V30 10142 H 978.003 0.460601 -0.478271 0
M  V30 10143 H 980.533 0.902042 -1.83642 0
M  V30 10144 H 980.543 3.27446 -2.43399 0
M  V30 10145 H 979.218 2.5222 -3.30693 0
M  V30 10146 H 977.795 3.33604 -1.66622 0
M  V30 10147 N 979.98 1.24838 0.961938 0
M  V30 10148 C 980.91 1.07053 2.07514 0
M  V30 10149 C 981.891 -0.0182465 1.7009 0
M  V30 10150 O 983.076 0.149915 1.9362 0
M  V30 10151 C 980.206 0.680693 3.40564 0
M  V30 10152 C 979.16 1.71889 3.91967 0
M  V30 10153 C 978.486 1.18395 5.21428 0
M  V30 10154 C 979.786 3.1161 4.19161 0
M  V30 10155 H 981.48 2.00167 2.22651 0
M  V30 10156 H 979.026 0.963799 1.0699 0
M  V30 10157 H 980.979 0.54324 4.17884 0
M  V30 10158 H 979.703 -0.28615 3.25344 0
M  V30 10159 H 978.362 1.84465 3.16809 0
M  V30 10160 H 978.01 0.207543 5.02572 0
M  V30 10161 H 977.71 1.87778 5.56788 0
M  V30 10162 H 979.234 1.05873 6.01351 0
M  V30 10163 H 980.648 3.0223 4.87165 0
M  V30 10164 H 979.045 3.78398 4.65763 0
M  V30 10165 H 980.115 3.59218 3.25715 0
M  V30 10166 N 981.458 -1.16348 1.06306 0
M  V30 10167 C 982.869 -1.68491 0.80422 0
M  V30 10168 C 983.22 -1.84327 -0.672159 0
M  V30 10169 O 982.345 -1.53892 -1.52139 0
M  V30 10170 C 982.94 -3.06048 1.45328 0
M  V30 10171 C 981.499 -3.55311 1.24221 0
M  V30 10172 C 980.646 -2.31291 1.5297 0
M  V30 10173 H 983.597 -1.00708 1.22652 0
M  V30 10174 H 983.618 -3.70451 0.868674 0
M  V30 10175 H 983.13 -2.9449 2.52779 0
M  V30 10176 H 981.231 -3.72128 0.187447 0
M  V30 10177 H 981.344 -4.37397 1.95502 0
M  V30 10178 H 979.708 -2.3631 0.950241 0
M  V30 10179 H 980.491 -2.22331 2.6158 0
M  V30 10180 N 982.937 -0.845659 -1.3299 0
M  V30 10181 C 984.177 -0.450819 -1.99366 0
M  V30 10182 C 984.541 0.973297 -1.65502 0
M  V30 10183 O 985.742 1.47222 -2.24898 0
M  V30 10184 C 984.013 -0.672825 -3.5101 0
M  V30 10185 S 985.572 -0.374216 -4.37201 0
M  V30 10186 H 982.39 -0.169273 -0.690556 0
M  V30 10187 H 984.992 -1.09642 -1.61861 0
M  V30 10188 H 983.696 -1.70855 -3.73145 0
M  V30 10189 H 983.227 -0.0133185 -3.93398 0
M  V30 10190 H 985.242 0.803342 -4.89654 0
M  V30 10191 N 984.415 1.45619 -0.602734 0
M  V30 10192 C 985.345 2.33258 0.106342 0
M  V30 10193 C 986.326 1.46543 0.863664 0
M  V30 10194 O 987.511 1.75324 0.835175 0
M  V30 10195 C 984.641 3.29168 1.10751 0
M  V30 10196 C 983.595 4.25481 0.463717 0
M  V30 10197 C 982.921 5.11046 1.57278 0
M  V30 10198 C 984.221 5.18702 -0.61199 0
M  V30 10199 H 985.915 2.92795 -0.625423 0
M  V30 10200 H 983.461 1.40793 -0.302213 0
M  V30 10201 H 985.414 3.89346 1.61208 0
M  V30 10202 H 984.138 2.6778 1.8698 0
M  V30 10203 H 982.797 3.66595 -0.0199496 0
M  V30 10204 H 982.445 4.46029 2.32524 0
M  V30 10205 H 982.145 5.76286 1.14755 0
M  V30 10206 H 983.669 5.74091 2.07972 0
M  V30 10207 H 985.083 5.72979 -0.191686 0
M  V30 10208 H 983.48 5.92393 -0.958686 0
M  V30 10209 H 984.55 4.61424 -1.4905 0
M  V30 10210 N 985.893 0.34162 1.53853 0
M  V30 10211 C 986.823 -0.508431 2.27897 0
M  V30 10212 C 987.804 -1.10425 1.29384 0
M  V30 10213 O 988.989 -1.126 1.58224 0
M  V30 10214 C 986.119 -1.66048 3.05034 0
M  V30 10215 C 985.073 -1.19309 4.11035 0
M  V30 10216 C 984.399 -2.4335 4.76114 0
M  V30 10217 C 985.699 -0.294952 5.21467 0
M  V30 10218 H 987.393 0.109251 2.99201 0
M  V30 10219 H 984.939 0.0539847 1.43899 0
M  V30 10220 H 986.892 -2.26158 3.5557 0
M  V30 10221 H 985.616 -2.30503 2.31379 0
M  V30 10222 H 984.275 -0.614809 3.61408 0
M  V30 10223 H 983.923 -3.06208 3.99056 0
M  V30 10224 H 983.623 -2.1276 5.47729 0
M  V30 10225 H 985.147 -3.0419 5.29434 0
M  V30 10226 H 986.561 -0.80285 5.67651 0
M  V30 10227 H 984.958 -0.0810221 6.00045 0
M  V30 10228 H 986.028 0.669433 4.80257 0
M  V30 10229 N 987.371 -1.57444 0.0701946 0
M  V30 10230 C 988.301 -2.15659 -0.895176 0
M  V30 10231 C 989.282 -1.08321 -1.31151 0
M  V30 10232 O 990.467 -1.36349 -1.38284 0
M  V30 10233 C 987.597 -2.71693 -2.16334 0
M  V30 10234 C 986.551 -3.84183 -1.88645 0
M  V30 10235 C 985.877 -4.26814 -3.22078 0
M  V30 10236 C 987.177 -5.08493 -1.19299 0
M  V30 10237 H 988.871 -2.96576 -0.410217 0
M  V30 10238 H 986.417 -1.42662 -0.195872 0
M  V30 10239 H 988.37 -3.11064 -2.84284 0
M  V30 10240 H 987.094 -1.87994 -2.67069 0
M  V30 10241 H 985.753 -3.45314 -1.23101 0
M  V30 10242 H 985.401 -3.40039 -3.70651 0
M  V30 10243 H 985.101 -5.02642 -3.04344 0
M  V30 10244 H 986.625 -4.68799 -3.91228 0
M  V30 10245 H 988.039 -5.4519 -1.77316 0
M  V30 10246 H 986.436 -5.89588 -1.11828 0
M  V30 10247 H 987.506 -4.84595 -0.171839 0
M  V30 10248 N 988.849 0.203349 -1.56283 0
M  V30 10249 C 989.779 1.2549 -1.96912 0
M  V30 10250 C 990.76 1.47919 -0.839884 0
M  V30 10251 O 991.945 1.59795 -1.10359 0
M  V30 10252 C 989.075 2.6009 -2.30153 0
M  V30 10253 C 988.029 2.52289 -3.45738 0
M  V30 10254 C 987.355 3.91086 -3.64632 0
M  V30 10255 C 988.655 2.05503 -4.80173 0
M  V30 10256 H 990.349 0.917306 -2.85002 0
M  V30 10257 H 987.895 0.439818 -1.37119 0
M  V30 10258 H 989.848 3.33829 -2.5717 0
M  V30 10259 H 988.572 2.95574 -1.38937 0
M  V30 10260 H 987.231 1.81006 -3.18798 0
M  V30 10261 H 986.879 4.23908 -2.7076 0
M  V30 10262 H 986.579 3.86742 -4.42385 0
M  V30 10263 H 988.103 4.66459 -3.94016 0
M  V30 10264 H 989.517 2.68995 -5.06275 0
M  V30 10265 H 987.914 2.1218 -5.61337 0
M  V30 10266 H 988.984 1.00793 -4.74309 0
M  V30 10267 N 990.327 1.50405 0.470755 0
M  V30 10268 C 991.573 1.6165 1.22462 0
M  V30 10269 C 991.906 0.316034 1.91611 0
M  V30 10270 O 991.181 -0.682509 1.82132 0
M  V30 10271 C 991.464 2.79702 2.26801 0
M  V30 10272 C 991.317 4.19631 1.61955 0
M  V30 10273 C 992.636 2.93313 3.28109 0
M  V30 10274 H 989.755 0.588345 0.443868 0
M  V30 10275 H 992.397 1.82792 0.518376 0
M  V30 10276 H 990.547 2.61807 2.87036 0
M  V30 10277 H 992.219 4.49117 1.05316 0
M  V30 10278 H 990.462 4.23874 0.922674 0
M  V30 10279 H 991.133 4.98162 2.37779 0
M  V30 10280 H 993.609 3.09697 2.77897 0
M  V30 10281 H 992.485 3.77537 3.98443 0
M  V30 10282 H 992.746 2.03942 3.9225 0
M  V30 10283 N 991.805 -0.723954 1.39988 0
M  V30 10284 C 992.768 -1.81973 1.3935 0
M  V30 10285 C 993.768 -1.58187 0.288702 0
M  V30 10286 O 994.958 -1.65383 0.547181 0
M  V30 10287 C 992.09 -3.19937 1.177 0
M  V30 10288 H 993.283 -1.83939 2.36868 0
M  V30 10289 H 990.836 -0.928742 1.25714 0
M  V30 10290 H 991.571 -3.23625 0.209093 0
M  V30 10291 H 991.356 -3.386 1.97719 0
M  V30 10292 H 992.846 -3.99981 1.20022 0
M  V30 10293 N 993.283 -1.25346 -0.955304 0
M  V30 10294 C 994.246 -1.05754 -2.03344 0
M  V30 10295 C 995.246 -0.0105743 -1.60797 0
M  V30 10296 O 996.436 -0.252699 -1.72357 0
M  V30 10297 C 993.568 -0.605536 -3.35479 0
M  V30 10298 H 994.761 -2.01459 -2.22158 0
M  V30 10299 H 992.314 -1.07744 -1.1323 0
M  V30 10300 H 993.049 0.354154 -3.2236 0
M  V30 10301 H 992.834 -1.36134 -3.67709 0
M  V30 10302 H 994.324 -0.489867 -4.14717 0
M  V30 10303 N 994.761 1.15782 -1.06922 0
M  V30 10304 C 996.009 1.86097 -0.788192 0
M  V30 10305 C 996.33 1.82475 0.687606 0
M  V30 10306 O 995.6 1.26266 1.49778 0
M  V30 10307 H 994.18 0.689008 -0.288577 0
M  V30 10308 H 996.842 1.40377 -1.35205 0
M  V30 10309 H 995.938 2.91358 -1.1188 0
M  V30 10310 N 996.239 0.8527 1.3254 0
M  V30 10311 C 997.202 0.300959 2.27215 0
M  V30 10312 C 998.202 -0.538235 1.51525 0
M  V30 10313 O 999.392 -0.350027 1.70647 0
M  V30 10314 C 996.524 -0.574428 3.36025 0
M  V30 10315 H 997.717 1.13655 2.77529 0
M  V30 10316 H 995.27 0.626878 1.43178 0
M  V30 10317 H 996.005 -1.43191 2.90976 0
M  V30 10318 H 995.79 0.0262265 3.92091 0
M  V30 10319 H 997.28 -0.9533 4.06573 0
M  V30 10320 N 997.718 -1.45297 0.610449 0
M  V30 10321 C 998.995 -1.95562 0.0386189 0
M  V30 10322 C 999.375 -1.55284 -1.43004 0
M  V30 10323 O 998.723 -0.816785 -2.13403 0
M  V30 10324 C 998.933 -3.48176 0.239731 0
M  V30 10325 C 1000.28 -4.24425 0.122035 0
M  V30 10326 O 1001.3 -3.55794 0.170003 0
M  V30 10327 O 1000.16 -5.46499 0.00953695 0
M  V30 10328 H 997.258 -0.826296 -0.0341081 0
M  V30 10329 H 999.804 -1.55449 0.68071 0
M  V30 10330 H 998.576 -3.70471 1.25963 0
M  V30 10331 H 998.199 -3.95186 -0.437486 0
M  V30 10332 N 999.196 -0.349774 -1.5367 0
M  V30 10333 C 1000.44 0.245189 -2.01312 0
M  V30 10334 C 1000.77 1.49702 -1.23705 0
M  V30 10335 O 1000.05 1.91742 -0.326371 0
M  V30 10336 C 1000.33 0.553071 -3.55827 0
M  V30 10337 C 1000.19 -0.71129 -4.4414 0
M  V30 10338 C 1001.5 1.36015 -4.18555 0
M  V30 10339 H 998.624 0.0876415 -0.73177 0
M  V30 10340 H 1001.27 -0.471543 -1.84056 0
M  V30 10341 H 999.416 1.16367 -3.70663 0
M  V30 10342 H 1001.09 -1.34913 -4.41131 0
M  V30 10343 H 999.331 -1.33491 -4.1275 0
M  V30 10344 H 1000 -0.45104 -5.50154 0
M  V30 10345 H 1002.48 0.843778 -4.07455 0
M  V30 10346 H 1001.35 1.54432 -5.26728 0
M  V30 10347 H 1001.61 2.36408 -3.73582 0
M  V30 10348 N 1000.67 1.57404 -0.0785433 0
M  V30 10349 C 1001.62 2.14316 0.903949 0
M  V30 10350 C 1002.62 1.08176 1.30362 0
M  V30 10351 O 1003.82 1.26546 1.28008 0
M  V30 10352 H 1000.2 0.685367 0.309477 0
M  V30 10353 H 1002.17 2.95719 0.399081 0
M  V30 10354 C 1000.92 2.72504 2.15956 0
M  V30 10355 H 1000.24 3.53853 1.86087 0
M  V30 10356 H 1001.68 3.15914 2.82798 0
M  V30 10357 C 1000.14 1.6759 2.92259 0
M  V30 10358 O 1000.67 1.10492 3.86205 0
M  V30 10359 N 998.875 1.38467 2.5549 0
M  V30 10360 H 998.422 1.85088 1.79166 0
M  V30 10361 H 998.38 0.685053 3.06846 0
M  V30 10362 N 1002.15 -0.195058 1.56388 0
M  V30 10363 C 1003.11 -1.2254 1.93692 0
M  V30 10364 C 1004.11 -1.38437 0.81804 0
M  V30 10365 O 1005.3 -1.36248 1.08545 0
M  V30 10366 C 1002.44 -2.59476 2.21099 0
M  V30 10367 H 1003.63 -0.906544 2.8587 0
M  V30 10368 H 1001.18 -0.436577 1.50079 0
M  V30 10369 H 1001.92 -2.96417 1.31558 0
M  V30 10370 H 1001.7 -2.4931 3.02634 0
M  V30 10371 H 1003.19 -3.33777 2.50964 0
M  V30 10372 N 1003.63 -1.50653 -0.462772 0
M  V30 10373 C 1004.56 -1.66286 -1.5774 0
M  V30 10374 C 1005.57 -0.544094 -1.53439 0
M  V30 10375 O 1006.76 -0.817566 -1.58676 0
M  V30 10376 C 1003.86 -1.63893 -2.96635 0
M  V30 10377 C 1003.04 -2.91939 -3.25716 0
M  V30 10378 C 1002.1 -2.82076 -4.44206 0
M  V30 10379 O 1001.12 -3.56032 -4.44106 0
M  V30 10380 N 1002.32 -1.96196 -5.4634 0
M  V30 10381 H 1005.09 -2.6243 -1.44742 0
M  V30 10382 H 1002.65 -1.48221 -0.651326 0
M  V30 10383 H 1004.64 -1.54897 -3.73884 0
M  V30 10384 H 1003.21 -0.75449 -3.03358 0
M  V30 10385 H 1002.43 -3.14998 -2.37002 0
M  V30 10386 H 1003.72 -3.7675 -3.4196 0
M  V30 10387 H 1003.12 -1.35439 -5.49247 0
M  V30 10388 H 1001.67 -1.93097 -6.2254 0
M  V30 10389 N 1005.11 0.71652 -1.4037 0
M  V30 10390 C 1006.02 1.86074 -1.42876 0
M  V30 10391 C 1007.03 1.71005 -0.321475 0
M  V30 10392 O 1008.21 1.93286 -0.565909 0
M  V30 10393 C 1005.28 3.21862 -1.28863 0
M  V30 10394 C 1004.34 3.49193 -2.49726 0
M  V30 10395 C 1003.57 4.78502 -2.36372 0
M  V30 10396 O 1003.79 5.53529 -1.37703 0
M  V30 10397 O 1002.73 5.06147 -3.25728 0
M  V30 10398 H 1006.55 1.86916 -2.39366 0
M  V30 10399 H 1004.14 0.866818 -1.21683 0
M  V30 10400 H 1006.02 4.02972 -1.23253 0
M  V30 10401 H 1004.69 3.2175 -0.354783 0
M  V30 10402 H 1003.6 2.68095 -2.60913 0
M  V30 10403 H 1004.93 3.54101 -3.41868 0
M  V30 10404 N 1006.59 1.25851 0.948643 0
M  V30 10405 C 1007.52 1.02549 2.04979 0
M  V30 10406 C 1008.53 -0.0115923 1.62796 0
M  V30 10407 O 1009.72 0.227643 1.77042 0
M  V30 10408 C 1006.82 0.529486 3.34738 0
M  V30 10409 C 1005.99 1.6341 4.05729 0
M  V30 10410 C 1005.05 1.13743 5.1376 0
M  V30 10411 O 1004.08 1.83303 5.38877 0
M  V30 10412 N 1005.28 -0.0181151 5.80497 0
M  V30 10413 H 1008.05 1.97365 2.25537 0
M  V30 10414 H 1005.61 1.17137 1.11761 0
M  V30 10415 H 1007.6 0.181566 4.04293 0
M  V30 10416 H 1006.17 -0.324893 3.10907 0
M  V30 10417 H 1005.39 2.15331 3.30191 0
M  V30 10418 H 1006.68 2.37603 4.49914 0
M  V30 10419 H 1006.07 -0.599198 5.62518 0
M  V30 10420 H 1004.63 -0.307019 6.51077 0
M  V30 10421 N 1008.06 -1.15214 1.07534 0
M  V30 10422 C 1009.01 -2.20013 0.697337 0
M  V30 10423 C 1009.98 -1.6314 -0.312168 0
M  V30 10424 O 1011.17 -1.89768 -0.198196 0
M  V30 10425 C 1008.31 -3.44945 0.103293 0
M  V30 10426 C 1007.42 -4.16009 1.1645 0
M  V30 10427 C 1006.55 -5.28496 0.535261 0
M  V30 10428 C 1005.59 -5.9138 1.57912 0
M  V30 10429 N 1004.73 -6.95335 0.972332 0
M  V30 10430 H 1009.57 -2.51698 1.59538 0
M  V30 10431 H 1007.11 -1.2361 0.797431 0
M  V30 10432 H 1009.07 -4.16397 -0.258766 0
M  V30 10433 H 1007.7 -3.13772 -0.758096 0
M  V30 10434 H 1006.75 -3.43035 1.64411 0
M  V30 10435 H 1008.06 -4.58853 1.9559 0
M  V30 10436 H 1007.21 -6.06579 0.120942 0
M  V30 10437 H 1005.95 -4.8685 -0.287889 0
M  V30 10438 H 1004.96 -5.12008 2.0032 0
M  V30 10439 H 1006.18 -6.35103 2.40459 0
M  V30 10440 H 1004.13 -6.55779 0.170119 0
M  V30 10441 H 1004.05 -7.36616 1.70095 0
M  V30 10442 H 1005.31 -7.77312 0.583577 0
M  V30 10443 N 1009.54 -0.859717 -1.32086 0
M  V30 10444 C 1010.77 -0.478865 -2.01796 0
M  V30 10445 C 1011.19 0.918274 -1.64163 0
M  V30 10446 O 1010.55 1.60409 -0.844896 0
M  V30 10447 C 1010.6 -0.631356 -3.5503 0
M  V30 10448 O 1009.7 0.333712 -4.11048 0
M  V30 10449 H 1009.04 -0.191775 -0.635703 0
M  V30 10450 H 1011.57 -1.16031 -1.68517 0
M  V30 10451 H 1011.58 -0.520783 -4.04663 0
M  V30 10452 H 1010.26 -1.65015 -3.81763 0
M  V30 10453 H 1008.84 0.178953 -3.7247 0
M  V30 10454 N 1011.02 1.44971 -0.618145 0
M  V30 10455 C 1012.27 2.0176 -0.11725 0
M  V30 10456 C 1012.59 1.48773 1.26062 0
M  V30 10457 O 1011.86 0.686152 1.83491 0
M  V30 10458 H 1010.44 0.745909 -0.0403545 0
M  V30 10459 H 1013.1 1.77638 -0.801923 0
M  V30 10460 H 1012.2 3.1201 -0.0750477 0
M  V30 10461 N 1012.5 0.357919 1.53482 0
M  V30 10462 C 1013.91 0.00655107 1.59599 0
M  V30 10463 C 1014.11 -1.47449 1.37336 0
M  V30 10464 O 1013.17 -2.2351 1.17472 0
M  V30 10465 C 1014.48 0.455617 2.97228 0
M  V30 10466 C 1016.03 0.409183 3.10314 0
M  V30 10467 C 1016.51 0.833941 4.50344 0
M  V30 10468 N 1018 0.788695 4.56436 0
M  V30 10469 C 1018.73 1.08914 5.62961 0
M  V30 10470 N 1018.23 1.45847 6.77274 0
M  V30 10471 N 1020.02 1.01243 5.52907 0
M  V30 10472 H 1012.17 1.32248 1.66206 0
M  V30 10473 H 1014.44 0.540047 0.779136 0
M  V30 10474 H 1014.14 1.48881 3.18634 0
M  V30 10475 H 1014.02 -0.161751 3.76853 0
M  V30 10476 H 1016.4 -0.614863 2.88623 0
M  V30 10477 H 1016.48 1.06195 2.32715 0
M  V30 10478 H 1016.13 1.85607 4.72771 0
M  V30 10479 H 1016.06 0.158507 5.26361 0
M  V30 10480 H 1018.55 0.516497 3.74354 0
M  V30 10481 H 1018.86 1.67218 7.54492 0
M  V30 10482 H 1017.21 1.49705 6.78685 0
M  V30 10483 H 1020.4 0.723137 4.62481 0
M  V30 10484 H 1020.57 1.24991 6.35831 0
M  V30 10485 N 1013.98 -1.5736 0.0868897 0
M  V30 10486 C 1015.2 -1.98388 -0.587349 0
M  V30 10487 C 1015.62 -0.965757 -1.6223 0
M  V30 10488 O 1014.98 0.0456981 -1.82443 0
M  V30 10489 C 1015.03 -3.39479 -1.24242 0
M  V30 10490 O 1014.75 -4.37393 -0.248878 0
M  V30 10491 C 1016.25 -3.95465 -2.00305 0
M  V30 10492 H 1013.47 -0.652111 -0.15809 0
M  V30 10493 H 1016.01 -2.03843 0.163754 0
M  V30 10494 H 1014.17 -3.35063 -1.94451 0
M  V30 10495 H 1014.58 -5.19525 -0.720678 0
M  V30 10496 H 1016.06 -4.96363 -2.41511 0
M  V30 10497 H 1016.53 -3.32832 -2.86565 0
M  V30 10498 H 1017.14 -4.03328 -1.34931 0
M  V30 10499 N 1015.45 0.186762 -1.56489 0
M  V30 10500 C 1016.42 1.21511 -1.94339 0
M  V30 10501 C 1017.42 1.38001 -0.82537 0
M  V30 10502 O 1018.61 1.3567 -1.09266 0
M  V30 10503 C 1015.74 2.583 -2.22472 0
M  V30 10504 H 1016.93 0.891371 -2.86347 0
M  V30 10505 H 1014.49 0.428612 -1.50308 0
M  V30 10506 H 1015.22 2.95715 -1.33129 0
M  V30 10507 H 1015.01 2.47701 -3.03951 0
M  V30 10508 H 1016.5 3.32441 -2.5273 0
M  V30 10509 N 1016.93 1.50896 0.454776 0
M  V30 10510 C 1017.86 1.73885 1.5584 0
M  V30 10511 C 1018.84 0.588172 1.59607 0
M  V30 10512 O 1020.03 0.829054 1.75614 0
M  V30 10513 C 1017.16 1.84796 2.94054 0
M  V30 10514 C 1016.11 3.00111 3.05152 0
M  V30 10515 C 1015.44 2.96183 4.45174 0
M  V30 10516 C 1016.74 4.40365 2.80849 0
M  V30 10517 H 1018.43 2.66292 1.36854 0
M  V30 10518 H 1015.98 1.28142 0.656936 0
M  V30 10519 H 1017.93 1.99462 3.71204 0
M  V30 10520 H 1016.66 0.890235 3.14233 0
M  V30 10521 H 1015.31 2.85121 2.30438 0
M  V30 10522 H 1014.96 1.98224 4.62295 0
M  V30 10523 H 1014.66 3.73608 4.53532 0
M  V30 10524 H 1016.19 3.1292 5.24322 0
M  V30 10525 H 1017.6 4.55795 3.47741 0
M  V30 10526 H 1016 5.19363 3.00636 0
M  V30 10527 H 1017.07 4.51606 1.76579 0
M  V30 10528 N 1018.41 -0.709066 1.40748 0
M  V30 10529 C 1019.36 -1.8149 1.38005 0
M  V30 10530 C 1020.34 -1.58842 0.256544 0
M  V30 10531 O 1021.54 -1.69904 0.496164 0
M  V30 10532 C 1018.67 -3.19678 1.25143 0
M  V30 10533 C 1017.75 -3.48067 2.42301 0
M  V30 10534 N 1018.14 -3.47234 3.6778 0
M  V30 10535 C 1016.44 -3.78555 2.35822 0
M  V30 10536 C 1017.14 -3.74149 4.45407 0
M  V30 10537 N 1016.12 -3.93224 3.75335 0
M  V30 10538 H 1019.92 -1.79188 2.32957 0
M  V30 10539 H 1017.43 -0.908477 1.34612 0
M  V30 10540 H 1019.43 -3.98875 1.2126 0
M  V30 10541 H 1018.09 -3.23201 0.311642 0
M  V30 10542 H 1019.1 -3.2793 4.00852 0
M  V30 10543 H 1015.78 -3.89529 1.50245 0
M  V30 10544 H 1017.17 -3.79755 5.54289 0
M  V30 10545 N 1019.89 -1.26353 -0.941956 0
M  V30 10546 C 1020.82 -1.10341 -2.05784 0
M  V30 10547 C 1021.8 -0.00881565 -1.70098 0
M  V30 10548 O 1022.99 -0.180699 -1.93357 0
M  V30 10549 C 1020.12 -0.734788 -3.39438 0
M  V30 10550 C 1019.07 -1.78103 -3.89183 0
M  V30 10551 C 1018.4 -1.26675 -5.19478 0
M  V30 10552 C 1019.7 -3.1824 -4.14151 0
M  V30 10553 H 1021.39 -2.03684 -2.19438 0
M  V30 10554 H 1018.94 -0.980698 -1.05443 0
M  V30 10555 H 1020.89 -0.609653 -4.16967 0
M  V30 10556 H 1019.61 0.234354 -3.25758 0
M  V30 10557 H 1018.27 -1.89482 -3.13835 0
M  V30 10558 H 1017.92 -0.287472 -5.02178 0
M  V30 10559 H 1017.62 -1.96612 -5.53731 0
M  V30 10560 H 1019.14 -1.15427 -5.99591 0
M  V30 10561 H 1020.56 -3.09942 -4.82296 0
M  V30 10562 H 1018.95 -3.8576 -4.59684 0
M  V30 10563 H 1020.02 -3.64354 -3.19959 0
M  V30 10564 N 1021.37 1.14642 -1.08144 0
M  V30 10565 C 1022.33 2.17834 -0.712799 0
M  V30 10566 C 1023.33 1.58828 0.251041 0
M  V30 10567 O 1024.52 1.74173 0.0309381 0
M  V30 10568 C 1021.65 3.4086 -0.0519477 0
M  V30 10569 H 1022.85 2.51961 -1.62653 0
M  V30 10570 H 1020.4 1.29243 -0.878971 0
M  V30 10571 H 1021.13 3.12311 0.873636 0
M  V30 10572 H 1020.92 3.84952 -0.745286 0
M  V30 10573 H 1022.41 4.17163 0.191031 0
M  V30 10574 N 1022.85 0.866709 1.31628 0
M  V30 10575 C 1024.09 0.476731 1.97117 0
M  V30 10576 C 1024.42 -0.967813 1.68366 0
M  V30 10577 O 1023.7 -1.68101 0.978377 0
M  V30 10578 C 1023.98 0.730561 3.52611 0
M  V30 10579 C 1023.84 2.2244 3.90948 0
M  V30 10580 C 1025.15 0.19488 4.39668 0
M  V30 10581 H 1022.27 0.174682 0.715999 0
M  V30 10582 H 1024.92 1.08735 1.5581 0
M  V30 10583 H 1023.07 0.210834 3.87927 0
M  V30 10584 H 1024.74 2.81113 3.6575 0
M  V30 10585 H 1022.98 2.69824 3.39673 0
M  V30 10586 H 1023.65 2.35266 4.99353 0
M  V30 10587 H 1026.13 0.639478 4.11157 0
M  V30 10588 H 1025 0.401958 5.47426 0
M  V30 10589 H 1025.26 -0.90302 4.32779 0
M  V30 10590 N 1024.32 -1.44642 0.625825 0
M  V30 10591 C 1025.23 -2.34451 -0.0836134 0
M  V30 10592 C 1026.25 -1.5231 -0.841289 0
M  V30 10593 O 1027.43 -1.85056 -0.794754 0
M  V30 10594 C 1024.49 -3.30211 -1.05648 0
M  V30 10595 C 1023.55 -4.28259 -0.298759 0
M  V30 10596 C 1022.78 -5.19444 -1.22528 0
M  V30 10597 O 1023.01 -5.14444 -2.46382 0
M  V30 10598 O 1021.94 -5.97668 -0.71247 0
M  V30 10599 H 1025.77 -2.96555 0.654912 0
M  V30 10600 H 1023.35 -1.44327 0.386029 0
M  V30 10601 H 1025.23 -3.8917 -1.61632 0
M  V30 10602 H 1023.91 -2.70648 -1.77571 0
M  V30 10603 H 1022.82 -3.72863 0.304001 0
M  V30 10604 H 1024.15 -4.90728 0.380345 0
M  V30 10605 N 1025.8 -0.366053 -1.5329 0
M  V30 10606 C 1026.75 0.496656 -2.22525 0
M  V30 10607 C 1027.74 1.0483 -1.22063 0
M  V30 10608 O 1028.93 0.978266 -1.47509 0
M  V30 10609 C 1026.06 1.63559 -3.01833 0
M  V30 10610 C 1025.14 1.0968 -4.09672 0
M  V30 10611 N 1025.53 0.28104 -5.05019 0
M  V30 10612 C 1023.83 1.37157 -4.24387 0
M  V30 10613 C 1024.53 -0.0140071 -5.81698 0
M  V30 10614 N 1023.51 0.583743 -5.40457 0
M  V30 10615 H 1027.31 -0.133408 -2.93597 0
M  V30 10616 H 1024.82 -0.174095 -1.61464 0
M  V30 10617 H 1026.82 2.26582 -3.49952 0
M  V30 10618 H 1025.48 2.26871 -2.32292 0
M  V30 10619 H 1026.49 -0.0797947 -5.17839 0
M  V30 10620 H 1023.17 2.00743 -3.66072 0
M  V30 10621 H 1024.56 -0.673508 -6.68516 0
M  V30 10622 N 1027.28 1.57312 -0.0952337 0
M  V30 10623 C 1028.56 1.85822 0.610715 0
M  V30 10624 C 1028.94 0.992114 1.86334 0
M  V30 10625 O 1028.28 0.0645669 2.28409 0
M  V30 10626 C 1028.49 3.36492 0.925967 0
M  V30 10627 C 1029.84 4.0455 1.28936 0
M  V30 10628 O 1030.87 3.41374 1.01698 0
M  V30 10629 O 1029.73 5.16024 1.79949 0
M  V30 10630 H 1026.82 0.768454 0.305626 0
M  V30 10631 H 1029.37 1.69217 -0.127941 0
M  V30 10632 H 1028.14 3.91282 0.0373127 0
M  V30 10633 H 1027.76 3.58443 1.7206 0
M  V30 10634 N 1028.76 -0.17846 1.56586 0
M  V30 10635 C 1029.71 -1.24042 1.96765 0
M  V30 10636 C 1030.7 -1.46218 0.855375 0
M  V30 10637 O 1031.91 -1.46882 1.04046 0
M  V30 10638 H 1028.28 -0.416807 0.62592 0
M  V30 10639 H 1030.25 -0.874644 2.85294 0
M  V30 10640 C 1029 -2.57394 2.3376 0
M  V30 10641 H 1028.32 -2.41151 3.18883 0
M  V30 10642 H 1029.76 -3.30405 2.65723 0
M  V30 10643 C 1028.22 -3.15621 1.17835 0
M  V30 10644 O 1028.75 -3.99032 0.462202 0
M  V30 10645 N 1026.96 -2.74606 0.950783 0
M  V30 10646 H 1026.51 -2.06878 1.5349 0
M  V30 10647 H 1026.46 -3.13902 0.176967 0
M  V30 10648 N 1030.24 -1.51135 -0.446768 0
M  V30 10649 C 1031.48 -1.62571 -1.19388 0
M  V30 10650 C 1031.8 -0.3432 -1.92566 0
M  V30 10651 O 1033 -0.336804 -2.69403 0
M  V30 10652 C 1031.46 -2.87071 -2.17068 0
M  V30 10653 C 1031.07 -4.22291 -1.49581 0
M  V30 10654 C 1032.81 -3.07862 -2.9227 0
M  V30 10655 C 1030.72 -5.3795 -2.45689 0
M  V30 10656 H 1029.65 -0.60549 -0.449331 0
M  V30 10657 H 1032.3 -1.77593 -0.461846 0
M  V30 10658 H 1030.68 -2.65662 -2.93666 0
M  V30 10659 H 1031.86 -4.54046 -0.786054 0
M  V30 10660 H 1030.17 -4.07302 -0.865677 0
M  V30 10661 H 1032.77 -3.91444 -3.64246 0
M  V30 10662 H 1033.11 -2.20559 -3.53072 0
M  V30 10663 H 1033.64 -3.29566 -2.2278 0
M  V30 10664 H 1030.38 -6.27484 -1.89591 0
M  V30 10665 H 1029.9 -5.10583 -3.14746 0
M  V30 10666 H 1031.58 -5.69517 -3.07017 0
M  V30 10667 N 1031.71 0.701592 -1.41122 0
M  V30 10668 C 1032.94 1.49553 -1.43696 0
M  V30 10669 C 1033.36 1.88053 -0.0421865 0
M  V30 10670 O 1032.72 1.54223 0.953144 0
M  V30 10671 C 1032.77 2.73834 -2.34622 0
M  V30 10672 O 1031.87 3.71088 -1.7991 0
M  V30 10673 H 1031.21 0.450352 -0.487933 0
M  V30 10674 H 1033.74 0.862886 -1.85514 0
M  V30 10675 H 1033.75 3.22209 -2.5029 0
M  V30 10676 H 1032.43 2.45149 -3.35969 0
M  V30 10677 H 1031.01 3.29994 -1.73661 0
M  V30 10678 N 1033.19 1.2685 0.935242 0
M  V30 10679 C 1034.12 1.1143 2.05196 0
M  V30 10680 C 1035.1 0.0178362 1.70091 0
M  V30 10681 O 1036.29 0.190951 1.93259 0
M  V30 10682 C 1033.42 0.752779 3.39044 0
M  V30 10683 C 1032.37 1.80164 3.88233 0
M  V30 10684 C 1031.7 1.29428 5.18799 0
M  V30 10685 C 1033 3.20431 4.12457 0
M  V30 10686 H 1034.69 2.04845 2.18355 0
M  V30 10687 H 1032.24 0.986276 1.04922 0
M  V30 10688 H 1034.19 0.631757 4.16637 0
M  V30 10689 H 1032.91 -0.217075 3.25878 0
M  V30 10690 H 1031.57 1.91144 3.12825 0
M  V30 10691 H 1031.22 0.3141 5.02018 0
M  V30 10692 H 1030.92 1.99546 5.5268 0
M  V30 10693 H 1032.45 1.18605 5.9897 0
M  V30 10694 H 1033.86 3.12495 4.80645 0
M  V30 10695 H 1032.26 3.88193 4.57631 0
M  V30 10696 H 1033.33 3.66046 3.18023 0
M  V30 10697 N 1034.67 -1.14067 1.0875 0
M  V30 10698 C 1035.63 -2.17453 0.724341 0
M  V30 10699 C 1036.63 -1.58959 -0.242614 0
M  V30 10700 O 1037.82 -1.74186 -0.0217008 0
M  V30 10701 C 1034.96 -3.40828 0.0700236 0
M  V30 10702 H 1036.15 -2.51094 1.63987 0
M  V30 10703 H 1033.7 -1.28775 0.885813 0
M  V30 10704 H 1034.44 -3.1277 -0.857061 0
M  V30 10705 H 1034.22 -3.84551 0.76569 0
M  V30 10706 H 1035.71 -4.17258 -0.168905 0
M  V30 10707 N 1036.15 -0.873678 -1.31166 0
M  V30 10708 C 1037.4 -0.485497 -1.96182 0
M  V30 10709 C 1037.72 0.96621 -1.69379 0
M  V30 10710 O 1036.99 1.67783 -1.01121 0
M  V30 10711 H 1035.57 -0.176547 -0.725838 0
M  V30 10712 H 1038.23 -1.11428 -1.59906 0
M  V30 10713 H 1037.33 -0.646325 -3.05334 0
M  V30 10714 N 1037.63 1.44308 -0.633487 0
M  V30 10715 C 1038.87 2.03904 -0.14226 0
M  V30 10716 C 1039.23 1.48768 1.21376 0
M  V30 10717 O 1040.43 1.99882 1.79724 0
M  V30 10718 C 1038.7 3.5716 -0.130975 0
M  V30 10719 S 1040.26 4.37805 0.295287 0
M  V30 10720 H 1037.08 0.70827 -0.0622429 0
M  V30 10721 H 1039.68 1.76657 -0.837405 0
M  V30 10722 H 1038.39 3.94794 -1.12096 0
M  V30 10723 H 1037.92 3.89021 0.585342 0
M  V30 10724 H 1039.93 4.71732 1.53894 0
M  V30 10725 N 1039.1 0.374177 1.53094 0
M  V30 10726 C 1040.03 -0.459976 2.28925 0
M  V30 10727 C 1041.02 -1.07656 1.31698 0
M  V30 10728 O 1042.2 -1.09219 1.60577 0
M  V30 10729 C 1039.33 -1.5954 3.08487 0
M  V30 10730 C 1038.28 -1.10563 4.13473 0
M  V30 10731 C 1037.61 -2.33196 4.81169 0
M  V30 10732 C 1038.91 -0.184275 5.21975 0
M  V30 10733 H 1040.6 0.172692 2.98902 0
M  V30 10734 H 1038.15 0.0844956 1.43752 0
M  V30 10735 H 1040.1 -2.18565 3.60288 0
M  V30 10736 H 1038.83 -2.25543 2.36216 0
M  V30 10737 H 1037.49 -0.53801 3.62631 0
M  V30 10738 H 1037.13 -2.97675 4.05461 0
M  V30 10739 H 1036.83 -2.01094 5.52119 0
M  V30 10740 H 1038.36 -2.92892 5.35767 0
M  V30 10741 H 1039.77 -0.682262 5.69226 0
M  V30 10742 H 1038.17 0.0462746 6.00082 0
M  V30 10743 H 1039.24 0.771152 4.78729 0
M  V30 10744 N 1040.58 -1.57259 0.103575 0
M  V30 10745 C 1041.51 -2.17509 -0.84923 0
M  V30 10746 C 1042.49 -1.11079 -1.28824 0
M  V30 10747 O 1043.68 -1.39252 -1.35361 0
M  V30 10748 C 1040.81 -2.76221 -2.10522 0
M  V30 10749 C 1039.76 -3.88098 -1.80454 0
M  V30 10750 C 1039.09 -4.33549 -3.12952 0
M  V30 10751 C 1040.39 -5.10909 -1.08486 0
M  V30 10752 H 1042.08 -2.9738 -0.347217 0
M  V30 10753 H 1039.63 -1.43045 -0.165568 0
M  V30 10754 H 1041.58 -3.17024 -2.77621 0
M  V30 10755 H 1040.31 -1.93617 -2.63021 0
M  V30 10756 H 1038.96 -3.47847 -1.15749 0
M  V30 10757 H 1038.61 -3.47825 -3.63355 0
M  V30 10758 H 1038.31 -5.08984 -2.93614 0
M  V30 10759 H 1039.84 -4.76992 -3.81196 0
M  V30 10760 H 1041.25 -5.48828 -1.65711 0
M  V30 10761 H 1039.65 -5.91828 -0.992973 0
M  V30 10762 H 1040.72 -4.84851 -0.0690108 0
M  V30 10763 N 1042.06 0.170153 -1.56679 0
M  V30 10764 C 1042.99 1.21285 -1.9953 0
M  V30 10765 C 1043.97 1.46104 -0.871071 0
M  V30 10766 O 1045.16 1.57419 -1.13724 0
M  V30 10767 C 1042.29 2.5515 -2.35618 0
M  V30 10768 C 1041.24 2.44898 -3.51011 0
M  V30 10769 C 1040.57 3.83263 -3.72845 0
M  V30 10770 C 1041.87 1.95271 -4.84424 0
M  V30 10771 H 1043.56 0.856646 -2.86883 0
M  V30 10772 H 1041.11 0.410634 -1.38021 0
M  V30 10773 H 1043.06 3.28299 -2.64193 0
M  V30 10774 H 1041.78 2.92561 -1.45175 0
M  V30 10775 H 1040.44 1.74203 -3.22566 0
M  V30 10776 H 1040.09 4.18069 -2.79691 0
M  V30 10777 H 1039.79 3.77272 -4.50488 0
M  V30 10778 H 1041.31 4.57996 -4.03822 0
M  V30 10779 H 1042.73 2.58195 -5.11867 0
M  V30 10780 H 1041.13 2.00225 -5.65712 0
M  V30 10781 H 1042.2 0.90709 -4.7634 0
M  V30 10782 N 1043.54 1.5137 0.438746 0
M  V30 10783 C 1044.45 1.75424 1.55768 0
M  V30 10784 C 1045.46 0.638409 1.61865 0
M  V30 10785 O 1046.64 0.9205 1.79133 0
M  V30 10786 C 1043.71 1.87288 2.9176 0
M  V30 10787 C 1042.77 3.11137 2.95791 0
M  V30 10788 C 1042 3.22425 4.25297 0
M  V30 10789 O 1042.22 2.39688 5.17596 0
M  V30 10790 O 1041.16 4.15393 4.35583 0
M  V30 10791 H 1044.98 2.70339 1.38386 0
M  V30 10792 H 1042.57 1.35854 0.621609 0
M  V30 10793 H 1044.45 1.97085 3.72472 0
M  V30 10794 H 1043.12 0.955599 3.09273 0
M  V30 10795 H 1042.03 3.06819 2.1404 0
M  V30 10796 H 1043.36 4.02549 2.83223 0
M  V30 10797 N 1045.02 -0.694098 1.41492 0
M  V30 10798 C 1046.26 -1.45127 1.4065 0
M  V30 10799 C 1046.59 -1.94993 0.0170289 0
M  V30 10800 O 1045.86 -1.71799 -0.941372 0
M  V30 10801 H 1044.44 -0.538493 0.51772 0
M  V30 10802 H 1047.1 -0.821441 1.76744 0
M  V30 10803 H 1046.19 -2.31372 2.0946 0
M  V30 10804 N 1046.49 -1.27344 -0.928501 0
M  V30 10805 C 1047.77 -1.04362 -1.65433 0
M  V30 10806 C 1048.15 0.421896 -2.06841 0
M  V30 10807 O 1047.5 1.40496 -1.80203 0
M  V30 10808 C 1047.71 -2.00442 -2.85699 0
M  V30 10809 C 1049.06 -2.29767 -3.57061 0
M  V30 10810 O 1050.08 -1.98409 -2.95825 0
M  V30 10811 O 1048.94 -2.83217 -4.67387 0
M  V30 10812 H 1046.03 -0.397783 -0.72505 0
M  V30 10813 H 1048.58 -1.38606 -0.979109 0
M  V30 10814 H 1047.35 -2.99281 -2.52085 0
M  V30 10815 H 1046.98 -1.66755 -3.60941 0
M  V30 10816 N 1047.97 1.13488 -1.09353 0
M  V30 10817 C 1048.94 2.17066 -0.735863 0
M  V30 10818 C 1049.94 1.59086 0.234181 0
M  V30 10819 O 1051.13 1.74196 0.012463 0
M  V30 10820 C 1048.26 3.40786 -0.0880975 0
M  V30 10821 H 1049.45 2.50221 -1.65316 0
M  V30 10822 H 1047 1.28304 -0.89263 0
M  V30 10823 H 1047.74 3.1322 0.840462 0
M  V30 10824 H 1047.52 3.8414 -0.786073 0
M  V30 10825 H 1049.01 4.17342 0.146775 0
M  V30 10826 N 1049.45 0.880621 1.30701 0
M  V30 10827 C 1050.4 0.315679 2.25804 0
M  V30 10828 C 1051.39 -0.553382 1.51084 0
M  V30 10829 O 1052.58 -0.398518 1.72455 0
M  V30 10830 C 1049.71 -0.472586 3.40032 0
M  V30 10831 C 1048.79 0.410318 4.2211 0
M  V30 10832 N 1049.18 1.50876 4.82773 0
M  V30 10833 C 1047.48 0.20465 4.4553 0
M  V30 10834 C 1048.18 2.05409 5.44226 0
M  V30 10835 N 1047.16 1.34964 5.26579 0
M  V30 10836 H 1050.96 1.15505 2.70251 0
M  V30 10837 H 1048.47 0.729547 1.45091 0
M  V30 10838 H 1050.47 -0.893918 4.07204 0
M  V30 10839 H 1049.13 -1.30945 2.97125 0
M  V30 10840 H 1050.14 1.89163 4.82118 0
M  V30 10841 H 1046.82 -0.595398 4.13233 0
M  V30 10842 H 1048.21 2.97627 6.02385 0
M  V30 10843 N 1050.93 -1.4397 0.641131 0
M  V30 10844 C 1052.18 -2.02246 0.14985 0
M  V30 10845 C 1052.51 -1.50387 -1.22871 0
M  V30 10846 O 1051.78 -0.692003 -1.81773 0
M  V30 10847 C 1052.07 -3.59798 0.147449 0
M  V30 10848 C 1051.92 -4.21916 1.55907 0
M  V30 10849 C 1053.24 -4.36985 -0.522667 0
M  V30 10850 H 1050.36 -0.734875 0.0559274 0
M  V30 10851 H 1053 -1.71418 0.819513 0
M  V30 10852 H 1051.15 -3.86193 -0.422789 0
M  V30 10853 H 1052.82 -4.06594 2.17896 0
M  V30 10854 H 1051.06 -3.79028 2.10998 0
M  V30 10855 H 1051.74 -5.30964 1.50934 0
M  V30 10856 H 1054.21 -4.16083 -0.0376226 0
M  V30 10857 H 1053.09 -5.46676 -0.493572 0
M  V30 10858 H 1053.35 -4.12335 -1.59475 0
M  V30 10859 N 1052.41 -0.382291 -1.52893 0
M  V30 10860 C 1053.68 0.259354 -1.93873 0
M  V30 10861 C 1054.06 1.64964 -1.3172 0
M  V30 10862 O 1053.41 2.23345 -0.482611 0
M  V30 10863 C 1053.62 0.292765 -3.4777 0
M  V30 10864 C 1054.97 0.525095 -4.21341 0
M  V30 10865 O 1055.99 0.373272 -3.54239 0
M  V30 10866 O 1054.85 0.822004 -5.40283 0
M  V30 10867 H 1051.95 0.159422 -0.811489 0
M  V30 10868 H 1054.49 -0.436289 -1.63996 0
M  V30 10869 H 1053.27 -0.681341 -3.85323 0
M  V30 10870 H 1052.89 1.03362 -3.8393 0
M  V30 10871 N 1053.89 1.57202 -0.111913 0
M  V30 10872 C 1055.11 1.99723 0.559054 0
M  V30 10873 C 1055.54 0.990968 1.59879 0
M  V30 10874 O 1054.89 -0.038311 1.8126 0
M  V30 10875 C 1054.94 3.41151 1.16826 0
M  V30 10876 O 1054.05 3.43383 2.2839 0
M  V30 10877 H 1053.39 0.649004 0.140319 0
M  V30 10878 H 1055.92 2.03637 -0.198295 0
M  V30 10879 H 1055.93 3.79208 1.50551 0
M  V30 10880 H 1054.6 4.13907 0.406637 0
M  V30 10881 H 1053.18 3.17138 1.96158 0
M  V30 10882 N 1055.36 -0.161842 1.56767 0
M  V30 10883 C 1056.59 -0.892247 1.86672 0
M  V30 10884 C 1057.01 -1.75407 0.69841 0
M  V30 10885 O 1056.36 -1.7945 -0.332251 0
M  V30 10886 C 1056.41 -1.7612 3.15696 0
M  V30 10887 O 1056.14 -0.934131 4.28025 0
M  V30 10888 C 1057.64 -2.60046 3.59014 0
M  V30 10889 H 1054.86 -0.258747 0.619105 0
M  V30 10890 H 1057.4 -0.159089 2.0388 0
M  V30 10891 H 1055.56 -2.44759 3.00286 0
M  V30 10892 H 1055.97 -1.52931 5.01709 0
M  V30 10893 H 1057.44 -3.16618 4.5217 0
M  V30 10894 H 1057.92 -3.35374 2.83586 0
M  V30 10895 H 1058.53 -1.96724 3.77067 0
M  V30 10896 N 1056.84 -1.516 -0.430713 0
M  V30 10897 C 1058.07 -1.68414 -1.20185 0
M  V30 10898 C 1058.48 -0.384297 -1.84847 0
M  V30 10899 O 1057.84 0.637808 -1.70992 0
M  V30 10900 C 1057.89 -2.80451 -2.28099 0
M  V30 10901 O 1057.61 -4.05399 -1.66081 0
M  V30 10902 C 1059.11 -3.0859 -3.18256 0
M  V30 10903 H 1056.33 -0.564982 -0.361989 0
M  V30 10904 H 1058.88 -1.9805 -0.50954 0
M  V30 10905 H 1057.03 -2.53395 -2.93036 0
M  V30 10906 H 1057.45 -4.67671 -2.37453 0
M  V30 10907 H 1058.92 -3.9055 -3.90096 0
M  V30 10908 H 1059.4 -2.21264 -3.79393 0
M  V30 10909 H 1060 -3.37331 -2.59014 0
M  V30 10910 N 1058.32 0.686584 -1.41858 0
M  V30 10911 C 1059.55 1.47305 -1.44862 0
M  V30 10912 C 1059.96 1.8912 -0.0549286 0
M  V30 10913 O 1059.3 1.57941 0.938101 0
M  V30 10914 C 1059.36 2.76107 -2.30229 0
M  V30 10915 C 1059.03 2.5644 -3.78269 0
M  V30 10916 C 1060.02 2.21803 -4.70212 0
M  V30 10917 C 1057.71 2.71801 -4.22409 0
M  V30 10918 C 1059.7 2.02778 -6.04284 0
M  V30 10919 C 1057.39 2.52392 -5.56544 0
M  V30 10920 C 1058.39 2.17933 -6.47298 0
M  V30 10921 O 1058.08 1.98701 -7.78956 0
M  V30 10922 H 1057.81 0.460174 -0.495193 0
M  V30 10923 H 1060.36 0.852069 -1.86893 0
M  V30 10924 H 1058.59 3.40644 -1.83026 0
M  V30 10925 H 1060.28 3.37947 -2.24826 0
M  V30 10926 H 1061.05 2.09542 -4.37398 0
M  V30 10927 H 1056.93 2.97605 -3.52069 0
M  V30 10928 H 1060.47 1.75805 -6.75084 0
M  V30 10929 H 1056.37 2.64246 -5.88935 0
M  V30 10930 H 1057.13 2.13393 -7.90193 0
M  V30 10931 N 1059.8 1.27835 0.921735 0
M  V30 10932 C 1061.07 1.05238 1.64877 0
M  V30 10933 C 1061.45 -0.410921 2.07062 0
M  V30 10934 O 1060.8 -1.39538 1.80946 0
M  V30 10935 C 1061.01 2.01955 2.84632 0
M  V30 10936 C 1062.36 2.31657 3.55837 0
M  V30 10937 O 1063.38 1.99975 2.94768 0
M  V30 10938 O 1062.24 2.85692 4.65878 0
M  V30 10939 H 1059.34 0.401622 0.72293 0
M  V30 10940 H 1061.88 1.39123 0.971744 0
M  V30 10941 H 1060.66 3.00614 2.50494 0
M  V30 10942 H 1060.28 1.68667 3.60052 0
M  V30 10943 N 1061.28 -1.12907 1.09954 0
M  V30 10944 C 1062.52 -1.83941 0.837255 0
M  V30 10945 C 1062.84 -1.84234 -0.638984 0
M  V30 10946 O 1062.11 -1.30193 -1.46378 0
M  V30 10947 H 1060.69 -0.681115 0.306743 0
M  V30 10948 H 1063.36 -1.36743 1.38879 0
M  V30 10949 H 1062.45 -2.88289 1.19565 0
M  V30 10950 N 1062.75 -0.88754 -1.30232 0
M  V30 10951 C 1063.98 -0.522306 -2.00199 0
M  V30 10952 C 1064.4 0.889866 -1.66514 0
M  V30 10953 O 1063.75 1.58558 -0.903639 0
M  V30 10954 C 1063.8 -0.690551 -3.54843 0
M  V30 10955 O 1063.53 -2.04713 -3.8733 0
M  V30 10956 C 1065.03 -0.328649 -4.4208 0
M  V30 10957 H 1062.25 -0.201628 -0.63999 0
M  V30 10958 H 1064.79 -1.19355 -1.66056 0
M  V30 10959 H 1062.95 -0.0666493 -3.87343 0
M  V30 10960 H 1063.36 -2.06762 -4.82027 0
M  V30 10961 H 1064.83 -0.497257 -5.49756 0
M  V30 10962 H 1065.31 0.733502 -4.33032 0
M  V30 10963 H 1065.92 -0.928982 -4.1503 0
M  V30 10964 N 1064.23 1.43628 -0.648757 0
M  V30 10965 C 1065.46 2.06217 -0.167945 0
M  V30 10966 C 1065.88 1.486 1.16462 0
M  V30 10967 O 1065.23 0.61559 1.71804 0
M  V30 10968 C 1065.28 3.6144 -0.0660114 0
M  V30 10969 O 1065 4.16914 -1.34589 0
M  V30 10970 C 1066.51 4.41097 0.441408 0
M  V30 10971 H 1063.73 0.665228 -0.0878237 0
M  V30 10972 H 1066.27 1.84207 -0.888144 0
M  V30 10973 H 1064.42 3.82651 0.604722 0
M  V30 10974 H 1064.84 5.10537 -1.20218 0
M  V30 10975 H 1066.31 5.50066 0.461697 0
M  V30 10976 H 1066.79 4.13803 1.47187 0
M  V30 10977 H 1067.4 4.24845 -0.19668 0
M  V30 10978 N 1065.71 0.390394 1.52688 0
M  V30 10979 C 1067.12 -0.083394 1.86514 0
M  V30 10980 C 1067.47 -1.46057 1.31003 0
M  V30 10981 O 1066.6 -2.06663 0.641809 0
M  V30 10982 C 1067.19 -0.158102 3.38431 0
M  V30 10983 C 1065.75 -0.576186 3.71964 0
M  V30 10984 C 1064.9 0.261156 2.76068 0
M  V30 10985 H 1067.85 0.608226 1.46582 0
M  V30 10986 H 1067.87 -0.977023 3.67742 0
M  V30 10987 H 1067.38 0.844365 3.78803 0
M  V30 10988 H 1065.48 -1.58598 3.37161 0
M  V30 10989 H 1065.6 -0.333577 4.77937 0
M  V30 10990 H 1063.96 -0.273737 2.53225 0
M  V30 10991 H 1064.74 1.26162 3.19277 0
M  V30 10992 N 1067.19 -1.57141 0.120249 0
M  V30 10993 C 1068.12 -2.18398 -0.826112 0
M  V30 10994 C 1069.1 -1.12439 -1.27638 0
M  V30 10995 O 1070.28 -1.40679 -1.33877 0
M  V30 10996 C 1067.41 -2.78438 -2.0758 0
M  V30 10997 C 1066.37 -3.89991 -1.76327 0
M  V30 10998 C 1065.69 -4.36844 -3.08336 0
M  V30 10999 C 1066.99 -5.12031 -1.03062 0
M  V30 11000 H 1068.69 -2.97731 -0.315656 0
M  V30 11001 H 1066.23 -1.43213 -0.150387 0
M  V30 11002 H 1068.19 -3.19951 -2.74243 0
M  V30 11003 H 1066.91 -1.96396 -2.60953 0
M  V30 11004 H 1065.57 -3.49055 -1.12053 0
M  V30 11005 H 1065.22 -3.51659 -3.59646 0
M  V30 11006 H 1064.92 -5.1207 -2.88199 0
M  V30 11007 H 1066.44 -4.81009 -3.76116 0
M  V30 11008 H 1067.86 -5.50555 -1.59881 0
M  V30 11009 H 1066.25 -5.92848 -0.930146 0
M  V30 11010 H 1067.32 -4.84897 -0.017582 0
M  V30 11011 N 1068.67 0.153526 -1.5685 0
M  V30 11012 C 1069.62 1.19478 -1.94188 0
M  V30 11013 C 1070.6 1.38889 -0.812329 0
M  V30 11014 O 1071.79 1.4056 -1.07572 0
M  V30 11015 C 1068.92 2.53 -2.32047 0
M  V30 11016 C 1068.01 2.37209 -3.51557 0
M  V30 11017 N 1068.4 1.91162 -4.68285 0
M  V30 11018 C 1066.7 2.67981 -3.56514 0
M  V30 11019 C 1067.4 1.88259 -5.50394 0
M  V30 11020 N 1066.37 2.31329 -4.91923 0
M  V30 11021 H 1070.18 0.830748 -2.81915 0
M  V30 11022 H 1067.69 0.361643 -1.58322 0
M  V30 11023 H 1069.69 3.28264 -2.56998 0
M  V30 11024 H 1068.35 2.90191 -1.45669 0
M  V30 11025 H 1069.36 1.61227 -4.92165 0
M  V30 11026 H 1066.03 3.0909 -2.80659 0
M  V30 11027 H 1067.42 1.54205 -6.53965 0
M  V30 11028 N 1070.14 1.51827 0.422667 0
M  V30 11029 C 1071.39 1.6445 1.16786 0
M  V30 11030 C 1071.71 0.373792 1.91995 0
M  V30 11031 O 1072.91 0.379621 2.68833 0
M  V30 11032 C 1071.37 2.90488 2.12473 0
M  V30 11033 C 1070.98 4.24617 1.42844 0
M  V30 11034 C 1072.72 3.12472 2.87335 0
M  V30 11035 C 1070.63 5.41791 2.371 0
M  V30 11036 H 1069.56 0.612561 0.439641 0
M  V30 11037 H 1072.21 1.78305 0.433534 0
M  V30 11038 H 1070.59 2.703 2.89402 0
M  V30 11039 H 1071.76 4.55239 0.71372 0
M  V30 11040 H 1070.08 4.08628 0.800769 0
M  V30 11041 H 1072.68 3.9719 3.57973 0
M  V30 11042 H 1073.02 2.26148 3.49518 0
M  V30 11043 H 1073.55 3.33069 2.17509 0
M  V30 11044 H 1070.29 6.3042 1.79584 0
M  V30 11045 H 1069.81 5.15526 3.06583 0
M  V30 11046 H 1071.49 5.74329 2.97918 0
M  V30 11047 N 1071.62 -0.679052 1.4222 0
M  V30 11048 C 1072.59 -1.77448 1.45069 0
M  V30 11049 C 1073.59 -1.57189 0.338882 0
M  V30 11050 O 1074.78 -1.63559 0.599519 0
M  V30 11051 C 1071.91 -3.1603 1.27819 0
M  V30 11052 H 1073.1 -1.7631 2.426 0
M  V30 11053 H 1070.65 -0.888277 1.28605 0
M  V30 11054 H 1071.39 -3.22796 0.311946 0
M  V30 11055 H 1071.17 -3.32138 2.08391 0
M  V30 11056 H 1072.66 -3.9596 1.32686 0
M  V30 11057 N 1073.1 -1.28322 -0.914942 0
M  V30 11058 C 1074.06 -1.12169 -1.99877 0
M  V30 11059 C 1075.06 -0.0617252 -1.60681 0
M  V30 11060 O 1076.25 -0.307405 -1.71466 0
M  V30 11061 C 1073.39 -0.711959 -3.33383 0
M  V30 11062 H 1074.58 -2.08425 -2.15636 0
M  V30 11063 H 1072.13 -1.11291 -1.09745 0
M  V30 11064 H 1072.87 0.251418 -3.23324 0
M  V30 11065 H 1072.65 -1.47764 -3.63192 0
M  V30 11066 H 1074.14 -0.621558 -4.12948 0
M  V30 11067 N 1074.58 1.12322 -1.10551 0
M  V30 11068 C 1075.83 1.83495 -0.846998 0
M  V30 11069 C 1076.15 1.8457 0.629205 0
M  V30 11070 O 1075.42 1.30968 1.45686 0
M  V30 11071 H 1074 0.679479 -0.310351 0
M  V30 11072 H 1076.66 1.36004 -1.39602 0
M  V30 11073 H 1075.76 2.87651 -1.21092 0
M  V30 11074 N 1076.06 0.894434 1.2976 0
M  V30 11075 C 1077.47 0.589778 1.48303 0
M  V30 11076 C 1077.67 -0.870085 1.81746 0
M  V30 11077 O 1076.73 -1.65065 1.91076 0
M  V30 11078 C 1078.04 1.51107 2.59975 0
M  V30 11079 C 1079.59 1.51571 2.73853 0
M  V30 11080 C 1080.06 2.42316 3.88648 0
M  V30 11081 N 1081.56 2.40333 3.95973 0
M  V30 11082 C 1082.29 3.07254 4.84131 0
M  V30 11083 N 1081.79 3.83435 5.77018 0
M  V30 11084 N 1083.58 2.96438 4.77578 0
M  V30 11085 H 1075.73 1.83871 1.06327 0
M  V30 11086 H 1077.99 0.78758 0.527657 0
M  V30 11087 H 1077.7 2.55097 2.42112 0
M  V30 11088 H 1077.57 1.22767 3.56662 0
M  V30 11089 H 1079.96 0.483277 2.91116 0
M  V30 11090 H 1080.04 1.83946 1.77757 0
M  V30 11091 H 1079.69 3.4565 3.72141 0
M  V30 11092 H 1079.62 2.07252 4.84101 0
M  V30 11093 H 1082.11 1.84979 3.29532 0
M  V30 11094 H 1082.42 4.31565 6.4107 0
M  V30 11095 H 1080.76 3.87542 5.7692 0
M  V30 11096 H 1083.96 2.36442 4.03996 0
M  V30 11097 H 1084.13 3.48867 5.46073 0
M  V30 11098 N 1077.53 -1.43282 0.656365 0
M  V30 11099 C 1078.78 -2.01378 0.170702 0
M  V30 11100 C 1079.1 -1.52063 -1.22073 0
M  V30 11101 O 1078.37 -0.73456 -1.81607 0
M  V30 11102 H 1076.95 -0.744577 0.0601168 0
M  V30 11103 H 1079.62 -1.75449 0.848739 0
M  V30 11104 H 1078.71 -3.11701 0.157745 0
M  V30 11105 N 1079.01 -0.398486 -1.52479 0
M  V30 11106 C 1080.24 0.183059 -2.06591 0
M  V30 11107 C 1080.66 1.3898 -1.26753 0
M  V30 11108 O 1080.02 1.78885 -0.294959 0
M  V30 11109 C 1080.07 0.522392 -3.56796 0
M  V30 11110 O 1079.17 1.61499 -3.79462 0
M  V30 11111 H 1078.51 0.0188411 -0.663733 0
M  V30 11112 H 1081.04 -0.56861 -1.9654 0
M  V30 11113 H 1081.05 0.784078 -4.00395 0
M  V30 11114 H 1079.73 -0.359807 -4.14341 0
M  V30 11115 H 1078.31 1.3463 -3.47749 0
M  V30 11116 N 1080.49 1.57075 -0.12858 0
M  V30 11117 C 1081.72 1.99876 0.534544 0
M  V30 11118 C 1082.13 1.00843 1.59612 0
M  V30 11119 O 1081.49 0.00268947 1.825 0
M  V30 11120 C 1081.54 3.42654 1.15198 0
M  V30 11121 O 1081.26 4.37899 0.132823 0
M  V30 11122 C 1082.76 4.00637 1.8975 0
M  V30 11123 H 1079.98 0.656073 0.140744 0
M  V30 11124 H 1082.53 2.03337 -0.217742 0
M  V30 11125 H 1080.68 3.40101 1.85499 0
M  V30 11126 H 1081.1 5.21253 0.582682 0
M  V30 11127 H 1082.57 5.02592 2.28266 0
M  V30 11128 H 1083.05 3.40313 2.7764 0
M  V30 11129 H 1083.65 4.06764 1.2419 0
M  V30 11130 N 1081.97 -0.145205 1.5693 0
M  V30 11131 C 1083.39 -0.497905 1.51635 0
M  V30 11132 C 1083.59 -1.8328 0.837301 0
M  V30 11133 O 1082.64 -2.49172 0.408584 0
M  V30 11134 C 1083.95 -0.506557 2.96403 0
M  V30 11135 C 1085.5 -0.591947 3.07352 0
M  V30 11136 C 1085.98 -0.631244 4.53629 0
M  V30 11137 N 1087.47 -0.693417 4.5798 0
M  V30 11138 C 1088.2 -0.744836 5.68542 0
M  V30 11139 N 1087.7 -0.755492 6.88668 0
M  V30 11140 N 1089.49 -0.785854 5.5658 0
M  V30 11141 H 1081.64 0.729779 1.99469 0
M  V30 11142 H 1083.91 0.266295 0.90983 0
M  V30 11143 H 1083.61 0.406127 3.49347 0
M  V30 11144 H 1083.49 -1.34383 3.5245 0
M  V30 11145 H 1085.87 -1.49505 2.54425 0
M  V30 11146 H 1085.95 0.272507 2.54344 0
M  V30 11147 H 1085.6 0.26771 5.07194 0
M  V30 11148 H 1085.53 -1.51221 5.0442 0
M  V30 11149 H 1088.02 -0.692408 3.71503 0
M  V30 11150 H 1088.33 -0.796624 7.68683 0
M  V30 11151 H 1086.68 -0.723339 6.91226 0
M  V30 11152 H 1089.87 -0.774712 4.61645 0
M  V30 11153 H 1090.04 -0.822461 6.42759 0
M  V30 11154 N 1083.45 -1.52049 -0.414609 0
M  V30 11155 C 1084.38 -1.77956 -1.51175 0
M  V30 11156 C 1085.36 -0.630282 -1.57992 0
M  V30 11157 O 1086.54 -0.875324 -1.73354 0
M  V30 11158 C 1083.67 -1.92527 -2.89051 0
M  V30 11159 C 1082.63 -3.08096 -2.97087 0
M  V30 11160 C 1081.95 -3.07882 -4.37164 0
M  V30 11161 C 1083.25 -4.47656 -2.69075 0
M  V30 11162 H 1084.95 -2.69827 -1.29746 0
M  V30 11163 H 1082.49 -1.29839 -0.62273 0
M  V30 11164 H 1084.45 -2.09234 -3.65786 0
M  V30 11165 H 1083.17 -0.973235 -3.11762 0
M  V30 11166 H 1081.83 -2.91131 -2.22797 0
M  V30 11167 H 1081.48 -2.10411 -4.56877 0
M  V30 11168 H 1081.18 -3.85501 -4.43467 0
M  V30 11169 H 1082.7 -3.26712 -5.15841 0
M  V30 11170 H 1084.12 -4.64855 -3.35534 0
M  V30 11171 H 1082.51 -5.27151 -2.8676 0
M  V30 11172 H 1083.58 -4.56129 -1.64544 0
M  V30 11173 N 1084.93 0.6715 -1.42579 0
M  V30 11174 C 1085.89 1.76676 -1.46008 0
M  V30 11175 C 1086.89 1.57007 -0.347213 0
M  V30 11176 O 1088.08 1.63238 -0.608185 0
M  V30 11177 C 1085.21 3.15348 -1.29494 0
M  V30 11178 H 1086.4 1.75021 -2.43531 0
M  V30 11179 H 1083.96 0.881444 -1.29075 0
M  V30 11180 H 1084.69 3.22626 -0.32906 0
M  V30 11181 H 1084.48 3.31028 -2.10149 0
M  V30 11182 H 1085.97 3.95251 -1.34784 0
M  V30 11183 N 1086.4 1.28806 0.908124 0
M  V30 11184 C 1087.37 1.13228 1.99279 0
M  V30 11185 C 1088.37 0.0702456 1.60646 0
M  V30 11186 O 1089.56 0.316494 1.71301 0
M  V30 11187 C 1086.69 0.729629 3.33 0
M  V30 11188 H 1087.88 2.09566 2.14528 0
M  V30 11189 H 1085.43 1.11872 1.09153 0
M  V30 11190 H 1086.17 -0.234268 3.23453 0
M  V30 11191 H 1085.95 1.49688 3.62403 0
M  V30 11192 H 1087.44 0.643449 4.12613 0
M  V30 11193 N 1087.88 -1.11734 1.11145 0
M  V30 11194 C 1088.81 -2.1976 0.789152 0
M  V30 11195 C 1089.79 -1.68382 -0.241143 0
M  V30 11196 O 1090.98 -1.93914 -0.105292 0
M  V30 11197 C 1088.11 -3.46549 0.228204 0
M  V30 11198 C 1087.06 -4.11123 1.19002 0
M  V30 11199 C 1086.39 -5.32451 0.489928 0
M  V30 11200 C 1087.69 -4.56406 2.53951 0
M  V30 11201 H 1089.38 -2.46978 1.69241 0
M  V30 11202 H 1086.93 -1.18705 0.81517 0
M  V30 11203 H 1088.88 -4.21399 -0.00945908 0
M  V30 11204 H 1087.6 -3.18782 -0.71033 0
M  V30 11205 H 1086.26 -3.38264 1.41326 0
M  V30 11206 H 1085.91 -5.00953 -0.453315 0
M  V30 11207 H 1085.61 -5.76605 1.1314 0
M  V30 11208 H 1087.14 -6.10042 0.260984 0
M  V30 11209 H 1088.55 -5.22592 2.35733 0
M  V30 11210 H 1086.95 -5.11363 3.14051 0
M  V30 11211 H 1088.02 -3.7001 3.13402 0
M  V30 11212 N 1089.36 -0.901303 -1.29284 0
M  V30 11213 C 1090.29 -0.396909 -2.30102 0
M  V30 11214 C 1091.27 0.528919 -1.61668 0
M  V30 11215 O 1092.46 0.439306 -1.89166 0
M  V30 11216 C 1089.59 0.375006 -3.45269 0
M  V30 11217 C 1088.54 -0.46054 -4.25515 0
M  V30 11218 C 1087.87 0.438967 -5.32895 0
M  V30 11219 C 1089.17 -1.7113 -4.93469 0
M  V30 11220 H 1090.86 -1.23943 -2.72541 0
M  V30 11221 H 1088.41 -0.597428 -1.31022 0
M  V30 11222 H 1090.36 0.738622 -4.14876 0
M  V30 11223 H 1089.08 1.25132 -3.01678 0
M  V30 11224 H 1087.74 -0.80651 -3.57618 0
M  V30 11225 H 1087.39 1.31346 -4.85548 0
M  V30 11226 H 1087.09 -0.116406 -5.87485 0
M  V30 11227 H 1088.61 0.79874 -6.05353 0
M  V30 11228 H 1090.03 -1.41732 -5.55504 0
M  V30 11229 H 1088.42 -2.20811 -5.57999 0
M  V30 11230 H 1089.49 -2.44636 -4.18666 0
M  V30 11231 N 1090.84 1.42931 -0.663954 0
M  V30 11232 C 1091.78 2.3079 0.0210764 0
M  V30 11233 C 1092.75 1.45356 0.803796 0
M  V30 11234 O 1093.94 1.74207 0.778237 0
M  V30 11235 C 1091.08 3.31069 0.974023 0
M  V30 11236 C 1090.19 4.31598 0.186273 0
M  V30 11237 C 1089.33 5.18955 1.13399 0
M  V30 11238 C 1088.37 6.1117 0.337292 0
M  V30 11239 N 1087.5 6.91114 1.23715 0
M  V30 11240 H 1092.34 2.88819 -0.733995 0
M  V30 11241 H 1089.88 1.42274 -0.373711 0
M  V30 11242 H 1091.84 3.87727 1.54024 0
M  V30 11243 H 1090.47 2.74665 1.69585 0
M  V30 11244 H 1089.52 3.77147 -0.496402 0
M  V30 11245 H 1090.83 4.96919 -0.432753 0
M  V30 11246 H 1089.99 5.80292 1.77049 0
M  V30 11247 H 1088.73 4.53785 1.78691 0
M  V30 11248 H 1087.73 5.48911 -0.312492 0
M  V30 11249 H 1088.96 6.78386 -0.31138 0
M  V30 11250 H 1086.9 6.28583 1.87668 0
M  V30 11251 H 1086.82 7.52999 0.672946 0
M  V30 11252 H 1088.09 7.56948 1.86146 0
M  V30 11253 N 1092.32 0.406567 1.52266 0
M  V30 11254 C 1093.28 -0.408251 2.25535 0
M  V30 11255 C 1094.28 -0.975795 1.27808 0
M  V30 11256 O 1095.47 -0.855077 1.5177 0
M  V30 11257 C 1092.6 -1.57443 3.02365 0
M  V30 11258 H 1093.79 0.233459 2.9899 0
M  V30 11259 H 1091.35 0.159032 1.55489 0
M  V30 11260 H 1092.08 -2.25308 2.33252 0
M  V30 11261 H 1091.87 -1.17399 3.74112 0
M  V30 11262 H 1093.36 -2.15088 3.57948 0
M  V30 11263 N 1093.79 -1.57004 0.136909 0
M  V30 11264 C 1094.76 -2.15066 -0.792419 0
M  V30 11265 C 1095.76 -1.08991 -1.18226 0
M  V30 11266 O 1096.95 -1.34681 -1.10484 0
M  V30 11267 C 1094.08 -2.70554 -2.07397 0
M  V30 11268 H 1095.27 -2.98519 -0.28752 0
M  V30 11269 H 1092.83 -1.55895 -0.112469 0
M  V30 11270 H 1093.56 -1.90739 -2.62277 0
M  V30 11271 H 1093.35 -3.48149 -1.80374 0
M  V30 11272 H 1094.84 -3.15322 -2.73792 0
M  V30 11273 N 1095.27 0.136881 -1.57004 0
M  V30 11274 C 1096.52 0.8461 -1.83536 0
M  V30 11275 C 1096.84 1.81246 -0.71937 0
M  V30 11276 O 1096.11 1.94191 0.258161 0
M  V30 11277 H 1094.69 0.315446 -0.677128 0
M  V30 11278 H 1097.35 0.128469 -1.94476 0
M  V30 11279 H 1096.45 1.40221 -2.78827 0
M  V30 11280 N 1096.75 1.52266 0.40654 0
M  V30 11281 C 1097.71 1.75168 1.47814 0
M  V30 11282 C 1098.71 0.621575 1.48301 0
M  V30 11283 O 1099.9 0.889476 1.4978 0
M  V30 11284 C 1097.04 1.83642 2.87208 0
M  V30 11285 H 1098.23 2.70834 1.28798 0
M  V30 11286 H 1095.78 1.42722 0.637196 0
M  V30 11287 H 1096.52 0.898994 3.1159 0
M  V30 11288 H 1096.3 2.65801 2.88257 0
M  V30 11289 H 1097.79 2.03093 3.64888 0
M  V30 11290 N 1098.23 -0.663929 1.42933 0
M  V30 11291 C 1099.51 -1.42054 1.34462 0
M  V30 11292 C 1099.89 -2.11096 -0.0127801 0
M  V30 11293 O 1099.23 -2.04027 -1.02884 0
M  V30 11294 C 1099.44 -2.41406 2.5204 0
M  V30 11295 C 1100.79 -3.05726 2.94647 0
M  V30 11296 O 1101.82 -2.51733 2.52009 0
M  V30 11297 O 1100.67 -4.03593 3.68477 0
M  V30 11298 H 1097.77 -0.634149 0.530834 0
M  V30 11299 H 1100.31 -0.691738 1.54962 0
M  V30 11300 H 1099.09 -1.89263 3.42484 0
M  V30 11301 H 1098.71 -3.21752 2.33584 0
M  V30 11302 N 1099.71 -1.29285 -0.901281 0
M  V30 11303 C 1101.12 -1.15499 -1.46686 0
M  V30 11304 C 1101.47 0.250446 -1.94595 0
M  V30 11305 O 1100.59 1.14581 -1.83576 0
M  V30 11306 C 1101.19 -2.0906 -2.66607 0
M  V30 11307 C 1099.75 -1.99301 -3.19306 0
M  V30 11308 C 1098.89 -2.00079 -1.91999 0
M  V30 11309 H 1101.85 -1.41793 -0.712773 0
M  V30 11310 H 1101.87 -1.6619 -3.42288 0
M  V30 11311 H 1101.38 -3.11341 -2.31707 0
M  V30 11312 H 1099.48 -1.00103 -3.58901 0
M  V30 11313 H 1099.59 -2.86885 -3.8371 0
M  V30 11314 H 1097.96 -1.44655 -2.09636 0
M  V30 11315 H 1098.74 -3.04061 -1.59379 0
M  V30 11316 N 1101.18 1.11143 -1.11736 0
M  V30 11317 C 1102.11 2.19339 -0.800795 0
M  V30 11318 C 1103.1 1.68508 0.23221 0
M  V30 11319 O 1104.28 1.93967 0.0950063 0
M  V30 11320 C 1101.41 3.46424 -0.246579 0
M  V30 11321 C 1100.36 4.10487 -1.21181 0
M  V30 11322 C 1099.69 5.32183 -0.518158 0
M  V30 11323 C 1100.99 4.55052 -2.56368 0
M  V30 11324 H 1102.68 2.46077 -1.70548 0
M  V30 11325 H 1100.23 1.18271 -0.821454 0
M  V30 11326 H 1102.18 4.21398 -0.0128889 0
M  V30 11327 H 1100.91 3.19154 0.693415 0
M  V30 11328 H 1099.57 3.3751 -1.43118 0
M  V30 11329 H 1099.21 5.01187 0.426742 0
M  V30 11330 H 1098.91 5.75997 -1.16196 0
M  V30 11331 H 1100.44 6.09895 -0.293333 0
M  V30 11332 H 1101.85 5.21335 -2.38501 0
M  V30 11333 H 1100.25 5.0969 -3.16758 0
M  V30 11334 H 1101.32 3.68343 -3.1536 0
M  V30 11335 N 1102.66 0.908147 1.28804 0
M  V30 11336 C 1103.91 0.539201 1.95501 0
M  V30 11337 C 1104.24 -0.913759 1.7136 0
M  V30 11338 O 1103.52 -1.64904 1.03136 0
M  V30 11339 C 1103.8 0.842372 3.50109 0
M  V30 11340 C 1103.65 2.34765 3.83673 0
M  V30 11341 C 1104.97 0.334658 4.38826 0
M  V30 11342 H 1102.09 0.197373 0.71008 0
M  V30 11343 H 1104.73 1.13637 1.52272 0
M  V30 11344 H 1102.88 0.334143 3.8706 0
M  V30 11345 H 1104.55 2.92607 3.56621 0
M  V30 11346 H 1102.8 2.80494 3.30916 0
M  V30 11347 H 1103.47 2.51034 4.91616 0
M  V30 11348 H 1105.94 0.769961 4.08914 0
M  V30 11349 H 1104.82 0.575914 5.4587 0
M  V30 11350 H 1105.08 -0.764878 4.35433 0
M  V30 11351 N 1104.14 -1.42577 0.671525 0
M  V30 11352 C 1105.05 -2.34598 -0.00898225 0
M  V30 11353 C 1106.07 -1.54909 -0.792407 0
M  V30 11354 O 1107.24 -1.87491 -0.735477 0
M  V30 11355 C 1104.31 -3.33405 -0.950888 0
M  V30 11356 C 1103.37 -4.28993 -0.16236 0
M  V30 11357 C 1102.6 -5.2308 -1.0594 0
M  V30 11358 O 1102.82 -5.22022 -2.2989 0
M  V30 11359 O 1101.76 -5.99632 -0.521966 0
M  V30 11360 H 1105.58 -2.94321 0.748927 0
M  V30 11361 H 1103.17 -1.43025 0.43175 0
M  V30 11362 H 1105.05 -3.94115 -1.49169 0
M  V30 11363 H 1103.73 -2.7616 -1.68871 0
M  V30 11364 H 1102.63 -3.71707 0.42247 0
M  V30 11365 H 1103.97 -4.8927 0.536274 0
M  V30 11366 N 1105.62 -0.414636 -1.52048 0
M  V30 11367 C 1106.57 0.422766 -2.28726 0
M  V30 11368 C 1107.56 1.04099 -1.3364 0
M  V30 11369 O 1108.77 0.978559 -1.51077 0
M  V30 11370 H 1105.14 0.155123 -0.735827 0
M  V30 11371 H 1107.11 -0.245091 -2.97392 0
M  V30 11372 C 1105.86 1.52418 -3.12513 0
M  V30 11373 H 1105.18 1.05781 -3.85552 0
M  V30 11374 H 1106.62 2.08382 -3.6926 0
M  V30 11375 C 1105.08 2.49465 -2.26426 0
M  V30 11376 O 1105.61 3.53479 -1.90829 0
M  V30 11377 N 1103.82 2.19806 -1.90088 0
M  V30 11378 H 1103.37 1.35253 -2.19236 0
M  V30 11379 H 1103.32 2.84984 -1.32783 0
M  V30 11380 N 1107.1 1.56929 -0.145233 0
M  V30 11381 C 1108.34 1.96068 0.50632 0
M  V30 11382 C 1108.67 1.02999 1.64989 0
M  V30 11383 O 1107.93 0.0588581 1.95611 0
M  V30 11384 C 1108.23 3.41467 1.05522 0
M  V30 11385 C 1107.89 4.5089 0.0302827 0
M  V30 11386 C 1106.55 4.80542 -0.251475 0
M  V30 11387 C 1108.91 5.16917 -0.666783 0
M  V30 11388 C 1106.23 5.7353 -1.23614 0
M  V30 11389 C 1108.59 6.10965 -1.64025 0
M  V30 11390 C 1107.25 6.38998 -1.92973 0
M  V30 11391 H 1106.52 0.717464 0.185276 0
M  V30 11392 H 1109.17 1.90093 -0.23169 0
M  V30 11393 H 1107.47 3.44265 1.87053 0
M  V30 11394 H 1109.17 3.69077 1.5679 0
M  V30 11395 H 1105.76 4.2781 0.260069 0
M  V30 11396 H 1109.94 4.94142 -0.462297 0
M  V30 11397 H 1105.2 5.93543 -1.46687 0
M  V30 11398 H 1109.37 6.61204 -2.18591 0
M  V30 11399 H 1107 7.10855 -2.69423 0
M  V30 11400 N 1108.58 -0.128553 1.57075 0
M  V30 11401 C 1109.49 -1.17718 2.02927 0
M  V30 11402 C 1110.5 -1.45912 0.947932 0
M  V30 11403 O 1111.68 -1.57217 1.25876 0
M  V30 11404 C 1108.74 -2.48625 2.41633 0
M  V30 11405 C 1107.8 -2.27914 3.63804 0
M  V30 11406 C 1107.04 -3.52579 4.00654 0
M  V30 11407 O 1107.26 -4.59505 3.37952 0
M  V30 11408 O 1106.19 -3.44147 4.93808 0
M  V30 11409 H 1110.02 -0.817846 2.92481 0
M  V30 11410 H 1107.6 -0.338649 1.45511 0
M  V30 11411 H 1109.49 -3.2577 2.67305 0
M  V30 11412 H 1108.16 -2.84052 1.55229 0
M  V30 11413 H 1107.07 -1.4866 3.43294 0
M  V30 11414 H 1108.4 -1.97395 4.50883 0
M  V30 11415 N 1110.05 -1.5248 -0.398459 0
M  V30 11416 C 1111.46 -1.59107 -0.976817 0
M  V30 11417 C 1111.82 -0.438104 -1.91246 0
M  V30 11418 O 1110.94 0.440111 -2.11877 0
M  V30 11419 C 1111.54 -2.88373 -1.77838 0
M  V30 11420 C 1110.09 -2.97445 -2.30659 0
M  V30 11421 C 1109.24 -2.5414 -1.10942 0
M  V30 11422 H 1112.19 -1.57695 -0.178324 0
M  V30 11423 H 1112.21 -2.74327 -2.63676 0
M  V30 11424 H 1111.73 -3.72269 -1.09714 0
M  V30 11425 H 1109.83 -2.18066 -3.02123 0
M  V30 11426 H 1109.94 -4.019 -2.60794 0
M  V30 11427 H 1108.3 -2.08237 -1.46661 0
M  V30 11428 H 1109.09 -3.40421 -0.443684 0
M  V30 11429 N 1111.53 0.65634 -1.43283 0
M  V30 11430 C 1112.46 1.78101 -1.51004 0
M  V30 11431 C 1113.44 1.66138 -0.36498 0
M  V30 11432 O 1114.63 1.85281 -0.581778 0
M  V30 11433 C 1111.76 3.16511 -1.42961 0
M  V30 11434 C 1110.71 3.43233 -2.55685 0
M  V30 11435 C 1110.04 4.81411 -2.32696 0
M  V30 11436 C 1111.34 3.38288 -3.97943 0
M  V30 11437 H 1113.03 1.71896 -2.45137 0
M  V30 11438 H 1110.58 0.825575 -1.17984 0
M  V30 11439 H 1112.53 3.94941 -1.46968 0
M  V30 11440 H 1111.25 3.23439 -0.45332 0
M  V30 11441 H 1109.91 2.67173 -2.51026 0
M  V30 11442 H 1109.56 4.85011 -1.33317 0
M  V30 11443 H 1109.26 5.00251 -3.08257 0
M  V30 11444 H 1110.79 5.62102 -2.38481 0
M  V30 11445 H 1112.2 4.06659 -4.04106 0
M  V30 11446 H 1110.6 3.68664 -4.73505 0
M  V30 11447 H 1111.67 2.36525 -4.23301 0
M  V30 11448 N 1113.01 1.29761 0.894412 0
M  V30 11449 C 1114.24 1.20765 1.67629 0
M  V30 11450 C 1114.65 -0.233434 1.87754 0
M  V30 11451 O 1113.99 -1.16747 1.4183 0
M  V30 11452 C 1114.05 1.85542 3.07919 0
M  V30 11453 C 1113.72 3.34852 3.11004 0
M  V30 11454 C 1114.71 4.30994 2.90758 0
M  V30 11455 C 1112.4 3.76141 3.32901 0
M  V30 11456 C 1114.39 5.664 2.92352 0
M  V30 11457 C 1112.08 5.11667 3.34126 0
M  V30 11458 C 1113.08 6.06607 3.13874 0
M  V30 11459 O 1112.77 7.39659 3.14897 0
M  V30 11460 H 1112.5 0.419418 0.530155 0
M  V30 11461 H 1115.05 1.71754 1.12648 0
M  V30 11462 H 1113.28 1.29071 3.64524 0
M  V30 11463 H 1114.97 1.70795 3.68217 0
M  V30 11464 H 1115.74 4.00427 2.73648 0
M  V30 11465 H 1111.62 3.02694 3.47703 0
M  V30 11466 H 1115.16 6.40479 2.76464 0
M  V30 11467 H 1111.06 5.41877 3.50769 0
M  V30 11468 H 1111.82 7.4853 3.31127 0
M  V30 11469 N 1114.49 -1.10549 1.12324 0
M  V30 11470 C 1115.76 -1.78968 0.789287 0
M  V30 11471 C 1116.14 -1.984 -0.721156 0
M  V30 11472 O 1115.49 -1.5761 -1.65443 0
M  V30 11473 C 1115.7 -3.12044 1.563 0
M  V30 11474 C 1117.05 -3.86939 1.74825 0
M  V30 11475 O 1118.07 -3.21761 1.52802 0
M  V30 11476 O 1116.93 -5.0392 2.11488 0
M  V30 11477 H 1114.03 -0.775617 0.286962 0
M  V30 11478 H 1116.57 -1.17209 1.2272 0
M  V30 11479 H 1115.35 -2.93313 2.59005 0
M  V30 11480 H 1114.97 -3.81521 1.11926 0
M  V30 11481 N 1115.97 -0.914965 -1.28321 0
M  V30 11482 C 1116.9 -0.421292 -2.29668 0
M  V30 11483 C 1117.88 0.511743 -1.6222 0
M  V30 11484 O 1119.06 0.419218 -1.89621 0
M  V30 11485 C 1116.19 0.338364 -3.45648 0
M  V30 11486 C 1115.15 -0.505646 -4.25003 0
M  V30 11487 C 1114.47 0.382421 -5.33331 0
M  V30 11488 C 1115.77 -1.76354 -4.91626 0
M  V30 11489 H 1117.47 -1.26826 -2.71211 0
M  V30 11490 H 1115.01 -0.611291 -1.30381 0
M  V30 11491 H 1116.96 0.694578 -4.15636 0
M  V30 11492 H 1115.69 1.21925 -3.02988 0
M  V30 11493 H 1114.35 -0.844395 -3.56743 0
M  V30 11494 H 1114 1.26189 -4.86914 0
M  V30 11495 H 1113.7 -0.17871 -5.87328 0
M  V30 11496 H 1115.22 0.73449 -6.06166 0
M  V30 11497 H 1116.63 -1.47616 -5.5397 0
M  V30 11498 H 1115.03 -2.26717 -5.55625 0
M  V30 11499 H 1116.1 -2.49063 -4.16048 0
M  V30 11500 N 1117.44 1.42219 -0.679077 0
M  V30 11501 C 1118.72 1.95155 -0.13188 0
M  V30 11502 C 1119.1 1.6193 1.35433 0
M  V30 11503 O 1118.45 0.917672 2.09263 0
M  V30 11504 C 1118.66 3.46635 -0.405578 0
M  V30 11505 C 1120.01 4.23359 -0.324394 0
M  V30 11506 O 1121.03 3.54578 -0.339564 0
M  V30 11507 O 1119.89 5.45831 -0.270268 0
M  V30 11508 H 1116.98 0.826983 -0.00535438 0
M  V30 11509 H 1119.53 1.52024 -0.754101 0
M  V30 11510 H 1118.3 3.6404 -1.43495 0
M  V30 11511 H 1117.92 3.96823 0.248439 0
M  V30 11512 N 1118.92 0.422693 1.51826 0
M  V30 11513 C 1120.2 -0.20786 1.94492 0
M  V30 11514 C 1120.58 -1.61414 1.36047 0
M  V30 11515 O 1119.93 -2.21987 0.541657 0
M  V30 11516 C 1120.14 -0.200457 3.48424 0
M  V30 11517 C 1121.48 -0.413199 4.22585 0
M  V30 11518 O 1122.51 -0.27922 3.55104 0
M  V30 11519 O 1121.37 -0.678469 5.42272 0
M  V30 11520 H 1118.46 -0.137851 0.81543 0
M  V30 11521 H 1121.01 0.479617 1.62781 0
M  V30 11522 H 1119.78 0.783263 3.83381 0
M  V30 11523 H 1119.4 -0.931464 3.86535 0
M  V30 11524 N 1120.4 -1.5685 0.153553 0
M  V30 11525 C 1121.62 -2.01135 -0.505904 0
M  V30 11526 C 1122.05 -1.03301 -1.57196 0
M  V30 11527 O 1121.41 -0.00976022 -1.81297 0
M  V30 11528 C 1121.46 -3.44129 -1.0774 0
M  V30 11529 O 1120.56 -3.49318 -2.19205 0
M  V30 11530 H 1119.9 -0.652496 -0.123062 0
M  V30 11531 H 1122.43 -2.03039 0.252216 0
M  V30 11532 H 1122.44 -3.83066 -1.40444 0
M  V30 11533 H 1121.12 -4.1484 -0.296754 0
M  V30 11534 H 1119.69 -3.22227 -1.8768 0
M  V30 11535 N 1121.88 0.120221 -1.57141 0
M  V30 11536 C 1123.12 0.824472 -1.85941 0
M  V30 11537 C 1123.48 1.77552 -0.741152 0
M  V30 11538 O 1122.77 1.89842 0.258939 0
M  V30 11539 C 1122.97 1.61338 -3.18912 0
M  V30 11540 C 1122.79 0.740224 -4.43566 0
M  V30 11541 C 1121.56 0.39553 -5.0375 0
M  V30 11542 C 1123.76 0.0584053 -5.14267 0
M  V30 11543 N 1121.74 -0.488415 -6.11954 0
M  V30 11544 C 1123.12 -0.684591 -6.16209 0
M  V30 11545 C 1125.17 -0.0181409 -4.97897 0
M  V30 11546 C 1123.87 -1.49694 -7.03551 0
M  V30 11547 C 1125.9 -0.817313 -5.85725 0
M  V30 11548 C 1125.26 -1.54851 -6.87169 0
M  V30 11549 H 1121.36 0.278664 -0.730664 0
M  V30 11550 H 1123.94 0.0882789 -1.945 0
M  V30 11551 H 1122.12 2.32062 -3.11451 0
M  V30 11552 H 1123.85 2.26287 -3.35524 0
M  V30 11553 H 1120.6 0.737491 -4.67823 0
M  V30 11554 H 1121.03 -0.9222 -6.7069 0
M  V30 11555 H 1125.67 0.532815 -4.19429 0
M  V30 11556 H 1123.39 -2.05906 -7.81427 0
M  V30 11557 H 1126.97 -0.878884 -5.75123 0
M  V30 11558 H 1125.85 -2.15696 -7.53953 0
M  V30 11559 N 1123.36 1.52689 0.390367 0
M  V30 11560 C 1124.27 1.8029 1.50108 0
M  V30 11561 C 1125.28 0.689582 1.59752 0
M  V30 11562 O 1126.46 0.977024 1.76114 0
M  V30 11563 C 1123.52 1.96475 2.85654 0
M  V30 11564 C 1122.58 3.2039 2.85743 0
M  V30 11565 C 1121.82 3.35793 4.14824 0
M  V30 11566 O 1122.04 2.56033 5.09709 0
M  V30 11567 O 1120.97 4.2904 4.22147 0
M  V30 11568 H 1124.8 2.74605 1.29715 0
M  V30 11569 H 1122.39 1.37763 0.578074 0
M  V30 11570 H 1124.27 2.08835 3.66013 0
M  V30 11571 H 1122.94 1.05351 3.06077 0
M  V30 11572 H 1121.85 3.13473 2.0417 0
M  V30 11573 H 1123.18 4.11356 2.70272 0
M  V30 11574 N 1124.83 -0.648732 1.43629 0
M  V30 11575 C 1125.78 -1.78269 1.49409 0
M  V30 11576 C 1126.78 -1.6537 0.367288 0
M  V30 11577 O 1127.98 -1.71663 0.541476 0
M  V30 11578 H 1124.36 -0.58824 0.468484 0
M  V30 11579 H 1126.33 -1.70514 2.44883 0
M  V30 11580 C 1125.08 -3.16545 1.43856 0
M  V30 11581 H 1124.4 -3.2711 2.29868 0
M  V30 11582 H 1125.84 -3.95833 1.51961 0
M  V30 11583 C 1124.3 -3.36535 0.156779 0
M  V30 11584 O 1124.83 -3.94052 -0.780124 0
M  V30 11585 N 1123.04 -2.90526 0.0655319 0
M  V30 11586 H 1122.58 -2.43904 0.828768 0
M  V30 11587 H 1122.54 -3.04277 -0.791379 0
M  V30 11588 N 1126.31 -1.30234 -0.887518 0
M  V30 11589 C 1127.28 -1.16384 -1.97452 0
M  V30 11590 C 1128.28 -0.0957942 -1.60514 0
M  V30 11591 O 1129.47 -0.343706 -1.70776 0
M  V30 11592 C 1126.6 -0.782514 -3.31797 0
M  V30 11593 H 1127.79 -2.12952 -2.11167 0
M  V30 11594 H 1125.34 -1.13594 -1.07359 0
M  V30 11595 H 1126.08 0.18278 -3.23785 0
M  V30 11596 H 1125.86 -1.55434 -3.59976 0
M  V30 11597 H 1127.35 -0.709011 -4.11537 0
M  V30 11598 N 1127.79 1.09952 -1.12909 0
M  V30 11599 C 1129.04 1.81657 -0.885729 0
M  V30 11600 C 1129.36 1.85863 0.589913 0
M  V30 11601 O 1128.63 1.34028 1.42875 0
M  V30 11602 H 1127.21 0.672743 -0.324694 0
M  V30 11603 H 1129.87 1.33013 -1.42456 0
M  V30 11604 H 1128.97 2.85018 -1.27167 0
M  V30 11605 N 1129.27 0.921757 1.27833 0
M  V30 11606 C 1130.18 0.421668 2.30779 0
M  V30 11607 C 1131.19 -0.494686 1.6682 0
M  V30 11608 O 1132.37 -0.378935 1.97803 0
M  V30 11609 C 1129.44 -0.322928 3.45193 0
M  V30 11610 C 1128.5 0.627618 4.24687 0
M  V30 11611 C 1127.73 -0.0815385 5.33638 0
M  V30 11612 O 1127.95 -1.30193 5.55343 0
M  V30 11613 O 1126.89 0.58725 5.99028 0
M  V30 11614 H 1130.71 1.2763 2.7558 0
M  V30 11615 H 1128.3 0.686877 1.32674 0
M  V30 11616 H 1130.18 -0.743145 4.14796 0
M  V30 11617 H 1128.85 -1.15326 3.02459 0
M  V30 11618 H 1127.76 1.09739 3.57642 0
M  V30 11619 H 1129.09 1.425 4.71121 0
M  V30 11620 N 1130.75 -1.41857 0.686609 0
M  V30 11621 C 1132.02 -1.95082 0.142228 0
M  V30 11622 C 1132.4 -1.62646 -1.34572 0
M  V30 11623 O 1131.75 -0.928757 -2.08773 0
M  V30 11624 C 1131.96 -3.46415 0.423955 0
M  V30 11625 C 1133.31 -4.23181 0.346842 0
M  V30 11626 O 1134.33 -3.54393 0.358363 0
M  V30 11627 O 1133.19 -5.4568 0.299211 0
M  V30 11628 H 1130.29 -0.826943 0.00974 0
M  V30 11629 H 1132.83 -1.51622 0.762153 0
M  V30 11630 H 1131.6 -3.63273 1.45424 0
M  V30 11631 H 1131.23 -3.96949 -0.227391 0
M  V30 11632 N 1132.22 -0.430739 -1.51599 0
M  V30 11633 C 1133.13 0.390347 -2.3133 0
M  V30 11634 C 1134.15 1.03376 -1.39962 0
M  V30 11635 O 1135.33 1.03057 -1.73035 0
M  V30 11636 C 1132.39 1.48039 -3.13505 0
M  V30 11637 C 1131.45 0.857792 -4.20643 0
M  V30 11638 C 1130.69 1.89589 -4.9889 0
M  V30 11639 O 1130.91 3.11717 -4.77691 0
M  V30 11640 O 1129.84 1.49009 -5.83164 0
M  V30 11641 H 1133.67 -0.260358 -3.02582 0
M  V30 11642 H 1131.25 -0.193428 -1.48143 0
M  V30 11643 H 1133.14 2.11272 -3.64612 0
M  V30 11644 H 1131.81 2.1153 -2.45024 0
M  V30 11645 H 1130.72 0.187592 -3.73629 0
M  V30 11646 H 1132.05 0.266474 -4.91478 0
M  V30 11647 N 1133.7 1.56767 -0.161869 0
M  V30 11648 C 1134.95 1.96206 0.484537 0
M  V30 11649 C 1135.27 1.04848 1.64414 0
M  V30 11650 O 1134.54 0.112946 1.95574 0
M  V30 11651 H 1133.12 0.724491 0.181994 0
M  V30 11652 H 1135.78 1.93406 -0.240845 0
M  V30 11653 H 1134.88 3.00279 0.85083 0
M  V30 11654 N 1135.18 -0.111886 1.57202 0
M  V30 11655 C 1136.43 -0.819623 1.85499 0
M  V30 11656 C 1136.76 -1.7919 0.748629 0
M  V30 11657 O 1136.03 -1.92952 -0.244918 0
M  V30 11658 C 1136.32 -1.56324 3.24399 0
M  V30 11659 C 1136.17 -0.610081 4.45643 0
M  V30 11660 C 1137.49 -2.51777 3.60966 0
M  V30 11661 H 1134.61 -0.296512 0.674722 0
M  V30 11662 H 1137.25 -0.0836741 1.89816 0
M  V30 11663 H 1135.4 -2.1906 3.2085 0
M  V30 11664 H 1137.07 0.00898038 4.61299 0
M  V30 11665 H 1135.32 0.0778488 4.3373 0
M  V30 11666 H 1135.99 -1.16718 5.39519 0
M  V30 11667 H 1138.46 -1.99143 3.65351 0
M  V30 11668 H 1137.34 -3.00835 4.59118 0
M  V30 11669 H 1137.6 -3.34769 2.8876 0
M  V30 11670 N 1136.66 -1.52894 -0.382264 0
M  V30 11671 C 1137.9 -1.68515 -1.12829 0
M  V30 11672 C 1138.24 -0.427211 -1.89443 0
M  V30 11673 O 1137.51 0.57516 -1.85801 0
M  V30 11674 C 1137.8 -2.92449 -2.10108 0
M  V30 11675 C 1137.65 -4.2836 -1.37214 0
M  V30 11676 C 1138.97 -3.11944 -3.1045 0
M  V30 11677 H 1136.09 -0.613223 -0.408811 0
M  V30 11678 H 1138.73 -1.85503 -0.410921 0
M  V30 11679 H 1136.88 -2.78097 -2.71283 0
M  V30 11680 H 1138.55 -4.54493 -0.789516 0
M  V30 11681 H 1136.79 -4.28532 -0.673973 0
M  V30 11682 H 1137.46 -5.11178 -2.0833 0
M  V30 11683 H 1139.94 -3.25372 -2.59369 0
M  V30 11684 H 1138.82 -4.00125 -3.75754 0
M  V30 11685 H 1139.08 -2.26465 -3.79692 0
M  V30 11686 N 1138.14 0.641106 -1.43971 0
M  V30 11687 C 1139.55 1.22254 -1.41106 0
M  V30 11688 C 1139.9 1.95825 -0.121284 0
M  V30 11689 O 1139.02 2.01901 0.77879 0
M  V30 11690 C 1139.62 2.22364 -2.55617 0
M  V30 11691 C 1138.18 2.75957 -2.55978 0
M  V30 11692 C 1137.33 1.50792 -2.32717 0
M  V30 11693 H 1140.28 0.432381 -1.52696 0
M  V30 11694 H 1140.3 3.04775 -2.27799 0
M  V30 11695 H 1139.81 1.68789 -3.49474 0
M  V30 11696 H 1137.91 3.33562 -1.66034 0
M  V30 11697 H 1138.02 3.22676 -3.54142 0
M  V30 11698 H 1136.39 1.7857 -1.81617 0
M  V30 11699 H 1137.17 0.991343 -3.28675 0
M  V30 11700 N 1139.62 1.30703 0.880598 0
M  V30 11701 C 1140.86 1.19541 1.62955 0
M  V30 11702 C 1141.18 -0.249089 1.93403 0
M  V30 11703 O 1140.45 -1.1669 1.57354 0
M  V30 11704 H 1139.03 0.439434 0.604075 0
M  V30 11705 H 1141.7 1.63888 1.05483 0
M  V30 11706 H 1140.79 1.75945 2.57779 0
M  V30 11707 N 1141.09 -1.09351 1.1349 0
M  V30 11708 C 1142.32 -1.85304 0.920324 0
M  V30 11709 C 1142.74 -1.81182 -0.530883 0
M  V30 11710 O 1142.09 -1.20853 -1.36751 0
M  V30 11711 C 1142.14 -3.33249 1.40098 0
M  V30 11712 O 1141.87 -3.37333 2.79531 0
M  V30 11713 C 1143.37 -4.2604 1.22495 0
M  V30 11714 H 1140.59 -0.585294 0.328134 0
M  V30 11715 H 1143.13 -1.38168 1.50765 0
M  V30 11716 H 1141.29 -3.7781 0.85664 0
M  V30 11717 H 1141.7 -4.29614 3.00885 0
M  V30 11718 H 1143.17 -5.27999 1.61 0
M  V30 11719 H 1143.65 -4.38883 0.166717 0
M  V30 11720 H 1144.26 -3.87295 1.75735 0
M  V30 11721 N 1142.57 -0.928524 -1.27343 0
M  V30 11722 C 1143.8 -0.585734 -1.98436 0
M  V30 11723 C 1144.21 0.83644 -1.69261 0
M  V30 11724 O 1143.57 1.55603 -0.953626 0
M  V30 11725 C 1143.62 -0.803092 -3.52467 0
M  V30 11726 O 1143.34 -2.16932 -3.80621 0
M  V30 11727 C 1144.84 -0.469127 -4.40811 0
M  V30 11728 H 1142.06 -0.221887 -0.633251 0
M  V30 11729 H 1144.61 -1.24577 -1.62175 0
M  V30 11730 H 1142.76 -0.189846 -3.86935 0
M  V30 11731 H 1143.18 -2.21992 -4.75205 0
M  V30 11732 H 1144.65 -0.671906 -5.47895 0
M  V30 11733 H 1145.13 0.595365 -4.35146 0
M  V30 11734 H 1145.73 -1.06055 -4.11865 0
M  V30 11735 N 1144.05 1.41491 -0.694123 0
M  V30 11736 C 1145.46 1.84283 -0.299439 0
M  V30 11737 C 1145.81 1.58081 1.16211 0
M  V30 11738 O 1144.94 1.05051 1.89191 0
M  V30 11739 C 1145.53 3.34522 -0.536696 0
M  V30 11740 C 1144.09 3.7589 -0.195944 0
M  V30 11741 C 1143.24 2.64908 -0.819692 0
M  V30 11742 H 1146.19 1.31063 -0.894884 0
M  V30 11743 H 1146.21 3.79947 0.205062 0
M  V30 11744 H 1145.72 3.53561 -1.6005 0
M  V30 11745 H 1143.82 3.62452 0.863655 0
M  V30 11746 H 1143.94 4.74671 -0.649954 0
M  V30 11747 H 1142.3 2.53476 -0.249412 0
M  V30 11748 H 1143.08 2.86765 -1.88734 0
M  V30 11749 N 1145.53 0.438773 1.51369 0
M  V30 11750 C 1146.46 -0.362467 2.3067 0
M  V30 11751 C 1147.44 -1.01973 1.36145 0
M  V30 11752 O 1148.62 -1.0231 1.65065 0
M  V30 11753 C 1145.75 -1.46313 3.14976 0
M  V30 11754 C 1144.71 -0.929272 4.1779 0
M  V30 11755 C 1144.03 -2.12579 4.90627 0
M  V30 11756 C 1145.33 0.0372782 5.22287 0
M  V30 11757 H 1147.03 0.29931 2.979 0
M  V30 11758 H 1144.57 0.14539 1.43264 0
M  V30 11759 H 1146.53 -2.03088 3.69233 0
M  V30 11760 H 1145.25 -2.15321 2.45569 0
M  V30 11761 H 1143.91 -0.383722 3.64586 0
M  V30 11762 H 1143.56 -2.8021 4.17722 0
M  V30 11763 H 1143.26 -1.77496 5.60151 0
M  V30 11764 H 1144.78 -2.69905 5.47708 0
M  V30 11765 H 1146.2 -0.44022 5.71607 0
M  V30 11766 H 1144.59 0.300748 5.99346 0
M  V30 11767 H 1145.66 0.973503 4.75027 0
M  V30 11768 N 1147.01 -1.56678 0.170181 0
M  V30 11769 C 1148.28 -1.88524 -0.521362 0
M  V30 11770 C 1148.66 -1.07989 -1.81388 0
M  V30 11771 O 1148.01 -0.17347 -2.27841 0
M  V30 11772 C 1148.22 -3.40527 -0.764367 0
M  V30 11773 C 1149.57 -4.10241 -1.09487 0
M  V30 11774 O 1150.59 -3.45837 -0.852945 0
M  V30 11775 O 1149.45 -5.24022 -1.55124 0
M  V30 11776 H 1146.55 -0.782161 -0.268614 0
M  V30 11777 H 1149.09 -1.68414 0.208531 0
M  V30 11778 H 1147.86 -3.91015 0.149416 0
M  V30 11779 H 1147.49 -3.66244 -1.54762 0
M  V30 11780 N 1148.48 0.103547 -1.57259 0
M  V30 11781 C 1149.42 1.15707 -1.9669 0
M  V30 11782 C 1150.39 1.39292 -0.838837 0
M  V30 11783 O 1151.58 1.53192 -1.09839 0
M  V30 11784 C 1148.71 2.50793 -2.27642 0
M  V30 11785 C 1147.75 2.43541 -3.50129 0
M  V30 11786 S 1148.58 1.86009 -5.02156 0
M  V30 11787 C 1149.74 3.22737 -5.36276 0
M  V30 11788 H 1149.97 0.820891 -2.85742 0
M  V30 11789 H 1147.51 0.310906 -1.51237 0
M  V30 11790 H 1149.46 3.28512 -2.46151 0
M  V30 11791 H 1148.13 2.81583 -1.39176 0
M  V30 11792 H 1147.32 3.43085 -3.692 0
M  V30 11793 H 1146.92 1.73948 -3.31086 0
M  V30 11794 H 1149.21 4.1899 -5.32404 0
M  V30 11795 H 1150.16 3.08477 -6.37375 0
M  V30 11796 H 1150.56 3.21878 -4.6374 0
M  V30 11797 N 1149.96 1.53094 0.37415 0
M  V30 11798 C 1150.92 1.78264 1.44065 0
M  V30 11799 C 1151.92 0.652892 1.46949 0
M  V30 11800 O 1153.11 0.921046 1.47859 0
M  V30 11801 C 1150.25 1.89693 2.83248 0
M  V30 11802 H 1151.44 2.73505 1.23025 0
M  V30 11803 H 1148.99 1.44041 0.60678 0
M  V30 11804 H 1149.73 0.964884 3.09613 0
M  V30 11805 H 1149.51 2.71855 2.82554 0
M  V30 11806 H 1151 2.10787 3.60498 0
M  V30 11807 N 1151.44 -0.633461 1.44309 0
M  V30 11808 C 1152.67 -1.42033 1.50447 0
M  V30 11809 C 1153.08 -1.88362 0.128585 0
M  V30 11810 O 1152.44 -1.60695 -0.865071 0
M  V30 11811 C 1152.49 -2.6422 2.46719 0
M  V30 11812 O 1152.21 -2.19823 3.78958 0
M  V30 11813 C 1153.71 -3.57372 2.62298 0
M  V30 11814 H 1150.93 -0.435667 0.510329 0
M  V30 11815 H 1153.48 -0.774907 1.8925 0
M  V30 11816 H 1151.63 -3.24859 2.11058 0
M  V30 11817 H 1152.05 -2.99022 4.30913 0
M  V30 11818 H 1153.52 -4.39719 3.33693 0
M  V30 11819 H 1154 -4.06026 1.67449 0
M  V30 11820 H 1154.6 -3.02603 2.9885 0
M  V30 11821 N 1152.92 -1.31168 -0.873655 0
M  V30 11822 C 1154.14 -1.23728 -1.66452 0
M  V30 11823 C 1154.57 0.194869 -1.87088 0
M  V30 11824 O 1153.93 1.1397 -1.40998 0
M  V30 11825 C 1153.97 -1.98285 -3.0119 0
M  V30 11826 O 1153.08 -1.31767 -3.90783 0
M  V30 11827 H 1152.42 -0.427362 -0.508191 0
M  V30 11828 H 1154.95 -1.73176 -1.08955 0
M  V30 11829 H 1154.96 -2.0774 -3.51153 0
M  V30 11830 H 1153.63 -3.02437 -2.8549 0
M  V30 11831 H 1152.21 -1.3074 -3.4923 0
M  V30 11832 N 1154.4 1.08748 -1.14068 0
M  V30 11833 C 1155.64 1.81504 -0.918035 0
M  V30 11834 C 1156 1.84381 0.549671 0
M  V30 11835 O 1155.29 1.30612 1.40183 0
M  V30 11836 C 1155.48 3.26734 -1.44843 0
M  V30 11837 C 1155.31 3.38006 -2.96617 0
M  V30 11838 C 1154.08 3.49401 -3.6503 0
M  V30 11839 C 1156.28 3.29952 -3.94507 0
M  V30 11840 N 1154.26 3.49428 -5.04751 0
M  V30 11841 C 1155.63 3.3693 -5.20459 0
M  V30 11842 C 1157.69 3.13666 -3.86676 0
M  V30 11843 C 1156.39 3.29299 -6.39496 0
M  V30 11844 C 1158.42 3.07363 -5.05254 0
M  V30 11845 C 1157.78 3.1494 -6.30073 0
M  V30 11846 H 1153.88 0.67814 -0.389423 0
M  V30 11847 H 1156.46 1.29916 -1.45017 0
M  V30 11848 H 1154.63 3.76776 -0.943112 0
M  V30 11849 H 1156.37 3.87537 -1.16606 0
M  V30 11850 H 1153.12 3.53145 -3.15572 0
M  V30 11851 H 1153.55 3.53007 -5.77681 0
M  V30 11852 H 1158.19 3.06673 -2.91053 0
M  V30 11853 H 1155.91 3.35054 -7.35367 0
M  V30 11854 H 1159.49 2.95887 -5.00941 0
M  V30 11855 H 1158.37 3.10088 -7.20288 0
M  V30 11856 N 1155.87 0.935264 1.26849 0
M  V30 11857 C 1156.81 0.397539 2.25726 0
M  V30 11858 C 1157.82 -0.475928 1.55688 0
M  V30 11859 O 1159.01 -0.287329 1.76172 0
M  V30 11860 C 1156.11 -0.448308 3.35922 0
M  V30 11861 C 1155.28 0.407624 4.35496 0
M  V30 11862 C 1154.34 -0.376815 5.24849 0
M  V30 11863 O 1153.37 0.218109 5.68782 0
M  V30 11864 N 1154.57 -1.67481 5.55815 0
M  V30 11865 H 1157.33 1.24753 2.72501 0
M  V30 11866 H 1154.89 0.803505 1.40554 0
M  V30 11867 H 1156.89 -0.980338 3.92647 0
M  V30 11868 H 1155.46 -1.19908 2.88688 0
M  V30 11869 H 1154.68 1.12091 3.77928 0
M  V30 11870 H 1155.96 0.992512 4.99026 0
M  V30 11871 H 1155.36 -2.18037 5.21993 0
M  V30 11872 H 1153.92 -2.15321 6.15207 0
M  V30 11873 N 1157.35 -1.41121 0.701616 0
M  V30 11874 C 1158.6 -2.01428 0.235495 0
M  V30 11875 C 1158.93 -1.55463 -1.16382 0
M  V30 11876 O 1158.21 -0.768477 -1.78675 0
M  V30 11877 C 1158.49 -3.58849 0.299919 0
M  V30 11878 C 1158.34 -4.14924 1.73661 0
M  V30 11879 C 1159.66 -4.38809 -0.336856 0
M  V30 11880 H 1156.78 -0.731842 0.0870456 0
M  V30 11881 H 1159.42 -1.67787 0.891479 0
M  V30 11882 H 1157.57 -3.87638 -0.258611 0
M  V30 11883 H 1159.24 -3.96987 2.34945 0
M  V30 11884 H 1157.49 -3.69738 2.26884 0
M  V30 11885 H 1158.16 -5.24085 1.73318 0
M  V30 11886 H 1160.63 -4.15868 0.138886 0
M  V30 11887 H 1159.51 -5.48278 -0.261264 0
M  V30 11888 H 1159.77 -4.18728 -1.41843 0
M  V30 11889 N 1158.83 -0.446794 -1.51134 0
M  V30 11890 C 1160.08 0.116493 -2.02165 0
M  V30 11891 C 1160.41 1.41884 -1.33039 0
M  V30 11892 O 1159.66 1.90757 -0.437071 0
M  V30 11893 C 1159.96 0.373015 -3.55448 0
M  V30 11894 C 1159.63 -0.844659 -4.42918 0
M  V30 11895 C 1158.29 -1.17857 -4.66544 0
M  V30 11896 C 1160.64 -1.65653 -4.94174 0
M  V30 11897 C 1157.97 -2.32486 -5.38672 0
M  V30 11898 C 1160.32 -2.7939 -5.6756 0
M  V30 11899 C 1158.98 -3.13224 -5.89446 0
M  V30 11900 H 1158.25 0.0426279 -0.739773 0
M  V30 11901 H 1160.9 -0.595921 -1.81992 0
M  V30 11902 H 1159.21 1.16742 -3.74003 0
M  V30 11903 H 1160.9 0.822425 -3.92476 0
M  V30 11904 H 1157.49 -0.574478 -4.24733 0
M  V30 11905 H 1161.68 -1.41176 -4.75797 0
M  V30 11906 H 1156.93 -2.59003 -5.5383 0
M  V30 11907 H 1161.11 -3.42662 -6.06264 0
M  V30 11908 H 1158.73 -4.02158 -6.45115 0
M  V30 11909 N 1160.31 1.56586 -0.178487 0
M  V30 11910 C 1161.59 1.88798 0.511356 0
M  V30 11911 C 1161.97 1.08949 1.80813 0
M  V30 11912 O 1161.31 0.185551 2.27745 0
M  V30 11913 C 1161.52 3.40927 0.746298 0
M  V30 11914 C 1162.87 4.10816 1.0731 0
M  V30 11915 O 1163.9 3.46285 0.834592 0
M  V30 11916 O 1162.75 5.24837 1.52343 0
M  V30 11917 H 1159.85 0.783574 0.264463 0
M  V30 11918 H 1162.39 1.68301 -0.21746 0
M  V30 11919 H 1161.17 3.9093 -0.17015 0
M  V30 11920 H 1160.79 3.67059 1.52817 0
M  V30 11921 N 1161.79 -0.095206 1.57312 0
M  V30 11922 C 1163.04 -0.797417 1.85268 0
M  V30 11923 C 1163.35 -1.79903 0.767733 0
M  V30 11924 O 1164.55 -2.54914 0.934409 0
M  V30 11925 C 1163.01 -1.469 3.28555 0
M  V30 11926 C 1162.62 -0.507152 4.4512 0
M  V30 11927 C 1164.36 -2.15494 3.65735 0
M  V30 11928 C 1162.27 -1.18331 5.79441 0
M  V30 11929 H 1161.2 -0.301552 0.691074 0
M  V30 11930 H 1163.85 -0.0503584 1.83431 0
M  V30 11931 H 1162.23 -2.26351 3.24933 0
M  V30 11932 H 1163.41 0.255858 4.60089 0
M  V30 11933 H 1161.72 0.0730882 4.16336 0
M  V30 11934 H 1164.32 -2.66816 4.63371 0
M  V30 11935 H 1164.66 -2.94383 2.94354 0
M  V30 11936 H 1165.19 -1.42903 3.71246 0
M  V30 11937 H 1161.93 -0.435238 6.54053 0
M  V30 11938 H 1161.45 -1.91775 5.68315 0
M  V30 11939 H 1163.13 -1.70983 6.23998 0
M  V30 11940 N 1163.26 -1.53291 -0.366026 0
M  V30 11941 C 1164.19 -1.82675 -1.45437 0
M  V30 11942 C 1165.18 -0.680227 -1.55907 0
M  V30 11943 O 1166.36 -0.930032 -1.70482 0
M  V30 11944 C 1163.49 -2.01626 -2.8278 0
M  V30 11945 C 1162.44 -3.17391 -2.87135 0
M  V30 11946 C 1161.77 -3.21634 -4.27148 0
M  V30 11947 C 1163.07 -4.5599 -2.54697 0
M  V30 11948 H 1164.76 -2.73818 -1.21096 0
M  V30 11949 H 1162.31 -1.31754 -0.581108 0
M  V30 11950 H 1164.26 -2.20765 -3.58944 0
M  V30 11951 H 1162.99 -1.07193 -3.08508 0
M  V30 11952 H 1161.65 -2.98071 -2.13422 0
M  V30 11953 H 1161.29 -2.2484 -4.49951 0
M  V30 11954 H 1160.99 -3.99414 -4.30978 0
M  V30 11955 H 1162.52 -3.42957 -5.05186 0
M  V30 11956 H 1163.93 -4.75294 -3.20575 0
M  V30 11957 H 1162.33 -5.36008 -2.69844 0
M  V30 11958 H 1163.4 -4.61133 -1.49949 0
M  V30 11959 N 1164.74 0.6258 -1.44643 0
M  V30 11960 C 1165.69 1.75869 -1.52226 0
M  V30 11961 C 1166.68 1.64765 -0.39355 0
M  V30 11962 O 1167.89 1.70779 -0.568718 0
M  V30 11963 H 1164.27 0.580712 -0.477784 0
M  V30 11964 H 1166.24 1.66596 -2.47565 0
M  V30 11965 C 1164.99 3.14217 -1.48873 0
M  V30 11966 H 1164.31 3.23411 -2.35043 0
M  V30 11967 H 1165.75 3.93365 -1.58239 0
M  V30 11968 C 1164.21 3.36243 -0.210299 0
M  V30 11969 O 1164.74 3.95243 0.717335 0
M  V30 11970 N 1162.94 2.90385 -0.111744 0
M  V30 11971 H 1162.49 2.42555 -0.867466 0
M  V30 11972 H 1162.45 3.05498 0.742871 0
M  V30 11973 N 1166.22 1.31629 0.866686 0
M  V30 11974 C 1167.47 1.21263 1.61678 0
M  V30 11975 C 1167.79 -0.228562 1.93656 0
M  V30 11976 O 1167.06 -1.15014 1.58583 0
M  V30 11977 H 1165.64 0.445817 0.59938 0
M  V30 11978 H 1168.3 1.64998 1.03739 0
M  V30 11979 H 1167.4 1.78669 2.55898 0
M  V30 11980 N 1167.7 -1.08142 1.14644 0
M  V30 11981 C 1168.65 -2.15133 0.835845 0
M  V30 11982 C 1169.62 -1.64795 -0.207785 0
M  V30 11983 O 1170.8 -1.90644 -0.07711 0
M  V30 11984 C 1167.94 -3.4359 0.322456 0
M  V30 11985 C 1167.05 -4.07761 1.42671 0
M  V30 11986 C 1166.19 -5.24022 0.870281 0
M  V30 11987 C 1165.23 -5.8014 1.95202 0
M  V30 11988 N 1164.37 -6.87743 1.41257 0
M  V30 11989 H 1169.21 -2.41042 1.75222 0
M  V30 11990 H 1166.74 -1.18288 0.874428 0
M  V30 11991 H 1168.7 -4.17199 0.00657059 0
M  V30 11992 H 1167.33 -3.17958 -0.557014 0
M  V30 11993 H 1166.38 -3.31885 1.85893 0
M  V30 11994 H 1167.69 -4.45485 2.24375 0
M  V30 11995 H 1166.85 -6.04582 0.506459 0
M  V30 11996 H 1165.59 -4.87695 0.0223118 0
M  V30 11997 H 1164.59 -4.98232 2.32476 0
M  V30 11998 H 1165.82 -6.18525 2.80363 0
M  V30 11999 H 1163.76 -6.5337 0.586826 0
M  V30 12000 H 1163.68 -7.24308 2.16596 0
M  V30 12001 H 1164.95 -7.72028 1.07674 0
M  V30 12002 N 1169.18 -0.941978 -1.26351 0
M  V30 12003 C 1170.59 -0.632522 -1.75659 0
M  V30 12004 C 1170.94 0.852287 -1.76722 0
M  V30 12005 O 1170.06 1.66701 -1.37985 0
M  V30 12006 C 1170.66 -1.14145 -3.18993 0
M  V30 12007 C 1169.22 -0.882391 -3.65911 0
M  V30 12008 C 1168.37 -1.29189 -2.45368 0
M  V30 12009 H 1171.32 -1.12019 -1.12416 0
M  V30 12010 H 1171.34 -0.495639 -3.77258 0
M  V30 12011 H 1170.85 -2.22213 -3.18187 0
M  V30 12012 H 1168.95 0.183873 -3.72146 0
M  V30 12013 H 1169.06 -1.50996 -4.54683 0
M  V30 12014 H 1167.43 -0.710316 -2.44595 0
M  V30 12015 H 1168.21 -2.38152 -2.47262 0
M  V30 12016 N 1170.66 1.40747 -0.709091 0
M  V30 12017 C 1171.89 2.05022 -0.254887 0
M  V30 12018 C 1172.29 1.5351 1.10595 0
M  V30 12019 O 1171.64 0.683912 1.70494 0
M  V30 12020 C 1171.7 3.59188 -0.149823 0
M  V30 12021 C 1171.36 4.33557 -1.44489 0
M  V30 12022 C 1172.36 4.61941 -2.3855 0
M  V30 12023 C 1170.04 4.72585 -1.70201 0
M  V30 12024 C 1172.04 5.2833 -3.56575 0
M  V30 12025 C 1169.73 5.38707 -2.88509 0
M  V30 12026 C 1170.72 5.66509 -3.81518 0
M  V30 12027 O 1170.41 6.31267 -4.97752 0
M  V30 12028 H 1170.14 0.666405 -0.113493 0
M  V30 12029 H 1172.7 1.81261 -0.966099 0
M  V30 12030 H 1170.93 3.81742 0.617276 0
M  V30 12031 H 1172.62 4.05008 0.268965 0
M  V30 12032 H 1173.38 4.32259 -2.19947 0
M  V30 12033 H 1169.26 4.50318 -0.986628 0
M  V30 12034 H 1172.81 5.49947 -4.2919 0
M  V30 12035 H 1168.7 5.67809 -3.07023 0
M  V30 12036 H 1169.47 6.49764 -4.97745 0
M  V30 12037 N 1172.13 0.454803 1.50895 0
M  V30 12038 C 1173.04 -0.353495 2.31921 0
M  V30 12039 C 1174.06 -1.01136 1.41589 0
M  V30 12040 O 1175.24 -1.00291 1.74653 0
M  V30 12041 C 1172.3 -1.43032 3.15821 0
M  V30 12042 C 1171.36 -0.790763 4.21954 0
M  V30 12043 C 1170.59 -1.81628 5.01843 0
M  V30 12044 O 1170.82 -3.04078 4.8259 0
M  V30 12045 O 1169.75 -1.39713 5.8546 0
M  V30 12046 H 1173.58 0.308463 3.02129 0
M  V30 12047 H 1171.16 0.216971 1.47816 0
M  V30 12048 H 1173.04 -2.05444 3.67927 0
M  V30 12049 H 1171.72 -2.07605 2.48358 0
M  V30 12050 H 1170.63 -0.128127 3.73881 0
M  V30 12051 H 1171.96 -0.188251 4.9184 0
M  V30 12052 N 1173.61 -1.56489 0.186789 0
M  V30 12053 C 1175.02 -1.83809 -0.327265 0
M  V30 12054 C 1175.37 -1.10718 -1.61976 0
M  V30 12055 O 1174.5 -0.36525 -2.13295 0
M  V30 12056 C 1175.09 -3.33435 -0.600551 0
M  V30 12057 C 1173.65 -3.61195 -1.059 0
M  V30 12058 C 1172.8 -2.77108 -0.103131 0
M  V30 12059 H 1175.75 -1.53292 0.410747 0
M  V30 12060 H 1175.77 -3.51754 -1.45084 0
M  V30 12061 H 1175.28 -3.86605 0.340315 0
M  V30 12062 H 1173.38 -3.13451 -2.01443 0
M  V30 12063 H 1173.5 -4.69435 -0.957458 0
M  V30 12064 H 1171.86 -2.47448 -0.603449 0
M  V30 12065 H 1172.64 -3.33065 0.832031 0
M  V30 12066 N 1175.09 0.086862 -1.5736 0
M  V30 12067 C 1176 1.12297 -2.05977 0
M  V30 12068 C 1177.02 1.43347 -0.986284 0
M  V30 12069 O 1178.19 1.53825 -1.3 0
M  V30 12070 C 1175.26 2.42131 -2.4814 0
M  V30 12071 C 1174.32 2.18189 -3.69719 0
M  V30 12072 C 1173.55 3.41833 -4.09861 0
M  V30 12073 O 1173.77 4.50383 -3.50016 0
M  V30 12074 O 1172.71 3.30934 -5.02759 0
M  V30 12075 H 1176.53 0.740012 -2.94546 0
M  V30 12076 H 1174.12 0.29995 -1.46358 0
M  V30 12077 H 1176 3.18568 -2.75848 0
M  V30 12078 H 1174.68 2.79837 -1.62705 0
M  V30 12079 H 1173.58 1.39506 -3.47115 0
M  V30 12080 H 1174.92 1.85372 -4.55959 0
M  V30 12081 N 1176.57 1.53483 0.357892 0
M  V30 12082 C 1177.81 1.70037 1.09971 0
M  V30 12083 C 1178.14 0.456112 1.89076 0
M  V30 12084 O 1177.4 -0.562029 1.87456 0
M  V30 12085 C 1177.7 2.90654 2.07978 0
M  V30 12086 C 1177.36 4.26849 1.45295 0
M  V30 12087 C 1176.02 4.63884 1.27928 0
M  V30 12088 C 1178.38 5.11514 1.00013 0
M  V30 12089 C 1175.7 5.83213 0.638745 0
M  V30 12090 C 1178.06 6.31496 0.373568 0
M  V30 12091 C 1176.72 6.67237 0.187457 0
M  V30 12092 H 1175.99 0.622209 0.402414 0
M  V30 12093 H 1178.64 1.87679 0.380615 0
M  V30 12094 H 1176.94 2.67556 2.86219 0
M  V30 12095 H 1178.64 3.00656 2.65343 0
M  V30 12096 H 1175.23 3.97693 1.59807 0
M  V30 12097 H 1179.41 4.83446 1.12221 0
M  V30 12098 H 1174.67 6.09489 0.483035 0
M  V30 12099 H 1178.84 6.96398 0.0145346 0
M  V30 12100 H 1176.47 7.59564 -0.310933 0
M  V30 12101 N 1178.05 -0.61812 1.44973 0
M  V30 12102 C 1179.27 -1.40429 1.51945 0
M  V30 12103 C 1179.69 -1.88215 0.148556 0
M  V30 12104 O 1179.05 -1.61603 -0.847978 0
M  V30 12105 C 1179.1 -2.61588 2.49507 0
M  V30 12106 O 1178.82 -2.15791 3.81269 0
M  V30 12107 C 1180.32 -3.5457 2.66074 0
M  V30 12108 H 1177.54 -0.43023 0.514921 0
M  V30 12109 H 1180.08 -0.754791 1.90061 0
M  V30 12110 H 1178.24 -3.22602 2.14492 0
M  V30 12111 H 1178.65 -2.94434 4.34061 0
M  V30 12112 H 1180.13 -4.36155 3.38338 0
M  V30 12113 H 1180.6 -4.04227 1.71746 0
M  V30 12114 H 1181.21 -2.99416 3.02043 0
M  V30 12115 N 1179.52 -1.32087 -0.859693 0
M  V30 12116 C 1180.75 -1.25486 -1.6513 0
M  V30 12117 C 1181.17 0.175015 -1.87284 0
M  V30 12118 O 1180.53 1.12468 -1.42199 0
M  V30 12119 C 1180.58 -2.01469 -2.9907 0
M  V30 12120 O 1179.68 -1.35904 -3.89363 0
M  V30 12121 H 1179.02 -0.432728 -0.503629 0
M  V30 12122 H 1181.55 -1.74322 -1.07112 0
M  V30 12123 H 1181.56 -2.11452 -3.4893 0
M  V30 12124 H 1180.24 -3.05448 -2.82266 0
M  V30 12125 H 1178.82 -1.34437 -3.47823 0
M  V30 12126 N 1181 1.07532 -1.15215 0
M  V30 12127 C 1182.28 1.76813 -0.83646 0
M  V30 12128 C 1182.66 2.00242 0.6683 0
M  V30 12129 O 1182.01 1.61941 1.61206 0
M  V30 12130 C 1182.22 3.0779 -1.64519 0
M  V30 12131 C 1183.56 3.82168 -1.85022 0
M  V30 12132 O 1184.59 3.17596 -1.61279 0
M  V30 12133 O 1183.45 4.98135 -2.24775 0
M  V30 12134 H 1180.54 0.767736 -0.307426 0
M  V30 12135 H 1183.09 1.13914 -1.25784 0
M  V30 12136 H 1181.86 2.86342 -2.6669 0
M  V30 12137 H 1181.48 3.78419 -1.22002 0
M  V30 12138 N 1182.48 0.948665 1.2585 0
M  V30 12139 C 1183.76 0.517832 1.88621 0
M  V30 12140 C 1184.14 -1.00477 1.85654 0
M  V30 12141 O 1183.49 -1.868 1.31598 0
M  V30 12142 C 1183.7 1.08768 3.31618 0
M  V30 12143 C 1185.04 1.16089 4.08422 0
M  V30 12144 O 1186.07 1.0388 3.40716 0
M  V30 12145 O 1184.93 1.35172 5.29519 0
M  V30 12146 H 1182.02 0.169916 0.809356 0
M  V30 12147 H 1184.57 1.04171 1.33964 0
M  V30 12148 H 1183.34 2.13109 3.28177 0
M  V30 12149 H 1182.96 0.54669 3.93824 0
M  V30 12150 N 1183.96 -1.40369 0.716545 0
M  V30 12151 C 1184.89 -2.33365 0.0793533 0
M  V30 12152 C 1185.87 -1.52943 -0.744482 0
M  V30 12153 O 1187.05 -1.81406 -0.693212 0
M  V30 12154 C 1184.18 -3.36928 -0.842429 0
M  V30 12155 C 1183.14 -4.2782 -0.124142 0
M  V30 12156 C 1182.46 -5.21928 -1.1617 0
M  V30 12157 C 1183.76 -5.12199 1.02224 0
M  V30 12158 H 1185.46 -2.86899 0.856115 0
M  V30 12159 H 1183 -1.37946 0.413138 0
M  V30 12160 H 1184.96 -4.00925 -1.29759 0
M  V30 12161 H 1183.68 -2.81791 -1.6511 0
M  V30 12162 H 1182.34 -3.65277 0.311201 0
M  V30 12163 H 1181.99 -4.63096 -1.96345 0
M  V30 12164 H 1181.69 -5.83582 -0.685978 0
M  V30 12165 H 1183.21 -5.88802 -1.61694 0
M  V30 12166 H 1184.63 -5.69644 0.646399 0
M  V30 12167 H 1183.02 -5.82901 1.4264 0
M  V30 12168 H 1184.09 -4.4812 1.85246 0
M  V30 12169 N 1185.44 -0.462799 -1.50652 0
M  V30 12170 C 1186.37 0.325724 -2.31217 0
M  V30 12171 C 1187.35 0.997942 -1.3775 0
M  V30 12172 O 1188.53 0.996707 -1.66671 0
M  V30 12173 C 1185.66 1.41283 -3.17264 0
M  V30 12174 C 1184.62 0.862687 -4.19216 0
M  V30 12175 C 1183.94 2.04746 -4.93946 0
M  V30 12176 C 1185.24 -0.120365 -5.22161 0
M  V30 12177 H 1186.94 -0.346666 -2.97386 0
M  V30 12178 H 1184.48 -0.168163 -1.43015 0
M  V30 12179 H 1186.44 1.97188 -3.72418 0
M  V30 12180 H 1185.16 2.11387 -2.48964 0
M  V30 12181 H 1183.82 0.325671 -3.65151 0
M  V30 12182 H 1183.47 2.73529 -4.22127 0
M  V30 12183 H 1183.17 1.68562 -5.62904 0
M  V30 12184 H 1184.69 2.61157 -5.51932 0
M  V30 12185 H 1186.1 0.349226 -5.72235 0
M  V30 12186 H 1184.5 -0.396061 -5.98792 0
M  V30 12187 H 1185.57 -1.04895 -4.73418 0
M  V30 12188 N 1186.91 1.56388 -0.195085 0
M  V30 12189 C 1187.88 2.17859 0.712053 0
M  V30 12190 C 1188.88 1.13304 1.141 0
M  V30 12191 O 1190.07 1.38689 1.05409 0
M  V30 12192 C 1187.2 2.78065 1.97213 0
M  V30 12193 H 1188.39 2.9938 0.176529 0
M  V30 12194 H 1185.95 1.56205 0.0545322 0
M  V30 12195 H 1186.68 2.00342 2.55017 0
M  V30 12196 H 1186.47 3.54603 1.67329 0
M  V30 12197 H 1187.96 3.25266 2.619 0
M  V30 12198 N 1188.39 -0.0785156 1.57404 0
M  V30 12199 C 1189.32 -1.12058 1.99939 0
M  V30 12200 C 1190.34 -1.35372 0.904343 0
M  V30 12201 O 1191.53 -1.33731 1.1823 0
M  V30 12202 C 1188.63 -2.47285 2.31739 0
M  V30 12203 C 1187.8 -2.44021 3.63005 0
M  V30 12204 C 1186.86 -3.61303 3.82552 0
M  V30 12205 O 1185.88 -3.43039 4.54217 0
M  V30 12206 N 1187.09 -4.81404 3.24392 0
M  V30 12207 H 1189.85 -0.758416 2.89945 0
M  V30 12208 H 1187.41 -0.267266 1.59679 0
M  V30 12209 H 1189.4 -3.24377 2.41995 0
M  V30 12210 H 1187.97 -2.75529 1.47657 0
M  V30 12211 H 1187.19 -1.52361 3.63565 0
M  V30 12212 H 1188.48 -2.38934 4.49208 0
M  V30 12213 H 1187.88 -4.99147 2.66211 0
M  V30 12214 H 1186.44 -5.56031 3.40107 0
M  V30 12215 N 1189.87 -1.5367 -0.349747 0
M  V30 12216 C 1191.12 -1.70281 -1.08853 0
M  V30 12217 C 1191.44 -0.465438 -1.89364 0
M  V30 12218 O 1190.71 0.520615 -1.88856 0
M  V30 12219 H 1189.29 -0.627775 -0.404854 0
M  V30 12220 H 1191.95 -1.90906 -0.392523 0
M  V30 12221 H 1191.05 -2.57096 -1.76941 0
M  V30 12222 N 1191.35 0.610423 -1.45298 0
M  V30 12223 C 1192.63 1.36966 -1.39641 0
M  V30 12224 C 1193.01 2.10998 -0.0655757 0
M  V30 12225 O 1192.35 2.07705 0.952407 0
M  V30 12226 C 1192.56 2.31885 -2.60826 0
M  V30 12227 C 1193.91 2.9458 -3.05791 0
M  V30 12228 O 1194.94 2.42207 -2.61179 0
M  V30 12229 O 1193.79 3.89639 -3.83202 0
M  V30 12230 H 1190.89 0.61401 -0.554004 0
M  V30 12231 H 1193.43 0.633748 -1.57422 0
M  V30 12232 H 1192.21 1.76421 -3.49272 0
M  V30 12233 H 1191.83 3.12861 -2.45364 0
M  V30 12234 N 1192.83 1.32541 0.852676 0
M  V30 12235 C 1193.76 1.15977 1.96531 0
M  V30 12236 C 1194.74 0.0587267 1.62494 0
M  V30 12237 O 1195.92 0.218404 1.8723 0
M  V30 12238 C 1193.05 0.77587 3.29694 0
M  V30 12239 C 1192.09 1.88244 3.82709 0
M  V30 12240 S 1192.93 3.49108 4.06059 0
M  V30 12241 C 1194.08 3.12693 5.42193 0
M  V30 12242 H 1194.32 2.10165 2.1028 0
M  V30 12243 H 1191.85 1.17225 1.00487 0
M  V30 12244 H 1193.81 0.561136 4.06647 0
M  V30 12245 H 1192.47 -0.14718 3.13755 0
M  V30 12246 H 1191.66 1.56687 4.79025 0
M  V30 12247 H 1191.26 2.05313 3.12606 0
M  V30 12248 H 1193.56 2.62661 6.24512 0
M  V30 12249 H 1194.5 4.08038 5.78714 0
M  V30 12250 H 1194.91 2.4966 5.06291 0
M  V30 12251 N 1194.3 -1.0692 1.15784 0
M  V30 12252 C 1195.25 -2.14235 0.858616 0
M  V30 12253 C 1196.22 -1.65006 -0.190295 0
M  V30 12254 O 1197.41 -1.90715 -0.0568853 0
M  V30 12255 C 1194.55 -3.43229 0.35888 0
M  V30 12256 C 1193.66 -4.06225 1.46987 0
M  V30 12257 C 1192.79 -5.2307 0.925812 0
M  V30 12258 C 1191.83 -5.78037 2.01345 0
M  V30 12259 N 1190.97 -6.86206 1.48544 0
M  V30 12260 H 1195.81 -2.3917 1.77769 0
M  V30 12261 H 1193.35 -1.17354 0.886925 0
M  V30 12262 H 1195.31 -4.17169 0.0508198 0
M  V30 12263 H 1193.94 -3.18531 -0.523259 0
M  V30 12264 H 1192.99 -3.29895 1.89403 0
M  V30 12265 H 1194.3 -4.43081 2.29088 0
M  V30 12266 H 1193.45 -6.04011 0.570555 0
M  V30 12267 H 1192.19 -4.87644 0.0740371 0
M  V30 12268 H 1191.2 -4.95738 2.37748 0
M  V30 12269 H 1192.42 -6.15517 2.86907 0
M  V30 12270 H 1190.37 -6.52711 0.656092 0
M  V30 12271 H 1190.29 -7.2197 2.24266 0
M  V30 12272 H 1191.55 -7.70842 1.15856 0
M  V30 12273 N 1195.78 -0.955326 -1.25345 0
M  V30 12274 C 1196.71 -0.4334 -2.25065 0
M  V30 12275 C 1197.73 0.451099 -1.56425 0
M  V30 12276 O 1198.92 0.259265 -1.76607 0
M  V30 12277 C 1196.02 0.394809 -3.36592 0
M  V30 12278 C 1195.19 -0.476856 -4.34793 0
M  V30 12279 C 1194.25 0.293269 -5.25382 0
M  V30 12280 O 1193.27 -0.30857 -5.68363 0
M  V30 12281 N 1194.48 1.58617 -5.58409 0
M  V30 12282 H 1197.24 -1.29073 -2.70482 0
M  V30 12283 H 1194.8 -0.825764 -1.39258 0
M  V30 12284 H 1196.79 0.917747 -3.94157 0
M  V30 12285 H 1195.36 1.153 -2.90559 0
M  V30 12286 H 1194.58 -1.18089 -3.76097 0
M  V30 12287 H 1195.87 -1.07178 -4.97384 0
M  V30 12288 H 1195.27 2.09705 -5.25395 0
M  V30 12289 H 1193.83 2.05506 -6.18555 0
M  V30 12290 N 1197.26 1.39987 -0.723979 0
M  V30 12291 C 1198.19 2.3332 -0.0917282 0
M  V30 12292 C 1199.17 1.53335 0.736361 0
M  V30 12293 O 1200.36 1.81771 0.683582 0
M  V30 12294 C 1197.49 3.3737 0.824549 0
M  V30 12295 C 1196.44 4.2788 0.101452 0
M  V30 12296 C 1195.77 5.22536 1.13401 0
M  V30 12297 C 1197.07 5.11649 -1.04939 0
M  V30 12298 H 1198.76 2.86441 -0.871318 0
M  V30 12299 H 1196.31 1.37725 -0.420448 0
M  V30 12300 H 1198.26 4.01607 1.27631 0
M  V30 12301 H 1196.98 2.82663 1.63613 0
M  V30 12302 H 1195.64 3.65107 -0.330569 0
M  V30 12303 H 1195.29 4.64131 1.93886 0
M  V30 12304 H 1194.99 5.83938 0.65502 0
M  V30 12305 H 1196.52 5.89651 1.58569 0
M  V30 12306 H 1197.93 5.69293 -0.6766 0
M  V30 12307 H 1196.33 5.82137 -1.45729 0
M  V30 12308 H 1197.4 4.47132 -1.8762 0
M  V30 12309 N 1198.74 0.470782 1.50404 0
M  V30 12310 C 1199.7 -0.312227 2.27063 0
M  V30 12311 C 1200.7 -0.920709 1.31832 0
M  V30 12312 O 1201.89 -0.789937 1.5526 0
M  V30 12313 C 1199.02 -1.44477 3.0877 0
M  V30 12314 H 1200.22 0.36006 2.97731 0
M  V30 12315 H 1197.77 0.224837 1.54674 0
M  V30 12316 H 1198.51 -2.15212 2.42599 0
M  V30 12317 H 1198.29 -1.01426 3.78755 0
M  V30 12318 H 1199.78 -1.99713 3.66749 0
M  V30 12319 N 1200.22 -1.56282 0.203376 0
M  V30 12320 C 1201.13 -2.23086 -0.725922 0
M  V30 12321 C 1202.14 -1.23258 -1.22814 0
M  V30 12322 O 1203.32 -1.5602 -1.27357 0
M  V30 12323 C 1200.38 -2.88358 -1.92485 0
M  V30 12324 C 1199.45 -4.03479 -1.46639 0
M  V30 12325 C 1198.68 -4.65629 -2.60816 0
M  V30 12326 O 1198.9 -4.2672 -3.78506 0
M  V30 12327 O 1197.84 -5.54949 -2.33056 0
M  V30 12328 H 1201.66 -3.03124 -0.18694 0
M  V30 12329 H 1199.25 -1.49377 -0.0262829 0
M  V30 12330 H 1201.13 -3.29623 -2.62539 0
M  V30 12331 H 1199.8 -2.11294 -2.45228 0
M  V30 12332 H 1198.71 -3.66821 -0.734396 0
M  V30 12333 H 1200.04 -4.82232 -0.985535 0
M  V30 12334 N 1201.7 0.070167 -1.57444 0
M  V30 12335 C 1202.97 0.802108 -1.78397 0
M  V30 12336 C 1203.35 1.95706 -0.791356 0
M  V30 12337 O 1202.7 2.27827 0.17518 0
M  V30 12338 C 1202.91 1.27354 -3.24934 0
M  V30 12339 C 1204.26 1.70626 -3.88808 0
M  V30 12340 O 1205.28 1.36916 -3.28835 0
M  V30 12341 O 1204.14 2.33041 -4.94322 0
M  V30 12342 H 1201.24 0.384483 -0.73219 0
M  V30 12343 H 1203.78 0.0501168 -1.69626 0
M  V30 12344 H 1202.55 0.447204 -3.88736 0
M  V30 12345 H 1202.18 2.0868 -3.38435 0
M  V30 12346 N 1203.17 1.53854 0.341593 0
M  V30 12347 C 1204.42 1.71447 1.08322 0
M  V30 12348 C 1204.75 0.477289 1.88243 0
M  V30 12349 O 1204.03 -0.525695 1.87261 0
M  V30 12350 C 1204.31 2.97917 2.02281 0
M  V30 12351 C 1204.16 4.31847 1.25809 0
M  V30 12352 C 1205.48 3.20065 3.0207 0
M  V30 12353 H 1202.6 0.623847 0.392408 0
M  V30 12354 H 1205.24 1.86527 0.361594 0
M  V30 12355 H 1203.39 2.85191 2.63815 0
M  V30 12356 H 1205.07 4.56427 0.668737 0
M  V30 12357 H 1203.31 4.30169 0.560119 0
M  V30 12358 H 1203.98 5.16522 1.94704 0
M  V30 12359 H 1206.46 3.32135 2.50651 0
M  V30 12360 H 1205.33 4.09947 3.65013 0
M  V30 12361 H 1205.59 2.36452 3.73554 0
M  V30 12362 N 1204.65 -0.602709 1.4562 0
M  V30 12363 C 1205.6 -1.71312 1.54664 0
M  V30 12364 C 1206.57 -1.61403 0.392197 0
M  V30 12365 O 1207.75 -1.80911 0.606297 0
M  V30 12366 C 1204.89 -3.09629 1.52393 0
M  V30 12367 C 1204.01 -3.30308 2.78425 0
M  V30 12368 C 1203.14 -4.5876 2.67793 0
M  V30 12369 C 1202.18 -4.72713 3.88855 0
M  V30 12370 N 1201.32 -5.92469 3.76729 0
M  V30 12371 H 1206.16 -1.62918 2.49523 0
M  V30 12372 H 1203.69 -0.794324 1.2381 0
M  V30 12373 H 1205.65 -3.89661 1.49064 0
M  V30 12374 H 1204.28 -3.16968 0.610816 0
M  V30 12375 H 1203.33 -2.44018 2.9182 0
M  V30 12376 H 1204.65 -3.36491 3.68205 0
M  V30 12377 H 1203.8 -5.46993 2.62457 0
M  V30 12378 H 1202.54 -4.54983 1.75619 0
M  V30 12379 H 1201.54 -3.82903 3.94545 0
M  V30 12380 H 1202.77 -4.78284 4.82101 0
M  V30 12381 H 1200.72 -5.89728 2.87328 0
M  V30 12382 H 1200.63 -5.99833 4.60148 0
M  V30 12383 H 1201.9 -6.83187 3.75334 0
M  V30 12384 N 1206.13 -1.32992 -0.845635 0
M  V30 12385 C 1207.06 -1.25301 -1.97033 0
M  V30 12386 C 1208.04 -0.134966 -1.69564 0
M  V30 12387 O 1209.23 -0.323629 -1.91484 0
M  V30 12388 C 1206.36 -0.984551 -3.33052 0
M  V30 12389 C 1205.31 -2.06481 -3.749 0
M  V30 12390 C 1204.64 -1.6486 -5.08651 0
M  V30 12391 C 1205.94 -3.48083 -3.89404 0
M  V30 12392 H 1207.63 -2.194 -2.03725 0
M  V30 12393 H 1205.18 -1.05621 -0.978783 0
M  V30 12394 H 1207.13 -0.917269 -4.11296 0
M  V30 12395 H 1205.85 -0.00793116 -3.26599 0
M  V30 12396 H 1204.51 -2.1224 -2.98915 0
M  V30 12397 H 1204.16 -0.659183 -4.98662 0
M  V30 12398 H 1203.86 -2.37145 -5.37621 0
M  V30 12399 H 1205.38 -1.59585 -5.89377 0
M  V30 12400 H 1206.8 -3.44863 -4.57976 0
M  V30 12401 H 1205.19 -4.18796 -4.29802 0
M  V30 12402 H 1206.26 -3.87084 -2.92051 0
M  V30 12403 N 1207.61 1.06304 -1.1635 0
M  V30 12404 C 1208.54 2.13732 -0.827721 0
M  V30 12405 C 1209.55 1.61962 0.164983 0
M  V30 12406 O 1210.74 1.784 -0.0597591 0
M  V30 12407 C 1207.84 3.38239 -0.211623 0
M  V30 12408 C 1207.01 4.19325 -1.2444 0
M  V30 12409 C 1206.07 5.22193 -0.648127 0
M  V30 12410 O 1205.1 5.53755 -1.31695 0
M  V30 12411 N 1206.3 5.77742 0.565179 0
M  V30 12412 H 1209.07 2.43136 -1.75228 0
M  V30 12413 H 1206.63 1.22304 -1.06081 0
M  V30 12414 H 1208.62 4.04204 0.200306 0
M  V30 12415 H 1207.19 3.06461 0.616491 0
M  V30 12416 H 1206.41 3.49017 -1.83251 0
M  V30 12417 H 1207.7 4.70306 -1.94138 0
M  V30 12418 H 1207.1 5.54366 1.12673 0
M  V30 12419 H 1205.65 6.45284 0.919321 0
M  V30 12420 N 1209.09 0.96196 1.24836 0
M  V30 12421 C 1210.02 0.506241 2.27946 0
M  V30 12422 C 1211 -0.451183 1.64007 0
M  V30 12423 O 1212.18 -0.348552 1.91046 0
M  V30 12424 C 1209.31 -0.209846 3.46665 0
M  V30 12425 C 1208.27 0.663035 4.22833 0
M  V30 12426 C 1207.59 -0.184216 5.34383 0
M  V30 12427 C 1208.89 1.94479 4.84742 0
M  V30 12428 H 1210.59 1.36805 2.66317 0
M  V30 12429 H 1208.13 0.65926 1.28023 0
M  V30 12430 H 1210.08 -0.539838 4.17928 0
M  V30 12431 H 1208.81 -1.10596 3.07305 0
M  V30 12432 H 1207.47 0.976216 3.53363 0
M  V30 12433 H 1207.12 -1.08031 4.91262 0
M  V30 12434 H 1206.82 0.39657 5.8626 0
M  V30 12435 H 1208.34 -0.509009 6.08475 0
M  V30 12436 H 1209.75 1.68074 5.48109 0
M  V30 12437 H 1208.15 2.47183 5.46828 0
M  V30 12438 H 1209.22 2.64332 4.06517 0
M  V30 12439 N 1210.56 -1.39601 0.731392 0
M  V30 12440 C 1211.79 -2.0459 0.287472 0
M  V30 12441 C 1212.2 -1.5525 -1.08139 0
M  V30 12442 O 1211.54 -0.710949 -1.69385 0
M  V30 12443 C 1211.61 -3.58904 0.206948 0
M  V30 12444 C 1211.27 -4.31204 1.51368 0
M  V30 12445 C 1212.27 -4.58088 2.45869 0
M  V30 12446 C 1209.95 -4.69818 1.77698 0
M  V30 12447 C 1211.95 -5.22591 3.64935 0
M  V30 12448 C 1209.63 -5.34049 2.97043 0
M  V30 12449 C 1210.63 -5.60368 3.90483 0
M  V30 12450 O 1210.32 -6.23268 5.07732 0
M  V30 12451 H 1210.05 -0.664515 0.12408 0
M  V30 12452 H 1212.61 -1.79701 0.994814 0
M  V30 12453 H 1210.84 -3.82675 -0.556466 0
M  V30 12454 H 1212.52 -4.05385 -0.204498 0
M  V30 12455 H 1213.29 -4.28706 2.26796 0
M  V30 12456 H 1209.17 -4.48692 1.05815 0
M  V30 12457 H 1212.71 -5.43049 4.37885 0
M  V30 12458 H 1208.61 -5.62852 3.16018 0
M  V30 12459 H 1209.38 -6.41763 5.08019 0
M  V30 12460 N 1212.04 -0.478751 -1.50152 0
M  V30 12461 C 1212.99 0.311426 -2.28689 0
M  V30 12462 C 1213.96 0.980375 -1.34082 0
M  V30 12463 O 1215.14 0.991337 -1.63025 0
M  V30 12464 C 1212.28 1.38302 -3.16175 0
M  V30 12465 C 1211.4 0.728084 -4.2582 0
M  V30 12466 C 1210.53 1.77822 -5.00552 0
M  V30 12467 C 1209.57 1.10395 -6.02063 0
M  V30 12468 N 1208.71 2.09728 -6.70044 0
M  V30 12469 H 1213.55 -0.364592 -2.95761 0
M  V30 12470 H 1211.09 -0.191645 -1.45846 0
M  V30 12471 H 1213.04 2.01606 -3.65255 0
M  V30 12472 H 1211.67 2.0281 -2.51133 0
M  V30 12473 H 1210.73 -0.0177026 -3.80396 0
M  V30 12474 H 1212.04 0.196209 -4.98414 0
M  V30 12475 H 1211.19 2.48687 -5.53389 0
M  V30 12476 H 1209.93 2.34392 -4.27682 0
M  V30 12477 H 1208.94 0.38096 -5.48479 0
M  V30 12478 H 1210.16 0.545045 -6.76909 0
M  V30 12479 H 1208.11 2.65301 -5.9996 0
M  V30 12480 H 1208.02 1.61546 -7.38538 0
M  V30 12481 H 1209.29 2.7995 -7.27495 0
M  V30 12482 N 1213.52 1.56172 -0.211661 0
M  V30 12483 C 1214.45 2.22843 0.697375 0
M  V30 12484 C 1215.43 1.19689 1.20866 0
M  V30 12485 O 1216.62 1.48245 1.25447 0
M  V30 12486 C 1213.75 2.90067 1.90993 0
M  V30 12487 C 1212.7 3.99608 1.5329 0
M  V30 12488 C 1212.03 4.54078 2.82343 0
M  V30 12489 C 1213.33 5.17169 0.730333 0
M  V30 12490 H 1215.02 2.99065 0.141533 0
M  V30 12491 H 1212.57 1.43846 0.0666337 0
M  V30 12492 H 1214.52 3.35396 2.55123 0
M  V30 12493 H 1213.24 2.11276 2.49058 0
M  V30 12494 H 1211.9 3.54995 0.915115 0
M  V30 12495 H 1211.55 3.72029 3.38531 0
M  V30 12496 H 1211.25 5.28001 2.57853 0
M  V30 12497 H 1212.77 5.02119 3.47432 0
M  V30 12498 H 1214.19 5.5894 1.2751 0
M  V30 12499 H 1212.59 5.97262 0.582916 0
M  V30 12500 H 1213.66 4.84174 -0.265157 0
M  V30 12501 N 1215 -0.0618163 1.57479 0
M  V30 12502 C 1215.93 -1.07252 2.07411 0
M  V30 12503 C 1216.91 -1.39756 0.969649 0
M  V30 12504 O 1218.09 -1.4921 1.24298 0
M  V30 12505 C 1215.22 -2.38313 2.52635 0
M  V30 12506 C 1214.18 -2.20136 3.67048 0
M  V30 12507 C 1213.5 -3.56668 3.98361 0
M  V30 12508 C 1214.8 -1.61437 4.96725 0
M  V30 12509 H 1216.5 -0.656983 2.92103 0
M  V30 12510 H 1214.04 -0.314579 1.40522 0
M  V30 12511 H 1216 -3.09319 2.86181 0
M  V30 12512 H 1214.72 -2.81865 1.64984 0
M  V30 12513 H 1213.38 -1.51569 3.338 0
M  V30 12514 H 1213.03 -3.97809 3.07826 0
M  V30 12515 H 1212.73 -3.45342 4.75408 0
M  V30 12516 H 1214.25 -4.2909 4.34413 0
M  V30 12517 H 1215.67 -2.2232 5.28438 0
M  V30 12518 H 1214.06 -1.60779 5.78161 0
M  V30 12519 H 1215.13 -0.576795 4.81457 0
M  V30 12520 N 1216.48 -1.54033 -0.333429 0
M  V30 12521 C 1217.39 -1.85737 -1.43314 0
M  V30 12522 C 1218.4 -0.748398 -1.57083 0
M  V30 12523 O 1219.58 -1.04171 -1.72367 0
M  V30 12524 C 1216.64 -2.06942 -2.78165 0
M  V30 12525 C 1215.7 -3.30774 -2.73655 0
M  V30 12526 C 1214.94 -3.50957 -4.02075 0
M  V30 12527 O 1215.16 -2.74774 -4.99855 0
M  V30 12528 O 1214.09 -4.44412 -4.05933 0
M  V30 12529 H 1217.92 -2.7923 -1.19434 0
M  V30 12530 H 1215.51 -1.39814 -0.526546 0
M  V30 12531 H 1217.39 -2.22276 -3.58011 0
M  V30 12532 H 1216.06 -1.16638 -3.01956 0
M  V30 12533 H 1214.97 -3.20835 -1.92395 0
M  V30 12534 H 1216.3 -4.21103 -2.54819 0
M  V30 12535 N 1217.95 0.594978 -1.45938 0
M  V30 12536 C 1219.2 1.34976 -1.49881 0
M  V30 12537 C 1219.52 1.95025 -0.14983 0
M  V30 12538 O 1220.72 2.71417 -0.0669868 0
M  V30 12539 C 1219.18 2.44563 -2.6404 0
M  V30 12540 C 1218.79 1.9087 -4.05306 0
M  V30 12541 C 1220.53 3.21461 -2.77242 0
M  V30 12542 C 1218.44 2.98013 -5.10825 0
M  V30 12543 H 1217.37 0.507366 -0.55776 0
M  V30 12544 H 1220.02 0.636316 -1.72114 0
M  V30 12545 H 1218.4 3.1865 -2.35114 0
M  V30 12546 H 1219.57 1.23408 -4.43968 0
M  V30 12547 H 1217.89 1.26678 -3.96663 0
M  V30 12548 H 1220.49 4.01399 -3.53246 0
M  V30 12549 H 1220.83 3.73271 -1.84321 0
M  V30 12550 H 1221.36 2.54477 -3.05756 0
M  V30 12551 H 1218.1 2.51104 -6.05497 0
M  V30 12552 H 1217.62 3.64003 -4.7672 0
M  V30 12553 H 1219.3 3.62178 -5.36131 0
M  V30 12554 N 1219.43 1.33438 0.838571 0
M  V30 12555 C 1220.84 1.22366 1.41009 0
M  V30 12556 C 1221.19 -0.157317 1.95568 0
M  V30 12557 O 1220.32 -1.05692 1.88834 0
M  V30 12558 C 1220.91 2.21542 2.56329 0
M  V30 12559 C 1219.47 2.14309 3.09433 0
M  V30 12560 C 1218.62 2.09012 1.82235 0
M  V30 12561 H 1221.57 1.45032 0.64431 0
M  V30 12562 H 1221.59 1.82332 3.33969 0
M  V30 12563 H 1221.1 3.22042 2.16589 0
M  V30 12564 H 1219.21 1.17113 3.53717 0
M  V30 12565 H 1219.32 3.04866 3.69586 0
M  V30 12566 H 1217.68 1.54492 2.02495 0
M  V30 12567 H 1218.47 3.11319 1.4469 0
M  V30 12568 N 1220.91 -1.05686 1.16912 0
M  V30 12569 C 1222.19 -1.7546 0.864483 0
M  V30 12570 C 1222.57 -2.0128 -0.636359 0
M  V30 12571 O 1221.92 -1.64485 -1.58609 0
M  V30 12572 C 1222.13 -3.05134 1.69395 0
M  V30 12573 C 1223.47 -3.79176 1.91079 0
M  V30 12574 O 1224.5 -3.1499 1.66312 0
M  V30 12575 O 1223.36 -4.94496 2.32671 0
M  V30 12576 H 1220.45 -0.762748 0.319601 0
M  V30 12577 H 1223 -1.11899 1.27581 0
M  V30 12578 H 1221.77 -2.82063 2.71212 0
M  V30 12579 H 1221.39 -3.76431 1.28007 0
M  V30 12580 N 1222.39 -0.968567 -1.24324 0
M  V30 12581 C 1223.8 -0.66964 -1.74278 0
M  V30 12582 C 1224.15 0.81461 -1.7849 0
M  V30 12583 O 1223.28 1.63736 -1.4149 0
M  V30 12584 C 1223.87 -1.20885 -3.165 0
M  V30 12585 C 1222.43 -0.959808 -3.63957 0
M  V30 12586 C 1221.58 -1.34365 -2.42573 0
M  V30 12587 H 1224.53 -1.14379 -1.10015 0
M  V30 12588 H 1224.55 -0.57555 -3.76122 0
M  V30 12589 H 1224.06 -2.28912 -3.13402 0
M  V30 12590 H 1222.16 0.104894 -3.72452 0
M  V30 12591 H 1222.27 -1.60606 -4.51378 0
M  V30 12592 H 1220.64 -0.762039 -2.43033 0
M  V30 12593 H 1221.42 -2.43343 -2.42155 0
M  V30 12594 N 1223.87 1.39211 -0.738786 0
M  V30 12595 C 1225.14 1.9442 -0.214533 0
M  V30 12596 C 1225.52 1.67528 1.28443 0
M  V30 12597 O 1224.87 1.0056 2.05183 0
M  V30 12598 C 1225.08 3.44603 -0.552232 0
M  V30 12599 C 1226.43 4.21602 -0.503663 0
M  V30 12600 O 1227.45 3.52819 -0.489647 0
M  V30 12601 O 1226.31 5.44194 -0.50153 0
M  V30 12602 H 1223.41 0.826011 -0.0404247 0
M  V30 12603 H 1225.95 1.48689 -0.817902 0
M  V30 12604 H 1224.72 3.57626 -1.58806 0
M  V30 12605 H 1224.35 3.9752 0.0799096 0
M  V30 12606 N 1225.34 0.486708 1.49896 0
M  V30 12607 C 1226.29 -0.299294 2.28851 0
M  V30 12608 C 1227.26 -0.973251 1.346 0
M  V30 12609 O 1228.45 -0.982678 1.63548 0
M  V30 12610 C 1225.59 -1.36624 3.16904 0
M  V30 12611 C 1224.7 -0.705492 4.262 0
M  V30 12612 C 1223.83 -1.75165 5.01488 0
M  V30 12613 C 1222.87 -1.072 6.0264 0
M  V30 12614 N 1222.01 -2.06172 6.71147 0
M  V30 12615 H 1226.85 0.380272 2.95564 0
M  V30 12616 H 1224.39 0.199377 1.45743 0
M  V30 12617 H 1226.35 -1.99666 3.66319 0
M  V30 12618 H 1224.98 -2.01476 2.52205 0
M  V30 12619 H 1224.03 0.0378757 3.80381 0
M  V30 12620 H 1225.34 -0.169774 4.98511 0
M  V30 12621 H 1224.49 -2.45749 5.547 0
M  V30 12622 H 1223.23 -2.3212 4.28919 0
M  V30 12623 H 1222.24 -0.351868 5.48673 0
M  V30 12624 H 1223.46 -0.509139 6.77189 0
M  V30 12625 H 1221.41 -2.62115 6.01358 0
M  V30 12626 H 1221.33 -1.57627 7.39385 0
M  V30 12627 H 1222.59 -2.76088 7.28969 0
M  V30 12628 N 1226.82 -1.56058 0.219941 0
M  V30 12629 C 1227.77 -2.21585 -0.707321 0
M  V30 12630 C 1228.77 -1.19473 -1.20094 0
M  V30 12631 O 1229.97 -1.37557 -1.16095 0
M  V30 12632 H 1226.35 -0.710447 -0.246515 0
M  V30 12633 H 1228.32 -2.98111 -0.131214 0
M  V30 12634 C 1227.07 -2.90841 -1.90544 0
M  V30 12635 H 1226.39 -3.6917 -1.53472 0
M  V30 12636 H 1227.83 -3.40092 -2.53206 0
M  V30 12637 C 1226.29 -1.93223 -2.75983 0
M  V30 12638 O 1226.82 -1.44815 -3.74689 0
M  V30 12639 N 1225.02 -1.60907 -2.41986 0
M  V30 12640 H 1224.57 -2.00467 -1.61774 0
M  V30 12641 H 1224.53 -0.958534 -2.99432 0
M  V30 12642 N 1228.3 0.053464 -1.57509 0
M  V30 12643 C 1229.55 0.744867 -1.8927 0
M  V30 12644 C 1229.9 1.74249 -0.815791 0
M  V30 12645 O 1229.2 1.9077 0.178187 0
M  V30 12646 C 1229.39 1.47666 -3.25468 0
M  V30 12647 C 1229.22 0.551427 -4.46306 0
M  V30 12648 C 1227.99 0.181517 -5.04974 0
M  V30 12649 C 1230.19 -0.159765 -5.14052 0
M  V30 12650 N 1228.17 -0.747526 -6.09332 0
M  V30 12651 C 1229.54 -0.94533 -6.12751 0
M  V30 12652 C 1231.59 -0.2293 -4.97372 0
M  V30 12653 C 1230.3 -1.794 -6.96569 0
M  V30 12654 C 1232.32 -1.065 -5.81732 0
M  V30 12655 C 1231.69 -1.83856 -6.79983 0
M  V30 12656 H 1227.78 0.247424 -0.741826 0
M  V30 12657 H 1230.37 0.00570542 -1.94699 0
M  V30 12658 H 1228.54 2.18643 -3.21014 0
M  V30 12659 H 1230.27 2.11852 -3.4482 0
M  V30 12660 H 1227.03 0.538408 -4.7053 0
M  V30 12661 H 1227.45 -1.20583 -6.66175 0
M  V30 12662 H 1232.09 0.354441 -4.21312 0
M  V30 12663 H 1229.81 -2.38864 -7.71991 0
M  V30 12664 H 1233.4 -1.12202 -5.70878 0
M  V30 12665 H 1232.28 -2.47479 -7.44126 0
M  V30 12666 N 1229.78 1.54207 0.325255 0
M  V30 12667 C 1230.74 1.82757 1.38321 0
M  V30 12668 C 1231.74 0.699312 1.44797 0
M  V30 12669 O 1232.93 0.96762 1.44854 0
M  V30 12670 C 1230.06 1.98608 2.7707 0
M  V30 12671 H 1231.26 2.7728 1.14261 0
M  V30 12672 H 1228.81 1.45899 0.560647 0
M  V30 12673 H 1229.55 1.0629 3.06387 0
M  V30 12674 H 1229.33 2.80707 2.73763 0
M  V30 12675 H 1230.82 2.2215 3.53609 0
M  V30 12676 N 1231.26 -0.58723 1.46251 0
M  V30 12677 C 1232.49 -1.37174 1.5489 0
M  V30 12678 C 1232.9 -1.87857 0.188445 0
M  V30 12679 O 1232.26 -1.63365 -0.813509 0
M  V30 12680 C 1232.31 -2.56237 2.55 0
M  V30 12681 O 1232.03 -2.07655 3.8576 0
M  V30 12682 C 1233.53 -3.48846 2.73535 0
M  V30 12683 H 1230.75 -0.419211 0.523931 0
M  V30 12684 H 1233.29 -0.714307 1.91619 0
M  V30 12685 H 1231.45 -3.1798 2.21287 0
M  V30 12686 H 1231.86 -2.85161 4.40208 0
M  V30 12687 H 1233.34 -4.2888 3.47514 0
M  V30 12688 H 1233.81 -4.00493 1.80282 0
M  V30 12689 H 1234.42 -2.92942 3.08326 0
M  V30 12690 N 1232.74 -1.33881 -0.831482 0
M  V30 12691 C 1233.67 -1.27384 -1.95693 0
M  V30 12692 C 1234.65 -0.152943 -1.69411 0
M  V30 12693 O 1235.83 -0.34392 -1.9113 0
M  V30 12694 C 1232.96 -1.01982 -3.31989 0
M  V30 12695 C 1231.92 -2.10445 -3.72689 0
M  V30 12696 C 1231.24 -1.70245 -5.06873 0
M  V30 12697 C 1232.54 -3.52194 -3.8569 0
M  V30 12698 H 1234.24 -2.21549 -2.01386 0
M  V30 12699 H 1231.78 -1.06653 -0.967526 0
M  V30 12700 H 1233.73 -0.960841 -4.103 0
M  V30 12701 H 1232.46 -0.0425709 -3.26572 0
M  V30 12702 H 1231.12 -2.15398 -2.96647 0
M  V30 12703 H 1230.77 -0.712036 -4.97935 0
M  V30 12704 H 1230.47 -2.42834 -5.35075 0
M  V30 12705 H 1231.99 -1.65827 -5.87651 0
M  V30 12706 H 1233.4 -3.49701 -4.54293 0
M  V30 12707 H 1231.8 -4.23331 -4.25336 0
M  V30 12708 H 1232.87 -3.9016 -2.87929 0
M  V30 12709 N 1234.21 1.05064 -1.1747 0
M  V30 12710 C 1235.18 2.1101 -0.89485 0
M  V30 12711 C 1236.18 1.60384 0.11553 0
M  V30 12712 O 1237.37 1.73808 -0.116785 0
M  V30 12713 C 1234.5 3.39194 -0.340642 0
M  V30 12714 H 1235.69 2.37269 -1.83421 0
M  V30 12715 H 1233.24 1.21329 -0.985343 0
M  V30 12716 H 1233.98 3.18591 0.605808 0
M  V30 12717 H 1233.76 3.77251 -1.06885 0
M  V30 12718 H 1235.25 4.17281 -0.163204 0
M  V30 12719 N 1235.69 0.975146 1.23809 0
M  V30 12720 C 1236.62 0.469151 2.24347 0
M  V30 12721 C 1237.64 -0.426156 1.57123 0
M  V30 12722 O 1238.83 -0.231136 1.76997 0
M  V30 12723 C 1235.93 -0.34121 3.37178 0
M  V30 12724 C 1235.1 0.545968 4.33979 0
M  V30 12725 C 1234.16 -0.209648 5.25782 0
M  V30 12726 O 1233.18 0.398953 5.678 0
M  V30 12727 N 1234.39 -1.49713 5.60862 0
M  V30 12728 H 1237.15 1.33359 2.68394 0
M  V30 12729 H 1234.71 0.847814 1.37927 0
M  V30 12730 H 1236.7 -0.854924 3.95567 0
M  V30 12731 H 1235.27 -1.10663 2.92357 0
M  V30 12732 H 1234.49 1.24057 3.7417 0
M  V30 12733 H 1235.78 1.15077 4.95615 0
M  V30 12734 H 1235.18 -2.0132 5.28665 0
M  V30 12735 H 1233.74 -1.95639 6.21746 0
M  V30 12736 N 1237.17 -1.38817 0.746158 0
M  V30 12737 C 1238.12 -2.30521 0.113517 0
M  V30 12738 C 1239.09 -1.49795 -0.717682 0
M  V30 12739 O 1240.27 -1.78448 -0.675345 0
M  V30 12740 C 1237.41 -3.36185 -0.779343 0
M  V30 12741 C 1236.52 -4.3195 0.0656784 0
M  V30 12742 C 1235.66 -5.24684 -0.829492 0
M  V30 12743 C 1234.7 -6.12097 0.0196112 0
M  V30 12744 N 1233.84 -6.97152 -0.832107 0
M  V30 12745 H 1238.68 -2.84048 0.901136 0
M  V30 12746 H 1236.21 -1.39853 0.456025 0
M  V30 12747 H 1238.17 -3.96048 -1.31156 0
M  V30 12748 H 1236.8 -2.84085 -1.53282 0
M  V30 12749 H 1235.85 -3.73611 0.715445 0
M  V30 12750 H 1237.16 -4.93551 0.721735 0
M  V30 12751 H 1236.32 -5.89627 -1.42915 0
M  V30 12752 H 1235.06 -4.63431 -1.5193 0
M  V30 12753 H 1234.06 -5.46156 0.631991 0
M  V30 12754 H 1235.29 -6.75416 0.706369 0
M  V30 12755 H 1233.23 -6.38456 -1.507 0
M  V30 12756 H 1233.15 -7.55642 -0.232782 0
M  V30 12757 H 1234.42 -7.66513 -1.41697 0
M  V30 12758 N 1238.65 -0.49465 -1.49636 0
M  V30 12759 C 1239.58 0.276606 -2.31856 0
M  V30 12760 C 1240.56 0.968499 -1.39836 0
M  V30 12761 O 1241.74 0.96113 -1.68748 0
M  V30 12762 C 1238.87 1.34522 -3.20189 0
M  V30 12763 C 1237.83 0.773571 -4.20951 0
M  V30 12764 C 1237.15 1.94223 -4.98178 0
M  V30 12765 C 1238.45 -0.231096 -5.21788 0
M  V30 12766 H 1240.15 -0.409668 -2.96584 0
M  V30 12767 H 1237.69 -0.198461 -1.42626 0
M  V30 12768 H 1239.65 1.89244 -3.76517 0
M  V30 12769 H 1238.37 2.06059 -2.53392 0
M  V30 12770 H 1237.03 0.248144 -3.65759 0
M  V30 12771 H 1236.68 2.64514 -4.27834 0
M  V30 12772 H 1236.38 1.56584 -5.66353 0
M  V30 12773 H 1237.9 2.49391 -5.57348 0
M  V30 12774 H 1239.32 0.227768 -5.72847 0
M  V30 12775 H 1237.71 -0.522984 -5.97817 0
M  V30 12776 H 1238.78 -1.14914 -4.71087 0
M  V30 12777 N 1240.13 1.55939 -0.228214 0
M  V30 12778 C 1241.37 1.98084 0.400884 0
M  V30 12779 C 1241.69 1.11727 1.59819 0
M  V30 12780 O 1240.96 0.195794 1.94919 0
M  V30 12781 H 1239.54 0.731558 0.151102 0
M  V30 12782 H 1242.21 1.92211 -0.322659 0
M  V30 12783 H 1241.3 3.03617 0.722706 0
M  V30 12784 N 1241.6 -0.0451101 1.57535 0
M  V30 12785 C 1242.53 -1.05046 2.08537 0
M  V30 12786 C 1243.52 -1.3872 0.984418 0
M  V30 12787 O 1244.7 -1.47884 1.25873 0
M  V30 12788 C 1241.83 -2.3562 2.55148 0
M  V30 12789 C 1240.78 -2.16231 3.69362 0
M  V30 12790 C 1240.11 -3.52423 4.02122 0
M  V30 12791 C 1241.41 -1.56159 4.98409 0
M  V30 12792 H 1243.1 -0.625965 2.92783 0
M  V30 12793 H 1240.65 -0.299657 1.40848 0
M  V30 12794 H 1242.6 -3.06266 2.89446 0
M  V30 12795 H 1241.33 -2.80099 1.67964 0
M  V30 12796 H 1239.99 -1.4802 3.35389 0
M  V30 12797 H 1239.63 -3.94522 3.12028 0
M  V30 12798 H 1239.33 -3.4028 4.79044 0
M  V30 12799 H 1240.86 -4.24458 4.38939 0
M  V30 12800 H 1242.27 -2.16703 5.30766 0
M  V30 12801 H 1240.67 -1.54638 5.79834 0
M  V30 12802 H 1241.74 -0.525698 4.82042 0
M  V30 12803 N 1243.08 -1.54377 -0.317073 0
M  V30 12804 C 1244.33 -1.72551 -1.05216 0
M  V30 12805 C 1244.65 -0.5055 -1.88334 0
M  V30 12806 O 1243.92 0.480439 -1.89917 0
M  V30 12807 H 1242.5 -0.636222 -0.391447 0
M  V30 12808 H 1245.16 -1.91696 -0.35194 0
M  V30 12809 H 1244.26 -2.60791 -1.71448 0
M  V30 12810 N 1244.56 0.579466 -1.4656 0
M  V30 12811 C 1245.81 1.33379 -1.51304 0
M  V30 12812 C 1246.12 1.94855 -0.170507 0
M  V30 12813 O 1247.33 2.71331 -0.0957704 0
M  V30 12814 C 1245.78 2.41748 -2.66619 0
M  V30 12815 C 1245.39 1.8656 -4.07307 0
M  V30 12816 C 1247.14 3.18502 -2.80636 0
M  V30 12817 C 1245.04 2.92578 -5.13957 0
M  V30 12818 H 1243.97 0.501422 -0.56311 0
M  V30 12819 H 1246.62 0.618025 -1.72779 0
M  V30 12820 H 1245.01 3.16138 -2.3848 0
M  V30 12821 H 1246.18 1.18692 -4.45252 0
M  V30 12822 H 1244.5 1.22464 -3.97984 0
M  V30 12823 H 1247.09 3.9763 -3.57483 0
M  V30 12824 H 1247.44 3.71295 -1.8827 0
M  V30 12825 H 1247.97 2.51219 -3.08437 0
M  V30 12826 H 1244.71 2.44668 -6.08126 0
M  V30 12827 H 1244.23 3.58926 -4.80554 0
M  V30 12828 H 1245.91 3.56471 -5.39942 0
M  V30 12829 N 1246.04 1.3432 0.824371 0
M  V30 12830 C 1246.97 1.2842 1.95014 0
M  V30 12831 C 1247.95 0.161925 1.69328 0
M  V30 12832 O 1249.13 0.354052 1.90945 0
M  V30 12833 C 1246.26 1.03741 3.31444 0
M  V30 12834 C 1245.22 2.12419 3.71567 0
M  V30 12835 C 1244.54 1.72931 5.05963 0
M  V30 12836 C 1245.84 3.54235 3.83817 0
M  V30 12837 H 1247.54 2.22614 2.00209 0
M  V30 12838 H 1245.08 1.07165 0.961856 0
M  V30 12839 H 1247.04 0.982586 4.09784 0
M  V30 12840 H 1245.76 0.0598892 3.26545 0
M  V30 12841 H 1244.42 2.16968 2.955 0
M  V30 12842 H 1244.07 0.738433 4.9755 0
M  V30 12843 H 1243.77 2.45668 5.3378 0
M  V30 12844 H 1245.29 1.68941 5.86763 0
M  V30 12845 H 1246.71 3.52106 4.52432 0
M  V30 12846 H 1245.1 4.25581 4.23085 0
M  V30 12847 H 1246.17 3.91682 2.85856 0
M  V30 12848 N 1247.52 -1.0444 1.18026 0
M  V30 12849 C 1248.46 -2.14474 0.900202 0
M  V30 12850 C 1249.46 -1.68836 -0.138086 0
M  V30 12851 O 1250.66 -1.79997 0.00971011 0
M  V30 12852 H 1247.04 -0.700457 0.273613 0
M  V30 12853 H 1249.01 -2.35295 1.83518 0
M  V30 12854 C 1247.76 -3.44926 0.438305 0
M  V30 12855 H 1247.08 -3.8045 1.22874 0
M  V30 12856 H 1248.52 -4.23066 0.281306 0
M  V30 12857 C 1246.98 -3.26124 -0.845268 0
M  V30 12858 O 1247.51 -3.53368 -1.91034 0
M  V30 12859 N 1245.72 -2.79474 -0.7964 0
M  V30 12860 H 1245.26 -2.57503 0.0705595 0
M  V30 12861 H 1245.22 -2.67274 -1.65566 0
M  V30 12862 N 1248.99 -0.981699 -1.2329 0
M  V30 12863 C 1249.94 -0.515432 -2.26817 0
M  V30 12864 C 1250.94 0.428204 -1.63899 0
M  V30 12865 O 1252.14 0.301954 -1.77449 0
M  V30 12866 H 1248.52 -0.148257 -0.737241 0
M  V30 12867 H 1250.49 -1.40027 -2.63505 0
M  V30 12868 C 1249.24 0.165266 -3.47307 0
M  V30 12869 H 1248.56 -0.55176 -3.95974 0
M  V30 12870 H 1250 0.45513 -4.2155 0
M  V30 12871 C 1248.46 1.39693 -3.06574 0
M  V30 12872 O 1248.99 2.49308 -3.14974 0
M  V30 12873 N 1247.2 1.26806 -2.61474 0
M  V30 12874 H 1246.74 0.376161 -2.54839 0
M  V30 12875 H 1246.7 2.09324 -2.34587 0
M  V30 12876 N 1250.47 1.3842 -0.753509 0
M  V30 12877 C 1251.44 2.28808 -0.134022 0
M  V30 12878 C 1252.44 1.47184 0.647583 0
M  V30 12879 O 1253.63 1.67631 0.473861 0
M  V30 12880 C 1250.76 3.30926 0.81858 0
M  V30 12881 H 1251.95 2.85097 -0.930586 0
M  V30 12882 H 1249.5 1.47378 -0.520514 0
M  V30 12883 H 1250.24 2.79728 1.64082 0
M  V30 12884 H 1250.02 3.91234 0.260526 0
M  V30 12885 H 1251.51 3.98515 1.24802 0
M  V30 12886 N 1251.95 0.502579 1.49372 0
M  V30 12887 C 1253.2 -0.041381 2.02458 0
M  V30 12888 C 1253.53 -1.36848 1.38213 0
M  V30 12889 O 1252.78 -1.89003 0.507568 0
M  V30 12890 C 1253.08 -0.240835 3.56588 0
M  V30 12891 C 1252.75 1.00846 4.39478 0
M  V30 12892 C 1251.41 1.35091 4.61848 0
M  V30 12893 C 1253.76 1.8388 4.87686 0
M  V30 12894 C 1251.09 2.52318 5.29672 0
M  V30 12895 C 1253.44 3.00262 5.56799 0
M  V30 12896 C 1252.1 3.34885 5.77415 0
M  V30 12897 H 1251.37 -0.0151424 0.740845 0
M  V30 12898 H 1254.02 0.663056 1.79655 0
M  V30 12899 H 1252.33 -1.02781 3.78078 0
M  V30 12900 H 1254.02 -0.676194 3.95258 0
M  V30 12901 H 1250.61 0.731719 4.22308 0
M  V30 12902 H 1254.8 1.58738 4.7023 0
M  V30 12903 H 1250.05 2.79379 5.43836 0
M  V30 12904 H 1254.23 3.64927 5.93128 0
M  V30 12905 H 1251.85 4.25824 6.29744 0
M  V30 12906 N 1253.43 -1.55816 0.23648 0
M  V30 12907 C 1254.84 -1.59159 -0.118601 0
M  V30 12908 C 1255.04 -1.25352 -1.57763 0
M  V30 12909 O 1254.1 -0.995863 -2.32032 0
M  V30 12910 C 1255.41 -2.99885 0.221175 0
M  V30 12911 C 1256.96 -3.12567 0.164624 0
M  V30 12912 C 1257.44 -4.55496 0.478285 0
M  V30 12913 N 1258.93 -4.61215 0.428402 0
M  V30 12914 C 1259.66 -5.69768 0.644398 0
M  V30 12915 N 1259.16 -6.86624 0.922966 0
M  V30 12916 N 1260.95 -5.59143 0.575814 0
M  V30 12917 H 1253.1 -1.76063 1.18809 0
M  V30 12918 H 1255.37 -0.819079 0.477297 0
M  V30 12919 H 1255.07 -3.29326 1.2344 0
M  V30 12920 H 1254.95 -3.74425 -0.456723 0
M  V30 12921 H 1257.33 -2.82914 -0.839263 0
M  V30 12922 H 1257.41 -2.40325 0.876219 0
M  V30 12923 H 1257.06 -4.85868 1.47968 0
M  V30 12924 H 1256.99 -5.25984 -0.254671 0
M  V30 12925 H 1259.48 -3.77251 0.221398 0
M  V30 12926 H 1259.79 -7.6528 1.07548 0
M  V30 12927 H 1258.14 -6.88333 0.960325 0
M  V30 12928 H 1261.33 -4.66727 0.358307 0
M  V30 12929 H 1261.5 -6.43674 0.747548 0
M  V30 12930 N 1254.91 0.036755 -1.57557 0
M  V30 12931 C 1255.84 1.03939 -2.09091 0
M  V30 12932 C 1256.82 1.38196 -0.991761 0
M  V30 12933 O 1258 1.47214 -1.26656 0
M  V30 12934 C 1255.13 2.34263 -2.56394 0
M  V30 12935 C 1254.09 2.14269 -3.70504 0
M  V30 12936 C 1253.41 3.50286 -4.03985 0
M  V30 12937 C 1254.71 1.53514 -4.9923 0
M  V30 12938 H 1256.41 0.610429 -2.93111 0
M  V30 12939 H 1253.95 0.292183 -1.41005 0
M  V30 12940 H 1255.91 3.04727 -2.91066 0
M  V30 12941 H 1254.63 2.79205 -1.69447 0
M  V30 12942 H 1253.29 1.46239 -3.36169 0
M  V30 12943 H 1252.94 3.92861 -3.14116 0
M  V30 12944 H 1252.64 3.37735 -4.80842 0
M  V30 12945 H 1254.16 4.22124 -4.41184 0
M  V30 12946 H 1255.57 2.13885 -5.31908 0
M  V30 12947 H 1253.97 1.51561 -5.80646 0
M  V30 12948 H 1255.04 0.500126 -4.82314 0
M  V30 12949 N 1256.39 1.54543 0.308881 0
M  V30 12950 C 1257.61 1.77753 1.06857 0
M  V30 12951 C 1258.04 0.531616 1.80431 0
M  V30 12952 O 1257.39 -0.517513 1.73757 0
M  V30 12953 C 1257.44 2.97968 2.03094 0
M  V30 12954 O 1256.55 2.70541 3.11257 0
M  V30 12955 H 1255.89 0.588576 0.307368 0
M  V30 12956 H 1258.42 2.01607 0.348703 0
M  V30 12957 H 1258.43 3.25722 2.45702 0
M  V30 12958 H 1257.1 3.88314 1.48948 0
M  V30 12959 H 1255.68 2.53781 2.7322 0
M  V30 12960 N 1257.86 -0.571685 1.46866 0
M  V30 12961 C 1259.27 -1.15383 1.46778 0
M  V30 12962 C 1259.63 -1.95023 0.214576 0
M  V30 12963 O 1258.75 -2.05386 -0.681574 0
M  V30 12964 C 1259.35 -2.09915 2.65935 0
M  V30 12965 C 1257.9 -2.6343 2.68852 0
M  V30 12966 C 1257.05 -1.39517 2.39646 0
M  V30 12967 H 1260 -0.359036 1.54585 0
M  V30 12968 H 1260.02 -2.9356 2.42081 0
M  V30 12969 H 1259.54 -1.51923 3.57129 0
M  V30 12970 H 1257.64 -3.2526 1.8176 0
M  V30 12971 H 1257.75 -3.05412 3.69134 0
M  V30 12972 H 1256.11 -1.69702 1.8993 0
M  V30 12973 H 1256.9 -0.833399 3.33031 0
M  V30 12974 N 1259.34 -1.34755 -0.817236 0
M  V30 12975 C 1260.3 -1.26687 -1.91006 0
M  V30 12976 C 1261.3 -0.180745 -1.59781 0
M  V30 12977 O 1262.49 -0.433748 -1.68714 0
M  V30 12978 C 1259.63 -0.957293 -3.27183 0
M  V30 12979 H 1260.82 -2.23846 -1.99582 0
M  V30 12980 H 1258.37 -1.19125 -1.01187 0
M  V30 12981 H 1259.11 0.0108917 -3.24298 0
M  V30 12982 H 1258.89 -1.74297 -3.5123 0
M  V30 12983 H 1260.38 -0.926161 -4.072 0
M  V30 12984 N 1260.82 1.03812 -1.18578 0
M  V30 12985 C 1262.23 1.58509 -0.986496 0
M  V30 12986 C 1262.58 1.90655 0.463136 0
M  V30 12987 O 1261.71 1.69847 1.34093 0
M  V30 12988 C 1262.3 2.88 -1.78441 0
M  V30 12989 C 1260.86 3.39304 -1.6294 0
M  V30 12990 C 1260.01 2.12857 -1.77727 0
M  V30 12991 H 1262.96 0.864528 -1.33085 0
M  V30 12992 H 1262.98 3.58502 -1.27501 0
M  V30 12993 H 1262.49 2.64572 -2.83942 0
M  V30 12994 H 1260.59 3.6774 -0.599864 0
M  V30 12995 H 1260.71 4.12959 -2.42902 0
M  V30 12996 H 1259.07 2.24285 -1.20699 0
M  V30 12997 H 1259.85 1.91882 -2.84669 0
M  V30 12998 N 1262.3 0.988223 1.22768 0
M  V30 12999 C 1263.52 0.679426 1.95955 0
M  V30 13000 C 1263.95 -0.748483 1.72567 0
M  V30 13001 O 1263.31 -1.51097 1.00197 0
M  V30 13002 C 1263.35 0.985284 3.46878 0
M  V30 13003 O 1262.46 0.0814607 4.1232 0
M  V30 13004 H 1261.8 0.254749 0.613188 0
M  V30 13005 H 1264.33 1.32393 1.55991 0
M  V30 13006 H 1264.34 0.925198 3.97371 0
M  V30 13007 H 1263.01 2.02581 3.63227 0
M  V30 13008 H 1261.59 0.196629 3.72381 0
M  V30 13009 N 1263.78 -1.38018 0.760839 0
M  V30 13010 C 1264.72 -2.30387 0.13796 0
M  V30 13011 C 1265.69 -1.50548 -0.701754 0
M  V30 13012 O 1266.88 -1.79154 -0.656381 0
M  V30 13013 C 1264.02 -3.36993 -0.743642 0
M  V30 13014 C 1263.13 -4.31856 0.111489 0
M  V30 13015 C 1262.27 -5.25534 -0.773796 0
M  V30 13016 C 1261.3 -6.12042 0.0845311 0
M  V30 13017 N 1260.44 -6.97995 -0.758118 0
M  V30 13018 H 1265.28 -2.83077 0.931212 0
M  V30 13019 H 1262.82 -1.39361 0.470833 0
M  V30 13020 H 1264.78 -3.97417 -1.26948 0
M  V30 13021 H 1263.41 -2.85695 -1.50261 0
M  V30 13022 H 1262.46 -3.72832 0.755031 0
M  V30 13023 H 1263.77 -4.92758 0.774042 0
M  V30 13024 H 1262.92 -5.9111 -1.36653 0
M  V30 13025 H 1261.66 -4.65017 -1.47006 0
M  V30 13026 H 1260.67 -5.45455 0.689883 0
M  V30 13027 H 1261.89 -6.74629 0.777966 0
M  V30 13028 H 1259.84 -6.40018 -1.4392 0
M  V30 13029 H 1259.76 -7.55846 -0.152623 0
M  V30 13030 H 1261.02 -7.67973 -1.33559 0
M  V30 13031 N 1265.25 -0.510493 -1.49103 0
M  V30 13032 C 1266.48 0.0271718 -2.06882 0
M  V30 13033 C 1266.9 1.2995 -1.36962 0
M  V30 13034 O 1266.25 1.76842 -0.450916 0
M  V30 13035 C 1266.3 0.274956 -3.60453 0
M  V30 13036 O 1266.03 -0.946941 -4.27744 0
M  V30 13037 C 1267.53 0.855197 -4.34973 0
M  V30 13038 H 1264.75 -0.024732 -0.670544 0
M  V30 13039 H 1267.29 -0.710567 -1.91758 0
M  V30 13040 H 1265.45 0.962696 -3.75248 0
M  V30 13041 H 1265.86 -0.715627 -5.19595 0
M  V30 13042 H 1267.33 0.978103 -5.43265 0
M  V30 13043 H 1267.81 1.85535 -3.98087 0
M  V30 13044 H 1268.42 0.204632 -4.24807 0
M  V30 13045 N 1266.73 1.55688 -0.24474 0
M  V30 13046 C 1267.66 2.24272 0.64995 0
M  V30 13047 C 1268.64 1.22226 1.183 0
M  V30 13048 O 1269.83 1.50873 1.22274 0
M  V30 13049 C 1266.96 2.94053 1.84798 0
M  V30 13050 C 1265.91 4.02769 1.44779 0
M  V30 13051 C 1265.24 4.59965 2.72647 0
M  V30 13052 C 1266.54 5.18601 0.62047 0
M  V30 13053 H 1268.23 2.99298 0.0780654 0
M  V30 13054 H 1265.78 1.43955 0.0361069 0
M  V30 13055 H 1267.73 3.40732 2.47951 0
M  V30 13056 H 1266.45 2.16511 2.44521 0
M  V30 13057 H 1265.11 3.56856 0.839609 0
M  V30 13058 H 1264.76 3.79126 3.30564 0
M  V30 13059 H 1264.46 5.33352 2.46596 0
M  V30 13060 H 1265.99 5.09376 3.36703 0
M  V30 13061 H 1267.4 5.61519 1.15625 0
M  V30 13062 H 1265.8 5.98364 0.456097 0
M  V30 13063 H 1266.87 4.83503 -0.367798 0
M  V30 13064 N 1268.21 -0.0283989 1.57574 0
M  V30 13065 C 1269.14 -1.06191 2.01987 0
M  V30 13066 C 1270.12 -1.35131 0.90434 0
M  V30 13067 O 1271.3 -1.47777 1.17023 0
M  V30 13068 C 1268.43 -2.39646 2.39348 0
M  V30 13069 C 1267.48 -2.26558 3.6135 0
M  V30 13070 S 1268.31 -1.61839 5.10459 0
M  V30 13071 C 1269.47 -2.96783 5.51063 0
M  V30 13072 H 1269.7 -0.683625 2.89333 0
M  V30 13073 H 1267.23 -0.238394 1.52548 0
M  V30 13074 H 1269.19 -3.16394 2.61544 0
M  V30 13075 H 1267.85 -2.74622 1.52452 0
M  V30 13076 H 1267.04 -3.25079 3.85149 0
M  V30 13077 H 1266.65 -1.57954 3.39008 0
M  V30 13078 H 1268.94 -3.93111 5.51788 0
M  V30 13079 H 1269.88 -2.77716 6.51367 0
M  V30 13080 H 1270.29 -2.99386 4.78569 0
M  V30 13081 N 1269.69 -1.54705 -0.300681 0
M  V30 13082 C 1270.96 -1.6468 -1.05546 0
M  V30 13083 C 1271.34 -0.495292 -2.05207 0
M  V30 13084 O 1270.69 0.507944 -2.22783 0
M  V30 13085 C 1270.9 -3.02702 -1.73703 0
M  V30 13086 C 1272.25 -3.59527 -2.25888 0
M  V30 13087 O 1273.27 -3.05156 -1.83735 0
M  V30 13088 O 1272.13 -4.54727 -3.03126 0
M  V30 13089 H 1269.23 -0.667769 -0.487867 0
M  V30 13090 H 1271.77 -1.6705 -0.298743 0
M  V30 13091 H 1270.55 -3.7795 -1.01338 0
M  V30 13092 H 1270.17 -3.0411 -2.5613 0
M  V30 13093 N 1271.17 0.563888 -1.47167 0
M  V30 13094 C 1272.11 1.69254 -1.59549 0
M  V30 13095 C 1273.11 1.62948 -0.463078 0
M  V30 13096 O 1274.31 1.68214 -0.640639 0
M  V30 13097 H 1270.69 0.559925 -0.501984 0
M  V30 13098 H 1272.66 1.55946 -2.54408 0
M  V30 13099 C 1271.41 3.0762 -1.62066 0
M  V30 13100 H 1270.73 3.13151 -2.48549 0
M  V30 13101 H 1272.17 3.863 -1.74781 0
M  V30 13102 C 1270.63 3.35048 -0.352721 0
M  V30 13103 O 1271.16 3.9793 0.549053 0
M  V30 13104 N 1269.37 2.8965 -0.234805 0
M  V30 13105 H 1268.91 2.38657 -0.969561 0
M  V30 13106 H 1268.87 3.08373 0.61263 0
M  V30 13107 N 1272.64 1.35187 0.810078 0
M  V30 13108 C 1273.87 1.31181 1.59609 0
M  V30 13109 C 1274.28 -0.113556 1.88859 0
M  V30 13110 O 1273.63 -1.07491 1.48968 0
M  V30 13111 C 1273.69 2.04749 2.95496 0
M  V30 13112 C 1273.35 3.53952 2.89079 0
M  V30 13113 C 1274.35 4.48612 2.6276 0
M  V30 13114 C 1272.03 3.96551 3.08306 0
M  V30 13115 C 1274.03 5.83846 2.5574 0
M  V30 13116 C 1271.71 5.31881 3.00909 0
M  V30 13117 C 1272.71 6.2534 2.74661 0
M  V30 13118 O 1272.4 7.58188 2.6722 0
M  V30 13119 H 1272.13 0.452285 0.502408 0
M  V30 13120 H 1274.69 1.78571 1.01497 0
M  V30 13121 H 1272.92 1.51992 3.55577 0
M  V30 13122 H 1274.61 1.93866 3.5661 0
M  V30 13123 H 1275.37 4.1702 2.47628 0
M  V30 13124 H 1271.25 3.24194 3.27749 0
M  V30 13125 H 1274.79 6.56765 2.35172 0
M  V30 13126 H 1270.69 5.63088 3.15598 0
M  V30 13127 H 1271.46 7.68073 2.82853 0
M  V30 13128 N 1274.12 -1.03182 1.19127 0
M  V30 13129 C 1275.03 -2.14875 0.94159 0
M  V30 13130 C 1276.05 -1.73727 -0.0973872 0
M  V30 13131 O 1277.22 -2.01214 0.0865775 0
M  V30 13132 C 1274.29 -3.43356 0.480366 0
M  V30 13133 C 1273.35 -3.98835 1.58838 0
M  V30 13134 C 1272.58 -5.21183 1.14907 0
M  V30 13135 O 1272.81 -5.70399 0.0114141 0
M  V30 13136 O 1271.74 -5.69423 1.95042 0
M  V30 13137 H 1275.57 -2.38799 1.8764 0
M  V30 13138 H 1273.15 -1.13299 0.973841 0
M  V30 13139 H 1275.03 -4.20763 0.231658 0
M  V30 13140 H 1273.71 -3.20884 -0.426041 0
M  V30 13141 H 1272.62 -3.22776 1.8912 0
M  V30 13142 H 1273.95 -4.25665 2.47123 0
M  V30 13143 N 1275.6 -0.99472 -1.22242 0
M  V30 13144 C 1276.85 -0.672596 -1.91322 0
M  V30 13145 C 1277.18 0.793542 -1.77247 0
M  V30 13146 O 1276.45 1.57407 -1.14251 0
M  V30 13147 C 1276.74 -1.08155 -3.43474 0
M  V30 13148 C 1276.59 -2.60638 -3.6659 0
M  V30 13149 C 1277.91 -0.636161 -4.35478 0
M  V30 13150 H 1275.03 -0.24582 -0.694796 0
M  V30 13151 H 1277.67 -1.23857 -1.44082 0
M  V30 13152 H 1275.82 -0.599987 -3.83839 0
M  V30 13153 H 1277.49 -3.16479 -3.35617 0
M  V30 13154 H 1275.74 -3.02624 -3.10808 0
M  V30 13155 H 1276.41 -2.84304 -4.73155 0
M  V30 13156 H 1278.88 -1.04982 -4.02639 0
M  V30 13157 H 1277.76 -0.950584 -5.40606 0
M  V30 13158 H 1278.02 0.4631 -4.39668 0
M  V30 13159 N 1277.08 1.37613 -0.768148 0
M  V30 13160 C 1278.3 2.04579 -0.340892 0
M  V30 13161 C 1278.73 1.57556 1.02751 0
M  V30 13162 O 1278.09 0.734151 1.65771 0
M  V30 13163 C 1278.13 3.58495 -0.389099 0
M  V30 13164 O 1277.24 4.07838 0.611741 0
M  V30 13165 H 1276.58 0.647246 -0.148216 0
M  V30 13166 H 1279.11 1.75999 -1.04333 0
M  V30 13167 H 1279.12 4.07263 -0.245116 0
M  V30 13168 H 1277.79 3.92076 -1.38742 0
M  V30 13169 H 1276.37 3.70399 0.431173 0
M  V30 13170 N 1278.56 0.518393 1.4883 0
M  V30 13171 C 1279.8 -0.019866 2.0209 0
M  V30 13172 C 1280.13 -1.35863 1.3988 0
M  V30 13173 O 1279.4 -1.87722 0.560117 0
M  V30 13174 H 1277.98 -0.0103306 0.746929 0
M  V30 13175 H 1280.64 0.679591 1.82668 0
M  V30 13176 H 1279.73 -0.136749 3.118 0
M  V30 13177 N 1280.03 -1.55556 0.252993 0
M  V30 13178 C 1281.28 -1.98697 -0.369319 0
M  V30 13179 C 1281.6 -1.14256 -1.58021 0
M  V30 13180 O 1280.87 -0.226779 -1.94583 0
M  V30 13181 H 1279.45 -0.733869 -0.139444 0
M  V30 13182 H 1282.12 -1.91673 0.353197 0
M  V30 13183 H 1281.21 -3.04728 -0.674312 0
M  V30 13184 N 1281.51 0.0200419 -1.57587 0
M  V30 13185 C 1282.74 0.720556 -1.93947 0
M  V30 13186 C 1283.16 1.68407 -0.853499 0
M  V30 13187 O 1282.51 1.81713 0.169337 0
M  V30 13188 C 1282.56 1.46982 -3.3027 0
M  V30 13189 O 1282.28 0.544971 -4.34697 0
M  V30 13190 C 1283.79 2.26667 -3.80968 0
M  V30 13191 H 1281.01 0.201956 -0.639887 0
M  V30 13192 H 1283.55 -0.0251175 -2.04485 0
M  V30 13193 H 1281.7 2.16729 -3.21103 0
M  V30 13194 H 1282.12 1.07139 -5.13441 0
M  V30 13195 H 1283.59 2.74621 -4.78839 0
M  V30 13196 H 1284.07 3.0848 -3.12629 0
M  V30 13197 H 1284.68 1.61976 -3.93248 0
M  V30 13198 N 1282.99 1.54862 0.292472 0
M  V30 13199 C 1284.24 1.74807 1.02813 0
M  V30 13200 C 1284.57 0.536935 1.8663 0
M  V30 13201 O 1283.84 -0.465854 1.88839 0
M  V30 13202 C 1284.13 3.04202 1.927 0
M  V30 13203 C 1283.98 4.35631 1.12006 0
M  V30 13204 C 1285.3 3.29514 2.91734 0
M  V30 13205 H 1282.42 0.636015 0.372362 0
M  V30 13206 H 1285.06 1.87583 0.302069 0
M  V30 13207 H 1283.21 2.9344 2.54608 0
M  V30 13208 H 1284.88 4.58323 0.52319 0
M  V30 13209 H 1283.13 4.31733 0.42298 0
M  V30 13210 H 1283.8 5.22454 1.78172 0
M  V30 13211 H 1286.27 3.39941 2.39957 0
M  V30 13212 H 1285.15 4.21352 3.51786 0
M  V30 13213 H 1285.41 2.48216 3.65843 0
M  V30 13214 N 1284.47 -0.556076 1.47464 0
M  V30 13215 C 1285.88 -0.882115 1.33007 0
M  V30 13216 C 1286.08 -1.9892 0.321407 0
M  V30 13217 O 1285.14 -2.51088 -0.266668 0
M  V30 13218 C 1286.45 -1.27428 2.72365 0
M  V30 13219 C 1288 -1.38564 2.80658 0
M  V30 13220 C 1288.48 -1.81136 4.20659 0
M  V30 13221 N 1289.97 -1.88284 4.23206 0
M  V30 13222 C 1290.7 -2.22555 5.28447 0
M  V30 13223 N 1290.2 -2.55432 6.43993 0
M  V30 13224 N 1291.99 -2.23339 5.15826 0
M  V30 13225 H 1284.14 0.17481 2.11679 0
M  V30 13226 H 1286.41 0.0155421 0.947873 0
M  V30 13227 H 1286.11 -0.53463 3.47613 0
M  V30 13228 H 1285.99 -2.23019 3.04208 0
M  V30 13229 H 1288.37 -2.1161 2.05682 0
M  V30 13230 H 1288.45 -0.411588 2.52467 0
M  V30 13231 H 1288.1 -1.08659 4.96141 0
M  V30 13232 H 1288.03 -2.79546 4.46275 0
M  V30 13233 H 1290.52 -1.65259 3.3985 0
M  V30 13234 H 1290.83 -2.80612 7.20053 0
M  V30 13235 H 1289.18 -2.5301 6.47311 0
M  V30 13236 H 1292.37 -1.97094 4.24584 0
M  V30 13237 H 1292.54 -2.49717 5.97951 0
M  V30 13238 N 1285.95 -1.35615 -0.802897 0
M  V30 13239 C 1286.86 -1.3096 -1.94645 0
M  V30 13240 C 1287.87 -0.213909 -1.7268 0
M  V30 13241 O 1289.05 -0.443932 -1.96446 0
M  V30 13242 C 1286.11 -1.08483 -3.2929 0
M  V30 13243 C 1285.18 -2.27401 -3.64126 0
M  V30 13244 C 1284.41 -2.05987 -4.92347 0
M  V30 13245 O 1284.63 -1.02819 -5.61057 0
M  V30 13246 O 1283.57 -2.93439 -5.25526 0
M  V30 13247 H 1287.39 -2.27209 -2.01519 0
M  V30 13248 H 1284.98 -1.16024 -0.941214 0
M  V30 13249 H 1286.86 -0.978118 -4.09891 0
M  V30 13250 H 1285.53 -0.152885 -3.23339 0
M  V30 13251 H 1284.44 -2.43638 -2.83886 0
M  V30 13252 H 1285.77 -3.19055 -3.74786 0
M  V30 13253 N 1287.43 1.02549 -1.19673 0
M  V30 13254 C 1288.36 2.12794 -0.961289 0
M  V30 13255 C 1289.34 1.69766 0.106575 0
M  V30 13256 O 1290.52 1.94138 -0.0491358 0
M  V30 13257 C 1287.65 3.4364 -0.502868 0
M  V30 13258 C 1286.61 4.00367 -1.51296 0
M  V30 13259 C 1285.93 5.26874 -0.911491 0
M  V30 13260 C 1287.23 4.34782 -2.89416 0
M  V30 13261 H 1288.93 2.32748 -1.88331 0
M  V30 13262 H 1286.47 1.11852 -0.906922 0
M  V30 13263 H 1288.42 4.20141 -0.325436 0
M  V30 13264 H 1287.15 3.23418 0.454764 0
M  V30 13265 H 1285.81 3.25964 -1.67759 0
M  V30 13266 H 1285.46 5.02971 0.0537982 0
M  V30 13267 H 1285.16 5.65791 -1.58602 0
M  V30 13268 H 1286.68 6.06039 -0.74493 0
M  V30 13269 H 1288.09 5.02207 -2.76516 0
M  V30 13270 H 1286.49 4.8479 -3.53693 0
M  V30 13271 H 1287.56 3.43935 -3.41814 0
M  V30 13272 N 1288.9 1.00119 1.21713 0
M  V30 13273 C 1290.15 0.682733 1.90962 0
M  V30 13274 C 1290.48 -0.784131 1.77665 0
M  V30 13275 O 1289.76 -1.56799 1.15084 0
M  V30 13276 C 1290.04 1.09975 3.42896 0
M  V30 13277 C 1289.89 2.62578 3.65202 0
M  V30 13278 C 1291.21 0.659247 4.35134 0
M  V30 13279 H 1288.33 0.249501 0.693483 0
M  V30 13280 H 1290.97 1.24619 1.43423 0
M  V30 13281 H 1289.12 0.620334 3.83515 0
M  V30 13282 H 1290.8 3.18254 3.33934 0
M  V30 13283 H 1289.04 3.04268 3.09198 0
M  V30 13284 H 1289.71 2.86809 4.7164 0
M  V30 13285 H 1292.19 1.07116 4.02076 0
M  V30 13286 H 1291.06 0.979241 5.40095 0
M  V30 13287 H 1291.32 -0.439777 4.39907 0
M  V30 13288 N 1290.38 -1.37203 0.775435 0
M  V30 13289 C 1291.29 -2.34019 0.165062 0
M  V30 13290 C 1292.31 -1.6036 -0.675316 0
M  V30 13291 O 1293.48 -1.9243 -0.594375 0
M  V30 13292 C 1290.55 -3.3954 -0.700957 0
M  V30 13293 C 1289.61 -4.29015 0.156304 0
M  V30 13294 C 1288.84 -5.29497 -0.668476 0
M  V30 13295 O 1289.07 -5.37636 -1.90535 0
M  V30 13296 O 1288 -6.01852 -0.0757351 0
M  V30 13297 H 1291.83 -2.87955 0.965184 0
M  V30 13298 H 1289.41 -1.39429 0.536654 0
M  V30 13299 H 1291.29 -4.04094 -1.19524 0
M  V30 13300 H 1289.97 -2.87926 -1.4792 0
M  V30 13301 H 1288.87 -3.67549 0.69703 0
M  V30 13302 H 1290.21 -4.83944 0.897725 0
M  V30 13303 N 1291.86 -0.526279 -1.48553 0
M  V30 13304 C 1292.82 0.227739 -2.28066 0
M  V30 13305 C 1293.82 0.871146 -1.35158 0
M  V30 13306 O 1295.01 0.731769 -1.58085 0
M  V30 13307 C 1292.14 1.32918 -3.1392 0
M  V30 13308 H 1293.34 -0.470313 -2.96189 0
M  V30 13309 H 1290.89 -0.282089 -1.53733 0
M  V30 13310 H 1291.63 2.0606 -2.50419 0
M  V30 13311 H 1291.41 0.872991 -3.82258 0
M  V30 13312 H 1292.9 1.85964 -3.73908 0
M  V30 13313 N 1293.34 1.5542 -0.261239 0
M  V30 13314 C 1294.27 2.24949 0.626126 0
M  V30 13315 C 1295.25 1.23474 1.16997 0
M  V30 13316 O 1296.43 1.52161 1.20667 0
M  V30 13317 C 1293.56 2.95996 1.81669 0
M  V30 13318 C 1292.52 4.04282 1.40499 0
M  V30 13319 C 1291.84 4.62831 2.67753 0
M  V30 13320 C 1293.14 5.1923 0.56543 0
M  V30 13321 H 1294.84 2.99364 0.0463164 0
M  V30 13322 H 1292.38 1.43985 0.0208366 0
M  V30 13323 H 1294.34 3.43343 2.44323 0
M  V30 13324 H 1293.06 2.19093 2.42211 0
M  V30 13325 H 1291.72 3.57726 0.801712 0
M  V30 13326 H 1291.37 3.82611 3.26524 0
M  V30 13327 H 1291.07 5.35938 2.40925 0
M  V30 13328 H 1292.59 5.12918 3.31281 0
M  V30 13329 H 1294.01 5.62714 1.09663 0
M  V30 13330 H 1292.4 5.98814 0.392607 0
M  V30 13331 H 1293.47 4.83086 -0.419059 0
M  V30 13332 N 1294.82 -0.0116844 1.57596 0
M  V30 13333 C 1296.23 -0.367602 1.55309 0
M  V30 13334 C 1296.43 -1.75524 0.98962 0
M  V30 13335 O 1295.49 -2.44813 0.618289 0
M  V30 13336 C 1296.8 -0.253532 2.99629 0
M  V30 13337 C 1298.35 -0.329335 3.11263 0
M  V30 13338 C 1298.82 -0.24452 4.57347 0
M  V30 13339 N 1300.31 -0.302782 4.62209 0
M  V30 13340 C 1301.05 -0.260315 5.72809 0
M  V30 13341 N 1300.55 -0.169124 6.92594 0
M  V30 13342 N 1302.34 -0.311323 5.61237 0
M  V30 13343 H 1294.49 0.896204 1.92567 0
M  V30 13344 H 1296.75 0.342445 0.883988 0
M  V30 13345 H 1296.46 0.70074 3.44648 0
M  V30 13346 H 1296.33 -1.04029 3.62571 0
M  V30 13347 H 1298.72 -1.27405 2.66181 0
M  V30 13348 H 1298.8 0.487084 2.5112 0
M  V30 13349 H 1298.44 0.696597 5.031 0
M  V30 13350 H 1298.37 -1.07927 5.15421 0
M  V30 13351 H 1300.87 -0.375067 3.76034 0
M  V30 13352 H 1301.18 -0.142296 7.72669 0
M  V30 13353 H 1299.52 -0.134919 6.94869 0
M  V30 13354 H 1302.71 -0.380678 4.6655 0
M  V30 13355 H 1302.89 -0.274761 6.47417 0
M  V30 13356 N 1296.29 -1.55015 -0.284256 0
M  V30 13357 C 1297.23 -1.83517 -1.3731 0
M  V30 13358 C 1298.24 -0.719009 -1.46062 0
M  V30 13359 O 1299.43 -0.996719 -1.4808 0
M  V30 13360 C 1296.53 -1.97309 -2.7554 0
M  V30 13361 C 1295.7 -3.2787 -2.89517 0
M  V30 13362 C 1294.76 -3.31868 -4.08351 0
M  V30 13363 O 1293.79 -4.05309 -3.99642 0
M  V30 13364 N 1294.99 -2.5846 -5.19787 0
M  V30 13365 H 1297.75 -2.77495 -1.1321 0
M  V30 13366 H 1295.31 -1.54795 -0.474359 0
M  V30 13367 H 1297.31 -1.97367 -3.53311 0
M  V30 13368 H 1295.88 -1.10249 -2.92513 0
M  V30 13369 H 1295.1 -3.40445 -1.98722 0
M  V30 13370 H 1296.38 -4.13996 -2.95779 0
M  V30 13371 H 1295.78 -1.98455 -5.29747 0
M  V30 13372 H 1294.34 -2.64253 -5.9583 0
M  V30 13373 N 1297.77 0.548248 -1.47757 0
M  V30 13374 C 1298.7 1.6705 -1.55466 0
M  V30 13375 C 1299.68 1.57444 -0.406208 0
M  V30 13376 O 1300.87 1.78176 -0.615268 0
M  V30 13377 C 1297.99 3.0535 -1.46558 0
M  V30 13378 C 1297.04 3.33372 -2.66017 0
M  V30 13379 S 1297.87 3.21643 -4.28143 0
M  V30 13380 C 1299.03 4.62421 -4.21803 0
M  V30 13381 H 1299.26 1.60258 -2.50409 0
M  V30 13382 H 1296.79 0.72978 -1.36065 0
M  V30 13383 H 1298.75 3.85118 -1.42106 0
M  V30 13384 H 1297.41 3.09599 -0.529838 0
M  V30 13385 H 1296.61 4.34218 -2.55873 0
M  V30 13386 H 1296.21 2.6124 -2.67638 0
M  V30 13387 H 1298.5 5.53561 -3.9061 0
M  V30 13388 H 1299.44 4.77621 -5.22766 0
M  V30 13389 H 1299.85 4.40887 -3.52532 0
M  V30 13390 N 1299.25 1.36039 0.795694 0
M  V30 13391 C 1300.5 1.29663 1.55023 0
M  V30 13392 C 1300.82 -0.125588 1.94595 0
M  V30 13393 O 1300.09 -1.06447 1.64456 0
M  V30 13394 H 1298.67 0.476962 0.574906 0
M  V30 13395 H 1301.33 1.70265 0.948471 0
M  V30 13396 H 1300.43 1.91982 2.46068 0
M  V30 13397 N 1300.73 -1.01913 1.20215 0
M  V30 13398 C 1301.96 -1.78817 1.0348 0
M  V30 13399 C 1302.37 -1.84499 -0.419152 0
M  V30 13400 O 1301.71 -1.29506 -1.30284 0
M  V30 13401 C 1301.77 -3.24858 1.53973 0
M  V30 13402 C 1301.44 -3.42788 3.02234 0
M  V30 13403 C 1302.43 -3.32213 3.99914 0
M  V30 13404 C 1300.12 -3.68687 3.41138 0
M  V30 13405 C 1302.11 -3.47276 5.34489 0
M  V30 13406 C 1299.8 -3.83394 4.7587 0
M  V30 13407 C 1300.8 -3.72693 5.72354 0
M  V30 13408 O 1300.48 -3.86953 7.04643 0
M  V30 13409 H 1300.22 -0.569268 0.364568 0
M  V30 13410 H 1302.77 -1.29184 1.59689 0
M  V30 13411 H 1301 -3.7556 0.921478 0
M  V30 13412 H 1302.69 -3.83388 1.33297 0
M  V30 13413 H 1303.46 -3.12145 3.71202 0
M  V30 13414 H 1299.33 -3.76104 2.66583 0
M  V30 13415 H 1302.88 -3.3884 6.09782 0
M  V30 13416 H 1298.78 -4.02962 5.04273 0
M  V30 13417 H 1299.54 -4.03986 7.11855 0
M  V30 13418 N 1302.21 -1.00763 -1.2118 0
M  V30 13419 C 1303.43 -0.710746 -1.94309 0
M  V30 13420 C 1303.85 0.727103 -1.74237 0
M  V30 13421 O 1303.21 1.49223 -1.05065 0
M  V30 13422 C 1303.26 -1.02562 -3.46646 0
M  V30 13423 O 1302.98 -2.40699 -3.66054 0
M  V30 13424 C 1304.48 -0.748517 -4.36935 0
M  V30 13425 H 1301.7 -0.26171 -0.617858 0
M  V30 13426 H 1304.24 -1.34639 -1.53924 0
M  V30 13427 H 1302.4 -0.435537 -3.84944 0
M  V30 13428 H 1302.81 -2.51764 -4.60125 0
M  V30 13429 H 1304.29 -1.01899 -5.42513 0
M  V30 13430 H 1304.76 0.317423 -4.38051 0
M  V30 13431 H 1305.37 -1.32033 -4.04286 0
M  V30 13432 N 1303.68 1.3679 -0.7827 0
M  V30 13433 C 1304.59 2.33928 -0.17747 0
M  V30 13434 C 1305.61 1.60716 0.666802 0
M  V30 13435 O 1306.79 1.92742 0.584162 0
M  V30 13436 C 1303.85 3.39907 0.68294 0
M  V30 13437 C 1302.91 4.28926 -0.179053 0
M  V30 13438 C 1302.15 5.29844 0.640386 0
M  V30 13439 O 1302.37 5.38639 1.87681 0
M  V30 13440 O 1301.3 6.01884 0.0438164 0
M  V30 13441 H 1305.13 2.87439 -0.980441 0
M  V30 13442 H 1302.71 1.39142 -0.54404 0
M  V30 13443 H 1304.6 4.04722 1.17379 0
M  V30 13444 H 1303.27 2.88706 1.46391 0
M  V30 13445 H 1302.18 3.67174 -0.716512 0
M  V30 13446 H 1303.51 4.83461 -0.923377 0
M  V30 13447 N 1305.16 0.53415 1.48272 0
M  V30 13448 C 1306.13 -0.215641 2.28183 0
M  V30 13449 C 1307.13 -0.863966 1.35618 0
M  V30 13450 O 1308.32 -0.723375 1.58471 0
M  V30 13451 C 1305.45 -1.31251 3.1462 0
M  V30 13452 H 1306.64 0.486014 2.95936 0
M  V30 13453 H 1304.19 0.290237 1.53582 0
M  V30 13454 H 1304.93 -2.04729 2.51508 0
M  V30 13455 H 1304.71 -0.852706 3.82716 0
M  V30 13456 H 1306.2 -1.83978 3.74889 0
M  V30 13457 N 1306.64 -1.55279 0.269478 0
M  V30 13458 C 1307.89 -1.98649 -0.349522 0
M  V30 13459 C 1308.2 -1.16125 -1.57399 0
M  V30 13460 O 1309.41 -1.49612 -2.26558 0
M  V30 13461 C 1307.86 -3.53547 -0.673224 0
M  V30 13462 C 1307.47 -4.44841 0.531119 0
M  V30 13463 C 1309.22 -4.05519 -1.25516 0
M  V30 13464 C 1307.12 -5.91119 0.182317 0
M  V30 13465 H 1306.05 -0.74193 -0.13437 0
M  V30 13466 H 1308.7 -1.79664 0.373246 0
M  V30 13467 H 1307.09 -3.68311 -1.45474 0
M  V30 13468 H 1308.26 -4.41843 1.3081 0
M  V30 13469 H 1306.58 -4.03472 1.02952 0
M  V30 13470 H 1309.17 -5.12347 -1.52984 0
M  V30 13471 H 1309.52 -3.54215 -2.18718 0
M  V30 13472 H 1310.05 -3.94172 -0.536059 0
M  V30 13473 H 1306.79 -6.46507 1.08206 0
M  V30 13474 H 1306.31 -5.97199 -0.558008 0
M  V30 13475 H 1307.99 -6.466 -0.227484 0
M  V30 13476 N 1308.12 0.00332656 -1.576 0
M  V30 13477 C 1309.03 1.01221 -2.1164 0
M  V30 13478 C 1310.04 1.37918 -1.06088 0
M  V30 13479 O 1311.22 1.46717 -1.37971 0
M  V30 13480 C 1308.29 2.28638 -2.60626 0
M  V30 13481 C 1307.35 1.98284 -3.80765 0
M  V30 13482 C 1306.58 3.19626 -4.27405 0
M  V30 13483 O 1306.8 4.31196 -3.73398 0
M  V30 13484 O 1305.74 3.03819 -5.19594 0
M  V30 13485 H 1309.56 0.582839 -2.98055 0
M  V30 13486 H 1307.15 0.221947 -1.47742 0
M  V30 13487 H 1309.03 3.03498 -2.92347 0
M  V30 13488 H 1307.7 2.70819 -1.7731 0
M  V30 13489 H 1306.61 1.2091 -3.54022 0
M  V30 13490 H 1307.94 1.60942 -4.65144 0
M  V30 13491 N 1309.6 1.55164 0.276031 0
M  V30 13492 C 1310.84 1.75887 1.00953 0
M  V30 13493 C 1311.18 0.5567 1.8605 0
M  V30 13494 O 1310.45 -0.445799 1.89322 0
M  V30 13495 C 1310.73 3.06228 1.89463 0
M  V30 13496 C 1310.59 4.36795 1.07379 0
M  V30 13497 C 1311.91 3.32589 2.88223 0
M  V30 13498 H 1309.02 0.639929 0.365596 0
M  V30 13499 H 1311.67 1.87893 0.282156 0
M  V30 13500 H 1309.82 2.96124 2.51481 0
M  V30 13501 H 1311.49 4.58853 0.474549 0
M  V30 13502 H 1309.73 4.32157 0.377165 0
M  V30 13503 H 1310.4 5.24315 1.72621 0
M  V30 13504 H 1312.88 3.42467 2.36338 0
M  V30 13505 H 1311.75 4.2506 3.47297 0
M  V30 13506 H 1312.02 2.52083 3.6319 0
M  V30 13507 N 1311.07 -0.540404 1.48045 0
M  V30 13508 C 1312.32 -1.2932 1.54787 0
M  V30 13509 C 1312.64 -1.94335 0.222109 0
M  V30 13510 O 1313.84 -2.70982 0.167675 0
M  V30 13511 C 1312.3 -2.34594 2.72935 0
M  V30 13512 C 1311.91 -1.75696 4.1211 0
M  V30 13513 C 1313.65 -3.10949 2.88982 0
M  V30 13514 C 1311.56 -2.78849 5.21534 0
M  V30 13515 H 1310.49 -0.486315 0.576206 0
M  V30 13516 H 1313.14 -0.571998 1.74357 0
M  V30 13517 H 1311.52 -3.09704 2.46778 0
M  V30 13518 H 1312.69 -1.06845 4.48242 0
M  V30 13519 H 1311.01 -1.11869 4.01091 0
M  V30 13520 H 1313.61 -3.88012 3.679 0
M  V30 13521 H 1313.95 -3.66173 1.98048 0
M  V30 13522 H 1314.48 -2.42953 3.1499 0
M  V30 13523 H 1311.22 -2.28459 6.144 0
M  V30 13524 H 1310.74 -3.46059 4.89901 0
M  V30 13525 H 1312.42 -3.4203 5.49203 0
M  V30 13526 N 1312.55 -1.36459 -0.788468 0
M  V30 13527 C 1313.48 -1.26727 -1.90979 0
M  V30 13528 C 1314.5 -0.186572 -1.61727 0
M  V30 13529 O 1315.69 -0.441364 -1.72957 0
M  V30 13530 C 1312.79 -0.932838 -3.25809 0
M  V30 13531 C 1311.96 -2.11562 -3.82832 0
M  V30 13532 C 1311.02 -1.75409 -4.96103 0
M  V30 13533 O 1310.04 -2.47508 -5.1257 0
M  V30 13534 N 1311.25 -0.688327 -5.76405 0
M  V30 13535 H 1314.01 -2.2334 -1.99848 0
M  V30 13536 H 1311.57 -1.29865 -0.966784 0
M  V30 13537 H 1313.56 -0.672131 -3.9908 0
M  V30 13538 H 1312.13 -0.0558103 -3.1255 0
M  V30 13539 H 1311.35 -2.53907 -3.01538 0
M  V30 13540 H 1312.64 -2.9058 -4.17661 0
M  V30 13541 H 1312.04 -0.0896854 -5.65629 0
M  V30 13542 H 1310.6 -0.487446 -6.49975 0
M  V30 13543 N 1314.03 1.01274 -1.20754 0
M  V30 13544 C 1314.99 2.08056 -0.961528 0
M  V30 13545 C 1315.99 1.60671 0.0644461 0
M  V30 13546 O 1317.18 1.73349 -0.172022 0
M  V30 13547 C 1314.32 3.37938 -0.448381 0
M  V30 13548 H 1315.51 2.31314 -1.90877 0
M  V30 13549 H 1313.06 1.18133 -1.02344 0
M  V30 13550 H 1313.8 3.20357 0.504144 0
M  V30 13551 H 1313.58 3.73659 -1.18833 0
M  V30 13552 H 1315.07 4.16551 -0.295876 0
M  V30 13553 N 1315.51 1.01404 1.20644 0
M  V30 13554 C 1316.47 0.586941 2.21557 0
M  V30 13555 C 1317.47 -0.341543 1.57131 0
M  V30 13556 O 1318.66 -0.130585 1.7371 0
M  V30 13557 C 1315.79 -0.143248 3.40599 0
M  V30 13558 H 1316.99 1.47964 2.60858 0
M  V30 13559 H 1314.54 0.803551 1.34063 0
M  V30 13560 H 1315.28 -1.05097 3.06798 0
M  V30 13561 H 1315.06 0.523716 3.88587 0
M  V30 13562 H 1316.55 -0.429504 4.15385 0
M  V30 13563 N 1316.99 -1.36373 0.789944 0
M  V30 13564 C 1318.21 -2.04011 0.373396 0
M  V30 13565 C 1318.64 -1.59171 -1.00231 0
M  V30 13566 O 1318 -0.760431 -1.64582 0
M  V30 13567 C 1318.04 -3.5783 0.446083 0
M  V30 13568 O 1317.15 -4.08759 -0.54678 0
M  V30 13569 H 1316.49 -0.644807 0.158495 0
M  V30 13570 H 1319.02 -1.74317 1.0712 0
M  V30 13571 H 1319.03 -4.06822 0.309877 0
M  V30 13572 H 1317.7 -3.89819 1.44962 0
M  V30 13573 H 1316.28 -3.71038 -0.372192 0
M  V30 13574 N 1318.47 -0.542005 -1.47987 0
M  V30 13575 C 1319.69 -0.0146835 -2.07395 0
M  V30 13576 C 1320.12 1.26266 -1.39422 0
M  V30 13577 O 1319.47 1.75259 -0.464118 0
M  V30 13578 C 1319.52 0.179937 -3.60151 0
M  V30 13579 O 1318.63 1.24596 -3.93128 0
M  V30 13580 H 1317.97 -0.0445076 -0.662507 0
M  V30 13581 H 1320.5 -0.753352 -1.90226 0
M  V30 13582 H 1320.51 0.398876 -4.06046 0
M  V30 13583 H 1319.18 -0.753093 -4.09025 0
M  V30 13584 H 1317.76 1.00872 -3.58997 0
M  V30 13585 N 1319.94 1.55134 -0.277709 0
M  V30 13586 C 1321.35 1.85405 0.219543 0
M  V30 13587 C 1321.71 1.19973 1.55245 0
M  V30 13588 O 1320.83 0.488986 2.10803 0
M  V30 13589 C 1321.43 3.36369 0.405127 0
M  V30 13590 C 1319.98 3.66755 0.846609 0
M  V30 13591 C 1319.13 2.77238 -0.0586063 0
M  V30 13592 H 1322.08 1.50637 -0.499422 0
M  V30 13593 H 1322.1 3.59615 1.24329 0
M  V30 13594 H 1321.62 3.83963 -0.565138 0
M  V30 13595 H 1319.72 3.24662 1.82825 0
M  V30 13596 H 1319.83 4.74219 0.682135 0
M  V30 13597 H 1318.19 2.50546 0.458153 0
M  V30 13598 H 1318.98 3.27647 -1.0248 0
M  V30 13599 N 1321.42 0.00503138 1.57599 0
M  V30 13600 C 1322.67 -0.679766 1.91068 0
M  V30 13601 C 1323 -1.73144 0.879486 0
M  V30 13602 O 1322.28 -1.94237 -0.101116 0
M  V30 13603 C 1322.56 -1.3183 3.35101 0
M  V30 13604 C 1322.41 -0.277833 4.48941 0
M  V30 13605 C 1323.73 -2.24308 3.78647 0
M  V30 13606 H 1320.85 -0.245646 0.694857 0
M  V30 13607 H 1323.49 0.057357 1.89913 0
M  V30 13608 H 1321.64 -1.94657 3.36216 0
M  V30 13609 H 1323.31 0.351136 4.59962 0
M  V30 13610 H 1321.56 0.399365 4.31958 0
M  V30 13611 H 1322.23 -0.763759 5.46691 0
M  V30 13612 H 1324.7 -1.71494 3.79116 0
M  V30 13613 H 1323.58 -2.6595 4.80169 0
M  V30 13614 H 1323.84 -3.12427 3.12797 0
M  V30 13615 N 1322.9 -1.55308 -0.267798 0
M  V30 13616 C 1323.85 -1.88544 -1.33115 0
M  V30 13617 C 1324.82 -0.737465 -1.48831 0
M  V30 13618 O 1326 -0.989215 -1.63154 0
M  V30 13619 C 1323.14 -2.1674 -2.68547 0
M  V30 13620 C 1322.25 -3.44234 -2.61011 0
M  V30 13621 C 1321.39 -3.62104 -3.88657 0
M  V30 13622 C 1320.43 -4.83272 -3.75652 0
M  V30 13623 N 1319.57 -4.97772 -4.95144 0
M  V30 13624 H 1324.41 -2.79237 -1.04071 0
M  V30 13625 H 1321.94 -1.38245 -0.502677 0
M  V30 13626 H 1323.9 -2.31088 -3.47353 0
M  V30 13627 H 1322.53 -1.29276 -2.95783 0
M  V30 13628 H 1321.58 -3.3833 -1.73887 0
M  V30 13629 H 1322.89 -4.33177 -2.47303 0
M  V30 13630 H 1322.05 -3.76298 -4.75904 0
M  V30 13631 H 1320.79 -2.71356 -4.05238 0
M  V30 13632 H 1319.79 -4.69076 -2.86788 0
M  V30 13633 H 1321.02 -5.75461 -3.60585 0
M  V30 13634 H 1318.96 -4.09956 -5.12125 0
M  V30 13635 H 1318.88 -5.80769 -4.83987 0
M  V30 13636 H 1320.15 -5.16357 -5.83949 0
M  V30 13637 N 1324.38 0.532545 -1.4833 0
M  V30 13638 C 1325.61 1.31331 -1.59874 0
M  V30 13639 C 1326.02 1.87028 -0.258037 0
M  V30 13640 O 1325.38 1.66272 0.752317 0
M  V30 13641 C 1325.43 2.46596 -2.64334 0
M  V30 13642 O 1325.15 1.93195 -3.93201 0
M  V30 13643 C 1326.65 3.38454 -2.86294 0
M  V30 13644 H 1323.87 0.399476 -0.539129 0
M  V30 13645 H 1326.41 0.642696 -1.94138 0
M  V30 13646 H 1324.57 3.09548 -2.32936 0
M  V30 13647 H 1324.98 2.68627 -4.50489 0
M  V30 13648 H 1326.46 4.15687 -3.63192 0
M  V30 13649 H 1326.93 3.93526 -1.95022 0
M  V30 13650 H 1327.54 2.81297 -3.18986 0
M  V30 13651 N 1325.86 1.36875 0.78122 0
M  V30 13652 C 1327.08 1.34732 1.57019 0
M  V30 13653 C 1327.5 -0.0695423 1.88672 0
M  V30 13654 O 1326.86 -1.02873 1.50743 0
M  V30 13655 C 1326.91 2.17668 2.88623 0
M  V30 13656 O 1326.63 3.53832 2.5833 0
M  V30 13657 C 1328.13 2.23398 3.82895 0
M  V30 13658 H 1325.35 0.461857 0.486754 0
M  V30 13659 H 1327.89 1.80086 0.968989 0
M  V30 13660 H 1326.05 1.75848 3.4519 0
M  V30 13661 H 1326.46 3.972 3.42538 0
M  V30 13662 H 1327.94 2.85769 4.72271 0
M  V30 13663 H 1328.41 1.23972 4.2134 0
M  V30 13664 H 1329.02 2.65489 3.32258 0
M  V30 13665 N 1327.33 -1.00632 1.21289 0
M  V30 13666 C 1328.56 -1.78503 1.05601 0
M  V30 13667 C 1328.98 -1.84015 -0.389879 0
M  V30 13668 O 1328.34 -1.28277 -1.2812 0
M  V30 13669 C 1328.39 -3.20313 1.65626 0
M  V30 13670 O 1327.49 -4.02441 0.900841 0
M  V30 13671 H 1326.83 -0.550183 0.371746 0
M  V30 13672 H 1329.36 -1.26505 1.60803 0
M  V30 13673 H 1329.37 -3.70992 1.69792 0
M  V30 13674 H 1328.05 -3.15616 2.7085 0
M  V30 13675 H 1326.63 -3.61009 0.934178 0
M  V30 13676 N 1328.81 -1.02043 -1.20104 0
M  V30 13677 C 1329.74 -0.552093 -2.22451 0
M  V30 13678 C 1330.76 0.367547 -1.58597 0
M  V30 13679 O 1331.95 0.165285 -1.77733 0
M  V30 13680 C 1329.05 0.215833 -3.38212 0
M  V30 13681 C 1328.22 -0.70666 -4.31654 0
M  V30 13682 C 1327.28 0.0143628 -5.26198 0
M  V30 13683 O 1326.3 -0.609413 -5.65928 0
M  V30 13684 N 1327.51 1.28794 -5.66032 0
M  V30 13685 H 1330.27 -1.43229 -2.6326 0
M  V30 13686 H 1327.83 -0.89842 -1.34685 0
M  V30 13687 H 1329.82 0.707523 -3.98467 0
M  V30 13688 H 1328.39 0.997358 -2.96263 0
M  V30 13689 H 1327.61 -1.37859 -3.69308 0
M  V30 13690 H 1328.9 -1.33392 -4.91003 0
M  V30 13691 H 1328.3 1.8156 -5.35773 0
M  V30 13692 H 1326.86 1.72429 -6.28579 0
M  V30 13693 N 1330.29 1.35952 -0.797165 0
M  V30 13694 C 1331.25 2.28266 -0.206748 0
M  V30 13695 C 1332.25 1.49169 0.60043 0
M  V30 13696 O 1333.44 1.69054 0.42029 0
M  V30 13697 C 1330.58 3.33363 0.712884 0
M  V30 13698 H 1331.77 2.81992 -1.02082 0
M  V30 13699 H 1329.32 1.45648 -0.567138 0
M  V30 13700 H 1330.06 2.84806 1.551 0
M  V30 13701 H 1329.84 3.91864 0.135926 0
M  V30 13702 H 1331.33 4.02284 1.1206 0
M  V30 13703 N 1331.77 0.549846 1.47697 0
M  V30 13704 C 1332.72 -0.222213 2.26915 0
M  V30 13705 C 1333.7 -0.891996 1.33911 0
M  V30 13706 O 1334.89 -0.791519 1.58316 0
M  V30 13707 C 1332.02 -1.25619 3.19491 0
M  V30 13708 C 1331.11 -0.590193 4.19973 0
M  V30 13709 N 1331.5 0.335519 5.04686 0
M  V30 13710 C 1329.8 -0.845012 4.37922 0
M  V30 13711 C 1330.5 0.721672 5.77206 0
M  V30 13712 N 1329.48 0.078184 5.43544 0
M  V30 13713 H 1333.28 0.489645 2.89792 0
M  V30 13714 H 1330.79 0.36926 1.58146 0
M  V30 13715 H 1332.79 -1.82319 3.74921 0
M  V30 13716 H 1331.45 -1.96922 2.5817 0
M  V30 13717 H 1332.46 0.709271 5.1302 0
M  V30 13718 H 1329.14 -1.54711 3.87777 0
M  V30 13719 H 1330.53 1.48191 6.55354 0
M  V30 13720 N 1333.25 -1.54984 0.285932 0
M  V30 13721 C 1334.47 -2.04699 -0.333621 0
M  V30 13722 C 1334.9 -1.16252 -1.47875 0
M  V30 13723 O 1334.25 -0.163376 -1.80562 0
M  V30 13724 C 1334.3 -3.52022 -0.78187 0
M  V30 13725 O 1333.41 -3.66639 -1.88812 0
M  V30 13726 H 1332.75 -0.660579 -0.0673203 0
M  V30 13727 H 1335.28 -2.00171 0.423386 0
M  V30 13728 H 1335.29 -3.93591 -1.07473 0
M  V30 13729 H 1333.96 -4.15862 0.055893 0
M  V30 13730 H 1332.54 -3.36974 -1.59696 0
M  V30 13731 N 1334.72 -0.0133892 -1.57594 0
M  V30 13732 C 1335.65 0.972341 -2.12292 0
M  V30 13733 C 1336.64 1.34971 -1.03522 0
M  V30 13734 O 1337.82 1.4311 -1.31275 0
M  V30 13735 C 1334.95 2.25988 -2.63717 0
M  V30 13736 C 1333.9 2.02373 -3.77133 0
M  V30 13737 C 1333.23 3.37256 -4.14925 0
M  V30 13738 C 1334.53 1.37553 -5.03861 0
M  V30 13739 H 1336.22 0.516869 -2.94905 0
M  V30 13740 H 1333.77 0.247176 -1.41863 0
M  V30 13741 H 1335.72 2.95313 -3.00613 0
M  V30 13742 H 1334.45 2.73672 -1.78244 0
M  V30 13743 H 1333.11 1.3547 -3.40651 0
M  V30 13744 H 1332.75 3.82669 -3.26456 0
M  V30 13745 H 1332.45 3.22267 -4.91343 0
M  V30 13746 H 1333.98 4.07875 -4.5439 0
M  V30 13747 H 1335.39 1.96855 -5.38443 0
M  V30 13748 H 1333.79 1.33011 -5.85174 0
M  V30 13749 H 1334.86 0.346429 -4.83661 0
M  V30 13750 N 1336.2 1.55448 0.259558 0
M  V30 13751 C 1337.61 1.67256 0.8296 0
M  V30 13752 C 1337.96 0.60851 1.86525 0
M  V30 13753 O 1337.09 -0.247563 2.14979 0
M  V30 13754 C 1337.68 3.03213 1.51152 0
M  V30 13755 C 1336.24 3.17004 2.02943 0
M  V30 13756 C 1335.39 2.63096 0.876103 0
M  V30 13757 H 1338.34 1.5866 0.0356218 0
M  V30 13758 H 1338.36 2.96952 2.37906 0
M  V30 13759 H 1337.87 3.80635 0.75752 0
M  V30 13760 H 1335.98 2.44381 2.81263 0
M  V30 13761 H 1336.09 4.23748 2.2355 0
M  V30 13762 H 1334.45 2.20596 1.27317 0
M  V30 13763 H 1335.24 3.43033 0.13539 0
M  V30 13764 N 1337.68 -0.524672 1.4861 0
M  V30 13765 C 1338.61 -1.63782 1.66426 0
M  V30 13766 C 1339.59 -1.62177 0.513077 0
M  V30 13767 O 1340.78 -1.7929 0.74623 0
M  V30 13768 C 1337.91 -3.02354 1.70877 0
M  V30 13769 C 1336.86 -3.18819 2.85549 0
M  V30 13770 C 1336.19 -4.58506 2.75094 0
M  V30 13771 C 1337.49 -3.01086 4.26784 0
M  V30 13772 H 1339.18 -1.49127 2.59618 0
M  V30 13773 H 1336.73 -0.715997 1.24938 0
M  V30 13774 H 1338.68 -3.80105 1.81929 0
M  V30 13775 H 1337.4 -3.18044 0.742682 0
M  V30 13776 H 1336.06 -2.43487 2.74061 0
M  V30 13777 H 1335.71 -4.71038 1.76443 0
M  V30 13778 H 1335.41 -4.70466 3.52044 0
M  V30 13779 H 1336.93 -5.38348 2.88121 0
M  V30 13780 H 1338.35 -3.68624 4.39077 0
M  V30 13781 H 1336.75 -3.24536 5.04774 0
M  V30 13782 H 1337.82 -1.97454 4.42877 0
M  V30 13783 N 1339.16 -1.37287 -0.77395 0
M  V30 13784 C 1340.38 -1.35734 -1.56815 0
M  V30 13785 C 1340.81 0.0555546 -1.88018 0
M  V30 13786 O 1340.17 1.03197 -1.49064 0
M  V30 13787 C 1340.21 -2.2008 -2.85652 0
M  V30 13788 O 1339.32 -1.60391 -3.79932 0
M  V30 13789 H 1338.66 -0.463881 -0.47509 0
M  V30 13790 H 1341.19 -1.80781 -0.958087 0
M  V30 13791 H 1341.2 -2.33215 -3.34776 0
M  V30 13792 H 1339.87 -3.22781 -2.6227 0
M  V30 13793 H 1338.45 -1.56285 -3.3857 0
M  V30 13794 N 1340.64 0.999871 -1.21821 0
M  V30 13795 C 1342.05 1.5529 -1.03642 0
M  V30 13796 C 1342.4 1.92032 0.402246 0
M  V30 13797 O 1341.52 1.74027 1.28622 0
M  V30 13798 C 1342.12 2.82177 -1.87514 0
M  V30 13799 C 1340.68 3.33949 -1.73653 0
M  V30 13800 C 1339.82 2.07095 -1.84409 0
M  V30 13801 H 1342.78 0.821751 -1.35768 0
M  V30 13802 H 1342.8 3.54264 -1.38842 0
M  V30 13803 H 1342.31 2.55405 -2.92216 0
M  V30 13804 H 1340.41 3.65645 -0.716554 0
M  V30 13805 H 1340.52 4.05022 -2.55918 0
M  V30 13806 H 1338.89 2.20332 -1.27773 0
M  V30 13807 H 1339.67 1.82728 -2.90629 0
M  V30 13808 N 1342.11 1.02678 1.19562 0
M  V30 13809 C 1343.08 0.610407 2.20922 0
M  V30 13810 C 1344.08 -0.324858 1.57484 0
M  V30 13811 O 1345.27 -0.112153 1.73839 0
M  V30 13812 C 1342.4 -0.107115 3.40732 0
M  V30 13813 H 1343.59 1.50722 2.59274 0
M  V30 13814 H 1341.15 0.817725 1.33203 0
M  V30 13815 H 1341.88 -1.01837 3.07896 0
M  V30 13816 H 1341.67 0.564901 3.88009 0
M  V30 13817 H 1343.16 -0.385423 4.15818 0
M  V30 13818 N 1343.59 -1.35528 0.804364 0
M  V30 13819 C 1344.82 -2.03604 0.395013 0
M  V30 13820 C 1345.24 -1.60225 -0.985371 0
M  V30 13821 O 1344.6 -0.777844 -1.63766 0
M  V30 13822 C 1344.65 -3.57337 0.484011 0
M  V30 13823 O 1343.75 -4.09316 -0.503395 0
M  V30 13824 H 1343.09 -0.643089 0.165325 0
M  V30 13825 H 1345.62 -1.73171 1.08963 0
M  V30 13826 H 1345.63 -4.0647 0.353009 0
M  V30 13827 H 1344.31 -3.8826 1.49088 0
M  V30 13828 H 1342.89 -3.71412 -0.332817 0
M  V30 13829 N 1345.07 -0.557671 -1.47404 0
M  V30 13830 C 1346.3 -0.0386599 -2.06864 0
M  V30 13831 C 1346.71 1.25527 -1.41027 0
M  V30 13832 O 1346.07 1.75318 -0.506949 0
M  V30 13833 C 1346.12 0.160141 -3.61145 0
M  V30 13834 O 1345.84 -1.08255 -4.24515 0
M  V30 13835 C 1347.34 0.716381 -4.37473 0
M  V30 13836 H 1344.56 -0.0460523 -0.669418 0
M  V30 13837 H 1347.11 -0.771214 -1.894 0
M  V30 13838 H 1345.26 0.842826 -3.78121 0
M  V30 13839 H 1345.68 -0.88057 -5.17055 0
M  V30 13840 H 1347.15 0.804773 -5.46102 0
M  V30 13841 H 1347.63 1.72776 -4.03788 0
M  V30 13842 H 1348.23 0.0693787 -4.25243 0
M  V30 13843 N 1346.55 1.54831 -0.294147 0
M  V30 13844 C 1347.97 1.59489 0.0594489 0
M  V30 13845 C 1348.17 1.31121 1.53002 0
M  V30 13846 O 1347.22 1.08129 2.28176 0
M  V30 13847 C 1348.53 2.98858 -0.332323 0
M  V30 13848 C 1350.08 3.1174 -0.280518 0
M  V30 13849 C 1350.56 4.53407 -0.64701 0
M  V30 13850 N 1352.05 4.59307 -0.599284 0
M  V30 13851 C 1352.78 5.66983 -0.85542 0
M  V30 13852 N 1352.28 6.82726 -1.17717 0
M  V30 13853 N 1354.07 5.56621 -0.78294 0
M  V30 13854 H 1346.22 1.71532 -1.25262 0
M  V30 13855 H 1348.49 0.800801 -0.507368 0
M  V30 13856 H 1348.19 3.24517 -1.35578 0
M  V30 13857 H 1348.07 3.75862 0.317443 0
M  V30 13858 H 1350.45 2.85834 0.733683 0
M  V30 13859 H 1350.53 2.36907 -0.96481 0
M  V30 13860 H 1350.18 4.80042 -1.65899 0
M  V30 13861 H 1350.11 5.26567 0.0592796 0
M  V30 13862 H 1352.6 3.76169 -0.361259 0
M  V30 13863 H 1352.91 7.60761 -1.35877 0
M  V30 13864 H 1351.26 6.84295 -1.21513 0
M  V30 13865 H 1354.45 4.65075 -0.531282 0
M  V30 13866 H 1354.62 6.40456 -0.985929 0
M  V30 13867 N 1348.03 0.0217466 1.57585 0
M  V30 13868 C 1348.96 -0.99116 2.06661 0
M  V30 13869 C 1349.97 -1.29346 0.988604 0
M  V30 13870 O 1351.16 -1.25941 1.26496 0
M  V30 13871 C 1348.26 -2.32047 2.46997 0
M  V30 13872 C 1347.43 -2.20441 3.77789 0
M  V30 13873 C 1346.49 -3.36243 4.04755 0
M  V30 13874 O 1345.52 -3.13458 4.75114 0
M  V30 13875 N 1346.72 -4.598 3.54351 0
M  V30 13876 H 1349.49 -0.572486 2.94181 0
M  V30 13877 H 1347.05 -0.165175 1.61055 0
M  V30 13878 H 1349.04 -3.0833 2.62135 0
M  V30 13879 H 1347.61 -2.65581 1.64881 0
M  V30 13880 H 1346.83 -1.28931 3.72519 0
M  V30 13881 H 1348.12 -2.09882 4.63494 0
M  V30 13882 H 1347.52 -4.81207 2.97416 0
M  V30 13883 H 1346.07 -5.33276 3.7478 0
M  V30 13884 N 1349.51 -1.55583 -0.251311 0
M  V30 13885 C 1350.44 -1.86388 -1.33387 0
M  V30 13886 C 1351.45 -0.749829 -1.44504 0
M  V30 13887 O 1352.64 -1.0279 -1.45933 0
M  V30 13888 C 1349.74 -2.0311 -2.71293 0
M  V30 13889 C 1348.91 -3.33937 -2.82498 0
M  V30 13890 C 1347.97 -3.40455 -4.01219 0
M  V30 13891 O 1347 -4.13695 -3.90954 0
M  V30 13892 N 1348.2 -2.69427 -5.14188 0
M  V30 13893 H 1350.96 -2.79834 -1.07298 0
M  V30 13894 H 1348.53 -1.55766 -0.441418 0
M  V30 13895 H 1350.52 -2.04817 -3.49045 0
M  V30 13896 H 1349.09 -1.16429 -2.90109 0
M  V30 13897 H 1348.31 -3.44584 -1.91456 0
M  V30 13898 H 1349.6 -4.20176 -2.86931 0
M  V30 13899 H 1348.99 -2.09647 -5.25419 0
M  V30 13900 H 1347.55 -2.76832 -5.90091 0
M  V30 13901 N 1350.98 0.516783 -1.48886 0
M  V30 13902 C 1352.23 1.26841 -1.56825 0
M  V30 13903 C 1352.55 1.93957 -0.252998 0
M  V30 13904 O 1353.75 2.70681 -0.210765 0
M  V30 13905 C 1352.21 2.30223 -2.76633 0
M  V30 13906 C 1351.82 1.69117 -4.14853 0
M  V30 13907 C 1353.56 3.06313 -2.93893 0
M  V30 13908 C 1351.47 2.70516 -5.25904 0
M  V30 13909 H 1350.4 0.477087 -0.58387 0
M  V30 13910 H 1353.05 0.544187 -1.75245 0
M  V30 13911 H 1351.43 3.05739 -2.51674 0
M  V30 13912 H 1352.6 0.997003 -4.49885 0
M  V30 13913 H 1350.92 1.05473 -4.0282 0
M  V30 13914 H 1353.52 3.8211 -3.74027 0
M  V30 13915 H 1353.86 3.62976 -2.03848 0
M  V30 13916 H 1354.39 2.37911 -3.18815 0
M  V30 13917 H 1351.13 2.18655 -6.17956 0
M  V30 13918 H 1350.65 3.38221 -4.95345 0
M  V30 13919 H 1352.33 3.3325 -5.54575 0
M  V30 13920 N 1352.46 1.37696 0.766659 0
M  V30 13921 C 1353.74 1.23715 1.51506 0
M  V30 13922 C 1354.12 -0.167091 2.10438 0
M  V30 13923 O 1353.47 -1.17526 1.95959 0
M  V30 13924 C 1353.68 2.33715 2.59188 0
M  V30 13925 C 1355.02 2.71504 3.26451 0
M  V30 13926 O 1356.05 2.32929 2.69486 0
M  V30 13927 O 1354.91 3.37981 4.29454 0
M  V30 13928 H 1352 0.483046 0.671264 0
M  V30 13929 H 1354.55 1.49489 0.803188 0
M  V30 13930 H 1353.32 3.27729 2.13797 0
M  V30 13931 H 1352.94 2.09433 3.3797 0
M  V30 13932 N 1353.94 -0.993397 1.22349 0
M  V30 13933 C 1354.85 -2.11771 1.00947 0
M  V30 13934 C 1355.87 -1.73949 -0.0420679 0
M  V30 13935 O 1357.04 -2.00837 0.150548 0
M  V30 13936 C 1354.11 -3.41654 0.589359 0
M  V30 13937 C 1353.17 -3.93579 1.71446 0
M  V30 13938 C 1352.4 -5.17264 1.3143 0
M  V30 13939 O 1352.62 -5.70074 0.192876 0
M  V30 13940 O 1351.56 -5.62929 2.13059 0
M  V30 13941 H 1355.38 -2.32708 1.95142 0
M  V30 13942 H 1352.97 -1.10144 1.00939 0
M  V30 13943 H 1354.85 -4.19813 0.365403 0
M  V30 13944 H 1353.53 -3.22077 -0.323738 0
M  V30 13945 H 1352.43 -3.16596 1.99294 0
M  V30 13946 H 1353.77 -4.17588 2.6054 0
M  V30 13947 N 1355.42 -1.03311 -1.19015 0
M  V30 13948 C 1356.35 -0.638279 -2.24607 0
M  V30 13949 C 1357.33 0.354795 -1.66359 0
M  V30 13950 O 1358.51 0.236574 -1.92754 0
M  V30 13951 C 1355.64 0.00737316 -3.47299 0
M  V30 13952 C 1354.6 -0.908431 -4.18248 0
M  V30 13953 C 1353.92 -0.127658 -5.34548 0
M  V30 13954 C 1355.22 -2.2241 -4.72579 0
M  V30 13955 H 1356.92 -1.52099 -2.57888 0
M  V30 13956 H 1354.46 -0.732779 -1.23961 0
M  V30 13957 H 1356.42 0.295256 -4.20364 0
M  V30 13958 H 1355.14 0.924912 -3.1323 0
M  V30 13959 H 1353.8 -1.18058 -3.47071 0
M  V30 13960 H 1353.45 0.792048 -4.96725 0
M  V30 13961 H 1353.15 -0.737702 -5.82951 0
M  V30 13962 H 1354.67 0.153385 -6.10407 0
M  V30 13963 H 1356.09 -1.99745 -5.37378 0
M  V30 13964 H 1354.48 -2.78644 -5.31486 0
M  V30 13965 H 1355.55 -2.87584 -3.90415 0
M  V30 13966 N 1356.9 1.35099 -0.81154 0
M  V30 13967 C 1358.31 1.51701 -0.495883 0
M  V30 13968 C 1358.51 1.7595 0.982035 0
M  V30 13969 O 1357.57 1.8038 1.7669 0
M  V30 13970 C 1358.88 2.68916 -1.34554 0
M  V30 13971 C 1360.43 2.82795 -1.34149 0
M  V30 13972 C 1360.9 4.0304 -2.17538 0
M  V30 13973 N 1362.39 4.10227 -2.151 0
M  V30 13974 C 1363.13 5.02397 -2.76377 0
M  V30 13975 N 1362.63 5.99866 -3.46601 0
M  V30 13976 N 1364.42 4.95181 -2.65992 0
M  V30 13977 H 1356.57 1.17617 -1.76862 0
M  V30 13978 H 1358.83 0.575875 -0.753042 0
M  V30 13979 H 1358.54 2.57591 -2.39458 0
M  V30 13980 H 1358.41 3.63641 -1.00223 0
M  V30 13981 H 1360.8 2.93568 -0.300285 0
M  V30 13982 H 1360.88 1.88912 -1.7247 0
M  V30 13983 H 1360.52 3.93027 -3.21702 0
M  V30 13984 H 1360.45 4.96114 -1.76574 0
M  V30 13985 H 1362.95 3.40454 -1.6401 0
M  V30 13986 H 1363.26 6.66803 -3.90632 0
M  V30 13987 H 1361.6 6.00025 -3.50706 0
M  V30 13988 H 1364.79 4.17991 -2.10715 0
M  V30 13989 H 1364.97 5.6682 -3.14036 0
M  V30 13990 N 1358.37 0.56548 1.47106 0
M  V30 13991 C 1359.65 -0.0215358 1.95588 0
M  V30 13992 C 1360.03 -1.47712 1.50813 0
M  V30 13993 O 1359.38 -2.15814 0.750776 0
M  V30 13994 C 1359.59 0.132552 3.48748 0
M  V30 13995 C 1360.94 -0.00853591 4.24599 0
M  V30 13996 O 1361.96 0.0605142 3.56149 0
M  V30 13997 O 1360.82 -0.158519 5.4627 0
M  V30 13998 H 1357.91 -0.0595011 0.824857 0
M  V30 13999 H 1360.46 0.632586 1.57469 0
M  V30 14000 H 1359.23 1.14511 3.7417 0
M  V30 14001 H 1358.85 -0.558801 3.93654 0
M  V30 14002 N 1359.85 -1.54672 0.302354 0
M  V30 14003 C 1361.08 -2.05041 -0.311891 0
M  V30 14004 C 1361.5 -1.17814 -1.46634 0
M  V30 14005 O 1360.86 -0.182517 -1.80379 0
M  V30 14006 C 1360.91 -3.52831 -0.744489 0
M  V30 14007 O 1360.01 -3.68621 -1.84913 0
M  V30 14008 H 1359.35 -0.661255 -0.0603102 0
M  V30 14009 H 1361.88 -1.99711 0.444593 0
M  V30 14010 H 1361.89 -3.94708 -1.03293 0
M  V30 14011 H 1360.57 -4.1578 0.0999976 0
M  V30 14012 H 1359.15 -3.38649 -1.56113 0
M  V30 14013 N 1361.33 -0.0301034 -1.57571 0
M  V30 14014 C 1362.61 0.68703 -1.83137 0
M  V30 14015 C 1362.99 1.90277 -0.914216 0
M  V30 14016 O 1362.34 2.2848 0.0299358 0
M  V30 14017 C 1362.55 1.06431 -3.32375 0
M  V30 14018 C 1363.89 1.45554 -3.98873 0
M  V30 14019 O 1364.92 1.15727 -3.36877 0
M  V30 14020 O 1363.78 2.01133 -5.08142 0
M  V30 14021 H 1360.87 0.337141 -0.755159 0
M  V30 14022 H 1363.42 -0.0578604 -1.69601 0
M  V30 14023 H 1362.19 0.199077 -3.90793 0
M  V30 14024 H 1361.81 1.86734 -3.51022 0
M  V30 14025 N 1362.81 1.55714 0.243056 0
M  V30 14026 C 1364.03 1.82126 0.992219 0
M  V30 14027 C 1364.46 0.607665 1.78014 0
M  V30 14028 O 1363.82 -0.443351 1.75796 0
M  V30 14029 C 1363.86 3.06314 1.90274 0
M  V30 14030 O 1362.97 2.83499 2.99503 0
M  V30 14031 H 1362.31 0.601082 0.282128 0
M  V30 14032 H 1364.84 2.02904 0.262881 0
M  V30 14033 H 1364.85 3.35849 2.31666 0
M  V30 14034 H 1363.52 3.94282 1.32344 0
M  V30 14035 H 1362.1 2.65141 2.62211 0
M  V30 14036 N 1364.29 -0.50888 1.49158 0
M  V30 14037 C 1365.53 -1.26537 1.58481 0
M  V30 14038 C 1365.87 -1.92353 0.267168 0
M  V30 14039 O 1365.14 -1.80336 -0.728639 0
M  V30 14040 C 1365.42 -2.33846 2.73839 0
M  V30 14041 C 1365.28 -1.72582 4.15374 0
M  V30 14042 C 1366.6 -3.35467 2.84868 0
M  V30 14043 H 1363.71 -0.458697 0.576859 0
M  V30 14044 H 1366.36 -0.564728 1.81413 0
M  V30 14045 H 1364.51 -2.93605 2.54417 0
M  V30 14046 H 1366.18 -1.16711 4.46292 0
M  V30 14047 H 1364.42 -1.03025 4.21389 0
M  V30 14048 H 1365.09 -2.5038 4.91949 0
M  V30 14049 H 1367.57 -2.85689 3.02524 0
M  V30 14050 H 1366.44 -4.07922 3.67275 0
M  V30 14051 H 1366.71 -3.97313 1.93894 0
M  V30 14052 N 1365.76 -1.381 -0.759346 0
M  V30 14053 C 1367 -1.35402 -1.5312 0
M  V30 14054 C 1367.37 0.0574616 -1.91914 0
M  V30 14055 O 1368.57 0.20927 -2.67984 0
M  V30 14056 C 1366.84 -2.27793 -2.754 0
M  V30 14057 S 1368.4 -2.43061 -3.65331 0
M  V30 14058 H 1365.22 -0.480503 -0.524059 0
M  V30 14059 H 1367.82 -1.7397 -0.891886 0
M  V30 14060 H 1366.52 -3.29247 -2.45 0
M  V30 14061 H 1366.05 -1.90353 -3.44281 0
M  V30 14062 H 1368.07 -1.6504 -4.67949 0
M  V30 14063 N 1367.24 0.986894 -1.22875 0
M  V30 14064 C 1368.52 1.70121 -0.965311 0
M  V30 14065 C 1368.9 2.04648 0.517924 0
M  V30 14066 O 1368.25 1.73453 1.48749 0
M  V30 14067 C 1368.46 2.94738 -1.86897 0
M  V30 14068 C 1369.81 3.6739 -2.12861 0
M  V30 14069 O 1370.83 3.04758 -1.84394 0
M  V30 14070 O 1369.69 4.8009 -2.61106 0
M  V30 14071 H 1366.78 0.742817 -0.363527 0
M  V30 14072 H 1369.33 1.0427 -1.33887 0
M  V30 14073 H 1368.1 2.65771 -2.87196 0
M  V30 14074 H 1367.72 3.68327 -1.49736 0
M  V30 14075 N 1368.72 1.0394 1.18466 0
M  V30 14076 C 1369.95 0.761926 1.92897 0
M  V30 14077 C 1370.37 -0.674618 1.75586 0
M  V30 14078 O 1369.73 -1.46711 1.06515 0
M  V30 14079 C 1369.78 1.13152 3.42387 0
M  V30 14080 O 1368.88 0.256266 4.11603 0
M  V30 14081 H 1368.22 0.280527 0.601831 0
M  V30 14082 H 1370.75 1.3889 1.50235 0
M  V30 14083 H 1370.76 1.0929 3.9309 0
M  V30 14084 H 1369.44 2.17804 3.54308 0
M  V30 14085 H 1368.01 0.354392 3.71212 0
M  V30 14086 N 1370.2 -1.34667 0.818693 0
M  V30 14087 C 1371.45 -1.98022 0.40396 0
M  V30 14088 C 1371.77 -1.65239 -1.03542 0
M  V30 14089 O 1371.04 -0.94097 -1.71821 0
M  V30 14090 H 1369.62 -0.732517 0.146382 0
M  V30 14091 H 1372.28 -1.64377 1.0472 0
M  V30 14092 H 1371.38 -3.07746 0.519516 0
M  V30 14093 N 1371.68 -0.573274 -1.46804 0
M  V30 14094 C 1372.92 -0.0553432 -2.02724 0
M  V30 14095 C 1373.26 1.29753 -1.44492 0
M  V30 14096 O 1372.53 1.84804 -0.606455 0
M  V30 14097 C 1372.81 0.0205511 -3.60094 0
M  V30 14098 C 1372.67 -1.36055 -4.2873 0
M  V30 14099 C 1373.99 0.725944 -4.34071 0
M  V30 14100 H 1371.1 -0.0215858 -0.736684 0
M  V30 14101 H 1373.75 -0.738657 -1.75054 0
M  V30 14102 H 1371.9 0.602481 -3.838 0
M  V30 14103 H 1373.57 -1.98692 -4.16316 0
M  V30 14104 H 1371.81 -1.93087 -3.88458 0
M  V30 14105 H 1372.48 -1.26001 -5.37427 0
M  V30 14106 H 1374.96 0.231677 -4.15455 0
M  V30 14107 H 1373.83 0.74805 -5.43779 0
M  V30 14108 H 1374.1 1.78536 -4.04447 0
M  V30 14109 N 1373.15 1.5451 -0.310553 0
M  V30 14110 C 1374.06 2.27557 0.570518 0
M  V30 14111 C 1375.08 1.31426 1.14032 0
M  V30 14112 O 1376.26 1.64423 1.16306 0
M  V30 14113 C 1373.32 3.00933 1.72163 0
M  V30 14114 C 1372.38 4.12623 1.18495 0
M  V30 14115 C 1371.62 4.8249 2.28121 0
M  V30 14116 O 1371.84 4.5178 3.48211 0
M  V30 14117 O 1370.77 5.69686 1.94273 0
M  V30 14118 H 1374.6 3.03692 -0.0223195 0
M  V30 14119 H 1372.18 1.49203 -0.0766821 0
M  V30 14120 H 1374.07 3.46925 2.39208 0
M  V30 14121 H 1372.74 2.27685 2.3009 0
M  V30 14122 H 1371.65 3.71008 0.479956 0
M  V30 14123 H 1372.98 4.87876 0.650994 0
M  V30 14124 N 1374.63 0.0384594 1.57553 0
M  V30 14125 C 1375.86 -0.648077 1.96488 0
M  V30 14126 C 1376.28 -1.65123 0.915414 0
M  V30 14127 O 1375.63 -1.82216 -0.101779 0
M  V30 14128 C 1375.68 -1.34623 3.35498 0
M  V30 14129 O 1375.41 -0.383261 4.3642 0
M  V30 14130 C 1376.91 -2.12372 3.89119 0
M  V30 14131 H 1374.13 -0.178068 0.646941 0
M  V30 14132 H 1376.67 0.100993 2.0425 0
M  V30 14133 H 1374.83 -2.04663 3.28926 0
M  V30 14134 H 1375.24 -0.880095 5.17063 0
M  V30 14135 H 1376.71 -2.5666 4.88702 0
M  V30 14136 H 1377.19 -2.96664 3.23863 0
M  V30 14137 H 1377.8 -1.4727 3.98988 0
M  V30 14138 N 1376.11 -1.55841 -0.234795 0
M  V30 14139 C 1377.34 -1.82649 -0.982547 0
M  V30 14140 C 1377.76 -0.617097 -1.77689 0
M  V30 14141 O 1377.12 0.434022 -1.76028 0
M  V30 14142 C 1377.17 -3.07319 -1.88646 0
M  V30 14143 O 1376.27 -2.85084 -2.97995 0
M  V30 14144 H 1375.61 -0.60257 -0.278936 0
M  V30 14145 H 1378.14 -2.03041 -0.252117 0
M  V30 14146 H 1378.15 -3.37073 -2.29882 0
M  V30 14147 H 1376.83 -3.94978 -1.30251 0
M  V30 14148 H 1375.4 -2.66528 -2.60801 0
M  V30 14149 N 1377.59 0.500963 -1.49426 0
M  V30 14150 C 1378.84 1.25509 -1.58915 0
M  V30 14151 C 1379.16 1.92534 -0.275868 0
M  V30 14152 O 1378.42 1.81324 0.736212 0
M  V30 14153 C 1378.72 2.34448 -2.69757 0
M  V30 14154 C 1378.38 1.8488 -4.11254 0
M  V30 14155 C 1377.05 1.71081 -4.49761 0
M  V30 14156 C 1379.4 1.4778 -4.9981 0
M  V30 14157 C 1376.73 1.18561 -5.74596 0
M  V30 14158 C 1379.08 0.967118 -6.25164 0
M  V30 14159 C 1377.74 0.815523 -6.62499 0
M  V30 14160 H 1377.01 0.459268 -0.58151 0
M  V30 14161 H 1379.66 0.555817 -1.83256 0
M  V30 14162 H 1377.96 3.10163 -2.39387 0
M  V30 14163 H 1379.66 2.925 -2.74308 0
M  V30 14164 H 1376.25 1.9658 -3.8086 0
M  V30 14165 H 1380.44 1.57288 -4.70717 0
M  V30 14166 H 1375.69 1.05536 -6.02223 0
M  V30 14167 H 1379.87 0.670857 -6.93161 0
M  V30 14168 H 1377.49 0.406375 -7.59113 0
M  V30 14169 N 1379.07 1.38501 0.752011 0
M  V30 14170 C 1380.48 1.19733 1.05529 0
M  V30 14171 C 1380.68 0.047088 2.01445 0
M  V30 14172 O 1379.74 -0.606645 2.45104 0
M  V30 14173 C 1381.05 2.52439 1.63386 0
M  V30 14174 C 1382.6 2.59136 1.7555 0
M  V30 14175 C 1383.08 3.92022 2.36819 0
M  V30 14176 N 1384.57 3.9357 2.44248 0
M  V30 14177 C 1385.3 4.93154 2.92553 0
M  V30 14178 N 1384.8 6.03135 3.40882 0
M  V30 14179 N 1386.59 4.80543 2.91607 0
M  V30 14180 H 1378.74 2.12085 0.115543 0
M  V30 14181 H 1381 0.941134 0.113888 0
M  V30 14182 H 1380.71 3.37072 1.00376 0
M  V30 14183 H 1380.58 2.70947 2.62427 0
M  V30 14184 H 1382.97 1.74897 2.37687 0
M  V30 14185 H 1383.05 2.44494 0.752092 0
M  V30 14186 H 1382.7 4.76684 1.75314 0
M  V30 14187 H 1382.63 4.03976 3.37803 0
M  V30 14188 H 1385.12 3.14133 2.10068 0
M  V30 14189 H 1385.43 6.7505 3.76201 0
M  V30 14190 H 1383.78 6.06752 3.38935 0
M  V30 14191 H 1386.97 3.93733 2.53163 0
M  V30 14192 H 1387.14 5.58303 3.28941 0
M  V30 14193 N 1380.55 -0.980364 1.23396 0
M  V30 14194 C 1381.49 -2.07275 1.01516 0
M  V30 14195 C 1382.46 -1.65963 -0.0673729 0
M  V30 14196 O 1383.65 -1.90612 0.0847392 0
M  V30 14197 C 1380.79 -3.39621 0.61249 0
M  V30 14198 C 1379.9 -3.94203 1.76715 0
M  V30 14199 C 1379.04 -5.14761 1.31126 0
M  V30 14200 C 1378.07 -5.61509 2.43667 0
M  V30 14201 N 1377.21 -6.73297 1.99035 0
M  V30 14202 H 1382.05 -2.25325 1.9502 0
M  V30 14203 H 1379.59 -1.10452 0.971532 0
M  V30 14204 H 1381.55 -4.15643 0.360126 0
M  V30 14205 H 1380.18 -3.21535 -0.285539 0
M  V30 14206 H 1379.23 -3.14937 2.13352 0
M  V30 14207 H 1380.54 -4.24867 2.61323 0
M  V30 14208 H 1379.69 -5.98115 1.01702 0
M  V30 14209 H 1378.43 -4.85751 0.435555 0
M  V30 14210 H 1377.44 -4.76737 2.73865 0
M  V30 14211 H 1378.66 -5.92539 3.31774 0
M  V30 14212 H 1376.61 -6.46046 1.13845 0
M  V30 14213 H 1376.53 -7.03345 2.77203 0
M  V30 14214 H 1377.79 -7.60125 1.72716 0
M  V30 14215 N 1382.02 -1.04567 -1.17913 0
M  V30 14216 C 1382.95 -0.662066 -2.23917 0
M  V30 14217 C 1383.93 0.33713 -1.66726 0
M  V30 14218 O 1385.12 0.216116 -1.92994 0
M  V30 14219 C 1382.25 -0.029463 -3.47288 0
M  V30 14220 C 1381.2 -0.95274 -4.17261 0
M  V30 14221 C 1380.53 -0.184347 -5.34382 0
M  V30 14222 C 1381.83 -2.2741 -4.70194 0
M  V30 14223 H 1383.52 -1.54826 -2.5626 0
M  V30 14224 H 1381.07 -0.745886 -1.23177 0
M  V30 14225 H 1383.02 0.250654 -4.20654 0
M  V30 14226 H 1381.75 0.891638 -3.14193 0
M  V30 14227 H 1380.41 -1.21732 -3.45799 0
M  V30 14228 H 1380.05 0.73932 -4.97537 0
M  V30 14229 H 1379.75 -0.79949 -5.82136 0
M  V30 14230 H 1381.28 0.0886344 -6.10536 0
M  V30 14231 H 1382.69 -2.05433 -5.35229 0
M  V30 14232 H 1381.09 -2.84265 -5.28501 0
M  V30 14233 H 1382.16 -2.91708 -3.87342 0
M  V30 14234 N 1383.5 1.34231 -0.825823 0
M  V30 14235 C 1384.73 2.02949 -0.427354 0
M  V30 14236 C 1385.15 1.61772 0.959755 0
M  V30 14237 O 1384.51 0.803799 1.62508 0
M  V30 14238 C 1384.56 3.56522 -0.540799 0
M  V30 14239 O 1383.66 4.10065 0.438213 0
M  V30 14240 H 1383 0.640378 -0.175535 0
M  V30 14241 H 1385.53 1.71416 -1.11704 0
M  V30 14242 H 1385.54 4.05857 -0.41763 0
M  V30 14243 H 1384.22 3.85839 -1.55246 0
M  V30 14244 H 1382.79 3.71894 0.273687 0
M  V30 14245 N 1384.98 0.581051 1.46498 0
M  V30 14246 C 1386.23 0.0659956 2.02392 0
M  V30 14247 C 1386.55 -1.29329 1.45273 0
M  V30 14248 O 1385.81 -1.86047 0.607041 0
M  V30 14249 C 1386.11 -0.0514774 3.57363 0
M  V30 14250 C 1385.77 1.24 4.33514 0
M  V30 14251 C 1384.44 1.59383 4.54038 0
M  V30 14252 C 1386.79 2.09473 4.77253 0
M  V30 14253 C 1384.12 2.8004 5.15552 0
M  V30 14254 C 1386.47 3.29355 5.401 0
M  V30 14255 C 1385.13 3.65022 5.58852 0
M  V30 14256 H 1384.4 0.0241495 0.740606 0
M  V30 14257 H 1387.05 0.757354 1.75887 0
M  V30 14258 H 1385.35 -0.825955 3.82995 0
M  V30 14259 H 1387.05 -0.465726 3.98286 0
M  V30 14260 H 1383.64 0.954547 4.17835 0
M  V30 14261 H 1387.83 1.83441 4.61154 0
M  V30 14262 H 1383.08 3.07814 5.28262 0
M  V30 14263 H 1387.26 3.95855 5.7295 0
M  V30 14264 H 1384.88 4.58607 6.06287 0
M  V30 14265 N 1386.46 -1.54343 0.318742 0
M  V30 14266 C 1387.69 -2.04894 -0.287378 0
M  V30 14267 C 1388.1 -1.19514 -1.46157 0
M  V30 14268 O 1387.46 -0.224722 -1.81111 0
M  V30 14269 C 1387.51 -3.54124 -0.726505 0
M  V30 14270 O 1387.23 -4.36261 0.400968 0
M  V30 14271 C 1388.73 -4.20748 -1.39594 0
M  V30 14272 H 1385.95 -0.668323 -0.0598724 0
M  V30 14273 H 1388.49 -1.99177 0.463531 0
M  V30 14274 H 1386.65 -3.60145 -1.4274 0
M  V30 14275 H 1387.06 -5.2447 0.0558714 0
M  V30 14276 H 1388.54 -5.26632 -1.65418 0
M  V30 14277 H 1389.01 -3.71566 -2.3417 0
M  V30 14278 H 1389.62 -4.18852 -0.737749 0
M  V30 14279 N 1387.94 -0.0468143 -1.5753 0
M  V30 14280 C 1388.85 0.944362 -2.14753 0
M  V30 14281 C 1389.86 1.34473 -1.10422 0
M  V30 14282 O 1391.04 1.42254 -1.42569 0
M  V30 14283 C 1388.1 2.2023 -2.67768 0
M  V30 14284 C 1387.16 1.8607 -3.8688 0
M  V30 14285 C 1386.4 3.05867 -4.37357 0
M  V30 14286 O 1386.62 4.19099 -3.86927 0
M  V30 14287 O 1385.55 2.87134 -5.28997 0
M  V30 14288 H 1389.38 0.48772 -2.99758 0
M  V30 14289 H 1386.96 0.174831 -1.48374 0
M  V30 14290 H 1388.85 2.94044 -3.01855 0
M  V30 14291 H 1387.52 2.65041 -1.85836 0
M  V30 14292 H 1386.43 1.09586 -3.5769 0
M  V30 14293 H 1387.76 1.46062 -4.70028 0
M  V30 14294 N 1389.41 1.55964 0.226527 0
M  V30 14295 C 1390.64 1.83168 0.972846 0
M  V30 14296 C 1391.06 0.626512 1.7736 0
M  V30 14297 O 1390.42 -0.42468 1.76256 0
M  V30 14298 C 1390.47 3.08315 1.87014 0
M  V30 14299 O 1389.57 2.8666 2.96479 0
M  V30 14300 H 1388.92 0.604041 0.275736 0
M  V30 14301 H 1391.45 2.03172 0.241345 0
M  V30 14302 H 1391.46 3.38288 2.28091 0
M  V30 14303 H 1390.13 3.95663 1.28154 0
M  V30 14304 H 1388.71 2.67907 2.59384 0
M  V30 14305 N 1390.89 -0.493031 1.4969 0
M  V30 14306 C 1391.82 -1.60215 1.69863 0
M  V30 14307 C 1392.8 -1.61053 0.547362 0
M  V30 14308 O 1393.99 -1.77667 0.784093 0
M  V30 14309 C 1391.12 -2.98662 1.77252 0
M  V30 14310 C 1390.07 -3.1269 2.92248 0
M  V30 14311 C 1389.4 -4.52567 2.84758 0
M  V30 14312 C 1390.7 -2.91965 4.33074 0
M  V30 14313 H 1392.39 -1.43587 2.62723 0
M  V30 14314 H 1389.94 -0.689334 1.26429 0
M  V30 14315 H 1391.89 -3.7616 1.89951 0
M  V30 14316 H 1390.62 -3.16397 0.809976 0
M  V30 14317 H 1389.27 -2.37619 2.79164 0
M  V30 14318 H 1388.92 -4.6719 1.86394 0
M  V30 14319 H 1388.62 -4.62893 3.61944 0
M  V30 14320 H 1390.15 -5.32116 2.99475 0
M  V30 14321 H 1391.56 -3.59228 4.46798 0
M  V30 14322 H 1389.96 -3.13756 5.11544 0
M  V30 14323 H 1391.03 -1.88015 4.46966 0
M  V30 14324 N 1392.37 -1.38898 -0.744656 0
M  V30 14325 C 1393.6 -1.38848 -1.53391 0
M  V30 14326 C 1394.01 0.0194949 -1.8879 0
M  V30 14327 O 1393.37 0.988399 -1.53417 0
M  V30 14328 C 1393.42 -2.25243 -2.8275 0
M  V30 14329 O 1393.14 -3.60557 -2.48858 0
M  V30 14330 C 1394.64 -2.33471 -3.76837 0
M  V30 14331 H 1391.86 -0.4746 -0.474338 0
M  V30 14332 H 1394.41 -1.82591 -0.920902 0
M  V30 14333 H 1392.56 -1.84938 -3.40407 0
M  V30 14334 H 1392.98 -4.06142 -3.31887 0
M  V30 14335 H 1394.45 -2.9819 -4.64528 0
M  V30 14336 H 1394.93 -1.351 -4.17905 0
M  V30 14337 H 1395.53 -2.74205 -3.25103 0
M  V30 14338 N 1393.85 0.973806 -1.23914 0
M  V30 14339 C 1395.07 1.7564 -1.10296 0
M  V30 14340 C 1395.5 1.84984 0.340954 0
M  V30 14341 O 1394.86 1.31629 1.24674 0
M  V30 14342 C 1394.9 3.15809 -1.7406 0
M  V30 14343 O 1394.01 3.99911 -1.00722 0
M  V30 14344 H 1393.35 0.540133 -0.386202 0
M  V30 14345 H 1395.88 1.22197 -1.64101 0
M  V30 14346 H 1395.89 3.66359 -1.79568 0
M  V30 14347 H 1394.56 3.08324 -2.79122 0
M  V30 14348 H 1393.14 3.58405 -1.02956 0
M  V30 14349 N 1395.33 1.05191 1.17357 0
M  V30 14350 C 1396.57 0.760479 1.87246 0
M  V30 14351 C 1396.9 -0.714618 1.81434 0
M  V30 14352 O 1396.17 -1.51636 1.24029 0
M  V30 14353 H 1394.75 0.278317 0.693216 0
M  V30 14354 H 1397.41 1.33106 1.42369 0
M  V30 14355 H 1396.5 1.07542 2.92987 0
M  V30 14356 N 1396.8 -1.33791 0.83293 0
M  V30 14357 C 1397.77 -2.27637 0.267196 0
M  V30 14358 C 1398.77 -1.50709 -0.560669 0
M  V30 14359 O 1399.96 -1.70109 -0.375321 0
M  V30 14360 C 1397.09 -3.35136 -0.624248 0
M  V30 14361 H 1398.28 -2.79186 1.09522 0
M  V30 14362 H 1395.84 -1.44093 0.605554 0
M  V30 14363 H 1396.57 -2.88818 -1.47494 0
M  V30 14364 H 1396.36 -3.92087 -0.0319827 0
M  V30 14365 H 1397.85 -4.05113 -1.01355 0
M  V30 14366 N 1398.28 -0.588812 -1.46187 0
M  V30 14367 C 1399.51 -0.0806571 -2.07243 0
M  V30 14368 C 1399.93 1.21766 -1.43369 0
M  V30 14369 O 1399.29 1.73694 -0.51964 0
M  V30 14370 C 1399.34 0.065267 -3.60541 0
M  V30 14371 O 1398.44 1.12026 -3.96893 0
M  V30 14372 H 1397.78 -0.0655622 -0.660755 0
M  V30 14373 H 1400.31 -0.813489 -1.87733 0
M  V30 14374 H 1400.32 0.269494 -4.07109 0
M  V30 14375 H 1399 -0.88284 -4.06422 0
M  V30 14376 H 1397.58 0.894 -3.62025 0
M  V30 14377 N 1399.76 1.54172 -0.326923 0
M  V30 14378 C 1400.69 2.27402 0.530154 0
M  V30 14379 C 1401.67 1.28325 1.11655 0
M  V30 14380 O 1402.86 1.57142 1.14105 0
M  V30 14381 C 1399.99 3.03435 1.68951 0
M  V30 14382 C 1398.94 4.09877 1.23226 0
M  V30 14383 C 1398.27 4.7377 2.47882 0
M  V30 14384 C 1399.57 5.21161 0.344698 0
M  V30 14385 H 1401.26 2.99291 -0.0806959 0
M  V30 14386 H 1398.81 1.43944 -0.0402511 0
M  V30 14387 H 1400.76 3.53396 2.29541 0
M  V30 14388 H 1399.48 2.29169 2.327 0
M  V30 14389 H 1398.14 3.60805 0.649267 0
M  V30 14390 H 1397.79 3.96116 3.10002 0
M  V30 14391 H 1397.49 5.45674 2.17977 0
M  V30 14392 H 1399.01 5.26507 3.09229 0
M  V30 14393 H 1400.43 5.66859 0.856979 0
M  V30 14394 H 1398.83 5.99941 0.138276 0
M  V30 14395 H 1399.9 4.80874 -0.623575 0
M  V30 14396 N 1401.24 0.0551678 1.57503 0
M  V30 14397 C 1402.17 -0.915714 2.14795 0
M  V30 14398 C 1403.15 -1.32179 1.07065 0
M  V30 14399 O 1404.33 -1.39579 1.35023 0
M  V30 14400 C 1401.46 -2.18916 2.69616 0
M  V30 14401 C 1400.42 -1.92303 3.82366 0
M  V30 14402 C 1399.74 -3.26136 4.23721 0
M  V30 14403 C 1401.04 -1.24146 5.07331 0
M  V30 14404 H 1402.74 -0.438499 2.96171 0
M  V30 14405 H 1400.28 -0.209477 1.42468 0
M  V30 14406 H 1402.24 -2.87239 3.08337 0
M  V30 14407 H 1400.96 -2.6885 1.85437 0
M  V30 14408 H 1399.62 -1.26391 3.44123 0
M  V30 14409 H 1399.27 -3.73879 3.36487 0
M  V30 14410 H 1398.97 -3.09126 4.99715 0
M  V30 14411 H 1400.49 -3.95684 4.65045 0
M  V30 14412 H 1401.91 -1.8251 5.43473 0
M  V30 14413 H 1400.3 -1.17449 5.88494 0
M  V30 14414 H 1401.37 -0.218073 4.84409 0
M  V30 14415 N 1402.72 -1.56081 -0.218252 0
M  V30 14416 C 1403.94 -1.83334 -0.958964 0
M  V30 14417 C 1404.36 -0.63472 -1.77811 0
M  V30 14418 O 1403.72 0.396729 -1.78136 0
M  V30 14419 C 1403.77 -3.09141 -1.87387 0
M  V30 14420 O 1403.49 -4.24379 -1.08783 0
M  V30 14421 C 1404.99 -3.49405 -2.7282 0
M  V30 14422 H 1402.21 -0.609375 -0.280898 0
M  V30 14423 H 1404.75 -2.03174 -0.232486 0
M  V30 14424 H 1402.91 -2.91267 -2.55426 0
M  V30 14425 H 1403.32 -4.9587 -1.70919 0
M  V30 14426 H 1404.8 -4.40461 -3.32713 0
M  V30 14427 H 1405.27 -2.71311 -3.45379 0
M  V30 14428 H 1405.88 -3.6973 -2.1019 0
M  V30 14429 N 1404.2 0.485086 -1.49949 0
M  V30 14430 C 1405.13 1.59312 -1.7071 0
M  V30 14431 C 1406.11 1.6076 -0.555896 0
M  V30 14432 O 1407.29 1.77249 -0.793504 0
M  V30 14433 C 1404.42 2.97718 -1.78834 0
M  V30 14434 C 1403.38 3.11136 -2.93902 0
M  V30 14435 C 1402.7 4.51051 -2.87154 0
M  V30 14436 C 1404 2.89665 -4.34617 0
M  V30 14437 H 1405.7 1.42192 -2.6348 0
M  V30 14438 H 1403.24 0.68262 -1.26792 0
M  V30 14439 H 1405.19 3.75148 -1.91943 0
M  V30 14440 H 1403.92 3.15963 -0.826744 0
M  V30 14441 H 1402.58 2.36135 -2.80421 0
M  V30 14442 H 1402.23 4.66195 -1.88869 0
M  V30 14443 H 1401.93 4.60967 -3.64394 0
M  V30 14444 H 1403.45 5.3052 -3.02293 0
M  V30 14445 H 1404.86 3.56853 -4.48697 0
M  V30 14446 H 1403.26 3.11039 -5.13201 0
M  V30 14447 H 1404.33 1.85642 -4.47956 0
M  V30 14448 N 1405.67 1.39291 0.737279 0
M  V30 14449 C 1406.62 1.37969 1.87263 0
M  V30 14450 C 1407.62 0.263156 1.67344 0
M  V30 14451 O 1408.82 0.433069 1.74713 0
M  V30 14452 H 1405.2 0.430782 0.616385 0
M  V30 14453 H 1407.17 2.33741 1.85494 0
M  V30 14454 C 1405.92 1.23779 3.24922 0
M  V30 14455 H 1405.24 2.08963 3.40844 0
M  V30 14456 H 1406.68 1.26911 4.04561 0
M  V30 14457 C 1405.14 -0.0539778 3.36857 0
M  V30 14458 O 1405.67 -1.02501 3.88402 0
M  V30 14459 N 1403.87 -0.116275 2.90367 0
M  V30 14460 H 1403.42 0.674622 2.48609 0
M  V30 14461 H 1403.38 -0.980107 2.98733 0
M  V30 14462 N 1407.15 -0.967221 1.24429 0
M  V30 14463 C 1408.1 -2.06187 1.03709 0
M  V30 14464 C 1409.07 -1.66025 -0.0497665 0
M  V30 14465 O 1410.25 -1.90511 0.104951 0
M  V30 14466 C 1407.39 -3.38952 0.648477 0
M  V30 14467 C 1406.51 -3.92306 1.80886 0
M  V30 14468 C 1405.64 -5.13342 1.36579 0
M  V30 14469 C 1404.68 -5.58893 2.49609 0
M  V30 14470 N 1403.82 -6.71148 2.06165 0
M  V30 14471 H 1408.66 -2.23244 1.97399 0
M  V30 14472 H 1406.19 -1.09415 0.983192 0
M  V30 14473 H 1408.15 -4.15237 0.40419 0
M  V30 14474 H 1406.78 -3.21819 -0.25142 0
M  V30 14475 H 1405.83 -3.12656 2.1668 0
M  V30 14476 H 1407.15 -4.22071 2.65815 0
M  V30 14477 H 1406.3 -5.97003 1.0804 0
M  V30 14478 H 1405.04 -4.85262 0.487051 0
M  V30 14479 H 1404.04 -4.73805 2.78906 0
M  V30 14480 H 1405.27 -5.88987 3.3804 0
M  V30 14481 H 1403.22 -6.44802 1.20691 0
M  V30 14482 H 1403.13 -7.00366 2.84647 0
M  V30 14483 H 1404.4 -7.5825 1.80769 0
M  V30 14484 N 1408.63 -1.05812 -1.16797 0
M  V30 14485 C 1409.56 -0.608879 -2.19927 0
M  V30 14486 C 1410.54 0.365798 -1.58432 0
M  V30 14487 O 1411.72 0.27593 -1.8647 0
M  V30 14488 C 1408.85 0.108061 -3.38528 0
M  V30 14489 C 1407.9 -0.822607 -4.18492 0
M  V30 14490 S 1408.73 -2.3152 -4.82865 0
M  V30 14491 C 1409.89 -1.60961 -6.04849 0
M  V30 14492 H 1410.12 -1.48261 -2.57693 0
M  V30 14493 H 1407.65 -0.870648 -1.27511 0
M  V30 14494 H 1409.61 0.515496 -4.0725 0
M  V30 14495 H 1408.27 0.95792 -2.99137 0
M  V30 14496 H 1407.46 -0.267448 -5.0329 0
M  V30 14497 H 1407.07 -1.1697 -3.55238 0
M  V30 14498 H 1409.36 -0.912454 -6.71327 0
M  V30 14499 H 1410.3 -2.43531 -6.64905 0
M  V30 14500 H 1410.71 -1.09431 -5.53792 0
M  V30 14501 N 1410.11 1.33347 -0.840014 0
M  V30 14502 C 1411.52 1.80077 -0.492851 0
M  V30 14503 C 1411.87 1.69495 0.988221 0
M  V30 14504 O 1410.99 1.2449 1.77006 0
M  V30 14505 C 1411.59 3.2696 -0.887827 0
M  V30 14506 C 1410.15 3.71703 -0.592785 0
M  V30 14507 C 1409.3 2.54742 -1.09554 0
M  V30 14508 H 1412.25 1.20853 -1.02861 0
M  V30 14509 H 1412.27 3.79983 -0.198327 0
M  V30 14510 H 1411.78 3.3463 -1.96581 0
M  V30 14511 H 1409.88 3.69559 0.475086 0
M  V30 14512 H 1409.99 4.65123 -1.14882 0
M  V30 14513 H 1408.36 2.49411 -0.516357 0
M  V30 14514 H 1409.14 2.65173 -2.18032 0
M  V30 14515 N 1411.59 0.596556 1.45873 0
M  V30 14516 C 1412.54 -0.14991 2.27507 0
M  V30 14517 C 1413.52 -0.848942 1.36681 0
M  V30 14518 O 1414.71 -0.740752 1.60754 0
M  V30 14519 C 1411.84 -1.15391 3.23326 0
M  V30 14520 C 1410.93 -0.456283 4.21638 0
M  V30 14521 N 1411.32 0.495911 5.03363 0
M  V30 14522 C 1409.62 -0.705263 4.40389 0
M  V30 14523 C 1410.32 0.904941 5.74618 0
M  V30 14524 N 1409.29 0.251069 5.4302 0
M  V30 14525 H 1413.09 0.581593 2.88088 0
M  V30 14526 H 1410.61 0.419386 1.56891 0
M  V30 14527 H 1412.61 -1.70299 3.80531 0
M  V30 14528 H 1411.27 -1.88609 2.64305 0
M  V30 14529 H 1412.28 0.872126 5.10504 0
M  V30 14530 H 1408.95 -1.42296 3.92502 0
M  V30 14531 H 1410.34 1.68965 6.50308 0
M  V30 14532 N 1413.06 -1.53996 0.335095 0
M  V30 14533 C 1414.34 -1.92984 -0.318848 0
M  V30 14534 C 1414.72 -1.26585 -1.68936 0
M  V30 14535 O 1414.07 -0.413702 -2.24724 0
M  V30 14536 C 1414.28 -3.46705 -0.399568 0
M  V30 14537 C 1415.63 -4.19527 -0.654411 0
M  V30 14538 O 1416.65 -3.52923 -0.482026 0
M  V30 14539 O 1415.51 -5.37499 -0.987756 0
M  V30 14540 H 1412.6 -0.806202 -0.1843 0
M  V30 14541 H 1415.15 -1.6526 0.385653 0
M  V30 14542 H 1413.92 -3.87235 0.56253 0
M  V30 14543 H 1413.54 -3.8057 -1.15119 0
M  V30 14544 N 1414.54 -0.0635198 -1.57472 0
M  V30 14545 C 1415.77 0.615841 -1.97208 0
M  V30 14546 C 1416.18 1.64181 -0.940281 0
M  V30 14547 O 1415.52 1.83515 0.0824321 0
M  V30 14548 C 1415.58 1.34908 -3.33227 0
M  V30 14549 C 1415.25 0.477535 -4.54498 0
M  V30 14550 C 1416.25 -0.261479 -5.19242 0
M  V30 14551 C 1413.93 0.404839 -5.00666 0
M  V30 14552 C 1415.92 -1.0615 -6.28499 0
M  V30 14553 C 1413.61 -0.398859 -6.09797 0
M  V30 14554 C 1414.61 -1.1307 -6.73576 0
M  V30 14555 O 1414.3 -1.92116 -7.80607 0
M  V30 14556 H 1414.03 0.172273 -0.65368 0
M  V30 14557 H 1416.58 -0.129963 -2.04988 0
M  V30 14558 H 1414.81 2.14078 -3.22036 0
M  V30 14559 H 1416.5 1.91988 -3.57625 0
M  V30 14560 H 1417.27 -0.214859 -4.84524 0
M  V30 14561 H 1413.15 0.964087 -4.50806 0
M  V30 14562 H 1416.69 -1.63324 -6.78212 0
M  V30 14563 H 1412.59 -0.447073 -6.4395 0
M  V30 14564 H 1413.36 -1.84459 -7.97444 0
M  V30 14565 N 1416.02 1.56195 0.209972 0
M  V30 14566 C 1417.27 1.7939 0.930796 0
M  V30 14567 C 1417.59 0.634038 1.84404 0
M  V30 14568 O 1416.86 -0.348467 1.92776 0
M  V30 14569 H 1415.44 0.661676 0.346689 0
M  V30 14570 H 1418.1 1.93665 0.219049 0
M  V30 14571 H 1417.2 2.71982 1.53075 0
M  V30 14572 N 1417.5 -0.477127 1.50204 0
M  V30 14573 C 1418.43 -1.59319 1.64773 0
M  V30 14574 C 1419.44 -1.53951 0.529427 0
M  V30 14575 O 1420.63 -1.59449 0.802388 0
M  V30 14576 C 1417.73 -2.98185 1.61055 0
M  V30 14577 C 1416.9 -3.28486 2.88817 0
M  V30 14578 C 1415.96 -4.46878 2.77825 0
M  V30 14579 O 1414.99 -4.47483 3.51778 0
M  V30 14580 N 1416.19 -5.48187 1.90974 0
M  V30 14581 H 1418.96 -1.4724 2.61037 0
M  V30 14582 H 1416.52 -0.66544 1.47592 0
M  V30 14583 H 1418.51 -3.75345 1.51323 0
M  V30 14584 H 1417.08 -3.04064 0.725509 0
M  V30 14585 H 1416.3 -2.39997 3.12722 0
M  V30 14586 H 1417.59 -3.4554 3.7347 0
M  V30 14587 H 1416.99 -5.50515 1.30192 0
M  V30 14588 H 1415.54 -6.24355 1.87148 0
M  V30 14589 N 1418.98 -1.3968 -0.729882 0
M  V30 14590 C 1419.89 -1.41094 -1.87429 0
M  V30 14591 C 1420.9 -0.305142 -1.71303 0
M  V30 14592 O 1422.08 -0.54744 -1.93817 0
M  V30 14593 C 1419.14 -1.25786 -3.23077 0
M  V30 14594 C 1418.2 -2.46382 -3.5156 0
M  V30 14595 C 1417.44 -2.31795 -4.80735 0
M  V30 14596 O 1417.66 -1.32415 -5.54818 0
M  V30 14597 O 1416.59 -3.20883 -5.09232 0
M  V30 14598 H 1420.42 -2.37571 -1.89192 0
M  V30 14599 H 1418.01 -1.2085 -0.878389 0
M  V30 14600 H 1419.89 -1.19402 -4.0413 0
M  V30 14601 H 1418.56 -0.324065 -3.22074 0
M  V30 14602 H 1417.47 -2.58343 -2.70573 0
M  V30 14603 H 1418.8 -3.38473 -3.57347 0
M  V30 14604 N 1420.45 0.960609 -1.2494 0
M  V30 14605 C 1421.7 1.70111 -1.09117 0
M  V30 14606 C 1422.02 1.91466 0.369544 0
M  V30 14607 O 1421.29 1.49749 1.26302 0
M  V30 14608 H 1419.87 0.630372 -0.400799 0
M  V30 14609 H 1422.54 1.15525 -1.56971 0
M  V30 14610 H 1421.63 2.68277 -1.5948 0
M  V30 14611 N 1421.93 1.0643 1.16234 0
M  V30 14612 C 1423.34 0.806012 1.68405 0
M  V30 14613 C 1423.69 -0.670197 1.84398 0
M  V30 14614 O 1422.82 -1.51975 1.54054 0
M  V30 14615 C 1423.41 1.45654 3.05893 0
M  V30 14616 C 1421.97 1.24599 3.55179 0
M  V30 14617 C 1421.12 1.53216 2.31128 0
M  V30 14618 H 1424.07 1.22759 1.00578 0
M  V30 14619 H 1424.09 0.872616 3.70359 0
M  V30 14620 H 1423.6 2.53092 2.94221 0
M  V30 14621 H 1421.71 0.191407 3.72108 0
M  V30 14622 H 1421.82 1.95967 4.37188 0
M  V30 14623 H 1420.18 0.952755 2.36209 0
M  V30 14624 H 1420.97 2.61816 2.22052 0
M  V30 14625 N 1423.41 -1.329 0.847073 0
M  V30 14626 C 1424.34 -2.31546 0.301422 0
M  V30 14627 C 1425.32 -1.59342 -0.595317 0
M  V30 14628 O 1426.51 -1.87188 -0.517151 0
M  V30 14629 C 1423.64 -3.43423 -0.517454 0
M  V30 14630 C 1422.59 -4.27055 0.284195 0
M  V30 14631 C 1421.92 -5.30624 -0.658944 0
M  V30 14632 C 1423.22 -5.00123 1.50578 0
M  V30 14633 H 1424.91 -2.77433 1.12567 0
M  V30 14634 H 1422.46 -1.3338 0.542739 0
M  V30 14635 H 1424.41 -4.11467 -0.909543 0
M  V30 14636 H 1423.13 -2.96246 -1.37499 0
M  V30 14637 H 1421.79 -3.60648 0.657944 0
M  V30 14638 H 1421.44 -4.79702 -1.51311 0
M  V30 14639 H 1421.14 -5.87464 -0.12662 0
M  V30 14640 H 1422.66 -6.01533 -1.04837 0
M  V30 14641 H 1424.08 -5.6089 1.18641 0
M  V30 14642 H 1422.48 -5.66652 1.97549 0
M  V30 14643 H 1423.55 -4.28424 2.27115 0
M  V30 14644 N 1424.89 -0.604284 -1.45555 0
M  V30 14645 C 1425.8 0.118409 -2.34301 0
M  V30 14646 C 1426.81 0.863807 -1.51044 0
M  V30 14647 O 1427.99 0.822138 -1.83856 0
M  V30 14648 C 1425.06 1.10538 -3.28606 0
M  V30 14649 C 1424.12 0.362301 -4.27768 0
M  V30 14650 C 1423.35 1.30226 -5.17568 0
M  V30 14651 O 1423.57 2.53991 -5.10729 0
M  V30 14652 O 1422.51 0.801116 -5.96545 0
M  V30 14653 H 1426.33 -0.610816 -2.97494 0
M  V30 14654 H 1423.92 -0.364562 -1.44884 0
M  V30 14655 H 1425.8 1.67392 -3.86727 0
M  V30 14656 H 1424.47 1.81569 -2.67982 0
M  V30 14657 H 1423.38 -0.248616 -3.73273 0
M  V30 14658 H 1424.71 -0.307454 -4.91239 0
M  V30 14659 N 1426.37 1.53816 -0.343257 0
M  V30 14660 C 1427.61 2.00512 0.252845 0
M  V30 14661 C 1427.94 1.23274 1.51091 0
M  V30 14662 O 1427.21 0.339841 1.9293 0
M  V30 14663 H 1425.79 0.740751 0.0964202 0
M  V30 14664 H 1428.45 1.89288 -0.464347 0
M  V30 14665 H 1427.54 3.08142 0.495499 0
M  V30 14666 N 1427.84 0.0718701 1.57436 0
M  V30 14667 C 1428.79 -0.895335 2.12726 0
M  V30 14668 C 1429.76 -1.29528 1.03979 0
M  V30 14669 O 1430.95 -1.38113 1.31642 0
M  V30 14670 C 1428.09 -2.15755 2.6934 0
M  V30 14671 C 1427.2 -1.81023 3.92243 0
M  V30 14672 C 1426.33 -3.01856 4.371 0
M  V30 14673 C 1425.37 -2.63141 5.52651 0
M  V30 14674 N 1424.51 -3.76734 5.92466 0
M  V30 14675 H 1429.35 -0.416964 2.95068 0
M  V30 14676 H 1426.89 -0.194165 1.45813 0
M  V30 14677 H 1428.85 -2.89642 3.00272 0
M  V30 14678 H 1427.48 -2.61132 1.89762 0
M  V30 14679 H 1426.53 -0.971983 3.67773 0
M  V30 14680 H 1427.84 -1.4854 4.76169 0
M  V30 14681 H 1426.99 -3.84022 4.69694 0
M  V30 14682 H 1425.73 -3.37533 3.52027 0
M  V30 14683 H 1424.74 -1.79397 5.19708 0
M  V30 14684 H 1425.96 -2.28635 6.39455 0
M  V30 14685 H 1423.91 -4.12173 5.10343 0
M  V30 14686 H 1423.83 -3.48019 6.71132 0
M  V30 14687 H 1425.09 -4.59479 6.29682 0
M  V30 14688 N 1429.32 -1.56304 -0.201686 0
M  V30 14689 C 1430.57 -1.79433 -0.921241 0
M  V30 14690 C 1430.88 -0.643943 -1.84696 0
M  V30 14691 O 1432.09 -0.759359 -2.60665 0
M  V30 14692 C 1430.55 -3.17835 -1.68846 0
M  V30 14693 C 1430.15 -4.40655 -0.807892 0
M  V30 14694 C 1431.9 -3.50277 -2.39805 0
M  V30 14695 C 1429.81 -5.7008 -1.5736 0
M  V30 14696 H 1428.74 -0.669029 -0.34773 0
M  V30 14697 H 1431.39 -1.82667 -0.174657 0
M  V30 14698 H 1429.77 -3.08832 -2.47869 0
M  V30 14699 H 1430.94 -4.60765 -0.0567923 0
M  V30 14700 H 1429.26 -4.15873 -0.209465 0
M  V30 14701 H 1431.85 -4.44207 -2.97631 0
M  V30 14702 H 1432.2 -2.7371 -3.1367 0
M  V30 14703 H 1432.73 -3.60698 -1.67754 0
M  V30 14704 H 1429.47 -6.49595 -0.877855 0
M  V30 14705 H 1428.99 -5.53999 -2.2988 0
M  V30 14706 H 1430.67 -6.10964 -2.12912 0
M  V30 14707 O 1430.84 0.346968 -1.57729 0
M  V30 14708 H 1431.53 0.99676 -1.66085 0
M  V30 END ATOM
M  V30 BEGIN BOND
M  V30 END BOND
M  V30 END CTAB
M  END
$$$$
