drugbank_target|P0AC44 Succinate dehydrogenase hydrophobic membrane anchor subunit (DB04631; DB07671; DB08690)
 OpenBabel12092120423D

  0  0  0     0  0            999 V3000
M  V30 BEGIN CTAB
M  V30 COUNTS 1870 1895 0 0 0
M  V30 BEGIN ATOM
M  V30 1 H -0.908 1.98254 -0.117106 0
M  V30 2 N 0 1.576 0 0
M  V30 3 C 0.933 2.03868 1.02534 0
M  V30 4 C 1.911 0.928543 1.3348 0
M  V30 5 O 3.095 1.19667 1.45644 0
M  V30 6 C 0.222 2.43627 2.35294 0
M  V30 7 C -0.732 3.65373 2.2001 0
M  V30 8 S 0.101 5.13292 1.52614 0
M  V30 9 C 1.257 5.56322 2.86805 0
M  V30 10 H 1.49 2.90518 0.631377 0
M  V30 11 H -0.977 1.52953 0.210867 0
M  V30 12 H 0.981 2.67203 3.11629 0
M  V30 13 H -0.358 1.57376 2.7183 0
M  V30 14 H -1.165 3.90944 3.18086 0
M  V30 15 H -1.563 3.418 1.51819 0
M  V30 16 H 0.729 5.58782 3.83104 0
M  V30 17 H 1.672 6.56266 2.65933 0
M  V30 18 H 2.08 4.83886 2.90714 0
M  V30 19 N 1.4781 -0.272755 1.55222 0
M  V30 20 C 2.7241 -1.00581 1.761 0
M  V30 21 C 3.0571 -1.85932 0.560625 0
M  V30 22 O 2.3321 -1.89416 -0.441801 0
M  V30 23 C 2.6151 -1.88816 3.06628 0
M  V30 24 C 2.4681 -1.06457 4.37021 0
M  V30 25 C 3.7871 -2.8752 3.33197 0
M  V30 26 H 0.9061 -0.364244 0.640699 0
M  V30 27 H 3.5481 -0.278189 1.87952 0
M  V30 28 H 1.6981 -2.50856 2.96654 0
M  V30 29 H 3.3701 -0.464863 4.58952 0
M  V30 30 H 1.6131 -0.368043 4.32236 0
M  V30 31 H 2.2841 -1.71514 5.24678 0
M  V30 32 H 4.7601 -2.35615 3.42965 0
M  V30 33 H 3.6361 -3.46399 4.25792 0
M  V30 34 H 3.8971 -3.62657 2.52849 0
M  V30 35 N 2.9562 -1.48159 -0.537278 0
M  V30 36 C 4.1812 -1.59707 -1.32319 0
M  V30 37 C 4.6062 -0.254859 -1.86365 0
M  V30 38 O 3.9642 0.772378 -1.64024 0
M  V30 39 C 4.0122 -2.6412 -2.45505 0
M  V30 40 O 3.1162 -2.20774 -3.48328 0
M  V30 41 H 2.4572 -0.535791 -0.392204 0
M  V30 42 H 4.9872 -1.94092 -0.647268 0
M  V30 43 H 4.9972 -2.85166 -2.91795 0
M  V30 44 H 3.6722 -3.61567 -2.05528 0
M  V30 45 H 2.2492 -2.09911 -3.08207 0
M  V30 46 N 4.4343 0.785586 -1.36625 0
M  V30 47 C 5.3823 1.91978 -1.31329 0
M  V30 48 C 6.3763 1.68162 -0.204416 0
M  V30 49 O 7.5823 1.76122 -0.371645 0
M  V30 50 H 3.9573 0.631087 -0.408942 0
M  V30 51 H 5.9283 1.93562 -2.27104 0
M  V30 52 C 4.6773 3.29055 -1.12329 0
M  V30 53 H 4.0003 3.4795 -1.96903 0
M  V30 54 H 5.4403 4.08756 -1.12671 0
M  V30 55 C 3.8993 3.36461 0.171861 0
M  V30 56 O 4.4293 3.84576 1.16035 0
M  V30 57 N 2.6353 2.89782 0.217846 0
M  V30 58 H 2.1823 2.50819 -0.587183 0
M  V30 59 H 2.1403 2.95119 1.08408 0
M  V30 60 N 5.9124 1.20967 1.01018 0
M  V30 61 C 6.8754 0.965918 2.07853 0
M  V30 62 C 7.8754 -0.0610545 1.60684 0
M  V30 63 O 9.0654 0.175681 1.73312 0
M  V30 64 C 6.1974 0.455513 3.37843 0
M  V30 65 H 7.3904 1.91365 2.3091 0
M  V30 66 H 4.9434 1.02594 1.17916 0
M  V30 67 H 5.6784 -0.497381 3.20463 0
M  V30 68 H 5.4634 1.19622 3.73407 0
M  V30 69 H 6.9534 0.304667 4.16487 0
M  V30 70 N 7.3905 -1.2043 1.01659 0
M  V30 71 C 8.6155 -1.94318 0.724942 0
M  V30 72 C 9.0405 -1.74266 -0.708034 0
M  V30 73 O 8.3985 -1.03694 -1.48719 0
M  V30 74 C 8.4465 -3.44486 1.06591 0
M  V30 75 O 7.5505 -4.12017 0.177599 0
M  V30 76 H 6.8915 -0.60708 0.26898 0
M  V30 77 H 9.4215 -1.52861 1.35995 0
M  V30 78 H 9.4315 -3.95106 1.01762 0
M  V30 79 H 8.1065 -3.58404 2.10997 0
M  V30 80 H 6.6835 -3.71821 0.283421 0
M  V30 81 N 8.8686 -0.792821 -1.36206 0
M  V30 82 C 9.8316 -0.199459 -2.2833 0
M  V30 83 C 10.8316 0.605189 -1.48977 0
M  V30 84 O 12.0216 0.425685 -1.68919 0
M  V30 85 C 9.1536 0.723523 -3.33134 0
M  V30 86 H 10.3466 -1.01181 -2.82316 0
M  V30 87 H 7.8996 -0.562485 -1.45828 0
M  V30 88 H 8.6346 1.56008 -2.84309 0
M  V30 89 H 8.4196 0.148436 -3.91819 0
M  V30 90 H 9.9096 1.13344 -4.01924 0
M  V30 91 N 10.3467 1.47872 -0.545128 0
M  V30 92 C 11.2767 2.32661 0.197793 0
M  V30 93 C 12.2577 1.43041 0.920504 0
M  V30 94 O 13.4427 1.71912 0.90333 0
M  V30 95 C 10.5727 3.24569 1.23582 0
M  V30 96 C 9.5267 4.23333 0.630323 0
M  V30 97 C 8.8527 5.0448 1.77211 0
M  V30 98 C 10.1527 5.20704 -0.407974 0
M  V30 99 H 11.8467 2.95024 -0.510045 0
M  V30 100 H 9.3927 1.4187 -0.246731 0
M  V30 101 H 11.3457 3.8272 1.76362 0
M  V30 102 H 10.0697 2.60236 1.97344 0
M  V30 103 H 8.7287 3.6639 0.123922 0
M  V30 104 H 8.3767 4.36561 2.49847 0
M  V30 105 H 8.0767 5.71339 1.37281 0
M  V30 106 H 9.6007 5.65487 2.3034 0
M  V30 107 H 11.0147 5.7329 0.033305 0
M  V30 108 H 9.4117 5.95699 -0.725486 0
M  V30 109 H 10.4817 4.66917 -1.30828 0
M  V30 110 N 11.8248 0.280983 1.55075 0
M  V30 111 C 13.0728 -0.333455 1.9933 0
M  V30 112 C 13.3938 -1.55937 1.17085 0
M  V30 113 O 12.6638 -1.94143 0.261805 0
M  V30 114 H 11.2438 -0.126197 0.736263 0
M  V30 115 H 13.9058 0.387678 1.91005 0
M  V30 116 H 13.0018 -0.619292 3.05894 0
M  V30 117 N 13.3029 -1.57598 0.00835791 0
M  V30 118 C 14.7189 -1.55764 -0.347822 0
M  V30 119 C 14.9189 -1.01186 -1.74252 0
M  V30 120 O 13.9749 -0.649371 -2.44007 0
M  V30 121 C 15.2879 -2.99927 -0.215407 0
M  V30 122 C 16.8359 -3.11656 -0.289725 0
M  V30 123 C 17.3109 -4.57621 -0.18634 0
M  V30 124 N 18.8019 -4.62557 -0.243978 0
M  V30 125 C 19.5369 -5.73094 -0.18745 0
M  V30 126 N 19.0329 -6.92753 -0.0810331 0
M  V30 127 N 20.8259 -5.61588 -0.239925 0
M  V30 128 H 12.9769 -1.91411 0.92062 0
M  V30 129 H 15.2399 -0.879562 0.353659 0
M  V30 130 H 14.9459 -3.43729 0.744512 0
M  V30 131 H 14.8199 -3.63865 -0.994097 0
M  V30 132 H 17.2069 -2.67779 -1.24009 0
M  V30 133 H 17.2879 -2.5048 0.51898 0
M  V30 134 H 16.9319 -5.02174 0.760519 0
M  V30 135 H 16.8619 -5.16752 -1.01364 0
M  V30 136 H 19.3529 -3.76481 -0.327217 0
M  V30 137 H 19.6659 -7.72787 -0.0440241 0
M  V30 138 H 18.0109 -6.94984 -0.0465419 0
M  V30 139 H 21.2019 -4.66996 -0.321317 0
M  V30 140 H 21.3749 -6.47714 -0.192407 0
M  V30 141 N 14.781 0.264519 -1.55364 0
M  V30 142 C 15.729 1.34702 -1.89626 0
M  V30 143 C 16.723 1.50712 -0.773459 0
M  V30 144 O 17.929 1.52395 -0.957897 0
M  V30 145 H 14.304 0.450682 -0.601988 0
M  V30 146 H 16.275 1.0306 -2.80038 0
M  V30 147 C 15.024 2.6989 -2.19214 0
M  V30 148 H 14.347 2.58365 -3.05103 0
M  V30 149 H 15.787 3.44553 -2.47102 0
M  V30 150 C 14.246 3.21637 -1.00254 0
M  V30 151 O 14.776 4.00973 -0.241501 0
M  V30 152 N 12.982 2.7943 -0.797938 0
M  V30 153 H 12.529 2.15026 -1.4185 0
M  V30 154 H 12.487 3.144 -0.00363422 0
M  V30 155 N 16.2591 1.48442 0.529413 0
M  V30 156 C 17.5071 1.56179 1.28267 0
M  V30 157 C 17.8281 0.237721 1.93546 0
M  V30 158 O 17.0981 -0.740779 1.81354 0
M  V30 159 H 15.6781 0.575367 0.476405 0
M  V30 160 H 18.3401 1.84909 0.61602 0
M  V30 161 H 17.4361 2.34312 2.06165 0
M  V30 162 N 17.7372 -0.778329 1.37039 0
M  V30 163 C 18.9832 -1.53892 1.32079 0
M  V30 164 C 19.3162 -1.9396 -0.0965386 0
M  V30 165 O 18.5912 -1.63568 -1.05242 0
M  V30 166 C 18.8742 -2.80847 2.25382 0
M  V30 167 C 18.7272 -2.47076 3.75864 0
M  V30 168 C 20.0462 -3.82741 2.1725 0
M  V30 169 H 17.1652 -0.558303 0.48111 0
M  V30 170 H 19.8072 -0.893397 1.67685 0
M  V30 171 H 17.9572 -3.35931 1.95148 0
M  V30 172 H 19.6292 -1.97957 4.16666 0
M  V30 173 H 17.8722 -1.79863 3.94755 0
M  V30 174 H 18.5432 -3.37798 4.36574 0
M  V30 175 H 21.0192 -3.37133 2.43887 0
M  V30 176 H 19.8952 -4.69303 2.84686 0
M  V30 177 H 20.1562 -4.2652 1.16331 0
M  V30 178 N 19.2153 -1.21501 -1.00376 0
M  V30 179 C 20.1653 -0.942843 -2.07592 0
M  V30 180 C 21.1493 0.102384 -1.60574 0
M  V30 181 O 22.3413 -0.10671 -1.76678 0
M  V30 182 C 19.4703 -0.510729 -3.3948 0
M  V30 183 C 18.5563 -1.59009 -3.93163 0
M  V30 184 N 18.9473 -2.81544 -4.20198 0
M  V30 185 C 17.2453 -1.45925 -4.21452 0
M  V30 186 C 17.9463 -3.51261 -4.63671 0
M  V30 187 N 16.9223 -2.78703 -4.66718 0
M  V30 188 H 20.7243 -1.87378 -2.26421 0
M  V30 189 H 18.2383 -1.11093 -1.18458 0
M  V30 190 H 20.2353 -0.297101 -4.1584 0
M  V30 191 H 18.8953 0.413436 -3.22057 0
M  V30 192 H 19.9063 -3.18075 -4.08716 0
M  V30 193 H 16.5833 -0.600467 -4.13159 0
M  V30 194 H 17.9733 -4.56183 -4.93302 0
M  V30 195 N 20.6934 1.19889 -1.02296 0
M  V30 196 C 21.9704 1.85148 -0.630832 0
M  V30 197 C 22.3504 1.91385 0.890782 0
M  V30 198 O 21.6984 1.42642 1.78509 0
M  V30 199 C 21.9084 3.24442 -1.28602 0
M  V30 200 C 23.2564 4.00663 -1.4055 0
M  V30 201 O 24.2804 3.33818 -1.24273 0
M  V30 202 O 23.1394 5.20387 -1.66913 0
M  V30 203 H 20.2334 0.797613 -0.218499 0
M  V30 204 H 22.7794 1.27427 -1.12074 0
M  V30 205 H 21.5514 3.14704 -2.32545 0
M  V30 206 H 21.1744 3.89802 -0.7836 0
M  V30 207 N 22.1715 0.800033 1.35784 0
M  V30 208 C 23.4185 0.377342 1.98953 0
M  V30 209 C 23.7465 -1.05378 1.6348 0
M  V30 210 O 23.0015 -1.74459 0.886707 0
M  V30 211 C 23.3005 0.500276 3.53881 0
M  V30 212 C 22.9665 1.89375 4.09204 0
M  V30 213 C 21.6285 2.27499 4.24025 0
M  V30 214 C 23.9805 2.8057 4.39238 0
M  V30 215 C 21.3085 3.562 4.66195 0
M  V30 216 C 23.6605 4.0871 4.82844 0
M  V30 217 C 22.3245 4.46843 4.95871 0
M  V30 218 H 21.5945 0.138079 0.728021 0
M  V30 219 H 24.2415 1.01955 1.62103 0
M  V30 220 H 22.5465 -0.225405 3.91151 0
M  V30 221 H 24.2435 0.154097 4.00704 0
M  V30 222 H 20.8335 1.58753 3.98115 0
M  V30 223 H 25.0175 2.52367 4.27346 0
M  V30 224 H 20.2735 3.85602 4.74469 0
M  V30 225 H 24.4475 4.79481 5.05046 0
M  V30 226 H 22.0745 5.46623 5.28306 0
M  V30 227 N 23.6496 -1.47581 0.552962 0
M  V30 228 C 24.8986 -2.01684 0.0251995 0
M  V30 229 C 25.2116 -1.43317 -1.33115 0
M  V30 230 O 26.4176 -1.89057 -1.94858 0
M  V30 231 C 24.8736 -3.599 -0.00542052 0
M  V30 232 C 24.4816 -4.27257 1.34742 0
M  V30 233 C 26.2256 -4.21768 -0.4808 0
M  V30 234 C 24.1326 -5.77467 1.27614 0
M  V30 235 H 23.0626 -0.753979 0.00565033 0
M  V30 236 H 25.7136 -1.69616 0.70018 0
M  V30 237 H 24.0956 -3.88911 -0.745961 0
M  V30 238 H 25.2696 -4.09893 2.10534 0
M  V30 239 H 23.5846 -3.77358 1.76039 0
M  V30 240 H 26.1816 -5.31838 -0.55246 0
M  V30 241 H 26.5246 -3.88651 -1.49184 0
M  V30 242 H 27.0576 -3.97273 0.204752 0
M  V30 243 H 23.7966 -6.15196 2.26304 0
M  V30 244 H 23.3166 -5.9718 0.55996 0
M  V30 245 H 24.9956 -6.3959 0.976421 0
M  V30 246 N 25.1277 -0.289203 -1.54924 0
M  V30 247 C 26.0577 0.58549 -2.2604 0
M  V30 248 C 27.0387 1.14753 -1.25562 0
M  V30 249 O 28.2237 1.17906 -1.54311 0
M  V30 250 C 25.3537 1.76305 -2.99222 0
M  V30 251 C 24.3077 1.33191 -4.06748 0
M  V30 252 C 23.6337 2.5937 -4.6758 0
M  V30 253 C 24.9337 0.471775 -5.20165 0
M  V30 254 H 26.6277 -0.00763532 -2.99399 0
M  V30 255 H 24.1737 -0.00511229 -1.43999 0
M  V30 256 H 26.1267 2.38097 -3.47689 0
M  V30 257 H 24.8507 2.38223 -2.23422 0
M  V30 258 H 23.5097 0.737121 -3.59113 0
M  V30 259 H 23.1577 3.19576 -3.88433 0
M  V30 260 H 22.8577 2.31228 -5.40192 0
M  V30 261 H 24.3817 3.21985 -5.18804 0
M  V30 262 H 25.7957 0.995056 -5.64599 0
M  V30 263 H 24.1927 0.284639 -5.99425 0
M  V30 264 H 25.2627 -0.506041 -4.82252 0
M  V30 265 N 26.6058 1.57591 -0.0167156 0
M  V30 266 C 27.8518 1.91567 0.665582 0
M  V30 267 C 28.1848 0.892298 1.72487 0
M  V30 268 O 27.4598 -0.0867127 1.94307 0
M  V30 269 C 27.7428 3.36069 1.29342 0
M  V30 270 C 27.5958 4.49135 0.244541 0
M  V30 271 C 28.9148 3.803 2.21495 0
M  V30 272 H 26.0338 0.69666 0.240488 0
M  V30 273 H 28.6758 1.89866 -0.0714356 0
M  V30 274 H 26.8258 3.3765 1.92158 0
M  V30 275 H 28.4978 4.59689 -0.385228 0
M  V30 276 H 26.7408 4.3165 -0.431379 0
M  V30 277 H 27.4118 5.47242 0.723207 0
M  V30 278 H 29.8878 3.80377 1.68678 0
M  V30 279 H 28.7638 4.82127 2.62382 0
M  V30 280 H 29.0248 3.15104 3.101 0
M  V30 281 N 28.0839 -0.256276 1.55502 0
M  V30 282 C 29.4999 -0.604325 1.47716 0
M  V30 283 C 29.6999 -1.88763 0.705039 0
M  V30 284 O 28.7559 -2.51445 0.230613 0
M  V30 285 C 30.0689 -0.715756 2.92057 0
M  V30 286 C 31.6169 -0.808706 3.02372 0
M  V30 287 C 32.0919 -0.951777 4.48001 0
M  V30 288 N 33.5829 -1.01688 4.519 0
M  V30 289 C 34.3179 -1.14668 5.61817 0
M  V30 290 N 33.8139 -1.24261 6.81565 0
M  V30 291 N 35.6069 -1.1791 5.49594 0
M  V30 292 H 27.7579 0.586291 2.04148 0
M  V30 293 H 30.0209 0.201015 0.926443 0
M  V30 294 H 29.7269 0.157027 3.51349 0
M  V30 295 H 29.6009 -1.59071 3.42018 0
M  V30 296 H 31.9879 -1.67195 2.43166 0
M  V30 297 H 32.0689 0.0912063 2.55637 0
M  V30 298 H 31.7129 -0.0931291 5.07815 0
M  V30 299 H 31.6429 -1.86659 4.92408 0
M  V30 300 H 34.1339 -0.954468 3.65648 0
M  V30 301 H 34.4469 -1.34046 7.61086 0
M  V30 302 H 32.7919 -1.21236 6.84344 0
M  V30 303 H 35.9829 -1.10057 4.54978 0
M  V30 304 H 36.1559 -1.27681 6.35296 0
M  V30 305 N 29.562 -1.4872 -0.521534 0
M  V30 306 C 30.525 -1.63379 -1.60748 0
M  V30 307 C 31.525 -0.50661 -1.52611 0
M  V30 308 O 32.715 -0.772601 -1.5613 0
M  V30 309 C 29.847 -1.61192 -3.00383 0
M  V30 310 H 31.04 -2.60217 -1.49087 0
M  V30 311 H 28.593 -1.37444 -0.744235 0
M  V30 312 H 29.328 -0.65863 -3.17541 0
M  V30 313 H 29.113 -2.43032 -3.07698 0
M  V30 314 H 30.603 -1.7466 -3.7932 0
M  V30 315 N 31.0401 0.771051 -1.3745 0
M  V30 316 C 32.2681 1.56015 -1.35893 0
M  V30 317 C 32.6831 1.88718 0.0555523 0
M  V30 318 O 32.0401 1.51502 1.01752 0
M  V30 319 C 32.0911 2.87001 -2.19801 0
M  V30 320 O 31.8121 2.557 -3.55738 0
M  V30 321 C 33.3131 3.81228 -2.26231 0
M  V30 322 H 30.5331 0.483317 -0.465453 0
M  V30 323 H 33.0771 0.955611 -1.80799 0
M  V30 324 H 31.2321 3.43877 -1.78402 0
M  V30 325 H 31.6461 3.39584 -3.99729 0
M  V30 326 H 33.1201 4.70139 -2.89263 0
M  V30 327 H 33.5971 4.20409 -1.27093 0
M  V30 328 H 34.2031 3.30281 -2.67945 0
M  V30 329 N 32.5182 1.22032 0.997298 0
M  V30 330 C 33.4812 0.987909 2.06816 0
M  V30 331 C 34.4812 -0.0440084 1.6074 0
M  V30 332 O 35.6712 0.194053 1.73116 0
M  V30 333 C 32.8032 0.49132 3.37341 0
M  V30 334 H 33.9962 1.93803 2.28868 0
M  V30 335 H 31.5492 1.03838 1.16822 0
M  V30 336 H 32.2842 -0.463364 3.20973 0
M  V30 337 H 32.0692 1.23575 3.72118 0
M  V30 338 H 33.5592 0.348824 4.16141 0
M  V30 339 N 33.9963 -1.19345 1.0293 0
M  V30 340 C 35.2453 -1.88363 0.721256 0
M  V30 341 C 35.5583 -1.80514 -0.753254 0
M  V30 342 O 36.7643 -2.44788 -1.17436 0
M  V30 343 C 35.2203 -3.37872 1.23978 0
M  V30 344 C 34.8283 -3.54278 2.74211 0
M  V30 345 C 36.5723 -4.12365 1.00775 0
M  V30 346 C 34.4793 -4.97682 3.19479 0
M  V30 347 H 33.4093 -0.705484 0.266098 0
M  V30 348 H 36.0603 -1.34928 1.24365 0
M  V30 349 H 34.4423 -3.90707 0.6453 0
M  V30 350 H 35.6163 -3.11769 3.39318 0
M  V30 351 H 33.9313 -2.93174 2.95699 0
M  V30 352 H 36.5283 -5.18119 1.32123 0
M  V30 353 H 36.8713 -4.16263 -0.0554308 0
M  V30 354 H 37.4043 -3.65668 1.56625 0
M  V30 355 H 34.1433 -4.98945 4.25128 0
M  V30 356 H 33.6633 -5.4095 2.591 0
M  V30 357 H 35.3423 -5.66337 3.12845 0
M  V30 358 N 35.4744 -0.807222 -1.35358 0
M  V30 359 C 36.7204 -0.388463 -1.99045 0
M  V30 360 C 37.0534 1.04184 -1.63888 0
M  V30 361 O 36.3284 1.72292 -0.902535 0
M  V30 362 C 36.6114 -0.572783 -3.55515 0
M  V30 363 C 36.4644 -2.04807 -4.00468 0
M  V30 364 C 37.7834 0.00114064 -4.401 0
M  V30 365 H 34.9024 -0.142619 -0.723069 0
M  V30 366 H 37.5444 -1.01687 -1.60498 0
M  V30 367 H 35.6944 -0.0378425 -3.88482 0
M  V30 368 H 37.3664 -2.64544 -3.77908 0
M  V30 369 H 35.6094 -2.54427 -3.51353 0
M  V30 370 H 36.2804 -2.12792 -5.09337 0
M  V30 371 H 38.7564 -0.455716 -4.13597 0
M  V30 372 H 37.6324 -0.157737 -5.48673 0
M  V30 373 H 37.8934 1.09488 -4.28328 0
M  V30 374 N 36.9525 1.47285 -0.560781 0
M  V30 375 C 37.8825 2.32857 0.173105 0
M  V30 376 C 38.8635 1.44009 0.905281 0
M  V30 377 O 40.0485 1.7286 0.885046 0
M  V30 378 C 37.1785 3.25861 1.20133 0
M  V30 379 C 36.1325 4.23978 0.585388 0
M  V30 380 C 35.4585 5.06332 1.7185 0
M  V30 381 C 36.7585 5.20242 -0.463178 0
M  V30 382 H 38.4525 2.94466 -0.541307 0
M  V30 383 H 35.9985 1.41601 -0.261764 0
M  V30 384 H 37.9515 3.84569 1.72293 0
M  V30 385 H 36.6755 2.62315 1.94573 0
M  V30 386 H 35.3345 3.66501 0.085054 0
M  V30 387 H 34.9825 4.39186 2.45203 0
M  V30 388 H 34.6825 5.72762 1.31213 0
M  V30 389 H 36.2065 5.67899 2.24329 0
M  V30 390 H 37.6205 5.73293 -0.027502 0
M  V30 391 H 36.0175 5.94896 -0.788627 0
M  V30 392 H 37.0875 4.65504 -1.35773 0
M  V30 393 N 38.4306 0.297415 1.54768 0
M  V30 394 C 39.6586 -0.315623 2.04478 0
M  V30 395 C 40.0736 -1.47792 1.17486 0
M  V30 396 O 39.4306 -1.81404 0.19971 0
M  V30 397 C 39.4816 -0.7753 3.53088 0
M  V30 398 O 39.2026 0.340732 4.36773 0
M  V30 399 C 40.7036 -1.45386 4.18781 0
M  V30 400 H 37.9236 -0.0690887 0.667434 0
M  V30 401 H 40.4676 0.436003 1.99798 0
M  V30 402 H 38.6226 -1.47696 3.58141 0
M  V30 403 H 39.0366 -0.0165035 5.24497 0
M  V30 404 H 40.5106 -1.72669 5.24299 0
M  V30 405 H 40.9876 -2.39275 3.68299 0
M  V30 406 H 41.5936 -0.795475 4.17795 0
M  V30 407 N 39.9087 -1.5758 0.0250728 0
M  V30 408 C 40.8387 -2.13007 -0.956575 0
M  V30 409 C 41.8197 -1.0452 -1.342 0
M  V30 410 O 43.0047 -1.32332 -1.42133 0
M  V30 411 C 40.1347 -2.65386 -2.24026 0
M  V30 412 C 39.0887 -3.78623 -1.99571 0
M  V30 413 C 38.4147 -4.17414 -3.3417 0
M  V30 414 C 39.7147 -5.04867 -1.33814 0
M  V30 415 H 41.4087 -2.9528 -0.494991 0
M  V30 416 H 38.9547 -1.42042 -0.236651 0
M  V30 417 H 40.9077 -3.02794 -2.93076 0
M  V30 418 H 39.6317 -1.80268 -2.72343 0
M  V30 419 H 38.2907 -3.41646 -1.32941 0
M  V30 420 H 37.9387 -3.29284 -3.80238 0
M  V30 421 H 37.6387 -4.93719 -3.18615 0
M  V30 422 H 39.1627 -4.57402 -4.04495 0
M  V30 423 H 40.5767 -5.39888 -1.92857 0
M  V30 424 H 38.9737 -5.86144 -1.28669 0
M  V30 425 H 40.0437 -4.83904 -0.310561 0
M  V30 426 N 41.3868 0.248026 -1.55636 0
M  V30 427 C 42.6168 0.992367 -1.81206 0
M  V30 428 C 43.0248 1.7949 -0.598324 0
M  V30 429 O 42.3678 1.78292 0.442434 0
M  V30 430 C 42.4298 1.97926 -3.00109 0
M  V30 431 C 42.0938 1.36377 -4.36177 0
M  V30 432 C 43.0908 0.76682 -5.14214 0
M  V30 433 C 40.7758 1.38347 -4.82872 0
M  V30 434 C 42.7698 0.197778 -6.37093 0
M  V30 435 C 40.4568 0.810574 -6.057 0
M  V30 436 C 41.4548 0.218754 -6.8265 0
M  V30 437 O 41.1428 -0.345298 -8.03158 0
M  V30 438 H 40.8748 0.297704 -0.606917 0
M  V30 439 H 43.4288 0.276517 -2.0353 0
M  V30 440 H 41.6588 2.73339 -2.73538 0
M  V30 441 H 43.3478 2.58694 -3.12781 0
M  V30 442 H 44.1138 0.744114 -4.79258 0
M  V30 443 H 39.9928 1.8335 -4.2297 0
M  V30 444 H 43.5368 -0.264788 -6.97097 0
M  V30 445 H 39.4338 0.830604 -6.40134 0
M  V30 446 H 40.2018 -0.237055 -8.18157 0
M  V30 447 N 42.8649 1.48995 0.513639 0
M  V30 448 C 44.1139 1.57093 1.2651 0
M  V30 449 C 44.4269 0.257091 1.93903 0
M  V30 450 O 45.6329 0.216478 2.70636 0
M  V30 451 C 44.0889 2.77118 2.29638 0
M  V30 452 C 43.6969 4.15209 1.68241 0
M  V30 453 C 45.4409 2.94538 3.05692 0
M  V30 454 C 43.3479 5.26474 2.69406 0
M  V30 455 H 42.2779 0.584876 0.475854 0
M  V30 456 H 44.9289 1.7536 0.540487 0
M  V30 457 H 43.3109 2.52319 3.05207 0
M  V30 458 H 44.4849 4.50094 0.987505 0
M  V30 459 H 42.7999 4.03042 1.04623 0
M  V30 460 H 45.3969 3.74832 3.8132 0
M  V30 461 H 45.7399 2.04614 3.62545 0
M  V30 462 H 46.2729 3.19316 2.37238 0
M  V30 463 H 43.0119 6.18417 2.17351 0
M  V30 464 H 42.5319 4.96058 3.37175 0
M  V30 465 H 44.2109 5.55277 3.32078 0
M  V30 466 N 44.343 -0.763751 1.37857 0
M  V30 467 C 45.592 -1.51789 1.32827 0
M  V30 468 C 45.905 -1.95426 -0.0823719 0
M  V30 469 O 47.111 -2.70298 -0.255172 0
M  V30 470 C 45.567 -2.74133 2.33193 0
M  V30 471 C 45.175 -2.37562 3.79827 0
M  V30 472 C 46.919 -3.52054 2.37188 0
M  V30 473 C 44.826 -3.56456 4.71904 0
M  V30 474 H 43.756 -0.569896 0.493695 0
M  V30 475 H 46.407 -0.835822 1.63359 0
M  V30 476 H 44.789 -3.4427 1.9569 0
M  V30 477 H 45.963 -1.75157 4.26212 0
M  V30 478 H 44.278 -1.72798 3.78853 0
M  V30 479 H 46.875 -4.40437 3.03182 0
M  V30 480 H 47.218 -3.92486 1.38782 0
M  V30 481 H 47.751 -2.88921 2.7344 0
M  V30 482 H 44.49 -3.21099 5.71468 0
M  V30 483 H 44.01 -4.17938 4.30218 0
M  V30 484 H 45.689 -4.23168 4.89426 0
M  V30 485 N 45.8211 -1.22559 -0.990812 0
M  V30 486 C 47.0511 -1.07623 -1.76355 0
M  V30 487 C 47.4591 0.37601 -1.85426 0
M  V30 488 O 46.8021 1.27228 -1.32509 0
M  V30 489 C 46.8641 -1.61507 -3.21179 0
M  V30 490 C 46.5281 -3.10146 -3.35646 0
M  V30 491 C 47.5251 -4.07553 -3.22796 0
M  V30 492 C 45.2101 -3.49644 -3.60631 0
M  V30 493 C 47.2041 -5.42442 -3.34716 0
M  V30 494 C 44.8911 -4.84682 -3.72192 0
M  V30 495 C 45.8891 -5.8089 -3.59243 0
M  V30 496 O 45.5771 -7.13476 -3.70415 0
M  V30 497 H 45.3091 -0.377745 -0.560611 0
M  V30 498 H 47.8631 -1.62658 -1.25425 0
M  V30 499 H 46.0931 -1.00881 -3.73309 0
M  V30 500 H 47.7821 -1.42202 -3.80175 0
M  V30 501 H 48.5481 -3.78381 -3.03403 0
M  V30 502 H 44.4271 -2.75282 -3.69785 0
M  V30 503 H 47.9711 -6.17518 -3.24526 0
M  V30 504 H 43.8681 -5.13534 -3.91092 0
M  V30 505 H 44.6361 -7.21083 -3.87275 0
M  V30 506 N 47.2992 1.18797 -1.03562 0
M  V30 507 C 48.2322 2.2105 -0.56676 0
M  V30 508 C 49.2102 1.57704 0.395993 0
M  V30 509 O 50.3942 1.85908 0.311498 0
M  V30 510 C 47.5212 3.38259 0.172704 0
M  V30 511 C 46.5672 4.19987 -0.74252 0
M  V30 512 S 47.4002 4.87199 -2.22254 0
M  V30 513 C 48.5562 6.07813 -1.49379 0
M  V30 514 H 48.7892 2.60478 -1.43312 0
M  V30 515 H 46.3222 1.29151 -0.846133 0
M  V30 516 H 48.2802 4.06191 0.593191 0
M  V30 517 H 46.9412 2.97252 1.01488 0
M  V30 518 H 46.1342 5.03709 -0.171265 0
M  V30 519 H 45.7362 3.57408 -1.10163 0
M  V30 520 H 48.0282 6.72948 -0.784056 0
M  V30 521 H 48.9712 6.69435 -2.30786 0
M  V30 522 H 49.3792 5.55781 -0.988331 0
M  V30 523 N 48.7773 0.814389 1.34928 0
M  V30 524 C 50.0233 0.399013 1.98836 0
M  V30 525 C 50.3563 -1.03314 1.64438 0
M  V30 526 O 49.6313 -1.71811 0.911659 0
M  V30 527 C 49.9143 0.591629 3.55207 0
M  V30 528 C 49.7673 2.06928 3.99376 0
M  V30 529 C 51.0863 0.022199 4.40094 0
M  V30 530 H 48.2053 0.146451 0.722303 0
M  V30 531 H 50.8473 1.02537 1.59957 0
M  V30 532 H 48.9973 0.0584441 3.88456 0
M  V30 533 H 50.6693 2.66544 3.76499 0
M  V30 534 H 48.9123 2.56287 3.49999 0
M  V30 535 H 49.5833 2.1549 5.08201 0
M  V30 536 H 52.0593 0.477643 4.13349 0
M  V30 537 H 50.9353 0.186832 5.48582 0
M  V30 538 H 51.1963 -1.07215 4.28902 0
M  V30 539 N 50.2554 -1.46986 0.568584 0
M  V30 540 C 51.5034 -2.02041 0.0487022 0
M  V30 541 C 51.8244 -1.44408 -1.31039 0
M  V30 542 O 51.0944 -0.623477 -1.85714 0
M  V30 543 H 49.6744 -0.746849 0.015014 0
M  V30 544 H 52.3364 -1.80257 0.741168 0
M  V30 545 H 51.4324 -3.12085 -0.0308961 0
M  V30 546 N 51.7335 -0.305618 -1.54608 0
M  V30 547 C 52.9805 0.302298 -2.00231 0
M  V30 548 C 53.3085 1.5354 -1.19398 0
M  V30 549 O 52.5635 1.93973 -0.259423 0
M  V30 550 C 52.8625 0.698983 -3.50498 0
M  V30 551 C 52.5285 -0.432903 -4.48817 0
M  V30 552 C 51.1905 -0.743622 -4.75419 0
M  V30 553 C 53.5425 -1.19409 -5.07337 0
M  V30 554 C 50.8705 -1.81857 -5.57804 0
M  V30 555 C 53.2225 -2.25899 -5.90891 0
M  V30 556 C 51.8865 -2.57572 -6.15803 0
M  V30 557 H 51.1565 0.110619 -0.732697 0
M  V30 558 H 53.8035 -0.425674 -1.86709 0
M  V30 559 H 52.1085 1.50711 -3.61654 0
M  V30 560 H 53.8055 1.1806 -3.83227 0
M  V30 561 H 50.3955 -0.18063 -4.28219 0
M  V30 562 H 54.5795 -0.967295 -4.86782 0
M  V30 563 H 49.8355 -2.06864 -5.75341 0
M  V30 564 H 54.0095 -2.85335 -6.35261 0
M  V30 565 H 51.6365 -3.40998 -6.7943 0
M  V30 566 N 53.2116 1.57565 -0.0334293 0
M  V30 567 C 54.4586 1.91978 0.644272 0
M  V30 568 C 54.7866 0.910231 1.71887 0
M  V30 569 O 54.0416 -0.0801961 1.95536 0
M  V30 570 C 54.3406 3.33112 1.29504 0
M  V30 571 C 54.0066 4.49537 0.350388 0
M  V30 572 C 52.6686 4.81115 0.0903974 0
M  V30 573 C 55.0206 5.20347 -0.298032 0
M  V30 574 C 52.3486 5.8086 -0.825746 0
M  V30 575 C 54.7006 6.2107 -1.20226 0
M  V30 576 C 53.3646 6.51088 -1.4711 0
M  V30 577 H 52.6346 0.702496 0.235756 0
M  V30 578 H 55.2816 1.91259 -0.0961176 0
M  V30 579 H 53.5866 3.30113 2.11028 0
M  V30 580 H 55.2836 3.57011 1.82603 0
M  V30 581 H 51.8736 4.24883 0.563205 0
M  V30 582 H 56.0576 4.96178 -0.110234 0
M  V30 583 H 51.3136 6.02461 -1.04169 0
M  V30 584 H 55.4876 6.75057 -1.71086 0
M  V30 585 H 53.1146 7.28193 -2.18264 0
M  V30 586 N 54.6897 -0.239769 1.55765 0
M  V30 587 C 55.6527 -1.28038 1.90103 0
M  V30 588 C 56.6527 -1.40723 0.778055 0
M  V30 589 O 57.8427 -1.39301 1.04599 0
M  V30 590 C 54.9747 -2.65702 2.13577 0
M  V30 591 H 56.1677 -0.988048 2.83157 0
M  V30 592 H 53.7207 -0.479382 1.48767 0
M  V30 593 H 54.4557 -3.00063 1.23015 0
M  V30 594 H 54.2407 -2.57875 2.95369 0
M  V30 595 H 55.7307 -3.40828 2.41301 0
M  V30 596 N 56.1678 -1.49265 -0.50573 0
M  V30 597 C 57.3958 -1.62215 -1.28429 0
M  V30 598 C 57.8108 -0.291697 -1.86533 0
M  V30 599 O 57.1678 0.722233 -1.67601 0
M  V30 600 C 57.2188 -2.68735 -2.41793 0
M  V30 601 O 56.9398 -3.96619 -1.86078 0
M  V30 602 C 58.4408 -2.92346 -3.3324 0
M  V30 603 H 55.6608 -0.546239 -0.389697 0
M  V30 604 H 58.2048 -1.95265 -0.607609 0
M  V30 605 H 56.3598 -2.38476 -3.053 0
M  V30 606 H 56.7738 -4.55256 -2.60465 0
M  V30 607 H 58.2478 -3.70623 -4.09075 0
M  V30 608 H 58.7248 -2.02081 -3.89948 0
M  V30 609 H 59.3308 -3.24003 -2.75503 0
M  V30 610 N 57.6459 0.756429 -1.3826 0
M  V30 611 C 58.8709 1.55077 -1.37717 0
M  V30 612 C 59.2959 1.88073 0.03164 0
M  V30 613 O 58.6539 1.50364 1.01293 0
M  V30 614 C 58.7019 2.8283 -2.23695 0
M  V30 615 O 57.8059 3.77862 -1.6521 0
M  V30 616 H 57.1469 0.469152 -0.469885 0
M  V30 617 H 59.6769 0.935019 -1.81985 0
M  V30 618 H 59.6869 3.31783 -2.37453 0
M  V30 619 H 58.3619 2.58144 -3.2609 0
M  V30 620 H 56.9389 3.36555 -1.60578 0
M  V30 621 N 59.124 1.23083 0.984299 0
M  V30 622 C 60.372 1.05848 1.72165 0
M  V30 623 C 60.693 -0.406049 1.90726 0
M  V30 624 O 59.963 -1.29139 1.47309 0
M  V30 625 H 58.543 0.388685 0.637913 0
M  V30 626 H 61.205 1.54736 1.18503 0
M  V30 627 H 60.301 1.54327 2.71274 0
M  V30 628 N 60.6021 -1.18246 1.0419 0
M  V30 629 C 61.5121 -2.25574 0.644476 0
M  V30 630 C 62.5281 -1.70845 -0.329826 0
M  V30 631 O 63.7041 -2.00554 -0.184443 0
M  V30 632 C 60.7691 -3.46697 0.014877 0
M  V30 633 C 59.8301 -4.16554 1.03834 0
M  V30 634 C 59.0631 -5.31894 0.438692 0
M  V30 635 O 59.2861 -5.65385 -0.754752 0
M  V30 636 O 58.2201 -5.90459 1.168 0
M  V30 637 H 62.0461 -2.61836 1.53869 0
M  V30 638 H 59.6311 -1.25352 0.812854 0
M  V30 639 H 61.5131 -4.20062 -0.335538 0
M  V30 640 H 60.1881 -3.12255 -0.853138 0
M  V30 641 H 59.0951 -3.45251 1.44057 0
M  V30 642 H 60.4281 -4.54998 1.87716 0
M  V30 643 N 62.0802 -0.821533 -1.34494 0
M  V30 644 C 63.0102 -0.257138 -2.3208 0
M  V30 645 C 63.9912 0.625645 -1.58176 0
M  V30 646 O 65.1762 0.552811 -1.86166 0
M  V30 647 C 62.3062 0.582958 -3.42372 0
M  V30 648 C 61.2602 -0.202571 -4.2752 0
M  V30 649 C 60.5862 0.760179 -5.29269 0
M  V30 650 C 61.8862 -1.40998 -5.02908 0
M  V30 651 H 63.5802 -1.07247 -2.79532 0
M  V30 652 H 61.1262 -0.517163 -1.34393 0
M  V30 653 H 63.0792 0.987972 -4.09655 0
M  V30 654 H 61.8032 1.43133 -2.93565 0
M  V30 655 H 60.4622 -0.588936 -3.61838 0
M  V30 656 H 60.1102 1.60447 -4.76724 0
M  V30 657 H 59.8102 0.238809 -5.87115 0
M  V30 658 H 61.3342 1.16308 -5.9942 0
M  V30 659 H 62.7482 -1.07905 -5.63054 0
M  V30 660 H 61.1452 -1.86689 -5.70322 0
M  V30 661 H 62.2152 -2.1889 -4.32684 0
M  V30 662 N 63.5583 1.46682 -0.576371 0
M  V30 663 C 64.7863 2.06798 -0.0649635 0
M  V30 664 C 65.2013 1.42612 1.23723 0
M  V30 665 O 64.5583 0.529203 1.74659 0
M  V30 666 C 64.6093 3.6132 0.114202 0
M  V30 667 O 64.3303 4.23104 -1.13644 0
M  V30 668 C 65.8313 4.38349 0.66069 0
M  V30 669 H 63.0513 0.668778 -0.0545616 0
M  V30 670 H 65.5953 1.88404 -0.795237 0
M  V30 671 H 63.7503 3.79162 0.794673 0
M  V30 672 H 64.1643 5.15894 -0.946253 0
M  V30 673 H 65.6383 5.47081 0.73526 0
M  V30 674 H 66.1153 4.05953 1.67627 0
M  V30 675 H 66.7213 4.25297 0.0152951 0
M  V30 676 N 65.0364 0.313813 1.54444 0
M  V30 677 C 66.2664 -0.293491 2.04505 0
M  V30 678 C 66.6744 -1.47086 1.19005 0
M  V30 679 O 66.0174 -1.82481 0.211257 0
M  V30 680 C 66.0794 -0.800455 3.50475 0
M  V30 681 C 65.7434 0.253322 4.56297 0
M  V30 682 C 66.7404 1.08612 5.08428 0
M  V30 683 C 64.4254 0.398708 5.00715 0
M  V30 684 C 66.4194 2.05013 6.0353 0
M  V30 685 C 64.1064 1.36614 5.95634 0
M  V30 686 C 65.1044 2.19033 6.46926 0
M  V30 687 O 64.7924 3.14134 7.39983 0
M  V30 688 H 64.5244 -0.0658325 0.672787 0
M  V30 689 H 67.0784 0.455177 2.00293 0
M  V30 690 H 65.3084 -1.59987 3.52053 0
M  V30 691 H 66.9974 -1.32504 3.83663 0
M  V30 692 H 67.7634 0.984736 4.74898 0
M  V30 693 H 63.6424 -0.23289 4.60411 0
M  V30 694 H 67.1864 2.69382 6.4349 0
M  V30 695 H 63.0834 1.4682 6.28581 0
M  V30 696 H 63.8514 3.0926 7.57826 0
M  V30 697 N 66.5145 -1.57545 0.0417849 0
M  V30 698 C 67.4245 -2.14451 -0.951213 0
M  V30 699 C 68.4405 -1.09992 -1.34825 0
M  V30 700 O 69.6165 -1.42114 -1.42708 0
M  V30 701 C 66.6815 -2.67063 -2.21084 0
M  V30 702 C 65.7425 -3.86284 -1.87304 0
M  V30 703 C 64.9755 -4.36378 -3.07261 0
M  V30 704 O 65.1985 -3.85587 -4.20332 0
M  V30 705 O 64.1325 -5.28077 -2.88822 0
M  V30 706 H 67.9585 -2.99601 -0.497287 0
M  V30 707 H 65.5435 -1.48317 -0.179567 0
M  V30 708 H 67.4255 -3.00914 -2.95006 0
M  V30 709 H 66.1005 -1.84989 -2.65633 0
M  V30 710 H 65.0075 -3.57338 -1.10727 0
M  V30 711 H 66.3405 -4.6956 -1.47562 0
M  V30 712 N 67.9926 0.231505 -1.5589 0
M  V30 713 C 69.2386 0.95877 -1.78705 0
M  V30 714 C 69.5716 1.8438 -0.609725 0
M  V30 715 O 68.8466 1.90521 0.391426 0
M  V30 716 C 69.1296 1.8062 -3.11526 0
M  V30 717 C 68.9826 0.948328 -4.39689 0
M  V30 718 C 70.3016 2.78585 -3.40703 0
M  V30 719 H 67.4206 0.347129 -0.650131 0
M  V30 720 H 70.0626 0.228259 -1.88624 0
M  V30 721 H 68.2126 2.42902 -3.03201 0
M  V30 722 H 69.8846 0.343016 -4.60023 0
M  V30 723 H 68.1276 0.253314 -4.3306 0
M  V30 724 H 68.7986 1.57543 -5.29041 0
M  V30 725 H 71.2746 2.26439 -3.49091 0
M  V30 726 H 70.1506 3.34988 -4.34826 0
M  V30 727 H 70.4116 3.55825 -2.62375 0
M  V30 728 N 69.4707 1.49531 0.497807 0
M  V30 729 C 70.7167 1.60388 1.25089 0
M  V30 730 C 71.0717 0.288328 1.90227 0
M  V30 731 O 70.3647 -0.711706 1.77891 0
M  V30 732 C 70.5587 2.70252 2.33878 0
M  V30 733 C 70.3877 4.12363 1.79408 0
M  V30 734 C 69.1577 4.7911 1.60566 0
M  V30 735 C 71.3557 4.97491 1.30412 0
M  V30 736 N 69.3377 6.05525 1.01059 0
M  V30 737 C 70.7087 6.14411 0.830595 0
M  V30 738 C 72.7637 4.83466 1.19015 0
M  V30 739 C 71.4667 7.1885 0.254371 0
M  V30 740 C 73.4927 5.88057 0.627892 0
M  V30 741 C 72.8547 7.04208 0.16461 0
M  V30 742 H 68.9537 0.641246 0.447579 0
M  V30 743 H 71.5377 1.86549 0.557441 0
M  V30 744 H 69.7087 2.45858 3.0068 0
M  V30 745 H 71.4407 2.70613 3.00917 0
M  V30 746 H 68.1957 4.35961 1.85026 0
M  V30 747 H 68.6197 6.73028 0.732236 0
M  V30 748 H 73.2617 3.93978 1.53431 0
M  V30 749 H 70.9797 8.08036 -0.102052 0
M  V30 750 H 74.5657 5.79266 0.542444 0
M  V30 751 H 73.4457 7.83757 -0.263669 0
M  V30 752 N 70.9488 -0.749086 1.3866 0
M  V30 753 C 72.1978 -1.50371 1.3443 0
M  V30 754 C 72.5108 -1.95503 -0.0616397 0
M  V30 755 O 73.7168 -2.70554 -0.226489 0
M  V30 756 C 72.1728 -2.71644 2.36088 0
M  V30 757 C 71.7808 -2.3352 3.82325 0
M  V30 758 C 73.5248 -3.49518 2.40909 0
M  V30 759 C 71.4318 -3.51431 4.75658 0
M  V30 760 H 70.3618 -0.564628 0.499712 0
M  V30 761 H 73.0128 -0.818449 1.64237 0
M  V30 762 H 71.3948 -3.42175 1.9933 0
M  V30 763 H 72.5688 -1.70627 4.28046 0
M  V30 764 H 70.8838 -1.6877 3.80665 0
M  V30 765 H 73.4808 -4.37197 3.07836 0
M  V30 766 H 73.8238 -3.90992 1.42937 0
M  V30 767 H 74.3568 -2.86005 2.76489 0
M  V30 768 H 71.0958 -3.15019 5.74842 0
M  V30 769 H 70.6158 -4.13352 4.34627 0
M  V30 770 H 72.2948 -4.17953 4.93887 0
M  V30 771 N 72.4269 -1.23603 -0.977757 0
M  V30 772 C 73.6749 -1.06759 -1.71601 0
M  V30 773 C 73.9959 0.395929 -1.90938 0
M  V30 774 O 73.2659 1.28356 -1.47992 0
M  V30 775 H 71.8459 -0.392062 -0.635843 0
M  V30 776 H 74.5079 -1.55362 -1.1768 0
M  V30 777 H 73.6039 -1.55763 -2.70452 0
M  V30 778 N 73.905 1.17692 -1.04816 0
M  V30 779 C 75.152 1.87859 -0.75599 0
M  V30 780 C 75.48 1.80812 0.716752 0
M  V30 781 O 74.735 1.20819 1.53952 0
M  V30 782 C 75.034 3.37462 -1.17703 0
M  V30 783 C 74.7 3.64713 -2.65133 0
M  V30 784 C 73.362 3.71859 -3.05408 0
M  V30 785 C 75.714 3.76492 -3.60421 0
M  V30 786 C 73.042 3.88271 -4.39843 0
M  V30 787 C 75.394 3.94421 -4.94585 0
M  V30 788 C 74.058 3.99806 -5.3452 0
M  V30 789 H 73.328 0.687425 -0.276636 0
M  V30 790 H 75.975 1.39255 -1.31455 0
M  V30 791 H 74.28 3.88097 -0.537395 0
M  V30 792 H 75.977 3.90109 -0.928218 0
M  V30 793 H 72.567 3.59772 -2.32942 0
M  V30 794 H 76.751 3.70295 -3.30447 0
M  V30 795 H 72.007 3.90687 -4.70291 0
M  V30 796 H 76.181 4.02477 -5.68318 0
M  V30 797 H 73.808 4.12276 -6.38696 0
M  V30 798 N 75.3831 0.828654 1.34056 0
M  V30 799 C 76.6301 0.419458 1.98108 0
M  V30 800 C 76.9581 -1.01886 1.65679 0
M  V30 801 O 76.2131 -1.72539 0.923512 0
M  V30 802 C 76.5121 0.575226 3.52741 0
M  V30 803 C 76.1781 1.98012 4.05095 0
M  V30 804 C 74.8401 2.36442 4.19104 0
M  V30 805 C 77.1921 2.89824 4.33188 0
M  V30 806 C 74.5201 3.66009 4.58535 0
M  V30 807 C 76.8721 4.1886 4.74066 0
M  V30 808 C 75.5361 4.5726 4.86281 0
M  V30 809 H 74.8061 0.153491 0.724929 0
M  V30 810 H 77.4531 1.05371 1.59904 0
M  V30 811 H 75.7581 -0.142385 3.91541 0
M  V30 812 H 77.4551 0.239057 4.00287 0
M  V30 813 H 74.0451 1.67162 3.94658 0
M  V30 814 H 78.2291 2.61375 4.21897 0
M  V30 815 H 73.4851 3.95579 4.66184 0
M  V30 816 H 77.6591 4.90086 4.94761 0
M  V30 817 H 75.2861 5.57707 5.16592 0
M  V30 818 N 76.8612 -1.46375 0.584142 0
M  V30 819 C 77.8242 -2.28784 -0.138108 0
M  V30 820 C 78.8242 -1.38471 -0.817462 0
M  V30 821 O 80.0142 -1.60833 -0.669199 0
M  V30 822 C 77.1462 -3.18892 -1.20503 0
M  V30 823 H 78.3392 -2.94117 0.586127 0
M  V30 824 H 75.8922 -1.52509 0.342171 0
M  V30 825 H 76.6272 -2.58309 -1.96079 0
M  V30 826 H 76.4122 -3.85388 -0.722384 0
M  V30 827 H 77.9022 -3.80914 -1.71155 0
M  V30 828 N 78.3393 -0.321999 -1.54275 0
M  V30 829 C 79.5643 0.285791 -2.05422 0
M  V30 830 C 79.9893 1.45124 -1.19669 0
M  V30 831 O 79.3473 1.80132 -0.205441 0
M  V30 832 C 79.3953 0.69956 -3.53749 0
M  V30 833 O 78.4993 1.8021 -3.70942 0
M  V30 834 H 77.8403 0.0518962 -0.661969 0
M  V30 835 H 80.3703 -0.469954 -1.9913 0
M  V30 836 H 80.3803 0.982649 -3.9599 0
M  V30 837 H 79.0553 -0.152864 -4.15619 0
M  V30 838 H 77.6323 1.51794 -3.40607 0
M  V30 839 N 79.8174 1.5752 -0.0501392 0
M  V30 840 C 80.7804 2.1037 0.909786 0
M  V30 841 C 81.7804 1.02308 1.24056 0
M  V30 842 O 82.9704 1.28385 1.17741 0
M  V30 843 C 80.1024 2.58708 2.21998 0
M  V30 844 H 81.2954 2.96479 0.451665 0
M  V30 845 H 78.8484 1.55038 0.198248 0
M  V30 846 H 79.5834 1.75989 2.72394 0
M  V30 847 H 79.3684 3.37675 1.99295 0
M  V30 848 H 80.8584 2.99747 2.9076 0
M  V30 849 N 81.2955 -0.223234 1.56011 0
M  V30 850 C 82.5425 -0.947875 1.78946 0
M  V30 851 C 82.8705 -1.844 0.618608 0
M  V30 852 O 82.1255 -1.91629 -0.397093 0
M  V30 853 C 82.4245 -1.81948 3.0762 0
M  V30 854 C 82.0905 -1.07672 4.37856 0
M  V30 855 C 80.7525 -0.871544 4.73242 0
M  V30 856 C 83.1045 -0.552081 5.18268 0
M  V30 857 C 80.4325 -0.129791 5.86556 0
M  V30 858 C 82.7845 0.17632 6.32354 0
M  V30 859 C 81.4485 0.39277 6.66343 0
M  V30 860 H 80.7185 -0.346852 0.654809 0
M  V30 861 H 83.3655 -0.216171 1.90276 0
M  V30 862 H 81.6705 -2.61899 2.91404 0
M  V30 863 H 83.3675 -2.38227 3.22566 0
M  V30 864 H 79.9575 -1.24662 4.1007 0
M  V30 865 H 84.1415 -0.698076 4.91366 0
M  V30 866 H 79.3975 0.048153 6.11381 0
M  V30 867 H 83.5715 0.590367 6.93893 0
M  V30 868 H 81.1985 0.969466 7.53993 0
M  V30 869 N 82.7736 -1.49793 -0.48987 0
M  V30 870 C 84.0016 -1.63568 -1.26701 0
M  V30 871 C 84.4166 -0.311465 -1.86213 0
M  V30 872 O 83.7736 0.704416 -1.68357 0
M  V30 873 C 83.8246 -2.71284 -2.38929 0
M  V30 874 O 83.5456 -3.9857 -1.81861 0
M  V30 875 C 85.0466 -2.95864 -3.3012 0
M  V30 876 H 82.2666 -0.550342 -0.383881 0
M  V30 877 H 84.8106 -1.95898 -0.586864 0
M  V30 878 H 82.9656 -2.417 -3.02753 0
M  V30 879 H 83.3796 -4.57993 -2.55622 0
M  V30 880 H 84.8536 -3.74941 -4.05121 0
M  V30 881 H 85.3306 -2.06206 -3.87783 0
M  V30 882 H 85.9366 -3.26907 -2.72051 0
M  V30 883 N 84.2517 0.741722 -1.39055 0
M  V30 884 C 85.1987 1.85566 -1.37237 0
M  V30 885 C 86.1687 1.64457 -0.233072 0
M  V30 886 O 87.3537 1.85957 -0.427147 0
M  V30 887 C 84.4937 3.23004 -1.215 0
M  V30 888 C 83.6067 3.55864 -2.44918 0
M  V30 889 C 82.7417 4.82669 -2.21821 0
M  V30 890 C 81.7807 5.08351 -3.40948 0
M  V30 891 N 80.9177 6.26356 -3.17211 0
M  V30 892 H 85.7577 1.86455 -2.32462 0
M  V30 893 H 83.2947 0.911176 -1.15482 0
M  V30 894 H 85.2527 4.02331 -1.10389 0
M  V30 895 H 83.8827 3.21411 -0.29908 0
M  V30 896 H 82.9347 2.7129 -2.66657 0
M  V30 897 H 84.2467 3.70765 -3.33668 0
M  V30 898 H 83.4007 5.69962 -2.07914 0
M  V30 899 H 82.1397 4.69929 -1.30454 0
M  V30 900 H 81.1447 4.19522 -3.55361 0
M  V30 901 H 82.3697 5.22981 -4.33207 0
M  V30 902 H 80.3157 6.14917 -2.28502 0
M  V30 903 H 80.2327 6.41813 -3.99515 0
M  V30 904 H 81.5007 7.16506 -3.06984 0
M  V30 905 N 85.7298 1.2412 0.971189 0
M  V30 906 C 86.9758 1.08041 1.71625 0
M  V30 907 C 87.3088 -0.380407 1.90438 0
M  V30 908 O 86.5838 -1.28127 1.46334 0
M  V30 909 C 86.8668 1.81682 3.10908 0
M  V30 910 C 86.7198 3.35493 2.99608 0
M  V30 911 C 88.0388 1.58671 4.10501 0
M  V30 912 H 85.1578 0.39388 0.622919 0
M  V30 913 H 87.7998 1.52743 1.13003 0
M  V30 914 H 85.9498 1.43684 3.60953 0
M  V30 915 H 87.6218 3.83068 2.57015 0
M  V30 916 H 85.8648 3.64052 2.35899 0
M  V30 917 H 86.5358 3.82217 3.98264 0
M  V30 918 H 89.0118 1.91719 3.69301 0
M  V30 919 H 87.8878 2.1266 5.06031 0
M  V30 920 H 88.1488 0.524161 4.38982 0
M  V30 921 N 87.2079 -1.17134 1.05439 0
M  V30 922 C 88.4549 -1.87456 0.765942 0
M  V30 923 C 88.7829 -1.81189 -0.707153 0
M  V30 924 O 88.0379 -1.21633 -1.5331 0
M  V30 925 C 88.3369 -3.36833 1.19491 0
M  V30 926 C 88.0029 -3.63301 2.67063 0
M  V30 927 C 86.6649 -3.70234 3.07376 0
M  V30 928 C 89.0169 -3.74575 3.62413 0
M  V30 929 C 86.3449 -3.85933 4.41896 0
M  V30 930 C 88.6969 -3.91793 4.9667 0
M  V30 931 C 87.3609 -3.96966 5.36633 0
M  V30 932 H 86.6309 -0.685948 0.280278 0
M  V30 933 H 89.2779 -1.38556 1.32192 0
M  V30 934 H 87.5829 -3.87807 0.557969 0
M  V30 935 H 89.2799 -3.89611 0.948893 0
M  V30 936 H 85.8699 -3.58532 2.34846 0
M  V30 937 H 90.0539 -3.68537 3.32406 0
M  V30 938 H 85.3099 -3.88187 4.72357 0
M  V30 939 H 89.4839 -3.99458 5.70444 0
M  V30 940 H 87.1109 -4.08883 6.40874 0
M  V30 941 N 88.686 -0.835752 -1.33615 0
M  V30 942 C 89.914 -0.443344 -2.02094 0
M  V30 943 C 90.329 0.954522 -1.62894 0
M  V30 944 O 89.686 1.61982 -0.840723 0
M  V30 945 C 89.737 -0.550775 -3.5728 0
M  V30 946 O 89.458 -1.89356 -3.95065 0
M  V30 947 C 90.959 -0.154919 -4.43029 0
M  V30 948 H 88.179 -0.176359 -0.647409 0
M  V30 949 H 90.723 -1.12746 -1.70612 0
M  V30 950 H 88.878 0.0853997 -3.87306 0
M  V30 951 H 89.292 -1.87687 -4.89769 0
M  V30 952 H 90.766 -0.281144 -5.51284 0
M  V30 953 H 91.243 0.902863 -4.2982 0
M  V30 954 H 91.849 -0.765404 -4.18356 0
M  V30 955 N 90.1641 1.46063 -0.591896 0
M  V30 956 C 91.0941 2.33172 0.123673 0
M  V30 957 C 92.0751 1.45897 0.87453 0
M  V30 958 O 93.2601 1.74698 0.848181 0
M  V30 959 C 90.3901 3.28336 1.13194 0
M  V30 960 C 89.3441 4.25124 0.495324 0
M  V30 961 C 88.6701 5.09863 1.61071 0
M  V30 962 C 89.9701 5.19143 -0.573425 0
M  V30 963 H 91.6641 2.93252 -0.603646 0
M  V30 964 H 89.2101 1.41014 -0.291741 0
M  V30 965 H 91.1631 3.88137 1.64097 0
M  V30 966 H 89.8871 2.66383 1.88965 0
M  V30 967 H 88.5461 3.66599 0.00729452 0
M  V30 968 H 88.1941 4.44288 2.35832 0
M  V30 969 H 87.8941 5.75417 1.19035 0
M  V30 970 H 89.4181 5.72529 2.12233 0
M  V30 971 H 90.8321 5.73106 -0.1491 0
M  V30 972 H 89.2291 5.93089 -0.914636 0
M  V30 973 H 90.2991 4.62519 -1.45617 0
M  V30 974 N 91.6422 0.330177 1.54103 0
M  V30 975 C 92.5722 -0.525353 2.27513 0
M  V30 976 C 93.5532 -1.11383 1.2856 0
M  V30 977 O 94.7382 -1.13773 1.57383 0
M  V30 978 C 91.8682 -1.6831 3.03791 0
M  V30 979 C 90.8222 -1.2236 4.10137 0
M  V30 980 C 90.1482 -2.46882 4.74293 0
M  V30 981 C 91.4482 -0.333697 5.21233 0
M  V30 982 H 93.1422 0.087013 2.99274 0
M  V30 983 H 90.6882 0.0432893 1.43935 0
M  V30 984 H 92.6412 -2.28795 3.5388 0
M  V30 985 H 91.3652 -2.32216 2.29659 0
M  V30 986 H 90.0242 -0.64165 3.60941 0
M  V30 987 H 89.6722 -3.09165 3.96769 0
M  V30 988 H 89.3722 -2.16825 5.46133 0
M  V30 989 H 90.8962 -3.08117 5.27159 0
M  V30 990 H 92.3102 -0.845013 5.67038 0
M  V30 991 H 90.7072 -0.125612 5.99969 0
M  V30 992 H 91.7772 0.633724 4.80741 0
M  V30 993 N 93.1203 -1.57491 0.0584922 0
M  V30 994 C 94.0833 -2.1085 -0.898617 0
M  V30 995 C 95.0833 -1.02964 -1.23511 0
M  V30 996 O 96.2733 -1.29007 -1.17059 0
M  V30 997 C 93.4053 -2.59881 -2.20623 0
M  V30 998 H 94.5983 -2.96715 -0.435936 0
M  V30 999 H 92.1513 -1.55141 -0.190023 0
M  V30 1000 H 92.8863 -1.77431 -2.71457 0
M  V30 1001 H 92.6713 -3.38727 -1.97501 0
M  V30 1002 H 94.1613 -3.01285 -2.89166 0
M  V30 1003 N 94.5984 0.214957 -1.56127 0
M  V30 1004 C 95.5284 1.2695 -1.95974 0
M  V30 1005 C 96.5094 1.48539 -0.828868 0
M  V30 1006 O 97.6944 1.60611 -1.09168 0
M  V30 1007 C 94.8244 2.61794 -2.28214 0
M  V30 1008 C 93.7784 2.54851 -3.43853 0
M  V30 1009 C 93.1044 3.93785 -3.61715 0
M  V30 1010 C 94.4044 2.09065 -4.78632 0
M  V30 1011 H 96.0984 0.93846 -2.84312 0
M  V30 1012 H 93.6444 0.449996 -1.36788 0
M  V30 1013 H 95.5974 3.35731 -2.54682 0
M  V30 1014 H 94.3214 2.96599 -1.36736 0
M  V30 1015 H 92.9804 1.8337 -3.17444 0
M  V30 1016 H 92.6284 4.25908 -2.67602 0
M  V30 1017 H 92.3284 3.90019 -4.39498 0
M  V30 1018 H 93.8524 4.69374 -3.90539 0
M  V30 1019 H 95.2664 2.7275 -5.04262 0
M  V30 1020 H 93.6634 2.16346 -5.59745 0
M  V30 1021 H 94.7334 1.04315 -4.73547 0
M  V30 1022 N 96.0765 1.50051 0.48192 0
M  V30 1023 C 97.3235 1.60498 1.23477 0
M  V30 1024 C 97.6515 0.300331 1.92167 0
M  V30 1025 O 96.9065 -0.713094 1.82246 0
M  V30 1026 C 97.2055 2.72717 2.30998 0
M  V30 1027 C 96.8715 4.13572 1.79636 0
M  V30 1028 C 95.5335 4.519 1.65348 0
M  V30 1029 C 97.8855 5.01649 1.41412 0
M  V30 1030 C 95.2135 5.76057 1.11244 0
M  V30 1031 C 97.5655 6.26343 0.887538 0
M  V30 1032 C 96.2295 6.63483 0.731207 0
M  V30 1033 H 95.4995 0.587303 0.451836 0
M  V30 1034 H 98.1465 1.83948 0.532468 0
M  V30 1035 H 96.4515 2.43312 3.07094 0
M  V30 1036 H 98.1485 2.78006 2.88988 0
M  V30 1037 H 94.7385 3.83329 1.91721 0
M  V30 1038 H 98.9225 4.72679 1.51289 0
M  V30 1039 H 94.1785 6.03516 0.978686 0
M  V30 1040 H 98.3525 6.93958 0.582654 0
M  V30 1041 H 95.9795 7.59568 0.309806 0
M  V30 1042 N 97.5546 -0.734337 1.39446 0
M  V30 1043 C 98.7796 -1.52866 1.40167 0
M  V30 1044 C 99.2046 -1.881 -0.00171513 0
M  V30 1045 O 98.5626 -1.51957 -0.988879 0
M  V30 1046 C 98.6106 -2.79235 2.28167 0
M  V30 1047 O 97.7146 -3.75185 1.71201 0
M  V30 1048 H 97.0556 -0.461618 0.477289 0
M  V30 1049 H 99.5856 -0.905949 1.8345 0
M  V30 1050 H 99.5956 -3.27963 2.42702 0
M  V30 1051 H 98.2706 -2.52923 3.30156 0
M  V30 1052 H 96.8476 -3.33958 1.65912 0
M  V30 1053 N 99.0327 -1.24633 -0.964593 0
M  V30 1054 C 100.282 -1.08188 -1.7023 0
M  V30 1055 C 100.595 0.37873 -1.91898 0
M  V30 1056 O 101.801 0.663427 -2.6327 0
M  V30 1057 C 100.257 -1.88773 -3.06419 0
M  V30 1058 C 99.8647 -3.39263 -2.92582 0
M  V30 1059 C 101.609 -1.80867 -3.84041 0
M  V30 1060 C 99.5157 -4.1218 -4.24101 0
M  V30 1061 H 98.4457 -0.401245 -0.638372 0
M  V30 1062 H 101.097 -1.48742 -1.07462 0
M  V30 1063 H 99.4787 -1.41035 -3.70034 0
M  V30 1064 H 100.653 -3.94603 -2.37961 0
M  V30 1065 H 98.9677 -3.48154 -2.28424 0
M  V30 1066 H 101.565 -2.32646 -4.81435 0
M  V30 1067 H 101.908 -0.774543 -4.09031 0
M  V30 1068 H 102.441 -2.26301 -3.27159 0
M  V30 1069 H 99.1797 -5.15965 -4.04303 0
M  V30 1070 H 98.6997 -3.61626 -4.78526 0
M  V30 1071 H 100.379 -4.19349 -4.92702 0
M  V30 1072 N 100.511 1.16574 -1.06058 0
M  V30 1073 C 101.441 2.23057 -0.690488 0
M  V30 1074 C 102.422 1.67141 0.315901 0
M  V30 1075 O 103.607 1.93253 0.191556 0
M  V30 1076 C 100.737 3.47222 -0.073625 0
M  V30 1077 C 99.6908 4.16016 -1.00573 0
M  V30 1078 C 99.0168 5.34104 -0.252289 0
M  V30 1079 C 100.317 4.67264 -2.33371 0
M  V30 1080 H 102.011 2.54271 -1.58072 0
M  V30 1081 H 99.5568 1.22218 -0.76149 0
M  V30 1082 H 101.51 4.20939 0.19714 0
M  V30 1083 H 100.234 3.15302 0.85161 0
M  V30 1084 H 98.8928 3.44223 -1.2612 0
M  V30 1085 H 98.5408 4.98437 0.675988 0
M  V30 1086 H 98.2408 5.81072 -0.873455 0
M  V30 1087 H 99.7648 6.10599 0.0109857 0
M  V30 1088 H 101.179 5.32573 -2.12223 0
M  V30 1089 H 99.5758 5.24843 -2.90963 0
M  V30 1090 H 100.646 3.83602 -2.96611 0
M  V30 1091 N 101.989 0.842826 1.3317 0
M  V30 1092 C 103.238 0.436738 1.96915 0
M  V30 1093 C 103.551 -1.01025 1.67491 0
M  V30 1094 O 104.757 -1.5212 2.24881 0
M  V30 1095 C 103.213 0.730021 3.52418 0
M  V30 1096 C 102.821 2.19195 3.90714 0
M  V30 1097 C 104.565 0.391076 4.22695 0
M  V30 1098 C 102.472 2.42907 5.39212 0
M  V30 1099 H 101.402 0.15958 0.736919 0
M  V30 1100 H 104.053 1.03196 1.51733 0
M  V30 1101 H 102.435 0.0643755 3.95948 0
M  V30 1102 H 103.609 2.8984 3.58231 0
M  V30 1103 H 101.924 2.49425 3.33431 0
M  V30 1104 H 104.521 0.545817 5.31907 0
M  V30 1105 H 104.864 -0.666294 4.10933 0
M  V30 1106 H 105.397 1.01212 3.84709 0
M  V30 1107 H 102.136 3.47224 5.55982 0
M  V30 1108 H 101.656 1.76827 5.73142 0
M  V30 1109 H 103.335 2.2626 6.06148 0
M  V30 1110 N 103.467 -1.45747 0.599634 0
M  V30 1111 C 104.417 -2.27538 -0.145107 0
M  V30 1112 C 105.401 -1.3686 -0.846055 0
M  V30 1113 O 106.593 -1.6091 -0.737357 0
M  V30 1114 C 103.722 -3.23569 -1.14708 0
M  V30 1115 C 102.808 -4.21734 -0.447383 0
M  V30 1116 N 103.199 -5.03257 0.506535 0
M  V30 1117 C 101.497 -4.40536 -0.695966 0
M  V30 1118 C 102.198 -5.74426 0.917068 0
M  V30 1119 N 101.174 -5.42966 0.26253 0
M  V30 1120 H 104.976 -2.87965 0.587672 0
M  V30 1121 H 102.49 -1.56803 0.422697 0
M  V30 1122 H 104.487 -3.8089 -1.69495 0
M  V30 1123 H 103.147 -2.64702 -1.8805 0
M  V30 1124 H 104.158 -5.10319 0.882899 0
M  V30 1125 H 100.835 -3.92802 -1.41467 0
M  V30 1126 H 102.225 -6.4995 1.70338 0
M  V30 1127 N 104.945 -0.338344 -1.53925 0
M  V30 1128 C 105.908 0.508299 -2.23493 0
M  V30 1129 C 106.908 1.03175 -1.23335 0
M  V30 1130 O 108.098 0.921826 -1.47811 0
M  V30 1131 C 105.23 1.70754 -2.95052 0
M  V30 1132 H 106.423 -0.100058 -2.99733 0
M  V30 1133 H 103.976 -0.0896198 -1.56043 0
M  V30 1134 H 104.711 2.35474 -2.22986 0
M  V30 1135 H 104.496 1.33946 -3.68512 0
M  V30 1136 H 105.986 2.30818 -3.48013 0
M  V30 1137 N 106.423 1.57458 -0.0668435 0
M  V30 1138 C 107.669 1.94401 0.598316 0
M  V30 1139 C 108.024 0.946335 1.67518 0
M  V30 1140 O 107.317 -0.0321442 1.91573 0
M  V30 1141 C 107.511 3.35784 1.22409 0
M  V30 1142 C 107.34 4.49212 0.209367 0
M  V30 1143 C 106.11 5.04887 -0.204218 0
M  V30 1144 C 108.308 5.11335 -0.551431 0
M  V30 1145 N 106.29 6.01854 -1.21016 0
M  V30 1146 C 107.661 6.03754 -1.41 0
M  V30 1147 C 109.716 4.94173 -0.608038 0
M  V30 1148 C 108.419 6.80854 -2.32013 0
M  V30 1149 C 110.445 5.71912 -1.50566 0
M  V30 1150 C 109.807 6.63976 -2.35191 0
M  V30 1151 H 105.906 0.758538 0.190114 0
M  V30 1152 H 108.49 1.94175 -0.142832 0
M  V30 1153 H 106.661 3.36757 1.93518 0
M  V30 1154 H 108.393 3.59976 1.84931 0
M  V30 1155 H 105.148 4.73266 0.177908 0
M  V30 1156 H 105.572 6.55035 -1.71049 0
M  V30 1157 H 110.214 4.22788 0.032022 0
M  V30 1158 H 107.932 7.5152 -2.97057 0
M  V30 1159 H 111.518 5.60656 -1.55423 0
M  V30 1160 H 110.398 7.2308 -3.03522 0
M  V30 1161 N 107.901 -0.206675 1.56239 0
M  V30 1162 C 109.15 -0.926964 1.79138 0
M  V30 1163 C 109.463 -1.84901 0.638043 0
M  V30 1164 O 110.669 -2.60906 0.751033 0
M  V30 1165 C 109.125 -1.6986 3.17294 0
M  V30 1166 C 108.733 -0.821956 4.40395 0
M  V30 1167 C 110.477 -2.40922 3.4951 0
M  V30 1168 C 108.384 -1.59179 5.69575 0
M  V30 1169 H 107.314 -0.349864 0.667915 0
M  V30 1170 H 109.965 -0.180487 1.8261 0
M  V30 1171 H 108.347 -2.48853 3.08039 0
M  V30 1172 H 109.521 -0.0715019 4.60745 0
M  V30 1173 H 107.836 -0.222741 4.15804 0
M  V30 1174 H 110.433 -2.99047 4.43255 0
M  V30 1175 H 110.776 -3.14542 2.72707 0
M  V30 1176 H 111.309 -1.68905 3.60161 0
M  V30 1177 H 108.048 -0.898589 6.49312 0
M  V30 1178 H 107.568 -2.31648 5.53262 0
M  V30 1179 H 109.247 -2.14862 6.10281 0
M  V30 1180 N 109.379 -1.50304 -0.473955 0
M  V30 1181 C 110.627 -1.60832 -1.22382 0
M  V30 1182 C 110.948 -0.30939 -1.9253 0
M  V30 1183 O 110.218 0.67296 -1.83978 0
M  V30 1184 H 108.798 -0.592652 -0.454723 0
M  V30 1185 H 111.46 -1.87068 -0.546968 0
M  V30 1186 H 110.556 -2.41803 -1.97327 0
M  V30 1187 N 110.857 0.726932 -1.39834 0
M  V30 1188 C 111.79 1.8501 -1.33592 0
M  V30 1189 C 112.768 1.61262 -0.208191 0
M  V30 1190 O 113.952 1.84422 -0.389981 0
M  V30 1191 C 111.079 3.21143 -1.07633 0
M  V30 1192 C 110.125 3.63737 -2.22705 0
M  V30 1193 S 110.958 3.72167 -3.85035 0
M  V30 1194 C 112.114 5.11077 -3.61318 0
M  V30 1195 H 112.347 1.90022 -2.28646 0
M  V30 1196 H 109.88 0.892595 -1.25985 0
M  V30 1197 H 111.838 3.99747 -0.933415 0
M  V30 1198 H 110.499 3.13776 -0.142526 0
M  V30 1199 H 109.692 4.62551 -2.00155 0
M  V30 1200 H 109.294 2.9236 -2.33242 0
M  V30 1201 H 111.586 5.97656 -3.19083 0
M  V30 1202 H 112.529 5.38658 -4.59623 0
M  V30 1203 H 112.937 4.81135 -2.95245 0
M  V30 1204 N 112.336 1.25143 0.95797 0
M  V30 1205 C 113.582 1.10863 1.70531 0
M  V30 1206 C 113.937 -0.347391 1.89238 0
M  V30 1207 O 113.23 -1.25262 1.44983 0
M  V30 1208 C 113.424 1.79272 3.09187 0
M  V30 1209 C 113.253 3.31376 3.04006 0
M  V30 1210 C 112.023 4.0062 3.07948 0
M  V30 1211 C 114.221 4.27825 2.8543 0
M  V30 1212 N 112.203 5.39526 2.9289 0
M  V30 1213 C 113.574 5.53794 2.78769 0
M  V30 1214 C 115.629 4.1828 2.70085 0
M  V30 1215 C 114.332 6.7131 2.58331 0
M  V30 1216 C 116.358 5.35485 2.51017 0
M  V30 1217 C 115.72 6.60393 2.45073 0
M  V30 1218 H 111.819 0.460362 0.632132 0
M  V30 1219 H 114.403 1.58196 1.13499 0
M  V30 1220 H 112.574 1.34439 3.64391 0
M  V30 1221 H 114.306 1.57764 3.72683 0
M  V30 1222 H 111.061 3.51855 3.17009 0
M  V30 1223 H 111.485 6.12416 2.88574 0
M  V30 1224 H 116.127 3.22461 2.73457 0
M  V30 1225 H 113.845 7.67243 2.53701 0
M  V30 1226 H 117.431 5.29959 2.40073 0
M  V30 1227 H 116.311 7.49557 2.30509 0
M  V30 1228 N 113.814 -1.1601 1.06675 0
M  V30 1229 C 114.746 -2.20115 0.638921 0
M  V30 1230 C 115.759 -1.59916 -0.305057 0
M  V30 1231 O 116.948 -1.78245 -0.0954446 0
M  V30 1232 C 114.048 -3.38798 -0.0830083 0
M  V30 1233 C 113.221 -4.2855 0.875426 0
M  V30 1234 C 112.28 -5.25849 0.192042 0
M  V30 1235 O 111.306 -5.63102 0.830921 0
M  V30 1236 N 112.508 -5.70648 -1.06493 0
M  V30 1237 H 115.273 -2.57439 1.53444 0
M  V30 1238 H 112.834 -1.31057 0.950557 0
M  V30 1239 H 114.826 -4.00936 -0.550685 0
M  V30 1240 H 113.396 -2.99947 -0.880386 0
M  V30 1241 H 112.616 -3.63617 1.52238 0
M  V30 1242 H 113.904 -4.85393 1.52548 0
M  V30 1243 H 113.302 -5.42482 -1.60405 0
M  V30 1244 H 111.859 -6.34859 -1.47641 0
M  V30 1245 N 115.292 -0.849877 -1.32721 0
M  V30 1246 C 116.538 -0.451591 -1.97708 0
M  V30 1247 C 116.871 0.989175 -1.6712 0
M  V30 1248 O 116.146 1.69334 -0.956891 0
M  V30 1249 C 116.429 -0.685598 -3.53513 0
M  V30 1250 C 116.282 -2.17444 -3.93749 0
M  V30 1251 C 117.601 -0.138874 -4.39881 0
M  V30 1252 H 114.72 -0.16555 -0.718166 0
M  V30 1253 H 117.362 -1.06742 -1.57182 0
M  V30 1254 H 115.512 -0.161416 -3.88165 0
M  V30 1255 H 117.184 -2.76433 -3.693 0
M  V30 1256 H 115.427 -2.65476 -3.43081 0
M  V30 1257 H 116.098 -2.28888 -5.02309 0
M  V30 1258 H 118.574 -0.587068 -4.11938 0
M  V30 1259 H 117.45 -0.332213 -5.47894 0
M  V30 1260 H 117.711 0.95806 -4.31594 0
M  V30 1261 N 116.77 1.45427 -0.607355 0
M  V30 1262 C 117.7 2.3329 0.0989352 0
M  V30 1263 C 118.681 1.46816 0.859007 0
M  V30 1264 O 119.866 1.75588 0.829604 0
M  V30 1265 C 116.996 3.29518 1.09705 0
M  V30 1266 C 115.95 4.25626 0.450206 0
M  V30 1267 C 115.276 5.11542 1.55655 0
M  V30 1268 C 116.576 5.18505 -0.628455 0
M  V30 1269 H 118.27 2.92595 -0.634716 0
M  V30 1270 H 115.816 1.40696 -0.306681 0
M  V30 1271 H 117.769 3.89855 1.59971 0
M  V30 1272 H 116.493 2.68372 1.86129 0
M  V30 1273 H 115.152 3.66586 -0.0315886 0
M  V30 1274 H 114.8 4.46765 2.31107 0
M  V30 1275 H 114.5 5.76647 1.12925 0
M  V30 1276 H 116.024 5.74748 2.06148 0
M  V30 1277 H 117.438 5.72916 -0.209877 0
M  V30 1278 H 115.835 5.92085 -0.977489 0
M  V30 1279 H 116.905 4.60948 -1.50514 0
M  V30 1280 N 118.248 0.346503 1.53744 0
M  V30 1281 C 119.476 -0.25041 2.05379 0
M  V30 1282 C 119.891 -1.43979 1.22129 0
M  V30 1283 O 119.248 -1.80677 0.257321 0
M  V30 1284 C 119.299 -0.662575 3.55376 0
M  V30 1285 O 119.02 0.479515 4.35468 0
M  V30 1286 C 120.521 -1.31989 4.23195 0
M  V30 1287 H 117.741 -0.0478198 0.669294 0
M  V30 1288 H 120.285 0.499346 1.9831 0
M  V30 1289 H 118.44 -1.36227 3.62658 0
M  V30 1290 H 118.854 0.15037 5.24284 0
M  V30 1291 H 120.328 -1.55902 5.29527 0
M  V30 1292 H 120.805 -2.27436 3.75725 0
M  V30 1293 H 121.411 -0.662154 4.20114 0
M  V30 1294 N 119.726 -1.57421 0.075193 0
M  V30 1295 C 121.003 -1.85029 -0.634329 0
M  V30 1296 C 121.383 -0.968305 -1.87582 0
M  V30 1297 O 120.731 -0.0354749 -2.28472 0
M  V30 1298 C 120.941 -3.35286 -0.968742 0
M  V30 1299 C 122.289 -4.02875 -1.34077 0
M  V30 1300 O 123.313 -3.40051 -1.06037 0
M  V30 1301 O 122.172 -5.13691 -1.86506 0
M  V30 1302 H 119.266 -0.7645 -0.315387 0
M  V30 1303 H 121.812 -1.69366 0.106382 0
M  V30 1304 H 120.584 -3.91203 -0.0871376 0
M  V30 1305 H 120.207 -3.56223 -1.7661 0
M  V30 1306 N 121.204 0.198386 -1.56346 0
M  V30 1307 C 122.434 0.934215 -1.84271 0
M  V30 1308 C 122.842 1.77496 -0.655125 0
M  V30 1309 O 122.185 1.7961 0.385488 0
M  V30 1310 C 122.247 1.88278 -3.06254 0
M  V30 1311 C 121.911 1.22431 -4.40295 0
M  V30 1312 C 122.908 0.602839 -5.16393 0
M  V30 1313 C 120.593 1.22915 -4.87029 0
M  V30 1314 C 122.587 -0.0050083 -6.374 0
M  V30 1315 C 120.274 0.617465 -6.07973 0
M  V30 1316 C 121.272 0.00146341 -6.83 0
M  V30 1317 O 120.96 -0.600642 -8.01653 0
M  V30 1318 H 120.692 0.278245 -0.616081 0
M  V30 1319 H 123.246 0.211626 -2.04307 0
M  V30 1320 H 121.476 2.64498 -2.82095 0
M  V30 1321 H 123.165 2.48612 -3.20853 0
M  V30 1322 H 123.931 0.591265 -4.81382 0
M  V30 1323 H 119.81 1.69801 -4.28589 0
M  V30 1324 H 123.354 -0.48643 -6.95902 0
M  V30 1325 H 119.251 0.62653 -6.42452 0
M  V30 1326 H 120.019 -0.497225 -8.16988 0
M  V30 1327 N 122.682 1.50554 0.465978 0
M  V30 1328 C 123.928 1.62038 1.21949 0
M  V30 1329 C 124.261 0.322116 1.9151 0
M  V30 1330 O 123.536 -0.676723 1.82348 0
M  V30 1331 C 123.819 2.80421 2.25912 0
M  V30 1332 C 123.672 4.20144 1.60622 0
M  V30 1333 C 124.991 2.94354 3.27176 0
M  V30 1334 H 122.11 0.589752 0.441998 0
M  V30 1335 H 124.752 1.82956 0.51257 0
M  V30 1336 H 122.902 2.62717 2.86203 0
M  V30 1337 H 124.574 4.49449 1.03889 0
M  V30 1338 H 122.817 4.24165 0.909211 0
M  V30 1339 H 123.488 4.98914 2.36196 0
M  V30 1340 H 125.964 3.10578 2.76913 0
M  V30 1341 H 124.84 3.788 3.97242 0
M  V30 1342 H 125.101 2.05186 3.916 0
M  V30 1343 N 124.16 -0.719506 1.40217 0
M  V30 1344 C 125.107 -1.83359 1.40172 0
M  V30 1345 C 126.077 -1.64065 0.259206 0
M  V30 1346 O 127.262 -1.85254 0.456677 0
M  V30 1347 C 124.402 -3.2103 1.26624 0
M  V30 1348 C 123.515 -3.51923 2.50548 0
M  V30 1349 C 122.65 -4.79079 2.29471 0
M  V30 1350 C 121.689 -5.02863 3.48992 0
M  V30 1351 N 120.826 -6.2123 3.27135 0
M  V30 1352 H 125.666 -1.82733 2.35399 0
M  V30 1353 H 123.203 -0.892688 1.16917 0
M  V30 1354 H 125.161 -4.00524 1.16776 0
M  V30 1355 H 123.791 -3.20895 0.350176 0
M  V30 1356 H 122.843 -2.67014 2.70939 0
M  V30 1357 H 124.155 -3.6541 3.39525 0
M  V30 1358 H 123.309 -5.66582 2.16955 0
M  V30 1359 H 122.048 -4.67794 1.37913 0
M  V30 1360 H 121.053 -4.13816 3.6199 0
M  V30 1361 H 122.278 -5.16023 4.41472 0
M  V30 1362 H 120.224 -6.11204 2.38256 0
M  V30 1363 H 120.141 -6.35375 4.09675 0
M  V30 1364 H 121.409 -7.11532 3.18344 0
M  V30 1365 N 125.638 -1.25649 -0.95132 0
M  V30 1366 C 127.049 -1.09654 -1.51106 0
M  V30 1367 C 127.4 0.326615 -1.93462 0
M  V30 1368 O 126.525 1.21697 -1.78938 0
M  V30 1369 C 127.12 -1.98437 -2.74605 0
M  V30 1370 C 125.679 -1.86618 -3.2688 0
M  V30 1371 C 124.826 -1.9239 -1.99703 0
M  V30 1372 H 127.777 -1.38887 -0.767865 0
M  V30 1373 H 127.798 -1.5263 -3.48546 0
M  V30 1374 H 127.31 -3.02009 -2.43746 0
M  V30 1375 H 125.411 -0.859421 -3.62553 0
M  V30 1376 H 125.524 -2.71607 -3.94673 0
M  V30 1377 H 123.888 -1.36317 -2.15151 0
M  V30 1378 H 124.671 -2.97573 -1.71188 0
M  V30 1379 N 127.117 1.15442 -1.07289 0
M  V30 1380 C 128.047 2.22312 -0.714107 0
M  V30 1381 C 129.028 1.67467 0.298155 0
M  V30 1382 O 130.213 1.93445 0.171048 0
M  V30 1383 C 127.343 3.47124 -0.110448 0
M  V30 1384 C 126.297 4.14926 -1.04979 0
M  V30 1385 C 125.623 5.33807 -0.308924 0
M  V30 1386 C 126.923 4.64762 -2.38314 0
M  V30 1387 H 128.617 2.5258 -1.6076 0
M  V30 1388 H 126.163 1.21404 -0.77441 0
M  V30 1389 H 128.116 4.21124 0.152482 0
M  V30 1390 H 126.84 3.16187 0.81812 0
M  V30 1391 H 125.499 3.42866 -1.29764 0
M  V30 1392 H 125.147 4.99126 0.623084 0
M  V30 1393 H 124.847 5.80113 -0.935036 0
M  V30 1394 H 126.371 6.10576 -0.0537771 0
M  V30 1395 H 127.785 5.30292 -2.1786 0
M  V30 1396 H 126.182 5.21728 -2.96514 0
M  V30 1397 H 127.252 3.80434 -3.00663 0
M  V30 1398 N 128.595 0.856903 1.32268 0
M  V30 1399 C 129.558 0.308171 2.27119 0
M  V30 1400 C 130.558 -0.533421 1.51695 0
M  V30 1401 O 131.748 -0.344607 1.70757 0
M  V30 1402 C 128.88 -0.563757 3.36206 0
M  V30 1403 H 130.073 1.14535 2.77167 0
M  V30 1404 H 127.626 0.631421 1.42978 0
M  V30 1405 H 128.361 -1.42266 2.91429 0
M  V30 1406 H 128.146 0.0386749 3.92081 0
M  V30 1407 H 129.636 -0.940386 4.06874 0
M  V30 1408 N 130.073 -1.45103 0.615059 0
M  V30 1409 C 131.003 -2.33339 -0.0865619 0
M  V30 1410 C 131.984 -1.4727 -0.851209 0
M  V30 1411 O 133.169 -1.76026 -0.820281 0
M  V30 1412 C 130.299 -3.30095 -1.07956 0
M  V30 1413 C 129.253 -4.25858 -0.427628 0
M  V30 1414 C 128.579 -5.12361 -1.5294 0
M  V30 1415 C 129.879 -5.18165 0.655944 0
M  V30 1416 H 131.573 -2.92254 0.650224 0
M  V30 1417 H 129.119 -1.40532 0.314138 0
M  V30 1418 H 131.072 -3.90698 -1.57901 0
M  V30 1419 H 129.796 -2.69355 -1.84703 0
M  V30 1420 H 128.455 -3.66564 0.0510292 0
M  V30 1421 H 128.103 -4.47984 -2.28734 0
M  V30 1422 H 127.803 -5.77238 -1.09865 0
M  V30 1423 H 129.327 -5.75833 -2.03098 0
M  V30 1424 H 130.741 -5.72796 0.240257 0
M  V30 1425 H 129.138 -5.91559 1.00888 0
M  V30 1426 H 130.208 -4.60144 1.52957 0
M  V30 1427 N 131.551 -0.354651 -1.53558 0
M  V30 1428 C 132.967 -0.00315426 -1.596 0
M  V30 1429 C 133.167 1.47741 -1.37021 0
M  V30 1430 O 132.223 2.23759 -1.16996 0
M  V30 1431 C 133.536 -0.44929 -2.97325 0
M  V30 1432 C 135.084 -0.402578 -3.104 0
M  V30 1433 C 135.559 -0.824355 -4.5052 0
M  V30 1434 N 137.05 -0.778979 -4.56603 0
M  V30 1435 C 137.785 -1.07715 -5.63192 0
M  V30 1436 N 137.281 -1.44405 -6.77583 0
M  V30 1437 N 139.074 -1.00066 -5.53121 0
M  V30 1438 H 131.225 -1.31893 -1.66487 0
M  V30 1439 H 133.488 -0.538388 -0.780284 0
M  V30 1440 H 133.194 -1.48202 -3.1895 0
M  V30 1441 H 133.068 0.169772 -3.76818 0
M  V30 1442 H 135.455 0.621004 -2.88492 0
M  V30 1443 H 135.536 -1.05699 -2.32941 0
M  V30 1444 H 135.18 -1.846 -4.73165 0
M  V30 1445 H 135.11 -0.147304 -5.26394 0
M  V30 1446 H 137.601 -0.508528 -3.74463 0
M  V30 1447 H 137.914 -1.65612 -7.54846 0
M  V30 1448 H 136.259 -1.4826 -6.79002 0
M  V30 1449 H 139.45 -0.713293 -4.62633 0
M  V30 1450 H 139.623 -1.23638 -6.36096 0
M  V30 1451 N 133.029 1.57378 -0.0835403 0
M  V30 1452 C 133.959 2.1641 0.87686 0
M  V30 1453 C 134.94 1.09429 1.30228 0
M  V30 1454 O 136.125 1.37516 1.37124 0
M  V30 1455 C 133.255 2.73517 2.14022 0
M  V30 1456 C 132.209 3.85769 1.85381 0
M  V30 1457 C 131.535 4.29529 3.18448 0
M  V30 1458 C 132.835 5.09486 1.14984 0
M  V30 1459 H 134.529 2.96914 0.385059 0
M  V30 1460 H 132.075 1.42823 0.18377 0
M  V30 1461 H 134.028 3.13463 2.81636 0
M  V30 1462 H 132.752 1.90252 2.65465 0
M  V30 1463 H 131.411 3.46345 1.20169 0
M  V30 1464 H 131.059 3.43169 3.67755 0
M  V30 1465 H 130.759 5.05204 3.00071 0
M  V30 1466 H 132.283 4.72099 3.8724 0
M  V30 1467 H 133.697 5.46674 1.72687 0
M  V30 1468 H 132.094 5.90515 1.06826 0
M  V30 1469 H 133.164 4.84724 0.130749 0
M  V30 1470 N 134.507 -0.190092 1.56449 0
M  V30 1471 C 135.44 -1.26375 1.90012 0
M  V30 1472 C 136.418 -1.43705 0.760765 0
M  V30 1473 O 137.602 -1.59014 1.01226 0
M  V30 1474 C 134.729 -2.62962 2.13468 0
M  V30 1475 C 133.775 -2.62474 3.36169 0
M  V30 1476 S 134.608 -2.13412 4.91137 0
M  V30 1477 C 135.764 -3.51812 5.17667 0
M  V30 1478 H 135.997 -0.977181 2.80782 0
M  V30 1479 H 133.53 -0.393814 1.49293 0
M  V30 1480 H 135.488 -3.41583 2.27664 0
M  V30 1481 H 134.149 -2.88828 1.23439 0
M  V30 1482 H 133.342 -3.62918 3.49723 0
M  V30 1483 H 132.944 -1.91937 3.20992 0
M  V30 1484 H 135.236 -4.47706 5.08494 0
M  V30 1485 H 136.179 -3.43148 6.19399 0
M  V30 1486 H 136.587 -3.46956 4.45288 0
M  V30 1487 N 135.985 -1.50799 -0.457987 0
M  V30 1488 C 136.915 -1.73553 -1.5621 0
M  V30 1489 C 137.896 -0.584774 -1.59732 0
M  V30 1490 O 139.081 -0.825314 -1.7579 0
M  V30 1491 C 136.211 -1.84169 -2.94447 0
M  V30 1492 C 135.165 -2.99461 -3.0579 0
M  V30 1493 C 134.491 -2.95235 -4.45803 0
M  V30 1494 C 135.791 -4.39766 -2.81786 0
M  V30 1495 H 137.485 -2.66 -1.37421 0
M  V30 1496 H 135.031 -1.28002 -0.659662 0
M  V30 1497 H 136.984 -1.98672 -3.71628 0
M  V30 1498 H 135.708 -0.883545 -3.14422 0
M  V30 1499 H 134.367 -2.8463 -2.31044 0
M  V30 1500 H 134.015 -1.97239 -4.62715 0
M  V30 1501 H 133.715 -3.72642 -4.54326 0
M  V30 1502 H 135.239 -3.11803 -5.24987 0
M  V30 1503 H 136.653 -4.55054 -3.4871 0
M  V30 1504 H 135.05 -5.18722 -3.0174 0
M  V30 1505 H 136.12 -4.51229 -1.7754 0
M  V30 1506 N 137.463 0.71206 -1.40597 0
M  V30 1507 C 138.395 1.83704 -1.37061 0
M  V30 1508 C 139.408 1.60453 -0.275426 0
M  V30 1509 O 140.597 1.70262 -0.53602 0
M  V30 1510 C 137.697 3.20172 -1.11099 0
M  V30 1511 C 136.87 3.7059 -2.3234 0
M  V30 1512 C 135.929 4.85681 -2.02485 0
M  V30 1513 O 134.955 4.9815 -2.75382 0
M  V30 1514 N 136.157 5.71735 -1.00497 0
M  V30 1515 H 138.922 1.87235 -2.34016 0
M  V30 1516 H 136.483 0.893739 -1.34996 0
M  V30 1517 H 138.475 3.94768 -0.891064 0
M  V30 1518 H 137.045 3.11767 -0.227989 0
M  V30 1519 H 136.265 2.87085 -2.7014 0
M  V30 1520 H 137.553 4.01011 -3.13157 0
M  V30 1521 H 136.951 5.64275 -0.401298 0
M  V30 1522 H 135.508 6.463 -0.844942 0
M  V30 1523 N 138.941 1.26152 0.944643 0
M  V30 1524 C 139.871 1.09902 2.06019 0
M  V30 1525 C 140.852 0.00519538 1.70099 0
M  V30 1526 O 142.037 0.176583 1.93396 0
M  V30 1527 C 139.167 0.727562 3.39594 0
M  V30 1528 C 138.121 1.77274 3.89561 0
M  V30 1529 C 137.447 1.25569 5.19747 0
M  V30 1530 C 138.747 3.17357 4.14827 0
M  V30 1531 H 140.441 2.03217 2.19871 0
M  V30 1532 H 137.987 0.978452 1.05652 0
M  V30 1533 H 139.94 0.600777 4.17095 0
M  V30 1534 H 138.664 -0.241287 3.25707 0
M  V30 1535 H 137.323 1.88814 3.14237 0
M  V30 1536 H 136.971 0.276783 5.02238 0
M  V30 1537 H 136.671 1.95433 5.54148 0
M  V30 1538 H 138.195 1.1415 5.99835 0
M  V30 1539 H 139.609 3.08914 4.82954 0
M  V30 1540 H 138.006 3.84781 4.60504 0
M  V30 1541 H 139.076 3.63673 3.20734 0
M  V30 1542 N 140.419 -1.14872 1.07899 0
M  V30 1543 C 141.665 -1.86064 0.806725 0
M  V30 1544 C 141.998 -1.82434 -0.665706 0
M  V30 1545 O 141.273 -1.25138 -1.48899 0
M  V30 1546 C 141.556 -3.34929 1.32267 0
M  V30 1547 C 141.409 -3.47161 2.86006 0
M  V30 1548 C 142.728 -4.29863 0.943717 0
M  V30 1549 H 139.847 -0.675591 0.294526 0
M  V30 1550 H 142.489 -1.34925 1.33773 0
M  V30 1551 H 140.639 -3.78611 0.870974 0
M  V30 1552 H 142.311 -3.12302 3.39507 0
M  V30 1553 H 140.554 -2.88539 3.23925 0
M  V30 1554 H 141.225 -4.51777 3.17177 0
M  V30 1555 H 143.701 -3.9417 1.33302 0
M  V30 1556 H 142.577 -5.32494 1.33198 0
M  V30 1557 H 142.838 -4.41846 -0.149796 0
M  V30 1558 N 141.898 -0.863906 -1.31812 0
M  V30 1559 C 143.147 -0.46801 -1.96195 0
M  V30 1560 C 143.46 0.983474 -1.69077 0
M  V30 1561 O 144.666 1.48523 -2.27273 0
M  V30 1562 C 143.122 -0.785995 -3.51212 0
M  V30 1563 C 142.73 -2.25383 -3.87178 0
M  V30 1564 C 144.474 -0.458274 -4.22019 0
M  V30 1565 C 142.381 -2.51455 -5.3528 0
M  V30 1566 H 141.311 -0.171283 -0.734287 0
M  V30 1567 H 143.962 -1.05597 -1.50072 0
M  V30 1568 H 142.344 -0.127359 -3.95795 0
M  V30 1569 H 143.518 -2.95502 -3.53575 0
M  V30 1570 H 141.833 -2.54698 -3.2942 0
M  V30 1571 H 144.43 -0.630369 -5.30971 0
M  V30 1572 H 144.773 0.600834 -4.11941 0
M  V30 1573 H 145.306 -1.07319 -3.8305 0
M  V30 1574 H 142.045 -3.56025 -5.50387 0
M  V30 1575 H 141.565 -1.85923 -5.70257 0
M  V30 1576 H 143.244 -2.35874 -6.02472 0
M  V30 1577 N 143.376 1.44774 -0.622745 0
M  V30 1578 C 144.622 2.0242 -0.124083 0
M  V30 1579 C 144.955 1.4881 1.24777 0
M  V30 1580 O 144.23 0.668799 1.8264 0
M  V30 1581 C 144.513 3.59957 -0.101619 0
M  V30 1582 C 144.366 4.23867 -1.50521 0
M  V30 1583 C 145.685 4.36284 0.578272 0
M  V30 1584 H 142.804 0.735528 -0.0465645 0
M  V30 1585 H 145.446 1.72447 -0.797617 0
M  V30 1586 H 143.596 3.85623 0.471934 0
M  V30 1587 H 145.268 4.09336 -2.12701 0
M  V30 1588 H 143.511 3.81684 -2.06154 0
M  V30 1589 H 144.182 5.32843 -1.4416 0
M  V30 1590 H 146.658 4.16001 0.0906057 0
M  V30 1591 H 145.534 5.46004 0.563149 0
M  V30 1592 H 145.795 4.10271 1.64713 0
M  V30 1593 N 144.854 0.36279 1.53368 0
M  V30 1594 C 146.1 -0.228113 2.01513 0
M  V30 1595 C 146.433 -1.48648 1.2497 0
M  V30 1596 O 145.708 -1.91459 0.342616 0
M  V30 1597 C 145.991 -0.522884 3.56284 0
M  V30 1598 C 145.844 0.74892 4.43521 0
M  V30 1599 C 147.163 -1.32461 4.19693 0
M  V30 1600 H 144.282 -0.0814343 0.732487 0
M  V30 1601 H 146.924 0.48713 1.83649 0
M  V30 1602 H 145.074 -1.1322 3.71636 0
M  V30 1603 H 146.746 1.38648 4.39971 0
M  V30 1604 H 144.989 1.36986 4.11603 0
M  V30 1605 H 145.66 0.497667 5.49752 0
M  V30 1606 H 148.136 -0.809203 4.08156 0
M  V30 1607 H 147.012 -1.49961 5.28018 0
M  V30 1608 H 147.273 -2.33232 3.75573 0
M  V30 1609 N 146.332 -1.57332 0.0918853 0
M  V30 1610 C 147.295 -2.12708 -0.85369 0
M  V30 1611 C 148.295 -1.05561 -1.213 0
M  V30 1612 O 149.485 -1.31461 -1.14296 0
M  V30 1613 C 146.617 -2.64503 -2.15061 0
M  V30 1614 H 147.81 -2.97573 -0.3729 0
M  V30 1615 H 145.363 -1.55509 -0.157072 0
M  V30 1616 H 146.098 -1.83149 -2.67632 0
M  V30 1617 H 145.883 -3.4284 -1.90272 0
M  V30 1618 H 147.373 -3.07351 -2.82711 0
M  V30 1619 N 147.81 0.181792 -1.56548 0
M  V30 1620 C 148.74 1.22765 -1.98623 0
M  V30 1621 C 149.721 1.46747 -0.860189 0
M  V30 1622 O 150.906 1.58259 -1.12551 0
M  V30 1623 C 148.036 2.56894 -2.33715 0
M  V30 1624 C 146.99 2.475 -3.49182 0
M  V30 1625 C 146.316 3.86023 -3.69986 0
M  V30 1626 C 147.616 1.98866 -4.82959 0
M  V30 1627 H 149.31 0.877942 -2.86239 0
M  V30 1628 H 146.856 0.42088 -1.37712 0
M  V30 1629 H 148.809 3.30253 -2.61746 0
M  V30 1630 H 147.533 2.93632 -1.42997 0
M  V30 1631 H 146.192 1.76596 -3.21262 0
M  V30 1632 H 145.84 4.20136 -2.76576 0
M  V30 1633 H 145.54 3.80609 -4.47672 0
M  V30 1634 H 147.064 4.60984 -4.00407 0
M  V30 1635 H 148.478 2.61992 -5.09934 0
M  V30 1636 H 146.875 2.04424 -5.64208 0
M  V30 1637 H 147.945 0.942465 -4.75653 0
M  V30 1638 N 149.288 1.51039 0.449983 0
M  V30 1639 C 150.534 1.63322 1.20223 0
M  V30 1640 C 150.867 0.34241 1.91158 0
M  V30 1641 O 150.142 -0.657344 1.83055 0
M  V30 1642 C 150.425 2.82801 2.22925 0
M  V30 1643 C 150.278 4.21823 1.56157 0
M  V30 1644 C 151.597 2.97807 3.24035 0
M  V30 1645 H 148.716 0.594407 0.435718 0
M  V30 1646 H 151.358 1.83489 0.493136 0
M  V30 1647 H 149.508 2.65738 2.834 0
M  V30 1648 H 151.18 4.50526 0.991162 0
M  V30 1649 H 149.423 4.25105 0.864172 0
M  V30 1650 H 150.094 5.01391 2.30891 0
M  V30 1651 H 152.57 3.13497 2.73603 0
M  V30 1652 H 151.446 3.82992 3.93202 0
M  V30 1653 H 151.707 2.09328 3.89402 0
M  V30 1654 N 150.766 -0.704594 1.40972 0
M  V30 1655 C 152.012 -1.46675 1.40051 0
M  V30 1656 C 152.345 -1.94199 0.00641102 0
M  V30 1657 O 151.62 -1.68916 -0.964235 0
M  V30 1658 C 151.903 -2.68505 2.39952 0
M  V30 1659 C 151.756 -2.26805 3.88432 0
M  V30 1660 C 153.075 -3.70686 2.37233 0
M  V30 1661 H 150.194 -0.532015 0.510028 0
M  V30 1662 H 152.836 -0.803255 1.72185 0
M  V30 1663 H 150.986 -3.25114 2.1268 0
M  V30 1664 H 152.658 -1.75592 4.26574 0
M  V30 1665 H 150.901 -1.58685 4.03734 0
M  V30 1666 H 151.572 -3.14181 4.53866 0
M  V30 1667 H 154.048 -3.23731 2.61415 0
M  V30 1668 H 152.924 -4.53553 3.09162 0
M  V30 1669 H 153.185 -4.19754 1.38777 0
M  V30 1670 N 152.244 -1.26651 -0.937939 0
M  V30 1671 C 153.474 -1.15006 -1.71631 0
M  V30 1672 C 153.882 0.297026 -1.86854 0
M  V30 1673 O 153.225 1.21493 -1.37786 0
M  V30 1674 C 153.287 -1.74984 -3.14039 0
M  V30 1675 C 152.951 -3.24103 -3.2219 0
M  V30 1676 C 153.948 -4.20877 -3.05219 0
M  V30 1677 C 151.633 -3.64625 -3.45476 0
M  V30 1678 C 153.627 -5.56151 -3.11408 0
M  V30 1679 C 151.314 -5.00032 -3.513 0
M  V30 1680 C 152.312 -5.95604 -3.34282 0
M  V30 1681 O 152 -7.28545 -3.3982 0
M  V30 1682 H 151.732 -0.401183 -0.544085 0
M  V30 1683 H 154.286 -1.67832 -1.18413 0
M  V30 1684 H 152.516 -1.16624 -3.68695 0
M  V30 1685 H 154.205 -1.58199 -3.73802 0
M  V30 1686 H 154.971 -3.90908 -2.87081 0
M  V30 1687 H 150.85 -2.90718 -3.57777 0
M  V30 1688 H 154.394 -6.30727 -2.98043 0
M  V30 1689 H 150.291 -5.29659 -3.68959 0
M  V30 1690 H 151.059 -7.3686 -3.56343 0
M  V30 1691 N 153.722 1.14298 -1.08507 0
M  V30 1692 C 154.968 1.85633 -0.816581 0
M  V30 1693 C 155.301 1.82784 0.656021 0
M  V30 1694 O 154.576 1.25926 1.48233 0
M  V30 1695 C 154.859 3.34223 -1.34041 0
M  V30 1696 C 154.712 3.45639 -2.87843 0
M  V30 1697 C 156.031 4.29356 -0.9665 0
M  V30 1698 H 153.15 0.67402 -0.298104 0
M  V30 1699 H 155.792 1.34214 -1.34487 0
M  V30 1700 H 153.942 3.78144 -0.89104 0
M  V30 1701 H 155.614 3.10498 -3.41158 0
M  V30 1702 H 153.857 2.86817 -3.25451 0
M  V30 1703 H 154.528 4.50089 -3.19569 0
M  V30 1704 H 157.004 3.93457 -1.35391 0
M  V30 1705 H 155.88 5.3178 -1.3602 0
M  V30 1706 H 156.141 4.41919 0.126362 0
M  V30 1707 N 155.201 0.870884 1.31352 0
M  V30 1708 C 156.45 0.478408 1.95944 0
M  V30 1709 C 156.763 -0.974493 1.69597 0
M  V30 1710 O 157.969 -1.47316 2.28058 0
M  V30 1711 C 156.425 0.804609 3.50791 0
M  V30 1712 C 156.033 2.27433 3.85977 0
M  V30 1713 C 157.777 0.480648 4.2177 0
M  V30 1714 C 155.684 2.5429 5.33939 0
M  V30 1715 H 154.614 0.175175 0.733369 0
M  V30 1716 H 157.265 1.06391 1.4951 0
M  V30 1717 H 155.647 0.148347 3.95722 0
M  V30 1718 H 156.821 2.97373 3.52002 0
M  V30 1719 H 155.136 2.56442 3.28065 0
M  V30 1720 H 157.733 0.658519 5.30629 0
M  V30 1721 H 158.076 -0.578979 4.12254 0
M  V30 1722 H 158.609 1.09349 3.82476 0
M  V30 1723 H 155.348 3.58939 5.48491 0
M  V30 1724 H 154.868 1.88945 5.69263 0
M  V30 1725 H 156.547 2.39066 6.01212 0
M  V30 1726 N 156.679 -1.44442 0.630414 0
M  V30 1727 C 157.909 -2.06115 0.141465 0
M  V30 1728 C 158.317 -1.47179 -1.1889 0
M  V30 1729 O 157.66 -0.588873 -1.74006 0
M  V30 1730 C 157.722 -3.59467 -0.0484355 0
M  V30 1731 C 157.386 -4.40864 1.20366 0
M  V30 1732 C 158.383 -4.74391 2.12719 0
M  V30 1733 C 156.068 -4.8125 1.43887 0
M  V30 1734 C 158.062 -5.47186 3.26904 0
M  V30 1735 C 155.749 -5.53795 2.5837 0
M  V30 1736 C 156.747 -5.86682 3.49705 0
M  V30 1737 O 156.435 -6.57749 4.62191 0
M  V30 1738 H 156.167 -0.671648 0.0765792 0
M  V30 1739 H 158.721 -1.86312 0.864695 0
M  V30 1740 H 156.951 -3.77758 -0.826803 0
M  V30 1741 H 158.64 -4.02909 -0.491849 0
M  V30 1742 H 159.406 -4.43728 1.95781 0
M  V30 1743 H 155.285 -4.55073 0.736853 0
M  V30 1744 H 158.829 -5.72773 3.98217 0
M  V30 1745 H 154.726 -5.83872 2.75251 0
M  V30 1746 H 155.494 -6.76217 4.61164 0
M  V30 1747 N 158.157 -0.370918 -1.53173 0
M  V30 1748 C 159.405 0.216673 -2.00935 0
M  V30 1749 C 159.726 1.48845 -1.25977 0
M  V30 1750 O 158.996 1.92286 -0.374551 0
M  V30 1751 H 157.576 0.0830565 -0.742368 0
M  V30 1752 H 160.238 -0.49838 -1.8842 0
M  V30 1753 H 159.334 0.439893 -3.08984 0
M  V30 1754 N 159.635 1.57281 -0.100228 0
M  V30 1755 C 160.882 1.94537 0.562268 0
M  V30 1756 C 161.21 0.982315 1.67871 0
M  V30 1757 O 160.465 0.00280936 1.957 0
M  V30 1758 C 160.764 3.38305 1.15259 0
M  V30 1759 C 160.43 4.50618 0.159409 0
M  V30 1760 C 159.092 4.81066 -0.113741 0
M  V30 1761 C 161.444 5.18615 -0.518461 0
M  V30 1762 C 158.772 5.76835 -1.07137 0
M  V30 1763 C 161.124 6.15412 -1.46459 0
M  V30 1764 C 159.788 6.44262 -1.74592 0
M  V30 1765 H 159.058 0.711863 0.205748 0
M  V30 1766 H 161.705 1.90679 -0.17715 0
M  V30 1767 H 160.01 3.38766 1.96836 0
M  V30 1768 H 161.707 3.64435 1.67297 0
M  V30 1769 H 158.297 4.2689 0.382491 0
M  V30 1770 H 162.481 4.95264 -0.320581 0
M  V30 1771 H 157.737 5.975 -1.29628 0
M  V30 1772 H 161.911 6.67194 -1.99564 0
M  V30 1773 H 159.538 7.1828 -2.48953 0
M  V30 1774 N 161.113 -0.173488 1.56642 0
M  V30 1775 C 162.359 -0.891784 1.8214 0
M  V30 1776 C 162.692 -1.8199 0.677736 0
M  V30 1777 O 161.967 -1.91842 -0.320446 0
M  V30 1778 C 162.25 -1.68933 3.18015 0
M  V30 1779 C 162.103 -0.784487 4.42906 0
M  V30 1780 C 163.422 -2.65748 3.50808 0
M  V30 1781 H 160.541 -0.322761 0.662567 0
M  V30 1782 H 163.183 -0.158095 1.89341 0
M  V30 1783 H 161.333 -2.31482 3.12007 0
M  V30 1784 H 163.005 -0.172046 4.60979 0
M  V30 1785 H 161.248 -0.0924117 4.33702 0
M  V30 1786 H 161.919 -1.37799 5.34524 0
M  V30 1787 H 164.395 -2.13327 3.57255 0
M  V30 1788 H 163.271 -3.18619 4.4696 0
M  V30 1789 H 163.532 -3.45842 2.75401 0
M  V30 1790 N 162.591 -1.51276 -0.441967 0
M  V30 1791 C 163.837 -1.63958 -1.19355 0
M  V30 1792 C 164.17 -0.352543 -1.90973 0
M  V30 1793 O 163.445 0.647627 -1.83401 0
M  V30 1794 C 163.728 -2.83979 -2.21422 0
M  V30 1795 C 163.581 -4.22646 -1.53918 0
M  V30 1796 C 164.9 -2.99521 -3.22451 0
M  V30 1797 H 162.019 -0.596709 -0.432559 0
M  V30 1798 H 164.661 -1.83748 -0.483398 0
M  V30 1799 H 162.811 -2.67237 -2.81987 0
M  V30 1800 H 164.483 -4.51045 -0.967256 0
M  V30 1801 H 162.726 -4.25558 -0.841615 0
M  V30 1802 H 163.397 -5.02609 -2.28229 0
M  V30 1803 H 165.873 -3.14944 -2.71937 0
M  V30 1804 H 164.749 -3.85072 -3.91166 0
M  V30 1805 H 165.01 -2.11391 -3.88287 0
M  V30 1806 N 164.069 0.697108 -1.41344 0
M  V30 1807 C 165.315 1.4593 -1.40827 0
M  V30 1808 C 165.648 1.94193 -0.0167098 0
M  V30 1809 O 164.923 1.69425 0.955263 0
M  V30 1810 C 165.206 2.67229 -2.41373 0
M  V30 1811 C 165.059 2.24741 -3.8963 0
M  V30 1812 C 166.378 3.69423 -2.39196 0
M  V30 1813 H 163.497 0.529303 -0.512842 0
M  V30 1814 H 166.139 0.794112 -1.72609 0
M  V30 1815 H 164.289 3.23982 -2.14401 0
M  V30 1816 H 165.961 1.73327 -4.27499 0
M  V30 1817 H 164.204 1.56542 -4.0457 0
M  V30 1818 H 164.875 3.1177 -4.55525 0
M  V30 1819 H 167.351 3.2234 -2.63128 0
M  V30 1820 H 166.227 4.51907 -3.11563 0
M  V30 1821 H 166.488 4.19012 -1.41001 0
M  V30 1822 N 165.547 1.27147 0.931209 0
M  V30 1823 C 166.793 1.14455 1.68141 0
M  V30 1824 C 167.148 -0.307172 1.89932 0
M  V30 1825 O 166.441 -1.22158 1.47607 0
M  V30 1826 C 166.635 1.8579 3.05314 0
M  V30 1827 C 166.464 3.3775 2.96909 0
M  V30 1828 C 165.234 4.07062 2.99381 0
M  V30 1829 C 167.432 4.33783 2.76291 0
M  V30 1830 N 165.414 5.45618 2.8138 0
M  V30 1831 C 166.785 5.59582 2.6696 0
M  V30 1832 C 168.84 4.23915 2.61152 0
M  V30 1833 C 167.543 6.76639 2.44033 0
M  V30 1834 C 169.569 5.40689 2.39602 0
M  V30 1835 C 168.931 6.65443 2.3101 0
M  V30 1836 H 165.03 0.473667 0.622225 0
M  V30 1837 H 167.614 1.60568 1.10118 0
M  V30 1838 H 165.785 1.42138 3.61457 0
M  V30 1839 H 167.517 1.65634 3.69253 0
M  V30 1840 H 164.272 3.585 3.09475 0
M  V30 1841 H 164.696 6.184 2.75519 0
M  V30 1842 H 169.338 3.28189 2.66555 0
M  V30 1843 H 167.056 7.72451 2.3737 0
M  V30 1844 H 170.642 5.34932 2.28778 0
M  V30 1845 H 169.522 7.54277 2.14558 0
M  V30 1846 N 167.025 -1.13721 1.09112 0
M  V30 1847 C 168.273 -1.84559 0.823562 0
M  V30 1848 C 168.594 -1.83754 -0.652658 0
M  V30 1849 O 167.864 -1.29102 -1.47342 0
M  V30 1850 H 166.444 -0.683376 0.301673 0
M  V30 1851 H 169.106 -1.37771 1.37859 0
M  V30 1852 H 168.202 -2.8917 1.17419 0
M  V30 1853 N 168.503 -0.877838 -1.30888 0
M  V30 1854 C 169.749 -0.493426 -1.96706 0
M  V30 1855 C 170.082 0.953504 -1.6918 0
M  V30 1856 O 169.357 1.67266 -0.992594 0
M  V30 1857 C 169.64 -0.760429 -3.51979 0
M  V30 1858 C 169.493 -2.25747 -3.89048 0
M  V30 1859 C 170.812 -0.232148 -4.39487 0
M  V30 1860 H 167.931 -0.180746 -0.714493 0
M  V30 1861 H 170.573 -1.10052 -1.54882 0
M  V30 1862 H 168.723 -0.243715 -3.87735 0
M  V30 1863 H 170.395 -2.84204 -3.63354 0
M  V30 1864 H 168.638 -2.72694 -3.37373 0
M  V30 1865 H 169.309 -2.39491 -4.97341 0
M  V30 1866 H 171.785 -0.674314 -4.106 0
M  V30 1867 H 170.661 -0.448355 -5.47066 0
M  V30 1868 H 170.922 0.866297 -4.33529 0
M  V30 1869 O 170.02 1.4153 -0.777912 0
M  V30 1870 H 170.711 1.9062 -0.344054 0
M  V30 END ATOM
M  V30 BEGIN BOND
M  V30 END BOND
M  V30 END CTAB
M  END
$$$$
