drugbank_target|Q04830 Endo-N-acetylneuraminidase (DB03721; DB04265)
 OpenBabel12092120033D

  0  0  0     0  0            999 V3000
M  V30 BEGIN CTAB
M  V30 COUNTS 14051 14235 0 0 0
M  V30 BEGIN ATOM
M  V30 1 H -0.908 1.98254 -0.117106 0
M  V30 2 N 0 1.576 0 0
M  V30 3 C 0.933 2.03868 1.02534 0
M  V30 4 C 1.911 0.928543 1.3348 0
M  V30 5 O 3.095 1.19667 1.45644 0
M  V30 6 C 0.222 2.43627 2.35294 0
M  V30 7 C -0.732 3.65373 2.2001 0
M  V30 8 S 0.101 5.13292 1.52614 0
M  V30 9 C 1.257 5.56322 2.86805 0
M  V30 10 H 1.49 2.90518 0.631377 0
M  V30 11 H -0.977 1.52953 0.210867 0
M  V30 12 H 0.981 2.67203 3.11629 0
M  V30 13 H -0.358 1.57376 2.7183 0
M  V30 14 H -1.165 3.90944 3.18086 0
M  V30 15 H -1.563 3.418 1.51819 0
M  V30 16 H 0.729 5.58782 3.83104 0
M  V30 17 H 1.672 6.56266 2.65933 0
M  V30 18 H 2.08 4.83886 2.90714 0
M  V30 19 N 1.4781 -0.272755 1.55222 0
M  V30 20 C 2.7031 -1.02683 1.80197 0
M  V30 21 C 3.1281 -1.79142 0.573551 0
M  V30 22 O 2.4861 -1.74917 -0.476849 0
M  V30 23 C 2.5341 -1.9609 3.02624 0
M  V30 24 O 1.6381 -3.04863 2.77727 0
M  V30 25 H 0.9791 -0.293557 0.595584 0
M  V30 26 H 3.5091 -0.30159 2.02365 0
M  V30 27 H 3.5191 -2.38039 3.31363 0
M  V30 28 H 2.1941 -1.39851 3.91682 0
M  V30 29 H 0.7711 -2.67228 2.60084 0
M  V30 30 N 2.9562 -1.48159 -0.537278 0
M  V30 31 C 4.1842 -1.59454 -1.31841 0
M  V30 32 C 4.5992 -0.252065 -1.8711 0
M  V30 33 O 3.9562 0.757621 -1.66031 0
M  V30 34 C 4.0072 -2.63546 -2.47439 0
M  V30 35 O 3.7282 -3.92583 -1.94449 0
M  V30 36 C 5.2292 -2.85212 -3.39366 0
M  V30 37 H 2.4492 -0.53785 -0.401196 0
M  V30 38 H 4.9932 -1.93932 -0.648891 0
M  V30 39 H 3.1482 -2.31946 -3.1029 0
M  V30 40 H 3.5622 -4.49629 -2.70063 0
M  V30 41 H 5.0362 -3.61863 -4.16844 0
M  V30 42 H 5.5132 -1.93765 -3.94147 0
M  V30 43 H 6.1192 -3.18086 -2.82314 0
M  V30 44 N 4.4343 0.785586 -1.36625 0
M  V30 45 C 5.6833 1.53883 -1.30396 0
M  V30 46 C 5.9963 1.95271 0.113452 0
M  V30 47 O 7.2023 2.69858 0.298142 0
M  V30 48 C 5.6583 2.77808 -2.28802 0
M  V30 49 C 5.2663 2.43574 -3.75999 0
M  V30 50 C 7.0103 3.55783 -2.31558 0
M  V30 51 C 4.9173 3.63919 -4.66173 0
M  V30 52 H 3.8473 0.577678 -0.484566 0
M  V30 53 H 6.4983 0.861705 -1.62009 0
M  V30 54 H 4.8803 3.47339 -1.90188 0
M  V30 55 H 6.0543 1.81916 -4.23371 0
M  V30 56 H 4.3693 1.78803 -3.76056 0
M  V30 57 H 6.9663 4.45205 -2.96137 0
M  V30 58 H 7.3093 3.94644 -1.3252 0
M  V30 59 H 7.8423 2.93235 -2.68809 0
M  V30 60 H 4.5813 3.3015 -5.66287 0
M  V30 61 H 4.1013 4.2473 -4.23515 0
M  V30 62 H 5.7803 4.30901 -4.82632 0
M  V30 63 N 5.9124 1.20967 1.01018 0
M  V30 64 C 7.1404 1.04956 1.78303 0
M  V30 65 C 7.5554 -0.400915 1.84494 0
M  V30 66 O 6.9124 -1.27826 1.30257 0
M  V30 67 C 6.9634 1.63403 3.22462 0
M  V30 68 O 6.6844 3.02775 3.16637 0
M  V30 69 C 8.1854 1.52432 4.16268 0
M  V30 70 H 5.4054 0.368858 0.560522 0
M  V30 71 H 7.9494 1.60193 1.27116 0
M  V30 72 H 6.1044 1.1227 3.70775 0
M  V30 73 H 6.5184 3.30626 4.07169 0
M  V30 74 H 7.9924 1.98078 5.15237 0
M  V30 75 H 8.4694 0.477875 4.36592 0
M  V30 76 H 9.0754 2.02787 3.73841 0
M  V30 77 N 7.3905 -1.2043 1.01659 0
M  V30 78 C 8.3225 -2.22626 0.544988 0
M  V30 79 C 9.3355 -1.58479 -0.372609 0
M  V30 80 O 10.5245 -1.77679 -0.170958 0
M  V30 81 C 7.6245 -3.38141 -0.22663 0
M  V30 82 C 6.7975 -4.31877 0.692876 0
M  V30 83 C 5.8565 -5.26191 -0.0311616 0
M  V30 84 O 4.8825 -5.6612 0.591343 0
M  V30 85 N 6.0845 -5.65618 -1.30601 0
M  V30 86 H 8.8495 -2.63716 1.42388 0
M  V30 87 H 6.4105 -1.34971 0.894116 0
M  V30 88 H 8.4025 -3.98239 -0.72024 0
M  V30 89 H 6.9725 -2.95943 -1.00681 0
M  V30 90 H 6.1925 -3.69746 1.36679 0
M  V30 91 H 7.4805 -4.91426 1.31824 0
M  V30 92 H 6.8785 -5.3519 -1.83269 0
M  V30 93 H 5.4355 -6.28025 -1.74435 0
M  V30 94 N 8.8686 -0.792821 -1.36206 0
M  V30 95 C 10.1156 -0.366786 -1.99151 0
M  V30 96 C 10.4436 1.06243 -1.62919 0
M  V30 97 O 9.6986 1.74927 -0.877442 0
M  V30 98 C 9.9976 -0.481501 -3.54142 0
M  V30 99 C 9.6636 -1.87202 -4.10203 0
M  V30 100 C 8.3256 -2.25248 -4.25226 0
M  V30 101 C 10.6776 -2.78237 -4.40719 0
M  V30 102 C 8.0056 -3.53723 -4.68078 0
M  V30 103 C 10.3576 -4.06144 -4.85005 0
M  V30 104 C 9.0216 -4.44207 -4.98234 0
M  V30 105 H 8.2916 -0.134217 -0.728743 0
M  V30 106 H 10.9386 -1.01094 -1.62641 0
M  V30 107 H 9.2436 0.246146 -3.91026 0
M  V30 108 H 10.9406 -0.132844 -4.0078 0
M  V30 109 H 7.5306 -1.56639 -3.98951 0
M  V30 110 H 11.7146 -2.50097 -4.28679 0
M  V30 111 H 6.9706 -3.8308 -4.76508 0
M  V30 112 H 11.1446 -4.76796 -5.07581 0
M  V30 113 H 8.7716 -5.43814 -5.31197 0
M  V30 114 N 10.3467 1.47872 -0.545128 0
M  V30 115 C 11.7577 1.86384 -0.108581 0
M  V30 116 C 12.1087 1.45309 1.31832 0
M  V30 117 O 11.2337 0.850641 1.9898 0
M  V30 118 C 11.8287 3.38265 -0.190274 0
M  V30 119 C 10.3877 3.75914 0.191164 0
M  V30 120 C 9.5347 2.71926 -0.543273 0
M  V30 121 H 12.4857 1.39561 -0.755537 0
M  V30 122 H 12.5067 3.75831 0.594217 0
M  V30 123 H 12.0187 3.6813 -1.2289 0
M  V30 124 H 10.1197 3.51665 1.23136 0
M  V30 125 H 10.2327 4.78836 -0.158987 0
M  V30 126 H 8.5967 2.54697 0.0122495 0
M  V30 127 H 9.3797 3.04634 -1.58282 0
M  V30 128 N 11.8248 0.280983 1.55075 0
M  V30 129 C 13.0498 -0.340154 2.04592 0
M  V30 130 C 13.4748 -1.48246 1.15779 0
M  V30 131 O 12.8328 -1.80614 0.15761 0
M  V30 132 C 12.8808 -0.793104 3.5177 0
M  V30 133 O 11.9848 -1.89981 3.66034 0
M  V30 134 H 11.3258 -0.0694289 0.66036 0
M  V30 135 H 13.8558 0.416993 2.00306 0
M  V30 136 H 13.8658 -1.08729 3.93245 0
M  V30 137 H 12.5408 0.0426163 4.15878 0
M  V30 138 H 11.1178 -1.60771 3.36463 0
M  V30 139 N 13.3029 -1.57598 0.00835791 0
M  V30 140 C 14.5509 -1.90551 -0.6734 0
M  V30 141 C 14.8719 -0.883301 -1.73847 0
M  V30 142 O 14.1419 0.0781442 -1.95744 0
M  V30 143 H 12.7219 -0.703312 -0.251717 0
M  V30 144 H 15.3839 -1.94833 0.0512592 0
M  V30 145 H 14.4799 -2.9056 -1.13935 0
M  V30 146 N 14.781 0.264519 -1.55364 0
M  V30 147 C 15.729 1.34702 -1.89626 0
M  V30 148 C 16.723 1.50712 -0.773459 0
M  V30 149 O 17.929 1.52395 -0.957897 0
M  V30 150 H 14.304 0.450682 -0.601988 0
M  V30 151 H 16.275 1.0306 -2.80038 0
M  V30 152 C 15.024 2.6989 -2.19214 0
M  V30 153 H 14.347 2.58365 -3.05103 0
M  V30 154 H 15.787 3.44553 -2.47102 0
M  V30 155 C 14.246 3.21637 -1.00254 0
M  V30 156 O 14.776 4.00973 -0.241501 0
M  V30 157 N 12.982 2.7943 -0.797938 0
M  V30 158 H 12.529 2.15026 -1.4185 0
M  V30 159 H 12.487 3.144 -0.00363422 0
M  V30 160 N 16.2591 1.48442 0.529413 0
M  V30 161 C 17.4871 1.60151 1.30994 0
M  V30 162 C 17.9021 0.261985 1.86973 0
M  V30 163 O 17.2591 -0.748805 1.66431 0
M  V30 164 C 17.3101 2.64854 2.46038 0
M  V30 165 O 17.0311 3.93608 1.92365 0
M  V30 166 C 18.5321 2.87007 3.37849 0
M  V30 167 H 15.7521 0.539971 0.398338 0
M  V30 168 H 18.2961 1.94273 0.638597 0
M  V30 169 H 16.4511 2.33589 3.09055 0
M  V30 170 H 16.8651 4.51055 2.67675 0
M  V30 171 H 18.3391 3.64068 4.14919 0
M  V30 172 H 18.8161 1.95852 3.93114 0
M  V30 173 H 19.4221 3.19579 2.80623 0
M  V30 174 N 17.7372 -0.778329 1.37039 0
M  V30 175 C 18.6692 -1.90034 1.2814 0
M  V30 176 C 19.6822 -1.61585 0.198558 0
M  V30 177 O 20.8712 -1.72625 0.454175 0
M  V30 178 C 17.9712 -3.25108 0.956968 0
M  V30 179 C 17.1442 -3.81253 2.14394 0
M  V30 180 C 16.2032 -4.94789 1.79082 0
M  V30 181 O 15.2292 -5.10721 2.51301 0
M  V30 182 N 16.4312 -5.75878 0.731043 0
M  V30 183 H 19.1962 -1.98186 2.24816 0
M  V30 184 H 16.7572 -0.957129 1.30578 0
M  V30 185 H 18.7492 -3.9857 0.701701 0
M  V30 186 H 17.3192 -3.125 0.0789812 0
M  V30 187 H 16.5392 -2.99647 2.56135 0
M  V30 188 H 17.8272 -4.15495 2.93668 0
M  V30 189 H 17.2252 -5.65547 0.131618 0
M  V30 190 H 15.7822 -6.49596 0.535622 0
M  V30 191 N 19.2153 -1.21501 -1.00376 0
M  V30 192 C 20.4453 -1.05746 -1.77486 0
M  V30 193 C 20.8533 0.395655 -1.85017 0
M  V30 194 O 20.1963 1.28626 -1.31152 0
M  V30 195 C 20.2583 -1.58092 -3.22873 0
M  V30 196 C 19.9223 -3.06568 -3.38917 0
M  V30 197 C 20.9193 -4.04106 -3.271 0
M  V30 198 C 18.6043 -3.45799 -3.64319 0
M  V30 199 C 20.5983 -5.38862 -3.40451 0
M  V30 200 C 18.2853 -4.80707 -3.77311 0
M  V30 201 C 19.2833 -5.77047 -3.65384 0
M  V30 202 O 18.9713 -7.09507 -3.77961 0
M  V30 203 H 18.7033 -0.371778 -0.564586 0
M  V30 204 H 21.2573 -1.61319 -1.27143 0
M  V30 205 H 19.4873 -0.969163 -3.74358 0
M  V30 206 H 21.1763 -1.38162 -3.81662 0
M  V30 207 H 21.9423 -3.75141 -3.07399 0
M  V30 208 H 17.8213 -2.71344 -3.72684 0
M  V30 209 H 21.3653 -6.14041 -3.31058 0
M  V30 210 H 17.2623 -5.09357 -3.96517 0
M  V30 211 H 18.0303 -7.16935 -3.94901 0
M  V30 212 N 20.6934 1.19889 -1.02296 0
M  V30 213 C 22.1094 1.41462 -0.738954 0
M  V30 214 C 22.3094 1.89721 0.678846 0
M  V30 215 O 21.3654 2.07016 1.4457 0
M  V30 216 C 22.6784 2.43083 -1.77005 0
M  V30 217 C 24.2264 2.5684 -1.78892 0
M  V30 218 C 24.7014 3.61709 -2.80945 0
M  V30 219 N 26.1924 3.69199 -2.79725 0
M  V30 220 C 26.9274 4.50019 -3.55345 0
M  V30 221 N 26.4234 5.34592 -4.40662 0
M  V30 222 N 28.2164 4.44612 -3.43914 0
M  V30 223 H 20.3674 0.868827 -1.93817 0
M  V30 224 H 22.6304 0.44399 -0.837602 0
M  V30 225 H 22.3364 2.14636 -2.78612 0
M  V30 226 H 22.2104 3.4217 -1.58744 0
M  V30 227 H 24.5974 2.84614 -0.779674 0
M  V30 228 H 24.6784 1.57927 -2.01228 0
M  V30 229 H 24.3224 3.34678 -3.82038 0
M  V30 230 H 24.2524 4.60259 -2.5587 0
M  V30 231 H 26.7434 3.08794 -2.17842 0
M  V30 232 H 27.0564 5.93363 -4.95116 0
M  V30 233 H 25.4014 5.34073 -4.44737 0
M  V30 234 H 28.5924 3.7758 -2.76679 0
M  V30 235 H 28.7654 5.0736 -4.031 0
M  V30 236 N 22.1715 0.800033 1.35784 0
M  V30 237 C 23.4205 0.37387 1.98205 0
M  V30 238 C 23.7335 -1.06302 1.64193 0
M  V30 239 O 24.9395 -1.59198 2.19928 0
M  V30 240 C 23.3955 0.617532 3.54562 0
M  V30 241 C 23.0035 2.06654 3.9749 0
M  V30 242 C 24.7475 0.256401 4.23725 0
M  V30 243 C 22.6545 2.2563 5.46667 0
M  V30 244 H 21.5845 0.136055 0.741623 0
M  V30 245 H 24.2355 0.983166 1.54939 0
M  V30 246 H 22.6175 -0.0616248 3.95952 0
M  V30 247 H 23.7915 2.78296 3.67271 0
M  V30 248 H 22.1065 2.38691 3.41197 0
M  V30 249 H 24.7035 0.376318 5.33374 0
M  V30 250 H 25.0465 -0.796692 4.08606 0
M  V30 251 H 25.5795 0.889214 3.87734 0
M  V30 252 H 22.3185 3.2936 5.66747 0
M  V30 253 H 21.8385 1.58504 5.78478 0
M  V30 254 H 23.5175 2.06861 6.1304 0
M  V30 255 N 23.6496 -1.47581 0.552962 0
M  V30 256 C 24.5596 -2.33743 -0.200353 0
M  V30 257 C 25.5756 -1.47928 -0.916151 0
M  V30 258 O 26.7516 -1.80865 -0.885993 0
M  V30 259 C 23.8166 -3.24536 -1.21973 0
M  V30 260 C 22.8776 -4.26238 -0.511819 0
M  V30 261 C 22.1106 -5.12693 -1.48263 0
M  V30 262 O 22.3336 -5.01525 -2.71714 0
M  V30 263 O 21.2676 -5.93375 -1.00945 0
M  V30 264 H 25.0936 -2.9945 0.506304 0
M  V30 265 H 22.6786 -1.46071 0.313622 0
M  V30 266 H 24.5606 -3.80631 -1.80827 0
M  V30 267 H 23.2356 -2.61462 -1.90839 0
M  V30 268 H 22.1426 -3.73914 0.117799 0
M  V30 269 H 23.4756 -4.92014 0.135308 0
M  V30 270 N 25.1277 -0.289203 -1.54924 0
M  V30 271 C 26.3747 0.323519 -1.99899 0
M  V30 272 C 26.7027 1.54797 -1.17762 0
M  V30 273 O 25.9577 1.94237 -0.238835 0
M  V30 274 C 26.2567 0.736119 -3.49737 0
M  V30 275 C 25.9227 -0.385276 -4.49251 0
M  V30 276 C 24.5847 -0.693156 -4.76181 0
M  V30 277 C 26.9367 -1.14021 -5.08575 0
M  V30 278 C 24.2647 -1.7593 -5.59701 0
M  V30 279 C 26.6167 -2.19619 -5.93254 0
M  V30 280 C 25.2807 -2.51026 -6.185 0
M  V30 281 H 24.5507 0.118384 -0.731482 0
M  V30 282 H 27.1977 -0.405847 -1.8715 0
M  V30 283 H 25.5027 1.54539 -3.60035 0
M  V30 284 H 27.1997 1.22118 -3.81953 0
M  V30 285 H 23.7897 -0.135202 -4.28387 0
M  V30 286 H 27.9737 -0.915611 -4.87781 0
M  V30 287 H 23.2297 -2.0075 -5.77503 0
M  V30 288 H 27.4037 -2.78581 -6.38252 0
M  V30 289 H 25.0307 -3.33772 -6.83008 0
M  V30 290 N 26.6058 1.57591 -0.0167156 0
M  V30 291 C 27.8828 1.82547 0.702564 0
M  V30 292 C 28.2628 0.898018 1.91047 0
M  V30 293 O 27.6108 -0.0493456 2.28447 0
M  V30 294 C 27.8208 3.31459 1.09251 0
M  V30 295 C 29.1688 3.97622 1.48937 0
M  V30 296 O 30.1928 3.35881 1.18584 0
M  V30 297 O 29.0518 5.06415 2.05442 0
M  V30 298 H 26.1458 0.752268 0.343544 0
M  V30 299 H 28.6918 1.69644 -0.0434495 0
M  V30 300 H 27.4638 3.9061 0.23227 0
M  V30 301 H 27.0868 3.49422 1.89709 0
M  V30 302 N 28.0839 -0.256276 1.55502 0
M  V30 303 C 29.3139 -1.00196 1.80677 0
M  V30 304 C 29.7219 -1.79805 0.588797 0
M  V30 305 O 29.0649 -1.78055 -0.451883 0
M  V30 306 C 29.1269 -1.99515 2.99055 0
M  V30 307 C 28.7909 -1.38688 4.35448 0
M  V30 308 C 29.7879 -0.794079 5.138 0
M  V30 309 C 27.4729 -1.40906 4.82132 0
M  V30 310 C 29.4669 -0.231562 6.36979 0
M  V30 311 C 27.1539 -0.842684 6.05262 0
M  V30 312 C 28.1519 -0.254953 6.82524 0
M  V30 313 O 27.8399 0.3027 8.0333 0
M  V30 314 H 27.5719 -0.300919 0.60533 0
M  V30 315 H 30.1259 -0.287307 2.03381 0
M  V30 316 H 28.3559 -2.74785 2.72084 0
M  V30 317 H 30.0449 -2.60349 3.11405 0
M  V30 318 H 30.8109 -0.769519 4.78856 0
M  V30 319 H 26.6899 -1.85591 4.21992 0
M  V30 320 H 30.2339 0.227816 6.97228 0
M  V30 321 H 26.1309 -0.86454 6.39684 0
M  V30 322 H 26.8989 0.193662 8.18271 0
M  V30 323 N 29.562 -1.4872 -0.521534 0
M  V30 324 C 30.492 -1.66771 -1.63431 0
M  V30 325 C 31.473 -0.516499 -1.62069 0
M  V30 326 O 32.658 -0.750013 -1.79132 0
M  V30 327 C 29.788 -1.71515 -3.01993 0
M  V30 328 C 28.742 -2.86222 -3.18216 0
M  V30 329 C 28.068 -2.76061 -4.57924 0
M  V30 330 C 29.368 -4.27419 -3.00184 0
M  V30 331 H 31.062 -2.59932 -1.48579 0
M  V30 332 H 28.608 -1.25089 -0.713358 0
M  V30 333 H 30.561 -1.82731 -3.7972 0
M  V30 334 H 29.285 -0.749393 -3.17886 0
M  V30 335 H 27.944 -2.74575 -2.42908 0
M  V30 336 H 27.592 -1.77437 -4.70665 0
M  V30 337 H 27.292 -3.53037 -4.69722 0
M  V30 338 H 28.816 -2.89256 -5.37739 0
M  V30 339 H 30.23 -4.39855 -3.67697 0
M  V30 340 H 28.627 -5.05458 -3.2347 0
M  V30 341 H 29.697 -4.43293 -1.96518 0
M  V30 342 N 31.0401 0.771051 -1.3745 0
M  V30 343 C 32.0031 1.86598 -1.33093 0
M  V30 344 C 33.0031 1.59076 -0.234845 0
M  V30 345 O 34.1931 1.67145 -0.490732 0
M  V30 346 C 31.3251 3.23747 -1.06773 0
M  V30 347 H 32.5181 1.91873 -2.30488 0
M  V30 348 H 30.0711 0.970876 -1.2249 0
M  V30 349 H 30.8061 3.24148 -0.099129 0
M  V30 350 H 30.5911 3.45115 -1.86112 0
M  V30 351 H 32.0811 4.03824 -1.06377 0
M  V30 352 N 32.5182 1.22032 0.997298 0
M  V30 353 C 33.9342 0.979326 1.26021 0
M  V30 354 C 34.1342 -0.32972 1.98784 0
M  V30 355 O 33.1902 -1.05345 2.29475 0
M  V30 356 C 34.5032 2.17509 2.07631 0
M  V30 357 C 36.0512 2.21817 2.2083 0
M  V30 358 C 36.5262 3.40933 3.05825 0
M  V30 359 N 38.0172 3.41067 3.13412 0
M  V30 360 C 38.7522 4.29885 3.79455 0
M  V30 361 N 38.2482 5.28914 4.47462 0
M  V30 362 N 40.0412 4.17673 3.76173 0
M  V30 363 H 32.1922 2.06202 0.509352 0
M  V30 364 H 34.4552 0.90334 0.287541 0
M  V30 365 H 34.1612 3.12415 1.61524 0
M  V30 366 H 34.0352 2.17206 3.08385 0
M  V30 367 H 36.4222 1.27462 2.66153 0
M  V30 368 H 36.5032 2.2616 1.1952 0
M  V30 369 H 36.1472 4.35586 2.61203 0
M  V30 370 H 36.0772 3.33829 4.07266 0
M  V30 371 H 38.5682 2.69406 2.65007 0
M  V30 372 H 38.8812 5.92973 4.95583 0
M  V30 373 H 37.2262 5.32831 4.46224 0
M  V30 374 H 40.4172 3.39564 3.22202 0
M  V30 375 H 40.5902 4.87098 4.27363 0
M  V30 376 N 33.9963 -1.19345 1.0293 0
M  V30 377 C 35.2243 -1.92997 0.745644 0
M  V30 378 C 35.6393 -1.75519 -0.695589 0
M  V30 379 O 34.9963 -1.07737 -1.47306 0
M  V30 380 C 35.0473 -3.44741 1.08792 0
M  V30 381 O 34.7683 -3.61658 2.47256 0
M  V30 382 C 36.2693 -4.35515 0.827129 0
M  V30 383 H 33.4893 -0.613042 0.272801 0
M  V30 384 H 36.0333 -1.51473 1.3739 0
M  V30 385 H 34.1883 -3.84097 0.504832 0
M  V30 386 H 34.6023 -4.55514 2.60015 0
M  V30 387 H 36.0763 -5.40589 1.11658 0
M  V30 388 H 36.5533 -4.38552 -0.238436 0
M  V30 389 H 37.1593 -4.01841 1.39297 0
M  V30 390 N 35.4744 -0.807222 -1.35358 0
M  V30 391 C 36.7214 -0.387888 -1.9875 0
M  V30 392 C 37.0494 1.04509 -1.64037 0
M  V30 393 O 36.3044 1.73986 -0.895946 0
M  V30 394 C 36.6034 -0.519036 -3.53611 0
M  V30 395 C 36.2694 -1.91542 -4.08194 0
M  V30 396 C 34.9314 -2.29745 -4.22813 0
M  V30 397 C 37.2834 -2.82896 -4.37744 0
M  V30 398 C 34.6114 -3.58668 -4.643 0
M  V30 399 C 36.9634 -4.11265 -4.8067 0
M  V30 400 C 35.6274 -4.49466 -4.93494 0
M  V30 401 H 34.8974 -0.141938 -0.727279 0
M  V30 402 H 37.5444 -1.02814 -1.6156 0
M  V30 403 H 35.8494 0.204658 -3.91265 0
M  V30 404 H 37.5464 -0.175345 -4.00616 0
M  V30 405 H 34.1364 -1.60862 -3.97268 0
M  V30 406 H 38.3204 -2.54629 -4.26002 0
M  V30 407 H 33.5764 -3.88113 -4.72418 0
M  V30 408 H 37.7504 -4.82153 -5.02496 0
M  V30 409 H 35.3774 -5.49418 -5.25399 0
M  V30 410 N 36.9525 1.47285 -0.560781 0
M  V30 411 C 38.1985 2.02764 -0.0381184 0
M  V30 412 C 38.5315 1.43384 1.30976 0
M  V30 413 O 37.8065 0.590733 1.85312 0
M  V30 414 C 38.0895 3.60064 0.0511427 0
M  V30 415 C 37.9425 4.2987 -1.32408 0
M  V30 416 C 39.2615 4.33439 0.762795 0
M  V30 417 H 36.3805 0.736841 -0.0153264 0
M  V30 418 H 39.0225 1.75675 -0.723759 0
M  V30 419 H 37.1725 3.83274 0.635065 0
M  V30 420 H 38.8445 4.17989 -1.95148 0
M  V30 421 H 37.0875 3.90085 -1.8978 0
M  V30 422 H 37.7585 5.38478 -1.21431 0
M  V30 423 H 40.2345 4.15243 0.266965 0
M  V30 424 H 39.1105 5.43124 0.794221 0
M  V30 425 H 39.3715 4.02915 1.81966 0
M  V30 426 N 38.4306 0.297415 1.54768 0
M  V30 427 C 39.6766 -0.313376 2.00364 0
M  V30 428 C 40.0096 -1.53815 1.18553 0
M  V30 429 O 39.2846 -1.92739 0.261103 0
M  V30 430 C 39.5676 -0.673525 3.53745 0
M  V30 431 C 39.4206 0.560133 4.46299 0
M  V30 432 C 40.7396 -1.50143 4.13697 0
M  V30 433 H 37.8586 -0.112428 0.728374 0
M  V30 434 H 40.5006 0.4088 1.8555 0
M  V30 435 H 38.6506 -1.28881 3.665 0
M  V30 436 H 40.3226 1.19863 4.45455 0
M  V30 437 H 38.5656 1.19405 4.17043 0
M  V30 438 H 39.2366 0.26405 5.51368 0
M  V30 439 H 41.7126 -0.981588 4.04356 0
M  V30 440 H 40.5886 -1.72221 5.21182 0
M  V30 441 H 40.8496 -2.48952 3.65343 0
M  V30 442 N 39.9087 -1.5758 0.0250728 0
M  V30 443 C 41.1547 -1.91917 -0.655413 0
M  V30 444 C 41.4877 -0.901433 -1.72011 0
M  V30 445 O 40.7627 0.0764069 -1.9435 0
M  V30 446 C 41.0457 -3.36751 -1.27558 0
M  V30 447 C 40.8987 -4.49258 -0.220719 0
M  V30 448 C 42.2177 -3.81469 -2.19475 0
M  V30 449 H 39.3367 -0.697925 -0.23679 0
M  V30 450 H 41.9787 -1.89825 0.0815036 0
M  V30 451 H 40.1287 -3.38664 -1.90365 0
M  V30 452 H 41.8007 -4.59478 0.409601 0
M  V30 453 H 40.0437 -4.31415 0.454264 0
M  V30 454 H 40.7147 -5.47618 -0.694175 0
M  V30 455 H 43.1907 -3.81266 -1.66659 0
M  V30 456 H 42.0667 -4.83512 -2.59822 0
M  V30 457 H 42.3277 -3.16744 -3.08424 0
M  V30 458 N 41.3868 0.248026 -1.55636 0
M  V30 459 C 42.6148 0.993808 -1.81469 0
M  V30 460 C 43.0298 1.78991 -0.60064 0
M  V30 461 O 42.3868 1.77345 0.430682 0
M  V30 462 C 42.4378 1.93258 -3.05506 0
M  V30 463 O 42.1588 1.16869 -4.22224 0
M  V30 464 C 43.6598 2.79444 -3.4413 0
M  V30 465 H 40.8798 0.292486 -0.603898 0
M  V30 466 H 43.4238 0.271253 -2.02693 0
M  V30 467 H 41.5788 2.60943 -2.86335 0
M  V30 468 H 41.9928 1.80359 -4.92515 0
M  V30 469 H 43.4668 3.41066 -4.34026 0
M  V30 470 H 43.9438 3.50499 -2.64665 0
M  V30 471 H 44.5498 2.17214 -3.65648 0
M  V30 472 N 42.8649 1.48995 0.513639 0
M  V30 473 C 43.7949 1.67636 1.62544 0
M  V30 474 C 44.7759 0.525087 1.61793 0
M  V30 475 O 45.9609 0.759502 1.78732 0
M  V30 476 C 43.0909 1.73114 3.01079 0
M  V30 477 C 42.0449 2.87905 3.16693 0
M  V30 478 C 41.3709 2.78486 4.56453 0
M  V30 479 C 42.6709 4.29005 2.97913 0
M  V30 480 H 44.3649 2.60716 1.47198 0
M  V30 481 H 41.9109 1.25465 0.706714 0
M  V30 482 H 43.8639 1.84742 3.78746 0
M  V30 483 H 42.5879 0.766241 3.17484 0
M  V30 484 H 41.2469 2.75859 2.41448 0
M  V30 485 H 40.8949 1.7993 4.69717 0
M  V30 486 H 40.5949 3.55523 4.67843 0
M  V30 487 H 42.1189 2.92104 5.36197 0
M  V30 488 H 43.5329 4.41798 3.65359 0
M  V30 489 H 41.9299 5.07166 3.20785 0
M  V30 490 H 42.9999 4.44329 1.94165 0
M  V30 491 N 44.343 -0.763751 1.37857 0
M  V30 492 C 45.589 -1.52483 1.33704 0
M  V30 493 C 45.922 -1.94051 -0.0759612 0
M  V30 494 O 45.197 -1.64675 -1.03501 0
M  V30 495 C 45.48 -2.78441 2.28348 0
M  V30 496 C 45.333 -2.43075 3.78463 0
M  V30 497 C 46.652 -3.80415 2.21298 0
M  V30 498 H 43.771 -0.553169 0.487005 0
M  V30 499 H 46.413 -0.875562 1.68624 0
M  V30 500 H 44.563 -3.33842 1.987 0
M  V30 501 H 46.235 -1.93527 4.18742 0
M  V30 502 H 44.478 -1.75666 3.96641 0
M  V30 503 H 45.149 -3.33149 4.40132 0
M  V30 504 H 47.625 -3.34527 2.47449 0
M  V30 505 H 46.501 -4.66257 2.89647 0
M  V30 506 H 46.762 -4.25262 1.20849 0
M  V30 507 N 45.8211 -1.22559 -0.990812 0
M  V30 508 C 46.7691 -0.994798 -2.10253 0
M  V30 509 C 47.7631 0.0627798 -1.69284 0
M  V30 510 O 48.9691 -0.0898392 -1.79776 0
M  V30 511 H 45.3441 -0.304527 -0.687581 0
M  V30 512 H 47.3151 -1.93812 -2.26891 0
M  V30 513 C 46.0641 -0.591439 -3.42633 0
M  V30 514 H 45.3871 -1.3969 -3.74602 0
M  V30 515 H 46.8271 -0.469385 -4.21394 0
M  V30 516 C 45.2861 0.699232 -3.29564 0
M  V30 517 O 45.8161 1.75112 -3.61523 0
M  V30 518 N 44.0221 0.671182 -2.82743 0
M  V30 519 H 43.5691 -0.185136 -2.56934 0
M  V30 520 H 43.5271 1.53502 -2.7438 0
M  V30 521 N 47.2992 1.18797 -1.03562 0
M  V30 522 C 48.5242 1.9314 -0.755764 0
M  V30 523 C 48.9492 1.7537 0.68022 0
M  V30 524 O 48.3072 1.06046 1.47051 0
M  V30 525 C 48.3552 3.42747 -1.12058 0
M  V30 526 O 47.4592 4.11683 -0.243124 0
M  V30 527 H 46.8002 0.602724 -0.278604 0
M  V30 528 H 49.3302 1.50678 -1.3841 0
M  V30 529 H 49.3402 3.93437 -1.08035 0
M  V30 530 H 48.0152 3.55002 -2.16672 0
M  V30 531 H 46.5922 3.71323 -0.342539 0
M  V30 532 N 48.7773 0.814389 1.34928 0
M  V30 533 C 50.0023 0.410097 2.03305 0
M  V30 534 C 50.4273 -0.973464 1.60951 0
M  V30 535 O 49.7853 -1.63185 0.789964 0
M  V30 536 C 49.8333 0.51049 3.56968 0
M  V30 537 O 48.9373 -0.473035 4.09678 0
M  V30 538 H 48.2783 0.170088 0.641846 0
M  V30 539 H 50.8083 1.10244 1.72358 0
M  V30 540 H 50.8183 0.383135 4.06197 0
M  V30 541 H 49.4933 1.51963 3.87144 0
M  V30 542 H 48.0703 -0.305272 3.71648 0
M  V30 543 N 50.2554 -1.46986 0.568584 0
M  V30 544 C 51.2034 -2.31858 -0.185649 0
M  V30 545 C 52.1974 -1.43624 -0.898249 0
M  V30 546 O 53.4034 -1.60327 -0.818242 0
M  V30 547 H 49.7784 -0.747866 -0.0787399 0
M  V30 548 H 51.7494 -2.93303 0.549191 0
M  V30 549 C 50.4984 -3.26513 -1.19519 0
M  V30 550 H 49.8214 -3.94377 -0.656285 0
M  V30 551 H 51.2614 -3.88707 -1.6936 0
M  V30 552 C 49.7204 -2.50847 -2.24894 0
M  V30 553 O 50.2504 -2.26119 -3.32014 0
M  V30 554 N 48.4564 -2.11656 -1.99124 0
M  V30 555 H 48.0034 -2.31966 -1.12024 0
M  V30 556 H 47.9614 -1.61347 -2.69842 0
M  V30 557 N 51.7335 -0.305618 -1.54608 0
M  V30 558 C 53.1445 0.186098 -1.8577 0
M  V30 559 C 53.4955 1.53058 -1.22751 0
M  V30 560 O 52.6205 2.09888 -0.526893 0
M  V30 561 C 53.2155 0.344449 -3.37044 0
M  V30 562 C 51.7745 0.780384 -3.68221 0
M  V30 563 C 50.9215 -0.108554 -2.77087 0
M  V30 564 H 53.8725 -0.526485 -1.49712 0
M  V30 565 H 53.8935 1.17828 -3.61796 0
M  V30 566 H 53.4055 -0.634235 -3.82883 0
M  V30 567 H 51.5065 1.76945 -3.27904 0
M  V30 568 H 51.6195 0.596572 -4.75371 0
M  V30 569 H 49.9835 0.412931 -2.5133 0
M  V30 570 H 50.7665 -1.08368 -3.25747 0
M  V30 571 N 53.2116 1.57565 -0.0334293 0
M  V30 572 C 54.4396 1.9628 0.654347 0
M  V30 573 C 54.8546 0.910138 1.65414 0
M  V30 574 O 54.2116 -0.107595 1.82183 0
M  V30 575 C 54.2626 3.35067 1.35693 0
M  V30 576 O 53.9836 4.36296 0.397191 0
M  V30 577 C 55.4846 3.88439 2.13613 0
M  V30 578 H 52.7046 0.646369 0.180132 0
M  V30 579 H 55.2486 2.04282 -0.0944721 0
M  V30 580 H 53.4036 3.2827 2.05712 0
M  V30 581 H 53.8176 5.1678 0.896597 0
M  V30 582 H 55.2916 4.8788 2.58219 0
M  V30 583 H 55.7686 3.22914 2.97696 0
M  V30 584 H 56.3746 3.98516 1.48543 0
M  V30 585 N 54.6897 -0.239769 1.55765 0
M  V30 586 C 55.6197 -1.30052 1.9393 0
M  V30 587 C 56.6007 -1.49839 0.805132 0
M  V30 588 O 57.7857 -1.62328 1.06599 0
M  V30 589 C 54.9157 -2.65391 2.2402 0
M  V30 590 C 53.8697 -2.60289 3.39755 0
M  V30 591 C 53.1957 -3.99489 3.55405 0
M  V30 592 C 54.4957 -2.16654 4.75246 0
M  V30 593 H 56.1897 -0.983573 2.82783 0
M  V30 594 H 53.7357 -0.471701 1.36055 0
M  V30 595 H 55.6887 -3.3974 2.49308 0
M  V30 596 H 54.4127 -2.98736 1.32 0
M  V30 597 H 53.0717 -1.88398 3.14487 0
M  V30 598 H 52.7197 -4.30112 2.60793 0
M  V30 599 H 52.4197 -3.96962 4.33238 0
M  V30 600 H 53.9437 -4.75528 3.83022 0
M  V30 601 H 55.3577 -2.80737 4.99859 0
M  V30 602 H 53.7547 -2.25223 5.56232 0
M  V30 603 H 54.8247 -1.11835 4.71827 0
M  V30 604 N 56.1678 -1.49265 -0.50573 0
M  V30 605 C 57.1158 -1.66065 -1.62866 0
M  V30 606 C 58.1098 -0.526636 -1.61006 0
M  V30 607 O 59.3158 -0.706126 -1.65571 0
M  V30 608 H 55.6908 -0.52356 -0.539805 0
M  V30 609 H 57.6618 -2.60329 -1.45848 0
M  V30 610 C 56.4108 -1.74008 -3.01026 0
M  V30 611 H 55.7338 -2.6064 -3.03161 0
M  V30 612 H 57.1738 -1.89798 -3.79147 0
M  V30 613 C 55.6328 -0.483868 -3.33407 0
M  V30 614 O 56.1628 0.392548 -3.99777 0
M  V30 615 N 54.3688 -0.348236 -2.88506 0
M  V30 616 H 53.9158 -1.06242 -2.34671 0
M  V30 617 H 53.8738 0.491204 -3.10539 0
M  V30 618 N 57.6459 0.756429 -1.3826 0
M  V30 619 C 59.0619 1.0591 -1.19395 0
M  V30 620 C 59.2619 2.01459 -0.0406567 0
M  V30 621 O 58.3179 2.44909 0.614467 0
M  V30 622 C 59.6309 1.64191 -2.51916 0
M  V30 623 C 61.1789 1.76376 -2.58574 0
M  V30 624 C 61.6539 2.38069 -3.91264 0
M  V30 625 N 63.1449 2.45503 -3.92788 0
M  V30 626 C 63.8799 2.94126 -4.92217 0
M  V30 627 N 63.3759 3.42805 -6.02043 0
M  V30 628 N 65.1689 2.9314 -4.7961 0
M  V30 629 H 57.3199 0.122313 -2.12048 0
M  V30 630 H 59.5829 0.116892 -0.940766 0
M  V30 631 H 59.2889 1.01451 -3.3675 0
M  V30 632 H 59.1629 2.6329 -2.70108 0
M  V30 633 H 61.5499 2.38244 -1.74137 0
M  V30 634 H 61.6309 0.759894 -2.44252 0
M  V30 635 H 61.2749 1.76835 -4.76121 0
M  V30 636 H 61.2049 3.39091 -4.02895 0
M  V30 637 H 63.6959 2.1107 -3.13461 0
M  V30 638 H 64.0089 3.78354 -6.73846 0
M  V30 639 H 62.3539 3.4087 -6.05667 0
M  V30 640 H 65.5449 2.54419 -3.92923 0
M  V30 641 H 65.7179 3.30721 -5.5725 0
M  V30 642 N 59.124 1.23083 0.984299 0
M  V30 643 C 60.37 1.06214 1.72761 0
M  V30 644 C 60.703 -0.400584 1.90024 0
M  V30 645 O 59.978 -1.29672 1.44967 0
M  V30 646 C 60.261 1.78375 3.12817 0
M  V30 647 C 60.114 3.32296 3.03149 0
M  V30 648 C 61.433 1.54309 4.12161 0
M  V30 649 H 58.552 0.387251 0.627061 0
M  V30 650 H 61.194 1.51536 1.14616 0
M  V30 651 H 59.344 1.39848 3.62457 0
M  V30 652 H 61.016 3.8032 2.61064 0
M  V30 653 H 59.259 3.6153 2.39747 0
M  V30 654 H 59.93 3.77972 4.02295 0
M  V30 655 H 62.406 1.87791 3.71314 0
M  V30 656 H 61.282 2.07281 5.08258 0
M  V30 657 H 61.543 0.477572 4.39513 0
M  V30 658 N 60.6021 -1.18246 1.0419 0
M  V30 659 C 61.5321 -2.24127 0.654914 0
M  V30 660 C 62.5131 -1.66617 -0.342451 0
M  V30 661 O 63.6981 -1.92924 -0.222277 0
M  V30 662 C 60.8281 -3.47295 0.0183757 0
M  V30 663 C 59.7821 -4.17563 0.939414 0
M  V30 664 C 59.1081 -5.34438 0.167286 0
M  V30 665 C 60.4081 -4.70917 2.25908 0
M  V30 666 H 62.1021 -2.56753 1.54007 0
M  V30 667 H 59.6481 -1.23414 0.74195 0
M  V30 668 H 61.6011 -4.20572 -0.264082 0
M  V30 669 H 60.3251 -3.13907 -0.901664 0
M  V30 670 H 58.9841 -3.46186 1.20628 0
M  V30 671 H 58.6321 -4.97298 -0.7552 0
M  V30 672 H 58.3321 -5.82388 0.780901 0
M  V30 673 H 59.8561 -6.10504 -0.108125 0
M  V30 674 H 61.2701 -5.35882 2.03724 0
M  V30 675 H 59.6671 -5.29406 2.82577 0
M  V30 676 H 60.7371 -3.88272 2.9047 0
M  V30 677 N 62.0802 -0.821533 -1.34494 0
M  V30 678 C 62.9902 -0.244355 -2.33324 0
M  V30 679 C 64.0062 0.620527 -1.62559 0
M  V30 680 O 65.1822 0.528754 -1.94335 0
M  V30 681 C 62.2472 0.585368 -3.41723 0
M  V30 682 C 61.3082 -0.301752 -4.28238 0
M  V30 683 C 60.5412 0.488466 -5.3146 0
M  V30 684 O 60.7642 1.72186 -5.4379 0
M  V30 685 O 59.6982 -0.12848 -6.01763 0
M  V30 686 H 63.5242 -1.06231 -2.84515 0
M  V30 687 H 61.1092 -0.583645 -1.37528 0
M  V30 688 H 62.9912 1.05747 -4.07916 0
M  V30 689 H 61.6662 1.38068 -2.92778 0
M  V30 690 H 60.5732 -0.821315 -3.64973 0
M  V30 691 H 61.9062 -1.06138 -4.8062 0
M  V30 692 N 63.5583 1.46682 -0.576371 0
M  V30 693 C 64.8043 2.02712 -0.0596221 0
M  V30 694 C 65.1373 1.44765 1.29448 0
M  V30 695 O 64.4123 0.610355 1.84675 0
M  V30 696 C 64.6953 3.60098 0.0129503 0
M  V30 697 C 64.5483 4.28441 -1.3696 0
M  V30 698 C 65.8673 4.34224 0.71678 0
M  V30 699 H 62.9863 0.736637 -0.0231407 0
M  V30 700 H 65.6283 1.74898 -0.742351 0
M  V30 701 H 63.7783 3.83926 0.594378 0
M  V30 702 H 65.4503 4.15896 -1.9957 0
M  V30 703 H 63.6933 3.8805 -1.93907 0
M  V30 704 H 64.3643 5.3716 -1.27135 0
M  V30 705 H 66.8403 4.15503 0.222908 0
M  V30 706 H 65.7163 5.43936 0.73657 0
M  V30 707 H 65.9773 4.04823 1.77682 0
M  V30 708 N 65.0364 0.313813 1.54444 0
M  V30 709 C 66.2844 -0.291099 1.99993 0
M  V30 710 C 66.6054 -1.53418 1.20366 0
M  V30 711 O 65.8754 -1.93544 0.302927 0
M  V30 712 H 64.4554 -0.110552 0.738774 0
M  V30 713 H 67.1174 0.428106 1.9014 0
M  V30 714 H 66.2134 -0.554268 3.07139 0
M  V30 715 N 66.5145 -1.57545 0.0417849 0
M  V30 716 C 67.9305 -1.56467 -0.314704 0
M  V30 717 C 68.1305 -1.04859 -1.72066 0
M  V30 718 O 67.1865 -0.700983 -2.42575 0
M  V30 719 C 68.4995 -3.00317 -0.15174 0
M  V30 720 C 70.0475 -3.12201 -0.223553 0
M  V30 721 C 70.5225 -4.57913 -0.0892295 0
M  V30 722 N 72.0135 -4.6297 -0.145808 0
M  V30 723 C 72.7485 -5.73362 -0.0658459 0
M  V30 724 N 72.2445 -6.92769 0.0659282 0
M  V30 725 N 74.0375 -5.6197 -0.12075 0
M  V30 726 H 66.1885 -1.89416 0.961014 0
M  V30 727 H 68.4515 -0.871862 0.372237 0
M  V30 728 H 68.1575 -3.42073 0.817254 0
M  V30 729 H 68.0315 -3.65892 -0.916692 0
M  V30 730 H 70.4185 -2.70349 -1.18301 0
M  V30 731 H 70.4995 -2.49323 0.571994 0
M  V30 732 H 70.1435 -5.00448 0.866867 0
M  V30 733 H 70.0735 -5.18786 -0.903802 0
M  V30 734 H 72.5645 -3.7709 -0.247286 0
M  V30 735 H 72.8775 -7.72707 0.119905 0
M  V30 736 H 71.2225 -6.94927 0.100885 0
M  V30 737 H 74.4135 -4.67572 -0.222187 0
M  V30 738 H 74.5865 -6.47977 -0.0549735 0
M  V30 739 N 67.9926 0.231505 -1.5589 0
M  V30 740 C 69.2696 0.981096 -1.69215 0
M  V30 741 C 69.6496 2.02799 -0.586164 0
M  V30 742 O 68.9976 2.24823 0.408253 0
M  V30 743 C 69.2076 1.60054 -3.10135 0
M  V30 744 C 70.5556 2.09658 -3.69227 0
M  V30 745 O 71.5796 1.69967 -3.13033 0
M  V30 746 O 70.4386 2.8258 -4.67772 0
M  V30 747 H 67.5326 0.457653 -0.688827 0
M  V30 748 H 70.0786 0.224073 -1.68214 0
M  V30 749 H 68.8506 0.844105 -3.82087 0
M  V30 750 H 68.4736 2.42336 -3.15212 0
M  V30 751 N 69.4707 1.49531 0.497807 0
M  V30 752 C 70.7007 1.62657 1.27382 0
M  V30 753 C 71.1087 0.298488 1.86831 0
M  V30 754 O 70.4517 -0.72647 1.68725 0
M  V30 755 C 70.5137 2.6393 2.44093 0
M  V30 756 C 70.1777 4.08195 2.05489 0
M  V30 757 C 71.1747 4.949 1.59279 0
M  V30 758 C 68.8597 4.53948 2.15026 0
M  V30 759 C 70.8537 6.25397 1.23113 0
M  V30 760 C 68.5407 5.84458 1.78473 0
M  V30 761 C 69.5387 6.70006 1.32591 0
M  V30 762 O 69.2267 7.98083 0.965327 0
M  V30 763 H 68.9587 0.550429 0.392434 0
M  V30 764 H 71.5127 1.96325 0.603801 0
M  V30 765 H 69.7427 2.25449 3.14181 0
M  V30 766 H 71.4317 2.66552 3.06113 0
M  V30 767 H 72.1977 4.60779 1.51354 0
M  V30 768 H 68.0767 3.87525 2.4969 0
M  V30 769 H 71.6207 6.92125 0.872299 0
M  V30 770 H 67.5177 6.18107 1.86048 0
M  V30 771 H 68.2857 8.11122 1.09652 0
M  V30 772 N 70.9488 -0.749086 1.3866 0
M  V30 773 C 72.3648 -1.05276 1.19955 0
M  V30 774 C 72.5648 -2.01435 0.05134 0
M  V30 775 O 71.6208 -2.45232 -0.60147 0
M  V30 776 C 72.9338 -1.62853 2.52783 0
M  V30 777 C 74.4818 -1.75002 2.59506 0
M  V30 778 C 74.9568 -2.35991 3.92521 0
M  V30 779 N 76.4478 -2.43416 3.94085 0
M  V30 780 C 77.1828 -2.91511 4.9377 0
M  V30 781 N 76.6788 -3.39608 6.03853 0
M  V30 782 N 78.4718 -2.90592 4.81157 0
M  V30 783 H 70.6228 -0.111066 2.12109 0
M  V30 784 H 72.8858 -0.111901 0.941373 0
M  V30 785 H 72.5918 -0.99664 3.37283 0
M  V30 786 H 72.4658 -2.61854 2.715 0
M  V30 787 H 74.8528 -2.37317 1.75398 0
M  V30 788 H 74.9338 -0.74693 2.44652 0
M  V30 789 H 74.5778 -1.74308 4.77053 0
M  V30 790 H 74.5078 -3.3695 4.04688 0
M  V30 791 H 76.9988 -2.09405 3.14576 0
M  V30 792 H 77.3118 -3.74775 6.75843 0
M  V30 793 H 75.6568 -3.37653 6.07466 0
M  V30 794 H 78.8478 -2.52332 3.94267 0
M  V30 795 H 79.0208 -3.27762 5.58996 0
M  V30 796 N 72.4269 -1.23603 -0.977757 0
M  V30 797 C 73.6739 -1.06971 -1.71941 0
M  V30 798 C 74.0019 0.393009 -1.90488 0
M  V30 799 O 73.2569 1.30719 -1.4564 0
M  V30 800 C 73.5559 -1.7433 -3.11999 0
M  V30 801 C 73.2219 -3.24252 -3.13323 0
M  V30 802 C 71.8839 -3.65156 -3.13392 0
M  V30 803 C 74.2359 -4.20141 -3.08433 0
M  V30 804 C 71.5639 -5.00403 -3.0629 0
M  V30 805 C 73.9159 -5.55384 -3.02873 0
M  V30 806 C 72.5799 -5.95647 -3.01265 0
M  V30 807 H 71.8499 -0.391433 -0.629175 0
M  V30 808 H 74.4969 -1.53572 -1.14403 0
M  V30 809 H 72.8019 -1.20096 -3.7294 0
M  V30 810 H 74.4989 -1.58936 -3.68158 0
M  V30 811 H 71.0889 -2.91692 -3.14029 0
M  V30 812 H 75.2729 -3.89547 -3.07517 0
M  V30 813 H 70.5289 -5.3081 -3.03399 0
M  V30 814 H 74.7029 -6.29398 -2.98046 0
M  V30 815 H 72.3299 -7.0041 -2.95516 0
M  V30 816 N 73.905 1.17692 -1.04816 0
M  V30 817 C 74.835 2.23777 -0.666791 0
M  V30 818 C 75.816 1.66796 0.33361 0
M  V30 819 O 77.001 1.93039 0.212042 0
M  V30 820 C 74.131 3.47281 -0.0367933 0
M  V30 821 C 73.085 4.17059 -0.961546 0
M  V30 822 C 72.411 5.34342 -0.195626 0
M  V30 823 C 73.711 4.69713 -2.28402 0
M  V30 824 H 75.405 2.55933 -1.55367 0
M  V30 825 H 72.951 1.23019 -0.748484 0
M  V30 826 H 74.904 4.20706 0.241775 0
M  V30 827 H 73.628 3.14381 0.885004 0
M  V30 828 H 72.287 3.45541 -1.22462 0
M  V30 829 H 71.935 4.97692 0.728816 0
M  V30 830 H 71.635 5.81966 -0.811775 0
M  V30 831 H 73.159 6.10553 0.0757473 0
M  V30 832 H 74.573 5.34794 -2.06563 0
M  V30 833 H 72.97 5.279 -2.8538 0
M  V30 834 H 74.04 3.86726 -2.92525 0
M  V30 835 N 75.3831 0.828654 1.34056 0
M  V30 836 C 76.3311 0.242973 2.31327 0
M  V30 837 C 77.3251 -0.61944 1.57668 0
M  V30 838 O 78.5311 -0.51014 1.7262 0
M  V30 839 H 74.9061 0.059834 0.749616 0
M  V30 840 H 76.8771 1.07809 2.78244 0
M  V30 841 C 75.6261 -0.575733 3.429 0
M  V30 842 H 74.9491 0.0785582 3.99723 0
M  V30 843 H 76.3891 -0.951547 4.13185 0
M  V30 844 C 74.8481 -1.75044 2.87856 0
M  V30 845 O 75.3781 -2.84882 2.83205 0
M  V30 846 N 73.5841 -1.56903 2.44602 0
M  V30 847 H 73.1311 -0.675547 2.48584 0
M  V30 848 H 73.0891 -2.35652 2.08124 0
M  V30 849 N 76.8612 -1.46375 0.584142 0
M  V30 850 C 78.2722 -1.86031 0.157959 0
M  V30 851 C 78.6232 -1.48753 -1.27933 0
M  V30 852 O 77.7482 -0.903098 -1.96655 0
M  V30 853 C 78.3432 -3.37642 0.279892 0
M  V30 854 C 76.9022 -3.76289 -0.09143 0
M  V30 855 C 76.0492 -2.7039 0.615178 0
M  V30 856 H 79.0002 -1.37509 0.792274 0
M  V30 857 H 79.0212 -3.77275 -0.494364 0
M  V30 858 H 78.5332 -3.64742 1.32607 0
M  V30 859 H 76.6342 -3.54806 -1.13769 0
M  V30 860 H 76.7472 -4.78246 0.285886 0
M  V30 861 H 75.1112 -2.5464 0.0552833 0
M  V30 862 H 75.8942 -3.0033 1.66303 0
M  V30 863 N 78.3393 -0.321999 -1.54275 0
M  V30 864 C 79.5673 0.283052 -2.04955 0
M  V30 865 C 79.9823 1.45904 -1.19823 0
M  V30 866 O 79.3393 1.81063 -0.228545 0
M  V30 867 C 79.3903 0.719028 -3.54277 0
M  V30 868 O 79.1113 -0.410175 -4.36176 0
M  V30 869 C 80.6123 1.38705 -4.21041 0
M  V30 870 H 77.8323 0.0584616 -0.668448 0
M  V30 871 H 80.3763 -0.467734 -1.99079 0
M  V30 872 H 78.5313 1.41979 -3.60445 0
M  V30 873 H 78.9453 -0.0669416 -5.24457 0
M  V30 874 H 80.4193 1.64306 -5.2698 0
M  V30 875 H 80.8963 2.33385 -3.72059 0
M  V30 876 H 81.5023 0.728906 -4.19007 0
M  V30 877 N 79.8174 1.5752 -0.0501392 0
M  V30 878 C 80.7504 2.07026 0.959962 0
M  V30 879 C 81.7284 0.970539 1.30458 0
M  V30 880 O 82.9124 1.2424 1.41763 0
M  V30 881 C 80.0394 2.5099 2.27424 0
M  V30 882 C 79.0854 3.72188 2.08275 0
M  V30 883 S 79.9184 5.17888 1.36207 0
M  V30 884 C 81.0744 5.65165 2.6896 0
M  V30 885 H 81.3074 2.9238 0.538631 0
M  V30 886 H 78.8404 1.53547 0.162099 0
M  V30 887 H 80.7984 2.76982 3.02971 0
M  V30 888 H 79.4594 1.65944 2.66686 0
M  V30 889 H 78.6524 4.00866 3.05487 0
M  V30 890 H 78.2544 3.46457 1.40868 0
M  V30 891 H 80.5464 5.70687 3.65133 0
M  V30 892 H 81.4894 6.64394 2.4492 0
M  V30 893 H 81.8974 4.9289 2.75172 0
M  V30 894 N 81.2955 -0.223234 1.56011 0
M  V30 895 C 82.5445 -0.945912 1.78144 0
M  V30 896 C 82.8575 -1.85567 0.618396 0
M  V30 897 O 84.0635 -2.61688 0.723318 0
M  V30 898 C 82.5195 -1.73216 3.15475 0
M  V30 899 C 82.1275 -0.868619 4.39499 0
M  V30 900 C 83.8715 -2.44615 3.46935 0
M  V30 901 C 81.7785 -1.65212 5.67855 0
M  V30 902 H 80.7085 -0.356929 0.664167 0
M  V30 903 H 83.3595 -0.199845 1.82409 0
M  V30 904 H 81.7415 -2.52107 3.05382 0
M  V30 905 H 82.9155 -0.120366 4.60643 0
M  V30 906 H 81.2305 -0.26683 4.15544 0
M  V30 907 H 83.8275 -3.03732 4.40058 0
M  V30 908 H 84.1705 -3.17417 2.69355 0
M  V30 909 H 84.7035 -1.72715 3.58349 0
M  V30 910 H 81.4425 -0.967407 6.48322 0
M  V30 911 H 80.9625 -2.37503 5.50774 0
M  V30 912 H 82.6415 -2.21322 6.07968 0
M  V30 913 N 82.7736 -1.49793 -0.48987 0
M  V30 914 C 83.6836 -1.70036 -1.61632 0
M  V30 915 C 84.6996 -0.583102 -1.63939 0
M  V30 916 O 85.8756 -0.859169 -1.82154 0
M  V30 917 C 82.9406 -1.77277 -2.97949 0
M  V30 918 C 82.0016 -3.00918 -3.06181 0
M  V30 919 C 81.2346 -3.07804 -4.35996 0
M  V30 920 O 81.4576 -2.21982 -5.25433 0
M  V30 921 O 80.3916 -4.00369 -4.49431 0
M  V30 922 H 84.2176 -2.65486 -1.47482 0
M  V30 923 H 81.8026 -1.33666 -0.667362 0
M  V30 924 H 83.6846 -1.84329 -3.78947 0
M  V30 925 H 82.3596 -0.850076 -3.12339 0
M  V30 926 H 81.2666 -2.99377 -2.2433 0
M  V30 927 H 82.5996 -3.92704 -2.96723 0
M  V30 928 N 84.2517 0.741722 -1.39055 0
M  V30 929 C 85.1847 1.86416 -1.31622 0
M  V30 930 C 86.1627 1.61473 -0.191076 0
M  V30 931 O 87.3467 1.84825 -0.370399 0
M  V30 932 C 84.4737 3.22266 -1.04221 0
M  V30 933 C 83.5197 3.66079 -2.18834 0
M  V30 934 S 84.3527 3.7623 -3.81066 0
M  V30 935 C 85.5087 5.14881 -3.55877 0
M  V30 936 H 85.7417 1.92437 -2.26617 0
M  V30 937 H 83.2747 0.905907 -1.25031 0
M  V30 938 H 85.2327 4.00714 -0.890964 0
M  V30 939 H 83.8937 3.1391 -0.109237 0
M  V30 940 H 83.0867 4.64648 -1.95238 0
M  V30 941 H 82.6887 2.94817 -2.30128 0
M  V30 942 H 84.9807 6.01006 -3.12726 0
M  V30 943 H 85.9237 5.43503 -4.53884 0
M  V30 944 H 86.3317 4.84239 -2.90126 0
M  V30 945 N 85.7298 1.2412 0.971189 0
M  V30 946 C 86.6598 1.05508 2.08304 0
M  V30 947 C 87.6408 -0.0308864 1.70072 0
M  V30 948 O 88.8258 0.135521 1.93727 0
M  V30 949 C 85.9558 0.655365 3.4106 0
M  V30 950 C 84.9098 1.68971 3.93234 0
M  V30 951 C 84.2358 1.14516 5.22293 0
M  V30 952 C 85.5358 3.08487 4.21465 0
M  V30 953 H 87.2298 1.98507 2.24132 0
M  V30 954 H 84.7758 0.955821 1.07704 0
M  V30 955 H 86.7288 0.51217 4.18276 0
M  V30 956 H 85.4528 -0.31032 3.25122 0
M  V30 957 H 84.1118 1.82106 3.18171 0
M  V30 958 H 83.7598 0.170189 5.02712 0
M  V30 959 H 83.4598 1.83635 5.58168 0
M  V30 960 H 84.9838 1.01401 6.02121 0
M  V30 961 H 86.3978 2.98601 4.89398 0
M  V30 962 H 84.7948 3.74926 4.68562 0
M  V30 963 H 85.8648 3.56787 3.28376 0
M  V30 964 N 87.2079 -1.17134 1.05439 0
M  V30 965 C 88.4539 -1.87733 0.767077 0
M  V30 966 C 88.7869 -1.8098 -0.704253 0
M  V30 967 O 88.0619 -1.21951 -1.5152 0
M  V30 968 C 88.3449 -3.37659 1.25133 0
M  V30 969 C 88.1979 -3.53149 2.78578 0
M  V30 970 C 89.5169 -4.31768 0.852324 0
M  V30 971 H 86.6359 -0.681687 0.280129 0
M  V30 972 H 89.2779 -1.37732 1.30881 0
M  V30 973 H 87.4279 -3.80373 0.790469 0
M  V30 974 H 89.0999 -3.19434 3.32806 0
M  V30 975 H 87.3429 -2.95345 3.17732 0
M  V30 976 H 88.0139 -4.58403 3.07523 0
M  V30 977 H 90.4899 -3.96909 1.24911 0
M  V30 978 H 89.3659 -5.35199 1.21873 0
M  V30 979 H 89.6269 -4.41429 -0.243485 0
M  V30 980 N 88.686 -0.835752 -1.33615 0
M  V30 981 C 89.963 -0.352017 -1.92406 0
M  V30 982 C 90.343 1.16225 -1.76224 0
M  V30 983 O 89.691 1.97526 -1.14873 0
M  V30 984 C 89.901 -0.795485 -3.39813 0
M  V30 985 C 91.249 -0.801703 -4.16963 0
M  V30 986 O 92.273 -0.738889 -3.48452 0
M  V30 987 O 91.132 -0.886607 -5.3926 0
M  V30 988 H 88.226 -0.0989641 -0.821057 0
M  V30 989 H 90.772 -0.921397 -1.42507 0
M  V30 990 H 89.544 -1.83795 -3.45449 0
M  V30 991 H 89.167 -0.202505 -3.97084 0
M  V30 992 N 90.1641 1.46063 -0.591896 0
M  V30 993 C 91.0961 2.28539 0.174001 0
M  V30 994 C 92.1091 1.39047 0.846753 0
M  V30 995 O 93.2981 1.63564 0.714774 0
M  V30 996 C 90.3981 3.14347 1.26645 0
M  V30 997 C 89.5711 4.32021 0.683856 0
M  V30 998 C 88.6301 4.99157 1.66518 0
M  V30 999 O 87.6561 5.56458 1.19763 0
M  V30 1000 N 88.8581 4.97005 2.99943 0
M  V30 1001 H 91.6231 2.94911 -0.533633 0
M  V30 1002 H 89.1841 1.56077 -0.430294 0
M  V30 1003 H 91.1761 3.56125 1.92242 0
M  V30 1004 H 89.7461 2.49988 1.87682 0
M  V30 1005 H 88.9661 3.93915 -0.1498 0
M  V30 1006 H 90.2541 5.08059 0.274567 0
M  V30 1007 H 89.6521 4.51714 3.40545 0
M  V30 1008 H 88.2091 5.42696 3.61004 0
M  V30 1009 N 91.6422 0.330177 1.54103 0
M  V30 1010 C 92.8672 -0.274893 2.0557 0
M  V30 1011 C 93.2922 -1.44487 1.20437 0
M  V30 1012 O 92.6502 -1.80021 0.214991 0
M  V30 1013 C 92.6982 -0.68079 3.54115 0
M  V30 1014 O 91.8022 -1.7824 3.71893 0
M  V30 1015 H 91.1432 -0.0483849 0.662235 0
M  V30 1016 H 93.6732 0.480508 1.98878 0
M  V30 1017 H 93.6832 -0.961635 3.96505 0
M  V30 1018 H 92.3582 0.174903 4.15532 0
M  V30 1019 H 90.9352 -1.49985 3.41407 0
M  V30 1020 N 93.1203 -1.57491 0.0584922 0
M  V30 1021 C 94.3683 -1.92597 -0.612436 0
M  V30 1022 C 94.6893 -0.938162 -1.70949 0
M  V30 1023 O 93.9593 0.0158301 -1.95894 0
M  V30 1024 H 92.5393 -0.710964 -0.229214 0
M  V30 1025 H 95.2013 -1.94571 0.113218 0
M  V30 1026 H 94.2973 -2.94038 -1.04633 0
M  V30 1027 N 94.5984 0.214957 -1.56127 0
M  V30 1028 C 95.8454 0.938372 -1.79446 0
M  V30 1029 C 96.1734 1.8407 -0.628378 0
M  V30 1030 O 95.4284 1.91837 0.386925 0
M  V30 1031 C 95.7274 1.80314 -3.0858 0
M  V30 1032 C 95.3934 1.05349 -4.3842 0
M  V30 1033 C 94.0554 0.846435 -4.73697 0
M  V30 1034 C 96.4074 0.524588 -5.18553 0
M  V30 1035 C 93.7354 0.098683 -5.86617 0
M  V30 1036 C 96.0874 -0.209853 -6.32252 0
M  V30 1037 C 94.7514 -0.428102 -6.66126 0
M  V30 1038 H 94.0214 0.343375 -0.656639 0
M  V30 1039 H 96.6684 0.206077 -1.90388 0
M  V30 1040 H 94.9734 2.6035 -2.92789 0
M  V30 1041 H 96.6704 2.36513 -3.23825 0
M  V30 1042 H 93.2604 1.22486 -4.10725 0
M  V30 1043 H 97.4444 0.672008 -4.91729 0
M  V30 1044 H 92.7004 -0.0805753 -6.11347 0
M  V30 1045 H 96.8744 -0.627157 -6.9357 0
M  V30 1046 H 94.5014 -1.00944 -7.53468 0
M  V30 1047 N 96.0765 1.50051 0.48192 0
M  V30 1048 C 97.3535 1.51009 1.2432 0
M  V30 1049 C 97.7335 0.248587 2.09631 0
M  V30 1050 O 97.0815 -0.768409 2.15192 0
M  V30 1051 C 97.2915 2.79981 2.08355 0
M  V30 1052 C 98.6395 3.3022 2.66908 0
M  V30 1053 O 99.6635 2.81228 2.18607 0
M  V30 1054 O 98.5225 4.15595 3.54884 0
M  V30 1055 H 95.6165 0.605239 0.563573 0
M  V30 1056 H 98.1625 1.62332 0.494627 0
M  V30 1057 H 96.9345 3.63275 1.45419 0
M  V30 1058 H 96.5575 2.7161 2.90368 0
M  V30 1059 N 97.5546 -0.734337 1.39446 0
M  V30 1060 C 98.8036 -1.48937 1.36017 0
M  V30 1061 C 99.1166 -1.95557 -0.0409005 0
M  V30 1062 O 100.323 -2.70779 -0.19778 0
M  V30 1063 C 98.7786 -2.69125 2.38955 0
M  V30 1064 C 98.3866 -2.29452 3.8478 0
M  V30 1065 C 100.131 -3.46944 2.44603 0
M  V30 1066 C 98.0376 -3.46366 4.79358 0
M  V30 1067 H 96.9676 -0.559296 0.505672 0
M  V30 1068 H 99.6186 -0.800983 1.65095 0
M  V30 1069 H 98.0006 -3.40041 2.02948 0
M  V30 1070 H 99.1746 -1.66077 4.29831 0
M  V30 1071 H 97.4896 -1.64723 3.82433 0
M  V30 1072 H 100.087 -4.33907 3.12456 0
M  V30 1073 H 100.43 -3.89454 1.47076 0
M  V30 1074 H 100.963 -2.83056 2.79507 0
M  V30 1075 H 97.7016 -3.08905 5.78151 0
M  V30 1076 H 97.2216 -4.08719 4.38986 0
M  V30 1077 H 98.9006 -4.12691 4.98292 0
M  V30 1078 N 99.0327 -1.24633 -0.964593 0
M  V30 1079 C 100.279 -1.08949 -1.71049 0
M  V30 1080 C 100.612 0.370302 -1.90637 0
M  V30 1081 O 99.8867 1.27349 -1.47011 0
M  V30 1082 C 100.17 -1.83329 -3.0994 0
M  V30 1083 C 100.023 -3.37077 -2.97824 0
M  V30 1084 C 101.342 -1.60846 -4.09654 0
M  V30 1085 H 98.4607 -0.397178 -0.620821 0
M  V30 1086 H 101.103 -1.5334 -1.12191 0
M  V30 1087 H 99.2527 -1.45597 -3.60186 0
M  V30 1088 H 100.925 -3.84425 -2.5498 0
M  V30 1089 H 99.1677 -3.65298 -2.33965 0
M  V30 1090 H 99.8387 -3.84324 -3.96231 0
M  V30 1091 H 102.315 -1.93674 -3.68279 0
M  V30 1092 H 101.191 -2.1534 -5.04896 0
M  V30 1093 H 101.452 -0.547434 -4.38698 0
M  V30 1094 N 100.511 1.16574 -1.06058 0
M  V30 1095 C 101.927 1.3904 -0.783585 0
M  V30 1096 C 102.127 1.91784 0.618145 0
M  V30 1097 O 101.183 2.11511 1.37911 0
M  V30 1098 C 102.496 2.37329 -1.84649 0
M  V30 1099 C 104.044 2.51018 -1.86973 0
M  V30 1100 C 104.519 3.52588 -2.92311 0
M  V30 1101 N 106.01 3.60113 -2.91329 0
M  V30 1102 C 106.745 4.38486 -3.69482 0
M  V30 1103 N 106.241 5.20302 -4.57447 0
M  V30 1104 N 108.034 4.33446 -3.57885 0
M  V30 1105 H 100.185 0.806725 -1.96483 0
M  V30 1106 H 102.448 0.417117 -0.851303 0
M  V30 1107 H 102.154 2.05663 -2.85299 0
M  V30 1108 H 102.028 3.36946 -1.6955 0
M  V30 1109 H 104.415 2.81989 -0.869827 0
M  V30 1110 H 104.496 1.51445 -2.0615 0
M  V30 1111 H 104.14 3.22354 -3.92492 0
M  V30 1112 H 104.07 4.51886 -2.70383 0
M  V30 1113 H 106.561 3.01707 -2.27555 0
M  V30 1114 H 106.874 5.77311 -5.13743 0
M  V30 1115 H 105.219 5.19653 -4.61503 0
M  V30 1116 H 108.41 3.68586 -2.88551 0
M  V30 1117 H 108.583 4.94279 -4.19037 0
M  V30 1118 N 101.989 0.842826 1.3317 0
M  V30 1119 C 103.238 0.436738 1.96915 0
M  V30 1120 C 103.551 -1.01025 1.67491 0
M  V30 1121 O 104.757 -1.5212 2.24881 0
M  V30 1122 C 103.213 0.730021 3.52418 0
M  V30 1123 C 102.821 2.19195 3.90714 0
M  V30 1124 C 104.565 0.391076 4.22695 0
M  V30 1125 C 102.472 2.42907 5.39212 0
M  V30 1126 H 101.402 0.15958 0.736919 0
M  V30 1127 H 104.053 1.03196 1.51733 0
M  V30 1128 H 102.435 0.0643755 3.95948 0
M  V30 1129 H 103.609 2.8984 3.58231 0
M  V30 1130 H 101.924 2.49425 3.33431 0
M  V30 1131 H 104.521 0.545817 5.31907 0
M  V30 1132 H 104.864 -0.666294 4.10933 0
M  V30 1133 H 105.397 1.01212 3.84709 0
M  V30 1134 H 102.136 3.47224 5.55982 0
M  V30 1135 H 101.656 1.76827 5.73142 0
M  V30 1136 H 103.335 2.2626 6.06148 0
M  V30 1137 N 103.467 -1.45747 0.599634 0
M  V30 1138 C 104.417 -2.27538 -0.145107 0
M  V30 1139 C 105.401 -1.3686 -0.846055 0
M  V30 1140 O 106.593 -1.6091 -0.737357 0
M  V30 1141 C 103.722 -3.23569 -1.14708 0
M  V30 1142 C 102.808 -4.21734 -0.447383 0
M  V30 1143 N 103.199 -5.03257 0.506535 0
M  V30 1144 C 101.497 -4.40536 -0.695966 0
M  V30 1145 C 102.198 -5.74426 0.917068 0
M  V30 1146 N 101.174 -5.42966 0.26253 0
M  V30 1147 H 104.976 -2.87965 0.587672 0
M  V30 1148 H 102.49 -1.56803 0.422697 0
M  V30 1149 H 104.487 -3.8089 -1.69495 0
M  V30 1150 H 103.147 -2.64702 -1.8805 0
M  V30 1151 H 104.158 -5.10319 0.882899 0
M  V30 1152 H 100.835 -3.92802 -1.41467 0
M  V30 1153 H 102.225 -6.4995 1.70338 0
M  V30 1154 N 104.945 -0.338344 -1.53925 0
M  V30 1155 C 106.361 0.0137736 -1.59594 0
M  V30 1156 C 106.561 1.49186 -1.35447 0
M  V30 1157 O 105.617 2.24987 -1.14616 0
M  V30 1158 C 106.93 -0.41773 -2.97784 0
M  V30 1159 C 108.478 -0.369633 -3.1081 0
M  V30 1160 C 108.953 -0.776524 -4.51369 0
M  V30 1161 N 110.444 -0.730506 -4.57403 0
M  V30 1162 C 111.179 -1.01736 -5.64303 0
M  V30 1163 N 110.675 -1.3721 -6.79077 0
M  V30 1164 N 112.468 -0.941942 -5.54151 0
M  V30 1165 H 104.619 -1.3012 -1.67876 0
M  V30 1166 H 106.882 -0.530082 -0.78595 0
M  V30 1167 H 106.588 -1.44811 -3.20504 0
M  V30 1168 H 106.462 0.209729 -3.76616 0
M  V30 1169 H 108.849 0.651568 -2.87817 0
M  V30 1170 H 108.93 -1.03223 -2.34049 0
M  V30 1171 H 108.574 -1.79571 -4.75096 0
M  V30 1172 H 108.504 -0.0914649 -5.26521 0
M  V30 1173 H 110.995 -0.468783 -3.74981 0
M  V30 1174 H 111.308 -1.57597 -7.5656 0
M  V30 1175 H 109.653 -1.4105 -6.80536 0
M  V30 1176 H 112.844 -0.664184 -4.63364 0
M  V30 1177 H 113.017 -1.16884 -6.37371 0
M  V30 1178 N 106.423 1.57458 -0.0668435 0
M  V30 1179 C 107.355 2.09413 0.931601 0
M  V30 1180 C 108.368 1.02522 1.26464 0
M  V30 1181 O 109.557 1.30049 1.22269 0
M  V30 1182 C 106.657 2.53537 2.24882 0
M  V30 1183 C 105.83 3.83944 2.09537 0
M  V30 1184 C 104.889 4.14214 3.2452 0
M  V30 1185 O 103.915 4.83891 2.9973 0
M  V30 1186 N 105.117 3.67367 4.49469 0
M  V30 1187 H 107.882 2.95699 0.488048 0
M  V30 1188 H 105.443 1.61462 0.119009 0
M  V30 1189 H 107.435 2.70853 3.00701 0
M  V30 1190 H 106.005 1.72415 2.60753 0
M  V30 1191 H 105.225 3.76057 1.18215 0
M  V30 1192 H 106.513 4.69312 1.96529 0
M  V30 1193 H 105.911 3.11068 4.72497 0
M  V30 1194 H 104.468 3.89891 5.2233 0
M  V30 1195 N 107.901 -0.206675 1.56239 0
M  V30 1196 C 109.129 -0.945345 1.8404 0
M  V30 1197 C 109.544 -1.77336 0.647885 0
M  V30 1198 O 108.901 -1.78425 -0.383511 0
M  V30 1199 C 108.952 -1.8509 3.10522 0
M  V30 1200 O 108.673 -1.05634 4.25174 0
M  V30 1201 C 110.174 -2.70222 3.51418 0
M  V30 1202 H 107.394 -0.276372 0.61144 0
M  V30 1203 H 109.938 -0.217417 2.03341 0
M  V30 1204 H 108.093 -2.53259 2.93153 0
M  V30 1205 H 108.507 -1.67238 4.97124 0
M  V30 1206 H 109.981 -3.29438 4.42916 0
M  V30 1207 H 110.458 -3.43358 2.73864 0
M  V30 1208 H 111.064 -2.07443 3.71278 0
M  V30 1209 N 109.379 -1.50304 -0.473955 0
M  V30 1210 C 110.627 -1.60832 -1.22382 0
M  V30 1211 C 110.948 -0.30939 -1.9253 0
M  V30 1212 O 110.218 0.67296 -1.83978 0
M  V30 1213 H 108.798 -0.592652 -0.454723 0
M  V30 1214 H 111.46 -1.87068 -0.546968 0
M  V30 1215 H 110.556 -2.41803 -1.97327 0
M  V30 1216 N 110.857 0.726932 -1.39834 0
M  V30 1217 C 112.085 1.51613 -1.40787 0
M  V30 1218 C 112.5 1.88799 -0.00451505 0
M  V30 1219 O 111.857 1.54662 0.968809 0
M  V30 1220 C 111.908 2.79863 -2.28821 0
M  V30 1221 O 111.629 2.44253 -3.63692 0
M  V30 1222 C 113.13 3.73837 -2.38245 0
M  V30 1223 H 110.35 0.468264 -0.480593 0
M  V30 1224 H 112.894 0.897607 -1.83748 0
M  V30 1225 H 111.049 3.38027 -1.89252 0
M  V30 1226 H 111.463 3.26695 -4.1033 0
M  V30 1227 H 112.937 4.60699 -3.04073 0
M  V30 1228 H 113.414 4.16153 -1.40403 0
M  V30 1229 H 114.02 3.21589 -2.78317 0
M  V30 1230 N 112.336 1.25143 0.95797 0
M  V30 1231 C 113.613 1.00472 1.67823 0
M  V30 1232 C 113.993 -0.470056 2.058 0
M  V30 1233 O 113.341 -1.44663 1.76875 0
M  V30 1234 C 113.551 1.9372 2.90299 0
M  V30 1235 C 114.899 2.21371 3.62326 0
M  V30 1236 O 115.923 1.91451 3.00375 0
M  V30 1237 O 114.782 2.72231 4.7387 0
M  V30 1238 H 111.876 0.380752 0.734137 0
M  V30 1239 H 114.422 1.36283 1.01119 0
M  V30 1240 H 113.194 2.93316 2.59001 0
M  V30 1241 H 112.817 1.58286 3.64735 0
M  V30 1242 N 113.814 -1.1601 1.06675 0
M  V30 1243 C 114.744 -2.22688 0.702307 0
M  V30 1244 C 115.725 -1.67306 -0.307032 0
M  V30 1245 O 116.91 -1.93352 -0.181305 0
M  V30 1246 C 114.04 -3.47178 0.092038 0
M  V30 1247 C 112.994 -4.15477 1.02777 0
M  V30 1248 C 112.32 -5.33963 0.28061 0
M  V30 1249 C 113.62 -4.66019 2.35846 0
M  V30 1250 H 115.314 -2.53429 1.59419 0
M  V30 1251 H 112.86 -1.21813 0.767961 0
M  V30 1252 H 114.813 -4.21037 -0.174814 0
M  V30 1253 H 113.537 -3.15749 -0.834877 0
M  V30 1254 H 112.196 -3.43549 1.27944 0
M  V30 1255 H 111.844 -4.98788 -0.649545 0
M  V30 1256 H 111.544 -5.806 0.904258 0
M  V30 1257 H 113.068 -6.10596 0.021396 0
M  V30 1258 H 114.482 -5.3144 2.15045 0
M  V30 1259 H 112.879 -5.23293 2.93743 0
M  V30 1260 H 113.949 -3.82023 2.98641 0
M  V30 1261 N 115.292 -0.849877 -1.32721 0
M  V30 1262 C 116.538 -0.451591 -1.97708 0
M  V30 1263 C 116.871 0.989175 -1.6712 0
M  V30 1264 O 116.146 1.69334 -0.956891 0
M  V30 1265 C 116.429 -0.685598 -3.53513 0
M  V30 1266 C 116.282 -2.17444 -3.93749 0
M  V30 1267 C 117.601 -0.138874 -4.39881 0
M  V30 1268 H 114.72 -0.16555 -0.718166 0
M  V30 1269 H 117.362 -1.06742 -1.57182 0
M  V30 1270 H 115.512 -0.161416 -3.88165 0
M  V30 1271 H 117.184 -2.76433 -3.693 0
M  V30 1272 H 115.427 -2.65476 -3.43081 0
M  V30 1273 H 116.098 -2.28888 -5.02309 0
M  V30 1274 H 118.574 -0.587068 -4.11938 0
M  V30 1275 H 117.45 -0.332213 -5.47894 0
M  V30 1276 H 117.711 0.95806 -4.31594 0
M  V30 1277 N 116.77 1.45427 -0.607355 0
M  V30 1278 C 118.016 2.0254 -0.102607 0
M  V30 1279 C 118.349 1.47478 1.26348 0
M  V30 1280 O 117.624 0.64939 1.83339 0
M  V30 1281 C 117.907 3.60044 -0.0634347 0
M  V30 1282 C 117.76 4.2544 -1.46017 0
M  V30 1283 C 119.079 4.35646 0.624514 0
M  V30 1284 H 116.198 0.73598 -0.0387607 0
M  V30 1285 H 118.84 1.73284 -0.779282 0
M  V30 1286 H 116.99 3.85101 0.512808 0
M  V30 1287 H 118.662 4.11569 -2.08347 0
M  V30 1288 H 116.905 3.83849 -2.02094 0
M  V30 1289 H 117.576 5.34342 -1.385 0
M  V30 1290 H 120.052 4.15882 0.134723 0
M  V30 1291 H 118.928 5.45376 0.621028 0
M  V30 1292 H 119.189 4.08501 1.69055 0
M  V30 1293 N 118.248 0.346503 1.53744 0
M  V30 1294 C 119.525 -0.304532 1.93215 0
M  V30 1295 C 119.905 -1.67993 1.27834 0
M  V30 1296 O 119.253 -2.24411 0.430352 0
M  V30 1297 C 119.463 -0.373852 3.46992 0
M  V30 1298 C 120.811 -0.62329 4.2 0
M  V30 1299 O 121.835 -0.455847 3.53271 0
M  V30 1300 O 120.694 -0.947879 5.38217 0
M  V30 1301 H 117.788 -0.178318 0.807547 0
M  V30 1302 H 120.334 0.397895 1.64969 0
M  V30 1303 H 119.106 0.591224 3.86808 0
M  V30 1304 H 118.729 -1.12294 3.81413 0
M  V30 1305 N 119.726 -1.57421 0.075193 0
M  V30 1306 C 120.973 -1.93618 -0.593146 0
M  V30 1307 C 121.301 -0.955484 -1.69413 0
M  V30 1308 O 120.556 0.0283251 -1.9568 0
M  V30 1309 C 120.855 -3.36428 -1.20626 0
M  V30 1310 C 120.521 -4.50307 -0.231078 0
M  V30 1311 C 119.183 -4.81186 0.0371936 0
M  V30 1312 C 121.535 -5.19374 0.435888 0
M  V30 1313 C 118.863 -5.78466 0.979461 0
M  V30 1314 C 121.215 -6.17665 1.3665 0
M  V30 1315 C 119.879 -6.46958 1.6432 0
M  V30 1316 H 119.149 -0.708499 -0.217047 0
M  V30 1317 H 121.796 -1.90937 0.146793 0
M  V30 1318 H 120.101 -3.35592 -2.02201 0
M  V30 1319 H 121.798 -3.61727 -1.73073 0
M  V30 1320 H 118.388 -4.26227 -0.450357 0
M  V30 1321 H 122.572 -4.95711 0.241748 0
M  V30 1322 H 117.828 -5.99487 1.20106 0
M  V30 1323 H 122.002 -6.70284 1.88924 0
M  V30 1324 H 119.629 -7.2215 2.37494 0
M  V30 1325 N 121.204 0.198386 -1.56346 0
M  V30 1326 C 122.62 0.549085 -1.49857 0
M  V30 1327 C 122.82 1.86016 -0.774611 0
M  V30 1328 O 121.876 2.50416 -0.323776 0
M  V30 1329 C 123.189 0.606868 -2.94512 0
M  V30 1330 C 124.737 0.695925 -3.05165 0
M  V30 1331 C 125.212 0.784848 -4.51225 0
M  V30 1332 N 126.703 0.848463 -4.55363 0
M  V30 1333 C 127.438 0.937378 -5.65686 0
M  V30 1334 N 126.934 0.9888 -6.85707 0
M  V30 1335 N 128.727 0.974312 -5.53592 0
M  V30 1336 H 120.878 -0.661655 -2.01831 0
M  V30 1337 H 123.141 -0.235261 -0.918344 0
M  V30 1338 H 122.847 -0.28732 -3.50524 0
M  V30 1339 H 122.721 1.46268 -3.47686 0
M  V30 1340 H 125.108 1.58055 -2.49204 0
M  V30 1341 H 125.189 -0.186022 -2.55123 0
M  V30 1342 H 124.833 -0.0954072 -5.0781 0
M  V30 1343 H 124.763 1.68255 -4.98997 0
M  V30 1344 H 127.254 0.818103 -3.68938 0
M  V30 1345 H 127.567 1.05707 -7.65536 0
M  V30 1346 H 125.912 0.957534 -6.88372 0
M  V30 1347 H 129.103 0.930954 -4.58749 0
M  V30 1348 H 129.276 1.04015 -6.39597 0
M  V30 1349 N 122.682 1.50554 0.465978 0
M  V30 1350 C 123.63 1.70324 1.58406 0
M  V30 1351 C 124.624 0.569139 1.59553 0
M  V30 1352 O 125.83 0.749776 1.63641 0
M  V30 1353 H 122.205 0.537688 0.525734 0
M  V30 1354 H 124.176 2.64104 1.38894 0
M  V30 1355 C 122.925 1.81928 2.96307 0
M  V30 1356 H 122.248 2.68586 2.96144 0
M  V30 1357 H 123.688 1.99784 3.73982 0
M  V30 1358 C 122.147 0.572095 3.32007 0
M  V30 1359 O 122.677 -0.286416 4.00678 0
M  V30 1360 N 120.883 0.424606 2.87481 0
M  V30 1361 H 120.43 1.12427 2.31771 0
M  V30 1362 H 120.388 -0.408697 3.11732 0
M  V30 1363 N 124.16 -0.719506 1.40217 0
M  V30 1364 C 125.408 -1.47641 1.3801 0
M  V30 1365 C 125.729 -1.94992 -0.018145 0
M  V30 1366 O 124.999 -1.70073 -0.972207 0
M  V30 1367 H 123.579 -0.547744 0.507923 0
M  V30 1368 H 126.241 -0.853187 1.75233 0
M  V30 1369 H 125.337 -2.35112 2.05253 0
M  V30 1370 N 125.638 -1.25649 -0.95132 0
M  V30 1371 C 126.863 -1.13443 -1.73624 0
M  V30 1372 C 127.288 0.307565 -1.85568 0
M  V30 1373 O 126.646 1.22282 -1.33854 0
M  V30 1374 C 126.694 -1.79723 -3.12621 0
M  V30 1375 O 125.798 -1.07912 -3.98031 0
M  V30 1376 H 125.139 -0.395872 -0.533086 0
M  V30 1377 H 127.669 -1.66276 -1.1922 0
M  V30 1378 H 127.679 -1.86141 -3.63064 0
M  V30 1379 H 126.354 -2.84633 -3.03244 0
M  V30 1380 H 124.931 -1.09398 -3.56492 0
M  V30 1381 N 127.117 1.15442 -1.07289 0
M  V30 1382 C 128.363 1.86489 -0.796846 0
M  V30 1383 C 128.696 1.82078 0.675371 0
M  V30 1384 O 127.971 1.24346 1.4956 0
M  V30 1385 C 128.254 3.35626 -1.30489 0
M  V30 1386 C 128.107 3.48673 -2.84161 0
M  V30 1387 C 129.426 4.30357 -0.920907 0
M  V30 1388 H 126.545 0.677144 -0.290939 0
M  V30 1389 H 129.187 1.35633 -1.33056 0
M  V30 1390 H 127.337 3.79068 -0.850883 0
M  V30 1391 H 129.009 3.14099 -3.37846 0
M  V30 1392 H 127.252 2.90253 -3.22391 0
M  V30 1393 H 127.923 4.53453 -3.14777 0
M  V30 1394 H 130.399 3.94871 -1.3121 0
M  V30 1395 H 129.275 5.33193 -1.30372 0
M  V30 1396 H 129.536 4.4176 0.173226 0
M  V30 1397 N 128.595 0.856903 1.32268 0
M  V30 1398 C 129.525 0.31858 2.31316 0
M  V30 1399 C 130.506 -0.583487 1.59779 0
M  V30 1400 O 131.691 -0.503259 1.87566 0
M  V30 1401 C 128.821 -0.491979 3.43798 0
M  V30 1402 C 127.775 0.315849 4.26833 0
M  V30 1403 C 127.101 -0.619586 5.31098 0
M  V30 1404 C 128.401 1.54282 4.98993 0
M  V30 1405 H 130.095 1.14621 2.76591 0
M  V30 1406 H 127.641 0.552613 1.32974 0
M  V30 1407 H 129.594 -0.879012 4.1213 0
M  V30 1408 H 128.318 -1.35299 2.97257 0
M  V30 1409 H 126.977 0.684664 3.6015 0
M  V30 1410 H 126.625 -1.47751 4.8081 0
M  V30 1411 H 126.325 -0.0830621 5.87541 0
M  V30 1412 H 127.849 -1.00375 6.02293 0
M  V30 1413 H 129.263 1.22796 5.59995 0
M  V30 1414 H 127.66 2.01745 5.65172 0
M  V30 1415 H 128.73 2.30285 4.26728 0
M  V30 1416 N 130.073 -1.45103 0.615059 0
M  V30 1417 C 131.301 -2.06553 0.11977 0
M  V30 1418 C 131.716 -1.45842 -1.19898 0
M  V30 1419 O 131.073 -0.575325 -1.73194 0
M  V30 1420 C 131.124 -3.61495 -0.018364 0
M  V30 1421 O 130.845 -4.19942 1.24822 0
M  V30 1422 C 132.346 -4.39947 -0.544237 0
M  V30 1423 H 129.566 -0.667096 0.0722739 0
M  V30 1424 H 132.11 -1.8623 0.84491 0
M  V30 1425 H 130.265 -3.81135 -0.693865 0
M  V30 1426 H 130.679 -5.13204 1.0827 0
M  V30 1427 H 132.153 -5.48838 -0.589953 0
M  V30 1428 H 132.63 -4.10255 -1.56805 0
M  V30 1429 H 133.236 -4.25188 0.0974703 0
M  V30 1430 N 131.551 -0.354651 -1.53558 0
M  V30 1431 C 132.514 0.484566 -2.24019 0
M  V30 1432 C 133.514 1.01861 -1.24422 0
M  V30 1433 O 134.704 0.906097 -1.4878 0
M  V30 1434 C 131.836 1.67615 -2.96847 0
M  V30 1435 H 133.029 -0.131843 -2.9961 0
M  V30 1436 H 130.582 -0.106165 -1.55939 0
M  V30 1437 H 131.317 2.33095 -2.25471 0
M  V30 1438 H 131.102 1.30029 -3.69912 0
M  V30 1439 H 132.592 2.27114 -3.50441 0
M  V30 1440 N 133.029 1.57378 -0.0835403 0
M  V30 1441 C 134.254 1.98682 0.594987 0
M  V30 1442 C 134.679 0.961969 1.61641 0
M  V30 1443 O 134.037 -0.0709989 1.81161 0
M  V30 1444 C 134.085 3.38988 1.2296 0
M  V30 1445 O 133.189 3.39208 2.34546 0
M  V30 1446 H 132.53 0.646368 0.152002 0
M  V30 1447 H 135.06 2.03961 -0.161533 0
M  V30 1448 H 135.07 3.76431 1.57366 0
M  V30 1449 H 133.745 4.13107 0.481228 0
M  V30 1450 H 132.322 3.13548 2.01846 0
M  V30 1451 N 134.507 -0.190092 1.56449 0
M  V30 1452 C 135.784 -0.935886 1.71757 0
M  V30 1453 C 136.164 -2.01173 0.639726 0
M  V30 1454 O 135.512 -2.25827 -0.348502 0
M  V30 1455 C 135.722 -1.51775 3.1427 0
M  V30 1456 C 137.07 -1.99794 3.74656 0
M  V30 1457 O 138.094 -1.61607 3.1743 0
M  V30 1458 O 136.953 -2.70079 4.751 0
M  V30 1459 H 134.047 -0.439229 0.700719 0
M  V30 1460 H 136.593 -0.179395 1.68749 0
M  V30 1461 H 135.365 -0.742505 3.84191 0
M  V30 1462 H 134.988 -2.33894 3.21527 0
M  V30 1463 N 135.985 -1.50799 -0.457987 0
M  V30 1464 C 136.915 -1.73553 -1.5621 0
M  V30 1465 C 137.896 -0.584774 -1.59732 0
M  V30 1466 O 139.081 -0.825314 -1.7579 0
M  V30 1467 C 136.211 -1.84169 -2.94447 0
M  V30 1468 C 135.165 -2.99461 -3.0579 0
M  V30 1469 C 134.491 -2.95235 -4.45803 0
M  V30 1470 C 135.791 -4.39766 -2.81786 0
M  V30 1471 H 137.485 -2.66 -1.37421 0
M  V30 1472 H 135.031 -1.28002 -0.659662 0
M  V30 1473 H 136.984 -1.98672 -3.71628 0
M  V30 1474 H 135.708 -0.883545 -3.14422 0
M  V30 1475 H 134.367 -2.8463 -2.31044 0
M  V30 1476 H 134.015 -1.97239 -4.62715 0
M  V30 1477 H 133.715 -3.72642 -4.54326 0
M  V30 1478 H 135.239 -3.11803 -5.24987 0
M  V30 1479 H 136.653 -4.55054 -3.4871 0
M  V30 1480 H 135.05 -5.18722 -3.0174 0
M  V30 1481 H 136.12 -4.51229 -1.7754 0
M  V30 1482 N 137.463 0.71206 -1.40597 0
M  V30 1483 C 138.691 1.50111 -1.42388 0
M  V30 1484 C 139.106 1.88784 -0.0245395 0
M  V30 1485 O 138.463 1.55681 0.952351 0
M  V30 1486 C 138.514 2.7742 -2.31776 0
M  V30 1487 O 138.235 2.40382 -3.66262 0
M  V30 1488 C 139.736 3.7129 -2.42196 0
M  V30 1489 H 136.956 0.46314 -0.485533 0
M  V30 1490 H 139.5 0.878068 -1.8469 0
M  V30 1491 H 137.655 3.36001 -1.92827 0
M  V30 1492 H 138.069 3.22324 -4.13772 0
M  V30 1493 H 139.543 4.57448 -3.08943 0
M  V30 1494 H 140.02 4.14641 -1.44809 0
M  V30 1495 H 140.626 3.18619 -2.81712 0
M  V30 1496 N 138.941 1.26152 0.944643 0
M  V30 1497 C 140.169 1.14259 1.72489 0
M  V30 1498 C 140.584 -0.302555 1.8636 0
M  V30 1499 O 139.941 -1.20741 1.36849 0
M  V30 1500 C 139.992 1.80266 3.13347 0
M  V30 1501 O 139.713 3.19133 3.00143 0
M  V30 1502 C 141.214 1.74283 4.07603 0
M  V30 1503 H 138.434 0.398051 0.540181 0
M  V30 1504 H 140.978 1.66706 1.18446 0
M  V30 1505 H 139.133 1.31766 3.64303 0
M  V30 1506 H 139.547 3.51744 3.89071 0
M  V30 1507 H 141.021 2.25111 5.04013 0
M  V30 1508 H 141.498 0.708631 4.33446 0
M  V30 1509 H 142.104 2.22319 3.62567 0
M  V30 1510 N 140.419 -1.14872 1.07899 0
M  V30 1511 C 141.382 -2.17986 0.708161 0
M  V30 1512 C 142.382 -1.58775 -0.25442 0
M  V30 1513 O 143.572 -1.74166 -0.034645 0
M  V30 1514 C 140.704 -3.40871 0.0446929 0
M  V30 1515 H 141.897 -2.52306 1.62116 0
M  V30 1516 H 139.45 -1.2943 0.876218 0
M  V30 1517 H 140.185 -3.12124 -0.880281 0
M  V30 1518 H 139.97 -3.8511 0.737091 0
M  V30 1519 H 141.46 -4.17121 -0.19991 0
M  V30 1520 N 141.898 -0.863906 -1.31812 0
M  V30 1521 C 142.808 -0.318461 -2.32428 0
M  V30 1522 C 143.824 0.568496 -1.64451 0
M  V30 1523 O 145 0.46666 -1.95919 0
M  V30 1524 C 142.065 0.476355 -3.43412 0
M  V30 1525 C 141.126 -0.43784 -4.27061 0
M  V30 1526 C 140.359 0.319138 -5.32745 0
M  V30 1527 O 140.582 1.54799 -5.48993 0
M  V30 1528 O 139.516 -0.319861 -6.01049 0
M  V30 1529 H 143.342 -1.15229 -2.80991 0
M  V30 1530 H 140.927 -0.627103 -1.35602 0
M  V30 1531 H 142.809 0.927156 -4.11074 0
M  V30 1532 H 141.484 1.28683 -2.97022 0
M  V30 1533 H 140.391 -0.937013 -3.62175 0
M  V30 1534 H 141.724 -1.21375 -4.77 0
M  V30 1535 N 143.376 1.44774 -0.622745 0
M  V30 1536 C 144.306 2.33382 0.0741861 0
M  V30 1537 C 145.287 1.47719 0.843387 0
M  V30 1538 O 146.472 1.76458 0.810934 0
M  V30 1539 C 143.602 3.30663 1.06204 0
M  V30 1540 C 142.556 4.26079 0.405037 0
M  V30 1541 C 141.882 5.13165 1.5022 0
M  V30 1542 C 143.182 5.1781 -0.683414 0
M  V30 1543 H 144.876 2.91905 -0.665713 0
M  V30 1544 H 142.422 1.40363 -0.321587 0
M  V30 1545 H 144.375 3.9153 1.55827 0
M  V30 1546 H 143.099 2.70331 1.83272 0
M  V30 1547 H 141.758 3.66532 -0.0704683 0
M  V30 1548 H 141.406 4.49191 2.26355 0
M  V30 1549 H 141.106 5.77812 1.06803 0
M  V30 1550 H 142.63 5.76902 2.00041 0
M  V30 1551 H 144.044 5.72661 -0.270631 0
M  V30 1552 H 142.441 5.91015 -1.04023 0
M  V30 1553 H 143.511 4.59326 -1.55395 0
M  V30 1554 N 144.854 0.36279 1.53368 0
M  V30 1555 C 145.786 -0.519668 2.23231 0
M  V30 1556 C 146.799 -1.04844 1.24546 0
M  V30 1557 O 147.988 -0.955296 1.50786 0
M  V30 1558 C 145.088 -1.72995 2.9142 0
M  V30 1559 C 144.261 -1.33316 4.16588 0
M  V30 1560 C 143.32 -2.40521 4.68013 0
M  V30 1561 O 142.346 -2.03027 5.3176 0
M  V30 1562 N 143.548 -3.72065 4.45587 0
M  V30 1563 H 146.313 0.078751 2.99597 0
M  V30 1564 H 143.874 0.187833 1.60807 0
M  V30 1565 H 145.866 -2.44184 3.22733 0
M  V30 1566 H 144.436 -2.2353 2.18525 0
M  V30 1567 H 143.656 -0.451236 3.91609 0
M  V30 1568 H 144.944 -1.04432 4.97967 0
M  V30 1569 H 144.342 -4.05304 3.94646 0
M  V30 1570 H 142.899 -4.39366 4.81457 0
M  V30 1571 N 146.332 -1.57332 0.0918853 0
M  V30 1572 C 147.295 -2.12708 -0.85369 0
M  V30 1573 C 148.295 -1.05561 -1.213 0
M  V30 1574 O 149.485 -1.31461 -1.14296 0
M  V30 1575 C 146.617 -2.64503 -2.15061 0
M  V30 1576 H 147.81 -2.97573 -0.3729 0
M  V30 1577 H 145.363 -1.55509 -0.157072 0
M  V30 1578 H 146.098 -1.83149 -2.67632 0
M  V30 1579 H 145.883 -3.4284 -1.90272 0
M  V30 1580 H 147.373 -3.07351 -2.82711 0
M  V30 1581 N 147.81 0.181792 -1.56548 0
M  V30 1582 C 149.059 0.898348 -1.8059 0
M  V30 1583 C 149.372 1.83862 -0.667379 0
M  V30 1584 O 150.578 2.59678 -0.792446 0
M  V30 1585 C 149.034 1.64791 -3.19956 0
M  V30 1586 C 148.642 0.751789 -4.41647 0
M  V30 1587 C 150.386 2.35331 -3.53298 0
M  V30 1588 C 148.293 1.50098 -5.72035 0
M  V30 1589 H 147.223 0.339194 -0.673397 0
M  V30 1590 H 149.874 0.151413 -1.82874 0
M  V30 1591 H 148.256 2.43921 -3.11959 0
M  V30 1592 H 149.43 -0.0018076 -4.608 0
M  V30 1593 H 147.745 0.156562 -4.16106 0
M  V30 1594 H 150.342 2.91958 -4.47956 0
M  V30 1595 H 150.685 3.10164 -2.77676 0
M  V30 1596 H 151.218 1.63154 -3.62803 0
M  V30 1597 H 147.957 0.795175 -6.50659 0
M  V30 1598 H 147.477 2.22817 -5.56878 0
M  V30 1599 H 149.156 2.05125 -6.13622 0
M  V30 1600 N 149.288 1.51039 0.449983 0
M  V30 1601 C 150.238 1.67824 1.54335 0
M  V30 1602 C 151.222 0.5324 1.51836 0
M  V30 1603 O 152.414 0.787762 1.58503 0
M  V30 1604 C 149.543 1.7951 2.92628 0
M  V30 1605 C 148.629 2.99838 2.9993 0
M  V30 1606 N 149.02 4.23207 2.77001 0
M  V30 1607 C 147.318 2.98832 3.31082 0
M  V30 1608 C 148.019 5.04361 2.89818 0
M  V30 1609 N 146.995 4.38746 3.2094 0
M  V30 1610 H 150.797 2.60884 1.35339 0
M  V30 1611 H 148.311 1.48513 0.657085 0
M  V30 1612 H 150.308 1.89642 3.7127 0
M  V30 1613 H 148.968 0.876227 3.12654 0
M  V30 1614 H 149.979 4.5236 2.52172 0
M  V30 1615 H 146.656 2.16527 3.56963 0
M  V30 1616 H 148.046 6.12528 2.76151 0
M  V30 1617 N 150.766 -0.704594 1.40972 0
M  V30 1618 C 152.015 -1.46018 1.39146 0
M  V30 1619 C 152.328 -1.956 0.000589254 0
M  V30 1620 O 153.534 -2.71137 -0.1403 0
M  V30 1621 C 151.99 -2.63996 2.4461 0
M  V30 1622 C 151.598 -2.21238 3.89561 0
M  V30 1623 C 153.342 -3.41677 2.51907 0
M  V30 1624 C 151.249 -3.3612 4.86598 0
M  V30 1625 H 150.179 -0.548444 0.517422 0
M  V30 1626 H 152.83 -0.765784 1.66757 0
M  V30 1627 H 151.212 -3.3566 2.10115 0
M  V30 1628 H 152.386 -1.56923 4.33257 0
M  V30 1629 H 150.701 -1.56574 3.85841 0
M  V30 1630 H 153.298 -4.27182 3.2159 0
M  V30 1631 H 153.641 -3.86247 1.55303 0
M  V30 1632 H 154.174 -2.77064 2.85448 0
M  V30 1633 H 150.913 -2.96572 5.84573 0
M  V30 1634 H 150.433 -3.99315 4.47557 0
M  V30 1635 H 152.112 -4.02029 5.06934 0
M  V30 1636 N 152.244 -1.26651 -0.937939 0
M  V30 1637 C 153.207 -1.08546 -2.01867 0
M  V30 1638 C 154.207 -0.0327327 -1.60767 0
M  V30 1639 O 155.397 -0.276427 -1.71993 0
M  V30 1640 C 152.529 -0.651711 -3.34613 0
M  V30 1641 H 153.722 -2.04502 -2.1936 0
M  V30 1642 H 151.275 -1.09294 -1.11734 0
M  V30 1643 H 152.01 0.309696 -3.22818 0
M  V30 1644 H 151.795 -1.41189 -3.65798 0
M  V30 1645 H 153.285 -0.546973 -4.14002 0
M  V30 1646 N 153.722 1.14298 -1.08507 0
M  V30 1647 C 154.632 2.23027 -0.727753 0
M  V30 1648 C 155.648 1.71952 0.26619 0
M  V30 1649 O 156.824 2.011 0.109882 0
M  V30 1650 C 153.889 3.46403 -0.143541 0
M  V30 1651 C 152.95 4.12413 -1.19223 0
M  V30 1652 C 152.183 5.29899 -0.635798 0
M  V30 1653 O 152.406 5.67796 0.544393 0
M  V30 1654 O 151.34 5.85717 -1.38634 0
M  V30 1655 H 155.166 2.55945 -1.63481 0
M  V30 1656 H 152.751 1.22248 -0.858817 0
M  V30 1657 H 154.633 4.21018 0.179404 0
M  V30 1658 H 153.308 3.15206 0.736659 0
M  V30 1659 H 152.215 3.39667 -1.56772 0
M  V30 1660 H 153.548 4.47718 -2.04474 0
M  V30 1661 N 155.201 0.870884 1.31352 0
M  V30 1662 C 156.111 0.330783 2.32256 0
M  V30 1663 C 157.127 -0.559767 1.6475 0
M  V30 1664 O 158.303 -0.456263 1.96164 0
M  V30 1665 C 155.368 -0.458137 3.4366 0
M  V30 1666 C 154.429 0.460482 4.26823 0
M  V30 1667 C 153.662 -0.290881 5.32907 0
M  V30 1668 O 153.885 -1.51885 5.49806 0
M  V30 1669 O 152.819 0.351732 6.00871 0
M  V30 1670 H 156.645 1.16718 2.80376 0
M  V30 1671 H 154.23 0.634285 1.35267 0
M  V30 1672 H 156.112 -0.905343 4.1156 0
M  V30 1673 H 154.787 -1.27106 2.97701 0
M  V30 1674 H 153.694 0.956207 3.61673 0
M  V30 1675 H 155.027 1.23903 4.7635 0
M  V30 1676 N 156.679 -1.44442 0.630414 0
M  V30 1677 C 157.927 -2.01653 0.134351 0
M  V30 1678 C 158.248 -1.49836 -1.24796 0
M  V30 1679 O 157.518 -0.701684 -1.82902 0
M  V30 1680 H 156.098 -0.74554 0.0466769 0
M  V30 1681 H 158.76 -1.76952 0.816955 0
M  V30 1682 H 157.856 -3.11935 0.101498 0
M  V30 1683 N 158.157 -0.370918 -1.53173 0
M  V30 1684 C 159.573 -0.0200818 -1.59587 0
M  V30 1685 C 159.773 1.46279 -1.38581 0
M  V30 1686 O 158.829 2.22506 -1.19363 0
M  V30 1687 C 160.142 -0.4808 -2.96831 0
M  V30 1688 C 161.69 -0.435477 -3.09956 0
M  V30 1689 C 162.165 -0.872092 -4.4962 0
M  V30 1690 N 163.656 -0.827364 -4.55751 0
M  V30 1691 C 164.391 -1.13683 -5.62018 0
M  V30 1692 N 163.887 -1.51584 -6.76014 0
M  V30 1693 N 165.68 -1.05927 -5.52029 0
M  V30 1694 H 157.831 -1.33652 -1.65079 0
M  V30 1695 H 160.094 -0.546634 -0.774529 0
M  V30 1696 H 159.8 -1.51577 -3.1736 0
M  V30 1697 H 159.674 0.129796 -3.76977 0
M  V30 1698 H 162.061 0.590371 -2.89134 0
M  V30 1699 H 162.142 -1.08164 -2.31806 0
M  V30 1700 H 161.786 -1.89608 -4.71181 0
M  V30 1701 H 161.716 -0.203127 -5.26208 0
M  V30 1702 H 164.207 -0.548216 -3.73902 0
M  V30 1703 H 164.52 -1.73609 -7.53047 0
M  V30 1704 H 162.865 -1.55454 -6.77391 0
M  V30 1705 H 166.056 -0.762321 -4.61851 0
M  V30 1706 H 166.229 -1.30378 -6.34749 0
M  V30 1707 N 159.635 1.57281 -0.100228 0
M  V30 1708 C 160.912 1.86014 0.604812 0
M  V30 1709 C 161.292 0.998025 1.86018 0
M  V30 1710 O 160.64 0.0718184 2.28387 0
M  V30 1711 C 160.85 3.36784 0.915278 0
M  V30 1712 C 162.198 4.04957 1.27651 0
M  V30 1713 O 163.222 3.41695 1.00613 0
M  V30 1714 O 162.081 5.16593 1.7831 0
M  V30 1715 H 159.175 0.76942 0.303185 0
M  V30 1716 H 161.721 1.69176 -0.133313 0
M  V30 1717 H 160.493 3.91292 0.0248896 0
M  V30 1718 H 160.116 3.58987 1.70921 0
M  V30 1719 N 161.113 -0.173488 1.56642 0
M  V30 1720 C 162.045 -1.23935 1.92802 0
M  V30 1721 C 163.058 -1.40589 0.820889 0
M  V30 1722 O 164.247 -1.40631 1.09933 0
M  V30 1723 C 161.347 -2.60837 2.16373 0
M  V30 1724 C 160.52 -2.6551 3.47596 0
M  V30 1725 C 159.579 -3.8376 3.60021 0
M  V30 1726 O 158.605 -3.69859 4.32658 0
M  V30 1727 N 159.807 -5.00127 2.94709 0
M  V30 1728 H 162.572 -0.932236 2.84832 0
M  V30 1729 H 160.133 -0.363268 1.57772 0
M  V30 1730 H 162.125 -3.38407 2.21952 0
M  V30 1731 H 160.695 -2.83948 1.30738 0
M  V30 1732 H 159.915 -1.74052 3.53694 0
M  V30 1733 H 161.203 -2.65641 4.33949 0
M  V30 1734 H 160.601 -5.14322 2.35563 0
M  V30 1735 H 159.158 -5.75567 3.05886 0
M  V30 1736 N 162.591 -1.51276 -0.441967 0
M  V30 1737 C 163.819 -1.67516 -1.21434 0
M  V30 1738 C 164.234 -0.37055 -1.85128 0
M  V30 1739 O 163.591 0.650498 -1.70513 0
M  V30 1740 C 163.642 -2.78748 -2.30177 0
M  V30 1741 O 163.363 -4.04154 -1.69089 0
M  V30 1742 C 164.864 -3.06217 -3.20541 0
M  V30 1743 H 162.084 -0.562276 -0.366178 0
M  V30 1744 H 164.628 -1.97666 -0.524244 0
M  V30 1745 H 162.783 -2.5121 -2.94911 0
M  V30 1746 H 163.197 -4.65894 -2.40922 0
M  V30 1747 H 164.671 -3.8764 -3.92987 0
M  V30 1748 H 165.148 -2.18439 -3.81026 0
M  V30 1749 H 165.754 -3.35397 -2.61513 0
M  V30 1750 N 164.069 0.697108 -1.41344 0
M  V30 1751 C 165.315 1.4593 -1.40827 0
M  V30 1752 C 165.648 1.94193 -0.0167098 0
M  V30 1753 O 164.923 1.69425 0.955263 0
M  V30 1754 C 165.206 2.67229 -2.41373 0
M  V30 1755 C 165.059 2.24741 -3.8963 0
M  V30 1756 C 166.378 3.69423 -2.39196 0
M  V30 1757 H 163.497 0.529303 -0.512842 0
M  V30 1758 H 166.139 0.794112 -1.72609 0
M  V30 1759 H 164.289 3.23982 -2.14401 0
M  V30 1760 H 165.961 1.73327 -4.27499 0
M  V30 1761 H 164.204 1.56542 -4.0457 0
M  V30 1762 H 164.875 3.1177 -4.55525 0
M  V30 1763 H 167.351 3.2234 -2.63128 0
M  V30 1764 H 166.227 4.51907 -3.11563 0
M  V30 1765 H 166.488 4.19012 -1.41001 0
M  V30 1766 N 165.547 1.27147 0.931209 0
M  V30 1767 C 166.824 1.0401 1.65654 0
M  V30 1768 C 167.204 -0.426297 2.06751 0
M  V30 1769 O 166.552 -1.40879 1.79904 0
M  V30 1770 C 166.762 1.99834 2.86125 0
M  V30 1771 C 168.11 2.29007 3.57549 0
M  V30 1772 O 169.134 1.97779 2.96246 0
M  V30 1773 O 167.993 2.82222 4.67989 0
M  V30 1774 H 165.087 0.396239 0.725895 0
M  V30 1775 H 167.633 1.38397 0.982056 0
M  V30 1776 H 166.405 2.98744 2.52721 0
M  V30 1777 H 166.028 1.65987 3.61295 0
M  V30 1778 N 167.025 -1.13721 1.09112 0
M  V30 1779 C 167.955 -2.21148 0.749385 0
M  V30 1780 C 168.936 -1.6792 -0.271475 0
M  V30 1781 O 170.121 -1.93693 -0.140251 0
M  V30 1782 C 167.251 -3.46905 0.165659 0
M  V30 1783 C 166.205 -4.13203 1.11567 0
M  V30 1784 C 165.531 -5.33248 0.393809 0
M  V30 1785 C 166.831 -4.60912 2.45678 0
M  V30 1786 H 168.525 -2.4999 1.64758 0
M  V30 1787 H 166.071 -1.20156 0.793626 0
M  V30 1788 H 168.024 -4.21313 -0.085466 0
M  V30 1789 H 166.748 -3.17449 -0.767714 0
M  V30 1790 H 165.407 -3.40758 1.35202 0
M  V30 1791 H 165.055 -5.00054 -0.543599 0
M  V30 1792 H 164.755 -5.78552 1.02721 0
M  V30 1793 H 166.279 -6.10413 0.150908 0
M  V30 1794 H 167.693 -5.26759 2.26269 0
M  V30 1795 H 166.09 -5.16944 3.04776 0
M  V30 1796 H 167.16 -3.75603 3.06677 0
M  V30 1797 N 168.503 -0.877838 -1.30888 0
M  V30 1798 C 169.466 -0.344265 -2.266 0
M  V30 1799 C 170.466 0.50922 -1.52524 0
M  V30 1800 O 171.656 0.317398 -1.71284 0
M  V30 1801 C 168.788 0.510198 -3.37061 0
M  V30 1802 H 169.981 -1.1893 -2.7531 0
M  V30 1803 H 167.534 -0.654088 -1.41956 0
M  V30 1804 H 168.269 1.37612 -2.93655 0
M  V30 1805 H 168.054 -0.101047 -3.9197 0
M  V30 1806 H 169.544 0.875537 -4.08319 0
M  V30 1807 N 169.982 1.44106 -0.638065 0
M  V30 1808 C 170.929 2.30715 0.062701 0
M  V30 1809 C 171.899 1.43882 0.829883 0
M  V30 1810 O 173.084 1.72775 0.809532 0
M  V30 1811 C 170.224 3.29258 1.03358 0
M  V30 1812 C 169.337 4.31192 0.26409 0
M  V30 1813 C 168.472 5.16825 1.22741 0
M  V30 1814 C 167.511 6.10462 0.447475 0
M  V30 1815 N 166.648 6.8877 1.36161 0
M  V30 1816 H 171.488 2.90096 -0.681781 0
M  V30 1817 H 169.025 1.42925 -0.347988 0
M  V30 1818 H 170.983 3.84886 1.60992 0
M  V30 1819 H 169.613 2.71562 1.74511 0
M  V30 1820 H 168.665 3.77981 -0.428295 0
M  V30 1821 H 169.977 4.97619 -0.343052 0
M  V30 1822 H 169.131 5.77004 1.87487 0
M  V30 1823 H 167.87 4.50488 1.86847 0
M  V30 1824 H 166.875 5.49386 -0.213433 0
M  V30 1825 H 168.1 6.78837 -0.188968 0
M  V30 1826 H 166.046 6.25096 1.98975 0
M  V30 1827 H 165.963 7.51663 0.808656 0
M  V30 1828 H 167.231 7.53467 1.99769 0
M  V30 1829 N 171.46 0.379036 1.52974 0
M  V30 1830 C 172.37 -0.468639 2.29872 0
M  V30 1831 C 173.386 -1.08067 1.36373 0
M  V30 1832 O 174.562 -1.08871 1.69438 0
M  V30 1833 C 171.627 -1.58594 3.083 0
M  V30 1834 C 170.688 -1.00007 4.17489 0
M  V30 1835 C 169.921 -2.06413 4.92168 0
M  V30 1836 O 170.144 -3.27751 4.66835 0
M  V30 1837 O 169.078 -1.68717 5.7777 0
M  V30 1838 H 172.904 0.157508 3.03291 0
M  V30 1839 H 170.489 0.143035 1.48714 0
M  V30 1840 H 172.371 -2.23525 3.57232 0
M  V30 1841 H 171.046 -2.19724 2.37703 0
M  V30 1842 H 169.953 -0.314299 3.72777 0
M  V30 1843 H 171.286 -0.433135 4.90291 0
M  V30 1844 N 172.938 -1.57226 0.108567 0
M  V30 1845 C 174.168 -1.9889 -0.559142 0
M  V30 1846 C 174.576 -0.986889 -1.61422 0
M  V30 1847 O 173.919 0.0298705 -1.83676 0
M  V30 1848 C 173.981 -3.36952 -1.25315 0
M  V30 1849 C 173.645 -4.55679 -0.347248 0
M  V30 1850 C 174.642 -5.18281 0.409996 0
M  V30 1851 C 172.327 -5.0162 -0.261367 0
M  V30 1852 C 174.321 -6.25203 1.24096 0
M  V30 1853 C 172.008 -6.08405 0.573238 0
M  V30 1854 C 173.006 -6.70063 1.32304 0
M  V30 1855 O 172.694 -7.74788 2.14381 0
M  V30 1856 H 172.426 -0.658343 -0.153492 0
M  V30 1857 H 174.98 -2.04532 0.188584 0
M  V30 1858 H 173.21 -3.28032 -2.04773 0
M  V30 1859 H 174.899 -3.62974 -1.81673 0
M  V30 1860 H 175.665 -4.8371 0.353457 0
M  V30 1861 H 171.544 -4.53381 -0.834656 0
M  V30 1862 H 175.088 -6.73259 1.82669 0
M  V30 1863 H 170.985 -6.42406 0.631208 0
M  V30 1864 H 171.753 -7.91837 2.07209 0
M  V30 1865 N 174.416 0.165178 -1.56732 0
M  V30 1866 C 175.379 1.18822 -1.95995 0
M  V30 1867 C 176.379 1.3685 -0.84431 0
M  V30 1868 O 177.569 1.34152 -1.11126 0
M  V30 1869 C 174.701 2.5521 -2.26011 0
M  V30 1870 H 175.894 0.851825 -2.87548 0
M  V30 1871 H 173.447 0.407857 -1.50885 0
M  V30 1872 H 174.182 2.93852 -1.37191 0
M  V30 1873 H 173.967 2.43489 -3.07336 0
M  V30 1874 H 175.457 3.28927 -2.57288 0
M  V30 1875 N 175.894 1.51508 0.433938 0
M  V30 1876 C 177.171 1.54888 1.19453 0
M  V30 1877 C 177.551 0.315154 2.08734 0
M  V30 1878 O 176.899 -0.699558 2.17528 0
M  V30 1879 C 177.109 2.86467 1.99342 0
M  V30 1880 C 178.457 3.38545 2.56267 0
M  V30 1881 O 179.481 2.88041 2.0955 0
M  V30 1882 O 178.34 4.26675 3.41483 0
M  V30 1883 H 175.434 0.622863 0.544032 0
M  V30 1884 H 177.98 1.63823 0.442732 0
M  V30 1885 H 176.752 3.67718 1.33788 0
M  V30 1886 H 176.375 2.8071 2.8158 0
M  V30 1887 N 177.372 -0.689602 1.41712 0
M  V30 1888 C 178.335 -1.78521 1.43746 0
M  V30 1889 C 179.335 -1.57436 0.327191 0
M  V30 1890 O 180.525 -1.64 0.587348 0
M  V30 1891 C 177.657 -3.16971 1.25467 0
M  V30 1892 H 178.85 -1.78108 2.41283 0
M  V30 1893 H 176.403 -0.89781 1.27942 0
M  V30 1894 H 177.138 -3.23019 0.287948 0
M  V30 1895 H 176.923 -3.33678 2.05917 0
M  V30 1896 H 178.413 -3.96935 1.2974 0
M  V30 1897 N 178.85 -1.27639 -0.924453 0
M  V30 1898 C 179.813 -1.10681 -2.00705 0
M  V30 1899 C 180.813 -0.0497823 -1.60723 0
M  V30 1900 O 182.003 -0.294654 -1.7169 0
M  V30 1901 C 179.135 -0.687164 -3.33902 0
M  V30 1902 H 180.328 -2.06817 -2.17179 0
M  V30 1903 H 177.881 -1.10473 -1.10569 0
M  V30 1904 H 178.616 0.275439 -3.23128 0
M  V30 1905 H 178.401 -1.45061 -3.6428 0
M  V30 1906 H 179.891 -0.590853 -4.13399 0
M  V30 1907 N 180.328 1.1314 -1.09713 0
M  V30 1908 C 181.576 1.84119 -0.833338 0
M  V30 1909 C 181.897 1.84097 0.642904 0
M  V30 1910 O 181.167 1.29881 1.46655 0
M  V30 1911 H 179.747 0.681766 -0.305293 0
M  V30 1912 H 182.409 1.37038 -1.38588 0
M  V30 1913 H 181.505 2.88543 -1.18951 0
M  V30 1914 N 181.806 0.884767 1.30421 0
M  V30 1915 C 183.031 0.517288 2.00845 0
M  V30 1916 C 183.456 -0.886779 1.65885 0
M  V30 1917 O 182.814 -1.58768 0.875354 0
M  V30 1918 C 182.862 0.698994 3.5376 0
M  V30 1919 O 181.966 -0.255208 4.1161 0
M  V30 1920 H 181.307 0.203872 0.631927 0
M  V30 1921 H 183.837 1.19225 1.66272 0
M  V30 1922 H 183.847 0.597912 4.03595 0
M  V30 1923 H 182.522 1.72271 3.78544 0
M  V30 1924 H 181.099 -0.10784 3.72744 0
M  V30 1925 N 183.284 -1.43765 0.645699 0
M  V30 1926 C 184.509 -2.06767 0.161883 0
M  V30 1927 C 184.934 -1.48034 -1.16049 0
M  V30 1928 O 184.292 -0.587369 -1.71522 0
M  V30 1929 C 184.34 -3.60519 0.0762003 0
M  V30 1930 O 183.444 -4.00982 -0.963721 0
M  V30 1931 H 182.785 -0.657675 0.091429 0
M  V30 1932 H 185.315 -1.84397 0.886499 0
M  V30 1933 H 185.325 -4.07853 -0.109604 0
M  V30 1934 H 184 -4.02646 1.04157 0
M  V30 1935 H 182.577 -3.65253 -0.751312 0
M  V30 1936 N 184.763 -0.387143 -1.52771 0
M  V30 1937 C 185.726 0.436939 -2.24997 0
M  V30 1938 C 186.726 0.991991 -1.26555 0
M  V30 1939 O 187.916 0.874335 -1.50669 0
M  V30 1940 C 185.048 1.61281 -3.00335 0
M  V30 1941 H 186.241 -0.195365 -2.99263 0
M  V30 1942 H 183.794 -0.139218 -1.55679 0
M  V30 1943 H 184.529 2.2826 -2.30364 0
M  V30 1944 H 184.314 1.22154 -3.72587 0
M  V30 1945 H 185.804 2.19629 -3.5518 0
M  V30 1946 N 186.241 1.57166 -0.116904 0
M  V30 1947 C 187.489 1.94737 0.540533 0
M  V30 1948 C 187.81 1.00096 1.67349 0
M  V30 1949 O 187.08 0.0568854 1.95817 0
M  V30 1950 H 185.66 0.718981 0.202669 0
M  V30 1951 H 188.322 1.94017 -0.185353 0
M  V30 1952 H 187.418 2.97719 0.936483 0
M  V30 1953 N 187.719 -0.156864 1.56817 0
M  V30 1954 C 188.667 -1.21319 1.98455 0
M  V30 1955 C 189.661 -1.45025 0.875444 0
M  V30 1956 O 190.867 -1.45435 1.0606 0
M  V30 1957 H 187.242 -0.408142 0.631605 0
M  V30 1958 H 189.213 -0.835244 2.86472 0
M  V30 1959 C 187.962 -2.54148 2.37285 0
M  V30 1960 H 187.285 -2.36733 3.22176 0
M  V30 1961 H 188.725 -3.26712 2.70251 0
M  V30 1962 C 187.184 -3.13967 1.22173 0
M  V30 1963 O 187.714 -3.98357 0.517149 0
M  V30 1964 N 185.92 -2.7327 0.988536 0
M  V30 1965 H 185.467 -2.04744 1.56326 0
M  V30 1966 H 185.425 -3.13628 0.220209 0
M  V30 1967 N 189.197 -1.51736 -0.425897 0
M  V30 1968 C 190.16 -1.73271 -1.50032 0
M  V30 1969 C 191.16 -0.602639 -1.4908 0
M  V30 1970 O 192.35 -0.87033 -1.509 0
M  V30 1971 C 189.482 -1.79969 -2.89523 0
M  V30 1972 H 190.675 -2.69172 -1.32237 0
M  V30 1973 H 188.228 -1.41899 -0.65532 0
M  V30 1974 H 188.963 -0.859241 -3.1271 0
M  V30 1975 H 188.748 -2.62109 -2.91619 0
M  V30 1976 H 190.238 -1.9843 -3.67444 0
M  V30 1977 N 190.675 0.682077 -1.42076 0
M  V30 1978 C 191.622 1.79578 -1.44984 0
M  V30 1979 C 192.592 1.6332 -0.302614 0
M  V30 1980 O 193.777 1.83978 -0.505633 0
M  V30 1981 C 190.917 3.1756 -1.35091 0
M  V30 1982 C 190.03 3.45156 -2.59791 0
M  V30 1983 C 189.165 4.72826 -2.42093 0
M  V30 1984 C 188.204 4.93433 -3.62202 0
M  V30 1985 N 187.341 6.12338 -3.43491 0
M  V30 1986 H 192.181 1.76427 -2.40161 0
M  V30 1987 H 189.718 0.861376 -1.19242 0
M  V30 1988 H 191.676 3.97287 -1.27354 0
M  V30 1989 H 190.306 3.19854 -0.435133 0
M  V30 1990 H 189.358 2.59736 -2.77923 0
M  V30 1991 H 190.67 3.5628 -3.49094 0
M  V30 1992 H 189.824 5.60631 -2.319 0
M  V30 1993 H 188.563 4.63973 -1.50268 0
M  V30 1994 H 187.568 4.04073 -3.72834 0
M  V30 1995 H 188.793 5.04136 -4.54998 0
M  V30 1996 H 186.739 6.04672 -2.54377 0
M  V30 1997 H 186.656 6.2429 -4.26377 0
M  V30 1998 H 187.924 7.02841 -3.37097 0
M  V30 1999 N 192.153 1.28127 0.917671 0
M  V30 2000 C 193.43 1.05761 1.64542 0
M  V30 2001 C 193.81 -0.404344 2.07191 0
M  V30 2002 O 193.158 -1.38963 1.81388 0
M  V30 2003 C 193.368 2.02857 2.83989 0
M  V30 2004 C 194.716 2.32786 3.551 0
M  V30 2005 O 195.74 2.0091 2.94132 0
M  V30 2006 O 194.599 2.87169 4.64969 0
M  V30 2007 H 191.693 0.403916 0.721652 0
M  V30 2008 H 194.239 1.39431 0.967322 0
M  V30 2009 H 193.011 3.01407 2.49538 0
M  V30 2010 H 192.634 1.69809 3.59514 0
M  V30 2011 N 193.631 -1.12557 1.10312 0
M  V30 2012 C 194.856 -1.88405 0.867085 0
M  V30 2013 C 195.281 -1.79038 -0.576817 0
M  V30 2014 O 194.639 -1.14439 -1.40618 0
M  V30 2015 C 194.687 -3.3563 1.31851 0
M  V30 2016 O 193.791 -4.09565 0.482734 0
M  V30 2017 H 193.132 -0.585455 0.313271 0
M  V30 2018 H 195.662 -1.42352 1.4696 0
M  V30 2019 H 195.672 -3.86469 1.3079 0
M  V30 2020 H 194.347 -3.41765 2.37001 0
M  V30 2021 H 192.924 -3.68695 0.558448 0
M  V30 2022 N 195.109 -0.891671 -1.2995 0
M  V30 2023 C 196.019 -0.367691 -2.31701 0
M  V30 2024 C 197.035 0.533486 -1.6562 0
M  V30 2025 O 198.211 0.424997 -1.96865 0
M  V30 2026 C 195.276 0.403406 -3.44345 0
M  V30 2027 C 194.337 -0.528328 -4.26037 0
M  V30 2028 C 193.57 0.206063 -5.33302 0
M  V30 2029 O 193.793 1.43119 -5.52153 0
M  V30 2030 O 192.727 -0.447281 -6.00236 0
M  V30 2031 H 196.553 -1.21163 -2.78484 0
M  V30 2032 H 194.138 -0.655725 -1.34241 0
M  V30 2033 H 196.02 0.839753 -4.12948 0
M  V30 2034 H 194.695 1.22354 -2.99685 0
M  V30 2035 H 193.602 -1.01362 -3.60106 0
M  V30 2036 H 194.935 -1.31465 -4.74318 0
M  V30 2037 N 196.587 1.43421 -0.653314 0
M  V30 2038 C 197.864 1.95361 -0.0966581 0
M  V30 2039 C 198.244 1.59461 1.38331 0
M  V30 2040 O 197.592 0.879777 2.10884 0
M  V30 2041 C 197.802 3.47311 -0.342988 0
M  V30 2042 C 199.15 4.23875 -0.24798 0
M  V30 2043 O 200.174 3.55133 -0.275553 0
M  V30 2044 O 199.033 5.4623 -0.171771 0
M  V30 2045 H 196.127 0.826945 0.00956291 0
M  V30 2046 H 198.673 1.5336 -0.726558 0
M  V30 2047 H 197.445 3.66569 -1.36906 0
M  V30 2048 H 197.068 3.9631 0.319975 0
M  V30 2049 N 198.065 0.39524 1.52563 0
M  V30 2050 C 198.975 -0.444232 2.30356 0
M  V30 2051 C 199.991 -1.06615 1.37511 0
M  V30 2052 O 201.167 -1.07067 1.70583 0
M  V30 2053 C 198.232 -1.55315 3.09964 0
M  V30 2054 C 197.293 -0.955734 4.18526 0
M  V30 2055 C 196.526 -2.01181 4.9433 0
M  V30 2056 O 196.749 -3.22781 4.70285 0
M  V30 2057 O 195.683 -1.62579 5.79527 0
M  V30 2058 H 199.509 0.189667 3.03107 0
M  V30 2059 H 197.094 0.1588 1.48554 0
M  V30 2060 H 198.976 -2.19724 3.59582 0
M  V30 2061 H 197.651 -2.17191 2.4002 0
M  V30 2062 H 196.558 -0.274743 3.7309 0
M  V30 2063 H 197.891 -0.381109 4.90722 0
M  V30 2064 N 199.544 -1.57102 0.125237 0
M  V30 2065 C 200.507 -2.14471 -0.80838 0
M  V30 2066 C 201.507 -1.0811 -1.19033 0
M  V30 2067 O 202.697 -1.33856 -1.11482 0
M  V30 2068 C 199.829 -2.69005 -2.09402 0
M  V30 2069 H 201.022 -2.98297 -0.309696 0
M  V30 2070 H 198.575 -1.55807 -0.124051 0
M  V30 2071 H 199.31 -1.88785 -2.63687 0
M  V30 2072 H 199.095 -3.46799 -1.82957 0
M  V30 2073 H 200.585 -3.13278 -2.76128 0
M  V30 2074 N 201.022 0.148545 -1.56898 0
M  V30 2075 C 202.438 0.501131 -1.51528 0
M  V30 2076 C 202.638 1.83458 -0.833399 0
M  V30 2077 O 201.694 2.49259 -0.40328 0
M  V30 2078 C 203.007 0.512864 -2.96294 0
M  V30 2079 C 204.555 0.598487 -3.07225 0
M  V30 2080 C 205.03 0.640897 -4.53494 0
M  V30 2081 N 206.521 0.703163 -4.57832 0
M  V30 2082 C 207.256 0.756935 -5.68382 0
M  V30 2083 N 206.752 0.770147 -6.88506 0
M  V30 2084 N 208.545 0.797698 -5.56411 0
M  V30 2085 H 200.696 -0.725532 -1.99624 0
M  V30 2086 H 202.959 -0.264358 -0.910395 0
M  V30 2087 H 202.665 -0.398691 -3.49433 0
M  V30 2088 H 202.539 1.35133 -3.52163 0
M  V30 2089 H 204.926 1.50046 -2.54106 0
M  V30 2090 H 205.007 -0.267093 -2.54402 0
M  V30 2091 H 204.651 -0.256915 -5.0725 0
M  V30 2092 H 204.581 1.52295 -5.04097 0
M  V30 2093 H 207.072 0.700314 -3.71354 0
M  V30 2094 H 207.385 0.812983 -7.68512 0
M  V30 2095 H 205.73 0.738049 -6.9107 0
M  V30 2096 H 208.921 0.784535 -4.61479 0
M  V30 2097 H 209.094 0.83614 -6.42583 0
M  V30 2098 N 202.5 1.5196 0.417844 0
M  V30 2099 C 203.916 1.40569 0.755816 0
M  V30 2100 C 204.116 0.503316 1.95113 0
M  V30 2101 O 203.172 -0.0341925 2.52477 0
M  V30 2102 C 204.485 2.82947 1.01791 0
M  V30 2103 C 206.033 2.92231 1.12116 0
M  V30 2104 C 206.508 4.35559 1.41608 0
M  V30 2105 N 207.999 4.38753 1.48491 0
M  V30 2106 C 208.734 5.46705 1.7292 0
M  V30 2107 N 208.23 6.64788 1.95011 0
M  V30 2108 N 210.023 5.34209 1.74863 0
M  V30 2109 H 202.174 2.09168 -0.369098 0
M  V30 2110 H 204.437 0.942409 -0.102809 0
M  V30 2111 H 204.143 3.5106 0.212081 0
M  V30 2112 H 204.017 3.23462 1.94042 0
M  V30 2113 H 206.404 2.24304 1.9176 0
M  V30 2114 H 206.485 2.55185 0.177225 0
M  V30 2115 H 206.129 5.04042 0.624848 0
M  V30 2116 H 206.059 4.70133 2.37239 0
M  V30 2117 H 208.55 3.5363 1.33244 0
M  V30 2118 H 208.863 7.42845 2.13076 0
M  V30 2119 H 207.208 6.67869 1.92293 0
M  V30 2120 H 210.399 4.40937 1.57137 0
M  V30 2121 H 210.572 6.18415 1.93563 0
M  V30 2122 N 203.978 -0.674533 1.42435 0
M  V30 2123 C 205.227 -1.43034 1.42212 0
M  V30 2124 C 205.54 -1.95555 0.0420788 0
M  V30 2125 O 206.746 -2.71374 -0.0827558 0
M  V30 2126 C 205.202 -2.58748 2.50155 0
M  V30 2127 C 204.81 -2.12925 3.94166 0
M  V30 2128 C 206.554 -3.36257 2.59098 0
M  V30 2129 C 204.461 -3.25723 4.93618 0
M  V30 2130 H 203.391 -0.537345 0.528939 0
M  V30 2131 H 206.042 -0.73024 1.68344 0
M  V30 2132 H 204.424 -3.31128 2.17188 0
M  V30 2133 H 205.598 -1.47697 4.36488 0
M  V30 2134 H 203.913 -1.48354 3.89076 0
M  V30 2135 H 206.51 -4.20264 3.30578 0
M  V30 2136 H 206.853 -3.82866 1.63461 0
M  V30 2137 H 207.386 -2.70947 2.9126 0
M  V30 2138 H 204.125 -2.84105 5.90732 0
M  V30 2139 H 203.645 -3.89732 4.55926 0
M  V30 2140 H 205.324 -3.91186 5.15347 0
M  V30 2141 N 205.456 -1.28612 -0.910864 0
M  V30 2142 C 206.419 -1.12803 -1.9952 0
M  V30 2143 C 207.419 -0.0668264 -1.60661 0
M  V30 2144 O 208.609 -0.312847 -1.71368 0
M  V30 2145 C 205.741 -0.72254 -3.33155 0
M  V30 2146 H 206.934 -2.09109 -2.14973 0
M  V30 2147 H 204.487 -1.11639 -1.09391 0
M  V30 2148 H 205.222 0.241152 -3.23402 0
M  V30 2149 H 205.007 -1.48916 -3.62721 0
M  V30 2150 H 206.497 -0.634666 -4.12749 0
M  V30 2151 N 206.934 1.1197 -1.10907 0
M  V30 2152 C 207.844 2.21433 -0.774896 0
M  V30 2153 C 208.86 1.72478 0.229657 0
M  V30 2154 O 210.036 2.01288 0.0672008 0
M  V30 2155 C 207.101 3.4602 -0.216986 0
M  V30 2156 C 206.162 4.09791 -1.27944 0
M  V30 2157 C 205.395 5.28431 -0.748055 0
M  V30 2158 O 205.618 5.68823 0.423833 0
M  V30 2159 O 204.552 5.82644 -1.51027 0
M  V30 2160 H 208.378 2.5242 -1.68873 0
M  V30 2161 H 205.963 1.20399 -0.884555 0
M  V30 2162 H 207.845 4.21304 0.090059 0
M  V30 2163 H 206.52 3.16698 0.669633 0
M  V30 2164 H 205.427 3.36265 -1.63941 0
M  V30 2165 H 206.76 4.4328 -2.13925 0
M  V30 2166 N 208.412 0.89855 1.29475 0
M  V30 2167 C 209.637 0.538561 2.00285 0
M  V30 2168 C 210.062 -0.869135 1.66816 0
M  V30 2169 O 209.42 -1.57831 0.892145 0
M  V30 2170 C 209.468 0.736475 3.52999 0
M  V30 2171 O 208.572 -0.211537 4.11857 0
M  V30 2172 H 207.913 0.210563 0.62973 0
M  V30 2173 H 210.443 1.20982 1.64998 0
M  V30 2174 H 210.453 0.640685 4.02938 0
M  V30 2175 H 209.128 1.76276 3.76696 0
M  V30 2176 H 207.705 -0.0682991 3.72837 0
M  V30 2177 N 209.89 -1.43072 0.660911 0
M  V30 2178 C 211.139 -2.00942 0.174735 0
M  V30 2179 C 211.452 -1.52797 -1.22117 0
M  V30 2180 O 212.658 -2.02991 -1.80297 0
M  V30 2181 C 211.114 -3.58948 0.261559 0
M  V30 2182 C 210.722 -4.16085 1.66064 0
M  V30 2183 C 212.466 -4.24173 -0.166617 0
M  V30 2184 C 210.373 -5.6641 1.70098 0
M  V30 2185 H 209.303 -0.751483 0.0615631 0
M  V30 2186 H 211.954 -1.63955 0.824069 0
M  V30 2187 H 210.336 -3.93372 -0.455421 0
M  V30 2188 H 211.51 -3.93147 2.40359 0
M  V30 2189 H 209.825 -3.6326 2.03546 0
M  V30 2190 H 212.422 -5.34471 -0.156433 0
M  V30 2191 H 212.765 -3.98647 -1.19943 0
M  V30 2192 H 213.298 -3.94659 0.498875 0
M  V30 2193 H 210.037 -5.96715 2.71315 0
M  V30 2194 H 209.557 -5.91382 1.00139 0
M  V30 2195 H 211.236 -6.30585 1.44816 0
M  V30 2196 N 211.368 -0.403325 -1.52352 0
M  V30 2197 C 212.784 -0.0539281 -1.59509 0
M  V30 2198 C 212.984 1.43307 -1.41652 0
M  V30 2199 O 212.04 2.19924 -1.24056 0
M  V30 2200 C 213.353 -0.543654 -2.95745 0
M  V30 2201 C 214.901 -0.501125 -3.08962 0
M  V30 2202 C 215.376 -0.967267 -4.47669 0
M  V30 2203 N 216.867 -0.923849 -4.53893 0
M  V30 2204 C 217.602 -1.25578 -5.5948 0
M  V30 2205 N 217.098 -1.65889 -6.72646 0
M  V30 2206 N 218.891 -1.17613 -5.49658 0
M  V30 2207 H 211.042 -1.37123 -1.62206 0
M  V30 2208 H 213.305 -0.56294 -0.76276 0
M  V30 2209 H 213.011 -1.58275 -3.14073 0
M  V30 2210 H 212.885 0.0498042 -3.77167 0
M  V30 2211 H 215.272 0.528909 -2.90321 0
M  V30 2212 H 215.353 -1.13056 -2.2946 0
M  V30 2213 H 214.997 -1.9956 -4.67053 0
M  V30 2214 H 214.927 -0.314698 -5.25659 0
M  V30 2215 H 217.418 -0.627403 -3.72655 0
M  V30 2216 H 217.731 -1.89543 -7.49195 0
M  V30 2217 H 216.076 -1.69787 -6.73942 0
M  V30 2218 H 219.267 -0.860115 -4.6013 0
M  V30 2219 H 219.44 -1.43812 -6.3184 0
M  V30 2220 N 212.846 1.57033 -0.133567 0
M  V30 2221 C 213.809 2.14897 0.796995 0
M  V30 2222 C 214.809 1.0874 1.18458 0
M  V30 2223 O 215.999 1.34446 1.1077 0
M  V30 2224 C 213.131 2.70112 2.07973 0
M  V30 2225 H 214.324 2.98457 0.293873 0
M  V30 2226 H 211.877 1.55871 0.115787 0
M  V30 2227 H 212.612 1.9018 2.62682 0
M  V30 2228 H 212.397 3.47764 1.81115 0
M  V30 2229 H 213.887 3.14738 2.74462 0
M  V30 2230 N 214.325 -0.140222 1.56975 0
M  V30 2231 C 215.288 -1.15689 1.97861 0
M  V30 2232 C 216.288 -1.3549 0.865974 0
M  V30 2233 O 217.478 -1.32367 1.13246 0
M  V30 2234 C 214.61 -2.51582 2.30042 0
M  V30 2235 H 215.803 -0.805971 2.88867 0
M  V30 2236 H 213.356 -0.383801 1.51515 0
M  V30 2237 H 214.091 -2.91632 1.41849 0
M  V30 2238 H 213.876 -2.38569 3.11171 0
M  V30 2239 H 215.366 -3.24792 2.62488 0
M  V30 2240 N 215.803 -1.52179 -0.40978 0
M  V30 2241 C 217.051 -1.65878 -1.15451 0
M  V30 2242 C 217.372 -0.390771 -1.91044 0
M  V30 2243 O 216.642 0.594323 -1.86667 0
M  V30 2244 H 215.222 -0.611405 -0.429177 0
M  V30 2245 H 217.884 -1.89219 -0.467134 0
M  V30 2246 H 216.98 -2.49954 -1.86894 0
M  V30 2247 N 217.281 0.66697 -1.42791 0
M  V30 2248 C 218.211 1.79218 -1.49677 0
M  V30 2249 C 219.192 1.66405 -0.352623 0
M  V30 2250 O 220.377 1.85708 -0.567993 0
M  V30 2251 C 217.507 3.17565 -1.40605 0
M  V30 2252 C 216.461 3.45124 -2.53127 0
M  V30 2253 C 215.787 4.83127 -2.29112 0
M  V30 2254 C 217.087 3.41236 -3.95418 0
M  V30 2255 H 218.781 1.73713 -2.43853 0
M  V30 2256 H 216.327 0.83432 -1.17367 0
M  V30 2257 H 218.28 3.96022 -1.44029 0
M  V30 2258 H 217.004 3.23767 -0.429271 0
M  V30 2259 H 215.663 2.69031 -2.49034 0
M  V30 2260 H 215.311 4.85988 -1.29709 0
M  V30 2261 H 215.011 5.02528 -3.04531 0
M  V30 2262 H 216.535 5.63859 -2.34297 0
M  V30 2263 H 217.949 4.09651 -4.01073 0
M  V30 2264 H 216.346 3.72173 -4.70752 0
M  V30 2265 H 217.416 2.39665 -4.21532 0
M  V30 2266 N 218.759 1.29093 0.90403 0
M  V30 2267 C 220.008 1.16187 1.64874 0
M  V30 2268 C 220.321 -0.286742 1.93487 0
M  V30 2269 O 221.527 -0.537062 2.66135 0
M  V30 2270 C 219.983 2.03177 2.97064 0
M  V30 2271 C 219.591 3.52836 2.76062 0
M  V30 2272 C 221.335 1.98984 3.74974 0
M  V30 2273 C 219.242 4.31945 4.03952 0
M  V30 2274 H 218.172 0.431246 0.618501 0
M  V30 2275 H 220.823 1.53699 1.00243 0
M  V30 2276 H 219.205 1.5853 3.62883 0
M  V30 2277 H 220.379 4.05507 2.18863 0
M  V30 2278 H 218.694 3.58656 2.11553 0
M  V30 2279 H 221.291 2.55351 4.69787 0
M  V30 2280 H 221.634 0.968815 4.0487 0
M  V30 2281 H 222.167 2.41652 3.15989 0
M  V30 2282 H 218.906 5.34667 3.79225 0
M  V30 2283 H 218.426 3.84045 4.60727 0
M  V30 2284 H 220.105 4.42379 4.72133 0
M  V30 2285 N 220.237 -1.11381 1.11499 0
M  V30 2286 C 221.485 -1.8277 0.862524 0
M  V30 2287 C 221.806 -1.85097 -0.613534 0
M  V30 2288 O 221.076 -1.32198 -1.4457 0
M  V30 2289 H 219.656 -0.676823 0.316101 0
M  V30 2290 H 222.318 -1.34816 1.4075 0
M  V30 2291 H 221.414 -2.86614 1.23527 0
M  V30 2292 N 221.715 -0.905404 -1.28997 0
M  V30 2293 C 222.945 -0.549049 -1.99171 0
M  V30 2294 C 223.353 0.87203 -1.67906 0
M  V30 2295 O 222.696 1.58796 -0.923561 0
M  V30 2296 C 222.758 -0.668306 -3.53234 0
M  V30 2297 C 222.422 -2.0574 -4.08069 0
M  V30 2298 C 223.419 -3.0292 -4.22534 0
M  V30 2299 C 221.104 -2.36833 -4.42962 0
M  V30 2300 C 223.098 -4.29314 -4.71135 0
M  V30 2301 C 220.785 -3.63467 -4.91258 0
M  V30 2302 C 221.783 -4.59522 -5.053 0
M  V30 2303 O 221.471 -5.83907 -5.52546 0
M  V30 2304 H 221.203 -0.208784 -0.64295 0
M  V30 2305 H 223.757 -1.21836 -1.65363 0
M  V30 2306 H 221.987 0.0580547 -3.86656 0
M  V30 2307 H 223.676 -0.320273 -4.04634 0
M  V30 2308 H 224.442 -2.80216 -3.95859 0
M  V30 2309 H 220.321 -1.62824 -4.31288 0
M  V30 2310 H 223.865 -5.04293 -4.8201 0
M  V30 2311 H 219.762 -3.86 -5.17372 0
M  V30 2312 H 220.53 -5.86578 -5.70849 0
M  V30 2313 N 223.193 1.4272 -0.668489 0
M  V30 2314 C 224.126 2.28111 0.0637898 0
M  V30 2315 C 225.104 1.40705 0.814912 0
M  V30 2316 O 226.288 1.70146 0.81134 0
M  V30 2317 C 223.415 3.20429 1.0974 0
M  V30 2318 C 222.461 4.24197 0.442579 0
M  V30 2319 S 223.294 5.29563 -0.795173 0
M  V30 2320 C 224.45 6.25449 0.237516 0
M  V30 2321 H 224.683 2.8987 -0.660521 0
M  V30 2322 H 222.216 1.47456 -0.457821 0
M  V30 2323 H 224.174 3.74158 1.68868 0
M  V30 2324 H 222.835 2.57818 1.79411 0
M  V30 2325 H 222.028 4.88954 1.22227 0
M  V30 2326 H 221.63 3.73925 -0.0749554 0
M  V30 2327 H 223.922 6.68524 1.09915 0
M  V30 2328 H 224.865 7.07104 -0.375421 0
M  V30 2329 H 225.273 5.61511 0.580167 0
M  V30 2330 N 224.671 0.411399 1.52136 0
M  V30 2331 C 225.899 -0.163076 2.06256 0
M  V30 2332 C 226.314 -1.3867 1.28125 0
M  V30 2333 O 225.671 -1.79423 0.333721 0
M  V30 2334 C 225.722 -0.511252 3.57867 0
M  V30 2335 O 225.443 0.66378 4.33042 0
M  V30 2336 C 226.944 -1.13921 4.28412 0
M  V30 2337 H 224.164 -0.0193897 0.67072 0
M  V30 2338 H 226.708 0.583007 1.96013 0
M  V30 2339 H 224.863 -1.20723 3.6811 0
M  V30 2340 H 225.277 0.372601 5.23175 0
M  V30 2341 H 226.751 -1.33302 5.35663 0
M  V30 2342 H 227.228 -2.11296 3.85033 0
M  V30 2343 H 227.834 -0.483373 4.22544 0
M  V30 2344 N 226.149 -1.5696 0.141893 0
M  V30 2345 C 227.565 -1.58151 -0.21456 0
M  V30 2346 C 227.765 -1.1559 -1.65049 0
M  V30 2347 O 226.821 -0.853832 -2.37626 0
M  V30 2348 C 228.134 -3.00674 0.0395576 0
M  V30 2349 C 229.682 -3.1299 -0.0245529 0
M  V30 2350 C 230.157 -4.57554 0.202167 0
M  V30 2351 N 231.648 -4.62961 0.148919 0
M  V30 2352 C 232.383 -5.7262 0.298924 0
M  V30 2353 N 231.879 -6.90947 0.50637 0
M  V30 2354 N 233.672 -5.61601 0.236886 0
M  V30 2355 H 225.823 -1.8292 1.07953 0
M  V30 2356 H 228.086 -0.846425 0.42693 0
M  V30 2357 H 227.792 -3.36183 1.03315 0
M  V30 2358 H 227.666 -3.70981 -0.682143 0
M  V30 2359 H 230.053 -2.77326 -1.00869 0
M  V30 2360 H 230.134 -2.4518 0.729396 0
M  V30 2361 H 229.778 -4.93922 1.18338 0
M  V30 2362 H 229.708 -5.23484 -0.572044 0
M  V30 2363 H 232.199 -3.77899 -0.00697015 0
M  V30 2364 H 232.512 -7.7038 0.611076 0
M  V30 2365 H 230.857 -6.92878 0.542628 0
M  V30 2366 H 234.048 -4.68039 0.0756209 0
M  V30 2367 H 234.221 -6.47015 0.357227 0
M  V30 2368 N 227.627 0.131896 -1.57047 0
M  V30 2369 C 229.043 0.485031 -1.52051 0
M  V30 2370 C 229.243 1.82563 -0.85281 0
M  V30 2371 O 228.299 2.48817 -0.429694 0
M  V30 2372 C 229.612 0.481409 -2.96821 0
M  V30 2373 C 231.16 0.565868 -3.07842 0
M  V30 2374 C 231.635 0.592762 -4.54148 0
M  V30 2375 N 233.126 0.654564 -4.58552 0
M  V30 2376 C 233.861 0.696608 -5.69153 0
M  V30 2377 N 233.357 0.697078 -6.89284 0
M  V30 2378 N 235.15 0.738639 -5.57226 0
M  V30 2379 H 227.301 -0.746664 -1.98843 0
M  V30 2380 H 229.564 -0.273999 -0.90754 0
M  V30 2381 H 229.27 -0.435731 -3.4899 0
M  V30 2382 H 229.144 1.3139 -3.53577 0
M  V30 2383 H 231.531 1.47343 -2.55684 0
M  V30 2384 H 231.612 -0.29406 -2.54104 0
M  V30 2385 H 231.256 -0.310701 -5.06949 0
M  V30 2386 H 231.186 1.46939 -5.05684 0
M  V30 2387 H 233.677 0.660887 -3.72076 0
M  V30 2388 H 233.99 0.731426 -7.69331 0
M  V30 2389 H 232.335 0.66471 -6.91814 0
M  V30 2390 H 235.526 0.735545 -4.62285 0
M  V30 2391 H 235.699 0.767938 -6.43434 0
M  V30 2392 N 229.106 1.52395 0.401703 0
M  V30 2393 C 230.331 1.70972 1.17403 0
M  V30 2394 C 230.756 0.421615 1.83314 0
M  V30 2395 O 230.114 -0.621564 1.70312 0
M  V30 2396 C 230.162 2.85151 2.20728 0
M  V30 2397 O 229.266 2.51238 3.27037 0
M  V30 2398 H 228.607 0.568927 0.342372 0
M  V30 2399 H 231.137 1.99131 0.469891 0
M  V30 2400 H 231.147 3.10279 2.64936 0
M  V30 2401 H 229.822 3.78603 1.7214 0
M  V30 2402 H 228.399 2.36808 2.88057 0
M  V30 2403 N 230.584 -0.659388 1.43143 0
M  V30 2404 C 231.831 -1.41935 1.44433 0
M  V30 2405 C 232.159 -1.94387 0.0663522 0
M  V30 2406 O 231.414 -1.72314 -0.927706 0
M  V30 2407 C 231.713 -2.62206 2.42864 0
M  V30 2408 C 231.379 -2.28208 3.88886 0
M  V30 2409 C 230.041 -2.18647 4.28657 0
M  V30 2410 C 232.393 -2.00887 4.8093 0
M  V30 2411 C 229.721 -1.79914 5.58433 0
M  V30 2412 C 232.073 -1.63653 6.11065 0
M  V30 2413 C 230.737 -1.52614 6.49819 0
M  V30 2414 H 230.007 -0.519376 0.528517 0
M  V30 2415 H 232.654 -0.750453 1.76183 0
M  V30 2416 H 230.959 -3.34199 2.04495 0
M  V30 2417 H 232.656 -3.2041 2.41119 0
M  V30 2418 H 229.246 -2.36557 3.57406 0
M  V30 2419 H 233.43 -2.07198 4.5098 0
M  V30 2420 H 228.686 -1.69948 5.87305 0
M  V30 2421 H 232.86 -1.41543 6.81864 0
M  V30 2422 H 230.487 -1.22371 7.50286 0
M  V30 2423 N 232.062 -1.29571 -0.897171 0
M  V30 2424 C 232.972 -1.16808 -2.03453 0
M  V30 2425 C 233.988 -0.0907471 -1.73763 0
M  V30 2426 O 235.164 -0.303312 -1.99103 0
M  V30 2427 C 232.229 -0.848264 -3.36163 0
M  V30 2428 C 231.29 -2.0097 -3.79354 0
M  V30 2429 C 230.523 -1.70505 -5.05731 0
M  V30 2430 O 230.746 -0.62718 -5.66941 0
M  V30 2431 O 229.68 -2.5538 -5.45036 0
M  V30 2432 H 233.506 -2.12325 -2.17144 0
M  V30 2433 H 231.091 -1.09047 -1.02123 0
M  V30 2434 H 232.973 -0.684581 -4.15802 0
M  V30 2435 H 231.648 0.0771071 -3.23608 0
M  V30 2436 H 230.555 -2.22863 -3.00471 0
M  V30 2437 H 231.888 -2.91636 -3.96496 0
M  V30 2438 N 233.54 1.10788 -1.12088 0
M  V30 2439 C 234.487 2.17025 -0.785407 0
M  V30 2440 C 235.457 1.64265 0.246191 0
M  V30 2441 O 236.642 1.90412 0.121584 0
M  V30 2442 C 233.782 3.44249 -0.242177 0
M  V30 2443 C 232.895 4.1098 -1.33115 0
M  V30 2444 C 232.03 5.25911 -0.747741 0
M  V30 2445 C 231.069 5.84538 -1.81609 0
M  V30 2446 N 230.206 6.90853 -1.25167 0
M  V30 2447 H 235.046 2.45066 -1.69548 0
M  V30 2448 H 232.583 1.20297 -0.846582 0
M  V30 2449 H 234.541 4.17101 0.0908026 0
M  V30 2450 H 233.171 3.16571 0.631072 0
M  V30 2451 H 232.223 3.36133 -1.78097 0
M  V30 2452 H 233.535 4.50601 -2.13917 0
M  V30 2453 H 232.689 6.056 -0.365216 0
M  V30 2454 H 231.428 4.87614 0.0915188 0
M  V30 2455 H 230.433 5.03522 -2.20785 0
M  V30 2456 H 231.658 6.249 -2.6585 0
M  V30 2457 H 229.604 6.54562 -0.434174 0
M  V30 2458 H 229.521 7.29166 -1.99633 0
M  V30 2459 H 230.789 7.7433 -0.896259 0
M  V30 2460 N 235.018 0.912232 1.28515 0
M  V30 2461 C 236.266 0.543523 1.94654 0
M  V30 2462 C 236.587 -0.9155 1.72173 0
M  V30 2463 O 235.857 -1.64708 1.06058 0
M  V30 2464 H 234.437 0.198017 0.720277 0
M  V30 2465 H 237.099 1.16126 1.56527 0
M  V30 2466 H 236.195 0.736684 3.03281 0
M  V30 2467 N 236.496 -1.42363 0.676048 0
M  V30 2468 C 237.726 -2.05561 0.206967 0
M  V30 2469 C 238.134 -1.50887 -1.14148 0
M  V30 2470 O 237.477 -0.643933 -1.72044 0
M  V30 2471 C 237.539 -3.5944 0.0659508 0
M  V30 2472 C 237.203 -4.36812 1.34331 0
M  V30 2473 C 238.2 -4.67383 2.27704 0
M  V30 2474 C 235.885 -4.76429 1.59125 0
M  V30 2475 C 237.879 -5.36509 3.44147 0
M  V30 2476 C 235.566 -5.45294 2.75857 0
M  V30 2477 C 236.564 -5.75259 3.68193 0
M  V30 2478 O 236.252 -6.42712 4.82883 0
M  V30 2479 H 235.984 -0.668872 0.0979084 0
M  V30 2480 H 238.538 -1.83467 0.923531 0
M  V30 2481 H 236.768 -3.80197 -0.706204 0
M  V30 2482 H 238.457 -4.0427 -0.363418 0
M  V30 2483 H 239.223 -4.37275 2.09799 0
M  V30 2484 H 235.102 -4.52498 0.881258 0
M  V30 2485 H 238.646 -5.59814 4.16238 0
M  V30 2486 H 234.543 -5.7482 2.93688 0
M  V30 2487 H 235.311 -6.61204 4.82444 0
M  V30 2488 N 237.974 -0.419461 -1.51915 0
M  V30 2489 C 238.922 0.415502 -2.28859 0
M  V30 2490 C 239.916 1.03674 -1.3397 0
M  V30 2491 O 241.122 0.973757 -1.51387 0
M  V30 2492 H 237.497 0.152786 -0.736315 0
M  V30 2493 H 239.468 -0.254531 -2.97312 0
M  V30 2494 C 238.217 1.51425 -3.12995 0
M  V30 2495 H 237.54 1.04556 -3.85886 0
M  V30 2496 H 238.98 2.07208 -3.6992 0
M  V30 2497 C 237.439 2.48745 -2.27217 0
M  V30 2498 O 237.969 3.52871 -1.9195 0
M  V30 2499 N 236.175 2.19202 -1.90785 0
M  V30 2500 H 235.722 1.34556 -2.19664 0
M  V30 2501 H 235.68 2.84561 -1.33687 0
M  V30 2502 N 239.452 1.56882 -0.150215 0
M  V30 2503 C 240.698 1.96518 0.500834 0
M  V30 2504 C 241.031 1.03527 1.64304 0
M  V30 2505 O 240.306 0.0782751 1.94342 0
M  V30 2506 C 240.589 3.45822 1.00395 0
M  V30 2507 C 240.442 4.49591 -0.136983 0
M  V30 2508 C 241.761 3.97704 1.88467 0
M  V30 2509 H 238.88 0.714535 0.18058 0
M  V30 2510 H 241.522 1.88577 -0.232091 0
M  V30 2511 H 239.672 3.5272 1.62851 0
M  V30 2512 H 241.344 4.5477 -0.77343 0
M  V30 2513 H 239.587 4.26441 -0.795652 0
M  V30 2514 H 240.258 5.51402 0.256815 0
M  V30 2515 H 242.734 3.93304 1.35834 0
M  V30 2516 H 241.61 5.0263 2.20578 0
M  V30 2517 H 241.871 3.40252 2.82279 0
M  V30 2518 N 240.93 -0.123565 1.57115 0
M  V30 2519 C 242.158 -0.846461 1.88793 0
M  V30 2520 C 242.573 -1.73652 0.740976 0
M  V30 2521 O 241.93 -1.80207 -0.288393 0
M  V30 2522 C 241.981 -1.6837 3.19897 0
M  V30 2523 O 241.702 -0.829477 4.30176 0
M  V30 2524 C 243.203 -2.51214 3.65248 0
M  V30 2525 H 240.423 -0.243573 0.625231 0
M  V30 2526 H 242.967 -0.109324 2.04208 0
M  V30 2527 H 241.122 -2.37364 3.06165 0
M  V30 2528 H 241.536 -1.40651 5.0529 0
M  V30 2529 H 243.01 -3.05497 4.59756 0
M  V30 2530 H 243.487 -3.28359 2.9168 0
M  V30 2531 H 244.093 -1.8747 3.81752 0
M  V30 2532 N 242.408 -1.52605 -0.393616 0
M  V30 2533 C 243.636 -1.71294 -1.16043 0
M  V30 2534 C 244.051 -0.429259 -1.83855 0
M  V30 2535 O 243.408 0.595921 -1.72496 0
M  V30 2536 C 243.459 -2.8593 -2.21193 0
M  V30 2537 O 243.18 -4.09329 -1.56146 0
M  V30 2538 C 244.681 -3.16259 -3.10636 0
M  V30 2539 H 241.901 -0.573641 -0.348104 0
M  V30 2540 H 244.445 -1.99234 -0.461092 0
M  V30 2541 H 242.6 -2.60465 -2.86769 0
M  V30 2542 H 243.014 -4.73323 -2.25978 0
M  V30 2543 H 244.488 -3.99946 -3.80456 0
M  V30 2544 H 244.965 -2.3045 -3.73884 0
M  V30 2545 H 245.571 -3.43547 -2.50711 0
M  V30 2546 N 243.887 0.651787 -1.4349 0
M  V30 2547 C 245.133 1.4121 -1.46395 0
M  V30 2548 C 245.488 1.92202 -0.087366 0
M  V30 2549 O 244.781 1.69452 0.894231 0
M  V30 2550 C 244.975 2.60914 -2.44251 0
M  V30 2551 C 244.804 2.21639 -3.91288 0
M  V30 2552 C 243.574 2.09897 -4.59643 0
M  V30 2553 C 245.772 1.81835 -4.81083 0
M  V30 2554 N 243.754 1.63967 -5.91598 0
M  V30 2555 C 245.125 1.46998 -6.02322 0
M  V30 2556 C 247.18 1.69031 -4.6833 0
M  V30 2557 C 245.883 1.00638 -7.12225 0
M  V30 2558 C 247.909 1.24077 -5.78238 0
M  V30 2559 C 247.271 0.901772 -6.98604 0
M  V30 2560 H 243.37 0.512322 -0.590805 0
M  V30 2561 H 245.954 0.74989 -1.7968 0
M  V30 2562 H 244.125 3.24792 -2.1299 0
M  V30 2563 H 245.857 3.27622 -2.37584 0
M  V30 2564 H 242.612 2.297 -4.14168 0
M  V30 2565 H 243.036 1.43359 -6.61647 0
M  V30 2566 H 247.678 1.93878 -3.75727 0
M  V30 2567 H 245.396 0.745399 -8.04655 0
M  V30 2568 H 248.982 1.14657 -5.7039 0
M  V30 2569 H 247.862 0.559226 -7.82203 0
M  V30 2570 N 245.365 1.30045 0.890287 0
M  V30 2571 C 246.59 1.21598 1.68014 0
M  V30 2572 C 247.015 -0.218678 1.86825 0
M  V30 2573 O 246.373 -1.15756 1.39536 0
M  V30 2574 C 246.421 1.94434 3.03691 0
M  V30 2575 O 245.525 1.2678 3.92429 0
M  V30 2576 H 244.866 0.420856 0.513592 0
M  V30 2577 H 247.396 1.71775 1.11151 0
M  V30 2578 H 247.406 2.03251 3.5377 0
M  V30 2579 H 246.081 2.98777 2.89318 0
M  V30 2580 H 244.658 1.26282 3.50866 0
M  V30 2581 N 246.843 -1.10192 1.12674 0
M  V30 2582 C 247.753 -2.20172 0.810026 0
M  V30 2583 C 248.769 -1.72821 -0.202188 0
M  V30 2584 O 249.945 -2.01369 -0.0351691 0
M  V30 2585 C 247.01 -3.45631 0.272007 0
M  V30 2586 C 246.071 -4.07704 1.34447 0
M  V30 2587 C 245.304 -5.27175 0.832029 0
M  V30 2588 O 245.527 -5.69425 -0.333284 0
M  V30 2589 O 244.461 -5.80168 1.60277 0
M  V30 2590 H 248.287 -2.49701 1.72867 0
M  V30 2591 H 245.872 -1.18977 0.903597 0
M  V30 2592 H 247.754 -4.21394 -0.0230219 0
M  V30 2593 H 246.429 -3.17723 -0.619164 0
M  V30 2594 H 245.336 -3.33614 1.6927 0
M  V30 2595 H 246.669 -4.3982 2.2095 0
M  V30 2596 N 248.321 -0.919034 -1.28029 0
M  V30 2597 C 249.567 -0.555757 -1.95036 0
M  V30 2598 C 249.9 0.899198 -1.72128 0
M  V30 2599 O 249.175 1.64023 -1.04531 0
M  V30 2600 C 249.458 -0.872024 -3.49382 0
M  V30 2601 C 249.311 -2.3801 -3.81669 0
M  V30 2602 C 250.63 -0.37185 -4.38526 0
M  V30 2603 H 247.749 -0.203386 -0.708381 0
M  V30 2604 H 250.391 -1.14924 -1.51303 0
M  V30 2605 H 248.541 -0.366946 -3.86763 0
M  V30 2606 H 250.213 -2.9562 -3.54128 0
M  V30 2607 H 248.456 -2.83289 -3.28526 0
M  V30 2608 H 249.127 -2.55192 -4.8947 0
M  V30 2609 H 251.603 -0.804602 -4.08247 0
M  V30 2610 H 250.479 -0.622173 -5.45362 0
M  V30 2611 H 250.74 0.727934 -4.36066 0
M  V30 2612 N 249.799 1.42003 -0.683588 0
M  V30 2613 C 250.729 2.33487 -0.024866 0
M  V30 2614 C 251.71 1.51163 0.779975 0
M  V30 2615 O 252.895 1.79739 0.735362 0
M  V30 2616 C 250.025 3.3487 0.920836 0
M  V30 2617 C 248.979 4.27414 0.223958 0
M  V30 2618 C 248.305 5.19074 1.2832 0
M  V30 2619 C 249.605 5.14445 -0.90242 0
M  V30 2620 H 251.299 2.88819 -0.788921 0
M  V30 2621 H 248.845 1.38873 -0.38083 0
M  V30 2622 H 250.798 3.97787 1.39081 0
M  V30 2623 H 249.522 2.77861 1.71642 0
M  V30 2624 H 248.181 3.65904 -0.225864 0
M  V30 2625 H 247.829 4.58387 2.071 0
M  V30 2626 H 247.529 5.81822 0.821995 0
M  V30 2627 H 249.053 5.84867 1.75392 0
M  V30 2628 H 250.467 5.70998 -0.513272 0
M  V30 2629 H 248.864 5.86072 -1.28997 0
M  V30 2630 H 249.934 4.52322 -1.74737 0
M  V30 2631 N 251.277 0.427512 1.51691 0
M  V30 2632 C 252.207 -0.3796 2.30394 0
M  V30 2633 C 253.188 -1.02982 1.35384 0
M  V30 2634 O 254.373 -1.03534 1.643 0
M  V30 2635 C 251.503 -1.48649 3.1388 0
M  V30 2636 C 250.457 -0.960294 4.17088 0
M  V30 2637 C 249.783 -2.16219 4.89033 0
M  V30 2638 C 251.083 -0.00153679 5.223 0
M  V30 2639 H 252.777 0.277164 2.98114 0
M  V30 2640 H 250.323 0.134739 1.43368 0
M  V30 2641 H 252.276 -2.05826 3.67714 0
M  V30 2642 H 251 -2.1714 2.43962 0
M  V30 2643 H 249.659 -0.410806 3.64291 0
M  V30 2644 H 249.307 -2.83307 4.15628 0
M  V30 2645 H 249.007 -1.81654 5.58816 0
M  V30 2646 H 250.531 -2.73968 5.45687 0
M  V30 2647 H 251.945 -0.482687 5.71264 0
M  V30 2648 H 250.342 0.256199 5.99553 0
M  V30 2649 H 251.412 0.938174 4.75738 0
M  V30 2650 N 252.755 -1.56801 0.158532 0
M  V30 2651 C 254.001 -1.97559 -0.483957 0
M  V30 2652 C 254.356 -1.04239 -1.61716 0
M  V30 2653 O 253.649 -0.079603 -1.91435 0
M  V30 2654 C 253.843 -3.4235 -1.02623 0
M  V30 2655 C 253.672 -4.49669 0.0528929 0
M  V30 2656 C 252.442 -5.02838 0.498234 0
M  V30 2657 C 254.64 -5.0725 0.848616 0
M  V30 2658 N 252.622 -5.93775 1.559 0
M  V30 2659 C 253.993 -5.94506 1.7596 0
M  V30 2660 C 256.048 -4.89788 0.895121 0
M  V30 2661 C 254.751 -6.66169 2.71314 0
M  V30 2662 C 256.777 -5.62161 1.83654 0
M  V30 2663 C 256.139 -6.49134 2.73503 0
M  V30 2664 H 252.238 -0.768332 -0.145566 0
M  V30 2665 H 254.822 -1.93012 0.255799 0
M  V30 2666 H 252.993 -3.47467 -1.73555 0
M  V30 2667 H 254.725 -3.70145 -1.63629 0
M  V30 2668 H 251.48 -4.73498 0.0983222 0
M  V30 2669 H 251.904 -6.43948 2.08949 0
M  V30 2670 H 256.546 -4.22255 0.21453 0
M  V30 2671 H 254.264 -7.32923 3.40367 0
M  V30 2672 H 257.85 -5.5064 1.87847 0
M  V30 2673 H 256.73 -7.04153 3.45163 0
M  V30 2674 N 254.233 0.115231 -1.57178 0
M  V30 2675 C 255.143 1.15994 -2.03918 0
M  V30 2676 C 256.159 1.45103 -0.960268 0
M  V30 2677 O 257.335 1.56144 -1.27204 0
M  V30 2678 C 254.4 2.46568 -2.43732 0
M  V30 2679 C 253.461 2.24822 -3.65723 0
M  V30 2680 C 252.694 3.4917 -4.03629 0
M  V30 2681 O 252.917 4.56623 -3.41835 0
M  V30 2682 O 251.851 3.39949 -4.96708 0
M  V30 2683 H 255.677 0.793019 -2.93164 0
M  V30 2684 H 253.262 0.3263 -1.45793 0
M  V30 2685 H 255.144 3.23492 -2.70057 0
M  V30 2686 H 253.819 2.82726 -1.57631 0
M  V30 2687 H 252.726 1.45744 -3.44542 0
M  V30 2688 H 254.059 1.93566 -4.52541 0
M  V30 2689 N 255.711 1.52812 0.385517 0
M  V30 2690 C 256.621 1.80766 1.49535 0
M  V30 2691 C 257.637 0.694651 1.59532 0
M  V30 2692 O 258.813 0.982611 1.75803 0
M  V30 2693 C 255.878 1.97381 2.85029 0
M  V30 2694 C 254.939 3.21295 2.84724 0
M  V30 2695 C 254.172 3.37108 4.13756 0
M  V30 2696 O 254.395 2.5765 5.08893 0
M  V30 2697 O 253.329 4.30378 4.20783 0
M  V30 2698 H 257.155 2.75015 1.28842 0
M  V30 2699 H 254.74 1.37946 0.573697 0
M  V30 2700 H 256.622 2.09996 3.65349 0
M  V30 2701 H 255.297 1.06322 3.05741 0
M  V30 2702 H 254.204 3.1412 2.03174 0
M  V30 2703 H 255.537 4.12212 2.68965 0
M  V30 2704 N 257.189 -0.644168 1.43834 0
M  V30 2705 C 258.466 -1.40188 1.36406 0
M  V30 2706 C 258.846 -2.11094 0.0163124 0
M  V30 2707 O 258.194 -2.05426 -1.00062 0
M  V30 2708 C 258.404 -2.3791 2.55343 0
M  V30 2709 C 259.752 -3.01637 2.98832 0
M  V30 2710 O 260.776 -2.48237 2.55455 0
M  V30 2711 O 259.635 -3.98477 3.74003 0
M  V30 2712 H 256.729 -0.626773 0.539523 0
M  V30 2713 H 259.275 -0.670317 1.559 0
M  V30 2714 H 258.047 -1.84525 3.4506 0
M  V30 2715 H 257.67 -3.18503 2.37995 0
M  V30 2716 N 258.668 -1.30515 -0.883378 0
M  V30 2717 C 259.916 -1.19194 -1.63209 0
M  V30 2718 C 260.237 0.253205 -1.93349 0
M  V30 2719 O 259.507 1.17025 -1.57105 0
M  V30 2720 H 258.087 -0.438148 -0.605009 0
M  V30 2721 H 260.749 -1.63663 -1.05832 0
M  V30 2722 H 259.845 -1.75396 -2.58153 0
M  V30 2723 N 260.146 1.09593 -1.13257 0
M  V30 2724 C 261.423 1.78293 -0.804432 0
M  V30 2725 C 261.803 1.99004 0.70431 0
M  V30 2726 O 261.151 1.59007 1.641 0
M  V30 2727 C 261.361 3.10707 -1.5894 0
M  V30 2728 C 262.709 3.85443 -1.78099 0
M  V30 2729 O 263.733 3.20454 -1.55525 0
M  V30 2730 O 262.592 5.02108 -2.15753 0
M  V30 2731 H 259.686 0.773156 -0.293528 0
M  V30 2732 H 262.232 1.16164 -1.23709 0
M  V30 2733 H 261.004 2.91106 -2.61482 0
M  V30 2734 H 260.627 3.80558 -1.15157 0
M  V30 2735 N 261.624 0.925811 1.2754 0
M  V30 2736 C 262.854 0.580666 1.98272 0
M  V30 2737 C 263.262 -0.845207 1.69272 0
M  V30 2738 O 262.605 -1.57306 0.948707 0
M  V30 2739 C 262.667 0.724418 3.52126 0
M  V30 2740 C 262.331 2.12206 4.04744 0
M  V30 2741 C 263.328 3.09604 4.17662 0
M  V30 2742 C 261.013 2.4385 4.39138 0
M  V30 2743 C 263.007 4.36755 4.64246 0
M  V30 2744 C 260.694 3.71237 4.85414 0
M  V30 2745 C 261.692 4.67503 4.97926 0
M  V30 2746 O 261.38 5.92624 5.43187 0
M  V30 2747 H 261.112 0.218987 0.639547 0
M  V30 2748 H 263.666 1.24452 1.63404 0
M  V30 2749 H 261.896 0.0034663 3.867 0
M  V30 2750 H 263.585 0.384607 4.04074 0
M  V30 2751 H 264.351 2.86478 3.91351 0
M  V30 2752 H 260.23 1.69665 4.28643 0
M  V30 2753 H 263.774 5.11898 4.73927 0
M  V30 2754 H 259.671 3.94182 5.11166 0
M  V30 2755 H 260.439 5.95585 5.61445 0
M  V30 2756 N 263.102 -1.41638 0.69111 0
M  V30 2757 C 264.332 -2.0533 0.228758 0
M  V30 2758 C 264.74 -1.52089 -1.12541 0
M  V30 2759 O 264.083 -0.662145 -1.71351 0
M  V30 2760 C 264.145 -3.59349 0.10407 0
M  V30 2761 C 263.809 -4.35362 1.38956 0
M  V30 2762 C 264.806 -4.64942 2.32648 0
M  V30 2763 C 262.491 -4.74714 1.64169 0
M  V30 2764 C 264.485 -5.32828 3.49818 0
M  V30 2765 C 262.172 -5.42338 2.81625 0
M  V30 2766 C 263.17 -5.71322 3.74273 0
M  V30 2767 O 262.858 -6.37554 4.89673 0
M  V30 2768 H 262.59 -0.667796 0.104997 0
M  V30 2769 H 265.144 -1.82477 0.942938 0
M  V30 2770 H 263.374 -3.80924 -0.665839 0
M  V30 2771 H 265.063 -4.04633 -0.320519 0
M  V30 2772 H 265.829 -4.35025 2.14425 0
M  V30 2773 H 261.708 -4.51538 0.929202 0
M  V30 2774 H 265.252 -5.55368 4.22152 0
M  V30 2775 H 261.149 -5.71673 2.99768 0
M  V30 2776 H 261.917 -6.56049 4.8943 0
M  V30 2777 N 264.58 -0.43555 -1.51462 0
M  V30 2778 C 265.996 -0.0877501 -1.59359 0
M  V30 2779 C 266.196 1.4027 -1.4466 0
M  V30 2780 O 265.252 2.17243 -1.28693 0
M  V30 2781 C 266.565 -0.606264 -2.94525 0
M  V30 2782 C 268.113 -0.566548 -3.0783 0
M  V30 2783 C 268.588 -1.06201 -4.45517 0
M  V30 2784 N 270.079 -1.01992 -4.51832 0
M  V30 2785 C 270.814 -1.37417 -5.5669 0
M  V30 2786 N 270.31 -1.80119 -6.68976 0
M  V30 2787 N 272.103 -1.29245 -5.47039 0
M  V30 2788 H 264.254 -1.40533 -1.59261 0
M  V30 2789 H 266.517 -0.578992 -0.750648 0
M  V30 2790 H 266.223 -1.64901 -3.10645 0
M  V30 2791 H 266.097 -0.0302097 -3.77188 0
M  V30 2792 H 268.484 0.467208 -2.91378 0
M  V30 2793 H 268.565 -1.17898 -2.2701 0
M  V30 2794 H 268.209 -2.09422 -4.62715 0
M  V30 2795 H 268.139 -0.426127 -5.24873 0
M  V30 2796 H 270.63 -0.706308 -3.71241 0
M  V30 2797 H 270.943 -2.05392 -7.45006 0
M  V30 2798 H 269.288 -1.84044 -6.70189 0
M  V30 2799 H 272.479 -0.957522 -4.58202 0
M  V30 2800 H 272.652 -1.57182 -6.28648 0
M  V30 2801 N 266.058 1.56714 -0.166846 0
M  V30 2802 C 267.304 1.97813 0.473473 0
M  V30 2803 C 267.659 1.05095 1.61161 0
M  V30 2804 O 266.952 0.0897541 1.9139 0
M  V30 2805 C 267.146 3.42889 1.00806 0
M  V30 2806 C 266.975 4.49635 -0.0767392 0
M  V30 2807 C 265.745 5.02566 -0.524894 0
M  V30 2808 C 267.943 5.06793 -0.875504 0
M  V30 2809 N 265.925 5.9294 -1.59047 0
M  V30 2810 C 267.296 5.93565 -1.79111 0
M  V30 2811 C 269.351 4.89306 -0.921083 0
M  V30 2812 C 268.054 6.64721 -2.74843 0
M  V30 2813 C 270.08 5.61179 -1.86633 0
M  V30 2814 C 269.442 6.47675 -2.76942 0
M  V30 2815 H 265.541 0.769093 0.141489 0
M  V30 2816 H 268.125 1.92874 -0.266031 0
M  V30 2817 H 266.296 3.48382 1.7171 0
M  V30 2818 H 268.028 3.71008 1.61664 0
M  V30 2819 H 264.783 4.73439 -0.123432 0
M  V30 2820 H 265.207 6.42831 -2.12361 0
M  V30 2821 H 269.849 4.22136 -0.23692 0
M  V30 2822 H 267.567 7.31107 -3.44249 0
M  V30 2823 H 271.153 5.49636 -1.90764 0
M  V30 2824 H 270.033 7.02313 -3.48893 0
M  V30 2825 N 267.536 -0.106894 1.57237 0
M  V30 2826 C 268.813 -0.843526 1.76477 0
M  V30 2827 C 269.193 -1.97499 0.745464 0
M  V30 2828 O 268.541 -2.27357 -0.228306 0
M  V30 2829 C 268.751 -1.34903 3.21873 0
M  V30 2830 C 270.099 -1.79654 3.8472 0
M  V30 2831 O 271.123 -1.44554 3.2555 0
M  V30 2832 O 269.982 -2.44515 4.88748 0
M  V30 2833 H 267.076 -0.401468 0.723016 0
M  V30 2834 H 269.622 -0.0896927 1.69463 0
M  V30 2835 H 268.394 -0.53781 3.87586 0
M  V30 2836 H 268.017 -2.16522 3.33473 0
M  V30 2837 N 269.014 -1.53014 -0.377408 0
M  V30 2838 C 270.262 -1.6829 -1.11906 0
M  V30 2839 C 270.583 -0.431206 -1.90173 0
M  V30 2840 O 269.853 0.554595 -1.87886 0
M  V30 2841 H 268.433 -0.620371 -0.416112 0
M  V30 2842 H 271.095 -1.90167 -0.426893 0
M  V30 2843 H 270.191 -2.53862 -1.8155 0
M  V30 2844 N 270.492 0.636531 -1.44174 0
M  V30 2845 C 271.72 1.42353 -1.50144 0
M  V30 2846 C 272.135 1.88389 -0.124575 0
M  V30 2847 O 271.492 1.6051 0.868489 0
M  V30 2848 C 271.543 2.64744 -2.46156 0
M  V30 2849 O 271.264 2.20629 -3.7849 0
M  V30 2850 C 272.765 3.57929 -2.61537 0
M  V30 2851 H 269.985 0.436752 -0.5094 0
M  V30 2852 H 272.529 0.778933 -1.89084 0
M  V30 2853 H 270.684 3.25307 -2.10366 0
M  V30 2854 H 271.098 2.99938 -4.30276 0
M  V30 2855 H 272.572 4.40428 -3.32757 0
M  V30 2856 H 273.049 4.06382 -1.66585 0
M  V30 2857 H 273.655 3.03238 -2.98206 0
M  V30 2858 N 271.97 1.30982 0.876444 0
M  V30 2859 C 272.9 1.20668 1.99903 0
M  V30 2860 C 273.881 0.095354 1.69833 0
M  V30 2861 O 275.066 0.27885 1.92188 0
M  V30 2862 C 272.196 0.90655 3.3526 0
M  V30 2863 C 271.15 1.97675 3.79617 0
M  V30 2864 C 270.476 1.52943 5.1236 0
M  V30 2865 C 271.776 3.389 3.97422 0
M  V30 2866 H 273.47 2.14586 2.0879 0
M  V30 2867 H 271.016 1.03308 1.00317 0
M  V30 2868 H 272.969 0.821025 4.13324 0
M  V30 2869 H 271.693 -0.0682969 3.26529 0
M  V30 2870 H 270.352 2.05205 3.03787 0
M  V30 2871 H 270 0.54262 5.00065 0
M  V30 2872 H 269.7 2.24532 5.43009 0
M  V30 2873 H 271.224 1.45786 5.92941 0
M  V30 2874 H 272.638 3.34081 4.659 0
M  V30 2875 H 271.035 4.0865 4.3946 0
M  V30 2876 H 272.105 3.80163 3.01006 0
M  V30 2877 N 273.449 -1.08991 1.13837 0
M  V30 2878 C 274.86 -1.62746 0.914917 0
M  V30 2879 C 275.211 -1.88403 -0.547594 0
M  V30 2880 O 274.336 -1.63706 -1.41525 0
M  V30 2881 C 274.931 -2.95662 1.65437 0
M  V30 2882 C 273.49 -3.46225 1.47666 0
M  V30 2883 C 272.637 -2.20562 1.6807 0
M  V30 2884 H 275.588 -0.922946 1.29102 0
M  V30 2885 H 275.609 -3.63825 1.11407 0
M  V30 2886 H 275.121 -2.76956 2.71877 0
M  V30 2887 H 273.222 -3.70046 0.435478 0
M  V30 2888 H 273.335 -4.23368 2.24268 0
M  V30 2889 H 271.699 -2.29439 1.10589 0
M  V30 2890 H 272.482 -2.0437 2.7584 0
M  V30 2891 N 274.927 -0.932562 -1.27047 0
M  V30 2892 C 275.874 -0.434072 -2.26681 0
M  V30 2893 C 276.844 0.501639 -1.58344 0
M  V30 2894 O 278.029 0.419734 -1.86126 0
M  V30 2895 C 275.169 0.30261 -3.43771 0
M  V30 2896 C 274.282 -0.667774 -4.26808 0
M  V30 2897 C 273.417 0.0892393 -5.31125 0
M  V30 2898 C 272.456 -0.873532 -6.05835 0
M  V30 2899 N 271.593 -0.148832 -7.01942 0
M  V30 2900 H 276.433 -1.28868 -2.68695 0
M  V30 2901 H 273.97 -0.646713 -1.32121 0
M  V30 2902 H 275.928 0.746092 -4.10474 0
M  V30 2903 H 274.558 1.12142 -3.02695 0
M  V30 2904 H 273.61 -1.22978 -3.59973 0
M  V30 2905 H 274.922 -1.40337 -4.78651 0
M  V30 2906 H 274.076 0.592409 -6.03801 0
M  V30 2907 H 272.815 0.85777 -4.80097 0
M  V30 2908 H 271.82 -1.38791 -5.31994 0
M  V30 2909 H 273.045 -1.64193 -6.58952 0
M  V30 2910 H 270.991 0.601365 -6.53238 0
M  V30 2911 H 270.908 -0.82391 -7.51497 0
M  V30 2912 H 272.176 0.333527 -7.78786 0
M  V30 2913 N 276.405 1.4127 -0.698611 0
M  V30 2914 C 277.353 2.32588 -0.023855 0
M  V30 2915 C 278.347 1.51128 0.765292 0
M  V30 2916 O 279.553 1.67043 0.670571 0
M  V30 2917 H 275.928 0.751918 0.0110871 0
M  V30 2918 H 277.899 2.87167 -0.811031 0
M  V30 2919 C 276.648 3.35947 0.896369 0
M  V30 2920 H 275.971 3.98684 0.298548 0
M  V30 2921 H 277.411 4.02376 1.33676 0
M  V30 2922 C 275.87 2.70076 2.01396 0
M  V30 2923 O 276.4 2.55093 3.10307 0
M  V30 2924 N 274.606 2.28724 1.79259 0
M  V30 2925 H 274.153 2.4111 0.906841 0
M  V30 2926 H 274.111 1.84986 2.54219 0
M  V30 2927 N 277.883 0.443576 1.51229 0
M  V30 2928 C 279.129 -0.120975 2.02439 0
M  V30 2929 C 279.462 -1.41815 1.32674 0
M  V30 2930 O 278.737 -1.89373 0.443622 0
M  V30 2931 C 279.02 -0.333291 3.58554 0
M  V30 2932 C 278.873 0.982968 4.38928 0
M  V30 2933 C 280.192 -1.10028 4.26124 0
M  V30 2934 H 277.311 -0.0424923 0.735774 0
M  V30 2935 H 279.953 0.583794 1.80809 0
M  V30 2936 H 278.103 -0.933614 3.77115 0
M  V30 2937 H 279.775 1.61775 4.32003 0
M  V30 2938 H 278.018 1.58611 4.03763 0
M  V30 2939 H 278.689 0.788379 5.46341 0
M  V30 2940 H 281.165 -0.591711 4.11871 0
M  V30 2941 H 280.041 -1.21761 5.35225 0
M  V30 2942 H 280.302 -2.12996 3.87408 0
M  V30 2943 N 279.361 -1.56624 0.175154 0
M  V30 2944 C 280.772 -1.83561 -0.340916 0
M  V30 2945 C 281.123 -1.09511 -1.62794 0
M  V30 2946 O 280.248 -0.349389 -2.13561 0
M  V30 2947 C 280.843 -3.32979 -0.625313 0
M  V30 2948 C 279.402 -3.60399 -1.08581 0
M  V30 2949 C 278.549 -2.77024 -0.123722 0
M  V30 2950 H 281.5 -1.53593 0.399344 0
M  V30 2951 H 281.521 -3.50666 -1.47694 0
M  V30 2952 H 281.033 -3.86847 0.311575 0
M  V30 2953 H 279.134 -3.11945 -2.03767 0
M  V30 2954 H 279.247 -4.68711 -0.992317 0
M  V30 2955 H 277.611 -2.46993 -0.621821 0
M  V30 2956 H 278.394 -3.33674 0.807256 0
M  V30 2957 N 280.839 0.0985539 -1.57292 0
M  V30 2958 C 281.802 1.10402 -2.00858 0
M  V30 2959 C 282.802 1.33146 -0.901593 0
M  V30 2960 O 283.992 1.29318 -1.16716 0
M  V30 2961 C 281.124 2.45394 -2.36632 0
M  V30 2962 H 282.317 0.729099 -2.90902 0
M  V30 2963 H 279.87 0.343495 -1.52479 0
M  V30 2964 H 280.605 2.87769 -1.49531 0
M  V30 2965 H 280.39 2.30235 -3.17387 0
M  V30 2966 H 281.88 3.17718 -2.71007 0
M  V30 2967 N 282.317 1.53212 0.369288 0
M  V30 2968 C 283.565 1.68881 1.11012 0
M  V30 2969 C 283.886 0.441285 1.89941 0
M  V30 2970 O 283.156 -0.544623 1.88177 0
M  V30 2971 H 281.736 0.622569 0.412816 0
M  V30 2972 H 284.398 1.90391 0.416802 0
M  V30 2973 H 283.494 2.54822 1.80201 0
M  V30 2974 N 283.795 -0.628877 1.44509 0
M  V30 2975 C 285.02 -1.42048 1.5112 0
M  V30 2976 C 285.445 -1.87594 0.137818 0
M  V30 2977 O 284.803 -1.58873 -0.873437 0
M  V30 2978 C 284.851 -2.61541 2.48251 0
M  V30 2979 O 283.955 -3.61453 1.98559 0
M  V30 2980 H 283.296 -0.424942 0.510216 0
M  V30 2981 H 285.826 -0.767374 1.89664 0
M  V30 2982 H 285.836 -3.09057 2.66361 0
M  V30 2983 H 284.511 -2.27736 3.48007 0
M  V30 2984 H 283.088 -3.20731 1.90227 0
M  V30 2985 N 285.273 -1.31445 -0.869486 0
M  V30 2986 C 286.501 -1.24122 -1.65534 0
M  V30 2987 C 286.916 0.193387 -1.87807 0
M  V30 2988 O 286.273 1.12557 -1.43656 0
M  V30 2989 C 286.324 -1.98229 -3.02304 0
M  V30 2990 O 286.045 -3.3609 -2.81026 0
M  V30 2991 C 287.546 -1.97751 -3.96749 0
M  V30 2992 H 284.766 -0.428868 -0.516055 0
M  V30 2993 H 287.31 -1.73328 -1.08525 0
M  V30 2994 H 285.465 -1.52782 -3.56001 0
M  V30 2995 H 285.879 -3.7383 -3.67902 0
M  V30 2996 H 287.353 -2.54114 -4.90031 0
M  V30 2997 H 287.83 -0.960137 -4.28577 0
M  V30 2998 H 288.436 -2.43079 -3.48988 0
M  V30 2999 N 286.751 1.08385 -1.14413 0
M  V30 3000 C 288.162 1.62258 -0.923535 0
M  V30 3001 C 288.513 1.88691 0.537595 0
M  V30 3002 O 287.638 1.64454 1.40655 0
M  V30 3003 C 288.233 2.94781 -1.67002 0
M  V30 3004 C 286.792 3.45437 -1.495 0
M  V30 3005 C 285.939 2.19668 -1.69238 0
M  V30 3006 H 288.89 0.916086 -1.2959 0
M  V30 3007 H 288.911 3.63229 -1.13334 0
M  V30 3008 H 288.423 2.7551 -2.73342 0
M  V30 3009 H 286.524 3.6981 -0.455097 0
M  V30 3010 H 286.637 4.22173 -2.2651 0
M  V30 3011 H 285.001 2.28849 -1.11804 0
M  V30 3012 H 285.784 2.02905 -2.7692 0
M  V30 3013 N 288.23 0.939286 1.26551 0
M  V30 3014 C 289.14 0.453432 2.30176 0
M  V30 3015 C 290.156 -0.471649 1.67486 0
M  V30 3016 O 291.332 -0.35164 1.98306 0
M  V30 3017 C 288.397 -0.275326 3.45605 0
M  V30 3018 C 287.458 0.686084 4.23782 0
M  V30 3019 C 286.691 -0.00798994 5.33699 0
M  V30 3020 O 286.914 -1.22528 5.57085 0
M  V30 3021 O 285.848 0.669746 5.98162 0
M  V30 3022 H 289.674 1.31416 2.73795 0
M  V30 3023 H 287.259 0.705095 1.31715 0
M  V30 3024 H 289.141 -0.685911 4.1578 0
M  V30 3025 H 287.816 -1.11147 3.0402 0
M  V30 3026 H 286.723 1.14658 3.56096 0
M  V30 3027 H 288.056 1.48979 4.69112 0
M  V30 3028 N 289.708 -1.40897 0.706093 0
M  V30 3029 C 290.936 -2.05373 0.250887 0
M  V30 3030 C 291.351 -1.53172 -1.10381 0
M  V30 3031 O 290.708 -0.684305 -1.69185 0
M  V30 3032 C 290.759 -3.6088 0.211571 0
M  V30 3033 O 290.48 -4.11153 1.51276 0
M  V30 3034 C 291.981 -4.42517 -0.263346 0
M  V30 3035 H 289.201 -0.66115 0.114552 0
M  V30 3036 H 291.745 -1.80479 0.961635 0
M  V30 3037 H 289.9 -3.84777 -0.450073 0
M  V30 3038 H 290.314 -5.05279 1.40689 0
M  V30 3039 H 291.788 -5.51479 -0.239718 0
M  V30 3040 H 292.265 -4.19396 -1.30397 0
M  V30 3041 H 292.871 -4.23708 0.367677 0
M  V30 3042 N 291.186 -0.45159 -1.50991 0
M  V30 3043 C 292.411 0.110667 -2.07105 0
M  V30 3044 C 292.836 1.3446 -1.31538 0
M  V30 3045 O 292.194 1.77743 -0.357365 0
M  V30 3046 C 292.242 0.397238 -3.58405 0
M  V30 3047 O 291.346 1.48124 -3.84881 0
M  V30 3048 H 290.687 -0.00439271 -0.663985 0
M  V30 3049 H 293.217 -0.637026 -1.9443 0
M  V30 3050 H 293.227 0.64351 -4.02893 0
M  V30 3051 H 291.902 -0.504553 -4.12828 0
M  V30 3052 H 290.479 1.22381 -3.52246 0
M  V30 3053 N 292.664 1.56529 -0.183458 0
M  V30 3054 C 293.912 1.96855 0.457452 0
M  V30 3055 C 294.233 1.07104 1.62953 0
M  V30 3056 O 293.503 0.139887 1.954 0
M  V30 3057 H 292.083 0.72693 0.171992 0
M  V30 3058 H 294.745 1.93056 -0.267476 0
M  V30 3059 H 293.841 3.01423 0.809368 0
M  V30 3060 N 294.142 -0.090211 1.57342 0
M  V30 3061 C 295.39 -0.791241 1.85967 0
M  V30 3062 C 295.711 -1.7903 0.772859 0
M  V30 3063 O 294.981 -1.94872 -0.200398 0
M  V30 3064 H 293.561 -0.295205 0.686195 0
M  V30 3065 H 296.223 -0.0706782 1.94772 0
M  V30 3066 H 295.319 -1.31882 2.82867 0
M  V30 3067 N 295.62 -1.53406 -0.361157 0
M  V30 3068 C 296.869 -1.69022 -1.10066 0
M  V30 3069 C 297.182 -0.450838 -1.90333 0
M  V30 3070 O 298.388 -0.487617 -2.67085 0
M  V30 3071 C 296.844 -2.98812 -2.00598 0
M  V30 3072 C 296.452 -4.30027 -1.25621 0
M  V30 3073 C 298.196 -3.23795 -2.74513 0
M  V30 3074 C 296.103 -5.50903 -2.1508 0
M  V30 3075 H 295.033 -0.629776 -0.414606 0
M  V30 3076 H 297.684 -1.79907 -0.361348 0
M  V30 3077 H 296.066 -2.8174 -2.78278 0
M  V30 3078 H 297.24 -4.57745 -0.529739 0
M  V30 3079 H 295.555 -4.11522 -0.635496 0
M  V30 3080 H 298.152 -4.11289 -3.41681 0
M  V30 3081 H 298.495 -2.40045 -3.40123 0
M  V30 3082 H 299.028 -3.41561 -2.03914 0
M  V30 3083 H 295.767 -6.37143 -1.54041 0
M  V30 3084 H 295.287 -5.27459 -2.85565 0
M  V30 3085 H 296.966 -5.85865 -2.74538 0
M  V30 3086 N 297.098 0.621204 -1.44841 0
M  V30 3087 C 298.346 1.37783 -1.47852 0
M  V30 3088 C 298.667 1.94653 -0.116224 0
M  V30 3089 O 297.937 1.76367 0.852737 0
M  V30 3090 H 296.517 0.511453 -0.544449 0
M  V30 3091 H 299.179 0.730446 -1.80694 0
M  V30 3092 H 298.275 2.20414 -2.20961 0
M  V30 3093 N 298.576 1.31904 0.862503 0
M  V30 3094 C 299.506 1.22782 1.98612 0
M  V30 3095 C 300.487 0.113362 1.69722 0
M  V30 3096 O 301.672 0.299218 1.91881 0
M  V30 3097 C 298.802 0.942058 3.34279 0
M  V30 3098 C 297.756 2.0169 3.77499 0
M  V30 3099 C 297.082 1.58369 5.10709 0
M  V30 3100 C 298.382 3.43096 3.93805 0
M  V30 3101 H 300.076 2.16788 2.06502 0
M  V30 3102 H 297.622 1.04366 0.992154 0
M  V30 3103 H 299.575 0.864818 4.1243 0
M  V30 3104 H 298.299 -0.0336603 3.26583 0
M  V30 3105 H 296.958 2.08416 3.01593 0
M  V30 3106 H 296.606 0.595628 4.99461 0
M  V30 3107 H 296.306 2.30279 5.40597 0
M  V30 3108 H 297.83 1.52067 5.91361 0
M  V30 3109 H 299.244 3.39003 4.62331 0
M  V30 3110 H 297.641 4.13288 4.35101 0
M  V30 3111 H 298.711 3.83334 2.96957 0
M  V30 3112 N 300.054 -1.07777 1.14986 0
M  V30 3113 C 301.302 -1.79934 0.920235 0
M  V30 3114 C 301.623 -1.86955 -0.554336 0
M  V30 3115 O 300.893 -1.36731 -1.40291 0
M  V30 3116 H 299.473 -0.666424 0.337473 0
M  V30 3117 H 302.135 -1.3027 1.44968 0
M  V30 3118 H 301.231 -2.82539 1.32583 0
M  V30 3119 N 301.532 -0.945985 -1.26051 0
M  V30 3120 C 302.495 -0.463897 -2.24456 0
M  V30 3121 C 303.495 0.427655 -1.55009 0
M  V30 3122 O 304.685 0.226157 -1.72726 0
M  V30 3123 C 301.817 0.330812 -3.39291 0
M  V30 3124 H 303.01 -1.33357 -2.68619 0
M  V30 3125 H 300.563 -0.728416 -1.38289 0
M  V30 3126 H 301.298 1.21852 -3.00537 0
M  V30 3127 H 301.083 -0.308679 -3.90883 0
M  V30 3128 H 302.573 0.657865 -4.12386 0
M  V30 3129 N 303.011 1.40521 -0.713556 0
M  V30 3130 C 304.257 2.01714 -0.261382 0
M  V30 3131 C 304.612 1.55562 1.13217 0
M  V30 3132 O 303.905 0.764893 1.7567 0
M  V30 3133 C 304.099 3.56317 -0.278 0
M  V30 3134 C 303.928 4.17476 -1.67163 0
M  V30 3135 C 302.698 4.50998 -2.2788 0
M  V30 3136 C 304.896 4.42472 -2.6215 0
M  V30 3137 N 302.878 4.9754 -3.5962 0
M  V30 3138 C 304.249 4.90985 -3.78594 0
M  V30 3139 C 306.304 4.24508 -2.60188 0
M  V30 3140 C 305.007 5.2342 -4.9338 0
M  V30 3141 C 307.033 4.58043 -3.741 0
M  V30 3142 C 306.395 5.06743 -4.89276 0
M  V30 3143 H 302.494 0.769104 -0.141434 0
M  V30 3144 H 305.078 1.70785 -0.934915 0
M  V30 3145 H 303.249 3.8668 0.36509 0
M  V30 3146 H 304.981 4.0425 0.190695 0
M  V30 3147 H 301.736 4.38062 -1.79997 0
M  V30 3148 H 302.16 5.25196 -4.27198 0
M  V30 3149 H 306.802 3.86078 -1.72348 0
M  V30 3150 H 304.52 5.60765 -5.81866 0
M  V30 3151 H 308.106 4.45785 -3.73854 0
M  V30 3152 H 306.986 5.32204 -5.75959 0
M  V30 3153 N 304.489 0.459591 1.5075 0
M  V30 3154 C 305.735 -0.0994966 2.02556 0
M  V30 3155 C 306.068 -1.40399 1.3417 0
M  V30 3156 O 305.343 -1.88892 0.463683 0
M  V30 3157 C 305.626 -0.295242 3.58888 0
M  V30 3158 C 305.479 1.02947 4.37861 0
M  V30 3159 C 306.798 -1.05502 4.27267 0
M  V30 3160 H 303.917 -0.034686 0.736183 0
M  V30 3161 H 306.559 0.602938 1.8018 0
M  V30 3162 H 304.709 -0.893563 3.78084 0
M  V30 3163 H 306.381 1.66348 4.30263 0
M  V30 3164 H 304.624 1.62885 4.02058 0
M  V30 3165 H 305.295 0.846281 5.45474 0
M  V30 3166 H 307.771 -0.547993 4.12476 0
M  V30 3167 H 306.647 -1.16077 5.36486 0
M  V30 3168 H 306.908 -2.08875 3.89645 0
M  V30 3169 N 305.967 -1.56429 0.191757 0
M  V30 3170 C 307.192 -2.02309 -0.456706 0
M  V30 3171 C 307.617 -1.07103 -1.5463 0
M  V30 3172 O 306.975 -0.0539677 -1.8122 0
M  V30 3173 C 307.023 -3.46654 -0.993159 0
M  V30 3174 O 306.127 -3.54559 -2.10622 0
M  V30 3175 H 305.468 -0.655303 -0.107114 0
M  V30 3176 H 307.998 -2.02364 0.301653 0
M  V30 3177 H 308.008 -3.86377 -1.31061 0
M  V30 3178 H 306.683 -4.1544 -0.195504 0
M  V30 3179 H 305.26 -3.26708 -1.79767 0
M  V30 3180 N 307.445 0.0818655 -1.57387 0
M  V30 3181 C 308.691 0.784074 -1.8703 0
M  V30 3182 C 309.024 1.77729 -0.782689 0
M  V30 3183 O 308.299 1.93384 0.208051 0
M  V30 3184 C 308.582 1.50105 -3.27323 0
M  V30 3185 C 308.435 0.524925 -4.46727 0
M  V30 3186 C 309.754 2.44843 -3.65705 0
M  V30 3187 H 306.873 0.283582 -0.680257 0
M  V30 3188 H 309.515 0.0474352 -1.89941 0
M  V30 3189 H 307.665 2.12897 -3.24972 0
M  V30 3190 H 309.337 -0.0970111 -4.61198 0
M  V30 3191 H 307.58 -0.160606 -4.33503 0
M  V30 3192 H 308.251 1.064 -5.41648 0
M  V30 3193 H 310.727 1.92135 -3.69085 0
M  V30 3194 H 309.603 2.92018 -4.64776 0
M  V30 3195 H 309.864 3.29197 -2.95096 0
M  V30 3196 N 308.923 1.53595 0.353017 0
M  V30 3197 C 310.171 1.70049 1.09215 0
M  V30 3198 C 310.492 0.461406 1.89463 0
M  V30 3199 O 309.762 -0.524633 1.88744 0
M  V30 3200 H 308.342 0.626912 0.40619 0
M  V30 3201 H 311.004 1.90822 0.396585 0
M  V30 3202 H 310.1 2.56718 1.77488 0
M  V30 3203 N 310.401 -0.613514 1.45168 0
M  V30 3204 C 311.678 -1.37263 1.39349 0
M  V30 3205 C 312.058 -2.11012 0.0610848 0
M  V30 3206 O 311.406 -2.07502 -0.956825 0
M  V30 3207 C 311.616 -2.3244 2.60332 0
M  V30 3208 C 312.964 -2.9523 3.05163 0
M  V30 3209 O 313.988 -2.42762 2.60663 0
M  V30 3210 O 312.847 -3.90454 3.82372 0
M  V30 3211 H 309.941 -0.615188 0.552696 0
M  V30 3212 H 312.487 -0.637097 1.57287 0
M  V30 3213 H 311.259 -1.77164 3.48896 0
M  V30 3214 H 310.882 -3.13383 2.44698 0
M  V30 3215 N 311.879 -1.3236 -0.855495 0
M  V30 3216 C 312.842 -1.21164 -1.94556 0
M  V30 3217 C 313.842 -0.134908 -1.60233 0
M  V30 3218 O 315.032 -0.385249 -1.69887 0
M  V30 3219 C 312.164 -0.863192 -3.29791 0
M  V30 3220 H 313.357 -2.18038 -2.05911 0
M  V30 3221 H 310.91 -1.16179 -1.04557 0
M  V30 3222 H 311.645 0.103769 -3.24134 0
M  V30 3223 H 311.43 -1.64166 -3.56078 0
M  V30 3224 H 312.92 -0.809156 -4.09686 0
M  V30 3225 N 313.357 1.07166 -1.15556 0
M  V30 3226 C 314.32 2.12589 -0.856644 0
M  V30 3227 C 315.32 1.6015 0.14444 0
M  V30 3228 O 316.51 1.7399 -0.0854163 0
M  V30 3229 C 313.642 3.39753 -0.279405 0
M  V30 3230 H 314.835 2.40539 -1.79112 0
M  V30 3231 H 312.388 1.23086 -0.963298 0
M  V30 3232 H 313.123 3.17447 0.663174 0
M  V30 3233 H 312.908 3.79117 -1.00063 0
M  V30 3234 H 314.398 4.17507 -0.0879113 0
M  V30 3235 N 314.835 0.952656 1.25548 0
M  V30 3236 C 315.765 0.489287 2.28316 0
M  V30 3237 C 316.746 -0.463359 1.63667 0
M  V30 3238 O 317.931 -0.36274 1.90782 0
M  V30 3239 C 315.061 -0.235603 3.465 0
M  V30 3240 C 314.015 0.631593 4.23314 0
M  V30 3241 C 313.341 -0.223923 5.34231 0
M  V30 3242 C 314.641 1.90871 4.86174 0
M  V30 3243 H 316.335 1.34822 2.67326 0
M  V30 3244 H 313.881 0.649728 1.28509 0
M  V30 3245 H 315.834 -0.570882 4.17515 0
M  V30 3246 H 314.558 -1.12877 3.06474 0
M  V30 3247 H 313.217 0.949929 3.54079 0
M  V30 3248 H 312.865 -1.11678 4.90446 0
M  V30 3249 H 312.565 0.35299 5.86539 0
M  V30 3250 H 314.089 -0.554214 6.0808 0
M  V30 3251 H 315.503 1.63997 5.49343 0
M  V30 3252 H 313.9 2.43112 5.4865 0
M  V30 3253 H 314.97 2.61304 4.08471 0
M  V30 3254 N 316.313 -1.40141 0.720998 0
M  V30 3255 C 317.729 -1.54632 0.395113 0
M  V30 3256 C 317.929 -1.69115 -1.09555 0
M  V30 3257 O 316.985 -1.68377 -1.88163 0
M  V30 3258 C 318.298 -2.77177 1.1659 0
M  V30 3259 C 319.846 -2.91 1.15274 0
M  V30 3260 C 320.321 -4.16465 1.90579 0
M  V30 3261 N 321.812 -4.23476 1.87675 0
M  V30 3262 C 322.547 -5.19475 2.42762 0
M  V30 3263 N 322.043 -6.21348 3.06428 0
M  V30 3264 N 323.836 -5.11592 2.32874 0
M  V30 3265 H 315.987 -1.28986 1.68749 0
M  V30 3266 H 318.25 -0.62412 0.713567 0
M  V30 3267 H 317.956 -2.72771 2.22011 0
M  V30 3268 H 317.83 -3.69442 0.76108 0
M  V30 3269 H 320.217 -2.94907 0.106702 0
M  V30 3270 H 320.298 -1.99838 1.59682 0
M  V30 3271 H 319.942 -4.1332 2.95176 0
M  V30 3272 H 319.872 -5.06646 1.43587 0
M  V30 3273 H 322.363 -3.50497 1.41281 0
M  V30 3274 H 322.676 -6.91034 3.45965 0
M  V30 3275 H 321.021 -6.21777 3.10514 0
M  V30 3276 H 324.212 -4.30936 1.82789 0
M  V30 3277 H 324.385 -5.86233 2.76106 0
M  V30 3278 N 317.792 -0.46758 -1.50504 0
M  V30 3279 C 319.017 0.0886943 -2.0721 0
M  V30 3280 C 319.442 1.33057 -1.32956 0
M  V30 3281 O 318.8 1.77354 -0.376197 0
M  V30 3282 C 318.848 0.359202 -3.58806 0
M  V30 3283 O 317.952 1.44034 -3.8643 0
M  V30 3284 H 317.293 -0.0114349 -0.663902 0
M  V30 3285 H 319.823 -0.657613 -1.93744 0
M  V30 3286 H 319.833 0.600742 -4.03553 0
M  V30 3287 H 318.508 -0.548311 -4.1227 0
M  V30 3288 H 317.085 1.18638 -3.53524 0
M  V30 3289 N 319.27 1.56325 -0.20005 0
M  V30 3290 C 320.202 2.16555 0.750771 0
M  V30 3291 C 321.215 1.12871 1.1732 0
M  V30 3292 O 322.404 1.39943 1.10807 0
M  V30 3293 C 319.504 2.71684 2.02586 0
M  V30 3294 C 318.677 4.00321 1.76244 0
M  V30 3295 C 317.736 4.40227 2.88248 0
M  V30 3296 O 316.762 5.07552 2.57642 0
M  V30 3297 N 317.964 4.04138 4.16717 0
M  V30 3298 H 320.729 2.98772 0.235685 0
M  V30 3299 H 318.29 1.6189 -0.0182594 0
M  V30 3300 H 320.282 2.95363 2.76664 0
M  V30 3301 H 318.852 1.93893 2.45202 0
M  V30 3302 H 318.072 3.84723 0.85919 0
M  V30 3303 H 319.36 4.84279 1.56048 0
M  V30 3304 H 318.758 3.49993 4.44434 0
M  V30 3305 H 317.315 4.32756 4.87407 0
M  V30 3306 N 320.748 -0.0735177 1.57428 0
M  V30 3307 C 321.997 -0.771809 1.86349 0
M  V30 3308 C 322.31 -1.78828 0.792452 0
M  V30 3309 O 323.516 -2.53602 0.96945 0
M  V30 3310 C 321.972 -1.42358 3.30548 0
M  V30 3311 C 321.58 -0.445761 4.45777 0
M  V30 3312 C 323.324 -2.10434 3.6867 0
M  V30 3313 C 321.231 -1.10335 5.81016 0
M  V30 3314 H 320.161 -0.291999 0.695164 0
M  V30 3315 H 322.812 -0.0250749 1.83483 0
M  V30 3316 H 321.194 -2.21852 3.28021 0
M  V30 3317 H 322.368 0.319239 4.59693 0
M  V30 3318 H 320.683 0.130457 4.16196 0
M  V30 3319 H 323.28 -2.60405 4.67004 0
M  V30 3320 H 323.623 -2.90298 2.98383 0
M  V30 3321 H 324.156 -1.37773 3.7318 0
M  V30 3322 H 320.895 -0.345061 6.54591 0
M  V30 3323 H 320.415 -1.83925 5.70904 0
M  V30 3324 H 322.094 -1.62367 6.26295 0
M  V30 3325 N 322.226 -1.5378 -0.344866 0
M  V30 3326 C 323.451 -1.75211 -1.10977 0
M  V30 3327 C 323.876 -0.48936 -1.81623 0
M  V30 3328 O 323.234 0.557925 -1.72502 0
M  V30 3329 C 323.282 -2.93147 -2.09993 0
M  V30 3330 O 322.386 -2.63203 -3.17487 0
M  V30 3331 H 321.727 -0.581241 -0.321021 0
M  V30 3332 H 324.257 -2.00738 -0.395661 0
M  V30 3333 H 324.267 -3.19898 -2.53237 0
M  V30 3334 H 322.942 -3.84731 -1.5797 0
M  V30 3335 H 321.519 -2.47336 -2.79069 0
M  V30 3336 N 323.704 0.605807 -1.45491 0
M  V30 3337 C 324.652 1.73754 -1.54636 0
M  V30 3338 C 325.646 1.64207 -0.416219 0
M  V30 3339 O 326.852 1.69979 -0.592199 0
M  V30 3340 H 323.227 0.574073 -0.485741 0
M  V30 3341 H 325.198 1.63169 -2.49837 0
M  V30 3342 C 323.947 3.12135 -1.53189 0
M  V30 3343 H 323.27 3.20141 -2.39478 0
M  V30 3344 H 324.71 3.91147 -1.63645 0
M  V30 3345 C 323.169 3.35921 -0.256616 0
M  V30 3346 O 323.699 3.96194 0.662798 0
M  V30 3347 N 321.905 2.90204 -0.151751 0
M  V30 3348 H 321.452 2.41336 -0.90081 0
M  V30 3349 H 321.41 3.06492 0.700699 0
M  V30 3350 N 325.182 1.32811 0.848464 0
M  V30 3351 C 326.593 1.21315 1.41914 0
M  V30 3352 C 326.944 -0.171847 1.95446 0
M  V30 3353 O 326.069 -1.07093 1.88043 0
M  V30 3354 C 326.664 2.19631 2.57968 0
M  V30 3355 C 325.223 2.12003 3.11017 0
M  V30 3356 C 324.37 2.07651 1.83783 0
M  V30 3357 H 327.321 1.44549 0.655071 0
M  V30 3358 H 327.342 1.79845 3.35315 0
M  V30 3359 H 326.854 3.20423 2.18976 0
M  V30 3360 H 324.955 1.14481 3.54577 0
M  V30 3361 H 325.068 3.02111 3.71841 0
M  V30 3362 H 323.432 1.52983 2.03638 0
M  V30 3363 H 324.215 3.10235 1.47 0
M  V30 3364 N 326.66 -1.06551 1.16123 0
M  V30 3365 C 327.57 -2.17484 0.879662 0
M  V30 3366 C 328.586 -1.73377 -0.147104 0
M  V30 3367 O 329.762 -2.01379 0.0289128 0
M  V30 3368 C 326.827 -3.44591 0.381829 0
M  V30 3369 C 325.888 -4.0322 1.4735 0
M  V30 3370 C 325.121 -5.24261 0.999324 0
M  V30 3371 O 325.344 -5.70198 -0.151957 0
M  V30 3372 O 324.278 -5.74775 1.78653 0
M  V30 3373 H 328.104 -2.44075 1.80724 0
M  V30 3374 H 325.689 -1.16042 0.940992 0
M  V30 3375 H 327.571 -4.21254 0.111053 0
M  V30 3376 H 326.246 -3.19532 -0.51777 0
M  V30 3377 H 325.153 -3.2806 1.79798 0
M  V30 3378 H 326.486 -4.32568 2.34831 0
M  V30 3379 N 328.138 -0.959301 -1.25041 0
M  V30 3380 C 329.386 -0.615393 -1.92503 0
M  V30 3381 C 329.707 0.850969 -1.75452 0
M  V30 3382 O 328.977 1.60658 -1.12098 0
M  V30 3383 H 327.557 -0.224613 -0.712431 0
M  V30 3384 H 330.219 -1.21855 -1.5211 0
M  V30 3385 H 329.315 -0.848738 -3.00338 0
M  V30 3386 N 329.616 1.39756 -0.72842 0
M  V30 3387 C 330.579 2.29012 -0.0927297 0
M  V30 3388 C 331.579 1.45992 0.674025 0
M  V30 3389 O 332.769 1.66749 0.50402 0
M  V30 3390 C 329.901 3.29396 0.878137 0
M  V30 3391 H 331.094 2.86729 -0.879011 0
M  V30 3392 H 328.647 1.48293 -0.493847 0
M  V30 3393 H 329.382 2.76722 1.69101 0
M  V30 3394 H 329.167 3.907 0.331051 0
M  V30 3395 H 330.657 3.96199 1.3197 0
M  V30 3396 N 331.094 0.475555 1.50254 0
M  V30 3397 C 332.343 -0.0795996 2.01543 0
M  V30 3398 C 332.656 -1.4038 1.36209 0
M  V30 3399 O 333.862 -2.04415 1.7868 0
M  V30 3400 C 332.318 -0.192363 3.59386 0
M  V30 3401 C 331.926 1.12367 4.33679 0
M  V30 3402 C 333.67 -0.699238 4.18701 0
M  V30 3403 C 331.577 0.974453 5.83317 0
M  V30 3404 H 330.507 -0.0335228 0.753254 0
M  V30 3405 H 333.158 0.611128 1.73025 0
M  V30 3406 H 331.54 -0.946974 3.84511 0
M  V30 3407 H 332.714 1.88958 4.20276 0
M  V30 3408 H 331.029 1.562 3.85993 0
M  V30 3409 H 333.626 -0.827978 5.28251 0
M  V30 3410 H 333.969 -1.69171 3.80377 0
M  V30 3411 H 334.502 -0.00188807 3.978 0
M  V30 3412 H 331.241 1.94042 6.26121 0
M  V30 3413 H 330.761 0.248998 5.99283 0
M  V30 3414 H 332.44 0.642867 6.43798 0
M  V30 3415 N 332.573 -1.56217 0.208337 0
M  V30 3416 C 333.503 -2.22694 -0.702116 0
M  V30 3417 C 334.484 -1.19432 -1.2112 0
M  V30 3418 O 335.669 -1.47978 -1.25762 0
M  V30 3419 C 332.799 -2.8966 -1.9161 0
M  V30 3420 C 331.753 -3.9928 -1.5414 0
M  V30 3421 C 331.079 -4.53476 -2.83308 0
M  V30 3422 C 332.379 -5.17012 -0.741339 0
M  V30 3423 H 334.073 -2.99034 -0.147898 0
M  V30 3424 H 331.619 -1.43831 -0.0696951 0
M  V30 3425 H 333.572 -3.34852 -2.55836 0
M  V30 3426 H 332.296 -2.10746 -2.49507 0
M  V30 3427 H 330.955 -3.54799 -0.922668 0
M  V30 3428 H 330.603 -3.71308 -3.39322 0
M  V30 3429 H 330.303 -5.27451 -2.58976 0
M  V30 3430 H 331.827 -5.01378 -3.485 0
M  V30 3431 H 333.241 -5.58667 -1.28699 0
M  V30 3432 H 331.638 -5.97137 -0.595627 0
M  V30 3433 H 332.708 -4.8423 0.254851 0
M  V30 3434 N 334.051 0.0651679 -1.57465 0
M  V30 3435 C 335.281 0.774683 -1.91526 0
M  V30 3436 C 335.689 1.71305 -0.803196 0
M  V30 3437 O 335.032 1.82231 0.231881 0
M  V30 3438 C 335.094 1.61645 -3.21109 0
M  V30 3439 C 334.758 0.846753 -4.49087 0
M  V30 3440 C 335.755 0.163024 -5.19644 0
M  V30 3441 C 333.44 0.811966 -4.95694 0
M  V30 3442 C 335.434 -0.54519 -6.35064 0
M  V30 3443 C 333.121 0.0999836 -6.11018 0
M  V30 3444 C 334.119 -0.577388 -6.80555 0
M  V30 3445 O 333.807 -1.27789 -7.93678 0
M  V30 3446 H 333.539 0.225031 -0.637446 0
M  V30 3447 H 336.093 0.0377134 -2.05365 0
M  V30 3448 H 334.323 2.39638 -3.03497 0
M  V30 3449 H 336.012 2.20525 -3.40769 0
M  V30 3450 H 336.778 0.181163 -4.84662 0
M  V30 3451 H 332.657 1.32867 -4.41438 0
M  V30 3452 H 336.201 -1.07446 -6.89276 0
M  V30 3453 H 332.098 0.0797945 -6.45451 0
M  V30 3454 H 332.866 -1.18784 -8.09835 0
M  V30 3455 N 335.529 1.53961 0.336706 0
M  V30 3456 C 336.94 1.62914 0.911925 0
M  V30 3457 C 337.291 0.514795 1.89326 0
M  V30 3458 O 336.416 -0.354395 2.13478 0
M  V30 3459 C 337.011 2.95304 1.66076 0
M  V30 3460 C 335.57 3.06496 2.18489 0
M  V30 3461 C 334.717 2.58403 1.00613 0
M  V30 3462 H 337.668 1.58285 0.114649 0
M  V30 3463 H 337.689 2.84727 2.5241 0
M  V30 3464 H 337.201 3.76387 0.946276 0
M  V30 3465 H 335.302 2.3006 2.93092 0
M  V30 3466 H 335.415 4.1208 2.44391 0
M  V30 3467 H 333.779 2.13977 1.38152 0
M  V30 3468 H 334.562 3.41932 0.306179 0
M  V30 3469 N 337.007 -0.598083 1.45811 0
M  V30 3470 C 337.917 -1.73632 1.57763 0
M  V30 3471 C 338.933 -1.67763 0.461676 0
M  V30 3472 O 340.109 -1.87949 0.723685 0
M  V30 3473 C 337.174 -3.10114 1.55018 0
M  V30 3474 C 336.235 -3.27364 2.77726 0
M  V30 3475 C 335.468 -4.57334 2.75102 0
M  V30 3476 O 335.691 -5.40258 1.8297 0
M  V30 3477 O 334.625 -4.77502 3.66437 0
M  V30 3478 H 338.451 -1.66498 2.53992 0
M  V30 3479 H 336.036 -0.763308 1.28429 0
M  V30 3480 H 337.918 -3.9141 1.56129 0
M  V30 3481 H 336.593 -3.17718 0.619431 0
M  V30 3482 H 335.5 -2.45619 2.82174 0
M  V30 3483 H 336.833 -3.24641 3.69958 0
M  V30 3484 N 338.485 -1.33259 -0.841409 0
M  V30 3485 C 339.415 -1.25926 -1.96634 0
M  V30 3486 C 340.396 -0.140349 -1.6952 0
M  V30 3487 O 341.581 -0.329707 -1.91381 0
M  V30 3488 C 338.711 -0.99512 -3.32738 0
M  V30 3489 C 337.665 -2.0767 -3.74242 0
M  V30 3490 C 336.991 -1.66474 -5.08125 0
M  V30 3491 C 338.291 -3.49318 -3.88297 0
M  V30 3492 H 339.985 -2.20046 -2.03027 0
M  V30 3493 H 337.531 -1.05931 -0.975425 0
M  V30 3494 H 339.484 -0.930323 -4.11002 0
M  V30 3495 H 338.208 -0.0183004 -3.26595 0
M  V30 3496 H 336.867 -2.13187 -2.98239 0
M  V30 3497 H 336.515 -0.675012 -4.9845 0
M  V30 3498 H 336.215 -2.3885 -5.36865 0
M  V30 3499 H 337.739 -1.61455 -5.88867 0
M  V30 3500 H 339.153 -3.46316 -4.56879 0
M  V30 3501 H 337.55 -4.20158 -4.28471 0
M  V30 3502 H 338.62 -3.8801 -2.9082 0
M  V30 3503 N 339.963 1.05934 -1.16686 0
M  V30 3504 C 340.913 2.11764 -0.844978 0
M  V30 3505 C 341.897 1.59922 0.177178 0
M  V30 3506 O 343.089 1.76983 -0.0241768 0
M  V30 3507 C 340.218 3.41493 -0.351812 0
M  V30 3508 C 339.304 4.00152 -1.40496 0
M  V30 3509 N 339.695 4.32874 -2.61636 0
M  V30 3510 C 337.993 4.278 -1.26106 0
M  V30 3511 C 338.694 4.79552 -3.29249 0
M  V30 3512 N 337.67 4.79211 -2.56628 0
M  V30 3513 H 341.472 2.34916 -1.76612 0
M  V30 3514 H 338.986 1.23511 -1.05446 0
M  V30 3515 H 340.983 4.16773 -0.102796 0
M  V30 3516 H 339.643 3.19778 0.56322 0
M  V30 3517 H 340.654 4.23109 -2.98663 0
M  V30 3518 H 337.331 4.15511 -0.407081 0
M  V30 3519 H 338.721 5.14045 -4.32675 0
M  V30 3520 N 341.441 0.965919 1.2453 0
M  V30 3521 C 342.857 0.67216 1.44756 0
M  V30 3522 C 343.057 -0.766609 1.86347 0
M  V30 3523 O 342.113 -1.5407 2.00047 0
M  V30 3524 C 343.426 1.65473 2.51076 0
M  V30 3525 C 344.974 1.66716 2.64905 0
M  V30 3526 C 345.449 2.63766 3.74421 0
M  V30 3527 N 346.94 2.62198 3.81846 0
M  V30 3528 C 347.675 3.33966 4.66106 0
M  V30 3529 N 347.171 4.15245 5.54566 0
M  V30 3530 N 348.964 3.22799 4.60171 0
M  V30 3531 H 341.115 1.89553 0.958293 0
M  V30 3532 H 343.378 0.815979 0.482579 0
M  V30 3533 H 343.084 2.68296 2.27399 0
M  V30 3534 H 342.958 1.4261 3.49202 0
M  V30 3535 H 345.345 0.646057 2.87941 0
M  V30 3536 H 345.426 1.93642 1.67142 0
M  V30 3537 H 345.07 3.6601 3.52135 0
M  V30 3538 H 345 2.34121 4.71694 0
M  V30 3539 H 347.491 2.032 3.18619 0
M  V30 3540 H 347.804 4.66898 6.15814 0
M  V30 3541 H 346.149 4.1934 5.54237 0
M  V30 3542 H 349.34 2.58764 3.90075 0
M  V30 3543 H 349.513 3.78994 5.25612 0
M  V30 3544 N 342.919 -1.39368 0.735821 0
M  V30 3545 C 343.882 -2.2896 0.104874 0
M  V30 3546 C 344.882 -1.46347 -0.666274 0
M  V30 3547 O 346.072 -1.67014 -0.49517 0
M  V30 3548 C 343.204 -3.29857 -0.860656 0
M  V30 3549 H 344.397 -2.86259 0.894205 0
M  V30 3550 H 341.95 -1.48029 0.501704 0
M  V30 3551 H 342.685 -2.77615 -1.67631 0
M  V30 3552 H 342.47 -3.9087 -0.310327 0
M  V30 3553 H 343.96 -3.96893 -1.29867 0
M  V30 3554 N 344.397 -0.483516 -1.5 0
M  V30 3555 C 345.813 -0.138404 -1.58999 0
M  V30 3556 C 346.013 1.35597 -1.4905 0
M  V30 3557 O 345.069 2.13039 -1.35539 0
M  V30 3558 C 346.382 -0.699658 -2.92447 0
M  V30 3559 C 347.93 -0.664195 -3.05872 0
M  V30 3560 C 348.405 -1.20321 -4.41913 0
M  V30 3561 N 349.896 -1.16315 -4.48358 0
M  V30 3562 C 350.631 -1.55058 -5.52037 0
M  V30 3563 N 350.127 -2.01311 -6.62907 0
M  V30 3564 N 351.92 -1.46584 -5.42651 0
M  V30 3565 H 344.071 -1.45529 -1.5471 0
M  V30 3566 H 346.334 -0.60258 -0.731848 0
M  V30 3567 H 346.04 -1.747 -3.05242 0
M  V30 3568 H 345.914 -0.150194 -3.76901 0
M  V30 3569 H 348.301 0.374272 -2.92717 0
M  V30 3570 H 348.382 -1.25061 -2.23144 0
M  V30 3571 H 348.026 -2.24037 -4.55818 0
M  V30 3572 H 347.956 -0.592896 -5.23252 0
M  V30 3573 H 350.447 -0.824058 -3.68806 0
M  V30 3574 H 350.76 -2.2899 -7.38095 0
M  V30 3575 H 349.105 -2.05273 -6.63994 0
M  V30 3576 H 352.296 -1.10281 -4.54924 0
M  V30 3577 H 352.469 -1.77103 -6.23329 0
M  V30 3578 N 345.875 1.56104 -0.216619 0
M  V30 3579 C 347.121 1.99219 0.410301 0
M  V30 3580 C 347.476 1.10169 1.57735 0
M  V30 3581 O 346.769 0.150598 1.91007 0
M  V30 3582 C 346.963 3.45923 0.898464 0
M  V30 3583 C 346.792 4.49163 -0.219748 0
M  V30 3584 C 345.562 5.00642 -0.684516 0
M  V30 3585 C 347.76 5.03751 -1.03629 0
M  V30 3586 N 345.742 5.87579 -1.7783 0
M  V30 3587 C 347.113 5.87566 -1.97904 0
M  V30 3588 C 349.168 4.86128 -1.07629 0
M  V30 3589 C 347.871 6.5564 -2.95851 0
M  V30 3590 C 349.897 5.54958 -2.04392 0
M  V30 3591 C 349.259 6.38536 -2.97407 0
M  V30 3592 H 345.358 0.773206 0.11695 0
M  V30 3593 H 347.942 1.9193 -0.327258 0
M  V30 3594 H 346.113 3.53669 1.6054 0
M  V30 3595 H 347.845 3.75963 1.49779 0
M  V30 3596 H 344.6 4.72807 -0.27399 0
M  V30 3597 H 345.024 6.3575 -2.32705 0
M  V30 3598 H 349.666 4.21168 -0.371099 0
M  V30 3599 H 347.384 7.19785 -3.67335 0
M  V30 3600 H 350.97 5.43289 -2.08154 0
M  V30 3601 H 349.85 6.90858 -3.71059 0
M  V30 3602 N 347.353 -0.0568162 1.57498 0
M  V30 3603 C 348.283 -1.06593 2.0775 0
M  V30 3604 C 349.264 -1.39448 0.974082 0
M  V30 3605 O 350.449 -1.48815 1.24771 0
M  V30 3606 C 347.579 -2.37509 2.5339 0
M  V30 3607 C 346.533 -2.1897 3.67745 0
M  V30 3608 C 345.859 -3.55402 3.99492 0
M  V30 3609 C 347.159 -1.59859 4.97235 0
M  V30 3610 H 348.853 -0.647706 2.9231 0
M  V30 3611 H 346.399 -0.310116 1.40621 0
M  V30 3612 H 348.352 -3.08409 2.87162 0
M  V30 3613 H 347.076 -2.8134 1.65878 0
M  V30 3614 H 345.735 -1.50508 3.3428 0
M  V30 3615 H 345.383 -3.9683 3.09088 0
M  V30 3616 H 345.083 -3.43831 4.76502 0
M  V30 3617 H 346.607 -4.27708 4.35773 0
M  V30 3618 H 348.021 -2.20642 5.29141 0
M  V30 3619 H 346.418 -1.58942 5.78669 0
M  V30 3620 H 347.488 -0.561506 4.81638 0
M  V30 3621 N 348.832 -1.54138 -0.328536 0
M  V30 3622 C 350.109 -1.62749 -1.08499 0
M  V30 3623 C 350.489 -0.458198 -2.06067 0
M  V30 3624 O 349.837 0.548046 -2.2183 0
M  V30 3625 C 350.047 -2.99519 -1.79135 0
M  V30 3626 C 351.395 -3.55394 -2.32337 0
M  V30 3627 O 352.419 -3.01792 -1.89209 0
M  V30 3628 O 351.278 -4.49186 -3.11279 0
M  V30 3629 H 348.372 -0.65886 -0.499832 0
M  V30 3630 H 350.918 -1.66484 -0.328826 0
M  V30 3631 H 349.69 -3.76061 -1.08139 0
M  V30 3632 H 349.313 -2.99441 -2.61574 0
M  V30 3633 N 350.31 0.590341 -1.46126 0
M  V30 3634 C 351.22 1.72793 -1.58681 0
M  V30 3635 C 352.236 1.67516 -0.470566 0
M  V30 3636 O 353.412 1.87562 -0.733642 0
M  V30 3637 C 350.477 3.09287 -1.5666 0
M  V30 3638 C 349.538 3.25886 -2.79458 0
M  V30 3639 C 348.771 4.55869 -2.77524 0
M  V30 3640 O 348.994 5.3928 -1.85832 0
M  V30 3641 O 347.928 4.75552 -3.68964 0
M  V30 3642 H 351.754 1.65149 -2.54872 0
M  V30 3643 H 349.339 0.756486 -1.28832 0
M  V30 3644 H 351.221 3.90577 -1.58202 0
M  V30 3645 H 349.896 3.17385 -0.636271 0
M  V30 3646 H 348.803 2.44119 -2.83472 0
M  V30 3647 H 350.136 3.22675 -3.71674 0
M  V30 3648 N 351.788 1.33704 0.83433 0
M  V30 3649 C 352.735 1.24335 1.94447 0
M  V30 3650 C 353.705 0.120991 1.65659 0
M  V30 3651 O 354.89 0.300035 1.88426 0
M  V30 3652 C 352.03 0.993124 3.30501 0
M  V30 3653 C 351.143 2.20217 3.71657 0
M  V30 3654 C 350.278 1.88572 4.96602 0
M  V30 3655 C 349.317 3.05683 5.30306 0
M  V30 3656 N 348.454 2.73997 6.46429 0
M  V30 3657 H 353.294 2.1928 2.01792 0
M  V30 3658 H 350.831 1.09035 0.987404 0
M  V30 3659 H 352.789 0.828467 4.08892 0
M  V30 3660 H 351.419 0.0803902 3.227 0
M  V30 3661 H 350.471 2.47642 2.88752 0
M  V30 3662 H 351.783 3.07752 3.92543 0
M  V30 3663 H 350.937 1.68776 5.82752 0
M  V30 3664 H 349.676 0.982799 4.77695 0
M  V30 3665 H 348.681 3.26088 4.42659 0
M  V30 3666 H 349.906 3.96737 5.51159 0
M  V30 3667 H 347.852 1.86268 6.28999 0
M  V30 3668 H 347.769 3.55064 6.67432 0
M  V30 3669 H 349.037 2.57679 7.35678 0
M  V30 3670 N 353.266 -1.05314 1.17247 0
M  V30 3671 C 354.543 -1.75184 0.87005 0
M  V30 3672 C 354.923 -2.01481 -0.629965 0
M  V30 3673 O 354.271 -1.64988 -1.58086 0
M  V30 3674 C 354.481 -3.04594 1.70363 0
M  V30 3675 C 355.829 -3.78567 1.92281 0
M  V30 3676 O 356.853 -3.14461 1.67311 0
M  V30 3677 O 355.712 -4.93755 2.3424 0
M  V30 3678 H 352.806 -0.761729 0.322021 0
M  V30 3679 H 355.352 -1.11493 1.27935 0
M  V30 3680 H 354.124 -2.81201 2.72106 0
M  V30 3681 H 353.747 -3.76022 1.29202 0
M  V30 3682 N 354.744 -0.972509 -1.24016 0
M  V30 3683 C 355.707 -0.511403 -2.23422 0
M  V30 3684 C 356.707 0.394679 -1.55881 0
M  V30 3685 O 357.897 0.189469 -1.73167 0
M  V30 3686 C 355.029 0.258769 -3.39916 0
M  V30 3687 H 356.222 -1.39024 -2.6573 0
M  V30 3688 H 353.775 -0.757585 -1.36713 0
M  V30 3689 H 354.51 1.1545 -3.03054 0
M  V30 3690 H 354.295 -0.391522 -3.9014 0
M  V30 3691 H 355.785 0.570244 -4.13688 0
M  V30 3692 N 356.222 1.38976 -0.743202 0
M  V30 3693 C 357.638 1.53984 -0.419664 0
M  V30 3694 C 357.838 1.70837 1.0685 0
M  V30 3695 O 356.894 1.7135 1.8546 0
M  V30 3696 C 358.207 2.75287 -1.20985 0
M  V30 3697 C 359.755 2.89129 -1.19889 0
M  V30 3698 C 360.23 4.13381 -1.97181 0
M  V30 3699 N 361.721 4.20437 -1.94389 0
M  V30 3700 C 362.456 5.15547 -2.50996 0
M  V30 3701 N 361.952 6.16395 -3.16274 0
M  V30 3702 N 363.745 5.07822 -2.40984 0
M  V30 3703 H 355.896 1.26285 -1.7078 0
M  V30 3704 H 358.159 0.612689 -0.723406 0
M  V30 3705 H 357.865 2.69204 -2.26323 0
M  V30 3706 H 357.739 3.68184 -0.819759 0
M  V30 3707 H 360.126 2.947 -0.153606 0
M  V30 3708 H 360.207 1.97272 -1.62841 0
M  V30 3709 H 359.851 4.08572 -3.01714 0
M  V30 3710 H 359.781 5.04298 -1.51629 0
M  V30 3711 H 362.272 3.48205 -1.46839 0
M  V30 3712 H 362.585 6.85443 -3.56915 0
M  V30 3713 H 360.93 6.16758 -3.20367 0
M  V30 3714 H 364.121 4.27973 -1.89622 0
M  V30 3715 H 364.294 5.81767 -2.85397 0
M  V30 3716 N 357.7 0.491464 1.49741 0
M  V30 3717 C 358.948 -0.0563141 2.02022 0
M  V30 3718 C 359.269 -1.38363 1.37407 0
M  V30 3719 O 358.539 -1.88702 0.526166 0
M  V30 3720 H 357.119 -0.0238014 0.746621 0
M  V30 3721 H 359.781 0.646533 1.83864 0
M  V30 3722 H 358.877 -0.192967 3.11503 0
M  V30 3723 N 359.178 -1.55987 0.224894 0
M  V30 3724 C 360.424 -1.99433 -0.39973 0
M  V30 3725 C 360.779 -1.11004 -1.57149 0
M  V30 3726 O 360.072 -0.160725 -1.90925 0
M  V30 3727 C 360.266 -3.46394 -0.880106 0
M  V30 3728 C 360.095 -4.4904 0.243565 0
M  V30 3729 C 358.865 -5.00272 0.711056 0
M  V30 3730 C 361.063 -5.03195 1.06299 0
M  V30 3731 N 359.045 -5.86628 1.80944 0
M  V30 3732 C 360.416 -5.86508 2.01017 0
M  V30 3733 C 362.471 -4.8555 1.10205 0
M  V30 3734 C 361.174 -6.54062 2.99324 0
M  V30 3735 C 363.2 -5.53866 2.07332 0
M  V30 3736 C 362.562 -6.3695 3.00789 0
M  V30 3737 H 358.661 -0.773815 -0.112847 0
M  V30 3738 H 361.245 -1.91754 0.337432 0
M  V30 3739 H 359.416 -3.54515 -1.58662 0
M  V30 3740 H 361.148 -3.76752 -1.47783 0
M  V30 3741 H 357.903 -4.72655 0.29906 0
M  V30 3742 H 358.327 -6.34507 2.36073 0
M  V30 3743 H 362.969 -4.20966 0.39343 0
M  V30 3744 H 360.687 -7.17827 3.71147 0
M  V30 3745 H 364.273 -5.42178 2.11032 0
M  V30 3746 H 363.153 -6.8888 3.74718 0
M  V30 3747 N 360.656 0.0484629 -1.57525 0
M  V30 3748 C 361.904 0.741657 -1.88 0
M  V30 3749 C 362.225 1.76918 -0.820054 0
M  V30 3750 O 361.495 1.95335 0.148661 0
M  V30 3751 H 360.075 0.276908 -0.69378 0
M  V30 3752 H 362.737 0.019013 -1.94891 0
M  V30 3753 H 361.833 1.24336 -2.86264 0
M  V30 3754 N 362.134 1.5431 0.320358 0
M  V30 3755 C 363.097 1.83195 1.3774 0
M  V30 3756 C 364.097 0.703906 1.44575 0
M  V30 3757 O 365.287 0.972214 1.44546 0
M  V30 3758 C 362.419 1.99487 2.76438 0
M  V30 3759 H 363.612 2.77642 1.1338 0
M  V30 3760 H 361.165 1.46076 0.556012 0
M  V30 3761 H 361.9 1.07262 3.06048 0
M  V30 3762 H 361.685 2.81575 2.7287 0
M  V30 3763 H 363.175 2.23271 3.52902 0
M  V30 3764 N 363.613 -0.582584 1.46437 0
M  V30 3765 C 364.56 -1.69164 1.5701 0
M  V30 3766 C 365.53 -1.60847 0.414403 0
M  V30 3767 O 366.715 -1.80058 0.631171 0
M  V30 3768 C 363.855 -3.075 1.56646 0
M  V30 3769 C 362.968 -3.2644 2.82951 0
M  V30 3770 C 362.103 -4.55026 2.7409 0
M  V30 3771 C 361.142 -4.6731 3.95333 0
M  V30 3772 N 360.279 -5.87221 3.84858 0
M  V30 3773 H 365.119 -1.59464 2.51744 0
M  V30 3774 H 362.656 -0.777186 1.24893 0
M  V30 3775 H 364.614 -3.8757 1.5442 0
M  V30 3776 H 363.244 -3.16096 0.654439 0
M  V30 3777 H 362.296 -2.39974 2.95155 0
M  V30 3778 H 363.608 -3.31385 3.72808 0
M  V30 3779 H 362.762 -5.43324 2.6997 0
M  V30 3780 H 361.501 -4.52519 1.81873 0
M  V30 3781 H 360.506 -3.77429 3.99784 0
M  V30 3782 H 361.731 -4.71595 4.88646 0
M  V30 3783 H 359.677 -5.85712 2.95427 0
M  V30 3784 H 359.594 -5.93435 4.6837 0
M  V30 3785 H 360.862 -6.7795 3.84713 0
M  V30 3786 N 365.091 -1.34144 -0.827227 0
M  V30 3787 C 366.339 -1.26009 -1.58007 0
M  V30 3788 C 366.66 0.170971 -1.94249 0
M  V30 3789 O 365.93 1.10256 -1.61927 0
M  V30 3790 H 364.51 -0.463414 -0.585881 0
M  V30 3791 H 367.172 -1.68005 -0.987951 0
M  V30 3792 H 366.268 -1.86187 -2.50481 0
M  V30 3793 N 366.569 1.04691 -1.17803 0
M  V30 3794 C 367.846 1.7472 -0.879328 0
M  V30 3795 C 368.226 2.01812 0.619271 0
M  V30 3796 O 367.574 1.65824 1.57209 0
M  V30 3797 C 367.784 3.03686 -1.71976 0
M  V30 3798 C 369.132 3.77542 -1.94286 0
M  V30 3799 O 370.156 3.13569 -1.68976 0
M  V30 3800 O 369.015 4.92506 -2.36855 0
M  V30 3801 H 366.109 0.760011 -0.326056 0
M  V30 3802 H 368.655 1.10813 -1.28525 0
M  V30 3803 H 367.427 2.79754 -2.73594 0
M  V30 3804 H 367.05 3.75332 -1.31194 0
M  V30 3805 N 368.047 0.979072 1.23499 0
M  V30 3806 C 369.295 0.645941 1.91499 0
M  V30 3807 C 369.616 -0.822948 1.76784 0
M  V30 3808 O 368.886 -1.58854 1.14639 0
M  V30 3809 H 367.466 0.235919 0.708767 0
M  V30 3810 H 370.128 1.2426 1.50152 0
M  V30 3811 H 369.224 0.896411 2.9895 0
M  V30 3812 N 369.525 -1.3858 0.750561 0
M  V30 3813 C 370.771 -2.00481 0.305825 0
M  V30 3814 C 371.104 -1.5944 -1.10872 0
M  V30 3815 O 370.379 -0.83052 -1.75877 0
M  V30 3816 C 370.662 -3.5758 0.425287 0
M  V30 3817 C 370.515 -4.08594 1.88072 0
M  V30 3818 C 371.834 -4.39719 -0.183122 0
M  V30 3819 H 368.953 -0.728348 0.112598 0
M  V30 3820 H 371.595 -1.64566 0.949638 0
M  V30 3821 H 369.745 -3.88306 -0.122828 0
M  V30 3822 H 371.417 -3.88523 2.48691 0
M  V30 3823 H 369.66 -3.61574 2.39681 0
M  V30 3824 H 370.331 -5.177 1.91548 0
M  V30 3825 H 372.807 -4.15128 0.284303 0
M  V30 3826 H 371.683 -5.48856 -0.0692757 0
M  V30 3827 H 371.944 -4.23434 -1.27106 0
M  V30 3828 N 371.003 -0.499398 -1.49478 0
M  V30 3829 C 372.231 0.0425456 -2.06856 0
M  V30 3830 C 372.646 1.30964 -1.35992 0
M  V30 3831 O 372.003 1.77172 -0.437762 0
M  V30 3832 C 372.054 0.301735 -3.60239 0
M  V30 3833 O 371.775 -0.915127 -4.28436 0
M  V30 3834 C 373.276 0.887499 -4.34325 0
M  V30 3835 H 370.496 -0.0197482 -0.670709 0
M  V30 3836 H 373.04 -0.696297 -1.92281 0
M  V30 3837 H 371.195 0.990556 -3.74522 0
M  V30 3838 H 371.609 -0.676993 -5.20113 0
M  V30 3839 H 373.083 1.01845 -5.42523 0
M  V30 3840 H 373.56 1.88488 -3.96698 0
M  V30 3841 H 374.166 0.236196 -4.24644 0
M  V30 3842 N 372.481 1.55866 -0.233164 0
M  V30 3843 C 373.758 1.90471 0.444988 0
M  V30 3844 C 374.138 1.15209 1.7689 0
M  V30 3845 O 373.486 0.265119 2.26957 0
M  V30 3846 C 373.696 3.4333 0.626559 0
M  V30 3847 C 375.044 4.14319 0.92871 0
M  V30 3848 O 376.068 3.48993 0.712926 0
M  V30 3849 O 374.927 5.29846 1.33887 0
M  V30 3850 H 372.021 0.792347 0.236885 0
M  V30 3851 H 374.567 1.67437 -0.276211 0
M  V30 3852 H 373.339 3.90095 -0.306822 0
M  V30 3853 H 372.962 3.72181 1.39881 0
M  V30 3854 N 373.959 -0.0401083 1.57549 0
M  V30 3855 C 375.236 -0.767917 1.79896 0
M  V30 3856 C 375.616 -1.9416 0.82856 0
M  V30 3857 O 374.964 -2.2812 -0.131671 0
M  V30 3858 C 375.174 -1.2113 3.27305 0
M  V30 3859 C 376.522 -1.63175 3.91994 0
M  V30 3860 O 377.546 -1.30616 3.31388 0
M  V30 3861 O 376.405 -2.23565 4.98679 0
M  V30 3862 H 373.499 -0.370441 0.739393 0
M  V30 3863 H 376.045 -0.017737 1.69691 0
M  V30 3864 H 374.817 -0.372937 3.89519 0
M  V30 3865 H 374.44 -2.02183 3.42356 0
M  V30 3866 N 375.437 -1.54477 -0.31217 0
M  V30 3867 C 376.665 -1.77205 -1.068 0
M  V30 3868 C 377.08 -0.526114 -1.81321 0
M  V30 3869 O 376.437 0.503647 -1.75413 0
M  V30 3870 C 376.488 -2.97253 -2.05725 0
M  V30 3871 O 376.209 -4.1703 -1.34228 0
M  V30 3872 C 377.71 -3.32281 -2.93435 0
M  V30 3873 H 374.93 -0.591287 -0.317208 0
M  V30 3874 H 377.474 -2.01398 -0.354834 0
M  V30 3875 H 375.629 -2.753 -2.72559 0
M  V30 3876 H 376.043 -4.84636 -2.00571 0
M  V30 3877 H 377.517 -4.19551 -3.58721 0
M  V30 3878 H 377.994 -2.49945 -3.61143 0
M  V30 3879 H 378.6 -3.56353 -2.32147 0
M  V30 3880 N 376.915 0.57481 -1.46744 0
M  V30 3881 C 377.878 1.66533 -1.57478 0
M  V30 3882 C 378.878 1.54338 -0.451263 0
M  V30 3883 O 380.068 1.58814 -0.715813 0
M  V30 3884 C 377.2 3.05999 -1.50259 0
M  V30 3885 H 378.393 1.58372 -2.54673 0
M  V30 3886 H 375.946 0.793301 -1.34672 0
M  V30 3887 H 376.681 3.19709 -0.543725 0
M  V30 3888 H 376.466 3.16259 -2.31781 0
M  V30 3889 H 377.956 3.8537 -1.60872 0
M  V30 3890 N 378.394 1.34581 0.820102 0
M  V30 3891 C 379.357 1.2628 1.91275 0
M  V30 3892 C 380.357 0.177344 1.59819 0
M  V30 3893 O 381.547 0.430156 1.68806 0
M  V30 3894 C 378.679 0.950327 3.27386 0
M  V30 3895 H 379.872 2.23421 2.00057 0
M  V30 3896 H 377.425 1.1891 1.0144 0
M  V30 3897 H 378.16 -0.0177938 3.24295 0
M  V30 3898 H 377.945 1.73549 3.51601 0
M  V30 3899 H 379.435 0.917492 4.07396 0
M  V30 3900 N 379.872 -1.04064 1.18357 0
M  V30 3901 C 380.802 -2.14001 0.934113 0
M  V30 3902 C 381.783 -1.69616 -0.128186 0
M  V30 3903 O 382.968 -1.94185 0.0244093 0
M  V30 3904 C 380.098 -3.44253 0.459066 0
M  V30 3905 C 379.052 -4.02261 1.46185 0
M  V30 3906 C 378.378 -5.27992 0.844322 0
M  V30 3907 C 379.678 -4.38432 2.83856 0
M  V30 3908 H 381.372 -2.35127 1.85352 0
M  V30 3909 H 378.918 -1.12998 0.892604 0
M  V30 3910 H 380.871 -4.20522 0.271907 0
M  V30 3911 H 379.595 -3.22813 -0.495912 0
M  V30 3912 H 378.254 -3.28074 1.63595 0
M  V30 3913 H 377.902 -5.02862 -0.117845 0
M  V30 3914 H 377.602 -5.67765 1.51384 0
M  V30 3915 H 379.126 -6.06938 0.667693 0
M  V30 3916 H 380.54 -5.05688 2.70098 0
M  V30 3917 H 378.937 -4.89254 3.47491 0
M  V30 3918 H 380.007 -3.4826 3.37406 0
M  V30 3919 N 381.35 -0.985608 -1.22978 0
M  V30 3920 C 382.578 -0.675582 -1.95559 0
M  V30 3921 C 382.993 0.758413 -1.72897 0
M  V30 3922 O 382.35 1.51094 -1.02357 0
M  V30 3923 C 382.401 -0.96293 -3.48439 0
M  V30 3924 O 382.122 -2.34057 -3.70336 0
M  V30 3925 C 383.623 -0.669585 -4.38214 0
M  V30 3926 H 380.843 -0.250523 -0.622478 0
M  V30 3927 H 383.387 -1.3184 -1.56328 0
M  V30 3928 H 381.542 -0.366033 -3.85667 0
M  V30 3929 H 381.956 -2.43424 -4.64591 0
M  V30 3930 H 383.43 -0.920967 -5.44263 0
M  V30 3931 H 383.907 0.396383 -4.37408 0
M  V30 3932 H 384.513 -1.2472 -4.06602 0
M  V30 3933 N 382.828 1.3818 -0.7579 0
M  V30 3934 C 384.053 2.04827 -0.325679 0
M  V30 3935 C 384.478 1.56788 1.03919 0
M  V30 3936 O 383.836 0.721811 1.66312 0
M  V30 3937 C 383.884 3.58774 -0.362447 0
M  V30 3938 O 382.988 4.07372 0.642033 0
M  V30 3939 H 382.329 0.64833 -0.143402 0
M  V30 3940 H 384.859 1.7677 -1.03023 0
M  V30 3941 H 384.869 4.07434 -0.214844 0
M  V30 3942 H 383.544 3.93096 -1.35824 0
M  V30 3943 H 382.121 3.70068 0.458688 0
M  V30 3944 N 384.306 0.507319 1.49211 0
M  V30 3945 C 385.269 -0.256763 2.27757 0
M  V30 3946 C 386.269 -0.888287 1.34038 0
M  V30 3947 O 387.459 -0.751841 1.5714 0
M  V30 3948 C 384.591 -1.36905 3.12202 0
M  V30 3949 H 385.784 0.432557 2.96764 0
M  V30 3950 H 383.337 0.262488 1.5408 0
M  V30 3951 H 384.072 -2.09233 2.47775 0
M  V30 3952 H 383.857 -0.921599 3.81115 0
M  V30 3953 H 385.347 -1.9071 3.7151 0
M  V30 3954 N 385.784 -1.5574 0.241426 0
M  V30 3955 C 386.714 -2.24133 -0.654722 0
M  V30 3956 C 387.695 -1.21974 -1.1856 0
M  V30 3957 O 388.88 -1.50612 -1.22595 0
M  V30 3958 C 386.01 -2.93659 -1.85423 0
M  V30 3959 C 384.964 -4.0246 -1.45636 0
M  V30 3960 C 384.29 -4.59383 -2.73626 0
M  V30 3961 C 385.59 -5.18468 -0.631506 0
M  V30 3962 H 387.284 -2.99281 -0.0844353 0
M  V30 3963 H 384.83 -1.43947 -0.0391707 0
M  V30 3964 H 386.783 -3.40203 -2.48676 0
M  V30 3965 H 385.507 -2.15991 -2.44981 0
M  V30 3966 H 384.166 -3.56676 -0.847202 0
M  V30 3967 H 383.814 -3.78422 -3.3137 0
M  V30 3968 H 383.514 -5.32826 -2.4773 0
M  V30 3969 H 385.038 -5.08658 -3.37786 0
M  V30 3970 H 386.452 -5.61272 -1.1682 0
M  V30 3971 H 384.849 -5.98266 -0.468831 0
M  V30 3972 H 385.919 -4.8358 0.357506 0
M  V30 3973 N 387.262 0.0317525 -1.57568 0
M  V30 3974 C 388.21 1.05165 -2.07468 0
M  V30 3975 C 389.204 1.3761 -0.98792 0
M  V30 3976 O 390.41 1.36546 -1.17282 0
M  V30 3977 H 386.785 0.35666 -0.66204 0
M  V30 3978 H 388.756 0.604958 -2.92203 0
M  V30 3979 C 387.505 2.34488 -2.56731 0
M  V30 3980 H 386.828 2.10383 -3.39969 0
M  V30 3981 H 388.268 3.04203 -2.95358 0
M  V30 3982 C 386.727 3.03266 -1.46736 0
M  V30 3983 O 387.257 3.92988 -0.832069 0
M  V30 3984 N 385.463 2.6455 -1.20256 0
M  V30 3985 H 385.01 1.91674 -1.72102 0
M  V30 3986 H 384.968 3.10886 -0.468737 0
M  V30 3987 N 388.74 1.54641 0.303973 0
M  V30 3988 C 390.017 1.64455 1.05896 0
M  V30 3989 C 390.397 0.490923 2.05312 0
M  V30 3990 O 389.745 -0.512685 2.22674 0
M  V30 3991 C 389.955 3.02331 1.74347 0
M  V30 3992 C 391.303 3.59045 2.26653 0
M  V30 3993 O 392.327 3.04764 1.84384 0
M  V30 3994 O 391.186 4.54081 3.04093 0
M  V30 3995 H 388.28 0.666729 0.489287 0
M  V30 3996 H 390.826 1.66986 0.302298 0
M  V30 3997 H 389.598 3.77734 1.02142 0
M  V30 3998 H 389.221 3.03565 2.56777 0
M  V30 3999 N 390.218 -0.567019 1.47046 0
M  V30 4000 C 391.446 -1.35027 1.56765 0
M  V30 4001 C 391.861 -1.8758 0.214316 0
M  V30 4002 O 391.218 -1.64471 -0.790919 0
M  V30 4003 C 391.269 -2.52698 2.58507 0
M  V30 4004 O 390.99 -2.0232 3.88585 0
M  V30 4005 C 392.491 -3.45043 2.78316 0
M  V30 4006 H 389.711 -0.41195 0.529658 0
M  V30 4007 H 392.255 -0.687832 1.92585 0
M  V30 4008 H 390.41 -3.149 2.25648 0
M  V30 4009 H 390.824 -2.79068 4.44096 0
M  V30 4010 H 392.298 -4.2405 3.53391 0
M  V30 4011 H 392.775 -3.97971 1.85784 0
M  V30 4012 H 393.381 -2.88665 3.12334 0
M  V30 4013 N 391.696 -1.35014 -0.812953 0
M  V30 4014 C 393.107 -1.25035 -1.38648 0
M  V30 4015 C 393.458 0.119967 -1.95833 0
M  V30 4016 O 392.583 1.02069 -1.90816 0
M  V30 4017 C 393.178 -2.26394 -2.52054 0
M  V30 4018 C 391.737 -2.20175 -3.05287 0
M  V30 4019 C 390.884 -2.12451 -1.78213 0
M  V30 4020 H 393.835 -1.46235 -0.616516 0
M  V30 4021 H 393.856 -1.88672 -3.30429 0
M  V30 4022 H 393.368 -3.26116 -2.10404 0
M  V30 4023 H 391.469 -1.23841 -3.51417 0
M  V30 4024 H 391.582 -3.11863 -3.63701 0
M  V30 4025 H 389.946 -1.58328 -1.9951 0
M  V30 4026 H 390.729 -3.14024 -1.38723 0
M  V30 4027 N 393.175 1.03435 -1.18907 0
M  V30 4028 C 394.421 1.77005 -0.989798 0
M  V30 4029 C 394.754 1.88205 0.478816 0
M  V30 4030 O 394.029 1.39481 1.35556 0
M  V30 4031 C 394.312 3.19925 -1.65287 0
M  V30 4032 C 394.165 3.1663 -3.19477 0
M  V30 4033 C 395.484 4.18189 -1.37134 0
M  V30 4034 H 392.603 0.642538 -0.360991 0
M  V30 4035 H 395.245 1.20784 -1.46667 0
M  V30 4036 H 393.395 3.67929 -1.24741 0
M  V30 4037 H 395.067 2.76567 -3.692 0
M  V30 4038 H 393.31 2.54491 -3.51307 0
M  V30 4039 H 393.981 4.1758 -3.61013 0
M  V30 4040 H 396.457 3.78761 -1.72276 0
M  V30 4041 H 395.333 5.16394 -1.86087 0
M  V30 4042 H 395.594 4.41112 -0.295424 0
M  V30 4043 N 394.653 0.992116 1.22453 0
M  V30 4044 C 395.901 0.666215 1.90804 0
M  V30 4045 C 396.222 -0.804152 1.77647 0
M  V30 4046 O 395.492 -1.57629 1.16318 0
M  V30 4047 H 394.072 0.243423 0.706225 0
M  V30 4048 H 396.734 1.25845 1.48825 0
M  V30 4049 H 395.83 0.928069 2.97982 0
M  V30 4050 N 396.131 -1.37776 0.765217 0
M  V30 4051 C 397.063 -2.28958 0.105361 0
M  V30 4052 C 398.076 -1.48316 -0.67128 0
M  V30 4053 O 399.265 -1.71046 -0.51045 0
M  V30 4054 C 396.365 -3.27421 -0.874569 0
M  V30 4055 C 395.538 -4.37132 -0.153123 0
M  V30 4056 C 394.597 -5.1571 -1.04547 0
M  V30 4057 O 393.623 -5.66896 -0.511672 0
M  V30 4058 N 394.825 -5.29808 -2.37243 0
M  V30 4059 H 397.59 -2.86227 0.888495 0
M  V30 4060 H 395.151 -1.49682 0.617 0
M  V30 4061 H 397.143 -3.7687 -1.47483 0
M  V30 4062 H 395.713 -2.70967 -1.55871 0
M  V30 4063 H 394.933 -3.89166 0.627975 0
M  V30 4064 H 396.221 -5.07625 0.345643 0
M  V30 4065 H 395.619 -4.89793 -2.83054 0
M  V30 4066 H 394.176 -5.82589 -2.9229 0
M  V30 4067 N 397.609 -0.515225 -1.4894 0
M  V30 4068 C 398.556 0.255567 -2.29381 0
M  V30 4069 C 399.526 0.947387 -1.36432 0
M  V30 4070 O 400.711 0.951288 -1.65394 0
M  V30 4071 C 397.851 1.30551 -3.19453 0
M  V30 4072 C 396.964 0.624029 -4.27469 0
M  V30 4073 C 396.099 1.65563 -5.0474 0
M  V30 4074 C 395.138 0.956802 -6.04576 0
M  V30 4075 N 394.275 1.93326 -6.74959 0
M  V30 4076 H 399.115 -0.436607 -2.94784 0
M  V30 4077 H 396.652 -0.227154 -1.45336 0
M  V30 4078 H 398.61 1.92639 -3.70062 0
M  V30 4079 H 397.24 1.96626 -2.56004 0
M  V30 4080 H 396.292 -0.110459 -3.8024 0
M  V30 4081 H 397.604 0.0746092 -4.98744 0
M  V30 4082 H 396.758 2.35119 -5.59289 0
M  V30 4083 H 395.497 2.23893 -4.3327 0
M  V30 4084 H 394.502 0.247097 -5.49244 0
M  V30 4085 H 395.727 0.379814 -6.78037 0
M  V30 4086 H 393.673 2.50591 -6.06251 0
M  V30 4087 H 393.59 1.43489 -7.42258 0
M  V30 4088 H 394.858 2.62126 -7.34105 0
M  V30 4089 N 399.087 1.5561 -0.249682 0
M  V30 4090 C 400.336 1.98187 0.37479 0
M  V30 4091 C 400.649 1.14111 1.58865 0
M  V30 4092 O 401.855 1.46714 2.28445 0
M  V30 4093 C 400.311 3.52661 0.718192 0
M  V30 4094 C 399.919 4.45481 -0.474428 0
M  V30 4095 C 401.663 4.03888 1.3067 0
M  V30 4096 C 399.57 5.91303 -0.107026 0
M  V30 4097 H 398.5 0.740159 0.143808 0
M  V30 4098 H 401.151 1.80125 -0.350336 0
M  V30 4099 H 399.533 3.66429 1.50152 0
M  V30 4100 H 400.707 4.43473 -1.25172 0
M  V30 4101 H 399.022 4.04751 -0.978052 0
M  V30 4102 H 401.619 5.10358 1.59496 0
M  V30 4103 H 401.962 3.51401 2.23211 0
M  V30 4104 H 402.495 3.93457 0.586211 0
M  V30 4105 H 399.234 6.47833 -0.999642 0
M  V30 4106 H 398.754 5.9644 0.634013 0
M  V30 4107 H 400.433 6.46258 0.309807 0
M  V30 4108 N 400.565 -0.0233959 1.57583 0
M  V30 4109 C 401.513 -1.04063 2.08023 0
M  V30 4110 C 402.507 -1.37084 0.995204 0
M  V30 4111 O 403.713 -1.35923 1.18004 0
M  V30 4112 H 400.088 -0.353144 0.663922 0
M  V30 4113 H 402.059 -0.589453 2.9252 0
M  V30 4114 C 400.808 -2.33123 2.57971 0
M  V30 4115 H 400.131 -2.08577 3.4108 0
M  V30 4116 H 401.571 -3.02632 2.96967 0
M  V30 4117 C 400.03 -3.02483 1.48342 0
M  V30 4118 O 400.56 -3.92541 0.852898 0
M  V30 4119 N 398.766 -2.63909 1.21658 0
M  V30 4120 H 398.313 -1.90758 1.73116 0
M  V30 4121 H 398.271 -3.10633 0.485218 0
M  V30 4122 N 402.043 -1.548 -0.295768 0
M  V30 4123 C 403.291 -1.73985 -1.02828 0
M  V30 4124 C 403.612 -0.531406 -1.87619 0
M  V30 4125 O 402.882 0.454221 -1.90561 0
M  V30 4126 H 401.462 -0.641556 -0.382642 0
M  V30 4127 H 404.124 -1.92163 -0.325489 0
M  V30 4128 H 403.22 -2.63129 -1.67838 0
M  V30 4129 N 403.521 0.559213 -1.47345 0
M  V30 4130 C 404.469 1.68747 -1.60085 0
M  V30 4131 C 405.463 1.628 -0.46825 0
M  V30 4132 O 406.669 1.68009 -0.645977 0
M  V30 4133 H 403.044 0.558329 -0.503759 0
M  V30 4134 H 405.015 1.55138 -2.54902 0
M  V30 4135 C 403.764 3.07103 -1.63042 0
M  V30 4136 H 403.087 3.12361 -2.49541 0
M  V30 4137 H 404.527 3.85743 -1.76006 0
M  V30 4138 C 402.986 3.34935 -0.363357 0
M  V30 4139 O 403.516 3.98102 0.536416 0
M  V30 4140 N 401.722 2.89574 -0.244 0
M  V30 4141 H 401.269 2.38348 -0.977133 0
M  V30 4142 H 401.227 3.08566 0.602836 0
M  V30 4143 N 404.999 1.35443 0.805782 0
M  V30 4144 C 406.247 1.28507 1.55982 0
M  V30 4145 C 406.568 -0.140046 1.94496 0
M  V30 4146 O 405.838 -1.07666 1.63661 0
M  V30 4147 H 404.418 0.472676 0.578434 0
M  V30 4148 H 407.08 1.69555 0.961098 0
M  V30 4149 H 406.176 1.90148 2.47488 0
M  V30 4150 N 406.477 -1.02803 1.19454 0
M  V30 4151 C 407.424 -2.11099 0.933046 0
M  V30 4152 C 408.394 -1.65571 -0.132447 0
M  V30 4153 O 409.579 -1.90797 0.00987576 0
M  V30 4154 C 406.719 -3.41763 0.478747 0
M  V30 4155 C 405.832 -4.00833 1.6111 0
M  V30 4156 C 404.967 -5.19511 1.10825 0
M  V30 4157 C 404.006 -5.70639 2.21445 0
M  V30 4158 N 403.143 -6.80589 1.72461 0
M  V30 4159 H 407.983 -2.32804 1.86028 0
M  V30 4160 H 405.52 -1.14179 0.927441 0
M  V30 4161 H 407.478 -4.16736 0.196745 0
M  V30 4162 H 406.108 -3.20166 -0.411493 0
M  V30 4163 H 405.16 -3.23066 2.00829 0
M  V30 4164 H 406.472 -4.34794 2.4445 0
M  V30 4165 H 405.626 -6.01645 0.781533 0
M  V30 4166 H 404.365 -4.87086 0.244606 0
M  V30 4167 H 403.37 -4.87116 2.54947 0
M  V30 4168 H 404.595 -6.05102 3.08267 0
M  V30 4169 H 402.541 -6.50016 0.884056 0
M  V30 4170 H 402.458 -7.13681 2.49389 0
M  V30 4171 H 403.726 -7.66317 1.42755 0
M  V30 4172 N 407.956 -0.998596 -1.21925 0
M  V30 4173 C 409.184 -0.696286 -1.94832 0
M  V30 4174 C 409.599 0.740032 -1.73692 0
M  V30 4175 O 408.956 1.5 -1.03953 0
M  V30 4176 C 409.007 -0.999833 -3.47398 0
M  V30 4177 O 408.728 -2.37972 -3.67833 0
M  V30 4178 C 410.229 -0.716025 -4.37479 0
M  V30 4179 H 407.449 -0.257111 -0.619786 0
M  V30 4180 H 409.993 -1.33491 -1.54921 0
M  V30 4181 H 408.148 -0.406918 -3.85257 0
M  V30 4182 H 408.562 -2.48338 -4.61983 0
M  V30 4183 H 410.036 -0.978642 -5.43256 0
M  V30 4184 H 410.513 0.349968 -4.37803 0
M  V30 4185 H 411.119 -1.29025 -4.05256 0
M  V30 4186 N 409.434 1.37368 -0.772513 0
M  V30 4187 C 410.664 2.03647 -0.348082 0
M  V30 4188 C 411.072 1.58392 1.03482 0
M  V30 4189 O 410.415 0.760921 1.672 0
M  V30 4190 C 410.477 3.58131 -0.313404 0
M  V30 4191 C 410.141 4.2652 -1.64102 0
M  V30 4192 C 411.138 4.50587 -2.5936 0
M  V30 4193 C 408.823 4.64335 -1.91567 0
M  V30 4194 C 410.817 5.11526 -3.80289 0
M  V30 4195 C 408.504 5.24996 -3.12766 0
M  V30 4196 C 409.502 5.48529 -4.06946 0
M  V30 4197 O 409.19 6.07921 -5.26011 0
M  V30 4198 H 408.922 0.660538 -0.143753 0
M  V30 4199 H 411.476 1.76669 -1.04772 0
M  V30 4200 H 409.706 3.84159 0.442617 0
M  V30 4201 H 411.395 4.05813 0.0840613 0
M  V30 4202 H 412.161 4.21784 -2.39423 0
M  V30 4203 H 408.04 4.45353 -1.19088 0
M  V30 4204 H 411.584 5.29811 -4.53813 0
M  V30 4205 H 407.481 5.53223 -3.32588 0
M  V30 4206 H 408.249 6.26398 -5.26847 0
M  V30 4207 N 410.912 0.523116 1.48665 0
M  V30 4208 C 411.859 -0.243398 2.29513 0
M  V30 4209 C 412.829 -0.940139 1.36933 0
M  V30 4210 O 414.014 -0.942503 1.65896 0
M  V30 4211 C 411.154 -1.28855 3.20141 0
M  V30 4212 C 410.267 -0.60135 4.27794 0
M  V30 4213 C 409.402 -1.62884 5.05611 0
M  V30 4214 C 408.441 -0.924726 6.05075 0
M  V30 4215 N 407.578 -1.89744 6.75975 0
M  V30 4216 H 412.418 0.452234 2.94549 0
M  V30 4217 H 409.955 0.234858 1.45213 0
M  V30 4218 H 411.913 -1.90674 3.71079 0
M  V30 4219 H 410.543 -1.95266 2.57043 0
M  V30 4220 H 409.595 0.130623 3.80176 0
M  V30 4221 H 410.907 -0.0481585 4.98777 0
M  V30 4222 H 410.061 -2.32149 5.60528 0
M  V30 4223 H 408.8 -2.21592 4.34452 0
M  V30 4224 H 407.805 -0.217966 5.49368 0
M  V30 4225 H 409.03 -0.343851 6.78229 0
M  V30 4226 H 406.976 -2.47373 6.07571 0
M  V30 4227 H 406.893 -1.3955 7.43009 0
M  V30 4228 H 408.161 -2.58229 7.35485 0
M  V30 4229 N 412.39 -1.55475 0.257931 0
M  V30 4230 C 413.636 -1.99502 -0.364266 0
M  V30 4231 C 413.969 -1.146 -1.56782 0
M  V30 4232 O 413.244 -0.211968 -1.93342 0
M  V30 4233 C 413.527 -3.51917 -0.763333 0
M  V30 4234 C 413.38 -4.4758 0.446371 0
M  V30 4235 C 414.699 -4.09742 -1.60623 0
M  V30 4236 H 411.818 -0.725277 -0.130929 0
M  V30 4237 H 414.46 -1.8653 0.361446 0
M  V30 4238 H 412.61 -3.63101 -1.38166 0
M  V30 4239 H 414.282 -4.48362 1.08487 0
M  V30 4240 H 412.525 -4.19947 1.08753 0
M  V30 4241 H 413.196 -5.51862 0.123645 0
M  V30 4242 H 415.672 -4.01727 -1.08418 0
M  V30 4243 H 414.548 -5.16631 -1.85429 0
M  V30 4244 H 414.809 -3.58889 -2.58169 0
M  V30 4245 N 413.868 0.0150385 -1.57593 0
M  V30 4246 C 415.096 0.714395 -1.94175 0
M  V30 4247 C 415.511 1.68135 -0.858841 0
M  V30 4248 O 414.868 1.81766 0.163567 0
M  V30 4249 C 414.919 1.45933 -3.30735 0
M  V30 4250 O 414.64 0.531167 -4.34868 0
M  V30 4251 C 416.141 2.25456 -3.81686 0
M  V30 4252 H 413.361 0.199923 -0.640525 0
M  V30 4253 H 415.905 -0.0316096 -2.04476 0
M  V30 4254 H 414.06 2.15709 -3.21789 0
M  V30 4255 H 414.474 1.05509 -5.13778 0
M  V30 4256 H 415.948 2.731 -4.79709 0
M  V30 4257 H 416.425 3.07485 -3.13607 0
M  V30 4258 H 417.031 1.60727 -3.9376 0
M  V30 4259 N 415.346 1.54954 0.287554 0
M  V30 4260 C 416.571 1.79209 1.04397 0
M  V30 4261 C 416.996 0.556431 1.79682 0
M  V30 4262 O 416.354 -0.493518 1.74454 0
M  V30 4263 C 416.402 3.00739 1.98969 0
M  V30 4264 O 415.506 2.74805 3.075 0
M  V30 4265 H 414.847 0.592755 0.299227 0
M  V30 4266 H 417.377 2.02068 0.320886 0
M  V30 4267 H 417.387 3.29077 2.4119 0
M  V30 4268 H 416.062 3.90329 1.43582 0
M  V30 4269 H 414.639 2.57523 2.69697 0
M  V30 4270 N 416.824 -0.551391 1.4764 0
M  V30 4271 C 417.754 -1.66757 1.63445 0
M  V30 4272 C 418.735 -1.63077 0.483742 0
M  V30 4273 O 419.92 -1.80607 0.71377 0
M  V30 4274 C 417.05 -3.05387 1.65396 0
M  V30 4275 C 416.004 -3.23918 2.79752 0
M  V30 4276 C 415.33 -4.63393 2.66779 0
M  V30 4277 C 416.63 -3.08735 4.21284 0
M  V30 4278 H 418.324 -1.53786 2.56886 0
M  V30 4279 H 415.87 -0.738415 1.23626 0
M  V30 4280 H 417.823 -3.83325 1.75043 0
M  V30 4281 H 416.547 -3.19332 0.685195 0
M  V30 4282 H 415.206 -2.48391 2.69625 0
M  V30 4283 H 414.854 -4.74144 1.67918 0
M  V30 4284 H 414.554 -4.7674 3.43501 0
M  V30 4285 H 416.078 -5.43458 2.78364 0
M  V30 4286 H 417.492 -3.76484 4.32357 0
M  V30 4287 H 415.889 -3.33588 4.98838 0
M  V30 4288 H 416.959 -2.0541 4.39243 0
M  V30 4289 N 418.302 -1.35869 -0.798587 0
M  V30 4290 C 419.713 -1.26498 -1.37314 0
M  V30 4291 C 420.064 0.0991899 -1.95949 0
M  V30 4292 O 419.189 1.0004 -1.91888 0
M  V30 4293 C 419.784 -2.29054 -2.49639 0
M  V30 4294 C 418.343 -2.234 -3.02935 0
M  V30 4295 C 417.49 -2.14329 -1.75949 0
M  V30 4296 H 420.441 -1.46881 -0.600971 0
M  V30 4297 H 420.462 -1.92166 -3.28409 0
M  V30 4298 H 419.974 -3.2833 -2.06933 0
M  V30 4299 H 418.075 -1.27562 -3.50084 0
M  V30 4300 H 418.188 -3.15703 -3.60372 0
M  V30 4301 H 416.552 -1.60435 -1.9782 0
M  V30 4302 H 417.335 -3.15477 -1.35384 0
M  V30 4303 N 419.78 1.02168 -1.19998 0
M  V30 4304 C 421.057 1.72816 -0.916191 0
M  V30 4305 C 421.437 2.03081 0.576325 0
M  V30 4306 O 420.785 1.69122 1.53656 0
M  V30 4307 C 420.995 2.9997 -1.78378 0
M  V30 4308 C 422.343 3.73336 -2.02251 0
M  V30 4309 O 423.367 3.09914 -1.75589 0
M  V30 4310 O 422.226 4.87371 -2.47249 0
M  V30 4311 H 419.32 0.752924 -0.342103 0
M  V30 4312 H 421.866 1.08062 -1.30846 0
M  V30 4313 H 420.638 2.73888 -2.79466 0
M  V30 4314 H 420.261 3.72464 -1.39126 0
M  V30 4315 N 421.258 1.00505 1.21394 0
M  V30 4316 C 422.507 0.683159 1.89778 0
M  V30 4317 C 422.82 -0.789471 1.7896 0
M  V30 4318 O 424.026 -1.22344 2.42372 0
M  V30 4319 C 422.482 1.17146 3.40301 0
M  V30 4320 C 422.09 2.67017 3.5973 0
M  V30 4321 C 423.834 0.924461 4.14311 0
M  V30 4322 C 421.741 3.09387 5.04017 0
M  V30 4323 H 420.671 0.25183 0.710702 0
M  V30 4324 H 423.322 1.21622 1.37406 0
M  V30 4325 H 421.704 0.566451 3.91928 0
M  V30 4326 H 422.878 3.32968 3.18542 0
M  V30 4327 H 421.193 2.89732 2.99073 0
M  V30 4328 H 423.79 1.21658 5.20676 0
M  V30 4329 H 424.133 -0.139286 4.16067 0
M  V30 4330 H 424.666 1.49226 3.6875 0
M  V30 4331 H 421.405 4.14989 5.07409 0
M  V30 4332 H 420.925 2.48149 5.46061 0
M  V30 4333 H 422.604 3.01371 5.72525 0
M  V30 4334 N 422.737 -1.36956 0.779787 0
M  V30 4335 C 423.962 -2.04283 0.358224 0
M  V30 4336 C 424.387 -1.58422 -1.01411 0
M  V30 4337 O 423.745 -0.748179 -1.65142 0
M  V30 4338 C 423.793 -3.58152 0.419479 0
M  V30 4339 O 422.897 -4.08342 -0.577142 0
M  V30 4340 H 422.238 -0.645967 0.153698 0
M  V30 4341 H 424.768 -1.75108 1.05822 0
M  V30 4342 H 424.778 -4.07041 0.279636 0
M  V30 4343 H 423.453 -3.90886 1.42061 0
M  V30 4344 H 422.03 -3.70751 -0.399755 0
M  V30 4345 N 424.215 -0.530993 -1.48385 0
M  V30 4346 C 425.631 -0.188919 -1.58478 0
M  V30 4347 C 425.831 1.30786 -1.53288 0
M  V30 4348 O 424.887 2.08619 -1.42248 0
M  V30 4349 C 426.2 -0.792343 -2.90073 0
M  V30 4350 C 427.748 -0.76117 -3.03604 0
M  V30 4351 C 428.223 -1.34319 -4.37861 0
M  V30 4352 N 429.714 -1.3052 -4.44431 0
M  V30 4353 C 430.449 -1.72543 -5.46824 0
M  V30 4354 N 429.945 -2.22299 -6.56167 0
M  V30 4355 N 431.738 -1.63773 -5.37712 0
M  V30 4356 H 423.889 -1.50377 -1.50002 0
M  V30 4357 H 426.152 -0.625559 -0.712306 0
M  V30 4358 H 425.858 -1.84323 -2.99529 0
M  V30 4359 H 425.732 -0.270026 -3.76232 0
M  V30 4360 H 428.119 0.280957 -2.93759 0
M  V30 4361 H 428.2 -1.32097 -2.19053 0
M  V30 4362 H 427.844 -2.38425 -4.4846 0
M  V30 4363 H 427.774 -0.759064 -5.21101 0
M  V30 4364 H 430.265 -0.940973 -3.65997 0
M  V30 4365 H 430.578 -2.52356 -7.30436 0
M  V30 4366 H 428.923 -2.26293 -6.57127 0
M  V30 4367 H 432.114 -1.24698 -4.51185 0
M  V30 4368 H 432.287 -1.96844 -6.17379 0
M  V30 4369 N 425.693 1.55336 -0.266172 0
M  V30 4370 C 426.94 1.99397 0.353158 0
M  V30 4371 C 427.268 1.15451 1.56529 0
M  V30 4372 O 426.523 0.209974 1.9457 0
M  V30 4373 C 426.822 3.48606 0.787957 0
M  V30 4374 C 426.488 4.49773 -0.318541 0
M  V30 4375 C 425.15 4.77158 -0.62239 0
M  V30 4376 C 427.502 5.10212 -1.06459 0
M  V30 4377 C 424.83 5.62251 -1.67602 0
M  V30 4378 C 427.182 5.96449 -2.10788 0
M  V30 4379 C 425.846 6.22158 -2.41817 0
M  V30 4380 H 425.116 0.729644 0.12923 0
M  V30 4381 H 427.763 1.87732 -0.37802 0
M  V30 4382 H 426.068 3.57701 1.59866 0
M  V30 4383 H 427.765 3.80098 1.27775 0
M  V30 4384 H 424.355 4.2854 -0.0715925 0
M  V30 4385 H 428.539 4.89086 -0.843098 0
M  V30 4386 H 423.795 5.80419 -1.92155 0
M  V30 4387 H 427.969 6.42317 -2.69076 0
M  V30 4388 H 425.596 6.87888 -3.23596 0
M  V30 4389 N 427.171 -0.0066808 1.57599 0
M  V30 4390 C 428.42 -0.692078 1.89455 0
M  V30 4391 C 428.733 -1.75306 0.867586 0
M  V30 4392 O 429.939 -2.49262 1.07614 0
M  V30 4393 C 428.395 -1.2821 3.36289 0
M  V30 4394 C 428.003 -0.256291 4.47266 0
M  V30 4395 C 429.747 -1.94608 3.77264 0
M  V30 4396 C 427.654 -0.855927 5.85173 0
M  V30 4397 H 426.584 -0.262252 0.706923 0
M  V30 4398 H 429.235 0.052769 1.83424 0
M  V30 4399 H 427.617 -2.0774 3.37135 0
M  V30 4400 H 428.791 0.513923 4.57925 0
M  V30 4401 H 427.106 0.306862 4.15268 0
M  V30 4402 H 429.703 -2.40364 4.77629 0
M  V30 4403 H 430.046 -2.77382 3.10427 0
M  V30 4404 H 430.579 -1.21822 3.78688 0
M  V30 4405 H 427.318 -0.0671161 6.55466 0
M  V30 4406 H 426.838 -1.59546 5.78191 0
M  V30 4407 H 428.517 -1.35658 6.32618 0
M  V30 4408 N 428.649 -1.55105 -0.279332 0
M  V30 4409 C 429.597 -1.88333 -1.36505 0
M  V30 4410 C 430.591 -0.759043 -1.51443 0
M  V30 4411 O 431.797 -0.943312 -1.53302 0
M  V30 4412 H 428.172 -0.59766 -0.456406 0
M  V30 4413 H 430.143 -2.79041 -1.05728 0
M  V30 4414 C 428.892 -2.16628 -2.7197 0
M  V30 4415 H 428.215 -3.02624 -2.61264 0
M  V30 4416 H 429.655 -2.43803 -3.46895 0
M  V30 4417 C 428.114 -0.971807 -3.22579 0
M  V30 4418 O 428.644 -0.203228 -4.01186 0
M  V30 4419 N 426.85 -0.771238 -2.80179 0
M  V30 4420 H 426.397 -1.39792 -2.1637 0
M  V30 4421 H 426.355 0.0263667 -3.14389 0
M  V30 4422 N 430.127 0.543554 -1.4793 0
M  V30 4423 C 431.355 1.32516 -1.58894 0
M  V30 4424 C 431.77 1.87215 -0.244131 0
M  V30 4425 O 431.127 1.65709 0.764652 0
M  V30 4426 C 431.178 2.48554 -2.62494 0
M  V30 4427 O 430.899 1.96112 -3.91755 0
M  V30 4428 C 432.4 3.40572 -2.8377 0
M  V30 4429 H 429.62 0.403472 -0.536145 0
M  V30 4430 H 432.164 0.657106 -1.93655 0
M  V30 4431 H 430.319 3.1127 -2.30629 0
M  V30 4432 H 430.733 2.71967 -4.4848 0
M  V30 4433 H 432.207 4.18375 -3.60093 0
M  V30 4434 H 432.684 3.94965 -1.92092 0
M  V30 4435 H 433.29 2.8366 -3.16887 0
M  V30 4436 N 431.605 1.3629 0.791371 0
M  V30 4437 C 433.021 1.16661 1.08914 0
M  V30 4438 C 433.221 -0.0106266 2.01497 0
M  V30 4439 O 432.277 -0.676596 2.43266 0
M  V30 4440 C 433.59 2.47656 1.70549 0
M  V30 4441 C 435.138 2.54002 1.82899 0
M  V30 4442 C 435.613 3.85078 2.47949 0
M  V30 4443 N 437.104 3.86413 2.5542 0
M  V30 4444 C 437.839 4.84572 3.06557 0
M  V30 4445 N 437.335 5.93124 3.58016 0
M  V30 4446 N 439.128 4.71994 3.05251 0
M  V30 4447 H 431.279 2.11668 0.176238 0
M  V30 4448 H 433.542 0.937486 0.140796 0
M  V30 4449 H 433.248 3.34059 1.09989 0
M  V30 4450 H 433.122 2.63319 2.70079 0
M  V30 4451 H 435.509 1.68018 2.42598 0
M  V30 4452 H 435.59 2.42239 0.821808 0
M  V30 4453 H 435.234 4.71467 1.88895 0
M  V30 4454 H 435.164 3.94135 3.49235 0
M  V30 4455 H 437.655 3.07988 2.18979 0
M  V30 4456 H 437.968 6.63999 3.95381 0
M  V30 4457 H 436.313 5.96796 3.56173 0
M  V30 4458 H 439.504 3.86321 2.64336 0
M  V30 4459 H 439.677 5.48653 3.44796 0
M  V30 4460 N 433.083 -1.0153 1.20538 0
M  V30 4461 C 434.33 -1.75149 1.01633 0
M  V30 4462 C 434.658 -1.89189 -0.451399 0
M  V30 4463 O 433.913 -1.41551 -1.35136 0
M  V30 4464 C 434.212 -3.17213 1.64654 0
M  V30 4465 C 433.878 -3.23146 3.14464 0
M  V30 4466 C 432.54 -3.24472 3.55347 0
M  V30 4467 C 434.892 -3.21207 4.10458 0
M  V30 4468 C 432.22 -3.21532 4.90748 0
M  V30 4469 C 434.572 -3.19808 5.45807 0
M  V30 4470 C 433.236 -3.19439 5.86102 0
M  V30 4471 H 432.506 -0.640914 0.3719 0
M  V30 4472 H 435.153 -1.19071 1.49981 0
M  V30 4473 H 433.458 -3.76457 1.08571 0
M  V30 4474 H 435.155 -3.72871 1.4754 0
M  V30 4475 H 431.745 -3.2285 2.81897 0
M  V30 4476 H 435.929 -3.19351 3.79906 0
M  V30 4477 H 431.185 -3.19578 5.21229 0
M  V30 4478 H 435.359 -3.1726 6.19935 0
M  V30 4479 H 432.986 -3.16915 6.90991 0
M  V30 4480 N 434.561 -1.01147 -1.20859 0
M  V30 4481 C 435.807 -0.698899 -1.90377 0
M  V30 4482 C 436.14 0.76904 -1.78324 0
M  V30 4483 O 435.415 1.55817 -1.16409 0
M  V30 4484 C 435.698 -1.12878 -3.41951 0
M  V30 4485 C 435.551 -2.65665 -3.62963 0
M  V30 4486 C 436.87 -0.696114 -4.3456 0
M  V30 4487 H 433.989 -0.255372 -0.691342 0
M  V30 4488 H 436.631 -1.25831 -1.42361 0
M  V30 4489 H 434.781 -0.652827 -3.82976 0
M  V30 4490 H 436.453 -3.21074 -3.31224 0
M  V30 4491 H 434.696 -3.06878 -3.06608 0
M  V30 4492 H 435.367 -2.90797 -4.69192 0
M  V30 4493 H 437.843 -1.10521 -4.01154 0
M  V30 4494 H 436.719 -1.025 -5.39245 0
M  V30 4495 H 436.98 0.402465 -4.40264 0
M  V30 4496 N 436.039 1.36541 -0.78704 0
M  V30 4497 C 437.269 2.03266 -0.369662 0
M  V30 4498 C 437.677 1.59481 1.01796 0
M  V30 4499 O 437.02 0.778612 1.66383 0
M  V30 4500 C 437.082 3.57779 -0.351371 0
M  V30 4501 C 436.746 4.24756 -1.68617 0
M  V30 4502 C 437.743 4.47811 -2.64124 0
M  V30 4503 C 435.428 4.62277 -1.96481 0
M  V30 4504 C 437.422 5.07464 -3.85693 0
M  V30 4505 C 435.109 5.21649 -3.18317 0
M  V30 4506 C 436.107 5.44182 -4.12741 0
M  V30 4507 O 435.795 6.02307 -5.32429 0
M  V30 4508 H 435.527 0.658977 -0.150751 0
M  V30 4509 H 438.081 1.75548 -1.0664 0
M  V30 4510 H 436.311 3.84606 0.401847 0
M  V30 4511 H 438 4.05879 0.0410147 0
M  V30 4512 H 438.766 4.19221 -2.43883 0
M  V30 4513 H 434.645 4.44065 -1.23805 0
M  V30 4514 H 438.189 5.24968 -4.59407 0
M  V30 4515 H 434.086 5.49664 -3.38437 0
M  V30 4516 H 434.854 6.20775 -5.33461 0
M  V30 4517 N 437.518 0.538854 1.48102 0
M  V30 4518 C 438.428 -0.222648 2.33541 0
M  V30 4519 C 439.444 -0.930225 1.47047 0
M  V30 4520 O 440.62 -0.903211 1.80011 0
M  V30 4521 C 437.685 -1.25064 3.23357 0
M  V30 4522 C 436.746 -0.552469 4.2573 0
M  V30 4523 C 435.979 -1.53149 5.11254 0
M  V30 4524 O 436.202 -2.76487 4.9891 0
M  V30 4525 O 435.136 -1.06602 5.92385 0
M  V30 4526 H 438.962 0.477707 2.99919 0
M  V30 4527 H 436.547 0.299669 1.46364 0
M  V30 4528 H 438.429 -1.8445 3.78888 0
M  V30 4529 H 437.104 -1.93325 2.59629 0
M  V30 4530 H 436.011 0.082114 3.7401 0
M  V30 4531 H 437.344 0.0883526 4.92121 0
M  V30 4532 N 438.996 -1.55193 0.274407 0
M  V30 4533 C 440.412 -1.59401 -0.0797543 0
M  V30 4534 C 440.612 -1.29162 -1.54659 0
M  V30 4535 O 439.668 -1.05215 -2.29534 0
M  V30 4536 C 440.981 -2.99257 0.294238 0
M  V30 4537 C 442.529 -3.12072 0.240796 0
M  V30 4538 C 443.004 -4.54194 0.589218 0
M  V30 4539 N 444.495 -4.60033 0.540744 0
M  V30 4540 C 445.23 -5.68027 0.783147 0
M  V30 4541 N 444.726 -6.8417 1.09013 0
M  V30 4542 N 446.519 -5.57572 0.711993 0
M  V30 4543 H 438.67 -1.73113 1.23067 0
M  V30 4544 H 440.933 -0.807197 0.497129 0
M  V30 4545 H 440.639 -3.26217 1.31435 0
M  V30 4546 H 440.513 -3.75427 -0.365281 0
M  V30 4547 H 442.9 -2.84877 -0.770024 0
M  V30 4548 H 442.981 -2.38117 0.934563 0
M  V30 4549 H 442.625 -4.82115 1.59772 0
M  V30 4550 H 442.555 -5.26448 -0.126331 0
M  V30 4551 H 445.046 -3.76599 0.313327 0
M  V30 4552 H 445.359 -7.6243 1.26178 0
M  V30 4553 H 443.704 -6.85787 1.12789 0
M  V30 4554 H 446.895 -4.65714 0.472014 0
M  V30 4555 H 447.068 -6.41659 0.90429 0
M  V30 4556 N 440.474 -0.00167713 -1.576 0
M  V30 4557 C 441.723 0.682021 -1.89819 0
M  V30 4558 C 442.036 1.74844 -0.876871 0
M  V30 4559 O 443.242 2.48688 -1.08934 0
M  V30 4560 C 441.698 1.26425 -3.36964 0
M  V30 4561 C 441.306 0.232568 -4.47396 0
M  V30 4562 C 443.05 1.92604 -3.78291 0
M  V30 4563 C 440.957 0.824882 -5.85619 0
M  V30 4564 H 439.887 0.258499 -0.708304 0
M  V30 4565 H 442.538 -0.0624957 -1.83394 0
M  V30 4566 H 440.92 2.05949 -3.38232 0
M  V30 4567 H 442.094 -0.5382 -4.57646 0
M  V30 4568 H 440.409 -0.32888 -4.15099 0
M  V30 4569 H 443.006 2.37827 -4.78897 0
M  V30 4570 H 443.349 2.75732 -3.11894 0
M  V30 4571 H 443.882 1.19812 -3.79328 0
M  V30 4572 H 440.621 0.0323542 -6.55492 0
M  V30 4573 H 440.141 1.56477 -5.79029 0
M  V30 4574 H 441.82 1.32301 -6.33329 0
M  V30 4575 N 441.952 1.55251 0.271103 0
M  V30 4576 C 443.363 1.66635 0.842007 0
M  V30 4577 C 443.714 0.594631 1.86972 0
M  V30 4578 O 442.839 -0.263532 2.14789 0
M  V30 4579 C 443.434 3.02082 1.53401 0
M  V30 4580 C 441.993 3.15487 2.05293 0
M  V30 4581 C 441.14 2.62438 0.895631 0
M  V30 4582 H 444.091 1.58629 0.0474117 0
M  V30 4583 H 444.112 2.95176 2.40107 0
M  V30 4584 H 443.624 3.80062 0.785786 0
M  V30 4585 H 441.725 2.42284 2.83071 0
M  V30 4586 H 441.838 4.22075 2.26693 0
M  V30 4587 H 440.202 2.19644 1.28953 0
M  V30 4588 H 440.985 3.42923 0.160878 0
M  V30 4589 N 443.43 -0.535701 1.48216 0
M  V30 4590 C 444.678 -1.28928 1.55634 0
M  V30 4591 C 444.999 -1.93645 0.229514 0
M  V30 4592 O 444.269 -1.81038 -0.74846 0
M  V30 4593 H 442.849 -0.47884 0.573342 0
M  V30 4594 H 445.511 -0.623853 1.84646 0
M  V30 4595 H 444.607 -2.07157 2.33436 0
M  V30 4596 N 444.908 -1.36708 -0.784132 0
M  V30 4597 C 445.84 -1.27333 -1.90575 0
M  V30 4598 C 446.853 -0.191706 -1.61667 0
M  V30 4599 O 448.042 -0.446854 -1.72816 0
M  V30 4600 C 445.142 -0.943177 -3.25511 0
M  V30 4601 C 444.315 -2.12776 -3.82158 0
M  V30 4602 C 443.374 -1.76983 -4.95544 0
M  V30 4603 O 442.4 -2.49134 -5.11782 0
M  V30 4604 N 443.602 -0.706624 -5.76183 0
M  V30 4605 H 446.367 -2.23974 -1.99138 0
M  V30 4606 H 443.928 -1.30171 -0.962656 0
M  V30 4607 H 445.92 -0.684799 -3.98864 0
M  V30 4608 H 444.49 -0.0657333 -3.12531 0
M  V30 4609 H 443.71 -2.54863 -3.0073 0
M  V30 4610 H 444.998 -2.91904 -4.16737 0
M  V30 4611 H 444.396 -0.107643 -5.65598 0
M  V30 4612 H 442.953 -0.50808 -6.49817 0
M  V30 4613 N 446.386 1.0089 -1.21074 0
M  V30 4614 C 447.797 1.56056 -1.02486 0
M  V30 4615 C 448.148 1.91728 0.416506 0
M  V30 4616 O 447.273 1.73066 1.29912 0
M  V30 4617 C 447.868 2.83563 -1.85411 0
M  V30 4618 C 446.427 3.3523 -1.71166 0
M  V30 4619 C 445.574 2.0846 -1.82865 0
M  V30 4620 H 448.525 0.831818 -1.35154 0
M  V30 4621 H 448.546 3.55286 -1.36205 0
M  V30 4622 H 448.058 2.57569 -2.9031 0
M  V30 4623 H 446.159 3.66167 -0.689361 0
M  V30 4624 H 446.272 4.06913 -2.52901 0
M  V30 4625 H 444.636 2.21275 -1.26132 0
M  V30 4626 H 445.419 1.84883 -2.89263 0
M  V30 4627 N 447.864 1.01787 1.20321 0
M  V30 4628 C 448.794 0.609625 2.25401 0
M  V30 4629 C 449.775 -0.375951 1.65893 0
M  V30 4630 O 450.96 -0.261101 1.92437 0
M  V30 4631 C 448.09 -0.0515995 3.47262 0
M  V30 4632 C 447.044 0.855095 4.19371 0
M  V30 4633 C 446.37 0.0595757 5.34667 0
M  V30 4634 C 447.67 2.16374 4.75373 0
M  V30 4635 H 449.364 1.48803 2.59804 0
M  V30 4636 H 446.91 0.716934 1.24884 0
M  V30 4637 H 448.863 -0.348764 4.19954 0
M  V30 4638 H 447.587 -0.964726 3.12027 0
M  V30 4639 H 446.246 1.13628 3.48546 0
M  V30 4640 H 445.894 -0.85524 4.95676 0
M  V30 4641 H 445.594 0.663406 5.83843 0
M  V30 4642 H 447.118 -0.231105 6.10162 0
M  V30 4643 H 448.532 1.92885 5.39878 0
M  V30 4644 H 446.929 2.71853 5.34991 0
M  V30 4645 H 447.999 2.82589 3.94045 0
M  V30 4646 N 449.342 -1.36122 0.79427 0
M  V30 4647 C 450.572 -2.03067 0.380437 0
M  V30 4648 C 450.98 -1.60018 -1.00949 0
M  V30 4649 O 450.323 -0.787425 -1.65968 0
M  V30 4650 C 450.385 -3.57587 0.37034 0
M  V30 4651 C 450.049 -4.23855 1.70867 0
M  V30 4652 C 451.046 -4.46404 2.66496 0
M  V30 4653 C 448.731 -4.61229 1.9893 0
M  V30 4654 C 450.725 -5.05412 3.88378 0
M  V30 4655 C 448.412 -5.19953 3.21079 0
M  V30 4656 C 449.41 -5.41985 4.15621 0
M  V30 4657 O 449.098 -5.99475 5.35616 0
M  V30 4658 H 448.83 -0.658168 0.154243 0
M  V30 4659 H 451.384 -1.7498 1.0757 0
M  V30 4660 H 449.614 -3.84814 -0.381444 0
M  V30 4661 H 451.303 -4.05895 -0.0194894 0
M  V30 4662 H 452.069 -4.17921 2.46103 0
M  V30 4663 H 447.948 -4.43402 1.26158 0
M  V30 4664 H 451.492 -5.22524 4.62185 0
M  V30 4665 H 447.389 -5.47862 3.41347 0
M  V30 4666 H 448.157 -6.17937 5.36745 0
M  V30 4667 N 450.82 -0.546701 -1.47814 0
M  V30 4668 C 452.05 -0.0232519 -2.06587 0
M  V30 4669 C 452.458 1.2712 -1.40133 0
M  V30 4670 O 451.801 1.77091 -0.488305 0
M  V30 4671 C 451.863 0.254117 -3.58601 0
M  V30 4672 C 451.527 -0.949331 -4.47031 0
M  V30 4673 C 452.524 -1.85216 -4.85789 0
M  V30 4674 C 450.209 -1.16104 -4.88697 0
M  V30 4675 C 452.203 -2.95047 -5.65001 0
M  V30 4676 C 449.89 -2.26247 -5.67676 0
M  V30 4677 C 450.888 -3.1555 -6.05737 0
M  V30 4678 O 450.576 -4.23784 -6.83127 0
M  V30 4679 H 450.308 -0.0380082 -0.674931 0
M  V30 4680 H 452.862 -0.756631 -1.90956 0
M  V30 4681 H 451.092 1.04168 -3.72406 0
M  V30 4682 H 452.781 0.72167 -3.99433 0
M  V30 4683 H 453.547 -1.70061 -4.54207 0
M  V30 4684 H 449.426 -0.475159 -4.58545 0
M  V30 4685 H 452.97 -3.64778 -5.94628 0
M  V30 4686 H 448.867 -2.41379 -5.98671 0
M  V30 4687 H 449.635 -4.21701 -7.01506 0
M  V30 4688 N 452.299 1.55045 -0.282633 0
M  V30 4689 C 453.262 2.21515 0.588539 0
M  V30 4690 C 454.262 1.19535 1.07554 0
M  V30 4691 O 455.452 1.44391 0.974514 0
M  V30 4692 C 452.584 2.88704 1.8128 0
M  V30 4693 H 453.777 2.99899 0.00806397 0
M  V30 4694 H 451.33 1.56265 -0.0333067 0
M  V30 4695 H 452.065 2.14352 2.43359 0
M  V30 4696 H 451.85 3.63443 1.47144 0
M  V30 4697 H 453.34 3.39465 2.43214 0
M  V30 4698 N 453.777 0.010035 1.57597 0
M  V30 4699 C 455.002 -0.687021 1.95691 0
M  V30 4700 C 455.427 -1.65952 0.885519 0
M  V30 4701 O 454.785 -1.80633 -0.15543 0
M  V30 4702 C 454.833 -1.3864 3.32884 0
M  V30 4703 O 453.937 -2.50115 3.27897 0
M  V30 4704 H 453.278 -0.181989 0.638573 0
M  V30 4705 H 455.808 0.0662122 2.04493 0
M  V30 4706 H 455.818 -1.74754 3.6868 0
M  V30 4707 H 454.493 -0.673411 4.10412 0
M  V30 4708 H 453.07 -2.16253 3.03791 0
M  V30 4709 N 455.255 -1.55392 -0.262866 0
M  V30 4710 C 456.165 -1.92077 -1.34698 0
M  V30 4711 C 457.181 -0.819227 -1.53508 0
M  V30 4712 O 458.357 -1.11921 -1.67439 0
M  V30 4713 C 455.422 -2.19407 -2.68443 0
M  V30 4714 C 454.483 -3.42905 -2.58292 0
M  V30 4715 C 453.716 -3.68921 -3.85659 0
M  V30 4716 O 453.939 -2.97275 -4.8681 0
M  V30 4717 O 452.873 -4.62455 -3.85252 0
M  V30 4718 H 456.699 -2.84384 -1.06581 0
M  V30 4719 H 454.284 -1.42069 -0.462264 0
M  V30 4720 H 456.166 -2.38365 -3.47506 0
M  V30 4721 H 454.841 -1.30282 -2.96325 0
M  V30 4722 H 453.748 -3.29272 -1.7757 0
M  V30 4723 H 455.081 -4.32282 -2.35358 0
M  V30 4724 N 456.733 0.527833 -1.48498 0
M  V30 4725 C 457.643 1.65907 -1.65867 0
M  V30 4726 C 458.659 1.6537 -0.541192 0
M  V30 4727 O 459.835 1.84282 -0.812534 0
M  V30 4728 C 456.9 3.02364 -1.69637 0
M  V30 4729 C 455.961 3.1374 -2.93028 0
M  V30 4730 C 455.194 4.43688 -2.96609 0
M  V30 4731 O 455.417 5.30913 -2.08538 0
M  V30 4732 O 454.351 4.59475 -3.88802 0
M  V30 4733 H 458.177 1.5419 -2.61647 0
M  V30 4734 H 455.762 0.701163 -1.31924 0
M  V30 4735 H 457.644 3.83515 -1.74625 0
M  V30 4736 H 456.319 3.14401 -0.770312 0
M  V30 4737 H 455.226 2.31877 -2.93571 0
M  V30 4738 H 456.559 3.06621 -3.85026 0
M  V30 4739 N 458.211 1.37122 0.776871 0
M  V30 4740 C 459.458 1.32047 1.53524 0
M  V30 4741 C 459.786 -0.0965631 1.9426 0
M  V30 4742 O 459.041 -1.06866 1.63945 0
M  V30 4743 C 459.34 2.20068 2.81611 0
M  V30 4744 C 459.006 3.68423 2.59953 0
M  V30 4745 C 457.668 4.08854 2.53755 0
M  V30 4746 C 460.02 4.62431 2.40431 0
M  V30 4747 C 457.348 5.41417 2.26018 0
M  V30 4748 C 459.7 5.95225 2.14219 0
M  V30 4749 C 458.364 6.34767 2.06462 0
M  V30 4750 H 457.634 0.483196 0.561785 0
M  V30 4751 H 460.281 1.69284 0.895268 0
M  V30 4752 H 458.586 1.75809 3.50141 0
M  V30 4753 H 460.283 2.13458 3.39465 0
M  V30 4754 H 456.873 3.36354 2.65638 0
M  V30 4755 H 461.057 4.32057 2.44213 0
M  V30 4756 H 456.313 5.71022 2.18504 0
M  V30 4757 H 460.487 6.67626 1.98112 0
M  V30 4758 H 458.114 7.37413 1.84733 0
M  V30 4759 N 459.689 -1.00246 1.21608 0
M  V30 4760 C 460.935 -1.74319 1.03638 0
M  V30 4761 C 461.268 -1.89408 -0.428749 0
M  V30 4762 O 460.543 -1.43026 -1.3181 0
M  V30 4763 C 460.826 -3.15431 1.73711 0
M  V30 4764 C 460.679 -3.08049 3.27759 0
M  V30 4765 C 461.998 -4.14407 1.48173 0
M  V30 4766 H 459.117 -0.632741 0.377899 0
M  V30 4767 H 461.759 -1.16853 1.49818 0
M  V30 4768 H 459.909 -3.64493 1.34452 0
M  V30 4769 H 461.581 -2.66681 3.76403 0
M  V30 4770 H 459.824 -2.45088 3.57931 0
M  V30 4771 H 460.495 -4.07862 3.71958 0
M  V30 4772 H 462.971 -3.74061 1.82258 0
M  V30 4773 H 461.847 -5.11279 1.99713 0
M  V30 4774 H 462.108 -4.40174 0.412273 0
M  V30 4775 N 461.167 -1.02423 -1.1978 0
M  V30 4776 C 462.099 -0.559152 -2.22275 0
M  V30 4777 C 463.112 0.36251 -1.58713 0
M  V30 4778 O 464.301 0.159641 -1.77785 0
M  V30 4779 C 461.401 0.205094 -3.38279 0
M  V30 4780 C 460.574 -0.720361 -4.31427 0
M  V30 4781 C 459.633 -0.00234368 -5.262 0
M  V30 4782 O 458.659 -0.627378 -5.65732 0
M  V30 4783 N 459.861 1.26996 -5.66438 0
M  V30 4784 H 462.626 -1.44064 -2.62804 0
M  V30 4785 H 460.187 -0.902692 -1.34399 0
M  V30 4786 H 462.179 0.694868 -3.9869 0
M  V30 4787 H 460.749 0.987947 -2.96578 0
M  V30 4788 H 459.969 -1.39031 -3.68869 0
M  V30 4789 H 461.257 -1.3495 -4.90577 0
M  V30 4790 H 460.655 1.79858 -5.36347 0
M  V30 4791 H 459.212 1.70432 -6.29123 0
M  V30 4792 N 462.645 1.35699 -0.801477 0
M  V30 4793 C 463.893 1.9852 -0.37871 0
M  V30 4794 C 464.214 1.63907 1.05638 0
M  V30 4795 O 463.484 0.919013 1.73006 0
M  V30 4796 H 462.064 0.734322 -0.137042 0
M  V30 4797 H 464.726 1.65697 -1.02619 0
M  V30 4798 H 463.822 3.08382 -0.480284 0
M  V30 4799 N 464.123 0.554532 1.47522 0
M  V30 4800 C 465.033 -0.197865 2.33764 0
M  V30 4801 C 466.049 -0.914576 1.48025 0
M  V30 4802 O 467.225 -0.884067 1.80959 0
M  V30 4803 C 464.29 -1.21628 3.24665 0
M  V30 4804 C 463.351 -0.507283 4.26292 0
M  V30 4805 C 462.584 -1.47718 5.1285 0
M  V30 4806 O 462.807 -2.7118 5.01814 0
M  V30 4807 O 461.741 -1.00313 5.93482 0
M  V30 4808 H 465.567 0.50949 2.99396 0
M  V30 4809 H 463.152 0.315176 1.46038 0
M  V30 4810 H 465.034 -1.80421 3.80823 0
M  V30 4811 H 463.709 -1.9056 2.61665 0
M  V30 4812 H 462.616 0.121778 3.73902 0
M  V30 4813 H 463.949 0.140544 4.91999 0
M  V30 4814 N 465.601 -1.54893 0.290851 0
M  V30 4815 C 466.531 -2.26103 -0.583084 0
M  V30 4816 C 467.512 -1.25684 -1.14619 0
M  V30 4817 O 468.697 -1.54436 -1.17741 0
M  V30 4818 C 465.827 -2.99409 -1.75987 0
M  V30 4819 C 464.781 -4.0689 -1.32758 0
M  V30 4820 C 464.107 -4.67856 -2.58872 0
M  V30 4821 C 465.407 -5.20215 -0.46624 0
M  V30 4822 H 467.101 -2.99398 0.0108214 0
M  V30 4823 H 464.647 -1.43998 0.00664468 0
M  V30 4824 H 466.6 -3.47943 -2.37727 0
M  V30 4825 H 465.324 -2.23675 -2.37985 0
M  V30 4826 H 463.983 -3.59191 -0.733299 0
M  V30 4827 H 463.631 -3.88772 -3.19163 0
M  V30 4828 H 463.331 -5.40438 -2.30653 0
M  V30 4829 H 464.855 -5.19147 -3.21433 0
M  V30 4830 H 466.269 -5.64704 -0.989047 0
M  V30 4831 H 464.666 -5.99455 -0.27826 0
M  V30 4832 H 465.736 -4.82198 0.511173 0
M  V30 4833 N 467.08 -0.0183926 -1.57589 0
M  V30 4834 C 468.327 0.662562 -1.91354 0
M  V30 4835 C 468.655 1.72747 -0.893788 0
M  V30 4836 O 467.91 1.9545 0.0988509 0
M  V30 4837 C 468.209 1.32676 -3.31861 0
M  V30 4838 C 467.875 0.393267 -4.49182 0
M  V30 4839 C 466.537 0.136302 -4.81007 0
M  V30 4840 C 468.889 -0.248366 -5.20608 0
M  V30 4841 C 466.217 -0.770282 -5.81621 0
M  V30 4842 C 468.569 -1.14294 -6.22189 0
M  V30 4843 C 467.233 -1.4089 -6.52462 0
M  V30 4844 H 466.503 0.242448 -0.700214 0
M  V30 4845 H 469.15 -0.0778629 -1.91342 0
M  V30 4846 H 467.455 2.14168 -3.28084 0
M  V30 4847 H 469.152 1.86001 -3.55253 0
M  V30 4848 H 465.742 0.603723 -4.24327 0
M  V30 4849 H 469.926 -0.062883 -4.9626 0
M  V30 4850 H 465.182 -0.984154 -6.03427 0
M  V30 4851 H 469.356 -1.64637 -6.76659 0
M  V30 4852 H 466.983 -2.11306 -7.30242 0
M  V30 4853 N 468.558 1.5553 0.254621 0
M  V30 4854 C 469.505 1.89666 1.31512 0
M  V30 4855 C 470.475 0.750057 1.482 0
M  V30 4856 O 471.66 1.00301 1.62309 0
M  V30 4857 C 468.8 2.19009 2.667 0
M  V30 4858 C 467.913 3.46435 2.58083 0
M  V30 4859 C 467.048 3.65386 3.85573 0
M  V30 4860 C 466.087 4.8644 3.71541 0
M  V30 4861 N 465.224 5.01952 4.90906 0
M  V30 4862 H 470.064 2.80109 1.017 0
M  V30 4863 H 467.601 1.38666 0.490938 0
M  V30 4864 H 469.559 2.34025 3.45381 0
M  V30 4865 H 468.189 1.31779 2.94676 0
M  V30 4866 H 467.241 3.39792 1.71013 0
M  V30 4867 H 468.553 4.35258 2.43622 0
M  V30 4868 H 467.707 3.80319 4.72697 0
M  V30 4869 H 466.446 2.74781 4.02922 0
M  V30 4870 H 465.451 4.71491 2.82801 0
M  V30 4871 H 466.676 5.78497 3.55694 0
M  V30 4872 H 464.622 4.14283 5.08631 0
M  V30 4873 H 464.539 5.84851 4.79046 0
M  V30 4874 H 465.807 5.21289 5.7955 0
M  V30 4875 N 470.036 -0.519951 1.48776 0
M  V30 4876 C 471.285 -1.27175 1.56555 0
M  V30 4877 C 471.598 -1.9401 0.248869 0
M  V30 4878 O 472.804 -2.70725 0.205004 0
M  V30 4879 C 471.26 -2.30811 2.76142 0
M  V30 4880 C 470.868 -1.7 4.14493 0
M  V30 4881 C 472.612 -3.06937 2.9324 0
M  V30 4882 C 470.519 -2.71635 5.25327 0
M  V30 4883 H 469.449 -0.478329 0.582853 0
M  V30 4884 H 472.1 -0.547916 1.75129 0
M  V30 4885 H 470.482 -3.06274 2.51023 0
M  V30 4886 H 471.656 -1.00658 4.49672 0
M  V30 4887 H 469.971 -1.06331 4.02595 0
M  V30 4888 H 472.568 -3.82905 3.73213 0
M  V30 4889 H 472.911 -3.63409 2.03075 0
M  V30 4890 H 473.444 -2.38589 3.18308 0
M  V30 4891 H 470.183 -2.1997 6.1749 0
M  V30 4892 H 469.703 -3.39275 4.94624 0
M  V30 4893 H 471.382 -3.34429 5.53865 0
M  V30 4894 N 471.514 -1.37532 -0.769588 0
M  V30 4895 C 472.742 -1.36059 -1.55871 0
M  V30 4896 C 473.157 0.053544 -1.88724 0
M  V30 4897 O 472.514 1.01591 -1.5161 0
M  V30 4898 C 472.565 -2.20107 -2.86767 0
M  V30 4899 O 472.286 -3.56009 -2.55321 0
M  V30 4900 C 473.787 -2.26636 -3.80987 0
M  V30 4901 H 471.007 -0.465967 -0.482821 0
M  V30 4902 H 473.551 -1.80901 -0.953686 0
M  V30 4903 H 471.706 -1.78768 -3.43687 0
M  V30 4904 H 472.12 -4.0009 -3.39158 0
M  V30 4905 H 473.594 -2.89763 -4.69831 0
M  V30 4906 H 474.071 -1.2754 -4.20274 0
M  V30 4907 H 474.677 -2.68296 -3.29996 0
M  V30 4908 N 472.992 0.995999 -1.22138 0
M  V30 4909 C 474.269 1.70834 -0.952642 0
M  V30 4910 C 474.649 2.04257 0.533119 0
M  V30 4911 O 473.997 1.72343 1.50034 0
M  V30 4912 C 474.207 2.96119 -1.84701 0
M  V30 4913 C 475.555 3.68962 -2.10124 0
M  V30 4914 O 476.579 3.0612 -1.82124 0
M  V30 4915 O 475.438 4.82017 -2.57531 0
M  V30 4916 H 472.532 0.745498 -0.357997 0
M  V30 4917 H 475.078 1.05262 -1.33109 0
M  V30 4918 H 473.85 2.67898 -2.85213 0
M  V30 4919 H 473.473 3.6943 -1.46995 0
M  V30 4920 N 474.47 1.03057 1.19235 0
M  V30 4921 C 475.698 0.747697 1.92917 0
M  V30 4922 C 476.113 -0.69372 1.75593 0
M  V30 4923 O 475.47 -1.47191 1.07894 0
M  V30 4924 C 475.521 1.09159 3.44625 0
M  V30 4925 O 475.242 2.47641 3.61394 0
M  V30 4926 C 476.743 0.831763 4.35427 0
M  V30 4927 H 473.963 0.273453 0.612751 0
M  V30 4928 H 476.507 1.37552 1.51327 0
M  V30 4929 H 474.662 0.508919 3.84043 0
M  V30 4930 H 475.076 2.60499 4.55237 0
M  V30 4931 H 476.55 1.12233 5.4047 0
M  V30 4932 H 477.027 -0.233769 4.38577 0
M  V30 4933 H 477.633 1.39725 4.01693 0
M  V30 4934 N 475.948 -1.35272 0.808662 0
M  V30 4935 C 477.359 -1.81179 0.450688 0
M  V30 4936 C 477.71 -1.67143 -1.02751 0
M  V30 4937 O 476.835 -1.20325 -1.79864 0
M  V30 4938 C 477.43 -3.28943 0.811275 0
M  V30 4939 C 475.989 -3.72985 0.505871 0
M  V30 4940 C 475.136 -2.57229 1.03578 0
M  V30 4941 H 478.087 -1.2322 1.00012 0
M  V30 4942 H 478.108 -3.80342 0.109588 0
M  V30 4943 H 477.62 -3.39127 1.88718 0
M  V30 4944 H 475.721 -3.68349 -0.561209 0
M  V30 4945 H 475.834 -4.67677 1.03995 0
M  V30 4946 H 474.198 -2.50548 0.458005 0
M  V30 4947 H 474.981 -2.7019 2.11784 0
M  V30 4948 N 477.426 -0.562348 -1.47226 0
M  V30 4949 C 478.656 -0.0451619 -2.06551 0
M  V30 4950 C 479.064 1.25626 -1.41473 0
M  V30 4951 O 478.407 1.76563 -0.507061 0
M  V30 4952 C 478.469 0.216068 -3.5885 0
M  V30 4953 C 478.133 -0.996691 -4.45999 0
M  V30 4954 C 479.13 -1.90358 -4.83797 0
M  V30 4955 C 476.815 -1.21281 -4.87438 0
M  V30 4956 C 478.809 -3.01023 -5.6184 0
M  V30 4957 C 476.496 -2.32255 -5.65244 0
M  V30 4958 C 477.494 -3.21956 -6.02356 0
M  V30 4959 O 477.182 -4.31005 -6.78594 0
M  V30 4960 H 476.914 -0.0451646 -0.67449 0
M  V30 4961 H 479.468 -0.776842 -1.90143 0
M  V30 4962 H 477.698 1.00212 -3.7349 0
M  V30 4963 H 479.387 0.679264 -4.00176 0
M  V30 4964 H 480.153 -1.74868 -4.52378 0
M  V30 4965 H 476.032 -0.523767 -4.58015 0
M  V30 4966 H 479.576 -3.71064 -5.90726 0
M  V30 4967 H 475.473 -2.47715 -5.96077 0
M  V30 4968 H 476.241 -4.29118 -6.96994 0
M  V30 4969 N 478.904 1.54736 -0.299062 0
M  V30 4970 C 480.134 2.04215 0.312992 0
M  V30 4971 C 480.542 1.17596 1.48215 0
M  V30 4972 O 479.885 0.193835 1.82674 0
M  V30 4973 C 479.947 3.49696 0.833862 0
M  V30 4974 C 479.611 4.56518 -0.20977 0
M  V30 4975 C 480.608 5.09442 -1.03756 0
M  V30 4976 C 478.293 5.01073 -0.35091 0
M  V30 4977 C 480.287 6.05459 -1.99244 0
M  V30 4978 C 477.974 5.9691 -1.30924 0
M  V30 4979 C 478.972 6.48987 -2.1285 0
M  V30 4980 O 478.66 7.42947 -3.07059 0
M  V30 4981 H 478.392 0.672128 0.0722494 0
M  V30 4982 H 480.946 2.00718 -0.436043 0
M  V30 4983 H 479.176 3.5051 1.63339 0
M  V30 4984 H 480.865 3.82381 1.36159 0
M  V30 4985 H 481.631 4.75816 -0.939376 0
M  V30 4986 H 477.51 4.60168 0.276813 0
M  V30 4987 H 481.054 6.46031 -2.63229 0
M  V30 4988 H 476.951 6.29953 -1.40815 0
M  V30 4989 H 477.719 7.60743 -3.02015 0
M  V30 4990 N 480.382 0.0267497 1.57577 0
M  V30 4991 C 481.33 -0.973923 2.11229 0
M  V30 4992 C 482.324 -1.33849 1.03831 0
M  V30 4993 O 483.53 -1.321 1.22269 0
M  V30 4994 H 479.905 -0.331844 0.674821 0
M  V30 4995 H 481.876 -0.496092 2.94247 0
M  V30 4996 C 480.625 -2.24798 2.65257 0
M  V30 4997 H 479.948 -1.9762 3.47543 0
M  V30 4998 H 481.388 -2.93031 3.06445 0
M  V30 4999 C 479.847 -2.97611 1.57891 0
M  V30 5000 O 480.377 -3.89629 0.97735 0
M  V30 5001 N 478.583 -2.59905 1.29992 0
M  V30 5002 H 478.13 -1.85154 1.79097 0
M  V30 5003 H 478.088 -3.08932 0.583798 0
M  V30 5004 N 481.861 -1.55662 -0.24637 0
M  V30 5005 C 482.824 -1.89558 -1.28842 0
M  V30 5006 C 483.824 -0.772082 -1.41052 0
M  V30 5007 O 485.014 -1.04007 -1.39743 0
M  V30 5008 C 482.146 -2.12449 -2.66605 0
M  V30 5009 H 483.339 -2.82735 -1.00004 0
M  V30 5010 H 480.892 -1.48562 -0.485684 0
M  V30 5011 H 481.627 -1.21742 -3.00582 0
M  V30 5012 H 481.412 -2.94273 -2.59125 0
M  V30 5013 H 482.902 -2.39854 -3.41847 0
M  V30 5014 N 483.339 0.512053 -1.4905 0
M  V30 5015 C 484.585 1.26613 -1.59187 0
M  V30 5016 C 484.94 1.90494 -0.270163 0
M  V30 5017 O 484.233 1.77204 0.728648 0
M  V30 5018 C 484.427 2.36446 -2.68008 0
M  V30 5019 C 484.256 1.83334 -4.10632 0
M  V30 5020 C 483.026 1.65131 -4.77556 0
M  V30 5021 C 485.224 1.35153 -4.96224 0
M  V30 5022 N 483.206 1.06833 -6.04533 0
M  V30 5023 C 484.577 0.889186 -6.13591 0
M  V30 5024 C 486.632 1.23623 -4.82309 0
M  V30 5025 C 485.335 0.322953 -7.18575 0
M  V30 5026 C 487.361 0.683978 -5.87431 0
M  V30 5027 C 486.723 0.2318 -7.04018 0
M  V30 5028 H 482.822 0.453678 -0.636946 0
M  V30 5029 H 485.406 0.575217 -1.86009 0
M  V30 5030 H 483.577 3.03012 -2.42978 0
M  V30 5031 H 485.309 3.03485 -2.67729 0
M  V30 5032 H 482.064 1.89178 -4.34176 0
M  V30 5033 H 482.488 0.796425 -6.72299 0
M  V30 5034 H 487.13 1.57184 -3.92496 0
M  V30 5035 H 484.848 -0.024943 -8.08096 0
M  V30 5036 H 488.434 0.597694 -5.78722 0
M  V30 5037 H 487.314 -0.188869 -7.83973 0
M  V30 5038 N 484.817 1.37938 0.762283 0
M  V30 5039 C 486.228 1.30094 1.33912 0
M  V30 5040 C 486.579 -0.0472026 1.96143 0
M  V30 5041 O 485.704 -0.94917 1.94473 0
M  V30 5042 C 486.299 2.35592 2.43478 0
M  V30 5043 C 484.858 2.31353 2.96905 0
M  V30 5044 C 484.005 2.18919 1.70205 0
M  V30 5045 H 486.956 1.48423 0.561816 0
M  V30 5046 H 486.977 2.00806 3.23199 0
M  V30 5047 H 486.489 3.33701 1.98155 0
M  V30 5048 H 484.59 1.36799 3.46579 0
M  V30 5049 H 484.703 3.25147 3.51875 0
M  V30 5050 H 483.067 1.65624 1.93496 0
M  V30 5051 H 483.85 3.18956 1.26973 0
M  V30 5052 N 486.295 -0.989507 1.22664 0
M  V30 5053 C 487.227 -2.0824 0.957542 0
M  V30 5054 C 488.24 -1.6267 -0.0651098 0
M  V30 5055 O 489.429 -1.77695 0.169312 0
M  V30 5056 C 486.529 -3.36298 0.419145 0
M  V30 5057 C 485.702 -4.10882 1.49982 0
M  V30 5058 C 484.761 -5.17221 0.967904 0
M  V30 5059 O 483.787 -5.44613 1.65487 0
M  V30 5060 N 484.989 -5.80124 -0.20896 0
M  V30 5061 H 487.754 -2.31904 1.89843 0
M  V30 5062 H 485.315 -1.15552 1.13399 0
M  V30 5063 H 487.307 -4.04671 0.0485451 0
M  V30 5064 H 485.877 -3.09671 -0.426937 0
M  V30 5065 H 485.097 -3.37092 2.04359 0
M  V30 5066 H 486.385 -4.57482 2.22682 0
M  V30 5067 H 485.783 -5.60244 -0.783818 0
M  V30 5068 H 484.34 -6.49715 -0.520913 0
M  V30 5069 N 487.773 -1.03688 -1.18687 0
M  V30 5070 C 489.05 -0.652397 -1.84399 0
M  V30 5071 C 489.43 0.868386 -1.92412 0
M  V30 5072 O 488.778 1.76832 -1.44716 0
M  V30 5073 C 488.988 -1.3238 -3.22919 0
M  V30 5074 C 490.336 -1.45216 -3.98996 0
M  V30 5075 O 491.36 -1.2816 -3.32345 0
M  V30 5076 O 490.219 -1.72975 -5.18403 0
M  V30 5077 H 487.313 -0.227793 -0.795009 0
M  V30 5078 H 489.859 -1.13553 -1.2611 0
M  V30 5079 H 488.631 -2.36202 -3.11968 0
M  V30 5080 H 488.254 -0.829039 -3.88861 0
M  V30 5081 N 489.251 1.34841 -0.815825 0
M  V30 5082 C 490.198 2.29644 -0.230664 0
M  V30 5083 C 491.168 1.53253 0.640533 0
M  V30 5084 O 492.353 1.81653 0.583672 0
M  V30 5085 C 489.493 3.39715 0.607275 0
M  V30 5086 C 488.606 4.31056 -0.28538 0
M  V30 5087 C 487.741 5.28225 0.561446 0
M  V30 5088 C 486.78 6.11204 -0.331035 0
M  V30 5089 N 485.917 7.00483 0.476302 0
M  V30 5090 H 490.757 2.79095 -1.0445 0
M  V30 5091 H 488.294 1.37351 -0.526595 0
M  V30 5092 H 490.252 4.02208 1.10835 0
M  V30 5093 H 488.882 2.91517 1.38629 0
M  V30 5094 H 487.934 3.69487 -0.904621 0
M  V30 5095 H 489.246 4.89239 -0.97193 0
M  V30 5096 H 488.4 5.96135 1.12728 0
M  V30 5097 H 487.139 4.70562 1.28153 0
M  V30 5098 H 486.144 5.42232 -0.909069 0
M  V30 5099 H 487.369 6.70947 -1.04912 0
M  V30 5100 H 485.315 6.45296 1.18019 0
M  V30 5101 H 485.232 7.55847 -0.152008 0
M  V30 5102 H 486.5 7.7273 1.02512 0
M  V30 5103 N 490.729 0.570148 1.46925 0
M  V30 5104 C 491.692 -0.159933 2.28641 0
M  V30 5105 C 492.692 -0.830638 1.37685 0
M  V30 5106 O 493.882 -0.684516 1.60187 0
M  V30 5107 C 491.014 -1.2354 3.17727 0
M  V30 5108 H 492.207 0.558035 2.94662 0
M  V30 5109 H 489.76 0.327603 1.52828 0
M  V30 5110 H 490.495 -1.98535 2.56426 0
M  V30 5111 H 490.28 -0.759125 3.84681 0
M  V30 5112 H 491.77 -1.74782 3.79264 0
M  V30 5113 N 492.207 -1.54576 0.307264 0
M  V30 5114 C 493.454 -2.00263 -0.300167 0
M  V30 5115 C 493.782 -1.19561 -1.53413 0
M  V30 5116 O 493.037 -0.261487 -1.93945 0
M  V30 5117 C 493.336 -3.50572 -0.695253 0
M  V30 5118 C 493.002 -4.48771 0.437679 0
M  V30 5119 C 491.664 -4.7534 0.748681 0
M  V30 5120 C 494.016 -5.0721 1.19949 0
M  V30 5121 C 491.344 -5.5761 1.8245 0
M  V30 5122 C 493.696 -5.90651 2.26527 0
M  V30 5123 C 492.36 -6.15528 2.58227 0
M  V30 5124 H 491.63 -0.732814 -0.109839 0
M  V30 5125 H 494.277 -1.86664 0.427661 0
M  V30 5126 H 492.582 -3.61814 -1.50326 0
M  V30 5127 H 494.279 -3.83352 -1.17653 0
M  V30 5128 H 490.869 -4.282 0.185187 0
M  V30 5129 H 495.053 -4.86679 0.972474 0
M  V30 5130 H 490.309 -5.75121 2.07476 0
M  V30 5131 H 494.483 -6.34957 2.86011 0
M  V30 5132 H 492.11 -6.79066 3.4172 0
M  V30 5133 N 493.685 -0.035106 -1.57561 0
M  V30 5134 C 494.931 0.64318 -1.92331 0
M  V30 5135 C 495.264 1.71434 -0.912368 0
M  V30 5136 O 494.539 1.94395 0.0640303 0
M  V30 5137 C 494.822 1.25411 -3.37556 0
M  V30 5138 C 494.675 0.192109 -4.4939 0
M  V30 5139 C 495.994 2.17041 -3.82859 0
M  V30 5140 H 493.113 0.232341 -0.699419 0
M  V30 5141 H 495.755 -0.0935889 -1.89769 0
M  V30 5142 H 493.905 1.88205 -3.39869 0
M  V30 5143 H 495.577 -0.438849 -4.59208 0
M  V30 5144 H 493.82 -0.481725 -4.31117 0
M  V30 5145 H 494.491 0.659292 -5.48049 0
M  V30 5146 H 496.967 1.64228 -3.8232 0
M  V30 5147 H 495.843 2.56738 -4.85157 0
M  V30 5148 H 496.104 3.06401 -3.18702 0
M  V30 5149 N 495.163 1.55791 0.238111 0
M  V30 5150 C 496.393 1.81834 0.980809 0
M  V30 5151 C 496.801 0.609741 1.79106 0
M  V30 5152 O 496.144 -0.431073 1.78571 0
M  V30 5153 C 496.206 3.01363 1.96011 0
M  V30 5154 C 495.87 4.37037 1.33597 0
M  V30 5155 C 496.867 5.14692 0.734063 0
M  V30 5156 C 494.552 4.83743 1.3527 0
M  V30 5157 C 496.546 6.37206 0.157208 0
M  V30 5158 C 494.233 6.06204 0.77199 0
M  V30 5159 C 495.231 6.82775 0.175282 0
M  V30 5160 O 494.919 8.02922 -0.396432 0
M  V30 5161 H 494.651 0.6088 0.293834 0
M  V30 5162 H 497.205 2.03702 0.263552 0
M  V30 5163 H 495.435 2.75273 2.71591 0
M  V30 5164 H 497.124 3.14422 2.56697 0
M  V30 5165 H 497.89 4.79722 0.713582 0
M  V30 5166 H 493.769 4.24129 1.80653 0
M  V30 5167 H 497.313 6.96915 -0.30917 0
M  V30 5168 H 493.21 6.4065 0.789828 0
M  V30 5169 H 493.978 8.17989 -0.289145 0
M  V30 5170 N 496.642 -0.504142 1.49319 0
M  V30 5171 C 497.552 -1.63248 1.68486 0
M  V30 5172 C 498.568 -1.64488 0.567432 0
M  V30 5173 O 499.744 -1.82966 0.841749 0
M  V30 5174 C 496.809 -2.99627 1.74426 0
M  V30 5175 C 495.87 -3.09039 2.97982 0
M  V30 5176 C 495.103 -4.38913 3.0363 0
M  V30 5177 O 495.326 -5.27528 2.16958 0
M  V30 5178 O 494.26 -4.53231 3.96062 0
M  V30 5179 H 498.086 -1.50008 2.64067 0
M  V30 5180 H 495.671 -0.680086 1.33023 0
M  V30 5181 H 497.553 -3.80689 1.80705 0
M  V30 5182 H 496.228 -3.13136 0.820233 0
M  V30 5183 H 495.135 -2.27177 2.97223 0
M  V30 5184 H 496.468 -3.00456 3.89855 0
M  V30 5185 N 498.12 -1.38341 -0.754957 0
M  V30 5186 C 499.068 -1.35573 -1.89005 0
M  V30 5187 C 500.062 -0.241824 -1.67665 0
M  V30 5188 O 501.268 -0.410785 -1.7525 0
M  V30 5189 H 497.643 -0.422898 -0.621821 0
M  V30 5190 H 499.614 -2.31359 -1.88455 0
M  V30 5191 C 498.363 -1.19631 -3.26471 0
M  V30 5192 H 497.686 -2.04605 -3.43477 0
M  V30 5193 H 499.126 -1.21748 -4.06144 0
M  V30 5194 C 497.585 0.0968705 -3.36761 0
M  V30 5195 O 498.115 1.07439 -3.87066 0
M  V30 5196 N 496.321 0.153242 -2.90196 0
M  V30 5197 H 495.868 -0.642908 -2.49448 0
M  V30 5198 H 495.826 1.01807 -2.9746 0
M  V30 5199 N 499.598 0.982988 -1.23187 0
M  V30 5200 C 500.844 1.72648 -1.06398 0
M  V30 5201 C 501.177 1.90066 0.398561 0
M  V30 5202 O 500.452 1.45105 1.29518 0
M  V30 5203 C 500.735 3.12627 -1.78707 0
M  V30 5204 C 500.588 3.02795 -3.32618 0
M  V30 5205 C 501.907 4.11997 -1.54747 0
M  V30 5206 H 499.026 0.626649 -0.387918 0
M  V30 5207 H 501.668 1.14455 -1.51658 0
M  V30 5208 H 499.818 3.62308 -1.40234 0
M  V30 5209 H 501.49 2.60659 -3.80598 0
M  V30 5210 H 499.733 2.39362 -3.61785 0
M  V30 5211 H 500.404 4.01893 -3.78399 0
M  V30 5212 H 502.88 3.71114 -1.88186 0
M  V30 5213 H 501.756 5.08037 -2.07821 0
M  V30 5214 H 502.017 4.39462 -0.482249 0
M  V30 5215 N 501.076 1.04316 1.18135 0
M  V30 5216 C 502.325 0.74319 1.87509 0
M  V30 5217 C 502.638 -0.732136 1.81381 0
M  V30 5218 O 503.844 -1.14572 2.46141 0
M  V30 5219 C 502.3 1.27913 3.36402 0
M  V30 5220 C 501.908 2.78326 3.51053 0
M  V30 5221 C 503.652 1.0558 4.11161 0
M  V30 5222 C 501.559 3.25266 4.93919 0
M  V30 5223 H 500.489 0.274313 0.702331 0
M  V30 5224 H 503.14 1.25931 1.33467 0
M  V30 5225 H 501.522 0.690853 3.89927 0
M  V30 5226 H 502.696 3.42933 3.07788 0
M  V30 5227 H 501.011 2.991 2.89704 0
M  V30 5228 H 503.608 1.38161 5.16542 0
M  V30 5229 H 503.951 -0.00684729 4.16299 0
M  V30 5230 H 504.484 1.60882 3.63816 0
M  V30 5231 H 501.223 4.30922 4.9395 0
M  V30 5232 H 500.743 2.65396 5.3789 0
M  V30 5233 H 502.422 3.19433 5.62647 0
M  V30 5234 N 502.554 -1.34406 0.822964 0
M  V30 5235 C 503.784 -2.02214 0.423424 0
M  V30 5236 C 504.192 -1.62124 -0.975322 0
M  V30 5237 O 503.535 -0.822452 -1.6426 0
M  V30 5238 C 503.597 -3.56721 0.446107 0
M  V30 5239 C 503.261 -4.20136 1.79819 0
M  V30 5240 C 504.258 -4.4065 2.75904 0
M  V30 5241 C 501.943 -4.56906 2.08669 0
M  V30 5242 C 503.937 -4.9706 3.99012 0
M  V30 5243 C 501.624 -5.13026 3.32036 0
M  V30 5244 C 502.622 -5.33047 4.27024 0
M  V30 5245 O 502.31 -5.87979 5.48211 0
M  V30 5246 H 502.042 -0.654748 0.168169 0
M  V30 5247 H 504.596 -1.72659 1.11257 0
M  V30 5248 H 502.826 -3.85537 -0.299734 0
M  V30 5249 H 504.515 -4.05845 0.0666114 0
M  V30 5250 H 505.281 -4.12607 2.54912 0
M  V30 5251 H 501.16 -4.40626 1.35535 0
M  V30 5252 H 504.704 -5.12603 4.73164 0
M  V30 5253 H 500.601 -5.40498 3.52891 0
M  V30 5254 H 501.369 -6.06413 5.49732 0
M  V30 5255 N 504.032 -0.577932 -1.46621 0
M  V30 5256 C 504.995 0.147805 -2.28723 0
M  V30 5257 C 505.995 0.823325 -1.38123 0
M  V30 5258 O 507.185 0.676011 -1.60548 0
M  V30 5259 C 504.317 1.21853 -3.18378 0
M  V30 5260 H 505.51 -0.573654 -2.94362 0
M  V30 5261 H 503.063 -0.335703 -1.52652 0
M  V30 5262 H 503.798 1.97173 -2.57475 0
M  V30 5263 H 503.583 0.738714 -3.85078 0
M  V30 5264 H 505.073 1.72768 -3.80186 0
M  V30 5265 N 505.51 1.54411 -0.315457 0
M  V30 5266 C 506.921 1.85885 0.174265 0
M  V30 5267 C 507.272 1.23723 1.52273 0
M  V30 5268 O 506.397 0.540246 2.09548 0
M  V30 5269 C 506.992 3.37257 0.322981 0
M  V30 5270 C 505.551 3.68711 0.756922 0
M  V30 5271 C 504.698 2.77013 -0.126195 0
M  V30 5272 H 507.649 1.49374 -0.536007 0
M  V30 5273 H 507.67 3.62539 1.15522 0
M  V30 5274 H 507.182 3.82471 -0.658602 0
M  V30 5275 H 505.283 3.29024 1.74854 0
M  V30 5276 H 505.396 4.75741 0.566291 0
M  V30 5277 H 503.76 2.51588 0.39692 0
M  V30 5278 H 504.543 3.25051 -1.1044 0
M  V30 5279 N 506.988 0.0434614 1.5754 0
M  V30 5280 C 508.218 -0.640905 1.96408 0
M  V30 5281 C 508.626 -1.65365 0.919297 0
M  V30 5282 O 507.969 -1.83395 -0.105795 0
M  V30 5283 C 508.031 -1.39141 3.31482 0
M  V30 5284 C 507.695 -0.535375 4.53853 0
M  V30 5285 C 508.692 0.195335 5.19533 0
M  V30 5286 C 506.377 -0.468564 5.0011 0
M  V30 5287 C 508.371 0.981377 6.298 0
M  V30 5288 C 506.058 0.321171 6.10255 0
M  V30 5289 C 507.056 1.04484 6.74961 0
M  V30 5290 O 506.744 1.8216 7.8299 0
M  V30 5291 H 506.476 -0.180584 0.651433 0
M  V30 5292 H 509.03 0.103848 2.05137 0
M  V30 5293 H 507.26 -2.18162 3.19284 0
M  V30 5294 H 508.949 -1.96526 3.55151 0
M  V30 5295 H 509.715 0.15314 4.84758 0
M  V30 5296 H 505.594 -1.02142 4.49542 0
M  V30 5297 H 509.138 1.54674 6.80237 0
M  V30 5298 H 505.035 0.365032 6.44467 0
M  V30 5299 H 505.803 1.74289 7.99728 0
M  V30 5300 N 508.466 -1.55915 -0.229846 0
M  V30 5301 C 509.399 -1.86734 -1.3117 0
M  V30 5302 C 510.377 -0.723947 -1.45595 0
M  V30 5303 O 511.561 -0.971462 -1.61539 0
M  V30 5304 C 508.688 -2.06707 -2.68309 0
M  V30 5305 C 507.734 -3.2938 -2.70944 0
M  V30 5306 S 508.567 -4.85547 -2.25842 0
M  V30 5307 C 509.723 -5.08546 -3.64873 0
M  V30 5308 H 509.956 -2.78204 -1.04832 0
M  V30 5309 H 507.489 -1.48243 -0.431681 0
M  V30 5310 H 509.447 -2.18898 -3.47267 0
M  V30 5311 H 508.108 -1.16049 -2.91876 0
M  V30 5312 H 507.301 -3.40374 -3.71701 0
M  V30 5313 H 506.903 -3.16004 -2.00044 0
M  V30 5314 H 509.195 -4.96935 -4.60502 0
M  V30 5315 H 510.138 -6.10465 -3.58801 0
M  V30 5316 H 510.546 -4.36314 -3.58176 0
M  V30 5317 N 509.944 0.496216 -1.49584 0
M  V30 5318 C 511.192 1.24756 -1.58998 0
M  V30 5319 C 511.513 1.92968 -0.280775 0
M  V30 5320 O 510.783 1.82959 0.700198 0
M  V30 5321 H 509.363 0.463471 -0.585836 0
M  V30 5322 H 512.025 0.574678 -1.86235 0
M  V30 5323 H 511.121 2.00895 -2.38847 0
M  V30 5324 N 511.423 1.38739 0.74761 0
M  V30 5325 C 512.648 1.38702 1.54197 0
M  V30 5326 C 513.073 -0.019664 1.8809 0
M  V30 5327 O 512.431 -1.00333 1.51006 0
M  V30 5328 C 512.479 2.25492 2.814 0
M  V30 5329 O 511.583 1.67613 3.76802 0
M  V30 5330 H 510.924 0.472863 0.466151 0
M  V30 5331 H 513.454 1.82577 0.923413 0
M  V30 5332 H 513.464 2.39561 3.30264 0
M  V30 5333 H 512.139 3.27727 2.56062 0
M  V30 5334 H 510.716 1.62718 3.35526 0
M  V30 5335 N 512.901 -0.976442 1.23707 0
M  V30 5336 C 514.178 -1.69296 0.979699 0
M  V30 5337 C 514.558 -2.0508 -0.500555 0
M  V30 5338 O 513.906 -1.74708 -1.47273 0
M  V30 5339 C 514.116 -2.93143 1.89389 0
M  V30 5340 C 515.464 -3.65572 2.15968 0
M  V30 5341 O 516.488 -3.03184 1.86971 0
M  V30 5342 O 515.347 -4.77859 2.65167 0
M  V30 5343 H 512.441 -0.739708 0.369812 0
M  V30 5344 H 514.987 -1.03131 1.34767 0
M  V30 5345 H 513.759 -2.63327 2.89439 0
M  V30 5346 H 513.382 -3.67044 1.52854 0
M  V30 5347 N 514.379 -1.04941 -1.1758 0
M  V30 5348 C 515.795 -0.770282 -1.39781 0
M  V30 5349 C 515.995 0.636417 -1.91186 0
M  V30 5350 O 515.051 1.39923 -2.10185 0
M  V30 5351 C 516.364 -1.82376 -2.3908 0
M  V30 5352 C 517.912 -1.84569 -2.52791 0
M  V30 5353 C 518.387 -2.88933 -3.55361 0
M  V30 5354 N 519.878 -2.8788 -3.62877 0
M  V30 5355 C 520.613 -3.65282 -4.41992 0
M  V30 5356 N 520.109 -4.52461 -5.24643 0
M  V30 5357 N 521.902 -3.53732 -4.36841 0
M  V30 5358 H 514.053 -1.95705 -0.825438 0
M  V30 5359 H 516.316 -0.847284 -0.425222 0
M  V30 5360 H 516.022 -2.83323 -2.08376 0
M  V30 5361 H 515.896 -1.66327 -3.38549 0
M  V30 5362 H 518.283 -0.842879 -2.82807 0
M  V30 5363 H 518.364 -2.04696 -1.53406 0
M  V30 5364 H 518.008 -3.89398 -3.26085 0
M  V30 5365 H 517.938 -2.66059 -4.54445 0
M  V30 5366 H 520.429 -2.24666 -3.03864 0
M  V30 5367 H 520.742 -5.08211 -5.82187 0
M  V30 5368 H 519.087 -4.56524 -5.24033 0
M  V30 5369 H 522.278 -2.85021 -3.71323 0
M  V30 5370 H 522.451 -4.14302 -4.98255 0
M  V30 5371 N 515.857 1.33968 -0.830081 0
M  V30 5372 C 516.807 2.26845 -0.229242 0
M  V30 5373 C 517.791 1.48862 0.610659 0
M  V30 5374 O 518.983 1.70808 0.464067 0
M  V30 5375 C 516.112 3.3798 0.602057 0
M  V30 5376 C 515.198 4.23369 -0.248866 0
M  V30 5377 N 515.589 4.88182 -1.32334 0
M  V30 5378 C 513.887 4.45987 -0.0344077 0
M  V30 5379 C 514.588 5.51671 -1.84482 0
M  V30 5380 N 513.564 5.31348 -1.14762 0
M  V30 5381 H 517.366 2.74464 -1.05104 0
M  V30 5382 H 514.88 1.4777 -0.673623 0
M  V30 5383 H 516.877 4.03494 1.04873 0
M  V30 5384 H 515.537 2.9191 1.42193 0
M  V30 5385 H 516.548 4.88988 -1.70619 0
M  V30 5386 H 513.225 4.10658 0.752727 0
M  V30 5387 H 514.615 6.13308 -2.74413 0
M  V30 5388 N 517.335 0.585699 1.46312 0
M  V30 5389 C 518.583 0.072278 2.01971 0
M  V30 5390 C 518.904 -1.29345 1.45928 0
M  V30 5391 O 518.174 -1.84973 0.645109 0
M  V30 5392 H 516.754 0.023729 0.746623 0
M  V30 5393 H 519.416 0.762155 1.7938 0
M  V30 5394 H 518.512 0.00552767 3.121 0
M  V30 5395 N 518.813 -1.54241 0.323641 0
M  V30 5396 C 520.059 -2.00867 -0.279323 0
M  V30 5397 C 520.392 -1.21146 -1.5178 0
M  V30 5398 O 519.667 -0.29378 -1.92269 0
M  V30 5399 C 519.95 -3.54837 -0.613387 0
M  V30 5400 C 519.803 -4.45284 0.635803 0
M  V30 5401 C 521.122 -4.16186 -1.43099 0
M  V30 5402 H 518.241 -0.730177 -0.100049 0
M  V30 5403 H 520.883 -1.84829 0.440235 0
M  V30 5404 H 519.033 -3.68634 -1.22641 0
M  V30 5405 H 520.705 -4.43357 1.27406 0
M  V30 5406 H 518.948 -4.14956 1.26466 0
M  V30 5407 H 519.619 -5.5084 0.357597 0
M  V30 5408 H 522.095 -4.05964 -0.912814 0
M  V30 5409 H 520.971 -5.24031 -1.6335 0
M  V30 5410 H 521.232 -3.69516 -2.42715 0
M  V30 5411 N 520.291 -0.0518155 -1.57515 0
M  V30 5412 C 521.516 0.634896 -1.97443 0
M  V30 5413 C 521.941 1.63546 -0.929207 0
M  V30 5414 O 521.299 1.80981 0.107484 0
M  V30 5415 C 521.347 1.29765 -3.36442 0
M  V30 5416 O 520.451 2.41333 -3.34413 0
M  V30 5417 H 519.792 0.164994 -0.643174 0
M  V30 5418 H 522.322 -0.120407 -2.04245 0
M  V30 5419 H 522.332 1.64918 -3.73184 0
M  V30 5420 H 521.007 0.564361 -4.12053 0
M  V30 5421 H 519.584 2.08122 -3.09418 0
M  V30 5422 N 521.769 1.56035 0.221574 0
M  V30 5423 C 523.185 1.49026 0.571271 0
M  V30 5424 C 523.385 0.746912 1.87146 0
M  V30 5425 O 522.441 0.286566 2.50869 0
M  V30 5426 C 523.754 2.93579 0.650522 0
M  V30 5427 C 525.302 3.04099 0.741151 0
M  V30 5428 C 525.777 4.5001 0.851747 0
M  V30 5429 N 527.268 4.54053 0.915968 0
M  V30 5430 C 528.003 5.64232 1.02125 0
M  V30 5431 N 527.499 6.84164 1.09049 0
M  V30 5432 N 529.292 5.52084 1.05639 0
M  V30 5433 H 521.443 2.02791 -0.63162 0
M  V30 5434 H 523.706 0.921736 -0.221602 0
M  V30 5435 H 523.412 3.50912 -0.235253 0
M  V30 5436 H 523.286 3.45476 1.51413 0
M  V30 5437 H 525.673 2.4683 1.61737 0
M  V30 5438 H 525.754 2.55371 -0.148128 0
M  V30 5439 H 525.398 5.07896 -0.0200117 0
M  V30 5440 H 525.328 4.96444 1.75644 0
M  V30 5441 H 527.819 3.67683 0.872782 0
M  V30 5442 H 528.132 7.63883 1.1706 0
M  V30 5443 H 526.477 6.86875 1.05962 0
M  V30 5444 H 529.668 4.57317 0.998953 0
M  V30 5445 H 529.841 6.37983 1.13498 0
M  V30 5446 N 523.247 -0.488276 1.49845 0
M  V30 5447 C 524.177 -1.59675 1.70371 0
M  V30 5448 C 525.158 -1.60878 0.552473 0
M  V30 5449 O 526.343 -1.77417 0.78973 0
M  V30 5450 C 523.473 -2.98098 1.782 0
M  V30 5451 C 522.427 -3.11761 2.93239 0
M  V30 5452 C 521.753 -4.51661 2.86193 0
M  V30 5453 C 523.053 -2.90589 4.33999 0
M  V30 5454 H 524.747 -1.42752 2.63177 0
M  V30 5455 H 522.293 -0.685317 1.26647 0
M  V30 5456 H 524.246 -3.75555 1.91144 0
M  V30 5457 H 522.97 -3.16138 0.820018 0
M  V30 5458 H 521.629 -2.36732 2.79917 0
M  V30 5459 H 521.277 -4.66595 1.87877 0
M  V30 5460 H 520.977 -4.61742 3.63412 0
M  V30 5461 H 522.501 -5.31162 3.01163 0
M  V30 5462 H 523.915 -3.57807 4.47936 0
M  V30 5463 H 522.312 -3.1213 5.12538 0
M  V30 5464 H 523.382 -1.86595 4.4756 0
M  V30 5465 N 524.725 -1.39134 -0.740242 0
M  V30 5466 C 525.675 -1.33928 -1.84519 0
M  V30 5467 C 526.659 -0.221097 -1.59374 0
M  V30 5468 O 527.851 -0.458195 -1.70967 0
M  V30 5469 C 524.98 -1.17991 -3.22387 0
M  V30 5470 C 524.066 -2.34488 -3.53378 0
M  V30 5471 N 524.457 -3.59954 -3.5534 0
M  V30 5472 C 522.755 -2.27331 -3.83714 0
M  V30 5473 C 523.456 -4.36962 -3.83978 0
M  V30 5474 N 522.432 -3.66482 -4.01487 0
M  V30 5475 H 526.234 -2.28907 -1.84333 0
M  V30 5476 H 523.748 -1.32555 -0.938237 0
M  V30 5477 H 525.745 -1.12345 -4.01478 0
M  V30 5478 H 524.405 -0.23957 -3.23815 0
M  V30 5479 H 525.416 -3.93448 -3.36778 0
M  V30 5480 H 522.093 -1.41531 -3.92779 0
M  V30 5481 H 523.483 -5.45692 -3.92008 0
M  V30 5482 N 526.204 0.969867 -1.24223 0
M  V30 5483 C 527.45 1.7151 -1.08223 0
M  V30 5484 C 527.783 1.90478 0.37838 0
M  V30 5485 O 527.058 1.4647 1.27971 0
M  V30 5486 C 527.341 3.10714 -1.82013 0
M  V30 5487 C 527.194 2.9925 -3.35811 0
M  V30 5488 C 528.513 4.10332 -1.59108 0
M  V30 5489 H 525.632 0.622499 -0.394543 0
M  V30 5490 H 528.274 1.1284 -1.52863 0
M  V30 5491 H 526.424 3.608 -1.44068 0
M  V30 5492 H 528.096 2.56608 -3.83341 0
M  V30 5493 H 526.339 2.35512 -3.64303 0
M  V30 5494 H 527.01 3.97857 -3.82641 0
M  V30 5495 H 529.486 3.69097 -1.92111 0
M  V30 5496 H 528.362 5.05804 -2.13198 0
M  V30 5497 H 528.623 4.38926 -0.528832 0
M  V30 5498 N 527.682 1.05563 1.17022 0
M  V30 5499 C 528.907 0.788437 1.91829 0
M  V30 5500 C 529.332 -0.650356 1.76499 0
M  V30 5501 O 528.69 -1.45229 1.08527 0
M  V30 5502 C 528.738 1.1786 3.40795 0
M  V30 5503 O 527.842 0.312965 4.11211 0
M  V30 5504 H 527.183 0.288794 0.597908 0
M  V30 5505 H 529.713 1.40948 1.48307 0
M  V30 5506 H 529.723 1.14697 3.91546 0
M  V30 5507 H 528.398 2.22666 3.51273 0
M  V30 5508 H 526.975 0.405515 3.70689 0
M  V30 5509 N 529.16 -1.33526 0.837174 0
M  V30 5510 C 530.406 -1.98541 0.44193 0
M  V30 5511 C 530.761 -1.65124 -0.987517 0
M  V30 5512 O 530.054 -0.919948 -1.6807 0
M  V30 5513 C 530.248 -3.52367 0.597675 0
M  V30 5514 C 530.077 -4.00731 2.04071 0
M  V30 5515 C 528.847 -4.28649 2.67559 0
M  V30 5516 C 531.045 -4.17073 3.00923 0
M  V30 5517 N 529.027 -4.63142 4.02955 0
M  V30 5518 C 530.398 -4.54905 4.21261 0
M  V30 5519 C 532.453 -3.99358 2.97351 0
M  V30 5520 C 531.156 -4.76874 5.38501 0
M  V30 5521 C 533.182 -4.22501 4.1382 0
M  V30 5522 C 532.544 -4.60634 5.32912 0
M  V30 5523 H 528.643 -0.753246 0.210105 0
M  V30 5524 H 531.227 -1.61674 1.08488 0
M  V30 5525 H 529.398 -3.88397 -0.0154658 0
M  V30 5526 H 531.13 -4.04326 0.17404 0
M  V30 5527 H 527.885 -4.20077 2.18706 0
M  V30 5528 H 528.309 -4.84601 4.72748 0
M  V30 5529 H 532.951 -3.68993 2.06408 0
M  V30 5530 H 530.669 -5.06101 6.2999 0
M  V30 5531 H 534.255 -4.10316 4.12471 0
M  V30 5532 H 533.135 -4.78187 6.21536 0
M  V30 5533 N 530.638 -0.59345 -1.46 0
M  V30 5534 C 531.884 -0.0832754 -2.02629 0
M  V30 5535 C 532.217 1.27749 -1.46266 0
M  V30 5536 O 531.492 1.8395 -0.631866 0
M  V30 5537 C 531.775 -0.0290756 -3.60088 0
M  V30 5538 C 531.628 -1.41951 -4.26814 0
M  V30 5539 C 532.947 0.666055 -4.35031 0
M  V30 5540 H 530.066 -0.031736 -0.736316 0
M  V30 5541 H 532.708 -0.762711 -1.74019 0
M  V30 5542 H 530.858 0.549532 -3.84594 0
M  V30 5543 H 532.53 -2.04411 -4.13538 0
M  V30 5544 H 530.773 -1.98422 -3.8576 0
M  V30 5545 H 531.444 -1.33395 -5.3564 0
M  V30 5546 H 533.92 0.174401 -4.15734 0
M  V30 5547 H 532.796 0.673041 -5.44758 0
M  V30 5548 H 533.057 1.72946 -4.06869 0
M  V30 5549 N 532.116 1.54067 -0.331816 0
M  V30 5550 C 533.063 2.24623 0.530372 0
M  V30 5551 C 534.033 1.24009 1.10503 0
M  V30 5552 O 535.218 1.52712 1.14384 0
M  V30 5553 C 532.358 3.01374 1.68129 0
M  V30 5554 C 531.471 4.16821 1.13507 0
M  V30 5555 C 530.606 4.81085 2.25234 0
M  V30 5556 C 529.645 5.88621 1.67903 0
M  V30 5557 N 528.782 6.46713 2.73326 0
M  V30 5558 H 533.622 2.97898 -0.0778607 0
M  V30 5559 H 531.159 1.47014 -0.0501965 0
M  V30 5560 H 533.117 3.44125 2.35868 0
M  V30 5561 H 531.747 2.30419 2.26069 0
M  V30 5562 H 530.799 3.78796 0.348979 0
M  V30 5563 H 532.111 4.94203 0.675633 0
M  V30 5564 H 531.265 5.26846 3.00862 0
M  V30 5565 H 530.004 4.03102 2.74518 0
M  V30 5566 H 529.009 5.42254 0.907773 0
M  V30 5567 H 530.234 6.68506 1.19487 0
M  V30 5568 H 528.18 5.71599 3.21886 0
M  V30 5569 H 528.097 7.19532 2.3197 0
M  V30 5570 H 529.365 6.97129 3.48758 0
M  V30 5571 N 533.594 0.0601682 1.57485 0
M  V30 5572 C 534.819 -0.624416 1.97777 0
M  V30 5573 C 535.244 -1.63051 0.937867 0
M  V30 5574 O 534.602 -1.81036 -0.0978845 0
M  V30 5575 C 534.65 -1.27979 3.37126 0
M  V30 5576 O 533.754 -2.39556 3.35688 0
M  V30 5577 H 533.095 -0.161581 0.64404 0
M  V30 5578 H 535.625 0.131237 2.04179 0
M  V30 5579 H 535.635 -1.62937 3.74053 0
M  V30 5580 H 534.31 -0.542501 4.12347 0
M  V30 5581 H 532.887 -2.06478 3.10517 0
M  V30 5582 N 535.072 -1.5615 -0.213296 0
M  V30 5583 C 536.32 -1.79191 -0.934612 0
M  V30 5584 C 536.641 -0.630112 -1.84539 0
M  V30 5585 O 535.911 0.35257 -1.92701 0
M  V30 5586 H 534.491 -0.660937 -0.348097 0
M  V30 5587 H 537.153 -1.93618 -0.22317 0
M  V30 5588 H 536.249 -2.71656 -1.53654 0
M  V30 5589 N 536.55 0.480323 -1.50102 0
M  V30 5590 C 537.827 1.24159 -1.51142 0
M  V30 5591 C 538.207 2.09605 -0.250818 0
M  V30 5592 O 537.555 2.15274 0.766118 0
M  V30 5593 C 537.765 2.08057 -2.80202 0
M  V30 5594 C 539.113 2.66556 -3.30504 0
M  V30 5595 O 540.137 2.18308 -2.81461 0
M  V30 5596 O 538.996 3.54442 -4.15973 0
M  V30 5597 H 536.09 0.562928 -0.605839 0
M  V30 5598 H 538.636 0.492899 -1.62384 0
M  V30 5599 H 537.408 1.45032 -3.6343 0
M  V30 5600 H 537.031 2.90079 -2.71919 0
M  V30 5601 N 538.028 1.39524 0.732853 0
M  V30 5602 C 539.305 1.27373 1.48444 0
M  V30 5603 C 539.685 -0.115725 2.10783 0
M  V30 5604 O 539.033 -1.12713 1.98766 0
M  V30 5605 C 539.243 2.39966 2.53412 0
M  V30 5606 C 540.591 2.79384 3.19733 0
M  V30 5607 O 541.615 2.39431 2.63725 0
M  V30 5608 O 540.474 3.48353 4.21085 0
M  V30 5609 H 537.568 0.499272 0.659285 0
M  V30 5610 H 540.114 1.51403 0.766496 0
M  V30 5611 H 538.886 3.32845 2.05742 0
M  V30 5612 H 538.509 2.17612 3.32762 0
M  V30 5613 N 539.506 -0.963266 1.24736 0
M  V30 5614 C 540.754 -1.70343 1.08755 0
M  V30 5615 C 541.075 -1.91387 -0.373619 0
M  V30 5616 O 540.345 -1.4948 -1.2662 0
M  V30 5617 H 538.925 -0.631224 0.399456 0
M  V30 5618 H 541.587 -1.15859 1.56725 0
M  V30 5619 H 540.683 -2.68616 1.58909 0
M  V30 5620 N 540.985 -1.06182 -1.16461 0
M  V30 5621 C 541.917 -0.629584 -2.20383 0
M  V30 5622 C 542.93 0.311834 -1.59786 0
M  V30 5623 O 544.119 0.103 -1.78203 0
M  V30 5624 C 541.219 0.0973695 -3.3876 0
M  V30 5625 C 540.392 -0.857252 -4.28917 0
M  V30 5626 C 539.451 -0.169749 -5.25926 0
M  V30 5627 O 538.477 -0.807044 -5.6345 0
M  V30 5628 N 539.679 1.08911 -5.70192 0
M  V30 5629 H 542.444 -1.52352 -2.58087 0
M  V30 5630 H 540.005 -0.944993 -1.31459 0
M  V30 5631 H 541.997 0.567676 -4.00699 0
M  V30 5632 H 540.567 0.893093 -2.99571 0
M  V30 5633 H 539.787 -1.50696 -3.64259 0
M  V30 5634 H 541.075 -1.50489 -4.86035 0
M  V30 5635 H 540.473 1.62703 -5.41797 0
M  V30 5636 H 539.03 1.50331 -6.34227 0
M  V30 5637 N 542.463 1.3308 -0.844243 0
M  V30 5638 C 543.691 2.01808 -0.456203 0
M  V30 5639 C 544.106 1.63498 0.944131 0
M  V30 5640 O 543.463 0.85102 1.61443 0
M  V30 5641 C 543.514 3.56922 -0.573513 0
M  V30 5642 O 543.235 3.93851 -1.91868 0
M  V30 5643 C 544.736 4.42922 -0.183125 0
M  V30 5644 H 541.956 0.646273 -0.180477 0
M  V30 5645 H 544.5 1.69891 -1.1383 0
M  V30 5646 H 542.655 3.87352 0.0607367 0
M  V30 5647 H 543.069 4.88564 -1.90802 0
M  V30 5648 H 544.543 5.51093 -0.316241 0
M  V30 5649 H 545.02 4.30386 0.875477 0
M  V30 5650 H 545.626 4.1786 -0.792027 0
M  V30 5651 N 543.941 0.601185 1.45683 0
M  V30 5652 C 545.187 0.102425 2.03142 0
M  V30 5653 C 545.542 -1.25066 1.46207 0
M  V30 5654 O 544.835 -1.81126 0.624806 0
M  V30 5655 C 545.029 -0.00222425 3.574 0
M  V30 5656 C 544.858 1.33917 4.29298 0
M  V30 5657 C 543.628 1.91818 4.67476 0
M  V30 5658 C 545.826 2.26652 4.61664 0
M  V30 5659 N 543.808 3.19504 5.24204 0
M  V30 5660 C 545.179 3.38933 5.19157 0
M  V30 5661 C 547.234 2.26103 4.43601 0
M  V30 5662 C 545.937 4.50823 5.60492 0
M  V30 5663 C 547.963 3.37036 4.85964 0
M  V30 5664 C 547.325 4.48039 5.43545 0
M  V30 5665 H 543.424 0.0806974 0.777825 0
M  V30 5666 H 546.008 0.798134 1.77589 0
M  V30 5667 H 544.179 -0.66714 3.82627 0
M  V30 5668 H 545.911 -0.507058 4.01511 0
M  V30 5669 H 542.666 1.45097 4.50826 0
M  V30 5670 H 543.09 3.84705 5.57073 0
M  V30 5671 H 547.732 1.41547 3.98402 0
M  V30 5672 H 545.45 5.36108 6.0466 0
M  V30 5673 H 549.036 3.37752 4.73725 0
M  V30 5674 H 547.916 5.32459 5.75723 0
M  V30 5675 N 545.419 -1.53889 0.339982 0
M  V30 5676 C 546.644 -2.05741 -0.261798 0
M  V30 5677 C 547.069 -1.21354 -1.43718 0
M  V30 5678 O 546.427 -0.22645 -1.7988 0
M  V30 5679 C 546.475 -3.54542 -0.658228 0
M  V30 5680 O 545.579 -3.7302 -1.75869 0
M  V30 5681 H 544.92 -0.662529 -0.0441672 0
M  V30 5682 H 547.45 -1.98568 0.493161 0
M  V30 5683 H 547.46 -3.9711 -0.936368 0
M  V30 5684 H 546.135 -4.15412 0.201358 0
M  V30 5685 H 544.712 -3.42355 -1.47809 0
M  V30 5686 N 546.897 -0.0685191 -1.57451 0
M  V30 5687 C 548.125 0.610462 -1.97689 0
M  V30 5688 C 548.54 1.63346 -0.946758 0
M  V30 5689 O 547.897 1.82377 0.0669868 0
M  V30 5690 C 547.948 1.28196 -3.38006 0
M  V30 5691 O 547.669 0.299906 -4.37072 0
M  V30 5692 C 549.17 2.04907 -3.931 0
M  V30 5693 H 546.39 0.165689 -0.650222 0
M  V30 5694 H 548.934 -0.139953 -2.04021 0
M  V30 5695 H 547.089 1.98348 -3.32771 0
M  V30 5696 H 547.503 0.78126 -5.18649 0
M  V30 5697 H 548.977 2.47287 -4.93511 0
M  V30 5698 H 549.454 2.9043 -3.29465 0
M  V30 5699 H 550.06 1.39629 -4.01726 0
M  V30 5700 N 548.375 1.56261 0.205012 0
M  V30 5701 C 549.786 1.70056 0.770574 0
M  V30 5702 C 550.137 0.673398 1.84282 0
M  V30 5703 O 549.262 -0.172196 2.15714 0
M  V30 5704 C 549.857 3.08316 1.40451 0
M  V30 5705 C 548.416 3.2391 1.91727 0
M  V30 5706 C 547.563 2.66001 0.783516 0
M  V30 5707 H 550.514 1.58688 -0.019911 0
M  V30 5708 H 550.535 3.05094 2.27371 0
M  V30 5709 H 550.047 3.83053 0.623882 0
M  V30 5710 H 548.148 2.54072 2.7254 0
M  V30 5711 H 548.261 4.3131 2.08588 0
M  V30 5712 H 546.625 2.24915 1.19521 0
M  V30 5713 H 547.408 3.43297 0.0152883 0
M  V30 5714 N 549.853 -0.472356 1.50355 0
M  V30 5715 C 550.763 -1.59637 1.7191 0
M  V30 5716 C 551.779 -1.63247 0.602195 0
M  V30 5717 O 552.955 -1.81139 0.880369 0
M  V30 5718 C 550.02 -2.9586 1.80742 0
M  V30 5719 C 549.081 -3.02649 3.04471 0
M  V30 5720 C 548.314 -4.32374 3.12872 0
M  V30 5721 O 548.537 -5.22807 2.28099 0
M  V30 5722 O 547.471 -4.44728 4.05587 0
M  V30 5723 H 551.297 -1.44373 2.67189 0
M  V30 5724 H 548.882 -0.651717 1.34436 0
M  V30 5725 H 550.764 -3.7677 1.88739 0
M  V30 5726 H 549.439 -3.11325 0.88647 0
M  V30 5727 H 548.346 -2.20821 3.01975 0
M  V30 5728 H 549.679 -2.92119 3.9614 0
M  V30 5729 N 551.331 -1.39911 -0.725443 0
M  V30 5730 C 552.577 -1.38862 -1.48624 0
M  V30 5731 C 552.932 0.0125913 -1.92396 0
M  V30 5732 O 552.225 0.981046 -1.64578 0
M  V30 5733 C 552.419 -2.30368 -2.7325 0
M  V30 5734 C 552.248 -3.79247 -2.41665 0
M  V30 5735 C 551.018 -4.48119 -2.3349 0
M  V30 5736 C 553.216 -4.70988 -2.06579 0
M  V30 5737 N 551.198 -5.82282 -1.94476 0
M  V30 5738 C 552.569 -5.93873 -1.78087 0
M  V30 5739 C 554.624 -4.58917 -1.9313 0
M  V30 5740 C 553.327 -7.06036 -1.37499 0
M  V30 5741 C 555.353 -5.71012 -1.53946 0
M  V30 5742 C 554.715 -6.92976 -1.26345 0
M  V30 5743 H 550.814 -0.563394 -0.54232 0
M  V30 5744 H 553.398 -1.75542 -0.842213 0
M  V30 5745 H 551.569 -1.95831 -3.35417 0
M  V30 5746 H 553.301 -2.20245 -3.39521 0
M  V30 5747 H 550.056 -4.01677 -2.50904 0
M  V30 5748 H 550.48 -6.53307 -1.77535 0
M  V30 5749 H 555.122 -3.65149 -2.13134 0
M  V30 5750 H 552.84 -7.99697 -1.16237 0
M  V30 5751 H 556.426 -5.63664 -1.44132 0
M  V30 5752 H 555.306 -7.78243 -0.964787 0
M  V30 5753 N 552.809 0.956637 -1.25245 0
M  V30 5754 C 553.739 2.07058 -1.07931 0
M  V30 5755 C 554.72 1.70096 0.0110361 0
M  V30 5756 O 555.905 1.93555 -0.158121 0
M  V30 5757 C 553.035 3.40272 -0.695124 0
M  V30 5758 C 551.989 3.91235 -1.73549 0
M  V30 5759 C 551.315 5.20921 -1.20604 0
M  V30 5760 C 552.615 4.17837 -3.13385 0
M  V30 5761 H 554.309 2.218 -2.01109 0
M  V30 5762 H 551.855 1.06581 -0.968326 0
M  V30 5763 H 553.808 4.1765 -0.560949 0
M  V30 5764 H 552.532 3.25462 0.272355 0
M  V30 5765 H 551.191 3.16025 -1.85807 0
M  V30 5766 H 550.839 5.02479 -0.228846 0
M  V30 5767 H 550.539 5.55987 -1.90136 0
M  V30 5768 H 552.063 6.00897 -1.08421 0
M  V30 5769 H 553.477 4.8588 -3.04292 0
M  V30 5770 H 551.874 4.64154 -3.80369 0
M  V30 5771 H 552.944 3.2419 -3.60595 0
M  V30 5772 N 554.287 1.06798 1.15896 0
M  V30 5773 C 555.515 0.808694 1.90441 0
M  V30 5774 C 555.93 -0.637506 1.77711 0
M  V30 5775 O 555.287 -1.43684 1.12522 0
M  V30 5776 C 555.338 1.20068 3.40978 0
M  V30 5777 O 555.059 2.59013 3.53333 0
M  V30 5778 C 556.56 0.96987 4.3256 0
M  V30 5779 H 553.78 0.292809 0.603742 0
M  V30 5780 H 556.324 1.42296 1.46874 0
M  V30 5781 H 554.479 0.630842 3.82229 0
M  V30 5782 H 554.893 2.7485 4.46719 0
M  V30 5783 H 556.367 1.29371 5.36626 0
M  V30 5784 H 556.844 -0.0941209 4.39099 0
M  V30 5785 H 557.45 1.52433 3.97044 0
M  V30 5786 N 555.766 -1.3263 0.851289 0
M  V30 5787 C 557.043 -1.91982 0.374448 0
M  V30 5788 C 557.423 -1.77568 -1.14161 0
M  V30 5789 O 556.771 -1.1717 -1.96172 0
M  V30 5790 C 556.981 -3.38862 0.835088 0
M  V30 5791 C 558.329 -4.15999 0.850309 0
M  V30 5792 O 559.353 -3.47566 0.779505 0
M  V30 5793 O 558.212 -5.38189 0.949481 0
M  V30 5794 H 555.306 -0.819846 0.10854 0
M  V30 5795 H 557.852 -1.41422 0.937966 0
M  V30 5796 H 556.624 -3.43281 1.87814 0
M  V30 5797 H 556.247 -3.96821 0.248833 0
M  V30 5798 N 557.244 -0.608902 -1.45362 0
M  V30 5799 C 558.174 0.0964526 -2.33301 0
M  V30 5800 C 559.155 0.857444 -1.46908 0
M  V30 5801 O 560.34 0.827735 -1.75676 0
M  V30 5802 C 557.47 1.09354 -3.29635 0
M  V30 5803 C 556.424 0.445676 -4.25673 0
M  V30 5804 C 555.75 1.5511 -5.11708 0
M  V30 5805 C 557.05 -0.633972 -5.18438 0
M  V30 5806 H 558.744 -0.637829 -2.92527 0
M  V30 5807 H 556.29 -0.308178 -1.40664 0
M  V30 5808 H 558.243 1.59556 -3.90025 0
M  V30 5809 H 556.967 1.85843 -2.6857 0
M  V30 5810 H 555.626 -0.0354897 -3.66583 0
M  V30 5811 H 555.274 2.30631 -4.4701 0
M  V30 5812 H 554.974 1.12311 -5.76767 0
M  V30 5813 H 556.498 2.05537 -5.74967 0
M  V30 5814 H 557.912 -0.215974 -5.72893 0
M  V30 5815 H 556.309 -0.983789 -5.91981 0
M  V30 5816 H 557.379 -1.51005 -4.60788 0
M  V30 5817 N 558.722 1.53707 -0.348139 0
M  V30 5818 C 559.672 2.2193 0.522592 0
M  V30 5819 C 560.656 1.20831 1.06248 0
M  V30 5820 O 561.848 1.46357 0.995415 0
M  V30 5821 C 558.977 2.99904 1.6707 0
M  V30 5822 C 558.063 4.08364 1.14454 0
M  V30 5823 N 558.454 5.04656 0.339958 0
M  V30 5824 C 556.752 4.22757 1.421 0
M  V30 5825 C 557.453 5.81675 0.0538806 0
M  V30 5826 N 556.429 5.39739 0.646776 0
M  V30 5827 H 560.231 2.93733 -0.099135 0
M  V30 5828 H 557.745 1.61656 -0.15524 0
M  V30 5829 H 559.742 3.47284 2.30651 0
M  V30 5830 H 558.402 2.29629 2.29566 0
M  V30 5831 H 559.413 5.17896 -0.0193552 0
M  V30 5832 H 556.09 3.63704 2.05002 0
M  V30 5833 H 557.48 6.69256 -0.595443 0
M  V30 5834 N 560.2 0.0768682 1.57412 0
M  V30 5835 C 561.611 -0.455037 1.8107 0
M  V30 5836 C 561.962 -1.69323 0.991162 0
M  V30 5837 O 561.087 -2.15328 0.215156 0
M  V30 5838 C 561.682 -0.832316 3.28417 0
M  V30 5839 C 560.241 -1.30906 3.52903 0
M  V30 5840 C 559.388 -0.296714 2.75708 0
M  V30 5841 H 562.339 0.302514 1.5579 0
M  V30 5842 H 562.36 -1.69333 3.40744 0
M  V30 5843 H 561.872 0.0690532 3.88039 0
M  V30 5844 H 559.973 -2.22875 2.98592 0
M  V30 5845 H 560.086 -1.28348 4.61588 0
M  V30 5846 H 558.45 -0.775059 2.42621 0
M  V30 5847 H 559.233 0.597015 3.38069 0
M  V30 5848 N 561.678 -1.56367 -0.196722 0
M  V30 5849 C 562.955 -1.71359 -0.943159 0
M  V30 5850 C 563.335 -0.631192 -2.01443 0
M  V30 5851 O 562.683 0.358071 -2.25677 0
M  V30 5852 C 562.893 -3.13623 -1.53106 0
M  V30 5853 C 564.241 -3.73806 -2.01381 0
M  V30 5854 O 565.265 -3.16742 -1.62951 0
M  V30 5855 O 564.124 -4.73951 -2.7209 0
M  V30 5856 H 561.218 -0.698851 -0.442195 0
M  V30 5857 H 563.764 -1.68672 -0.186547 0
M  V30 5858 H 562.536 -3.83873 -0.758785 0
M  V30 5859 H 562.159 -3.20532 -2.35255 0
M  V30 5860 N 563.156 0.464375 -1.50603 0
M  V30 5861 C 564.386 1.23727 -1.65454 0
M  V30 5862 C 564.794 1.86119 -0.340032 0
M  V30 5863 O 564.137 1.70301 0.688706 0
M  V30 5864 C 564.199 2.38153 -2.69301 0
M  V30 5865 C 563.863 1.96345 -4.12671 0
M  V30 5866 C 564.86 1.48215 -4.98326 0
M  V30 5867 C 562.545 2.04861 -4.58625 0
M  V30 5868 C 564.539 1.09152 -6.27985 0
M  V30 5869 C 562.226 1.65409 -5.88288 0
M  V30 5870 C 563.224 1.17634 -6.72794 0
M  V30 5871 O 562.912 0.787312 -8.00035 0
M  V30 5872 H 562.644 0.380075 -0.559034 0
M  V30 5873 H 565.198 0.559919 -1.97621 0
M  V30 5874 H 563.428 3.09081 -2.32392 0
M  V30 5875 H 565.117 3.00099 -2.73304 0
M  V30 5876 H 565.883 1.41052 -4.64036 0
M  V30 5877 H 561.762 2.40996 -3.92991 0
M  V30 5878 H 565.306 0.717909 -6.93896 0
M  V30 5879 H 561.203 1.72233 -6.22098 0
M  V30 5880 H 561.971 0.915567 -8.13363 0
M  V30 5881 N 564.634 1.40294 0.718013 0
M  V30 5882 C 566.045 1.34289 1.29705 0
M  V30 5883 C 566.396 0.0152228 1.96194 0
M  V30 5884 O 565.521 -0.88682 1.97394 0
M  V30 5885 C 566.116 2.43219 2.3586 0
M  V30 5886 C 564.675 2.40682 2.89394 0
M  V30 5887 C 563.822 2.24223 1.63154 0
M  V30 5888 H 566.773 1.50135 0.514312 0
M  V30 5889 H 566.794 2.10986 3.16647 0
M  V30 5890 H 566.306 3.39836 1.87439 0
M  V30 5891 H 564.407 1.47756 3.42051 0
M  V30 5892 H 564.52 3.36177 3.41353 0
M  V30 5893 H 562.884 1.71696 1.88129 0
M  V30 5894 H 563.667 3.22834 1.16761 0
M  V30 5895 N 566.112 -0.949982 1.2575 0
M  V30 5896 C 567.34 -1.72972 1.13527 0
M  V30 5897 C 567.755 -1.8623 -0.310453 0
M  V30 5898 O 567.112 -1.36336 -1.2132 0
M  V30 5899 C 567.163 -3.14108 1.78936 0
M  V30 5900 O 566.884 -3.01493 3.17858 0
M  V30 5901 C 568.385 -4.08338 1.72554 0
M  V30 5902 H 565.605 -0.541864 0.395758 0
M  V30 5903 H 568.149 -1.19151 1.66202 0
M  V30 5904 H 566.304 -3.64858 1.30221 0
M  V30 5905 H 566.718 -3.90559 3.50092 0
M  V30 5906 H 568.192 -5.04963 2.22973 0
M  V30 5907 H 568.669 -4.33742 0.690251 0
M  V30 5908 H 569.275 -3.63506 2.2078 0
M  V30 5909 N 567.59 -1.07411 -1.15328 0
M  V30 5910 C 568.836 -0.798831 -1.86404 0
M  V30 5911 C 569.169 0.673433 -1.8215 0
M  V30 5912 O 568.444 1.49428 -1.24505 0
M  V30 5913 C 568.727 -1.30846 -3.35487 0
M  V30 5914 C 568.58 -2.84532 -3.4837 0
M  V30 5915 C 569.899 -0.925486 -4.30259 0
M  V30 5916 H 567.018 -0.291659 -0.676834 0
M  V30 5917 H 569.66 -1.332 -1.35491 0
M  V30 5918 H 567.81 -0.854916 -3.78977 0
M  V30 5919 H 569.482 -3.3818 -3.13739 0
M  V30 5920 H 567.725 -3.22699 -2.8991 0
M  V30 5921 H 568.396 -3.15259 -4.53118 0
M  V30 5922 H 570.872 -1.3163 -3.94731 0
M  V30 5923 H 569.748 -1.3094 -5.33053 0
M  V30 5924 H 570.009 0.168525 -4.41779 0
M  V30 5925 N 569.068 1.32177 -0.85831 0
M  V30 5926 C 570.016 2.30729 -0.294442 0
M  V30 5927 C 571.01 1.59009 0.584165 0
M  V30 5928 O 572.216 1.73713 0.471562 0
M  V30 5929 H 568.591 0.748097 -0.0765171 0
M  V30 5930 H 570.562 2.75774 -1.1398 0
M  V30 5931 C 569.311 3.44098 0.499208 0
M  V30 5932 H 568.634 3.99449 -0.167579 0
M  V30 5933 H 570.074 4.15202 0.859273 0
M  V30 5934 C 568.533 2.91684 1.68588 0
M  V30 5935 O 569.063 2.89481 2.78503 0
M  V30 5936 N 567.269 2.48036 1.51415 0
M  V30 5937 H 566.816 2.50027 0.620006 0
M  V30 5938 H 566.774 2.13322 2.30957 0
M  V30 5939 N 570.547 0.616602 1.45037 0
M  V30 5940 C 571.777 0.121791 2.06241 0
M  V30 5941 C 572.185 -1.20289 1.46038 0
M  V30 5942 O 571.528 -1.7456 0.572242 0
M  V30 5943 C 571.59 -0.0827345 3.59405 0
M  V30 5944 C 571.254 1.16153 4.41993 0
M  V30 5945 C 572.251 2.08183 4.76399 0
M  V30 5946 C 569.936 1.39288 4.82601 0
M  V30 5947 C 571.93 3.21668 5.5028 0
M  V30 5948 C 569.617 2.53073 5.56235 0
M  V30 5949 C 570.615 3.44091 5.89992 0
M  V30 5950 O 570.303 4.55894 6.6213 0
M  V30 5951 H 570.035 0.0701667 0.672349 0
M  V30 5952 H 572.589 0.846877 1.87129 0
M  V30 5953 H 570.819 -0.862812 3.76952 0
M  V30 5954 H 572.508 -0.530273 4.02421 0
M  V30 5955 H 573.274 1.91538 4.45576 0
M  V30 5956 H 569.153 0.693396 4.55755 0
M  V30 5957 H 572.697 3.92733 5.76547 0
M  V30 5958 H 568.594 2.69667 5.86472 0
M  V30 5959 H 569.362 4.5469 6.80587 0
M  V30 5960 N 572.025 -1.5352 0.356285 0
M  V30 5961 C 572.975 -2.22204 -0.510815 0
M  V30 5962 C 573.959 -1.21393 -1.05605 0
M  V30 5963 O 575.151 -1.46883 -0.987639 0
M  V30 5964 C 572.28 -3.00786 -1.65478 0
M  V30 5965 C 571.366 -4.08965 -1.12287 0
M  V30 5966 N 571.757 -5.04829 -0.313191 0
M  V30 5967 C 570.055 -4.23505 -1.39856 0
M  V30 5968 C 570.756 -5.81695 -0.0230322 0
M  V30 5969 N 569.732 -5.40074 -0.618144 0
M  V30 5970 H 573.534 -2.93676 0.114711 0
M  V30 5971 H 571.048 -1.61572 0.163811 0
M  V30 5972 H 573.045 -3.48502 -2.28806 0
M  V30 5973 H 571.705 -2.30843 -2.28345 0
M  V30 5974 H 572.716 -5.17879 0.0468202 0
M  V30 5975 H 569.393 -3.64786 -2.0307 0
M  V30 5976 H 570.783 -6.68931 0.630927 0
M  V30 5977 N 573.503 -0.0852151 -1.57369 0
M  V30 5978 C 574.743 0.584297 -1.95871 0
M  V30 5979 C 575.107 1.6596 -0.965473 0
M  V30 5980 O 576.308 2.38561 -1.23862 0
M  V30 5981 C 574.579 1.13411 -3.38929 0
M  V30 5982 S 576.138 1.81687 -3.99419 0
M  V30 5983 H 572.956 0.19095 -0.684879 0
M  V30 5984 H 575.558 -0.162267 -1.94825 0
M  V30 5985 H 574.262 0.339845 -4.0899 0
M  V30 5986 H 573.793 1.91672 -3.43548 0
M  V30 5987 H 575.808 3.10037 -3.87417 0
M  V30 5988 N 574.981 1.5647 0.188427 0
M  V30 5989 C 575.914 1.90146 1.26173 0
M  V30 5990 C 576.892 0.762294 1.43624 0
M  V30 5991 O 578.076 1.01395 1.58907 0
M  V30 5992 C 575.203 2.13748 2.62735 0
M  V30 5993 C 574.249 3.36448 2.62116 0
M  V30 5994 S 575.082 4.91364 2.12889 0
M  V30 5995 C 576.238 5.18041 3.51261 0
M  V30 5996 H 576.471 2.80886 0.974192 0
M  V30 5997 H 574.004 1.49335 0.392226 0
M  V30 5998 H 575.962 2.28028 3.41341 0
M  V30 5999 H 574.623 1.23747 2.88696 0
M  V30 6000 H 573.816 3.50109 3.62546 0
M  V30 6001 H 573.418 3.21196 1.91596 0
M  V30 6002 H 575.71 5.0897 4.47164 0
M  V30 6003 H 576.653 6.19764 3.42489 0
M  V30 6004 H 577.061 4.45657 3.46482 0
M  V30 6005 N 576.459 -0.456382 1.50847 0
M  V30 6006 C 577.684 -1.2349 1.66628 0
M  V30 6007 C 578.109 -1.84715 0.355254 0
M  V30 6008 O 577.467 -1.67961 -0.682559 0
M  V30 6009 C 577.515 -2.30865 2.77009 0
M  V30 6010 O 576.619 -3.35882 2.39285 0
M  V30 6011 H 575.96 -0.36266 0.556214 0
M  V30 6012 H 578.49 -0.541374 1.97308 0
M  V30 6013 H 578.5 -2.75949 3.00526 0
M  V30 6014 H 577.175 -1.85677 3.72152 0
M  V30 6015 H 575.752 -2.96406 2.26269 0
M  V30 6016 N 577.937 -1.40673 -0.710563 0
M  V30 6017 C 578.87 -1.35742 -1.83438 0
M  V30 6018 C 579.848 -0.226997 -1.61008 0
M  V30 6019 O 581.032 -0.411477 -1.83954 0
M  V30 6020 C 578.159 -1.11374 -3.19865 0
M  V30 6021 C 577.205 -2.26935 -3.61113 0
M  V30 6022 S 578.038 -3.89352 -3.67648 0
M  V30 6023 C 579.194 -3.67258 -5.06826 0
M  V30 6024 H 579.427 -2.30848 -1.87341 0
M  V30 6025 H 576.96 -1.27018 -0.877831 0
M  V30 6026 H 578.918 -0.980004 -3.9863 0
M  V30 6027 H 577.579 -0.179135 -3.13589 0
M  V30 6028 H 576.772 -2.0554 -4.60184 0
M  V30 6029 H 576.374 -2.36638 -2.89618 0
M  V30 6030 H 578.666 -3.26036 -5.93891 0
M  V30 6031 H 579.609 -4.65878 -5.33257 0
M  V30 6032 H 580.017 -3.0084 -4.77656 0
M  V30 6033 N 579.415 0.9433 -1.26252 0
M  V30 6034 C 580.663 1.68592 -1.11451 0
M  V30 6035 C 580.984 1.91957 0.343123 0
M  V30 6036 O 580.254 1.51475 1.24226 0
M  V30 6037 H 578.834 0.624789 -0.409448 0
M  V30 6038 H 581.496 1.13351 -1.58548 0
M  V30 6039 H 580.592 2.66054 -1.63162 0
M  V30 6040 N 580.893 1.08022 1.14757 0
M  V30 6041 C 582.139 0.808705 1.85978 0
M  V30 6042 C 582.472 -0.663764 1.82504 0
M  V30 6043 O 581.747 -1.48765 1.25296 0
M  V30 6044 C 582.03 1.32623 3.34788 0
M  V30 6045 C 581.883 2.86375 3.46856 0
M  V30 6046 C 583.202 0.948291 4.29762 0
M  V30 6047 H 580.321 0.295244 0.675278 0
M  V30 6048 H 582.963 1.33917 1.34783 0
M  V30 6049 H 581.113 0.875002 3.78518 0
M  V30 6050 H 582.785 3.39839 3.11941 0
M  V30 6051 H 581.028 3.24232 2.88194 0
M  V30 6052 H 581.699 3.17658 4.51439 0
M  V30 6053 H 584.175 1.33722 3.94028 0
M  V30 6054 H 583.051 1.33765 5.32352 0
M  V30 6055 H 583.312 -0.145094 4.41862 0
M  V30 6056 N 582.371 -1.3172 0.865308 0
M  V30 6057 C 583.611 -1.98675 0.480365 0
M  V30 6058 C 583.975 -1.66929 -0.948621 0
M  V30 6059 O 585.176 -2.27059 -1.43867 0
M  V30 6060 C 583.447 -3.49972 0.724858 0
M  V30 6061 S 585.006 -4.36598 0.439078 0
M  V30 6062 H 581.824 -0.687967 0.179506 0
M  V30 6063 H 584.426 -1.60215 1.12033 0
M  V30 6064 H 583.13 -3.70567 1.76375 0
M  V30 6065 H 582.661 -3.93335 0.0717173 0
M  V30 6066 H 584.676 -4.90792 -0.730564 0
M  V30 6067 N 583.85 -0.624285 -1.44708 0
M  V30 6068 C 585.266 -0.289322 -1.56956 0
M  V30 6069 C 585.466 1.20773 -1.61295 0
M  V30 6070 O 584.522 1.9915 -1.55227 0
M  V30 6071 C 585.835 -0.975215 -2.84447 0
M  V30 6072 C 587.383 -0.952709 -2.98148 0
M  V30 6073 C 587.858 -1.61893 -4.28433 0
M  V30 6074 N 589.349 -1.5852 -4.35231 0
M  V30 6075 C 590.084 -2.06969 -5.34744 0
M  V30 6076 N 589.58 -2.63579 -6.40701 0
M  V30 6077 N 591.373 -1.97638 -5.26209 0
M  V30 6078 H 583.524 -1.59612 -1.40135 0
M  V30 6079 H 585.787 -0.669592 -0.671081 0
M  V30 6080 H 585.493 -2.02999 -2.87201 0
M  V30 6081 H 585.367 -0.508749 -3.73753 0
M  V30 6082 H 587.754 0.093568 -2.94952 0
M  V30 6083 H 587.835 -1.4576 -2.10209 0
M  V30 6084 H 587.479 -2.66463 -4.32389 0
M  V30 6085 H 587.409 -1.08893 -5.15218 0
M  V30 6086 H 589.899 -1.17183 -3.59272 0
M  V30 6087 H 590.213 -2.98298 -7.12908 0
M  V30 6088 H 588.558 -2.67626 -6.41406 0
M  V30 6089 H 591.749 -1.5314 -4.42341 0
M  V30 6090 H 591.922 -2.35708 -6.03611 0
M  V30 6091 N 585.328 1.53329 -0.364422 0
M  V30 6092 C 586.276 2.27212 0.497737 0
M  V30 6093 C 587.27 1.30146 1.08437 0
M  V30 6094 O 588.476 1.47778 1.0277 0
M  V30 6095 H 584.851 0.730329 0.179232 0
M  V30 6096 H 586.822 2.98037 -0.147182 0
M  V30 6097 C 585.571 3.07333 1.6261 0
M  V30 6098 H 584.894 3.81866 1.184 0
M  V30 6099 H 586.334 3.62209 2.20409 0
M  V30 6100 C 584.793 2.18102 2.56775 0
M  V30 6101 O 585.323 1.79104 3.59562 0
M  V30 6102 N 583.529 1.82759 2.25937 0
M  V30 6103 H 583.076 2.14671 1.42387 0
M  V30 6104 H 583.034 1.23342 2.89196 0
M  V30 6105 N 586.806 0.0935595 1.57322 0
M  V30 6106 C 588.222 -0.263091 1.57417 0
M  V30 6107 C 588.422 -1.68526 1.1046 0
M  V30 6108 O 587.478 -2.40139 0.780357 0
M  V30 6109 C 588.791 -0.0529201 3.00653 0
M  V30 6110 C 590.339 -0.120788 3.12767 0
M  V30 6111 C 590.814 0.0613707 4.57959 0
M  V30 6112 N 592.305 0.00648534 4.632 0
M  V30 6113 C 593.04 0.122699 5.73269 0
M  V30 6114 N 592.536 0.29366 6.92177 0
M  V30 6115 N 594.329 0.0640787 5.62063 0
M  V30 6116 H 586.48 1.02277 1.86154 0
M  V30 6117 H 588.743 0.4007 0.859153 0
M  V30 6118 H 588.449 0.929279 3.39201 0
M  V30 6119 H 588.323 -0.795899 3.68708 0
M  V30 6120 H 590.71 -1.09349 2.74093 0
M  V30 6121 H 590.791 0.653656 2.47307 0
M  V30 6122 H 590.435 1.03093 4.97327 0
M  V30 6123 H 590.365 -0.732748 5.21477 0
M  V30 6124 H 592.856 -0.123173 3.77699 0
M  V30 6125 H 593.169 0.37389 7.71895 0
M  V30 6126 H 591.514 0.329307 6.94219 0
M  V30 6127 H 594.705 -0.0683396 4.6805 0
M  V30 6128 H 594.878 0.158097 6.47807 0
M  V30 6129 N 588.284 -1.56567 -0.180126 0
M  V30 6130 C 589.214 -1.98753 -1.22553 0
M  V30 6131 C 590.195 -0.86175 -1.46656 0
M  V30 6132 O 591.38 -1.12719 -1.58139 0
M  V30 6133 C 588.51 -2.33988 -2.56645 0
M  V30 6134 C 587.464 -3.49445 -2.47128 0
M  V30 6135 C 586.79 -3.70397 -3.8563 0
M  V30 6136 C 588.09 -4.83171 -1.98352 0
M  V30 6137 H 589.784 -2.86332 -0.874896 0
M  V30 6138 H 587.33 -1.37757 -0.419414 0
M  V30 6139 H 589.283 -2.62097 -3.29974 0
M  V30 6140 H 588.007 -1.43309 -2.93479 0
M  V30 6141 H 586.666 -3.2145 -1.76254 0
M  V30 6142 H 586.314 -2.77023 -4.19842 0
M  V30 6143 H 586.014 -4.48077 -3.80132 0
M  V30 6144 H 587.538 -4.00897 -4.60558 0
M  V30 6145 H 588.952 -5.10213 -2.61449 0
M  V30 6146 H 587.349 -5.64425 -2.03823 0
M  V30 6147 H 588.419 -4.75753 -0.937402 0
M  V30 6148 N 589.762 0.448376 -1.51087 0
M  V30 6149 C 591.009 1.19872 -1.63209 0
M  V30 6150 C 591.337 1.91451 -0.343062 0
M  V30 6151 O 590.592 1.83789 0.672321 0
M  V30 6152 C 590.891 2.24866 -2.77795 0
M  V30 6153 C 590.557 1.70378 -4.17471 0
M  V30 6154 C 589.219 1.55241 -4.55471 0
M  V30 6155 C 591.571 1.30203 -5.04675 0
M  V30 6156 C 588.899 0.983844 -5.78392 0
M  V30 6157 C 591.251 0.747798 -6.28165 0
M  V30 6158 C 589.915 0.583233 -6.64947 0
M  V30 6159 H 589.185 0.438642 -0.597222 0
M  V30 6160 H 591.832 0.49136 -1.85089 0
M  V30 6161 H 590.137 3.01598 -2.50092 0
M  V30 6162 H 591.834 2.82723 -2.84374 0
M  V30 6163 H 588.424 1.83134 -3.87505 0
M  V30 6164 H 592.608 1.40723 -4.75932 0
M  V30 6165 H 587.864 0.844007 -6.05546 0
M  V30 6166 H 592.038 0.427927 -6.95084 0
M  V30 6167 H 589.665 0.140532 -7.6007 0
M  V30 6168 N 591.24 1.41047 0.703093 0
M  V30 6169 C 592.203 1.42036 1.79884 0
M  V30 6170 C 593.203 0.312153 1.57741 0
M  V30 6171 O 594.393 0.571672 1.64553 0
M  V30 6172 C 591.525 1.22437 3.18154 0
M  V30 6173 H 592.718 2.39572 1.80403 0
M  V30 6174 H 590.271 1.27079 0.909977 0
M  V30 6175 H 591.006 0.257112 3.23279 0
M  V30 6176 H 590.791 2.02723 3.35627 0
M  V30 6177 H 592.281 1.25946 3.98155 0
M  V30 6178 N 592.718 -0.936591 1.26751 0
M  V30 6179 C 593.651 -2.03619 1.03027 0
M  V30 6180 C 594.629 -1.62534 -0.0464619 0
M  V30 6181 O 595.813 -1.88251 0.0968873 0
M  V30 6182 C 592.94 -3.3402 0.561072 0
M  V30 6183 C 591.986 -3.9408 1.63105 0
M  V30 6184 S 592.819 -4.27782 3.22122 0
M  V30 6185 C 593.975 -5.61277 2.76982 0
M  V30 6186 H 594.208 -2.23429 1.96129 0
M  V30 6187 H 591.741 -1.07857 1.10482 0
M  V30 6188 H 593.699 -4.09424 0.297031 0
M  V30 6189 H 592.36 -3.12147 -0.349741 0
M  V30 6190 H 591.553 -4.88154 1.25386 0
M  V30 6191 H 591.155 -3.25227 1.84671 0
M  V30 6192 H 593.447 -6.40189 2.21731 0
M  V30 6193 H 594.39 -6.03887 3.69766 0
M  V30 6194 H 594.798 -5.21374 2.16402 0
M  V30 6195 N 594.196 -1.08629 -1.14182 0
M  V30 6196 C 595.445 -0.812271 -1.84621 0
M  V30 6197 C 595.758 0.664313 -1.83973 0
M  V30 6198 O 596.964 1.05357 -2.50224 0
M  V30 6199 C 595.42 -1.4031 -3.31423 0
M  V30 6200 C 595.028 -2.91164 -3.40481 0
M  V30 6201 C 596.772 -1.20767 -4.06959 0
M  V30 6202 C 594.679 -3.43373 -4.81507 0
M  V30 6203 H 593.609 -0.30019 -0.691666 0
M  V30 6204 H 596.26 -1.30798 -1.28701 0
M  V30 6205 H 594.642 -0.835096 -3.87094 0
M  V30 6206 H 595.816 -3.5412 -2.94848 0
M  V30 6207 H 594.131 -3.09646 -2.78403 0
M  V30 6208 H 596.728 -1.57237 -5.11058 0
M  V30 6209 H 597.071 -0.147664 -4.16038 0
M  V30 6210 H 597.604 -1.74274 -3.57594 0
M  V30 6211 H 594.343 -4.48958 -4.77616 0
M  V30 6212 H 593.863 -2.85176 -5.27669 0
M  V30 6213 H 595.542 -3.40095 -5.50404 0
M  V30 6214 N 595.674 1.31259 -0.872281 0
M  V30 6215 C 596.584 2.32221 -0.333255 0
M  V30 6216 C 597.6 1.6481 0.558013 0
M  V30 6217 O 598.776 1.96212 0.454175 0
M  V30 6218 C 595.841 3.43708 0.454479 0
M  V30 6219 C 594.902 4.26774 -0.465024 0
M  V30 6220 C 594.135 5.32937 0.28521 0
M  V30 6221 O 594.358 5.49968 1.513 0
M  V30 6222 O 593.292 6.00834 -0.358126 0
M  V30 6223 H 597.118 2.80252 -1.17016 0
M  V30 6224 H 594.703 1.352 -0.635724 0
M  V30 6225 H 596.585 4.11656 0.900963 0
M  V30 6226 H 595.26 2.97836 1.26789 0
M  V30 6227 H 594.167 3.61571 -0.960055 0
M  V30 6228 H 595.5 4.76217 -1.2441 0
M  V30 6229 N 597.152 0.631951 1.44375 0
M  V30 6230 C 598.38 0.143867 2.06399 0
M  V30 6231 C 598.795 -1.18188 1.47231 0
M  V30 6232 O 598.152 -1.72511 0.595498 0
M  V30 6233 C 598.203 0.0238253 3.61492 0
M  V30 6234 O 597.924 1.29715 4.18456 0
M  V30 6235 C 599.425 -0.492856 4.40552 0
M  V30 6236 H 596.645 0.0800542 0.666207 0
M  V30 6237 H 599.189 0.866586 1.85231 0
M  V30 6238 H 597.344 -0.649338 3.81919 0
M  V30 6239 H 597.758 1.14252 5.11905 0
M  V30 6240 H 599.232 -0.525861 5.49489 0
M  V30 6241 H 599.709 -1.52006 4.12057 0
M  V30 6242 H 600.315 0.147085 4.25046 0
M  V30 6243 N 598.631 -1.53133 0.372548 0
M  V30 6244 C 600.047 -1.59585 0.02178 0
M  V30 6245 C 600.247 -1.38736 -1.46132 0
M  V30 6246 O 599.303 -1.19599 -2.22379 0
M  V30 6247 C 600.616 -2.9678 0.483959 0
M  V30 6248 C 602.164 -3.09909 0.438775 0
M  V30 6249 C 602.639 -4.49527 0.876876 0
M  V30 6250 N 604.13 -4.55663 0.832214 0
M  V30 6251 C 604.865 -5.61896 1.14281 0
M  V30 6252 N 604.361 -6.75852 1.52303 0
M  V30 6253 N 606.154 -5.51916 1.06515 0
M  V30 6254 H 598.305 -1.64936 1.33827 0
M  V30 6255 H 600.568 -0.773947 0.547458 0
M  V30 6256 H 600.274 -3.17198 1.51915 0
M  V30 6257 H 600.148 -3.7699 -0.125784 0
M  V30 6258 H 602.535 -2.89197 -0.587294 0
M  V30 6259 H 602.616 -2.31691 1.0841 0
M  V30 6260 H 602.26 -4.70979 1.90109 0
M  V30 6261 H 602.19 -5.26186 0.208727 0
M  V30 6262 H 604.681 -3.73844 0.552195 0
M  V30 6263 H 604.994 -7.52862 1.7441 0
M  V30 6264 H 603.339 -6.77226 1.56175 0
M  V30 6265 H 606.53 -4.6177 0.767235 0
M  V30 6266 H 606.703 -6.34609 1.31053 0
M  V30 6267 N 600.109 -0.101901 -1.5727 0
M  V30 6268 C 601.337 0.568392 -1.98939 0
M  V30 6269 C 601.752 1.61301 -0.981194 0
M  V30 6270 O 601.109 1.82478 0.0282869 0
M  V30 6271 C 601.16 1.20997 -3.40649 0
M  V30 6272 O 600.881 0.207129 -4.3761 0
M  V30 6273 C 602.382 1.96523 -3.97358 0
M  V30 6274 H 599.602 0.15186 -0.65359 0
M  V30 6275 H 602.146 -0.183198 -2.03678 0
M  V30 6276 H 600.301 1.91245 -3.36904 0
M  V30 6277 H 600.715 0.671071 -5.20189 0
M  V30 6278 H 602.189 2.36764 -4.98645 0
M  V30 6279 H 602.666 2.83376 -3.35552 0
M  V30 6280 H 603.272 1.31076 -4.04598 0
M  V30 6281 N 601.587 1.56661 0.17182 0
M  V30 6282 C 602.517 1.99401 1.21498 0
M  V30 6283 C 603.498 0.869516 1.46197 0
M  V30 6284 O 604.683 1.13556 1.57539 0
M  V30 6285 C 601.813 2.35346 2.55401 0
M  V30 6286 C 600.767 3.5075 2.45272 0
M  V30 6287 C 600.093 3.72437 3.8366 0
M  V30 6288 C 601.393 4.84216 1.95787 0
M  V30 6289 H 603.087 2.86792 0.859699 0
M  V30 6290 H 600.633 1.37977 0.412103 0
M  V30 6291 H 602.586 2.63843 3.2858 0
M  V30 6292 H 601.31 1.44864 2.92715 0
M  V30 6293 H 599.969 3.2238 1.74547 0
M  V30 6294 H 599.617 2.79246 4.18367 0
M  V30 6295 H 599.317 4.50087 3.77751 0
M  V30 6296 H 600.841 4.03334 4.58426 0
M  V30 6297 H 602.255 5.11592 2.5874 0
M  V30 6298 H 600.652 5.65498 2.00827 0
M  V30 6299 H 601.722 4.76243 0.912159 0
M  V30 6300 N 603.065 -0.440357 1.51323 0
M  V30 6301 C 604.028 -1.51679 1.71832 0
M  V30 6302 C 605.028 -1.49648 0.588386 0
M  V30 6303 O 606.218 -1.51724 0.855891 0
M  V30 6304 C 603.35 -2.91228 1.77199 0
M  V30 6305 H 604.543 -1.34799 2.67898 0
M  V30 6306 H 602.096 -0.66883 1.41267 0
M  V30 6307 H 602.831 -3.13516 0.829363 0
M  V30 6308 H 602.616 -2.94107 2.59314 0
M  V30 6309 H 604.106 -3.69321 1.94915 0
M  V30 6310 N 604.543 -1.41418 -0.695603 0
M  V30 6311 C 605.49 -1.43264 -1.80954 0
M  V30 6312 C 606.46 -0.287016 -1.63601 0
M  V30 6313 O 607.645 -0.488054 -1.84452 0
M  V30 6314 C 604.785 -1.32054 -3.18835 0
M  V30 6315 C 603.898 -2.56485 -3.4762 0
M  V30 6316 C 603.033 -2.3757 -4.75115 0
M  V30 6317 C 602.072 -3.57477 -4.96867 0
M  V30 6318 N 601.209 -3.37632 -6.15588 0
M  V30 6319 H 606.049 -2.38467 -1.78711 0
M  V30 6320 H 603.586 -1.18415 -0.872715 0
M  V30 6321 H 605.544 -1.23558 -3.98484 0
M  V30 6322 H 604.174 -0.404592 -3.20254 0
M  V30 6323 H 603.226 -2.75432 -2.62376 0
M  V30 6324 H 604.538 -3.45678 -3.59594 0
M  V30 6325 H 603.692 -2.2654 -5.62818 0
M  V30 6326 H 602.431 -1.45834 -4.65386 0
M  V30 6327 H 601.436 -3.68961 -4.07612 0
M  V30 6328 H 602.661 -4.50167 -5.08455 0
M  V30 6329 H 600.607 -2.48596 -6.07072 0
M  V30 6330 H 600.524 -4.20401 -6.2833 0
M  V30 6331 H 601.792 -3.30375 -7.06026 0
M  V30 6332 N 606.021 0.929856 -1.27246 0
M  V30 6333 C 606.969 2.05151 -1.09616 0
M  V30 6334 C 607.963 1.69388 -0.0198617 0
M  V30 6335 O 609.169 1.79124 -0.177417 0
M  V30 6336 H 605.544 0.671909 -0.337701 0
M  V30 6337 H 607.515 2.17168 -2.04648 0
M  V30 6338 C 606.264 3.3934 -0.757851 0
M  V30 6339 H 605.587 3.67343 -1.57795 0
M  V30 6340 H 607.027 4.18603 -0.674358 0
M  V30 6341 C 605.486 3.32582 0.537658 0
M  V30 6342 O 606.016 3.69633 1.57271 0
M  V30 6343 N 604.222 2.8568 0.532478 0
M  V30 6344 H 603.769 2.55725 -0.310233 0
M  V30 6345 H 603.727 2.81541 1.39936 0
M  V30 6346 N 607.499 1.09233 1.13605 0
M  V30 6347 C 608.462 0.733553 2.17144 0
M  V30 6348 C 609.462 -0.235873 1.59061 0
M  V30 6349 O 610.652 -0.0143167 1.74194 0
M  V30 6350 C 607.784 0.084471 3.40795 0
M  V30 6351 H 608.977 1.65049 2.50397 0
M  V30 6352 H 606.53 0.891264 1.28399 0
M  V30 6353 H 607.265 -0.843795 3.1313 0
M  V30 6354 H 607.05 0.781985 3.84223 0
M  V30 6355 H 608.54 -0.151216 4.17326 0
M  V30 6356 N 608.977 -1.30795 0.87923 0
M  V30 6357 C 609.907 -2.30742 0.357796 0
M  V30 6358 C 610.888 -1.60747 -0.556283 0
M  V30 6359 O 612.073 -1.88393 -0.47135 0
M  V30 6360 C 609.203 -3.44583 -0.433555 0
M  V30 6361 C 608.157 -4.26235 0.388251 0
M  V30 6362 C 607.483 -5.32073 -0.529352 0
M  V30 6363 C 608.783 -4.96303 1.62729 0
M  V30 6364 H 610.477 -2.74605 1.19299 0
M  V30 6365 H 608.023 -1.32017 0.575104 0
M  V30 6366 H 609.976 -4.13563 -0.808934 0
M  V30 6367 H 608.7 -2.99511 -1.30234 0
M  V30 6368 H 607.359 -3.58936 0.745695 0
M  V30 6369 H 607.007 -4.83249 -1.39569 0
M  V30 6370 H 606.707 -5.87598 0.0166741 0
M  V30 6371 H 608.231 -6.0391 -0.901373 0
M  V30 6372 H 609.645 -5.5783 1.32283 0
M  V30 6373 H 608.042 -5.61666 2.11309 0
M  V30 6374 H 609.112 -4.22758 2.37494 0
M  V30 6375 N 610.455 -0.639598 -1.44038 0
M  V30 6376 C 611.683 -0.154811 -2.0632 0
M  V30 6377 C 612.098 1.17406 -1.47856 0
M  V30 6378 O 611.455 1.72193 -0.604638 0
M  V30 6379 C 611.506 -0.0429958 -3.61474 0
M  V30 6380 O 611.227 -1.31932 -4.17763 0
M  V30 6381 C 612.728 0.469486 -4.40807 0
M  V30 6382 H 609.948 -0.0835862 -0.665773 0
M  V30 6383 H 612.492 -0.876397 -1.84769 0
M  V30 6384 H 610.647 0.629075 -3.82258 0
M  V30 6385 H 611.061 -1.16965 -5.11292 0
M  V30 6386 H 612.535 0.496712 -5.49761 0
M  V30 6387 H 613.012 1.49819 -4.12857 0
M  V30 6388 H 613.618 -0.169624 -4.24962 0
M  V30 6389 N 611.933 1.52934 -0.380664 0
M  V30 6390 C 612.881 2.27727 0.47361 0
M  V30 6391 C 613.875 1.31288 1.0705 0
M  V30 6392 O 615.081 1.4886 1.01197 0
M  V30 6393 H 611.456 0.732189 0.171475 0
M  V30 6394 H 613.427 2.97864 -0.178785 0
M  V30 6395 C 612.176 3.0904 1.59341 0
M  V30 6396 H 611.499 3.831 1.14343 0
M  V30 6397 H 612.939 3.64527 2.16555 0
M  V30 6398 C 611.398 2.20813 2.54447 0
M  V30 6399 O 611.928 1.82907 3.57642 0
M  V30 6400 N 610.134 1.85145 2.23986 0
M  V30 6401 H 609.681 2.16169 1.40103 0
M  V30 6402 H 609.639 1.26402 2.87871 0
M  V30 6403 N 613.412 0.11024 1.57214 0
M  V30 6404 C 614.652 -0.553061 1.96775 0
M  V30 6405 C 615.016 -1.64403 0.991753 0
M  V30 6406 O 616.217 -2.36561 1.27642 0
M  V30 6407 C 614.488 -1.08004 3.4069 0
M  V30 6408 S 616.047 -1.75309 4.02259 0
M  V30 6409 H 612.865 -0.18003 0.68783 0
M  V30 6410 H 615.467 0.193242 1.94543 0
M  V30 6411 H 614.171 -0.274735 4.09479 0
M  V30 6412 H 613.702 -1.86182 3.46554 0
M  V30 6413 H 615.717 -3.03834 3.923 0
M  V30 6414 N 614.89 -1.56749 -0.16351 0
M  V30 6415 C 615.853 -1.96121 -1.18613 0
M  V30 6416 C 616.853 -0.845765 -1.36761 0
M  V30 6417 O 618.043 -1.11268 -1.34033 0
M  V30 6418 C 615.175 -2.26282 -2.54969 0
M  V30 6419 H 616.368 -2.87639 -0.848764 0
M  V30 6420 H 613.921 -1.50928 -0.406251 0
M  V30 6421 H 614.656 -1.37504 -2.93706 0
M  V30 6422 H 614.441 -3.07595 -2.43162 0
M  V30 6423 H 615.931 -2.57638 -3.28653 0
M  V30 6424 N 616.368 0.432326 -1.51554 0
M  V30 6425 C 617.298 1.53242 -1.76179 0
M  V30 6426 C 618.279 1.58717 -0.611801 0
M  V30 6427 O 619.464 1.74364 -0.855033 0
M  V30 6428 C 616.594 2.91278 -1.89141 0
M  V30 6429 C 615.548 3.00663 -3.04608 0
M  V30 6430 C 614.874 4.40728 -3.02759 0
M  V30 6431 C 616.174 2.74281 -4.44485 0
M  V30 6432 H 617.868 1.32886 -2.68294 0
M  V30 6433 H 615.414 0.637841 -1.29103 0
M  V30 6434 H 617.367 3.68203 -2.04951 0
M  V30 6435 H 616.091 3.12877 -0.936785 0
M  V30 6436 H 614.75 2.26179 -2.88511 0
M  V30 6437 H 614.398 4.59301 -2.05065 0
M  V30 6438 H 614.098 4.47936 -3.80299 0
M  V30 6439 H 615.622 5.19619 -3.20669 0
M  V30 6440 H 617.036 3.40936 -4.60907 0
M  V30 6441 H 615.433 2.92893 -5.23769 0
M  V30 6442 H 616.503 1.69856 -4.54177 0
M  V30 6443 N 617.846 1.41785 0.688094 0
M  V30 6444 C 619.092 1.42753 1.4489 0
M  V30 6445 C 619.447 0.0384235 1.92362 0
M  V30 6446 O 618.74 -0.937066 1.67122 0
M  V30 6447 C 618.934 2.37532 2.67046 0
M  V30 6448 C 618.763 3.85521 2.31525 0
M  V30 6449 C 617.533 4.54152 2.21527 0
M  V30 6450 C 619.731 4.76299 1.94019 0
M  V30 6451 N 617.713 5.87233 1.78969 0
M  V30 6452 C 619.084 5.98386 1.62279 0
M  V30 6453 C 621.139 4.63877 1.80895 0
M  V30 6454 C 619.842 7.09433 1.18732 0
M  V30 6455 C 621.868 5.74893 1.38752 0
M  V30 6456 C 621.23 6.96083 1.07927 0
M  V30 6457 H 617.329 0.577575 0.527192 0
M  V30 6458 H 619.913 1.77713 0.795375 0
M  V30 6459 H 618.084 2.04656 3.30107 0
M  V30 6460 H 619.816 2.29169 3.33562 0
M  V30 6461 H 616.571 4.08188 2.40166 0
M  V30 6462 H 616.995 6.57785 1.60151 0
M  V30 6463 H 621.637 3.70671 2.03378 0
M  V30 6464 H 619.355 8.02497 0.949937 0
M  V30 6465 H 622.941 5.67287 1.29136 0
M  V30 6466 H 621.821 7.80527 0.758111 0
M  V30 6467 N 619.324 -0.923095 1.27737 0
M  V30 6468 C 620.601 -1.64989 1.05062 0
M  V30 6469 C 620.981 -2.07018 -0.413124 0
M  V30 6470 O 620.329 -1.80797 -1.39731 0
M  V30 6471 C 620.539 -2.84847 2.01652 0
M  V30 6472 C 621.887 -3.56083 2.31279 0
M  V30 6473 O 622.911 -2.94981 1.99662 0
M  V30 6474 O 621.77 -4.66182 2.85196 0
M  V30 6475 H 618.864 -0.723357 0.400853 0
M  V30 6476 H 621.41 -0.973224 1.3902 0
M  V30 6477 H 620.182 -2.50814 3.00347 0
M  V30 6478 H 619.805 -3.60231 1.68284 0
M  V30 6479 N 620.802 -1.09834 -1.13024 0
M  V30 6480 C 622.218 -0.828875 -1.36388 0
M  V30 6481 C 622.418 0.554756 -1.93713 0
M  V30 6482 O 621.474 1.30882 -2.15931 0
M  V30 6483 C 622.787 -1.92352 -2.3113 0
M  V30 6484 C 624.335 -1.95124 -2.44735 0
M  V30 6485 C 624.81 -3.03745 -3.42787 0
M  V30 6486 N 626.301 -3.03012 -3.5034 0
M  V30 6487 C 627.036 -3.83699 -4.26101 0
M  V30 6488 N 626.532 -4.74306 -5.04981 0
M  V30 6489 N 628.325 -3.71942 -4.21445 0
M  V30 6490 H 620.476 -1.99029 -0.74169 0
M  V30 6491 H 622.739 -0.864557 -0.388903 0
M  V30 6492 H 622.445 -2.91906 -1.96172 0
M  V30 6493 H 622.319 -1.80536 -3.3119 0
M  V30 6494 H 624.706 -0.962069 -2.78977 0
M  V30 6495 H 624.787 -2.11018 -1.44586 0
M  V30 6496 H 624.431 -4.02878 -3.09276 0
M  V30 6497 H 624.361 -2.85094 -4.42752 0
M  V30 6498 H 626.852 -2.37352 -2.94062 0
M  V30 6499 H 627.165 -5.32446 -5.60108 0
M  V30 6500 H 625.51 -4.78339 -5.04199 0
M  V30 6501 H 628.701 -3.00513 -3.589 0
M  V30 6502 H 628.874 -4.35062 -4.80235 0
M  V30 6503 N 622.28 1.30327 -0.886154 0
M  V30 6504 C 623.691 1.78243 -0.555554 0
M  V30 6505 C 624.042 1.72849 0.928314 0
M  V30 6506 O 623.167 1.30607 1.72542 0
M  V30 6507 C 623.762 3.23654 -1.00168 0
M  V30 6508 C 622.321 3.69401 -0.722471 0
M  V30 6509 C 621.468 2.50753 -1.18399 0
M  V30 6510 H 624.419 1.1718 -1.07026 0
M  V30 6511 H 624.44 3.79056 -0.331152 0
M  V30 6512 H 623.952 3.27548 -2.08169 0
M  V30 6513 H 622.053 3.70995 0.345496 0
M  V30 6514 H 622.166 4.60818 -1.31085 0
M  V30 6515 H 620.53 2.47452 -0.603303 0
M  V30 6516 H 621.313 2.57383 -2.27176 0
M  V30 6517 N 623.758 0.647228 1.43697 0
M  V30 6518 C 624.691 -0.097646 2.27991 0
M  V30 6519 C 625.669 -0.83571 1.3948 0
M  V30 6520 O 626.853 -0.836509 1.68922 0
M  V30 6521 C 623.98 -1.14484 3.18765 0
M  V30 6522 C 623.026 -0.505503 4.23494 0
M  V30 6523 S 623.859 0.716471 5.30685 0
M  V30 6524 C 625.015 -0.330339 6.25028 0
M  V30 6525 H 625.248 0.617417 2.90818 0
M  V30 6526 H 622.781 0.435881 1.4812 0
M  V30 6527 H 624.739 -1.74403 3.7161 0
M  V30 6528 H 623.4 -1.83219 2.55127 0
M  V30 6529 H 622.593 -1.29473 4.87086 0
M  V30 6530 H 622.195 0.0194377 3.73995 0
M  V30 6531 H 624.487 -1.19828 6.66819 0
M  V30 6532 H 625.43 0.270409 7.07583 0
M  V30 6533 H 625.838 -0.663459 5.60588 0
M  V30 6534 N 625.236 -1.5273 0.388769 0
M  V30 6535 C 626.461 -2.0647 -0.19621 0
M  V30 6536 C 626.886 -1.25865 -1.39784 0
M  V30 6537 O 626.244 -0.283562 -1.79069 0
M  V30 6538 C 626.292 -3.56456 -0.5451 0
M  V30 6539 O 625.396 -3.78426 -1.63912 0
M  V30 6540 H 624.737 -0.663599 -0.023067 0
M  V30 6541 H 627.267 -1.96898 0.556084 0
M  V30 6542 H 627.277 -3.99888 -0.809557 0
M  V30 6543 H 625.952 -4.14561 0.333417 0
M  V30 6544 H 624.529 -3.46884 -1.36842 0
M  V30 6545 N 626.714 -0.118576 -1.57153 0
M  V30 6546 C 628.13 0.238014 -1.57815 0
M  V30 6547 C 628.33 1.66747 -1.13127 0
M  V30 6548 O 627.386 2.38867 -0.818462 0
M  V30 6549 C 628.699 0.00508207 -3.007 0
M  V30 6550 C 630.247 0.0710139 -3.12919 0
M  V30 6551 C 630.722 -0.13422 -4.57803 0
M  V30 6552 N 632.213 -0.0801755 -4.63131 0
M  V30 6553 C 632.948 -0.213885 -5.73001 0
M  V30 6554 N 632.444 -0.403742 -6.91623 0
M  V30 6555 N 634.237 -0.15349 -5.6189 0
M  V30 6556 H 626.388 -1.05226 -1.84503 0
M  V30 6557 H 628.651 -0.414318 -0.852669 0
M  V30 6558 H 628.357 -0.983125 -3.3768 0
M  V30 6559 H 628.231 0.73714 -3.69927 0
M  V30 6560 H 630.618 1.04975 -2.75798 0
M  V30 6561 H 630.699 -0.692918 -2.46236 0
M  V30 6562 H 630.343 -1.10992 -4.95624 0
M  V30 6563 H 630.273 0.649692 -5.22577 0
M  V30 6564 H 632.764 0.0630689 -3.77847 0
M  V30 6565 H 633.077 -0.496645 -7.71202 0
M  V30 6566 H 631.422 -0.43971 -6.93608 0
M  V30 6567 H 634.613 -0.00613174 -4.681 0
M  V30 6568 H 634.786 -0.261138 -6.47474 0
M  V30 6569 N 628.193 1.56834 0.155195 0
M  V30 6570 C 629.418 1.87412 0.888337 0
M  V30 6571 C 629.843 0.70671 1.74319 0
M  V30 6572 O 629.201 -0.343892 1.78009 0
M  V30 6573 C 629.249 3.1652 1.72765 0
M  V30 6574 O 628.353 2.99877 2.83103 0
M  V30 6575 H 627.694 0.615983 0.247914 0
M  V30 6576 H 630.224 2.04061 0.148478 0
M  V30 6577 H 630.234 3.48334 2.12433 0
M  V30 6578 H 628.909 4.01094 1.09985 0
M  V30 6579 H 627.486 2.79453 2.46902 0
M  V30 6580 N 629.671 -0.424282 1.51781 0
M  V30 6581 C 630.601 -1.52305 1.7699 0
M  V30 6582 C 631.582 -1.5839 0.620209 0
M  V30 6583 O 632.767 -1.73908 0.864268 0
M  V30 6584 C 629.897 -2.90271 1.90683 0
M  V30 6585 C 628.851 -2.99043 3.06198 0
M  V30 6586 C 628.177 -4.39116 3.05092 0
M  V30 6587 C 629.477 -2.7192 4.45934 0
M  V30 6588 H 631.171 -1.31461 2.68995 0
M  V30 6589 H 628.717 -0.630985 1.29439 0
M  V30 6590 H 630.67 -3.6711 2.06901 0
M  V30 6591 H 629.394 -3.12376 0.953365 0
M  V30 6592 H 628.053 -2.24646 2.89706 0
M  V30 6593 H 627.701 -4.58207 2.07498 0
M  V30 6594 H 627.401 -4.45912 3.82669 0
M  V30 6595 H 628.925 -5.17911 3.2342 0
M  V30 6596 H 630.339 -3.38487 4.62709 0
M  V30 6597 H 628.736 -2.90111 5.25315 0
M  V30 6598 H 629.806 -1.67445 4.55072 0
M  V30 6599 N 631.149 -1.42148 -0.680565 0
M  V30 6600 C 632.099 -1.41634 -1.78672 0
M  V30 6601 C 633.083 -0.288494 -1.58293 0
M  V30 6602 O 634.275 -0.530295 -1.68869 0
M  V30 6603 C 631.404 -1.31558 -3.17092 0
M  V30 6604 C 630.49 -2.49265 -3.43115 0
M  V30 6605 N 630.881 -3.74702 -3.39753 0
M  V30 6606 C 629.179 -2.43401 -3.73727 0
M  V30 6607 C 629.88 -4.52854 -3.651 0
M  V30 6608 N 628.856 -3.83181 -3.85582 0
M  V30 6609 H 632.658 -2.3652 -1.74458 0
M  V30 6610 H 630.172 -1.36415 -0.881171 0
M  V30 6611 H 632.169 -1.29272 -3.96351 0
M  V30 6612 H 630.829 -0.376696 -3.22508 0
M  V30 6613 H 631.84 -4.07378 -3.19787 0
M  V30 6614 H 628.517 -1.58062 -3.86423 0
M  V30 6615 H 629.907 -5.61827 -3.6851 0
M  V30 6616 N 632.627 0.916307 -1.28225 0
M  V30 6617 C 633.557 2.0352 -1.14464 0
M  V30 6618 C 634.538 1.70045 -0.0430844 0
M  V30 6619 O 635.723 1.92954 -0.219619 0
M  V30 6620 C 632.853 3.37889 -0.803027 0
M  V30 6621 C 631.807 3.85516 -1.85908 0
M  V30 6622 C 631.133 5.1682 -1.37116 0
M  V30 6623 C 632.433 4.07655 -3.26519 0
M  V30 6624 H 634.127 2.1529 -2.08064 0
M  V30 6625 H 631.673 1.03446 -1.00174 0
M  V30 6626 H 633.626 4.15654 -0.693537 0
M  V30 6627 H 632.35 3.26164 0.168674 0
M  V30 6628 H 631.009 3.09953 -1.95767 0
M  V30 6629 H 630.657 5.01497 -0.38859 0
M  V30 6630 H 630.357 5.49657 -2.07728 0
M  V30 6631 H 631.881 5.97143 -1.27484 0
M  V30 6632 H 633.295 4.75953 -3.19596 0
M  V30 6633 H 631.692 4.51818 -3.94943 0
M  V30 6634 H 632.762 3.12553 -3.70727 0
M  V30 6635 N 634.105 1.10431 1.1244 0
M  V30 6636 C 635.333 0.868872 1.87772 0
M  V30 6637 C 635.748 -0.580645 1.7965 0
M  V30 6638 O 635.105 -1.40031 1.17036 0
M  V30 6639 C 635.156 1.30855 3.36986 0
M  V30 6640 O 634.877 2.70123 3.44914 0
M  V30 6641 C 636.378 1.107 4.29256 0
M  V30 6642 H 633.598 0.311868 0.59412 0
M  V30 6643 H 636.142 1.46897 1.42273 0
M  V30 6644 H 634.297 0.752126 3.80029 0
M  V30 6645 H 634.711 2.88923 4.37748 0
M  V30 6646 H 636.185 1.46378 5.32238 0
M  V30 6647 H 636.662 0.0456228 4.39176 0
M  V30 6648 H 637.268 1.64988 3.91994 0
M  V30 6649 N 635.583 -1.29855 0.893053 0
M  V30 6650 C 636.831 -1.9544 0.514566 0
M  V30 6651 C 637.152 -1.70795 -0.940959 0
M  V30 6652 O 636.422 -1.03601 -1.66264 0
M  V30 6653 H 635.002 -0.723137 0.187302 0
M  V30 6654 H 637.664 -1.58234 1.13789 0
M  V30 6655 H 636.76 -3.04341 0.691581 0
M  V30 6656 N 637.061 -0.65484 -1.43351 0
M  V30 6657 C 638.309 -0.168559 -2.01396 0
M  V30 6658 C 638.63 1.22235 -1.51933 0
M  V30 6659 O 637.9 1.81685 -0.732627 0
M  V30 6660 H 636.48 -0.0593244 -0.744641 0
M  V30 6661 H 639.142 -0.846871 -1.75539 0
M  V30 6662 H 638.238 -0.154428 -3.11718 0
M  V30 6663 N 638.539 1.52521 -0.396863 0
M  V30 6664 C 639.788 2.00857 0.184184 0
M  V30 6665 C 640.101 1.28733 1.47265 0
M  V30 6666 O 641.307 1.67821 2.13421 0
M  V30 6667 C 639.763 3.57901 0.378787 0
M  V30 6668 C 639.371 4.38931 -0.896873 0
M  V30 6669 C 641.115 4.14504 0.915789 0
M  V30 6670 C 639.022 5.87591 -0.670133 0
M  V30 6671 H 637.952 0.750496 0.0726055 0
M  V30 6672 H 640.603 1.75965 -0.520425 0
M  V30 6673 H 638.985 3.79072 1.14543 0
M  V30 6674 H 640.159 4.29524 -1.66872 0
M  V30 6675 H 638.474 3.93586 -1.35938 0
M  V30 6676 H 641.071 5.23236 1.10126 0
M  V30 6677 H 641.414 3.71076 1.88701 0
M  V30 6678 H 641.947 3.97253 0.208523 0
M  V30 6679 H 638.686 6.35355 -1.61257 0
M  V30 6680 H 638.206 5.99767 0.0626368 0
M  V30 6681 H 639.885 6.46268 -0.307577 0
M  V30 6682 N 640.017 0.126909 1.57088 0
M  V30 6683 C 641.245 -0.53667 1.99819 0
M  V30 6684 C 641.66 -1.5972 1.00673 0
M  V30 6685 O 641.017 -1.825 0.000747365 0
M  V30 6686 C 641.068 -1.15563 3.42531 0
M  V30 6687 O 640.789 -0.137483 4.37884 0
M  V30 6688 C 642.29 -1.90176 4.00435 0
M  V30 6689 H 639.51 -0.141443 0.655923 0
M  V30 6690 H 642.054 0.215578 2.03361 0
M  V30 6691 H 640.209 -1.85861 3.39904 0
M  V30 6692 H 640.623 -0.588229 5.21191 0
M  V30 6693 H 642.097 -2.28801 5.02349 0
M  V30 6694 H 642.574 -2.78002 3.40017 0
M  V30 6695 H 643.18 -1.24623 4.06632 0
M  V30 6696 N 641.495 -1.56914 -0.146875 0
M  V30 6697 C 642.442 -1.98275 -1.18134 0
M  V30 6698 C 643.412 -0.850367 -1.42681 0
M  V30 6699 O 644.597 -1.11244 -1.55014 0
M  V30 6700 C 641.737 -2.36861 -2.5098 0
M  V30 6701 C 640.85 -3.63391 -2.33605 0
M  V30 6702 C 639.985 -3.91079 -3.59486 0
M  V30 6703 C 639.024 -5.10879 -3.37149 0
M  V30 6704 N 638.161 -5.34577 -4.55161 0
M  V30 6705 H 643.001 -2.8645 -0.821622 0
M  V30 6706 H 640.538 -1.41718 -0.394248 0
M  V30 6707 H 642.496 -2.57262 -3.28439 0
M  V30 6708 H 641.126 -1.51766 -2.84898 0
M  V30 6709 H 640.178 -3.50766 -1.47199 0
M  V30 6710 H 641.49 -4.51007 -2.13059 0
M  V30 6711 H 640.644 -4.11979 -4.45374 0
M  V30 6712 H 639.383 -3.01885 -3.83036 0
M  V30 6713 H 638.388 -4.89853 -2.49649 0
M  V30 6714 H 639.613 -6.01626 -3.14997 0
M  V30 6715 H 637.559 -4.48337 -4.78884 0
M  V30 6716 H 637.476 -6.16463 -4.37618 0
M  V30 6717 H 638.744 -5.59975 -5.42263 0
M  V30 6718 N 642.974 0.416227 -1.52004 0
M  V30 6719 C 643.937 1.48926 -1.74223 0
M  V30 6720 C 644.937 1.48693 -0.612119 0
M  V30 6721 O 646.127 1.50343 -0.879921 0
M  V30 6722 C 643.259 2.88372 -1.81809 0
M  V30 6723 H 644.452 1.3052 -2.70008 0
M  V30 6724 H 642.005 0.646271 -1.42313 0
M  V30 6725 H 642.74 3.12157 -0.879135 0
M  V30 6726 H 642.525 2.89944 -2.6396 0
M  V30 6727 H 644.015 3.66173 -2.00766 0
M  V30 6728 N 644.452 1.42507 0.673017 0
M  V30 6729 C 645.415 1.4582 1.76831 0
M  V30 6730 C 646.415 0.345542 1.57043 0
M  V30 6731 O 647.605 0.606447 1.63303 0
M  V30 6732 C 644.737 1.29158 3.15485 0
M  V30 6733 H 645.93 2.43345 1.7528 0
M  V30 6734 H 643.483 1.28981 0.882817 0
M  V30 6735 H 644.218 0.325626 3.22661 0
M  V30 6736 H 644.003 2.09797 3.31252 0
M  V30 6737 H 645.493 1.34363 3.95394 0
M  V30 6738 N 645.93 -0.909495 1.28709 0
M  V30 6739 C 646.878 -2.03381 1.12866 0
M  V30 6740 C 647.872 -1.69335 0.0468074 0
M  V30 6741 O 649.078 -1.78819 0.205891 0
M  V30 6742 H 645.453 -0.666452 0.348348 0
M  V30 6743 H 647.424 -2.13885 2.08077 0
M  V30 6744 C 646.173 -3.38092 0.811742 0
M  V30 6745 H 645.496 -3.64786 1.63619 0
M  V30 6746 H 646.936 -4.17477 0.740869 0
M  V30 6747 C 645.395 -3.33395 -0.484679 0
M  V30 6748 O 645.925 -3.72089 -1.5137 0
M  V30 6749 N 644.131 -2.86491 -0.486961 0
M  V30 6750 H 643.678 -2.55199 0.350877 0
M  V30 6751 H 643.636 -2.83731 -1.3544 0
M  V30 6752 N 647.408 -1.11026 -1.11852 0
M  V30 6753 C 648.34 -0.72249 -2.17515 0
M  V30 6754 C 649.353 0.243782 -1.60964 0
M  V30 6755 O 650.542 0.0273252 -1.78479 0
M  V30 6756 C 647.642 -0.0463979 -3.38868 0
M  V30 6757 C 646.815 -1.0384 -4.24895 0
M  V30 6758 C 645.874 -0.392659 -5.24733 0
M  V30 6759 O 644.9 -1.0453 -5.5952 0
M  V30 6760 N 646.102 0.846296 -5.74298 0
M  V30 6761 H 648.867 -1.63161 -2.51393 0
M  V30 6762 H 646.428 -0.999899 -1.27333 0
M  V30 6763 H 648.42 0.397215 -4.02746 0
M  V30 6764 H 646.99 0.765231 -3.03089 0
M  V30 6765 H 646.21 -1.6601 -3.57539 0
M  V30 6766 H 647.498 -1.70968 -4.79215 0
M  V30 6767 H 646.896 1.39578 -5.4821 0
M  V30 6768 H 645.453 1.23296 -6.40032 0
M  V30 6769 N 648.886 1.2938 -0.899927 0
M  V30 6770 C 650.302 1.48052 -0.596059 0
M  V30 6771 C 650.502 1.82114 0.862372 0
M  V30 6772 O 649.558 1.91774 1.64253 0
M  V30 6773 C 650.871 2.59332 -1.52208 0
M  V30 6774 C 652.419 2.73208 -1.5273 0
M  V30 6775 C 652.894 3.87617 -2.43961 0
M  V30 6776 N 654.385 3.9495 -2.42009 0
M  V30 6777 C 655.12 4.82824 -3.09303 0
M  V30 6778 N 654.616 5.75387 -3.85877 0
M  V30 6779 N 656.409 4.76317 -2.98459 0
M  V30 6780 H 648.56 1.05546 -1.8432 0
M  V30 6781 H 650.823 0.524314 -0.78981 0
M  V30 6782 H 650.529 2.41029 -2.56121 0
M  V30 6783 H 650.403 3.56139 -1.24278 0
M  V30 6784 H 652.79 2.90908 -0.495614 0
M  V30 6785 H 652.871 1.76975 -1.84698 0
M  V30 6786 H 652.515 3.70672 -3.47224 0
M  V30 6787 H 652.445 4.83218 -2.09303 0
M  V30 6788 H 654.936 3.28744 -1.86375 0
M  V30 6789 H 655.249 6.39235 -4.34279 0
M  V30 6790 H 653.594 5.75272 -3.89984 0
M  V30 6791 H 656.785 4.0299 -2.38152 0
M  V30 6792 H 656.958 5.44589 -3.51179 0
M  V30 6793 N 650.364 0.662433 1.43002 0
M  V30 6794 C 651.594 0.187343 2.05749 0
M  V30 6795 C 652.002 -1.15582 1.49791 0
M  V30 6796 O 651.345 -1.72651 0.627487 0
M  V30 6797 C 651.407 0.0316493 3.59486 0
M  V30 6798 C 651.071 1.30156 4.38073 0
M  V30 6799 C 652.068 2.23234 4.69535 0
M  V30 6800 C 649.753 1.54572 4.77926 0
M  V30 6801 C 651.747 3.39012 5.39768 0
M  V30 6802 C 649.434 2.70641 5.47902 0
M  V30 6803 C 650.432 3.62687 5.78746 0
M  V30 6804 O 650.12 4.76728 6.47291 0
M  V30 6805 H 649.852 0.0915214 0.669776 0
M  V30 6806 H 652.406 0.905982 1.8434 0
M  V30 6807 H 650.636 -0.742451 3.79506 0
M  V30 6808 H 652.325 -0.401977 4.03905 0
M  V30 6809 H 653.091 2.05616 4.39257 0
M  V30 6810 H 648.97 0.83804 4.53319 0
M  V30 6811 H 652.514 4.10877 5.63761 0
M  V30 6812 H 648.411 2.88189 5.77596 0
M  V30 6813 H 649.179 4.76113 6.65777 0
M  V30 6814 N 651.842 -1.52309 0.404946 0
M  V30 6815 C 652.805 -2.25491 -0.410651 0
M  V30 6816 C 653.805 -1.27704 -0.977154 0
M  V30 6817 O 654.995 -1.51679 -0.856691 0
M  V30 6818 C 652.127 -3.02197 -1.57765 0
M  V30 6819 H 653.32 -2.99015 0.230277 0
M  V30 6820 H 650.873 -1.55506 0.157377 0
M  V30 6821 H 651.608 -2.33013 -2.25556 0
M  V30 6822 H 651.393 -3.73987 -1.17797 0
M  V30 6823 H 652.883 -3.57719 -2.15469 0
M  V30 6824 N 653.32 -0.135238 -1.57019 0
M  V30 6825 C 654.548 0.526066 -2.001 0
M  V30 6826 C 654.963 1.59184 -1.01519 0
M  V30 6827 O 654.32 1.82497 -0.0104258 0
M  V30 6828 C 654.371 1.13744 -3.43139 0
M  V30 6829 O 654.092 0.114259 -4.37951 0
M  V30 6830 C 655.593 1.8805 -4.01438 0
M  V30 6831 H 652.813 0.137962 -0.656664 0
M  V30 6832 H 655.357 -0.226359 -2.03243 0
M  V30 6833 H 653.512 1.84056 -3.40885 0
M  V30 6834 H 653.926 0.56058 -5.21496 0
M  V30 6835 H 655.4 2.26133 -5.03555 0
M  V30 6836 H 655.877 2.76194 -3.41487 0
M  V30 6837 H 656.483 1.22464 -4.07287 0
M  V30 6838 N 654.798 1.5699 0.138552 0
M  V30 6839 C 656.047 1.82998 0.848205 0
M  V30 6840 C 656.36 0.717829 1.81952 0
M  V30 6841 O 657.566 0.863756 2.57394 0
M  V30 6842 C 656.022 3.24379 1.55904 0
M  V30 6843 C 655.63 4.43552 0.62971 0
M  V30 6844 C 657.374 3.59654 2.25498 0
M  V30 6845 C 655.281 5.75957 1.34266 0
M  V30 6846 H 654.211 0.682495 0.320495 0
M  V30 6847 H 656.862 1.83222 0.100924 0
M  V30 6848 H 655.244 3.18567 2.35226 0
M  V30 6849 H 656.418 4.6062 -0.128882 0
M  V30 6850 H 654.733 4.16379 0.0417526 0
M  V30 6851 H 657.33 4.55837 2.79493 0
M  V30 6852 H 657.673 2.86124 3.02388 0
M  V30 6853 H 658.206 3.67164 1.53087 0
M  V30 6854 H 654.945 6.52604 0.615441 0
M  V30 6855 H 654.465 5.62811 2.07375 0
M  V30 6856 H 656.144 6.19046 1.88126 0
M  V30 6857 N 656.276 -0.40816 1.52223 0
M  V30 6858 C 657.226 -1.49648 1.72016 0
M  V30 6859 C 658.21 -1.50311 0.574069 0
M  V30 6860 O 659.402 -1.56271 0.831173 0
M  V30 6861 C 656.531 -2.87566 1.87512 0
M  V30 6862 C 655.617 -2.91547 3.07995 0
M  V30 6863 N 656.008 -2.65225 4.30685 0
M  V30 6864 C 654.306 -3.22715 3.07849 0
M  V30 6865 C 655.007 -2.75799 5.12162 0
M  V30 6866 N 653.983 -3.08719 4.4743 0
M  V30 6867 H 657.785 -1.28093 2.64517 0
M  V30 6868 H 655.299 -0.61588 1.50269 0
M  V30 6869 H 657.296 -3.65899 1.99809 0
M  V30 6870 H 655.956 -3.10118 0.962114 0
M  V30 6871 H 656.967 -2.39601 4.59142 0
M  V30 6872 H 653.644 -3.50856 2.26289 0
M  V30 6873 H 655.034 -2.59155 6.1991 0
M  V30 6874 N 657.755 -1.42862 -0.66545 0
M  V30 6875 C 659.001 -1.44043 -1.42757 0
M  V30 6876 C 659.334 -0.0599629 -1.94107 0
M  V30 6877 O 658.609 0.917286 -1.71511 0
M  V30 6878 C 658.892 -2.47266 -2.61786 0
M  V30 6879 C 658.745 -3.94539 -2.16007 0
M  V30 6880 C 660.064 -2.47365 -3.64003 0
M  V30 6881 H 657.183 -0.524506 -0.517748 0
M  V30 6882 H 659.825 -1.74335 -0.755466 0
M  V30 6883 H 657.975 -2.21565 -3.19126 0
M  V30 6884 H 659.647 -4.31254 -1.63762 0
M  V30 6885 H 657.89 -4.07957 -1.47491 0
M  V30 6886 H 658.561 -4.62357 -3.01546 0
M  V30 6887 H 661.037 -2.70243 -3.16399 0
M  V30 6888 H 659.913 -3.21552 -4.44854 0
M  V30 6889 H 660.174 -1.50299 -4.15767 0
M  V30 6890 N 659.233 0.902656 -1.29189 0
M  V30 6891 C 660.644 1.46809 -1.15343 0
M  V30 6892 C 660.995 1.94568 0.252517 0
M  V30 6893 O 660.12 1.83454 1.14777 0
M  V30 6894 C 660.715 2.66829 -2.08776 0
M  V30 6895 C 659.274 3.19518 -1.98961 0
M  V30 6896 C 658.421 1.92212 -1.99874 0
M  V30 6897 H 661.372 0.714282 -1.41717 0
M  V30 6898 H 661.393 3.42465 -1.65826 0
M  V30 6899 H 660.905 2.32039 -3.11094 0
M  V30 6900 H 659.006 3.59008 -0.99721 0
M  V30 6901 H 659.119 3.84016 -2.86477 0
M  V30 6902 H 657.483 2.0979 -1.44431 0
M  V30 6903 H 658.266 1.59702 -3.03891 0
M  V30 6904 N 660.711 1.11618 1.11262 0
M  V30 6905 C 661.988 0.777876 1.79467 0
M  V30 6906 C 662.368 -0.733774 1.97937 0
M  V30 6907 O 661.716 -1.66443 1.56554 0
M  V30 6908 C 661.926 1.5431 3.13032 0
M  V30 6909 C 663.274 1.72357 3.88044 0
M  V30 6910 O 664.298 1.5075 3.22727 0
M  V30 6911 O 663.157 2.08276 5.05256 0
M  V30 6912 H 660.251 0.282018 0.777428 0
M  V30 6913 H 662.797 1.21971 1.17988 0
M  V30 6914 H 661.569 2.57132 2.94956 0
M  V30 6915 H 661.192 1.09495 3.82226 0
M  V30 6916 N 662.189 -1.289 0.906776 0
M  V30 6917 C 663.139 -2.25122 0.361109 0
M  V30 6918 C 664.123 -1.52169 -0.52283 0
M  V30 6919 O 665.315 -1.73223 -0.363691 0
M  V30 6920 C 662.444 -3.40915 -0.403982 0
M  V30 6921 C 661.53 -4.21198 0.495279 0
M  V30 6922 N 661.921 -4.79636 1.60572 0
M  V30 6923 C 660.219 -4.45027 0.294372 0
M  V30 6924 C 660.92 -5.39977 2.16332 0
M  V30 6925 N 659.896 -5.23753 1.45546 0
M  V30 6926 H 663.698 -2.67869 1.20927 0
M  V30 6927 H 661.212 -1.43592 0.758632 0
M  V30 6928 H 663.209 -4.08922 -0.811695 0
M  V30 6929 H 661.869 -2.99703 -1.24932 0
M  V30 6930 H 662.88 -4.78209 1.98838 0
M  V30 6931 H 659.557 -4.14348 -0.512021 0
M  V30 6932 H 660.947 -5.96266 3.09704 0
M  V30 6933 N 663.667 -0.670007 -1.42649 0
M  V30 6934 C 664.915 -0.18991 -2.01206 0
M  V30 6935 C 665.236 1.20617 -1.53221 0
M  V30 6936 O 664.506 1.80898 -0.751856 0
M  V30 6937 H 663.086 -0.0672189 -0.743969 0
M  V30 6938 H 665.748 -0.865442 -1.74631 0
M  V30 6939 H 664.844 -0.187481 -3.11536 0
M  V30 6940 N 665.145 1.52092 -0.413018 0
M  V30 6941 C 666.075 2.30021 0.401567 0
M  V30 6942 C 667.056 1.34395 1.04269 0
M  V30 6943 O 668.241 1.63304 1.05097 0
M  V30 6944 C 665.371 3.12447 1.51638 0
M  V30 6945 C 664.325 4.16153 1.00005 0
M  V30 6946 C 663.651 4.86948 2.20875 0
M  V30 6947 C 664.951 5.22275 0.0513757 0
M  V30 6948 H 666.645 2.98365 -0.248704 0
M  V30 6949 H 664.191 1.4349 -0.121052 0
M  V30 6950 H 666.144 3.65733 2.09326 0
M  V30 6951 H 664.868 2.41879 2.19458 0
M  V30 6952 H 663.527 3.63882 0.445549 0
M  V30 6953 H 663.175 4.12905 2.8726 0
M  V30 6954 H 662.875 5.57057 1.86978 0
M  V30 6955 H 664.399 5.43048 2.79162 0
M  V30 6956 H 665.813 5.70778 0.537176 0
M  V30 6957 H 664.21 5.9977 -0.198977 0
M  V30 6958 H 665.28 4.76611 -0.892736 0
M  V30 6959 N 666.623 0.143563 1.56945 0
M  V30 6960 C 667.87 -0.508407 1.96014 0
M  V30 6961 C 668.198 -1.65099 1.02824 0
M  V30 6962 O 667.453 -1.95618 0.0567764 0
M  V30 6963 C 667.752 -1.05885 3.41355 0
M  V30 6964 C 667.418 -0.0350809 4.50886 0
M  V30 6965 C 666.08 0.246362 4.80569 0
M  V30 6966 C 668.432 0.661282 5.16988 0
M  V30 6967 C 665.76 1.23003 5.73661 0
M  V30 6968 C 668.112 1.63375 6.11139 0
M  V30 6969 C 666.776 1.92292 6.39203 0
M  V30 6970 H 666.046 -0.186039 0.717266 0
M  V30 6971 H 668.693 0.229667 1.90118 0
M  V30 6972 H 666.998 -1.87419 3.44066 0
M  V30 6973 H 668.695 -1.57183 3.6891 0
M  V30 6974 H 665.285 -0.264622 4.27782 0
M  V30 6975 H 669.469 0.457038 4.94191 0
M  V30 6976 H 664.725 1.46056 5.93698 0
M  V30 6977 H 668.899 2.17887 6.61436 0
M  V30 6978 H 666.526 2.68666 7.11142 0
M  V30 6979 N 668.101 -1.57061 -0.130224 0
M  V30 6980 C 669.347 -1.8453 -0.841216 0
M  V30 6981 C 669.68 -0.727666 -1.80052 0
M  V30 6982 O 668.955 0.267419 -1.92653 0
M  V30 6983 C 669.238 -3.22553 -1.60099 0
M  V30 6984 C 669.091 -4.44901 -0.662048 0
M  V30 6985 C 670.41 -3.58003 -2.55973 0
M  V30 6986 H 667.529 -0.671215 -0.304366 0
M  V30 6987 H 670.171 -1.89705 -0.105821 0
M  V30 6988 H 668.321 -3.18272 -2.22789 0
M  V30 6989 H 669.993 -4.61278 -0.0448559 0
M  V30 6990 H 668.236 -4.33791 0.0272253 0
M  V30 6991 H 668.907 -5.3812 -1.23006 0
M  V30 6992 H 671.383 -3.63002 -2.03393 0
M  V30 6993 H 670.259 -4.55576 -3.06172 0
M  V30 6994 H 670.52 -2.84833 -3.38116 0
M  V30 6995 N 669.579 0.400081 -1.52437 0
M  V30 6996 C 670.827 1.14392 -1.6661 0
M  V30 6997 C 671.148 1.90792 -0.402927 0
M  V30 6998 O 670.418 1.87042 0.582425 0
M  V30 6999 H 668.998 0.425275 -0.614125 0
M  V30 7000 H 671.66 0.455076 -1.89513 0
M  V30 7001 H 670.756 1.85298 -2.51139 0
M  V30 7002 N 671.057 1.43213 0.657864 0
M  V30 7003 C 672.334 1.35063 1.41483 0
M  V30 7004 C 672.714 -0.0038314 2.111 0
M  V30 7005 O 672.062 -1.02018 2.04462 0
M  V30 7006 C 672.272 2.53061 2.40335 0
M  V30 7007 C 673.62 2.9594 3.04474 0
M  V30 7008 O 674.644 2.53074 2.50663 0
M  V30 7009 O 673.503 3.70184 4.02027 0
M  V30 7010 H 670.597 0.533517 0.631893 0
M  V30 7011 H 673.143 1.55253 0.685162 0
M  V30 7012 H 671.915 3.43283 1.87809 0
M  V30 7013 H 671.538 2.34945 3.20759 0
M  V30 7014 N 672.536 -0.895792 1.29666 0
M  V30 7015 C 673.783 -1.64664 1.17864 0
M  V30 7016 C 674.111 -1.92631 -0.26902 0
M  V30 7017 O 673.366 -1.53787 -1.21029 0
M  V30 7018 C 673.665 -3.00075 1.94139 0
M  V30 7019 C 673.331 -2.91702 3.43833 0
M  V30 7020 C 671.993 -2.89126 3.84656 0
M  V30 7021 C 674.345 -2.80622 4.39205 0
M  V30 7022 C 671.673 -2.73293 5.1916 0
M  V30 7023 C 674.025 -2.66329 5.73805 0
M  V30 7024 C 672.689 -2.62121 6.1388 0
M  V30 7025 H 671.959 -0.602549 0.431295 0
M  V30 7026 H 674.606 -1.04234 1.60648 0
M  V30 7027 H 672.911 -3.64394 1.43958 0
M  V30 7028 H 674.608 -3.57111 1.82408 0
M  V30 7029 H 671.198 -2.94511 3.11386 0
M  V30 7030 H 675.382 -2.81686 4.08615 0
M  V30 7031 H 670.638 -2.68443 5.49316 0
M  V30 7032 H 674.812 -2.56727 6.47352 0
M  V30 7033 H 672.439 -2.49611 7.18052 0
M  V30 7034 N 674.014 -1.12206 -1.10668 0
M  V30 7035 C 675.26 -0.877172 -1.82848 0
M  V30 7036 C 675.593 0.595571 -1.84842 0
M  V30 7037 O 674.868 1.44013 -1.30731 0
M  V30 7038 C 675.151 -1.44957 -3.29635 0
M  V30 7039 C 675.004 -2.99051 -3.35989 0
M  V30 7040 C 676.323 -1.10714 -4.25946 0
M  V30 7041 H 673.442 -0.320103 -0.663854 0
M  V30 7042 H 676.084 -1.38827 -1.2972 0
M  V30 7043 H 674.234 -1.01488 -3.7501 0
M  V30 7044 H 675.906 -3.51182 -2.99113 0
M  V30 7045 H 674.149 -3.34705 -2.75962 0
M  V30 7046 H 674.82 -3.34194 -4.39339 0
M  V30 7047 H 677.296 -1.48254 -3.88793 0
M  V30 7048 H 676.172 -1.5343 -5.2702 0
M  V30 7049 H 676.433 -0.019 -4.42096 0
M  V30 7050 N 675.492 1.28418 -0.913599 0
M  V30 7051 C 676.44 2.29272 -0.392037 0
M  V30 7052 C 677.434 1.61344 0.516198 0
M  V30 7053 O 678.64 1.75557 0.39746 0
M  V30 7054 H 675.015 0.744178 -0.108178 0
M  V30 7055 H 676.986 2.70691 -1.25574 0
M  V30 7056 C 675.735 3.45905 0.352815 0
M  V30 7057 H 675.058 3.98378 -0.336848 0
M  V30 7058 H 676.498 4.18473 0.682398 0
M  V30 7059 C 674.957 2.98572 1.56065 0
M  V30 7060 O 675.487 3.01033 2.65974 0
M  V30 7061 N 673.693 2.54235 1.40759 0
M  V30 7062 H 673.24 2.52432 0.513403 0
M  V30 7063 H 673.198 2.22925 2.21702 0
M  V30 7064 N 676.97 0.677563 1.42291 0
M  V30 7065 C 678.217 0.200975 2.015 0
M  V30 7066 C 678.545 -1.19342 1.53583 0
M  V30 7067 O 677.8 -1.81579 0.7299 0
M  V30 7068 C 678.099 0.187229 3.56909 0
M  V30 7069 C 677.765 1.52667 4.24268 0
M  V30 7070 C 676.427 1.89341 4.42384 0
M  V30 7071 C 678.779 2.40869 4.62203 0
M  V30 7072 C 676.107 3.13836 4.95705 0
M  V30 7073 C 678.459 3.64679 5.16906 0
M  V30 7074 C 677.123 4.01519 5.33234 0
M  V30 7075 H 676.393 0.0735418 0.737342 0
M  V30 7076 H 679.04 0.873095 1.70439 0
M  V30 7077 H 677.345 -0.568407 3.87655 0
M  V30 7078 H 679.042 -0.198773 4.00507 0
M  V30 7079 H 675.632 1.23138 4.1053 0
M  V30 7080 H 679.816 2.1382 4.47878 0
M  V30 7081 H 675.072 3.42396 5.06532 0
M  V30 7082 H 679.246 4.33224 5.45243 0
M  V30 7083 H 676.873 4.98062 5.74316 0
M  V30 7084 N 678.448 -1.51871 0.421078 0
M  V30 7085 C 679.673 -2.0684 -0.152371 0
M  V30 7086 C 680.098 -1.28802 -1.37083 0
M  V30 7087 O 679.456 -0.321482 -1.78427 0
M  V30 7088 C 679.504 -3.57532 -0.469368 0
M  V30 7089 O 678.608 -3.81818 -1.55848 0
M  V30 7090 H 677.949 -0.663939 -0.00898586 0
M  V30 7091 H 680.479 -1.95674 0.597724 0
M  V30 7092 H 680.489 -4.01515 -0.724553 0
M  V30 7093 H 679.164 -4.13761 0.421276 0
M  V30 7094 H 677.741 -3.49709 -1.29453 0
M  V30 7095 N 679.926 -0.151884 -1.56866 0
M  V30 7096 C 680.874 0.80299 -2.183 0
M  V30 7097 C 681.868 1.25174 -1.14139 0
M  V30 7098 O 683.074 1.21966 -1.3238 0
M  V30 7099 H 679.449 0.277169 -0.699057 0
M  V30 7100 H 681.42 0.260699 -2.97259 0
M  V30 7101 C 680.169 2.03009 -2.82281 0
M  V30 7102 H 679.492 1.69377 -3.62148 0
M  V30 7103 H 680.932 2.67753 -3.28762 0
M  V30 7104 C 679.391 2.84123 -1.81041 0
M  V30 7105 O 679.921 3.8063 -1.28388 0
M  V30 7106 N 678.127 2.48753 -1.50234 0
M  V30 7107 H 677.674 1.70337 -1.93244 0
M  V30 7108 H 677.632 3.03316 -0.827445 0
M  V30 7109 N 681.404 1.57128 0.121893 0
M  V30 7110 C 682.629 1.89254 0.848385 0
M  V30 7111 C 683.054 0.743527 1.72781 0
M  V30 7112 O 682.412 -0.306056 1.78698 0
M  V30 7113 C 682.46 3.20113 1.66012 0
M  V30 7114 O 681.564 3.05815 2.76679 0
M  V30 7115 H 680.905 0.621103 0.234793 0
M  V30 7116 H 683.435 2.0433 0.10516 0
M  V30 7117 H 683.445 3.52761 2.04996 0
M  V30 7118 H 682.12 4.03336 1.01452 0
M  V30 7119 H 680.697 2.84627 2.40918 0
M  V30 7120 N 682.882 -0.391992 1.52647 0
M  V30 7121 C 683.845 -1.46135 1.7657 0
M  V30 7122 C 684.845 -1.47701 0.635698 0
M  V30 7123 O 686.035 -1.48924 0.903728 0
M  V30 7124 C 683.167 -2.85443 1.86374 0
M  V30 7125 H 684.36 -1.26208 2.72051 0
M  V30 7126 H 681.913 -0.623549 1.43323 0
M  V30 7127 H 682.648 -3.10718 0.928685 0
M  V30 7128 H 682.433 -2.85708 2.68539 0
M  V30 7129 H 683.923 -3.62933 2.06566 0
M  V30 7130 N 684.36 -1.4356 -0.65026 0
M  V30 7131 C 685.606 -1.45549 -1.41221 0
M  V30 7132 C 685.939 -0.0805472 -1.94033 0
M  V30 7133 O 685.214 0.899043 -1.72475 0
M  V30 7134 C 685.497 -2.50028 -2.59148 0
M  V30 7135 C 685.35 -3.96808 -2.1181 0
M  V30 7136 C 686.669 -2.51212 -3.61359 0
M  V30 7137 H 683.788 -0.529967 -0.512156 0
M  V30 7138 H 686.43 -1.75127 -0.736933 0
M  V30 7139 H 684.58 -2.24937 -3.16758 0
M  V30 7140 H 686.252 -4.32966 -1.59178 0
M  V30 7141 H 684.495 -4.09498 -1.43156 0
M  V30 7142 H 685.166 -4.6553 -2.96625 0
M  V30 7143 H 687.642 -2.73583 -3.13515 0
M  V30 7144 H 686.518 -3.26252 -4.41419 0
M  V30 7145 H 686.779 -1.54701 -4.1415 0
M  V30 7146 N 685.838 0.888903 -1.30139 0
M  V30 7147 C 687.066 1.67358 -1.21651 0
M  V30 7148 C 687.481 1.87499 0.221246 0
M  V30 7149 O 686.838 1.41969 1.14677 0
M  V30 7150 C 686.889 3.05213 -1.93719 0
M  V30 7151 O 686.61 2.85984 -3.31881 0
M  V30 7152 C 688.111 3.9964 -1.9184 0
M  V30 7153 H 685.331 0.522365 -0.42116 0
M  V30 7154 H 687.875 1.11086 -1.71698 0
M  V30 7155 H 686.03 3.5823 -1.4748 0
M  V30 7156 H 686.444 3.73411 -3.68327 0
M  V30 7157 H 687.918 4.93749 -2.46811 0
M  V30 7158 H 688.395 4.29955 -0.896409 0
M  V30 7159 H 689.001 3.52558 -2.37872 0
M  V30 7160 N 687.317 1.12792 1.10072 0
M  V30 7161 C 688.565 0.883796 1.81751 0
M  V30 7162 C 688.886 -0.591891 1.858 0
M  V30 7163 O 688.156 -1.43017 1.33876 0
M  V30 7164 H 686.736 0.323978 0.673088 0
M  V30 7165 H 689.398 1.42314 1.33164 0
M  V30 7166 H 688.494 1.26863 2.85153 0
M  V30 7167 N 688.795 -1.27931 0.920396 0
M  V30 7168 C 690.041 -1.94977 0.557832 0
M  V30 7169 C 690.374 -1.72224 -0.897365 0
M  V30 7170 O 689.649 -1.04705 -1.63912 0
M  V30 7171 C 689.932 -3.49289 0.875741 0
M  V30 7172 C 689.785 -3.81416 2.38416 0
M  V30 7173 C 691.104 -4.38486 0.376517 0
M  V30 7174 H 688.223 -0.708164 0.20414 0
M  V30 7175 H 690.865 -1.5118 1.15085 0
M  V30 7176 H 689.015 -3.86724 0.371062 0
M  V30 7177 H 690.687 -3.53813 2.95997 0
M  V30 7178 H 688.93 -3.28225 2.83639 0
M  V30 7179 H 689.601 -4.89198 2.55713 0
M  V30 7180 H 692.077 -4.08161 0.808945 0
M  V30 7181 H 690.953 -5.45296 0.627976 0
M  V30 7182 H 691.214 -4.36143 -0.723293 0
M  V30 7183 N 690.273 -0.685099 -1.4193 0
M  V30 7184 C 691.498 -0.218842 -2.06242 0
M  V30 7185 C 691.923 1.11923 -1.51178 0
M  V30 7186 O 691.281 1.69837 -0.634446 0
M  V30 7187 C 691.329 -0.175592 -3.60172 0
M  V30 7188 O 690.433 0.852776 -4.03487 0
M  V30 7189 H 689.774 -0.109531 -0.654904 0
M  V30 7190 H 692.304 -0.937013 -1.81882 0
M  V30 7191 H 692.314 -0.00291151 -4.08 0
M  V30 7192 H 690.989 -1.15222 -3.99621 0
M  V30 7193 H 689.566 0.650301 -3.67186 0
M  V30 7194 N 691.751 1.51645 -0.429126 0
M  V30 7195 C 692.999 2.01616 0.139802 0
M  V30 7196 C 693.32 1.31568 1.43927 0
M  V30 7197 O 692.59 0.447688 1.90716 0
M  V30 7198 H 691.17 0.744998 0.054654 0
M  V30 7199 H 693.832 1.8638 -0.569952 0
M  V30 7200 H 692.928 3.10439 0.321609 0
M  V30 7201 N 693.229 0.160201 1.56784 0
M  V30 7202 C 694.506 -0.533355 1.88188 0
M  V30 7203 C 694.886 -1.82072 1.06831 0
M  V30 7204 O 694.234 -2.27946 0.158959 0
M  V30 7205 C 694.444 -0.786034 3.40033 0
M  V30 7206 C 695.792 -1.12097 4.09536 0
M  V30 7207 O 696.816 -0.874949 3.45287 0
M  V30 7208 O 695.675 -1.58457 5.23023 0
M  V30 7209 H 692.769 -0.273589 0.780434 0
M  V30 7210 H 695.315 0.197803 1.68543 0
M  V30 7211 H 694.087 0.124515 3.91102 0
M  V30 7212 H 693.71 -1.57091 3.65251 0
M  V30 7213 N 694.707 -1.5719 -0.113559 0
M  V30 7214 C 695.64 -1.9595 -1.16957 0
M  V30 7215 C 696.618 -0.829951 -1.39823 0
M  V30 7216 O 697.802 -1.08861 -1.53888 0
M  V30 7217 C 694.929 -2.2604 -2.52237 0
M  V30 7218 C 693.975 -3.48571 -2.45765 0
M  V30 7219 S 694.808 -5.00962 -1.89203 0
M  V30 7220 C 695.964 -5.3421 -3.26145 0
M  V30 7221 H 696.197 -2.85214 -0.839069 0
M  V30 7222 H 693.73 -1.51036 -0.320529 0
M  V30 7223 H 695.688 -2.44054 -3.30073 0
M  V30 7224 H 694.349 -1.3738 -2.82463 0
M  V30 7225 H 693.542 -3.67008 -3.45429 0
M  V30 7226 H 693.144 -3.29972 -1.76053 0
M  V30 7227 H 695.436 -5.29725 -4.22371 0
M  V30 7228 H 696.379 -6.35398 -3.12529 0
M  V30 7229 H 696.787 -4.61681 -3.24825 0
M  V30 7230 N 696.185 0.383891 -1.52853 0
M  V30 7231 C 697.413 1.1495 -1.7203 0
M  V30 7232 C 697.828 1.83578 -0.440957 0
M  V30 7233 O 697.185 1.72872 0.584925 0
M  V30 7234 C 697.236 2.19368 -2.87333 0
M  V30 7235 O 696.957 1.53536 -4.10315 0
M  V30 7236 C 698.458 3.08616 -3.18231 0
M  V30 7237 H 695.678 0.344445 -0.575846 0
M  V30 7238 H 698.222 0.448397 -1.99524 0
M  V30 7239 H 696.377 2.85105 -2.62286 0
M  V30 7240 H 696.791 2.2296 -4.74752 0
M  V30 7241 H 698.265 3.77902 -4.02361 0
M  V30 7242 H 698.742 3.72409 -2.32826 0
M  V30 7243 H 699.348 2.48518 -3.45136 0
M  V30 7244 N 697.663 1.43903 0.642637 0
M  V30 7245 C 698.909 1.46296 1.40447 0
M  V30 7246 C 699.242 0.0908361 1.93987 0
M  V30 7247 O 698.517 -0.889884 1.72949 0
M  V30 7248 C 698.8 2.51399 2.57819 0
M  V30 7249 C 698.653 3.97926 2.09702 0
M  V30 7250 C 699.972 2.53125 3.60022 0
M  V30 7251 H 697.091 0.532676 0.509338 0
M  V30 7252 H 699.733 1.75515 0.727635 0
M  V30 7253 H 697.883 2.26614 3.1556 0
M  V30 7254 H 699.555 4.33804 1.5688 0
M  V30 7255 H 697.798 4.10252 1.40982 0
M  V30 7256 H 698.469 4.67096 2.94152 0
M  V30 7257 H 700.945 2.75242 3.12059 0
M  V30 7258 H 699.821 3.28589 4.39682 0
M  V30 7259 H 700.082 1.56895 4.13324 0
M  V30 7260 N 699.141 -0.881989 1.30609 0
M  V30 7261 C 700.104 -1.96957 1.1722 0
M  V30 7262 C 701.104 -1.60472 0.102598 0
M  V30 7263 O 702.294 -1.70628 0.350943 0
M  V30 7264 C 699.426 -3.31463 0.796572 0
M  V30 7265 H 700.619 -2.10262 2.13846 0
M  V30 7266 H 698.172 -1.06877 1.14048 0
M  V30 7267 H 698.907 -3.23859 -0.169053 0
M  V30 7268 H 698.692 -3.59314 1.56959 0
M  V30 7269 H 700.182 -4.11233 0.72645 0
M  V30 7270 N 700.619 -1.13374 -1.09472 0
M  V30 7271 C 701.847 -0.918351 -1.85402 0
M  V30 7272 C 702.262 0.53281 -1.81126 0
M  V30 7273 O 701.619 1.36879 -1.20708 0
M  V30 7274 C 701.67 -1.39743 -3.33398 0
M  V30 7275 O 701.391 -2.79172 -3.37631 0
M  V30 7276 C 702.892 -1.22042 -4.2617 0
M  V30 7277 H 700.112 -0.327511 -0.585643 0
M  V30 7278 H 702.656 -1.50617 -1.38328 0
M  V30 7279 H 700.811 -0.852619 -3.77901 0
M  V30 7280 H 701.225 -3.00428 -4.29934 0
M  V30 7281 H 702.699 -1.60438 -5.2817 0
M  V30 7282 H 703.176 -0.162047 -4.38901 0
M  V30 7283 H 703.782 -1.75323 -3.87482 0
M  V30 7284 N 702.098 1.27442 -0.927168 0
M  V30 7285 C 703.344 1.94679 -0.568164 0
M  V30 7286 C 703.677 1.72697 0.888219 0
M  V30 7287 O 702.952 1.05573 1.63354 0
M  V30 7288 C 703.235 3.4882 -0.894253 0
M  V30 7289 C 703.088 3.80146 -2.40435 0
M  V30 7290 C 704.407 4.38281 -0.399766 0
M  V30 7291 H 701.526 0.707071 -0.207892 0
M  V30 7292 H 704.168 1.50568 -1.15885 0
M  V30 7293 H 702.318 3.86522 -0.391566 0
M  V30 7294 H 703.99 3.52238 -2.97869 0
M  V30 7295 H 702.233 3.26716 -2.85375 0
M  V30 7296 H 702.904 4.87835 -2.58304 0
M  V30 7297 H 705.38 4.07726 -0.83058 0
M  V30 7298 H 704.256 5.44955 -0.656885 0
M  V30 7299 H 704.517 4.36521 0.700153 0
M  V30 7300 N 703.576 0.692616 1.41565 0
M  V30 7301 C 704.825 0.219452 2.00503 0
M  V30 7302 C 705.138 -1.18683 1.55479 0
M  V30 7303 O 706.344 -1.75731 2.06956 0
M  V30 7304 C 704.8 0.341451 3.58277 0
M  V30 7305 C 704.408 1.75291 4.12283 0
M  V30 7306 C 706.152 -0.0720899 4.24439 0
M  V30 7307 C 704.059 1.82673 5.62481 0
M  V30 7308 H 702.989 0.0782874 0.749925 0
M  V30 7309 H 705.64 0.860386 1.62079 0
M  V30 7310 H 704.022 -0.367683 3.94289 0
M  V30 7311 H 705.196 2.49057 3.87695 0
M  V30 7312 H 703.511 2.11587 3.58636 0
M  V30 7313 H 706.108 -0.0373385 5.34687 0
M  V30 7314 H 706.451 -1.11034 4.0122 0
M  V30 7315 H 706.984 0.586663 3.9345 0
M  V30 7316 H 703.723 2.84539 5.90523 0
M  V30 7317 H 703.243 1.13288 5.89004 0
M  V30 7318 H 704.922 1.58827 6.27203 0
M  V30 7319 N 705.054 -1.51416 0.437162 0
M  V30 7320 C 706.331 -1.94682 -0.189292 0
M  V30 7321 C 706.711 -1.37581 -1.60108 0
M  V30 7322 O 706.059 -0.562815 -2.2146 0
M  V30 7323 C 706.269 -3.48599 -0.167201 0
M  V30 7324 C 707.617 -4.2296 -0.372856 0
M  V30 7325 O 708.641 -3.55354 -0.245323 0
M  V30 7326 O 707.5 -5.42895 -0.626693 0
M  V30 7327 H 704.594 -0.816708 -0.130063 0
M  V30 7328 H 707.14 -1.62316 0.495128 0
M  V30 7329 H 705.912 -3.82616 0.81981 0
M  V30 7330 H 705.535 -3.87406 -0.894537 0
M  V30 7331 N 706.532 -0.168513 -1.56696 0
M  V30 7332 C 707.479 0.762875 -2.17828 0
M  V30 7333 C 708.449 1.22892 -1.11745 0
M  V30 7334 O 709.634 1.29759 -1.39883 0
M  V30 7335 C 706.774 1.9879 -2.82093 0
M  V30 7336 C 705.887 1.56568 -4.02629 0
M  V30 7337 C 705.022 2.74416 -4.54829 0
M  V30 7338 C 704.061 2.28671 -5.67782 0
M  V30 7339 N 703.198 3.39602 -6.14504 0
M  V30 7340 H 708.038 0.23479 -2.97074 0
M  V30 7341 H 705.575 0.104163 -1.46731 0
M  V30 7342 H 707.533 2.70636 -3.17509 0
M  V30 7343 H 706.163 2.48973 -2.05456 0
M  V30 7344 H 705.215 0.744067 -3.73052 0
M  V30 7345 H 706.527 1.18988 -4.844 0
M  V30 7346 H 705.681 3.54423 -4.92412 0
M  V30 7347 H 704.42 3.15254 -3.7211 0
M  V30 7348 H 703.425 1.4711 -5.29753 0
M  V30 7349 H 704.65 1.88894 -6.52301 0
M  V30 7350 H 702.596 3.80021 -5.34715 0
M  V30 7351 H 702.513 3.06105 -6.91257 0
M  V30 7352 H 703.781 4.19902 -6.56737 0
M  V30 7353 N 708.01 1.57248 0.105221 0
M  V30 7354 C 709.287 1.76566 0.841647 0
M  V30 7355 C 709.667 0.747566 1.9742 0
M  V30 7356 O 709.015 -0.225886 2.27381 0
M  V30 7357 C 709.225 3.22016 1.3456 0
M  V30 7358 C 710.573 3.84911 1.79244 0
M  V30 7359 O 711.597 3.25703 1.44207 0
M  V30 7360 O 710.456 4.89008 2.43995 0
M  V30 7361 H 707.55 0.723443 0.400698 0
M  V30 7362 H 710.096 1.69472 0.0878893 0
M  V30 7363 H 708.868 3.87644 0.533685 0
M  V30 7364 H 708.491 3.33703 2.16167 0
M  V30 7365 N 709.488 -0.375779 1.53054 0
M  V30 7366 C 710.436 -1.48015 1.79428 0
M  V30 7367 C 711.43 -1.55893 0.662854 0
M  V30 7368 O 712.636 -1.58901 0.845599 0
M  V30 7369 H 709.011 -0.492887 0.56795 0
M  V30 7370 H 710.982 -1.22971 2.71884 0
M  V30 7371 C 709.731 -2.84984 1.99197 0
M  V30 7372 H 709.054 -2.79677 2.85693 0
M  V30 7373 H 710.494 -3.61462 2.21633 0
M  V30 7374 C 708.953 -3.28025 0.768183 0
M  V30 7375 O 709.483 -4.01671 -0.0480482 0
M  V30 7376 N 707.689 -2.84454 0.594521 0
M  V30 7377 H 707.236 -2.24688 1.25988 0
M  V30 7378 H 707.194 -3.13609 -0.222916 0
M  V30 7379 N 710.966 -1.44241 -0.634997 0
M  V30 7380 C 712.213 -1.46821 -1.39463 0
M  V30 7381 C 712.541 -0.0993362 -1.94246 0
M  V30 7382 O 711.796 0.898325 -1.73864 0
M  V30 7383 C 712.095 -2.47279 -2.58046 0
M  V30 7384 C 711.761 -3.92703 -2.21574 0
M  V30 7385 C 710.423 -4.32306 -2.1134 0
M  V30 7386 C 712.775 -4.84271 -1.92695 0
M  V30 7387 C 710.103 -5.61407 -1.70409 0
M  V30 7388 C 712.455 -6.13755 -1.53258 0
M  V30 7389 C 711.119 -6.52316 -1.41562 0
M  V30 7390 H 710.389 -0.537256 -0.51033 0
M  V30 7391 H 713.036 -1.77431 -0.720441 0
M  V30 7392 H 711.341 -2.10138 -3.3068 0
M  V30 7393 H 713.038 -2.46523 -3.16271 0
M  V30 7394 H 709.628 -3.61369 -2.30456 0
M  V30 7395 H 713.812 -4.54432 -1.99513 0
M  V30 7396 H 709.068 -5.90105 -1.59955 0
M  V30 7397 H 713.242 -6.84168 -1.29949 0
M  V30 7398 H 710.869 -7.52255 -1.09619 0
M  V30 7399 N 712.444 0.87505 -1.31075 0
M  V30 7400 C 713.672 1.66058 -1.23419 0
M  V30 7401 C 714.087 1.87723 0.201347 0
M  V30 7402 O 713.444 1.43178 1.13165 0
M  V30 7403 C 713.495 3.03142 -1.96945 0
M  V30 7404 O 713.216 2.82448 -3.34895 0
M  V30 7405 C 714.717 3.97583 -1.96067 0
M  V30 7406 H 711.937 0.517868 -0.426677 0
M  V30 7407 H 714.481 1.09258 -1.72867 0
M  V30 7408 H 712.636 3.56645 -1.51271 0
M  V30 7409 H 713.05 3.69483 -3.72267 0
M  V30 7410 H 714.524 4.91104 -2.52034 0
M  V30 7411 H 715.001 4.2898 -0.941961 0
M  V30 7412 H 715.607 3.50015 -2.41597 0
M  V30 7413 N 713.922 1.13953 1.08869 0
M  V30 7414 C 715.168 0.906151 1.8143 0
M  V30 7415 C 715.501 -0.566089 1.85766 0
M  V30 7416 O 714.776 -1.41915 1.33006 0
M  V30 7417 C 715.059 1.50183 3.27287 0
M  V30 7418 C 714.912 3.04359 3.31189 0
M  V30 7419 C 716.231 1.17477 4.24131 0
M  V30 7420 H 713.35 0.330624 0.658678 0
M  V30 7421 H 715.992 1.40873 1.27495 0
M  V30 7422 H 714.142 1.07442 3.73348 0
M  V30 7423 H 715.814 3.55896 2.93488 0
M  V30 7424 H 714.057 3.39053 2.70602 0
M  V30 7425 H 714.728 3.41141 4.33966 0
M  V30 7426 H 717.204 1.5442 3.86385 0
M  V30 7427 H 716.08 1.61795 5.24513 0
M  V30 7428 H 716.341 0.0893312 4.4201 0
M  V30 7429 N 715.4 -1.26948 0.933913 0
M  V30 7430 C 716.33 -2.29017 0.45534 0
M  V30 7431 C 717.311 -1.62961 -0.487605 0
M  V30 7432 O 718.496 -1.90223 -0.391022 0
M  V30 7433 C 715.626 -3.46112 -0.287015 0
M  V30 7434 C 714.58 -4.24205 0.568682 0
M  V30 7435 C 713.906 -5.3384 -0.303206 0
M  V30 7436 C 715.206 -4.88954 1.83633 0
M  V30 7437 H 716.9 -2.69298 1.30839 0
M  V30 7438 H 714.446 -1.29459 0.630579 0
M  V30 7439 H 716.399 -4.16622 -0.6328 0
M  V30 7440 H 715.123 -3.04765 -1.17414 0
M  V30 7441 H 713.782 -3.5545 0.897261 0
M  V30 7442 H 713.43 -4.88734 -1.18947 0
M  V30 7443 H 713.13 -5.86998 0.265879 0
M  V30 7444 H 714.654 -6.0719 -0.644423 0
M  V30 7445 H 716.068 -5.51717 1.55823 0
M  V30 7446 H 714.465 -5.52198 2.34941 0
M  V30 7447 H 715.535 -4.12305 2.55211 0
M  V30 7448 N 716.879 -0.700114 -1.41195 0
M  V30 7449 C 718.107 -0.242179 -2.05478 0
M  V30 7450 C 718.522 1.11029 -1.52702 0
M  V30 7451 O 717.879 1.69473 -0.677127 0
M  V30 7452 C 717.93 -0.196271 -3.60967 0
M  V30 7453 O 717.651 -1.49532 -4.11791 0
M  V30 7454 C 719.152 0.282102 -4.42401 0
M  V30 7455 H 716.372 -0.111749 -0.661629 0
M  V30 7456 H 718.916 -0.953975 -1.80885 0
M  V30 7457 H 717.071 0.46638 -3.84582 0
M  V30 7458 H 717.485 -1.38545 -5.05871 0
M  V30 7459 H 718.959 0.263093 -5.51373 0
M  V30 7460 H 719.436 1.32174 -4.1884 0
M  V30 7461 H 720.042 -0.349712 -4.2386 0
M  V30 7462 N 718.357 1.51182 -0.445186 0
M  V30 7463 C 719.768 1.86693 0.0160999 0
M  V30 7464 C 720.119 1.36183 1.4124 0
M  V30 7465 O 719.244 0.715895 2.04215 0
M  V30 7466 C 719.839 3.38781 0.0359918 0
M  V30 7467 C 718.398 3.73799 0.441715 0
M  V30 7468 C 717.545 2.74947 -0.360511 0
M  V30 7469 H 720.496 1.44294 -0.660674 0
M  V30 7470 H 720.517 3.71026 0.843813 0
M  V30 7471 H 720.029 3.75513 -0.980378 0
M  V30 7472 H 718.13 3.42659 1.4634 0
M  V30 7473 H 718.243 4.78829 0.16106 0
M  V30 7474 H 716.607 2.54047 0.182269 0
M  V30 7475 H 717.39 3.14521 -1.3759 0
M  V30 7476 N 719.835 0.176821 1.56605 0
M  V30 7477 C 720.783 -0.768159 2.1955 0
M  V30 7478 C 721.777 -1.23343 1.16116 0
M  V30 7479 O 722.983 -1.19844 1.34303 0
M  V30 7480 H 719.358 -0.266013 0.703378 0
M  V30 7481 H 721.329 -0.213374 2.97636 0
M  V30 7482 C 720.078 -1.98492 2.85475 0
M  V30 7483 H 719.401 -1.63595 3.64797 0
M  V30 7484 H 720.841 -2.62489 3.3298 0
M  V30 7485 C 719.3 -2.81207 1.85538 0
M  V30 7486 O 719.83 -3.7854 1.34427 0
M  V30 7487 N 718.036 -2.46331 1.54173 0
M  V30 7488 H 717.583 -1.67241 1.95929 0
M  V30 7489 H 717.541 -3.01961 0.875595 0
M  V30 7490 N 721.313 -1.57302 -0.09688 0
M  V30 7491 C 722.245 -1.98618 -1.14384 0
M  V30 7492 C 723.258 -0.888483 -1.36418 0
M  V30 7493 O 724.447 -1.16661 -1.35101 0
M  V30 7494 C 721.547 -2.28838 -2.49973 0
M  V30 7495 C 720.72 -3.60132 -2.48241 0
M  V30 7496 C 719.779 -3.7831 -3.65743 0
M  V30 7497 O 718.805 -4.50183 -3.48316 0
M  V30 7498 N 720.007 -3.18752 -4.85157 0
M  V30 7499 H 722.772 -2.8904 -0.792202 0
M  V30 7500 H 720.333 -1.59356 -0.285883 0
M  V30 7501 H 722.325 -2.38193 -3.27179 0
M  V30 7502 H 720.895 -1.44431 -2.77233 0
M  V30 7503 H 720.115 -3.61763 -1.56593 0
M  V30 7504 H 721.403 -4.46389 -2.4416 0
M  V30 7505 H 720.801 -2.60368 -5.0222 0
M  V30 7506 H 719.358 -3.33595 -5.59962 0
M  V30 7507 N 722.791 0.367657 -1.53252 0
M  V30 7508 C 723.723 1.47032 -1.75824 0
M  V30 7509 C 724.736 1.49736 -0.63898 0
M  V30 7510 O 725.925 1.53253 -0.915193 0
M  V30 7511 C 723.025 2.85805 -1.82122 0
M  V30 7512 C 722.198 3.06822 -3.11736 0
M  V30 7513 C 721.257 4.25698 -3.09302 0
M  V30 7514 O 720.283 4.20972 -3.83107 0
M  V30 7515 N 721.485 5.33002 -2.29977 0
M  V30 7516 H 724.25 1.28048 -2.70968 0
M  V30 7517 H 721.811 0.557363 -1.52004 0
M  V30 7518 H 723.803 3.63465 -1.77975 0
M  V30 7519 H 722.373 2.98046 -0.942716 0
M  V30 7520 H 721.593 2.1684 -3.29202 0
M  V30 7521 H 722.881 3.17731 -3.97397 0
M  V30 7522 H 722.279 5.39703 -1.69521 0
M  V30 7523 H 720.836 6.09247 -2.3165 0
M  V30 7524 N 724.269 1.44576 0.627338 0
M  V30 7525 C 725.497 1.51048 1.41394 0
M  V30 7526 C 725.912 0.136568 1.88305 0
M  V30 7527 O 725.269 -0.858251 1.6106 0
M  V30 7528 C 725.32 2.47837 2.63172 0
M  V30 7529 O 725.041 3.79887 2.18215 0
M  V30 7530 C 726.542 2.63811 3.56257 0
M  V30 7531 H 723.762 0.512171 0.4335 0
M  V30 7532 H 726.306 1.89576 0.766878 0
M  V30 7533 H 724.461 2.12433 3.23961 0
M  V30 7534 H 724.875 4.32177 2.97192 0
M  V30 7535 H 726.349 3.35554 4.38301 0
M  V30 7536 H 726.826 1.69169 4.05313 0
M  V30 7537 H 727.432 3.0013 3.01333 0
M  V30 7538 N 725.747 -0.868086 1.31537 0
M  V30 7539 C 726.972 -1.65926 1.24432 0
M  V30 7540 C 727.397 -1.87169 -0.186936 0
M  V30 7541 O 726.755 -1.4148 -1.13371 0
M  V30 7542 C 726.803 -3.00347 1.9956 0
M  V30 7543 O 725.907 -3.90221 1.33422 0
M  V30 7544 H 725.248 -0.506375 0.429512 0
M  V30 7545 H 727.778 -1.0822 1.73637 0
M  V30 7546 H 727.788 -3.50269 2.09226 0
M  V30 7547 H 726.463 -2.84205 3.03645 0
M  V30 7548 H 725.04 -3.48672 1.32219 0
M  V30 7549 N 727.225 -1.14528 -1.08264 0
M  V30 7550 C 728.502 -0.825185 -1.77342 0
M  V30 7551 C 728.882 0.681037 -1.99813 0
M  V30 7552 O 728.23 1.62234 -1.60912 0
M  V30 7553 C 728.44 -1.62556 -3.08831 0
M  V30 7554 C 729.788 -1.82585 -3.83338 0
M  V30 7555 O 730.812 -1.59254 -3.18617 0
M  V30 7556 O 729.671 -2.21598 -4.99556 0
M  V30 7557 H 726.765 -0.302531 -0.769678 0
M  V30 7558 H 729.311 -1.25056 -1.14713 0
M  V30 7559 H 728.083 -2.64862 -2.88035 0
M  V30 7560 H 727.706 -1.1959 -3.79189 0
M  V30 7561 N 728.703 1.26451 -0.940633 0
M  V30 7562 C 729.633 2.28773 -0.467479 0
M  V30 7563 C 730.614 1.63218 0.478955 0
M  V30 7564 O 731.799 1.90427 0.380929 0
M  V30 7565 C 728.929 3.46259 0.268656 0
M  V30 7566 C 727.883 4.23898 -0.591171 0
M  V30 7567 C 727.209 5.33993 0.274891 0
M  V30 7568 C 728.509 4.87974 -1.86223 0
M  V30 7569 H 730.203 2.68601 -1.32265 0
M  V30 7570 H 727.749 1.29123 -0.637436 0
M  V30 7571 H 729.702 4.16951 0.610696 0
M  V30 7572 H 728.426 3.05383 1.15796 0
M  V30 7573 H 727.085 3.54969 -0.916098 0
M  V30 7574 H 726.733 4.89358 1.16353 0
M  V30 7575 H 726.433 5.86849 -0.297006 0
M  V30 7576 H 727.957 6.07523 0.612213 0
M  V30 7577 H 729.371 5.50883 -1.58747 0
M  V30 7578 H 727.768 5.50945 -2.37866 0
M  V30 7579 H 728.838 4.10945 -2.57394 0
M  V30 7580 N 730.181 0.707592 1.40822 0
M  V30 7581 C 731.129 0.0386643 2.32568 0
M  V30 7582 C 732.123 -0.755653 1.51612 0
M  V30 7583 O 733.329 -0.659921 1.67467 0
M  V30 7584 H 729.704 -0.00629912 0.751974 0
M  V30 7585 H 731.675 0.8293 2.86645 0
M  V30 7586 C 730.424 -0.87496 3.36511 0
M  V30 7587 H 729.747 -0.273157 3.98866 0
M  V30 7588 H 731.187 -1.31111 4.03219 0
M  V30 7589 C 729.646 -1.99672 2.71353 0
M  V30 7590 O 730.176 -3.08676 2.57064 0
M  V30 7591 N 728.382 -1.77799 2.29861 0
M  V30 7592 H 727.929 -0.89147 2.41683 0
M  V30 7593 H 727.887 -2.53036 1.86601 0
M  V30 7594 N 731.66 -1.50943 0.453197 0
M  V30 7595 C 732.608 -2.29728 -0.364419 0
M  V30 7596 C 733.602 -1.36246 -1.00664 0
M  V30 7597 O 734.808 -1.53518 -0.939794 0
M  V30 7598 H 731.183 -0.739536 -0.136347 0
M  V30 7599 H 733.154 -2.96672 0.320696 0
M  V30 7600 C 731.903 -3.1629 -1.44415 0
M  V30 7601 H 731.226 -3.88119 -0.959343 0
M  V30 7602 H 732.666 -3.74444 -1.98917 0
M  V30 7603 C 731.125 -2.32702 -2.43622 0
M  V30 7604 O 731.655 -1.99763 -3.48508 0
M  V30 7605 N 729.861 -1.95621 -2.14897 0
M  V30 7606 H 729.408 -2.22607 -1.29629 0
M  V30 7607 H 729.366 -1.39993 -2.81513 0
M  V30 7608 N 733.138 -0.185124 -1.56509 0
M  V30 7609 C 734.101 0.72591 -2.17401 0
M  V30 7610 C 735.101 1.14819 -1.12575 0
M  V30 7611 O 736.291 1.0629 -1.38015 0
M  V30 7612 C 733.423 1.98979 -2.76803 0
M  V30 7613 H 734.616 0.195588 -2.99262 0
M  V30 7614 H 732.169 0.0644772 -1.56167 0
M  V30 7615 H 732.904 2.56287 -1.98714 0
M  V30 7616 H 732.689 1.69583 -3.53531 0
M  V30 7617 H 734.179 2.63966 -3.23592 0
M  V30 7618 N 734.616 1.57351 0.0885366 0
M  V30 7619 C 735.864 1.86051 0.789262 0
M  V30 7620 C 736.185 0.774763 1.78948 0
M  V30 7621 O 735.455 -0.198324 1.94894 0
M  V30 7622 H 734.035 0.686508 0.294475 0
M  V30 7623 H 736.697 1.94779 0.0686055 0
M  V30 7624 H 735.793 2.83007 1.31581 0
M  V30 7625 N 736.094 -0.359525 1.53444 0
M  V30 7626 C 737.041 -1.44073 1.8031 0
M  V30 7627 C 738.011 -1.52946 0.647811 0
M  V30 7628 O 739.196 -1.68739 0.890614 0
M  V30 7629 C 736.336 -2.80941 2.00416 0
M  V30 7630 C 735.449 -2.80986 3.28132 0
M  V30 7631 C 734.584 -4.09468 3.38393 0
M  V30 7632 C 733.623 -4.03679 4.60119 0
M  V30 7633 N 732.76 -5.23821 4.675 0
M  V30 7634 H 737.6 -1.20464 2.72566 0
M  V30 7635 H 735.137 -0.583859 1.35017 0
M  V30 7636 H 737.095 -3.60459 2.1006 0
M  V30 7637 H 735.725 -3.02936 1.11489 0
M  V30 7638 H 734.777 -1.93666 3.27411 0
M  V30 7639 H 736.089 -2.72583 4.17732 0
M  V30 7640 H 735.243 -4.97404 3.47382 0
M  V30 7641 H 733.982 -4.20632 2.4682 0
M  V30 7642 H 732.987 -3.14129 4.51224 0
M  V30 7643 H 734.212 -3.94112 5.5304 0
M  V30 7644 H 732.158 -5.35559 3.7883 0
M  V30 7645 H 732.075 -5.17611 5.51013 0
M  V30 7646 H 733.343 -6.13572 4.8078 0
M  V30 7647 N 737.572 -1.44907 -0.619662 0
M  V30 7648 C 738.52 -1.52971 -1.75222 0
M  V30 7649 C 739.514 -0.400531 -1.64597 0
M  V30 7650 O 740.72 -0.575952 -1.70537 0
M  V30 7651 H 737.095 -0.480241 -0.578682 0
M  V30 7652 H 739.066 -2.48269 -1.65545 0
M  V30 7653 C 737.815 -1.50204 -3.13583 0
M  V30 7654 H 737.138 -2.36412 -3.22412 0
M  V30 7655 H 738.578 -1.59905 -3.92691 0
M  V30 7656 C 737.037 -0.22455 -3.36151 0
M  V30 7657 O 737.567 0.700574 -3.95544 0
M  V30 7658 N 735.773 -0.124052 -2.90335 0
M  V30 7659 H 735.32 -0.87774 -2.42185 0
M  V30 7660 H 735.278 0.729914 -3.0581 0
M  V30 7661 N 739.05 0.861098 -1.31996 0
M  V30 7662 C 740.296 1.61707 -1.23379 0
M  V30 7663 C 740.651 1.91315 0.204026 0
M  V30 7664 O 739.944 1.53997 1.13998 0
M  V30 7665 C 740.138 2.94822 -2.02027 0
M  V30 7666 C 739.967 2.78212 -3.5331 0
M  V30 7667 C 738.737 2.76933 -4.22654 0
M  V30 7668 C 740.935 2.52432 -4.48088 0
M  V30 7669 N 738.917 2.51466 -5.60034 0
M  V30 7670 C 740.288 2.36312 -5.73198 0
M  V30 7671 C 742.343 2.37848 -4.37416 0
M  V30 7672 C 741.046 2.0709 -6.88844 0
M  V30 7673 C 743.072 2.10016 -5.52854 0
M  V30 7674 C 742.434 1.94691 -6.7696 0
M  V30 7675 H 738.533 0.595703 -0.506618 0
M  V30 7676 H 741.117 1.01275 -1.66287 0
M  V30 7677 H 739.288 3.53243 -1.61474 0
M  V30 7678 H 741.02 3.59756 -1.85358 0
M  V30 7679 H 737.775 2.89638 -3.74709 0
M  V30 7680 H 738.199 2.41679 -6.32392 0
M  V30 7681 H 742.841 2.4842 -3.42122 0
M  V30 7682 H 740.559 1.95256 -7.84156 0
M  V30 7683 H 744.145 1.99519 -5.46519 0
M  V30 7684 H 743.025 1.7346 -7.64775 0
M  V30 7685 N 740.528 1.15101 1.07655 0
M  V30 7686 C 741.478 0.813448 2.12995 0
M  V30 7687 C 742.462 -0.200899 1.59641 0
M  V30 7688 O 743.654 -0.00209918 1.77 0
M  V30 7689 C 740.783 0.301078 3.41977 0
M  V30 7690 C 739.869 1.3454 4.02194 0
M  V30 7691 N 740.26 2.55181 4.36711 0
M  V30 7692 C 738.558 1.19742 4.29625 0
M  V30 7693 C 739.259 3.22094 4.84387 0
M  V30 7694 N 738.235 2.49486 4.82968 0
M  V30 7695 H 742.037 1.73105 2.37511 0
M  V30 7696 H 739.551 1.03601 1.25063 0
M  V30 7697 H 741.548 0.040914 4.1688 0
M  V30 7698 H 740.208 -0.610629 3.18907 0
M  V30 7699 H 741.219 2.92349 4.27496 0
M  V30 7700 H 737.896 0.345353 4.16069 0
M  V30 7701 H 739.286 4.24996 5.20411 0
M  V30 7702 N 742.006 -1.2595 0.947325 0
M  V30 7703 C 742.939 -2.24559 0.406009 0
M  V30 7704 C 743.917 -1.54441 -0.508598 0
M  V30 7705 O 745.101 -1.83181 -0.444644 0
M  V30 7706 C 742.228 -3.36136 -0.415987 0
M  V30 7707 C 741.274 -4.24245 0.437969 0
M  V30 7708 S 742.107 -5.01948 1.86572 0
M  V30 7709 C 743.263 -6.16997 1.05194 0
M  V30 7710 H 743.496 -2.70128 1.24171 0
M  V30 7711 H 741.029 -1.34912 0.750874 0
M  V30 7712 H 742.987 -4.00861 -0.88433 0
M  V30 7713 H 741.648 -2.89167 -1.22643 0
M  V30 7714 H 740.841 -5.03634 -0.192127 0
M  V30 7715 H 740.443 -3.64416 0.841235 0
M  V30 7716 H 742.735 -6.76848 0.297126 0
M  V30 7717 H 743.678 -6.84324 1.8195 0
M  V30 7718 H 744.086 -5.61458 0.585294 0
M  V30 7719 N 743.484 -0.715051 -1.40445 0
M  V30 7720 C 744.732 -0.253826 -2.005 0
M  V30 7721 C 745.053 1.15681 -1.5698 0
M  V30 7722 O 744.323 1.78414 -0.809027 0
M  V30 7723 H 742.903 -0.0908537 -0.741454 0
M  V30 7724 H 745.565 -0.920561 -1.7179 0
M  V30 7725 H 744.661 -0.286499 -3.10782 0
M  V30 7726 N 744.962 1.50701 -0.461195 0
M  V30 7727 C 746.19 2.06681 0.0951756 0
M  V30 7728 C 746.605 1.32615 1.34382 0
M  V30 7729 O 745.962 0.392531 1.78229 0
M  V30 7730 C 746.013 3.59354 0.393316 0
M  V30 7731 O 745.734 4.30626 -0.805797 0
M  V30 7732 C 747.235 4.31926 0.997744 0
M  V30 7733 H 744.455 0.670995 -0.00267259 0
M  V30 7734 H 746.999 1.93991 -0.647137 0
M  V30 7735 H 745.154 3.7188 1.08555 0
M  V30 7736 H 745.568 5.21667 -0.544409 0
M  V30 7737 H 747.042 5.39756 1.15619 0
M  V30 7738 H 747.519 3.91772 1.98523 0
M  V30 7739 H 748.125 4.23905 0.344188 0
M  V30 7740 N 746.441 0.193421 1.56409 0
M  V30 7741 C 747.666 -0.454552 2.02358 0
M  V30 7742 C 748.091 -1.54516 1.07268 0
M  V30 7743 O 747.449 -1.81214 0.0558962 0
M  V30 7744 C 747.497 -0.989469 3.46759 0
M  V30 7745 O 746.601 -2.10244 3.54783 0
M  V30 7746 H 745.942 -0.106417 0.655417 0
M  V30 7747 H 748.472 0.303807 2.02332 0
M  V30 7748 H 748.482 -1.30649 3.86516 0
M  V30 7749 H 747.157 -0.191083 4.15461 0
M  V30 7750 H 745.734 -1.79419 3.26899 0
M  V30 7751 N 747.919 -1.57396 -0.0801906 0
M  V30 7752 C 749.166 -1.86836 -0.780927 0
M  V30 7753 C 749.494 -0.784012 -1.77999 0
M  V30 7754 O 748.749 0.220881 -1.94449 0
M  V30 7755 C 749.048 -3.22915 -1.53169 0
M  V30 7756 C 748.714 -4.45843 -0.67339 0
M  V30 7757 C 747.376 -4.79213 -0.436829 0
M  V30 7758 C 749.728 -5.21142 -0.0776786 0
M  V30 7759 C 747.056 -5.853 0.405062 0
M  V30 7760 C 749.408 -6.28119 0.751619 0
M  V30 7761 C 748.072 -6.59995 0.998131 0
M  V30 7762 H 747.342 -0.683682 -0.285761 0
M  V30 7763 H 749.989 -1.91454 -0.0419435 0
M  V30 7764 H 748.294 -3.14049 -2.34265 0
M  V30 7765 H 749.991 -3.42926 -2.07853 0
M  V30 7766 H 746.581 -4.19721 -0.867891 0
M  V30 7767 H 750.765 -4.95682 -0.247572 0
M  V30 7768 H 746.021 -6.084 0.60488 0
M  V30 7769 H 750.195 -6.8563 1.22 0
M  V30 7770 H 747.822 -7.42027 1.65227 0
M  V30 7771 N 749.397 0.351382 -1.53633 0
M  V30 7772 C 750.347 1.4316 -1.77452 0
M  V30 7773 C 751.331 1.48076 -0.62946 0
M  V30 7774 O 752.523 1.53078 -0.888599 0
M  V30 7775 C 749.652 2.80409 -1.98055 0
M  V30 7776 C 748.738 2.79915 -3.18604 0
M  V30 7777 N 749.129 2.49057 -4.40232 0
M  V30 7778 C 747.427 3.11067 -3.19614 0
M  V30 7779 C 748.128 2.566 -5.22045 0
M  V30 7780 N 747.104 2.919 -4.5858 0
M  V30 7781 H 750.906 1.18188 -2.69089 0
M  V30 7782 H 748.42 0.559684 -1.52451 0
M  V30 7783 H 750.417 3.58231 -2.13251 0
M  V30 7784 H 749.077 3.06334 -1.07655 0
M  V30 7785 H 750.088 2.22395 -4.67719 0
M  V30 7786 H 746.765 3.42215 -2.39154 0
M  V30 7787 H 748.155 2.35968 -6.29101 0
M  V30 7788 N 750.875 1.45233 0.611969 0
M  V30 7789 C 751.822 1.5357 1.72293 0
M  V30 7790 C 752.792 0.381912 1.6165 0
M  V30 7791 O 753.977 0.594765 1.81293 0
M  V30 7792 C 751.117 1.50419 3.10593 0
M  V30 7793 C 750.23 2.76316 3.32074 0
M  V30 7794 C 749.365 2.64866 4.60456 0
M  V30 7795 C 748.404 3.85838 4.7518 0
M  V30 7796 N 747.541 3.72949 5.94856 0
M  V30 7797 H 752.381 2.4848 1.64504 0
M  V30 7798 H 749.918 1.23302 0.802191 0
M  V30 7799 H 751.876 1.4658 3.90602 0
M  V30 7800 H 750.506 0.590621 3.17351 0
M  V30 7801 H 749.558 2.90261 2.45872 0
M  V30 7802 H 750.87 3.66055 3.38829 0
M  V30 7803 H 750.024 2.58969 5.48653 0
M  V30 7804 H 748.763 1.72719 4.56092 0
M  V30 7805 H 747.768 3.92099 3.85407 0
M  V30 7806 H 748.993 4.79045 4.81344 0
M  V30 7807 H 746.939 2.83567 5.91545 0
M  V30 7808 H 746.856 4.56319 6.02751 0
M  V30 7809 H 748.124 3.70976 6.85563 0
M  V30 7810 N 752.353 -0.854086 1.3245 0
M  V30 7811 C 753.578 -1.64597 1.26185 0
M  V30 7812 C 754.003 -1.87357 -0.167074 0
M  V30 7813 O 753.361 -1.42675 -1.11864 0
M  V30 7814 C 753.409 -2.98213 2.02734 0
M  V30 7815 O 752.513 -3.88784 1.37554 0
M  V30 7816 H 751.854 -0.50179 0.434859 0
M  V30 7817 H 754.384 -1.06372 1.74775 0
M  V30 7818 H 754.394 -3.4803 2.1293 0
M  V30 7819 H 753.069 -2.80969 3.06642 0
M  V30 7820 H 751.646 -3.4725 1.3591 0
M  V30 7821 N 753.831 -1.1567 -1.07043 0
M  V30 7822 C 755.242 -0.942408 -1.61169 0
M  V30 7823 C 755.593 0.515537 -1.89306 0
M  V30 7824 O 754.718 1.38726 -1.66084 0
M  V30 7825 C 755.313 -1.70431 -2.92812 0
M  V30 7826 C 753.872 -1.53521 -3.43669 0
M  V30 7827 C 753.019 -1.7179 -2.17678 0
M  V30 7828 H 755.97 -1.3065 -0.9009 0
M  V30 7829 H 755.991 -1.17566 -3.61882 0
M  V30 7830 H 755.503 -2.76538 -2.72302 0
M  V30 7831 H 753.604 -0.498224 -3.69254 0
M  V30 7832 H 753.717 -2.31422 -4.19501 0
M  V30 7833 H 752.081 -1.14468 -2.27529 0
M  V30 7834 H 752.864 -2.79269 -1.99659 0
M  V30 7835 N 755.309 1.25446 -0.953992 0
M  V30 7836 C 756.555 1.93756 -0.618888 0
M  V30 7837 C 756.91 1.73344 0.83484 0
M  V30 7838 O 756.203 1.06753 1.59105 0
M  V30 7839 C 756.397 3.45555 -0.912496 0
M  V30 7840 C 756.226 3.8073 -2.39321 0
M  V30 7841 C 754.996 4.02819 -3.05065 0
M  V30 7842 C 757.194 3.88286 -3.37251 0
M  V30 7843 N 755.176 4.24981 -4.43017 0
M  V30 7844 C 756.547 4.1513 -4.60507 0
M  V30 7845 C 758.602 3.70965 -3.32099 0
M  V30 7846 C 757.305 4.26454 -5.79249 0
M  V30 7847 C 759.331 3.83528 -4.50178 0
M  V30 7848 C 758.693 4.10783 -5.72221 0
M  V30 7849 H 754.792 0.731271 -0.277069 0
M  V30 7850 H 757.376 1.5125 -1.22604 0
M  V30 7851 H 755.547 3.86959 -0.334284 0
M  V30 7852 H 757.279 4.01117 -0.537362 0
M  V30 7853 H 754.034 3.9868 -2.55639 0
M  V30 7854 H 754.458 4.4007 -5.14459 0
M  V30 7855 H 759.1 3.4891 -2.38791 0
M  V30 7856 H 756.818 4.47325 -6.72998 0
M  V30 7857 H 760.404 3.71513 -4.47738 0
M  V30 7858 H 759.284 4.20285 -6.62065 0
M  V30 7859 N 756.787 0.722489 1.40064 0
M  V30 7860 C 758.203 0.396758 1.5459 0
M  V30 7861 C 758.403 -1.09375 1.69232 0
M  V30 7862 O 757.459 -1.87984 1.68578 0
M  V30 7863 C 758.772 1.16885 2.77053 0
M  V30 7864 C 760.32 1.15583 2.90877 0
M  V30 7865 C 760.795 1.91023 4.16262 0
M  V30 7866 N 762.286 1.88126 4.23276 0
M  V30 7867 C 763.021 2.43315 5.19216 0
M  V30 7868 N 762.517 3.07089 6.21022 0
M  V30 7869 N 764.31 2.33418 5.11344 0
M  V30 7870 H 756.461 1.68887 1.28806 0
M  V30 7871 H 758.724 0.714231 0.62336 0
M  V30 7872 H 758.43 2.22301 2.72534 0
M  V30 7873 H 758.304 0.765011 3.69361 0
M  V30 7874 H 760.691 0.10984 2.94896 0
M  V30 7875 H 760.772 1.59895 1.99668 0
M  V30 7876 H 760.416 2.95616 4.13006 0
M  V30 7877 H 760.346 1.44126 5.06493 0
M  V30 7878 H 762.837 1.41654 3.50346 0
M  V30 7879 H 763.15 3.467 6.90666 0
M  V30 7880 H 761.495 3.11175 6.21446 0
M  V30 7881 H 764.686 1.83248 4.30741 0
M  V30 7882 H 764.859 2.7673 5.85939 0
M  V30 7883 N 758.265 -1.50454 0.469181 0
M  V30 7884 C 759.212 -2.28486 -0.325982 0
M  V30 7885 C 760.182 -1.33455 -0.988893 0
M  V30 7886 O 761.367 -1.6239 -1.0017 0
M  V30 7887 C 758.507 -3.15288 -1.40313 0
M  V30 7888 C 757.62 -4.25348 -0.755183 0
M  V30 7889 C 756.755 -4.9941 -1.81006 0
M  V30 7890 C 755.794 -6.01348 -1.14226 0
M  V30 7891 N 754.931 -6.68695 -2.1399 0
M  V30 7892 H 759.771 -2.95987 0.345753 0
M  V30 7893 H 757.308 -1.45965 0.182355 0
M  V30 7894 H 759.266 -3.63964 -2.03927 0
M  V30 7895 H 757.896 -2.49837 -2.04405 0
M  V30 7896 H 756.948 -3.80399 -0.00651901 0
M  V30 7897 H 758.26 -4.98279 -0.227941 0
M  V30 7898 H 757.414 -5.51794 -2.52206 0
M  V30 7899 H 756.153 -4.26181 -2.3711 0
M  V30 7900 H 755.158 -5.48225 -0.415876 0
M  V30 7901 H 756.383 -6.76548 -0.588135 0
M  V30 7902 H 754.329 -5.98258 -2.69115 0
M  V30 7903 H 754.246 -7.37495 -1.66246 0
M  V30 7904 H 755.514 -7.25697 -2.84576 0
M  V30 7905 N 759.743 -0.201713 -1.56304 0
M  V30 7906 C 760.971 0.440723 -2.02152 0
M  V30 7907 C 761.386 1.54735 -1.08179 0
M  V30 7908 O 760.743 1.82289 -0.0878196 0
M  V30 7909 C 760.794 0.990884 -3.47655 0
M  V30 7910 O 760.515 -0.0715937 -4.38041 0
M  V30 7911 C 762.016 1.70854 -4.09052 0
M  V30 7912 H 759.236 0.109987 -0.661924 0
M  V30 7913 H 761.78 -0.312358 -2.021 0
M  V30 7914 H 759.935 1.69432 -3.48384 0
M  V30 7915 H 760.349 0.338892 -5.23404 0
M  V30 7916 H 761.823 2.04572 -5.12693 0
M  V30 7917 H 762.3 2.61462 -3.52894 0
M  V30 7918 H 762.906 1.0508 -4.12114 0
M  V30 7919 N 761.222 1.57436 0.0718424 0
M  V30 7920 C 762.499 1.78312 0.804006 0
M  V30 7921 C 762.879 0.789273 1.9579 0
M  V30 7922 O 762.227 -0.177605 2.27809 0
M  V30 7923 C 762.437 3.24798 1.277 0
M  V30 7924 C 763.785 3.88627 1.71039 0
M  V30 7925 O 764.809 3.28689 1.37266 0
M  V30 7926 O 763.668 4.94073 2.33567 0
M  V30 7927 H 760.762 0.73178 0.385262 0
M  V30 7928 H 763.308 1.69621 0.0519219 0
M  V30 7929 H 762.08 3.88688 0.45134 0
M  V30 7930 H 761.703 3.38213 2.0904 0
M  V30 7931 N 762.7 -0.34323 1.53817 0
M  V30 7932 C 763.63 -1.42709 1.84814 0
M  V30 7933 C 764.611 -1.5488 0.703297 0
M  V30 7934 O 765.796 -1.69082 0.955237 0
M  V30 7935 C 762.926 -2.79756 2.05801 0
M  V30 7936 C 761.88 -2.82392 3.21619 0
M  V30 7937 C 761.206 -4.22326 3.2794 0
M  V30 7938 C 762.506 -2.479 4.59721 0
M  V30 7939 H 764.2 -1.17018 2.75585 0
M  V30 7940 H 761.746 -0.561485 1.32602 0
M  V30 7941 H 763.699 -3.55627 2.26069 0
M  V30 7942 H 762.423 -3.06883 1.11761 0
M  V30 7943 H 761.082 -2.08974 3.01207 0
M  V30 7944 H 760.73 -4.46564 2.31494 0
M  V30 7945 H 760.43 -4.25001 4.05768 0
M  V30 7946 H 761.954 -5.00039 3.50419 0
M  V30 7947 H 763.368 -3.13484 4.80001 0
M  V30 7948 H 761.765 -2.61857 5.39954 0
M  V30 7949 H 762.835 -1.43087 4.63308 0
M  V30 7950 N 764.178 -1.45556 -0.604258 0
M  V30 7951 C 765.426 -1.4945 -1.36048 0
M  V30 7952 C 765.747 -0.138933 -1.94504 0
M  V30 7953 O 765.017 0.832097 -1.7735 0
M  V30 7954 H 763.597 -0.550381 -0.505064 0
M  V30 7955 H 766.259 -1.81535 -0.709308 0
M  V30 7956 H 765.355 -2.23519 -2.17821 0
M  V30 7957 N 765.656 0.84705 -1.32902 0
M  V30 7958 C 766.586 1.97166 -1.25091 0
M  V30 7959 C 767.567 1.69578 -0.133161 0
M  V30 7960 O 768.752 1.91519 -0.321591 0
M  V30 7961 C 765.882 3.33157 -0.981006 0
M  V30 7962 C 764.836 3.75119 -2.06082 0
M  V30 7963 C 764.162 5.08826 -1.64318 0
M  V30 7964 C 765.462 3.89774 -3.47669 0
M  V30 7965 H 767.156 2.03958 -2.19184 0
M  V30 7966 H 764.702 0.979907 -1.05517 0
M  V30 7967 H 766.655 4.11393 -0.912891 0
M  V30 7968 H 765.379 3.266 -0.00445559 0
M  V30 7969 H 764.038 2.9914 -2.11921 0
M  V30 7970 H 763.686 4.98732 -0.653876 0
M  V30 7971 H 763.386 5.37873 -2.36572 0
M  V30 7972 H 764.91 5.89546 -1.58958 0
M  V30 7973 H 766.324 4.58343 -3.44376 0
M  V30 7974 H 764.721 4.30248 -4.18338 0
M  V30 7975 H 765.791 2.92463 -3.86773 0
M  V30 7976 N 767.134 1.16236 1.06428 0
M  V30 7977 C 768.383 0.937523 1.78587 0
M  V30 7978 C 768.696 -0.536 1.88113 0
M  V30 7979 O 769.902 -0.878697 2.56887 0
M  V30 7980 C 768.358 1.62808 3.2097 0
M  V30 7981 C 767.966 3.13927 3.19615 0
M  V30 7982 C 769.71 1.48515 3.97673 0
M  V30 7983 C 767.617 3.75727 4.56709 0
M  V30 7984 H 766.547 0.347125 0.669343 0
M  V30 7985 H 769.198 1.39353 1.19385 0
M  V30 7986 H 767.58 1.09977 3.80422 0
M  V30 7987 H 768.754 3.7359 2.69753 0
M  V30 7988 H 767.069 3.28089 2.56411 0
M  V30 7989 H 769.666 1.92069 4.99013 0
M  V30 7990 H 770.009 0.433913 4.14032 0
M  V30 7991 H 770.542 1.98494 3.44739 0
M  V30 7992 H 767.281 4.80793 4.45554 0
M  V30 7993 H 766.801 3.20849 5.0677 0
M  V30 7994 H 768.48 3.77203 5.25668 0
M  V30 7995 N 768.612 -1.24939 0.960631 0
M  V30 7996 C 770.023 -1.74701 0.658529 0
M  V30 7997 C 770.374 -1.77967 -0.825959 0
M  V30 7998 O 769.499 -1.40444 -1.64634 0
M  V30 7999 C 770.094 -3.17263 1.18867 0
M  V30 8000 C 768.653 -3.64561 0.936614 0
M  V30 8001 C 767.8 -2.43423 1.32817 0
M  V30 8002 H 770.751 -1.10741 1.13676 0
M  V30 8003 H 770.772 -3.76481 0.551589 0
M  V30 8004 H 770.284 -3.14854 2.26912 0
M  V30 8005 H 768.385 -3.72378 -0.128608 0
M  V30 8006 H 768.498 -4.52392 1.57729 0
M  V30 8007 H 766.862 -2.43513 0.746548 0
M  V30 8008 H 767.645 -2.437 2.41796 0
M  V30 8009 N 770.09 -0.729906 -1.39679 0
M  V30 8010 C 771.315 -0.284345 -2.05442 0
M  V30 8011 C 771.74 1.07056 -1.54663 0
M  V30 8012 O 771.098 1.67732 -0.688157 0
M  V30 8013 C 771.146 -0.290089 -3.59431 0
M  V30 8014 O 770.25 0.723978 -4.05995 0
M  V30 8015 H 769.591 -0.130311 -0.651088 0
M  V30 8016 H 772.121 -0.994403 -1.78809 0
M  V30 8017 H 772.131 -0.132712 -4.07784 0
M  V30 8018 H 770.806 -1.27877 -3.95753 0
M  V30 8019 H 769.383 0.533154 -3.69069 0
M  V30 8020 N 771.568 1.50203 -0.477153 0
M  V30 8021 C 772.814 2.02658 0.0758507 0
M  V30 8022 C 773.147 1.358 1.38824 0
M  V30 8023 O 772.422 0.485696 1.88338 0
M  V30 8024 C 772.705 3.59208 0.253339 0
M  V30 8025 C 772.558 4.36629 -1.0805 0
M  V30 8026 C 773.877 4.28469 1.00509 0
M  V30 8027 H 770.996 0.736538 0.0260921 0
M  V30 8028 H 773.638 1.79464 -0.623925 0
M  V30 8029 H 771.788 3.79101 0.849378 0
M  V30 8030 H 773.46 4.28292 -1.71358 0
M  V30 8031 H 771.703 4.0013 -1.67566 0
M  V30 8032 H 772.374 5.44449 -0.909883 0
M  V30 8033 H 774.85 4.13087 0.499818 0
M  V30 8034 H 773.726 5.37804 1.09808 0
M  V30 8035 H 773.987 3.92057 2.04314 0
M  V30 8036 N 773.046 0.209999 1.56195 0
M  V30 8037 C 774.274 -0.429996 2.02382 0
M  V30 8038 C 774.689 -1.54159 1.08998 0
M  V30 8039 O 774.046 -1.82239 0.0974856 0
M  V30 8040 C 774.097 -0.972433 3.48175 0
M  V30 8041 O 773.818 0.0948231 4.37997 0
M  V30 8042 C 775.319 -1.68683 4.09952 0
M  V30 8043 H 772.539 -0.106475 0.662498 0
M  V30 8044 H 775.083 0.323072 2.01932 0
M  V30 8045 H 773.238 -1.67582 3.49278 0
M  V30 8046 H 773.652 -0.31113 5.23576 0
M  V30 8047 H 775.126 -2.01851 5.13771 0
M  V30 8048 H 775.603 -2.59587 3.54276 0
M  V30 8049 H 776.209 -1.02893 4.12666 0
M  V30 8050 N 774.524 -1.57472 -0.0634922 0
M  V30 8051 C 775.434 -2.07621 -1.09227 0
M  V30 8052 C 776.45 -1.00746 -1.41867 0
M  V30 8053 O 777.626 -1.32269 -1.51878 0
M  V30 8054 C 774.691 -2.51707 -2.38421 0
M  V30 8055 C 773.752 -3.72917 -2.12676 0
M  V30 8056 C 772.985 -4.14891 -3.3571 0
M  V30 8057 O 773.208 -3.56663 -4.45137 0
M  V30 8058 O 772.142 -5.07616 -3.23434 0
M  V30 8059 H 775.968 -2.95612 -0.696205 0
M  V30 8060 H 773.553 -1.46787 -0.27819 0
M  V30 8061 H 775.435 -2.80547 -3.14438 0
M  V30 8062 H 774.11 -1.66842 -2.77391 0
M  V30 8063 H 773.017 -3.49148 -1.34337 0
M  V30 8064 H 774.35 -4.5866 -1.78583 0
M  V30 8065 N 776.003 0.335068 -1.53997 0
M  V30 8066 C 777.249 1.07594 -1.71905 0
M  V30 8067 C 777.582 1.88039 -0.485264 0
M  V30 8068 O 776.857 1.87482 0.517752 0
M  V30 8069 C 777.14 2.01016 -2.98772 0
M  V30 8070 C 776.993 1.23977 -4.32377 0
M  V30 8071 C 778.312 3.0071 -3.21343 0
M  V30 8072 H 775.431 0.38976 -0.625505 0
M  V30 8073 H 778.073 0.353684 -1.86679 0
M  V30 8074 H 776.223 2.62603 -2.86307 0
M  V30 8075 H 777.895 0.649383 -4.56706 0
M  V30 8076 H 776.138 0.541878 -4.30402 0
M  V30 8077 H 776.809 1.92512 -5.17342 0
M  V30 8078 H 779.285 2.4924 -3.33194 0
M  V30 8079 H 778.161 3.63272 -4.11491 0
M  V30 8080 H 778.422 3.72549 -2.38033 0
M  V30 8081 N 777.481 1.45874 0.596531 0
M  V30 8082 C 778.431 1.5181 1.70111 0
M  V30 8083 C 779.415 0.380293 1.56341 0
M  V30 8084 O 780.607 0.627849 1.6549 0
M  V30 8085 C 777.736 1.49822 3.08883 0
M  V30 8086 C 776.822 2.68845 3.27998 0
M  V30 8087 N 777.213 3.93873 3.17329 0
M  V30 8088 C 775.511 2.64777 3.589 0
M  V30 8089 C 776.212 4.73371 3.38076 0
M  V30 8090 N 775.188 4.0501 3.62585 0
M  V30 8091 H 778.99 2.46289 1.60372 0
M  V30 8092 H 776.504 1.41321 0.800138 0
M  V30 8093 H 778.501 1.5216 3.8814 0
M  V30 8094 H 777.161 0.564086 3.19763 0
M  V30 8095 H 778.172 4.25329 2.95492 0
M  V30 8096 H 774.849 1.80323 3.7655 0
M  V30 8097 H 776.239 5.82357 3.35127 0
M  V30 8098 N 778.959 -0.83999 1.33349 0
M  V30 8099 C 780.184 -1.63249 1.27924 0
M  V30 8100 C 780.609 -1.87523 -0.147193 0
M  V30 8101 O 779.967 -1.43853 -1.10345 0
M  V30 8102 C 780.015 -2.96046 2.05886 0
M  V30 8103 O 779.119 -3.87303 1.4167 0
M  V30 8104 H 778.46 -0.49715 0.440157 0
M  V30 8105 H 780.99 -1.04512 1.75893 0
M  V30 8106 H 781 -3.45752 2.16609 0
M  V30 8107 H 779.675 -2.77701 3.09605 0
M  V30 8108 H 778.252 -3.45789 1.39585 0
M  V30 8109 N 780.437 -1.16799 -1.0581 0
M  V30 8110 C 781.684 -0.952524 -1.78699 0
M  V30 8111 C 782.012 0.51931 -1.87439 0
M  V30 8112 O 781.267 1.40151 -1.36587 0
M  V30 8113 C 781.566 -1.53111 -3.22942 0
M  V30 8114 C 781.232 -3.0261 -3.34273 0
M  V30 8115 C 779.894 -3.43418 -3.37072 0
M  V30 8116 C 782.246 -3.98611 -3.35795 0
M  V30 8117 C 779.574 -4.78838 -3.39015 0
M  V30 8118 C 781.926 -5.33923 -3.39277 0
M  V30 8119 C 780.59 -5.74205 -3.40361 0
M  V30 8120 H 779.86 -0.348553 -0.653905 0
M  V30 8121 H 782.507 -1.45591 -1.244 0
M  V30 8122 H 780.812 -0.949286 -3.80126 0
M  V30 8123 H 782.509 -1.34002 -3.77948 0
M  V30 8124 H 779.099 -2.70075 -3.32803 0
M  V30 8125 H 783.283 -3.68146 -3.32839 0
M  V30 8126 H 778.539 -5.09369 -3.38161 0
M  V30 8127 H 782.713 -6.08094 -3.39403 0
M  V30 8128 H 780.34 -6.79117 -3.4162 0
M  V30 8129 N 781.915 1.24427 -0.967243 0
M  V30 8130 C 782.878 2.23637 -0.501927 0
M  V30 8131 C 783.878 1.55712 0.401283 0
M  V30 8132 O 785.068 1.73085 0.196808 0
M  V30 8133 C 782.2 3.39804 0.273176 0
M  V30 8134 H 783.393 2.66317 -1.37897 0
M  V30 8135 H 780.946 1.37033 -0.751783 0
M  V30 8136 H 781.681 3.02562 1.16733 0
M  V30 8137 H 781.466 3.90303 -0.37498 0
M  V30 8138 H 782.956 4.13443 0.587776 0
M  V30 8139 N 783.393 0.737304 1.3929 0
M  V30 8140 C 784.621 0.296573 2.04763 0
M  V30 8141 C 785.036 -1.06941 1.55592 0
M  V30 8142 O 784.393 -1.67619 0.721822 0
M  V30 8143 C 784.444 0.291906 3.6032 0
M  V30 8144 O 784.165 1.60397 4.07682 0
M  V30 8145 C 785.666 -0.164708 4.42994 0
M  V30 8146 H 782.886 0.129251 0.658434 0
M  V30 8147 H 785.43 1.0016 1.78293 0
M  V30 8148 H 783.585 -0.364251 3.85684 0
M  V30 8149 H 783.999 1.51909 5.0202 0
M  V30 8150 H 785.473 -0.116814 5.51876 0
M  V30 8151 H 785.95 -1.21022 4.22197 0
M  V30 8152 H 786.556 0.461968 4.22784 0
M  V30 8153 N 784.871 -1.49948 0.485112 0
M  V30 8154 C 786.12 -2.01589 -0.066765 0
M  V30 8155 C 786.433 -1.371 -1.39509 0
M  V30 8156 O 787.639 -1.79978 -2.03274 0
M  V30 8157 C 786.095 -3.59501 -0.169476 0
M  V30 8158 C 785.703 -4.32955 1.15126 0
M  V30 8159 C 787.447 -4.19138 -0.672564 0
M  V30 8160 C 785.354 -5.82684 1.01158 0
M  V30 8161 H 784.284 -0.753453 -0.0287259 0
M  V30 8162 H 786.935 -1.72632 0.622132 0
M  V30 8163 H 785.317 -3.85106 -0.922471 0
M  V30 8164 H 786.491 -4.19064 1.9163 0
M  V30 8165 H 784.806 -3.84991 1.58654 0
M  V30 8166 H 787.403 -5.28767 -0.794325 0
M  V30 8167 H 787.746 -3.81447 -1.66745 0
M  V30 8168 H 788.279 -3.97793 0.0234415 0
M  V30 8169 H 785.018 -6.24873 1.98025 0
M  V30 8170 H 784.538 -5.99112 0.287151 0
M  V30 8171 H 786.217 -6.43376 0.683847 0
M  V30 8172 N 786.349 -0.21828 -1.56081 0
M  V30 8173 C 787.626 0.463143 -1.90038 0
M  V30 8174 C 788.006 1.77982 -1.13515 0
M  V30 8175 O 787.354 2.27199 -0.24345 0
M  V30 8176 C 787.564 0.659292 -3.42716 0
M  V30 8177 C 788.912 0.968203 -4.13414 0
M  V30 8178 O 789.936 0.746195 -3.48296 0
M  V30 8179 O 788.795 1.38936 -5.28544 0
M  V30 8180 H 785.889 0.244435 -0.790051 0
M  V30 8181 H 788.435 -0.260221 -1.67693 0
M  V30 8182 H 787.207 -0.269584 -3.9037 0
M  V30 8183 H 786.83 1.43426 -3.7083 0
M  V30 8184 N 787.827 1.57504 0.0551401 0
M  V30 8185 C 788.775 2.05884 1.08233 0
M  V30 8186 C 789.769 0.967383 1.39061 0
M  V30 8187 O 790.975 1.15242 1.38273 0
M  V30 8188 H 787.35 0.656673 0.366449 0
M  V30 8189 H 789.321 2.91273 0.648269 0
M  V30 8190 C 788.07 2.53221 2.38273 0
M  V30 8191 H 787.393 3.36809 2.15406 0
M  V30 8192 H 788.833 2.9081 3.08554 0
M  V30 8193 C 787.292 1.42218 3.05411 0
M  V30 8194 O 787.822 0.773638 3.9418 0
M  V30 8195 N 786.028 1.16316 2.66306 0
M  V30 8196 H 785.575 1.69237 1.94207 0
M  V30 8197 H 785.533 0.422534 3.11548 0
M  V30 8198 N 789.305 -0.326896 1.54172 0
M  V30 8199 C 790.253 -1.42232 1.84046 0
M  V30 8200 C 791.247 -1.53705 0.712115 0
M  V30 8201 O 792.453 -1.56131 0.895724 0
M  V30 8202 H 788.828 -0.474568 0.583343 0
M  V30 8203 H 790.799 -1.14259 2.75658 0
M  V30 8204 C 789.548 -2.78502 2.08163 0
M  V30 8205 H 788.871 -2.70447 2.94446 0
M  V30 8206 H 790.311 -3.54228 2.33021 0
M  V30 8207 C 788.77 -3.25415 0.872152 0
M  V30 8208 O 789.3 -4.01621 0.0797648 0
M  V30 8209 N 787.506 -2.82418 0.684716 0
M  V30 8210 H 787.053 -2.20566 1.33072 0
M  V30 8211 H 787.011 -3.14159 -0.123031 0
M  V30 8212 N 790.784 -1.46188 -0.588786 0
M  V30 8213 C 792.032 -1.50885 -1.34455 0
M  V30 8214 C 792.353 -0.159555 -1.94346 0
M  V30 8215 O 791.623 0.813239 -1.78222 0
M  V30 8216 H 790.203 -0.555707 -0.499198 0
M  V30 8217 H 792.865 -1.82277 -0.690014 0
M  V30 8218 H 791.961 -2.25816 -2.15438 0
M  V30 8219 N 792.262 0.832906 -1.33792 0
M  V30 8220 C 793.509 1.58853 -1.25586 0
M  V30 8221 C 793.837 1.93695 0.176807 0
M  V30 8222 O 793.092 1.59386 1.13554 0
M  V30 8223 C 793.391 2.9047 -2.08235 0
M  V30 8224 C 793.057 2.74965 -3.57358 0
M  V30 8225 C 791.719 2.70444 -3.98012 0
M  V30 8226 C 794.071 2.59347 -4.52093 0
M  V30 8227 C 791.399 2.48212 -5.31608 0
M  V30 8228 C 793.751 2.38649 -5.85858 0
M  V30 8229 C 792.415 2.32533 -6.25687 0
M  V30 8230 H 791.685 0.581285 -0.459553 0
M  V30 8231 H 794.332 0.964501 -1.65438 0
M  V30 8232 H 792.637 3.57111 -1.6118 0
M  V30 8233 H 794.334 3.48001 -1.99239 0
M  V30 8234 H 790.924 2.79319 -3.25083 0
M  V30 8235 H 795.108 2.6187 -4.2159 0
M  V30 8236 H 790.364 2.41929 -5.61498 0
M  V30 8237 H 794.538 2.25549 -6.58863 0
M  V30 8238 H 792.165 2.15067 -7.29143 0
M  V30 8239 N 793.74 1.17359 1.05189 0
M  V30 8240 C 794.703 0.892604 2.11105 0
M  V30 8241 C 795.703 -0.117236 1.60372 0
M  V30 8242 O 796.893 0.114936 1.7382 0
M  V30 8243 C 794.025 0.337032 3.3923 0
M  V30 8244 H 795.218 1.83169 2.37464 0
M  V30 8245 H 792.771 0.984051 1.21434 0
M  V30 8246 H 793.506 -0.609198 3.18527 0
M  V30 8247 H 793.291 1.06484 3.77364 0
M  V30 8248 H 794.781 0.158763 4.17298 0
M  V30 8249 N 795.218 -1.23913 0.973828 0
M  V30 8250 C 796.151 -2.23647 0.45355 0
M  V30 8251 C 797.129 -1.55485 -0.475724 0
M  V30 8252 O 798.313 -1.84083 -0.405689 0
M  V30 8253 C 795.44 -3.36942 -0.344594 0
M  V30 8254 C 794.486 -4.23221 0.527859 0
M  V30 8255 S 795.319 -4.97877 1.97177 0
M  V30 8256 C 796.475 -6.14627 1.18258 0
M  V30 8257 H 796.708 -2.67433 1.29873 0
M  V30 8258 H 794.241 -1.33289 0.779322 0
M  V30 8259 H 796.199 -4.02647 -0.799103 0
M  V30 8260 H 794.86 -2.91703 -1.16482 0
M  V30 8261 H 794.053 -5.03928 -0.0852555 0
M  V30 8262 H 793.655 -3.6255 0.918344 0
M  V30 8263 H 795.947 -6.76066 0.440629 0
M  V30 8264 H 796.89 -6.80311 1.96425 0
M  V30 8265 H 797.298 -5.6009 0.704256 0
M  V30 8266 N 796.696 -0.74468 -1.38897 0
M  V30 8267 C 797.944 -0.296298 -1.99916 0
M  V30 8268 C 798.265 1.12325 -1.59399 0
M  V30 8269 O 797.535 1.76658 -0.846689 0
M  V30 8270 H 796.115 -0.106561 -0.73936 0
M  V30 8271 H 798.777 -0.956793 -1.69798 0
M  V30 8272 H 797.873 -0.352356 -3.10105 0
M  V30 8273 N 798.174 1.49689 -0.493057 0
M  V30 8274 C 799.404 2.06536 0.0512397 0
M  V30 8275 C 799.812 1.35459 1.32089 0
M  V30 8276 O 799.155 0.424145 1.78736 0
M  V30 8277 C 799.217 3.57452 0.383231 0
M  V30 8278 C 798.881 4.50163 -0.787555 0
M  V30 8279 C 799.878 4.92151 -1.67582 0
M  V30 8280 C 797.563 4.92565 -0.984109 0
M  V30 8281 C 799.557 5.7527 -2.74487 0
M  V30 8282 C 797.244 5.75463 -2.05634 0
M  V30 8283 C 798.242 6.16719 -2.93507 0
M  V30 8284 O 797.93 6.97961 -3.98881 0
M  V30 8285 H 797.662 0.675862 -0.0136516 0
M  V30 8286 H 800.216 1.9356 -0.687298 0
M  V30 8287 H 798.446 3.68408 1.17526 0
M  V30 8288 H 800.135 3.96572 0.8652 0
M  V30 8289 H 800.901 4.60043 -1.53575 0
M  V30 8290 H 796.78 4.5996 -0.309541 0
M  V30 8291 H 800.324 6.07392 -3.43104 0
M  V30 8292 H 796.221 6.06983 -2.19639 0
M  V30 8293 H 796.989 7.16253 -3.96137 0
M  V30 8294 N 799.652 0.226554 1.55963 0
M  V30 8295 C 800.602 -0.694986 2.1715 0
M  V30 8296 C 801.586 -1.15394 1.12129 0
M  V30 8297 O 802.778 -1.1071 1.38102 0
M  V30 8298 C 799.907 -1.9007 2.85882 0
M  V30 8299 C 798.993 -1.46119 3.98133 0
M  V30 8300 N 799.384 -0.734584 5.00437 0
M  V30 8301 C 797.682 -1.74809 4.10314 0
M  V30 8302 C 798.383 -0.509773 5.79462 0
M  V30 8303 N 797.359 -1.06796 5.33006 0
M  V30 8304 H 801.161 -0.131469 2.93606 0
M  V30 8305 H 798.675 0.0280165 1.62376 0
M  V30 8306 H 800.672 -2.57169 3.28131 0
M  V30 8307 H 799.332 -2.46864 2.10923 0
M  V30 8308 H 800.343 -0.386757 5.16454 0
M  V30 8309 H 797.02 -2.32887 3.46511 0
M  V30 8310 H 798.41 0.0688847 6.71865 0
M  V30 8311 N 801.13 -1.57531 -0.0467866 0
M  V30 8312 C 802.062 -2.02156 -1.08007 0
M  V30 8313 C 803.075 -0.931434 -1.33522 0
M  V30 8314 O 804.264 -1.209 -1.31321 0
M  V30 8315 C 801.364 -2.36675 -2.42566 0
M  V30 8316 C 800.537 -3.67848 -2.36658 0
M  V30 8317 C 799.596 -3.89754 -3.53523 0
M  V30 8318 O 798.622 -4.61036 -3.33818 0
M  V30 8319 N 799.824 -3.34025 -4.74771 0
M  V30 8320 H 802.589 -2.91414 -0.699845 0
M  V30 8321 H 800.15 -1.60185 -0.235041 0
M  V30 8322 H 802.142 -2.48482 -3.19435 0
M  V30 8323 H 800.712 -1.53178 -2.72498 0
M  V30 8324 H 799.932 -3.66561 -1.45005 0
M  V30 8325 H 801.22 -4.53931 -2.29835 0
M  V30 8326 H 800.618 -2.76214 -4.93683 0
M  V30 8327 H 799.175 -3.51241 -5.49066 0
M  V30 8328 N 802.608 0.318715 -1.54344 0
M  V30 8329 C 803.856 1.054 -1.72439 0
M  V30 8330 C 804.177 1.88388 -0.503495 0
M  V30 8331 O 803.447 1.89866 0.48246 0
M  V30 8332 H 802.027 0.392124 -0.635805 0
M  V30 8333 H 804.689 0.35398 -1.91659 0
M  V30 8334 H 803.785 1.71726 -2.60608 0
M  V30 8335 N 804.086 1.46499 0.581025 0
M  V30 8336 C 805.363 1.42372 1.34125 0
M  V30 8337 C 805.743 0.108073 2.10823 0
M  V30 8338 O 805.091 -0.910366 2.09582 0
M  V30 8339 C 805.301 2.65445 2.26583 0
M  V30 8340 C 806.649 3.11664 2.88359 0
M  V30 8341 O 807.673 2.66006 2.36896 0
M  V30 8342 O 806.532 3.90974 3.81839 0
M  V30 8343 H 803.626 0.566262 0.602724 0
M  V30 8344 H 806.172 1.58667 0.601903 0
M  V30 8345 H 804.944 3.52756 1.69348 0
M  V30 8346 H 804.567 2.51618 3.07854 0
M  V30 8347 N 805.565 -0.825799 1.34232 0
M  V30 8348 C 806.811 -1.58419 1.26614 0
M  V30 8349 C 807.144 -1.93503 -0.164341 0
M  V30 8350 O 806.419 -1.59785 -1.109 0
M  V30 8351 C 806.702 -2.8856 2.15418 0
M  V30 8352 C 806.555 -2.60075 3.66989 0
M  V30 8353 C 807.874 -3.90107 2.03726 0
M  V30 8354 H 804.993 -0.574794 0.461282 0
M  V30 8355 H 807.635 -0.951519 1.64457 0
M  V30 8356 H 805.785 -3.42553 1.83275 0
M  V30 8357 H 807.457 -2.12414 4.09485 0
M  V30 8358 H 805.7 -1.93565 3.88221 0
M  V30 8359 H 806.371 -3.52866 4.24488 0
M  V30 8360 H 808.847 -3.45459 2.31942 0
M  V30 8361 H 807.723 -4.78976 2.68092 0
M  V30 8362 H 807.984 -4.30329 1.01337 0
M  V30 8363 N 807.043 -1.17915 -1.04565 0
M  V30 8364 C 808.006 -0.903787 -2.10628 0
M  V30 8365 C 809.006 0.10873 -1.60432 0
M  V30 8366 O 810.196 -0.124152 -1.73757 0
M  V30 8367 C 807.328 -0.355017 -3.39046 0
M  V30 8368 H 808.521 -1.84425 -2.3649 0
M  V30 8369 H 806.074 -0.990477 -1.2091 0
M  V30 8370 H 806.809 0.592297 -3.18845 0
M  V30 8371 H 806.594 -1.08484 -3.76794 0
M  V30 8372 H 808.084 -0.180891 -4.17208 0
M  V30 8373 N 808.521 1.23394 -0.980386 0
M  V30 8374 C 809.932 1.73631 -0.686239 0
M  V30 8375 C 810.283 1.79259 0.797541 0
M  V30 8376 O 809.408 1.43046 1.62379 0
M  V30 8377 C 810.003 3.15332 -1.239 0
M  V30 8378 C 808.562 3.63024 -0.994494 0
M  V30 8379 C 807.709 2.41279 -1.36673 0
M  V30 8380 H 810.66 1.08918 -1.15423 0
M  V30 8381 H 810.681 3.75556 -0.611414 0
M  V30 8382 H 810.193 3.11204 -2.31892 0
M  V30 8383 H 808.294 3.72535 0.0693492 0
M  V30 8384 H 808.407 4.49825 -1.64906 0
M  V30 8385 H 806.771 2.42295 -0.785195 0
M  V30 8386 H 807.554 2.39822 -2.45642 0
M  V30 8387 N 809.999 0.752036 1.385 0
M  V30 8388 C 811.415 0.42946 1.53713 0
M  V30 8389 C 811.615 -1.0576 1.71514 0
M  V30 8390 O 810.671 -1.84366 1.72527 0
M  V30 8391 C 811.984 1.22735 2.74511 0
M  V30 8392 C 813.532 1.21727 2.8836 0
M  V30 8393 C 814.007 1.99809 4.12117 0
M  V30 8394 N 815.498 1.97062 4.19191 0
M  V30 8395 C 816.233 2.54274 5.13938 0
M  V30 8396 N 815.729 3.20193 6.14368 0
M  V30 8397 N 817.522 2.44212 5.06277 0
M  V30 8398 H 809.673 1.71581 1.25195 0
M  V30 8399 H 811.936 0.727293 0.60807 0
M  V30 8400 H 811.642 2.28032 2.67758 0
M  V30 8401 H 811.516 0.843186 3.67655 0
M  V30 8402 H 813.903 0.172367 2.94596 0
M  V30 8403 H 813.984 1.64094 1.96232 0
M  V30 8404 H 813.628 3.0431 4.06642 0
M  V30 8405 H 813.558 1.54837 5.03322 0
M  V30 8406 H 816.049 1.49054 3.47263 0
M  V30 8407 H 816.362 3.61272 6.83156 0
M  V30 8408 H 814.707 3.24287 6.14705 0
M  V30 8409 H 817.898 1.92343 4.26757 0
M  V30 8410 H 818.071 2.89096 5.79937 0
M  V30 8411 N 811.477 -1.49425 0.500989 0
M  V30 8412 C 812.387 -2.32899 -0.282011 0
M  V30 8413 C 813.403 -1.44632 -0.967346 0
M  V30 8414 O 814.579 -1.77654 -0.94873 0
M  V30 8415 C 811.644 -3.20069 -1.33253 0
M  V30 8416 C 810.705 -4.24186 -0.660636 0
M  V30 8417 C 809.938 -5.07191 -1.6611 0
M  V30 8418 O 810.161 -4.91712 -2.89094 0
M  V30 8419 O 809.095 -5.8948 -1.21643 0
M  V30 8420 H 812.921 -3.01038 0.401224 0
M  V30 8421 H 810.506 -1.47079 0.262323 0
M  V30 8422 H 812.388 -3.74071 -1.94033 0
M  V30 8423 H 811.063 -2.54625 -1.9987 0
M  V30 8424 H 809.97 -3.74098 -0.0130959 0
M  V30 8425 H 811.303 -4.92186 -0.0369179 0
M  V30 8426 N 812.955 -0.234822 -1.55841 0
M  V30 8427 C 814.201 0.393843 -1.98939 0
M  V30 8428 C 814.534 1.58466 -1.1226 0
M  V30 8429 O 813.809 1.93635 -0.183242 0
M  V30 8430 C 814.092 0.815492 -3.50745 0
M  V30 8431 C 813.945 -0.379878 -4.48193 0
M  V30 8432 C 815.264 1.66687 -4.07312 0
M  V30 8433 H 812.383 0.141681 -0.723253 0
M  V30 8434 H 815.025 -0.333716 -1.87046 0
M  V30 8435 H 813.175 1.43541 -3.6101 0
M  V30 8436 H 814.847 -1.0182 -4.49923 0
M  V30 8437 H 813.09 -1.02507 -4.21515 0
M  V30 8438 H 813.761 -0.0417069 -5.51984 0
M  V30 8439 H 816.237 1.14369 -4.00074 0
M  V30 8440 H 815.113 1.93078 -5.13821 0
M  V30 8441 H 815.374 2.63468 -3.55017 0
M  V30 8442 N 814.433 1.57553 0.0384317 0
M  V30 8443 C 815.681 1.88468 0.729672 0
M  V30 8444 C 816.002 0.831302 1.76393 0
M  V30 8445 O 815.272 -0.13622 1.95426 0
M  V30 8446 H 813.852 0.695529 0.272485 0
M  V30 8447 H 816.514 1.94899 0.0066032 0
M  V30 8448 H 815.61 2.8705 1.22511 0
M  V30 8449 N 815.911 -0.310526 1.54511 0
M  V30 8450 C 816.841 -1.38757 1.878 0
M  V30 8451 C 817.822 -1.53353 0.735991 0
M  V30 8452 O 819.007 -1.67018 0.990887 0
M  V30 8453 C 816.137 -2.75327 2.11689 0
M  V30 8454 C 815.091 -2.75506 3.27537 0
M  V30 8455 C 814.417 -4.15275 3.36824 0
M  V30 8456 C 815.717 -2.38093 4.64875 0
M  V30 8457 H 817.411 -1.11146 2.78005 0
M  V30 8458 H 814.957 -0.533232 1.33763 0
M  V30 8459 H 816.91 -3.50752 2.33562 0
M  V30 8460 H 815.634 -3.04443 1.18245 0
M  V30 8461 H 814.293 -2.02538 3.05572 0
M  V30 8462 H 813.941 -4.41553 2.40915 0
M  V30 8463 H 813.641 -4.16299 4.14692 0
M  V30 8464 H 815.165 -4.92493 3.60947 0
M  V30 8465 H 816.579 -3.03232 4.86542 0
M  V30 8466 H 814.976 -2.50345 5.45387 0
M  V30 8467 H 816.046 -1.33227 4.66239 0
M  V30 8468 N 817.389 -1.46805 -0.573248 0
M  V30 8469 C 818.636 -1.52604 -1.3311 0
M  V30 8470 C 818.964 -0.181633 -1.9365 0
M  V30 8471 O 818.219 0.823775 -1.77517 0
M  V30 8472 C 818.518 -2.58001 -2.47326 0
M  V30 8473 C 818.184 -4.01747 -2.04719 0
M  V30 8474 C 816.846 -4.40881 -1.92814 0
M  V30 8475 C 819.198 -4.92008 -1.71982 0
M  V30 8476 C 816.526 -5.68129 -1.46445 0
M  V30 8477 C 818.878 -6.19703 -1.27089 0
M  V30 8478 C 817.542 -6.57733 -1.13768 0
M  V30 8479 H 816.812 -0.558417 -0.487084 0
M  V30 8480 H 819.459 -1.80327 -0.644538 0
M  V30 8481 H 817.764 -2.23974 -3.2147 0
M  V30 8482 H 819.461 -2.59715 -3.05531 0
M  V30 8483 H 816.051 -3.70819 -2.14922 0
M  V30 8484 H 820.235 -4.62485 -1.8006 0
M  V30 8485 H 815.491 -5.96359 -1.34783 0
M  V30 8486 H 819.665 -6.89064 -1.00814 0
M  V30 8487 H 817.292 -7.56228 -0.776142 0
M  V30 8488 N 818.867 0.818669 -1.34668 0
M  V30 8489 C 820.097 1.60441 -1.30162 0
M  V30 8490 C 820.505 1.88783 0.125579 0
M  V30 8491 O 819.848 1.48281 1.08437 0
M  V30 8492 C 819.91 2.96794 -2.02864 0
M  V30 8493 C 819.574 2.91327 -3.52105 0
M  V30 8494 C 820.571 2.65611 -4.4693 0
M  V30 8495 C 818.256 3.10825 -3.9458 0
M  V30 8496 C 820.25 2.59452 -5.82206 0
M  V30 8497 C 817.937 3.0429 -5.29954 0
M  V30 8498 C 818.935 2.78637 -6.23579 0
M  V30 8499 O 818.623 2.72042 -7.56471 0
M  V30 8500 H 818.355 0.505278 -0.449077 0
M  V30 8501 H 820.909 1.02632 -1.77921 0
M  V30 8502 H 819.139 3.56538 -1.49725 0
M  V30 8503 H 820.828 3.57837 -1.91592 0
M  V30 8504 H 821.594 2.50278 -4.15434 0
M  V30 8505 H 817.473 3.29807 -3.221 0
M  V30 8506 H 821.017 2.39349 -6.55254 0
M  V30 8507 H 816.914 3.19177 -5.61067 0
M  V30 8508 H 817.682 2.87738 -7.66257 0
M  V30 8509 N 820.346 1.18468 1.03938 0
M  V30 8510 C 821.593 0.980833 1.77161 0
M  V30 8511 C 821.921 -0.489425 1.88242 0
M  V30 8512 O 821.176 -1.37961 1.388 0
M  V30 8513 C 821.475 1.58229 3.20466 0
M  V30 8514 C 821.141 3.07889 3.29416 0
M  V30 8515 C 819.803 3.48737 3.31566 0
M  V30 8516 C 822.155 4.03903 3.29411 0
M  V30 8517 C 819.483 4.84171 3.31355 0
M  V30 8518 C 821.835 5.39253 3.3074 0
M  V30 8519 C 820.499 5.79547 3.31182 0
M  V30 8520 H 819.769 0.358912 0.648277 0
M  V30 8521 H 822.416 1.47552 1.22069 0
M  V30 8522 H 820.721 1.00964 3.78568 0
M  V30 8523 H 822.418 1.39998 3.75768 0
M  V30 8524 H 819.008 2.75335 3.28464 0
M  V30 8525 H 823.192 3.73395 3.2694 0
M  V30 8526 H 818.448 5.14685 3.30015 0
M  V30 8527 H 822.622 6.13417 3.29686 0
M  V30 8528 H 820.249 6.84466 3.30772 0
M  V30 8529 N 821.824 -1.22873 0.986916 0
M  V30 8530 C 823.235 -1.73264 0.695438 0
M  V30 8531 C 823.586 -1.79679 -0.788023 0
M  V30 8532 O 822.711 -1.43905 -1.61618 0
M  V30 8533 C 823.306 -3.14671 1.2557 0
M  V30 8534 C 821.865 -3.62492 1.01373 0
M  V30 8535 C 821.012 -2.40551 1.37951 0
M  V30 8536 H 823.963 -1.08304 1.15999 0
M  V30 8537 H 823.984 -3.75226 0.631322 0
M  V30 8538 H 823.496 -3.0997 2.33539 0
M  V30 8539 H 821.597 -3.72567 -0.0495917 0
M  V30 8540 H 821.71 -4.48944 1.67289 0
M  V30 8541 H 820.074 -2.41875 0.798033 0
M  V30 8542 H 820.857 -2.38516 2.46911 0
M  V30 8543 N 823.302 -0.75937 -1.38099 0
M  V30 8544 C 824.579 -0.243371 -1.9408 0
M  V30 8545 C 824.959 1.25942 -1.69416 0
M  V30 8546 O 824.307 2.03667 -1.03595 0
M  V30 8547 C 824.517 -0.603328 -3.43745 0
M  V30 8548 C 825.865 -0.566195 -4.20808 0
M  V30 8549 O 826.889 -0.541969 -3.52053 0
M  V30 8550 O 825.748 -0.582261 -5.43389 0
M  V30 8551 H 822.842 -0.0526825 -0.82532 0
M  V30 8552 H 825.388 -0.839884 -1.47459 0
M  V30 8553 H 824.16 -1.64098 -3.55229 0
M  V30 8554 H 823.783 0.0208887 -3.97595 0
M  V30 8555 N 824.78 1.49157 -0.508906 0
M  V30 8556 C 825.743 2.27784 0.25434 0
M  V30 8557 C 826.743 1.34132 0.88686 0
M  V30 8558 O 827.933 1.5722 0.750168 0
M  V30 8559 C 825.065 3.12347 1.36573 0
M  V30 8560 H 826.258 2.96718 -0.435714 0
M  V30 8561 H 823.811 1.54052 -0.264128 0
M  V30 8562 H 824.546 2.47997 2.08969 0
M  V30 8563 H 824.331 3.81213 0.917543 0
M  V30 8564 H 825.821 3.71712 1.90315 0
M  V30 8565 N 826.258 0.243083 1.55714 0
M  V30 8566 C 827.505 -0.38272 1.9885 0
M  V30 8567 C 827.833 -1.58225 1.13115 0
M  V30 8568 O 827.088 -1.94861 0.181067 0
M  V30 8569 C 827.387 -0.839621 3.47398 0
M  V30 8570 C 827.053 0.251737 4.50197 0
M  V30 8571 C 825.715 0.551487 4.78029 0
M  V30 8572 C 828.067 0.988728 5.11736 0
M  V30 8573 C 825.395 1.59237 5.64677 0
M  V30 8574 C 827.747 2.0191 5.99512 0
M  V30 8575 C 826.411 2.32554 6.2568 0
M  V30 8576 H 825.681 -0.140047 0.727645 0
M  V30 8577 H 828.328 0.35011 1.88272 0
M  V30 8578 H 826.633 -1.65159 3.55288 0
M  V30 8579 H 828.33 -1.33404 3.78159 0
M  V30 8580 H 824.92 0.00796741 4.28599 0
M  V30 8581 H 829.104 0.7704 4.90284 0
M  V30 8582 H 824.36 1.83517 5.83208 0
M  V30 8583 H 828.534 2.59511 6.46241 0
M  V30 8584 H 826.161 3.13349 6.92616 0
M  V30 8585 N 827.736 -1.57571 -0.0300757 0
M  V30 8586 C 828.684 -2.0758 -1.04944 0
M  V30 8587 C 829.678 -0.989384 -1.37505 0
M  V30 8588 O 830.884 -1.17427 -1.36422 0
M  V30 8589 H 827.259 -0.662419 -0.355956 0
M  V30 8590 H 829.23 -2.92268 -0.601848 0
M  V30 8591 C 827.979 -2.5698 -2.34215 0
M  V30 8592 H 827.302 -3.40193 -2.10021 0
M  V30 8593 H 828.742 -2.95682 -3.03888 0
M  V30 8594 C 827.201 -1.47059 -3.03109 0
M  V30 8595 O 827.731 -0.83625 -3.92899 0
M  V30 8596 N 825.937 -1.20538 -2.64422 0
M  V30 8597 H 825.484 -1.72305 -1.9149 0
M  V30 8598 H 825.442 -0.472045 -3.10836 0
M  V30 8599 N 829.214 0.302327 -1.54673 0
M  V30 8600 C 830.439 1.06103 -1.78205 0
M  V30 8601 C 830.864 1.80204 -0.53926 0
M  V30 8602 O 830.222 1.73975 0.510142 0
M  V30 8603 C 830.27 2.01829 -2.98827 0
M  V30 8604 O 829.374 3.10108 -2.71858 0
M  V30 8605 H 828.715 0.30487 -0.589873 0
M  V30 8606 H 831.245 0.340153 -2.01753 0
M  V30 8607 H 831.255 2.44319 -3.2676 0
M  V30 8608 H 829.93 1.473 -3.88942 0
M  V30 8609 H 828.507 2.72142 -2.54937 0
M  V30 8610 N 830.692 1.47107 0.565454 0
M  V30 8611 C 832.103 1.47266 1.1476 0
M  V30 8612 C 832.454 0.222841 1.9493 0
M  V30 8613 O 831.579 -0.672862 2.05673 0
M  V30 8614 C 832.174 2.66822 2.08785 0
M  V30 8615 C 830.733 2.69967 2.62288 0
M  V30 8616 C 829.88 2.40236 1.38499 0
M  V30 8617 H 832.831 1.54736 0.352479 0
M  V30 8618 H 832.852 2.43323 2.92531 0
M  V30 8619 H 832.364 3.5777 1.50408 0
M  V30 8620 H 830.465 1.83137 3.24487 0
M  V30 8621 H 830.578 3.70426 3.03845 0
M  V30 8622 H 828.942 1.90648 1.68895 0
M  V30 8623 H 829.725 3.33381 0.819274 0
M  V30 8624 N 832.17 -0.811516 1.35101 0
M  V30 8625 C 833.395 -1.60499 1.31358 0
M  V30 8626 C 833.82 -1.87793 -0.107383 0
M  V30 8627 O 833.178 -1.46161 -1.07268 0
M  V30 8628 C 833.226 -2.91612 2.12119 0
M  V30 8629 O 832.33 -3.84211 1.49853 0
M  V30 8630 H 831.671 -0.487702 0.450603 0
M  V30 8631 H 834.201 -1.00758 1.7807 0
M  V30 8632 H 834.211 -3.4108 2.23894 0
M  V30 8633 H 832.886 -2.71071 3.15426 0
M  V30 8634 H 831.463 -3.42751 1.46889 0
M  V30 8635 N 833.648 -1.19017 -1.03309 0
M  V30 8636 C 834.596 -0.920627 -2.13605 0
M  V30 8637 C 835.59 0.121969 -1.6896 0
M  V30 8638 O 836.796 -0.0268854 -1.7998 0
M  V30 8639 H 833.171 -0.280284 -0.697814 0
M  V30 8640 H 835.142 -1.85755 -2.33533 0
M  V30 8641 C 833.891 -0.471198 -3.44492 0
M  V30 8642 H 833.214 -1.26499 -3.7926 0
M  V30 8643 H 834.654 -0.321663 -4.22778 0
M  V30 8644 C 833.113 0.81411 -3.26916 0
M  V30 8645 O 833.643 1.87654 -3.55175 0
M  V30 8646 N 831.849 0.769695 -2.80221 0
M  V30 8647 H 831.396 -0.0951278 -2.57424 0
M  V30 8648 H 831.354 1.63008 -2.68842 0
M  V30 8649 N 835.127 1.22348 -0.993418 0
M  V30 8650 C 836.357 1.94842 -0.687023 0
M  V30 8651 C 836.765 1.73594 0.752445 0
M  V30 8652 O 836.108 1.03238 1.51946 0
M  V30 8653 C 836.17 3.47694 -0.913754 0
M  V30 8654 C 835.834 3.92678 -2.33781 0
M  V30 8655 C 836.831 4.0031 -3.31734 0
M  V30 8656 C 834.516 4.25311 -2.67237 0
M  V30 8657 C 836.51 4.39951 -4.61218 0
M  V30 8658 C 834.197 4.64631 -3.9694 0
M  V30 8659 C 835.195 4.71919 -4.93742 0
M  V30 8660 O 834.883 5.10349 -6.21127 0
M  V30 8661 H 834.615 0.626771 -0.253247 0
M  V30 8662 H 837.169 1.56436 -1.33105 0
M  V30 8663 H 835.399 3.86115 -0.212552 0
M  V30 8664 H 837.088 4.01403 -0.602528 0
M  V30 8665 H 837.854 3.75288 -3.07219 0
M  V30 8666 H 833.733 4.18842 -1.92594 0
M  V30 8667 H 837.277 4.45555 -5.36774 0
M  V30 8668 H 833.174 4.89104 -4.21245 0
M  V30 8669 H 833.942 5.2842 -6.25072 0
M  V30 8670 N 836.605 0.766683 1.37694 0
M  V30 8671 C 837.851 0.329201 2.0011 0
M  V30 8672 C 838.184 -1.09004 1.60723 0
M  V30 8673 O 837.459 -1.74895 0.850989 0
M  V30 8674 C 837.742 0.466989 3.57059 0
M  V30 8675 C 837.595 1.92828 4.06371 0
M  V30 8676 C 838.914 -0.131792 4.39903 0
M  V30 8677 H 836.033 0.12109 0.726984 0
M  V30 8678 H 838.675 0.968779 1.63446 0
M  V30 8679 H 836.825 -0.0775023 3.88423 0
M  V30 8680 H 838.497 2.53208 3.85595 0
M  V30 8681 H 836.74 2.43884 3.58752 0
M  V30 8682 H 837.411 1.97577 5.15429 0
M  V30 8683 H 839.887 0.332731 4.14768 0
M  V30 8684 H 838.763 -0.005217 5.489 0
M  V30 8685 H 839.024 -1.22156 4.24889 0
M  V30 8686 N 838.083 -1.48885 0.516809 0
M  V30 8687 C 839.499 -1.58651 0.173788 0
M  V30 8688 C 839.699 -1.52033 -1.32243 0
M  V30 8689 O 838.755 -1.40251 -2.09967 0
M  V30 8690 C 840.068 -2.90816 0.764628 0
M  V30 8691 C 841.616 -3.04316 0.732164 0
M  V30 8692 C 842.091 -4.39123 1.30135 0
M  V30 8693 N 843.582 -4.45656 1.26273 0
M  V30 8694 C 844.317 -5.48446 1.67317 0
M  V30 8695 N 843.813 -6.58258 2.16028 0
M  V30 8696 N 845.606 -5.39251 1.58635 0
M  V30 8697 H 837.757 -1.5143 1.48939 0
M  V30 8698 H 840.02 -0.718243 0.618733 0
M  V30 8699 H 839.726 -3.01275 1.81456 0
M  V30 8700 H 839.6 -3.76473 0.234113 0
M  V30 8701 H 841.987 -2.93478 -0.308975 0
M  V30 8702 H 842.068 -2.20303 1.3 0
M  V30 8703 H 841.712 -4.50714 2.34135 0
M  V30 8704 H 841.642 -5.21801 0.709305 0
M  V30 8705 H 844.133 -3.66879 0.906006 0
M  V30 8706 H 844.446 -7.32811 2.45374 0
M  V30 8707 H 842.791 -6.59257 2.20013 0
M  V30 8708 H 845.982 -4.52354 1.20387 0
M  V30 8709 H 846.155 -6.19229 1.90944 0
M  V30 8710 N 839.561 -0.251338 -1.55583 0
M  V30 8711 C 840.977 0.103409 -1.59265 0
M  V30 8712 C 841.177 1.56559 -1.26852 0
M  V30 8713 O 840.233 2.31071 -1.01796 0
M  V30 8714 C 841.546 -0.249781 -2.99661 0
M  V30 8715 C 843.094 -0.194442 -3.12395 0
M  V30 8716 C 843.569 -0.521728 -4.55019 0
M  V30 8717 N 845.06 -0.472393 -4.60785 0
M  V30 8718 C 845.795 -0.698737 -5.69127 0
M  V30 8719 N 845.291 -0.988443 -6.85713 0
M  V30 8720 N 847.084 -0.629143 -5.58568 0
M  V30 8721 H 839.235 -1.20484 -1.74921 0
M  V30 8722 H 841.498 -0.485092 -0.814488 0
M  V30 8723 H 841.204 -1.26577 -3.28133 0
M  V30 8724 H 841.078 0.420973 -3.74844 0
M  V30 8725 H 843.465 0.812229 -2.83702 0
M  V30 8726 H 843.546 -0.899111 -2.39478 0
M  V30 8727 H 843.19 -1.52597 -4.84434 0
M  V30 8728 H 843.12 0.204468 -5.26203 0
M  V30 8729 H 845.611 -0.257386 -3.77022 0
M  V30 8730 H 845.924 -1.14846 -7.64219 0
M  V30 8731 H 844.269 -1.02596 -6.87386 0
M  V30 8732 H 847.46 -0.402826 -4.66364 0
M  V30 8733 H 847.633 -0.808935 -6.42931 0
M  V30 8734 N 841.039 1.57585 0.0217189 0
M  V30 8735 C 841.971 2.03849 1.04777 0
M  V30 8736 C 842.984 0.952558 1.32023 0
M  V30 8737 O 844.173 1.22974 1.29381 0
M  V30 8738 C 841.273 2.40504 2.3877 0
M  V30 8739 C 840.446 3.71566 2.30775 0
M  V30 8740 C 839.505 3.95329 3.47277 0
M  V30 8741 O 838.531 4.66289 3.26441 0
M  V30 8742 N 839.733 3.41536 4.69397 0
M  V30 8743 H 842.498 2.92491 0.653395 0
M  V30 8744 H 840.059 1.60538 0.209527 0
M  V30 8745 H 842.051 2.53532 3.15442 0
M  V30 8746 H 840.621 1.57494 2.70027 0
M  V30 8747 H 839.841 3.68822 1.39155 0
M  V30 8748 H 841.129 4.5753 2.22584 0
M  V30 8749 H 840.527 2.84033 4.89226 0
M  V30 8750 H 839.084 3.59932 5.43408 0
M  V30 8751 N 842.517 -0.29412 1.54831 0
M  V30 8752 C 843.766 -1.02614 1.73647 0
M  V30 8753 C 844.079 -1.88193 0.533162 0
M  V30 8754 O 845.285 -2.64713 0.603275 0
M  V30 8755 C 843.741 -1.87417 3.07251 0
M  V30 8756 C 843.349 -1.06806 4.35082 0
M  V30 8757 C 845.093 -2.60176 3.35423 0
M  V30 8758 C 843 -1.90926 5.59733 0
M  V30 8759 H 841.93 -0.386834 0.647206 0
M  V30 8760 H 844.581 -0.282789 1.81308 0
M  V30 8761 H 842.963 -2.65765 2.93572 0
M  V30 8762 H 844.137 -0.330226 4.59615 0
M  V30 8763 H 842.452 -0.455979 4.13896 0
M  V30 8764 H 845.049 -3.23476 4.25755 0
M  V30 8765 H 845.392 -3.29365 2.54606 0
M  V30 8766 H 845.925 -1.88871 3.50103 0
M  V30 8767 H 842.664 -1.26194 6.43238 0
M  V30 8768 H 842.184 -2.62363 5.39375 0
M  V30 8769 H 843.863 -2.48807 5.97247 0
M  V30 8770 N 843.995 -1.47404 -0.557645 0
M  V30 8771 C 845.406 -1.47872 -1.13977 0
M  V30 8772 C 845.757 -0.233176 -1.94809 0
M  V30 8773 O 844.882 0.661945 -2.06027 0
M  V30 8774 C 845.477 -2.67926 -2.07368 0
M  V30 8775 C 844.036 -2.71354 -2.60852 0
M  V30 8776 C 843.183 -2.40967 -1.37223 0
M  V30 8777 H 846.134 -1.54921 -0.344268 0
M  V30 8778 H 846.155 -2.44871 -2.91236 0
M  V30 8779 H 845.667 -3.58562 -1.48509 0
M  V30 8780 H 843.768 -1.84855 -3.23511 0
M  V30 8781 H 843.881 -3.72032 -3.01876 0
M  V30 8782 H 842.245 -1.91541 -1.67882 0
M  V30 8783 H 843.028 -3.33811 -0.801583 0
M  V30 8784 N 845.473 0.80434 -1.35529 0
M  V30 8785 C 846.698 1.598 -1.32207 0
M  V30 8786 C 847.123 1.87848 0.0974226 0
M  V30 8787 O 846.481 1.46728 1.06492 0
M  V30 8788 C 846.529 2.90483 -2.13663 0
M  V30 8789 O 845.633 3.83411 -1.51888 0
M  V30 8790 H 844.974 0.485305 -0.453183 0
M  V30 8791 H 847.504 0.998119 -1.78602 0
M  V30 8792 H 847.514 3.39888 -2.257 0
M  V30 8793 H 846.189 2.69395 -3.16859 0
M  V30 8794 H 844.766 3.41967 -1.48704 0
M  V30 8795 N 846.951 1.19563 1.02676 0
M  V30 8796 C 847.861 0.950691 2.14474 0
M  V30 8797 C 848.877 -0.0900219 1.73767 0
M  V30 8798 O 850.053 0.0951063 2.01175 0
M  V30 8799 C 847.118 0.494917 3.43149 0
M  V30 8800 C 846.179 1.60527 3.98158 0
M  V30 8801 C 845.412 1.17115 5.20692 0
M  V30 8802 O 845.635 0.0355937 5.70389 0
M  V30 8803 O 844.569 1.97454 5.68591 0
M  V30 8804 H 848.395 1.88651 2.38001 0
M  V30 8805 H 845.98 0.978635 1.12885 0
M  V30 8806 H 847.862 0.249492 4.20661 0
M  V30 8807 H 846.537 -0.412434 3.21062 0
M  V30 8808 H 845.444 1.90487 3.21971 0
M  V30 8809 H 846.777 2.48925 4.24614 0
M  V30 8810 N 848.429 -1.21819 0.999893 0
M  V30 8811 C 849.659 -1.94475 0.697346 0
M  V30 8812 C 850.067 -1.73991 -0.743228 0
M  V30 8813 O 849.41 -1.04042 -1.51397 0
M  V30 8814 C 849.472 -3.47204 0.932181 0
M  V30 8815 C 849.136 -3.91432 2.3586 0
M  V30 8816 C 850.133 -3.98545 3.33853 0
M  V30 8817 C 847.818 -4.23888 2.69489 0
M  V30 8818 C 849.812 -4.37499 4.63545 0
M  V30 8819 C 847.499 -4.62519 3.99399 0
M  V30 8820 C 848.497 -4.69294 4.96238 0
M  V30 8821 O 848.185 -5.07048 6.23825 0
M  V30 8822 H 847.917 -0.625419 0.256567 0
M  V30 8823 H 850.471 -1.55728 1.33933 0
M  V30 8824 H 848.701 -3.85997 0.233025 0
M  V30 8825 H 850.39 -4.01078 0.623807 0
M  V30 8826 H 851.156 -3.73654 3.09205 0
M  V30 8827 H 847.035 -4.17815 1.94812 0
M  V30 8828 H 850.579 -4.42702 5.3913 0
M  V30 8829 H 846.476 -4.86864 4.23833 0
M  V30 8830 H 847.244 -5.25098 6.27865 0
M  V30 8831 N 849.908 -0.773975 -1.37286 0
M  V30 8832 C 850.818 -0.162571 -2.34036 0
M  V30 8833 C 851.834 0.677022 -1.60289 0
M  V30 8834 O 853.01 0.596423 -1.92366 0
M  V30 8835 C 850.075 0.70457 -3.39465 0
M  V30 8836 C 849.136 -0.151738 -4.29032 0
M  V30 8837 C 848.369 0.674111 -5.29426 0
M  V30 8838 O 848.592 1.91107 -5.37433 0
M  V30 8839 O 847.526 0.0821398 -6.01844 0
M  V30 8840 H 851.352 -0.962119 -2.88057 0
M  V30 8841 H 848.937 -0.53517 -1.39486 0
M  V30 8842 H 850.819 1.19954 -4.03967 0
M  V30 8843 H 849.494 1.48227 -2.87768 0
M  V30 8844 H 848.401 -0.693118 -3.67623 0
M  V30 8845 H 849.734 -0.892575 -4.84039 0
M  V30 8846 N 851.386 1.48609 -0.524698 0
M  V30 8847 C 852.797 1.86516 -0.0828846 0
M  V30 8848 C 853.148 1.43478 1.33822 0
M  V30 8849 O 852.273 0.823139 2.00133 0
M  V30 8850 C 852.868 3.38495 -0.143639 0
M  V30 8851 C 851.427 3.75615 0.242951 0
M  V30 8852 C 850.574 2.72649 -0.505747 0
M  V30 8853 H 853.525 1.40589 -0.736233 0
M  V30 8854 H 853.546 3.74977 0.645955 0
M  V30 8855 H 853.058 3.69789 -1.17805 0
M  V30 8856 H 851.159 3.49935 1.27971 0
M  V30 8857 H 851.272 4.7901 -0.0929834 0
M  V30 8858 H 849.636 2.54656 0.0473482 0
M  V30 8859 H 850.419 3.06786 -1.54069 0
M  V30 8860 N 852.864 0.259585 1.55447 0
M  V30 8861 C 854.141 -0.412595 1.91199 0
M  V30 8862 C 854.521 -1.74909 1.18194 0
M  V30 8863 O 853.869 -2.26474 0.303603 0
M  V30 8864 C 854.079 -0.568195 3.44344 0
M  V30 8865 C 855.427 -0.858253 4.15836 0
M  V30 8866 O 856.451 -0.653588 3.50152 0
M  V30 8867 O 855.31 -1.24874 5.32042 0
M  V30 8868 H 852.404 -0.223403 0.796254 0
M  V30 8869 H 854.95 0.30459 1.66944 0
M  V30 8870 H 853.722 0.372989 3.89518 0
M  V30 8871 H 853.345 -1.33544 3.74502 0
M  V30 8872 N 854.342 -1.57594 -0.0133615 0
M  V30 8873 C 855.305 -2.06534 -0.993799 0
M  V30 8874 C 856.305 -0.972267 -1.28077 0
M  V30 8875 O 857.495 -1.23537 -1.22818 0
M  V30 8876 C 854.627 -2.49554 -2.3224 0
M  V30 8877 H 855.82 -2.94419 -0.570741 0
M  V30 8878 H 853.373 -1.54113 -0.260546 0
M  V30 8879 H 854.108 -1.64872 -2.79263 0
M  V30 8880 H 853.893 -3.29371 -2.12737 0
M  V30 8881 H 855.383 -2.8779 -3.026 0
M  V30 8882 N 855.82 0.285905 -1.54985 0
M  V30 8883 C 857.045 1.04207 -1.7932 0
M  V30 8884 C 857.47 1.79622 -0.558343 0
M  V30 8885 O 856.828 1.74506 0.491661 0
M  V30 8886 C 856.876 1.98648 -3.0095 0
M  V30 8887 O 855.98 3.07207 -2.75132 0
M  V30 8888 H 855.321 0.298596 -0.593074 0
M  V30 8889 H 857.851 0.318736 -2.02102 0
M  V30 8890 H 857.861 2.4084 -3.29333 0
M  V30 8891 H 856.536 1.43167 -3.90482 0
M  V30 8892 H 855.113 2.69423 -2.57809 0
M  V30 8893 N 857.298 1.47698 0.54982 0
M  V30 8894 C 858.208 1.63386 1.68351 0
M  V30 8895 C 859.224 0.516583 1.66155 0
M  V30 8896 O 860.4 0.785088 1.85468 0
M  V30 8897 C 857.465 1.6513 3.04849 0
M  V30 8898 C 856.526 2.88338 3.18056 0
M  V30 8899 C 855.759 2.8999 4.48042 0
M  V30 8900 O 855.982 2.00633 5.3395 0
M  V30 8901 O 854.916 3.81938 4.65196 0
M  V30 8902 H 858.742 2.59329 1.58057 0
M  V30 8903 H 856.327 1.30869 0.72067 0
M  V30 8904 H 858.209 1.68913 3.86065 0
M  V30 8905 H 856.884 0.723555 3.1551 0
M  V30 8906 H 855.791 2.90097 2.36209 0
M  V30 8907 H 857.124 3.80431 3.12302 0
M  V30 8908 N 858.776 -0.797141 1.35954 0
M  V30 8909 C 860.187 -1.37179 1.26644 0
M  V30 8910 C 860.538 -1.9596 -0.0971046 0
M  V30 8911 O 859.663 -1.91994 -0.998355 0
M  V30 8912 C 860.258 -2.49395 2.2932 0
M  V30 8913 C 858.817 -3.02697 2.23722 0
M  V30 8914 C 857.964 -1.75721 2.14517 0
M  V30 8915 H 860.915 -0.599407 1.46945 0
M  V30 8916 H 860.936 -3.28204 1.92515 0
M  V30 8917 H 860.448 -2.06584 3.2855 0
M  V30 8918 H 858.549 -3.49948 1.27934 0
M  V30 8919 H 858.662 -3.60036 3.16087 0
M  V30 8920 H 857.026 -1.97649 1.60646 0
M  V30 8921 H 857.809 -1.35049 3.15621 0
M  V30 8922 N 860.254 -1.20106 -1.0204 0
M  V30 8923 C 861.494 -1.02013 -1.77123 0
M  V30 8924 C 861.858 0.440439 -1.8688 0
M  V30 8925 O 863.059 0.74144 -2.58372 0
M  V30 8926 C 861.33 -1.68058 -3.15423 0
M  V30 8927 S 862.889 -1.65016 -4.0659 0
M  V30 8928 H 859.707 -0.365882 -0.609632 0
M  V30 8929 H 862.309 -1.52597 -1.22206 0
M  V30 8930 H 861.013 -2.73544 -3.05944 0
M  V30 8931 H 860.544 -1.17589 -3.75415 0
M  V30 8932 H 862.559 -0.680341 -4.91514 0
M  V30 8933 N 861.732 1.21287 -1.00634 0
M  V30 8934 C 862.981 1.89706 -0.685178 0
M  V30 8935 C 863.294 1.79044 0.787566 0
M  V30 8936 O 864.5 2.42502 1.22086 0
M  V30 8937 C 862.956 3.40176 -1.17508 0
M  V30 8938 C 862.564 3.59446 -2.674 0
M  V30 8939 C 864.308 4.14213 -0.928869 0
M  V30 8940 C 862.215 5.03688 -3.09923 0
M  V30 8941 H 861.145 0.710434 -0.252586 0
M  V30 8942 H 863.796 1.37277 -1.21768 0
M  V30 8943 H 862.178 3.91867 -0.570622 0
M  V30 8944 H 863.352 3.18188 -3.33306 0
M  V30 8945 H 861.667 2.98764 -2.9005 0
M  V30 8946 H 864.264 5.20546 -1.22212 0
M  V30 8947 H 864.607 4.16082 0.134859 0
M  V30 8948 H 865.14 3.68591 -1.49619 0
M  V30 8949 H 861.879 5.06968 -4.15529 0
M  V30 8950 H 861.399 5.45796 -2.4873 0
M  V30 8951 H 863.078 5.72204 -3.0198 0
M  V30 8952 N 863.21 0.781244 1.36873 0
M  V30 8953 C 864.157 0.172146 2.30157 0
M  V30 8954 C 865.127 -0.679328 1.51573 0
M  V30 8955 O 866.312 -0.629713 1.80109 0
M  V30 8956 C 863.452 -0.693534 3.38059 0
M  V30 8957 C 862.565 0.175586 4.31643 0
M  V30 8958 C 861.7 -0.695695 5.26625 0
M  V30 8959 C 860.739 0.17538 6.11849 0
M  V30 8960 N 859.876 -0.654416 6.99043 0
M  V30 8961 H 864.716 0.973133 2.81663 0
M  V30 8962 H 862.253 0.491469 1.38647 0
M  V30 8963 H 864.211 -1.21035 3.99257 0
M  V30 8964 H 862.841 -1.46003 2.87894 0
M  V30 8965 H 861.893 0.810295 3.7167 0
M  V30 8966 H 863.205 0.847107 4.91554 0
M  V30 8967 H 862.359 -1.27863 5.93073 0
M  V30 8968 H 861.098 -1.40087 4.67148 0
M  V30 8969 H 860.103 0.77078 5.4437 0
M  V30 8970 H 861.328 0.87803 6.734 0
M  V30 8971 H 859.274 -1.34403 6.42084 0
M  V30 8972 H 859.191 -0.0403998 7.55989 0
M  V30 8973 H 860.459 -1.22144 7.69871 0
M  V30 8974 N 864.689 -1.48329 0.532571 0
M  V30 8975 C 865.919 -2.066 0.00353785 0
M  V30 8976 C 866.327 -1.38913 -1.28451 0
M  V30 8977 O 865.67 -0.471385 -1.77549 0
M  V30 8978 C 865.732 -3.58342 -0.288324 0
M  V30 8979 C 865.396 -4.47917 0.906631 0
M  V30 8980 C 866.393 -4.87534 1.80572 0
M  V30 8981 C 864.078 -4.89783 1.11436 0
M  V30 8982 C 866.072 -5.6779 2.89642 0
M  V30 8983 C 863.759 -5.69809 2.20819 0
M  V30 8984 C 864.757 -6.08721 3.09755 0
M  V30 8985 O 864.445 -6.8714 4.17246 0
M  V30 8986 H 864.177 -0.675263 0.0315661 0
M  V30 8987 H 866.731 -1.91669 0.738375 0
M  V30 8988 H 864.961 -3.71395 -1.07717 0
M  V30 8989 H 866.65 -3.98726 -0.759752 0
M  V30 8990 H 867.416 -4.5581 1.65719 0
M  V30 8991 H 863.295 -4.58977 0.431382 0
M  V30 8992 H 866.839 -5.98082 3.59087 0
M  V30 8993 H 862.736 -6.00947 2.35655 0
M  V30 8994 H 863.504 -7.05498 4.14988 0
M  V30 8995 N 866.167 -0.267825 -1.55308 0
M  V30 8996 C 867.397 0.354073 -2.03543 0
M  V30 8997 C 867.805 1.50554 -1.14586 0
M  V30 8998 O 867.148 1.83028 -0.156991 0
M  V30 8999 C 867.21 0.904148 -3.47945 0
M  V30 9000 C 866.874 -0.11775 -4.56848 0
M  V30 9001 C 867.871 -0.934707 -5.11429 0
M  V30 9002 C 865.556 -0.249885 -5.01678 0
M  V30 9003 C 867.55 -1.87005 -6.0935 0
M  V30 9004 C 865.237 -1.18872 -5.99427 0
M  V30 9005 C 866.235 -1.99731 -6.53144 0
M  V30 9006 O 865.923 -2.92028 -7.48983 0
M  V30 9007 H 865.655 0.0857765 -0.670536 0
M  V30 9008 H 868.209 -0.395515 -2.01556 0
M  V30 9009 H 866.439 1.70368 -3.47148 0
M  V30 9010 H 868.128 1.43835 -3.79561 0
M  V30 9011 H 868.894 -0.84332 -4.77612 0
M  V30 9012 H 864.773 0.369469 -4.59517 0
M  V30 9013 H 868.317 -2.5016 -6.51203 0
M  V30 9014 H 864.214 -1.28095 -6.32663 0
M  V30 9015 H 864.982 -2.86627 -7.66673 0
M  V30 9016 N 867.645 1.57599 0.00500368 0
M  V30 9017 C 868.922 1.81561 0.727654 0
M  V30 9018 C 869.302 0.871604 1.92266 0
M  V30 9019 O 868.65 -0.0808232 2.28357 0
M  V30 9020 C 868.86 3.29922 1.13809 0
M  V30 9021 C 870.208 3.95531 1.54403 0
M  V30 9022 O 871.232 3.34215 1.23202 0
M  V30 9023 O 870.091 5.03535 2.12402 0
M  V30 9024 H 867.185 0.747462 0.353878 0
M  V30 9025 H 869.731 1.69688 -0.0200667 0
M  V30 9026 H 868.503 3.90253 0.286078 0
M  V30 9027 H 868.126 3.46775 1.94507 0
M  V30 9028 N 869.123 -0.277682 1.55134 0
M  V30 9029 C 870.371 -1.00791 1.75173 0
M  V30 9030 C 870.692 -1.86987 0.553266 0
M  V30 9031 O 869.962 -1.91079 -0.43195 0
M  V30 9032 H 868.542 -0.375129 0.645978 0
M  V30 9033 H 871.204 -0.303041 1.9253 0
M  V30 9034 H 870.3 -1.64756 2.6507 0
M  V30 9035 N 870.601 -1.47988 -0.541979 0
M  V30 9036 C 871.847 -1.55623 -1.30036 0
M  V30 9037 C 872.18 -0.224254 -1.92901 0
M  V30 9038 O 871.455 0.768629 -1.78668 0
M  V30 9039 C 871.738 -2.68562 -2.39888 0
M  V30 9040 C 871.591 -4.11426 -1.81792 0
M  V30 9041 C 872.91 -2.77325 -3.41729 0
M  V30 9042 H 870.029 -0.566498 -0.471433 0
M  V30 9043 H 872.671 -1.8011 -0.604998 0
M  V30 9044 H 870.821 -2.47814 -2.992 0
M  V30 9045 H 872.493 -4.43581 -1.26624 0
M  V30 9046 H 870.736 -4.18989 -1.12386 0
M  V30 9047 H 871.407 -4.8625 -2.61276 0
M  V30 9048 H 873.883 -2.96085 -2.92357 0
M  V30 9049 H 872.759 -3.58097 -4.16002 0
M  V30 9050 H 873.02 -1.84995 -4.01534 0
M  V30 9051 N 872.079 0.78992 -1.36375 0
M  V30 9052 C 873.009 1.91683 -1.33341 0
M  V30 9053 C 873.99 1.68861 -0.204965 0
M  V30 9054 O 875.175 1.89982 -0.402531 0
M  V30 9055 C 872.305 3.28696 -1.12143 0
M  V30 9056 C 871.259 3.66041 -2.21806 0
M  V30 9057 C 870.585 5.01399 -1.85751 0
M  V30 9058 C 871.885 3.74677 -3.63888 0
M  V30 9059 H 873.579 1.94478 -2.27637 0
M  V30 9060 H 871.125 0.934271 -1.09578 0
M  V30 9061 H 873.078 4.07151 -1.08656 0
M  V30 9062 H 871.802 3.26287 -0.142974 0
M  V30 9063 H 870.461 2.89883 -2.24418 0
M  V30 9064 H 870.109 4.9551 -0.864817 0
M  V30 9065 H 869.809 5.27355 -2.59173 0
M  V30 9066 H 871.333 5.82274 -1.83819 0
M  V30 9067 H 872.747 4.43324 -3.63506 0
M  V30 9068 H 871.144 4.12118 -4.3621 0
M  V30 9069 H 872.214 2.75795 -3.9883 0
M  V30 9070 N 873.557 1.20646 1.01402 0
M  V30 9071 C 874.787 1.04238 1.78376 0
M  V30 9072 C 875.195 -0.411327 1.84675 0
M  V30 9073 O 874.538 -1.29734 1.30057 0
M  V30 9074 C 874.6 1.55349 3.24202 0
M  V30 9075 C 874.264 3.03684 3.41504 0
M  V30 9076 C 875.261 4.01318 3.30514 0
M  V30 9077 C 872.946 3.42698 3.67237 0
M  V30 9078 C 874.94 5.35956 3.45007 0
M  V30 9079 C 872.627 4.77491 3.81373 0
M  V30 9080 C 873.625 5.73929 3.70263 0
M  V30 9081 O 873.313 7.06277 3.83963 0
M  V30 9082 H 873.045 0.366978 0.567718 0
M  V30 9083 H 875.599 1.60235 1.28506 0
M  V30 9084 H 873.829 0.93739 3.75166 0
M  V30 9085 H 875.518 1.34921 3.8282 0
M  V30 9086 H 876.284 3.72522 3.10568 0
M  V30 9087 H 872.163 2.68175 3.74971 0
M  V30 9088 H 875.707 6.11212 3.36252 0
M  V30 9089 H 871.604 5.05977 4.00821 0
M  V30 9090 H 872.372 7.13561 4.00965 0
M  V30 9091 N 875.035 -1.20752 1.01276 0
M  V30 9092 C 875.965 -2.25658 0.600064 0
M  V30 9093 C 876.946 -1.65733 -0.38298 0
M  V30 9094 O 878.131 -1.92324 -0.269256 0
M  V30 9095 C 875.261 -3.47237 -0.0663197 0
M  V30 9096 C 874.215 -4.1973 0.83731 0
M  V30 9097 C 873.541 -5.34687 0.0369102 0
M  V30 9098 C 874.841 -4.76286 2.14357 0
M  V30 9099 H 876.535 -2.60432 1.477 0
M  V30 9100 H 874.081 -1.25187 0.711634 0
M  V30 9101 H 876.034 -4.19803 -0.366563 0
M  V30 9102 H 874.758 -3.11615 -0.977944 0
M  V30 9103 H 873.417 -3.49024 1.1215 0
M  V30 9104 H 873.065 -4.95309 -0.876244 0
M  V30 9105 H 872.765 -5.84119 0.63865 0
M  V30 9106 H 874.289 -6.10059 -0.256968 0
M  V30 9107 H 875.703 -5.40691 1.90595 0
M  V30 9108 H 874.1 -5.36139 2.69583 0
M  V30 9109 H 875.17 -3.9524 2.80916 0
M  V30 9110 N 876.513 -0.788492 -1.36457 0
M  V30 9111 C 877.762 -0.357052 -1.98515 0
M  V30 9112 C 878.075 1.0769 -1.63285 0
M  V30 9113 O 879.281 1.61057 -2.1857 0
M  V30 9114 C 877.737 -0.587449 -3.55073 0
M  V30 9115 C 877.345 -2.03276 -3.99228 0
M  V30 9116 C 879.089 -0.220468 -4.23927 0
M  V30 9117 C 876.996 -2.20987 -5.48561 0
M  V30 9118 H 875.926 -0.129762 -0.74275 0
M  V30 9119 H 878.577 -0.969995 -1.55767 0
M  V30 9120 H 876.959 0.0951918 -3.95886 0
M  V30 9121 H 878.133 -2.75173 -3.69617 0
M  V30 9122 H 876.448 -2.3579 -3.43208 0
M  V30 9123 H 879.045 -0.331085 -5.33674 0
M  V30 9124 H 879.388 0.831306 -4.07915 0
M  V30 9125 H 879.921 -0.856309 -3.88474 0
M  V30 9126 H 876.66 -3.24543 -5.69519 0
M  V30 9127 H 876.18 -1.53594 -5.79801 0
M  V30 9128 H 877.859 -2.01656 -6.14771 0
M  V30 9129 N 877.991 1.48044 -0.54043 0
M  V30 9130 C 879.219 2.06895 -0.0145153 0
M  V30 9131 C 879.634 1.39552 1.27164 0
M  V30 9132 O 878.991 0.486454 1.75897 0
M  V30 9133 C 879.042 3.60934 0.202278 0
M  V30 9134 O 878.763 4.25749 -1.03293 0
M  V30 9135 C 880.264 4.36607 0.767387 0
M  V30 9136 H 877.484 0.66991 -0.0382368 0
M  V30 9137 H 880.028 1.90288 -0.749057 0
M  V30 9138 H 878.183 3.77111 0.886897 0
M  V30 9139 H 878.597 5.18048 -0.820167 0
M  V30 9140 H 880.071 5.45126 0.86845 0
M  V30 9141 H 880.548 4.01745 1.77477 0
M  V30 9142 H 881.154 4.25133 0.119002 0
M  V30 9143 N 879.47 0.276058 1.55163 0
M  V30 9144 C 880.886 -0.0780579 1.59409 0
M  V30 9145 C 881.086 -1.54521 1.29327 0
M  V30 9146 O 880.142 -2.29422 1.05459 0
M  V30 9147 C 881.455 0.297422 2.99225 0
M  V30 9148 C 883.003 0.244117 3.12047 0
M  V30 9149 C 883.478 0.594051 4.54131 0
M  V30 9150 N 884.969 0.54564 4.59975 0
M  V30 9151 C 885.704 0.789192 5.67943 0
M  V30 9152 N 885.2 1.09741 6.84053 0
M  V30 9153 N 886.993 0.717926 5.57496 0
M  V30 9154 H 879.144 1.23251 1.72982 0
M  V30 9155 H 881.407 0.497988 0.806667 0
M  V30 9156 H 881.113 1.31782 3.26077 0
M  V30 9157 H 880.987 -0.361286 3.75466 0
M  V30 9158 H 883.374 -0.766992 2.84958 0
M  V30 9159 H 883.455 0.937097 2.38017 0
M  V30 9160 H 883.099 1.60285 4.81945 0
M  V30 9161 H 883.029 -0.120728 5.26462 0
M  V30 9162 H 885.52 0.317334 3.76565 0
M  V30 9163 H 885.833 1.26989 7.62295 0
M  V30 9164 H 884.178 1.13519 6.85666 0
M  V30 9165 H 887.369 0.47697 4.65664 0
M  V30 9166 H 887.542 0.911118 6.41563 0
M  V30 9167 N 880.948 -1.576 0.00335426 0
M  V30 9168 C 882.196 -1.90336 -0.679446 0
M  V30 9169 C 882.517 -0.877777 -1.74127 0
M  V30 9170 O 881.787 0.0843585 -1.95718 0
M  V30 9171 H 880.367 -0.702509 -0.253948 0
M  V30 9172 H 883.029 -1.94848 0.0450731 0
M  V30 9173 H 882.125 -2.90197 -1.14857 0
M  V30 9174 N 882.426 0.269451 -1.5528 0
M  V30 9175 C 883.654 1.01872 -1.80082 0
M  V30 9176 C 884.069 1.79802 -0.575917 0
M  V30 9177 O 883.426 1.76735 0.455081 0
M  V30 9178 C 883.477 1.9745 -3.02813 0
M  V30 9179 O 883.198 1.22677 -4.20573 0
M  V30 9180 C 884.699 2.8416 -3.40247 0
M  V30 9181 H 881.919 0.300781 -0.59981 0
M  V30 9182 H 884.463 0.29916 -2.023 0
M  V30 9183 H 882.618 2.64864 -2.82712 0
M  V30 9184 H 883.032 1.87129 -4.89982 0
M  V30 9185 H 884.506 3.47014 -4.29284 0
M  V30 9186 H 884.983 3.54113 -2.59809 0
M  V30 9187 H 885.589 2.22232 -3.6262 0
M  V30 9188 N 883.904 1.48273 0.534124 0
M  V30 9189 C 885.32 1.34302 0.862272 0
M  V30 9190 C 885.52 0.350902 1.98421 0
M  V30 9191 O 884.576 -0.229364 2.51456 0
M  V30 9192 C 885.889 2.74227 1.23371 0
M  V30 9193 C 887.437 2.82684 1.34383 0
M  V30 9194 C 887.912 4.23301 1.74871 0
M  V30 9195 N 889.403 4.25954 1.81981 0
M  V30 9196 C 890.138 5.31693 2.14686 0
M  V30 9197 N 889.634 6.47714 2.45844 0
M  V30 9198 N 891.427 5.19084 2.15657 0
M  V30 9199 H 883.578 2.11397 -0.206215 0
M  V30 9200 H 885.841 0.947537 -0.0296116 0
M  V30 9201 H 885.547 3.48368 0.482967 0
M  V30 9202 H 885.421 3.07485 2.18478 0
M  V30 9203 H 887.808 2.08801 2.08534 0
M  V30 9204 H 887.889 2.5305 0.374063 0
M  V30 9205 H 887.533 4.97699 1.01282 0
M  V30 9206 H 887.463 4.50376 2.7289 0
M  V30 9207 H 889.954 3.42266 1.60196 0
M  V30 9208 H 890.267 7.2414 2.69892 0
M  V30 9209 H 888.612 6.50995 2.43372 0
M  V30 9210 H 891.803 4.27463 1.9077 0
M  V30 9211 H 891.976 6.01592 2.40813 0
M  V30 9212 N 885.382 -0.782676 1.36792 0
M  V30 9213 C 886.63 -1.53778 1.31136 0
M  V30 9214 C 886.951 -1.94706 -0.107014 0
M  V30 9215 O 886.221 -1.65465 -1.04872 0
M  V30 9216 H 884.801 -0.570328 0.482426 0
M  V30 9217 H 887.463 -0.932181 1.71162 0
M  V30 9218 H 886.559 -2.44224 1.94321 0
M  V30 9219 N 886.86 -1.21182 -1.00761 0
M  V30 9220 C 888.137 -0.936297 -1.71735 0
M  V30 9221 C 888.517 0.552585 -2.03739 0
M  V30 9222 O 887.865 1.51672 -1.70903 0
M  V30 9223 C 888.075 -1.81867 -2.97868 0
M  V30 9224 C 889.423 -2.06594 -3.7095 0
M  V30 9225 O 890.447 -1.79194 -3.07844 0
M  V30 9226 O 889.306 -2.5292 -4.84452 0
M  V30 9227 H 886.4 -0.350867 -0.74888 0
M  V30 9228 H 888.946 -1.32098 -1.06527 0
M  V30 9229 H 887.718 -2.82643 -2.70607 0
M  V30 9230 H 887.341 -1.43463 -3.70815 0
M  V30 9231 N 888.338 1.20213 -1.01915 0
M  V30 9232 C 889.754 1.41696 -0.734459 0
M  V30 9233 C 889.954 1.89504 0.684867 0
M  V30 9234 O 889.01 2.06556 1.45227 0
M  V30 9235 C 890.323 2.43644 -1.76233 0
M  V30 9236 C 891.871 2.57406 -1.78076 0
M  V30 9237 C 892.346 3.626 -2.79796 0
M  V30 9238 N 893.837 3.70086 -2.78551 0
M  V30 9239 C 894.572 4.51145 -3.53915 0
M  V30 9240 N 894.068 5.35988 -4.38963 0
M  V30 9241 N 895.861 4.45702 -3.425 0
M  V30 9242 H 888.012 0.874976 -1.93541 0
M  V30 9243 H 890.275 0.446647 -0.836188 0
M  V30 9244 H 889.981 2.15519 -2.77929 0
M  V30 9245 H 889.855 3.42672 -1.57657 0
M  V30 9246 H 892.242 2.8486 -0.770634 0
M  V30 9247 H 892.323 1.58565 -2.00725 0
M  V30 9248 H 891.967 3.35889 -3.80973 0
M  V30 9249 H 891.897 4.61069 -2.54407 0
M  V30 9250 H 894.388 3.09484 -2.1686 0
M  V30 9251 H 894.701 5.94932 -4.9323 0
M  V30 9252 H 893.046 5.35482 -4.4304 0
M  V30 9253 H 896.237 3.78456 -2.75478 0
M  V30 9254 H 896.41 5.08637 -4.01487 0
M  V30 9255 N 889.816 0.795718 1.36037 0
M  V30 9256 C 890.746 0.212803 2.32528 0
M  V30 9257 C 891.727 -0.655716 1.56953 0
M  V30 9258 O 892.912 -0.588238 1.85077 0
M  V30 9259 C 890.042 -0.648189 3.41198 0
M  V30 9260 C 888.996 0.120948 4.27829 0
M  V30 9261 C 888.322 -0.861044 5.27722 0
M  V30 9262 C 889.622 1.31375 5.05508 0
M  V30 9263 H 891.316 1.01893 2.81528 0
M  V30 9264 H 888.862 0.491422 1.35355 0
M  V30 9265 H 890.815 -1.06597 4.07695 0
M  V30 9266 H 889.539 -1.48709 2.9078 0
M  V30 9267 H 888.198 0.519777 3.62897 0
M  V30 9268 H 887.846 -1.69515 4.73575 0
M  V30 9269 H 887.546 -0.350808 5.86552 0
M  V30 9270 H 889.07 -1.27726 5.97092 0
M  V30 9271 H 890.484 0.971406 5.6501 0
M  V30 9272 H 888.881 1.75772 5.73781 0
M  V30 9273 H 889.951 2.10593 4.36782 0
M  V30 9274 N 891.294 -1.47756 0.548274 0
M  V30 9275 C 892.542 -2.02089 0.0208542 0
M  V30 9276 C 892.863 -1.42589 -1.33017 0
M  V30 9277 O 892.133 -0.597825 -1.86555 0
M  V30 9278 H 890.713 -0.746985 0.00472023 0
M  V30 9279 H 893.375 -1.81262 0.716257 0
M  V30 9280 H 892.471 -3.12012 -0.0739016 0
M  V30 9281 N 892.772 -0.284283 -1.55015 0
M  V30 9282 C 893.997 0.335799 -2.04664 0
M  V30 9283 C 894.422 1.47999 -1.16094 0
M  V30 9284 O 893.78 1.8058 -0.161454 0
M  V30 9285 C 893.828 0.785615 -3.51938 0
M  V30 9286 O 892.932 1.89202 -3.66437 0
M  V30 9287 H 892.273 0.0680233 -0.660506 0
M  V30 9288 H 894.803 -0.421255 -2.00216 0
M  V30 9289 H 894.813 1.07892 -3.93476 0
M  V30 9290 H 893.488 -0.0514675 -4.15868 0
M  V30 9291 H 892.065 1.60055 -3.36804 0
M  V30 9292 N 894.251 1.57596 -0.0117121 0
M  V30 9293 C 895.476 1.95764 0.684938 0
M  V30 9294 C 895.901 0.887285 1.65858 0
M  V30 9295 O 895.259 -0.153508 1.80649 0
M  V30 9296 C 895.307 3.33031 1.38285 0
M  V30 9297 O 894.411 3.28163 2.49765 0
M  V30 9298 H 893.752 0.638767 0.181309 0
M  V30 9299 H 896.282 2.04486 -0.0683883 0
M  V30 9300 H 896.292 3.68866 1.74362 0
M  V30 9301 H 894.967 4.10483 0.669043 0
M  V30 9302 H 893.544 3.04021 2.15929 0
M  V30 9303 N 895.729 -0.261212 1.5542 0
M  V30 9304 C 896.659 -1.32712 1.92119 0
M  V30 9305 C 897.64 -1.50934 0.784406 0
M  V30 9306 O 898.825 -1.63781 1.04352 0
M  V30 9307 C 895.955 -2.68453 2.20341 0
M  V30 9308 C 894.909 -2.64947 3.36136 0
M  V30 9309 C 894.235 -4.04349 3.49865 0
M  V30 9310 C 895.535 -2.23182 4.72215 0
M  V30 9311 H 897.229 -1.02245 2.81401 0
M  V30 9312 H 894.775 -0.490406 1.35392 0
M  V30 9313 H 896.728 -3.43144 2.44603 0
M  V30 9314 H 895.452 -3.00527 1.27871 0
M  V30 9315 H 894.111 -1.92714 3.11861 0
M  V30 9316 H 893.759 -4.33665 2.5484 0
M  V30 9317 H 893.459 -4.02895 4.27726 0
M  V30 9318 H 894.983 -4.80761 3.76432 0
M  V30 9319 H 896.397 -2.87599 4.95943 0
M  V30 9320 H 894.794 -2.32867 5.53076 0
M  V30 9321 H 895.864 -1.18327 4.70241 0
M  V30 9322 N 897.207 -1.48554 -0.526253 0
M  V30 9323 C 898.157 -1.59753 -1.62674 0
M  V30 9324 C 899.141 -0.454452 -1.54349 0
M  V30 9325 O 900.333 -0.706091 -1.62306 0
M  V30 9326 C 897.462 -1.64388 -3.01383 0
M  V30 9327 C 896.548 -2.84188 -3.14798 0
M  V30 9328 N 896.939 -4.08564 -2.98176 0
M  V30 9329 C 895.237 -2.81599 -3.45859 0
M  V30 9330 C 895.938 -4.88961 -3.15106 0
M  V30 9331 N 894.914 -4.21848 -3.42849 0
M  V30 9332 H 898.716 -2.5366 -1.48438 0
M  V30 9333 H 896.23 -1.44977 -0.731801 0
M  V30 9334 H 898.227 -1.70505 -3.80439 0
M  V30 9335 H 896.887 -0.716006 -3.16707 0
M  V30 9336 H 897.898 -4.38943 -2.74862 0
M  V30 9337 H 894.575 -1.98083 -3.67518 0
M  V30 9338 H 895.965 -5.97683 -3.0696 0
M  V30 9339 N 898.685 0.775411 -1.37205 0
M  V30 9340 C 900.101 1.07546 -1.17924 0
M  V30 9341 C 900.301 2.01496 -0.0128897 0
M  V30 9342 O 899.357 2.44039 0.64816 0
M  V30 9343 C 900.67 1.67647 -2.49629 0
M  V30 9344 C 902.218 1.79923 -2.56119 0
M  V30 9345 C 902.693 2.43438 -3.87946 0
M  V30 9346 N 904.184 2.50893 -3.89368 0
M  V30 9347 C 904.919 3.00881 -4.88117 0
M  V30 9348 N 904.415 3.5107 -5.97262 0
M  V30 9349 N 906.208 2.99722 -4.75524 0
M  V30 9350 H 898.359 0.151524 -2.11859 0
M  V30 9351 H 900.622 0.129845 -0.939066 0
M  V30 9352 H 900.328 1.06082 -3.3532 0
M  V30 9353 H 900.202 2.66988 -2.66453 0
M  V30 9354 H 902.589 2.40621 -1.70838 0
M  V30 9355 H 902.67 0.793482 -2.43182 0
M  V30 9356 H 902.314 1.8338 -4.73639 0
M  V30 9357 H 902.244 3.44611 -3.98184 0
M  V30 9358 H 904.735 2.1537 -3.10522 0
M  V30 9359 H 905.048 3.87604 -6.68568 0
M  V30 9360 H 903.393 3.49184 -6.00912 0
M  V30 9361 H 906.584 2.5981 -3.8938 0
M  V30 9362 H 906.757 3.38369 -5.52639 0
M  V30 9363 N 900.163 1.21714 1.00117 0
M  V30 9364 C 901.388 1.06357 1.78054 0
M  V30 9365 C 901.813 -0.382075 1.84179 0
M  V30 9366 O 901.171 -1.27575 1.28819 0
M  V30 9367 C 901.219 1.66982 3.19608 0
M  V30 9368 O 900.323 0.917892 4.02055 0
M  V30 9369 H 899.664 0.374074 0.548602 0
M  V30 9370 H 902.194 1.61338 1.25822 0
M  V30 9371 H 902.204 1.71363 3.70268 0
M  V30 9372 H 900.879 2.72185 3.14465 0
M  V30 9373 H 899.456 0.949473 3.6061 0
M  V30 9374 N 901.641 -1.19671 1.02551 0
M  V30 9375 C 903.057 -1.41305 0.741963 0
M  V30 9376 C 903.257 -1.89865 -0.674807 0
M  V30 9377 O 902.313 -2.07323 -1.44129 0
M  V30 9378 C 903.626 -2.42706 1.77522 0
M  V30 9379 C 905.174 -2.56458 1.79438 0
M  V30 9380 C 905.649 -3.61111 2.81715 0
M  V30 9381 N 907.14 -3.68603 2.8051 0
M  V30 9382 C 907.875 -4.49262 3.56302 0
M  V30 9383 N 907.371 -5.33653 4.41799 0
M  V30 9384 N 909.164 -4.43879 3.44859 0
M  V30 9385 H 901.315 -0.8647 1.94002 0
M  V30 9386 H 903.578 -0.442206 0.838545 0
M  V30 9387 H 903.284 -2.14042 2.79068 0
M  V30 9388 H 903.158 -3.41831 1.59472 0
M  V30 9389 H 905.545 -2.84447 0.78573 0
M  V30 9390 H 905.626 -1.57499 2.01563 0
M  V30 9391 H 905.27 -3.33864 3.82749 0
M  V30 9392 H 905.2 -4.59713 2.56849 0
M  V30 9393 H 907.691 -3.08329 2.18498 0
M  V30 9394 H 908.004 -5.92308 4.96378 0
M  V30 9395 H 906.349 -5.33125 4.45873 0
M  V30 9396 H 909.54 -3.7699 2.77482 0
M  V30 9397 H 909.713 -5.06501 4.04179 0
M  V30 9398 N 903.119 -0.802921 -1.35613 0
M  V30 9399 C 904.396 -0.304993 -1.93208 0
M  V30 9400 C 904.776 1.20488 -1.73337 0
M  V30 9401 O 904.124 2.00268 -1.10022 0
M  V30 9402 C 904.334 -0.712383 -3.41652 0
M  V30 9403 C 905.682 -0.699785 -4.18794 0
M  V30 9404 O 906.706 -0.653698 -3.5015 0
M  V30 9405 O 905.565 -0.754842 -5.41262 0
M  V30 9406 H 902.659 -0.0789127 -0.823226 0
M  V30 9407 H 905.205 -0.886372 -1.44712 0
M  V30 9408 H 903.977 -1.75316 -3.49829 0
M  V30 9409 H 903.6 -0.105614 -3.9746 0
M  V30 9410 N 904.597 1.47463 -0.556102 0
M  V30 9411 C 905.846 2.01678 -0.029492 0
M  V30 9412 C 906.159 1.436 1.32809 0
M  V30 9413 O 907.365 1.89472 1.94455 0
M  V30 9414 C 905.821 3.599 -0.00223937 0
M  V30 9415 C 905.429 4.26969 -1.35651 0
M  V30 9416 C 907.173 4.2187 0.471822 0
M  V30 9417 C 905.08 5.77194 -1.28843 0
M  V30 9418 H 904.01 0.753965 -0.00725504 0
M  V30 9419 H 906.661 1.69467 -0.703789 0
M  V30 9420 H 905.043 3.89068 0.737682 0
M  V30 9421 H 906.217 4.09444 -2.11406 0
M  V30 9422 H 904.532 3.76983 -1.76842 0
M  V30 9423 H 907.129 5.31955 0.541139 0
M  V30 9424 H 907.472 3.88968 1.48356 0
M  V30 9425 H 908.005 3.97228 -0.213207 0
M  V30 9426 H 904.744 6.14713 -2.27613 0
M  V30 9427 H 904.264 5.9706 -0.572668 0
M  V30 9428 H 905.943 6.3938 -0.990031 0
M  V30 9429 N 906.075 0.2925 1.54862 0
M  V30 9430 C 907.323 -0.318633 1.99572 0
M  V30 9431 C 907.644 -1.55062 1.1824 0
M  V30 9432 O 906.914 -1.93943 0.276226 0
M  V30 9433 H 905.494 -0.120722 0.737181 0
M  V30 9434 H 908.156 0.401862 1.90712 0
M  V30 9435 H 907.252 -0.596542 3.06346 0
M  V30 9436 N 907.553 -1.57587 0.0200696 0
M  V30 9437 C 908.485 -2.06555 -0.993359 0
M  V30 9438 C 909.498 -0.987227 -1.29451 0
M  V30 9439 O 910.687 -1.26361 -1.26075 0
M  V30 9440 C 907.787 -2.4675 -2.3231 0
M  V30 9441 C 906.96 -3.77554 -2.20843 0
M  V30 9442 C 906.019 -4.04397 -3.36674 0
M  V30 9443 O 905.045 -4.7478 -3.13963 0
M  V30 9444 N 906.247 -3.53861 -4.60176 0
M  V30 9445 H 909.012 -2.9412 -0.575617 0
M  V30 9446 H 906.573 -1.61038 -0.166889 0
M  V30 9447 H 908.565 -2.61806 -3.08609 0
M  V30 9448 H 907.135 -1.64598 -2.65756 0
M  V30 9449 H 906.355 -3.72382 -1.29327 0
M  V30 9450 H 907.643 -4.63271 -2.10375 0
M  V30 9451 H 907.041 -2.96904 -4.81523 0
M  V30 9452 H 905.598 -3.74213 -5.33674 0
M  V30 9453 N 909.032 0.252966 -1.55557 0
M  V30 9454 C 910.26 0.999565 -1.81153 0
M  V30 9455 C 910.675 1.79181 -0.594955 0
M  V30 9456 O 910.032 1.77208 0.436311 0
M  V30 9457 C 910.083 1.94227 -3.04891 0
M  V30 9458 O 909.804 1.18209 -4.21851 0
M  V30 9459 C 911.305 2.80536 -3.43241 0
M  V30 9460 H 908.525 0.294402 -0.602966 0
M  V30 9461 H 911.069 0.277686 -2.02606 0
M  V30 9462 H 909.224 2.6185 -2.85505 0
M  V30 9463 H 909.638 1.81922 -4.9194 0
M  V30 9464 H 911.112 3.42442 -4.32941 0
M  V30 9465 H 911.589 3.51337 -2.6355 0
M  V30 9466 H 912.195 2.18373 -3.64956 0
M  V30 9467 N 910.51 1.48831 0.518367 0
M  V30 9468 C 911.756 1.58649 1.27287 0
M  V30 9469 C 912.111 0.262085 1.90607 0
M  V30 9470 O 911.404 -0.736154 1.76894 0
M  V30 9471 C 911.598 2.67003 2.3758 0
M  V30 9472 C 911.427 4.09851 1.85073 0
M  V30 9473 C 910.197 4.76852 1.67154 0
M  V30 9474 C 912.395 4.95646 1.37256 0
M  V30 9475 N 910.377 6.04075 1.09394 0
M  V30 9476 C 911.748 6.13208 0.915189 0
M  V30 9477 C 913.803 4.8178 1.25666 0
M  V30 9478 C 912.506 7.18431 0.353411 0
M  V30 9479 C 914.532 5.87136 0.708873 0
M  V30 9480 C 913.894 7.03914 0.261642 0
M  V30 9481 H 909.993 0.635017 0.456374 0
M  V30 9482 H 912.577 1.85763 0.583097 0
M  V30 9483 H 910.748 2.41691 3.04039 0
M  V30 9484 H 912.48 2.6644 3.04617 0
M  V30 9485 H 909.235 4.3337 1.91017 0
M  V30 9486 H 909.659 6.71955 0.824917 0
M  V30 9487 H 914.301 3.91826 1.58846 0
M  V30 9488 H 912.019 8.08099 0.00931313 0
M  V30 9489 H 915.605 5.78463 0.622221 0
M  V30 9490 H 914.485 7.84046 -0.155634 0
M  V30 9491 N 911.988 -0.768124 1.37614 0
M  V30 9492 C 912.898 -1.91249 1.35871 0
M  V30 9493 C 913.914 -1.7208 0.257786 0
M  V30 9494 O 915.09 -1.95253 0.493782 0
M  V30 9495 C 912.155 -3.26423 1.16829 0
M  V30 9496 C 911.216 -3.5822 2.36594 0
M  V30 9497 C 910.449 -4.86945 2.1845 0
M  V30 9498 O 910.672 -5.58258 1.17064 0
M  V30 9499 O 909.606 -5.17888 3.06718 0
M  V30 9500 H 913.432 -1.95671 2.32264 0
M  V30 9501 H 911.017 -0.911382 1.18382 0
M  V30 9502 H 912.899 -4.07269 1.08212 0
M  V30 9503 H 911.574 -3.22845 0.235123 0
M  V30 9504 H 910.481 -2.77594 2.50783 0
M  V30 9505 H 911.814 -3.66545 3.2849 0
M  V30 9506 N 913.466 -1.22244 -0.994698 0
M  V30 9507 C 914.691 -1.07299 -1.77487 0
M  V30 9508 C 915.116 0.372302 -1.84379 0
M  V30 9509 O 914.474 1.2689 -1.29494 0
M  V30 9510 C 914.522 -1.68675 -3.18718 0
M  V30 9511 O 913.626 -0.939202 -4.01563 0
M  V30 9512 H 912.967 -0.376979 -0.546611 0
M  V30 9513 H 915.497 -1.62003 -1.24965 0
M  V30 9514 H 915.507 -1.73324 -3.69354 0
M  V30 9515 H 914.182 -2.73849 -3.13017 0
M  V30 9516 H 912.759 -0.968583 -3.60101 0
M  V30 9517 N 914.944 1.19125 -1.03184 0
M  V30 9518 C 915.874 2.24675 -0.635889 0
M  V30 9519 C 916.855 1.66321 0.356565 0
M  V30 9520 O 918.04 1.92728 0.238625 0
M  V30 9521 C 915.17 3.47298 0.011069 0
M  V30 9522 C 914.124 4.18345 -0.903979 0
M  V30 9523 C 913.45 5.34561 -0.12197 0
M  V30 9524 C 914.75 4.72816 -2.21907 0
M  V30 9525 H 916.444 2.5805 -1.51825 0
M  V30 9526 H 913.99 1.24039 -0.73146 0
M  V30 9527 H 915.943 4.20333 0.299729 0
M  V30 9528 H 914.667 3.13131 0.928245 0
M  V30 9529 H 913.326 3.47196 -1.17688 0
M  V30 9530 H 912.974 4.9664 0.797334 0
M  V30 9531 H 912.674 5.83029 -0.731498 0
M  V30 9532 H 914.198 6.10391 0.159881 0
M  V30 9533 H 915.612 5.3759 -1.99173 0
M  V30 9534 H 914.009 5.31782 -2.78078 0
M  V30 9535 H 915.079 3.9072 -2.87168 0
M  V30 9536 N 916.422 0.810101 1.35185 0
M  V30 9537 C 917.838 0.494269 1.51754 0
M  V30 9538 C 918.038 -0.983907 1.75845 0
M  V30 9539 O 917.094 -1.76882 1.80191 0
M  V30 9540 C 918.407 1.34268 2.69059 0
M  V30 9541 C 919.955 1.33848 2.82938 0
M  V30 9542 C 920.43 2.17109 4.03271 0
M  V30 9543 N 921.921 2.14664 4.10456 0
M  V30 9544 C 922.656 2.75843 5.02691 0
M  V30 9545 N 922.152 3.45962 6.00235 0
M  V30 9546 N 923.945 2.65465 4.95464 0
M  V30 9547 H 916.096 1.76736 1.17805 0
M  V30 9548 H 918.359 0.752429 0.576676 0
M  V30 9549 H 918.065 2.39183 2.57845 0
M  V30 9550 H 917.939 0.998362 3.63748 0
M  V30 9551 H 920.326 0.29716 2.936 0
M  V30 9552 H 920.407 1.72269 1.89095 0
M  V30 9553 H 920.051 3.21283 3.93369 0
M  V30 9554 H 919.981 1.76046 4.96302 0
M  V30 9555 H 922.472 1.63648 3.40628 0
M  V30 9556 H 922.785 3.89922 6.67219 0
M  V30 9557 H 921.13 3.50067 6.00398 0
M  V30 9558 H 924.321 2.1027 4.18215 0
M  V30 9559 H 924.494 3.13433 5.67154 0
M  V30 9560 N 917.9 -1.47166 0.563914 0
M  V30 9561 C 919.147 -2.02456 0.042371 0
M  V30 9562 C 919.475 -1.43753 -1.31016 0
M  V30 9563 O 918.73 -0.585287 -1.86743 0
M  V30 9564 C 919.029 -3.57279 -0.0931797 0
M  V30 9565 C 918.695 -4.34932 1.18933 0
M  V30 9566 C 917.357 -4.55867 1.54073 0
M  V30 9567 C 919.709 -4.79665 2.03889 0
M  V30 9568 C 917.037 -5.18785 2.74005 0
M  V30 9569 C 919.389 -5.43907 3.23029 0
M  V30 9570 C 918.053 -5.63074 3.58475 0
M  V30 9571 H 917.323 -0.740838 0.0155047 0
M  V30 9572 H 919.97 -1.76759 0.736776 0
M  V30 9573 H 918.275 -3.82005 -0.870596 0
M  V30 9574 H 919.972 -3.97716 -0.512176 0
M  V30 9575 H 916.562 -4.18921 0.905718 0
M  V30 9576 H 920.746 -4.63264 1.78046 0
M  V30 9577 H 916.002 -5.31818 3.01628 0
M  V30 9578 H 920.176 -5.77531 3.89141 0
M  V30 9579 H 917.803 -6.11598 4.515 0
M  V30 9580 N 919.378 -0.300708 -1.54705 0
M  V30 9581 C 920.789 0.191995 -1.8571 0
M  V30 9582 C 921.14 1.53447 -1.22264 0
M  V30 9583 O 920.265 2.10054 -0.520226 0
M  V30 9584 C 920.86 0.355148 -3.36933 0
M  V30 9585 C 919.419 0.792071 -3.67972 0
M  V30 9586 C 918.566 -0.099756 -2.77121 0
M  V30 9587 H 921.517 -0.521729 -1.49879 0
M  V30 9588 H 921.538 1.18977 -3.61421 0
M  V30 9589 H 921.05 -0.622075 -3.83082 0
M  V30 9590 H 919.151 1.77986 -3.27341 0
M  V30 9591 H 919.264 0.611661 -4.75179 0
M  V30 9592 H 917.628 0.420909 -2.51198 0
M  V30 9593 H 918.411 -1.07333 -3.2609 0
M  V30 9594 N 920.856 1.57574 -0.0284266 0
M  V30 9595 C 921.806 2.06674 0.962804 0
M  V30 9596 C 922.79 0.967115 1.28591 0
M  V30 9597 O 923.982 1.23068 1.27214 0
M  V30 9598 C 921.111 2.59682 2.24545 0
M  V30 9599 C 920.197 3.76573 1.95073 0
M  V30 9600 N 920.588 4.8721 1.35869 0
M  V30 9601 C 918.886 3.85046 2.25068 0
M  V30 9602 C 919.587 5.68436 1.23514 0
M  V30 9603 N 918.563 5.15323 1.73041 0
M  V30 9604 H 922.365 2.89615 0.500013 0
M  V30 9605 H 919.879 1.61437 0.176604 0
M  V30 9606 H 921.876 2.93148 2.96428 0
M  V30 9607 H 920.536 1.7817 2.71451 0
M  V30 9608 H 921.547 5.07477 1.03379 0
M  V30 9609 H 918.224 3.14439 2.74653 0
M  V30 9610 H 919.614 6.67387 0.777403 0
M  V30 9611 N 922.334 -0.244713 1.55689 0
M  V30 9612 C 923.282 -1.32276 1.91326 0
M  V30 9613 C 924.276 -1.49714 0.792589 0
M  V30 9614 O 925.482 -1.51163 0.977227 0
M  V30 9615 H 921.857 -0.442979 0.607679 0
M  V30 9616 H 923.828 -0.99486 2.81327 0
M  V30 9617 C 922.577 -2.67077 2.22633 0
M  V30 9618 H 921.9 -2.54458 3.08368 0
M  V30 9619 H 923.34 -3.41378 2.5147 0
M  V30 9620 C 921.799 -3.20335 1.04342 0
M  V30 9621 O 922.329 -4.00633 0.292543 0
M  V30 9622 N 920.535 -2.78392 0.833457 0
M  V30 9623 H 920.082 -2.13202 1.44577 0
M  V30 9624 H 920.04 -3.1437 0.0436713 0
M  V30 9625 N 923.813 -1.49104 -0.510467 0
M  V30 9626 C 925.059 -1.58346 -1.26705 0
M  V30 9627 C 925.392 -0.265121 -1.92382 0
M  V30 9628 O 924.667 0.730558 -1.80258 0
M  V30 9629 C 924.95 -2.7359 -2.34137 0
M  V30 9630 C 924.803 -4.1519 -1.73024 0
M  V30 9631 C 926.122 -2.84511 -3.3577 0
M  V30 9632 H 923.241 -0.57637 -0.459311 0
M  V30 9633 H 925.883 -1.81353 -0.566658 0
M  V30 9634 H 924.033 -2.54105 -2.93876 0
M  V30 9635 H 925.705 -4.46167 -1.17186 0
M  V30 9636 H 923.948 -4.21279 -1.03473 0
M  V30 9637 H 924.619 -4.91683 -2.50903 0
M  V30 9638 H 927.095 -3.0222 -2.86011 0
M  V30 9639 H 925.971 -3.6684 -4.08313 0
M  V30 9640 H 926.232 -1.93471 -3.97519 0
M  V30 9641 N 925.291 0.760815 -1.38019 0
M  V30 9642 C 926.241 1.86487 -1.31174 0
M  V30 9643 C 927.225 1.59684 -0.197414 0
M  V30 9644 O 928.417 1.71628 -0.432764 0
M  V30 9645 C 925.546 3.24103 -1.13192 0
M  V30 9646 C 924.632 3.5682 -2.29216 0
M  V30 9647 N 925.023 3.60644 -3.5464 0
M  V30 9648 C 923.321 3.87047 -2.2161 0
M  V30 9649 C 924.022 3.90423 -4.31214 0
M  V30 9650 N 922.998 4.06883 -3.60482 0
M  V30 9651 H 926.8 1.87711 -2.26146 0
M  V30 9652 H 924.314 0.957811 -1.31148 0
M  V30 9653 H 926.311 4.03101 -1.06372 0
M  V30 9654 H 924.971 3.24135 -0.191473 0
M  V30 9655 H 925.982 3.42581 -3.88405 0
M  V30 9656 H 922.659 3.94837 -1.35684 0
M  V30 9657 H 924.049 4.00065 -5.39812 0
M  V30 9658 N 926.769 1.22769 0.988202 0
M  V30 9659 C 928.185 0.988665 1.2529 0
M  V30 9660 C 928.385 -0.314938 1.99024 0
M  V30 9661 O 927.441 -1.03637 2.30251 0
M  V30 9662 C 928.754 2.19046 2.06009 0
M  V30 9663 C 930.302 2.23452 2.19176 0
M  V30 9664 C 930.777 3.43196 3.03283 0
M  V30 9665 N 932.268 3.43387 3.10869 0
M  V30 9666 C 933.003 4.32693 3.7625 0
M  V30 9667 N 932.499 5.32224 4.43519 0
M  V30 9668 N 934.292 4.20457 3.73058 0
M  V30 9669 H 926.443 2.06575 0.494014 0
M  V30 9670 H 928.706 0.905452 0.28082 0
M  V30 9671 H 928.412 3.13607 1.59197 0
M  V30 9672 H 928.286 2.19492 3.06763 0
M  V30 9673 H 930.673 1.29436 2.65199 0
M  V30 9674 H 930.754 2.27042 1.17836 0
M  V30 9675 H 930.398 4.37515 2.57959 0
M  V30 9676 H 930.328 3.36847 4.04774 0
M  V30 9677 H 932.819 2.71368 2.62998 0
M  V30 9678 H 933.132 5.9664 4.91163 0
M  V30 9679 H 931.477 5.36133 4.42252 0
M  V30 9680 H 934.668 3.41949 3.19669 0
M  V30 9681 H 934.841 4.90261 4.23731 0
M  V30 9682 N 928.247 -1.18576 1.03814 0
M  V30 9683 C 929.475 -1.92437 0.759966 0
M  V30 9684 C 929.89 -1.76031 -0.682526 0
M  V30 9685 O 929.247 -1.08829 -1.46501 0
M  V30 9686 C 929.298 -3.43923 1.11351 0
M  V30 9687 O 929.019 -3.5981 2.49937 0
M  V30 9688 C 930.52 -4.34888 0.859472 0
M  V30 9689 H 927.74 -0.610998 0.277349 0
M  V30 9690 H 930.284 -1.50448 1.38512 0
M  V30 9691 H 928.439 -3.83711 0.533362 0
M  V30 9692 H 928.853 -4.53569 2.63393 0
M  V30 9693 H 930.327 -5.39744 1.15672 0
M  V30 9694 H 930.804 -4.38717 -0.205839 0
M  V30 9695 H 931.41 -4.00795 1.42279 0
M  V30 9696 N 929.725 -0.817259 -1.34754 0
M  V30 9697 C 930.953 -0.415451 -2.02686 0
M  V30 9698 C 931.368 0.97688 -1.61563 0
M  V30 9699 O 930.725 1.63125 -0.818321 0
M  V30 9700 C 930.776 -0.501486 -3.58005 0
M  V30 9701 O 930.497 -1.83893 -3.97637 0
M  V30 9702 C 931.998 -0.0938504 -4.43201 0
M  V30 9703 H 929.218 -0.16742 -0.649778 0
M  V30 9704 H 931.762 -1.10384 -1.7215 0
M  V30 9705 H 929.917 0.138766 -3.87151 0
M  V30 9706 H 930.331 -1.8092 -4.92309 0
M  V30 9707 H 931.805 -0.205145 -5.51619 0
M  V30 9708 H 932.282 0.962011 -4.28535 0
M  V30 9709 H 932.888 -0.707677 -4.19371 0
M  V30 9710 N 931.203 1.46865 -0.571711 0
M  V30 9711 C 932.133 2.3298 0.155795 0
M  V30 9712 C 933.114 1.44678 0.894553 0
M  V30 9713 O 934.299 1.73513 0.872176 0
M  V30 9714 C 931.429 3.26745 1.17708 0
M  V30 9715 C 930.383 4.24401 0.553863 0
M  V30 9716 C 929.709 5.07595 1.68083 0
M  V30 9717 C 931.009 5.19884 -0.501827 0
M  V30 9718 H 932.703 2.94056 -0.563176 0
M  V30 9719 H 930.249 1.41402 -0.27228 0
M  V30 9720 H 932.202 3.85838 1.6943 0
M  V30 9721 H 930.926 2.63753 1.92618 0
M  V30 9722 H 929.585 3.66554 0.057815 0
M  V30 9723 H 929.233 4.40996 2.41933 0
M  V30 9724 H 928.933 5.73722 1.26953 0
M  V30 9725 H 930.457 5.6955 2.20103 0
M  V30 9726 H 931.871 5.73257 -0.0701057 0
M  V30 9727 H 930.268 5.94293 -0.832815 0
M  V30 9728 H 931.338 4.64482 -1.39229 0
M  V30 9729 N 932.681 0.308908 1.54543 0
M  V30 9730 C 934.092 -0.182144 1.85809 0
M  V30 9731 C 934.443 -1.52796 1.23076 0
M  V30 9732 O 933.568 -2.09775 0.531358 0
M  V30 9733 C 934.163 -0.337275 3.37117 0
M  V30 9734 C 932.722 -0.772545 3.68387 0
M  V30 9735 C 931.869 0.114451 2.77064 0
M  V30 9736 H 934.82 0.529671 1.496 0
M  V30 9737 H 934.841 -1.17058 3.62046 0
M  V30 9738 H 934.353 0.642382 3.82747 0
M  V30 9739 H 932.454 -1.76247 3.2828 0
M  V30 9740 H 932.567 -0.586453 4.75497 0
M  V30 9741 H 930.931 -0.407581 2.51418 0
M  V30 9742 H 931.714 1.09061 3.25516 0
M  V30 9743 N 934.159 -1.57557 0.0367827 0
M  V30 9744 C 935.406 -1.92114 -0.640185 0
M  V30 9745 C 935.734 -0.913887 -1.71693 0
M  V30 9746 O 934.989 0.0760343 -1.95552 0
M  V30 9747 C 935.288 -3.33387 -1.28794 0
M  V30 9748 C 934.954 -4.4961 -0.340819 0
M  V30 9749 C 933.616 -4.81133 -0.0801574 0
M  V30 9750 C 935.968 -5.20283 0.309106 0
M  V30 9751 C 933.296 -5.80683 0.838107 0
M  V30 9752 C 935.648 -6.20813 1.21547 0
M  V30 9753 C 934.312 -6.50773 1.48495 0
M  V30 9754 H 933.582 -0.702996 -0.23426 0
M  V30 9755 H 936.229 -1.91238 0.100188 0
M  V30 9756 H 934.534 -3.30561 -2.10324 0
M  V30 9757 H 936.231 -3.57399 -1.81843 0
M  V30 9758 H 932.821 -4.25002 -0.554161 0
M  V30 9759 H 937.005 -4.96153 0.120794 0
M  V30 9760 H 932.261 -6.02238 1.05451 0
M  V30 9761 H 936.435 -6.74692 1.72522 0
M  V30 9762 H 934.062 -7.27727 2.19814 0
M  V30 9763 N 935.637 0.236453 -1.55816 0
M  V30 9764 C 936.6 1.27633 -1.90375 0
M  V30 9765 C 937.6 1.40557 -0.781048 0
M  V30 9766 O 938.79 1.39078 -1.04895 0
M  V30 9767 C 935.922 2.65247 -2.14142 0
M  V30 9768 H 937.115 0.982019 -2.83366 0
M  V30 9769 H 934.668 0.476215 -1.48869 0
M  V30 9770 H 935.403 2.99801 -1.23653 0
M  V30 9771 H 935.188 2.57246 -2.95917 0
M  V30 9772 H 936.678 3.40313 -2.42026 0
M  V30 9773 N 937.115 1.49373 0.502552 0
M  V30 9774 C 938.062 1.65927 1.60427 0
M  V30 9775 C 939.032 0.500768 1.58371 0
M  V30 9776 O 940.217 0.727606 1.76382 0
M  V30 9777 C 937.357 1.73043 2.9858 0
M  V30 9778 C 936.47 3.00187 3.10663 0
M  V30 9779 C 935.605 2.98292 4.3954 0
M  V30 9780 C 934.644 4.20022 4.4525 0
M  V30 9781 N 933.781 4.16046 5.65553 0
M  V30 9782 H 938.621 2.59998 1.45619 0
M  V30 9783 H 936.158 1.28912 0.708519 0
M  V30 9784 H 938.116 1.7515 3.78653 0
M  V30 9785 H 936.746 0.824397 3.12095 0
M  V30 9786 H 935.798 3.07699 2.23663 0
M  V30 9787 H 937.11 3.9018 3.10742 0
M  V30 9788 H 936.264 2.98953 5.27932 0
M  V30 9789 H 935.003 2.06075 4.42023 0
M  V30 9790 H 934.008 4.19607 3.5526 0
M  V30 9791 H 935.233 5.13431 4.44484 0
M  V30 9792 H 933.179 3.26665 5.68881 0
M  V30 9793 H 933.096 4.99773 5.67242 0
M  V30 9794 H 934.364 4.20807 6.56156 0
M  V30 9795 N 938.594 -0.753485 1.38421 0
M  V30 9796 C 939.84 -1.51485 1.34834 0
M  V30 9797 C 940.173 -1.94102 -0.0615381 0
M  V30 9798 O 939.448 -1.65439 -1.02274 0
M  V30 9799 C 939.731 -2.76736 2.30411 0
M  V30 9800 C 939.584 -2.40256 3.80259 0
M  V30 9801 C 940.903 -3.7876 2.24119 0
M  V30 9802 H 938.022 -0.549534 0.491102 0
M  V30 9803 H 940.664 -0.863006 1.6927 0
M  V30 9804 H 938.814 -3.32357 2.01175 0
M  V30 9805 H 940.486 -1.90409 4.20169 0
M  V30 9806 H 938.729 -1.72714 3.97935 0
M  V30 9807 H 939.4 -3.29869 4.42595 0
M  V30 9808 H 941.876 -3.32679 2.49928 0
M  V30 9809 H 940.752 -4.64092 2.93104 0
M  V30 9810 H 941.013 -4.24352 1.24006 0
M  V30 9811 N 940.072 -1.23292 -0.981677 0
M  V30 9812 C 941.32 -1.06214 -1.71939 0
M  V30 9813 C 941.641 0.401989 -1.90812 0
M  V30 9814 O 940.911 1.28825 -1.47584 0
M  V30 9815 H 939.491 -0.390042 -0.637084 0
M  V30 9816 H 942.153 -1.54988 -1.18173 0
M  V30 9817 H 941.249 -1.54904 -2.70945 0
M  V30 9818 N 941.55 1.18024 -1.04442 0
M  V30 9819 C 942.827 1.8398 -0.664125 0
M  V30 9820 C 943.207 1.92961 0.856116 0
M  V30 9821 O 942.555 1.45839 1.75907 0
M  V30 9822 C 942.765 3.22069 -1.34433 0
M  V30 9823 C 944.113 3.98063 -1.47754 0
M  V30 9824 O 945.137 3.31523 -1.30274 0
M  V30 9825 O 943.996 5.17291 -1.76272 0
M  V30 9826 H 941.09 0.793543 -0.23285 0
M  V30 9827 H 943.636 1.25385 -1.14354 0
M  V30 9828 H 942.408 3.10458 -2.38184 0
M  V30 9829 H 942.031 3.88325 -0.853782 0
M  V30 9830 N 943.028 0.824394 1.34319 0
M  V30 9831 C 944.305 0.335692 1.92698 0
M  V30 9832 C 944.685 -1.17715 1.75232 0
M  V30 9833 O 944.033 -1.98493 1.13194 0
M  V30 9834 C 944.243 0.766647 3.40475 0
M  V30 9835 C 945.591 0.766323 4.17627 0
M  V30 9836 O 946.615 0.709321 3.49066 0
M  V30 9837 O 945.474 0.840856 5.39992 0
M  V30 9838 H 942.568 0.0919996 0.821867 0
M  V30 9839 H 945.114 0.909282 1.43283 0
M  V30 9840 H 943.886 1.80859 3.46995 0
M  V30 9841 H 943.509 0.168833 3.97241 0
M  V30 9842 N 944.506 -1.46559 0.579492 0
M  V30 9843 C 945.436 -2.33059 -0.143437 0
M  V30 9844 C 946.417 -1.4515 -0.886868 0
M  V30 9845 O 947.602 -1.73973 -0.862961 0
M  V30 9846 C 944.732 -3.27364 -1.15973 0
M  V30 9847 C 943.686 -4.24689 -0.531348 0
M  V30 9848 C 943.012 -5.08479 -1.65388 0
M  V30 9849 C 944.312 -5.1961 0.529391 0
M  V30 9850 H 946.006 -2.93753 0.578762 0
M  V30 9851 H 943.552 -1.41256 0.279775 0
M  V30 9852 H 945.505 -3.86732 -1.67382 0
M  V30 9853 H 944.229 -2.64771 -1.91217 0
M  V30 9854 H 942.888 -3.6658 -0.0383749 0
M  V30 9855 H 942.536 -4.42273 -2.3959 0
M  V30 9856 H 942.236 -5.74387 -1.23909 0
M  V30 9857 H 943.76 -5.70709 -2.17079 0
M  V30 9858 H 945.174 -5.73212 0.100506 0
M  V30 9859 H 943.571 -5.93843 0.86432 0
M  V30 9860 H 944.641 -4.63737 1.4169 0
M  V30 9861 N 945.984 -0.3171 -1.54377 0
M  V30 9862 C 947.233 0.288271 -1.99629 0
M  V30 9863 C 947.546 1.53754 -1.2091 0
M  V30 9864 O 948.752 2.2185 -1.56508 0
M  V30 9865 C 947.208 0.564188 -3.5545 0
M  V30 9866 C 946.816 -0.667659 -4.42997 0
M  V30 9867 C 948.56 1.12987 -4.09187 0
M  V30 9868 C 946.467 -0.364003 -5.90279 0
M  V30 9869 H 945.397 0.111492 -0.745711 0
M  V30 9870 H 948.048 -0.428317 -1.78431 0
M  V30 9871 H 946.43 1.34079 -3.72611 0
M  V30 9872 H 947.604 -1.44335 -4.37612 0
M  V30 9873 H 945.919 -1.1531 -4.00116 0
M  V30 9874 H 948.516 1.37157 -5.1681 0
M  V30 9875 H 948.859 2.07722 -3.60773 0
M  V30 9876 H 949.392 0.414595 -3.95634 0
M  V30 9877 H 946.131 -1.28035 -6.42874 0
M  V30 9878 H 945.651 0.374102 -5.98632 0
M  V30 9879 H 947.33 0.0285433 -6.46994 0
M  V30 9880 N 947.462 1.57535 -0.0451378 0
M  V30 9881 C 948.395 2.06721 0.96653 0
M  V30 9882 C 949.373 0.966392 1.30766 0
M  V30 9883 O 950.557 1.23789 1.42157 0
M  V30 9884 C 947.684 2.50266 2.2822 0
M  V30 9885 C 946.73 3.71525 2.09455 0
M  V30 9886 S 947.563 5.17453 1.37851 0
M  V30 9887 C 948.719 5.64308 2.70753 0
M  V30 9888 H 948.952 2.92207 0.547911 0
M  V30 9889 H 946.485 1.53494 0.166973 0
M  V30 9890 H 948.443 2.76019 3.03849 0
M  V30 9891 H 947.104 1.65097 2.67211 0
M  V30 9892 H 946.297 3.99894 3.06759 0
M  V30 9893 H 945.899 3.46008 1.41967 0
M  V30 9894 H 948.191 5.69525 3.66943 0
M  V30 9895 H 949.134 6.63613 2.47028 0
M  V30 9896 H 949.542 4.92014 2.76736 0
M  V30 9897 N 948.94 -0.228186 1.55939 0
M  V30 9898 C 950.187 -0.953552 1.78644 0
M  V30 9899 C 950.515 -1.84596 0.61275 0
M  V30 9900 O 949.77 -1.91502 -0.403175 0
M  V30 9901 C 950.069 -1.82924 3.0704 0
M  V30 9902 C 949.735 -1.09062 4.37511 0
M  V30 9903 C 948.397 -0.886565 4.72962 0
M  V30 9904 C 950.749 -0.568533 5.1809 0
M  V30 9905 C 948.077 -0.148413 5.86512 0
M  V30 9906 C 950.429 0.156243 6.32407 0
M  V30 9907 C 949.093 0.371612 6.66465 0
M  V30 9908 H 948.363 -0.348929 0.653704 0
M  V30 9909 H 951.01 -0.222211 1.90206 0
M  V30 9910 H 949.315 -2.62823 2.90571 0
M  V30 9911 H 951.012 -2.3925 3.21808 0
M  V30 9912 H 947.602 -1.25963 4.09672 0
M  V30 9913 H 951.786 -0.713673 4.91142 0
M  V30 9914 H 947.042 0.0287418 6.11393 0
M  V30 9915 H 951.216 0.568333 6.94077 0
M  V30 9916 H 948.843 0.945522 7.54297 0
M  V30 9917 N 950.418 -1.49637 -0.494624 0
M  V30 9918 C 951.666 -1.5913 -1.24587 0
M  V30 9919 C 951.987 -0.282828 -1.92938 0
M  V30 9920 O 951.257 0.69825 -1.83034 0
M  V30 9921 H 949.837 -0.586329 -0.462847 0
M  V30 9922 H 952.499 -1.86296 -0.572696 0
M  V30 9923 H 951.595 -2.3906 -2.00641 0
M  V30 9924 N 951.896 0.746133 -1.38819 0
M  V30 9925 C 953.121 1.54049 -1.38866 0
M  V30 9926 C 953.546 1.88092 0.0176624 0
M  V30 9927 O 952.904 1.51113 1.00173 0
M  V30 9928 C 952.952 2.8116 -2.25791 0
M  V30 9929 O 952.056 3.76623 -1.68014 0
M  V30 9930 H 951.397 0.465648 -0.473359 0
M  V30 9931 H 953.927 0.921469 -1.82675 0
M  V30 9932 H 953.937 3.30009 -2.39913 0
M  V30 9933 H 952.612 2.55713 -3.27999 0
M  V30 9934 H 951.189 3.35352 -1.63074 0
M  V30 9935 N 953.375 1.23811 0.975125 0
M  V30 9936 C 954.285 1.0408 2.10249 0
M  V30 9937 C 955.301 -0.0162404 1.73992 0
M  V30 9938 O 956.477 0.180346 2.00591 0
M  V30 9939 C 953.542 0.640013 3.40741 0
M  V30 9940 C 952.603 1.7727 3.90991 0
M  V30 9941 C 951.836 1.39094 5.15256 0
M  V30 9942 O 952.059 0.277483 5.69725 0
M  V30 9943 O 950.993 2.21392 5.59704 0
M  V30 9944 H 954.819 1.98575 2.29786 0
M  V30 9945 H 952.404 1.02563 1.08633 0
M  V30 9946 H 954.286 0.427684 4.19224 0
M  V30 9947 H 952.961 -0.27589 3.22522 0
M  V30 9948 H 951.868 2.03971 3.13602 0
M  V30 9949 H 953.201 2.66711 4.13674 0
M  V30 9950 N 954.853 -1.17469 1.05066 0
M  V30 9951 C 956.269 -1.39699 0.771769 0
M  V30 9952 C 956.469 -1.91253 -0.634382 0
M  V30 9953 O 955.525 -2.10334 -1.39699 0
M  V30 9954 C 956.838 -2.38886 1.82631 0
M  V30 9955 C 958.386 -2.52595 1.84838 0
M  V30 9956 C 958.861 -3.55054 2.89311 0
M  V30 9957 N 960.352 -3.6257 2.88266 0
M  V30 9958 C 961.087 -4.41603 3.65752 0
M  V30 9959 N 960.583 -5.24162 4.53019 0
M  V30 9960 N 962.376 -4.36464 3.54197 0
M  V30 9961 H 954.527 -0.823355 1.95792 0
M  V30 9962 H 956.79 -0.42432 0.847736 0
M  V30 9963 H 956.496 -2.08075 2.83545 0
M  V30 9964 H 956.37 -3.38371 1.66687 0
M  V30 9965 H 958.757 -2.82717 0.845888 0
M  V30 9966 H 958.838 -1.53188 2.04859 0
M  V30 9967 H 958.482 -3.2567 3.89745 0
M  V30 9968 H 958.412 -4.54162 2.66542 0
M  V30 9969 H 960.903 -3.03625 2.24989 0
M  V30 9970 H 961.216 -5.81646 5.0883 0
M  V30 9971 H 959.561 -5.23547 4.57081 0
M  V30 9972 H 962.752 -3.7102 2.85416 0
M  V30 9973 H 962.925 -4.97814 4.14832 0
M  V30 9974 N 956.331 -0.831506 -1.3388 0
M  V30 9975 C 957.294 -0.264773 -2.27666 0
M  V30 9976 C 958.294 0.562273 -1.50649 0
M  V30 9977 O 959.484 0.377131 -1.70069 0
M  V30 9978 C 956.616 0.627814 -3.35069 0
M  V30 9979 H 957.809 -1.09225 -2.79303 0
M  V30 9980 H 955.362 -0.604021 -1.44157 0
M  V30 9981 H 956.097 1.47802 -2.88661 0
M  V30 9982 H 955.882 0.0361552 -3.92083 0
M  V30 9983 H 957.372 1.01786 -4.05005 0
M  V30 9984 N 957.809 1.4625 -0.587256 0
M  V30 9985 C 958.719 2.34147 0.145744 0
M  V30 9986 C 959.735 1.50026 0.881376 0
M  V30 9987 O 960.911 1.82884 0.843539 0
M  V30 9988 C 957.976 3.27294 1.14366 0
M  V30 9989 C 957.037 4.27317 0.412199 0
M  V30 9990 C 956.27 5.16013 1.36257 0
M  V30 9991 O 956.493 5.0773 2.59934 0
M  V30 9992 O 955.427 5.95569 0.870681 0
M  V30 9993 H 959.253 2.98187 -0.576055 0
M  V30 9994 H 956.838 1.45299 -0.347628 0
M  V30 9995 H 958.72 3.84747 1.71894 0
M  V30 9996 H 957.395 2.65845 1.84684 0
M  V30 9997 H 956.302 3.73538 -0.205036 0
M  V30 9998 H 957.635 4.91564 -0.250104 0
M  V30 9999 N 959.287 0.325282 1.54207 0
M  V30 10000 C 960.235 -0.5554 2.25872 0
M  V30 10001 C 961.229 -1.11714 1.27344 0
M  V30 10002 O 962.435 -1.06498 1.45115 0
M  V30 10003 H 958.81 -0.19776 0.725531 0
M  V30 10004 H 960.781 0.0712858 2.98315 0
M  V30 10005 C 959.53 -1.70379 3.03095 0
M  V30 10006 H 958.853 -1.2808 3.78729 0
M  V30 10007 H 960.293 -2.29556 3.56483 0
M  V30 10008 C 958.752 -2.62242 2.11496 0
M  V30 10009 O 959.282 -3.64003 1.69895 0
M  V30 10010 N 957.488 -2.30515 1.7695 0
M  V30 10011 H 957.035 -1.47805 2.10978 0
M  V30 10012 H 956.993 -2.92241 1.15942 0
M  V30 10013 N 960.765 -1.57509 0.0534917 0
M  V30 10014 C 961.675 -2.15152 -0.935249 0
M  V30 10015 C 962.691 -1.10991 -1.34003 0
M  V30 10016 O 963.867 -1.43171 -1.41648 0
M  V30 10017 C 960.932 -2.68699 -2.19093 0
M  V30 10018 C 959.993 -3.87666 -1.84428 0
M  V30 10019 C 959.226 -4.3865 -3.0401 0
M  V30 10020 O 959.449 -3.887 -4.17455 0
M  V30 10021 O 958.383 -5.30209 -2.84889 0
M  V30 10022 H 962.209 -2.99962 -0.475009 0
M  V30 10023 H 959.794 -1.48446 -0.16854 0
M  V30 10024 H 961.676 -3.03098 -2.92762 0
M  V30 10025 H 960.351 -1.86958 -2.6425 0
M  V30 10026 H 959.258 -3.58151 -1.08068 0
M  V30 10027 H 960.591 -4.70643 -1.44068 0
M  V30 10028 N 962.243 0.219913 -1.56058 0
M  V30 10029 C 963.489 0.941055 -1.80321 0
M  V30 10030 C 963.844 1.81906 -0.626735 0
M  V30 10031 O 963.137 1.87811 0.379147 0
M  V30 10032 C 963.331 1.81293 -3.08006 0
M  V30 10033 C 963.16 1.02082 -4.37961 0
M  V30 10034 C 961.93 0.715096 -5.00214 0
M  V30 10035 C 964.128 0.385342 -5.12854 0
M  V30 10036 N 962.11 -0.098246 -6.13821 0
M  V30 10037 C 963.481 -0.291319 -6.19315 0
M  V30 10038 C 965.536 0.29854 -4.97004 0
M  V30 10039 C 964.239 -1.04648 -7.11647 0
M  V30 10040 C 966.265 -0.443159 -5.89737 0
M  V30 10041 C 965.627 -1.10836 -6.95625 0
M  V30 10042 H 961.726 0.324568 -0.711463 0
M  V30 10043 H 964.31 0.211795 -1.93545 0
M  V30 10044 H 962.481 2.51399 -2.96063 0
M  V30 10045 H 964.213 2.47167 -3.20454 0
M  V30 10046 H 960.968 1.03352 -4.62185 0
M  V30 10047 H 961.392 -0.4938 -6.75197 0
M  V30 10048 H 966.034 0.798478 -4.15192 0
M  V30 10049 H 963.752 -1.55793 -7.9294 0
M  V30 10050 H 967.338 -0.511348 -5.79549 0
M  V30 10051 H 966.218 -1.6731 -7.66144 0
M  V30 10052 N 963.721 1.49897 0.486681 0
M  V30 10053 C 964.631 1.70379 1.6127 0
M  V30 10054 C 965.647 0.58659 1.63814 0
M  V30 10055 O 966.823 0.863044 1.81971 0
M  V30 10056 C 963.888 1.77911 2.97571 0
M  V30 10057 C 962.949 3.01569 3.0554 0
M  V30 10058 C 962.182 3.08732 4.35339 0
M  V30 10059 O 962.405 2.23099 5.2496 0
M  V30 10060 O 961.339 4.01325 4.48578 0
M  V30 10061 H 965.165 2.65799 1.46916 0
M  V30 10062 H 962.75 1.33808 0.664516 0
M  V30 10063 H 964.632 1.85135 3.78554 0
M  V30 10064 H 963.307 0.856722 3.12157 0
M  V30 10065 H 962.214 2.99854 2.23693 0
M  V30 10066 H 963.547 3.93335 2.95886 0
M  V30 10067 N 965.199 -0.738761 1.39212 0
M  V30 10068 C 966.162 -1.83441 1.37412 0
M  V30 10069 C 967.162 -1.58484 0.271908 0
M  V30 10070 O 968.352 -1.65954 0.529609 0
M  V30 10071 C 965.484 -3.21167 1.143 0
M  V30 10072 H 966.677 -1.86441 2.34904 0
M  V30 10073 H 964.23 -0.942023 1.24722 0
M  V30 10074 H 964.965 -3.23829 0.174756 0
M  V30 10075 H 964.75 -3.40678 1.94116 0
M  V30 10076 H 966.24 -4.01231 1.15773 0
M  V30 10077 N 966.677 -1.24326 -0.968545 0
M  V30 10078 C 967.925 -1.08032 -1.70803 0
M  V30 10079 C 968.246 0.381728 -1.91227 0
M  V30 10080 O 967.516 1.27253 -1.48942 0
M  V30 10081 H 966.096 -0.396777 -0.632912 0
M  V30 10082 H 968.758 -1.56232 -1.16523 0
M  V30 10083 H 967.854 -1.57769 -2.69287 0
M  V30 10084 N 968.156 1.1691 -1.05688 0
M  V30 10085 C 969.119 2.19297 -0.666433 0
M  V30 10086 C 970.119 1.5826 0.284674 0
M  V30 10087 O 971.309 1.74068 0.0678757 0
M  V30 10088 C 968.441 3.40894 0.0203656 0
M  V30 10089 H 969.634 2.55354 -1.57272 0
M  V30 10090 H 967.187 1.31078 -0.851359 0
M  V30 10091 H 967.922 3.10388 0.939686 0
M  V30 10092 H 967.707 3.86446 -0.663464 0
M  V30 10093 H 969.197 4.16664 0.279475 0
M  V30 10094 N 969.634 0.838594 1.33437 0
M  V30 10095 C 971.045 0.490934 1.8013 0
M  V30 10096 C 971.396 -0.990024 1.6939 0
M  V30 10097 O 970.521 -1.77139 1.24302 0
M  V30 10098 C 971.116 0.884347 3.27055 0
M  V30 10099 C 969.675 0.588829 3.71766 0
M  V30 10100 C 968.822 1.09282 2.54858 0
M  V30 10101 H 971.773 1.02732 1.20962 0
M  V30 10102 H 971.794 0.194283 3.80004 0
M  V30 10103 H 971.306 1.96225 3.34839 0
M  V30 10104 H 969.407 -0.479018 3.69508 0
M  V30 10105 H 969.52 1.14387 4.65245 0
M  V30 10106 H 967.884 0.513702 2.49466 0
M  V30 10107 H 968.667 2.1775 2.65405 0
M  V30 10108 N 971.112 -1.45937 0.595003 0
M  V30 10109 C 972.389 -1.95592 0.0178748 0
M  V30 10110 C 972.769 -1.53758 -1.44643 0
M  V30 10111 O 972.117 -0.794104 -2.14257 0
M  V30 10112 C 972.327 -3.4841 0.202789 0
M  V30 10113 C 973.675 -4.2453 0.0770121 0
M  V30 10114 O 974.699 -3.55954 0.132257 0
M  V30 10115 O 973.558 -5.46479 -0.0484271 0
M  V30 10116 H 970.652 -0.825888 -0.0428702 0
M  V30 10117 H 973.198 -1.56162 0.664184 0
M  V30 10118 H 971.97 -3.71787 1.22027 0
M  V30 10119 H 971.593 -3.947 -0.479376 0
M  V30 10120 N 972.59 -0.333456 -1.54032 0
M  V30 10121 C 973.867 0.320902 -1.9295 0
M  V30 10122 C 974.247 1.69071 -1.26405 0
M  V30 10123 O 973.595 2.24768 -0.411311 0
M  V30 10124 C 973.805 0.403257 -3.46662 0
M  V30 10125 C 975.153 0.658875 -4.19457 0
M  V30 10126 O 976.177 0.485781 -3.52872 0
M  V30 10127 O 975.036 0.993475 -5.37394 0
M  V30 10128 H 972.13 0.185158 -0.806006 0
M  V30 10129 H 974.676 -0.383895 -1.65301 0
M  V30 10130 H 973.448 -0.558409 -3.87295 0
M  V30 10131 H 973.071 1.15524 -3.80447 0
M  V30 10132 N 974.068 1.57479 -0.061844 0
M  V30 10133 C 975.484 1.56855 0.294753 0
M  V30 10134 C 975.684 1.07042 1.70717 0
M  V30 10135 O 974.74 0.731817 2.41662 0
M  V30 10136 C 976.053 3.00486 0.113484 0
M  V30 10137 C 977.601 3.1246 0.183778 0
M  V30 10138 C 978.076 4.5799 0.0309092 0
M  V30 10139 N 979.567 4.63119 0.0868393 0
M  V30 10140 C 980.302 5.734 -0.00717446 0
M  V30 10141 N 979.798 6.92628 -0.154144 0
M  V30 10142 N 981.591 5.62078 0.0491763 0
M  V30 10143 H 973.742 1.88176 -0.985058 0
M  V30 10144 H 976.005 0.867051 -0.383309 0
M  V30 10145 H 975.711 3.41004 -0.86075 0
M  V30 10146 H 975.585 3.67029 0.870023 0
M  V30 10147 H 977.972 2.71834 1.14849 0
M  V30 10148 H 978.053 2.48574 -0.603697 0
M  V30 10149 H 977.697 4.99303 -0.930526 0
M  V30 10150 H 977.627 5.19895 0.837664 0
M  V30 10151 H 980.118 3.77374 0.199245 0
M  V30 10152 H 980.431 7.72492 -0.218296 0
M  V30 10153 H 978.776 6.94742 -0.189372 0
M  V30 10154 H 981.967 4.67817 0.162626 0
M  V30 10155 H 982.14 6.47994 -0.0275478 0
M  V30 10156 N 975.546 -0.211634 1.56173 0
M  V30 10157 C 976.776 -0.949805 1.83473 0
M  V30 10158 C 977.184 -1.78045 0.640053 0
M  V30 10159 O 976.527 -1.79277 -0.400702 0
M  V30 10160 C 976.589 -1.90868 3.04647 0
M  V30 10161 C 976.253 -1.26159 4.39241 0
M  V30 10162 C 977.25 -0.646597 5.15863 0
M  V30 10163 C 974.935 -1.27039 4.85969 0
M  V30 10164 C 976.929 -0.0490313 6.37381 0
M  V30 10165 C 974.616 -0.668987 6.07427 0
M  V30 10166 C 975.614 -0.0593687 6.82974 0
M  V30 10167 O 975.302 0.532656 8.02133 0
M  V30 10168 H 975.034 -0.283458 0.6137 0
M  V30 10169 H 977.588 -0.22894 2.0412 0
M  V30 10170 H 975.818 -2.6688 2.79843 0
M  V30 10171 H 977.507 -2.51323 3.18734 0
M  V30 10172 H 978.273 -0.632056 4.80864 0
M  V30 10173 H 974.152 -1.73429 4.27134 0
M  V30 10174 H 977.696 0.427414 6.96289 0
M  V30 10175 H 973.593 -0.680975 6.41898 0
M  V30 10176 H 974.361 0.427942 8.17381 0
M  V30 10177 N 977.024 -1.50153 -0.478725 0
M  V30 10178 C 977.971 -1.68458 -1.57767 0
M  V30 10179 C 978.941 -0.5259 -1.57555 0
M  V30 10180 O 980.126 -0.755574 -1.75202 0
M  V30 10181 C 977.266 -1.77772 -2.95789 0
M  V30 10182 C 976.379 -3.05092 -3.05848 0
M  V30 10183 C 975.514 -3.05247 -4.34739 0
M  V30 10184 C 974.553 -4.27053 -4.38512 0
M  V30 10185 N 973.69 -4.24991 -5.58862 0
M  V30 10186 H 978.53 -2.62282 -1.41464 0
M  V30 10187 H 976.067 -1.30023 -0.687921 0
M  V30 10188 H 978.025 -1.81152 -3.75819 0
M  V30 10189 H 976.655 -0.873944 -3.10744 0
M  V30 10190 H 975.707 -3.11219 -2.1874 0
M  V30 10191 H 977.019 -3.95075 -3.04495 0
M  V30 10192 H 976.173 -3.07314 -5.23109 0
M  V30 10193 H 974.912 -2.13081 -4.38689 0
M  V30 10194 H 973.917 -4.25206 -3.4854 0
M  V30 10195 H 975.142 -5.20437 -4.36259 0
M  V30 10196 H 973.088 -3.35674 -5.63612 0
M  V30 10197 H 973.005 -5.08734 -5.59219 0
M  V30 10198 H 974.273 -4.31193 -6.49379 0
M  V30 10199 N 978.502 0.731368 -1.39602 0
M  V30 10200 C 979.465 1.8271 -1.38383 0
M  V30 10201 C 980.465 1.58338 -0.280309 0
M  V30 10202 O 981.655 1.65671 -0.538402 0
M  V30 10203 C 978.787 3.20556 -1.16002 0
M  V30 10204 H 979.98 1.85193 -2.35889 0
M  V30 10205 H 977.533 0.935396 -1.2522 0
M  V30 10206 H 978.268 3.23732 -0.191927 0
M  V30 10207 H 978.053 3.39643 -1.9592 0
M  V30 10208 H 979.543 4.00612 -1.17899 0
M  V30 10209 N 979.98 1.24838 0.961938 0
M  V30 10210 C 981.205 1.11967 1.7458 0
M  V30 10211 C 981.63 -0.323287 1.85301 0
M  V30 10212 O 980.988 -1.23412 1.32812 0
M  V30 10213 C 981.036 1.77066 3.14134 0
M  V30 10214 O 980.14 1.04534 3.98932 0
M  V30 10215 H 979.481 0.391338 0.536424 0
M  V30 10216 H 982.011 1.65259 1.20626 0
M  V30 10217 H 982.021 1.83056 3.64629 0
M  V30 10218 H 980.696 2.82052 3.05646 0
M  V30 10219 H 979.273 1.06372 3.57407 0
M  V30 10220 N 981.458 -1.16348 1.06306 0
M  V30 10221 C 982.688 -1.90505 0.799453 0
M  V30 10222 C 983.096 -1.77686 -0.649955 0
M  V30 10223 O 982.439 -1.11921 -1.45669 0
M  V30 10224 C 982.501 -3.41775 1.11492 0
M  V30 10225 C 982.165 -3.7838 2.56277 0
M  V30 10226 C 983.162 -3.80288 3.54509 0
M  V30 10227 C 980.847 -4.09007 2.9158 0
M  V30 10228 C 982.841 -4.12312 4.86084 0
M  V30 10229 C 980.528 -4.40697 4.23354 0
M  V30 10230 C 981.526 -4.4233 5.20416 0
M  V30 10231 O 981.214 -4.73267 6.49826 0
M  V30 10232 H 980.946 -0.61094 0.289359 0
M  V30 10233 H 983.5 -1.48409 1.41999 0
M  V30 10234 H 981.73 -3.84219 0.437306 0
M  V30 10235 H 983.419 -3.97207 0.835533 0
M  V30 10236 H 984.185 -3.56738 3.28577 0
M  V30 10237 H 980.064 -4.06901 2.16686 0
M  V30 10238 H 983.608 -4.13501 5.61838 0
M  V30 10239 H 979.505 -4.63713 4.49044 0
M  V30 10240 H 980.273 -4.91078 6.54817 0
M  V30 10241 N 982.937 -0.845659 -1.3299 0
M  V30 10242 C 984.348 -0.50048 -1.79867 0
M  V30 10243 C 984.699 0.981027 -1.69913 0
M  V30 10244 O 983.824 1.76477 -1.25239 0
M  V30 10245 C 984.419 -0.901679 -3.26581 0
M  V30 10246 C 982.978 -0.608536 -3.71448 0
M  V30 10247 C 982.125 -1.10632 -2.54275 0
M  V30 10248 H 985.076 -1.03372 -1.20416 0
M  V30 10249 H 985.097 -0.214433 -3.79895 0
M  V30 10250 H 984.609 -1.97998 -3.33794 0
M  V30 10251 H 982.71 0.459416 -3.69757 0
M  V30 10252 H 982.823 -1.16853 -4.64631 0
M  V30 10253 H 981.187 -0.526925 -2.4919 0
M  V30 10254 H 981.97 -2.19154 -2.64247 0
M  V30 10255 N 984.415 1.45619 -0.602734 0
M  V30 10256 C 985.831 1.57368 -0.26599 0
M  V30 10257 C 986.031 1.59485 1.23154 0
M  V30 10258 O 985.087 1.52254 2.01432 0
M  V30 10259 C 986.4 2.85863 -0.932881 0
M  V30 10260 C 987.948 2.9953 -0.908344 0
M  V30 10261 C 988.423 4.30789 -1.55515 0
M  V30 10262 N 989.914 4.37536 -1.52042 0
M  V30 10263 C 990.649 5.37758 -1.99008 0
M  V30 10264 N 990.145 6.44544 -2.54038 0
M  V30 10265 N 991.938 5.29085 -1.89805 0
M  V30 10266 H 984.089 1.42489 -1.57514 0
M  V30 10267 H 986.352 0.680948 -0.659556 0
M  V30 10268 H 986.058 2.90183 -1.98713 0
M  V30 10269 H 985.932 3.74467 -0.453209 0
M  V30 10270 H 988.319 2.9478 0.137344 0
M  V30 10271 H 988.4 2.12349 -1.42623 0
M  V30 10272 H 988.044 4.36297 -2.60014 0
M  V30 10273 H 987.974 5.16778 -1.01232 0
M  V30 10274 H 990.465 3.60972 -1.11837 0
M  V30 10275 H 990.778 7.17258 -2.87682 0
M  V30 10276 H 989.123 6.45308 -2.58075 0
M  V30 10277 H 992.314 4.44566 -1.46556 0
M  V30 10278 H 992.487 6.07043 -2.26722 0
M  V30 10279 N 985.893 0.34162 1.53853 0
M  V30 10280 C 987.121 -0.256929 2.05299 0
M  V30 10281 C 987.536 -1.44366 1.21671 0
M  V30 10282 O 986.893 -1.80758 0.251584 0
M  V30 10283 C 986.944 -0.673854 3.55164 0
M  V30 10284 O 986.665 0.465687 4.35618 0
M  V30 10285 C 988.166 -1.33332 4.22773 0
M  V30 10286 H 985.386 -0.0499445 0.669139 0
M  V30 10287 H 987.93 0.493048 1.98467 0
M  V30 10288 H 986.085 -1.37378 3.62224 0
M  V30 10289 H 986.499 0.133723 5.2433 0
M  V30 10290 H 987.973 -1.57582 5.29029 0
M  V30 10291 H 988.45 -2.28628 3.75001 0
M  V30 10292 H 989.056 -0.675489 4.19901 0
M  V30 10293 N 987.371 -1.57444 0.0701946 0
M  V30 10294 C 988.618 -1.93429 -0.59929 0
M  V30 10295 C 988.946 -0.9501 -1.69715 0
M  V30 10296 O 988.201 0.0345377 -1.9567 0
M  V30 10297 C 988.5 -3.36044 -1.21694 0
M  V30 10298 C 988.166 -4.50232 -0.245374 0
M  V30 10299 C 986.828 -4.81195 0.0219161 0
M  V30 10300 C 989.18 -5.1951 0.419396 0
M  V30 10301 C 986.508 -5.78775 0.96109 0
M  V30 10302 C 988.86 -6.18095 1.34688 0
M  V30 10303 C 987.524 -6.47477 1.62265 0
M  V30 10304 H 986.794 -0.707807 -0.219296 0
M  V30 10305 H 989.441 -1.90982 0.14073 0
M  V30 10306 H 987.746 -3.34948 -2.03265 0
M  V30 10307 H 989.443 -3.61176 -1.74221 0
M  V30 10308 H 986.033 -4.26082 -0.463887 0
M  V30 10309 H 990.217 -4.95785 0.226009 0
M  V30 10310 H 985.473 -5.99865 1.18202 0
M  V30 10311 H 989.647 -6.7088 1.86795 0
M  V30 10312 H 987.274 -7.229 2.352 0
M  V30 10313 N 988.849 0.203349 -1.56283 0
M  V30 10314 C 990.079 0.940061 -1.83974 0
M  V30 10315 C 990.487 1.77703 -0.649486 0
M  V30 10316 O 989.83 1.79487 0.391189 0
M  V30 10317 C 989.892 1.89249 -3.05655 0
M  V30 10318 C 989.556 1.23828 -4.39904 0
M  V30 10319 C 990.553 0.619231 -5.16199 0
M  V30 10320 C 988.238 1.2446 -4.86636 0
M  V30 10321 C 990.232 0.0152287 -6.37398 0
M  V30 10322 C 987.919 0.636764 -6.07773 0
M  V30 10323 C 988.917 0.0231481 -6.82996 0
M  V30 10324 O 988.605 -0.575187 -8.0184 0
M  V30 10325 H 988.337 0.280199 -0.615194 0
M  V30 10326 H 990.891 0.218111 -2.04239 0
M  V30 10327 H 989.121 2.65392 -2.81254 0
M  V30 10328 H 990.81 2.4963 -3.20062 0
M  V30 10329 H 991.576 0.606545 -4.81192 0
M  V30 10330 H 987.455 1.71161 -4.28048 0
M  V30 10331 H 990.999 -0.464333 -6.96053 0
M  V30 10332 H 986.896 0.646924 -6.4225 0
M  V30 10333 H 987.664 -0.471284 -8.17142 0
M  V30 10334 N 990.327 1.50405 0.470755 0
M  V30 10335 C 991.29 1.68741 1.5511 0
M  V30 10336 C 992.29 0.558116 1.50804 0
M  V30 10337 O 993.48 0.825149 1.53418 0
M  V30 10338 C 990.612 1.71295 2.94739 0
M  V30 10339 H 991.805 2.65127 1.40169 0
M  V30 10340 H 989.358 1.39891 0.697156 0
M  V30 10341 H 990.093 0.766029 3.15123 0
M  V30 10342 H 989.878 2.53336 2.99271 0
M  V30 10343 H 991.368 1.87434 3.73173 0
M  V30 10344 N 991.805 -0.723954 1.39988 0
M  V30 10345 C 993.221 -1.03095 1.21834 0
M  V30 10346 C 993.421 -2.01309 0.0876647 0
M  V30 10347 O 992.477 -2.46277 -0.55714 0
M  V30 10348 C 993.79 -1.58267 2.5568 0
M  V30 10349 C 995.338 -1.70293 2.6262 0
M  V30 10350 C 995.813 -2.28872 3.96713 0
M  V30 10351 N 997.304 -2.36269 3.98411 0
M  V30 10352 C 998.039 -2.82557 4.98948 0
M  V30 10353 N 997.535 -3.28661 6.0988 0
M  V30 10354 N 999.328 -2.81866 4.86321 0
M  V30 10355 H 991.479 -0.0727891 2.12275 0
M  V30 10356 H 993.742 -0.0949029 0.943238 0
M  V30 10357 H 993.448 -0.935642 3.39026 0
M  V30 10358 H 993.322 -2.56914 2.76179 0
M  V30 10359 H 995.709 -2.34115 1.7965 0
M  V30 10360 H 995.79 -0.70268 2.45959 0
M  V30 10361 H 995.434 -1.65675 4.80119 0
M  V30 10362 H 995.364 -3.29595 4.107 0
M  V30 10363 H 997.855 -2.03697 3.18302 0
M  V30 10364 H 998.168 -3.62524 6.82493 0
M  V30 10365 H 996.513 -3.26641 6.13458 0
M  V30 10366 H 999.704 -2.45179 3.98754 0
M  V30 10367 H 999.877 -3.17626 5.64817 0
M  V30 10368 N 993.283 -1.25346 -0.955304 0
M  V30 10369 C 994.213 -1.08152 -2.06943 0
M  V30 10370 C 995.194 0.00922598 -1.70097 0
M  V30 10371 O 996.379 -0.160181 -1.93538 0
M  V30 10372 C 993.509 -0.698745 -3.40198 0
M  V30 10373 C 992.463 -1.73965 -3.9105 0
M  V30 10374 C 991.789 -1.21158 -5.20792 0
M  V30 10375 C 993.089 -3.13829 -4.17503 0
M  V30 10376 H 994.783 -2.01345 -2.21586 0
M  V30 10377 H 992.329 -0.969459 -1.06478 0
M  V30 10378 H 994.282 -0.565394 -4.1759 0
M  V30 10379 H 993.006 0.268892 -3.25491 0
M  V30 10380 H 991.665 -1.86143 -3.15827 0
M  V30 10381 H 991.313 -0.234193 -5.02455 0
M  V30 10382 H 991.013 -1.90728 -5.55785 0
M  V30 10383 H 992.537 -1.09061 -6.00781 0
M  V30 10384 H 993.951 -3.04809 -4.85556 0
M  V30 10385 H 992.348 -3.80863 -4.63749 0
M  V30 10386 H 993.418 -3.6094 -3.23806 0
M  V30 10387 N 994.761 1.15782 -1.06922 0
M  V30 10388 C 995.709 2.22441 -0.679893 0
M  V30 10389 C 996.703 1.66591 0.307221 0
M  V30 10390 O 997.909 1.79182 0.171402 0
M  V30 10391 H 994.284 0.724427 -0.201765 0
M  V30 10392 H 996.255 2.52562 -1.58918 0
M  V30 10393 C 995.004 3.47586 -0.0891142 0
M  V30 10394 H 994.327 3.9088 -0.839805 0
M  V30 10395 H 995.767 4.2375 0.14569 0
M  V30 10396 C 994.226 3.15967 1.16903 0
M  V30 10397 O 994.756 3.32359 2.25611 0
M  V30 10398 N 992.962 2.70046 1.07349 0
M  V30 10399 H 992.509 2.56907 0.188825 0
M  V30 10400 H 992.467 2.49264 1.91611 0
M  V30 10401 N 996.239 0.8527 1.3254 0
M  V30 10402 C 997.485 0.455798 1.97612 0
M  V30 10403 C 997.818 -0.985616 1.6733 0
M  V30 10404 O 997.093 -1.69129 0.960493 0
M  V30 10405 C 997.376 0.69312 3.53366 0
M  V30 10406 C 997.229 2.18281 3.93285 0
M  V30 10407 C 998.548 0.148236 4.3985 0
M  V30 10408 H 995.667 0.167078 0.717812 0
M  V30 10409 H 998.309 1.07076 1.56954 0
M  V30 10410 H 996.459 0.169677 3.88129 0
M  V30 10411 H 998.131 2.77218 3.68711 0
M  V30 10412 H 996.374 2.66206 3.42515 0
M  V30 10413 H 997.045 2.29957 5.01821 0
M  V30 10414 H 999.521 0.595834 4.11812 0
M  V30 10415 H 998.397 0.343873 5.47822 0
M  V30 10416 H 998.658 -0.948872 4.31797 0
M  V30 10417 N 997.718 -1.45297 0.610449 0
M  V30 10418 C 998.666 -2.32295 -0.119167 0
M  V30 10419 C 999.66 -1.46138 -0.856746 0
M  V30 10420 O 1000.87 -1.62605 -0.771988 0
M  V30 10421 H 997.241 -0.749815 -0.0572881 0
M  V30 10422 H 999.212 -2.91609 0.63297 0
M  V30 10423 C 997.961 -3.29802 -1.10119 0
M  V30 10424 H 997.284 -3.96095 -0.543063 0
M  V30 10425 H 998.724 -3.93398 -1.58158 0
M  V30 10426 C 997.183 -2.57185 -2.17617 0
M  V30 10427 O 997.713 -2.35535 -3.25401 0
M  V30 10428 N 995.919 -2.17272 -1.9298 0
M  V30 10429 H 995.466 -2.3508 -1.05334 0
M  V30 10430 H 995.424 -1.69009 -2.6511 0
M  V30 10431 N 999.196 -0.349774 -1.5367 0
M  V30 10432 C 1000.14 0.519396 -2.26727 0
M  V30 10433 C 1001.14 1.09673 -1.29105 0
M  V30 10434 O 1002.34 1.04176 -1.46791 0
M  V30 10435 H 998.719 0.186192 -0.728585 0
M  V30 10436 H 1000.69 -0.118736 -2.98164 0
M  V30 10437 C 999.439 1.65535 -3.05767 0
M  V30 10438 H 998.762 1.22038 -3.80719 0
M  V30 10439 H 1000.2 2.23856 -3.6009 0
M  V30 10440 C 998.661 2.58844 -2.15642 0
M  V30 10441 O 999.191 3.61254 -1.75665 0
M  V30 10442 N 997.397 2.27671 -1.80595 0
M  V30 10443 H 996.944 1.44429 -2.13302 0
M  V30 10444 H 996.902 2.90359 -1.20577 0
M  V30 10445 N 1000.67 1.57404 -0.0785433 0
M  V30 10446 C 1001.92 1.9484 0.583853 0
M  V30 10447 C 1002.27 0.958758 1.6681 0
M  V30 10448 O 1001.57 -0.0179065 1.91592 0
M  V30 10449 C 1001.76 3.36684 1.1991 0
M  V30 10450 C 1001.59 4.49356 0.175978 0
M  V30 10451 C 1000.36 5.04721 -0.241733 0
M  V30 10452 C 1002.56 5.10911 -0.589415 0
M  V30 10453 N 1000.54 6.00938 -1.25485 0
M  V30 10454 C 1001.91 6.0269 -1.45483 0
M  V30 10455 C 1003.97 4.93708 -0.644746 0
M  V30 10456 C 1002.67 6.79111 -2.37066 0
M  V30 10457 C 1004.7 5.70778 -1.54812 0
M  V30 10458 C 1004.06 6.6221 -2.40119 0
M  V30 10459 H 1000.16 0.75993 0.184472 0
M  V30 10460 H 1002.74 1.94064 -0.157259 0
M  V30 10461 H 1000.91 3.38186 1.91011 0
M  V30 10462 H 1002.64 3.6134 1.82251 0
M  V30 10463 H 999.399 4.73385 0.142732 0
M  V30 10464 H 999.823 6.53746 -1.75912 0
M  V30 10465 H 1004.46 4.228 0.000601434 0
M  V30 10466 H 1002.18 7.49292 -3.02634 0
M  V30 10467 H 1005.77 5.59485 -1.59586 0
M  V30 10468 H 1004.65 7.20804 -3.08887 0
M  V30 10469 N 1002.15 -0.195058 1.56388 0
M  V30 10470 C 1003.1 -1.26122 1.95438 0
M  V30 10471 C 1004.09 -1.47117 0.839818 0
M  V30 10472 O 1005.3 -1.47978 1.02482 0
M  V30 10473 H 1001.67 -0.423422 0.621464 0
M  V30 10474 H 1003.65 -0.904854 2.8435 0
M  V30 10475 C 1002.39 -2.59858 2.31017 0
M  V30 10476 H 1001.72 -2.44519 3.16308 0
M  V30 10477 H 1003.16 -3.33205 2.62203 0
M  V30 10478 C 1001.62 -3.16853 1.14481 0
M  V30 10479 O 1002.15 -3.995 0.419853 0
M  V30 10480 N 1000.35 -2.75599 0.921604 0
M  V30 10481 H 999.9 -2.08495 1.51287 0
M  V30 10482 H 999.858 -3.14072 0.143663 0
M  V30 10483 N 1003.63 -1.50653 -0.462772 0
M  V30 10484 C 1004.59 -1.69561 -1.54213 0
M  V30 10485 C 1005.59 -0.566106 -1.50505 0
M  V30 10486 O 1006.78 -0.833273 -1.52978 0
M  V30 10487 C 1003.91 -1.72856 -2.93826 0
M  V30 10488 H 1005.11 -2.65867 -1.38761 0
M  V30 10489 H 1002.66 -1.40259 -0.689728 0
M  V30 10490 H 1003.4 -0.78273 -3.14712 0
M  V30 10491 H 1003.18 -2.54919 -2.97924 0
M  V30 10492 H 1004.67 -1.89411 -3.72174 0
M  V30 10493 N 1005.11 0.71652 -1.4037 0
M  V30 10494 C 1006.39 1.46947 -1.29097 0
M  V30 10495 C 1006.77 2.10903 0.0911182 0
M  V30 10496 O 1006.11 2.00068 1.10385 0
M  V30 10497 C 1006.32 2.50594 -2.42907 0
M  V30 10498 C 1007.67 3.16451 -2.83097 0
M  V30 10499 O 1008.7 2.60913 -2.42493 0
M  V30 10500 O 1007.55 4.16991 -3.53244 0
M  V30 10501 H 1004.65 0.653413 -0.506932 0
M  V30 10502 H 1007.19 0.748774 -1.52287 0
M  V30 10503 H 1005.97 2.01843 -3.35224 0
M  V30 10504 H 1005.59 3.302 -2.21481 0
M  V30 10505 N 1006.59 1.25851 0.948643 0
M  V30 10506 C 1007.86 1.01717 1.67072 0
M  V30 10507 C 1008.24 -0.454749 2.06144 0
M  V30 10508 O 1007.59 -1.43345 1.77945 0
M  V30 10509 C 1007.8 1.95872 2.88852 0
M  V30 10510 C 1009.15 2.24057 3.60671 0
M  V30 10511 O 1010.17 1.93678 2.98944 0
M  V30 10512 O 1009.03 2.75745 4.71833 0
M  V30 10513 H 1006.13 0.386198 0.731287 0
M  V30 10514 H 1008.67 1.37031 1.00104 0
M  V30 10515 H 1007.44 2.95233 2.56814 0
M  V30 10516 H 1007.07 1.60992 3.63548 0
M  V30 10517 N 1008.06 -1.15214 1.07534 0
M  V30 10518 C 1009.31 -1.85388 0.794617 0
M  V30 10519 C 1009.63 -1.83331 -0.681838 0
M  V30 10520 O 1010.83 -2.49207 -1.0774 0
M  V30 10521 C 1009.29 -3.32747 1.37141 0
M  V30 10522 C 1008.9 -3.43244 2.87902 0
M  V30 10523 C 1010.64 -4.08093 1.16879 0
M  V30 10524 C 1008.55 -4.84762 3.38763 0
M  V30 10525 H 1007.48 -0.694499 0.293577 0
M  V30 10526 H 1010.13 -1.29944 1.29564 0
M  V30 10527 H 1008.51 -3.87874 0.798121 0
M  V30 10528 H 1009.68 -2.98214 3.51291 0
M  V30 10529 H 1008 -2.81345 3.06975 0
M  V30 10530 H 1010.6 -5.12535 1.52353 0
M  V30 10531 H 1010.94 -4.1616 0.107958 0
M  V30 10532 H 1011.47 -3.59241 1.70854 0
M  V30 10533 H 1008.21 -4.81879 4.4438 0
M  V30 10534 H 1007.73 -5.30366 2.80128 0
M  V30 10535 H 1009.41 -5.53624 3.34827 0
M  V30 10536 N 1009.54 -0.859717 -1.32086 0
M  V30 10537 C 1010.45 -0.31108 -2.32528 0
M  V30 10538 C 1011.47 0.573714 -1.6427 0
M  V30 10539 O 1012.64 0.472878 -1.9577 0
M  V30 10540 C 1009.71 0.487256 -3.43259 0
M  V30 10541 C 1008.77 -0.424279 -4.27198 0
M  V30 10542 C 1008 0.336051 -5.32641 0
M  V30 10543 O 1008.23 1.56541 -5.48499 0
M  V30 10544 O 1007.16 -0.300777 -6.01148 0
M  V30 10545 H 1010.99 -1.14336 -2.81355 0
M  V30 10546 H 1008.57 -0.622794 -1.358 0
M  V30 10547 H 1010.45 0.940203 -4.10777 0
M  V30 10548 H 1009.13 1.29626 -2.96612 0
M  V30 10549 H 1008.04 -0.925509 -3.62471 0
M  V30 10550 H 1009.37 -1.1986 -4.77383 0
M  V30 10551 N 1011.02 1.44971 -0.618145 0
M  V30 10552 C 1012.27 2.03009 -0.126125 0
M  V30 10553 C 1012.62 1.47656 1.23351 0
M  V30 10554 O 1011.91 0.645901 1.80385 0
M  V30 10555 C 1012.11 3.57378 -0.0394861 0
M  V30 10556 C 1011.94 4.27706 -1.38918 0
M  V30 10557 C 1010.71 4.65206 -1.97261 0
M  V30 10558 C 1012.91 4.58987 -2.32024 0
M  V30 10559 N 1010.89 5.2044 -3.256 0
M  V30 10560 C 1012.26 5.15167 -3.44969 0
M  V30 10561 C 1014.31 4.40932 -2.31265 0
M  V30 10562 C 1013.02 5.55193 -4.57333 0
M  V30 10563 C 1015.04 4.81997 -3.42684 0
M  V30 10564 C 1014.4 5.38279 -4.54352 0
M  V30 10565 H 1010.5 0.77683 -0.0897695 0
M  V30 10566 H 1013.09 1.76646 -0.818805 0
M  V30 10567 H 1011.26 3.8338 0.622441 0
M  V30 10568 H 1012.99 4.02075 0.460165 0
M  V30 10569 H 1009.75 4.49102 -1.50348 0
M  V30 10570 H 1010.17 5.52546 -3.9118 0
M  V30 10571 H 1014.81 3.96723 -1.46187 0
M  V30 10572 H 1012.53 5.98362 -5.43128 0
M  V30 10573 H 1016.12 4.69751 -3.43257 0
M  V30 10574 H 1015 5.6947 -5.39142 0
M  V30 10575 N 1012.5 0.357919 1.53482 0
M  V30 10576 C 1013.74 -0.23451 2.0144 0
M  V30 10577 C 1014.08 -1.49044 1.24497 0
M  V30 10578 O 1013.35 -1.91566 0.336535 0
M  V30 10579 C 1013.64 -0.534193 3.56116 0
M  V30 10580 C 1013.49 0.734834 4.43757 0
M  V30 10581 C 1014.81 -1.33793 4.1927 0
M  V30 10582 H 1011.93 -0.0837595 0.732225 0
M  V30 10583 H 1014.57 0.481297 1.83803 0
M  V30 10584 H 1012.72 -1.144 3.71275 0
M  V30 10585 H 1014.39 1.37251 4.40409 0
M  V30 10586 H 1012.63 1.35678 4.12036 0
M  V30 10587 H 1013.3 0.48021 5.49907 0
M  V30 10588 H 1015.78 -0.822158 4.07897 0
M  V30 10589 H 1014.66 -1.51636 5.27539 0
M  V30 10590 H 1014.92 -2.34423 3.74831 0
M  V30 10591 N 1013.98 -1.5736 0.0868897 0
M  V30 10592 C 1014.92 -2.14793 -0.892571 0
M  V30 10593 C 1015.92 -1.08866 -1.29787 0
M  V30 10594 O 1017.12 -1.27223 -1.27335 0
M  V30 10595 H 1013.5 -0.686998 -0.305838 0
M  V30 10596 H 1015.47 -2.95927 -0.383393 0
M  V30 10597 C 1014.22 -2.73646 -2.14507 0
M  V30 10598 H 1013.54 -3.54835 -1.84207 0
M  V30 10599 H 1014.98 -3.17409 -2.81118 0
M  V30 10600 C 1013.44 -1.69138 -2.91366 0
M  V30 10601 O 1013.97 -1.12539 -3.85614 0
M  V30 10602 N 1012.18 -1.3982 -2.54752 0
M  V30 10603 H 1011.72 -1.86035 -1.78182 0
M  V30 10604 H 1011.68 -0.701316 -3.06478 0
M  V30 10605 N 1015.45 0.186762 -1.56489 0
M  V30 10606 C 1016.7 0.904077 -1.80303 0
M  V30 10607 C 1017.02 1.84073 -0.661538 0
M  V30 10608 O 1018.22 2.59928 -0.784197 0
M  V30 10609 C 1016.68 1.65806 -3.19432 0
M  V30 10610 C 1016.29 0.765807 -4.41406 0
M  V30 10611 C 1018.03 2.36451 -3.52549 0
M  V30 10612 C 1015.94 1.51913 -5.71556 0
M  V30 10613 H 1014.87 0.34133 -0.672317 0
M  V30 10614 H 1017.52 0.157218 -1.82825 0
M  V30 10615 H 1015.9 2.44911 -3.11183 0
M  V30 10616 H 1017.07 0.0128225 -4.60798 0
M  V30 10617 H 1015.39 0.169772 -4.16054 0
M  V30 10618 H 1017.99 2.93378 -4.47027 0
M  V30 10619 H 1018.33 3.11044 -2.7669 0
M  V30 10620 H 1018.86 1.64305 -3.62283 0
M  V30 10621 H 1015.6 0.815829 -6.50403 0
M  V30 10622 H 1015.12 2.24583 -5.56168 0
M  V30 10623 H 1016.8 2.07073 -6.12968 0
M  V30 10624 N 1016.93 1.50896 0.454776 0
M  V30 10625 C 1018.16 1.6648 1.22849 0
M  V30 10626 C 1018.58 0.354841 1.85435 0
M  V30 10627 O 1017.93 -0.664931 1.69956 0
M  V30 10628 C 1017.98 2.76787 2.32532 0
M  V30 10629 O 1017.7 4.02706 1.72509 0
M  V30 10630 C 1019.21 3.03488 3.23125 0
M  V30 10631 H 1016.43 0.559152 0.370932 0
M  V30 10632 H 1018.97 1.97215 0.540983 0
M  V30 10633 H 1017.12 2.48701 2.9703 0
M  V30 10634 H 1017.54 4.63834 2.44863 0
M  V30 10635 H 1019.01 3.84294 3.9626 0
M  V30 10636 H 1019.49 2.152 3.82865 0
M  V30 10637 H 1020.1 3.33167 2.64347 0
M  V30 10638 N 1018.41 -0.709066 1.40748 0
M  V30 10639 C 1019.69 -1.4626 1.29874 0
M  V30 10640 C 1020.07 -2.10949 -0.0799322 0
M  V30 10641 O 1019.42 -2.00651 -1.09323 0
M  V30 10642 C 1019.63 -2.49302 2.44232 0
M  V30 10643 C 1020.97 -3.14945 2.84771 0
M  V30 10644 O 1022 -2.59623 2.43873 0
M  V30 10645 O 1020.86 -4.15111 3.5545 0
M  V30 10646 H 1017.95 -0.650716 0.51039 0
M  V30 10647 H 1020.5 -0.740687 1.52682 0
M  V30 10648 H 1019.27 -2.00063 3.36289 0
M  V30 10649 H 1018.89 -3.29021 2.23229 0
M  V30 10650 N 1019.89 -1.26353 -0.941956 0
M  V30 10651 C 1020.82 -1.03634 -2.04432 0
M  V30 10652 C 1021.83 0.00295864 -1.628 0
M  V30 10653 O 1023.02 -0.237029 -1.76919 0
M  V30 10654 C 1020.12 -0.547231 -3.34453 0
M  V30 10655 C 1019.3 -1.65559 -4.04857 0
M  V30 10656 C 1018.36 -1.16466 -5.13149 0
M  V30 10657 O 1017.38 -1.86158 -5.37898 0
M  V30 10658 N 1018.58 -0.0126703 -5.80499 0
M  V30 10659 H 1021.35 -1.98558 -2.24488 0
M  V30 10660 H 1018.91 -1.17728 -1.11138 0
M  V30 10661 H 1020.9 -0.203004 -4.04191 0
M  V30 10662 H 1019.47 0.308401 -3.11075 0
M  V30 10663 H 1018.69 -2.17079 -3.29044 0
M  V30 10664 H 1019.98 -2.39985 -4.48647 0
M  V30 10665 H 1019.38 0.569358 -5.62828 0
M  V30 10666 H 1017.93 0.272486 -6.5123 0
M  V30 10667 N 1021.37 1.14642 -1.08144 0
M  V30 10668 C 1022.62 1.84964 -0.804437 0
M  V30 10669 C 1022.93 1.8369 0.672106 0
M  V30 10670 O 1024.14 2.49775 1.06417 0
M  V30 10671 C 1022.59 3.32015 -1.38904 0
M  V30 10672 C 1022.2 3.41713 -2.89718 0
M  V30 10673 C 1023.94 4.07467 -1.19041 0
M  V30 10674 C 1021.85 4.82958 -3.41329 0
M  V30 10675 H 1020.78 0.692932 -0.297256 0
M  V30 10676 H 1023.43 1.29255 -1.30251 0
M  V30 10677 H 1021.81 3.87445 -0.818679 0
M  V30 10678 H 1022.99 2.96347 -3.52867 0
M  V30 10679 H 1021.3 2.79713 -3.08463 0
M  V30 10680 H 1023.9 5.1172 -1.55069 0
M  V30 10681 H 1024.24 4.16097 -0.130027 0
M  V30 10682 H 1024.78 3.58329 -1.72757 0
M  V30 10683 H 1021.51 4.79515 -4.46929 0
M  V30 10684 H 1021.03 5.28873 -2.82937 0
M  V30 10685 H 1022.71 5.51841 -3.37759 0
M  V30 10686 N 1022.85 0.866709 1.31628 0
M  V30 10687 C 1024.08 0.489679 2.00713 0
M  V30 10688 C 1024.48 -0.921492 1.65243 0
M  V30 10689 O 1023.83 -1.61467 0.876012 0
M  V30 10690 C 1023.89 0.563148 3.55062 0
M  V30 10691 C 1023.55 1.93535 4.13996 0
M  V30 10692 C 1024.55 2.90243 4.31341 0
M  V30 10693 C 1022.23 2.23578 4.49798 0
M  V30 10694 C 1024.23 4.15138 4.83673 0
M  V30 10695 C 1021.92 3.48723 5.01832 0
M  V30 10696 C 1022.91 4.44319 5.18719 0
M  V30 10697 O 1022.6 5.67247 5.69637 0
M  V30 10698 H 1022.33 0.189605 0.648865 0
M  V30 10699 H 1024.89 1.16874 1.68907 0
M  V30 10700 H 1023.12 -0.172815 3.86314 0
M  V30 10701 H 1024.81 0.200009 4.05407 0
M  V30 10702 H 1025.57 2.6834 4.04003 0
M  V30 10703 H 1021.45 1.49949 4.35932 0
M  V30 10704 H 1025 4.89762 4.96769 0
M  V30 10705 H 1020.89 3.70471 5.28603 0
M  V30 10706 H 1021.66 5.69372 5.88011 0
M  V30 10707 N 1024.32 -1.44642 0.625825 0
M  V30 10708 C 1025.26 -2.28882 -0.120614 0
M  V30 10709 C 1026.27 -1.40985 -0.81407 0
M  V30 10710 O 1027.46 -1.65188 -0.676404 0
M  V30 10711 C 1024.56 -3.17217 -1.19274 0
M  V30 10712 C 1023.73 -4.33499 -0.582839 0
M  V30 10713 C 1022.79 -5.02908 -1.54823 0
M  V30 10714 O 1021.82 -5.59102 -1.06743 0
M  V30 10715 N 1023.02 -5.0387 -2.88262 0
M  V30 10716 H 1025.78 -2.93585 0.602318 0
M  V30 10717 H 1023.34 -1.5503 0.466604 0
M  V30 10718 H 1025.34 -3.60515 -1.83878 0
M  V30 10719 H 1023.91 -2.54301 -1.81797 0
M  V30 10720 H 1023.13 -3.93458 0.241696 0
M  V30 10721 H 1024.41 -5.08561 -0.155914 0
M  V30 10722 H 1023.81 -4.59539 -3.2991 0
M  V30 10723 H 1022.37 -5.50974 -3.4824 0
M  V30 10724 N 1025.8 -0.366053 -1.5329 0
M  V30 10725 C 1027.05 0.223051 -2.00865 0
M  V30 10726 C 1027.37 1.49244 -1.25504 0
M  V30 10727 O 1026.64 1.92404 -0.368444 0
M  V30 10728 H 1025.22 0.085413 -0.742101 0
M  V30 10729 H 1027.88 -0.492396 -1.88578 0
M  V30 10730 H 1026.98 0.449701 -3.08843 0
M  V30 10731 N 1027.28 1.57312 -0.0952337 0
M  V30 10732 C 1028.53 1.93974 0.567319 0
M  V30 10733 C 1028.85 0.977805 1.68713 0
M  V30 10734 O 1028.12 0.0298944 1.95877 0
M  V30 10735 H 1026.7 0.71612 0.212558 0
M  V30 10736 H 1029.36 1.94254 -0.158598 0
M  V30 10737 H 1028.46 2.964 0.977423 0
M  V30 10738 N 1028.76 -0.17846 1.56586 0
M  V30 10739 C 1030.01 -0.894502 1.8078 0
M  V30 10740 C 1030.32 -1.8372 0.67129 0
M  V30 10741 O 1031.53 -2.59509 0.797971 0
M  V30 10742 C 1029.98 -1.64109 3.20306 0
M  V30 10743 C 1029.59 -0.742387 4.41806 0
M  V30 10744 C 1031.33 -2.34578 3.53798 0
M  V30 10745 C 1029.24 -1.4888 5.72354 0
M  V30 10746 H 1028.17 -0.33776 0.674117 0
M  V30 10747 H 1030.82 -0.14752 1.82906 0
M  V30 10748 H 1029.2 -2.43257 3.12477 0
M  V30 10749 H 1030.38 0.011615 4.60799 0
M  V30 10750 H 1028.69 -0.147705 4.16138 0
M  V30 10751 H 1031.29 -2.91004 4.48577 0
M  V30 10752 H 1031.63 -3.09572 2.78336 0
M  V30 10753 H 1032.17 -1.62381 3.63149 0
M  V30 10754 H 1028.9 -0.781325 6.50827 0
M  V30 10755 H 1028.42 -2.21631 5.57351 0
M  V30 10756 H 1030.1 -2.03819 6.14058 0
M  V30 10757 N 1030.24 -1.51135 -0.446768 0
M  V30 10758 C 1031.48 -1.63578 -1.19875 0
M  V30 10759 C 1031.81 -0.346478 -1.91084 0
M  V30 10760 O 1031.09 0.653447 -1.83195 0
M  V30 10761 C 1031.37 -2.83275 -2.22323 0
M  V30 10762 C 1031.23 -4.22155 -1.55259 0
M  V30 10763 C 1032.54 -2.98496 -3.23401 0
M  V30 10764 H 1029.66 -0.595333 -0.434452 0
M  V30 10765 H 1032.31 -1.83593 -0.48923 0
M  V30 10766 H 1030.46 -2.6634 -2.82834 0
M  V30 10767 H 1032.13 -4.50736 -0.981571 0
M  V30 10768 H 1030.37 -4.25288 -0.855122 0
M  V30 10769 H 1031.04 -5.01882 -2.29823 0
M  V30 10770 H 1033.52 -3.14079 -2.72935 0
M  V30 10771 H 1032.39 -3.83828 -3.92386 0
M  V30 10772 H 1032.65 -2.10157 -3.88956 0
M  V30 10773 N 1031.71 0.701592 -1.41122 0
M  V30 10774 C 1032.66 1.83691 -1.4269 0
M  V30 10775 C 1033.66 1.6662 -0.305658 0
M  V30 10776 O 1034.86 1.73554 -0.477392 0
M  V30 10777 H 1031.24 0.605222 -0.44633 0
M  V30 10778 H 1033.21 1.79485 -2.38386 0
M  V30 10779 C 1031.96 3.21666 -1.32008 0
M  V30 10780 H 1031.28 3.35416 -2.17569 0
M  V30 10781 H 1032.72 4.012 -1.37165 0
M  V30 10782 C 1031.18 3.36885 -0.0317678 0
M  V30 10783 O 1031.71 3.90885 0.925836 0
M  V30 10784 N 1029.91 2.90569 0.0423401 0
M  V30 10785 H 1029.46 2.46812 -0.737673 0
M  V30 10786 H 1029.42 3.0113 0.903764 0
M  V30 10787 N 1033.19 1.2685 0.935242 0
M  V30 10788 C 1034.42 1.15645 1.72165 0
M  V30 10789 C 1034.84 -0.283909 1.85945 0
M  V30 10790 O 1034.2 -1.20567 1.354 0
M  V30 10791 C 1034.25 1.83689 3.10307 0
M  V30 10792 O 1033.35 1.12972 3.96625 0
M  V30 10793 H 1032.69 0.402629 0.528002 0
M  V30 10794 H 1035.22 1.67781 1.17093 0
M  V30 10795 H 1035.23 1.90749 3.60664 0
M  V30 10796 H 1033.91 2.88472 2.99595 0
M  V30 10797 H 1032.48 1.13929 3.5507 0
M  V30 10798 N 1034.67 -1.14067 1.0875 0
M  V30 10799 C 1035.92 -1.84819 0.817698 0
M  V30 10800 C 1036.24 -1.83545 -0.658488 0
M  V30 10801 O 1035.51 -1.28633 -1.47751 0
M  V30 10802 H 1034.09 -0.68433 0.299502 0
M  V30 10803 H 1036.75 -1.38208 1.37421 0
M  V30 10804 H 1035.85 -2.89541 1.16501 0
M  V30 10805 N 1036.15 -0.873678 -1.31166 0
M  V30 10806 C 1037.39 -0.487178 -1.96861 0
M  V30 10807 C 1037.73 0.95887 -1.68877 0
M  V30 10808 O 1037 1.6758 -0.987279 0
M  V30 10809 C 1037.29 -0.74925 -3.52219 0
M  V30 10810 C 1037.14 -2.2451 -3.89763 0
M  V30 10811 C 1038.46 -0.218194 -4.39559 0
M  V30 10812 H 1035.58 -0.178477 -0.715063 0
M  V30 10813 H 1038.22 -1.0956 -1.55231 0
M  V30 10814 H 1036.37 -0.231403 -3.8781 0
M  V30 10815 H 1038.04 -2.83049 -3.64254 0
M  V30 10816 H 1036.28 -2.71621 -3.38237 0
M  V30 10817 H 1036.95 -2.37911 -4.98099 0
M  V30 10818 H 1039.43 -0.661274 -4.10812 0
M  V30 10819 H 1038.31 -0.430983 -5.47205 0
M  V30 10820 H 1038.57 0.880056 -4.33252 0
M  V30 10821 N 1037.63 1.44308 -0.633487 0
M  V30 10822 C 1038.87 2.01624 -0.138643 0
M  V30 10823 C 1039.2 1.50101 1.24477 0
M  V30 10824 O 1038.47 0.705575 1.82752 0
M  V30 10825 H 1037.05 0.745439 -0.0482636 0
M  V30 10826 H 1039.71 1.76777 -0.820719 0
M  V30 10827 H 1038.8 3.11913 -0.108136 0
M  V30 10828 N 1039.1 0.374177 1.53094 0
M  V30 10829 C 1040.35 -0.213131 2.01677 0
M  V30 10830 C 1040.68 -1.47715 1.26071 0
M  V30 10831 O 1039.96 -1.91199 0.356834 0
M  V30 10832 C 1040.24 -0.496392 3.56662 0
M  V30 10833 C 1040.09 0.781859 4.42953 0
M  V30 10834 C 1041.41 -1.29339 4.20666 0
M  V30 10835 H 1038.53 -0.0759885 0.733072 0
M  V30 10836 H 1041.17 0.500765 1.83282 0
M  V30 10837 H 1039.32 -1.10455 3.72467 0
M  V30 10838 H 1041 1.41914 4.38928 0
M  V30 10839 H 1039.24 1.40041 4.10574 0
M  V30 10840 H 1039.91 0.538508 5.49367 0
M  V30 10841 H 1042.39 -0.778848 4.08746 0
M  V30 10842 H 1041.26 -1.46033 5.29118 0
M  V30 10843 H 1041.52 -2.30435 3.77296 0
M  V30 10844 N 1040.58 -1.57259 0.103575 0
M  V30 10845 C 1041.83 -1.94272 -0.557024 0
M  V30 10846 C 1042.15 -0.986739 -1.68192 0
M  V30 10847 O 1041.42 -0.0402818 -1.95859 0
M  V30 10848 H 1040 -0.717237 -0.208757 0
M  V30 10849 H 1042.66 -1.94167 0.168898 0
M  V30 10850 H 1041.76 -2.96914 -0.961691 0
M  V30 10851 N 1042.06 0.170153 -1.56679 0
M  V30 10852 C 1043.29 0.90618 -1.86556 0
M  V30 10853 C 1043.71 1.74986 -0.690044 0
M  V30 10854 O 1043.07 1.77672 0.360862 0
M  V30 10855 C 1043.12 1.75777 -3.14857 0
M  V30 10856 O 1042.22 2.85952 -2.97162 0
M  V30 10857 H 1041.56 0.253781 -0.613589 0
M  V30 10858 H 1044.09 0.167943 -2.0391 0
M  V30 10859 H 1044.1 2.15747 -3.46291 0
M  V30 10860 H 1042.78 1.13807 -4.00026 0
M  V30 10861 H 1041.35 2.49557 -2.77084 0
M  V30 10862 N 1043.54 1.5137 0.438746 0
M  V30 10863 C 1044.78 1.64211 1.19006 0
M  V30 10864 C 1045.12 0.356607 1.90898 0
M  V30 10865 O 1044.39 -0.643722 1.83539 0
M  V30 10866 C 1044.68 2.8445 2.20817 0
M  V30 10867 C 1044.53 4.22972 1.53018 0
M  V30 10868 C 1045.85 3.00207 3.21813 0
M  V30 10869 H 1042.97 0.597628 0.431288 0
M  V30 10870 H 1045.61 1.8385 0.479487 0
M  V30 10871 H 1043.76 2.67836 2.81418 0
M  V30 10872 H 1045.43 4.5125 0.957654 0
M  V30 10873 H 1043.67 4.25736 0.832556 0
M  V30 10874 H 1044.34 5.03094 2.27158 0
M  V30 10875 H 1046.82 3.15522 2.71266 0
M  V30 10876 H 1045.7 3.85904 3.90345 0
M  V30 10877 H 1045.96 2.12216 3.87836 0
M  V30 10878 N 1045.02 -0.694098 1.41492 0
M  V30 10879 C 1046.26 -1.4563 1.41137 0
M  V30 10880 C 1046.6 -1.94189 0.0208428 0
M  V30 10881 O 1045.87 -1.69628 -0.951655 0
M  V30 10882 C 1046.15 -2.66714 2.41941 0
M  V30 10883 C 1046.01 -2.23912 3.90107 0
M  V30 10884 C 1047.33 -3.68913 2.39981 0
M  V30 10885 H 1044.44 -0.52821 0.513968 0
M  V30 10886 H 1047.09 -0.790437 1.72778 0
M  V30 10887 H 1045.24 -3.23525 2.1509 0
M  V30 10888 H 1046.91 -1.72417 4.27867 0
M  V30 10889 H 1045.15 -1.5568 4.04903 0
M  V30 10890 H 1045.82 -3.108 4.56188 0
M  V30 10891 H 1048.3 -3.21779 2.63813 0
M  V30 10892 H 1047.17 -4.51242 3.12524 0
M  V30 10893 H 1047.44 -4.18711 1.41892 0
M  V30 10894 N 1046.49 -1.27344 -0.928501 0
M  V30 10895 C 1047.74 -1.13804 -1.67859 0
M  V30 10896 C 1048.07 0.31555 -1.91619 0
M  V30 10897 O 1047.35 1.23087 -1.50599 0
M  V30 10898 C 1047.63 -1.9213 -3.04562 0
M  V30 10899 C 1047.48 -3.45468 -2.88048 0
M  V30 10900 C 1048.8 -1.72513 -4.04879 0
M  V30 10901 H 1045.92 -0.414796 -0.609191 0
M  V30 10902 H 1048.56 -1.5649 -1.07753 0
M  V30 10903 H 1046.71 -1.55853 -3.55868 0
M  V30 10904 H 1048.39 -3.9157 -2.43865 0
M  V30 10905 H 1046.63 -3.71849 -2.23407 0
M  V30 10906 H 1047.3 -3.95515 -3.85061 0
M  V30 10907 H 1049.78 -2.04143 -3.62581 0
M  V30 10908 H 1048.65 -2.29713 -4.98521 0
M  V30 10909 H 1048.91 -0.672856 -4.3695 0
M  V30 10910 N 1047.97 1.13488 -1.09353 0
M  V30 10911 C 1048.92 2.18876 -0.732251 0
M  V30 10912 C 1049.89 1.63616 0.286175 0
M  V30 10913 O 1051.07 1.90059 0.167981 0
M  V30 10914 C 1048.21 3.44737 -0.158157 0
M  V30 10915 C 1047.33 4.14104 -1.23053 0
M  V30 10916 C 1046.46 5.27578 -0.619272 0
M  V30 10917 C 1045.5 5.88793 -1.67301 0
M  V30 10918 N 1044.64 6.937 -1.08283 0
M  V30 10919 H 1049.48 2.49128 -1.63522 0
M  V30 10920 H 1047.02 1.22326 -0.816995 0
M  V30 10921 H 1048.97 4.16756 0.192488 0
M  V30 10922 H 1047.6 3.14938 0.708082 0
M  V30 10923 H 1046.66 3.40376 -1.69847 0
M  V30 10924 H 1047.97 4.55683 -2.02865 0
M  V30 10925 H 1047.12 6.0631 -0.217428 0
M  V30 10926 H 1045.86 4.87246 0.210399 0
M  V30 10927 H 1044.87 5.08756 -2.0844 0
M  V30 10928 H 1046.09 6.31197 -2.50533 0
M  V30 10929 H 1044.04 6.55426 -0.274426 0
M  V30 10930 H 1043.95 7.33817 -1.81792 0
M  V30 10931 H 1045.22 7.76286 -0.707167 0
M  V30 10932 N 1049.45 0.880621 1.30701 0
M  V30 10933 C 1050.73 0.41712 1.91101 0
M  V30 10934 C 1051.11 -1.10177 1.80067 0
M  V30 10935 O 1050.46 -1.93513 1.21511 0
M  V30 10936 C 1050.67 0.910364 3.36917 0
M  V30 10937 C 1052.01 0.942764 4.14001 0
M  V30 10938 O 1053.04 0.856733 3.45743 0
M  V30 10939 O 1051.9 1.06913 5.3594 0
M  V30 10940 H 1048.99 0.126775 0.817225 0
M  V30 10941 H 1051.54 0.969236 1.39298 0
M  V30 10942 H 1050.31 1.95414 3.39012 0
M  V30 10943 H 1049.93 0.337164 3.96168 0
M  V30 10944 N 1050.93 -1.4397 0.641131 0
M  V30 10945 C 1051.88 -2.32495 -0.0698668 0
M  V30 10946 C 1052.87 -1.47922 -0.825555 0
M  V30 10947 O 1054.08 -1.64206 -0.737323 0
M  V30 10948 H 1050.45 -0.750861 -0.0413706 0
M  V30 10949 H 1052.42 -2.90201 0.694682 0
M  V30 10950 C 1051.17 -3.32063 -1.03098 0
M  V30 10951 H 1050.5 -3.97157 -0.458923 0
M  V30 10952 H 1051.94 -3.96664 -1.49778 0
M  V30 10953 C 1050.39 -2.61743 -2.12113 0
M  V30 10954 O 1050.92 -2.42385 -3.20332 0
M  V30 10955 N 1049.13 -2.21316 -1.88328 0
M  V30 10956 H 1048.68 -2.37261 -1.00324 0
M  V30 10957 H 1048.64 -1.74594 -2.61465 0
M  V30 10958 N 1052.41 -0.382291 -1.52893 0
M  V30 10959 C 1053.64 0.202114 -2.05609 0
M  V30 10960 C 1054.05 1.4164 -1.25438 0
M  V30 10961 O 1053.39 1.81359 -0.292324 0
M  V30 10962 C 1053.45 0.64356 -3.53693 0
M  V30 10963 C 1053.11 -0.456305 -4.54716 0
M  V30 10964 C 1054.11 -1.3115 -5.03086 0
M  V30 10965 C 1051.8 -0.621329 -4.98442 0
M  V30 10966 C 1053.79 -2.3169 -5.938 0
M  V30 10967 C 1051.48 -1.63008 -5.88958 0
M  V30 10968 C 1052.48 -2.47629 -6.36529 0
M  V30 10969 O 1052.16 -3.46781 -7.25257 0
M  V30 10970 H 1051.9 0.0358014 -0.675051 0
M  V30 10971 H 1054.45 -0.543935 -1.98067 0
M  V30 10972 H 1052.68 1.44148 -3.58829 0
M  V30 10973 H 1054.37 1.15284 -3.89184 0
M  V30 10974 H 1055.13 -1.19528 -4.70041 0
M  V30 10975 H 1051.01 0.027593 -4.60992 0
M  V30 10976 H 1054.56 -2.97776 -6.30853 0
M  V30 10977 H 1050.45 -1.74671 -6.21418 0
M  V30 10978 H 1051.22 -3.42707 -7.433 0
M  V30 10979 N 1053.89 1.57202 -0.111913 0
M  V30 10980 C 1055.13 1.94125 0.547573 0
M  V30 10981 C 1055.45 0.997026 1.68282 0
M  V30 10982 O 1056.65 1.26063 2.40459 0
M  V30 10983 C 1055.11 3.44982 1.02545 0
M  V30 10984 C 1054.72 4.47927 -0.0809529 0
M  V30 10985 C 1056.46 3.90837 1.65671 0
M  V30 10986 C 1054.37 5.89955 0.413224 0
M  V30 10987 H 1053.3 0.724651 0.208321 0
M  V30 10988 H 1055.95 1.82507 -0.190625 0
M  V30 10989 H 1054.33 3.5181 1.81785 0
M  V30 10990 H 1055.51 4.52761 -0.857003 0
M  V30 10991 H 1053.82 4.11782 -0.618434 0
M  V30 10992 H 1056.42 4.9436 2.03746 0
M  V30 10993 H 1056.76 3.30417 2.53239 0
M  V30 10994 H 1057.29 3.8678 0.929844 0
M  V30 10995 H 1054.03 6.54113 -0.426238 0
M  V30 10996 H 1053.55 5.88557 1.15591 0
M  V30 10997 H 1055.23 6.41032 0.876756 0
M  V30 10998 N 1055.36 -0.161842 1.56767 0
M  V30 10999 C 1056.59 -0.890953 1.86402 0
M  V30 11000 C 1057 -1.75918 0.696373 0
M  V30 11001 O 1056.34 -1.80461 -0.343463 0
M  V30 11002 C 1056.41 -1.81079 3.10565 0
M  V30 11003 C 1056.07 -1.12121 4.43032 0
M  V30 11004 C 1057.07 -0.482152 5.17659 0
M  V30 11005 C 1054.75 -1.11514 4.89765 0
M  V30 11006 C 1056.75 0.153772 6.37214 0
M  V30 11007 C 1054.43 -0.4754 6.09248 0
M  V30 11008 C 1055.43 0.157944 6.82817 0
M  V30 11009 O 1055.12 0.787579 8.00033 0
M  V30 11010 H 1054.85 -0.26379 0.622407 0
M  V30 11011 H 1057.41 -0.163884 2.04745 0
M  V30 11012 H 1055.64 -2.57842 2.88192 0
M  V30 11013 H 1057.32 -2.41056 3.26568 0
M  V30 11014 H 1058.09 -0.478752 4.82631 0
M  V30 11015 H 1053.97 -1.59752 4.32435 0
M  V30 11016 H 1057.51 0.648716 6.94577 0
M  V30 11017 H 1053.41 -0.476416 6.43739 0
M  V30 11018 H 1054.18 0.687769 8.15605 0
M  V30 11019 N 1056.84 -1.516 -0.430713 0
M  V30 11020 C 1058.07 -1.68169 -1.20011 0
M  V30 11021 C 1058.48 -0.381406 -1.85316 0
M  V30 11022 O 1057.82 0.6506 -1.71793 0
M  V30 11023 C 1057.88 -2.7454 -2.32095 0
M  V30 11024 C 1057.55 -4.16942 -1.87104 0
M  V30 11025 C 1058.55 -5.01503 -1.37078 0
M  V30 11026 C 1056.23 -4.63075 -1.94594 0
M  V30 11027 C 1058.22 -6.3026 -0.951362 0
M  V30 11028 C 1055.91 -5.91827 -1.52264 0
M  V30 11029 C 1056.91 -6.75247 -1.02618 0
M  V30 11030 O 1056.6 -8.01591 -0.608905 0
M  V30 11031 H 1056.33 -0.567361 -0.367528 0
M  V30 11032 H 1058.88 -1.98819 -0.515759 0
M  V30 11033 H 1057.11 -2.39219 -3.03828 0
M  V30 11034 H 1058.8 -2.79921 -2.93937 0
M  V30 11035 H 1059.57 -4.67063 -1.30681 0
M  V30 11036 H 1055.45 -3.98262 -2.32182 0
M  V30 11037 H 1058.99 -6.95323 -0.563163 0
M  V30 11038 H 1054.89 -6.2578 -1.58333 0
M  V30 11039 H 1055.66 -8.15201 -0.73416 0
M  V30 11040 N 1058.32 0.686584 -1.41858 0
M  V30 11041 C 1059.25 1.81107 -1.38836 0
M  V30 11042 C 1060.23 1.60599 -0.254293 0
M  V30 11043 O 1061.41 1.83229 -0.442641 0
M  V30 11044 C 1058.54 3.17928 -1.16787 0
M  V30 11045 C 1057.59 3.5721 -2.33031 0
M  V30 11046 S 1058.42 3.60986 -3.95536 0
M  V30 11047 C 1059.58 5.00519 -3.75808 0
M  V30 11048 H 1059.81 1.83396 -2.33994 0
M  V30 11049 H 1057.34 0.856146 -1.28489 0
M  V30 11050 H 1059.3 3.9691 -1.04752 0
M  V30 11051 H 1057.96 3.1324 -0.232335 0
M  V30 11052 H 1057.15 4.56629 -2.13321 0
M  V30 11053 H 1056.76 2.8556 -2.41519 0
M  V30 11054 H 1059.05 5.88272 -3.36069 0
M  V30 11055 H 1059.99 5.25273 -4.74862 0
M  V30 11056 H 1060.4 4.72481 -3.08904 0
M  V30 11057 N 1059.8 1.27835 0.921735 0
M  V30 11058 C 1061.04 1.14523 1.67005 0
M  V30 11059 C 1061.37 -0.307776 1.92049 0
M  V30 11060 O 1060.63 -1.24103 1.51317 0
M  V30 11061 C 1060.93 1.88054 3.03925 0
M  V30 11062 C 1060.59 3.37886 2.9857 0
M  V30 11063 C 1059.25 3.78752 2.96817 0
M  V30 11064 C 1061.61 4.33462 2.89414 0
M  V30 11065 C 1058.93 5.13549 2.83698 0
M  V30 11066 C 1061.29 5.68322 2.77836 0
M  V30 11067 C 1059.95 6.08475 2.74436 0
M  V30 11068 H 1059.22 0.419068 0.611116 0
M  V30 11069 H 1061.87 1.58515 1.07449 0
M  V30 11070 H 1060.17 1.36587 3.67221 0
M  V30 11071 H 1061.87 1.75176 3.60714 0
M  V30 11072 H 1058.46 3.05389 3.00725 0
M  V30 11073 H 1062.64 4.02857 2.89862 0
M  V30 11074 H 1057.9 5.43796 2.79456 0
M  V30 11075 H 1062.07 6.42048 2.69717 0
M  V30 11076 H 1059.7 7.12877 2.64027 0
M  V30 11077 N 1061.28 -1.12907 1.09954 0
M  V30 11078 C 1062.52 -1.83941 0.837255 0
M  V30 11079 C 1062.84 -1.84234 -0.638984 0
M  V30 11080 O 1062.11 -1.30193 -1.46378 0
M  V30 11081 H 1060.69 -0.681115 0.306743 0
M  V30 11082 H 1063.36 -1.36743 1.38879 0
M  V30 11083 H 1062.45 -2.88289 1.19565 0
M  V30 11084 N 1062.75 -0.88754 -1.30232 0
M  V30 11085 C 1064 -0.506277 -1.95656 0
M  V30 11086 C 1064.32 0.948191 -1.70395 0
M  V30 11087 O 1063.59 1.66701 -1.02895 0
M  V30 11088 H 1062.17 -0.184235 -0.723924 0
M  V30 11089 H 1064.83 -1.13118 -1.58715 0
M  V30 11090 H 1063.93 -0.678673 -3.04632 0
M  V30 11091 N 1064.23 1.43628 -0.648757 0
M  V30 11092 C 1065.14 2.34554 0.0463037 0
M  V30 11093 C 1066.16 1.53629 0.816952 0
M  V30 11094 O 1067.33 1.86297 0.765212 0
M  V30 11095 C 1064.4 3.3185 1.00381 0
M  V30 11096 C 1063.46 4.2868 0.230589 0
M  V30 11097 C 1062.69 5.21328 1.14249 0
M  V30 11098 O 1062.92 5.18298 2.38166 0
M  V30 11099 O 1061.85 5.98726 0.617296 0
M  V30 11100 H 1065.68 2.95475 -0.702008 0
M  V30 11101 H 1063.26 1.43694 -0.408942 0
M  V30 11102 H 1065.14 3.91692 1.5542 0
M  V30 11103 H 1063.82 2.73439 1.73243 0
M  V30 11104 H 1062.73 3.72332 -0.363282 0
M  V30 11105 H 1064.06 4.90061 -0.458368 0
M  V30 11106 N 1065.71 0.390394 1.52688 0
M  V30 11107 C 1066.99 -0.249068 1.94008 0
M  V30 11108 C 1067.37 -1.64263 1.32593 0
M  V30 11109 O 1066.72 -2.23086 0.494448 0
M  V30 11110 C 1066.93 -0.274318 3.4792 0
M  V30 11111 C 1068.27 -0.502743 4.21613 0
M  V30 11112 O 1069.3 -0.35448 3.54432 0
M  V30 11113 O 1068.16 -0.79334 5.40711 0
M  V30 11114 H 1065.25 -0.155116 0.812323 0
M  V30 11115 H 1067.8 0.44498 1.63762 0
M  V30 11116 H 1066.57 0.701766 3.84956 0
M  V30 11117 H 1066.19 -1.01324 3.84473 0
M  V30 11118 N 1067.19 -1.57141 0.120249 0
M  V30 11119 C 1068.14 -2.11936 -0.84067 0
M  V30 11120 C 1069.12 -1.04044 -1.22734 0
M  V30 11121 O 1070.31 -1.30275 -1.19822 0
M  V30 11122 C 1067.44 -2.72332 -2.09023 0
M  V30 11123 C 1066.53 -3.87306 -1.72786 0
M  V30 11124 N 1066.92 -4.94302 -1.07232 0
M  V30 11125 C 1065.22 -3.97513 -2.02236 0
M  V30 11126 C 1065.92 -5.7467 -0.901626 0
M  V30 11127 N 1064.9 -5.24535 -1.42702 0
M  V30 11128 H 1068.7 -2.92038 -0.330308 0
M  V30 11129 H 1066.21 -1.62192 -0.0821814 0
M  V30 11130 H 1068.21 -3.09932 -2.78833 0
M  V30 11131 H 1066.87 -1.93693 -2.60601 0
M  V30 11132 H 1067.88 -5.12641 -0.736158 0
M  V30 11133 H 1064.56 -3.29917 -2.55853 0
M  V30 11134 H 1065.95 -6.70785 -0.386974 0
M  V30 11135 N 1068.67 0.153526 -1.5685 0
M  V30 11136 C 1069.91 0.867232 -1.8299 0
M  V30 11137 C 1070.24 1.81462 -0.700125 0
M  V30 11138 O 1069.5 1.93207 0.311348 0
M  V30 11139 C 1069.8 1.68066 -3.15418 0
M  V30 11140 C 1069.46 0.880635 -4.42217 0
M  V30 11141 C 1068.12 0.659899 -4.76654 0
M  V30 11142 C 1070.48 0.320698 -5.20212 0
M  V30 11143 C 1067.8 -0.131588 -5.86552 0
M  V30 11144 C 1070.16 -0.457794 -6.30941 0
M  V30 11145 C 1068.82 -0.689168 -6.63933 0
M  V30 11146 H 1068.09 0.317343 -0.669608 0
M  V30 11147 H 1070.74 0.131208 -1.9105 0
M  V30 11148 H 1069.04 2.4866 -3.02779 0
M  V30 11149 H 1070.74 2.23623 -3.32857 0
M  V30 11150 H 1067.33 1.06274 -4.15215 0
M  V30 11151 H 1071.51 0.47853 -4.93988 0
M  V30 11152 H 1066.77 -0.320413 -6.1056 0
M  V30 11153 H 1070.94 -0.898839 -6.90575 0
M  V30 11154 H 1068.57 -1.30433 -7.48927 0
M  V30 11155 N 1070.14 1.51827 0.422667 0
M  V30 11156 C 1071.09 1.74791 1.53463 0
M  V30 11157 C 1072.09 0.614602 1.57858 0
M  V30 11158 O 1073.29 0.796336 1.61426 0
M  V30 11159 H 1069.67 0.552524 0.510118 0
M  V30 11160 H 1071.64 2.67974 1.31273 0
M  V30 11161 C 1070.39 1.90339 2.90975 0
M  V30 11162 H 1069.71 2.76958 2.8833 0
M  V30 11163 H 1071.15 2.10413 3.68106 0
M  V30 11164 C 1069.61 0.66695 3.30232 0
M  V30 11165 O 1070.14 -0.171542 4.01334 0
M  V30 11166 N 1068.35 0.506768 2.86147 0
M  V30 11167 H 1067.89 1.19019 2.28456 0
M  V30 11168 H 1067.85 -0.319247 3.12775 0
M  V30 11169 N 1071.62 -0.679052 1.4222 0
M  V30 11170 C 1073.03 -1.25953 1.37815 0
M  V30 11171 C 1073.38 -1.96077 0.0693215 0
M  V30 11172 O 1072.51 -1.99765 -0.832047 0
M  V30 11173 C 1073.1 -2.29063 2.49631 0
M  V30 11174 C 1071.66 -2.82647 2.48571 0
M  V30 11175 C 1070.81 -1.56909 2.28637 0
M  V30 11176 H 1073.76 -0.472714 1.51496 0
M  V30 11177 H 1073.78 -3.10708 2.19638 0
M  V30 11178 H 1073.29 -1.77996 3.44876 0
M  V30 11179 H 1071.4 -3.37846 1.57132 0
M  V30 11180 H 1071.51 -3.31952 3.45463 0
M  V30 11181 H 1069.87 -1.83323 1.76819 0
M  V30 11182 H 1070.66 -1.07814 3.25931 0
M  V30 11183 N 1073.1 -1.28322 -0.914942 0
M  V30 11184 C 1074.35 -1.16587 -1.6667 0
M  V30 11185 C 1074.7 0.282961 -1.90308 0
M  V30 11186 O 1073.99 1.20269 -1.49151 0
M  V30 11187 C 1074.19 -1.89663 -3.02924 0
M  V30 11188 C 1074.02 -3.41504 -2.92584 0
M  V30 11189 C 1072.79 -4.10841 -2.94173 0
M  V30 11190 C 1074.99 -4.37266 -2.70745 0
M  V30 11191 N 1072.97 -5.49157 -2.74409 0
M  V30 11192 C 1074.34 -5.62937 -2.59812 0
M  V30 11193 C 1076.39 -4.27207 -2.55732 0
M  V30 11194 C 1075.1 -6.79692 -2.35397 0
M  V30 11195 C 1077.12 -5.43697 -2.32697 0
M  V30 11196 C 1076.48 -6.6833 -2.22517 0
M  V30 11197 H 1072.58 -0.481552 -0.616142 0
M  V30 11198 H 1075.17 -1.61957 -1.08065 0
M  V30 11199 H 1073.34 -1.46729 -3.59618 0
M  V30 11200 H 1075.07 -1.70323 -3.67113 0
M  V30 11201 H 1071.83 -3.62412 -3.04884 0
M  V30 11202 H 1072.25 -6.21858 -2.67622 0
M  V30 11203 H 1076.89 -3.31557 -2.62354 0
M  V30 11204 H 1074.61 -7.75412 -2.27514 0
M  V30 11205 H 1078.2 -5.37802 -2.21947 0
M  V30 11206 H 1077.08 -7.56949 -2.04936 0
M  V30 11207 N 1074.58 1.12322 -1.10551 0
M  V30 11208 C 1075.81 1.87679 -0.87087 0
M  V30 11209 C 1076.22 1.79711 0.578733 0
M  V30 11210 O 1075.58 1.17185 1.39907 0
M  V30 11211 C 1075.63 3.36846 -1.31213 0
M  V30 11212 O 1075.35 3.44626 -2.70489 0
M  V30 11213 C 1076.85 4.29138 -1.11156 0
M  V30 11214 H 1074.07 0.593788 -0.3125 0
M  V30 11215 H 1076.62 1.42116 -1.47048 0
M  V30 11216 H 1074.77 3.79948 -0.756169 0
M  V30 11217 H 1075.18 4.37441 -2.89389 0
M  V30 11218 H 1076.66 5.32082 -1.46944 0
M  V30 11219 H 1077.14 4.39171 -0.0502963 0
M  V30 11220 H 1077.74 3.91818 -1.65405 0
M  V30 11221 N 1076.06 0.894434 1.2976 0
M  V30 11222 C 1077.29 0.532143 1.99629 0
M  V30 11223 C 1077.69 -0.886234 1.6716 0
M  V30 11224 O 1077.04 -1.59573 0.910065 0
M  V30 11225 C 1077.1 0.638335 3.53787 0
M  V30 11226 C 1076.76 2.02273 4.09798 0
M  V30 11227 C 1077.76 2.99327 4.25087 0
M  V30 11228 C 1075.45 2.33069 4.44954 0
M  V30 11229 C 1077.44 4.25304 4.74758 0
M  V30 11230 C 1075.13 3.59289 4.94322 0
M  V30 11231 C 1076.12 4.55222 5.09178 0
M  V30 11232 O 1075.81 5.79202 5.57477 0
M  V30 11233 H 1075.54 0.203326 0.644697 0
M  V30 11234 H 1078.1 1.2043 1.6639 0
M  V30 11235 H 1076.33 -0.0908338 3.86593 0
M  V30 11236 H 1078.02 0.285956 4.04891 0
M  V30 11237 H 1078.78 2.76849 3.9822 0
M  V30 11238 H 1074.66 1.59162 4.32653 0
M  V30 11239 H 1078.21 5.00189 4.86269 0
M  V30 11240 H 1074.1 3.816 5.20626 0
M  V30 11241 H 1074.87 5.81717 5.75802 0
M  V30 11242 N 1077.53 -1.43282 0.656365 0
M  V30 11243 C 1078.78 -2.01378 0.170702 0
M  V30 11244 C 1079.1 -1.52063 -1.22073 0
M  V30 11245 O 1078.37 -0.73456 -1.81607 0
M  V30 11246 H 1076.95 -0.744577 0.0601168 0
M  V30 11247 H 1079.62 -1.75449 0.848739 0
M  V30 11248 H 1078.71 -3.11701 0.157745 0
M  V30 11249 N 1079.01 -0.398486 -1.52479 0
M  V30 11250 C 1080.29 0.238776 -1.94137 0
M  V30 11251 C 1080.67 1.63558 -1.33462 0
M  V30 11252 O 1080.02 2.22821 -0.506272 0
M  V30 11253 C 1080.23 0.255863 -3.48061 0
M  V30 11254 C 1081.58 0.480376 -4.21874 0
M  V30 11255 O 1082.6 0.335679 -3.54615 0
M  V30 11256 O 1081.46 0.764654 -5.41124 0
M  V30 11257 H 1078.55 0.150806 -0.813134 0
M  V30 11258 H 1081.1 -0.453659 -1.63524 0
M  V30 11259 H 1079.87 -0.722171 -3.84578 0
M  V30 11260 H 1079.49 0.99284 -3.85004 0
M  V30 11261 N 1080.49 1.57075 -0.12858 0
M  V30 11262 C 1081.44 2.17084 0.835308 0
M  V30 11263 C 1082.43 1.12268 1.26855 0
M  V30 11264 O 1083.64 1.30554 1.23917 0
M  V30 11265 H 1080.01 0.694866 0.287516 0
M  V30 11266 H 1081.99 2.96839 0.304798 0
M  V30 11267 C 1080.73 2.79237 2.07177 0
M  V30 11268 H 1080.06 3.59594 1.74735 0
M  V30 11269 H 1081.5 3.24751 2.72604 0
M  V30 11270 C 1079.96 1.76803 2.86779 0
M  V30 11271 O 1080.49 1.22723 3.82494 0
M  V30 11272 N 1078.69 1.46525 2.50956 0
M  V30 11273 H 1078.24 1.90694 1.73187 0
M  V30 11274 H 1078.2 0.782326 3.04511 0
M  V30 11275 N 1081.97 -0.145205 1.5693 0
M  V30 11276 C 1083.19 -0.876386 1.87974 0
M  V30 11277 C 1083.62 -1.73866 0.717795 0
M  V30 11278 O 1082.98 -1.78224 -0.332551 0
M  V30 11279 C 1083.03 -1.70746 3.17613 0
M  V30 11280 O 1082.13 -2.81188 3.01674 0
M  V30 11281 H 1081.47 -0.243987 0.617549 0
M  V30 11282 H 1084 -0.135482 2.04151 0
M  V30 11283 H 1084.01 -2.1021 3.49679 0
M  V30 11284 H 1082.69 -1.07429 4.01786 0
M  V30 11285 H 1081.26 -2.45117 2.81019 0
M  V30 11286 N 1083.45 -1.52049 -0.414609 0
M  V30 11287 C 1084.41 -1.74382 -1.4874 0
M  V30 11288 C 1085.41 -0.613701 -1.48628 0
M  V30 11289 O 1086.6 -0.88152 -1.50249 0
M  V30 11290 C 1083.73 -1.82116 -2.88178 0
M  V30 11291 H 1084.93 -2.70147 -1.30233 0
M  V30 11292 H 1082.48 -1.42382 -0.644756 0
M  V30 11293 H 1083.21 -0.882457 -3.12063 0
M  V30 11294 H 1083 -2.64268 -2.89663 0
M  V30 11295 H 1084.49 -2.01155 -3.65959 0
M  V30 11296 N 1084.93 0.6715 -1.42579 0
M  V30 11297 C 1085.87 1.78496 -1.46314 0
M  V30 11298 C 1086.84 1.63091 -0.314743 0
M  V30 11299 O 1088.03 1.83597 -0.519292 0
M  V30 11300 C 1085.17 3.16548 -1.37447 0
M  V30 11301 C 1084.28 3.43216 -2.62348 0
M  V30 11302 C 1083.42 4.71014 -2.456 0
M  V30 11303 C 1082.45 4.90728 -3.65859 0
M  V30 11304 N 1081.59 6.09769 -3.48032 0
M  V30 11305 H 1086.43 1.74638 -2.41466 0
M  V30 11306 H 1083.97 0.852491 -1.19879 0
M  V30 11307 H 1085.93 3.96329 -1.30303 0
M  V30 11308 H 1084.56 3.19522 -0.458891 0
M  V30 11309 H 1083.61 2.57664 -2.79846 0
M  V30 11310 H 1084.92 3.53675 -3.51732 0
M  V30 11311 H 1084.07 5.58892 -2.3606 0
M  V30 11312 H 1082.81 4.62843 -1.53712 0
M  V30 11313 H 1081.82 4.01291 -3.75827 0
M  V30 11314 H 1083.04 5.00741 -4.58732 0
M  V30 11315 H 1080.99 6.02765 -2.58864 0
M  V30 11316 H 1080.91 6.21104 -4.31005 0
M  V30 11317 H 1082.17 7.00317 -3.42311 0
M  V30 11318 N 1086.4 1.28806 0.908124 0
M  V30 11319 C 1087.68 1.06981 1.63751 0
M  V30 11320 C 1088.06 -0.388936 2.07486 0
M  V30 11321 O 1087.41 -1.37611 1.82415 0
M  V30 11322 C 1087.62 2.04962 2.82474 0
M  V30 11323 C 1088.97 2.35418 3.5336 0
M  V30 11324 O 1089.99 2.03091 2.92631 0
M  V30 11325 O 1088.85 2.90617 4.62822 0
M  V30 11326 H 1085.94 0.409267 0.71863 0
M  V30 11327 H 1088.49 1.40146 0.956934 0
M  V30 11328 H 1087.26 3.03254 2.47291 0
M  V30 11329 H 1086.88 1.72476 3.58242 0
M  V30 11330 N 1087.88 -1.11734 1.11145 0
M  V30 11331 C 1089.29 -1.64928 0.874959 0
M  V30 11332 C 1089.64 -1.87012 -0.593375 0
M  V30 11333 O 1088.77 -1.60206 -1.45475 0
M  V30 11334 C 1089.36 -2.99608 1.58178 0
M  V30 11335 C 1087.92 -3.49723 1.39179 0
M  V30 11336 C 1087.07 -2.24595 1.62642 0
M  V30 11337 H 1090.02 -0.954154 1.26813 0
M  V30 11338 H 1090.04 -3.66434 1.02501 0
M  V30 11339 H 1089.55 -2.83504 2.65042 0
M  V30 11340 H 1087.65 -3.70998 0.345111 0
M  V30 11341 H 1087.77 -4.28711 2.13878 0
M  V30 11342 H 1086.13 -2.32067 1.04961 0
M  V30 11343 H 1086.91 -2.11036 2.70774 0
M  V30 11344 N 1089.36 -0.901303 -1.29284 0
M  V30 11345 C 1090.61 -0.528043 -1.95494 0
M  V30 11346 C 1090.93 0.92597 -1.71044 0
M  V30 11347 O 1090.19 1.67185 -1.01723 0
M  V30 11348 C 1090.49 -0.768828 -3.49033 0
M  V30 11349 C 1090.15 -2.20045 -3.93562 0
M  V30 11350 C 1088.82 -2.59189 -4.05431 0
M  V30 11351 C 1091.17 -3.13266 -4.1655 0
M  V30 11352 C 1088.5 -3.90733 -4.37658 0
M  V30 11353 C 1090.85 -4.4436 -4.50252 0
M  V30 11354 C 1089.51 -4.83375 -4.60331 0
M  V30 11355 H 1088.78 -0.193225 -0.715364 0
M  V30 11356 H 1091.43 -1.14027 -1.53851 0
M  V30 11357 H 1089.73 -0.0736997 -3.91731 0
M  V30 11358 H 1091.43 -0.459384 -3.9836 0
M  V30 11359 H 1088.02 -1.88666 -3.84842 0
M  V30 11360 H 1092.21 -2.84237 -4.06845 0
M  V30 11361 H 1087.46 -4.2068 -4.43665 0
M  V30 11362 H 1091.64 -5.16618 -4.66989 0
M  V30 11363 H 1089.26 -5.8534 -4.85058 0
M  V30 11364 N 1090.84 1.42931 -0.663954 0
M  V30 11365 C 1091.78 2.3079 0.0210764 0
M  V30 11366 C 1092.75 1.45356 0.803796 0
M  V30 11367 O 1093.94 1.74207 0.778237 0
M  V30 11368 C 1091.08 3.31069 0.974023 0
M  V30 11369 C 1090.19 4.31598 0.186273 0
M  V30 11370 C 1089.33 5.18955 1.13399 0
M  V30 11371 C 1088.37 6.1117 0.337292 0
M  V30 11372 N 1087.5 6.91114 1.23715 0
M  V30 11373 H 1092.34 2.88819 -0.733995 0
M  V30 11374 H 1089.88 1.42274 -0.373711 0
M  V30 11375 H 1091.84 3.87727 1.54024 0
M  V30 11376 H 1090.47 2.74665 1.69585 0
M  V30 11377 H 1089.52 3.77147 -0.496402 0
M  V30 11378 H 1090.83 4.96919 -0.432753 0
M  V30 11379 H 1089.99 5.80292 1.77049 0
M  V30 11380 H 1088.73 4.53785 1.78691 0
M  V30 11381 H 1087.73 5.48911 -0.312492 0
M  V30 11382 H 1088.96 6.78386 -0.31138 0
M  V30 11383 H 1086.9 6.28583 1.87668 0
M  V30 11384 H 1086.82 7.52999 0.672946 0
M  V30 11385 H 1088.09 7.56948 1.86146 0
M  V30 11386 N 1092.32 0.406567 1.52266 0
M  V30 11387 C 1093.54 -0.172101 2.06685 0
M  V30 11388 C 1093.97 -1.38306 1.27488 0
M  V30 11389 O 1093.32 -1.78726 0.304441 0
M  V30 11390 C 1093.37 -0.503463 3.57068 0
M  V30 11391 O 1092.48 -1.59485 3.80314 0
M  V30 11392 H 1091.82 -0.0153209 0.663823 0
M  V30 11393 H 1094.35 0.579025 1.96236 0
M  V30 11394 H 1094.36 -0.762833 4.00805 0
M  V30 11395 H 1093.03 0.381775 4.14144 0
M  V30 11396 H 1091.61 -1.32784 3.48458 0
M  V30 11397 N 1093.79 -1.57004 0.136909 0
M  V30 11398 C 1095.07 -1.87375 -0.561233 0
M  V30 11399 C 1095.45 -1.04117 -1.83638 0
M  V30 11400 O 1094.8 -0.125103 -2.28157 0
M  V30 11401 C 1095.01 -3.38829 -0.836426 0
M  V30 11402 C 1096.36 -4.07826 -1.18164 0
M  V30 11403 O 1097.38 -3.4395 -0.92611 0
M  V30 11404 O 1096.24 -5.20614 -1.66204 0
M  V30 11405 H 1093.33 -0.776287 -0.285145 0
M  V30 11406 H 1095.88 -1.68818 0.172761 0
M  V30 11407 H 1094.65 -3.91244 0.066442 0
M  V30 11408 H 1094.28 -3.62879 -1.62496 0
M  V30 11409 N 1095.27 0.136881 -1.57004 0
M  V30 11410 C 1096.52 0.8461 -1.83536 0
M  V30 11411 C 1096.84 1.81246 -0.71937 0
M  V30 11412 O 1096.11 1.94191 0.258161 0
M  V30 11413 H 1094.69 0.315446 -0.677128 0
M  V30 11414 H 1097.35 0.128469 -1.94476 0
M  V30 11415 H 1096.45 1.40221 -2.78827 0
M  V30 11416 N 1096.75 1.52266 0.40654 0
M  V30 11417 C 1097.7 1.72175 1.49465 0
M  V30 11418 C 1098.68 0.575668 1.50249 0
M  V30 11419 O 1099.88 0.832835 1.56182 0
M  V30 11420 C 1097.01 1.87818 2.87366 0
M  V30 11421 C 1096.09 3.08305 2.91219 0
M  V30 11422 N 1096.48 4.30967 2.64766 0
M  V30 11423 C 1094.78 3.08192 3.22388 0
M  V30 11424 C 1095.48 5.12455 2.75254 0
M  V30 11425 N 1094.46 4.47758 3.08242 0
M  V30 11426 H 1098.26 2.64653 1.27812 0
M  V30 11427 H 1095.77 1.50334 0.61428 0
M  V30 11428 H 1097.77 2.00198 3.65686 0
M  V30 11429 H 1096.43 0.965414 3.10016 0
M  V30 11430 H 1097.44 4.59397 2.39113 0
M  V30 11431 H 1094.12 2.26662 3.50615 0
M  V30 11432 H 1095.51 6.20186 2.58495 0
M  V30 11433 N 1098.23 -0.663929 1.42933 0
M  V30 11434 C 1099.64 -1.24484 1.39143 0
M  V30 11435 C 1099.99 -1.95993 0.0901142 0
M  V30 11436 O 1099.12 -2.00636 -0.810812 0
M  V30 11437 C 1099.71 -2.26402 2.52047 0
M  V30 11438 C 1098.27 -2.79995 2.51555 0
M  V30 11439 C 1097.42 -1.54475 2.30289 0
M  V30 11440 H 1100.37 -0.456619 1.51989 0
M  V30 11441 H 1100.39 -3.08361 2.22921 0
M  V30 11442 H 1099.9 -1.74328 3.46744 0
M  V30 11443 H 1098 -3.36161 1.60707 0
M  V30 11444 H 1098.11 -3.2827 3.48964 0
M  V30 11445 H 1096.48 -1.81437 1.78753 0
M  V30 11446 H 1097.26 -1.04351 3.27056 0
M  V30 11447 N 1099.71 -1.29285 -0.901281 0
M  V30 11448 C 1100.93 -1.20169 -1.69039 0
M  V30 11449 C 1101.36 0.234509 -1.86632 0
M  V30 11450 O 1100.71 1.16935 -1.38549 0
M  V30 11451 C 1100.76 -1.91852 -3.05328 0
M  V30 11452 O 1099.87 -1.23448 -3.9349 0
M  V30 11453 H 1099.21 -0.416486 -0.517141 0
M  V30 11454 H 1101.74 -1.70826 -1.12603 0
M  V30 11455 H 1101.75 -2.00244 -3.5548 0
M  V30 11456 H 1100.42 -2.96313 -2.91841 0
M  V30 11457 H 1099 -1.23303 -3.51924 0
M  V30 11458 N 1101.18 1.11143 -1.11736 0
M  V30 11459 C 1102.46 1.79384 -0.779785 0
M  V30 11460 C 1102.84 1.98015 0.731668 0
M  V30 11461 O 1102.19 1.56731 1.66276 0
M  V30 11462 C 1102.4 3.12868 -1.54643 0
M  V30 11463 C 1103.75 3.8786 -1.7277 0
M  V30 11464 O 1104.77 3.22566 -1.51094 0
M  V30 11465 O 1103.63 5.05034 -2.08813 0
M  V30 11466 H 1100.72 0.777128 -0.282845 0
M  V30 11467 H 1103.27 1.17858 -1.22096 0
M  V30 11468 H 1102.04 2.94682 -2.57446 0
M  V30 11469 H 1101.67 3.82109 -1.09901 0
M  V30 11470 N 1102.66 0.908147 1.28804 0
M  V30 11471 C 1103.59 0.409106 2.29888 0
M  V30 11472 C 1104.57 -0.520338 1.61946 0
M  V30 11473 O 1105.76 -0.429268 1.89396 0
M  V30 11474 C 1102.89 -0.35669 3.45463 0
M  V30 11475 C 1101.84 0.4831 4.25265 0
M  V30 11476 C 1101.17 -0.4107 5.3312 0
M  V30 11477 C 1102.47 1.73744 4.92555 0
M  V30 11478 H 1104.16 1.25386 2.7188 0
M  V30 11479 H 1101.71 0.604368 1.30703 0
M  V30 11480 H 1103.66 -0.71661 4.15262 0
M  V30 11481 H 1102.39 -1.2353 3.02337 0
M  V30 11482 H 1101.04 0.825464 3.57186 0
M  V30 11483 H 1100.69 -1.28769 4.86238 0
M  V30 11484 H 1100.39 0.14756 5.87415 0
M  V30 11485 H 1101.92 -0.766626 6.05768 0
M  V30 11486 H 1103.33 1.44676 5.54745 0
M  V30 11487 H 1101.73 2.23767 5.5682 0
M  V30 11488 H 1102.8 2.46853 4.17363 0
M  V30 11489 N 1104.14 -1.42577 0.671525 0
M  V30 11490 C 1105.37 -2.05625 0.20044 0
M  V30 11491 C 1105.78 -1.50524 -1.14626 0
M  V30 11492 O 1105.12 -0.638468 -1.72248 0
M  V30 11493 C 1105.18 -3.59459 0.0545385 0
M  V30 11494 C 1104.85 -4.37236 1.32943 0
M  V30 11495 C 1105.84 -4.68104 2.26219 0
M  V30 11496 C 1103.53 -4.76932 1.57612 0
M  V30 11497 C 1105.52 -5.37599 3.42442 0
M  V30 11498 C 1103.21 -5.46167 2.74125 0
M  V30 11499 C 1104.21 -5.76425 3.66364 0
M  V30 11500 O 1103.9 -6.44242 4.8084 0
M  V30 11501 H 1103.63 -0.66918 0.0957843 0
M  V30 11502 H 1106.18 -1.83759 0.917701 0
M  V30 11503 H 1104.41 -3.79971 -0.718271 0
M  V30 11504 H 1106.1 -4.04152 -0.376251 0
M  V30 11505 H 1106.87 -4.37939 2.08409 0
M  V30 11506 H 1102.75 -4.52776 0.866887 0
M  V30 11507 H 1106.29 -5.61133 4.14458 0
M  V30 11508 H 1102.19 -5.75749 2.91861 0
M  V30 11509 H 1102.96 -6.62732 4.80342 0
M  V30 11510 N 1105.62 -0.414636 -1.52048 0
M  V30 11511 C 1106.86 0.158807 -2.03782 0
M  V30 11512 C 1107.22 1.41912 -1.29325 0
M  V30 11513 O 1108.42 2.07136 -1.71313 0
M  V30 11514 C 1106.69 0.395092 -3.55209 0
M  V30 11515 S 1108.25 0.935193 -4.28719 0
M  V30 11516 H 1105.07 0.0424729 -0.70973 0
M  V30 11517 H 1107.67 -0.568822 -1.87042 0
M  V30 11518 H 1106.38 -0.528875 -4.06978 0
M  V30 11519 H 1105.91 1.15044 -3.76203 0
M  V30 11520 H 1107.92 2.21519 -4.44009 0
M  V30 11521 N 1107.1 1.56929 -0.145233 0
M  V30 11522 C 1108.33 2.00141 0.51257 0
M  V30 11523 C 1108.73 1.0243 1.59075 0
M  V30 11524 O 1108.08 0.0130063 1.83695 0
M  V30 11525 C 1108.14 3.39785 1.17417 0
M  V30 11526 C 1107.8 4.56365 0.240801 0
M  V30 11527 C 1108.8 5.17183 -0.530847 0
M  V30 11528 C 1106.49 5.02093 0.144221 0
M  V30 11529 C 1108.48 6.22136 -1.38654 0
M  V30 11530 C 1106.17 6.06902 -0.71508 0
M  V30 11531 C 1107.16 6.66793 -1.47907 0
M  V30 11532 O 1106.85 7.69573 -2.32405 0
M  V30 11533 H 1106.58 0.661747 0.138085 0
M  V30 11534 H 1109.14 2.04037 -0.236269 0
M  V30 11535 H 1107.37 3.32722 1.97061 0
M  V30 11536 H 1109.06 3.67115 1.73152 0
M  V30 11537 H 1109.82 4.82754 -0.466256 0
M  V30 11538 H 1105.7 4.55206 0.728613 0
M  V30 11539 H 1109.25 6.68812 -1.98333 0
M  V30 11540 H 1105.14 6.40758 -0.78097 0
M  V30 11541 H 1105.91 7.86786 -2.25634 0
M  V30 11542 N 1108.58 -0.128553 1.57075 0
M  V30 11543 C 1109.52 -1.15812 1.9964 0
M  V30 11544 C 1110.49 -1.41679 0.86696 0
M  V30 11545 O 1111.68 -1.53705 1.13046 0
M  V30 11546 C 1108.82 -2.48198 2.39774 0
M  V30 11547 C 1107.93 -2.29348 3.66092 0
M  V30 11548 C 1107.07 -3.54898 3.95248 0
M  V30 11549 C 1106.1 -3.31164 5.14779 0
M  V30 11550 N 1105.24 -4.48891 5.39853 0
M  V30 11551 H 1110.08 -0.788136 2.87389 0
M  V30 11552 H 1107.62 -0.377682 1.42169 0
M  V30 11553 H 1109.58 -3.25414 2.61077 0
M  V30 11554 H 1108.21 -2.83108 1.5508 0
M  V30 11555 H 1107.26 -1.43095 3.5246 0
M  V30 11556 H 1108.57 -2.07781 4.53463 0
M  V30 11557 H 1107.72 -4.40536 4.17148 0
M  V30 11558 H 1106.46 -3.79487 3.06335 0
M  V30 11559 H 1105.47 -2.43915 4.92733 0
M  V30 11560 H 1106.69 -3.07954 6.05261 0
M  V30 11561 H 1104.64 -4.73619 4.53895 0
M  V30 11562 H 1104.56 -4.30394 6.21528 0
M  V30 11563 H 1105.82 -5.35691 5.66265 0
M  V30 11564 N 1110.05 -1.5248 -0.398459 0
M  V30 11565 C 1110.99 -1.71321 -1.50746 0
M  V30 11566 C 1111.96 -0.5609 -1.52619 0
M  V30 11567 O 1113.15 -0.789557 -1.71167 0
M  V30 11568 C 1110.28 -1.76223 -2.89246 0
M  V30 11569 C 1109.32 -2.97878 -3.05239 0
M  V30 11570 S 1110.15 -4.58031 -2.77431 0
M  V30 11571 C 1111.31 -4.65735 -4.18141 0
M  V30 11572 H 1111.54 -2.65117 -1.34538 0
M  V30 11573 H 1109.08 -1.42653 -0.590727 0
M  V30 11574 H 1111.03 -1.79733 -3.69062 0
M  V30 11575 H 1109.7 -0.83536 -3.02788 0
M  V30 11576 H 1108.89 -2.97821 -4.06594 0
M  V30 11577 H 1108.49 -2.92311 -2.33304 0
M  V30 11578 H 1110.78 -4.43768 -5.11934 0
M  V30 11579 H 1111.73 -5.67709 -4.23217 0
M  V30 11580 H 1112.13 -3.94664 -4.03609 0
M  V30 11581 N 1111.53 0.65634 -1.43283 0
M  V30 11582 C 1112.48 1.76934 -1.48199 0
M  V30 11583 C 1113.45 1.62748 -0.332023 0
M  V30 11584 O 1114.63 1.83036 -0.538735 0
M  V30 11585 C 1111.77 3.15072 -1.40797 0
M  V30 11586 C 1110.89 3.40414 -2.65974 0
M  V30 11587 C 1110.02 4.68383 -2.50582 0
M  V30 11588 C 1109.06 4.8682 -3.71043 0
M  V30 11589 N 1108.2 6.06043 -3.5448 0
M  V30 11590 H 1113.04 1.72067 -2.43304 0
M  V30 11591 H 1110.57 0.839728 -1.20777 0
M  V30 11592 H 1112.53 3.94925 -1.345 0
M  V30 11593 H 1111.16 3.19017 -0.492754 0
M  V30 11594 H 1110.21 2.54681 -2.82563 0
M  V30 11595 H 1111.53 3.49925 -3.55463 0
M  V30 11596 H 1110.68 5.56357 -2.41975 0
M  V30 11597 H 1109.42 4.61187 -1.58612 0
M  V30 11598 H 1108.42 3.97282 -3.80062 0
M  V30 11599 H 1109.65 4.95847 -4.64017 0
M  V30 11600 H 1107.6 5.99985 -2.65242 0
M  V30 11601 H 1107.51 6.16498 -4.37568 0
M  V30 11602 H 1108.78 6.96647 -3.49719 0
M  V30 11603 N 1113.01 1.29761 0.894412 0
M  V30 11604 C 1114.26 1.17409 1.64006 0
M  V30 11605 C 1114.57 -0.272355 1.93695 0
M  V30 11606 O 1115.78 -0.517269 2.66527 0
M  V30 11607 C 1114.23 2.05379 2.95546 0
M  V30 11608 C 1113.84 3.54878 2.73433 0
M  V30 11609 C 1115.59 2.01765 3.73485 0
M  V30 11610 C 1113.49 4.34935 4.00731 0
M  V30 11611 H 1112.42 0.43583 0.615279 0
M  V30 11612 H 1115.07 1.5444 0.990983 0
M  V30 11613 H 1113.46 1.61222 3.61695 0
M  V30 11614 H 1114.63 4.07122 2.15844 0
M  V30 11615 H 1112.94 3.60218 2.08882 0
M  V30 11616 H 1115.54 2.58835 4.67877 0
M  V30 11617 H 1115.88 0.998876 4.04139 0
M  V30 11618 H 1116.42 2.43994 3.14184 0
M  V30 11619 H 1113.16 5.3747 3.75241 0
M  V30 11620 H 1112.68 3.87458 4.5786 0
M  V30 11621 H 1114.36 4.45875 4.68833 0
M  V30 11622 N 1114.49 -1.10549 1.12324 0
M  V30 11623 C 1115.74 -1.82124 0.876083 0
M  V30 11624 C 1116.06 -1.85547 -0.599761 0
M  V30 11625 O 1115.33 -1.33269 -1.43584 0
M  V30 11626 H 1113.91 -0.674455 0.321122 0
M  V30 11627 H 1116.57 -1.33766 1.41748 0
M  V30 11628 H 1115.66 -2.85688 1.25653 0
M  V30 11629 N 1115.97 -0.914965 -1.28321 0
M  V30 11630 C 1117.38 -0.59512 -1.76961 0
M  V30 11631 C 1117.73 0.88958 -1.74874 0
M  V30 11632 O 1116.85 1.6959 -1.34418 0
M  V30 11633 C 1117.45 -1.07353 -3.21342 0
M  V30 11634 C 1116.01 -0.804577 -3.677 0
M  V30 11635 C 1115.15 -1.23955 -2.48053 0
M  V30 11636 H 1118.1 -1.0961 -1.14767 0
M  V30 11637 H 1118.13 -0.415506 -3.78225 0
M  V30 11638 H 1117.64 -2.15413 -3.22829 0
M  V30 11639 H 1115.74 0.26277 -3.71672 0
M  V30 11640 H 1115.85 -1.41317 -4.57784 0
M  V30 11641 H 1114.22 -0.658274 -2.46046 0
M  V30 11642 H 1115 -2.32853 -2.52258 0
M  V30 11643 N 1117.44 1.42219 -0.679077 0
M  V30 11644 C 1118.72 1.95155 -0.13188 0
M  V30 11645 C 1119.1 1.6193 1.35433 0
M  V30 11646 O 1118.45 0.917672 2.09263 0
M  V30 11647 C 1118.66 3.46635 -0.405578 0
M  V30 11648 C 1120.01 4.23359 -0.324394 0
M  V30 11649 O 1121.03 3.54578 -0.339564 0
M  V30 11650 O 1119.89 5.45831 -0.270268 0
M  V30 11651 H 1116.98 0.826983 -0.00535438 0
M  V30 11652 H 1119.53 1.52024 -0.754101 0
M  V30 11653 H 1118.3 3.6404 -1.43495 0
M  V30 11654 H 1117.92 3.96823 0.248439 0
M  V30 11655 N 1118.92 0.422693 1.51826 0
M  V30 11656 C 1119.87 -0.41063 2.28947 0
M  V30 11657 C 1120.86 -1.03389 1.34191 0
M  V30 11658 O 1122.07 -0.970533 1.51594 0
M  V30 11659 H 1118.44 -0.151219 0.736639 0
M  V30 11660 H 1120.42 0.260859 2.97258 0
M  V30 11661 C 1119.16 -1.50758 3.13317 0
M  V30 11662 H 1118.49 -1.03734 3.86108 0
M  V30 11663 H 1119.93 -2.0642 3.7036 0
M  V30 11664 C 1118.39 -2.48261 2.27746 0
M  V30 11665 O 1118.92 -3.52462 1.92701 0
M  V30 11666 N 1117.12 -2.18795 1.91251 0
M  V30 11667 H 1116.67 -1.34088 2.1995 0
M  V30 11668 H 1116.63 -2.84276 1.34293 0
M  V30 11669 N 1120.4 -1.5685 0.153553 0
M  V30 11670 C 1121.82 -1.58306 -0.202801 0
M  V30 11671 C 1122.02 -1.16813 -1.64186 0
M  V30 11672 O 1121.07 -0.871468 -2.36985 0
M  V30 11673 C 1122.38 -3.00636 0.0619012 0
M  V30 11674 C 1123.93 -3.13 -0.00129219 0
M  V30 11675 C 1124.41 -4.57391 0.236164 0
M  V30 11676 N 1125.9 -4.62837 0.18332 0
M  V30 11677 C 1126.63 -5.72382 0.341471 0
M  V30 11678 N 1126.13 -6.90552 0.557704 0
M  V30 11679 N 1127.92 -5.61409 0.278615 0
M  V30 11680 H 1120.07 -1.82113 1.09309 0
M  V30 11681 H 1122.34 -0.843228 0.433209 0
M  V30 11682 H 1122.04 -3.35406 1.0581 0
M  V30 11683 H 1121.92 -3.71477 -0.654555 0
M  V30 11684 H 1124.3 -2.78068 -0.98805 0
M  V30 11685 H 1124.38 -2.44632 0.747596 0
M  V30 11686 H 1124.03 -4.93029 1.22005 0
M  V30 11687 H 1123.96 -5.23894 -0.533125 0
M  V30 11688 H 1126.45 -3.77894 0.0211138 0
M  V30 11689 H 1126.76 -7.69905 0.66831 0
M  V30 11690 H 1125.11 -6.92456 0.594105 0
M  V30 11691 H 1128.3 -4.6797 0.110401 0
M  V30 11692 H 1128.47 -6.46731 0.4053 0
M  V30 11693 N 1121.88 0.120221 -1.57141 0
M  V30 11694 C 1123.12 0.829449 -1.85062 0
M  V30 11695 C 1123.46 1.79585 -0.739116 0
M  V30 11696 O 1122.73 1.92819 0.255147 0
M  V30 11697 C 1123.01 1.58042 -3.23566 0
M  V30 11698 C 1122.87 0.633706 -4.45314 0
M  V30 11699 C 1124.19 2.53688 -3.59625 0
M  V30 11700 H 1121.31 0.300086 -0.67314 0
M  V30 11701 H 1123.95 0.0937393 -1.89769 0
M  V30 11702 H 1122.1 2.20758 -3.19684 0
M  V30 11703 H 1123.77 0.0154836 -4.61297 0
M  V30 11704 H 1122.01 -0.054846 -4.33765 0
M  V30 11705 H 1122.68 1.19577 -5.38893 0
M  V30 11706 H 1125.16 2.01078 -3.6429 0
M  V30 11707 H 1124.04 3.03265 -4.57516 0
M  V30 11708 H 1124.3 3.36296 -2.8698 0
M  V30 11709 N 1123.36 1.52689 0.390367 0
M  V30 11710 C 1124.58 1.71839 1.16129 0
M  V30 11711 C 1125.01 0.435226 1.82996 0
M  V30 11712 O 1124.36 -0.60889 1.70769 0
M  V30 11713 C 1124.41 2.86784 2.18603 0
M  V30 11714 O 1123.52 2.53662 3.25161 0
M  V30 11715 H 1122.86 0.571455 0.338135 0
M  V30 11716 H 1125.39 1.99475 0.45508 0
M  V30 11717 H 1125.4 3.12239 2.62622 0
M  V30 11718 H 1124.07 3.79872 1.69322 0
M  V30 11719 H 1122.65 2.38942 2.86289 0
M  V30 11720 N 1124.83 -0.648732 1.43629 0
M  V30 11721 C 1126.25 -0.964917 1.27128 0
M  V30 11722 C 1126.45 -2.00561 0.194251 0
M  V30 11723 O 1125.51 -2.48884 -0.42581 0
M  V30 11724 C 1126.82 -1.44491 2.6371 0
M  V30 11725 C 1128.37 -1.56133 2.71278 0
M  V30 11726 C 1128.84 -2.07521 4.08288 0
M  V30 11727 N 1130.33 -2.14817 4.10375 0
M  V30 11728 C 1131.07 -2.55712 5.13224 0
M  V30 11729 N 1130.56 -2.9587 6.26444 0
M  V30 11730 N 1132.36 -2.55691 5.00578 0
M  V30 11731 H 1124.51 0.0398357 2.12363 0
M  V30 11732 H 1126.77 -0.0447705 0.946942 0
M  V30 11733 H 1126.48 -0.754616 3.43509 0
M  V30 11734 H 1126.35 -2.41914 2.89409 0
M  V30 11735 H 1128.74 -2.24263 1.91808 0
M  V30 11736 H 1128.82 -0.571314 2.49338 0
M  V30 11737 H 1128.46 -1.39992 4.88226 0
M  V30 11738 H 1128.39 -3.07362 4.27594 0
M  V30 11739 H 1130.88 -1.86538 3.28652 0
M  V30 11740 H 1131.2 -3.25837 7.0075 0
M  V30 11741 H 1129.54 -2.93664 6.2991 0
M  V30 11742 H 1132.73 -2.23697 4.1119 0
M  V30 11743 H 1132.91 -2.87239 5.80859 0
M  V30 11744 N 1126.31 -1.30234 -0.887518 0
M  V30 11745 C 1127.59 -1.09572 -1.62029 0
M  V30 11746 C 1127.97 0.355877 -2.08079 0
M  V30 11747 O 1127.32 1.34692 -1.84582 0
M  V30 11748 C 1127.53 -2.0943 -2.79177 0
M  V30 11749 C 1128.88 -2.4101 -3.4957 0
M  V30 11750 O 1129.9 -2.0772 -2.89363 0
M  V30 11751 O 1128.76 -2.97943 -4.5814 0
M  V30 11752 H 1125.85 -0.420648 -0.712028 0
M  V30 11753 H 1128.4 -1.41651 -0.934517 0
M  V30 11754 H 1127.17 -3.07149 -2.42436 0
M  V30 11755 H 1126.79 -1.78154 -3.55453 0
M  V30 11756 N 1127.79 1.09952 -1.12909 0
M  V30 11757 C 1129.04 1.82016 -0.887482 0
M  V30 11758 C 1129.37 1.85445 0.586546 0
M  V30 11759 O 1128.62 1.31446 1.44984 0
M  V30 11760 C 1128.92 3.28252 -1.41369 0
M  V30 11761 C 1128.59 3.44965 -2.90362 0
M  V30 11762 C 1127.25 3.49233 -3.31043 0
M  V30 11763 C 1129.6 3.49947 -3.86247 0
M  V30 11764 C 1126.93 3.56057 -4.66305 0
M  V30 11765 C 1129.28 3.58305 -5.21345 0
M  V30 11766 C 1127.94 3.6084 -5.61561 0
M  V30 11767 H 1127.21 0.666046 -0.324753 0
M  V30 11768 H 1129.86 1.29568 -1.41012 0
M  V30 11769 H 1128.17 3.83301 -0.81163 0
M  V30 11770 H 1129.86 3.82533 -1.20289 0
M  V30 11771 H 1126.45 3.42323 -2.57901 0
M  V30 11772 H 1130.64 3.45895 -3.55908 0
M  V30 11773 H 1125.89 3.56305 -4.96847 0
M  V30 11774 H 1130.07 3.61104 -5.95463 0
M  V30 11775 H 1127.69 3.6588 -6.6636 0
M  V30 11776 N 1129.27 0.921757 1.27833 0
M  V30 11777 C 1130.68 0.621102 1.47019 0
M  V30 11778 C 1130.88 -0.831338 1.83551 0
M  V30 11779 O 1129.94 -1.60974 1.94534 0
M  V30 11780 C 1131.25 1.56588 2.56712 0
M  V30 11781 C 1132.8 1.57346 2.70576 0
M  V30 11782 C 1133.28 2.50505 3.8342 0
M  V30 11783 N 1134.77 2.48678 3.90786 0
M  V30 11784 C 1135.5 3.17454 4.77505 0
M  V30 11785 N 1135 3.95588 5.68755 0
M  V30 11786 N 1136.79 3.06501 4.71183 0
M  V30 11787 H 1128.94 1.86085 1.02403 0
M  V30 11788 H 1131.21 0.798595 0.510833 0
M  V30 11789 H 1130.91 2.60175 2.36647 0
M  V30 11790 H 1130.79 1.30305 3.53978 0
M  V30 11791 H 1133.17 0.544919 2.90025 0
M  V30 11792 H 1133.25 1.87675 1.73815 0
M  V30 11793 H 1132.9 3.53466 3.64725 0
M  V30 11794 H 1132.83 2.17474 4.79596 0
M  V30 11795 H 1135.32 1.91928 3.25534 0
M  V30 11796 H 1135.63 4.45066 6.31772 0
M  V30 11797 H 1133.98 3.99692 5.6857 0
M  V30 11798 H 1137.17 2.44958 3.9889 0
M  V30 11799 H 1137.34 3.60372 5.3855 0
M  V30 11800 N 1130.75 -1.41857 0.686609 0
M  V30 11801 C 1131.98 -2.05401 0.222238 0
M  V30 11802 C 1132.38 -1.51731 -1.13023 0
M  V30 11803 O 1131.73 -0.656701 -1.71561 0
M  V30 11804 C 1131.79 -3.59381 0.0926608 0
M  V30 11805 C 1131.45 -4.35801 1.37573 0
M  V30 11806 C 1132.45 -4.65678 2.31171 0
M  V30 11807 C 1130.14 -4.75233 1.62661 0
M  V30 11808 C 1132.13 -5.33936 3.48125 0
M  V30 11809 C 1129.82 -5.43229 2.79902 0
M  V30 11810 C 1130.81 -5.72507 3.72458 0
M  V30 11811 O 1130.5 -6.39106 4.87646 0
M  V30 11812 H 1130.23 -0.668126 0.102876 0
M  V30 11813 H 1132.79 -1.82775 0.93714 0
M  V30 11814 H 1131.02 -3.80711 -0.67793 0
M  V30 11815 H 1132.71 -4.04529 -0.333364 0
M  V30 11816 H 1133.47 -4.35704 2.13042 0
M  V30 11817 H 1129.35 -4.51831 0.914862 0
M  V30 11818 H 1132.9 -5.56706 4.20386 0
M  V30 11819 H 1128.79 -5.72621 2.97951 0
M  V30 11820 H 1129.56 -6.576 4.87344 0
M  V30 11821 N 1132.22 -0.430739 -1.51599 0
M  V30 11822 C 1133.47 0.137657 -2.01631 0
M  V30 11823 C 1133.79 1.43787 -1.31721 0
M  V30 11824 O 1133.06 1.90668 -0.449717 0
M  V30 11825 H 1131.64 0.0538611 -0.745056 0
M  V30 11826 H 1134.31 -0.571935 -1.86319 0
M  V30 11827 H 1133.4 0.318305 -3.10473 0
M  V30 11828 N 1133.7 1.56767 -0.161869 0
M  V30 11829 C 1134.67 2.16299 0.758104 0
M  V30 11830 C 1135.67 1.10859 1.16478 0
M  V30 11831 O 1136.86 1.36422 1.08327 0
M  V30 11832 C 1133.99 2.73819 2.03067 0
M  V30 11833 H 1135.18 2.98938 0.239992 0
M  V30 11834 H 1132.73 1.56054 0.0876532 0
M  V30 11835 H 1133.47 1.94887 2.59209 0
M  V30 11836 H 1133.25 3.50974 1.74813 0
M  V30 11837 H 1134.74 3.19638 2.68741 0
M  V30 11838 N 1135.18 -0.111886 1.57202 0
M  V30 11839 C 1136.43 -0.819623 1.85499 0
M  V30 11840 C 1136.76 -1.7919 0.748629 0
M  V30 11841 O 1136.03 -1.92952 -0.244918 0
M  V30 11842 C 1136.32 -1.56324 3.24399 0
M  V30 11843 C 1136.17 -0.610081 4.45643 0
M  V30 11844 C 1137.49 -2.51777 3.60966 0
M  V30 11845 H 1134.61 -0.296512 0.674722 0
M  V30 11846 H 1137.25 -0.0836741 1.89816 0
M  V30 11847 H 1135.4 -2.1906 3.2085 0
M  V30 11848 H 1137.07 0.00898038 4.61299 0
M  V30 11849 H 1135.32 0.0778488 4.3373 0
M  V30 11850 H 1135.99 -1.16718 5.39519 0
M  V30 11851 H 1138.46 -1.99143 3.65351 0
M  V30 11852 H 1137.34 -3.00835 4.59118 0
M  V30 11853 H 1137.6 -3.34769 2.8876 0
M  V30 11854 N 1136.66 -1.52894 -0.382264 0
M  V30 11855 C 1138.07 -1.60135 -0.959887 0
M  V30 11856 C 1138.42 -0.458363 -1.90771 0
M  V30 11857 O 1137.55 0.417614 -2.12332 0
M  V30 11858 C 1138.14 -2.90243 -1.74769 0
M  V30 11859 C 1136.7 -2.99874 -2.27491 0
M  V30 11860 C 1135.85 -2.55302 -1.0824 0
M  V30 11861 H 1138.8 -1.57875 -0.161589 0
M  V30 11862 H 1138.82 -2.77108 -2.60751 0
M  V30 11863 H 1138.33 -3.73412 -1.0576 0
M  V30 11864 H 1136.43 -2.21258 -2.99793 0
M  V30 11865 H 1136.54 -4.04643 -2.56516 0
M  V30 11866 H 1134.91 -2.09781 -1.44444 0
M  V30 11867 H 1135.69 -3.40872 -0.407553 0
M  V30 11868 N 1138.14 0.641106 -1.43971 0
M  V30 11869 C 1139.09 1.77474 -1.50352 0
M  V30 11870 C 1140.08 1.65173 -0.376052 0
M  V30 11871 O 1141.29 1.71373 -0.550572 0
M  V30 11872 H 1137.66 0.585747 -0.471597 0
M  V30 11873 H 1139.63 1.69213 -2.45784 0
M  V30 11874 C 1138.38 3.15778 -1.45532 0
M  V30 11875 H 1137.7 3.25886 -2.316 0
M  V30 11876 H 1139.14 3.95022 -1.54058 0
M  V30 11877 C 1137.6 3.36447 -0.174624 0
M  V30 11878 O 1138.13 3.9446 0.759215 0
M  V30 11879 N 1136.34 2.90487 -0.0809383 0
M  V30 11880 H 1135.89 2.43461 -0.841691 0
M  V30 11881 H 1135.84 3.04693 0.775231 0
M  V30 11882 N 1139.62 1.30703 0.880598 0
M  V30 11883 C 1141.03 1.09129 1.1646 0
M  V30 11884 C 1141.23 -0.145131 2.00977 0
M  V30 11885 O 1140.29 -0.837502 2.38206 0
M  V30 11886 C 1141.6 2.35717 1.86703 0
M  V30 11887 C 1143.15 2.41224 1.9945 0
M  V30 11888 C 1143.62 3.67665 2.73105 0
M  V30 11889 N 1145.11 3.68498 2.80648 0
M  V30 11890 C 1145.85 4.63024 3.38225 0
M  V30 11891 N 1145.35 5.67898 3.96817 0
M  V30 11892 N 1147.14 4.50561 3.36082 0
M  V30 11893 H 1139.29 2.10019 0.317164 0
M  V30 11894 H 1141.55 0.925994 0.203072 0
M  V30 11895 H 1141.26 3.2597 1.32046 0
M  V30 11896 H 1141.13 2.447 2.87057 0
M  V30 11897 H 1143.52 1.51446 2.53275 0
M  V30 11898 H 1143.6 2.36212 0.981704 0
M  V30 11899 H 1143.24 4.57803 2.19951 0
M  V30 11900 H 1143.17 3.69939 3.7477 0
M  V30 11901 H 1145.67 2.92681 2.39053 0
M  V30 11902 H 1145.98 6.3612 4.3883 0
M  V30 11903 H 1144.32 5.71685 3.95223 0
M  V30 11904 H 1147.51 3.67811 2.89539 0
M  V30 11905 H 1147.69 5.24408 3.80657 0
M  V30 11906 N 1141.09 -1.09351 1.1349 0
M  V30 11907 C 1142.06 -2.14185 0.815919 0
M  V30 11908 C 1143.06 -1.59845 -0.174976 0
M  V30 11909 O 1144.25 -1.74122 0.0521971 0
M  V30 11910 C 1141.38 -3.40224 0.214517 0
M  V30 11911 H 1142.57 -2.43913 1.74489 0
M  V30 11912 H 1140.12 -1.24902 0.939634 0
M  V30 11913 H 1140.86 -3.16123 -0.723634 0
M  V30 11914 H 1140.64 -3.80958 0.928102 0
M  V30 11915 H 1142.13 -4.17599 0.00821999 0
M  V30 11916 N 1142.57 -0.928524 -1.27343 0
M  V30 11917 C 1143.82 -0.570235 -1.94618 0
M  V30 11918 C 1144.15 0.886381 -1.72792 0
M  V30 11919 O 1143.43 1.63242 -1.05747 0
M  V30 11920 C 1143.71 -0.897964 -3.48724 0
M  V30 11921 C 1143.56 -2.40839 -3.7989 0
M  V30 11922 C 1144.88 -0.404429 -4.38238 0
M  V30 11923 H 1142 -0.208645 -0.70685 0
M  V30 11924 H 1144.64 -1.16045 -1.50444 0
M  V30 11925 H 1142.79 -0.395679 -3.8648 0
M  V30 11926 H 1144.46 -2.98243 -3.51921 0
M  V30 11927 H 1142.71 -2.85723 -3.26412 0
M  V30 11928 H 1143.38 -2.58823 -4.8756 0
M  V30 11929 H 1145.85 -0.834918 -4.07637 0
M  V30 11930 H 1144.73 -0.662684 -5.44885 0
M  V30 11931 H 1144.99 0.695507 -4.36595 0
M  V30 11932 N 1144.05 1.41491 -0.694123 0
M  V30 11933 C 1145.46 1.84283 -0.299439 0
M  V30 11934 C 1145.81 1.58081 1.16211 0
M  V30 11935 O 1144.94 1.05051 1.89191 0
M  V30 11936 C 1145.53 3.34522 -0.536696 0
M  V30 11937 C 1144.09 3.7589 -0.195944 0
M  V30 11938 C 1143.24 2.64908 -0.819692 0
M  V30 11939 H 1146.19 1.31063 -0.894884 0
M  V30 11940 H 1146.21 3.79947 0.205062 0
M  V30 11941 H 1145.72 3.53561 -1.6005 0
M  V30 11942 H 1143.82 3.62452 0.863655 0
M  V30 11943 H 1143.94 4.74671 -0.649954 0
M  V30 11944 H 1142.3 2.53476 -0.249412 0
M  V30 11945 H 1143.08 2.86765 -1.88734 0
M  V30 11946 N 1145.53 0.438773 1.51369 0
M  V30 11947 C 1146.77 -0.127401 2.02399 0
M  V30 11948 C 1147.11 -1.42235 1.32223 0
M  V30 11949 O 1146.38 -1.89513 0.437607 0
M  V30 11950 C 1146.66 -0.344673 3.58447 0
M  V30 11951 C 1146.52 0.969027 4.39238 0
M  V30 11952 C 1147.84 -1.11381 4.25773 0
M  V30 11953 H 1144.96 -0.0448281 0.735635 0
M  V30 11954 H 1147.6 0.57805 1.80993 0
M  V30 11955 H 1145.75 -0.945582 3.76817 0
M  V30 11956 H 1147.42 1.60403 4.32514 0
M  V30 11957 H 1145.66 1.57329 4.04265 0
M  V30 11958 H 1146.33 0.771029 5.46589 0
M  V30 11959 H 1148.81 -0.604785 4.11681 0
M  V30 11960 H 1147.69 -1.23459 5.34835 0
M  V30 11961 H 1147.95 -2.14225 3.8673 0
M  V30 11962 N 1147.01 -1.56678 0.170181 0
M  V30 11963 C 1148.25 -1.96849 -0.475064 0
M  V30 11964 C 1148.58 -1.05611 -1.6333 0
M  V30 11965 O 1147.84 -0.0899708 -1.95493 0
M  V30 11966 C 1148.13 -3.43103 -1.00076 0
M  V30 11967 C 1147.8 -4.50881 0.0414538 0
M  V30 11968 C 1146.46 -4.80082 0.327894 0
M  V30 11969 C 1148.81 -5.15791 0.748936 0
M  V30 11970 C 1146.14 -5.71491 1.32722 0
M  V30 11971 C 1148.49 -6.08278 1.73724 0
M  V30 11972 C 1147.16 -6.35847 2.03114 0
M  V30 11973 H 1146.43 -0.72032 -0.173838 0
M  V30 11974 H 1149.08 -1.89701 0.261903 0
M  V30 11975 H 1147.38 -3.47197 -1.81553 0
M  V30 11976 H 1149.08 -3.71525 -1.50899 0
M  V30 11977 H 1145.67 -4.2817 -0.191976 0
M  V30 11978 H 1149.85 -4.93344 0.540852 0
M  V30 11979 H 1145.11 -5.91134 1.56112 0
M  V30 11980 H 1149.28 -6.57643 2.29082 0
M  V30 11981 H 1146.91 -7.06479 2.80698 0
M  V30 11982 N 1148.48 0.103547 -1.57259 0
M  V30 11983 C 1149.73 0.808576 -1.85656 0
M  V30 11984 C 1150.06 1.79143 -0.757502 0
M  V30 11985 O 1149.31 1.941 0.249723 0
M  V30 11986 C 1149.61 1.57946 -3.20605 0
M  V30 11987 C 1149.28 0.739502 -4.44795 0
M  V30 11988 C 1147.94 0.507921 -4.78512 0
M  V30 11989 C 1150.29 0.155034 -5.20969 0
M  V30 11990 C 1147.62 -0.318129 -5.85837 0
M  V30 11991 C 1149.97 -0.658292 -6.29166 0
M  V30 11992 C 1148.64 -0.900044 -6.61404 0
M  V30 11993 H 1147.91 0.295879 -0.679365 0
M  V30 11994 H 1150.55 0.0703604 -1.91371 0
M  V30 11995 H 1148.86 2.38902 -3.10537 0
M  V30 11996 H 1150.56 2.12921 -3.39803 0
M  V30 11997 H 1147.15 0.930103 -4.18386 0
M  V30 11998 H 1151.33 0.32113 -4.9526 0
M  V30 11999 H 1146.59 -0.514495 -6.09231 0
M  V30 12000 H 1150.76 -1.11809 -6.87366 0
M  V30 12001 H 1148.39 -1.54194 -7.44398 0
M  V30 12002 N 1149.96 1.53094 0.37415 0
M  V30 12003 C 1151.24 1.59456 1.13283 0
M  V30 12004 C 1151.62 0.396821 2.07337 0
M  V30 12005 O 1150.97 -0.613659 2.20106 0
M  V30 12006 C 1151.18 2.94069 1.87948 0
M  V30 12007 C 1152.52 3.4834 2.42785 0
M  V30 12008 O 1153.55 2.96042 1.98085 0
M  V30 12009 O 1152.41 4.39747 3.24477 0
M  V30 12010 H 1149.5 0.643731 0.519171 0
M  V30 12011 H 1152.05 1.65434 0.378105 0
M  V30 12012 H 1150.82 3.72685 1.19255 0
M  V30 12013 H 1150.44 2.91544 2.70348 0
M  V30 12014 N 1151.44 -0.633461 1.44309 0
M  V30 12015 C 1152.67 -1.42033 1.50447 0
M  V30 12016 C 1153.08 -1.88362 0.128585 0
M  V30 12017 O 1152.44 -1.60695 -0.865071 0
M  V30 12018 C 1152.49 -2.6422 2.46719 0
M  V30 12019 O 1152.21 -2.19823 3.78958 0
M  V30 12020 C 1153.71 -3.57372 2.62298 0
M  V30 12021 H 1150.93 -0.435667 0.510329 0
M  V30 12022 H 1153.48 -0.774907 1.8925 0
M  V30 12023 H 1151.63 -3.24859 2.11058 0
M  V30 12024 H 1152.05 -2.99022 4.30913 0
M  V30 12025 H 1153.52 -4.39719 3.33693 0
M  V30 12026 H 1154 -4.06026 1.67449 0
M  V30 12027 H 1154.6 -3.02603 2.9885 0
M  V30 12028 N 1152.92 -1.31168 -0.873655 0
M  V30 12029 C 1153.87 -1.18432 -2.00191 0
M  V30 12030 C 1154.86 -0.0934873 -1.69142 0
M  V30 12031 O 1156.07 -0.255126 -1.78183 0
M  V30 12032 H 1152.44 -0.366594 -0.656592 0
M  V30 12033 H 1154.41 -2.13896 -2.08065 0
M  V30 12034 C 1153.16 -0.904668 -3.35725 0
M  V30 12035 H 1152.48 -1.73617 -3.60135 0
M  V30 12036 H 1153.92 -0.855715 -4.15275 0
M  V30 12037 C 1152.38 0.392554 -3.34605 0
M  V30 12038 O 1152.91 1.41052 -3.76121 0
M  V30 12039 N 1151.12 0.40777 -2.87725 0
M  V30 12040 H 1150.67 -0.42112 -2.54134 0
M  V30 12041 H 1150.62 1.27564 -2.87358 0
M  V30 12042 N 1154.4 1.08748 -1.14068 0
M  V30 12043 C 1155.64 1.80707 -0.904947 0
M  V30 12044 C 1155.97 1.86478 0.570167 0
M  V30 12045 O 1155.24 1.35536 1.41445 0
M  V30 12046 H 1153.82 0.669261 -0.331811 0
M  V30 12047 H 1156.48 1.31494 -1.43859 0
M  V30 12048 H 1155.57 2.83653 -1.30182 0
M  V30 12049 N 1155.87 0.935264 1.26849 0
M  V30 12050 C 1157.12 0.580548 1.94313 0
M  V30 12051 C 1157.45 -0.877205 1.73259 0
M  V30 12052 O 1156.73 -1.62679 1.06611 0
M  V30 12053 C 1157.01 0.916445 3.48243 0
M  V30 12054 C 1156.86 2.42851 3.78607 0
M  V30 12055 C 1158.18 0.427665 4.38017 0
M  V30 12056 H 1155.3 0.21239 0.705733 0
M  V30 12057 H 1157.94 1.16841 1.49827 0
M  V30 12058 H 1156.09 0.416169 3.86265 0
M  V30 12059 H 1157.77 3.00106 3.50335 0
M  V30 12060 H 1156.01 2.8745 3.24892 0
M  V30 12061 H 1156.68 2.61405 4.8618 0
M  V30 12062 H 1159.16 0.856525 4.07189 0
M  V30 12063 H 1158.03 0.691571 5.44526 0
M  V30 12064 H 1158.29 -0.672344 4.36958 0
M  V30 12065 N 1157.35 -1.41121 0.701616 0
M  V30 12066 C 1158.77 -1.55162 0.373766 0
M  V30 12067 C 1158.97 -1.6759 -1.11875 0
M  V30 12068 O 1158.02 -1.65768 -1.90465 0
M  V30 12069 C 1159.34 -2.78758 1.12759 0
M  V30 12070 C 1160.89 -2.92561 1.11253 0
M  V30 12071 C 1161.36 -4.19052 1.84822 0
M  V30 12072 N 1162.85 -4.26023 1.81821 0
M  V30 12073 C 1163.59 -5.22771 2.3558 0
M  V30 12074 N 1163.08 -6.25512 2.97836 0
M  V30 12075 N 1164.88 -5.14752 2.25802 0
M  V30 12076 H 1157.03 -1.31299 1.66956 0
M  V30 12077 H 1159.29 -0.633894 0.704898 0
M  V30 12078 H 1159 -2.75804 2.18231 0
M  V30 12079 H 1158.87 -3.70456 0.710095 0
M  V30 12080 H 1161.26 -2.95026 0.0660506 0
M  V30 12081 H 1161.34 -2.0202 1.56913 0
M  V30 12082 H 1160.98 -4.17349 2.89452 0
M  V30 12083 H 1160.91 -5.08577 1.36592 0
M  V30 12084 H 1163.4 -3.52411 1.36438 0
M  V30 12085 H 1163.72 -6.95736 3.36409 0
M  V30 12086 H 1162.06 -6.25997 3.01916 0
M  V30 12087 H 1165.25 -4.33414 1.76833 0
M  V30 12088 H 1165.42 -5.89983 2.68001 0
M  V30 12089 N 1158.83 -0.446794 -1.51134 0
M  V30 12090 C 1160.06 0.114893 -2.06581 0
M  V30 12091 C 1160.47 1.35642 -1.31327 0
M  V30 12092 O 1159.83 1.78595 -0.375506 0
M  V30 12093 C 1159.88 0.427589 -3.58962 0
M  V30 12094 O 1159.6 -0.764669 -4.31375 0
M  V30 12095 C 1161.1 1.03891 -4.30954 0
M  V30 12096 H 1158.32 0.00373031 -0.67099 0
M  V30 12097 H 1160.87 -0.628596 -1.94599 0
M  V30 12098 H 1159.02 1.12099 -3.70827 0
M  V30 12099 H 1159.44 -0.494605 -5.22163 0
M  V30 12100 H 1160.91 1.20764 -5.38628 0
M  V30 12101 H 1161.39 2.02252 -3.8986 0
M  V30 12102 H 1161.99 0.384623 -4.23557 0
M  V30 12103 N 1160.31 1.56586 -0.178487 0
M  V30 12104 C 1161.55 1.9739 0.465306 0
M  V30 12105 C 1161.89 1.06474 1.6241 0
M  V30 12106 O 1161.16 0.113316 1.9417 0
M  V30 12107 C 1161.45 3.47577 0.941408 0
M  V30 12108 C 1161.3 4.49271 -0.218054 0
M  V30 12109 C 1162.62 4.01038 1.81263 0
M  V30 12110 H 1159.74 0.717676 0.167663 0
M  V30 12111 H 1162.38 1.88128 -0.266067 0
M  V30 12112 H 1160.53 3.556 1.56463 0
M  V30 12113 H 1162.2 4.53301 -0.855332 0
M  V30 12114 H 1160.44 4.24936 -0.872441 0
M  V30 12115 H 1161.11 5.51776 0.157315 0
M  V30 12116 H 1163.59 3.9569 1.28718 0
M  V30 12117 H 1162.47 5.06526 2.11476 0
M  V30 12118 H 1162.73 3.45288 2.76096 0
M  V30 12119 N 1161.79 -0.095206 1.57312 0
M  V30 12120 C 1163.2 -0.649733 1.7503 0
M  V30 12121 C 1163.55 -1.7912 0.800652 0
M  V30 12122 O 1162.67 -2.1639 -0.0208831 0
M  V30 12123 C 1163.27 -1.18541 3.17386 0
M  V30 12124 C 1161.83 -1.686 3.36528 0
M  V30 12125 C 1160.97 -0.595531 2.7083 0
M  V30 12126 H 1163.93 0.130863 1.5816 0
M  V30 12127 H 1163.95 -2.05473 3.20252 0
M  V30 12128 H 1163.46 -0.35441 3.86478 0
M  V30 12129 H 1161.56 -2.541 2.72514 0
M  V30 12130 H 1161.67 -1.77907 4.44844 0
M  V30 12131 H 1160.04 -1.03495 2.32725 0
M  V30 12132 H 1160.82 0.224883 3.42563 0
M  V30 12133 N 1163.26 -1.53291 -0.366026 0
M  V30 12134 C 1164.23 -1.79025 -1.43117 0
M  V30 12135 C 1165.23 -0.660676 -1.46601 0
M  V30 12136 O 1166.42 -0.928875 -1.47369 0
M  V30 12137 C 1163.55 -1.91192 -2.82238 0
M  V30 12138 H 1164.74 -2.74154 -1.21572 0
M  V30 12139 H 1162.3 -1.44361 -0.599132 0
M  V30 12140 H 1163.03 -0.98129 -3.09097 0
M  V30 12141 H 1162.82 -2.7335 -2.81109 0
M  V30 12142 H 1164.31 -2.12696 -3.59375 0
M  V30 12143 N 1164.74 0.6258 -1.44643 0
M  V30 12144 C 1166.15 1.20751 -1.42394 0
M  V30 12145 C 1166.5 1.95685 -0.142047 0
M  V30 12146 O 1165.63 2.02715 0.757332 0
M  V30 12147 C 1166.22 2.1964 -2.57961 0
M  V30 12148 C 1164.78 2.73227 -2.5889 0
M  V30 12149 C 1163.93 1.48315 -2.34303 0
M  V30 12150 H 1166.88 0.416162 -1.53146 0
M  V30 12151 H 1166.9 3.02342 -2.31019 0
M  V30 12152 H 1166.41 1.65073 -3.51244 0
M  V30 12153 H 1164.52 3.31782 -1.69563 0
M  V30 12154 H 1164.63 3.18902 -3.57545 0
M  V30 12155 H 1162.99 1.76634 -1.83501 0
M  V30 12156 H 1163.78 0.956427 -3.29708 0
M  V30 12157 N 1166.22 1.31629 0.866686 0
M  V30 12158 C 1167.15 1.13886 1.9775 0
M  V30 12159 C 1168.13 0.0414887 1.62547 0
M  V30 12160 O 1169.32 0.198534 1.87452 0
M  V30 12161 C 1166.44 0.740858 3.30498 0
M  V30 12162 C 1165.49 1.84175 3.84684 0
M  V30 12163 S 1166.32 3.44781 4.09739 0
M  V30 12164 C 1167.48 3.06925 5.45479 0
M  V30 12165 H 1167.71 2.07923 2.12497 0
M  V30 12166 H 1165.24 1.16152 1.01725 0
M  V30 12167 H 1167.2 0.517974 4.07219 0
M  V30 12168 H 1165.86 -0.18045 3.13581 0
M  V30 12169 H 1165.06 1.51597 4.8066 0
M  V30 12170 H 1164.66 2.01986 3.14766 0
M  V30 12171 H 1166.95 2.56022 6.27263 0
M  V30 12172 H 1167.89 4.01877 5.8301 0
M  V30 12173 H 1168.3 2.44276 5.0891 0
M  V30 12174 N 1167.7 -1.08142 1.14644 0
M  V30 12175 C 1168.61 -2.18675 0.849607 0
M  V30 12176 C 1169.63 -1.73158 -0.170983 0
M  V30 12177 O 1170.8 -2.014 0.0011579 0
M  V30 12178 C 1167.87 -3.45084 0.334305 0
M  V30 12179 C 1166.93 -4.05213 1.41779 0
M  V30 12180 C 1166.16 -5.25588 0.926981 0
M  V30 12181 O 1166.38 -5.69934 -0.230522 0
M  V30 12182 O 1165.32 -5.77183 1.70715 0
M  V30 12183 H 1169.14 -2.46542 1.77343 0
M  V30 12184 H 1166.73 -1.17328 0.924911 0
M  V30 12185 H 1168.61 -4.21367 0.0529893 0
M  V30 12186 H 1167.29 -3.18788 -0.561755 0
M  V30 12187 H 1166.19 -3.30507 1.7526 0
M  V30 12188 H 1167.53 -4.35764 2.28847 0
M  V30 12189 N 1169.18 -0.941978 -1.26351 0
M  V30 12190 C 1170.42 -0.589971 -1.93715 0
M  V30 12191 C 1170.75 0.871085 -1.73903 0
M  V30 12192 O 1170.01 1.63864 -1.06991 0
M  V30 12193 C 1170.31 -0.879481 -3.4641 0
M  V30 12194 C 1169.97 -2.32454 -3.86362 0
M  V30 12195 C 1168.63 -2.71957 -3.9698 0
M  V30 12196 C 1170.99 -3.2636 -4.06373 0
M  V30 12197 C 1168.31 -4.04459 -4.25006 0
M  V30 12198 C 1170.67 -4.58459 -4.35887 0
M  V30 12199 C 1169.33 -4.97775 -4.4472 0
M  V30 12200 H 1168.6 -0.215886 -0.708854 0
M  V30 12201 H 1171.25 -1.18863 -1.50146 0
M  V30 12202 H 1169.55 -0.198289 -3.91298 0
M  V30 12203 H 1171.25 -0.585887 -3.96697 0
M  V30 12204 H 1167.84 -2.00814 -3.78645 0
M  V30 12205 H 1172.02 -2.97037 -3.97596 0
M  V30 12206 H 1167.28 -4.34582 -4.30057 0
M  V30 12207 H 1171.45 -5.31213 -4.50317 0
M  V30 12208 H 1169.08 -6.00475 -4.66191 0
M  V30 12209 N 1170.66 1.40747 -0.709091 0
M  V30 12210 C 1171.88 2.05319 -0.255258 0
M  V30 12211 C 1172.3 1.53406 1.10054 0
M  V30 12212 O 1171.66 0.687905 1.69039 0
M  V30 12213 C 1171.71 3.60835 -0.219251 0
M  V30 12214 O 1171.43 4.1083 -1.52151 0
M  V30 12215 C 1172.93 4.42572 0.253927 0
M  V30 12216 H 1170.15 0.660904 -0.115959 0
M  V30 12217 H 1172.69 1.80274 -0.965474 0
M  V30 12218 H 1170.85 3.84872 0.441882 0
M  V30 12219 H 1171.26 5.04979 -1.41764 0
M  V30 12220 H 1172.74 5.51529 0.22798 0
M  V30 12221 H 1173.21 4.19673 1.29504 0
M  V30 12222 H 1173.82 4.23629 -0.376694 0
M  V30 12223 N 1172.13 0.454803 1.50895 0
M  V30 12224 C 1173.38 -0.105562 2.01824 0
M  V30 12225 C 1173.7 -1.41673 1.33992 0
M  V30 12226 O 1172.97 -1.89929 0.479994 0
M  V30 12227 H 1171.55 -0.0420011 0.745818 0
M  V30 12228 H 1174.21 0.601504 1.85386 0
M  V30 12229 H 1173.31 -0.268872 3.1094 0
M  V30 12230 N 1173.61 -1.56489 0.186789 0
M  V30 12231 C 1174.89 -1.89066 -0.501337 0
M  V30 12232 C 1175.27 -1.09906 -1.80233 0
M  V30 12233 O 1174.62 -0.197626 -2.27644 0
M  V30 12234 C 1174.83 -3.41318 -0.728207 0
M  V30 12235 C 1176.17 -4.11379 -1.0513 0
M  V30 12236 O 1177.2 -3.46722 -0.816216 0
M  V30 12237 O 1176.06 -5.25638 -1.49557 0
M  V30 12238 H 1173.15 -0.784966 -0.260303 0
M  V30 12239 H 1175.7 -1.68183 0.226382 0
M  V30 12240 H 1174.47 -3.90834 0.19088 0
M  V30 12241 H 1174.09 -3.67865 -1.50869 0
M  V30 12242 N 1175.09 0.086862 -1.5736 0
M  V30 12243 C 1176.02 1.10538 -2.05678 0
M  V30 12244 C 1177 1.41281 -0.947293 0
M  V30 12245 O 1178.19 1.51169 -1.21908 0
M  V30 12246 C 1175.32 2.42302 -2.48812 0
M  V30 12247 C 1174.27 2.25948 -3.63499 0
M  V30 12248 C 1173.6 3.62961 -3.92637 0
M  V30 12249 C 1174.9 1.69319 -4.94094 0
M  V30 12250 H 1176.59 0.703371 -2.91021 0
M  V30 12251 H 1174.14 0.336895 -1.40004 0
M  V30 12252 H 1176.09 3.13833 -2.81224 0
M  V30 12253 H 1174.81 2.84454 -1.60479 0
M  V30 12254 H 1173.47 1.5686 -3.31347 0
M  V30 12255 H 1173.12 4.02656 -3.01459 0
M  V30 12256 H 1172.82 3.52862 -4.69853 0
M  V30 12257 H 1174.34 4.35946 -4.27531 0
M  V30 12258 H 1175.76 2.30699 -5.24834 0
M  V30 12259 H 1174.15 1.69957 -5.7553 0
M  V30 12260 H 1175.22 0.653318 -4.80479 0
M  V30 12261 N 1176.57 1.53483 0.357892 0
M  V30 12262 C 1177.82 1.69701 1.09754 0
M  V30 12263 C 1178.14 0.455389 1.89608 0
M  V30 12264 O 1177.41 -0.530623 1.88577 0
M  V30 12265 H 1175.99 0.62562 0.408178 0
M  V30 12266 H 1178.65 1.90696 0.402641 0
M  V30 12267 H 1177.74 2.56154 1.78302 0
M  V30 12268 N 1178.05 -0.61812 1.44973 0
M  V30 12269 C 1178.98 -1.74035 1.55673 0
M  V30 12270 C 1179.96 -1.65112 0.4089 0
M  V30 12271 O 1181.14 -1.83673 0.630698 0
M  V30 12272 C 1178.27 -3.1261 1.51303 0
M  V30 12273 C 1177.23 -3.36334 2.64696 0
M  V30 12274 C 1176.55 -4.75072 2.45378 0
M  V30 12275 C 1177.85 -3.27618 4.06772 0
M  V30 12276 H 1179.55 -1.65336 2.49608 0
M  V30 12277 H 1177.09 -0.794003 1.20132 0
M  V30 12278 H 1179.04 -3.90906 1.57388 0
M  V30 12279 H 1177.77 -3.22123 0.538914 0
M  V30 12280 H 1176.43 -2.60423 2.58022 0
M  V30 12281 H 1176.08 -4.81306 1.46129 0
M  V30 12282 H 1175.78 -4.91903 3.21412 0
M  V30 12283 H 1177.3 -5.55582 2.53301 0
M  V30 12284 H 1178.71 -3.95802 4.14746 0
M  V30 12285 H 1177.11 -3.55981 4.83113 0
M  V30 12286 H 1178.18 -2.25219 4.29423 0
M  V30 12287 N 1179.52 -1.32087 -0.859693 0
M  V30 12288 C 1180.77 -1.22119 -1.61033 0
M  V30 12289 C 1181.09 0.218289 -1.93774 0
M  V30 12290 O 1180.36 1.14172 -1.5919 0
M  V30 12291 H 1178.94 -0.448989 -0.597008 0
M  V30 12292 H 1181.6 -1.65545 -1.02863 0
M  V30 12293 H 1180.7 -1.80023 -2.54947 0
M  V30 12294 N 1181 1.07532 -1.15215 0
M  V30 12295 C 1181.95 2.12909 -0.815714 0
M  V30 12296 C 1182.94 1.59662 0.1992 0
M  V30 12297 O 1184.13 1.77 0.000215597 0
M  V30 12298 C 1181.26 3.41945 -0.304717 0
M  V30 12299 C 1180.34 4.0205 -1.34968 0
M  V30 12300 N 1180.73 4.36439 -2.55646 0
M  V30 12301 C 1179.03 4.29498 -1.20199 0
M  V30 12302 C 1179.73 4.84044 -3.22609 0
M  V30 12303 N 1178.71 4.82702 -2.5 0
M  V30 12304 H 1182.51 2.37327 -1.73358 0
M  V30 12305 H 1180.02 1.24952 -1.03734 0
M  V30 12306 H 1182.02 4.16875 -0.0453503 0
M  V30 12307 H 1180.68 3.18971 0.607235 0
M  V30 12308 H 1181.69 4.27184 -2.92804 0
M  V30 12309 H 1178.37 4.16032 -0.349781 0
M  V30 12310 H 1179.76 5.19959 -4.2555 0
M  V30 12311 N 1182.48 0.948665 1.2585 0
M  V30 12312 C 1183.73 0.601125 1.93686 0
M  V30 12313 C 1184.06 -0.858779 1.7418 0
M  V30 12314 O 1183.33 -1.61539 1.0833 0
M  V30 12315 C 1183.62 0.95333 3.47252 0
M  V30 12316 C 1183.47 2.46853 3.7601 0
M  V30 12317 C 1184.79 0.474098 4.37539 0
M  V30 12318 H 1181.91 0.219864 0.703441 0
M  V30 12319 H 1184.55 1.18424 1.48579 0
M  V30 12320 H 1182.7 0.457114 3.85801 0
M  V30 12321 H 1184.37 3.03804 3.47132 0
M  V30 12322 H 1182.62 2.9088 3.21825 0
M  V30 12323 H 1183.29 2.66547 4.83381 0
M  V30 12324 H 1185.76 0.899664 4.06258 0
M  V30 12325 H 1184.64 0.749287 5.43762 0
M  V30 12326 H 1184.9 -0.625961 4.37646 0
M  V30 12327 N 1183.96 -1.40369 0.716545 0
M  V30 12328 C 1185.19 -2.05181 0.266143 0
M  V30 12329 C 1185.6 -1.53988 -1.09239 0
M  V30 12330 O 1184.96 -0.696859 -1.68672 0
M  V30 12331 C 1185.01 -3.60713 0.238384 0
M  V30 12332 O 1184.73 -4.10018 1.54328 0
M  V30 12333 C 1186.23 -4.42701 -0.230453 0
M  V30 12334 H 1183.45 -0.66028 0.119463 0
M  V30 12335 H 1186 -1.7976 0.97502 0
M  V30 12336 H 1184.15 -3.85101 -0.421466 0
M  V30 12337 H 1184.56 -5.0422 1.4444 0
M  V30 12338 H 1186.04 -5.51642 -0.198728 0
M  V30 12339 H 1186.52 -4.20354 -1.27276 0
M  V30 12340 H 1187.12 -4.23423 0.399155 0
M  V30 12341 N 1185.44 -0.462799 -1.50652 0
M  V30 12342 C 1186.69 0.0966838 -2.01468 0
M  V30 12343 C 1187 1.41529 -1.35014 0
M  V30 12344 O 1188.2 2.05923 -1.76941 0
M  V30 12345 C 1186.66 0.222826 -3.5921 0
M  V30 12346 C 1186.27 -1.08686 -4.34616 0
M  V30 12347 C 1188.01 0.734711 -4.18094 0
M  V30 12348 C 1185.92 -0.924964 -5.84122 0
M  V30 12349 H 1184.85 0.0399078 -0.752943 0
M  V30 12350 H 1187.5 -0.596437 -1.73536 0
M  V30 12351 H 1185.88 0.979539 -3.83694 0
M  V30 12352 H 1187.06 -1.85388 -4.21862 0
M  V30 12353 H 1185.37 -1.52922 -3.87303 0
M  V30 12354 H 1187.97 0.872734 -5.2753 0
M  V30 12355 H 1188.31 1.72389 -3.7893 0
M  V30 12356 H 1188.84 0.0356139 -3.97784 0
M  V30 12357 H 1185.58 -1.88727 -6.27744 0
M  V30 12358 H 1185.1 -0.198181 -5.99473 0
M  V30 12359 H 1186.78 -0.588262 -6.4432 0
M  V30 12360 N 1186.91 1.56388 -0.195085 0
M  V30 12361 C 1188.33 1.58788 0.160758 0
M  V30 12362 C 1188.53 1.21125 1.61031 0
M  V30 12363 O 1187.59 0.933994 2.34591 0
M  V30 12364 C 1188.9 3.00366 -0.141588 0
M  V30 12365 C 1190.45 3.12893 -0.0816947 0
M  V30 12366 C 1190.92 4.56604 -0.35735 0
M  V30 12367 N 1192.41 4.62188 -0.305968 0
M  V30 12368 C 1193.15 5.71276 -0.493108 0
M  V30 12369 N 1192.64 6.8883 -0.740595 0
M  V30 12370 N 1194.44 5.60473 -0.427365 0
M  V30 12371 H 1186.59 1.79151 -1.14099 0
M  V30 12372 H 1188.85 0.831446 -0.455413 0
M  V30 12373 H 1188.56 3.32483 -1.14666 0
M  V30 12374 H 1188.43 3.73082 0.555834 0
M  V30 12375 H 1190.82 2.80589 0.913978 0
M  V30 12376 H 1190.9 2.42564 -0.812193 0
M  V30 12377 H 1190.54 4.8962 -1.35034 0
M  V30 12378 H 1190.47 5.25124 0.394036 0
M  V30 12379 H 1192.96 3.77705 -0.121298 0
M  V30 12380 H 1193.28 7.67862 -0.872201 0
M  V30 12381 H 1191.62 6.90637 -0.777488 0
M  V30 12382 H 1194.81 4.67513 -0.234436 0
M  V30 12383 H 1194.99 6.45429 -0.576627 0
M  V30 12384 N 1188.39 -0.0785156 1.57404 0
M  V30 12385 C 1189.36 -1.07835 2.02248 0
M  V30 12386 C 1190.36 -1.31987 0.918475 0
M  V30 12387 O 1191.55 -1.27821 1.18353 0
M  V30 12388 C 1188.68 -2.42361 2.39737 0
M  V30 12389 H 1189.87 -0.691995 2.91807 0
M  V30 12390 H 1187.42 -0.32405 1.52904 0
M  V30 12391 H 1188.16 -2.85841 1.53183 0
M  V30 12392 H 1187.94 -2.26174 3.20293 0
M  V30 12393 H 1189.43 -3.14241 2.75031 0
M  V30 12394 N 1189.87 -1.5367 -0.349747 0
M  V30 12395 C 1191.1 -1.74858 -1.11532 0
M  V30 12396 C 1191.52 -0.483591 -1.81777 0
M  V30 12397 O 1190.88 0.563399 -1.72324 0
M  V30 12398 C 1190.93 -2.92479 -2.10923 0
M  V30 12399 O 1190.03 -2.62194 -3.18321 0
M  V30 12400 H 1189.37 -0.580219 -0.322865 0
M  V30 12401 H 1191.9 -2.00611 -0.402033 0
M  V30 12402 H 1191.91 -3.19093 -2.54252 0
M  V30 12403 H 1190.59 -3.84228 -1.59191 0
M  V30 12404 H 1189.16 -2.46448 -2.79853 0
M  V30 12405 N 1191.35 0.610423 -1.45298 0
M  V30 12406 C 1192.58 1.39621 -1.52688 0
M  V30 12407 C 1192.99 1.88133 -0.158535 0
M  V30 12408 O 1192.35 1.62051 0.839396 0
M  V30 12409 C 1192.4 2.60261 -2.50891 0
M  V30 12410 O 1192.12 2.13766 -3.82408 0
M  V30 12411 C 1193.62 3.53154 -2.6795 0
M  V30 12412 H 1190.84 0.427493 -0.517195 0
M  V30 12413 H 1193.39 0.744701 -1.90459 0
M  V30 12414 H 1191.54 3.2146 -2.162 0
M  V30 12415 H 1191.95 2.92128 -4.35616 0
M  V30 12416 H 1193.43 4.34355 -3.40647 0
M  V30 12417 H 1193.91 4.03311 -1.73888 0
M  V30 12418 H 1194.51 2.9781 -3.03627 0
M  V30 12419 N 1192.83 1.32541 0.852676 0
M  V30 12420 C 1194.05 1.2636 1.64462 0
M  V30 12421 C 1194.48 -0.16508 1.87374 0
M  V30 12422 O 1193.83 -1.11712 1.42794 0
M  V30 12423 C 1193.88 2.03052 2.97997 0
M  V30 12424 O 1192.99 1.37967 3.88637 0
M  V30 12425 H 1192.33 0.435393 0.501327 0
M  V30 12426 H 1194.86 1.74888 1.06186 0
M  V30 12427 H 1194.87 2.133 3.47803 0
M  V30 12428 H 1193.54 3.06941 2.80642 0
M  V30 12429 H 1192.12 1.36279 3.47106 0
M  V30 12430 N 1194.3 -1.0692 1.15784 0
M  V30 12431 C 1195.53 -1.83849 0.959903 0
M  V30 12432 C 1195.95 -1.8169 -0.486873 0
M  V30 12433 O 1195.31 -1.21305 -1.34739 0
M  V30 12434 C 1195.36 -3.28642 1.48414 0
M  V30 12435 O 1194.46 -4.0665 0.686249 0
M  V30 12436 H 1193.81 -0.569115 0.342059 0
M  V30 12437 H 1196.34 -1.34851 1.53871 0
M  V30 12438 H 1196.35 -3.7947 1.49888 0
M  V30 12439 H 1195.02 -3.29529 2.53739 0
M  V30 12440 H 1193.6 -3.65453 0.741501 0
M  V30 12441 N 1195.78 -0.955326 -1.25345 0
M  V30 12442 C 1196.73 -0.467205 -2.2786 0
M  V30 12443 C 1197.72 0.462873 -1.62954 0
M  V30 12444 O 1198.93 0.339526 -1.76769 0
M  V30 12445 H 1195.31 -0.132586 -0.74022 0
M  V30 12446 H 1197.28 -1.34406 -2.66416 0
M  V30 12447 C 1196.03 0.238898 -3.46878 0
M  V30 12448 H 1195.35 -0.467644 -3.97056 0
M  V30 12449 H 1196.79 0.544444 -4.2049 0
M  V30 12450 C 1195.25 1.46164 -3.03542 0
M  V30 12451 O 1195.78 2.55933 -3.09615 0
M  V30 12452 N 1193.98 1.32324 -2.58725 0
M  V30 12453 H 1193.53 0.430131 -2.53984 0
M  V30 12454 H 1193.49 2.14253 -2.30094 0
M  V30 12455 N 1197.26 1.39987 -0.723979 0
M  V30 12456 C 1198.51 1.99964 -0.26406 0
M  V30 12457 C 1198.82 1.58084 1.1519 0
M  V30 12458 O 1200.03 2.10819 1.71077 0
M  V30 12459 C 1198.49 3.57427 -0.421174 0
M  V30 12460 C 1198.09 4.08276 -1.84432 0
M  V30 12461 C 1199.84 4.24494 -0.0224734 0
M  V30 12462 C 1197.74 5.58272 -1.95157 0
M  V30 12463 H 1196.67 0.747995 -0.0949728 0
M  V30 12464 H 1199.33 1.60122 -0.896276 0
M  V30 12465 H 1197.71 3.95011 0.279762 0
M  V30 12466 H 1198.88 3.82051 -2.57631 0
M  V30 12467 H 1197.2 3.53834 -2.19523 0
M  V30 12468 H 1199.79 5.34637 -0.0817744 0
M  V30 12469 H 1200.14 4.03593 1.02069 0
M  V30 12470 H 1200.67 3.92046 -0.67416 0
M  V30 12471 H 1197.41 5.84038 -2.97623 0
M  V30 12472 H 1196.93 5.86335 -1.2638 0
M  V30 12473 H 1198.61 6.23509 -1.72759 0
M  V30 12474 N 1198.74 0.470782 1.50404 0
M  V30 12475 C 1200.16 0.124919 1.5911 0
M  V30 12476 C 1200.36 -1.36855 1.47895 0
M  V30 12477 O 1199.41 -2.1418 1.33728 0
M  V30 12478 C 1200.72 0.674839 2.9303 0
M  V30 12479 C 1202.27 0.638239 3.06424 0
M  V30 12480 C 1202.75 1.1657 4.42917 0
M  V30 12481 N 1204.24 1.1251 4.49328 0
M  V30 12482 C 1204.97 1.50373 5.53331 0
M  V30 12483 N 1204.47 1.95684 6.6459 0
M  V30 12484 N 1206.26 1.41978 5.43874 0
M  V30 12485 H 1198.41 1.44212 1.55938 0
M  V30 12486 H 1200.68 0.596354 0.73693 0
M  V30 12487 H 1200.38 1.72106 3.06712 0
M  V30 12488 H 1200.26 0.118234 3.77015 0
M  V30 12489 H 1202.64 -0.399075 2.92389 0
M  V30 12490 H 1202.72 1.23164 2.24197 0
M  V30 12491 H 1202.37 2.20164 4.57701 0
M  V30 12492 H 1202.3 0.548513 5.23736 0
M  V30 12493 H 1204.79 0.79276 3.69491 0
M  V30 12494 H 1205.1 2.22724 7.40009 0
M  V30 12495 H 1203.45 1.99636 6.65711 0
M  V30 12496 H 1206.64 1.0642 4.55842 0
M  V30 12497 H 1206.81 1.71812 6.24808 0
M  V30 12498 N 1200.22 -1.56282 0.203376 0
M  V30 12499 C 1201.44 -2.02643 -0.441658 0
M  V30 12500 C 1201.87 -1.0825 -1.5383 0
M  V30 12501 O 1201.23 -0.0674337 -1.81175 0
M  V30 12502 C 1201.27 -3.47382 -0.967369 0
M  V30 12503 O 1200.38 -3.56115 -2.07981 0
M  V30 12504 H 1199.72 -0.656081 -0.102242 0
M  V30 12505 H 1202.25 -2.02134 0.316684 0
M  V30 12506 H 1202.26 -3.8734 -1.28186 0
M  V30 12507 H 1200.93 -4.15574 -0.164625 0
M  V30 12508 H 1199.51 -3.28035 -1.77334 0
M  V30 12509 N 1201.7 0.070167 -1.57444 0
M  V30 12510 C 1202.61 1.10106 -2.07157 0
M  V30 12511 C 1203.62 1.42293 -1.00143 0
M  V30 12512 O 1204.8 1.52437 -1.31624 0
M  V30 12513 C 1201.86 2.39486 -2.50694 0
M  V30 12514 C 1200.92 2.14255 -3.72012 0
M  V30 12515 C 1200.16 3.37466 -4.13464 0
M  V30 12516 O 1200.38 4.46645 -3.54773 0
M  V30 12517 O 1199.31 3.25583 -5.0624 0
M  V30 12518 H 1203.14 0.70873 -2.95315 0
M  V30 12519 H 1200.72 0.28441 -1.46668 0
M  V30 12520 H 1202.61 3.15625 -2.79212 0
M  V30 12521 H 1201.28 2.78095 -1.65664 0
M  V30 12522 H 1200.19 1.35816 -3.48575 0
M  V30 12523 H 1201.52 1.80525 -4.57899 0
M  V30 12524 N 1203.17 1.53854 0.341593 0
M  V30 12525 C 1204.42 1.71447 1.08322 0
M  V30 12526 C 1204.75 0.477289 1.88243 0
M  V30 12527 O 1204.03 -0.525695 1.87261 0
M  V30 12528 C 1204.31 2.97917 2.02281 0
M  V30 12529 C 1204.16 4.31847 1.25809 0
M  V30 12530 C 1205.48 3.20065 3.0207 0
M  V30 12531 H 1202.6 0.623847 0.392408 0
M  V30 12532 H 1205.24 1.86527 0.361594 0
M  V30 12533 H 1203.39 2.85191 2.63815 0
M  V30 12534 H 1205.07 4.56427 0.668737 0
M  V30 12535 H 1203.31 4.30169 0.560119 0
M  V30 12536 H 1203.98 5.16522 1.94704 0
M  V30 12537 H 1206.46 3.32135 2.50651 0
M  V30 12538 H 1205.33 4.09947 3.65013 0
M  V30 12539 H 1205.59 2.36452 3.73554 0
M  V30 12540 N 1204.65 -0.602709 1.4562 0
M  V30 12541 C 1205.58 -1.72374 1.5751 0
M  V30 12542 C 1206.56 -1.64669 0.426389 0
M  V30 12543 O 1207.75 -1.82994 0.650143 0
M  V30 12544 C 1204.88 -3.10987 1.5461 0
M  V30 12545 C 1203.83 -3.33507 2.68248 0
M  V30 12546 C 1203.16 -4.72443 2.50403 0
M  V30 12547 C 1204.46 -3.23285 4.10224 0
M  V30 12548 H 1206.15 -1.62679 2.51348 0
M  V30 12549 H 1203.7 -0.781217 1.20967 0
M  V30 12550 H 1205.65 -3.89214 1.61525 0
M  V30 12551 H 1204.37 -3.21533 0.573049 0
M  V30 12552 H 1203.03 -2.57672 2.60769 0
M  V30 12553 H 1202.68 -4.79729 1.51226 0
M  V30 12554 H 1202.38 -4.88466 3.26611 0
M  V30 12555 H 1203.91 -5.52864 2.59179 0
M  V30 12556 H 1205.32 -3.91381 4.1892 0
M  V30 12557 H 1203.72 -3.50837 4.86861 0
M  V30 12558 H 1204.79 -2.20652 4.31788 0
M  V30 12559 N 1206.13 -1.32992 -0.845635 0
M  V30 12560 C 1207.06 -1.17018 -1.95913 0
M  V30 12561 C 1208.04 -0.0673433 -1.6246 0
M  V30 12562 O 1209.22 -0.22833 -1.87112 0
M  V30 12563 C 1206.35 -0.793343 -3.29278 0
M  V30 12564 C 1205.4 -1.90271 -3.81705 0
M  V30 12565 S 1206.23 -3.51256 -4.04202 0
M  V30 12566 C 1207.39 -3.15564 -5.40528 0
M  V30 12567 H 1207.62 -2.11278 -2.09163 0
M  V30 12568 H 1205.15 -1.17756 -0.998644 0
M  V30 12569 H 1207.11 -0.582694 -4.06343 0
M  V30 12570 H 1205.77 0.130539 -3.13829 0
M  V30 12571 H 1204.96 -1.59225 -4.78188 0
M  V30 12572 H 1204.57 -2.06968 -3.11513 0
M  V30 12573 H 1206.86 -2.65969 -6.23111 0
M  V30 12574 H 1207.8 -4.11102 -5.76542 0
M  V30 12575 H 1208.21 -2.52341 -5.04959 0
M  V30 12576 N 1207.61 1.06304 -1.1635 0
M  V30 12577 C 1208.52 2.17296 -0.884289 0
M  V30 12578 C 1209.53 1.73408 0.143414 0
M  V30 12579 O 1210.71 2.01373 -0.0331987 0
M  V30 12580 C 1207.77 3.44509 -0.389163 0
M  V30 12581 C 1206.84 4.02906 -1.48208 0
M  V30 12582 C 1206.07 5.24047 -1.01048 0
M  V30 12583 O 1206.29 5.70229 0.139821 0
M  V30 12584 O 1205.23 5.74394 -1.79876 0
M  V30 12585 H 1209.05 2.4369 -1.81243 0
M  V30 12586 H 1206.64 1.15841 -0.943459 0
M  V30 12587 H 1208.52 4.21229 -0.120018 0
M  V30 12588 H 1207.19 3.19642 0.510968 0
M  V30 12589 H 1206.1 3.27677 -1.80496 0
M  V30 12590 H 1207.43 4.32068 -2.35751 0
M  V30 12591 N 1209.09 0.96196 1.24836 0
M  V30 12592 C 1210.33 0.619489 1.92371 0
M  V30 12593 C 1210.65 -0.847233 1.75633 0
M  V30 12594 O 1209.92 -1.60419 1.12439 0
M  V30 12595 H 1208.5 0.226129 0.711951 0
M  V30 12596 H 1211.17 1.22179 1.5185 0
M  V30 12597 H 1210.26 0.855128 3.00157 0
M  V30 12598 N 1210.56 -1.39601 0.731392 0
M  V30 12599 C 1211.47 -2.34425 0.090527 0
M  V30 12600 C 1212.49 -1.58131 -0.725992 0
M  V30 12601 O 1213.67 -1.90441 -0.655294 0
M  V30 12602 C 1210.73 -3.37138 -0.808624 0
M  V30 12603 C 1209.79 -4.29295 0.0197365 0
M  V30 12604 C 1209.02 -5.27102 -0.836593 0
M  V30 12605 O 1209.25 -5.31302 -2.07543 0
M  V30 12606 O 1208.18 -6.01307 -0.267172 0
M  V30 12607 H 1212.01 -2.9088 0.873084 0
M  V30 12608 H 1209.59 -1.41066 0.492024 0
M  V30 12609 H 1211.47 -4.00087 -1.32319 0
M  V30 12610 H 1210.15 -2.83074 -1.57006 0
M  V30 12611 H 1209.06 -3.69581 0.579744 0
M  V30 12612 H 1210.39 -4.86555 0.743308 0
M  V30 12613 N 1212.04 -0.478751 -1.50152 0
M  V30 12614 C 1213.27 0.0709455 -2.06478 0
M  V30 12615 C 1213.68 1.33376 -1.34192 0
M  V30 12616 O 1213.02 1.79133 -0.40707 0
M  V30 12617 C 1213.09 0.417322 -3.5707 0
M  V30 12618 C 1212.75 -0.744563 -4.50894 0
M  V30 12619 C 1213.75 -1.62879 -4.93727 0
M  V30 12620 C 1211.43 -0.937062 -4.93482 0
M  V30 12621 C 1213.43 -2.68985 -5.77863 0
M  V30 12622 C 1211.11 -2.00134 -5.77399 0
M  V30 12623 C 1212.11 -2.87609 -6.19492 0
M  V30 12624 O 1211.8 -3.92203 -7.01735 0
M  V30 12625 H 1211.53 -0.00720177 -0.675962 0
M  V30 12626 H 1214.08 -0.668797 -1.94207 0
M  V30 12627 H 1212.31 1.21036 -3.6727 0
M  V30 12628 H 1214 0.903002 -3.95728 0
M  V30 12629 H 1214.77 -1.49179 -4.61488 0
M  V30 12630 H 1210.65 -0.265636 -4.60234 0
M  V30 12631 H 1214.19 -3.37293 -6.10639 0
M  V30 12632 H 1210.09 -2.13837 -6.09052 0
M  V30 12633 H 1210.86 -3.89284 -7.2 0
M  V30 12634 N 1213.52 1.56172 -0.211661 0
M  V30 12635 C 1214.77 1.97648 0.421871 0
M  V30 12636 C 1215.09 1.10026 1.60995 0
M  V30 12637 O 1214.36 0.175109 1.95116 0
M  V30 12638 H 1212.94 0.729914 0.158852 0
M  V30 12639 H 1215.6 1.92542 -0.302254 0
M  V30 12640 H 1214.7 3.02834 0.754868 0
M  V30 12641 N 1215 -0.0618163 1.57479 0
M  V30 12642 C 1216.25 -0.759069 1.87735 0
M  V30 12643 C 1216.57 -1.77071 0.804732 0
M  V30 12644 O 1215.83 -1.94694 -0.198173 0
M  V30 12645 C 1216.13 -1.4939 3.2468 0
M  V30 12646 C 1215.79 -0.621312 4.46599 0
M  V30 12647 C 1214.46 -0.380873 4.7969 0
M  V30 12648 C 1216.81 -0.0168537 5.21197 0
M  V30 12649 C 1214.14 0.473341 5.84787 0
M  V30 12650 C 1216.49 0.824872 6.27199 0
M  V30 12651 C 1215.15 1.07509 6.58785 0
M  V30 12652 H 1214.42 -0.277763 0.686971 0
M  V30 12653 H 1217.07 -0.0195971 1.9149 0
M  V30 12654 H 1215.37 -2.30584 3.16762 0
M  V30 12655 H 1217.07 -2.03837 3.45328 0
M  V30 12656 H 1213.66 -0.818848 4.20705 0
M  V30 12657 H 1217.84 -0.189707 4.95937 0
M  V30 12658 H 1213.1 0.675842 6.07653 0
M  V30 12659 H 1217.27 1.29993 6.8416 0
M  V30 12660 H 1214.9 1.73876 7.40048 0
M  V30 12661 N 1216.48 -1.54033 -0.333429 0
M  V30 12662 C 1217.73 -1.70979 -1.07 0
M  V30 12663 C 1218.04 -0.485095 -1.89489 0
M  V30 12664 O 1219.24 -0.535712 -2.66162 0
M  V30 12665 C 1217.7 -3.02382 -1.95175 0
M  V30 12666 C 1217.31 -4.32223 -1.17844 0
M  V30 12667 C 1219.05 -3.28693 -2.68628 0
M  V30 12668 C 1216.96 -5.54693 -2.05109 0
M  V30 12669 H 1215.89 -0.637152 -0.403179 0
M  V30 12670 H 1218.54 -1.80529 -0.328839 0
M  V30 12671 H 1216.92 -2.86714 -2.73151 0
M  V30 12672 H 1218.1 -4.58626 -0.447089 0
M  V30 12673 H 1216.41 -4.12601 -0.561166 0
M  V30 12674 H 1219.01 -4.17385 -3.34207 0
M  V30 12675 H 1219.35 -2.46141 -3.35738 0
M  V30 12676 H 1219.88 -3.45183 -1.9772 0
M  V30 12677 H 1216.62 -6.39818 -1.42523 0
M  V30 12678 H 1216.14 -5.32524 -2.76005 0
M  V30 12679 H 1217.82 -5.90722 -2.63926 0
M  V30 12680 N 1217.95 0.594978 -1.45938 0
M  V30 12681 C 1219.2 1.35093 -1.50314 0
M  V30 12682 C 1219.52 1.94412 -0.151315 0
M  V30 12683 O 1218.79 1.77876 0.820787 0
M  V30 12684 H 1217.37 0.501549 -0.553586 0
M  V30 12685 H 1220.04 0.697735 -1.81983 0
M  V30 12686 H 1219.13 2.16393 -2.24901 0
M  V30 12687 N 1219.43 1.33438 0.838571 0
M  V30 12688 C 1220.38 1.23717 1.94841 0
M  V30 12689 C 1221.35 0.11573 1.65696 0
M  V30 12690 O 1222.53 0.294051 1.8852 0
M  V30 12691 C 1219.67 0.982626 3.30815 0
M  V30 12692 C 1218.79 2.19036 3.72354 0
M  V30 12693 C 1217.92 1.86995 4.97199 0
M  V30 12694 C 1216.96 3.03998 5.31274 0
M  V30 12695 N 1216.1 2.71943 6.47295 0
M  V30 12696 H 1220.94 2.18639 2.02487 0
M  V30 12697 H 1218.48 1.08721 0.990861 0
M  V30 12698 H 1220.43 0.81548 4.09152 0
M  V30 12699 H 1219.06 0.0701443 3.22724 0
M  V30 12700 H 1218.12 2.46724 2.89537 0
M  V30 12701 H 1219.43 3.06505 3.93518 0
M  V30 12702 H 1218.58 1.66925 5.83285 0
M  V30 12703 H 1217.32 0.967628 4.78004 0
M  V30 12704 H 1216.33 3.24681 4.43692 0
M  V30 12705 H 1217.55 3.94985 5.52416 0
M  V30 12706 H 1215.5 1.8427 6.29588 0
M  V30 12707 H 1215.41 3.52943 6.68556 0
M  V30 12708 H 1216.68 2.55342 7.36492 0
M  V30 12709 N 1220.91 -1.05686 1.16912 0
M  V30 12710 C 1222.14 -1.82821 0.979348 0
M  V30 12711 C 1222.56 -1.82196 -0.467575 0
M  V30 12712 O 1221.92 -1.22727 -1.33445 0
M  V30 12713 C 1221.97 -3.2705 1.51891 0
M  V30 12714 O 1221.07 -4.05899 0.729341 0
M  V30 12715 H 1220.41 -0.565455 0.348076 0
M  V30 12716 H 1222.94 -1.33211 1.55293 0
M  V30 12717 H 1222.95 -3.77859 1.53904 0
M  V30 12718 H 1221.63 -3.26819 2.5722 0
M  V30 12719 H 1220.2 -3.64646 0.780221 0
M  V30 12720 N 1222.39 -0.968567 -1.24324 0
M  V30 12721 C 1223.64 -0.626519 -1.91723 0
M  V30 12722 C 1223.95 0.84225 -1.76538 0
M  V30 12723 O 1225.16 1.29486 -2.38633 0
M  V30 12724 C 1223.61 -1.06992 -3.43629 0
M  V30 12725 C 1223.22 -2.5622 -3.67499 0
M  V30 12726 C 1224.96 -0.801057 -4.16873 0
M  V30 12727 C 1222.87 -2.94288 -5.1298 0
M  V30 12728 H 1221.8 -0.23062 -0.717865 0
M  V30 12729 H 1224.45 -1.17489 -1.40956 0
M  V30 12730 H 1222.83 -0.44985 -3.93437 0
M  V30 12731 H 1224.01 -3.23364 -3.28287 0
M  V30 12732 H 1222.32 -2.80726 -3.07542 0
M  V30 12733 H 1224.92 -1.06147 -5.24058 0
M  V30 12734 H 1225.26 0.262742 -4.1547 0
M  V30 12735 H 1225.8 -1.38213 -3.73017 0
M  V30 12736 H 1222.54 -3.99743 -5.19506 0
M  V30 12737 H 1222.06 -2.31829 -5.53187 0
M  V30 12738 H 1223.73 -2.84242 -5.81219 0
M  V30 12739 N 1223.87 1.39211 -0.738786 0
M  V30 12740 C 1225.28 1.83237 -0.357916 0
M  V30 12741 C 1225.63 1.61698 1.11123 0
M  V30 12742 O 1224.75 1.11017 1.85753 0
M  V30 12743 C 1225.35 3.32645 -0.64285 0
M  V30 12744 C 1223.91 3.75076 -0.315432 0
M  V30 12745 C 1223.05 2.62166 -0.903556 0
M  V30 12746 H 1226.01 1.2815 -0.936127 0
M  V30 12747 H 1226.03 3.80407 0.0840812 0
M  V30 12748 H 1225.54 3.4829 -1.71218 0
M  V30 12749 H 1223.64 3.65017 0.747907 0
M  V30 12750 H 1223.75 4.72363 -0.800638 0
M  V30 12751 H 1222.12 2.52554 -0.329927 0
M  V30 12752 H 1222.9 2.80616 -1.97761 0
M  V30 12753 N 1225.34 0.486708 1.49896 0
M  V30 12754 C 1226.57 -0.0600816 2.06813 0
M  V30 12755 C 1226.99 -1.32112 1.34877 0
M  V30 12756 O 1226.34 -1.77537 0.422725 0
M  V30 12757 C 1226.4 -0.332266 3.5997 0
M  V30 12758 O 1226.12 0.878771 4.29196 0
M  V30 12759 C 1227.62 -0.924289 4.33557 0
M  V30 12760 H 1224.84 0.0140611 0.670853 0
M  V30 12761 H 1227.38 0.67997 1.92864 0
M  V30 12762 H 1225.54 -1.02227 3.73669 0
M  V30 12763 H 1225.95 0.632873 5.20668 0
M  V30 12764 H 1227.42 -1.06441 5.4164 0
M  V30 12765 H 1227.9 -1.91844 3.95085 0
M  V30 12766 H 1228.51 -0.272189 4.24428 0
M  V30 12767 N 1226.82 -1.56058 0.219941 0
M  V30 12768 C 1228.1 -1.90087 -0.46112 0
M  V30 12769 C 1228.48 -1.13705 -1.77861 0
M  V30 12770 O 1227.83 -0.245868 -2.27173 0
M  V30 12771 C 1228.04 -3.42786 -0.655644 0
M  V30 12772 C 1229.39 -4.13517 -0.963803 0
M  V30 12773 O 1230.41 -3.48376 -0.742488 0
M  V30 12774 O 1229.27 -5.28692 -1.38374 0
M  V30 12775 H 1226.36 -0.790311 -0.243595 0
M  V30 12776 H 1228.91 -1.67665 0.262005 0
M  V30 12777 H 1227.68 -3.90341 0.273738 0
M  V30 12778 H 1227.3 -3.70982 -1.43032 0
M  V30 12779 N 1228.3 0.053464 -1.57509 0
M  V30 12780 C 1229.25 1.08014 -2.05999 0
M  V30 12781 C 1230.24 1.38958 -0.968862 0
M  V30 12782 O 1231.45 1.3815 -1.15389 0
M  V30 12783 H 1227.82 0.36575 -0.657062 0
M  V30 12784 H 1229.8 0.645169 -2.91342 0
M  V30 12785 C 1228.54 2.38004 -2.53475 0
M  V30 12786 H 1227.87 2.15048 -3.37038 0
M  V30 12787 H 1229.31 3.08244 -2.91138 0
M  V30 12788 C 1227.77 3.05259 -1.42543 0
M  V30 12789 O 1228.3 3.94097 -0.777832 0
M  V30 12790 N 1226.5 2.66182 -1.16599 0
M  V30 12791 H 1226.05 1.94027 -1.69444 0
M  V30 12792 H 1226.01 3.11503 -0.42585 0
M  V30 12793 N 1229.78 1.54207 0.325255 0
M  V30 12794 C 1231.19 1.63587 0.899793 0
M  V30 12795 C 1231.54 0.528851 1.88938 0
M  V30 12796 O 1230.67 -0.33852 2.13736 0
M  V30 12797 C 1231.26 2.9653 1.63877 0
M  V30 12798 C 1229.82 3.08111 2.16205 0
M  V30 12799 C 1228.97 2.59144 0.986903 0
M  V30 12800 H 1231.92 1.58366 0.102883 0
M  V30 12801 H 1231.94 2.86595 2.50287 0
M  V30 12802 H 1231.45 3.7708 0.918279 0
M  V30 12803 H 1229.55 2.32232 2.91375 0
M  V30 12804 H 1229.67 4.13885 2.41322 0
M  V30 12805 H 1228.03 2.14997 1.36558 0
M  V30 12806 H 1228.81 3.4215 0.28076 0
M  V30 12807 N 1231.26 -0.58723 1.46251 0
M  V30 12808 C 1232.22 -1.67863 1.5606 0
M  V30 12809 C 1233.22 -1.54715 0.438162 0
M  V30 12810 O 1234.41 -1.59415 0.702323 0
M  V30 12811 C 1231.54 -3.07262 1.47659 0
M  V30 12812 H 1232.74 -1.60525 2.53321 0
M  V30 12813 H 1230.29 -0.804691 1.33994 0
M  V30 12814 H 1231.02 -3.20159 0.5166 0
M  V30 12815 H 1230.81 -3.18213 2.29092 0
M  V30 12816 H 1232.3 -3.8672 1.57599 0
M  V30 12817 N 1232.74 -1.33881 -0.831482 0
M  V30 12818 C 1233.98 -1.25507 -1.58406 0
M  V30 12819 C 1234.3 0.177137 -1.94194 0
M  V30 12820 O 1233.57 1.10769 -1.61576 0
M  V30 12821 H 1232.15 -0.461551 -0.587349 0
M  V30 12822 H 1234.82 -1.6769 -0.99328 0
M  V30 12823 H 1233.91 -1.85391 -2.51071 0
M  V30 12824 N 1234.21 1.05064 -1.1747 0
M  V30 12825 C 1235.15 2.12842 -0.850344 0
M  V30 12826 C 1236.16 1.62128 0.147796 0
M  V30 12827 O 1237.35 1.78327 -0.0786774 0
M  V30 12828 C 1234.45 3.37995 -0.247486 0
M  V30 12829 C 1233.62 4.17981 -1.28881 0
M  V30 12830 C 1232.68 5.21476 -0.703476 0
M  V30 12831 O 1231.71 5.52327 -1.37561 0
M  V30 12832 N 1232.91 5.78309 0.50387 0
M  V30 12833 H 1235.67 2.41264 -1.77797 0
M  V30 12834 H 1233.23 1.21172 -1.07373 0
M  V30 12835 H 1235.23 4.04394 0.157424 0
M  V30 12836 H 1233.8 3.07097 0.583952 0
M  V30 12837 H 1233.02 3.47054 -1.86942 0
M  V30 12838 H 1234.3 4.6822 -1.99116 0
M  V30 12839 H 1233.7 5.5553 1.06787 0
M  V30 12840 H 1232.26 6.46223 0.850828 0
M  V30 12841 N 1235.69 0.975146 1.23809 0
M  V30 12842 C 1237.11 0.682899 1.44252 0
M  V30 12843 C 1237.31 -0.752739 1.86912 0
M  V30 12844 O 1236.36 -1.52579 2.01186 0
M  V30 12845 C 1237.68 1.67335 2.49839 0
M  V30 12846 C 1239.22 1.6868 2.63659 0
M  V30 12847 C 1239.7 2.66542 3.72451 0
M  V30 12848 N 1241.19 2.65028 3.79887 0
M  V30 12849 C 1241.93 3.37421 4.63611 0
M  V30 12850 N 1241.42 4.19355 5.51465 0
M  V30 12851 N 1243.21 3.2621 4.57759 0
M  V30 12852 H 1235.37 1.9026 0.94418 0
M  V30 12853 H 1237.63 0.819543 0.476502 0
M  V30 12854 H 1237.33 2.69978 2.25399 0
M  V30 12855 H 1237.21 1.45201 3.48133 0
M  V30 12856 H 1239.6 0.667438 2.87453 0
M  V30 12857 H 1239.68 1.94878 1.65699 0
M  V30 12858 H 1239.32 3.68617 3.49405 0
M  V30 12859 H 1239.25 2.3762 4.69941 0
M  V30 12860 H 1241.74 2.05562 3.171 0
M  V30 12861 H 1242.05 4.71461 6.12327 0
M  V30 12862 H 1240.4 4.23447 5.51106 0
M  V30 12863 H 1243.59 2.61656 3.88142 0
M  V30 12864 H 1243.76 3.82889 5.22781 0
M  V30 12865 N 1237.17 -1.38817 0.746158 0
M  V30 12866 C 1238.42 -1.99519 0.295839 0
M  V30 12867 C 1238.73 -1.59897 -1.12661 0
M  V30 12868 O 1239.94 -2.13514 -1.67702 0
M  V30 12869 C 1238.39 -3.56712 0.477984 0
M  V30 12870 C 1238 -4.0529 1.90904 0
M  V30 12871 C 1239.75 -4.24405 0.0900039 0
M  V30 12872 C 1237.65 -5.55097 2.04014 0
M  V30 12873 H 1236.58 -0.746389 0.106861 0
M  V30 12874 H 1239.23 -1.58676 0.921637 0
M  V30 12875 H 1237.62 -3.95406 -0.216884 0
M  V30 12876 H 1238.79 -3.77904 2.63677 0
M  V30 12877 H 1237.1 -3.50297 2.25125 0
M  V30 12878 H 1239.7 -5.3444 0.16682 0
M  V30 12879 H 1240.04 -4.05166 -0.956349 0
M  V30 12880 H 1240.58 -3.90924 0.736446 0
M  V30 12881 H 1237.32 -5.7923 3.06877 0
M  V30 12882 H 1236.84 -5.8425 1.35692 0
M  V30 12883 H 1238.52 -6.20682 1.82656 0
M  V30 12884 N 1238.65 -0.49465 -1.49636 0
M  V30 12885 C 1239.9 0.0539277 -2.01628 0
M  V30 12886 C 1240.21 1.38634 -1.37986 0
M  V30 12887 O 1241.42 2.02123 -1.81269 0
M  V30 12888 C 1239.87 0.146582 -3.59601 0
M  V30 12889 C 1239.48 -1.1788 -4.32213 0
M  V30 12890 C 1241.22 0.645862 -4.19558 0
M  V30 12891 C 1239.13 -1.04866 -5.82028 0
M  V30 12892 H 1238.06 0.0239278 -0.75362 0
M  V30 12893 H 1240.71 -0.633112 -1.72232 0
M  V30 12894 H 1239.09 0.897931 -3.85685 0
M  V30 12895 H 1240.27 -1.94295 -4.17835 0
M  V30 12896 H 1238.58 -1.61102 -3.83973 0
M  V30 12897 H 1241.18 0.76064 -5.29262 0
M  V30 12898 H 1241.52 1.64313 -3.82501 0
M  V30 12899 H 1242.06 -0.04877 -3.9777 0
M  V30 12900 H 1238.79 -2.02 -6.23599 0
M  V30 12901 H 1238.31 -0.325293 -5.98917 0
M  V30 12902 H 1239.99 -0.724799 -6.42927 0
M  V30 12903 N 1240.13 1.55939 -0.228214 0
M  V30 12904 C 1241.37 1.98476 0.401677 0
M  V30 12905 C 1241.7 1.116 1.59297 0
M  V30 12906 O 1240.96 0.162465 1.95024 0
M  V30 12907 C 1241.25 3.46581 0.872732 0
M  V30 12908 C 1240.92 4.50416 -0.208767 0
M  V30 12909 C 1239.58 4.78534 -0.505847 0
M  V30 12910 C 1241.93 5.12656 -0.939852 0
M  V30 12911 C 1239.26 5.66171 -1.53841 0
M  V30 12912 C 1241.61 6.01412 -1.9618 0
M  V30 12913 C 1240.28 6.2787 -2.26573 0
M  V30 12914 H 1239.55 0.726276 0.146984 0
M  V30 12915 H 1242.2 1.88598 -0.332128 0
M  V30 12916 H 1240.5 3.53696 1.68541 0
M  V30 12917 H 1242.2 3.76869 1.37006 0
M  V30 12918 H 1238.79 4.28587 0.0329308 0
M  V30 12919 H 1242.97 4.90997 -0.723581 0
M  V30 12920 H 1238.23 5.84933 -1.77944 0
M  V30 12921 H 1242.4 6.48688 -2.53332 0
M  V30 12922 H 1240.03 6.95574 -3.06725 0
M  V30 12923 N 1241.6 -0.0451101 1.57535 0
M  V30 12924 C 1242.84 -0.744146 1.90373 0
M  V30 12925 C 1243.21 -1.7337 0.825039 0
M  V30 12926 O 1244.41 -2.4798 1.03726 0
M  V30 12927 C 1242.68 -1.41028 3.28399 0
M  V30 12928 S 1244.24 -2.14069 3.8304 0
M  V30 12929 H 1241.06 -0.246888 0.666759 0
M  V30 12930 H 1243.66 0.000729019 1.955 0
M  V30 12931 H 1242.36 -0.67663 4.04784 0
M  V30 12932 H 1241.89 -2.19404 3.26536 0
M  V30 12933 H 1243.91 -3.40988 3.60474 0
M  V30 12934 N 1243.08 -1.54377 -0.317073 0
M  V30 12935 C 1244.33 -1.72551 -1.05216 0
M  V30 12936 C 1244.65 -0.5055 -1.88334 0
M  V30 12937 O 1243.92 0.480439 -1.89917 0
M  V30 12938 H 1242.5 -0.636222 -0.391447 0
M  V30 12939 H 1245.16 -1.91696 -0.35194 0
M  V30 12940 H 1244.26 -2.60791 -1.71448 0
M  V30 12941 N 1244.56 0.579466 -1.4656 0
M  V30 12942 C 1245.81 1.33492 -1.51738 0
M  V30 12943 C 1246.13 1.94241 -0.171926 0
M  V30 12944 O 1245.4 1.78737 0.801875 0
M  V30 12945 H 1243.98 0.49565 -0.558874 0
M  V30 12946 H 1246.64 0.678394 -1.82712 0
M  V30 12947 H 1245.74 2.13995 -2.27183 0
M  V30 12948 N 1246.04 1.3432 0.824371 0
M  V30 12949 C 1246.95 1.27847 1.96704 0
M  V30 12950 C 1247.96 0.18641 1.72999 0
M  V30 12951 O 1249.14 0.412623 1.97128 0
M  V30 12952 C 1246.21 1.03231 3.30975 0
M  V30 12953 C 1245.27 2.21579 3.67697 0
M  V30 12954 C 1244.5 1.98128 4.95561 0
M  V30 12955 O 1244.72 0.938798 5.62621 0
M  V30 12956 O 1243.66 2.85041 5.30128 0
M  V30 12957 H 1247.48 2.23974 2.05108 0
M  V30 12958 H 1245.07 1.14512 0.959554 0
M  V30 12959 H 1246.95 0.912784 4.11395 0
M  V30 12960 H 1245.62 0.101425 3.23541 0
M  V30 12961 H 1244.53 2.3909 2.87727 0
M  V30 12962 H 1245.86 3.13052 3.79815 0
M  V30 12963 N 1247.52 -1.0444 1.18026 0
M  V30 12964 C 1248.76 -1.77224 0.971391 0
M  V30 12965 C 1249.09 -1.88466 -0.500564 0
M  V30 12966 O 1248.36 -1.40692 -1.36317 0
M  V30 12967 H 1246.94 -0.656485 0.356422 0
M  V30 12968 H 1249.6 -1.26064 1.4864 0
M  V30 12969 H 1248.69 -2.78626 1.4062 0
M  V30 12970 N 1248.99 -0.981699 -1.2329 0
M  V30 12971 C 1250.22 -0.66937 -1.95773 0
M  V30 12972 C 1250.64 0.763898 -1.72656 0
M  V30 12973 O 1249.99 1.51418 -1.01876 0
M  V30 12974 C 1250.05 -0.951863 -3.48743 0
M  V30 12975 O 1249.77 -2.3288 -3.71078 0
M  V30 12976 C 1251.27 -0.655668 -4.38424 0
M  V30 12977 H 1248.49 -0.248545 -0.623271 0
M  V30 12978 H 1251.03 -1.31343 -1.56746 0
M  V30 12979 H 1249.19 -0.353787 -3.85781 0
M  V30 12980 H 1249.6 -2.41948 -4.65362 0
M  V30 12981 H 1251.07 -0.903683 -5.44553 0
M  V30 12982 H 1251.55 0.410269 -4.3728 0
M  V30 12983 H 1252.16 -1.23428 -4.06996 0
M  V30 12984 N 1250.47 1.3842 -0.753509 0
M  V30 12985 C 1251.7 2.04929 -0.319174 0
M  V30 12986 C 1252.12 1.56457 1.04416 0
M  V30 12987 O 1251.48 0.716527 1.6654 0
M  V30 12988 C 1251.53 3.58887 -0.351054 0
M  V30 12989 O 1250.63 4.07166 0.654963 0
M  V30 12990 H 1249.97 0.648782 -0.141343 0
M  V30 12991 H 1252.5 1.77096 -1.02461 0
M  V30 12992 H 1252.51 4.075 -0.201907 0
M  V30 12993 H 1251.19 3.93525 -1.34576 0
M  V30 12994 H 1249.77 3.69921 0.470435 0
M  V30 12995 N 1251.95 0.502579 1.49372 0
M  V30 12996 C 1253.18 -0.0403087 2.07361 0
M  V30 12997 C 1253.6 -1.29918 1.36026 0
M  V30 12998 O 1252.96 -1.76428 0.417488 0
M  V30 12999 C 1253.01 -0.275362 3.59547 0
M  V30 13000 O 1252.11 -1.34975 3.89686 0
M  V30 13001 H 1251.45 0.0269268 0.663454 0
M  V30 13002 H 1253.98 0.702652 1.92156 0
M  V30 13003 H 1253.99 -0.506392 4.04845 0
M  V30 13004 H 1252.67 0.644382 4.10878 0
M  V30 13005 H 1251.24 -1.10355 3.56197 0
M  V30 13006 N 1253.43 -1.55816 0.23648 0
M  V30 13007 C 1254.66 -2.03083 -0.395584 0
M  V30 13008 C 1255.07 -1.11599 -1.52286 0
M  V30 13009 O 1254.43 -0.128403 -1.82048 0
M  V30 13010 C 1254.48 -3.49776 -0.913197 0
M  V30 13011 O 1254.2 -4.37773 0.169151 0
M  V30 13012 C 1255.7 -4.12756 -1.617 0
M  V30 13013 H 1252.92 -0.66421 -0.0952146 0
M  V30 13014 H 1255.47 -2.01354 0.357299 0
M  V30 13015 H 1253.62 -3.52072 -1.6163 0
M  V30 13016 H 1254.03 -5.24029 -0.222217 0
M  V30 13017 H 1255.51 -5.17123 -1.93101 0
M  V30 13018 H 1255.99 -3.58631 -2.53537 0
M  V30 13019 H 1256.59 -4.14353 -0.958736 0
M  V30 13020 N 1254.91 0.036755 -1.57557 0
M  V30 13021 C 1256.13 0.741086 -1.93172 0
M  V30 13022 C 1256.55 1.69303 -0.835589 0
M  V30 13023 O 1255.91 1.81523 0.1886 0
M  V30 13024 C 1255.96 1.50477 -3.28693 0
M  V30 13025 O 1255.68 0.591046 -4.34095 0
M  V30 13026 C 1257.18 2.30695 -3.78543 0
M  V30 13027 H 1254.4 0.208731 -0.637709 0
M  V30 13028 H 1256.94 -0.00342776 -2.045 0
M  V30 13029 H 1255.1 2.20123 -3.18786 0
M  V30 13030 H 1255.51 1.12579 -5.12276 0
M  V30 13031 H 1256.99 2.79685 -4.759 0
M  V30 13032 H 1257.46 3.11778 -3.0934 0
M  V30 13033 H 1258.07 1.66138 -3.91508 0
M  V30 13034 N 1256.39 1.54543 0.308881 0
M  V30 13035 C 1257.63 1.73107 1.043 0
M  V30 13036 C 1257.95 0.515481 1.88063 0
M  V30 13037 O 1257.22 -0.47036 1.90169 0
M  V30 13038 H 1255.8 0.638289 0.388068 0
M  V30 13039 H 1258.47 1.9188 0.341769 0
M  V30 13040 H 1257.56 2.61697 1.70063 0
M  V30 13041 N 1257.86 -0.571685 1.46866 0
M  V30 13042 C 1258.83 -1.66198 1.57832 0
M  V30 13043 C 1259.83 -1.54242 0.454547 0
M  V30 13044 O 1261.02 -1.58661 0.719191 0
M  V30 13045 C 1258.15 -3.05678 1.5091 0
M  V30 13046 H 1259.34 -1.57829 2.5501 0
M  V30 13047 H 1256.89 -0.790433 1.3484 0
M  V30 13048 H 1257.63 -3.19593 0.550529 0
M  V30 13049 H 1257.41 -3.15765 2.32454 0
M  V30 13050 H 1258.9 -3.85027 1.61692 0
M  V30 13051 N 1259.34 -1.34755 -0.817236 0
M  V30 13052 C 1260.27 -1.22648 -1.93624 0
M  V30 13053 C 1261.29 -0.152226 -1.62087 0
M  V30 13054 O 1262.48 -0.404578 -1.73855 0
M  V30 13055 C 1259.58 -0.863519 -3.27714 0
M  V30 13056 C 1258.75 -2.03394 -3.87233 0
M  V30 13057 C 1257.81 -1.64846 -4.99712 0
M  V30 13058 O 1256.83 -2.3658 -5.17705 0
M  V30 13059 N 1258.04 -0.565909 -5.77735 0
M  V30 13060 H 1260.8 -2.19051 -2.0454 0
M  V30 13061 H 1258.36 -1.27785 -0.994113 0
M  V30 13062 H 1260.35 -0.58733 -4.00415 0
M  V30 13063 H 1258.92 0.0104987 -3.12598 0
M  V30 13064 H 1258.14 -2.47454 -3.06856 0
M  V30 13065 H 1259.43 -2.81655 -4.23731 0
M  V30 13066 H 1258.83 0.030313 -5.65692 0
M  V30 13067 H 1257.39 -0.349467 -6.50862 0
M  V30 13068 N 1260.82 1.03812 -1.18578 0
M  V30 13069 C 1262.07 1.76455 -0.977071 0
M  V30 13070 C 1262.38 1.8926 0.493964 0
M  V30 13071 O 1263.59 2.58781 0.821256 0
M  V30 13072 C 1262.04 3.17264 -1.69917 0
M  V30 13073 C 1261.65 3.12543 -3.20969 0
M  V30 13074 C 1263.4 3.94266 -1.57337 0
M  V30 13075 C 1261.3 4.48226 -3.85807 0
M  V30 13076 H 1260.23 0.661445 -0.361949 0
M  V30 13077 H 1262.88 1.16252 -1.41978 0
M  V30 13078 H 1261.27 3.77878 -1.18424 0
M  V30 13079 H 1262.44 2.61364 -3.79507 0
M  V30 13080 H 1260.75 2.49039 -3.33719 0
M  V30 13081 H 1263.35 4.9461 -2.03137 0
M  V30 13082 H 1263.69 4.12963 -0.526033 0
M  V30 13083 H 1264.23 3.40232 -2.06124 0
M  V30 13084 H 1260.97 4.34734 -4.90599 0
M  V30 13085 H 1260.49 4.99497 -3.32058 0
M  V30 13086 H 1262.17 5.17135 -3.88819 0
M  V30 13087 N 1262.3 0.988223 1.22768 0
M  V30 13088 C 1263.53 0.679743 1.95415 0
M  V30 13089 C 1263.94 -0.754731 1.73059 0
M  V30 13090 O 1263.3 -1.50876 1.02678 0
M  V30 13091 C 1263.35 0.970344 3.48234 0
M  V30 13092 O 1263.07 2.34845 3.69837 0
M  V30 13093 C 1264.57 0.67891 4.3807 0
M  V30 13094 H 1261.79 0.251847 0.621944 0
M  V30 13095 H 1264.33 1.32173 1.56047 0
M  V30 13096 H 1262.49 0.374241 3.85588 0
M  V30 13097 H 1262.9 2.44412 4.64072 0
M  V30 13098 H 1264.38 0.932549 5.44066 0
M  V30 13099 H 1264.85 -0.387073 4.37491 0
M  V30 13100 H 1265.46 1.25585 4.06335 0
M  V30 13101 N 1263.78 -1.38018 0.760839 0
M  V30 13102 C 1264.71 -2.32995 0.153557 0
M  V30 13103 C 1265.69 -1.55234 -0.695448 0
M  V30 13104 O 1266.87 -1.8352 -0.635148 0
M  V30 13105 C 1264 -3.39437 -0.734811 0
M  V30 13106 C 1262.96 -4.27998 0.0120287 0
M  V30 13107 C 1262.28 -5.25359 -0.995067 0
M  V30 13108 C 1263.58 -5.08687 1.18468 0
M  V30 13109 H 1265.28 -2.8403 0.946956 0
M  V30 13110 H 1262.82 -1.36562 0.456816 0
M  V30 13111 H 1264.77 -4.0485 -1.16938 0
M  V30 13112 H 1263.5 -2.86901 -1.56061 0
M  V30 13113 H 1262.16 -3.64102 0.427254 0
M  V30 13114 H 1261.81 -4.69108 -1.81512 0
M  V30 13115 H 1261.51 -5.85469 -0.499969 0
M  V30 13116 H 1263.03 -5.93648 -1.4288 0
M  V30 13117 H 1264.44 -5.67299 0.8273 0
M  V30 13118 H 1262.84 -5.78068 1.61112 0
M  V30 13119 H 1263.91 -4.42 1.99409 0
M  V30 13120 N 1265.25 -0.510493 -1.49103 0
M  V30 13121 C 1266.48 0.0271324 -2.06582 0
M  V30 13122 C 1266.89 1.30499 -1.36991 0
M  V30 13123 O 1266.23 1.78229 -0.444976 0
M  V30 13124 C 1266.3 0.341488 -3.57874 0
M  V30 13125 C 1265.96 -0.840037 -4.49213 0
M  V30 13126 C 1266.96 -1.73315 -4.90161 0
M  V30 13127 C 1264.64 -1.04153 -4.91383 0
M  V30 13128 C 1266.64 -2.81182 -5.72028 0
M  V30 13129 C 1264.32 -2.12336 -5.73024 0
M  V30 13130 C 1265.32 -3.00684 -6.13252 0
M  V30 13131 O 1265.01 -4.06999 -6.93258 0
M  V30 13132 H 1264.74 -0.0215383 -0.675657 0
M  V30 13133 H 1267.3 -0.709841 -1.92744 0
M  V30 13134 H 1265.53 1.13218 -3.69755 0
M  V30 13135 H 1267.21 0.818859 -3.97554 0
M  V30 13136 H 1267.98 -1.58934 -4.58219 0
M  V30 13137 H 1263.86 -0.363199 -4.59567 0
M  V30 13138 H 1267.4 -3.50169 -6.03347 0
M  V30 13139 H 1263.3 -2.26708 -6.04379 0
M  V30 13140 H 1264.07 -4.04469 -7.11581 0
M  V30 13141 N 1266.73 1.55688 -0.24474 0
M  V30 13142 C 1267.98 1.98498 0.379852 0
M  V30 13143 C 1268.3 1.13416 1.58625 0
M  V30 13144 O 1267.57 0.216456 1.947 0
M  V30 13145 H 1266.15 0.73312 0.143334 0
M  V30 13146 H 1268.81 1.91858 -0.343027 0
M  V30 13147 H 1267.91 3.04367 0.690463 0
M  V30 13148 N 1268.21 -0.0283989 1.57574 0
M  V30 13149 C 1269.17 -1.01346 2.05576 0
M  V30 13150 C 1270.17 -1.28999 0.960001 0
M  V30 13151 O 1271.36 -1.23991 1.2236 0
M  V30 13152 C 1268.49 -2.34611 2.47327 0
M  V30 13153 H 1269.69 -0.598809 2.93861 0
M  V30 13154 H 1267.24 -0.27524 1.53857 0
M  V30 13155 H 1267.98 -2.80823 1.622 0
M  V30 13156 H 1267.76 -2.1587 3.27326 0
M  V30 13157 H 1269.25 -3.05332 2.84889 0
M  V30 13158 N 1269.69 -1.54705 -0.300681 0
M  V30 13159 C 1270.64 -1.86433 -1.39087 0
M  V30 13160 C 1271.63 -0.738101 -1.52474 0
M  V30 13161 O 1272.84 -0.922096 -1.54588 0
M  V30 13162 H 1269.21 -0.591314 -0.464599 0
M  V30 13163 H 1271.18 -2.77558 -1.09563 0
M  V30 13164 C 1269.93 -2.1286 -2.74929 0
M  V30 13165 H 1269.25 -2.98994 -2.6541 0
M  V30 13166 H 1270.69 -2.39 -3.50222 0
M  V30 13167 C 1269.15 -0.92726 -3.23888 0
M  V30 13168 O 1269.68 -0.147921 -4.01428 0
M  V30 13169 N 1267.89 -0.732553 -2.81215 0
M  V30 13170 H 1267.44 -1.36797 -2.18276 0
M  V30 13171 H 1267.39 0.0696902 -3.14323 0
M  V30 13172 N 1271.17 0.563888 -1.47167 0
M  V30 13173 C 1272.11 1.69254 -1.59549 0
M  V30 13174 C 1273.11 1.62948 -0.463078 0
M  V30 13175 O 1274.31 1.68214 -0.640639 0
M  V30 13176 H 1270.69 0.559925 -0.501984 0
M  V30 13177 H 1272.66 1.55946 -2.54408 0
M  V30 13178 C 1271.41 3.0762 -1.62066 0
M  V30 13179 H 1270.73 3.13151 -2.48549 0
M  V30 13180 H 1272.17 3.863 -1.74781 0
M  V30 13181 C 1270.63 3.35048 -0.352721 0
M  V30 13182 O 1271.16 3.9793 0.549053 0
M  V30 13183 N 1269.37 2.8965 -0.234805 0
M  V30 13184 H 1268.91 2.38657 -0.969561 0
M  V30 13185 H 1268.87 3.08373 0.61263 0
M  V30 13186 N 1272.64 1.35187 0.810078 0
M  V30 13187 C 1273.87 1.31371 1.59841 0
M  V30 13188 C 1274.29 -0.109547 1.88482 0
M  V30 13189 O 1273.64 -1.06047 1.48527 0
M  V30 13190 C 1273.7 2.11496 2.93175 0
M  V30 13191 O 1273.42 3.48273 2.65777 0
M  V30 13192 C 1274.92 2.15226 3.87547 0
M  V30 13193 H 1272.14 0.451428 0.496441 0
M  V30 13194 H 1274.68 1.7799 1.00697 0
M  V30 13195 H 1272.84 1.68486 3.48843 0
M  V30 13196 H 1273.25 3.89845 3.50886 0
M  V30 13197 H 1274.72 2.75687 4.78226 0
M  V30 13198 H 1275.2 1.15007 4.23875 0
M  V30 13199 H 1275.81 2.58382 3.37815 0
M  V30 13200 N 1274.12 -1.03182 1.19127 0
M  V30 13201 C 1275.4 -1.73586 0.901507 0
M  V30 13202 C 1275.78 -2.02585 -0.593521 0
M  V30 13203 O 1275.13 -1.67813 -1.55084 0
M  V30 13204 C 1275.34 -3.01472 1.75829 0
M  V30 13205 C 1276.69 -3.75037 1.99078 0
M  V30 13206 O 1277.71 -3.11392 1.72956 0
M  V30 13207 O 1276.57 -4.8945 2.43108 0
M  V30 13208 H 1273.66 -0.755797 0.335708 0
M  V30 13209 H 1276.21 -1.09167 1.29925 0
M  V30 13210 H 1274.98 -2.76247 2.77134 0
M  V30 13211 H 1274.6 -3.73631 1.35963 0
M  V30 13212 N 1275.6 -0.99472 -1.22242 0
M  V30 13213 C 1276.83 -0.689809 -1.95592 0
M  V30 13214 C 1277.25 0.739321 -1.72961 0
M  V30 13215 O 1276.61 1.50563 -1.00997 0
M  V30 13216 C 1276.66 -1.00367 -3.46351 0
M  V30 13217 O 1275.76 -0.103326 -4.12271 0
M  V30 13218 H 1275.1 -0.257997 -0.611828 0
M  V30 13219 H 1277.63 -1.33219 -1.55286 0
M  V30 13220 H 1277.64 -0.946259 -3.96875 0
M  V30 13221 H 1276.32 -2.04504 -3.62148 0
M  V30 13222 H 1274.89 -0.216374 -3.72272 0
M  V30 13223 N 1277.08 1.37613 -0.768148 0
M  V30 13224 C 1278.49 1.53202 -0.44737 0
M  V30 13225 C 1278.69 1.72736 1.03752 0
M  V30 13226 O 1277.75 1.74667 1.8234 0
M  V30 13227 C 1279.06 2.7306 -1.25931 0
M  V30 13228 C 1280.61 2.8692 -1.25084 0
M  V30 13229 C 1281.09 4.09757 -2.04605 0
M  V30 13230 N 1282.58 4.16862 -2.0194 0
M  V30 13231 C 1283.31 5.10936 -2.60254 0
M  V30 13232 N 1282.81 6.1059 -3.27341 0
M  V30 13233 N 1284.6 5.03393 -2.50104 0
M  V30 13234 H 1276.75 1.23184 -1.7303 0
M  V30 13235 H 1279.02 0.599541 -0.73434 0
M  V30 13236 H 1278.72 2.65078 -2.31141 0
M  V30 13237 H 1278.6 3.66646 -0.886036 0
M  V30 13238 H 1280.98 2.94375 -0.206736 0
M  V30 13239 H 1281.06 1.94303 -1.66373 0
M  V30 13240 H 1280.71 4.03063 -3.09035 0
M  V30 13241 H 1280.64 5.01481 -1.60701 0
M  V30 13242 H 1283.13 3.455 -1.53096 0
M  V30 13243 H 1283.44 6.78893 -3.6922 0
M  V30 13244 H 1281.79 6.10879 -3.31439 0
M  V30 13245 H 1284.98 4.24483 -1.9731 0
M  V30 13246 H 1285.15 5.76524 -2.95844 0
M  V30 13247 N 1278.56 0.518393 1.4883 0
M  V30 13248 C 1279.97 0.175476 1.58632 0
M  V30 13249 C 1280.17 -1.32081 1.52174 0
M  V30 13250 O 1279.23 -2.09817 1.40474 0
M  V30 13251 C 1280.54 0.767722 2.90734 0
M  V30 13252 C 1282.09 0.735402 3.04238 0
M  V30 13253 C 1282.56 1.30602 4.38984 0
M  V30 13254 N 1284.06 1.26748 4.45521 0
M  V30 13255 C 1284.79 1.679 5.48267 0
M  V30 13256 N 1284.29 2.16728 6.58028 0
M  V30 13257 N 1286.08 1.59209 5.39082 0
M  V30 13258 H 1278.23 1.491 1.51271 0
M  V30 13259 H 1280.49 0.619497 0.717584 0
M  V30 13260 H 1280.2 1.81777 3.01081 0
M  V30 13261 H 1280.07 0.238119 3.76448 0
M  V30 13262 H 1282.46 -0.305852 2.93511 0
M  V30 13263 H 1282.54 1.30235 2.20165 0
M  V30 13264 H 1282.19 2.34614 4.50465 0
M  V30 13265 H 1282.12 0.714858 5.21725 0
M  V30 13266 H 1284.61 0.90991 3.66782 0
M  V30 13267 H 1284.92 2.46154 7.32549 0
M  V30 13268 H 1283.26 2.20714 6.59022 0
M  V30 13269 H 1286.46 1.20869 4.52226 0
M  V30 13270 H 1286.63 1.91602 6.19025 0
M  V30 13271 N 1280.03 -1.55556 0.252993 0
M  V30 13272 C 1281.28 -1.98267 -0.370571 0
M  V30 13273 C 1281.6 -1.14449 -1.58622 0
M  V30 13274 O 1282.8 -1.472 -2.28132 0
M  V30 13275 C 1281.26 -3.52813 -0.710685 0
M  V30 13276 C 1280.87 -4.45379 0.483908 0
M  V30 13277 C 1282.61 -4.04165 -1.2981 0
M  V30 13278 C 1280.52 -5.91279 0.119611 0
M  V30 13279 H 1279.45 -0.740463 -0.142232 0
M  V30 13280 H 1282.1 -1.8005 0.354169 0
M  V30 13281 H 1280.48 -3.66748 -1.49372 0
M  V30 13282 H 1281.65 -4.43206 1.26116 0
M  V30 13283 H 1279.97 -4.04542 0.986664 0
M  V30 13284 H 1282.57 -5.10696 -1.5841 0
M  V30 13285 H 1282.91 -3.51875 -2.22462 0
M  V30 13286 H 1283.44 -3.93581 -0.577836 0
M  V30 13287 H 1280.18 -6.47619 1.01343 0
M  V30 13288 H 1279.7 -5.96573 -0.621318 0
M  V30 13289 H 1281.38 -6.46322 -0.296052 0
M  V30 13290 N 1281.51 0.0200419 -1.57587 0
M  V30 13291 C 1282.76 0.710078 -1.89962 0
M  V30 13292 C 1283.09 1.74521 -0.851829 0
M  V30 13293 O 1282.37 1.94052 0.132005 0
M  V30 13294 C 1282.65 1.37145 -3.32961 0
M  V30 13295 C 1282.5 0.349221 -4.48442 0
M  V30 13296 C 1283.82 2.30304 -3.75031 0
M  V30 13297 H 1280.94 0.25667 -0.690862 0
M  V30 13298 H 1283.58 -0.0271362 -1.89981 0
M  V30 13299 H 1281.73 1.99981 -3.33076 0
M  V30 13300 H 1283.4 -0.277916 -4.60462 0
M  V30 13301 H 1281.65 -0.330594 -4.32538 0
M  V30 13302 H 1282.32 0.850636 -5.45406 0
M  V30 13303 H 1284.79 1.77503 -3.7634 0
M  V30 13304 H 1283.67 2.73555 -4.75877 0
M  V30 13305 H 1283.93 3.17364 -3.07786 0
M  V30 13306 N 1282.99 1.54862 0.292472 0
M  V30 13307 C 1284.22 1.78291 1.04383 0
M  V30 13308 C 1284.63 0.546703 1.81129 0
M  V30 13309 O 1283.97 -0.493286 1.76953 0
M  V30 13310 C 1284.03 2.94321 2.06435 0
M  V30 13311 C 1283.7 4.32095 1.48806 0
M  V30 13312 C 1284.69 5.11808 0.91369 0
M  V30 13313 C 1282.38 4.78714 1.52112 0
M  V30 13314 C 1284.37 6.36266 0.380053 0
M  V30 13315 C 1282.06 6.03132 0.983613 0
M  V30 13316 C 1283.06 6.81744 0.41406 0
M  V30 13317 O 1282.75 8.03817 -0.115268 0
M  V30 13318 H 1282.48 0.598147 0.314954 0
M  V30 13319 H 1285.03 2.02655 0.334661 0
M  V30 13320 H 1283.26 2.65602 2.81056 0
M  V30 13321 H 1284.95 3.05249 2.67541 0
M  V30 13322 H 1285.72 4.76931 0.880988 0
M  V30 13323 H 1281.6 4.17549 1.95382 0
M  V30 13324 H 1285.14 6.9757 -0.0651481 0
M  V30 13325 H 1281.04 6.37494 1.01349 0
M  V30 13326 H 1281.81 8.185 -0.00277496 0
M  V30 13327 N 1284.47 -0.556076 1.47464 0
M  V30 13328 C 1285.42 -1.68406 1.60444 0
M  V30 13329 C 1286.41 -1.627 0.471713 0
M  V30 13330 O 1287.62 -1.67871 0.649551 0
M  V30 13331 H 1283.99 -0.557255 0.504946 0
M  V30 13332 H 1285.96 -1.54595 2.55231 0
M  V30 13333 C 1284.71 -3.06756 1.63695 0
M  V30 13334 H 1284.03 -3.11829 2.50206 0
M  V30 13335 H 1285.47 -3.85368 1.76827 0
M  V30 13336 C 1283.93 -3.34857 0.370485 0
M  V30 13337 O 1284.46 -3.98216 -0.527942 0
M  V30 13338 N 1282.67 -2.89521 0.250163 0
M  V30 13339 H 1282.22 -2.3814 0.982204 0
M  V30 13340 H 1282.17 -3.08694 -0.596268 0
M  V30 13341 N 1285.95 -1.35615 -0.802897 0
M  V30 13342 C 1287.2 -1.28839 -1.55708 0
M  V30 13343 C 1287.52 0.135906 -1.94526 0
M  V30 13344 O 1286.79 1.07317 -1.6389 0
M  V30 13345 H 1285.37 -0.473906 -0.577427 0
M  V30 13346 H 1288.03 -1.69759 -0.957487 0
M  V30 13347 H 1287.12 -1.90675 -2.47082 0
M  V30 13348 N 1287.43 1.02549 -1.19673 0
M  V30 13349 C 1288.7 1.73106 -0.9107 0
M  V30 13350 C 1289.08 2.02897 0.582769 0
M  V30 13351 O 1288.43 1.68633 1.54192 0
M  V30 13352 C 1288.64 3.00535 -1.77425 0
M  V30 13353 C 1289.99 3.73976 -2.01065 0
M  V30 13354 O 1291.01 3.1047 -1.74605 0
M  V30 13355 O 1289.87 4.88153 -2.457 0
M  V30 13356 H 1286.97 0.754006 -0.339711 0
M  V30 13357 H 1289.51 1.08477 -1.30502 0
M  V30 13358 H 1288.28 2.74773 -2.78595 0
M  V30 13359 H 1287.91 3.72904 -1.37943 0
M  V30 13360 N 1288.9 1.00119 1.21713 0
M  V30 13361 C 1289.81 0.567582 2.27631 0
M  V30 13362 C 1290.83 -0.387593 1.69628 0
M  V30 13363 O 1292.01 -0.252372 1.99813 0
M  V30 13364 C 1289.07 -0.102745 3.46548 0
M  V30 13365 C 1288.13 0.896433 4.19836 0
M  V30 13366 C 1287.36 0.258 5.33076 0
M  V30 13367 O 1287.59 -0.946118 5.62499 0
M  V30 13368 O 1286.52 0.967021 5.94081 0
M  V30 13369 H 1290.35 1.44898 2.66905 0
M  V30 13370 H 1287.93 0.769862 1.28037 0
M  V30 13371 H 1289.81 -0.477846 4.18682 0
M  V30 13372 H 1288.49 -0.958576 3.09181 0
M  V30 13373 H 1287.4 1.32262 3.49939 0
M  V30 13374 H 1288.73 1.72173 4.61104 0
M  V30 13375 N 1290.38 -1.37203 0.775435 0
M  V30 13376 C 1291.33 -2.27584 0.137667 0
M  V30 13377 C 1292.32 -1.46281 -0.670135 0
M  V30 13378 O 1293.51 -1.688 -0.532503 0
M  V30 13379 C 1290.64 -3.3528 -0.73773 0
M  V30 13380 C 1289.72 -4.24028 0.078102 0
M  V30 13381 N 1290.11 -4.93117 1.1256 0
M  V30 13382 C 1288.41 -4.45763 -0.145295 0
M  V30 13383 C 1289.11 -5.58656 1.62107 0
M  V30 13384 N 1288.09 -5.3554 0.932622 0
M  V30 13385 H 1291.89 -2.78475 0.93961 0
M  V30 13386 H 1289.4 -1.50364 0.613544 0
M  V30 13387 H 1291.4 -3.98941 -1.21043 0
M  V30 13388 H 1290.06 -2.85944 -1.53838 0
M  V30 13389 H 1291.07 -4.95465 1.50781 0
M  V30 13390 H 1287.75 -4.07292 -0.917557 0
M  V30 13391 H 1289.14 -6.23866 2.49482 0
M  V30 13392 N 1291.86 -0.526279 -1.48553 0
M  V30 13393 C 1292.79 0.227364 -2.3239 0
M  V30 13394 C 1293.77 0.93862 -1.41859 0
M  V30 13395 O 1294.96 0.925119 -1.70749 0
M  V30 13396 C 1292.09 1.277 -3.22971 0
M  V30 13397 C 1291.04 0.684107 -4.22497 0
M  V30 13398 C 1290.37 1.83612 -5.02186 0
M  V30 13399 C 1291.67 -0.341723 -5.21181 0
M  V30 13400 H 1293.36 -0.472486 -2.95648 0
M  V30 13401 H 1290.91 -0.228669 -1.42173 0
M  V30 13402 H 1292.86 1.81215 -3.80446 0
M  V30 13403 H 1291.58 2.00638 -2.57705 0
M  V30 13404 H 1290.24 0.170505 -3.66203 0
M  V30 13405 H 1289.89 2.55379 -4.33348 0
M  V30 13406 H 1289.59 1.44536 -5.69547 0
M  V30 13407 H 1291.11 2.37513 -5.62512 0
M  V30 13408 H 1292.53 0.106207 -5.73202 0
M  V30 13409 H 1290.92 -0.649673 -5.96573 0
M  V30 13410 H 1291.99 -1.2488 -4.68543 0
M  V30 13411 N 1293.34 1.5542 -0.261239 0
M  V30 13412 C 1294.58 1.99284 0.359487 0
M  V30 13413 C 1294.91 1.14954 1.56894 0
M  V30 13414 O 1294.17 0.203796 1.94636 0
M  V30 13415 C 1294.47 3.48354 0.799021 0
M  V30 13416 C 1294.13 4.49872 -0.30426 0
M  V30 13417 C 1292.79 4.77353 -0.607237 0
M  V30 13418 C 1295.15 5.10547 -1.04838 0
M  V30 13419 C 1292.47 5.62781 -1.65816 0
M  V30 13420 C 1294.83 5.97115 -2.08893 0
M  V30 13421 C 1293.49 6.22923 -2.3984 0
M  V30 13422 H 1292.76 0.72923 0.131546 0
M  V30 13423 H 1295.41 1.87851 -0.372058 0
M  V30 13424 H 1293.71 3.57192 1.61001 0
M  V30 13425 H 1295.41 3.7969 1.28981 0
M  V30 13426 H 1292 4.28561 -0.0579863 0
M  V30 13427 H 1296.18 4.89352 -0.827566 0
M  V30 13428 H 1291.44 5.81026 -1.90311 0
M  V30 13429 H 1295.61 6.43168 -2.67035 0
M  V30 13430 H 1293.24 6.88912 -3.2141 0
M  V30 13431 N 1294.82 -0.0116844 1.57596 0
M  V30 13432 C 1295.75 -1.03477 2.04512 0
M  V30 13433 C 1296.76 -1.31414 0.960945 0
M  V30 13434 O 1297.95 -1.28596 1.23796 0
M  V30 13435 C 1295.05 -2.37234 2.42019 0
M  V30 13436 C 1294.22 -2.28405 3.73028 0
M  V30 13437 C 1293.28 -3.44753 3.97532 0
M  V30 13438 O 1292.31 -3.23465 4.68358 0
M  V30 13439 N 1293.51 -4.67212 3.44518 0
M  V30 13440 H 1296.27 -0.634758 2.92901 0
M  V30 13441 H 1293.84 -0.1993 1.60669 0
M  V30 13442 H 1295.83 -3.13821 2.55535 0
M  V30 13443 H 1294.4 -2.69018 1.5921 0
M  V30 13444 H 1293.62 -1.36804 3.697 0
M  V30 13445 H 1294.91 -2.19666 4.58938 0
M  V30 13446 H 1294.3 -4.87407 2.87142 0
M  V30 13447 H 1292.86 -5.41105 3.63384 0
M  V30 13448 N 1296.29 -1.55015 -0.284256 0
M  V30 13449 C 1297.52 -1.79431 -1.04016 0
M  V30 13450 C 1297.94 -0.560254 -1.79563 0
M  V30 13451 O 1297.3 0.489804 -1.74558 0
M  V30 13452 C 1297.35 -3.01162 -1.98328 0
M  V30 13453 O 1296.45 -2.75459 -3.06914 0
M  V30 13454 H 1295.79 -0.593391 -0.297965 0
M  V30 13455 H 1298.32 -2.02136 -0.316585 0
M  V30 13456 H 1298.33 -3.29589 -2.40489 0
M  V30 13457 H 1297.01 -3.90634 -1.42751 0
M  V30 13458 H 1295.59 -2.58096 -2.69148 0
M  V30 13459 N 1297.77 0.548248 -1.47757 0
M  V30 13460 C 1298.73 1.63666 -1.60456 0
M  V30 13461 C 1299.73 1.53499 -0.479028 0
M  V30 13462 O 1300.92 1.57497 -0.744342 0
M  V30 13463 C 1298.06 3.03239 -1.55754 0
M  V30 13464 H 1299.25 1.53752 -2.57488 0
M  V30 13465 H 1296.8 0.768881 -1.36081 0
M  V30 13466 H 1297.54 3.18677 -0.601303 0
M  V30 13467 H 1297.32 3.12027 -2.37448 0
M  V30 13468 H 1298.81 3.82406 -1.67797 0
M  V30 13469 N 1299.25 1.36039 0.795694 0
M  V30 13470 C 1300.53 1.20474 1.54096 0
M  V30 13471 C 1300.91 -0.211691 2.10036 0
M  V30 13472 O 1300.25 -1.21656 1.93422 0
M  V30 13473 C 1300.46 2.28164 2.64087 0
M  V30 13474 C 1301.81 2.64519 3.32137 0
M  V30 13475 O 1302.84 2.2716 2.74366 0
M  V30 13476 O 1301.7 3.28796 4.36527 0
M  V30 13477 H 1298.79 0.468699 0.681359 0
M  V30 13478 H 1301.34 1.47752 0.834716 0
M  V30 13479 H 1300.11 3.23121 2.20701 0
M  V30 13480 H 1299.73 2.02217 3.42336 0
M  V30 13481 N 1300.73 -1.01913 1.20215 0
M  V30 13482 C 1301.97 -1.7573 1.01226 0
M  V30 13483 C 1302.31 -1.88799 -0.45481 0
M  V30 13484 O 1301.58 -1.41196 -1.33768 0
M  V30 13485 C 1301.87 -3.17795 1.69348 0
M  V30 13486 C 1301.72 -3.12536 3.23483 0
M  V30 13487 C 1303.04 -4.16409 1.42448 0
M  V30 13488 H 1300.16 -0.637889 0.369144 0
M  V30 13489 H 1302.8 -1.18907 1.48193 0
M  V30 13490 H 1300.95 -3.66311 1.29416 0
M  V30 13491 H 1302.62 -2.71843 3.72692 0
M  V30 13492 H 1300.86 -2.49997 3.54519 0
M  V30 13493 H 1301.53 -4.12949 3.66302 0
M  V30 13494 H 1304.01 -3.76537 1.77086 0
M  V30 13495 H 1302.89 -5.13983 1.92648 0
M  V30 13496 H 1303.15 -4.407 0.351574 0
M  V30 13497 N 1302.21 -1.00763 -1.2118 0
M  V30 13498 C 1303.15 -0.570257 -2.23644 0
M  V30 13499 C 1304.12 0.405039 -1.61086 0
M  V30 13500 O 1305.31 0.306496 -1.88322 0
M  V30 13501 C 1302.45 0.094325 -3.44971 0
M  V30 13502 C 1301.56 -0.924463 -4.21993 0
M  V30 13503 C 1300.7 -0.231869 -5.30694 0
M  V30 13504 C 1299.74 -1.23803 -5.99449 0
M  V30 13505 N 1298.87 -0.572725 -6.9976 0
M  V30 13506 H 1303.71 -1.44869 -2.60417 0
M  V30 13507 H 1301.25 -0.725369 -1.27972 0
M  V30 13508 H 1303.21 0.496689 -4.14233 0
M  V30 13509 H 1301.84 0.936457 -3.08918 0
M  V30 13510 H 1300.89 -1.44505 -3.51884 0
M  V30 13511 H 1302.2 -1.69004 -4.69296 0
M  V30 13512 H 1301.36 0.226465 -6.06277 0
M  V30 13513 H 1300.09 0.566092 -4.84403 0
M  V30 13514 H 1299.1 -1.70684 -5.22635 0
M  V30 13515 H 1300.32 -2.03711 -6.47826 0
M  V30 13516 H 1298.27 0.205531 -6.55678 0
M  V30 13517 H 1298.19 -1.27651 -7.45145 0
M  V30 13518 H 1299.46 -0.137683 -7.79378 0
M  V30 13519 N 1303.68 1.3679 -0.7827 0
M  V30 13520 C 1305.1 1.82006 -0.41603 0
M  V30 13521 C 1305.45 1.65151 1.05922 0
M  V30 13522 O 1304.57 1.1687 1.82127 0
M  V30 13523 C 1305.17 3.30432 -0.748353 0
M  V30 13524 C 1303.73 3.73883 -0.4346 0
M  V30 13525 C 1302.87 2.59159 -0.986505 0
M  V30 13526 H 1305.82 1.25107 -0.976423 0
M  V30 13527 H 1305.84 3.80482 -0.036985 0
M  V30 13528 H 1305.36 3.42667 -1.82212 0
M  V30 13529 H 1303.46 3.67211 0.631401 0
M  V30 13530 H 1303.57 4.69577 -0.950511 0
M  V30 13531 H 1301.93 2.51377 -0.410108 0
M  V30 13532 H 1302.72 2.74182 -2.06589 0
M  V30 13533 N 1305.16 0.53415 1.48272 0
M  V30 13534 C 1306.39 0.00573642 2.06599 0
M  V30 13535 C 1306.8 -1.28303 1.3905 0
M  V30 13536 O 1306.14 -1.77499 0.473274 0
M  V30 13537 C 1306.21 -0.28451 3.58372 0
M  V30 13538 C 1305.87 0.911397 4.4782 0
M  V30 13539 C 1306.87 1.81091 4.87342 0
M  V30 13540 C 1304.55 1.11957 4.89664 0
M  V30 13541 C 1306.55 2.90246 5.67482 0
M  V30 13542 C 1304.23 2.21426 5.69573 0
M  V30 13543 C 1305.23 3.10403 6.08391 0
M  V30 13544 O 1304.92 4.17977 6.86695 0
M  V30 13545 H 1304.65 0.0322847 0.675229 0
M  V30 13546 H 1307.2 0.740415 1.91591 0
M  V30 13547 H 1305.43 -1.07321 3.71509 0
M  V30 13548 H 1307.12 -0.755508 3.98807 0
M  V30 13549 H 1307.89 1.66204 4.55633 0
M  V30 13550 H 1303.77 0.436266 4.58931 0
M  V30 13551 H 1307.31 3.59724 5.97699 0
M  V30 13552 H 1303.21 2.36295 6.00695 0
M  V30 13553 H 1303.98 4.15738 7.05056 0
M  V30 13554 N 1306.64 -1.55279 0.269478 0
M  V30 13555 C 1307.59 -2.23723 -0.636468 0
M  V30 13556 C 1308.58 -1.23234 -1.16232 0
M  V30 13557 O 1309.79 -1.41181 -1.1166 0
M  V30 13558 H 1306.16 -0.71793 -0.223788 0
M  V30 13559 H 1308.13 -2.98378 -0.0363057 0
M  V30 13560 C 1306.88 -2.96755 -1.81195 0
M  V30 13561 H 1306.21 -3.73865 -1.4165 0
M  V30 13562 H 1307.65 -3.47975 -2.42258 0
M  V30 13563 C 1306.11 -2.01905 -2.69696 0
M  V30 13564 O 1306.64 -1.56662 -3.69892 0
M  V30 13565 N 1304.84 -1.68524 -2.36744 0
M  V30 13566 H 1304.39 -2.05512 -1.55314 0
M  V30 13567 H 1304.35 -1.05331 -2.96231 0
M  V30 13568 N 1308.12 0.00332656 -1.576 0
M  V30 13569 C 1309.4 0.725722 -1.81639 0
M  V30 13570 C 1309.78 1.92173 -0.87365 0
M  V30 13571 O 1309.12 2.28365 0.0783931 0
M  V30 13572 C 1309.33 1.13458 -3.30043 0
M  V30 13573 C 1310.68 1.53982 -3.95695 0
M  V30 13574 O 1311.71 1.22846 -3.34346 0
M  V30 13575 O 1310.56 2.11866 -5.03761 0
M  V30 13576 H 1307.66 0.353083 -0.747838 0
M  V30 13577 H 1310.2 -0.0218724 -1.69686 0
M  V30 13578 H 1308.98 0.281925 -3.90283 0
M  V30 13579 H 1308.6 1.94138 -3.46982 0
M  V30 13580 N 1309.6 1.55164 0.276031 0
M  V30 13581 C 1310.54 1.88623 1.36104 0
M  V30 13582 C 1311.54 0.762265 1.51281 0
M  V30 13583 O 1312.74 0.946573 1.53101 0
M  V30 13584 H 1309.12 0.59863 0.455133 0
M  V30 13585 H 1311.09 2.79266 1.05134 0
M  V30 13586 C 1309.84 2.17207 2.71508 0
M  V30 13587 H 1309.16 3.03179 2.6062 0
M  V30 13588 H 1310.6 2.44541 3.46375 0
M  V30 13589 C 1309.06 0.978671 3.22372 0
M  V30 13590 O 1309.59 0.211766 4.01141 0
M  V30 13591 N 1307.8 0.777199 2.80014 0
M  V30 13592 H 1307.34 1.40252 2.16072 0
M  V30 13593 H 1307.3 -0.0196754 3.14394 0
M  V30 13594 N 1311.07 -0.540404 1.48045 0
M  V30 13595 C 1312.32 -1.2987 1.55762 0
M  V30 13596 C 1312.65 -1.92877 0.226307 0
M  V30 13597 O 1311.93 -1.7875 -0.766727 0
M  V30 13598 C 1312.21 -2.39602 2.68817 0
M  V30 13599 C 1312.06 -1.81354 4.1162 0
M  V30 13600 C 1313.38 -3.41434 2.77688 0
M  V30 13601 H 1310.5 -0.47083 0.566999 0
M  V30 13602 H 1313.14 -0.603081 1.80175 0
M  V30 13603 H 1311.29 -2.98936 2.48132 0
M  V30 13604 H 1312.97 -1.26151 4.43716 0
M  V30 13605 H 1311.21 -1.1194 4.19108 0
M  V30 13606 H 1311.88 -2.60758 4.86528 0
M  V30 13607 H 1314.36 -2.92042 2.96396 0
M  V30 13608 H 1313.23 -4.15621 3.5854 0
M  V30 13609 H 1313.49 -4.01336 1.85422 0
M  V30 13610 N 1312.55 -1.36459 -0.788468 0
M  V30 13611 C 1313.78 -1.33898 -1.57731 0
M  V30 13612 C 1314.2 0.0795471 -1.88632 0
M  V30 13613 O 1313.55 1.03671 -1.50195 0
M  V30 13614 C 1313.6 -2.16134 -2.89773 0
M  V30 13615 O 1313.32 -3.52457 -2.60203 0
M  V30 13616 C 1314.83 -2.21364 -3.84074 0
M  V30 13617 H 1312.05 -0.459269 -0.489197 0
M  V30 13618 H 1314.59 -1.79569 -0.978526 0
M  V30 13619 H 1312.74 -1.74015 -3.46118 0
M  V30 13620 H 1313.16 -3.95378 -3.4464 0
M  V30 13621 H 1314.63 -2.83261 -4.7378 0
M  V30 13622 H 1315.11 -1.21736 -4.21992 0
M  V30 13623 H 1315.72 -2.63723 -3.33662 0
M  V30 13624 N 1314.03 1.01274 -1.20754 0
M  V30 13625 C 1314.99 2.08056 -0.961528 0
M  V30 13626 C 1315.99 1.60671 0.0644461 0
M  V30 13627 O 1317.18 1.73349 -0.172022 0
M  V30 13628 C 1314.32 3.37938 -0.448381 0
M  V30 13629 H 1315.51 2.31314 -1.90877 0
M  V30 13630 H 1313.06 1.18133 -1.02344 0
M  V30 13631 H 1313.8 3.20357 0.504144 0
M  V30 13632 H 1313.58 3.73659 -1.18833 0
M  V30 13633 H 1315.07 4.16551 -0.295876 0
M  V30 13634 N 1315.51 1.01404 1.20644 0
M  V30 13635 C 1316.44 0.602465 2.25594 0
M  V30 13636 C 1317.42 -0.381216 1.65773 0
M  V30 13637 O 1318.61 -0.267209 1.92353 0
M  V30 13638 C 1315.74 -0.0626245 3.47244 0
M  V30 13639 C 1314.69 0.841776 4.1964 0
M  V30 13640 C 1314.02 0.0426002 5.34683 0
M  V30 13641 C 1315.32 2.14864 4.76058 0
M  V30 13642 H 1317.01 1.47977 2.60275 0
M  V30 13643 H 1314.56 0.712966 1.25111 0
M  V30 13644 H 1316.51 -0.362095 4.19841 0
M  V30 13645 H 1315.23 -0.974627 3.11719 0
M  V30 13646 H 1313.89 1.12521 3.48905 0
M  V30 13647 H 1313.54 -0.870973 4.95402 0
M  V30 13648 H 1313.24 0.644866 5.84051 0
M  V30 13649 H 1314.76 -0.250476 6.10086 0
M  V30 13650 H 1316.18 1.9117 5.40488 0
M  V30 13651 H 1314.57 2.70153 5.35852 0
M  V30 13652 H 1315.64 2.81336 3.9494 0
M  V30 13653 N 1316.99 -1.36373 0.789944 0
M  V30 13654 C 1318.24 -1.98834 0.361866 0
M  V30 13655 C 1318.56 -1.63006 -1.07024 0
M  V30 13656 O 1317.83 -0.904312 -1.73779 0
M  V30 13657 H 1316.41 -0.735457 0.130812 0
M  V30 13658 H 1319.07 -1.66561 1.0121 0
M  V30 13659 H 1318.16 -3.08778 0.454122 0
M  V30 13660 N 1318.47 -0.542005 -1.47987 0
M  V30 13661 C 1319.71 -0.0122873 -2.02096 0
M  V30 13662 C 1320.03 1.3362 -1.42024 0
M  V30 13663 O 1319.3 1.86807 -0.589911 0
M  V30 13664 H 1317.88 -0.00155365 -0.746998 0
M  V30 13665 H 1320.55 -0.708566 -1.81564 0
M  V30 13666 H 1319.64 0.0871275 -3.11978 0
M  V30 13667 N 1319.94 1.55134 -0.277709 0
M  V30 13668 C 1321.35 1.85405 0.219543 0
M  V30 13669 C 1321.71 1.19973 1.55245 0
M  V30 13670 O 1320.83 0.488986 2.10803 0
M  V30 13671 C 1321.43 3.36369 0.405127 0
M  V30 13672 C 1319.98 3.66755 0.846609 0
M  V30 13673 C 1319.13 2.77238 -0.0586063 0
M  V30 13674 H 1322.08 1.50637 -0.499422 0
M  V30 13675 H 1322.1 3.59615 1.24329 0
M  V30 13676 H 1321.62 3.83963 -0.565138 0
M  V30 13677 H 1319.72 3.24662 1.82825 0
M  V30 13678 H 1319.83 4.74219 0.682135 0
M  V30 13679 H 1318.19 2.50546 0.458153 0
M  V30 13680 H 1318.98 3.27647 -1.0248 0
M  V30 13681 N 1321.42 0.00503138 1.57599 0
M  V30 13682 C 1322.65 -0.693231 1.95471 0
M  V30 13683 C 1323.07 -1.66233 0.880246 0
M  V30 13684 O 1322.43 -1.80582 -0.161164 0
M  V30 13685 C 1322.48 -1.39696 3.32442 0
M  V30 13686 O 1321.58 -2.51154 3.27101 0
M  V30 13687 H 1320.92 -0.184015 0.637992 0
M  V30 13688 H 1323.45 0.0597194 2.04513 0
M  V30 13689 H 1323.46 -1.75924 3.68123 0
M  V30 13690 H 1322.14 -0.686438 4.10196 0
M  V30 13691 H 1320.71 -2.17216 3.03103 0
M  V30 13692 N 1322.9 -1.55308 -0.267798 0
M  V30 13693 C 1323.85 -1.89342 -1.35102 0
M  V30 13694 C 1324.84 -0.770277 -1.50874 0
M  V30 13695 O 1326.05 -0.954679 -1.52597 0
M  V30 13696 H 1322.42 -0.601036 -0.451952 0
M  V30 13697 H 1324.39 -2.7982 -1.03651 0
M  V30 13698 C 1323.14 -2.18644 -2.70352 0
M  V30 13699 H 1322.47 -3.04557 -2.59008 0
M  V30 13700 H 1323.91 -2.46374 -3.45073 0
M  V30 13701 C 1322.36 -0.995753 -3.21848 0
M  V30 13702 O 1322.89 -0.233037 -4.01023 0
M  V30 13703 N 1321.1 -0.792038 -2.79598 0
M  V30 13704 H 1320.65 -1.41396 -2.15325 0
M  V30 13705 H 1320.61 0.00300201 -3.144 0
M  V30 13706 N 1324.38 0.532545 -1.4833 0
M  V30 13707 C 1325.79 0.860843 -1.34394 0
M  V30 13708 C 1325.99 1.98384 -0.353013 0
M  V30 13709 O 1325.05 2.5148 0.226688 0
M  V30 13710 C 1326.36 1.23079 -2.74358 0
M  V30 13711 C 1327.91 1.34082 -2.82827 0
M  V30 13712 C 1328.39 1.74421 -4.23487 0
M  V30 13713 N 1329.88 1.81528 -4.26148 0
M  V30 13714 C 1330.61 2.1412 -5.31921 0
M  V30 13715 N 1330.11 2.45154 -6.47975 0
M  V30 13716 N 1331.9 2.15104 -5.19314 0
M  V30 13717 H 1324.05 -0.208464 -2.11375 0
M  V30 13718 H 1326.31 -0.03062 -0.947505 0
M  V30 13719 H 1326.02 0.47926 -3.48419 0
M  V30 13720 H 1325.89 2.18151 -3.07718 0
M  V30 13721 H 1328.28 2.08311 -2.09022 0
M  V30 13722 H 1328.36 0.37137 -2.5309 0
M  V30 13723 H 1328.01 1.00752 -4.97807 0
M  V30 13724 H 1327.94 2.72411 -4.50666 0
M  V30 13725 H 1330.43 1.59832 -3.42436 0
M  V30 13726 H 1330.74 2.69121 -7.24426 0
M  V30 13727 H 1329.09 2.42679 -6.51254 0
M  V30 13728 H 1332.28 1.90315 -4.27666 0
M  V30 13729 H 1332.45 2.40173 -6.01848 0
M  V30 13730 N 1325.86 1.36875 0.78122 0
M  V30 13731 C 1327.1 1.31559 1.53943 0
M  V30 13732 C 1327.43 -0.10273 1.94229 0
M  V30 13733 O 1326.69 -1.07386 1.63605 0
M  V30 13734 C 1326.98 2.19173 2.82309 0
M  V30 13735 C 1326.65 3.67595 2.61121 0
M  V30 13736 C 1325.31 4.08047 2.55051 0
M  V30 13737 C 1327.66 4.61665 2.41898 0
M  V30 13738 C 1324.99 5.40697 2.27736 0
M  V30 13739 C 1327.34 5.94542 2.16108 0
M  V30 13740 C 1326.01 6.34109 2.08476 0
M  V30 13741 H 1325.28 0.48141 0.563317 0
M  V30 13742 H 1327.93 1.68999 0.900638 0
M  V30 13743 H 1326.23 1.74696 3.50697 0
M  V30 13744 H 1327.93 2.12379 3.40141 0
M  V30 13745 H 1324.52 3.35509 2.66705 0
M  V30 13746 H 1328.7 4.3128 2.45584 0
M  V30 13747 H 1323.96 5.70325 2.20315 0
M  V30 13748 H 1328.13 6.66994 2.0023 0
M  V30 13749 H 1325.76 7.36823 1.87073 0
M  V30 13750 N 1327.33 -1.00632 1.21289 0
M  V30 13751 C 1328.56 -1.77967 1.05524 0
M  V30 13752 C 1328.98 -1.84621 -0.395023 0
M  V30 13753 O 1328.33 -1.30664 -1.27409 0
M  V30 13754 C 1328.38 -3.21939 1.64432 0
M  V30 13755 O 1328.11 -3.15669 3.03784 0
M  V30 13756 C 1329.61 -4.1578 1.5376 0
M  V30 13757 H 1326.83 -0.559341 0.370646 0
M  V30 13758 H 1329.37 -1.26604 1.60598 0
M  V30 13759 H 1327.53 -3.70415 1.13453 0
M  V30 13760 H 1327.94 -4.06112 3.31924 0
M  V30 13761 H 1329.41 -5.14602 1.99722 0
M  V30 13762 H 1329.89 -4.36438 0.491811 0
M  V30 13763 H 1330.5 -3.73192 2.0398 0
M  V30 13764 N 1328.81 -1.02043 -1.20104 0
M  V30 13765 C 1330.04 -0.731315 -1.93544 0
M  V30 13766 C 1330.45 0.708582 -1.74999 0
M  V30 13767 O 1329.81 1.481 -1.06642 0
M  V30 13768 C 1329.86 -1.06233 -3.45538 0
M  V30 13769 O 1329.58 -2.44568 -3.63481 0
M  V30 13770 C 1331.08 -0.794818 -4.36116 0
M  V30 13771 H 1328.3 -0.268248 -0.615048 0
M  V30 13772 H 1330.85 -1.36264 -1.52488 0
M  V30 13773 H 1329 -0.476341 -3.8446 0
M  V30 13774 H 1329.42 -2.5663 -4.57429 0
M  V30 13775 H 1330.89 -1.07647 -5.41402 0
M  V30 13776 H 1331.37 0.270944 -4.38363 0
M  V30 13777 H 1331.97 -1.36314 -4.02863 0
M  V30 13778 N 1330.29 1.35952 -0.797165 0
M  V30 13779 C 1331.25 2.28266 -0.206748 0
M  V30 13780 C 1332.25 1.49169 0.60043 0
M  V30 13781 O 1333.44 1.69054 0.42029 0
M  V30 13782 C 1330.58 3.33363 0.712884 0
M  V30 13783 H 1331.77 2.81992 -1.02082 0
M  V30 13784 H 1329.32 1.45648 -0.567138 0
M  V30 13785 H 1330.06 2.84806 1.551 0
M  V30 13786 H 1329.84 3.91864 0.135926 0
M  V30 13787 H 1331.33 4.02284 1.1206 0
M  V30 13788 N 1331.77 0.549846 1.47697 0
M  V30 13789 C 1333 0.0276487 2.06581 0
M  V30 13790 C 1333.41 -1.26821 1.40403 0
M  V30 13791 O 1332.75 -1.76987 0.492073 0
M  V30 13792 C 1332.81 -0.246484 3.58654 0
M  V30 13793 C 1332.48 0.958843 4.46828 0
M  V30 13794 C 1333.47 1.86249 4.85394 0
M  V30 13795 C 1331.16 1.17144 4.88449 0
M  V30 13796 C 1333.15 2.96249 5.64372 0
M  V30 13797 C 1330.84 2.27454 5.67193 0
M  V30 13798 C 1331.84 3.16838 6.05064 0
M  V30 13799 O 1331.52 4.25237 6.82224 0
M  V30 13800 H 1331.26 0.0394446 0.674848 0
M  V30 13801 H 1333.81 0.760694 1.90795 0
M  V30 13802 H 1332.04 -1.03375 3.72627 0
M  V30 13803 H 1333.73 -0.713167 3.99586 0
M  V30 13804 H 1334.5 1.71027 4.53844 0
M  V30 13805 H 1330.37 0.484917 4.58443 0
M  V30 13806 H 1333.92 3.66043 5.9385 0
M  V30 13807 H 1329.82 2.42653 5.98155 0
M  V30 13808 H 1330.58 4.23193 7.00607 0
M  V30 13809 N 1333.25 -1.54984 0.285932 0
M  V30 13810 C 1334.18 -2.25916 -0.590259 0
M  V30 13811 C 1335.16 -1.25319 -1.15018 0
M  V30 13812 O 1336.34 -1.54062 -1.18231 0
M  V30 13813 C 1333.47 -2.98849 -1.76936 0
M  V30 13814 C 1332.43 -4.06466 -1.3405 0
M  V30 13815 C 1331.75 -4.67032 -2.60356 0
M  V30 13816 C 1333.05 -5.20064 -0.482754 0
M  V30 13817 H 1334.75 -2.994 0.00131571 0
M  V30 13818 H 1332.29 -1.44 0.00207281 0
M  V30 13819 H 1334.25 -3.47186 -2.3883 0
M  V30 13820 H 1332.97 -2.22918 -2.38694 0
M  V30 13821 H 1331.63 -3.58957 -0.7447 0
M  V30 13822 H 1331.28 -3.87757 -3.20396 0
M  V30 13823 H 1330.98 -5.39703 -2.32368 0
M  V30 13824 H 1332.5 -5.18124 -3.23079 0
M  V30 13825 H 1333.91 -5.64387 -1.00697 0
M  V30 13826 H 1332.31 -5.99363 -0.297291 0
M  V30 13827 H 1333.38 -4.82358 0.495861 0
M  V30 13828 N 1334.72 -0.0133892 -1.57594 0
M  V30 13829 C 1335.97 0.667313 -1.90765 0
M  V30 13830 C 1336.29 1.73564 -0.888847 0
M  V30 13831 O 1335.56 1.95768 0.0718946 0
M  V30 13832 H 1334.14 0.24947 -0.704112 0
M  V30 13833 H 1336.81 -0.0574789 -1.94815 0
M  V30 13834 H 1335.9 1.13007 -2.90922 0
M  V30 13835 N 1336.2 1.55448 0.259558 0
M  V30 13836 C 1337.43 1.81063 1.01148 0
M  V30 13837 C 1337.85 0.58875 1.78649 0
M  V30 13838 O 1337.21 -0.461971 1.75315 0
M  V30 13839 C 1337.26 3.04279 1.93512 0
M  V30 13840 O 1336.36 2.80307 3.02493 0
M  V30 13841 H 1335.7 0.598056 0.288487 0
M  V30 13842 H 1338.23 2.02614 0.284387 0
M  V30 13843 H 1338.24 3.33373 2.35215 0
M  V30 13844 H 1336.92 3.92856 1.36518 0
M  V30 13845 H 1335.5 2.62345 2.65008 0
M  V30 13846 N 1337.68 -0.524672 1.4861 0
M  V30 13847 C 1338.63 -1.64965 1.6398 0
M  V30 13848 C 1339.62 -1.61663 0.506118 0
M  V30 13849 O 1340.83 -1.66456 0.685013 0
M  V30 13850 H 1337.2 -0.546419 0.516653 0
M  V30 13851 H 1339.17 -1.49146 2.58453 0
M  V30 13852 C 1337.92 -3.03215 1.70165 0
M  V30 13853 H 1337.25 -3.06451 2.56764 0
M  V30 13854 H 1338.69 -3.8153 1.84962 0
M  V30 13855 C 1337.15 -3.33996 0.44143 0
M  V30 13856 O 1337.68 -3.99246 -0.443356 0
M  V30 13857 N 1335.88 -2.88925 0.311518 0
M  V30 13858 H 1335.43 -2.36003 1.0325 0
M  V30 13859 H 1335.39 -3.09889 -0.530655 0
M  V30 13860 N 1339.16 -1.37287 -0.77395 0
M  V30 13861 C 1340.57 -1.28954 -1.3501 0
M  V30 13862 C 1340.92 0.0638301 -1.96096 0
M  V30 13863 O 1340.05 0.965624 -1.93661 0
M  V30 13864 C 1340.64 -2.3352 -2.45467 0
M  V30 13865 C 1339.2 -2.28828 -2.98856 0
M  V30 13866 C 1338.35 -2.17468 -1.72055 0
M  V30 13867 H 1341.3 -1.47941 -0.57438 0
M  V30 13868 H 1341.32 -1.98058 -3.24889 0
M  V30 13869 H 1340.83 -3.32009 -2.00977 0
M  V30 13870 H 1338.93 -1.33855 -3.47726 0
M  V30 13871 H 1339.04 -3.22152 -3.54619 0
M  V30 13872 H 1337.41 -1.63977 -1.94894 0
M  V30 13873 H 1338.19 -3.17868 -1.29672 0
M  V30 13874 N 1340.64 0.999871 -1.21821 0
M  V30 13875 C 1341.89 1.73257 -1.03271 0
M  V30 13876 C 1342.2 1.90736 0.433502 0
M  V30 13877 O 1343.4 2.61263 0.738511 0
M  V30 13878 C 1341.86 3.11697 -1.79925 0
M  V30 13879 C 1341.47 3.02173 -3.3075 0
M  V30 13880 C 1343.21 3.89061 -1.698 0
M  V30 13881 C 1341.12 4.35725 -3.99872 0
M  V30 13882 H 1340.05 0.649595 -0.382809 0
M  V30 13883 H 1342.7 1.11676 -1.45605 0
M  V30 13884 H 1341.08 3.73919 -1.30386 0
M  V30 13885 H 1342.26 2.49158 -3.8763 0
M  V30 13886 H 1340.57 2.38296 -3.41473 0
M  V30 13887 H 1343.17 4.87897 -2.1877 0
M  V30 13888 H 1343.51 4.11081 -0.657148 0
M  V30 13889 H 1344.04 3.33502 -2.16844 0
M  V30 13890 H 1340.78 4.18906 -5.04181 0
M  V30 13891 H 1340.3 4.8868 -3.47781 0
M  V30 13892 H 1341.98 5.04503 -4.05075 0
M  V30 13893 N 1342.11 1.02678 1.19562 0
M  V30 13894 C 1343.36 0.723086 1.89471 0
M  V30 13895 C 1343.69 -0.746269 1.79289 0
M  V30 13896 O 1342.97 -1.54322 1.18384 0
M  V30 13897 C 1343.25 1.17224 3.40486 0
M  V30 13898 C 1343.1 2.70266 3.5955 0
M  V30 13899 C 1344.42 0.751397 4.33638 0
M  V30 13900 H 1341.54 0.264155 0.688034 0
M  V30 13901 H 1344.18 1.27633 1.40747 0
M  V30 13902 H 1342.33 0.701544 3.82113 0
M  V30 13903 H 1344.01 3.25266 3.27108 0
M  V30 13904 H 1342.25 3.10758 3.02675 0
M  V30 13905 H 1342.92 2.96748 4.65451 0
M  V30 13906 H 1345.4 1.15621 3.99714 0
M  V30 13907 H 1344.27 1.09358 5.37896 0
M  V30 13908 H 1344.53 -0.346367 4.40741 0
M  V30 13909 N 1343.59 -1.35528 0.804364 0
M  V30 13910 C 1344.82 -2.03073 0.396091 0
M  V30 13911 C 1345.24 -1.60623 -0.992252 0
M  V30 13912 O 1344.59 -0.802718 -1.63898 0
M  V30 13913 C 1344.64 -3.58467 0.467301 0
M  V30 13914 O 1344.36 -3.99373 1.80091 0
M  V30 13915 C 1345.87 -4.4327 0.0515549 0
M  V30 13916 H 1343.09 -0.651346 0.161212 0
M  V30 13917 H 1345.63 -1.73195 1.08737 0
M  V30 13918 H 1343.78 -3.87001 -0.175703 0
M  V30 13919 H 1344.2 -4.94013 1.76214 0
M  V30 13920 H 1345.67 -5.51789 0.152499 0
M  V30 13921 H 1346.15 -4.27597 -1.00286 0
M  V30 13922 H 1346.76 -4.20027 0.667628 0
M  V30 13923 N 1345.07 -0.557671 -1.47404 0
M  V30 13924 C 1346.3 -0.0366797 -2.07368 0
M  V30 13925 C 1346.72 1.2478 -1.40754 0
M  V30 13926 O 1346.08 1.74757 -0.48268 0
M  V30 13927 C 1346.13 0.141728 -3.60321 0
M  V30 13928 O 1345.23 1.20419 -3.94427 0
M  V30 13929 H 1344.57 -0.0515319 -0.661997 0
M  V30 13930 H 1347.1 -0.773485 -1.89416 0
M  V30 13931 H 1347.11 0.355787 -4.06446 0
M  V30 13932 H 1345.79 -0.796433 -4.08203 0
M  V30 13933 H 1344.36 0.970589 -3.60047 0
M  V30 13934 N 1346.55 1.54831 -0.294147 0
M  V30 13935 C 1347.5 2.24707 0.600795 0
M  V30 13936 C 1348.49 1.25067 1.14257 0
M  V30 13937 O 1349.7 1.42939 1.094 0
M  V30 13938 H 1346.07 0.721399 0.212338 0
M  V30 13939 H 1348.04 2.98398 -0.0111682 0
M  V30 13940 C 1346.79 2.996 1.76451 0
M  V30 13941 H 1346.12 3.76072 1.35684 0
M  V30 13942 H 1347.56 3.51785 2.36692 0
M  V30 13943 C 1346.01 2.0617 2.6645 0
M  V30 13944 O 1346.54 1.62527 3.67353 0
M  V30 13945 N 1344.75 1.7227 2.34033 0
M  V30 13946 H 1344.3 2.07957 1.52025 0
M  V30 13947 H 1344.26 1.10031 2.94518 0
M  V30 13948 N 1348.03 0.0217466 1.57585 0
M  V30 13949 C 1349.28 -0.657187 1.91116 0
M  V30 13950 C 1349.6 -1.7309 0.898039 0
M  V30 13951 O 1348.87 -1.95803 -0.0615116 0
M  V30 13952 H 1347.45 -0.245732 0.705425 0
M  V30 13953 H 1350.11 0.0678096 1.94782 0
M  V30 13954 H 1349.2 -1.11462 2.91518 0
M  V30 13955 N 1349.51 -1.55583 -0.251311 0
M  V30 13956 C 1350.75 -1.76859 -0.978031 0
M  V30 13957 C 1351.07 -0.584924 -1.86021 0
M  V30 13958 O 1350.34 0.399456 -1.91784 0
M  V30 13959 H 1348.92 -0.652252 -0.364111 0
M  V30 13960 H 1351.59 -1.93016 -0.270319 0
M  V30 13961 H 1350.68 -2.67828 -1.60233 0
M  V30 13962 N 1350.98 0.516783 -1.48886 0
M  V30 13963 C 1352.23 1.26936 -1.57263 0
M  V30 13964 C 1352.55 1.93337 -0.254156 0
M  V30 13965 O 1351.82 1.81977 0.725345 0
M  V30 13966 H 1350.4 0.4715 -0.579393 0
M  V30 13967 H 1353.06 0.600289 -1.85425 0
M  V30 13968 H 1352.16 2.04167 -2.36055 0
M  V30 13969 N 1352.46 1.37696 0.766659 0
M  V30 13970 C 1353.71 1.32922 1.52237 0
M  V30 13971 C 1354.03 -0.0842833 1.94818 0
M  V30 13972 O 1353.3 -1.02934 1.66677 0
M  V30 13973 H 1351.88 0.489049 0.564659 0
M  V30 13974 H 1354.54 1.72238 0.912142 0
M  V30 13975 H 1353.64 1.97158 2.4194 0
M  V30 13976 N 1353.94 -0.993397 1.22349 0
M  V30 13977 C 1354.89 -2.0834 0.993123 0
M  V30 13978 C 1355.86 -1.65883 -0.0849717 0
M  V30 13979 O 1357.04 -1.90691 0.0645176 0
M  V30 13980 C 1354.18 -3.40252 0.576434 0
M  V30 13981 C 1353.29 -3.96055 1.72524 0
M  V30 13982 C 1352.43 -5.16123 1.25659 0
M  V30 13983 C 1351.47 -5.64062 2.37698 0
M  V30 13984 N 1350.61 -6.7537 1.91883 0
M  V30 13985 H 1355.45 -2.27381 1.92619 0
M  V30 13986 H 1352.98 -1.11476 0.959763 0
M  V30 13987 H 1354.94 -4.16001 0.316021 0
M  V30 13988 H 1353.57 -3.21214 -0.319626 0
M  V30 13989 H 1352.62 -3.17182 2.1 0
M  V30 13990 H 1353.93 -4.27614 2.56802 0
M  V30 13991 H 1353.09 -5.9916 0.953528 0
M  V30 13992 H 1351.83 -4.86186 0.384011 0
M  V30 13993 H 1350.83 -4.79614 2.68794 0
M  V30 13994 H 1352.06 -5.96025 3.25471 0
M  V30 13995 H 1350 -6.47217 1.06986 0
M  V30 13996 H 1349.92 -7.06246 2.69727 0
M  V30 13997 H 1351.19 -7.61914 1.64644 0
M  V30 13998 N 1355.42 -1.03311 -1.19015 0
M  V30 13999 C 1356.35 -0.575655 -2.21853 0
M  V30 14000 C 1357.36 0.350705 -1.58978 0
M  V30 14001 O 1358.55 0.146425 -1.77898 0
M  V30 14002 C 1355.65 0.179949 -3.38422 0
M  V30 14003 C 1354.82 -0.752403 -4.3088 0
M  V30 14004 C 1353.88 -0.0414484 -5.26184 0
M  V30 14005 O 1352.91 -0.669403 -5.6525 0
M  V30 14006 N 1354.11 1.22783 -5.67366 0
M  V30 14007 H 1356.88 -1.46013 -2.61726 0
M  V30 14008 H 1354.44 -0.912655 -1.33724 0
M  V30 14009 H 1356.43 0.66522 -3.99195 0
M  V30 14010 H 1355 0.965879 -2.97304 0
M  V30 14011 H 1354.22 -1.41768 -3.67825 0
M  V30 14012 H 1355.51 -1.38592 -4.89561 0
M  V30 14013 H 1354.91 1.75867 -5.37668 0
M  V30 14014 H 1353.46 1.65752 -6.30372 0
M  V30 14015 N 1356.9 1.35099 -0.81154 0
M  V30 14016 C 1358.12 2.03391 -0.405805 0
M  V30 14017 C 1358.55 1.60745 0.97686 0
M  V30 14018 O 1357.9 0.786518 1.63351 0
M  V30 14019 C 1357.95 3.57075 -0.502954 0
M  V30 14020 O 1357.06 4.09577 0.481681 0
M  V30 14021 H 1356.4 0.642203 -0.168733 0
M  V30 14022 H 1358.93 1.72591 -1.0988 0
M  V30 14023 H 1358.94 4.06277 -0.37456 0
M  V30 14024 H 1357.61 3.87463 -1.51145 0
M  V30 14025 H 1356.19 3.71583 0.313115 0
M  V30 14026 N 1358.37 0.56548 1.47106 0
M  V30 14027 C 1359.79 0.225855 1.57994 0
M  V30 14028 C 1359.99 -1.27173 1.56299 0
M  V30 14029 O 1359.05 -2.05242 1.47078 0
M  V30 14030 C 1360.36 0.859829 2.88145 0
M  V30 14031 C 1361.91 0.831821 3.01744 0
M  V30 14032 C 1362.38 1.44502 4.34607 0
M  V30 14033 N 1363.87 1.40857 4.41263 0
M  V30 14034 C 1364.61 1.85258 5.42648 0
M  V30 14035 N 1364.1 2.37553 6.508 0
M  V30 14036 N 1365.9 1.76279 5.33744 0
M  V30 14037 H 1358.05 1.53837 1.46451 0
M  V30 14038 H 1360.31 0.642013 0.697512 0
M  V30 14039 H 1360.02 1.91264 2.95146 0
M  V30 14040 H 1359.89 0.357762 3.755 0
M  V30 14041 H 1362.28 -0.212319 2.94335 0
M  V30 14042 H 1362.36 1.37173 2.1591 0
M  V30 14043 H 1362 2.48827 4.42773 0
M  V30 14044 H 1361.93 0.880479 5.19187 0
M  V30 14045 H 1364.42 1.02614 3.63702 0
M  V30 14046 H 1364.74 2.69335 7.24347 0
M  V30 14047 H 1363.08 2.41569 6.51667 0
M  V30 14048 H 1366.27 1.35195 4.48152 0
M  V30 14049 H 1366.45 2.11199 6.12616 0
M  V30 14050 O 1359.89 -1.55265 0.44443 0
M  V30 14051 H 1360.58 -1.93502 -0.0875497 0
M  V30 END ATOM
M  V30 BEGIN BOND
M  V30 END BOND
M  V30 END CTAB
M  END
$$$$
