drugbank_target|Q53586 4-hydroxyphenylpyruvate dioxygenase (DB08307)
 OpenBabel12092120503D

  0  0  0     0  0            999 V3000
M  V30 BEGIN CTAB
M  V30 COUNTS 5821 5894 0 0 0
M  V30 BEGIN ATOM
M  V30 1 H -0.908 1.98254 -0.117106 0
M  V30 2 N 0 1.576 0 0
M  V30 3 C 0.933 2.03868 1.02534 0
M  V30 4 C 1.911 0.928543 1.3348 0
M  V30 5 O 3.095 1.19667 1.45644 0
M  V30 6 C 0.222 2.43627 2.35294 0
M  V30 7 C -0.732 3.65373 2.2001 0
M  V30 8 S 0.101 5.13292 1.52614 0
M  V30 9 C 1.257 5.56322 2.86805 0
M  V30 10 H 1.49 2.90518 0.631377 0
M  V30 11 H -0.977 1.52953 0.210867 0
M  V30 12 H 0.981 2.67203 3.11629 0
M  V30 13 H -0.358 1.57376 2.7183 0
M  V30 14 H -1.165 3.90944 3.18086 0
M  V30 15 H -1.563 3.418 1.51819 0
M  V30 16 H 0.729 5.58782 3.83104 0
M  V30 17 H 1.672 6.56266 2.65933 0
M  V30 18 H 2.08 4.83886 2.90714 0
M  V30 19 N 1.4781 -0.272755 1.55222 0
M  V30 20 C 2.7061 -1.02255 1.79865 0
M  V30 21 C 3.1211 -1.79924 0.572088 0
M  V30 22 O 2.4781 -1.76638 -0.458842 0
M  V30 23 C 2.5291 -1.98094 3.02392 0
M  V30 24 O 2.2501 -1.23572 4.20311 0
M  V30 25 C 3.7511 -2.84884 3.39641 0
M  V30 26 H 0.9711 -0.302057 0.599168 0
M  V30 27 H 3.5151 -0.303465 2.02236 0
M  V30 28 H 1.6701 -2.65465 2.82147 0
M  V30 29 H 2.0841 -1.88172 4.89583 0
M  V30 30 H 3.5581 -3.47927 4.28545 0
M  V30 31 H 4.0351 -3.54665 2.59055 0
M  V30 32 H 4.6411 -2.23003 3.62146 0
M  V30 33 N 2.9562 -1.48159 -0.537278 0
M  V30 34 C 3.8882 -1.58218 -1.65831 0
M  V30 35 C 4.9012 -0.466948 -1.5596 0
M  V30 36 O 6.0902 -0.73747 -1.62553 0
M  V30 37 C 3.1902 -1.48906 -3.04434 0
M  V30 38 C 2.3632 -2.75343 -3.3986 0
M  V30 39 C 1.4222 -2.59588 -4.57712 0
M  V30 40 O 0.4482 -3.33457 -4.61297 0
M  V30 41 N 1.6502 -1.68724 -5.55439 0
M  V30 42 H 4.4152 -2.54891 -1.57641 0
M  V30 43 H 1.9762 -1.4479 -0.724386 0
M  V30 44 H 3.9682 -1.36072 -3.81139 0
M  V30 45 H 2.5382 -0.602368 -3.06741 0
M  V30 46 H 1.7582 -3.02795 -2.52406 0
M  V30 47 H 3.0462 -3.5924 -3.60311 0
M  V30 48 H 2.4442 -1.07898 -5.55315 0
M  V30 49 H 1.0012 -1.61832 -6.3139 0
M  V30 50 N 4.4343 0.785586 -1.36625 0
M  V30 51 C 5.6623 1.57448 -1.3423 0
M  V30 52 C 6.0773 1.88649 0.0755653 0
M  V30 53 O 5.4343 1.50414 1.03354 0
M  V30 54 C 5.4853 2.89316 -2.16745 0
M  V30 55 O 5.2063 2.59459 -3.53005 0
M  V30 56 C 6.7073 3.83606 -2.22174 0
M  V30 57 H 3.9273 0.488226 -0.4603 0
M  V30 58 H 6.4713 0.974733 -1.79775 0
M  V30 59 H 4.6263 3.4575 -1.74745 0
M  V30 60 H 5.0403 3.43804 -3.96105 0
M  V30 61 H 6.5143 4.73181 -2.8426 0
M  V30 62 H 6.9913 4.21734 -1.22627 0
M  V30 63 H 7.5973 3.33104 -2.64427 0
M  V30 64 N 5.9124 1.20967 1.01018 0
M  V30 65 C 7.1404 1.04956 1.78303 0
M  V30 66 C 7.5554 -0.400915 1.84494 0
M  V30 67 O 6.9124 -1.27826 1.30257 0
M  V30 68 C 6.9634 1.63403 3.22462 0
M  V30 69 O 6.6844 3.02775 3.16637 0
M  V30 70 C 8.1854 1.52432 4.16268 0
M  V30 71 H 5.4054 0.368858 0.560522 0
M  V30 72 H 7.9494 1.60193 1.27116 0
M  V30 73 H 6.1044 1.1227 3.70775 0
M  V30 74 H 6.5184 3.30626 4.07169 0
M  V30 75 H 7.9924 1.98078 5.15237 0
M  V30 76 H 8.4694 0.477875 4.36592 0
M  V30 77 H 9.0754 2.02787 3.73841 0
M  V30 78 N 7.3905 -1.2043 1.01659 0
M  V30 79 C 8.3405 -2.21076 0.557623 0
M  V30 80 C 9.3245 -1.56176 -0.387029 0
M  V30 81 O 10.5165 -1.7575 -0.209996 0
M  V30 82 C 7.6455 -3.43146 -0.102707 0
M  V30 83 C 6.7315 -4.15213 0.863652 0
M  V30 84 N 7.1225 -4.63662 2.02117 0
M  V30 85 C 5.4205 -4.40716 0.684472 0
M  V30 86 C 6.1215 -5.18868 2.62966 0
M  V30 87 N 5.0975 -5.0893 1.91027 0
M  V30 88 H 8.8995 -2.56201 1.44008 0
M  V30 89 H 6.4135 -1.36366 0.881931 0
M  V30 90 H 8.4105 -4.14475 -0.449054 0
M  V30 91 H 7.0705 -3.09526 -0.981003 0
M  V30 92 H 8.0815 -4.58877 2.40109 0
M  V30 93 H 4.7585 -4.17245 -0.14577 0
M  V30 94 H 6.1485 -5.6673 3.60924 0
M  V30 95 N 8.8686 -0.792821 -1.36206 0
M  V30 96 C 9.8186 -0.166598 -2.27391 0
M  V30 97 C 10.8026 0.651479 -1.47121 0
M  V30 98 O 11.9946 0.510994 -1.69463 0
M  V30 99 C 9.1236 0.695033 -3.36191 0
M  V30 100 C 8.2096 -0.132019 -4.23894 0
M  V30 101 N 8.6006 -1.18822 -4.91645 0
M  V30 102 C 6.8986 0.0885952 -4.45912 0
M  V30 103 C 7.5996 -1.69198 -5.56549 0
M  V30 104 N 6.5756 -1.00065 -5.34311 0
M  V30 105 H 10.3776 -0.974947 -2.77258 0
M  V30 106 H 7.8916 -0.632616 -1.49572 0
M  V30 107 H 9.8886 1.1596 -4.00448 0
M  V30 108 H 8.5486 1.50189 -2.87877 0
M  V30 109 H 9.5596 -1.57069 -4.93507 0
M  V30 110 H 6.2366 0.865688 -4.08426 0
M  V30 111 H 7.6266 -2.57395 -6.20643 0
M  V30 112 N 10.3467 1.47872 -0.545128 0
M  V30 113 C 11.5747 2.06889 -0.021084 0
M  V30 114 C 11.9897 1.39955 1.2672 0
M  V30 115 O 11.3467 0.492036 1.75742 0
M  V30 116 C 11.3977 3.60996 0.190817 0
M  V30 117 O 11.1187 4.25419 -1.04644 0
M  V30 118 C 12.6197 4.36849 0.753521 0
M  V30 119 H 9.8397 0.669785 -0.0403635 0
M  V30 120 H 12.3837 1.90049 -0.755095 0
M  V30 121 H 10.5387 3.77391 0.87492 0
M  V30 122 H 10.9527 5.17785 -0.836611 0
M  V30 123 H 12.4267 5.45399 0.851139 0
M  V30 124 H 12.9037 4.02306 1.762 0
M  V30 125 H 13.5097 4.25169 0.105503 0
M  V30 126 N 11.8248 0.280983 1.55075 0
M  V30 127 C 13.2358 -0.215629 1.85451 0
M  V30 128 C 13.5868 -1.54991 1.203 0
M  V30 129 O 12.7118 -2.10699 0.493435 0
M  V30 130 C 13.3068 -0.398026 3.36454 0
M  V30 131 C 11.8658 -0.838866 3.66933 0
M  V30 132 C 11.0128 0.064458 2.77225 0
M  V30 133 H 13.9638 0.502601 1.50531 0
M  V30 134 H 13.9848 -1.23569 3.59876 0
M  V30 135 H 13.4968 0.573241 3.83843 0
M  V30 136 H 11.5978 -1.8214 3.25048 0
M  V30 137 H 11.7108 -0.672123 4.74362 0
M  V30 138 H 10.0748 -0.452863 2.50642 0
M  V30 139 H 10.8578 1.03172 3.2743 0
M  V30 140 N 13.3029 -1.57598 0.00835791 0
M  V30 141 C 14.5799 -1.82172 -0.712235 0
M  V30 142 C 14.9599 -0.887873 -1.9152 0
M  V30 143 O 14.3079 0.06146 -2.28417 0
M  V30 144 C 14.5179 -3.30875 -1.11008 0
M  V30 145 C 15.8659 -3.96826 -1.51044 0
M  V30 146 O 16.8899 -3.35248 -1.20364 0
M  V30 147 O 15.7489 -5.05318 -2.08125 0
M  V30 148 H 12.8429 -0.750435 -0.347529 0
M  V30 149 H 15.3889 -1.69665 0.0344523 0
M  V30 150 H 14.1609 -3.90481 -0.252982 0
M  V30 151 H 13.7839 -3.48412 -1.9156 0
M  V30 152 N 14.781 0.264519 -1.55364 0
M  V30 153 C 16.009 1.013 -1.80405 0
M  V30 154 C 16.424 1.79618 -0.581622 0
M  V30 155 O 15.781 1.76879 0.449468 0
M  V30 156 C 15.832 1.96487 -3.03439 0
M  V30 157 O 15.553 1.21341 -4.20961 0
M  V30 158 C 17.054 2.83079 -3.41147 0
M  V30 159 H 14.274 0.298875 -0.600762 0
M  V30 160 H 16.818 0.292736 -2.02394 0
M  V30 161 H 14.973 2.63965 -2.83551 0
M  V30 162 H 15.387 1.85573 -4.90574 0
M  V30 163 H 16.861 3.4565 -4.30384 0
M  V30 164 H 17.338 3.53286 -2.60932 0
M  V30 165 H 17.944 2.2108 -3.63323 0
M  V30 166 N 16.2591 1.48442 0.529413 0
M  V30 167 C 17.2221 1.62524 1.61612 0
M  V30 168 C 18.2221 0.498509 1.52877 0
M  V30 169 O 19.4121 0.76431 1.56537 0
M  V30 170 C 16.5441 1.59597 3.01233 0
M  V30 171 H 17.7371 2.59423 1.50465 0
M  V30 172 H 15.2901 1.37047 0.751514 0
M  V30 173 H 16.0251 0.641781 3.17886 0
M  V30 174 H 15.8101 2.41397 3.08982 0
M  V30 175 H 17.3001 1.72646 3.80241 0
M  V30 176 N 17.7372 -0.778329 1.37039 0
M  V30 177 C 19.1532 -1.07796 1.17695 0
M  V30 178 C 19.3532 -2.01498 0.00860115 0
M  V30 179 O 18.4092 -2.43901 -0.653352 0
M  V30 180 C 19.7222 -1.68178 2.49272 0
M  V30 181 C 21.2702 -1.80467 2.55735 0
M  V30 182 C 21.7452 -2.44263 3.87427 0
M  V30 183 N 23.2362 -2.51721 3.88833 0
M  V30 184 C 23.9712 -3.01919 4.87476 0
M  V30 185 N 23.4672 -3.5234 5.96513 0
M  V30 186 N 25.2602 -3.00733 4.74885 0
M  V30 187 H 17.4112 -0.156032 2.11826 0
M  V30 188 H 19.6742 -0.131844 0.938787 0
M  V30 189 H 19.3802 -1.06796 3.35093 0
M  V30 190 H 19.2542 -2.67554 2.65885 0
M  V30 191 H 21.6412 -2.40984 1.70325 0
M  V30 192 H 21.7222 -0.798656 2.43013 0
M  V30 193 H 21.3662 -1.84388 4.73248 0
M  V30 194 H 21.2962 -3.45458 3.9745 0
M  V30 195 H 23.7872 -2.1603 3.10063 0
M  V30 196 H 24.1002 -3.89027 6.67741 0
M  V30 197 H 22.4452 -3.50462 6.00168 0
M  V30 198 H 25.6362 -2.60638 3.88826 0
M  V30 199 H 25.8092 -3.39545 5.51918 0
M  V30 200 N 19.2153 -1.21501 -1.00376 0
M  V30 201 C 20.1473 -0.933174 -2.09343 0
M  V30 202 C 21.1603 0.0840896 -1.62583 0
M  V30 203 O 22.3493 -0.148563 -1.77881 0
M  V30 204 C 19.4493 -0.379869 -3.36764 0
M  V30 205 C 18.6223 -1.45176 -4.12605 0
M  V30 206 C 17.6813 -0.907476 -5.18316 0
M  V30 207 O 16.7073 -1.5912 -5.46507 0
M  V30 208 N 17.9093 0.276649 -5.7984 0
M  V30 209 H 20.6743 -1.87124 -2.34104 0
M  V30 210 H 18.2353 -1.12043 -1.16867 0
M  V30 211 H 20.2273 -0.00131488 -4.047 0
M  V30 212 H 18.7973 0.463048 -3.09151 0
M  V30 213 H 18.0173 -2.00411 -3.39454 0
M  V30 214 H 19.3053 -2.17328 -4.6005 0
M  V30 215 H 18.7033 0.849147 -5.59291 0
M  V30 216 H 17.2603 0.596702 -6.49063 0
M  V30 217 N 20.6934 1.19889 -1.02296 0
M  V30 218 C 21.6564 2.21116 -0.603351 0
M  V30 219 C 22.6564 1.5738 0.329884 0
M  V30 220 O 23.8464 1.73802 0.117702 0
M  V30 221 C 20.9784 3.40696 0.117992 0
M  V30 222 H 22.1714 2.59754 -1.49893 0
M  V30 223 H 19.7244 1.33463 -0.813468 0
M  V30 224 H 20.4594 3.07569 1.0282 0
M  V30 225 H 20.2444 3.88188 -0.552511 0
M  V30 226 H 21.7344 4.15692 0.398696 0
M  V30 227 N 22.1715 0.800033 1.35784 0
M  V30 228 C 23.4485 0.30088 1.93272 0
M  V30 229 C 23.8285 -1.20857 1.73081 0
M  V30 230 O 23.1765 -2.00502 1.09596 0
M  V30 231 C 23.3865 0.70511 3.41803 0
M  V30 232 C 24.7345 0.690871 4.18942 0
M  V30 233 O 25.7585 0.646244 3.50289 0
M  V30 234 O 24.6175 0.74332 5.41421 0
M  V30 235 H 21.7115 0.0771605 0.823393 0
M  V30 236 H 24.2575 0.88329 1.449 0
M  V30 237 H 23.0295 1.74571 3.50201 0
M  V30 238 H 22.6525 0.0971541 3.97481 0
M  V30 239 N 23.6496 -1.47581 0.552962 0
M  V30 240 C 25.0606 -1.86324 0.118463 0
M  V30 241 C 25.4116 -1.46006 -1.3106 0
M  V30 242 O 24.5366 -0.861182 -1.98526 0
M  V30 243 C 25.1316 -3.3816 0.20821 0
M  V30 244 C 23.6906 -3.7601 -0.171226 0
M  V30 245 C 22.8376 -2.71634 0.557686 0
M  V30 246 H 25.7886 -1.39159 0.762928 0
M  V30 247 H 25.8096 -3.76141 -0.574278 0
M  V30 248 H 25.3216 -3.67473 1.24841 0
M  V30 249 H 23.4226 -3.52313 -1.21269 0
M  V30 250 H 23.5356 -4.78745 0.184379 0
M  V30 251 H 21.8996 -2.547 0.00125792 0
M  V30 252 H 22.6826 -3.0379 1.59896 0
M  V30 253 N 25.1277 -0.289203 -1.54924 0
M  V30 254 C 26.3747 0.323519 -1.99899 0
M  V30 255 C 26.7027 1.54797 -1.17762 0
M  V30 256 O 25.9577 1.94237 -0.238835 0
M  V30 257 C 26.2567 0.736119 -3.49737 0
M  V30 258 C 25.9227 -0.385276 -4.49251 0
M  V30 259 C 24.5847 -0.693156 -4.76181 0
M  V30 260 C 26.9367 -1.14021 -5.08575 0
M  V30 261 C 24.2647 -1.7593 -5.59701 0
M  V30 262 C 26.6167 -2.19619 -5.93254 0
M  V30 263 C 25.2807 -2.51026 -6.185 0
M  V30 264 H 24.5507 0.118384 -0.731482 0
M  V30 265 H 27.1977 -0.405847 -1.8715 0
M  V30 266 H 25.5027 1.54539 -3.60035 0
M  V30 267 H 27.1997 1.22118 -3.81953 0
M  V30 268 H 23.7897 -0.135202 -4.28387 0
M  V30 269 H 27.9737 -0.915611 -4.87781 0
M  V30 270 H 23.2297 -2.0075 -5.77503 0
M  V30 271 H 27.4037 -2.78581 -6.38252 0
M  V30 272 H 25.0307 -3.33772 -6.83008 0
M  V30 273 N 26.6058 1.57591 -0.0167156 0
M  V30 274 C 28.0168 1.79201 0.523834 0
M  V30 275 C 28.3678 0.925796 1.72984 0
M  V30 276 O 27.4928 0.132792 2.15992 0
M  V30 277 C 28.0878 3.25 0.957091 0
M  V30 278 C 26.6468 3.47648 1.44283 0
M  V30 279 C 25.7938 2.74374 0.401757 0
M  V30 280 H 28.7448 1.56831 -0.242816 0
M  V30 281 H 28.7658 3.34031 1.82219 0
M  V30 282 H 28.2778 3.88019 0.0791415 0
M  V30 283 H 26.3788 2.89866 2.34113 0
M  V30 284 H 26.4918 4.56352 1.45877 0
M  V30 285 H 24.8558 2.39485 0.867121 0
M  V30 286 H 25.6388 3.40102 -0.467513 0
M  V30 287 N 28.0839 -0.256276 1.55502 0
M  V30 288 C 29.3299 -0.987079 1.77157 0
M  V30 289 C 29.6629 -1.85327 0.580315 0
M  V30 290 O 28.9379 -1.89874 -0.421686 0
M  V30 291 C 29.2209 -1.85553 3.08613 0
M  V30 292 C 29.0739 -1.01816 4.38125 0
M  V30 293 C 30.3929 -2.8397 3.36228 0
M  V30 294 H 27.5119 -0.357428 0.644526 0
M  V30 295 H 30.1539 -0.258239 1.88237 0
M  V30 296 H 28.3039 -2.47695 2.99298 0
M  V30 297 H 29.9759 -0.416159 4.59419 0
M  V30 298 H 28.2189 -0.322178 4.32602 0
M  V30 299 H 28.8899 -1.65939 5.26468 0
M  V30 300 H 31.3659 -2.31964 3.45445 0
M  V30 301 H 30.2419 -3.41864 4.29442 0
M  V30 302 H 30.5029 -3.59955 2.56681 0
M  V30 303 N 29.562 -1.4872 -0.521534 0
M  V30 304 C 30.509 -1.63871 -1.62527 0
M  V30 305 C 31.479 -0.480559 -1.58996 0
M  V30 306 O 32.664 -0.705085 -1.77294 0
M  V30 307 C 29.804 -1.69227 -3.00759 0
M  V30 308 C 28.917 -2.96207 -3.14461 0
M  V30 309 C 28.052 -2.92671 -4.43303 0
M  V30 310 C 27.091 -4.14318 -4.50563 0
M  V30 311 N 26.228 -4.0881 -5.70805 0
M  V30 312 H 31.068 -2.58123 -1.48918 0
M  V30 313 H 28.605 -1.28 -0.724878 0
M  V30 314 H 30.563 -1.70314 -3.80853 0
M  V30 315 H 29.193 -0.784586 -3.1312 0
M  V30 316 H 28.245 -3.04826 -2.27564 0
M  V30 317 H 29.557 -3.86192 -3.15686 0
M  V30 318 H 28.711 -2.92206 -5.31696 0
M  V30 319 H 27.45 -2.00429 -4.44612 0
M  V30 320 H 26.455 -4.15049 -3.60575 0
M  V30 321 H 27.68 -5.07729 -4.50986 0
M  V30 322 H 25.626 -3.19394 -5.72995 0
M  V30 323 H 25.543 -4.92509 -5.7356 0
M  V30 324 H 26.811 -4.12418 -6.61462 0
M  V30 325 N 31.0401 0.771051 -1.3745 0
M  V30 326 C 32.2881 1.52661 -1.32435 0
M  V30 327 C 32.6091 1.9479 0.0905024 0
M  V30 328 O 31.8791 1.66348 1.03466 0
M  V30 329 H 30.4591 0.566218 -0.487244 0
M  V30 330 H 33.1211 0.917636 -1.71946 0
M  V30 331 H 32.2171 2.42568 -1.96385 0
M  V30 332 N 32.5182 1.22032 0.997298 0
M  V30 333 C 33.4512 0.929735 2.08401 0
M  V30 334 C 34.4292 -0.125681 1.62114 0
M  V30 335 O 35.6132 0.00495409 1.88499 0
M  V30 336 C 32.7402 0.397488 3.3636 0
M  V30 337 C 31.7862 1.4369 4.01566 0
M  V30 338 S 32.6192 3.00874 4.42984 0
M  V30 339 C 33.7752 2.49276 5.74119 0
M  V30 340 H 34.0082 1.84998 2.32729 0
M  V30 341 H 31.5412 1.0509 1.13117 0
M  V30 342 H 33.4992 0.0969846 4.10385 0
M  V30 343 H 32.1602 -0.501571 3.10069 0
M  V30 344 H 31.3532 1.01427 4.93689 0
M  V30 345 H 30.9552 1.68588 3.33847 0
M  V30 346 H 33.2472 1.90242 6.50242 0
M  V30 347 H 34.1902 3.39872 6.21203 0
M  V30 348 H 34.5982 1.90714 5.31308 0
M  V30 349 N 33.9963 -1.19345 1.0293 0
M  V30 350 C 35.2733 -1.84811 0.640642 0
M  V30 351 C 35.6533 -1.91855 -0.88062 0
M  V30 352 O 35.0013 -1.43587 -1.7775 0
M  V30 353 C 35.2113 -3.23755 1.30321 0
M  V30 354 C 36.5593 -3.99912 1.42673 0
M  V30 355 O 37.5833 -3.33155 1.26041 0
M  V30 356 O 36.4423 -5.19494 1.6967 0
M  V30 357 H 33.5363 -0.796443 0.222726 0
M  V30 358 H 36.0823 -1.26831 1.12748 0
M  V30 359 H 34.8543 -3.13466 2.34211 0
M  V30 360 H 34.4773 -3.89381 0.804261 0
M  V30 361 N 35.4744 -0.807222 -1.35358 0
M  V30 362 C 36.4374 -0.223665 -2.28106 0
M  V30 363 C 37.4374 0.589354 -1.4961 0
M  V30 364 O 38.6274 0.407745 -1.69361 0
M  V30 365 C 35.7594 0.688149 -3.33882 0
M  V30 366 H 36.9524 -1.04169 -2.81227 0
M  V30 367 H 34.5054 -0.577921 -1.45223 0
M  V30 368 H 35.2404 1.52984 -2.85948 0
M  V30 369 H 35.0254 0.10687 -3.91954 0
M  V30 370 H 36.5154 1.09075 -4.03104 0
M  V30 371 N 36.9525 1.47285 -0.560781 0
M  V30 372 C 38.1985 2.02764 -0.0381184 0
M  V30 373 C 38.5315 1.43384 1.30976 0
M  V30 374 O 37.8065 0.590733 1.85312 0
M  V30 375 C 38.0895 3.60064 0.0511427 0
M  V30 376 C 37.9425 4.2987 -1.32408 0
M  V30 377 C 39.2615 4.33439 0.762795 0
M  V30 378 H 36.3805 0.736841 -0.0153264 0
M  V30 379 H 39.0225 1.75675 -0.723759 0
M  V30 380 H 37.1725 3.83274 0.635065 0
M  V30 381 H 38.8445 4.17989 -1.95148 0
M  V30 382 H 37.0875 3.90085 -1.8978 0
M  V30 383 H 37.7585 5.38478 -1.21431 0
M  V30 384 H 40.2345 4.15243 0.266965 0
M  V30 385 H 39.1105 5.43124 0.794221 0
M  V30 386 H 39.3715 4.02915 1.81966 0
M  V30 387 N 38.4306 0.297415 1.54768 0
M  V30 388 C 39.6766 -0.313376 2.00364 0
M  V30 389 C 40.0096 -1.53815 1.18553 0
M  V30 390 O 39.2846 -1.92739 0.261103 0
M  V30 391 C 39.5676 -0.673525 3.53745 0
M  V30 392 C 39.4206 0.560133 4.46299 0
M  V30 393 C 40.7396 -1.50143 4.13697 0
M  V30 394 H 37.8586 -0.112428 0.728374 0
M  V30 395 H 40.5006 0.4088 1.8555 0
M  V30 396 H 38.6506 -1.28881 3.665 0
M  V30 397 H 40.3226 1.19863 4.45455 0
M  V30 398 H 38.5656 1.19405 4.17043 0
M  V30 399 H 39.2366 0.26405 5.51368 0
M  V30 400 H 41.7126 -0.981588 4.04356 0
M  V30 401 H 40.5886 -1.72221 5.21182 0
M  V30 402 H 40.8496 -2.48952 3.65343 0
M  V30 403 N 39.9087 -1.5758 0.0250728 0
M  V30 404 C 41.1557 -1.91633 -0.654444 0
M  V30 405 C 41.4837 -0.901103 -1.72367 0
M  V30 406 O 40.7387 0.0905647 -1.9549 0
M  V30 407 C 41.0377 -3.32421 -1.31268 0
M  V30 408 C 40.7037 -4.49344 -0.374223 0
M  V30 409 C 39.3657 -4.8106 -0.115911 0
M  V30 410 C 41.7177 -5.20498 0.270432 0
M  V30 411 C 39.0457 -5.8129 0.79493 0
M  V30 412 C 41.3977 -6.21699 1.1693 0
M  V30 413 C 40.0617 -6.51859 1.43655 0
M  V30 414 H 39.3317 -0.701236 -0.239478 0
M  V30 415 H 41.9787 -1.91307 0.0859734 0
M  V30 416 H 40.2837 -3.28989 -2.12775 0
M  V30 417 H 41.9807 -3.56038 -1.84494 0
M  V30 418 H 38.5707 -4.24579 -0.58573 0
M  V30 419 H 42.7547 -4.96229 0.0839194 0
M  V30 420 H 38.0107 -6.03005 1.00973 0
M  V30 421 H 42.1847 -6.75955 1.67504 0
M  V30 422 H 39.8117 -7.2934 2.144 0
M  V30 423 N 41.3868 0.248026 -1.55636 0
M  V30 424 C 42.3498 1.29044 -1.89421 0
M  V30 425 C 43.3498 1.41134 -0.770581 0
M  V30 426 O 44.5398 1.39854 -1.03858 0
M  V30 427 C 41.6718 2.66831 -2.12165 0
M  V30 428 H 42.8648 1.00305 -2.82629 0
M  V30 429 H 40.4178 0.487265 -1.48511 0
M  V30 430 H 41.1528 3.00711 -1.21422 0
M  V30 431 H 40.9378 2.59438 -2.93997 0
M  V30 432 H 42.4278 3.42103 -2.3949 0
M  V30 433 N 42.8649 1.48995 0.513639 0
M  V30 434 C 44.1109 1.58076 1.27042 0
M  V30 435 C 44.4439 0.261026 1.92438 0
M  V30 436 O 43.7189 -0.734393 1.80103 0
M  V30 437 C 44.0019 2.73091 2.34719 0
M  V30 438 C 43.8549 4.14821 1.73907 0
M  V30 439 C 45.1739 2.83796 3.36375 0
M  V30 440 H 42.2929 0.575391 0.460536 0
M  V30 441 H 44.9349 1.81232 0.570516 0
M  V30 442 H 43.0849 2.53479 2.94416 0
M  V30 443 H 44.7569 4.45917 1.18135 0
M  V30 444 H 42.9999 4.21058 1.0437 0
M  V30 445 H 43.6709 4.91147 2.51949 0
M  V30 446 H 46.1469 3.01611 2.86653 0
M  V30 447 H 45.0229 3.65971 4.09093 0
M  V30 448 H 45.2839 1.92624 3.9793 0
M  V30 449 N 44.343 -0.763751 1.37857 0
M  V30 450 C 45.591 -1.51957 1.33243 0
M  V30 451 C 45.912 -1.94835 -0.0801709 0
M  V30 452 O 45.182 -1.66894 -1.02582 0
M  V30 453 H 43.762 -0.563626 0.49024 0
M  V30 454 H 46.424 -0.908504 1.7243 0
M  V30 455 H 45.52 -2.41523 1.97669 0
M  V30 456 N 45.8211 -1.22559 -0.990812 0
M  V30 457 C 46.7691 -0.994798 -2.10253 0
M  V30 458 C 47.7631 0.0627798 -1.69284 0
M  V30 459 O 48.9691 -0.0898392 -1.79776 0
M  V30 460 H 45.3441 -0.304527 -0.687581 0
M  V30 461 H 47.3151 -1.93812 -2.26891 0
M  V30 462 C 46.0641 -0.591439 -3.42633 0
M  V30 463 H 45.3871 -1.3969 -3.74602 0
M  V30 464 H 46.8271 -0.469385 -4.21394 0
M  V30 465 C 45.2861 0.699232 -3.29564 0
M  V30 466 O 45.8161 1.75112 -3.61523 0
M  V30 467 N 44.0221 0.671182 -2.82743 0
M  V30 468 H 43.5691 -0.185136 -2.56934 0
M  V30 469 H 43.5271 1.53502 -2.7438 0
M  V30 470 N 47.2992 1.18797 -1.03562 0
M  V30 471 C 48.2622 2.20464 -0.626769 0
M  V30 472 C 49.2622 1.57721 0.313173 0
M  V30 473 O 50.4522 1.73917 0.0992615 0
M  V30 474 C 47.5842 3.40802 0.0818498 0
M  V30 475 H 48.7772 2.58149 -1.5264 0
M  V30 476 H 46.3302 1.32593 -0.827578 0
M  V30 477 H 47.0652 3.08642 0.995518 0
M  V30 478 H 46.8502 3.8758 -0.593652 0
M  V30 479 H 48.3402 4.16092 0.354584 0
M  V30 480 N 48.7773 0.814389 1.34928 0
M  V30 481 C 49.7243 0.22822 2.29669 0
M  V30 482 C 50.6943 -0.642164 1.53184 0
M  V30 483 O 51.8793 -0.585605 1.81591 0
M  V30 484 C 49.0193 -0.61089 3.3965 0
M  V30 485 C 48.1323 0.280792 4.31086 0
M  V30 486 C 47.2673 -0.567067 5.28165 0
M  V30 487 C 46.3063 0.324531 6.11239 0
M  V30 488 N 45.4433 -0.483756 7.00431 0
M  V30 489 H 50.2833 1.04153 2.79206 0
M  V30 490 H 47.8203 0.525133 1.37407 0
M  V30 491 H 49.7783 -1.11263 4.0209 0
M  V30 492 H 48.4083 -1.38939 2.91369 0
M  V30 493 H 47.4603 0.900688 3.69583 0
M  V30 494 H 48.7723 0.966723 4.89342 0
M  V30 495 H 47.9263 -1.13363 5.96015 0
M  V30 496 H 46.6653 -1.28654 4.70425 0
M  V30 497 H 45.6703 0.903298 5.42329 0
M  V30 498 H 46.8953 1.04198 6.71059 0
M  V30 499 H 44.8413 -1.18706 6.45171 0
M  V30 500 H 44.7583 0.143965 7.55863 0
M  V30 501 H 46.0263 -1.03334 7.7262 0
M  V30 502 N 50.2554 -1.46986 0.568584 0
M  V30 503 C 51.1874 -2.28233 -0.210337 0
M  V30 504 C 52.2004 -1.37682 -0.868767 0
M  V30 505 O 53.3894 -1.62406 -0.740705 0
M  V30 506 C 50.4894 -3.12293 -1.3163 0
M  V30 507 C 49.6624 -4.30878 -0.7525 0
M  V30 508 C 48.7214 -4.96445 -1.74439 0
M  V30 509 O 47.7474 -5.54482 -1.286 0
M  V30 510 N 48.9494 -4.92171 -3.07812 0
M  V30 511 H 51.7144 -2.95723 0.486648 0
M  V30 512 H 49.2754 -1.56742 0.405409 0
M  V30 513 H 51.2674 -3.53022 -1.97883 0
M  V30 514 H 49.8374 -2.46971 -1.91636 0
M  V30 515 H 49.0574 -3.94104 0.0871128 0
M  V30 516 H 50.3454 -5.07558 -0.35536 0
M  V30 517 H 49.7434 -4.46239 -3.47688 0
M  V30 518 H 48.3004 -5.36884 -3.69592 0
M  V30 519 N 51.7335 -0.305618 -1.54608 0
M  V30 520 C 52.6965 0.555591 -2.22364 0
M  V30 521 C 53.6965 1.05768 -1.21119 0
M  V30 522 O 54.8865 0.952972 -1.45822 0
M  V30 523 C 52.0185 1.76974 -2.91364 0
M  V30 524 H 53.2115 -0.0364572 -2.99878 0
M  V30 525 H 50.7645 -0.0565007 -1.56198 0
M  V30 526 H 51.4995 2.40151 -2.17941 0
M  V30 527 H 51.2845 1.41732 -3.65588 0
M  V30 528 H 52.7745 2.38148 -3.43038 0
M  V30 529 N 53.2116 1.57565 -0.0334293 0
M  V30 530 C 54.1746 2.09393 0.932048 0
M  V30 531 C 55.1746 1.00986 1.25134 0
M  V30 532 O 56.3646 1.27129 1.19096 0
M  V30 533 C 53.4966 2.56338 2.2473 0
M  V30 534 H 54.6896 2.95984 0.483085 0
M  V30 535 H 52.2426 1.54819 0.21468 0
M  V30 536 H 52.9776 1.7309 2.74245 0
M  V30 537 H 52.7626 3.35542 2.02865 0
M  V30 538 H 54.2526 2.96646 2.93923 0
M  V30 539 N 54.6897 -0.239769 1.55765 0
M  V30 540 C 55.6397 -1.30002 1.87306 0
M  V30 541 C 56.6237 -1.43156 0.73452 0
M  V30 542 O 57.8157 -1.46277 0.99659 0
M  V30 543 C 54.9447 -2.65409 2.17745 0
M  V30 544 C 54.0307 -2.56231 3.37945 0
M  V30 545 N 54.4217 -2.16689 4.57033 0
M  V30 546 C 52.7197 -2.87229 3.41197 0
M  V30 547 C 53.4207 -2.18318 5.39177 0
M  V30 548 N 52.3967 -2.58098 4.78421 0
M  V30 549 H 56.1987 -0.984912 2.76906 0
M  V30 550 H 53.7127 -0.448381 1.56087 0
M  V30 551 H 55.7097 -3.41934 2.38509 0
M  V30 552 H 54.3697 -2.97781 1.29448 0
M  V30 553 H 55.3807 -1.88116 4.82528 0
M  V30 554 H 52.0577 -3.24094 2.63191 0
M  V30 555 H 53.4477 -1.90025 6.44469 0
M  V30 556 N 56.1678 -1.49265 -0.50573 0
M  V30 557 C 57.3978 -1.61979 -1.28243 0
M  V30 558 C 57.8058 -0.288576 -1.86986 0
M  V30 559 O 57.1488 0.735408 -1.68337 0
M  V30 560 C 57.2108 -2.62632 -2.45489 0
M  V30 561 C 56.8748 -4.071 -2.07651 0
M  V30 562 C 57.8718 -4.94049 -1.61901 0
M  V30 563 C 55.5568 -4.52801 -2.17431 0
M  V30 564 C 57.5508 -6.24736 -1.26428 0
M  V30 565 C 55.2378 -5.83503 -1.8157 0
M  V30 566 C 56.2358 -6.69294 -1.36142 0
M  V30 567 O 55.9238 -7.9756 -1.00764 0
M  V30 568 H 55.6558 -0.54834 -0.395347 0
M  V30 569 H 58.2098 -1.96002 -0.614204 0
M  V30 570 H 56.4398 -2.2378 -3.15372 0
M  V30 571 H 58.1288 -2.64925 -3.07522 0
M  V30 572 H 58.8948 -4.5997 -1.53795 0
M  V30 573 H 54.7738 -3.86196 -2.51742 0
M  V30 574 H 58.3178 -6.91652 -0.908992 0
M  V30 575 H 54.2148 -6.17112 -1.89324 0
M  V30 576 H 54.9828 -8.10529 -1.13952 0
M  V30 577 N 57.6459 0.756429 -1.3826 0
M  V30 578 C 58.8759 1.54341 -1.3734 0
M  V30 579 C 59.2839 1.89159 0.0393917 0
M  V30 580 O 58.6269 1.5307 1.01565 0
M  V30 581 C 58.6889 2.87238 -2.16182 0
M  V30 582 C 58.3529 2.74973 -3.65019 0
M  V30 583 C 59.3499 2.44962 -4.58574 0
M  V30 584 C 57.0349 2.92515 -4.08338 0
M  V30 585 C 59.0289 2.32642 -5.93428 0
M  V30 586 C 56.7159 2.79815 -5.43274 0
M  V30 587 C 57.7139 2.49921 -6.35632 0
M  V30 588 O 57.4019 2.37275 -7.68086 0
M  V30 589 H 57.1339 0.484281 -0.471643 0
M  V30 590 H 59.6879 0.944152 -1.82414 0
M  V30 591 H 57.9179 3.49342 -1.65822 0
M  V30 592 H 59.6069 3.48731 -2.07705 0
M  V30 593 H 60.3729 2.31081 -4.26412 0
M  V30 594 H 56.2519 3.14781 -3.368 0
M  V30 595 H 59.7959 2.0923 -6.65484 0
M  V30 596 H 55.6929 2.93269 -5.75034 0
M  V30 597 H 56.4609 2.52509 -7.78577 0
M  V30 598 N 59.124 1.23083 0.984299 0
M  V30 599 C 60.349 1.088 1.76571 0
M  V30 600 C 60.774 -0.356657 1.84688 0
M  V30 601 O 60.132 -1.25788 1.30565 0
M  V30 602 C 60.18 1.71371 3.17277 0
M  V30 603 O 59.284 0.973213 4.00752 0
M  V30 604 H 58.625 0.381599 0.543395 0
M  V30 605 H 61.155 1.63057 1.23587 0
M  V30 606 H 61.165 1.76449 3.67872 0
M  V30 607 H 59.84 2.76493 3.10684 0
M  V30 608 H 58.417 0.999078 3.59267 0
M  V30 609 N 60.6021 -1.18246 1.0419 0
M  V30 610 C 61.8301 -1.92195 0.766072 0
M  V30 611 C 62.2451 -1.76247 -0.676933 0
M  V30 612 O 61.6021 -1.09293 -1.46155 0
M  V30 613 C 61.6531 -3.43568 1.12442 0
M  V30 614 O 61.3741 -3.59015 2.51078 0
M  V30 615 C 62.8751 -4.34613 0.873275 0
M  V30 616 H 60.0951 -0.610114 0.279288 0
M  V30 617 H 62.6391 -1.50007 1.38989 0
M  V30 618 H 60.7941 -3.8354 0.545542 0
M  V30 619 H 61.2081 -4.5273 2.64831 0
M  V30 620 H 62.6821 -5.39374 1.17385 0
M  V30 621 H 63.1591 -4.38781 -0.191909 0
M  V30 622 H 63.7651 -4.00341 1.43551 0
M  V30 623 N 62.0802 -0.821533 -1.34494 0
M  V30 624 C 63.0432 -0.247847 -2.27856 0
M  V30 625 C 64.0432 0.573453 -1.50227 0
M  V30 626 O 65.2332 0.389759 -1.69784 0
M  V30 627 C 62.3652 0.652698 -3.34593 0
M  V30 628 H 63.5582 -1.07146 -2.80107 0
M  V30 629 H 61.1112 -0.593291 -1.44602 0
M  V30 630 H 61.8462 1.49943 -2.87555 0
M  V30 631 H 61.6312 0.065292 -3.92046 0
M  V30 632 H 63.1212 1.04793 -4.04238 0
M  V30 633 N 63.5583 1.46682 -0.576371 0
M  V30 634 C 64.8053 2.02412 -0.0595339 0
M  V30 635 C 65.1333 1.44859 1.29793 0
M  V30 636 O 64.3883 0.601099 1.8624 0
M  V30 637 C 64.6873 3.57345 0.062886 0
M  V30 638 C 64.3533 4.33908 -1.22616 0
M  V30 639 C 63.0153 4.54544 -1.57933 0
M  V30 640 C 65.3673 4.77919 -2.07948 0
M  V30 641 C 62.6953 5.16444 -2.78393 0
M  V30 642 C 65.0473 5.41149 -3.27629 0
M  V30 643 C 63.7113 5.60014 -3.63236 0
M  V30 644 H 62.9813 0.74068 -0.021785 0
M  V30 645 H 65.6283 1.76128 -0.751735 0
M  V30 646 H 63.9333 3.82729 0.838178 0
M  V30 647 H 65.6303 3.98136 0.478439 0
M  V30 648 H 62.2203 4.18138 -0.941202 0
M  V30 649 H 66.4043 4.61738 -1.81967 0
M  V30 650 H 61.6603 5.29242 -3.06126 0
M  V30 651 H 65.8343 5.74211 -3.94023 0
M  V30 652 H 63.4613 6.07748 -4.56669 0
M  V30 653 N 65.0364 0.313813 1.54444 0
M  V30 654 C 66.2844 -0.291099 1.99993 0
M  V30 655 C 66.6054 -1.53418 1.20366 0
M  V30 656 O 65.8754 -1.93544 0.302927 0
M  V30 657 H 64.4554 -0.110552 0.738774 0
M  V30 658 H 67.1174 0.428106 1.9014 0
M  V30 659 H 66.2134 -0.554268 3.07139 0
M  V30 660 N 66.5145 -1.57545 0.0417849 0
M  V30 661 C 67.4475 -2.06514 -0.970928 0
M  V30 662 C 68.4255 -0.963607 -1.30971 0
M  V30 663 O 69.6095 -1.23486 -1.4242 0
M  V30 664 C 66.7365 -2.4978 -2.28752 0
M  V30 665 C 65.7825 -3.71078 -2.10246 0
M  V30 666 S 66.6155 -5.17158 -1.38952 0
M  V30 667 C 67.7715 -5.6373 -2.71954 0
M  V30 668 H 68.0045 -2.9209 -0.554129 0
M  V30 669 H 65.5375 -1.53459 -0.17024 0
M  V30 670 H 67.4955 -2.75371 -3.04435 0
M  V30 671 H 66.1565 -1.64527 -2.67562 0
M  V30 672 H 65.3495 -3.9924 -3.07609 0
M  V30 673 H 64.9515 -3.45705 -1.42704 0
M  V30 674 H 67.2435 -5.68743 -3.68154 0
M  V30 675 H 68.1865 -6.63086 -2.4844 0
M  V30 676 H 68.5945 -4.91424 -2.77782 0
M  V30 677 N 67.9926 0.231505 -1.5589 0
M  V30 678 C 68.9246 1.31006 -1.8807 0
M  V30 679 C 69.9376 1.43539 -0.768145 0
M  V30 680 O 71.1266 1.44614 -1.04638 0
M  V30 681 C 68.2266 2.68688 -2.06543 0
M  V30 682 C 67.3996 2.78228 -3.37502 0
M  V30 683 C 66.4586 3.96857 -3.4553 0
M  V30 684 O 65.4846 3.85662 -4.18633 0
M  V30 685 N 66.6866 5.1072 -2.75944 0
M  V30 686 H 69.4516 1.03731 -2.81176 0
M  V30 687 H 67.0126 0.421573 -1.56315 0
M  V30 688 H 69.0046 3.46412 -2.09239 0
M  V30 689 H 67.5746 2.88605 -1.20109 0
M  V30 690 H 66.7946 1.87059 -3.46991 0
M  V30 691 H 68.0826 2.81564 -4.23791 0
M  V30 692 H 67.4806 5.2271 -2.16311 0
M  V30 693 H 66.0376 5.86523 -2.84314 0
M  V30 694 N 69.4707 1.49531 0.497807 0
M  V30 695 C 70.4007 1.6935 1.60757 0
M  V30 696 C 71.3817 0.542218 1.61227 0
M  V30 697 O 72.5667 0.778417 1.77917 0
M  V30 698 C 69.6967 1.76298 2.99226 0
M  V30 699 C 68.6507 2.91248 3.13622 0
M  V30 700 C 67.9767 2.83312 4.53474 0
M  V30 701 C 69.2767 4.3214 2.93346 0
M  V30 702 H 70.9707 2.62263 1.44425 0
M  V30 703 H 68.5167 1.26208 0.693367 0
M  V30 704 H 70.4697 1.88749 3.76765 0
M  V30 705 H 69.1937 0.799871 3.16654 0
M  V30 706 H 67.8527 2.78404 2.38509 0
M  V30 707 H 67.5007 1.84902 4.67782 0
M  V30 708 H 67.2007 3.60465 4.64046 0
M  V30 709 H 68.7247 2.97775 5.33069 0
M  V30 710 H 70.1387 4.45649 3.60652 0
M  V30 711 H 68.5357 5.1054 3.15387 0
M  V30 712 H 69.6057 4.46363 1.89441 0
M  V30 713 N 70.9488 -0.749086 1.3866 0
M  V30 714 C 72.1948 -1.51056 1.35314 0
M  V30 715 C 72.5278 -1.94121 -0.0553751 0
M  V30 716 O 71.8028 -1.65763 -1.01749 0
M  V30 717 C 72.0858 -2.76003 2.31288 0
M  V30 718 C 71.9388 -2.39047 3.8102 0
M  V30 719 C 73.2578 -3.78046 2.2532 0
M  V30 720 H 70.3768 -0.547972 0.492844 0
M  V30 721 H 73.0188 -0.857628 1.69543 0
M  V30 722 H 71.1688 -3.31716 2.02229 0
M  V30 723 H 72.8408 -1.89074 4.20771 0
M  V30 724 H 71.0838 -1.71449 3.98482 0
M  V30 725 H 71.7548 -3.28462 4.4364 0
M  V30 726 H 74.2308 -3.31884 2.50983 0
M  V30 727 H 73.1068 -4.63159 2.94576 0
M  V30 728 H 73.3678 -4.23957 1.25352 0
M  V30 729 N 72.4269 -1.23603 -0.977757 0
M  V30 730 C 73.3899 -1.02069 -2.05218 0
M  V30 731 C 74.3899 0.0184305 -1.60789 0
M  V30 732 O 75.5799 -0.221569 -1.72785 0
M  V30 733 C 72.7119 -0.544926 -3.36517 0
M  V30 734 H 73.9049 -1.9742 -2.25755 0
M  V30 735 H 71.4579 -1.05684 -1.15155 0
M  V30 736 H 72.1929 0.412241 -3.21669 0
M  V30 737 H 71.9779 -1.2948 -3.70105 0
M  V30 738 H 73.4679 -0.414985 -4.15533 0
M  V30 739 N 73.905 1.17692 -1.04816 0
M  V30 740 C 75.135 1.91508 -0.775128 0
M  V30 741 C 75.543 1.76844 0.67253 0
M  V30 742 O 74.886 1.10057 1.47082 0
M  V30 743 C 74.948 3.43167 -1.0713 0
M  V30 744 C 74.612 3.81612 -2.51438 0
M  V30 745 C 75.609 3.84772 -3.49638 0
M  V30 746 C 73.294 4.12687 -2.86348 0
M  V30 747 C 75.288 4.18469 -4.80794 0
M  V30 748 C 72.975 4.46053 -4.17708 0
M  V30 749 C 73.973 4.48921 -5.14741 0
M  V30 750 O 73.661 4.81504 -6.43746 0
M  V30 751 H 73.393 0.614575 -0.281555 0
M  V30 752 H 75.947 1.50206 -1.40098 0
M  V30 753 H 74.177 3.84745 -0.388342 0
M  V30 754 H 75.866 3.98239 -0.784883 0
M  V30 755 H 76.632 3.60893 -3.24008 0
M  V30 756 H 72.511 4.09627 -2.11486 0
M  V30 757 H 76.055 4.20623 -5.56527 0
M  V30 758 H 71.952 4.69393 -4.43103 0
M  V30 759 H 72.72 4.99377 -6.4851 0
M  V30 760 N 75.3831 0.828654 1.34056 0
M  V30 761 C 76.6081 0.431637 2.02859 0
M  V30 762 C 77.0331 -0.956339 1.61975 0
M  V30 763 O 76.3911 -1.62338 0.807228 0
M  V30 764 C 76.4391 0.548323 3.56407 0
M  V30 765 O 75.5431 -0.429556 4.10157 0
M  V30 766 H 74.8841 0.176886 0.640006 0
M  V30 767 H 77.4141 1.12066 1.71179 0
M  V30 768 H 77.4241 0.426196 4.05768 0
M  V30 769 H 76.0991 1.5606 3.8551 0
M  V30 770 H 74.6761 -0.265836 3.71951 0
M  V30 771 N 76.8612 -1.46375 0.584142 0
M  V30 772 C 78.1092 -2.01978 0.0701287 0
M  V30 773 C 78.4302 -1.4579 -1.295 0
M  V30 774 O 77.7002 -0.64314 -1.85042 0
M  V30 775 H 76.2802 -0.746648 0.0229345 0
M  V30 776 H 78.9422 -1.79461 0.760245 0
M  V30 777 H 78.0382 -3.121 0.0022064 0
M  V30 778 N 78.3393 -0.321999 -1.54275 0
M  V30 779 C 79.7503 0.166384 -1.85957 0
M  V30 780 C 80.1013 1.51747 -1.24367 0
M  V30 781 O 79.2263 2.09317 -0.549124 0
M  V30 782 C 79.8213 0.308681 -3.37391 0
M  V30 783 C 78.3803 0.741286 -3.69028 0
M  V30 784 C 77.5273 -0.137937 -2.76957 0
M  V30 785 H 80.4783 -0.542335 -1.49146 0
M  V30 786 H 80.4993 1.13984 -3.63026 0
M  V30 787 H 80.0113 -0.674809 -3.82188 0
M  V30 788 H 78.1123 1.73458 -3.29762 0
M  V30 789 H 78.2253 0.546118 -4.75977 0
M  V30 790 H 76.5893 0.386251 -2.51754 0
M  V30 791 H 77.3723 -1.11816 -3.2458 0
M  V30 792 N 79.8174 1.5752 -0.0501392 0
M  V30 793 C 80.7274 2.14952 0.939827 0
M  V30 794 C 81.7434 1.10706 1.34239 0
M  V30 795 O 82.9194 1.42869 1.41952 0
M  V30 796 C 79.9844 2.68232 2.19665 0
M  V30 797 C 79.0454 3.87272 1.85253 0
M  V30 798 C 78.2784 4.38002 3.04943 0
M  V30 799 O 78.5014 3.87811 4.18281 0
M  V30 800 O 77.4354 5.29602 2.86017 0
M  V30 801 H 81.2614 2.9986 0.481392 0
M  V30 802 H 78.8464 1.4841 0.171699 0
M  V30 803 H 80.7284 3.02475 2.93406 0
M  V30 804 H 79.4034 1.86395 2.64648 0
M  V30 805 H 78.3104 3.5792 1.0883 0
M  V30 806 H 79.6434 4.70336 1.4507 0
M  V30 807 N 81.2955 -0.223234 1.56011 0
M  V30 808 C 82.2435 -1.29627 1.93131 0
M  V30 809 C 83.2375 -1.48608 0.813146 0
M  V30 810 O 84.4435 -1.49802 0.997966 0
M  V30 811 H 80.8185 -0.434563 0.613726 0
M  V30 812 H 82.7895 -0.955995 2.82672 0
M  V30 813 C 81.5385 -2.63983 2.26292 0
M  V30 814 H 80.8615 -2.50185 3.11846 0
M  V30 815 H 82.3015 -3.3788 2.56151 0
M  V30 816 C 80.7605 -3.18866 1.08747 0
M  V30 817 O 81.2905 -4.00192 0.347727 0
M  V30 818 N 79.4965 -2.77217 0.871743 0
M  V30 819 H 79.0435 -2.1119 1.47501 0
M  V30 820 H 79.0015 -3.1428 0.0869905 0
M  V30 821 N 82.7736 -1.49793 -0.48987 0
M  V30 822 C 84.0216 -1.59525 -1.24081 0
M  V30 823 C 84.3426 -0.288953 -1.92847 0
M  V30 824 O 83.6126 0.692436 -1.83254 0
M  V30 825 H 82.1926 -0.587796 -0.460983 0
M  V30 826 H 84.8546 -1.86477 -0.566778 0
M  V30 827 H 83.9506 -2.39696 -1.99881 0
M  V30 828 N 84.2517 0.741722 -1.39055 0
M  V30 829 C 85.4767 1.53607 -1.39354 0
M  V30 830 C 85.9017 1.88096 0.0116905 0
M  V30 831 O 85.2597 1.5143 0.996924 0
M  V30 832 C 85.3077 2.80441 -2.26682 0
M  V30 833 O 84.4117 3.76088 -1.69208 0
M  V30 834 H 83.7527 0.464142 -0.474835 0
M  V30 835 H 86.2827 0.915665 -1.82967 0
M  V30 836 H 86.2927 3.29246 -2.40959 0
M  V30 837 H 84.9677 2.5467 -3.2881 0
M  V30 838 H 83.5447 3.34833 -1.64138 0
M  V30 839 N 85.7298 1.2412 0.971189 0
M  V30 840 C 87.1458 1.00584 1.23916 0
M  V30 841 C 87.3458 -0.287481 1.99439 0
M  V30 842 O 86.4018 -1.00454 2.31658 0
M  V30 843 C 87.7148 2.21864 2.0297 0
M  V30 844 C 89.2628 2.26452 2.16076 0
M  V30 845 C 89.7378 3.47343 2.98524 0
M  V30 846 N 91.2288 3.47639 3.06107 0
M  V30 847 C 91.9638 4.37837 3.70251 0
M  V30 848 N 91.4598 5.38286 4.36142 0
M  V30 849 N 93.2528 4.25558 3.67228 0
M  V30 850 H 85.4038 2.07236 0.465499 0
M  V30 851 H 87.6668 0.909236 0.268315 0
M  V30 852 H 87.3728 3.15771 1.54861 0
M  V30 853 H 87.2468 2.23698 3.03709 0
M  V30 854 H 89.6338 1.33078 2.6339 0
M  V30 855 H 89.7148 2.28645 1.14696 0
M  V30 856 H 89.3588 4.41029 2.51905 0
M  V30 857 H 89.2888 3.42393 4.00093 0
M  V30 858 H 91.7798 2.74966 2.59233 0
M  V30 859 H 92.0928 6.03352 4.82894 0
M  V30 860 H 90.4378 5.42176 4.34822 0
M  V30 861 H 93.6288 3.46322 3.14927 0
M  V30 862 H 93.8018 4.96054 4.16935 0
M  V30 863 N 87.2079 -1.17134 1.05439 0
M  V30 864 C 88.1179 -2.24878 0.668365 0
M  V30 865 C 89.1339 -1.71186 -0.311687 0
M  V30 866 O 90.3099 -2.00738 -0.163161 0
M  V30 867 C 87.3749 -3.46662 0.051648 0
M  V30 868 C 86.4359 -4.15429 1.08246 0
M  V30 869 C 85.6689 -5.31399 0.495082 0
M  V30 870 O 85.8919 -5.66153 -0.694743 0
M  V30 871 O 84.8259 -5.89187 1.23056 0
M  V30 872 H 88.6519 -2.60189 1.56637 0
M  V30 873 H 86.2369 -1.24482 0.826104 0
M  V30 874 H 88.1189 -4.20394 -0.290966 0
M  V30 875 H 86.7939 -3.13142 -0.819971 0
M  V30 876 H 85.7009 -3.43704 1.47711 0
M  V30 877 H 87.0339 -4.52982 1.92532 0
M  V30 878 N 88.686 -0.835752 -1.33615 0
M  V30 879 C 89.914 -0.443344 -2.02094 0
M  V30 880 C 90.329 0.954522 -1.62894 0
M  V30 881 O 89.686 1.61982 -0.840723 0
M  V30 882 C 89.737 -0.550775 -3.5728 0
M  V30 883 O 89.458 -1.89356 -3.95065 0
M  V30 884 C 90.959 -0.154919 -4.43029 0
M  V30 885 H 88.179 -0.176359 -0.647409 0
M  V30 886 H 90.723 -1.12746 -1.70612 0
M  V30 887 H 88.878 0.0853997 -3.87306 0
M  V30 888 H 89.292 -1.87687 -4.89769 0
M  V30 889 H 90.766 -0.281144 -5.51284 0
M  V30 890 H 91.243 0.902863 -4.2982 0
M  V30 891 H 91.849 -0.765404 -4.18356 0
M  V30 892 N 90.1641 1.46063 -0.591896 0
M  V30 893 C 91.1271 2.28854 0.125973 0
M  V30 894 C 92.1271 1.38903 0.810107 0
M  V30 895 O 93.3171 1.61186 0.66066 0
M  V30 896 C 90.4491 3.19526 1.1881 0
M  V30 897 H 91.6421 2.93802 -0.601717 0
M  V30 898 H 89.1951 1.52325 -0.350254 0
M  V30 899 H 89.9301 2.59345 1.94707 0
M  V30 900 H 89.7151 3.85766 0.701936 0
M  V30 901 H 91.2051 3.81817 1.69132 0
M  V30 902 N 91.6422 0.330177 1.54103 0
M  V30 903 C 92.8672 -0.274893 2.0557 0
M  V30 904 C 93.2922 -1.44487 1.20437 0
M  V30 905 O 92.6502 -1.80021 0.214991 0
M  V30 906 C 92.6982 -0.68079 3.54115 0
M  V30 907 O 91.8022 -1.7824 3.71893 0
M  V30 908 H 91.1432 -0.0483849 0.662235 0
M  V30 909 H 93.6732 0.480508 1.98878 0
M  V30 910 H 93.6832 -0.961635 3.96505 0
M  V30 911 H 92.3582 0.174903 4.15532 0
M  V30 912 H 90.9352 -1.49985 3.41407 0
M  V30 913 N 93.1203 -1.57491 0.0584922 0
M  V30 914 C 94.3503 -1.9701 -0.622134 0
M  V30 915 C 94.7583 -0.935034 -1.6448 0
M  V30 916 O 94.1013 0.0882904 -1.83488 0
M  V30 917 C 94.1633 -3.32794 -1.35972 0
M  V30 918 C 93.8273 -4.54343 -0.492043 0
M  V30 919 C 94.8243 -5.19323 0.244901 0
M  V30 920 C 92.5093 -5.00534 -0.420821 0
M  V30 921 C 94.5033 -6.28835 1.04143 0
M  V30 922 C 92.1903 -6.09921 0.379389 0
M  V30 923 C 93.1883 -6.73933 1.10919 0
M  V30 924 O 92.8763 -7.81216 1.89623 0
M  V30 925 H 92.6083 -0.653127 -0.174359 0
M  V30 926 H 95.1623 -2.05029 0.123418 0
M  V30 927 H 93.3923 -3.21351 -2.15105 0
M  V30 928 H 95.0813 -3.5701 -1.93129 0
M  V30 929 H 95.8473 -4.8459 0.19939 0
M  V30 930 H 91.7263 -4.50496 -0.978474 0
M  V30 931 H 95.2703 -6.7873 1.61157 0
M  V30 932 H 91.1673 -6.44089 0.426512 0
M  V30 933 H 91.9353 -7.98029 1.81913 0
M  V30 934 N 94.5984 0.214957 -1.56127 0
M  V30 935 C 95.8444 0.939762 -1.79712 0
M  V30 936 C 96.1774 1.83723 -0.629247 0
M  V30 937 O 95.4524 1.90925 0.371197 0
M  V30 938 C 95.7354 1.77306 -3.13424 0
M  V30 939 C 95.5884 0.90164 -4.40671 0
M  V30 940 C 96.9074 2.74956 -3.43638 0
M  V30 941 H 94.0264 0.340214 -0.653776 0
M  V30 942 H 96.6684 0.20824 -1.88855 0
M  V30 943 H 94.8184 2.39673 -3.0576 0
M  V30 944 H 96.4904 0.294206 -4.60361 0
M  V30 945 H 94.7334 0.207368 -4.33304 0
M  V30 946 H 95.4044 1.51923 -5.30682 0
M  V30 947 H 97.8804 2.22724 -3.51473 0
M  V30 948 H 96.7564 3.30358 -4.38355 0
M  V30 949 H 97.0174 3.53023 -2.66134 0
M  V30 950 N 96.0765 1.50051 0.48192 0
M  V30 951 C 97.0065 1.71046 1.58951 0
M  V30 952 C 97.9875 0.559288 1.60642 0
M  V30 953 O 99.1725 0.797243 1.77081 0
M  V30 954 C 96.3025 1.79462 2.97339 0
M  V30 955 C 95.2565 2.94558 3.10515 0
M  V30 956 C 94.5825 2.88105 4.50444 0
M  V30 957 C 95.8825 4.35227 2.88747 0
M  V30 958 H 97.5765 2.6378 1.41635 0
M  V30 959 H 95.1225 1.26936 0.679942 0
M  V30 960 H 97.0755 1.92734 3.74742 0
M  V30 961 H 95.7995 0.833412 3.15788 0
M  V30 962 H 94.4585 2.80918 2.35543 0
M  V30 963 H 94.1065 1.89853 4.65795 0
M  V30 964 H 93.8065 3.65366 4.60197 0
M  V30 965 H 95.3305 3.03412 5.29881 0
M  V30 966 H 96.7445 4.49449 3.55905 0
M  V30 967 H 95.1415 5.13856 3.09955 0
M  V30 968 H 96.2115 4.48347 1.84696 0
M  V30 969 N 97.5546 -0.734337 1.39446 0
M  V30 970 C 98.7826 -1.52358 1.39981 0
M  V30 971 C 99.1976 -1.88799 -0.0054975 0
M  V30 972 O 98.5546 -1.54146 -0.976998 0
M  V30 973 C 98.6056 -2.81072 2.27333 0
M  V30 974 O 98.3266 -2.46178 3.62392 0
M  V30 975 C 99.8276 -3.75096 2.36259 0
M  V30 976 H 97.0476 -0.470806 0.478103 0
M  V30 977 H 99.5916 -0.907339 1.83269 0
M  V30 978 H 97.7466 -3.39026 1.87457 0
M  V30 979 H 98.1606 -3.28866 4.08592 0
M  V30 980 H 99.6346 -4.62305 3.01626 0
M  V30 981 H 100.112 -4.16892 1.38194 0
M  V30 982 H 100.718 -3.23061 2.76608 0
M  V30 983 N 99.0327 -1.24633 -0.964593 0
M  V30 984 C 99.9807 -1.03917 -2.08096 0
M  V30 985 C 100.975 0.0268581 -1.69379 0
M  V30 986 O 102.181 -0.127952 -1.79545 0
M  V30 987 H 98.5557 -0.319044 -0.680966 0
M  V30 988 H 100.527 -1.98581 -2.22729 0
M  V30 989 C 99.2757 -0.663983 -3.41301 0
M  V30 990 H 98.5987 -1.47605 -3.71555 0
M  V30 991 H 100.039 -0.558663 -4.20303 0
M  V30 992 C 98.4977 0.629169 -3.30973 0
M  V30 993 O 99.0277 1.67404 -3.65156 0
M  V30 994 N 97.2337 0.611057 -2.84103 0
M  V30 995 H 96.7807 -0.239593 -2.56483 0
M  V30 996 H 96.7387 1.47647 -2.77575 0
M  V30 997 N 100.511 1.16574 -1.06058 0
M  V30 998 C 101.759 1.86677 -0.77434 0
M  V30 999 C 102.08 1.81959 0.701147 0
M  V30 1000 O 101.35 1.2515 1.50713 0
M  V30 1001 H 99.9298 0.691134 -0.283449 0
M  V30 1002 H 102.592 1.41378 -1.34158 0
M  V30 1003 H 101.688 2.92181 -1.09711 0
M  V30 1004 N 101.989 0.842826 1.3317 0
M  V30 1005 C 103.214 0.453129 2.02389 0
M  V30 1006 C 103.639 -0.939105 1.6298 0
M  V30 1007 O 102.997 -1.61472 0.8244 0
M  V30 1008 C 103.045 0.586094 3.55805 0
M  V30 1009 O 102.149 -0.386029 4.10589 0
M  V30 1010 H 101.49 0.183664 0.638094 0
M  V30 1011 H 104.02 1.13875 1.69981 0
M  V30 1012 H 104.03 0.469209 4.05293 0
M  V30 1013 H 102.705 1.6014 3.83833 0
M  V30 1014 H 101.282 -0.226371 3.72212 0
M  V30 1015 N 103.467 -1.45747 0.599634 0
M  V30 1016 C 104.43 -2.28917 -0.113835 0
M  V30 1017 C 105.43 -1.3933 -0.802729 0
M  V30 1018 O 106.62 -1.61534 -0.652103 0
M  V30 1019 C 103.752 -3.20152 -1.17114 0
M  V30 1020 H 104.945 -2.93478 0.617289 0
M  V30 1021 H 102.498 -1.52137 0.358327 0
M  V30 1022 H 103.233 -2.60374 -1.93329 0
M  V30 1023 H 103.018 -3.86133 -0.681468 0
M  V30 1024 H 104.508 -3.82708 -1.67105 0
M  V30 1025 N 104.945 -0.338344 -1.53925 0
M  V30 1026 C 106.361 0.0137736 -1.59594 0
M  V30 1027 C 106.561 1.49186 -1.35447 0
M  V30 1028 O 105.617 2.24987 -1.14616 0
M  V30 1029 C 106.93 -0.41773 -2.97784 0
M  V30 1030 C 108.478 -0.369633 -3.1081 0
M  V30 1031 C 108.953 -0.776524 -4.51369 0
M  V30 1032 N 110.444 -0.730506 -4.57403 0
M  V30 1033 C 111.179 -1.01736 -5.64303 0
M  V30 1034 N 110.675 -1.3721 -6.79077 0
M  V30 1035 N 112.468 -0.941942 -5.54151 0
M  V30 1036 H 104.619 -1.3012 -1.67876 0
M  V30 1037 H 106.882 -0.530082 -0.78595 0
M  V30 1038 H 106.588 -1.44811 -3.20504 0
M  V30 1039 H 106.462 0.209729 -3.76616 0
M  V30 1040 H 108.849 0.651568 -2.87817 0
M  V30 1041 H 108.93 -1.03223 -2.34049 0
M  V30 1042 H 108.574 -1.79571 -4.75096 0
M  V30 1043 H 108.504 -0.0914649 -5.26521 0
M  V30 1044 H 110.995 -0.468783 -3.74981 0
M  V30 1045 H 111.308 -1.57597 -7.5656 0
M  V30 1046 H 109.653 -1.4105 -6.80536 0
M  V30 1047 H 112.844 -0.664184 -4.63364 0
M  V30 1048 H 113.017 -1.16884 -6.37371 0
M  V30 1049 N 106.423 1.57458 -0.0668435 0
M  V30 1050 C 107.67 1.93301 0.603406 0
M  V30 1051 C 107.998 0.946486 1.69917 0
M  V30 1052 O 107.253 -0.0387021 1.95662 0
M  V30 1053 C 107.552 3.35784 1.22409 0
M  V30 1054 C 107.218 4.50179 0.254955 0
M  V30 1055 C 105.88 4.81199 -0.0116746 0
M  V30 1056 C 108.232 5.19598 -0.408338 0
M  V30 1057 C 105.56 5.78978 -0.94877 0
M  V30 1058 C 107.912 6.18381 -1.33372 0
M  V30 1059 C 106.576 6.47821 -1.60887 0
M  V30 1060 H 105.846 0.707338 0.220802 0
M  V30 1061 H 108.493 1.91012 -0.136665 0
M  V30 1062 H 106.798 3.34515 2.03978 0
M  V30 1063 H 108.495 3.60804 1.74989 0
M  V30 1064 H 105.085 4.25983 0.472954 0
M  V30 1065 H 109.269 4.95832 -0.215456 0
M  V30 1066 H 104.525 6.00115 -1.16925 0
M  V30 1067 H 108.699 6.71277 -1.85367 0
M  V30 1068 H 106.326 7.23399 -2.33661 0
M  V30 1069 N 107.901 -0.206675 1.56239 0
M  V30 1070 C 109.147 -0.930218 1.80208 0
M  V30 1071 C 109.48 -1.83387 0.638981 0
M  V30 1072 O 108.755 -1.91119 -0.361066 0
M  V30 1073 C 109.038 -1.75641 3.1436 0
M  V30 1074 C 108.891 -0.878257 4.41142 0
M  V30 1075 C 110.21 -2.73129 3.45092 0
M  V30 1076 H 107.329 -0.336742 0.655571 0
M  V30 1077 H 109.971 -0.198222 1.88963 0
M  V30 1078 H 108.121 -2.38048 3.07027 0
M  V30 1079 H 109.793 -0.269787 4.6051 0
M  V30 1080 H 108.036 -0.184385 4.33408 0
M  V30 1081 H 108.707 -1.49106 5.3148 0
M  V30 1082 H 111.183 -2.20856 3.52649 0
M  V30 1083 H 110.059 -3.28028 4.40101 0
M  V30 1084 H 110.32 -3.51606 2.68003 0
M  V30 1085 N 109.379 -1.50304 -0.473955 0
M  V30 1086 C 110.309 -1.71886 -1.58042 0
M  V30 1087 C 111.29 -0.567799 -1.60344 0
M  V30 1088 O 112.475 -0.806623 -1.76656 0
M  V30 1089 C 109.605 -1.81036 -2.96384 0
M  V30 1090 C 108.559 -2.962 -3.08949 0
M  V30 1091 C 107.885 -2.9049 -4.48909 0
M  V30 1092 C 109.185 -4.36752 -2.86434 0
M  V30 1093 H 110.879 -2.64527 -1.40234 0
M  V30 1094 H 108.425 -1.27295 -0.673201 0
M  V30 1095 H 110.378 -1.94719 -3.73714 0
M  V30 1096 H 109.102 -0.850147 -3.15341 0
M  V30 1097 H 107.761 -2.82164 -2.3405 0
M  V30 1098 H 107.409 -1.92321 -4.64781 0
M  V30 1099 H 107.109 -3.67802 -4.58253 0
M  V30 1100 H 108.633 -3.06218 -5.28264 0
M  V30 1101 H 110.047 -4.5133 -3.53517 0
M  V30 1102 H 108.444 -5.15493 -3.07225 0
M  V30 1103 H 109.514 -4.49321 -1.82316 0
M  V30 1104 N 110.857 0.726932 -1.39834 0
M  V30 1105 C 112.085 1.51613 -1.40787 0
M  V30 1106 C 112.5 1.88799 -0.00451505 0
M  V30 1107 O 111.857 1.54662 0.968809 0
M  V30 1108 C 111.908 2.79863 -2.28821 0
M  V30 1109 O 111.629 2.44253 -3.63692 0
M  V30 1110 C 113.13 3.73837 -2.38245 0
M  V30 1111 H 110.35 0.468264 -0.480593 0
M  V30 1112 H 112.894 0.897607 -1.83748 0
M  V30 1113 H 111.049 3.38027 -1.89252 0
M  V30 1114 H 111.463 3.26695 -4.1033 0
M  V30 1115 H 112.937 4.60699 -3.04073 0
M  V30 1116 H 113.414 4.16153 -1.40403 0
M  V30 1117 H 114.02 3.21589 -2.78317 0
M  V30 1118 N 112.336 1.25143 0.95797 0
M  V30 1119 C 113.561 1.12521 1.74223 0
M  V30 1120 C 113.986 -0.317402 1.85403 0
M  V30 1121 O 113.344 -1.2299 1.33204 0
M  V30 1122 C 113.392 1.78062 3.1357 0
M  V30 1123 O 112.496 1.058 3.98598 0
M  V30 1124 H 111.837 0.39304 0.535178 0
M  V30 1125 H 114.367 1.65641 1.201 0
M  V30 1126 H 114.377 1.84213 3.64046 0
M  V30 1127 H 113.052 2.83021 3.04749 0
M  V30 1128 H 111.629 1.07506 3.57067 0
M  V30 1129 N 113.814 -1.1601 1.06675 0
M  V30 1130 C 115.06 -1.86909 0.786945 0
M  V30 1131 C 115.393 -1.81717 -0.685018 0
M  V30 1132 O 114.668 -1.23551 -1.50218 0
M  V30 1133 C 114.951 -3.36313 1.28707 0
M  V30 1134 C 114.804 -3.50175 2.82308 0
M  V30 1135 C 116.123 -4.3084 0.898071 0
M  V30 1136 H 113.242 -0.678677 0.287343 0
M  V30 1137 H 115.884 -1.36336 1.32334 0
M  V30 1138 H 114.034 -3.79513 0.830768 0
M  V30 1139 H 115.706 -3.15886 3.36175 0
M  V30 1140 H 113.949 -2.91959 3.20847 0
M  V30 1141 H 114.62 -4.55116 3.12368 0
M  V30 1142 H 117.096 -3.95561 1.29114 0
M  V30 1143 H 115.972 -5.33876 1.27543 0
M  V30 1144 H 116.233 -4.41662 -0.196651 0
M  V30 1145 N 115.292 -0.849877 -1.32721 0
M  V30 1146 C 116.541 -0.447175 -1.96681 0
M  V30 1147 C 116.854 1.00135 -1.68025 0
M  V30 1148 O 118.06 1.50926 -2.25685 0
M  V30 1149 C 116.516 -0.7487 -3.52026 0
M  V30 1150 C 116.124 -2.21264 -3.89546 0
M  V30 1151 C 117.868 -0.413487 -4.22481 0
M  V30 1152 C 115.775 -2.45763 -5.37917 0
M  V30 1153 H 114.705 -0.163486 -0.736063 0
M  V30 1154 H 117.356 -1.03999 -1.51183 0
M  V30 1155 H 115.738 -0.0853727 -3.95908 0
M  V30 1156 H 116.912 -2.91736 -3.56689 0
M  V30 1157 H 115.227 -2.5119 -3.32103 0
M  V30 1158 H 117.824 -0.574017 -5.3161 0
M  V30 1159 H 118.167 0.644492 -4.11281 0
M  V30 1160 H 118.7 -1.03251 -3.84167 0
M  V30 1161 H 115.439 -3.50168 -5.54132 0
M  V30 1162 H 114.959 -1.79864 -5.72197 0
M  V30 1163 H 116.638 -2.29471 -6.0494 0
M  V30 1164 N 116.77 1.45427 -0.607355 0
M  V30 1165 C 117.717 2.3053 0.111625 0
M  V30 1166 C 118.687 1.4209 0.860216 0
M  V30 1167 O 119.872 1.71019 0.845998 0
M  V30 1168 C 117.012 3.26992 1.10319 0
M  V30 1169 C 116.125 4.30535 0.355493 0
M  V30 1170 C 115.26 5.14105 1.33676 0
M  V30 1171 C 114.299 6.09376 0.576862 0
M  V30 1172 N 113.436 6.85727 1.5074 0
M  V30 1173 H 118.276 2.91477 -0.620093 0
M  V30 1174 H 115.813 1.43631 -0.317594 0
M  V30 1175 H 117.771 3.81385 1.6912 0
M  V30 1176 H 116.401 2.67799 1.80232 0
M  V30 1177 H 115.453 3.78805 -0.348023 0
M  V30 1178 H 116.765 4.98235 -0.237423 0
M  V30 1179 H 115.919 5.72897 1.99684 0
M  V30 1180 H 114.658 4.46423 1.9636 0
M  V30 1181 H 113.663 5.49715 -0.0968519 0
M  V30 1182 H 114.888 6.79085 -0.0449341 0
M  V30 1183 H 112.834 6.20735 2.12189 0
M  V30 1184 H 112.751 7.49778 0.967913 0
M  V30 1185 H 114.019 7.4906 2.15706 0
M  V30 1186 N 118.248 0.346503 1.53744 0
M  V30 1187 C 119.659 -0.136779 1.86198 0
M  V30 1188 C 120.01 -1.49749 1.26766 0
M  V30 1189 O 119.135 -2.08417 0.582355 0
M  V30 1190 C 119.73 -0.254966 3.37839 0
M  V30 1191 C 118.289 -0.682482 3.70161 0
M  V30 1192 C 117.436 0.181981 2.76702 0
M  V30 1193 H 120.387 0.565994 1.48264 0
M  V30 1194 H 120.408 -1.08195 3.64793 0
M  V30 1195 H 119.92 0.735526 3.81066 0
M  V30 1196 H 118.021 -1.68189 3.3248 0
M  V30 1197 H 118.134 -0.470326 4.76786 0
M  V30 1198 H 116.498 -0.34615 2.52337 0
M  V30 1199 H 117.281 1.16966 3.2276 0
M  V30 1200 N 119.726 -1.57421 0.075193 0
M  V30 1201 C 120.689 -2.11791 -0.876203 0
M  V30 1202 C 121.689 -1.04268 -1.22412 0
M  V30 1203 O 122.879 -1.30242 -1.15684 0
M  V30 1204 C 120.011 -2.62207 -2.17854 0
M  V30 1205 H 121.204 -2.9716 -0.40444 0
M  V30 1206 H 118.757 -1.55333 -0.173557 0
M  V30 1207 H 119.492 -1.803 -2.6956 0
M  V30 1208 H 119.277 -3.40802 -1.93897 0
M  V30 1209 H 120.767 -3.04335 -2.85955 0
M  V30 1210 N 121.204 0.198386 -1.56346 0
M  V30 1211 C 122.432 0.935572 -1.84539 0
M  V30 1212 C 122.847 1.76989 -0.657281 0
M  V30 1213 O 122.204 1.78626 0.374043 0
M  V30 1214 C 122.255 1.8344 -3.11499 0
M  V30 1215 O 121.976 1.03377 -4.25728 0
M  V30 1216 C 123.477 2.68355 -3.52846 0
M  V30 1217 H 120.697 0.273126 -0.612897 0
M  V30 1218 H 123.241 0.20663 -2.03453 0
M  V30 1219 H 121.396 2.51701 -2.94492 0
M  V30 1220 H 121.81 1.64599 -4.98003 0
M  V30 1221 H 123.284 3.27085 -4.44657 0
M  V30 1222 H 123.761 3.41901 -2.75681 0
M  V30 1223 H 124.367 2.05471 -3.72373 0
M  V30 1224 N 122.682 1.50554 0.465978 0
M  V30 1225 C 124.093 1.54599 1.04671 0
M  V30 1226 C 124.444 0.352488 1.93008 0
M  V30 1227 O 123.569 -0.534044 2.09707 0
M  V30 1228 C 124.164 2.80166 1.90505 0
M  V30 1229 C 122.723 2.86876 2.43678 0
M  V30 1230 C 121.87 2.48947 1.22151 0
M  V30 1231 H 124.821 1.56744 0.248384 0
M  V30 1232 H 124.842 2.62311 2.75633 0
M  V30 1233 H 124.354 3.67013 1.26186 0
M  V30 1234 H 122.455 2.04393 3.11536 0
M  V30 1235 H 122.568 3.89885 2.78436 0
M  V30 1236 H 120.932 2.01498 1.5579 0
M  V30 1237 H 121.715 3.38107 0.594866 0
M  V30 1238 N 124.16 -0.719506 1.40217 0
M  V30 1239 C 125.406 -1.48034 1.39491 0
M  V30 1240 C 125.761 -1.92399 -0.00443536 0
M  V30 1241 O 125.054 -1.64993 -0.974061 0
M  V30 1242 C 125.248 -2.72271 2.31524 0
M  V30 1243 C 125.077 -2.40055 3.80268 0
M  V30 1244 C 123.847 -2.31588 4.49105 0
M  V30 1245 C 126.045 -2.04581 4.71859 0
M  V30 1246 N 124.027 -1.92006 5.83101 0
M  V30 1247 C 125.398 -1.75568 5.94623 0
M  V30 1248 C 127.453 -1.91183 4.59732 0
M  V30 1249 C 126.156 -1.34505 7.06612 0
M  V30 1250 C 128.182 -1.51524 5.71659 0
M  V30 1251 C 127.544 -1.23406 6.93506 0
M  V30 1252 H 123.643 -0.539927 0.565688 0
M  V30 1253 H 126.227 -0.834764 1.75897 0
M  V30 1254 H 124.398 -3.34584 1.97251 0
M  V30 1255 H 126.13 -3.38584 2.21682 0
M  V30 1256 H 122.885 -2.49199 4.02737 0
M  V30 1257 H 123.309 -1.74764 6.54054 0
M  V30 1258 H 127.951 -2.11584 3.66049 0
M  V30 1259 H 125.669 -1.12846 8.00182 0
M  V30 1260 H 129.255 -1.41741 5.6427 0
M  V30 1261 H 128.135 -0.931788 7.78645 0
M  V30 1262 N 125.638 -1.25649 -0.95132 0
M  V30 1263 C 126.886 -1.10375 -1.69298 0
M  V30 1264 C 127.207 0.355339 -1.91735 0
M  V30 1265 O 126.477 1.25188 -1.50681 0
M  V30 1266 H 125.057 -0.405461 -0.627384 0
M  V30 1267 H 127.719 -1.57823 -1.14358 0
M  V30 1268 H 126.815 -1.61465 -2.67087 0
M  V30 1269 N 127.117 1.15442 -1.07289 0
M  V30 1270 C 128.067 2.18164 -0.662467 0
M  V30 1271 C 129.051 1.57845 0.312074 0
M  V30 1272 O 130.243 1.76552 0.125905 0
M  V30 1273 C 127.372 3.43246 -0.0611295 0
M  V30 1274 C 126.458 4.1062 -1.06077 0
M  V30 1275 N 126.849 4.53491 -2.24008 0
M  V30 1276 C 125.147 4.36949 -0.893964 0
M  V30 1277 C 125.848 5.05731 -2.87422 0
M  V30 1278 N 124.824 4.99236 -2.15091 0
M  V30 1279 H 128.626 2.49038 -1.56068 0
M  V30 1280 H 126.14 1.32003 -0.945988 0
M  V30 1281 H 128.137 4.16145 0.250792 0
M  V30 1282 H 126.797 3.13854 0.832207 0
M  V30 1283 H 127.808 4.46898 -2.6173 0
M  V30 1284 H 124.485 4.17466 -0.0534693 0
M  V30 1285 H 125.875 5.48865 -3.87553 0
M  V30 1286 N 128.595 0.856903 1.32268 0
M  V30 1287 C 129.842 0.461386 1.97174 0
M  V30 1288 C 130.17 -0.983491 1.67803 0
M  V30 1289 O 129.425 -1.70541 0.959903 0
M  V30 1290 C 129.724 0.649919 3.51441 0
M  V30 1291 C 129.39 2.0656 4.00804 0
M  V30 1292 C 128.052 2.45279 4.13995 0
M  V30 1293 C 130.404 2.98947 4.26943 0
M  V30 1294 C 127.732 3.75653 4.50668 0
M  V30 1295 C 130.084 4.28822 4.65075 0
M  V30 1296 C 128.748 4.67472 4.76472 0
M  V30 1297 H 128.018 0.168833 0.72151 0
M  V30 1298 H 130.665 1.08739 1.57633 0
M  V30 1299 H 128.97 -0.0593018 3.91755 0
M  V30 1300 H 130.667 0.32391 3.9969 0
M  V30 1301 H 127.257 1.75495 3.91024 0
M  V30 1302 H 131.441 2.70265 4.16258 0
M  V30 1303 H 126.697 4.05379 4.57688 0
M  V30 1304 H 130.871 5.0047 4.84255 0
M  V30 1305 H 128.498 5.68539 5.04646 0
M  V30 1306 N 130.073 -1.45103 0.615059 0
M  V30 1307 C 131.003 -2.33339 -0.0865619 0
M  V30 1308 C 131.984 -1.4727 -0.851209 0
M  V30 1309 O 133.169 -1.76026 -0.820281 0
M  V30 1310 C 130.299 -3.30095 -1.07956 0
M  V30 1311 C 129.253 -4.25858 -0.427628 0
M  V30 1312 C 128.579 -5.12361 -1.5294 0
M  V30 1313 C 129.879 -5.18165 0.655944 0
M  V30 1314 H 131.573 -2.92254 0.650224 0
M  V30 1315 H 129.119 -1.40532 0.314138 0
M  V30 1316 H 131.072 -3.90698 -1.57901 0
M  V30 1317 H 129.796 -2.69355 -1.84703 0
M  V30 1318 H 128.455 -3.66564 0.0510292 0
M  V30 1319 H 128.103 -4.47984 -2.28734 0
M  V30 1320 H 127.803 -5.77238 -1.09865 0
M  V30 1321 H 129.327 -5.75833 -2.03098 0
M  V30 1322 H 130.741 -5.72796 0.240257 0
M  V30 1323 H 129.138 -5.91559 1.00888 0
M  V30 1324 H 130.208 -4.60144 1.52957 0
M  V30 1325 N 131.551 -0.354651 -1.53558 0
M  V30 1326 C 132.514 0.484566 -2.24019 0
M  V30 1327 C 133.514 1.01861 -1.24422 0
M  V30 1328 O 134.704 0.906097 -1.4878 0
M  V30 1329 C 131.836 1.67615 -2.96847 0
M  V30 1330 H 133.029 -0.131843 -2.9961 0
M  V30 1331 H 130.582 -0.106165 -1.55939 0
M  V30 1332 H 131.317 2.33095 -2.25471 0
M  V30 1333 H 131.102 1.30029 -3.69912 0
M  V30 1334 H 132.592 2.27114 -3.50441 0
M  V30 1335 N 133.029 1.57378 -0.0835403 0
M  V30 1336 C 134.306 1.85363 0.624507 0
M  V30 1337 C 134.686 0.978239 1.87066 0
M  V30 1338 O 134.034 0.0475908 2.2845 0
M  V30 1339 C 134.244 3.35795 0.950947 0
M  V30 1340 C 135.592 4.03581 1.31939 0
M  V30 1341 O 136.616 3.40609 1.04232 0
M  V30 1342 O 135.475 5.14672 1.83779 0
M  V30 1343 H 132.569 0.766162 0.311329 0
M  V30 1344 H 135.115 1.69307 -0.115362 0
M  V30 1345 H 133.887 3.91244 0.0663899 0
M  V30 1346 H 133.51 3.57154 1.74719 0
M  V30 1347 N 134.507 -0.190092 1.56449 0
M  V30 1348 C 135.457 -1.23977 1.91347 0
M  V30 1349 C 136.441 -1.40747 0.779693 0
M  V30 1350 O 137.633 -1.43033 1.04262 0
M  V30 1351 C 134.762 -2.58347 2.26079 0
M  V30 1352 C 133.848 -2.4535 3.45925 0
M  V30 1353 N 134.239 -2.02039 4.63696 0
M  V30 1354 C 132.537 -2.76229 3.50162 0
M  V30 1355 C 133.238 -2.01053 5.4585 0
M  V30 1356 N 132.214 -2.42747 4.8639 0
M  V30 1357 H 136.016 -0.896318 2.79899 0
M  V30 1358 H 133.53 -0.398496 1.57435 0
M  V30 1359 H 135.527 -3.34173 2.49267 0
M  V30 1360 H 134.187 -2.93512 1.38856 0
M  V30 1361 H 135.198 -1.7267 4.88268 0
M  V30 1362 H 131.875 -3.15556 2.73369 0
M  V30 1363 H 133.265 -1.69426 6.50188 0
M  V30 1364 N 135.985 -1.50799 -0.457987 0
M  V30 1365 C 137.231 -1.62683 -1.21088 0
M  V30 1366 C 137.564 -0.332268 -1.91336 0
M  V30 1367 O 136.839 0.667043 -1.82704 0
M  V30 1368 C 137.122 -2.81615 -2.24422 0
M  V30 1369 C 136.975 -4.20989 -1.58392 0
M  V30 1370 C 138.294 -2.96085 -3.2561 0
M  V30 1371 H 135.413 -0.592087 -0.438864 0
M  V30 1372 H 138.055 -1.83225 -0.50286 0
M  V30 1373 H 136.205 -2.64231 -2.84806 0
M  V30 1374 H 137.877 -4.49994 -1.01504 0
M  V30 1375 H 136.12 -4.24641 -0.886704 0
M  V30 1376 H 136.791 -5.0016 -2.33547 0
M  V30 1377 H 139.267 -3.12042 -2.75262 0
M  V30 1378 H 138.143 -3.80902 -3.95228 0
M  V30 1379 H 138.404 -2.0726 -3.90507 0
M  V30 1380 N 137.463 0.71206 -1.40597 0
M  V30 1381 C 138.426 1.80785 -1.40888 0
M  V30 1382 C 139.426 1.57937 -0.302103 0
M  V30 1383 O 140.616 1.64913 -0.561182 0
M  V30 1384 C 137.748 3.18927 -1.20409 0
M  V30 1385 H 138.941 1.81924 -2.38419 0
M  V30 1386 H 136.494 0.91805 -1.26497 0
M  V30 1387 H 137.229 3.23436 -0.236522 0
M  V30 1388 H 137.014 3.36911 -2.00582 0
M  V30 1389 H 138.504 3.98949 -1.23408 0
M  V30 1390 N 138.941 1.26152 0.944643 0
M  V30 1391 C 139.851 1.09176 2.07648 0
M  V30 1392 C 140.867 0.0261935 1.7398 0
M  V30 1393 O 142.043 0.229208 2.00091 0
M  V30 1394 C 139.108 0.722915 3.39079 0
M  V30 1395 C 138.169 1.86752 3.86552 0
M  V30 1396 C 137.402 1.51617 5.11711 0
M  V30 1397 O 137.625 0.416331 5.68879 0
M  V30 1398 O 136.559 2.34975 5.54139 0
M  V30 1399 H 140.385 2.0412 2.24875 0
M  V30 1400 H 137.97 1.05182 1.061 0
M  V30 1401 H 139.852 0.529787 4.18056 0
M  V30 1402 H 138.527 -0.197159 3.23099 0
M  V30 1403 H 137.434 2.11558 3.08535 0
M  V30 1404 H 138.767 2.76719 4.07047 0
M  V30 1405 N 140.419 -1.14872 1.07899 0
M  V30 1406 C 141.369 -2.17809 0.674027 0
M  V30 1407 C 142.353 -1.58008 -0.303699 0
M  V30 1408 O 143.545 -1.76616 -0.11654 0
M  V30 1409 C 140.674 -3.43208 0.0793318 0
M  V30 1410 C 139.76 -4.10051 1.08253 0
M  V30 1411 N 140.151 -4.52296 2.2641 0
M  V30 1412 C 138.449 -4.36469 0.917124 0
M  V30 1413 C 139.15 -5.04199 2.901 0
M  V30 1414 N 138.126 -4.98088 2.17736 0
M  V30 1415 H 141.928 -2.48207 1.57386 0
M  V30 1416 H 139.442 -1.315 0.952976 0
M  V30 1417 H 141.439 -4.16272 -0.228719 0
M  V30 1418 H 140.099 -3.14291 -0.815551 0
M  V30 1419 H 141.11 -4.45504 2.64096 0
M  V30 1420 H 137.787 -4.17432 0.0756078 0
M  V30 1421 H 139.177 -5.46802 3.90458 0
M  V30 1422 N 141.898 -0.863906 -1.31812 0
M  V30 1423 C 143.146 -0.470904 -1.96537 0
M  V30 1424 C 143.467 0.978771 -1.68657 0
M  V30 1425 O 142.737 1.6853 -0.998717 0
M  V30 1426 H 141.317 -0.171148 -0.72713 0
M  V30 1427 H 143.979 -1.10236 -1.60729 0
M  V30 1428 H 143.075 -0.623616 -3.05806 0
M  V30 1429 N 143.376 1.44774 -0.622745 0
M  V30 1430 C 144.653 1.95522 -0.0551974 0
M  V30 1431 C 145.033 1.5649 1.41683 0
M  V30 1432 O 144.381 0.834848 2.12703 0
M  V30 1433 C 144.591 3.4796 -0.269242 0
M  V30 1434 C 145.939 4.24306 -0.158014 0
M  V30 1435 O 146.963 3.55637 -0.200162 0
M  V30 1436 O 145.822 5.46471 -0.0558693 0
M  V30 1437 H 142.916 0.826556 0.0271015 0
M  V30 1438 H 145.462 1.54866 -0.693864 0
M  V30 1439 H 144.234 3.6939 -1.29099 0
M  V30 1440 H 143.857 3.95543 0.403966 0
M  V30 1441 N 144.854 0.36279 1.53368 0
M  V30 1442 C 146.102 -0.227326 2.00817 0
M  V30 1443 C 146.423 -1.49511 1.25186 0
M  V30 1444 O 145.693 -1.92482 0.364348 0
M  V30 1445 H 144.273 -0.0869923 0.741917 0
M  V30 1446 H 146.935 0.488381 1.88682 0
M  V30 1447 H 146.031 -0.456273 3.08747 0
M  V30 1448 N 146.332 -1.57332 0.0918853 0
M  V30 1449 C 147.578 -1.94524 -0.573425 0
M  V30 1450 C 147.911 -0.973578 -1.68033 0
M  V30 1451 O 147.186 -0.00609226 -1.94499 0
M  V30 1452 C 147.469 -3.41858 -1.13161 0
M  V30 1453 C 147.322 -4.4979 -0.0299747 0
M  V30 1454 C 148.641 -3.90435 -2.03098 0
M  V30 1455 H 145.76 -0.70734 -0.206975 0
M  V30 1456 H 148.402 -1.89309 0.161942 0
M  V30 1457 H 146.552 -3.46433 -1.7583 0
M  V30 1458 H 148.224 -4.57327 0.604112 0
M  V30 1459 H 146.467 -4.291 0.636833 0
M  V30 1460 H 147.138 -5.50069 -0.461287 0
M  V30 1461 H 149.614 -3.87992 -1.50338 0
M  V30 1462 H 148.49 -4.94097 -2.39081 0
M  V30 1463 H 148.751 -3.29541 -2.94712 0
M  V30 1464 N 147.81 0.181792 -1.56548 0
M  V30 1465 C 149.056 0.901431 -1.81665 0
M  V30 1466 C 149.389 1.82347 -0.668075 0
M  V30 1467 O 148.664 1.91669 0.330615 0
M  V30 1468 C 148.947 1.70618 -3.17115 0
M  V30 1469 C 148.8 0.807964 -4.42484 0
M  V30 1470 C 150.119 2.67605 -3.49393 0
M  V30 1471 H 147.238 0.32627 -0.660846 0
M  V30 1472 H 149.88 0.168134 -1.89255 0
M  V30 1473 H 148.03 2.33133 -3.10775 0
M  V30 1474 H 149.702 0.19649 -4.60881 0
M  V30 1475 H 147.945 0.115411 -4.33646 0
M  V30 1476 H 148.616 1.40632 -5.33785 0
M  V30 1477 H 151.092 2.15218 -3.56118 0
M  V30 1478 H 149.968 3.20985 -4.45264 0
M  V30 1479 H 150.229 3.47298 -2.73563 0
M  V30 1480 N 149.288 1.51039 0.449983 0
M  V30 1481 C 150.565 1.53612 1.21089 0
M  V30 1482 C 150.945 0.292997 2.09057 0
M  V30 1483 O 150.293 -0.72259 2.16774 0
M  V30 1484 C 150.503 2.84337 2.0237 0
M  V30 1485 C 151.851 3.35807 2.59843 0
M  V30 1486 O 152.875 2.85802 2.12593 0
M  V30 1487 O 151.734 4.23029 3.45989 0
M  V30 1488 H 148.828 0.617057 0.550608 0
M  V30 1489 H 151.374 1.63344 0.460082 0
M  V30 1490 H 150.146 3.66278 1.37681 0
M  V30 1491 H 149.769 2.77708 2.84542 0
M  V30 1492 N 150.766 -0.704594 1.40972 0
M  V30 1493 C 151.696 -1.83124 1.44872 0
M  V30 1494 C 152.677 -1.67281 0.30838 0
M  V30 1495 O 153.862 -1.87149 0.518556 0
M  V30 1496 C 150.992 -3.21181 1.32136 0
M  V30 1497 C 149.946 -3.51714 2.43888 0
M  V30 1498 C 149.272 -4.89032 2.16222 0
M  V30 1499 C 150.572 -3.516 3.86232 0
M  V30 1500 H 152.266 -1.80117 2.39161 0
M  V30 1501 H 149.812 -0.865145 1.15114 0
M  V30 1502 H 151.765 -3.99702 1.33479 0
M  V30 1503 H 150.489 -3.24791 0.343279 0
M  V30 1504 H 149.148 -2.75539 2.41813 0
M  V30 1505 H 148.796 -4.89256 1.16778 0
M  V30 1506 H 148.496 -5.10426 2.911 0
M  V30 1507 H 150.02 -5.69873 2.19265 0
M  V30 1508 H 151.434 -4.2014 3.9007 0
M  V30 1509 H 149.831 -3.84523 4.60719 0
M  V30 1510 H 150.901 -2.50757 4.15029 0
M  V30 1511 N 152.244 -1.26651 -0.937939 0
M  V30 1512 C 153.207 -1.08546 -2.01867 0
M  V30 1513 C 154.207 -0.0327327 -1.60767 0
M  V30 1514 O 155.397 -0.276427 -1.71993 0
M  V30 1515 C 152.529 -0.651711 -3.34613 0
M  V30 1516 H 153.722 -2.04502 -2.1936 0
M  V30 1517 H 151.275 -1.09294 -1.11734 0
M  V30 1518 H 152.01 0.309696 -3.22818 0
M  V30 1519 H 151.795 -1.41189 -3.65798 0
M  V30 1520 H 153.285 -0.546973 -4.14002 0
M  V30 1521 N 153.722 1.14298 -1.08507 0
M  V30 1522 C 154.971 1.84708 -0.810305 0
M  V30 1523 C 155.284 1.83903 0.666271 0
M  V30 1524 O 156.49 2.50112 1.05624 0
M  V30 1525 C 154.946 3.31572 -1.39957 0
M  V30 1526 C 154.554 3.40791 -2.90801 0
M  V30 1527 C 156.298 4.07087 -1.20334 0
M  V30 1528 C 154.205 4.81872 -3.4286 0
M  V30 1529 H 153.135 0.691985 -0.299454 0
M  V30 1530 H 155.786 1.28841 -1.30661 0
M  V30 1531 H 154.168 3.87183 -0.830976 0
M  V30 1532 H 155.342 2.95225 -3.53806 0
M  V30 1533 H 153.657 2.78732 -3.0935 0
M  V30 1534 H 156.254 5.11225 -1.56693 0
M  V30 1535 H 156.597 4.16054 -0.143237 0
M  V30 1536 H 157.13 3.57779 -1.73893 0
M  V30 1537 H 153.869 4.78094 -4.48449 0
M  V30 1538 H 153.389 5.27972 -2.84615 0
M  V30 1539 H 155.068 5.50765 -3.39509 0
M  V30 1540 N 155.201 0.870884 1.31352 0
M  V30 1541 C 156.111 0.330783 2.32256 0
M  V30 1542 C 157.127 -0.559767 1.6475 0
M  V30 1543 O 158.303 -0.456263 1.96164 0
M  V30 1544 C 155.368 -0.458137 3.4366 0
M  V30 1545 C 154.429 0.460482 4.26823 0
M  V30 1546 C 153.662 -0.290881 5.32907 0
M  V30 1547 O 153.885 -1.51885 5.49806 0
M  V30 1548 O 152.819 0.351732 6.00871 0
M  V30 1549 H 156.645 1.16718 2.80376 0
M  V30 1550 H 154.23 0.634285 1.35267 0
M  V30 1551 H 156.112 -0.905343 4.1156 0
M  V30 1552 H 154.787 -1.27106 2.97701 0
M  V30 1553 H 153.694 0.956207 3.61673 0
M  V30 1554 H 155.027 1.23903 4.7635 0
M  V30 1555 N 156.679 -1.44442 0.630414 0
M  V30 1556 C 157.925 -2.02351 0.134816 0
M  V30 1557 C 158.258 -1.4947 -1.23986 0
M  V30 1558 O 157.533 -0.678475 -1.82283 0
M  V30 1559 C 157.816 -3.59898 0.120707 0
M  V30 1560 C 157.669 -4.23063 1.52767 0
M  V30 1561 C 158.988 -4.36585 -0.555127 0
M  V30 1562 H 156.107 -0.73527 0.0504646 0
M  V30 1563 H 158.749 -1.72022 0.806751 0
M  V30 1564 H 156.899 -3.85868 -0.451477 0
M  V30 1565 H 158.571 -4.08202 2.14869 0
M  V30 1566 H 156.814 -3.80586 2.08175 0
M  V30 1567 H 157.485 -5.32071 1.46984 0
M  V30 1568 H 159.961 -4.16044 -0.0685429 0
M  V30 1569 H 158.837 -5.46294 -0.534185 0
M  V30 1570 H 159.098 -4.11138 -1.62535 0
M  V30 1571 N 158.157 -0.370918 -1.53173 0
M  V30 1572 C 159.568 0.107139 -1.86392 0
M  V30 1573 C 159.919 1.47714 -1.29132 0
M  V30 1574 O 159.044 2.07464 -0.615439 0
M  V30 1575 C 159.639 0.201187 -3.38202 0
M  V30 1576 C 158.198 0.623507 -3.712 0
M  V30 1577 C 157.345 -0.225978 -2.76378 0
M  V30 1578 H 160.296 -0.58951 -1.47345 0
M  V30 1579 H 160.317 1.02377 -3.66468 0
M  V30 1580 H 159.829 -0.796058 -3.79848 0
M  V30 1581 H 157.93 1.62879 -3.35114 0
M  V30 1582 H 158.043 0.394414 -4.77474 0
M  V30 1583 H 156.407 0.305962 -2.52856 0
M  V30 1584 H 157.19 -1.22086 -3.20858 0
M  V30 1585 N 159.635 1.57281 -0.100228 0
M  V30 1586 C 160.912 1.86014 0.604812 0
M  V30 1587 C 161.292 0.998025 1.86018 0
M  V30 1588 O 160.64 0.0718184 2.28387 0
M  V30 1589 C 160.85 3.36784 0.915278 0
M  V30 1590 C 162.198 4.04957 1.27651 0
M  V30 1591 O 163.222 3.41695 1.00613 0
M  V30 1592 O 162.081 5.16593 1.7831 0
M  V30 1593 H 159.175 0.76942 0.303185 0
M  V30 1594 H 161.721 1.69176 -0.133313 0
M  V30 1595 H 160.493 3.91292 0.0248896 0
M  V30 1596 H 160.116 3.58987 1.70921 0
M  V30 1597 N 161.113 -0.173488 1.56642 0
M  V30 1598 C 162.076 -1.19859 1.95362 0
M  V30 1599 C 163.076 -1.37296 0.83704 0
M  V30 1600 O 164.266 -1.34739 1.10413 0
M  V30 1601 C 161.398 -2.56405 2.24654 0
M  V30 1602 H 162.591 -0.867062 2.87092 0
M  V30 1603 H 160.144 -0.415853 1.50666 0
M  V30 1604 H 160.879 -2.94576 1.35631 0
M  V30 1605 H 160.664 -2.45115 3.06041 0
M  V30 1606 H 162.154 -3.30287 2.5554 0
M  V30 1607 N 162.591 -1.51276 -0.441967 0
M  V30 1608 C 164.007 -1.39349 -0.778083 0
M  V30 1609 C 164.207 -0.472212 -1.95889 0
M  V30 1610 O 163.263 0.0743551 -2.5239 0
M  V30 1611 C 164.576 -2.81292 -1.0628 0
M  V30 1612 C 166.124 -2.9041 -1.16751 0
M  V30 1613 C 166.599 -4.33251 -1.48519 0
M  V30 1614 N 168.09 -4.36336 -1.55453 0
M  V30 1615 C 168.825 -5.43885 -1.81596 0
M  V30 1616 N 168.321 -6.61601 -2.05562 0
M  V30 1617 N 170.114 -5.3136 -1.8334 0
M  V30 1618 H 162.265 -2.09729 0.335774 0
M  V30 1619 H 164.528 -0.943925 0.0878028 0
M  V30 1620 H 164.234 -3.50678 -0.267905 0
M  V30 1621 H 164.108 -3.20334 -1.99163 0
M  V30 1622 H 166.495 -2.21225 -1.95304 0
M  V30 1623 H 166.576 -2.54871 -0.217801 0
M  V30 1624 H 166.22 -5.02984 -0.704958 0
M  V30 1625 H 166.15 -4.66299 -2.44689 0
M  V30 1626 H 168.641 -3.51466 -1.38853 0
M  V30 1627 H 168.954 -7.39361 -2.24867 0
M  V30 1628 H 167.299 -6.64725 -2.02894 0
M  V30 1629 H 170.49 -4.38382 -1.64132 0
M  V30 1630 H 170.663 -6.15258 -2.03377 0
M  V30 1631 N 164.069 0.697108 -1.41344 0
M  V30 1632 C 165.032 1.79281 -1.42797 0
M  V30 1633 C 166.032 1.57607 -0.318837 0
M  V30 1634 O 167.222 1.64309 -0.578642 0
M  V30 1635 C 164.354 3.17632 -1.23785 0
M  V30 1636 H 165.547 1.79385 -2.40335 0
M  V30 1637 H 163.1 0.904582 -1.27464 0
M  V30 1638 H 163.835 3.23167 -0.270814 0
M  V30 1639 H 163.62 3.34765 -2.04144 0
M  V30 1640 H 165.11 3.97617 -1.27633 0
M  V30 1641 N 165.547 1.27147 0.931209 0
M  V30 1642 C 166.51 1.09615 2.01289 0
M  V30 1643 C 167.51 0.0412581 1.60747 0
M  V30 1644 O 168.7 0.285545 1.71844 0
M  V30 1645 C 165.832 0.669447 3.34262 0
M  V30 1646 H 167.025 2.05662 2.18273 0
M  V30 1647 H 164.578 1.09885 1.11153 0
M  V30 1648 H 165.313 -0.292572 3.22978 0
M  V30 1649 H 165.098 1.43127 3.65044 0
M  V30 1650 H 166.588 0.568921 4.13706 0
M  V30 1651 N 167.025 -1.13721 1.09112 0
M  V30 1652 C 167.975 -2.17082 0.697091 0
M  V30 1653 C 168.959 -1.58321 -0.286923 0
M  V30 1654 O 170.151 -1.7673 -0.0978008 0
M  V30 1655 C 167.28 -3.43105 0.115729 0
M  V30 1656 C 166.366 -4.0888 1.12596 0
M  V30 1657 N 166.757 -4.4987 2.31195 0
M  V30 1658 C 165.055 -4.35471 0.963366 0
M  V30 1659 C 165.756 -5.01094 2.95431 0
M  V30 1660 N 164.732 -4.95751 2.23006 0
M  V30 1661 H 168.534 -2.46524 1.6001 0
M  V30 1662 H 166.048 -1.30481 0.966869 0
M  V30 1663 H 168.045 -4.16491 -0.184555 0
M  V30 1664 H 166.705 -3.15138 -0.78217 0
M  V30 1665 H 167.716 -4.42678 2.68806 0
M  V30 1666 H 164.393 -4.17328 0.119878 0
M  V30 1667 H 165.783 -5.4263 3.96236 0
M  V30 1668 N 168.503 -0.877838 -1.30888 0
M  V30 1669 C 169.466 -0.344265 -2.266 0
M  V30 1670 C 170.466 0.50922 -1.52524 0
M  V30 1671 O 171.656 0.317398 -1.71284 0
M  V30 1672 C 168.788 0.510198 -3.37061 0
M  V30 1673 H 169.981 -1.1893 -2.7531 0
M  V30 1674 H 167.534 -0.654088 -1.41956 0
M  V30 1675 H 168.269 1.37612 -2.93655 0
M  V30 1676 H 168.054 -0.101047 -3.9197 0
M  V30 1677 H 169.544 0.875537 -4.08319 0
M  V30 1678 N 169.982 1.44106 -0.638065 0
M  V30 1679 C 171.212 2.06037 -0.152394 0
M  V30 1680 C 171.62 1.47808 1.18108 0
M  V30 1681 O 170.963 0.598092 1.73691 0
M  V30 1682 C 171.025 3.59488 0.0293714 0
M  V30 1683 C 170.689 4.4022 -1.22702 0
M  V30 1684 C 171.686 4.73256 -2.15232 0
M  V30 1685 C 169.371 4.8048 -1.46437 0
M  V30 1686 C 171.365 5.45444 -3.29802 0
M  V30 1687 C 169.052 5.52417 -2.61303 0
M  V30 1688 C 170.05 5.84819 -3.52811 0
M  V30 1689 O 169.738 6.55289 -4.65673 0
M  V30 1690 H 169.47 0.671233 -0.0801401 0
M  V30 1691 H 172.024 1.85851 -0.874563 0
M  V30 1692 H 170.254 3.78191 0.806758 0
M  V30 1693 H 171.943 4.03164 0.470475 0
M  V30 1694 H 172.709 4.42684 -1.98131 0
M  V30 1695 H 168.588 4.54676 -0.760977 0
M  V30 1696 H 172.132 5.70653 -4.01249 0
M  V30 1697 H 168.029 5.82404 -2.78344 0
M  V30 1698 H 168.797 6.73762 -4.64744 0
M  V30 1699 N 171.46 0.379036 1.52974 0
M  V30 1700 C 172.423 -0.448865 2.24762 0
M  V30 1701 C 173.423 -0.998689 1.26027 0
M  V30 1702 O 174.613 -0.882313 1.50203 0
M  V30 1703 C 171.745 -1.62872 2.99476 0
M  V30 1704 H 172.938 0.179491 2.99362 0
M  V30 1705 H 170.491 0.13096 1.5575 0
M  V30 1706 H 171.226 -2.29479 2.29151 0
M  V30 1707 H 171.011 -1.24128 3.71934 0
M  V30 1708 H 172.501 -2.2151 3.5401 0
M  V30 1709 N 172.938 -1.57226 0.108567 0
M  V30 1710 C 174.187 -1.94008 -0.551703 0
M  V30 1711 C 174.5 -0.993442 -1.68494 0
M  V30 1712 O 175.706 -1.25551 -2.40726 0
M  V30 1713 C 174.162 -3.44763 -1.03279 0
M  V30 1714 C 173.77 -4.47943 0.0714193 0
M  V30 1715 C 175.514 -3.90483 -1.66503 0
M  V30 1716 C 173.421 -5.89865 -0.425779 0
M  V30 1717 H 172.351 -0.724206 -0.209863 0
M  V30 1718 H 175.002 -1.82547 0.186741 0
M  V30 1719 H 173.384 -3.51422 -1.82533 0
M  V30 1720 H 174.558 -4.52942 0.847365 0
M  V30 1721 H 172.873 -4.11913 0.609669 0
M  V30 1722 H 175.47 -4.93925 -2.04798 0
M  V30 1723 H 175.813 -3.29877 -2.53942 0
M  V30 1724 H 176.346 -3.86581 -0.938074 0
M  V30 1725 H 173.085 -6.54202 0.412316 0
M  V30 1726 H 172.605 -5.88309 -1.16843 0
M  V30 1727 H 174.284 -6.40844 -0.890397 0
M  V30 1728 N 174.416 0.165178 -1.56732 0
M  V30 1729 C 175.326 1.22423 -2.00125 0
M  V30 1730 C 176.342 1.48084 -0.913619 0
M  V30 1731 O 177.518 1.60112 -1.22172 0
M  V30 1732 C 174.583 2.54197 -2.35764 0
M  V30 1733 C 173.644 2.36343 -3.58386 0
M  V30 1734 C 172.877 3.61834 -3.92316 0
M  V30 1735 O 173.1 4.67267 -3.27135 0
M  V30 1736 O 172.034 3.55579 -4.85641 0
M  V30 1737 H 175.86 0.885886 -2.90492 0
M  V30 1738 H 173.445 0.372518 -1.44681 0
M  V30 1739 H 175.327 3.3192 -2.59629 0
M  V30 1740 H 174.002 2.87598 -1.48557 0
M  V30 1741 H 172.909 1.56632 -3.39731 0
M  V30 1742 H 174.242 2.07865 -4.46154 0
M  V30 1743 N 175.894 1.51508 0.433938 0
M  V30 1744 C 176.844 1.69451 1.52546 0
M  V30 1745 C 177.828 0.548474 1.51263 0
M  V30 1746 O 179.02 0.804529 1.57659 0
M  V30 1747 C 176.149 1.82604 2.90707 0
M  V30 1748 C 175.235 3.03002 2.96733 0
M  V30 1749 N 175.626 4.26121 2.72496 0
M  V30 1750 C 173.924 3.02327 3.27894 0
M  V30 1751 C 174.625 5.07407 2.84452 0
M  V30 1752 N 173.601 4.42126 3.16269 0
M  V30 1753 H 177.403 2.62305 1.32564 0
M  V30 1754 H 174.917 1.49202 0.641297 0
M  V30 1755 H 176.914 1.93569 3.69238 0
M  V30 1756 H 175.574 0.909339 3.11707 0
M  V30 1757 H 176.585 4.55009 2.4736 0
M  V30 1758 H 173.262 2.20301 3.54646 0
M  V30 1759 H 174.652 6.15422 2.69639 0
M  V30 1760 N 177.372 -0.689602 1.41712 0
M  V30 1761 C 178.62 -1.4468 1.4111 0
M  V30 1762 C 178.941 -1.94986 0.0232196 0
M  V30 1763 O 178.211 -1.72097 -0.935913 0
M  V30 1764 H 176.791 -0.536847 0.519427 0
M  V30 1765 H 179.453 -0.815825 1.77004 0
M  V30 1766 H 178.549 -2.30706 2.10193 0
M  V30 1767 N 178.85 -1.27639 -0.924453 0
M  V30 1768 C 179.813 -1.10681 -2.00705 0
M  V30 1769 C 180.813 -0.0497823 -1.60723 0
M  V30 1770 O 182.003 -0.294654 -1.7169 0
M  V30 1771 C 179.135 -0.687164 -3.33902 0
M  V30 1772 H 180.328 -2.06817 -2.17179 0
M  V30 1773 H 177.881 -1.10473 -1.10569 0
M  V30 1774 H 178.616 0.275439 -3.23128 0
M  V30 1775 H 178.401 -1.45061 -3.6428 0
M  V30 1776 H 179.891 -0.590853 -4.13399 0
M  V30 1777 N 180.328 1.1314 -1.09713 0
M  V30 1778 C 181.744 1.36477 -0.827423 0
M  V30 1779 C 181.944 1.93654 0.556817 0
M  V30 1780 O 181 2.15791 1.31112 0
M  V30 1781 C 182.313 2.31334 -1.92106 0
M  V30 1782 C 183.861 2.44943 -1.94864 0
M  V30 1783 C 184.336 3.4311 -3.0338 0
M  V30 1784 N 185.827 3.50662 -3.02639 0
M  V30 1785 C 186.562 4.2651 -3.83246 0
M  V30 1786 N 186.058 5.05485 -4.73768 0
M  V30 1787 N 187.851 4.2184 -3.71493 0
M  V30 1788 H 180.002 0.743807 -1.9895 0
M  V30 1789 H 182.265 0.389823 -0.864143 0
M  V30 1790 H 181.971 1.96483 -2.91698 0
M  V30 1791 H 181.845 3.31381 -1.80184 0
M  V30 1792 H 184.232 2.79079 -0.959099 0
M  V30 1793 H 184.313 1.4481 -2.10864 0
M  V30 1794 H 183.957 3.09704 -4.02549 0
M  V30 1795 H 183.887 4.43055 -2.84622 0
M  V30 1796 H 186.378 2.94315 -2.37039 0
M  V30 1797 H 186.691 5.60675 -5.3185 0
M  V30 1798 H 185.036 5.04708 -4.77802 0
M  V30 1799 H 188.227 3.5922 -3.00131 0
M  V30 1800 H 188.4 4.80697 -4.3455 0
M  V30 1801 N 181.806 0.884767 1.30421 0
M  V30 1802 C 183.031 0.517288 2.00845 0
M  V30 1803 C 183.456 -0.886779 1.65885 0
M  V30 1804 O 182.814 -1.58768 0.875354 0
M  V30 1805 C 182.862 0.698994 3.5376 0
M  V30 1806 O 181.966 -0.255208 4.1161 0
M  V30 1807 H 181.307 0.203872 0.631927 0
M  V30 1808 H 183.837 1.19225 1.66272 0
M  V30 1809 H 183.847 0.597912 4.03595 0
M  V30 1810 H 182.522 1.72271 3.78544 0
M  V30 1811 H 181.099 -0.10784 3.72744 0
M  V30 1812 N 183.284 -1.43765 0.645699 0
M  V30 1813 C 184.53 -2.02197 0.156271 0
M  V30 1814 C 184.863 -1.50776 -1.22393 0
M  V30 1815 O 184.138 -0.697771 -1.81553 0
M  V30 1816 C 184.421 -3.59749 0.158872 0
M  V30 1817 C 184.274 -4.21419 1.57245 0
M  V30 1818 C 185.593 -4.37149 -0.50879 0
M  V30 1819 H 182.712 -0.734694 0.0582602 0
M  V30 1820 H 185.354 -1.71157 0.824951 0
M  V30 1821 H 183.504 -3.86325 -0.410525 0
M  V30 1822 H 185.176 -4.059 2.19186 0
M  V30 1823 H 183.419 -3.78356 2.122 0
M  V30 1824 H 184.09 -5.30482 1.52619 0
M  V30 1825 H 186.566 -4.16093 -0.024412 0
M  V30 1826 H 185.442 -5.4683 -0.476213 0
M  V30 1827 H 185.703 -4.12839 -1.58165 0
M  V30 1828 N 184.763 -0.387143 -1.52771 0
M  V30 1829 C 185.726 0.436939 -2.24997 0
M  V30 1830 C 186.726 0.991991 -1.26555 0
M  V30 1831 O 187.916 0.874335 -1.50669 0
M  V30 1832 C 185.048 1.61281 -3.00335 0
M  V30 1833 H 186.241 -0.195365 -2.99263 0
M  V30 1834 H 183.794 -0.139218 -1.55679 0
M  V30 1835 H 184.529 2.2826 -2.30364 0
M  V30 1836 H 184.314 1.22154 -3.72587 0
M  V30 1837 H 185.804 2.19629 -3.5518 0
M  V30 1838 N 186.241 1.57166 -0.116904 0
M  V30 1839 C 187.151 2.18745 0.847812 0
M  V30 1840 C 188.167 1.163 1.29423 0
M  V30 1841 O 189.343 1.48761 1.35765 0
M  V30 1842 C 186.408 2.77307 2.0809 0
M  V30 1843 C 185.469 3.94781 1.68661 0
M  V30 1844 C 184.702 4.50541 2.86091 0
M  V30 1845 O 184.925 4.05202 4.01456 0
M  V30 1846 O 183.859 5.41256 2.63298 0
M  V30 1847 H 187.685 3.01632 0.353778 0
M  V30 1848 H 185.27 1.49005 0.108599 0
M  V30 1849 H 187.152 3.14647 2.80313 0
M  V30 1850 H 185.827 1.97452 2.56504 0
M  V30 1851 H 184.734 3.62214 0.935518 0
M  V30 1852 H 186.067 4.76065 1.24991 0
M  V30 1853 N 187.719 -0.156864 1.56817 0
M  V30 1854 C 189.13 -0.717916 1.72345 0
M  V30 1855 C 189.481 -1.82124 0.729747 0
M  V30 1856 O 188.606 -2.16141 -0.105781 0
M  V30 1857 C 189.201 -1.30904 3.12489 0
M  V30 1858 C 187.76 -1.81676 3.29653 0
M  V30 1859 C 186.907 -0.701349 2.68284 0
M  V30 1860 H 189.858 0.0686989 1.58551 0
M  V30 1861 H 189.879 -2.17882 3.11942 0
M  V30 1862 H 189.391 -0.505796 3.8479 0
M  V30 1863 H 187.492 -2.64598 2.62333 0
M  V30 1864 H 187.605 -1.95226 4.3752 0
M  V30 1865 H 185.969 -1.12548 2.28484 0
M  V30 1866 H 186.752 0.0902846 3.43181 0
M  V30 1867 N 189.197 -1.51736 -0.425897 0
M  V30 1868 C 190.427 -1.68549 -1.19476 0
M  V30 1869 C 190.835 -0.387288 -1.85194 0
M  V30 1870 O 190.178 0.645142 -1.71999 0
M  V30 1871 C 190.24 -2.75275 -2.31223 0
M  V30 1872 C 189.904 -4.17534 -1.8578 0
M  V30 1873 C 190.901 -5.01936 -1.35485 0
M  V30 1874 C 188.586 -4.6369 -1.93123 0
M  V30 1875 C 190.58 -6.30559 -0.931347 0
M  V30 1876 C 188.267 -5.92307 -1.50384 0
M  V30 1877 C 189.265 -6.75569 -1.00473 0
M  V30 1878 O 188.953 -8.0178 -0.583452 0
M  V30 1879 H 188.685 -0.568525 -0.365725 0
M  V30 1880 H 191.239 -1.98982 -0.509444 0
M  V30 1881 H 189.469 -2.40182 -3.03067 0
M  V30 1882 H 191.158 -2.80853 -2.93047 0
M  V30 1883 H 191.924 -4.67475 -1.29197 0
M  V30 1884 H 187.803 -3.98997 -2.30916 0
M  V30 1885 H 191.347 -6.95498 -0.541084 0
M  V30 1886 H 187.244 -6.2628 -1.56346 0
M  V30 1887 H 188.012 -8.1543 -0.708275 0
M  V30 1888 N 190.675 0.682077 -1.42076 0
M  V30 1889 C 191.585 1.82535 -1.47371 0
M  V30 1890 C 192.601 1.7017 -0.363079 0
M  V30 1891 O 193.777 1.91848 -0.612875 0
M  V30 1892 C 190.842 3.18624 -1.36674 0
M  V30 1893 C 189.903 3.42999 -2.58167 0
M  V30 1894 C 189.136 4.72595 -2.4797 0
M  V30 1895 O 189.359 5.50006 -1.5116 0
M  V30 1896 O 188.293 4.98054 -3.37974 0
M  V30 1897 H 192.119 1.81023 -2.43853 0
M  V30 1898 H 189.704 0.836887 -1.2376 0
M  V30 1899 H 191.586 3.99847 -1.33043 0
M  V30 1900 H 190.261 3.20789 -0.433138 0
M  V30 1901 H 189.168 2.61653 -2.67373 0
M  V30 1902 H 190.501 3.45659 -3.50401 0
M  V30 1903 N 192.153 1.28127 0.917671 0
M  V30 1904 C 193.083 1.14248 2.03641 0
M  V30 1905 C 194.064 0.0412748 1.7005 0
M  V30 1906 O 195.249 0.217566 1.92977 0
M  V30 1907 C 192.379 0.799431 3.37974 0
M  V30 1908 C 191.333 1.85497 3.85713 0
M  V30 1909 C 190.659 1.36565 5.16966 0
M  V30 1910 C 191.959 3.26085 4.08002 0
M  V30 1911 H 193.653 2.07835 2.15511 0
M  V30 1912 H 191.199 1.00064 1.03553 0
M  V30 1913 H 193.152 0.689114 4.15727 0
M  V30 1914 H 191.876 -0.172145 3.26146 0
M  V30 1915 H 190.535 1.95437 3.10161 0
M  V30 1916 H 190.183 0.383253 5.01538 0
M  V30 1917 H 189.883 2.07143 5.49878 0
M  V30 1918 H 191.407 1.26848 5.97279 0
M  V30 1919 H 192.821 3.19089 4.76293 0
M  V30 1920 H 191.218 3.94462 4.52238 0
M  V30 1921 H 192.288 3.70394 3.12948 0
M  V30 1922 N 193.631 -1.12557 1.10312 0
M  V30 1923 C 194.578 -2.18247 0.750781 0
M  V30 1924 C 195.548 -1.63853 -0.272293 0
M  V30 1925 O 196.733 -1.90195 -0.151862 0
M  V30 1926 C 193.873 -3.44591 0.187379 0
M  V30 1927 C 192.986 -4.13046 1.2656 0
M  V30 1928 C 192.121 -5.27034 0.663978 0
M  V30 1929 C 191.16 -5.87353 1.72287 0
M  V30 1930 N 190.297 -6.92757 1.1416 0
M  V30 1931 H 195.137 -2.47732 1.65628 0
M  V30 1932 H 192.674 -1.21629 0.827337 0
M  V30 1933 H 194.632 -4.16904 -0.157148 0
M  V30 1934 H 193.262 -3.15527 -0.681355 0
M  V30 1935 H 192.314 -3.38924 1.72727 0
M  V30 1936 H 193.626 -4.53947 2.06721 0
M  V30 1937 H 192.78 -6.06104 0.268824 0
M  V30 1938 H 191.519 -4.87407 -0.169082 0
M  V30 1939 H 190.524 -5.06971 2.12746 0
M  V30 1940 H 191.749 -6.29051 2.55875 0
M  V30 1941 H 189.695 -6.5517 0.329984 0
M  V30 1942 H 189.612 -7.3225 1.88007 0
M  V30 1943 H 190.88 -7.75658 0.772956 0
M  V30 1944 N 195.109 -0.891671 -1.2995 0
M  V30 1945 C 196.386 -0.433307 -1.9074 0
M  V30 1946 C 196.766 1.08646 -1.80995 0
M  V30 1947 O 196.114 1.92476 -1.23147 0
M  V30 1948 C 196.324 -0.938895 -3.36134 0
M  V30 1949 C 197.672 -0.977829 -4.13187 0
M  V30 1950 O 198.696 -0.886015 -3.45005 0
M  V30 1951 O 197.555 -1.11453 -5.35015 0
M  V30 1952 H 194.649 -0.133699 -0.816121 0
M  V30 1953 H 197.195 -0.981011 -1.38471 0
M  V30 1954 H 195.967 -1.98281 -3.37343 0
M  V30 1955 H 195.59 -0.37074 -3.95868 0
M  V30 1956 N 196.587 1.43421 -0.653314 0
M  V30 1957 C 197.497 2.34568 0.0388565 0
M  V30 1958 C 198.513 1.53888 0.81207 0
M  V30 1959 O 199.689 1.86539 0.759294 0
M  V30 1960 C 196.754 3.32167 0.993269 0
M  V30 1961 C 195.815 4.28751 0.216977 0
M  V30 1962 C 195.048 5.21688 1.12593 0
M  V30 1963 O 195.271 5.19052 2.36519 0
M  V30 1964 O 194.205 5.98919 0.598284 0
M  V30 1965 H 198.031 2.95251 -0.711386 0
M  V30 1966 H 195.616 1.43564 -0.413502 0
M  V30 1967 H 197.498 3.92183 1.54176 0
M  V30 1968 H 196.173 2.73987 1.72374 0
M  V30 1969 H 195.08 3.72215 -0.375101 0
M  V30 1970 H 196.413 4.89913 -0.473924 0
M  V30 1971 N 198.065 0.39524 1.52563 0
M  V30 1972 C 199.015 -0.4541 2.23432 0
M  V30 1973 C 199.999 -1.02482 1.24042 0
M  V30 1974 O 201.191 -0.949938 1.49349 0
M  V30 1975 C 198.32 -1.57769 3.049 0
M  V30 1976 C 197.406 -1.01842 4.1169 0
M  V30 1977 N 197.797 -0.184613 5.05463 0
M  V30 1978 C 196.095 -1.29033 4.26927 0
M  V30 1979 C 196.796 0.125013 5.81566 0
M  V30 1980 N 195.772 -0.480498 5.41472 0
M  V30 1981 H 199.574 0.189413 2.93289 0
M  V30 1982 H 197.088 0.204877 1.61102 0
M  V30 1983 H 199.085 -2.19862 3.54212 0
M  V30 1984 H 197.745 -2.22397 2.36579 0
M  V30 1985 H 198.756 0.178602 5.17592 0
M  V30 1986 H 195.433 -1.93721 3.69836 0
M  V30 1987 H 196.823 0.800962 6.67109 0
M  V30 1988 N 199.544 -1.57102 0.125237 0
M  V30 1989 C 200.792 -1.95021 -0.530198 0
M  V30 1990 C 201.113 -1.00982 -1.66816 0
M  V30 1991 O 200.383 -0.0672693 -1.95784 0
M  V30 1992 H 198.963 -0.720046 -0.198853 0
M  V30 1993 H 201.625 -1.93916 0.19564 0
M  V30 1994 H 200.721 -2.98211 -0.920681 0
M  V30 1995 N 201.022 0.148545 -1.56898 0
M  V30 1996 C 202.25 0.876389 -1.87422 0
M  V30 1997 C 202.665 1.74809 -0.713256 0
M  V30 1998 O 202.022 1.79725 0.317025 0
M  V30 1999 C 202.073 1.73438 -3.17178 0
M  V30 2000 O 201.794 0.897809 -4.28802 0
M  V30 2001 C 203.295 2.56993 -3.61205 0
M  V30 2002 H 200.515 0.253489 -0.621277 0
M  V30 2003 H 203.059 0.141798 -2.04008 0
M  V30 2004 H 201.214 2.42205 -3.0235 0
M  V30 2005 H 201.628 1.48672 -5.02988 0
M  V30 2006 H 203.102 3.12773 -4.54838 0
M  V30 2007 H 203.579 3.32958 -2.86419 0
M  V30 2008 H 204.185 1.9352 -3.78722 0
M  V30 2009 N 202.5 1.5196 0.417844 0
M  V30 2010 C 203.746 1.65836 1.16732 0
M  V30 2011 C 204.079 0.382881 1.90388 0
M  V30 2012 O 203.354 -0.618368 1.84408 0
M  V30 2013 C 203.637 2.87466 2.16876 0
M  V30 2014 C 203.49 4.25041 1.47174 0
M  V30 2015 C 204.809 3.04613 3.17646 0
M  V30 2016 H 201.928 0.603515 0.423011 0
M  V30 2017 H 204.57 1.84494 0.454105 0
M  V30 2018 H 202.72 2.71689 2.777 0
M  V30 2019 H 204.392 4.52527 0.895376 0
M  V30 2020 H 202.635 4.26843 0.773806 0
M  V30 2021 H 203.306 5.06176 2.20204 0
M  V30 2022 H 205.782 3.1923 2.66892 0
M  V30 2023 H 204.658 3.91247 3.8499 0
M  V30 2024 H 204.919 2.17541 3.84874 0
M  V30 2025 N 203.978 -0.674533 1.42435 0
M  V30 2026 C 205.224 -1.43671 1.43131 0
M  V30 2027 C 205.557 -1.94142 0.0476021 0
M  V30 2028 O 204.832 -1.70924 -0.928188 0
M  V30 2029 C 205.115 -2.63355 2.45594 0
M  V30 2030 C 204.968 -2.18514 3.93156 0
M  V30 2031 C 206.287 -3.65571 2.45043 0
M  V30 2032 H 203.406 -0.521077 0.521198 0
M  V30 2033 H 206.048 -0.766551 1.7385 0
M  V30 2034 H 204.198 -3.2053 2.19528 0
M  V30 2035 H 205.87 -1.66504 4.30202 0
M  V30 2036 H 204.113 -1.50086 4.07009 0
M  V30 2037 H 204.784 -3.04484 4.60428 0
M  V30 2038 H 207.26 -3.18113 2.68223 0
M  V30 2039 H 206.136 -4.46893 3.18713 0
M  V30 2040 H 206.397 -4.16716 1.47649 0
M  V30 2041 N 205.456 -1.28612 -0.910864 0
M  V30 2042 C 206.386 -1.15326 -2.03032 0
M  V30 2043 C 207.367 -0.0502924 -1.70026 0
M  V30 2044 O 208.552 -0.227797 -1.92859 0
M  V30 2045 C 205.682 -0.817343 -3.37545 0
M  V30 2046 C 204.636 -1.8754 -3.84724 0
M  V30 2047 C 203.962 -1.39305 -5.16235 0
M  V30 2048 C 205.262 -3.28244 -4.06267 0
M  V30 2049 H 206.956 -2.08975 -2.14406 0
M  V30 2050 H 204.502 -1.00612 -1.03021 0
M  V30 2051 H 206.455 -0.711151 -4.15356 0
M  V30 2052 H 205.179 0.154846 -3.26233 0
M  V30 2053 H 203.838 -1.97079 -3.09121 0
M  V30 2054 H 203.486 -0.409846 -5.01328 0
M  V30 2055 H 203.186 -2.10057 -5.48771 0
M  V30 2056 H 204.71 -1.30014 -5.96598 0
M  V30 2057 H 206.124 -3.21611 -4.74594 0
M  V30 2058 H 204.521 -3.96855 -4.5014 0
M  V30 2059 H 205.591 -3.72048 -3.10979 0
M  V30 2060 N 206.934 1.1197 -1.10907 0
M  V30 2061 C 207.897 2.16031 -0.765707 0
M  V30 2062 C 208.897 1.59393 0.212235 0
M  V30 2063 O 210.087 1.74196 -0.0115441 0
M  V30 2064 C 207.219 3.40632 -0.135053 0
M  V30 2065 H 208.412 2.47919 -1.68748 0
M  V30 2066 H 205.965 1.27061 -0.910226 0
M  V30 2067 H 206.7 3.14348 0.797218 0
M  V30 2068 H 206.485 3.8302 -0.838937 0
M  V30 2069 H 207.975 4.17505 0.0892469 0
M  V30 2070 N 208.412 0.89855 1.29475 0
M  V30 2071 C 209.375 0.380272 2.26023 0
M  V30 2072 C 210.375 -0.484891 1.53315 0
M  V30 2073 O 211.565 -0.290108 1.71767 0
M  V30 2074 C 208.697 -0.45651 3.3783 0
M  V30 2075 H 209.89 1.23295 2.73383 0
M  V30 2076 H 207.443 0.676589 1.40897 0
M  V30 2077 H 208.178 -1.32922 2.95808 0
M  V30 2078 H 207.963 0.163393 3.91759 0
M  V30 2079 H 209.453 -0.810466 4.0966 0
M  V30 2080 N 209.89 -1.43072 0.660911 0
M  V30 2081 C 211.139 -2.00942 0.174735 0
M  V30 2082 C 211.452 -1.52797 -1.22117 0
M  V30 2083 O 212.658 -2.02991 -1.80297 0
M  V30 2084 C 211.114 -3.58948 0.261559 0
M  V30 2085 C 210.722 -4.16085 1.66064 0
M  V30 2086 C 212.466 -4.24173 -0.166617 0
M  V30 2087 C 210.373 -5.6641 1.70098 0
M  V30 2088 H 209.303 -0.751483 0.0615631 0
M  V30 2089 H 211.954 -1.63955 0.824069 0
M  V30 2090 H 210.336 -3.93372 -0.455421 0
M  V30 2091 H 211.51 -3.93147 2.40359 0
M  V30 2092 H 209.825 -3.6326 2.03546 0
M  V30 2093 H 212.422 -5.34471 -0.156433 0
M  V30 2094 H 212.765 -3.98647 -1.19943 0
M  V30 2095 H 213.298 -3.94659 0.498875 0
M  V30 2096 H 210.037 -5.96715 2.71315 0
M  V30 2097 H 209.557 -5.91382 1.00139 0
M  V30 2098 H 211.236 -6.30585 1.44816 0
M  V30 2099 N 211.368 -0.403325 -1.52352 0
M  V30 2100 C 212.331 0.413051 -2.25447 0
M  V30 2101 C 213.331 0.978513 -1.276 0
M  V30 2102 O 214.521 0.858305 -1.51587 0
M  V30 2103 C 211.653 1.58087 -3.02029 0
M  V30 2104 H 212.846 -0.227094 -2.99039 0
M  V30 2105 H 210.399 -0.155722 -1.55522 0
M  V30 2106 H 211.134 2.25804 -2.32772 0
M  V30 2107 H 210.919 1.18195 -3.73861 0
M  V30 2108 H 212.409 2.1585 -3.57489 0
M  V30 2109 N 212.846 1.57033 -0.133567 0
M  V30 2110 C 214.074 2.00044 0.528195 0
M  V30 2111 C 214.489 1.01349 1.59291 0
M  V30 2112 O 213.846 0.00848369 1.82498 0
M  V30 2113 C 213.897 3.43018 1.1411 0
M  V30 2114 O 213.618 4.37939 0.11892 0
M  V30 2115 C 215.119 4.01237 1.88477 0
M  V30 2116 H 212.339 0.656517 0.138661 0
M  V30 2117 H 214.883 2.03267 -0.224196 0
M  V30 2118 H 213.038 3.40688 1.84418 0
M  V30 2119 H 213.452 5.21436 0.56613 0
M  V30 2120 H 214.926 5.03314 2.26669 0
M  V30 2121 H 215.403 3.41193 2.76558 0
M  V30 2122 H 216.009 4.07156 1.22898 0
M  V30 2123 N 214.325 -0.140222 1.56975 0
M  V30 2124 C 215.555 -0.865181 1.87612 0
M  V30 2125 C 215.963 -1.74942 0.72055 0
M  V30 2126 O 215.306 -1.80917 -0.318561 0
M  V30 2127 C 215.368 -1.76782 3.13031 0
M  V30 2128 C 215.032 -1.06005 4.44536 0
M  V30 2129 C 216.029 -0.410768 5.18275 0
M  V30 2130 C 213.714 -1.04754 4.91255 0
M  V30 2131 C 215.708 0.241572 6.36942 0
M  V30 2132 C 213.395 -0.391394 6.09845 0
M  V30 2133 C 214.393 0.252029 6.82535 0
M  V30 2134 O 214.081 0.897757 7.98871 0
M  V30 2135 H 213.813 -0.255188 0.625983 0
M  V30 2136 H 216.367 -0.135653 2.04952 0
M  V30 2137 H 214.597 -2.53846 2.91718 0
M  V30 2138 H 216.286 -2.36533 3.29859 0
M  V30 2139 H 217.052 -0.412195 4.83245 0
M  V30 2140 H 212.931 -1.53777 4.34596 0
M  V30 2141 H 216.475 0.744375 6.93617 0
M  V30 2142 H 212.372 -0.387656 6.44335 0
M  V30 2143 H 213.14 0.800102 8.1458 0
M  V30 2144 N 215.803 -1.52179 -0.40978 0
M  V30 2145 C 217.051 -1.65878 -1.15451 0
M  V30 2146 C 217.372 -0.390771 -1.91044 0
M  V30 2147 O 216.642 0.594323 -1.86667 0
M  V30 2148 H 215.222 -0.611405 -0.429177 0
M  V30 2149 H 217.884 -1.89219 -0.467134 0
M  V30 2150 H 216.98 -2.49954 -1.86894 0
M  V30 2151 N 217.281 0.66697 -1.42791 0
M  V30 2152 C 218.228 1.7803 -1.4688 0
M  V30 2153 C 219.198 1.6299 -0.319919 0
M  V30 2154 O 220.383 1.83432 -0.525118 0
M  V30 2155 C 217.523 3.1611 -1.38451 0
M  V30 2156 C 216.636 3.42381 -2.63437 0
M  V30 2157 C 215.771 4.70232 -2.47094 0
M  V30 2158 C 214.81 4.89564 -3.67415 0
M  V30 2159 N 213.947 6.08661 -3.49966 0
M  V30 2160 H 218.787 1.7387 -2.42019 0
M  V30 2161 H 216.324 0.84868 -1.20149 0
M  V30 2162 H 218.282 3.95914 -1.31561 0
M  V30 2163 H 216.912 3.19374 -0.469033 0
M  V30 2164 H 215.964 2.56774 -2.80662 0
M  V30 2165 H 217.276 3.52557 -3.52853 0
M  V30 2166 H 216.43 5.5814 -2.37834 0
M  V30 2167 H 215.169 4.62353 -1.5518 0
M  V30 2168 H 214.174 4.00096 -3.77099 0
M  V30 2169 H 215.399 4.99282 -4.6032 0
M  V30 2170 H 213.345 6.0194 -2.60776 0
M  V30 2171 H 213.262 6.19733 -4.32975 0
M  V30 2172 H 214.53 6.99226 -3.44532 0
M  V30 2173 N 218.759 1.29093 0.90403 0
M  V30 2174 C 219.987 1.19689 1.68766 0
M  V30 2175 C 220.402 -0.243113 1.87228 0
M  V30 2176 O 219.759 -1.16326 1.40621 0
M  V30 2177 C 219.81 1.90144 3.07453 0
M  V30 2178 O 219.531 3.2852 2.89838 0
M  V30 2179 C 221.032 1.87162 4.01852 0
M  V30 2180 H 218.252 0.415035 0.527244 0
M  V30 2181 H 220.796 1.7039 1.13082 0
M  V30 2182 H 218.951 1.43289 3.59926 0
M  V30 2183 H 219.365 3.63944 3.77684 0
M  V30 2184 H 220.839 2.41032 4.96596 0
M  V30 2185 H 221.316 0.84617 4.30972 0
M  V30 2186 H 221.922 2.33741 3.5531 0
M  V30 2187 N 220.237 -1.11381 1.11499 0
M  V30 2188 C 221.653 -1.35143 0.849031 0
M  V30 2189 C 221.853 -1.94515 -0.525938 0
M  V30 2190 O 220.909 -2.1785 -1.27662 0
M  V30 2191 C 222.222 -2.28249 1.95762 0
M  V30 2192 C 223.77 -2.41812 1.98736 0
M  V30 2193 C 224.245 -3.3824 3.088 0
M  V30 2194 N 225.736 -3.45803 3.08179 0
M  V30 2195 C 226.471 -4.20358 3.89982 0
M  V30 2196 N 225.967 -4.97884 4.8175 0
M  V30 2197 N 227.76 -4.15877 3.78157 0
M  V30 2198 H 219.911 -0.712062 2.00109 0
M  V30 2199 H 222.174 -0.376025 0.870235 0
M  V30 2200 H 221.88 -1.91817 2.94787 0
M  V30 2201 H 221.754 -3.28473 1.85433 0
M  V30 2202 H 224.141 -2.77518 1.00338 0
M  V30 2203 H 224.222 -1.41437 2.13141 0
M  V30 2204 H 223.866 -3.03261 4.07425 0
M  V30 2205 H 223.796 -4.38471 2.91635 0
M  V30 2206 H 226.287 -2.90506 2.41691 0
M  V30 2207 H 226.6 -5.52142 5.40702 0
M  V30 2208 H 224.945 -4.97043 4.85771 0
M  V30 2209 H 228.136 -3.544 3.05808 0
M  V30 2210 H 228.309 -4.73723 4.42143 0
M  V30 2211 N 221.715 -0.905404 -1.28997 0
M  V30 2212 C 222.665 -0.358713 -2.25161 0
M  V30 2213 C 223.649 0.524449 -1.52113 0
M  V30 2214 O 224.841 0.365534 -1.73184 0
M  V30 2215 C 221.97 0.407609 -3.40872 0
M  V30 2216 C 221.056 -0.490797 -4.21251 0
M  V30 2217 N 221.447 -1.60061 -4.79806 0
M  V30 2218 C 219.745 -0.289636 -4.45059 0
M  V30 2219 C 220.446 -2.15757 -5.40207 0
M  V30 2220 N 219.422 -1.44988 -5.23908 0
M  V30 2221 H 223.224 -1.20642 -2.67998 0
M  V30 2222 H 220.738 -0.757103 -1.43672 0
M  V30 2223 H 222.735 0.816046 -4.08835 0
M  V30 2224 H 221.395 1.25251 -2.9957 0
M  V30 2225 H 222.406 -1.98329 -4.7842 0
M  V30 2226 H 219.083 0.51643 -4.14294 0
M  V30 2227 H 220.473 -3.09069 -5.96595 0
M  V30 2228 N 223.193 1.4272 -0.668489 0
M  V30 2229 C 224.421 2.05966 -0.196348 0
M  V30 2230 C 224.836 1.50191 1.14403 0
M  V30 2231 O 224.193 0.639208 1.7094 0
M  V30 2232 C 224.244 3.61314 -0.115815 0
M  V30 2233 O 223.965 4.1502 -1.40322 0
M  V30 2234 C 225.466 4.41663 0.380579 0
M  V30 2235 H 222.686 0.663954 -0.0969829 0
M  V30 2236 H 225.23 1.82966 -0.913446 0
M  V30 2237 H 223.385 3.83448 0.551931 0
M  V30 2238 H 223.799 5.08832 -1.27243 0
M  V30 2239 H 225.273 5.5065 0.385848 0
M  V30 2240 H 225.75 4.15792 1.41471 0
M  V30 2241 H 226.356 4.24534 -0.255209 0
M  V30 2242 N 224.671 0.411399 1.52136 0
M  V30 2243 C 225.601 -0.404015 2.29978 0
M  V30 2244 C 226.582 -1.04412 1.34284 0
M  V30 2245 O 227.767 -1.0527 1.63192 0
M  V30 2246 C 224.897 -1.5197 3.12286 0
M  V30 2247 C 223.851 -1.00448 4.16046 0
M  V30 2248 C 223.177 -2.21393 4.86712 0
M  V30 2249 C 224.477 -0.0569336 5.22269 0
M  V30 2250 H 226.171 0.245529 2.98392 0
M  V30 2251 H 223.717 0.119525 1.43503 0
M  V30 2252 H 225.67 -2.09715 3.6551 0
M  V30 2253 H 224.394 -2.19716 2.41646 0
M  V30 2254 H 223.053 -0.449421 3.63835 0
M  V30 2255 H 222.701 -2.87699 4.12599 0
M  V30 2256 H 222.401 -1.87571 5.56858 0
M  V30 2257 H 223.925 -2.7974 5.4275 0
M  V30 2258 H 225.339 -0.54325 5.7072 0
M  V30 2259 H 223.736 0.192594 5.99791 0
M  V30 2260 H 224.806 0.887663 4.76706 0
M  V30 2261 N 226.149 -1.5696 0.141893 0
M  V30 2262 C 227.395 -1.9625 -0.511248 0
M  V30 2263 C 227.728 -1.02654 -1.64851 0
M  V30 2264 O 227.003 -0.0679676 -1.94381 0
M  V30 2265 C 227.286 -3.45285 -1.02227 0
M  V30 2266 C 227.139 -4.49658 0.113138 0
M  V30 2267 C 228.458 -3.96698 -1.90574 0
M  V30 2268 H 225.577 -0.713567 -0.184367 0
M  V30 2269 H 228.219 -1.88698 0.222087 0
M  V30 2270 H 226.369 -3.51852 -1.64719 0
M  V30 2271 H 228.041 -4.55174 0.749302 0
M  V30 2272 H 226.284 -4.26857 0.773026 0
M  V30 2273 H 226.955 -5.51258 -0.286053 0
M  V30 2274 H 229.431 -3.92578 -1.37918 0
M  V30 2275 H 228.307 -5.01453 -2.2324 0
M  V30 2276 H 228.568 -3.3875 -2.84079 0
M  V30 2277 N 227.627 0.131896 -1.57047 0
M  V30 2278 C 228.904 0.871495 -1.75112 0
M  V30 2279 C 229.284 1.9866 -0.713949 0
M  V30 2280 O 228.632 2.26965 0.264447 0
M  V30 2281 C 228.842 1.40007 -3.19686 0
M  V30 2282 C 230.19 1.85752 -3.81813 0
M  V30 2283 O 231.214 1.49715 -3.23209 0
M  V30 2284 O 230.073 2.5226 -4.84796 0
M  V30 2285 H 227.167 0.412919 -0.716538 0
M  V30 2286 H 229.713 0.116641 -1.69299 0
M  V30 2287 H 228.485 0.599404 -3.86682 0
M  V30 2288 H 228.108 2.218 -3.29986 0
M  V30 2289 N 229.106 1.52395 0.401703 0
M  V30 2290 C 230.522 1.41363 0.740864 0
M  V30 2291 C 230.722 0.523982 1.94568 0
M  V30 2292 O 229.778 -0.00741204 2.52499 0
M  V30 2293 C 231.091 2.84011 0.987847 0
M  V30 2294 C 232.639 2.93404 1.09011 0
M  V30 2295 C 233.114 4.37036 1.3698 0
M  V30 2296 N 234.605 4.40304 1.43829 0
M  V30 2297 C 235.34 5.48508 1.67112 0
M  V30 2298 N 234.836 6.66819 1.87949 0
M  V30 2299 N 236.629 5.36034 1.69187 0
M  V30 2300 H 228.78 2.08765 -0.391262 0
M  V30 2301 H 231.043 0.941265 -0.112798 0
M  V30 2302 H 230.749 3.51265 0.174835 0
M  V30 2303 H 230.623 3.25502 1.906 0
M  V30 2304 H 233.01 2.26325 1.8937 0
M  V30 2305 H 233.091 2.55359 0.15015 0
M  V30 2306 H 232.735 5.04676 0.571353 0
M  V30 2307 H 232.665 4.72623 2.3224 0
M  V30 2308 H 235.156 3.55024 1.29486 0
M  V30 2309 H 235.469 7.45063 2.05185 0
M  V30 2310 H 233.814 6.6987 1.85199 0
M  V30 2311 H 237.005 4.42579 1.52451 0
M  V30 2312 H 237.178 6.20434 1.86993 0
M  V30 2313 N 230.584 -0.659388 1.43143 0
M  V30 2314 C 231.812 -1.44723 1.47861 0
M  V30 2315 C 232.227 -1.88563 0.0945886 0
M  V30 2316 O 231.584 -1.59108 -0.893915 0
M  V30 2317 C 231.635 -2.68627 2.41913 0
M  V30 2318 O 231.356 -2.26623 3.74932 0
M  V30 2319 C 232.857 -3.62045 2.55809 0
M  V30 2320 H 230.077 -0.444801 0.502387 0
M  V30 2321 H 232.621 -0.808916 1.87821 0
M  V30 2322 H 230.776 -3.28613 2.05164 0
M  V30 2323 H 231.19 -3.06745 4.2545 0
M  V30 2324 H 232.664 -4.45666 3.25708 0
M  V30 2325 H 233.141 -4.08981 1.60099 0
M  V30 2326 H 233.747 -3.07944 2.93344 0
M  V30 2327 N 232.062 -1.29571 -0.897171 0
M  V30 2328 C 233.31 -1.17456 -1.64464 0
M  V30 2329 C 233.631 0.273698 -1.9307 0
M  V30 2330 O 232.901 1.18684 -1.55855 0
M  V30 2331 H 231.481 -0.431706 -0.609622 0
M  V30 2332 H 234.143 -1.62531 -1.07562 0
M  V30 2333 H 233.239 -1.72648 -2.59998 0
M  V30 2334 N 233.54 1.10788 -1.12088 0
M  V30 2335 C 234.77 1.86191 -0.895351 0
M  V30 2336 C 235.178 1.80763 0.558702 0
M  V30 2337 O 234.521 1.19188 1.39785 0
M  V30 2338 C 234.583 3.35659 -1.28737 0
M  V30 2339 C 234.247 3.64849 -2.75198 0
M  V30 2340 C 235.244 3.61757 -3.734 0
M  V30 2341 C 232.929 3.93641 -3.12013 0
M  V30 2342 C 234.923 3.87045 -5.06434 0
M  V30 2343 C 232.61 4.18585 -4.4523 0
M  V30 2344 C 233.608 4.15277 -5.42249 0
M  V30 2345 O 233.296 4.3959 -6.73065 0
M  V30 2346 H 233.028 0.595425 -0.32007 0
M  V30 2347 H 235.582 1.40992 -1.49367 0
M  V30 2348 H 233.812 3.81497 -0.63224 0
M  V30 2349 H 235.501 3.92441 -1.03656 0
M  V30 2350 H 236.267 3.39557 -3.46303 0
M  V30 2351 H 232.146 3.95348 -2.37109 0
M  V30 2352 H 235.69 3.84378 -5.82151 0
M  V30 2353 H 231.587 4.40264 -4.72057 0
M  V30 2354 H 232.355 4.57123 -6.78956 0
M  V30 2355 N 235.018 0.912232 1.28515 0
M  V30 2356 C 236.295 0.463597 1.90027 0
M  V30 2357 C 236.675 -1.05753 1.82701 0
M  V30 2358 O 236.023 -1.90492 1.26194 0
M  V30 2359 C 236.233 0.992253 3.34597 0
M  V30 2360 C 237.581 1.04344 4.11579 0
M  V30 2361 O 238.605 0.94079 3.43551 0
M  V30 2362 O 237.464 1.1995 5.33174 0
M  V30 2363 H 234.558 0.146666 0.813891 0
M  V30 2364 H 237.104 1.00292 1.36893 0
M  V30 2365 H 235.876 2.03623 3.34146 0
M  V30 2366 H 235.499 0.433672 3.95228 0
M  V30 2367 N 236.496 -1.42363 0.676048 0
M  V30 2368 C 237.744 -2.01123 0.198437 0
M  V30 2369 C 238.065 -1.53731 -1.19966 0
M  V30 2370 O 237.335 -0.759518 -1.80577 0
M  V30 2371 H 235.915 -0.743678 0.0703721 0
M  V30 2372 H 238.577 -1.74263 0.872837 0
M  V30 2373 H 237.673 -3.11454 0.200686 0
M  V30 2374 N 237.974 -0.419461 -1.51915 0
M  V30 2375 C 239.385 0.0477853 -1.86639 0
M  V30 2376 C 239.736 1.43531 -1.33766 0
M  V30 2377 O 238.861 2.05401 -0.68113 0
M  V30 2378 C 239.456 0.0934885 -3.38671 0
M  V30 2379 C 238.015 0.505097 -3.72996 0
M  V30 2380 C 237.162 -0.313792 -2.75519 0
M  V30 2381 H 240.113 -0.636088 -1.45395 0
M  V30 2382 H 240.134 0.906667 -3.6954 0
M  V30 2383 H 239.646 -0.916501 -3.77123 0
M  V30 2384 H 237.747 1.52135 -3.40126 0
M  V30 2385 H 237.86 0.242309 -4.78487 0
M  V30 2386 H 236.224 0.225363 -2.53701 0
M  V30 2387 H 237.007 -1.32232 -3.16812 0
M  V30 2388 N 239.452 1.56882 -0.150215 0
M  V30 2389 C 240.682 2.00302 0.506213 0
M  V30 2390 C 241.09 1.02934 1.58749 0
M  V30 2391 O 240.433 0.0188384 1.8369 0
M  V30 2392 C 240.495 3.40156 1.16337 0
M  V30 2393 C 240.159 4.56439 0.226311 0
M  V30 2394 C 241.156 5.17012 -0.547265 0
M  V30 2395 C 238.841 5.02136 0.128279 0
M  V30 2396 C 240.835 6.21693 -1.40629 0
M  V30 2397 C 238.522 6.06672 -0.734345 0
M  V30 2398 C 239.52 6.6632 -1.50023 0
M  V30 2399 O 239.208 7.68831 -2.34848 0
M  V30 2400 H 238.94 0.662182 0.135984 0
M  V30 2401 H 241.494 2.03961 -0.242746 0
M  V30 2402 H 239.724 3.33346 1.96004 0
M  V30 2403 H 241.413 3.67663 1.71985 0
M  V30 2404 H 242.179 4.82603 -0.48158 0
M  V30 2405 H 238.058 4.55435 0.714157 0
M  V30 2406 H 241.602 6.68179 -2.00455 0
M  V30 2407 H 237.499 6.40507 -0.801309 0
M  V30 2408 H 238.267 7.86065 -2.28131 0
M  V30 2409 N 240.93 -0.123565 1.57115 0
M  V30 2410 C 241.86 -1.15309 2.03042 0
M  V30 2411 C 242.841 -1.43454 0.914061 0
M  V30 2412 O 244.026 -1.53973 1.18347 0
M  V30 2413 C 241.156 -2.48043 2.43089 0
M  V30 2414 C 240.11 -2.3437 3.58127 0
M  V30 2415 C 239.436 -3.72026 3.84059 0
M  V30 2416 C 240.736 -1.80804 4.90007 0
M  V30 2417 H 242.43 -0.771102 2.893 0
M  V30 2418 H 239.976 -0.369479 1.39179 0
M  V30 2419 H 241.929 -3.20311 2.73823 0
M  V30 2420 H 240.653 -2.88122 1.53796 0
M  V30 2421 H 239.312 -1.64551 3.27595 0
M  V30 2422 H 238.96 -4.09582 2.91979 0
M  V30 2423 H 238.66 -3.63732 4.6149 0
M  V30 2424 H 240.184 -4.45806 4.1724 0
M  V30 2425 H 241.598 -2.42886 5.19307 0
M  V30 2426 H 239.995 -1.83343 5.71407 0
M  V30 2427 H 241.065 -0.76528 4.78823 0
M  V30 2428 N 242.408 -1.52605 -0.393616 0
M  V30 2429 C 243.819 -1.59417 -0.971761 0
M  V30 2430 C 244.17 -0.444173 -1.91106 0
M  V30 2431 O 243.295 0.433382 -2.12016 0
M  V30 2432 C 243.89 -2.88936 -1.76921 0
M  V30 2433 C 242.449 -2.98175 -2.29714 0
M  V30 2434 C 241.596 -2.54491 -1.10135 0
M  V30 2435 H 244.547 -1.57751 -0.173317 0
M  V30 2436 H 244.568 -2.75163 -2.62804 0
M  V30 2437 H 244.08 -3.72616 -1.08532 0
M  V30 2438 H 242.181 -2.19024 -3.01429 0
M  V30 2439 H 242.294 -4.02726 -2.59517 0
M  V30 2440 H 240.658 -2.08702 -1.45999 0
M  V30 2441 H 241.441 -3.4056 -0.432874 0
M  V30 2442 N 243.887 0.651787 -1.4349 0
M  V30 2443 C 245.135 1.40888 -1.44897 0
M  V30 2444 C 245.456 1.94856 -0.0749086 0
M  V30 2445 O 244.726 1.74518 0.889956 0
M  V30 2446 H 243.306 0.522887 -0.533478 0
M  V30 2447 H 245.968 0.768609 -1.79104 0
M  V30 2448 H 245.064 2.25052 -2.16236 0
M  V30 2449 N 245.365 1.30045 0.890287 0
M  V30 2450 C 246.595 1.21296 1.67245 0
M  V30 2451 C 247.003 -0.227471 1.87828 0
M  V30 2452 O 246.346 -1.16296 1.422 0
M  V30 2453 C 246.408 1.86519 3.07329 0
M  V30 2454 C 246.072 3.35837 3.09939 0
M  V30 2455 C 247.069 4.31915 2.89389 0
M  V30 2456 C 244.754 3.77196 3.31706 0
M  V30 2457 C 246.748 5.67325 2.90552 0
M  V30 2458 C 244.435 5.12725 3.32499 0
M  V30 2459 C 245.433 6.076 3.11947 0
M  V30 2460 O 245.121 7.40655 3.12547 0
M  V30 2461 H 244.853 0.4211 0.528821 0
M  V30 2462 H 247.407 1.72111 1.12103 0
M  V30 2463 H 245.637 1.30228 3.64112 0
M  V30 2464 H 247.326 1.71963 3.67673 0
M  V30 2465 H 248.092 4.01294 2.72375 0
M  V30 2466 H 243.971 3.03796 3.4674 0
M  V30 2467 H 247.515 6.41354 2.74429 0
M  V30 2468 H 243.412 5.42988 3.49047 0
M  V30 2469 H 244.18 7.49577 3.28749 0
M  V30 2470 N 246.843 -1.10192 1.12674 0
M  V30 2471 C 248.089 -1.82475 0.884915 0
M  V30 2472 C 248.422 -1.85093 -0.58773 0
M  V30 2473 O 247.697 -1.3134 -1.43457 0
M  V30 2474 C 247.98 -3.29018 1.46353 0
M  V30 2475 C 247.833 -3.34718 3.00473 0
M  V30 2476 C 249.152 -4.25473 1.12519 0
M  V30 2477 H 246.271 -0.662492 0.322915 0
M  V30 2478 H 248.913 -1.2913 1.39375 0
M  V30 2479 H 247.063 -3.74576 1.03077 0
M  V30 2480 H 248.735 -2.97622 3.52447 0
M  V30 2481 H 246.978 -2.74541 3.35872 0
M  V30 2482 H 247.649 -4.37918 3.36053 0
M  V30 2483 H 250.125 -3.88161 1.499 0
M  V30 2484 H 249.001 -5.26365 1.55663 0
M  V30 2485 H 249.262 -4.42084 0.0377407 0
M  V30 2486 N 248.321 -0.919034 -1.28029 0
M  V30 2487 C 249.284 -0.416182 -2.2539 0
M  V30 2488 C 250.284 0.460438 -1.54067 0
M  V30 2489 O 251.474 0.262744 -1.72207 0
M  V30 2490 C 248.606 0.402707 -3.38513 0
M  V30 2491 H 249.799 -1.27629 -2.71387 0
M  V30 2492 H 247.352 -0.698919 -1.39803 0
M  V30 2493 H 248.087 1.282 -2.97885 0
M  V30 2494 H 247.872 -0.225698 -3.9145 0
M  V30 2495 H 249.362 0.745191 -4.10897 0
M  V30 2496 N 249.799 1.42003 -0.683588 0
M  V30 2497 C 250.762 2.29191 -0.0198243 0
M  V30 2498 C 251.762 1.43773 0.72013 0
M  V30 2499 O 252.952 1.65061 0.556815 0
M  V30 2500 C 250.084 3.26435 0.982487 0
M  V30 2501 H 251.277 2.8938 -0.787345 0
M  V30 2502 H 248.83 1.49789 -0.446418 0
M  V30 2503 H 249.565 2.71203 1.77819 0
M  V30 2504 H 249.35 3.89449 0.455182 0
M  V30 2505 H 250.84 3.918 1.44508 0
M  V30 2506 N 251.277 0.427512 1.51691 0
M  V30 2507 C 252.24 -0.377132 2.26076 0
M  V30 2508 C 253.24 -0.958089 1.29141 0
M  V30 2509 O 254.43 -0.83408 1.52934 0
M  V30 2510 C 251.562 -1.53262 3.04506 0
M  V30 2511 H 252.755 0.27464 2.9864 0
M  V30 2512 H 250.308 0.180445 1.55255 0
M  V30 2513 H 251.043 -2.22072 2.36335 0
M  V30 2514 H 250.828 -1.12232 3.75694 0
M  V30 2515 H 252.318 -2.10135 3.60878 0
M  V30 2516 N 252.755 -1.56801 0.158532 0
M  V30 2517 C 254.166 -1.83189 -0.360366 0
M  V30 2518 C 254.517 -1.07778 -1.63946 0
M  V30 2519 O 253.642 -0.326718 -2.13919 0
M  V30 2520 C 254.237 -3.32297 -0.660595 0
M  V30 2521 C 252.796 -3.59227 -1.12398 0
M  V30 2522 C 251.943 -2.76877 -0.153097 0
M  V30 2523 H 254.894 -1.54008 0.383031 0
M  V30 2524 H 254.915 -3.4908 -1.51405 0
M  V30 2525 H 254.427 -3.87156 0.270527 0
M  V30 2526 H 252.528 -3.09766 -2.07064 0
M  V30 2527 H 252.641 -4.67632 -1.04197 0
M  V30 2528 H 251.005 -2.46319 -0.647983 0
M  V30 2529 H 251.788 -3.34511 0.77182 0
M  V30 2530 N 254.233 0.115231 -1.57178 0
M  V30 2531 C 255.482 0.820945 -1.84237 0
M  V30 2532 C 255.795 1.80866 -0.744761 0
M  V30 2533 O 257.001 2.56083 -0.901871 0
M  V30 2534 C 255.457 1.51072 -3.26658 0
M  V30 2535 C 255.065 0.563795 -4.44438 0
M  V30 2536 C 256.809 2.20134 -3.62962 0
M  V30 2537 C 254.716 1.25701 -5.77887 0
M  V30 2538 H 253.646 0.310328 -0.687177 0
M  V30 2539 H 256.297 0.0737134 -1.83352 0
M  V30 2540 H 254.679 2.30471 -3.22024 0
M  V30 2541 H 255.853 -0.197247 -4.60378 0
M  V30 2542 H 254.168 -0.0200638 -4.16395 0
M  V30 2543 H 256.765 2.72696 -4.59936 0
M  V30 2544 H 257.108 2.98107 -2.90582 0
M  V30 2545 H 257.641 1.47619 -3.69396 0
M  V30 2546 H 254.38 0.518493 -6.53446 0
M  V30 2547 H 253.9 1.98997 -5.65827 0
M  V30 2548 H 255.579 1.78915 -6.2177 0
M  V30 2549 N 255.711 1.52812 0.385517 0
M  V30 2550 C 256.957 1.68275 1.13188 0
M  V30 2551 C 257.29 0.423179 1.89533 0
M  V30 2552 O 256.565 -0.579113 1.85679 0
M  V30 2553 C 256.848 2.92001 2.1073 0
M  V30 2554 C 256.701 4.28067 1.38125 0
M  V30 2555 C 258.02 3.11283 3.11113 0
M  V30 2556 H 255.139 0.612352 0.410115 0
M  V30 2557 H 257.781 1.85415 0.414869 0
M  V30 2558 H 255.931 2.77519 2.71874 0
M  V30 2559 H 257.603 4.54324 0.799187 0
M  V30 2560 H 255.846 4.28388 0.683092 0
M  V30 2561 H 256.517 5.10733 2.09417 0
M  V30 2562 H 258.993 3.2482 2.6006 0
M  V30 2563 H 257.869 3.99325 3.76605 0
M  V30 2564 H 258.13 2.25656 3.80173 0
M  V30 2565 N 257.189 -0.644168 1.43834 0
M  V30 2566 C 258.099 -1.78563 1.52159 0
M  V30 2567 C 259.115 -1.69147 0.408069 0
M  V30 2568 O 260.291 -1.90156 0.663524 0
M  V30 2569 C 257.356 -3.14888 1.45073 0
M  V30 2570 C 256.417 -3.36034 2.6717 0
M  V30 2571 C 255.65 -4.65855 2.60413 0
M  V30 2572 O 255.873 -5.45805 1.65689 0
M  V30 2573 O 254.807 -4.88918 3.5106 0
M  V30 2574 H 258.633 -1.74494 2.48567 0
M  V30 2575 H 256.218 -0.80378 1.25935 0
M  V30 2576 H 258.1 -3.96179 1.43597 0
M  V30 2577 H 256.775 -3.19528 0.518037 0
M  V30 2578 H 255.682 -2.54472 2.74217 0
M  V30 2579 H 257.015 -3.36247 3.59442 0
M  V30 2580 N 258.668 -1.30515 -0.883378 0
M  V30 2581 C 260.079 -1.17509 -1.45081 0
M  V30 2582 C 260.43 0.223605 -1.94922 0
M  V30 2583 O 259.555 1.12041 -1.85137 0
M  V30 2584 C 260.15 -2.12715 -2.63701 0
M  V30 2585 C 258.709 -2.03682 -3.16529 0
M  V30 2586 C 257.856 -2.02706 -1.89224 0
M  V30 2587 H 260.807 -1.42762 -0.693165 0
M  V30 2588 H 260.828 -1.70891 -3.39965 0
M  V30 2589 H 260.34 -3.14505 -2.27395 0
M  V30 2590 H 258.441 -1.05039 -3.57488 0
M  V30 2591 H 258.554 -2.92146 -3.7972 0
M  V30 2592 H 256.918 -1.4753 -2.07622 0
M  V30 2593 H 257.701 -3.06229 -1.55174 0
M  V30 2594 N 260.146 1.09593 -1.13257 0
M  V30 2595 C 261.557 1.63229 -0.906274 0
M  V30 2596 C 261.908 1.8811 0.557578 0
M  V30 2597 O 261.033 1.62953 1.42391 0
M  V30 2598 C 261.628 2.96535 -1.63867 0
M  V30 2599 C 260.187 3.47003 -1.45828 0
M  V30 2600 C 259.334 2.2145 -1.66898 0
M  V30 2601 H 262.285 0.92978 -1.28611 0
M  V30 2602 H 262.306 3.64411 -1.09476 0
M  V30 2603 H 261.818 2.78394 -2.70404 0
M  V30 2604 H 259.919 3.70272 -0.415848 0
M  V30 2605 H 260.032 4.24551 -2.2202 0
M  V30 2606 H 258.396 2.30022 -1.09371 0
M  V30 2607 H 259.179 2.0583 -2.74752 0
M  V30 2608 N 261.624 0.925811 1.2754 0
M  V30 2609 C 262.587 0.428129 2.25166 0
M  V30 2610 C 263.587 -0.452261 1.54309 0
M  V30 2611 O 264.777 -0.253608 1.72344 0
M  V30 2612 C 261.909 -0.384749 3.38722 0
M  V30 2613 H 263.102 1.29066 2.70706 0
M  V30 2614 H 260.655 0.706323 1.3943 0
M  V30 2615 H 261.39 -1.26618 2.98561 0
M  V30 2616 H 261.175 0.246454 3.91325 0
M  V30 2617 H 262.665 -0.723389 4.11287 0
M  V30 2618 N 263.102 -1.41638 0.69111 0
M  V30 2619 C 264.052 -2.28 -0.000107832 0
M  V30 2620 C 265.036 -1.41964 -0.757304 0
M  V30 2621 O 266.228 -1.65274 -0.633532 0
M  V30 2622 C 263.357 -3.30209 -0.938983 0
M  V30 2623 C 262.443 -4.23725 -0.17827 0
M  V30 2624 N 262.834 -4.99017 0.825563 0
M  V30 2625 C 261.132 -4.44071 -0.414392 0
M  V30 2626 C 261.833 -5.67431 1.28052 0
M  V30 2627 N 260.809 -5.40197 0.607304 0
M  V30 2628 H 264.611 -2.83644 0.769617 0
M  V30 2629 H 262.125 -1.53797 0.521562 0
M  V30 2630 H 264.122 -3.90898 -1.44929 0
M  V30 2631 H 262.782 -2.76126 -1.70836 0
M  V30 2632 H 263.793 -5.03671 1.20566 0
M  V30 2633 H 260.47 -4.01004 -1.162 0
M  V30 2634 H 261.86 -6.37801 2.11327 0
M  V30 2635 N 264.58 -0.43555 -1.51462 0
M  V30 2636 C 265.996 -0.0877501 -1.59359 0
M  V30 2637 C 266.196 1.4027 -1.4466 0
M  V30 2638 O 265.252 2.17243 -1.28693 0
M  V30 2639 C 266.565 -0.606264 -2.94525 0
M  V30 2640 C 268.113 -0.566548 -3.0783 0
M  V30 2641 C 268.588 -1.06201 -4.45517 0
M  V30 2642 N 270.079 -1.01992 -4.51832 0
M  V30 2643 C 270.814 -1.37417 -5.5669 0
M  V30 2644 N 270.31 -1.80119 -6.68976 0
M  V30 2645 N 272.103 -1.29245 -5.47039 0
M  V30 2646 H 264.254 -1.40533 -1.59261 0
M  V30 2647 H 266.517 -0.578992 -0.750648 0
M  V30 2648 H 266.223 -1.64901 -3.10645 0
M  V30 2649 H 266.097 -0.0302097 -3.77188 0
M  V30 2650 H 268.484 0.467208 -2.91378 0
M  V30 2651 H 268.565 -1.17898 -2.2701 0
M  V30 2652 H 268.209 -2.09422 -4.62715 0
M  V30 2653 H 268.139 -0.426127 -5.24873 0
M  V30 2654 H 270.63 -0.706308 -3.71241 0
M  V30 2655 H 270.943 -2.05392 -7.45006 0
M  V30 2656 H 269.288 -1.84044 -6.70189 0
M  V30 2657 H 272.479 -0.957522 -4.58202 0
M  V30 2658 H 272.652 -1.57182 -6.28648 0
M  V30 2659 N 266.058 1.56714 -0.166846 0
M  V30 2660 C 267.286 2.0112 0.485644 0
M  V30 2661 C 267.701 1.04705 1.57106 0
M  V30 2662 O 267.058 0.0471923 1.82439 0
M  V30 2663 C 267.109 3.45361 1.06808 0
M  V30 2664 O 266.83 4.38092 0.0259995 0
M  V30 2665 C 268.331 4.05145 1.79924 0
M  V30 2666 H 265.551 0.65931 0.124704 0
M  V30 2667 H 268.095 2.02746 -0.267262 0
M  V30 2668 H 266.25 3.44524 1.7715 0
M  V30 2669 H 266.664 5.22519 0.455398 0
M  V30 2670 H 268.138 5.08009 2.15942 0
M  V30 2671 H 268.615 3.46982 2.69258 0
M  V30 2672 H 269.221 4.09672 1.14234 0
M  V30 2673 N 267.536 -0.106894 1.57237 0
M  V30 2674 C 268.783 -0.812526 1.85484 0
M  V30 2675 C 269.111 -1.79304 0.753687 0
M  V30 2676 O 268.366 -1.94047 -0.253853 0
M  V30 2677 C 268.665 -1.58628 3.20268 0
M  V30 2678 C 268.331 -0.748967 4.44636 0
M  V30 2679 C 266.993 -0.518104 4.78403 0
M  V30 2680 C 269.345 -0.166122 5.20935 0
M  V30 2681 C 266.673 0.305659 5.85903 0
M  V30 2682 C 269.025 0.644899 6.29304 0
M  V30 2683 C 267.689 0.885965 6.61594 0
M  V30 2684 H 266.959 -0.297324 0.678734 0
M  V30 2685 H 269.606 -0.0744332 1.91355 0
M  V30 2686 H 267.911 -2.39562 3.10028 0
M  V30 2687 H 269.608 -2.13643 3.39349 0
M  V30 2688 H 266.198 -0.939006 4.18187 0
M  V30 2689 H 270.382 -0.33167 4.95191 0
M  V30 2690 H 265.638 0.501528 6.0934 0
M  V30 2691 H 269.812 1.10345 6.87602 0
M  V30 2692 H 267.439 1.52609 7.44725 0
M  V30 2693 N 269.014 -1.53014 -0.377408 0
M  V30 2694 C 269.946 -1.74884 -1.48149 0
M  V30 2695 C 270.959 -0.629433 -1.5014 0
M  V30 2696 O 272.148 -0.905416 -1.53833 0
M  V30 2697 C 269.248 -1.80299 -2.86959 0
M  V30 2698 C 268.421 -3.09776 -3.08801 0
M  V30 2699 C 267.48 -3.06586 -4.27658 0
M  V30 2700 O 266.506 -3.80419 -4.23403 0
M  V30 2701 N 267.708 -2.26578 -5.34455 0
M  V30 2702 H 270.473 -2.70147 -1.29771 0
M  V30 2703 H 268.034 -1.51646 -0.56703 0
M  V30 2704 H 270.026 -1.75657 -3.64591 0
M  V30 2705 H 268.596 -0.92372 -2.98641 0
M  V30 2706 H 267.816 -3.27815 -2.18931 0
M  V30 2707 H 269.104 -3.95366 -3.20255 0
M  V30 2708 H 268.502 -1.66081 -5.40771 0
M  V30 2709 H 267.059 -2.27766 -6.10709 0
M  V30 2710 N 270.492 0.636531 -1.44174 0
M  V30 2711 C 271.455 1.73063 -1.50273 0
M  V30 2712 C 272.455 1.56113 -0.385397 0
M  V30 2713 O 273.645 1.61707 -0.64781 0
M  V30 2714 C 270.777 3.12096 -1.37145 0
M  V30 2715 H 271.97 1.69031 -2.47727 0
M  V30 2716 H 269.523 0.849706 -1.31186 0
M  V30 2717 H 270.258 3.21728 -0.407636 0
M  V30 2718 H 270.043 3.25805 -2.18159 0
M  V30 2719 H 271.533 3.91846 -1.44382 0
M  V30 2720 N 271.97 1.30982 0.876444 0
M  V30 2721 C 273.219 1.19658 1.62373 0
M  V30 2722 C 273.532 -0.245636 1.94052 0
M  V30 2723 O 274.738 -0.48049 2.67214 0
M  V30 2724 C 273.194 2.09433 2.92687 0
M  V30 2725 C 272.802 3.58613 2.68516 0
M  V30 2726 C 274.546 2.06893 3.70669 0
M  V30 2727 C 272.453 4.40416 3.94699 0
M  V30 2728 H 271.383 0.444268 0.609214 0
M  V30 2729 H 274.034 1.55791 0.969605 0
M  V30 2730 H 272.416 1.66191 3.59439 0
M  V30 2731 H 273.59 4.10058 2.10212 0
M  V30 2732 H 271.905 3.63063 2.03898 0
M  V30 2733 H 274.502 2.65258 4.64265 0
M  V30 2734 H 274.845 1.05448 4.02724 0
M  V30 2735 H 275.378 2.48301 3.10792 0
M  V30 2736 H 272.117 5.42591 3.67798 0
M  V30 2737 H 271.637 3.93731 4.52477 0
M  V30 2738 H 273.316 4.52294 4.62644 0
M  V30 2739 N 273.449 -1.08991 1.13837 0
M  V30 2740 C 274.726 -1.77863 0.813876 0
M  V30 2741 C 275.106 -1.99375 -0.693746 0
M  V30 2742 O 274.454 -1.59875 -1.63255 0
M  V30 2743 C 274.664 -3.0986 1.60586 0
M  V30 2744 C 276.012 -3.84493 1.8014 0
M  V30 2745 O 277.036 -3.19624 1.57222 0
M  V30 2746 O 275.895 -5.00957 2.18413 0
M  V30 2747 H 272.989 -0.771589 0.297624 0
M  V30 2748 H 275.535 -1.15507 1.24323 0
M  V30 2749 H 274.307 -2.89715 2.63022 0
M  V30 2750 H 273.93 -3.79942 1.17173 0
M  V30 2751 N 274.927 -0.932562 -1.27047 0
M  V30 2752 C 275.877 -0.406392 -2.24349 0
M  V30 2753 C 276.861 0.492066 -1.53191 0
M  V30 2754 O 278.053 0.328717 -1.73921 0
M  V30 2755 C 275.182 0.335214 -3.41659 0
M  V30 2756 C 274.268 -0.58004 -4.20115 0
M  V30 2757 N 274.659 -1.70203 -4.76303 0
M  V30 2758 C 272.957 -0.383974 -4.44344 0
M  V30 2759 C 273.658 -2.27167 -5.35509 0
M  V30 2760 N 272.634 -1.56068 -5.20715 0
M  V30 2761 H 276.436 -1.26299 -2.65378 0
M  V30 2762 H 273.95 -0.787408 -1.42034 0
M  V30 2763 H 275.947 0.729142 -4.10474 0
M  V30 2764 H 274.607 1.18868 -3.0216 0
M  V30 2765 H 275.618 -2.08433 -4.74106 0
M  V30 2766 H 272.295 0.428436 -4.15296 0
M  V30 2767 H 273.685 -3.21654 -5.89905 0
M  V30 2768 N 276.405 1.4127 -0.698611 0
M  V30 2769 C 277.645 2.03044 -0.235062 0
M  V30 2770 C 278.009 1.54146 1.14468 0
M  V30 2771 O 279.21 2.07867 1.70425 0
M  V30 2772 C 277.481 3.56192 -0.293651 0
M  V30 2773 S 279.04 4.38696 0.0954053 0
M  V30 2774 H 275.858 0.704697 -0.0944648 0
M  V30 2775 H 278.46 1.72656 -0.917064 0
M  V30 2776 H 277.164 3.89274 -1.29977 0
M  V30 2777 H 276.695 3.91285 0.407397 0
M  V30 2778 H 278.71 4.78257 1.3223 0
M  V30 2779 N 277.883 0.443576 1.51229 0
M  V30 2780 C 279.129 -0.120975 2.02439 0
M  V30 2781 C 279.462 -1.41815 1.32674 0
M  V30 2782 O 278.737 -1.89373 0.443622 0
M  V30 2783 C 279.02 -0.333291 3.58554 0
M  V30 2784 C 278.873 0.982968 4.38928 0
M  V30 2785 C 280.192 -1.10028 4.26124 0
M  V30 2786 H 277.311 -0.0424923 0.735774 0
M  V30 2787 H 279.953 0.583794 1.80809 0
M  V30 2788 H 278.103 -0.933614 3.77115 0
M  V30 2789 H 279.775 1.61775 4.32003 0
M  V30 2790 H 278.018 1.58611 4.03763 0
M  V30 2791 H 278.689 0.788379 5.46341 0
M  V30 2792 H 281.165 -0.591711 4.11871 0
M  V30 2793 H 280.041 -1.21761 5.35225 0
M  V30 2794 H 280.302 -2.12996 3.87408 0
M  V30 2795 N 279.361 -1.56624 0.175154 0
M  V30 2796 C 280.609 -1.96609 -0.467885 0
M  V30 2797 C 280.93 -1.06238 -1.63519 0
M  V30 2798 O 280.2 -0.129523 -1.95471 0
M  V30 2799 H 278.78 -0.726008 -0.175845 0
M  V30 2800 H 281.442 -1.93195 0.257234 0
M  V30 2801 H 280.538 -3.00989 -0.825342 0
M  V30 2802 N 280.839 0.0985539 -1.57292 0
M  V30 2803 C 281.787 1.1387 -2.02821 0
M  V30 2804 C 282.781 1.41676 -0.928666 0
M  V30 2805 O 283.987 1.41398 -1.11385 0
M  V30 2806 H 280.362 0.384419 -0.646317 0
M  V30 2807 H 282.333 0.728347 -2.89375 0
M  V30 2808 C 281.082 2.45166 -2.46554 0
M  V30 2809 H 280.405 2.24613 -3.3074 0
M  V30 2810 H 281.845 3.16456 -2.8219 0
M  V30 2811 C 280.304 3.09216 -1.33742 0
M  V30 2812 O 280.834 3.96163 -0.66464 0
M  V30 2813 N 279.04 2.69413 -1.08928 0
M  V30 2814 H 278.587 1.98801 -1.63817 0
M  V30 2815 H 278.545 3.12594 -0.336458 0
M  V30 2816 N 282.317 1.53212 0.369288 0
M  V30 2817 C 283.563 1.69466 1.11397 0
M  V30 2818 C 283.896 0.443257 1.89074 0
M  V30 2819 O 283.171 -0.559386 1.86282 0
M  V30 2820 C 283.454 2.9422 2.07621 0
M  V30 2821 C 283.307 4.29508 1.33577 0
M  V30 2822 C 284.626 3.14565 3.07794 0
M  V30 2823 H 281.745 0.616667 0.403597 0
M  V30 2824 H 284.387 1.85845 0.395179 0
M  V30 2825 H 282.537 2.80387 2.68916 0
M  V30 2826 H 284.209 4.55147 0.750955 0
M  V30 2827 H 282.452 4.29088 0.637618 0
M  V30 2828 H 283.123 5.12926 2.03989 0
M  V30 2829 H 285.599 3.2756 2.56601 0
M  V30 2830 H 284.475 4.03297 3.72348 0
M  V30 2831 H 284.736 2.29675 3.77759 0
M  V30 2832 N 283.795 -0.628877 1.44509 0
M  V30 2833 C 284.705 -1.7694 1.54044 0
M  V30 2834 C 285.721 -1.68705 0.425987 0
M  V30 2835 O 286.897 -1.89442 0.683656 0
M  V30 2836 C 283.962 -3.13332 1.48405 0
M  V30 2837 C 283.023 -3.33181 2.70719 0
M  V30 2838 C 282.256 -4.63067 2.6534 0
M  V30 2839 O 282.479 -5.44017 1.71469 0
M  V30 2840 O 281.413 -4.85167 3.56226 0
M  V30 2841 H 285.239 -1.71848 2.50403 0
M  V30 2842 H 282.824 -0.790378 1.26781 0
M  V30 2843 H 284.706 -3.94634 1.47791 0
M  V30 2844 H 283.381 -3.1896 0.551898 0
M  V30 2845 H 282.288 -2.51549 2.769 0
M  V30 2846 H 283.621 -3.32416 3.62988 0
M  V30 2847 N 285.273 -1.31445 -0.869486 0
M  V30 2848 C 286.203 -1.21727 -1.99261 0
M  V30 2849 C 287.184 -0.104359 -1.6978 0
M  V30 2850 O 288.369 -0.289038 -1.92037 0
M  V30 2851 C 285.499 -0.924317 -3.34774 0
M  V30 2852 C 284.453 -1.99685 -3.78563 0
M  V30 2853 C 283.779 -1.55658 -5.11541 0
M  V30 2854 C 285.079 -3.41003 -3.95619 0
M  V30 2855 H 286.773 -2.1569 -2.07649 0
M  V30 2856 H 284.319 -1.03839 -0.997675 0
M  V30 2857 H 286.272 -0.842934 -4.12883 0
M  V30 2858 H 284.996 0.0509793 -3.2656 0
M  V30 2859 H 283.655 -2.06813 -3.02694 0
M  V30 2860 H 283.303 -0.569132 -4.9977 0
M  V30 2861 H 283.003 -2.27409 -5.41811 0
M  V30 2862 H 284.527 -1.48928 -5.92159 0
M  V30 2863 H 285.941 -3.36547 -4.64122 0
M  V30 2864 H 284.338 -4.10975 -4.37286 0
M  V30 2865 H 285.408 -3.81754 -2.98985 0
M  V30 2866 N 286.751 1.08385 -1.14413 0
M  V30 2867 C 287.999 1.80419 -0.910679 0
M  V30 2868 C 288.32 1.86658 0.564243 0
M  V30 2869 O 287.59 1.35985 1.41014 0
M  V30 2870 H 286.17 0.668204 -0.333934 0
M  V30 2871 H 288.832 1.31037 -1.44275 0
M  V30 2872 H 287.928 2.83238 -1.31082 0
M  V30 2873 N 288.23 0.939286 1.26551 0
M  V30 2874 C 289.646 0.641304 1.46149 0
M  V30 2875 C 289.846 -0.805964 1.84679 0
M  V30 2876 O 288.902 -1.58278 1.96734 0
M  V30 2877 C 290.215 1.6011 2.54529 0
M  V30 2878 C 291.763 1.6106 2.68382 0
M  V30 2879 C 292.238 2.55765 3.79932 0
M  V30 2880 N 293.729 2.5404 3.87322 0
M  V30 2881 C 294.464 3.24004 4.73085 0
M  V30 2882 N 293.96 4.03388 5.63249 0
M  V30 2883 N 295.753 3.12965 4.66914 0
M  V30 2884 H 287.904 1.87478 0.998285 0
M  V30 2885 H 290.167 0.805559 0.499779 0
M  V30 2886 H 289.873 2.63412 2.33039 0
M  V30 2887 H 289.747 1.35171 3.52149 0
M  V30 2888 H 292.134 0.584835 2.89247 0
M  V30 2889 H 292.215 1.90053 1.71212 0
M  V30 2890 H 291.859 3.58458 3.5982 0
M  V30 2891 H 291.789 2.24063 4.76554 0
M  V30 2892 H 294.28 1.96396 3.22858 0
M  V30 2893 H 294.593 4.5373 6.25579 0
M  V30 2894 H 292.938 4.07489 5.63008 0
M  V30 2895 H 296.129 2.50432 3.95476 0
M  V30 2896 H 296.302 3.67759 5.33533 0
M  V30 2897 N 289.708 -1.40897 0.706093 0
M  V30 2898 C 290.641 -2.282 -0.00328781 0
M  V30 2899 C 291.619 -1.42816 -0.77732 0
M  V30 2900 O 292.803 -1.72237 -0.765944 0
M  V30 2901 C 289.93 -3.23226 -1.01205 0
M  V30 2902 C 288.976 -4.25222 -0.329955 0
M  V30 2903 S 289.809 -5.27269 0.935298 0
M  V30 2904 C 290.965 -6.25859 -0.0716061 0
M  V30 2905 H 291.198 -2.88016 0.737143 0
M  V30 2906 H 288.731 -1.46191 0.496756 0
M  V30 2907 H 290.689 -3.78503 -1.58888 0
M  V30 2908 H 289.35 -2.62485 -1.72513 0
M  V30 2909 H 288.543 -4.92023 -1.09221 0
M  V30 2910 H 288.145 -3.73595 0.174069 0
M  V30 2911 H 290.437 -6.71204 -0.921521 0
M  V30 2912 H 291.38 -7.0586 0.562765 0
M  V30 2913 H 291.788 -5.62852 -0.431088 0
M  V30 2914 N 291.186 -0.45159 -1.50991 0
M  V30 2915 C 292.134 0.366864 -2.29689 0
M  V30 2916 C 293.128 1.00809 -1.36139 0
M  V30 2917 O 294.334 0.941427 -1.53418 0
M  V30 2918 H 290.709 0.137133 -0.739391 0
M  V30 2919 H 292.68 -0.317538 -2.96706 0
M  V30 2920 C 291.429 1.44751 -3.16137 0
M  V30 2921 H 290.752 0.963473 -3.88017 0
M  V30 2922 H 292.192 1.99315 -3.74232 0
M  V30 2923 C 290.651 2.43869 -2.32442 0
M  V30 2924 O 291.181 3.4872 -1.99392 0
M  V30 2925 N 289.387 2.15105 -1.95392 0
M  V30 2926 H 288.934 1.29866 -2.22469 0
M  V30 2927 H 288.892 2.81661 -1.39693 0
M  V30 2928 N 292.664 1.56529 -0.183458 0
M  V30 2929 C 293.574 2.22144 0.754272 0
M  V30 2930 C 294.59 1.21684 1.24374 0
M  V30 2931 O 295.766 1.54385 1.29333 0
M  V30 2932 C 292.831 2.85884 1.96141 0
M  V30 2933 C 291.892 4.01579 1.51765 0
M  V30 2934 C 291.125 4.6227 2.66725 0
M  V30 2935 O 291.348 4.21865 3.83909 0
M  V30 2936 O 290.282 5.51936 2.40104 0
M  V30 2937 H 294.108 3.02861 0.225527 0
M  V30 2938 H 291.693 1.49331 0.0453032 0
M  V30 2939 H 293.575 3.26253 2.66715 0
M  V30 2940 H 292.25 2.08154 2.47899 0
M  V30 2941 H 291.157 3.65856 0.781049 0
M  V30 2942 H 292.49 4.80938 1.04686 0
M  V30 2943 N 294.142 -0.090211 1.57342 0
M  V30 2944 C 295.388 -0.788838 1.8748 0
M  V30 2945 C 295.743 -1.76105 0.7749 0
M  V30 2946 O 295.036 -1.90302 -0.222663 0
M  V30 2947 C 295.23 -1.55222 3.21933 0
M  V30 2948 C 295.059 -0.655441 4.44898 0
M  V30 2949 C 293.829 -0.299325 5.04413 0
M  V30 2950 C 296.027 0.0397458 5.14285 0
M  V30 2951 N 294.009 0.605108 6.10911 0
M  V30 2952 C 295.38 0.802061 6.1479 0
M  V30 2953 C 297.435 0.113154 4.97771 0
M  V30 2954 C 296.138 1.63093 7.00566 0
M  V30 2955 C 298.164 0.928942 5.84059 0
M  V30 2956 C 297.526 1.67936 6.84088 0
M  V30 2957 H 293.625 -0.26467 0.735849 0
M  V30 2958 H 296.209 -0.0511453 1.94633 0
M  V30 2959 H 294.38 -2.26076 3.15823 0
M  V30 2960 H 296.112 -2.19843 3.39781 0
M  V30 2961 H 292.867 -0.648079 4.69145 0
M  V30 2962 H 293.291 1.05002 6.68808 0
M  V30 2963 H 297.933 -0.452676 4.2037 0
M  V30 2964 H 295.651 2.20781 7.77355 0
M  V30 2965 H 299.237 0.988478 5.73341 0
M  V30 2966 H 298.117 2.30044 7.49699 0
M  V30 2967 N 295.62 -1.53406 -0.361157 0
M  V30 2968 C 296.866 -1.70054 -1.10496 0
M  V30 2969 C 297.199 -0.453278 -1.88836 0
M  V30 2970 O 296.474 0.5495 -1.86576 0
M  V30 2971 C 296.757 -2.95317 -2.06058 0
M  V30 2972 C 296.61 -4.3021 -1.31298 0
M  V30 2973 C 297.929 -3.16193 -3.06121 0
M  V30 2974 H 295.048 -0.618799 -0.400321 0
M  V30 2975 H 297.69 -1.86052 -0.385318 0
M  V30 2976 H 295.84 -2.81809 -2.67425 0
M  V30 2977 H 297.512 -4.55538 -0.726807 0
M  V30 2978 H 295.755 -4.29421 -0.614853 0
M  V30 2979 H 296.426 -5.14 -2.01265 0
M  V30 2980 H 298.902 -3.28916 -2.5486 0
M  V30 2981 H 297.778 -4.05266 -3.70204 0
M  V30 2982 H 298.039 -2.31676 -3.76535 0
M  V30 2983 N 297.098 0.621204 -1.44841 0
M  V30 2984 C 298.346 1.37783 -1.47852 0
M  V30 2985 C 298.667 1.94653 -0.116224 0
M  V30 2986 O 297.937 1.76367 0.852737 0
M  V30 2987 H 296.517 0.511453 -0.544449 0
M  V30 2988 H 299.179 0.730446 -1.80694 0
M  V30 2989 H 298.275 2.20414 -2.20961 0
M  V30 2990 N 298.576 1.31904 0.862503 0
M  V30 2991 C 299.823 1.22017 1.61611 0
M  V30 2992 C 300.151 -0.21991 1.93253 0
M  V30 2993 O 299.406 -1.17076 1.56817 0
M  V30 2994 C 299.705 2.01713 2.95037 0
M  V30 2995 C 299.371 3.51145 2.82857 0
M  V30 2996 C 298.033 3.91889 2.79243 0
M  V30 2997 C 300.385 4.46204 2.69353 0
M  V30 2998 C 297.713 5.25947 2.59993 0
M  V30 2999 C 300.065 5.80397 2.5164 0
M  V30 3000 C 298.729 6.20352 2.46413 0
M  V30 3001 H 297.999 0.44649 0.591378 0
M  V30 3002 H 300.646 1.63248 1.00111 0
M  V30 3003 H 298.951 1.53185 3.60613 0
M  V30 3004 H 300.648 1.91437 3.52353 0
M  V30 3005 H 297.238 3.1878 2.86491 0
M  V30 3006 H 301.422 4.15652 2.71196 0
M  V30 3007 H 296.678 5.5597 2.54376 0
M  V30 3008 H 300.852 6.53676 2.40169 0
M  V30 3009 H 298.479 7.24172 2.31256 0
M  V30 3010 N 300.054 -1.07777 1.14986 0
M  V30 3011 C 301.284 -1.83752 0.944402 0
M  V30 3012 C 301.692 -1.8218 -0.51058 0
M  V30 3013 O 301.035 -1.22852 -1.36576 0
M  V30 3014 C 301.097 -3.32128 1.37592 0
M  V30 3015 C 300.761 -3.57425 2.84775 0
M  V30 3016 C 301.758 -3.5173 3.8286 0
M  V30 3017 C 299.443 -3.8523 3.2234 0
M  V30 3018 C 301.437 -3.73482 5.16517 0
M  V30 3019 C 299.124 -4.06634 4.56171 0
M  V30 3020 C 300.122 -4.00754 5.53069 0
M  V30 3021 O 299.81 -4.2159 6.84483 0
M  V30 3022 H 299.542 -0.58673 0.335744 0
M  V30 3023 H 302.096 -1.36982 1.53052 0
M  V30 3024 H 300.326 -3.79686 0.733165 0
M  V30 3025 H 302.015 -3.89555 1.14024 0
M  V30 3026 H 302.781 -3.30256 3.55184 0
M  V30 3027 H 298.66 -3.88923 2.47508 0
M  V30 3028 H 302.204 -3.68808 5.92137 0
M  V30 3029 H 298.101 -4.27593 4.83564 0
M  V30 3030 H 298.869 -4.38961 6.90837 0
M  V30 3031 N 301.532 -0.945985 -1.26051 0
M  V30 3032 C 302.48 -0.450259 -2.282 0
M  V30 3033 C 303.474 0.47497 -1.62605 0
M  V30 3034 O 304.68 0.352653 -1.76512 0
M  V30 3035 H 301.055 -0.127081 -0.741184 0
M  V30 3036 H 303.026 -1.32422 -2.67408 0
M  V30 3037 C 301.775 0.26467 -3.46691 0
M  V30 3038 H 301.098 -0.438123 -3.97392 0
M  V30 3039 H 302.538 0.575678 -4.20074 0
M  V30 3040 C 300.997 1.48416 -3.02447 0
M  V30 3041 O 301.527 2.58227 -3.07704 0
M  V30 3042 N 299.733 1.34243 -2.57735 0
M  V30 3043 H 299.28 0.448994 -2.53657 0
M  V30 3044 H 299.238 2.15957 -2.28495 0
M  V30 3045 N 303.011 1.40521 -0.713556 0
M  V30 3046 C 303.958 2.30723 -0.059684 0
M  V30 3047 C 304.928 1.48079 0.752448 0
M  V30 3048 O 306.113 1.76823 0.71681 0
M  V30 3049 C 303.253 3.34274 0.857594 0
M  V30 3050 C 302.366 4.31986 0.0351536 0
M  V30 3051 C 301.501 5.22605 0.951724 0
M  V30 3052 C 300.54 6.11976 0.123253 0
M  V30 3053 N 299.677 6.9502 0.99459 0
M  V30 3054 H 304.517 2.86074 -0.834596 0
M  V30 3055 H 302.054 1.40879 -0.42326 0
M  V30 3056 H 304.012 3.92879 1.40364 0
M  V30 3057 H 302.642 2.8043 1.59871 0
M  V30 3058 H 301.694 3.7518 -0.628052 0
M  V30 3059 H 303.006 4.95101 -0.606347 0
M  V30 3060 H 302.16 5.86131 1.56638 0
M  V30 3061 H 300.899 4.59759 1.62705 0
M  V30 3062 H 299.904 5.47482 -0.50435 0
M  V30 3063 H 301.129 6.76881 -0.548539 0
M  V30 3064 H 299.075 6.34764 1.6556 0
M  V30 3065 H 298.992 7.54892 0.40908 0
M  V30 3066 H 300.26 7.62997 1.59549 0
M  V30 3067 N 304.489 0.459591 1.5075 0
M  V30 3068 C 305.735 -0.0994966 2.02556 0
M  V30 3069 C 306.068 -1.40399 1.3417 0
M  V30 3070 O 305.343 -1.88892 0.463683 0
M  V30 3071 C 305.626 -0.295242 3.58888 0
M  V30 3072 C 305.479 1.02947 4.37861 0
M  V30 3073 C 306.798 -1.05502 4.27267 0
M  V30 3074 H 303.917 -0.034686 0.736183 0
M  V30 3075 H 306.559 0.602938 1.8018 0
M  V30 3076 H 304.709 -0.893563 3.78084 0
M  V30 3077 H 306.381 1.66348 4.30263 0
M  V30 3078 H 304.624 1.62885 4.02058 0
M  V30 3079 H 305.295 0.846281 5.45474 0
M  V30 3080 H 307.771 -0.547993 4.12476 0
M  V30 3081 H 306.647 -1.16077 5.36486 0
M  V30 3082 H 306.908 -2.08875 3.89645 0
M  V30 3083 N 305.967 -1.56429 0.191757 0
M  V30 3084 C 306.9 -2.14829 -0.76967 0
M  V30 3085 C 307.878 -1.08405 -1.2119 0
M  V30 3086 O 309.062 -1.36498 -1.30002 0
M  V30 3087 C 306.189 -2.70446 -2.03903 0
M  V30 3088 C 305.235 -3.89428 -1.7392 0
M  V30 3089 S 306.068 -5.28048 -0.890265 0
M  V30 3090 C 307.224 -5.87085 -2.16984 0
M  V30 3091 H 307.457 -2.96042 -0.273204 0
M  V30 3092 H 304.99 -1.54383 -0.0231975 0
M  V30 3093 H 306.948 -3.03134 -2.76803 0
M  V30 3094 H 305.609 -1.89281 -2.50662 0
M  V30 3095 H 304.802 -4.26742 -2.68155 0
M  V30 3096 H 304.404 -3.57732 -1.09103 0
M  V30 3097 H 306.696 -6.01244 -3.12269 0
M  V30 3098 H 307.639 -6.83747 -1.84108 0
M  V30 3099 H 308.047 -5.15663 -2.29678 0
M  V30 3100 N 307.445 0.0818655 -1.57387 0
M  V30 3101 C 308.693 0.781368 -1.86384 0
M  V30 3102 C 309.014 1.78618 -0.782342 0
M  V30 3103 O 308.284 1.94976 0.190061 0
M  V30 3104 H 306.864 0.291562 -0.687751 0
M  V30 3105 H 309.526 0.060348 -1.94807 0
M  V30 3106 H 308.622 1.3038 -2.83562 0
M  V30 3107 N 308.923 1.53595 0.353017 0
M  V30 3108 C 310.17 1.70385 1.09431 0
M  V30 3109 C 310.498 0.462113 1.88931 0
M  V30 3110 O 309.753 -0.556074 1.87633 0
M  V30 3111 C 310.052 2.91313 2.07054 0
M  V30 3112 C 309.718 4.27308 1.43939 0
M  V30 3113 C 308.38 4.64287 1.26454 0
M  V30 3114 C 310.732 5.11829 0.983883 0
M  V30 3115 C 308.06 5.83412 0.620226 0
M  V30 3116 C 310.412 6.31611 0.353516 0
M  V30 3117 C 309.076 6.67293 0.166272 0
M  V30 3118 H 308.346 0.623484 0.400436 0
M  V30 3119 H 310.993 1.87799 0.374655 0
M  V30 3120 H 309.298 2.68463 2.85368 0
M  V30 3121 H 310.995 3.01497 2.64387 0
M  V30 3122 H 307.585 3.98198 1.58543 0
M  V30 3123 H 311.769 4.838 1.10685 0
M  V30 3124 H 307.025 6.09639 0.463681 0
M  V30 3125 H 311.199 6.964 -0.00757555 0
M  V30 3126 H 308.826 7.59461 -0.335047 0
M  V30 3127 N 310.401 -0.613514 1.45168 0
M  V30 3128 C 311.629 -1.39946 1.5239 0
M  V30 3129 C 312.044 -1.88167 0.154531 0
M  V30 3130 O 311.401 -1.61872 -0.842843 0
M  V30 3131 C 311.452 -2.60795 2.50337 0
M  V30 3132 O 311.173 -2.1458 3.81952 0
M  V30 3133 C 312.674 -3.53723 2.67198 0
M  V30 3134 H 309.894 -0.428593 0.516284 0
M  V30 3135 H 312.438 -0.748753 1.903 0
M  V30 3136 H 310.593 -3.21919 2.15515 0
M  V30 3137 H 311.007 -2.93055 4.34993 0
M  V30 3138 H 312.481 -4.35079 3.39721 0
M  V30 3139 H 312.958 -4.0368 1.73029 0
M  V30 3140 H 313.564 -2.98456 3.02992 0
M  V30 3141 N 311.879 -1.3236 -0.855495 0
M  V30 3142 C 312.827 -1.2118 -1.9854 0
M  V30 3143 C 313.821 -0.116788 -1.68997 0
M  V30 3144 O 315.027 -0.279657 -1.77814 0
M  V30 3145 H 311.402 -0.375608 -0.651477 0
M  V30 3146 H 313.373 -2.16743 -2.05098 0
M  V30 3147 C 312.122 -0.950849 -3.34446 0
M  V30 3148 H 311.445 -1.78563 -3.57708 0
M  V30 3149 H 312.885 -0.912863 -4.14057 0
M  V30 3150 C 311.344 0.346404 -3.35114 0
M  V30 3151 O 311.874 1.35855 -3.7803 0
M  V30 3152 N 310.08 0.36808 -2.88259 0
M  V30 3153 H 309.627 -0.456102 -2.5353 0
M  V30 3154 H 309.585 1.23591 -2.89089 0
M  V30 3155 N 313.357 1.07166 -1.15556 0
M  V30 3156 C 314.29 2.13808 -0.797593 0
M  V30 3157 C 315.268 1.6101 0.226812 0
M  V30 3158 O 316.452 1.88161 0.112932 0
M  V30 3159 C 313.579 3.38187 -0.186371 0
M  V30 3160 C 312.625 4.09766 -1.18297 0
M  V30 3161 S 313.458 4.60932 -2.72584 0
M  V30 3162 C 314.614 5.88583 -2.12886 0
M  V30 3163 H 314.847 2.43843 -1.70083 0
M  V30 3164 H 312.38 1.19467 -0.978106 0
M  V30 3165 H 314.338 4.10189 0.159837 0
M  V30 3166 H 312.999 3.06326 0.694489 0
M  V30 3167 H 312.192 4.99065 -0.703562 0
M  V30 3168 H 311.794 3.43736 -1.47381 0
M  V30 3169 H 314.086 6.60866 -1.49208 0
M  V30 3170 H 315.029 6.41241 -3.0036 0
M  V30 3171 H 315.437 5.42194 -1.57116 0
M  V30 3172 N 314.835 0.952656 1.25548 0
M  V30 3173 C 315.782 0.47008 2.25962 0
M  V30 3174 C 316.752 -0.476384 1.59122 0
M  V30 3175 O 317.937 -0.39007 1.8677 0
M  V30 3176 C 315.077 -0.247881 3.44209 0
M  V30 3177 C 314.19 0.735591 4.25691 0
M  V30 3178 C 313.325 -0.0047306 5.312 0
M  V30 3179 C 312.364 0.969805 6.04368 0
M  V30 3180 N 311.501 0.260486 7.01617 0
M  V30 3181 H 316.341 1.33126 2.66611 0
M  V30 3182 H 313.878 0.66765 1.31076 0
M  V30 3183 H 315.836 -0.680695 4.1161 0
M  V30 3184 H 314.466 -1.07312 3.0444 0
M  V30 3185 H 313.518 1.28689 3.57971 0
M  V30 3186 H 314.83 1.47934 4.76358 0
M  V30 3187 H 313.984 -0.496275 6.04667 0
M  V30 3188 H 312.723 -0.781282 4.81401 0
M  V30 3189 H 311.728 1.47237 5.29718 0
M  V30 3190 H 312.953 1.74655 6.56256 0
M  V30 3191 H 310.899 -0.497364 6.54112 0
M  V30 3192 H 310.816 0.943362 7.50091 0
M  V30 3193 H 312.084 -0.209587 7.79218 0
M  V30 3194 N 316.313 -1.40141 0.720998 0
M  V30 3195 C 317.223 -2.34486 0.0731031 0
M  V30 3196 C 318.239 -1.57587 -0.737723 0
M  V30 3197 O 319.415 -1.89949 -0.669429 0
M  V30 3198 C 316.48 -3.36528 -0.833656 0
M  V30 3199 C 315.541 -4.29298 -0.0121673 0
M  V30 3200 C 314.774 -5.26466 -0.875742 0
M  V30 3201 O 314.997 -5.29745 -2.11485 0
M  V30 3202 O 313.931 -6.01092 -0.31185 0
M  V30 3203 H 317.757 -2.9152 0.851444 0
M  V30 3204 H 315.342 -1.41427 0.481527 0
M  V30 3205 H 317.224 -3.99093 -1.35289 0
M  V30 3206 H 315.899 -2.81899 -1.59105 0
M  V30 3207 H 314.806 -3.70001 0.552262 0
M  V30 3208 H 316.139 -4.87094 0.707129 0
M  V30 3209 N 317.792 -0.46758 -1.50504 0
M  V30 3210 C 319.039 0.0886219 -2.02306 0
M  V30 3211 C 319.367 1.40037 -1.34981 0
M  V30 3212 O 318.622 1.90136 -0.463318 0
M  V30 3213 C 318.921 0.323995 -3.55928 0
M  V30 3214 C 318.587 -0.905618 -4.41712 0
M  V30 3215 C 317.249 -1.24275 -4.64875 0
M  V30 3216 C 319.601 -1.72448 -4.91845 0
M  V30 3217 C 316.929 -2.39888 -5.35417 0
M  V30 3218 C 319.281 -2.87185 -5.63656 0
M  V30 3219 C 317.945 -3.21317 -5.85074 0
M  V30 3220 H 317.215 0.0324291 -0.74029 0
M  V30 3221 H 319.862 -0.620945 -1.81153 0
M  V30 3222 H 318.167 1.11577 -3.75577 0
M  V30 3223 H 319.864 0.76826 -3.93572 0
M  V30 3224 H 316.454 -0.632956 -4.239 0
M  V30 3225 H 320.638 -1.4772 -4.73806 0
M  V30 3226 H 315.894 -2.66611 -5.50208 0
M  V30 3227 H 320.068 -3.50985 -6.01484 0
M  V30 3228 H 317.695 -4.1101 -6.39511 0
M  V30 3229 N 319.27 1.56325 -0.20005 0
M  V30 3230 C 320.516 1.98012 0.438059 0
M  V30 3231 C 320.849 1.08702 1.60927 0
M  V30 3232 O 320.124 0.140064 1.93995 0
M  V30 3233 C 320.407 3.48841 0.893419 0
M  V30 3234 C 320.26 4.48928 -0.279947 0
M  V30 3235 C 321.579 4.03498 1.75719 0
M  V30 3236 H 318.698 0.719918 0.157757 0
M  V30 3237 H 321.34 1.87743 -0.291968 0
M  V30 3238 H 319.49 3.57723 1.51547 0
M  V30 3239 H 321.162 4.52079 -0.91772 0
M  V30 3240 H 319.405 4.23694 -0.930919 0
M  V30 3241 H 320.076 5.5194 0.0812601 0
M  V30 3242 H 322.552 3.97427 1.23253 0
M  V30 3243 H 321.428 5.09393 2.04476 0
M  V30 3244 H 321.689 3.4906 2.71311 0
M  V30 3245 N 320.748 -0.0735177 1.57428 0
M  V30 3246 C 321.996 -0.771472 1.86796 0
M  V30 3247 C 322.317 -1.78201 0.791804 0
M  V30 3248 O 321.587 -1.95074 -0.179718 0
M  V30 3249 H 320.167 -0.28791 0.689287 0
M  V30 3250 H 322.829 -0.0500161 1.94836 0
M  V30 3251 H 321.925 -1.28874 2.8425 0
M  V30 3252 N 322.226 -1.5378 -0.344866 0
M  V30 3253 C 323.503 -1.61589 -1.10219 0
M  V30 3254 C 323.883 -0.436316 -2.06542 0
M  V30 3255 O 323.231 0.571543 -2.21237 0
M  V30 3256 C 323.441 -2.97602 -1.82301 0
M  V30 3257 C 324.789 -3.5291 -2.36093 0
M  V30 3258 O 325.813 -2.99768 -1.924 0
M  V30 3259 O 324.672 -4.45859 -3.16026 0
M  V30 3260 H 321.766 -0.653522 -0.506792 0
M  V30 3261 H 324.312 -1.66126 -0.346465 0
M  V30 3262 H 323.084 -3.74893 -1.12121 0
M  V30 3263 H 322.707 -2.9665 -2.64735 0
M  V30 3264 N 323.704 0.605807 -1.45491 0
M  V30 3265 C 324.981 1.36522 -1.40075 0
M  V30 3266 C 325.361 2.10976 -0.0722744 0
M  V30 3267 O 324.709 2.08007 0.945808 0
M  V30 3268 C 324.919 2.31056 -2.61561 0
M  V30 3269 C 326.267 2.93608 -3.06724 0
M  V30 3270 O 327.291 2.41376 -2.61946 0
M  V30 3271 O 326.15 3.88421 -3.84437 0
M  V30 3272 H 323.244 0.612248 -0.555951 0
M  V30 3273 H 325.79 0.628747 -1.57623 0
M  V30 3274 H 324.562 1.75311 -3.49831 0
M  V30 3275 H 324.185 3.12081 -2.46356 0
M  V30 3276 N 325.182 1.32811 0.848464 0
M  V30 3277 C 326.431 1.23075 1.59798 0
M  V30 3278 C 326.744 -0.204419 1.94529 0
M  V30 3279 O 327.95 -0.423701 2.68173 0
M  V30 3280 C 326.406 2.15594 2.88179 0
M  V30 3281 C 326.014 3.64228 2.60849 0
M  V30 3282 C 327.758 2.14709 3.66197 0
M  V30 3283 C 325.665 4.48689 3.85269 0
M  V30 3284 H 324.595 0.457091 0.599653 0
M  V30 3285 H 327.246 1.57813 0.936342 0
M  V30 3286 H 325.628 1.73778 3.55833 0
M  V30 3287 H 326.802 4.14424 2.01467 0
M  V30 3288 H 325.117 3.67306 1.96151 0
M  V30 3289 H 327.714 2.75046 4.58534 0
M  V30 3290 H 328.057 1.13966 4.00397 0
M  V30 3291 H 328.59 2.54837 3.05455 0
M  V30 3292 H 325.329 5.5027 3.56207 0
M  V30 3293 H 324.849 4.03241 4.44024 0
M  V30 3294 H 326.528 4.62006 4.52946 0
M  V30 3295 N 326.66 -1.06551 1.16123 0
M  V30 3296 C 327.623 -2.12132 0.867906 0
M  V30 3297 C 328.623 -1.60224 -0.135944 0
M  V30 3298 O 329.813 -1.73943 0.0946422 0
M  V30 3299 C 326.945 -3.396 0.297419 0
M  V30 3300 H 328.138 -2.39586 1.80385 0
M  V30 3301 H 325.691 -1.22574 0.969812 0
M  V30 3302 H 326.426 -3.17794 -0.64633 0
M  V30 3303 H 326.211 -3.78581 1.02073 0
M  V30 3304 H 327.701 -4.17455 0.110052 0
M  V30 3305 N 328.138 -0.959301 -1.25041 0
M  V30 3306 C 329.366 -0.633949 -1.96948 0
M  V30 3307 C 329.781 0.794916 -1.7125 0
M  V30 3308 O 329.138 1.53231 -0.991287 0
M  V30 3309 C 329.189 -0.888805 -3.50403 0
M  V30 3310 O 328.91 -2.26149 -3.75218 0
M  V30 3311 C 330.411 -0.576482 -4.39536 0
M  V30 3312 H 327.631 -0.237263 -0.627652 0
M  V30 3313 H 330.175 -1.28495 -1.59089 0
M  V30 3314 H 328.33 -0.284145 -3.86357 0
M  V30 3315 H 328.744 -2.33514 -4.6965 0
M  V30 3316 H 330.218 -0.805314 -5.46094 0
M  V30 3317 H 330.695 0.489075 -4.36468 0
M  V30 3318 H 331.301 -1.16067 -4.09156 0
M  V30 3319 N 329.616 1.39756 -0.72842 0
M  V30 3320 C 330.526 2.34444 -0.0855374 0
M  V30 3321 C 331.542 1.57976 0.729356 0
M  V30 3322 O 332.718 1.90301 0.659346 0
M  V30 3323 C 329.783 3.36965 0.815798 0
M  V30 3324 C 328.844 4.29299 -0.0105996 0
M  V30 3325 C 328.077 5.26923 0.84781 0
M  V30 3326 O 328.3 5.30859 2.08673 0
M  V30 3327 O 327.234 6.01249 0.279969 0
M  V30 3328 H 331.06 2.91065 -0.866892 0
M  V30 3329 H 328.645 1.4117 -0.48902 0
M  V30 3330 H 330.527 3.99804 1.33171 0
M  V30 3331 H 329.202 2.82739 1.57608 0
M  V30 3332 H 328.109 3.69703 -0.571877 0
M  V30 3333 H 329.442 4.86712 -0.73295 0
M  V30 3334 N 331.094 0.475555 1.50254 0
M  V30 3335 C 332.324 -0.0753399 2.06463 0
M  V30 3336 C 332.732 -1.33661 1.33908 0
M  V30 3337 O 332.075 -1.79219 0.403257 0
M  V30 3338 C 332.137 -0.424921 3.5698 0
M  V30 3339 C 331.801 0.734965 4.51051 0
M  V30 3340 C 332.798 1.61827 4.94073 0
M  V30 3341 C 330.483 0.926557 4.9368 0
M  V30 3342 C 332.477 2.67754 5.78434 0
M  V30 3343 C 330.164 1.98904 5.77824 0
M  V30 3344 C 331.162 2.8629 6.20103 0
M  V30 3345 O 330.85 3.90708 7.02568 0
M  V30 3346 H 330.582 0.00576308 0.675975 0
M  V30 3347 H 333.136 0.664662 1.94349 0
M  V30 3348 H 331.366 -1.21817 3.67012 0
M  V30 3349 H 333.055 -0.911422 3.95535 0
M  V30 3350 H 333.821 1.48196 4.61804 0
M  V30 3351 H 329.7 0.25584 4.6029 0
M  V30 3352 H 333.244 3.35992 6.11355 0
M  V30 3353 H 329.141 2.12541 6.09505 0
M  V30 3354 H 329.909 3.87751 7.20827 0
M  V30 3355 N 332.573 -1.56217 0.208337 0
M  V30 3356 C 333.798 -2.02782 -0.435222 0
M  V30 3357 C 334.223 -1.08738 -1.53485 0
M  V30 3358 O 333.581 -0.0731855 -1.81152 0
M  V30 3359 C 333.629 -3.47687 -0.956335 0
M  V30 3360 O 332.733 -3.56773 -2.06849 0
M  V30 3361 H 332.074 -0.656403 -0.100158 0
M  V30 3362 H 334.604 -2.02033 0.3231 0
M  V30 3363 H 334.614 -3.87745 -1.26955 0
M  V30 3364 H 333.289 -4.15624 -0.15143 0
M  V30 3365 H 331.866 -3.28597 -1.76292 0
M  V30 3366 N 334.051 0.0651679 -1.57465 0
M  V30 3367 C 335.014 1.06117 -2.03155 0
M  V30 3368 C 336.014 1.31204 -0.929632 0
M  V30 3369 O 337.204 1.26813 -1.19432 0
M  V30 3370 C 334.336 2.4032 -2.41783 0
M  V30 3371 H 335.529 0.667231 -2.92383 0
M  V30 3372 H 333.082 0.311075 -1.53173 0
M  V30 3373 H 333.817 2.84532 -1.55601 0
M  V30 3374 H 333.602 2.23451 -3.22199 0
M  V30 3375 H 335.092 3.11898 -2.77685 0
M  V30 3376 N 335.529 1.53961 0.336706 0
M  V30 3377 C 336.459 1.85417 1.41925 0
M  V30 3378 C 337.44 0.709856 1.5458 0
M  V30 3379 O 338.625 0.962396 1.68676 0
M  V30 3380 C 335.755 2.06985 2.78881 0
M  V30 3381 C 334.709 3.22813 2.81026 0
M  V30 3382 C 334.035 3.29727 4.20932 0
M  V30 3383 C 335.335 4.60767 2.45949 0
M  V30 3384 H 337.029 2.76079 1.15848 0
M  V30 3385 H 334.575 1.32839 0.555859 0
M  V30 3386 H 336.528 2.27575 3.54665 0
M  V30 3387 H 335.252 1.13061 3.06406 0
M  V30 3388 H 333.911 3.0209 2.07695 0
M  V30 3389 H 333.559 2.33385 4.45579 0
M  V30 3390 H 333.259 4.07566 4.23277 0
M  V30 3391 H 334.783 3.52536 4.98549 0
M  V30 3392 H 336.197 4.81325 3.11446 0
M  V30 3393 H 334.594 5.4106 2.59566 0
M  V30 3394 H 335.664 4.6391 1.41122 0
M  V30 3395 N 337.007 -0.598083 1.45811 0
M  V30 3396 C 337.94 -1.7223 1.49706 0
M  V30 3397 C 338.918 -1.58732 0.352535 0
M  V30 3398 O 340.102 -1.80162 0.554438 0
M  V30 3399 C 337.229 -3.10148 1.3611 0
M  V30 3400 C 336.275 -3.42209 2.54549 0
M  V30 3401 S 337.108 -3.35989 4.16979 0
M  V30 3402 C 338.264 -4.76471 4.05865 0
M  V30 3403 H 338.497 -1.68665 2.44826 0
M  V30 3404 H 336.03 -0.775541 1.33509 0
M  V30 3405 H 337.988 -3.8972 1.28953 0
M  V30 3406 H 336.649 -3.11219 0.424451 0
M  V30 3407 H 335.842 -4.42652 2.40988 0
M  V30 3408 H 335.444 -2.70173 2.58617 0
M  V30 3409 H 337.736 -5.665 3.71596 0
M  V30 3410 H 338.679 -4.95089 5.06253 0
M  V30 3411 H 339.087 -4.52599 3.37364 0
M  V30 3412 N 338.485 -1.33259 -0.841409 0
M  V30 3413 C 339.71 -1.2775 -1.63385 0
M  V30 3414 C 340.135 0.149188 -1.87507 0
M  V30 3415 O 339.493 1.10498 -1.43736 0
M  V30 3416 C 339.541 -2.05571 -2.96265 0
M  V30 3417 O 338.645 -1.41257 -3.87453 0
M  V30 3418 H 337.986 -0.439627 -0.497618 0
M  V30 3419 H 340.516 -1.75782 -1.04699 0
M  V30 3420 H 340.526 -2.16241 -3.45982 0
M  V30 3421 H 339.201 -3.09309 -2.7803 0
M  V30 3422 H 337.778 -1.39217 -3.45938 0
M  V30 3423 N 339.963 1.05934 -1.16686 0
M  V30 3424 C 340.91 2.13499 -0.876748 0
M  V30 3425 C 341.88 1.65162 0.176299 0
M  V30 3426 O 343.065 1.90757 0.0407143 0
M  V30 3427 C 340.205 3.42912 -0.387967 0
M  V30 3428 C 339.318 4.04964 -1.50426 0
M  V30 3429 C 338.453 5.22266 -0.970125 0
M  V30 3430 C 337.492 5.76309 -2.06238 0
M  V30 3431 N 336.629 6.84922 -1.54356 0
M  V30 3432 H 341.469 2.37654 -1.7979 0
M  V30 3433 H 339.006 1.16598 -0.896843 0
M  V30 3434 H 340.964 4.17111 -0.086186 0
M  V30 3435 H 339.594 3.18963 0.496235 0
M  V30 3436 H 338.646 3.28277 -1.92193 0
M  V30 3437 H 339.958 4.41122 -2.32836 0
M  V30 3438 H 339.112 6.03506 -0.621743 0
M  V30 3439 H 337.851 4.87564 -0.115377 0
M  V30 3440 H 336.856 4.93704 -2.41942 0
M  V30 3441 H 338.081 6.13062 -2.92115 0
M  V30 3442 H 336.027 6.52131 -0.711406 0
M  V30 3443 H 335.944 7.20043 -2.30379 0
M  V30 3444 H 337.212 7.69832 -1.22387 0
M  V30 3445 N 341.441 0.965919 1.2453 0
M  V30 3446 C 342.687 0.62776 1.92839 0
M  V30 3447 C 343.02 -0.834694 1.75347 0
M  V30 3448 O 342.295 -1.60031 1.10546 0
M  V30 3449 C 342.578 1.00109 3.45905 0
M  V30 3450 C 342.431 2.52011 3.72573 0
M  V30 3451 C 343.75 0.53435 4.36844 0
M  V30 3452 H 340.869 0.229537 0.700344 0
M  V30 3453 H 343.511 1.2046 1.46933 0
M  V30 3454 H 341.661 0.510238 3.85135 0
M  V30 3455 H 343.333 3.08559 3.42912 0
M  V30 3456 H 341.576 2.95287 3.17786 0
M  V30 3457 H 342.247 2.73183 4.79661 0
M  V30 3458 H 344.723 0.955565 4.04979 0
M  V30 3459 H 343.599 0.824152 5.42678 0
M  V30 3460 H 343.86 -0.565589 4.38467 0
M  V30 3461 N 342.919 -1.39368 0.735821 0
M  V30 3462 C 344.165 -2.00794 0.284544 0
M  V30 3463 C 344.498 -1.58255 -1.12557 0
M  V30 3464 O 343.773 -0.811819 -1.76748 0
M  V30 3465 C 344.056 -3.58011 0.387337 0
M  V30 3466 C 343.909 -4.10566 1.83728 0
M  V30 3467 C 345.228 -4.395 -0.22975 0
M  V30 3468 H 342.347 -0.729501 0.104866 0
M  V30 3469 H 344.989 -1.65564 0.93213 0
M  V30 3470 H 343.139 -3.88154 -0.164006 0
M  V30 3471 H 344.811 -3.91139 2.44556 0
M  V30 3472 H 343.054 -3.64095 2.35833 0
M  V30 3473 H 343.725 -5.19702 1.86047 0
M  V30 3474 H 346.201 -4.15406 0.240257 0
M  V30 3475 H 345.077 -5.48752 -0.127485 0
M  V30 3476 H 345.338 -4.22062 -1.3159 0
M  V30 3477 N 344.397 -0.483516 -1.5 0
M  V30 3478 C 345.36 0.292965 -2.2732 0
M  V30 3479 C 346.36 0.909499 -1.32608 0
M  V30 3480 O 347.55 0.776745 -1.55924 0
M  V30 3481 C 344.682 1.41854 -3.09984 0
M  V30 3482 H 345.875 -0.385289 -2.97415 0
M  V30 3483 H 343.428 -0.237942 -1.54478 0
M  V30 3484 H 344.163 2.13148 -2.44414 0
M  V30 3485 H 343.948 0.982114 -3.79601 0
M  V30 3486 H 345.438 1.96597 -3.68429 0
M  V30 3487 N 345.875 1.56104 -0.216619 0
M  V30 3488 C 347.152 1.89988 0.465165 0
M  V30 3489 C 347.532 1.13326 1.78102 0
M  V30 3490 O 346.88 0.241033 2.27225 0
M  V30 3491 C 347.09 3.42646 0.662939 0
M  V30 3492 C 348.438 4.13311 0.972602 0
M  V30 3493 O 349.462 3.48217 0.749901 0
M  V30 3494 O 348.321 5.28396 1.39499 0
M  V30 3495 H 345.415 0.78979 0.245276 0
M  V30 3496 H 347.961 1.67721 -0.258436 0
M  V30 3497 H 346.733 3.90399 -0.26543 0
M  V30 3498 H 346.356 3.70677 1.43821 0
M  V30 3499 N 347.353 -0.0568162 1.57498 0
M  V30 3500 C 348.601 -0.751617 1.87604 0
M  V30 3501 C 348.922 -1.77351 0.81066 0
M  V30 3502 O 348.192 -1.95254 -0.159018 0
M  V30 3503 H 346.772 -0.280583 0.692302 0
M  V30 3504 H 349.434 -0.0293483 1.94878 0
M  V30 3505 H 348.53 -1.25852 2.856 0
M  V30 3506 N 348.832 -1.54138 -0.328536 0
M  V30 3507 C 350.06 -1.76062 -1.08673 0
M  V30 3508 C 350.475 -0.506852 -1.81869 0
M  V30 3509 O 349.832 0.522223 -1.74869 0
M  V30 3510 C 349.883 -2.95054 -2.08866 0
M  V30 3511 O 349.604 -4.15583 -1.38644 0
M  V30 3512 C 351.105 -3.2915 -2.96943 0
M  V30 3513 H 348.325 -0.587889 -0.323461 0
M  V30 3514 H 350.869 -2.0101 -0.376175 0
M  V30 3515 H 349.024 -2.72394 -2.75464 0
M  V30 3516 H 349.438 -4.82481 -2.05699 0
M  V30 3517 H 350.912 -4.15723 -3.63151 0
M  V30 3518 H 351.389 -2.461 -3.63774 0
M  V30 3519 H 351.995 -3.53871 -2.35914 0
M  V30 3520 N 350.31 0.590341 -1.46126 0
M  V30 3521 C 351.24 1.71032 -1.58966 0
M  V30 3522 C 352.221 1.64302 -0.440335 0
M  V30 3523 O 353.406 1.82436 -0.665634 0
M  V30 3524 C 350.536 3.09665 -1.57241 0
M  V30 3525 C 349.49 3.31221 -2.71066 0
M  V30 3526 C 348.816 4.70303 -2.54399 0
M  V30 3527 C 350.116 3.19796 -4.1295 0
M  V30 3528 H 351.81 1.60543 -2.52718 0
M  V30 3529 H 349.356 0.770933 -1.21625 0
M  V30 3530 H 351.309 3.87831 -1.64819 0
M  V30 3531 H 350.033 3.21036 -0.600289 0
M  V30 3532 H 348.692 2.55452 -2.62944 0
M  V30 3533 H 348.34 4.78429 -1.55288 0
M  V30 3534 H 348.04 4.85679 -3.30741 0
M  V30 3535 H 349.564 5.50647 -2.63857 0
M  V30 3536 H 350.978 3.87815 -4.22223 0
M  V30 3537 H 349.375 3.46696 -4.89818 0
M  V30 3538 H 350.445 2.16983 -4.33643 0
M  V30 3539 N 351.788 1.33704 0.83433 0
M  V30 3540 C 352.735 1.24335 1.94447 0
M  V30 3541 C 353.705 0.120991 1.65659 0
M  V30 3542 O 354.89 0.300035 1.88426 0
M  V30 3543 C 352.03 0.993124 3.30501 0
M  V30 3544 C 351.143 2.20217 3.71657 0
M  V30 3545 C 350.278 1.88572 4.96602 0
M  V30 3546 C 349.317 3.05683 5.30306 0
M  V30 3547 N 348.454 2.73997 6.46429 0
M  V30 3548 H 353.294 2.1928 2.01792 0
M  V30 3549 H 350.831 1.09035 0.987404 0
M  V30 3550 H 352.789 0.828467 4.08892 0
M  V30 3551 H 351.419 0.0803902 3.227 0
M  V30 3552 H 350.471 2.47642 2.88752 0
M  V30 3553 H 351.783 3.07752 3.92543 0
M  V30 3554 H 350.937 1.68776 5.82752 0
M  V30 3555 H 349.676 0.982799 4.77695 0
M  V30 3556 H 348.681 3.26088 4.42659 0
M  V30 3557 H 349.906 3.96737 5.51159 0
M  V30 3558 H 347.852 1.86268 6.28999 0
M  V30 3559 H 347.769 3.55064 6.67432 0
M  V30 3560 H 349.037 2.57679 7.35678 0
M  V30 3561 N 353.266 -1.05314 1.17247 0
M  V30 3562 C 354.512 -1.78557 0.961513 0
M  V30 3563 C 354.845 -1.87419 -0.508697 0
M  V30 3564 O 354.12 -1.37307 -1.37757 0
M  V30 3565 C 354.403 -3.22514 1.60176 0
M  V30 3566 C 354.256 -3.21673 3.14399 0
M  V30 3567 C 355.575 -4.20318 1.30463 0
M  V30 3568 H 352.694 -0.6482 0.350723 0
M  V30 3569 H 355.336 -1.23102 1.44727 0
M  V30 3570 H 353.486 -3.69867 1.18871 0
M  V30 3571 H 355.158 -2.82405 3.64753 0
M  V30 3572 H 353.401 -2.60048 3.47214 0
M  V30 3573 H 354.072 -4.23271 3.54324 0
M  V30 3574 H 356.548 -3.81454 1.66229 0
M  V30 3575 H 355.424 -5.19289 1.77848 0
M  V30 3576 H 355.685 -4.41526 0.22521 0
M  V30 3577 N 354.744 -0.972509 -1.24016 0
M  V30 3578 C 355.691 -0.505969 -2.25186 0
M  V30 3579 C 356.661 0.451009 -1.5986 0
M  V30 3580 O 357.846 0.360307 -1.87367 0
M  V30 3581 C 354.986 0.193089 -3.44559 0
M  V30 3582 C 354.099 -0.803222 -4.24467 0
M  V30 3583 C 353.234 -0.0797793 -5.3114 0
M  V30 3584 C 352.273 -1.06583 -6.02749 0
M  V30 3585 N 351.41 -0.372074 -7.01113 0
M  V30 3586 H 356.25 -1.37351 -2.64459 0
M  V30 3587 H 353.787 -0.688419 -1.29997 0
M  V30 3588 H 355.745 0.615125 -4.1264 0
M  V30 3589 H 354.375 1.02455 -3.06109 0
M  V30 3590 H 353.427 -1.34368 -3.55878 0
M  V30 3591 H 354.739 -1.55494 -4.73944 0
M  V30 3592 H 353.893 0.400015 -6.0538 0
M  V30 3593 H 352.632 0.704597 -4.82583 0
M  V30 3594 H 351.637 -1.55645 -5.27309 0
M  V30 3595 H 352.862 -1.85074 -6.53395 0
M  V30 3596 H 350.808 0.393238 -6.5482 0
M  V30 3597 H 350.725 -1.06258 -7.48495 0
M  V30 3598 H 351.993 0.0855932 -7.79453 0
M  V30 3599 N 356.222 1.38976 -0.743202 0
M  V30 3600 C 357.469 2.00343 -0.294752 0
M  V30 3601 C 357.797 1.58983 1.12047 0
M  V30 3602 O 357.052 0.813809 1.77977 0
M  V30 3603 C 357.351 3.55647 -0.353517 0
M  V30 3604 C 357.017 4.16685 -1.72292 0
M  V30 3605 C 355.679 4.3307 -2.09771 0
M  V30 3606 C 358.031 4.50464 -2.62168 0
M  V30 3607 C 355.359 4.80526 -3.36618 0
M  V30 3608 C 357.711 4.99332 -3.88395 0
M  V30 3609 C 356.375 5.13924 -4.25956 0
M  V30 3610 H 355.645 0.733108 -0.107857 0
M  V30 3611 H 358.292 1.6618 -0.951651 0
M  V30 3612 H 356.597 3.89884 0.386954 0
M  V30 3613 H 358.294 4.00998 0.0117269 0
M  V30 3614 H 354.884 4.04339 -1.42155 0
M  V30 3615 H 359.068 4.37416 -2.3448 0
M  V30 3616 H 354.324 4.90008 -3.65653 0
M  V30 3617 H 358.498 5.2444 -4.58187 0
M  V30 3618 H 356.125 5.50457 -5.2431 0
M  V30 3619 N 357.7 0.491464 1.49741 0
M  V30 3620 C 359.111 0.0413169 1.86654 0
M  V30 3621 C 359.462 -1.36985 1.40462 0
M  V30 3622 O 358.587 -2.01917 0.778354 0
M  V30 3623 C 359.182 0.0682023 3.38731 0
M  V30 3624 C 357.741 -0.32656 3.74981 0
M  V30 3625 C 356.888 0.444888 2.73708 0
M  V30 3626 H 359.839 0.704733 1.42194 0
M  V30 3627 H 359.86 -0.729322 3.73445 0
M  V30 3628 H 359.372 1.09539 3.72321 0
M  V30 3629 H 357.473 -1.35734 3.46997 0
M  V30 3630 H 357.586 -0.013741 4.79098 0
M  V30 3631 H 355.95 -0.104062 2.54487 0
M  V30 3632 H 356.733 1.47197 3.10142 0
M  V30 3633 N 359.178 -1.55987 0.224894 0
M  V30 3634 C 360.427 -1.97566 -0.406273 0
M  V30 3635 C 360.74 -1.11569 -1.6066 0
M  V30 3636 O 361.946 -1.43062 -2.3075 0
M  V30 3637 C 360.402 -3.51474 -0.774207 0
M  V30 3638 C 360.01 -4.46179 0.403496 0
M  V30 3639 C 361.754 -4.01758 -1.37079 0
M  V30 3640 C 359.661 -5.91399 0.0129412 0
M  V30 3641 H 358.591 -0.737777 -0.155565 0
M  V30 3642 H 361.242 -1.80659 0.321635 0
M  V30 3643 H 359.624 -3.63994 -1.55963 0
M  V30 3644 H 360.798 -4.45409 1.18101 0
M  V30 3645 H 359.113 -4.06255 0.913536 0
M  V30 3646 H 361.71 -5.07756 -1.67596 0
M  V30 3647 H 362.053 -3.47805 -2.28773 0
M  V30 3648 H 362.586 -3.92475 -0.648733 0
M  V30 3649 H 359.325 -6.49341 0.896451 0
M  V30 3650 H 358.845 -5.95356 -0.728821 0
M  V30 3651 H 360.524 -6.45683 -0.412582 0
M  V30 3652 N 360.656 0.0484629 -1.57525 0
M  V30 3653 C 361.604 1.07359 -2.06341 0
M  V30 3654 C 362.598 1.3865 -0.973269 0
M  V30 3655 O 363.804 1.37783 -1.15827 0
M  V30 3656 H 360.179 0.363662 -0.65822 0
M  V30 3657 H 362.15 0.635916 -2.91545 0
M  V30 3658 C 360.899 2.37198 -2.54229 0
M  V30 3659 H 360.222 2.13977 -3.37719 0
M  V30 3660 H 361.662 3.07319 -2.92115 0
M  V30 3661 C 360.121 3.04805 -1.43511 0
M  V30 3662 O 360.651 3.93848 -0.79034 0
M  V30 3663 N 358.857 2.65811 -1.17444 0
M  V30 3664 H 358.404 1.93488 -1.70059 0
M  V30 3665 H 358.362 3.11366 -0.435737 0
M  V30 3666 N 362.134 1.5431 0.320358 0
M  V30 3667 C 363.044 1.86946 1.41734 0
M  V30 3668 C 364.06 0.761689 1.56443 0
M  V30 3669 O 365.236 1.05629 1.71477 0
M  V30 3670 C 362.301 2.09293 2.76401 0
M  V30 3671 C 361.362 3.33082 2.70841 0
M  V30 3672 C 360.595 3.54353 3.99086 0
M  V30 3673 O 360.818 2.79002 4.97508 0
M  V30 3674 O 359.752 4.47838 4.0215 0
M  V30 3675 H 363.578 2.80232 1.17062 0
M  V30 3676 H 361.163 1.40255 0.514673 0
M  V30 3677 H 363.045 2.25303 3.56113 0
M  V30 3678 H 361.72 1.19194 3.00956 0
M  V30 3679 H 360.627 3.22454 1.89668 0
M  V30 3680 H 361.96 4.23249 2.5124 0
M  V30 3681 N 363.613 -0.582584 1.46437 0
M  V30 3682 C 365.024 -1.1647 1.45916 0
M  V30 3683 C 365.375 -1.95177 0.200077 0
M  V30 3684 O 364.5 -2.04874 -0.696819 0
M  V30 3685 C 365.095 -2.11885 2.64367 0
M  V30 3686 C 363.654 -2.65421 2.66887 0
M  V30 3687 C 362.801 -1.41294 2.38603 0
M  V30 3688 H 365.752 -0.370514 1.54314 0
M  V30 3689 H 365.773 -2.9535 2.39892 0
M  V30 3690 H 365.285 -1.54573 3.5599 0
M  V30 3691 H 363.386 -3.26602 1.79338 0
M  V30 3692 H 363.499 -3.08147 3.66854 0
M  V30 3693 H 361.863 -1.71109 1.88663 0
M  V30 3694 H 362.646 -0.858125 3.32402 0
M  V30 3695 N 365.091 -1.34144 -0.827227 0
M  V30 3696 C 366.054 -1.25264 -1.91942 0
M  V30 3697 C 367.054 -0.168866 -1.59911 0
M  V30 3698 O 368.244 -0.421198 -1.69031 0
M  V30 3699 C 365.376 -0.932952 -3.27885 0
M  V30 3700 H 366.569 -2.22357 -2.0124 0
M  V30 3701 H 364.122 -1.1837 -1.0207 0
M  V30 3702 H 364.857 0.0349917 -3.24281 0
M  V30 3703 H 364.642 -1.71682 -3.52516 0
M  V30 3704 H 366.132 -0.895874 -4.07877 0
M  V30 3705 N 366.569 1.04691 -1.17803 0
M  V30 3706 C 367.499 2.14494 -0.92275 0
M  V30 3707 C 368.48 1.69546 0.137179 0
M  V30 3708 O 369.665 1.94195 -0.0141108 0
M  V30 3709 C 366.795 3.44491 -0.440803 0
M  V30 3710 C 365.749 4.03031 -1.4405 0
M  V30 3711 C 365.075 5.28432 -0.81631 0
M  V30 3712 C 366.375 4.39932 -2.81527 0
M  V30 3713 H 368.069 2.36107 -1.84103 0
M  V30 3714 H 365.615 1.1347 -0.886599 0
M  V30 3715 H 367.568 4.2066 -0.249602 0
M  V30 3716 H 366.292 3.22546 0.513025 0
M  V30 3717 H 364.951 3.28937 -1.61853 0
M  V30 3718 H 364.599 5.02792 0.144511 0
M  V30 3719 H 364.299 5.68559 -1.48371 0
M  V30 3720 H 365.823 6.07284 -0.635496 0
M  V30 3721 H 367.237 5.07113 -2.67412 0
M  V30 3722 H 365.634 4.9109 -3.44892 0
M  V30 3723 H 366.704 3.50045 -3.35554 0
M  V30 3724 N 368.047 0.979072 1.23499 0
M  V30 3725 C 369.01 0.523244 2.23147 0
M  V30 3726 C 370.01 -0.386406 1.56088 0
M  V30 3727 O 371.2 -0.180283 1.73265 0
M  V30 3728 C 368.332 -0.240739 3.40049 0
M  V30 3729 H 369.525 1.40432 2.64989 0
M  V30 3730 H 367.078 0.764824 1.36309 0
M  V30 3731 H 367.813 -1.13841 3.03662 0
M  V30 3732 H 367.598 0.412207 3.89927 0
M  V30 3733 H 369.088 -0.548297 4.13985 0
M  V30 3734 N 369.525 -1.3858 0.750561 0
M  V30 3735 C 370.472 -2.30483 0.120835 0
M  V30 3736 C 371.442 -1.50022 -0.712923 0
M  V30 3737 O 372.627 -1.78662 -0.669676 0
M  V30 3738 C 369.767 -3.36431 -0.768666 0
M  V30 3739 C 368.88 -4.31927 0.0793922 0
M  V30 3740 C 368.015 -5.24944 -0.81283 0
M  V30 3741 C 367.054 -6.12088 0.0390447 0
M  V30 3742 N 366.191 -6.97412 -0.809969 0
M  V30 3743 H 371.031 -2.83761 0.91015 0
M  V30 3744 H 368.568 -1.39707 0.460463 0
M  V30 3745 H 370.526 -3.96462 -1.29898 0
M  V30 3746 H 369.156 -2.8457 -1.5238 0
M  V30 3747 H 368.208 -3.73382 0.727303 0
M  V30 3748 H 369.52 -4.93319 0.737401 0
M  V30 3749 H 368.674 -5.90078 -1.41042 0
M  V30 3750 H 367.413 -4.63911 -1.50458 0
M  V30 3751 H 366.418 -5.45952 0.649328 0
M  V30 3752 H 367.643 -6.75189 0.727809 0
M  V30 3753 H 365.589 -6.38931 -1.48672 0
M  V30 3754 H 365.506 -7.55712 -0.208789 0
M  V30 3755 H 366.774 -7.66959 -1.39263 0
M  V30 3756 N 371.003 -0.499398 -1.49478 0
M  V30 3757 C 371.95 0.279881 -2.29097 0
M  V30 3758 C 372.92 0.961805 -1.3542 0
M  V30 3759 O 374.105 0.968777 -1.64376 0
M  V30 3760 C 371.245 1.33932 -3.18051 0
M  V30 3761 C 370.358 0.669333 -4.26783 0
M  V30 3762 C 369.493 1.70907 -5.02955 0
M  V30 3763 C 368.532 1.02087 -6.03527 0
M  V30 3764 N 367.669 2.00474 -6.7287 0
M  V30 3765 H 372.509 -0.405317 -2.95231 0
M  V30 3766 H 370.046 -0.211726 -1.45568 0
M  V30 3767 H 372.004 1.96553 -3.67998 0
M  V30 3768 H 370.634 1.9933 -2.53904 0
M  V30 3769 H 369.686 -0.0701234 -3.80335 0
M  V30 3770 H 370.998 0.127503 -4.98637 0
M  V30 3771 H 370.152 2.41037 -5.56764 0
M  V30 3772 H 368.891 2.28476 -4.30871 0
M  V30 3773 H 367.896 0.305338 -5.48951 0
M  V30 3774 H 369.121 0.451708 -6.77596 0
M  V30 3775 H 367.067 2.57007 -6.03559 0
M  V30 3776 H 366.984 1.51353 -7.40694 0
M  V30 3777 H 368.252 2.69897 -7.31284 0
M  V30 3778 N 372.481 1.55866 -0.233164 0
M  V30 3779 C 373.428 2.20796 0.67215 0
M  V30 3780 C 374.398 1.16731 1.18166 0
M  V30 3781 O 375.583 1.45129 1.23864 0
M  V30 3782 C 372.723 2.90072 1.86955 0
M  V30 3783 C 371.836 4.08759 1.39786 0
M  V30 3784 C 370.971 4.65787 2.55374 0
M  V30 3785 C 370.01 5.76752 2.04998 0
M  V30 3786 N 369.147 6.28021 3.13901 0
M  V30 3787 H 373.987 2.9779 0.111749 0
M  V30 3788 H 371.524 1.47036 0.0434007 0
M  V30 3789 H 373.482 3.28428 2.57276 0
M  V30 3790 H 372.112 2.15575 2.40265 0
M  V30 3791 H 371.164 3.7581 0.589173 0
M  V30 3792 H 372.476 4.88906 0.98856 0
M  V30 3793 H 371.63 5.06646 3.33758 0
M  V30 3794 H 370.369 3.84828 2.99598 0
M  V30 3795 H 369.374 5.35383 1.25079 0
M  V30 3796 H 370.599 6.59553 1.61759 0
M  V30 3797 H 368.545 5.49971 3.57586 0
M  V30 3798 H 368.462 7.03323 2.7726 0
M  V30 3799 H 369.73 6.73538 3.92386 0
M  V30 3800 N 373.959 -0.0401083 1.57549 0
M  V30 3801 C 375.184 -0.748931 1.93406 0
M  V30 3802 C 375.609 -1.68686 0.832274 0
M  V30 3803 O 374.967 -1.80047 -0.212818 0
M  V30 3804 C 375.015 -1.4916 3.28304 0
M  V30 3805 O 374.119 -2.6042 3.19774 0
M  V30 3806 H 373.46 -0.202212 0.63246 0
M  V30 3807 H 375.99 0.00112086 2.046 0
M  V30 3808 H 376 -1.86395 3.62934 0
M  V30 3809 H 374.675 -0.80364 4.08062 0
M  V30 3810 H 373.252 -2.25808 2.96758 0
M  V30 3811 N 375.437 -1.54477 -0.31217 0
M  V30 3812 C 376.369 -1.81011 -1.40598 0
M  V30 3813 C 377.382 -0.692546 -1.47335 0
M  V30 3814 O 378.571 -0.969847 -1.49854 0
M  V30 3815 C 375.671 -1.92307 -2.79054 0
M  V30 3816 C 374.844 -3.22594 -2.95384 0
M  V30 3817 C 373.903 -3.24448 -4.1427 0
M  V30 3818 O 372.929 -3.98035 -4.06887 0
M  V30 3819 N 374.131 -2.49042 -5.24365 0
M  V30 3820 H 376.896 -2.75408 -1.18196 0
M  V30 3821 H 374.457 -1.53914 -0.502202 0
M  V30 3822 H 376.449 -1.90962 -3.56813 0
M  V30 3823 H 375.019 -1.04955 -2.94454 0
M  V30 3824 H 374.239 -3.36806 -2.04831 0
M  V30 3825 H 375.527 -4.08593 -3.03198 0
M  V30 3826 H 374.925 -1.88867 -5.33241 0
M  V30 3827 H 373.482 -2.53463 -6.005 0
M  V30 3828 N 376.915 0.57481 -1.46744 0
M  V30 3829 C 378.164 1.32898 -1.51727 0
M  V30 3830 C 378.477 1.948 -0.176692 0
M  V30 3831 O 379.683 2.71299 -0.104385 0
M  V30 3832 C 378.139 2.40901 -2.67385 0
M  V30 3833 C 377.747 1.85266 -4.07898 0
M  V30 3834 C 379.491 3.17609 -2.81646 0
M  V30 3835 C 377.398 2.90945 -5.14883 0
M  V30 3836 H 376.328 0.499631 -0.564699 0
M  V30 3837 H 378.979 0.612536 -1.72975 0
M  V30 3838 H 377.361 3.15379 -2.39483 0
M  V30 3839 H 378.535 1.17278 -4.45626 0
M  V30 3840 H 376.85 1.21199 -3.98371 0
M  V30 3841 H 379.447 3.96493 -3.58744 0
M  V30 3842 H 379.79 3.70696 -1.89448 0
M  V30 3843 H 380.323 2.50239 -3.09233 0
M  V30 3844 H 377.062 2.42736 -6.089 0
M  V30 3845 H 376.582 3.57398 -4.81691 0
M  V30 3846 H 378.261 3.54755 -5.41071 0
M  V30 3847 N 378.394 1.34581 0.820102 0
M  V30 3848 C 379.671 1.17675 1.56244 0
M  V30 3849 C 380.051 -0.249541 2.0962 0
M  V30 3850 O 379.399 -1.25125 1.91196 0
M  V30 3851 C 379.609 2.23364 2.6816 0
M  V30 3852 C 380.957 2.58485 3.36854 0
M  V30 3853 O 381.981 2.22175 2.78418 0
M  V30 3854 O 380.84 3.20868 4.42386 0
M  V30 3855 H 377.934 0.456333 0.689702 0
M  V30 3856 H 380.48 1.46222 0.861231 0
M  V30 3857 H 379.252 3.19087 2.26493 0
M  V30 3858 H 378.875 1.96009 3.45928 0
M  V30 3859 N 379.872 -1.04064 1.18357 0
M  V30 3860 C 380.782 -2.15569 0.925596 0
M  V30 3861 C 381.798 -1.7365 -0.110295 0
M  V30 3862 O 382.974 -2.01273 0.0716218 0
M  V30 3863 C 380.039 -3.43704 0.454836 0
M  V30 3864 C 379.1 -4.00004 1.55869 0
M  V30 3865 C 378.333 -5.22023 1.1103 0
M  V30 3866 O 378.556 -5.70392 -0.0309756 0
M  V30 3867 O 377.49 -5.70856 1.90805 0
M  V30 3868 H 381.316 -2.40187 1.8586 0
M  V30 3869 H 378.901 -1.1402 0.965394 0
M  V30 3870 H 380.783 -4.20923 0.200382 0
M  V30 3871 H 379.458 -3.20559 -0.449876 0
M  V30 3872 H 378.365 -3.24172 1.86716 0
M  V30 3873 H 379.698 -4.2749 2.43953 0
M  V30 3874 N 381.35 -0.985608 -1.22978 0
M  V30 3875 C 382.58 -0.674603 -1.95276 0
M  V30 3876 C 382.988 0.763483 -1.73111 0
M  V30 3877 O 382.331 1.52601 -1.02268 0
M  V30 3878 C 382.393 -0.891597 -3.48268 0
M  V30 3879 C 382.057 -2.31275 -3.94158 0
M  V30 3880 C 383.054 -3.29179 -4.02415 0
M  V30 3881 C 380.739 -2.64524 -4.27004 0
M  V30 3882 C 382.733 -4.58407 -4.42879 0
M  V30 3883 C 380.42 -3.93974 -4.67149 0
M  V30 3884 C 381.418 -4.90727 -4.75053 0
M  V30 3885 O 381.106 -6.17865 -5.14294 0
M  V30 3886 H 380.838 -0.249251 -0.628371 0
M  V30 3887 H 383.392 -1.32106 -1.5728 0
M  V30 3888 H 381.622 -0.187962 -3.86243 0
M  V30 3889 H 383.311 -0.576957 -4.01779 0
M  V30 3890 H 384.077 -3.04823 -3.77237 0
M  V30 3891 H 379.956 -1.89923 -4.2006 0
M  V30 3892 H 383.5 -5.33926 -4.48964 0
M  V30 3893 H 379.397 -4.18122 -4.91777 0
M  V30 3894 H 380.165 -6.21694 -5.32389 0
M  V30 3895 N 382.828 1.3818 -0.7579 0
M  V30 3896 C 383.758 2.33027 -0.148597 0
M  V30 3897 C 384.739 1.55085 0.69875 0
M  V30 3898 O 385.924 1.83384 0.639053 0
M  V30 3899 C 383.054 3.3928 0.742034 0
M  V30 3900 C 382.008 4.28 -0.00291946 0
M  V30 3901 C 381.334 5.25146 1.00625 0
M  V30 3902 C 382.634 5.08938 -1.17385 0
M  V30 3903 H 384.328 2.84231 -0.940909 0
M  V30 3904 H 381.874 1.36659 -0.453908 0
M  V30 3905 H 383.827 4.046 1.17799 0
M  V30 3906 H 382.551 2.86569 1.56671 0
M  V30 3907 H 381.21 3.64192 -0.419504 0
M  V30 3908 H 380.858 4.68721 1.8251 0
M  V30 3909 H 380.558 5.85361 0.512428 0
M  V30 3910 H 382.082 5.93342 1.44143 0
M  V30 3911 H 383.496 5.67474 -0.815224 0
M  V30 3912 H 381.893 5.7841 -1.59882 0
M  V30 3913 H 382.963 4.42424 -1.98468 0
M  V30 3914 N 384.306 0.507319 1.49211 0
M  V30 3915 C 385.216 -0.272136 2.33016 0
M  V30 3916 C 386.232 -0.961206 1.45041 0
M  V30 3917 O 387.408 -0.941191 1.78055 0
M  V30 3918 C 384.473 -1.31895 3.20631 0
M  V30 3919 C 383.534 -0.642648 4.24463 0
M  V30 3920 C 382.767 -1.63959 5.07891 0
M  V30 3921 O 382.99 -2.87007 4.92933 0
M  V30 3922 O 381.924 -1.19143 5.8999 0
M  V30 3923 H 385.75 0.413982 3.00865 0
M  V30 3924 H 383.335 0.268556 1.46966 0
M  V30 3925 H 385.217 -1.92446 3.7489 0
M  V30 3926 H 383.892 -1.98788 2.5547 0
M  V30 3927 H 382.799 0.00276252 3.741 0
M  V30 3928 H 384.132 -0.0160534 4.92197 0
M  V30 3929 N 385.784 -1.5574 0.241426 0
M  V30 3930 C 387.031 -1.9881 -0.384836 0
M  V30 3931 C 387.359 -1.12947 -1.58346 0
M  V30 3932 O 386.614 -0.178993 -1.9488 0
M  V30 3933 C 386.913 -3.47308 -0.843317 0
M  V30 3934 C 386.579 -4.50223 0.246946 0
M  V30 3935 C 385.241 -4.78088 0.546399 0
M  V30 3936 C 387.593 -5.11841 0.983282 0
M  V30 3937 C 384.921 -5.64846 1.58636 0
M  V30 3938 C 387.273 -5.99727 2.01272 0
M  V30 3939 C 385.937 -6.25927 2.31888 0
M  V30 3940 H 385.207 -0.727496 -0.140821 0
M  V30 3941 H 387.854 -1.8831 0.348106 0
M  V30 3942 H 386.159 -3.55112 -1.65537 0
M  V30 3943 H 387.856 -3.78017 -1.33806 0
M  V30 3944 H 384.446 -4.286 0.00340639 0
M  V30 3945 H 388.63 -4.90366 0.765182 0
M  V30 3946 H 383.886 -5.83403 1.82896 0
M  V30 3947 H 388.06 -6.46517 2.58823 0
M  V30 3948 H 385.687 -6.92949 3.12611 0
M  V30 3949 N 387.262 0.0317525 -1.57568 0
M  V30 3950 C 388.492 0.733884 -1.93126 0
M  V30 3951 C 388.9 1.69563 -0.839352 0
M  V30 3952 O 388.243 1.82681 0.193175 0
M  V30 3953 C 388.305 1.54798 -3.24465 0
M  V30 3954 C 387.969 0.751304 -4.50782 0
M  V30 3955 C 388.966 0.0527632 -5.19873 0
M  V30 3956 C 386.651 0.706639 -4.97305 0
M  V30 3957 C 388.645 -0.679774 -6.33765 0
M  V30 3958 C 386.332 -0.0296449 -6.11093 0
M  V30 3959 C 387.33 -0.721614 -6.79177 0
M  V30 3960 O 387.018 -1.44595 -7.90789 0
M  V30 3961 H 386.75 0.211459 -0.642076 0
M  V30 3962 H 389.304 -0.00585615 -2.05399 0
M  V30 3963 H 387.534 2.33147 -3.08512 0
M  V30 3964 H 389.223 2.13247 -3.4537 0
M  V30 3965 H 389.989 0.0783188 -4.84937 0
M  V30 3966 H 385.868 1.23474 -4.44157 0
M  V30 3967 H 389.412 -1.22042 -6.86842 0
M  V30 3968 H 385.309 -0.0571331 -6.45475 0
M  V30 3969 H 386.077 -1.35935 -8.07133 0
M  V30 3970 N 388.74 1.54641 0.303973 0
M  V30 3971 C 389.988 1.73437 1.0375 0
M  V30 3972 C 390.309 0.521449 1.87899 0
M  V30 3973 O 389.579 -0.46432 1.90318 0
M  V30 3974 H 388.159 0.639518 0.386039 0
M  V30 3975 H 390.821 1.91988 0.335675 0
M  V30 3976 H 389.917 2.62235 1.69231 0
M  V30 3977 N 390.218 -0.567019 1.47046 0
M  V30 3978 C 391.466 -1.322 1.52864 0
M  V30 3979 C 391.787 -1.94088 0.188388 0
M  V30 3980 O 391.057 -1.7941 -0.786693 0
M  V30 3981 H 389.637 -0.490894 0.563056 0
M  V30 3982 H 392.299 -0.662879 1.83281 0
M  V30 3983 H 391.395 -2.12062 2.2899 0
M  V30 3984 N 391.696 -1.35014 -0.812953 0
M  V30 3985 C 392.659 -1.27292 -1.90602 0
M  V30 3986 C 393.659 -0.185817 -1.59723 0
M  V30 3987 O 394.849 -0.439102 -1.68575 0
M  V30 3988 C 391.981 -0.967676 -3.26877 0
M  V30 3989 H 393.174 -2.24479 -1.9887 0
M  V30 3990 H 390.727 -1.19446 -1.00808 0
M  V30 3991 H 391.462 0.0005954 -3.243 0
M  V30 3992 H 391.247 -1.75412 -3.50675 0
M  V30 3993 H 392.737 -0.939085 -4.06904 0
M  V30 3994 N 393.175 1.03435 -1.18907 0
M  V30 3995 C 394.423 1.76394 -0.986382 0
M  V30 3996 C 394.744 1.88883 0.484567 0
M  V30 3997 O 394.014 1.41843 1.3512 0
M  V30 3998 H 392.594 0.65344 -0.361975 0
M  V30 3999 H 395.256 1.248 -1.49703 0
M  V30 4000 H 394.352 2.77424 -1.42978 0
M  V30 4001 N 394.653 0.992116 1.22453 0
M  V30 4002 C 395.899 0.668523 1.91464 0
M  V30 4003 C 396.232 -0.797313 1.77078 0
M  V30 4004 O 395.507 -1.5765 1.13916 0
M  V30 4005 C 395.79 1.07424 3.43703 0
M  V30 4006 C 395.643 2.59857 3.67143 0
M  V30 4007 C 396.962 0.626891 4.35612 0
M  V30 4008 H 394.081 0.244341 0.695318 0
M  V30 4009 H 396.723 1.2355 1.44345 0
M  V30 4010 H 394.873 0.591816 3.83966 0
M  V30 4011 H 396.545 3.15764 3.3629 0
M  V30 4012 H 394.788 3.01961 3.11451 0
M  V30 4013 H 395.459 2.83296 4.73759 0
M  V30 4014 H 397.935 1.04125 4.02861 0
M  V30 4015 H 396.811 0.939076 5.40807 0
M  V30 4016 H 397.072 -0.472457 4.39568 0
M  V30 4017 N 396.131 -1.37776 0.765217 0
M  V30 4018 C 397.063 -2.28958 0.105361 0
M  V30 4019 C 398.076 -1.48316 -0.67128 0
M  V30 4020 O 399.265 -1.71046 -0.51045 0
M  V30 4021 C 396.365 -3.27421 -0.874569 0
M  V30 4022 C 395.538 -4.37132 -0.153123 0
M  V30 4023 C 394.597 -5.1571 -1.04547 0
M  V30 4024 O 393.623 -5.66896 -0.511672 0
M  V30 4025 N 394.825 -5.29808 -2.37243 0
M  V30 4026 H 397.59 -2.86227 0.888495 0
M  V30 4027 H 395.151 -1.49682 0.617 0
M  V30 4028 H 397.143 -3.7687 -1.47483 0
M  V30 4029 H 395.713 -2.70967 -1.55871 0
M  V30 4030 H 394.933 -3.89166 0.627975 0
M  V30 4031 H 396.221 -5.07625 0.345643 0
M  V30 4032 H 395.619 -4.89793 -2.83054 0
M  V30 4033 H 394.176 -5.82589 -2.9229 0
M  V30 4034 N 397.609 -0.515225 -1.4894 0
M  V30 4035 C 398.559 0.275113 -2.26334 0
M  V30 4036 C 399.543 0.923007 -1.31793 0
M  V30 4037 O 400.735 0.828254 -1.56426 0
M  V30 4038 C 397.864 1.33041 -3.16473 0
M  V30 4039 C 396.95 0.688051 -4.18481 0
M  V30 4040 N 397.341 -0.217638 -5.05332 0
M  V30 4041 C 395.639 0.94699 -4.3583 0
M  V30 4042 C 396.34 -0.58676 -5.78733 0
M  V30 4043 N 395.316 0.0486966 -5.43578 0
M  V30 4044 H 399.118 -0.421876 -2.90856 0
M  V30 4045 H 396.632 -0.332249 -1.58965 0
M  V30 4046 H 398.629 1.9102 -3.70563 0
M  V30 4047 H 397.289 2.02894 -2.53504 0
M  V30 4048 H 398.3 -0.589343 -5.14536 0
M  V30 4049 H 394.977 1.63719 -3.8406 0
M  V30 4050 H 396.367 -1.32855 -6.58634 0
M  V30 4051 N 399.087 1.5561 -0.249682 0
M  V30 4052 C 400.336 1.98187 0.37479 0
M  V30 4053 C 400.649 1.14111 1.58865 0
M  V30 4054 O 401.855 1.46714 2.28445 0
M  V30 4055 C 400.311 3.52661 0.718192 0
M  V30 4056 C 399.919 4.45481 -0.474428 0
M  V30 4057 C 401.663 4.03888 1.3067 0
M  V30 4058 C 399.57 5.91303 -0.107026 0
M  V30 4059 H 398.5 0.740159 0.143808 0
M  V30 4060 H 401.151 1.80125 -0.350336 0
M  V30 4061 H 399.533 3.66429 1.50152 0
M  V30 4062 H 400.707 4.43473 -1.25172 0
M  V30 4063 H 399.022 4.04751 -0.978052 0
M  V30 4064 H 401.619 5.10358 1.59496 0
M  V30 4065 H 401.962 3.51401 2.23211 0
M  V30 4066 H 402.495 3.93457 0.586211 0
M  V30 4067 H 399.234 6.47833 -0.999642 0
M  V30 4068 H 398.754 5.9644 0.634013 0
M  V30 4069 H 400.433 6.46258 0.309807 0
M  V30 4070 N 400.565 -0.0233959 1.57583 0
M  V30 4071 C 401.528 -1.00693 2.05897 0
M  V30 4072 C 402.528 -1.28693 0.964092 0
M  V30 4073 O 403.718 -1.23602 1.22753 0
M  V30 4074 C 400.85 -2.33825 2.4807 0
M  V30 4075 H 402.043 -0.589476 2.9405 0
M  V30 4076 H 399.596 -0.270354 1.53944 0
M  V30 4077 H 400.331 -2.80307 1.6309 0
M  V30 4078 H 400.116 -2.1483 3.2801 0
M  V30 4079 H 401.606 -3.04426 2.85857 0
M  V30 4080 N 402.043 -1.548 -0.295768 0
M  V30 4081 C 402.973 -1.89115 -1.36959 0
M  V30 4082 C 403.954 -0.75059 -1.52644 0
M  V30 4083 O 405.139 -1.00678 -1.66065 0
M  V30 4084 C 402.269 -2.14307 -2.73295 0
M  V30 4085 C 401.223 -3.30151 -2.72368 0
M  V30 4086 C 400.549 -3.40772 -4.12042 0
M  V30 4087 C 401.849 -4.67126 -2.33646 0
M  V30 4088 H 403.543 -2.79053 -1.08488 0
M  V30 4089 H 401.089 -1.34266 -0.520443 0
M  V30 4090 H 403.042 -2.36898 -3.48507 0
M  V30 4091 H 401.766 -1.21145 -3.03301 0
M  V30 4092 H 400.425 -3.0749 -1.99613 0
M  V30 4093 H 400.073 -2.45117 -4.39234 0
M  V30 4094 H 399.773 -4.18645 -4.12322 0
M  V30 4095 H 401.297 -3.6563 -4.89027 0
M  V30 4096 H 402.711 -4.89414 -2.98575 0
M  V30 4097 H 401.108 -5.47751 -2.45129 0
M  V30 4098 H 402.178 -4.67489 -1.28772 0
M  V30 4099 N 403.521 0.559213 -1.47345 0
M  V30 4100 C 404.469 1.68747 -1.60085 0
M  V30 4101 C 405.463 1.628 -0.46825 0
M  V30 4102 O 406.669 1.68009 -0.645977 0
M  V30 4103 H 403.044 0.558329 -0.503759 0
M  V30 4104 H 405.015 1.55138 -2.54902 0
M  V30 4105 C 403.764 3.07103 -1.63042 0
M  V30 4106 H 403.087 3.12361 -2.49541 0
M  V30 4107 H 404.527 3.85743 -1.76006 0
M  V30 4108 C 402.986 3.34935 -0.363357 0
M  V30 4109 O 403.516 3.98102 0.536416 0
M  V30 4110 N 401.722 2.89574 -0.244 0
M  V30 4111 H 401.269 2.38348 -0.977133 0
M  V30 4112 H 401.227 3.08566 0.602836 0
M  V30 4113 N 404.999 1.35443 0.805782 0
M  V30 4114 C 406.227 1.31878 1.59423 0
M  V30 4115 C 406.642 -0.103562 1.88516 0
M  V30 4116 O 405.999 -1.05575 1.48863 0
M  V30 4117 C 406.05 2.12426 2.92502 0
M  V30 4118 O 405.771 3.49115 2.6467 0
M  V30 4119 C 407.272 2.16455 3.86862 0
M  V30 4120 H 404.492 0.453002 0.495005 0
M  V30 4121 H 407.036 1.78309 1.00131 0
M  V30 4122 H 405.191 1.69593 3.48306 0
M  V30 4123 H 405.605 3.90957 3.49647 0
M  V30 4124 H 407.079 2.77204 4.77349 0
M  V30 4125 H 407.556 1.16352 4.23508 0
M  V30 4126 H 408.162 2.59453 3.36993 0
M  V30 4127 N 406.477 -1.02803 1.19454 0
M  V30 4128 C 407.725 -1.75869 0.995722 0
M  V30 4129 C 408.046 -1.89138 -0.474543 0
M  V30 4130 O 407.316 -1.42558 -1.34366 0
M  V30 4131 H 405.896 -0.651511 0.365435 0
M  V30 4132 H 408.558 -1.24004 1.50363 0
M  V30 4133 H 407.654 -2.76661 1.44447 0
M  V30 4134 N 407.956 -0.998596 -1.21925 0
M  V30 4135 C 409.233 -0.593401 -1.86382 0
M  V30 4136 C 409.613 0.92916 -1.89552 0
M  V30 4137 O 408.961 1.81347 -1.39017 0
M  V30 4138 C 409.171 -1.22039 -3.26967 0
M  V30 4139 C 410.519 -1.32449 -4.03413 0
M  V30 4140 O 411.543 -1.17522 -3.36254 0
M  V30 4141 O 410.402 -1.56395 -5.23644 0
M  V30 4142 H 407.496 -0.202385 -0.801854 0
M  V30 4143 H 410.042 -1.09484 -1.29659 0
M  V30 4144 H 408.814 -2.26158 -3.19325 0
M  V30 4145 H 408.437 -0.704906 -3.91301 0
M  V30 4146 N 409.434 1.37368 -0.772513 0
M  V30 4147 C 410.683 1.98918 -0.333861 0
M  V30 4148 C 410.996 1.62017 1.09589 0
M  V30 4149 O 412.202 2.16676 1.63596 0
M  V30 4150 C 410.658 3.55735 -0.545971 0
M  V30 4151 C 410.266 4.01573 -1.98603 0
M  V30 4152 C 412.01 4.24156 -0.170979 0
M  V30 4153 C 409.917 5.51102 -2.1457 0
M  V30 4154 H 408.847 0.744214 -0.121085 0
M  V30 4155 H 411.498 1.56888 -0.95175 0
M  V30 4156 H 409.88 3.95748 0.141387 0
M  V30 4157 H 411.054 3.72803 -2.7084 0
M  V30 4158 H 409.369 3.45937 -2.31769 0
M  V30 4159 H 411.966 5.34024 -0.26878 0
M  V30 4160 H 412.309 4.06917 0.878855 0
M  V30 4161 H 412.842 3.89447 -0.810914 0
M  V30 4162 H 409.581 5.73268 -3.17875 0
M  V30 4163 H 409.101 5.81554 -1.46817 0
M  V30 4164 H 410.78 6.17083 -1.94468 0
M  V30 4165 N 410.912 0.523116 1.48665 0
M  V30 4166 C 412.158 -0.0134963 2.02796 0
M  V30 4167 C 412.491 -1.34582 1.40004 0
M  V30 4168 O 411.766 -1.86756 0.543381 0
M  V30 4169 C 412.049 -0.14276 3.59817 0
M  V30 4170 C 411.902 1.21425 4.331 0
M  V30 4171 C 413.221 -0.872856 4.31357 0
M  V30 4172 H 410.34 -0.00343074 0.736992 0
M  V30 4173 H 412.982 0.678816 1.7746 0
M  V30 4174 H 411.132 -0.732401 3.81534 0
M  V30 4175 H 412.804 1.84447 4.2282 0
M  V30 4176 H 411.047 1.79791 3.94788 0
M  V30 4177 H 411.718 1.07687 5.41394 0
M  V30 4178 H 414.194 -0.372555 4.14429 0
M  V30 4179 H 413.07 -0.932185 5.40927 0
M  V30 4180 H 413.331 -1.92161 3.98154 0
M  V30 4181 N 412.39 -1.55475 0.257931 0
M  V30 4182 C 413.3 -2.2549 -0.647425 0
M  V30 4183 C 414.316 -1.2748 -1.18427 0
M  V30 4184 O 415.492 -1.6038 -1.2182 0
M  V30 4185 C 412.557 -2.94916 -1.82278 0
M  V30 4186 C 411.618 -4.08363 -1.32432 0
M  V30 4187 C 410.851 -4.74469 -2.44366 0
M  V30 4188 O 411.074 -4.39701 -3.63344 0
M  V30 4189 O 410.008 -5.62763 -2.13497 0
M  V30 4190 H 413.834 -3.03593 -0.0807707 0
M  V30 4191 H 411.419 -1.49377 0.0259962 0
M  V30 4192 H 413.301 -3.38606 -2.50846 0
M  V30 4193 H 411.976 -2.19744 -2.37685 0
M  V30 4194 H 410.883 -3.69166 -0.605605 0
M  V30 4195 H 412.216 -4.85385 -0.816211 0
M  V30 4196 N 413.868 0.0150385 -1.57593 0
M  V30 4197 C 415.096 0.714395 -1.94175 0
M  V30 4198 C 415.511 1.68135 -0.858841 0
M  V30 4199 O 414.868 1.81766 0.163567 0
M  V30 4200 C 414.919 1.45933 -3.30735 0
M  V30 4201 O 414.64 0.531167 -4.34868 0
M  V30 4202 C 416.141 2.25456 -3.81686 0
M  V30 4203 H 413.361 0.199923 -0.640525 0
M  V30 4204 H 415.905 -0.0316096 -2.04476 0
M  V30 4205 H 414.06 2.15709 -3.21789 0
M  V30 4206 H 414.474 1.05509 -5.13778 0
M  V30 4207 H 415.948 2.731 -4.79709 0
M  V30 4208 H 416.425 3.07485 -3.13607 0
M  V30 4209 H 417.031 1.60727 -3.9376 0
M  V30 4210 N 415.346 1.54954 0.287554 0
M  V30 4211 C 416.592 1.75132 1.02257 0
M  V30 4212 C 416.925 0.542858 1.86458 0
M  V30 4213 O 416.2 -0.459856 1.88986 0
M  V30 4214 C 416.483 3.04812 1.91733 0
M  V30 4215 C 416.336 4.35985 1.10622 0
M  V30 4216 C 417.655 3.30438 2.90687 0
M  V30 4217 H 414.774 0.637194 0.370341 0
M  V30 4218 H 417.416 1.87678 0.296111 0
M  V30 4219 H 415.566 2.94247 2.53675 0
M  V30 4220 H 417.238 4.58487 0.508636 0
M  V30 4221 H 415.481 4.31865 0.409271 0
M  V30 4222 H 416.152 5.23017 1.76513 0
M  V30 4223 H 418.628 3.40701 2.38877 0
M  V30 4224 H 417.504 4.22467 3.50447 0
M  V30 4225 H 417.765 2.49377 3.65053 0
M  V30 4226 N 416.824 -0.551391 1.4764 0
M  V30 4227 C 418.24 -0.877887 1.33287 0
M  V30 4228 C 418.44 -1.98817 0.327721 0
M  V30 4229 O 417.496 -2.51171 -0.258695 0
M  V30 4230 C 418.809 -1.26563 2.72768 0
M  V30 4231 C 420.357 -1.37673 2.81097 0
M  V30 4232 C 420.832 -1.79799 4.21232 0
M  V30 4233 N 422.323 -1.8694 4.23802 0
M  V30 4234 C 423.058 -2.20876 5.29151 0
M  V30 4235 N 422.554 -2.53386 6.448 0
M  V30 4236 N 424.347 -2.217 5.16532 0
M  V30 4237 H 416.498 0.18153 2.11623 0
M  V30 4238 H 418.761 0.0185514 0.947818 0
M  V30 4239 H 418.467 -0.523591 3.47781 0
M  V30 4240 H 418.341 -2.22052 3.04915 0
M  V30 4241 H 420.728 -2.10956 2.06353 0
M  V30 4242 H 420.809 -0.40357 2.52596 0
M  V30 4243 H 420.453 -1.07083 4.96483 0
M  V30 4244 H 420.383 -2.78128 4.4716 0
M  V30 4245 H 422.874 -1.64179 3.40373 0
M  V30 4246 H 423.187 -2.78325 7.20941 0
M  V30 4247 H 421.532 -2.50953 6.48111 0
M  V30 4248 H 424.723 -1.95745 4.25207 0
M  V30 4249 H 424.896 -2.47818 5.98741 0
M  V30 4250 N 418.302 -1.35869 -0.798587 0
M  V30 4251 C 419.53 -1.32722 -1.58722 0
M  V30 4252 C 419.945 0.0935631 -1.88568 0
M  V30 4253 O 419.302 1.04784 -1.49421 0
M  V30 4254 C 419.353 -2.13974 -2.91371 0
M  V30 4255 O 419.074 -3.50514 -2.62815 0
M  V30 4256 C 420.575 -2.18504 -3.85708 0
M  V30 4257 H 417.795 -0.45562 -0.492596 0
M  V30 4258 H 420.339 -1.78837 -0.991843 0
M  V30 4259 H 418.494 -1.71438 -3.47402 0
M  V30 4260 H 418.908 -3.92806 -3.47568 0
M  V30 4261 H 420.382 -2.79732 -4.75872 0
M  V30 4262 H 420.859 -1.18597 -4.22885 0
M  V30 4263 H 421.465 -2.61236 -3.35612 0
M  V30 4264 N 419.78 1.02168 -1.19998 0
M  V30 4265 C 420.713 2.10232 -0.887558 0
M  V30 4266 C 421.691 1.61827 0.158317 0
M  V30 4267 O 422.875 1.88471 0.0330249 0
M  V30 4268 C 420.002 3.37092 -0.32964 0
M  V30 4269 C 419.048 4.0438 -1.3557 0
M  V30 4270 S 419.881 4.48956 -2.91888 0
M  V30 4271 C 421.037 5.79024 -2.37658 0
M  V30 4272 H 421.27 2.36409 -1.80272 0
M  V30 4273 H 418.803 1.15211 -1.0279 0
M  V30 4274 H 420.761 4.10498 -0.0142824 0
M  V30 4275 H 419.422 3.08996 0.563941 0
M  V30 4276 H 418.615 4.95632 -0.9146 0
M  V30 4277 H 418.217 3.37176 -1.61828 0
M  V30 4278 H 420.509 6.53942 -1.77103 0
M  V30 4279 H 421.452 6.27924 -3.27287 0
M  V30 4280 H 421.86 5.35043 -1.79971 0
M  V30 4281 N 421.258 1.00505 1.21394 0
M  V30 4282 C 422.674 0.717873 1.42544 0
M  V30 4283 C 422.874 -0.706936 1.88692 0
M  V30 4284 O 421.93 -1.47627 2.04847 0
M  V30 4285 C 423.243 1.73377 2.45684 0
M  V30 4286 C 424.791 1.75059 2.59467 0
M  V30 4287 C 425.266 2.75545 3.6584 0
M  V30 4288 N 426.757 2.74213 3.73311 0
M  V30 4289 C 427.492 3.48626 4.55245 0
M  V30 4290 N 426.988 4.32678 5.41075 0
M  V30 4291 N 428.781 3.37276 4.49668 0
M  V30 4292 H 420.932 1.92506 0.897503 0
M  V30 4293 H 423.195 0.830919 0.456375 0
M  V30 4294 H 422.901 2.75395 2.18748 0
M  V30 4295 H 422.775 1.53647 3.44489 0
M  V30 4296 H 425.162 0.737337 2.8574 0
M  V30 4297 H 425.243 1.98861 1.60897 0
M  V30 4298 H 424.887 3.77028 3.40313 0
M  V30 4299 H 424.817 2.49009 4.64007 0
M  V30 4300 H 427.308 2.13234 3.11993 0
M  V30 4301 H 427.621 4.86253 6.00648 0
M  V30 4302 H 425.966 4.3676 5.40616 0
M  V30 4303 H 429.157 2.71043 3.81646 0
M  V30 4304 H 429.33 3.95524 5.13288 0
M  V30 4305 N 422.737 -1.36956 0.779787 0
M  V30 4306 C 423.7 -2.2851 0.177662 0
M  V30 4307 C 424.7 -1.48393 -0.619377 0
M  V30 4308 O 425.89 -1.68505 -0.441785 0
M  V30 4309 C 423.022 -3.32428 -0.755279 0
M  V30 4310 H 424.215 -2.83269 0.984823 0
M  V30 4311 H 421.768 -1.46358 0.548544 0
M  V30 4312 H 422.503 -2.82808 -1.58714 0
M  V30 4313 H 422.288 -3.91659 -0.185817 0
M  V30 4314 H 423.778 -4.00824 -1.17174 0
M  V30 4315 N 424.215 -0.530993 -1.48385 0
M  V30 4316 C 425.178 0.220497 -2.28137 0
M  V30 4317 C 426.178 0.866851 -1.35434 0
M  V30 4318 O 427.368 0.726746 -1.58316 0
M  V30 4319 C 424.5 1.31921 -3.1434 0
M  V30 4320 H 425.693 -0.479714 -2.96038 0
M  V30 4321 H 423.246 -0.286968 -1.53643 0
M  V30 4322 H 423.981 2.05264 -2.51072 0
M  V30 4323 H 423.766 0.86085 -3.82533 0
M  V30 4324 H 425.256 1.84776 -3.74497 0
M  V30 4325 N 425.693 1.55336 -0.266172 0
M  V30 4326 C 426.941 1.99003 0.35246 0
M  V30 4327 C 427.262 1.15591 1.57047 0
M  V30 4328 O 426.532 0.243268 1.94384 0
M  V30 4329 H 425.112 0.735025 0.133217 0
M  V30 4330 H 427.774 1.91367 -0.369434 0
M  V30 4331 H 426.87 3.05289 0.648453 0
M  V30 4332 N 427.171 -0.0066808 1.57599 0
M  V30 4333 C 428.417 -0.693947 1.90558 0
M  V30 4334 C 428.75 -1.73792 0.866594 0
M  V30 4335 O 428.025 -1.94156 -0.115548 0
M  V30 4336 C 428.308 -1.34317 3.34112 0
M  V30 4337 C 428.161 -0.311189 4.48722 0
M  V30 4338 C 429.48 -2.27116 3.7697 0
M  V30 4339 H 426.599 -0.250803 0.693013 0
M  V30 4340 H 429.241 0.043242 1.89951 0
M  V30 4341 H 427.391 -1.9715 3.3476 0
M  V30 4342 H 429.063 0.316944 4.6021 0
M  V30 4343 H 427.306 0.367253 4.32243 0
M  V30 4344 H 427.977 -0.804366 5.46108 0
M  V30 4345 H 430.453 -1.74306 3.77831 0
M  V30 4346 H 429.329 -2.69511 4.78179 0
M  V30 4347 H 429.59 -3.14743 3.10466 0
M  V30 4348 N 428.649 -1.55105 -0.279332 0
M  V30 4349 C 429.581 -1.83952 -1.36727 0
M  V30 4350 C 430.594 -0.723642 -1.45833 0
M  V30 4351 O 431.783 -1.00141 -1.47763 0
M  V30 4352 C 428.883 -1.98183 -2.74912 0
M  V30 4353 C 428.056 -3.28787 -2.88475 0
M  V30 4354 C 427.115 -3.33162 -4.07295 0
M  V30 4355 O 426.141 -4.06576 -3.98353 0
M  V30 4356 N 427.343 -2.60109 -5.18964 0
M  V30 4357 H 430.108 -2.77853 -1.12328 0
M  V30 4358 H 427.669 -1.54945 -0.469442 0
M  V30 4359 H 429.661 -1.98488 -3.52682 0
M  V30 4360 H 428.231 -1.11177 -2.92162 0
M  V30 4361 H 427.451 -3.41075 -1.97641 0
M  V30 4362 H 428.739 -4.14933 -2.94463 0
M  V30 4363 H 428.137 -2.00136 -5.29115 0
M  V30 4364 H 426.694 -2.66143 -5.94988 0
M  V30 4365 N 430.127 0.543554 -1.4793 0
M  V30 4366 C 431.374 1.30008 -1.55255 0
M  V30 4367 C 431.702 1.93245 -0.220612 0
M  V30 4368 O 430.957 1.79141 0.787843 0
M  V30 4369 C 431.256 2.42078 -2.62932 0
M  V30 4370 C 430.922 1.96583 -4.0579 0
M  V30 4371 C 429.584 1.83893 -4.44676 0
M  V30 4372 C 431.936 1.62034 -4.95373 0
M  V30 4373 C 429.264 1.34969 -5.70964 0
M  V30 4374 C 431.616 1.14577 -6.22137 0
M  V30 4375 C 430.28 1.00493 -6.59892 0
M  V30 4376 H 429.55 0.475735 -0.568117 0
M  V30 4377 H 432.197 0.608075 -1.81589 0
M  V30 4378 H 430.502 3.16892 -2.30406 0
M  V30 4379 H 432.199 3.00236 -2.65818 0
M  V30 4380 H 428.789 2.07407 -3.75074 0
M  V30 4381 H 432.973 1.70705 -4.66019 0
M  V30 4382 H 428.229 1.2274 -5.98953 0
M  V30 4383 H 432.403 0.869109 -6.90955 0
M  V30 4384 H 430.03 0.623624 -7.57638 0
M  V30 4385 N 431.605 1.3629 0.791371 0
M  V30 4386 C 432.535 1.33137 1.91825 0
M  V30 4387 C 433.516 0.203168 1.68882 0
M  V30 4388 O 434.701 0.400509 1.90025 0
M  V30 4389 C 431.831 1.11793 3.28816 0
M  V30 4390 C 430.785 2.21417 3.66277 0
M  V30 4391 C 430.111 1.85218 5.01596 0
M  V30 4392 C 431.411 3.63489 3.75064 0
M  V30 4393 H 433.105 2.2743 1.9472 0
M  V30 4394 H 430.651 1.09479 0.935437 0
M  V30 4395 H 432.604 1.08222 4.07266 0
M  V30 4396 H 431.328 0.139501 3.26302 0
M  V30 4397 H 429.987 2.2411 2.90121 0
M  V30 4398 H 429.635 0.859544 4.95602 0
M  V30 4399 H 429.335 2.58611 5.27631 0
M  V30 4400 H 430.859 1.832 5.82469 0
M  V30 4401 H 432.273 3.63034 4.43711 0
M  V30 4402 H 430.67 4.35771 4.12582 0
M  V30 4403 H 431.74 3.98536 2.76219 0
M  V30 4404 N 433.083 -1.0153 1.20538 0
M  V30 4405 C 434.36 -1.72327 0.925343 0
M  V30 4406 C 434.74 -2.03383 -0.565547 0
M  V30 4407 O 434.088 -1.69934 -1.52757 0
M  V30 4408 C 434.298 -2.9902 1.79967 0
M  V30 4409 C 435.646 -3.72258 2.04228 0
M  V30 4410 O 436.67 -3.08979 1.77231 0
M  V30 4411 O 435.529 -4.86053 2.4983 0
M  V30 4412 H 432.623 -0.751099 0.346092 0
M  V30 4413 H 435.169 -1.07366 1.31417 0
M  V30 4414 H 433.941 -2.72402 2.80915 0
M  V30 4415 H 433.564 -3.71721 1.41099 0
M  V30 4416 N 434.561 -1.01147 -1.20859 0
M  V30 4417 C 435.789 -0.716911 -1.94082 0
M  V30 4418 C 436.204 0.721568 -1.74467 0
M  V30 4419 O 435.561 1.48889 -1.05539 0
M  V30 4420 C 435.612 -1.03662 -3.46318 0
M  V30 4421 O 435.333 -2.4186 -3.65288 0
M  V30 4422 C 436.834 -0.762386 -4.36695 0
M  V30 4423 H 434.054 -0.26367 -0.617024 0
M  V30 4424 H 436.598 -1.35127 -1.53496 0
M  V30 4425 H 434.753 -0.447757 -3.84804 0
M  V30 4426 H 435.167 -2.53224 -4.59323 0
M  V30 4427 H 436.641 -1.03621 -5.42187 0
M  V30 4428 H 437.118 0.303514 -4.3815 0
M  V30 4429 H 437.724 -1.33316 -4.03865 0
M  V30 4430 N 436.039 1.36541 -0.78704 0
M  V30 4431 C 437.45 1.81873 -0.421807 0
M  V30 4432 C 437.801 1.65487 1.05397 0
M  V30 4433 O 436.926 1.17448 1.81755 0
M  V30 4434 C 437.521 3.30192 -0.758841 0
M  V30 4435 C 436.08 3.73743 -0.446468 0
M  V30 4436 C 435.227 2.58844 -0.994728 0
M  V30 4437 H 438.178 1.24796 -0.98039 0
M  V30 4438 H 438.199 3.80468 -0.0490648 0
M  V30 4439 H 437.711 3.42087 -1.83299 0
M  V30 4440 H 435.812 3.6741 0.619739 0
M  V30 4441 H 435.925 4.69272 -0.965415 0
M  V30 4442 H 434.289 2.51245 -0.418087 0
M  V30 4443 H 435.072 2.73525 -2.07458 0
M  V30 4444 N 437.518 0.538854 1.48102 0
M  V30 4445 C 438.795 -0.0568108 1.95517 0
M  V30 4446 C 439.175 -1.50408 1.48124 0
M  V30 4447 O 438.523 -2.17133 0.711727 0
M  V30 4448 C 438.733 0.0696262 3.48931 0
M  V30 4449 C 440.081 -0.0851202 4.24515 0
M  V30 4450 O 441.105 -0.0037347 3.562 0
M  V30 4451 O 439.964 -0.257025 5.45895 0
M  V30 4452 H 437.058 -0.0743695 0.823649 0
M  V30 4453 H 439.604 0.604081 1.58584 0
M  V30 4454 H 438.376 1.07744 3.76174 0
M  V30 4455 H 437.999 -0.629714 3.92582 0
M  V30 4456 N 438.996 -1.55193 0.274407 0
M  V30 4457 C 440.221 -2.04446 -0.348824 0
M  V30 4458 C 440.646 -1.15149 -1.48735 0
M  V30 4459 O 440.004 -0.149952 -1.80679 0
M  V30 4460 C 440.052 -3.51431 -0.808009 0
M  V30 4461 O 439.156 -3.65225 -1.91531 0
M  V30 4462 H 438.497 -0.66006 -0.0722276 0
M  V30 4463 H 441.027 -2.00481 0.408498 0
M  V30 4464 H 441.037 -3.92781 -1.10395 0
M  V30 4465 H 439.712 -4.15892 0.0249865 0
M  V30 4466 H 438.289 -3.35778 -1.62196 0
M  V30 4467 N 440.474 -0.00167713 -1.576 0
M  V30 4468 C 441.704 0.692754 -1.94639 0
M  V30 4469 C 442.112 1.67744 -0.87513 0
M  V30 4470 O 441.455 1.8305 0.154382 0
M  V30 4471 C 441.517 1.47881 -3.27676 0
M  V30 4472 C 441.181 0.655518 -4.52274 0
M  V30 4473 C 442.178 -0.0575214 -5.19868 0
M  V30 4474 C 439.863 0.600994 -4.98692 0
M  V30 4475 C 441.857 -0.814052 -6.3218 0
M  V30 4476 C 439.544 -0.15926 -6.10892 0
M  V30 4477 C 440.542 -0.865515 -6.77494 0
M  V30 4478 O 440.23 -1.61336 -7.87544 0
M  V30 4479 H 439.962 0.197792 -0.646417 0
M  V30 4480 H 442.516 -0.049423 -2.05341 0
M  V30 4481 H 440.746 2.2655 -3.13388 0
M  V30 4482 H 442.435 2.05874 -3.49816 0
M  V30 4483 H 443.201 -0.0245611 -4.84994 0
M  V30 4484 H 439.08 1.14025 -4.46676 0
M  V30 4485 H 442.624 -1.36584 -6.84098 0
M  V30 4486 H 438.521 -0.194035 -6.45208 0
M  V30 4487 H 439.289 -1.53025 -8.04068 0
M  V30 4488 N 441.952 1.55251 0.271103 0
M  V30 4489 C 443.182 1.79713 1.01916 0
M  V30 4490 C 443.59 0.571613 1.80359 0
M  V30 4491 O 442.933 -0.468853 1.77616 0
M  V30 4492 C 442.995 2.97138 2.02359 0
M  V30 4493 C 442.659 4.34104 1.42837 0
M  V30 4494 C 443.656 5.13019 0.843071 0
M  V30 4495 C 441.341 4.80765 1.455 0
M  V30 4496 C 443.335 6.36729 0.292333 0
M  V30 4497 C 441.022 6.0443 0.900402 0
M  V30 4498 C 442.02 6.8225 0.32007 0
M  V30 4499 O 441.708 8.03582 -0.226031 0
M  V30 4500 H 441.44 0.602431 0.306681 0
M  V30 4501 H 443.994 2.03097 0.306701 0
M  V30 4502 H 442.224 2.6945 2.77369 0
M  V30 4503 H 443.913 3.08907 2.63309 0
M  V30 4504 H 444.679 4.781 0.815178 0
M  V30 4505 H 440.558 4.20202 1.89609 0
M  V30 4506 H 444.102 6.97414 -0.161274 0
M  V30 4507 H 439.999 6.3883 0.925541 0
M  V30 4508 H 440.767 8.18418 -0.115572 0
M  V30 4509 N 443.43 -0.535701 1.48216 0
M  V30 4510 C 444.707 -1.29683 1.46429 0
M  V30 4511 C 445.087 -2.10391 0.172852 0
M  V30 4512 O 444.435 -2.12282 -0.845488 0
M  V30 4513 C 444.645 -2.18313 2.72287 0
M  V30 4514 C 445.993 -2.78639 3.20383 0
M  V30 4515 O 447.017 -2.28604 2.73164 0
M  V30 4516 O 445.876 -3.69636 4.02531 0
M  V30 4517 H 442.97 -0.585026 0.584529 0
M  V30 4518 H 445.516 -0.552827 1.60443 0
M  V30 4519 H 444.288 -1.58421 3.57797 0
M  V30 4520 H 443.911 -2.99971 2.60966 0
M  V30 4521 N 444.908 -1.36708 -0.784132 0
M  V30 4522 C 446.136 -1.34398 -1.57305 0
M  V30 4523 C 446.551 0.0735577 -1.88657 0
M  V30 4524 O 445.908 1.03193 -1.50524 0
M  V30 4525 C 445.959 -2.17053 -2.89085 0
M  V30 4526 O 445.68 -3.53281 -2.59083 0
M  V30 4527 C 447.181 -2.22583 -3.83369 0
M  V30 4528 H 444.401 -0.460819 -0.487736 0
M  V30 4529 H 446.945 -1.79879 -0.972819 0
M  V30 4530 H 445.1 -1.75113 -3.45564 0
M  V30 4531 H 445.514 -3.9647 -3.43383 0
M  V30 4532 H 446.988 -2.84763 -4.72878 0
M  V30 4533 H 447.465 -1.23075 -4.21603 0
M  V30 4534 H 448.071 -2.64781 -3.32823 0
M  V30 4535 N 446.386 1.0089 -1.21074 0
M  V30 4536 C 447.316 2.1145 -0.990523 0
M  V30 4537 C 448.297 1.69897 0.0831699 0
M  V30 4538 O 449.482 1.94052 -0.0758853 0
M  V30 4539 C 446.612 3.42914 -0.550177 0
M  V30 4540 C 445.566 3.98244 -1.56799 0
M  V30 4541 C 444.892 5.25568 -0.984013 0
M  V30 4542 C 446.192 4.30752 -2.95381 0
M  V30 4543 H 447.886 2.3013 -1.91521 0
M  V30 4544 H 445.432 1.10592 -0.92225 0
M  V30 4545 H 447.385 4.19653 -0.383305 0
M  V30 4546 H 446.109 3.24014 0.41015 0
M  V30 4547 H 444.768 3.23621 -1.72236 0
M  V30 4548 H 444.416 5.02998 -0.0155216 0
M  V30 4549 H 444.116 5.63551 -1.66384 0
M  V30 4550 H 445.64 6.04955 -0.828378 0
M  V30 4551 H 447.054 4.98349 -2.8341 0
M  V30 4552 H 445.451 4.79869 -3.60341 0
M  V30 4553 H 446.521 3.39192 -3.46521 0
M  V30 4554 N 447.864 1.01787 1.20321 0
M  V30 4555 C 449.112 0.706538 1.89347 0
M  V30 4556 C 449.433 -0.766289 1.79313 0
M  V30 4557 O 448.703 -1.55126 1.19635 0
M  V30 4558 H 447.283 0.258348 0.700903 0
M  V30 4559 H 449.945 1.28974 1.46122 0
M  V30 4560 H 449.041 0.991066 2.95946 0
M  V30 4561 N 449.342 -1.36122 0.79427 0
M  V30 4562 C 450.252 -2.33769 0.197296 0
M  V30 4563 C 451.268 -1.61276 -0.653153 0
M  V30 4564 O 452.444 -1.9323 -0.5678 0
M  V30 4565 C 449.509 -3.40474 -0.654098 0
M  V30 4566 C 448.57 -4.28759 0.215411 0
M  V30 4567 C 447.803 -5.30368 -0.595443 0
M  V30 4568 O 448.026 -5.40211 -1.83107 0
M  V30 4569 O 446.96 -6.019 0.00721351 0
M  V30 4570 H 450.786 -2.86597 1.00478 0
M  V30 4571 H 448.371 -1.38676 0.555818 0
M  V30 4572 H 450.253 -4.05703 -1.13944 0
M  V30 4573 H 448.928 -2.89937 -1.43938 0
M  V30 4574 H 447.835 -3.66554 0.747615 0
M  V30 4575 H 449.168 -4.82661 0.964332 0
M  V30 4576 N 450.82 -0.546701 -1.47814 0
M  V30 4577 C 452.066 -0.0269594 -2.03382 0
M  V30 4578 C 452.421 1.30406 -1.41464 0
M  V30 4579 O 451.714 1.8332 -0.557151 0
M  V30 4580 C 451.908 0.134869 -3.57145 0
M  V30 4581 C 451.737 -1.17891 -4.33972 0
M  V30 4582 C 450.507 -1.74336 -4.74273 0
M  V30 4583 C 452.705 -2.09361 -4.69758 0
M  V30 4584 N 450.687 -2.99829 -5.35701 0
M  V30 4585 C 452.058 -3.19431 -5.31379 0
M  V30 4586 C 454.113 -2.09484 -4.51687 0
M  V30 4587 C 452.816 -4.2971 -5.76838 0
M  V30 4588 C 454.842 -3.18767 -4.98138 0
M  V30 4589 C 454.204 -4.27557 -5.59799 0
M  V30 4590 H 450.303 -0.0517733 -0.780284 0
M  V30 4591 H 452.887 -0.731673 -1.80429 0
M  V30 4592 H 451.058 0.80869 -3.79888 0
M  V30 4593 H 452.79 0.655726 -3.99352 0
M  V30 4594 H 449.545 -1.28265 -4.559 0
M  V30 4595 H 449.969 -3.63765 -5.70968 0
M  V30 4596 H 454.611 -1.26663 -4.03381 0
M  V30 4597 H 452.329 -5.13297 -6.24141 0
M  V30 4598 H 455.915 -3.19937 -4.85934 0
M  V30 4599 H 454.795 -5.10725 -5.95088 0
M  V30 4600 N 452.299 1.55045 -0.282633 0
M  V30 4601 C 453.545 2.00056 0.332481 0
M  V30 4602 C 453.878 1.1708 1.54939 0
M  V30 4603 O 453.153 0.2427 1.9298 0
M  V30 4604 C 453.436 3.53086 0.70725 0
M  V30 4605 C 453.289 4.46813 -0.517521 0
M  V30 4606 C 454.608 4.12245 1.54084 0
M  V30 4607 H 451.727 0.727268 0.119373 0
M  V30 4608 H 454.369 1.85932 -0.391076 0
M  V30 4609 H 452.519 3.65253 1.32372 0
M  V30 4610 H 454.191 4.46579 -1.15607 0
M  V30 4611 H 452.434 4.18163 -1.1542 0
M  V30 4612 H 453.105 5.51595 -0.211426 0
M  V30 4613 H 455.581 4.03401 1.02013 0
M  V30 4614 H 454.457 5.19515 1.77186 0
M  V30 4615 H 454.718 3.62951 2.52427 0
M  V30 4616 N 453.777 0.010035 1.57597 0
M  V30 4617 C 455.025 -0.671371 1.90623 0
M  V30 4618 C 455.346 -1.73753 0.885151 0
M  V30 4619 O 454.616 -1.95752 -0.0760611 0
M  V30 4620 H 453.196 -0.250968 0.703579 0
M  V30 4621 H 455.858 0.0533325 1.94827 0
M  V30 4622 H 454.954 -1.13626 2.90681 0
M  V30 4623 N 455.255 -1.55392 -0.262866 0
M  V30 4624 C 456.532 -1.67204 -1.01499 0
M  V30 4625 C 456.912 -0.545186 -2.03939 0
M  V30 4626 O 456.26 0.453467 -2.23955 0
M  V30 4627 C 456.47 -3.06847 -1.6627 0
M  V30 4628 C 457.818 -3.64928 -2.17054 0
M  V30 4629 O 458.842 -3.09545 -1.76239 0
M  V30 4630 O 457.701 -4.61984 -2.91947 0
M  V30 4631 H 454.795 -0.679467 -0.471438 0
M  V30 4632 H 457.341 -1.67729 -0.257918 0
M  V30 4633 H 456.113 -3.80309 -0.920915 0
M  V30 4634 H 455.736 -3.10266 -2.48638 0
M  V30 4635 N 456.733 0.527833 -1.48498 0
M  V30 4636 C 457.961 1.30823 -1.6029 0
M  V30 4637 C 458.376 1.86945 -0.263974 0
M  V30 4638 O 457.733 1.6651 0.747034 0
M  V30 4639 C 457.784 2.45756 -2.65116 0
M  V30 4640 O 457.505 1.91946 -3.93813 0
M  V30 4641 C 459.006 3.37543 -2.87367 0
M  V30 4642 H 456.226 0.397763 -0.540394 0
M  V30 4643 H 458.77 0.636529 -1.94341 0
M  V30 4644 H 456.925 3.08806 -2.33917 0
M  V30 4645 H 457.339 2.67195 -4.51339 0
M  V30 4646 H 458.813 4.14532 -3.6451 0
M  V30 4647 H 459.29 3.92905 -1.9627 0
M  V30 4648 H 459.896 2.80283 -3.19878 0
M  V30 4649 N 458.211 1.37122 0.776871 0
M  V30 4650 C 459.627 1.1781 1.07671 0
M  V30 4651 C 459.827 0.0107454 2.01497 0
M  V30 4652 O 458.883 -0.650756 2.4397 0
M  V30 4653 C 460.196 2.49451 1.67913 0
M  V30 4654 C 461.744 2.55927 1.80195 0
M  V30 4655 C 462.219 3.87686 2.43851 0
M  V30 4656 N 463.71 3.891 2.51307 0
M  V30 4657 C 464.445 4.87797 3.014 0
M  V30 4658 N 463.941 5.96888 3.51705 0
M  V30 4659 N 465.734 4.75205 3.00227 0
M  V30 4660 H 457.885 2.11843 0.153778 0
M  V30 4661 H 460.148 0.938927 0.130844 0
M  V30 4662 H 459.854 3.35207 1.06439 0
M  V30 4663 H 459.728 2.66169 2.67271 0
M  V30 4664 H 462.115 1.70582 2.40803 0
M  V30 4665 H 462.196 2.43097 0.796069 0
M  V30 4666 H 461.84 4.73444 1.83884 0
M  V30 4667 H 461.77 3.97817 3.45035 0
M  V30 4668 H 464.261 3.10293 2.157 0
M  V30 4669 H 464.574 6.68155 3.88316 0
M  V30 4670 H 462.919 6.0054 3.49824 0
M  V30 4671 H 466.11 3.89103 2.60224 0
M  V30 4672 H 466.283 5.52279 3.38957 0
M  V30 4673 N 459.689 -1.00246 1.21608 0
M  V30 4674 C 460.935 -1.74319 1.03638 0
M  V30 4675 C 461.268 -1.89408 -0.428749 0
M  V30 4676 O 460.543 -1.43026 -1.3181 0
M  V30 4677 C 460.826 -3.15431 1.73711 0
M  V30 4678 C 460.679 -3.08049 3.27759 0
M  V30 4679 C 461.998 -4.14407 1.48173 0
M  V30 4680 H 459.117 -0.632741 0.377899 0
M  V30 4681 H 461.759 -1.16853 1.49818 0
M  V30 4682 H 459.909 -3.64493 1.34452 0
M  V30 4683 H 461.581 -2.66681 3.76403 0
M  V30 4684 H 459.824 -2.45088 3.57931 0
M  V30 4685 H 460.495 -4.07862 3.71958 0
M  V30 4686 H 462.971 -3.74061 1.82258 0
M  V30 4687 H 461.847 -5.11279 1.99713 0
M  V30 4688 H 462.108 -4.40174 0.412273 0
M  V30 4689 N 461.167 -1.02423 -1.1978 0
M  V30 4690 C 462.578 -0.748389 -1.71044 0
M  V30 4691 C 462.929 0.732398 -1.82017 0
M  V30 4692 O 462.054 1.57116 -1.48807 0
M  V30 4693 C 462.649 -1.35187 -3.1066 0
M  V30 4694 C 461.208 -1.12472 -3.59203 0
M  V30 4695 C 460.355 -1.45283 -2.36195 0
M  V30 4696 H 463.306 -1.19275 -1.04686 0
M  V30 4697 H 463.327 -0.746408 -3.73107 0
M  V30 4698 H 462.839 -2.4296 -3.02642 0
M  V30 4699 H 460.94 -0.0649983 -3.72543 0
M  V30 4700 H 461.053 -1.81016 -4.43588 0
M  V30 4701 H 459.417 -0.872034 -2.39307 0
M  V30 4702 H 460.2 -2.54129 -2.30811 0
M  V30 4703 N 462.645 1.35699 -0.801477 0
M  V30 4704 C 463.891 1.99208 -0.380022 0
M  V30 4705 C 464.224 1.63445 1.04878 0
M  V30 4706 O 463.499 0.895223 1.72673 0
M  V30 4707 C 463.782 3.55755 -0.557708 0
M  V30 4708 C 463.635 4.01332 -2.03107 0
M  V30 4709 C 464.954 4.40096 0.0197968 0
M  V30 4710 H 462.073 0.723667 -0.139552 0
M  V30 4711 H 464.715 1.60928 -1.01006 0
M  V30 4712 H 462.865 3.88494 -0.0213741 0
M  V30 4713 H 464.537 3.79026 -2.62939 0
M  V30 4714 H 462.78 3.52429 -2.52936 0
M  V30 4715 H 463.451 5.10234 -2.1063 0
M  V30 4716 H 465.927 4.13786 -0.438179 0
M  V30 4717 H 464.803 5.48735 -0.134477 0
M  V30 4718 H 465.064 4.2786 1.11303 0
M  V30 4719 N 464.123 0.554532 1.47522 0
M  V30 4720 C 465.4 -0.0360704 1.95567 0
M  V30 4721 C 465.78 -1.48828 1.49711 0
M  V30 4722 O 465.128 -2.16366 0.734717 0
M  V30 4723 C 465.338 0.106631 3.48837 0
M  V30 4724 C 466.686 -0.0400899 4.24581 0
M  V30 4725 O 467.71 0.0340453 3.56184 0
M  V30 4726 O 466.569 -0.199111 5.46137 0
M  V30 4727 H 463.663 -0.0656294 0.824392 0
M  V30 4728 H 466.209 0.620867 1.57935 0
M  V30 4729 H 464.981 1.11727 3.7501 0
M  V30 4730 H 464.604 -0.58804 3.93227 0
M  V30 4731 N 465.601 -1.54893 0.290851 0
M  V30 4732 C 466.829 -2.04343 -0.324288 0
M  V30 4733 C 467.244 -1.16859 -1.48289 0
M  V30 4734 O 466.601 -0.192018 -1.81487 0
M  V30 4735 C 466.652 -3.52756 -0.79026 0
M  V30 4736 O 466.373 -4.36913 0.322213 0
M  V30 4737 C 467.874 -4.18161 -1.4716 0
M  V30 4738 H 465.094 -0.667135 -0.0719173 0
M  V30 4739 H 467.638 -1.99981 0.427529 0
M  V30 4740 H 465.793 -3.57511 -1.49213 0
M  V30 4741 H 466.207 -5.24486 -0.0387372 0
M  V30 4742 H 467.681 -5.23562 -1.7489 0
M  V30 4743 H 468.158 -3.67282 -2.40834 0
M  V30 4744 H 468.764 -4.17454 -0.813178 0
M  V30 4745 N 467.08 -0.0183926 -1.57589 0
M  V30 4746 C 468.01 0.965596 -2.12599 0
M  V30 4747 C 468.991 1.34641 -1.0395 0
M  V30 4748 O 470.176 1.42693 -1.31729 0
M  V30 4749 C 467.306 2.25149 -2.64434 0
M  V30 4750 C 466.26 2.01175 -3.77773 0
M  V30 4751 C 465.586 3.35937 -4.15994 0
M  V30 4752 C 466.886 1.35953 -5.04296 0
M  V30 4753 H 468.58 0.507504 -2.95067 0
M  V30 4754 H 466.126 0.242671 -1.41941 0
M  V30 4755 H 468.079 2.94357 -3.01549 0
M  V30 4756 H 466.803 2.73105 -1.79112 0
M  V30 4757 H 465.462 1.34388 -3.4108 0
M  V30 4758 H 465.11 3.81631 -3.27669 0
M  V30 4759 H 464.81 3.20705 -4.92364 0
M  V30 4760 H 466.334 4.0643 -4.55683 0
M  V30 4761 H 467.748 1.95144 -5.39065 0
M  V30 4762 H 466.145 1.31152 -5.85593 0
M  V30 4763 H 467.215 0.331071 -4.83768 0
M  V30 4764 N 468.558 1.5553 0.254621 0
M  V30 4765 C 469.974 1.4778 0.602753 0
M  V30 4766 C 470.174 0.707047 1.88688 0
M  V30 4767 O 469.23 0.233288 2.5142 0
M  V30 4768 C 470.543 2.92133 0.712648 0
M  V30 4769 C 472.091 3.02458 0.805488 0
M  V30 4770 C 472.566 4.48102 0.947009 0
M  V30 4771 N 474.057 4.52008 1.01207 0
M  V30 4772 C 474.792 5.61939 1.1407 0
M  V30 4773 N 474.288 6.81697 1.23536 0
M  V30 4774 N 476.081 5.49719 1.17325 0
M  V30 4775 H 468.232 2.04085 -0.588463 0
M  V30 4776 H 470.495 0.926229 -0.202001 0
M  V30 4777 H 470.201 3.51332 -0.160766 0
M  V30 4778 H 470.075 3.42187 1.58707 0
M  V30 4779 H 472.462 2.43344 1.66936 0
M  V30 4780 H 472.543 2.55627 -0.0939266 0
M  V30 4781 H 472.187 5.07824 0.087725 0
M  V30 4782 H 472.117 4.92607 1.86135 0
M  V30 4783 H 474.608 3.65749 0.950577 0
M  V30 4784 H 474.921 7.61228 1.33236 0
M  V30 4785 H 473.266 6.84473 1.20508 0
M  V30 4786 H 476.457 4.55095 1.09573 0
M  V30 4787 H 476.63 6.35432 1.27005 0
M  V30 4788 N 470.036 -0.519951 1.48776 0
M  V30 4789 C 470.946 -1.65025 1.66745 0
M  V30 4790 C 471.962 -1.6508 0.549954 0
M  V30 4791 O 473.138 -1.83848 0.822295 0
M  V30 4792 C 470.203 -3.0146 1.71238 0
M  V30 4793 C 469.264 -3.12182 2.94688 0
M  V30 4794 C 468.497 -4.42109 2.98958 0
M  V30 4795 O 468.72 -5.29799 2.1135 0
M  V30 4796 O 467.654 -4.57406 3.91233 0
M  V30 4797 H 471.48 -1.52801 2.62461 0
M  V30 4798 H 469.065 -0.694157 1.32294 0
M  V30 4799 H 470.947 -3.82584 1.76657 0
M  V30 4800 H 469.622 -3.13988 0.786975 0
M  V30 4801 H 468.529 -2.30316 2.94797 0
M  V30 4802 H 469.862 -3.04574 3.86646 0
M  V30 4803 N 471.514 -1.37532 -0.769588 0
M  V30 4804 C 472.444 -1.36172 -1.89682 0
M  V30 4805 C 473.425 -0.23001 -1.68538 0
M  V30 4806 O 474.61 -0.43069 -1.89364 0
M  V30 4807 C 471.74 -1.1701 -3.26995 0
M  V30 4808 C 470.694 -2.27216 -3.62708 0
M  V30 4809 C 470.02 -1.93174 -4.98586 0
M  V30 4810 C 471.32 -3.6941 -3.69234 0
M  V30 4811 H 473.014 -2.30499 -1.91078 0
M  V30 4812 H 470.56 -1.10953 -0.917902 0
M  V30 4813 H 472.513 -1.14688 -4.05493 0
M  V30 4814 H 471.237 -0.191395 -3.26039 0
M  V30 4815 H 469.896 -2.28697 -2.86519 0
M  V30 4816 H 469.544 -0.938281 -4.94171 0
M  V30 4817 H 469.244 -2.66973 -5.23449 0
M  V30 4818 H 470.768 -1.92443 -5.79481 0
M  V30 4819 H 472.182 -3.70047 -4.37879 0
M  V30 4820 H 470.579 -4.4228 -4.05597 0
M  V30 4821 H 471.649 -4.0288 -2.69844 0
M  V30 4822 N 472.992 0.995999 -1.22138 0
M  V30 4823 C 473.939 2.08551 -0.988687 0
M  V30 4824 C 474.909 1.65864 0.0885021 0
M  V30 4825 O 476.094 1.90704 -0.0604589 0
M  V30 4826 C 473.234 3.40374 -0.569191 0
M  V30 4827 C 472.347 3.96421 -1.71681 0
M  V30 4828 C 471.482 5.1639 -1.2456 0
M  V30 4829 C 470.521 5.64567 -2.36497 0
M  V30 4830 N 469.658 6.75777 -1.90445 0
M  V30 4831 H 474.498 2.2779 -1.92135 0
M  V30 4832 H 472.035 1.1168 -0.957388 0
M  V30 4833 H 473.993 4.16068 -0.307166 0
M  V30 4834 H 472.623 3.21145 0.326462 0
M  V30 4835 H 471.675 3.17628 -2.09324 0
M  V30 4836 H 472.987 4.2816 -2.55891 0
M  V30 4837 H 472.141 5.99362 -0.940774 0
M  V30 4838 H 470.88 4.86266 -0.373662 0
M  V30 4839 H 469.885 4.80185 -2.67772 0
M  V30 4840 H 471.11 5.96716 -3.24202 0
M  V30 4841 H 469.056 6.47443 -1.05609 0
M  V30 4842 H 468.973 7.06818 -2.68223 0
M  V30 4843 H 470.241 7.62262 -1.63022 0
M  V30 4844 N 474.47 1.03057 1.19235 0
M  V30 4845 C 475.719 0.72326 1.88287 0
M  V30 4846 C 476.032 -0.751333 1.80594 0
M  V30 4847 O 477.238 -1.17176 2.44912 0
M  V30 4848 C 475.694 1.24338 3.3774 0
M  V30 4849 C 475.302 2.74587 3.53986 0
M  V30 4850 C 477.046 1.01213 4.12257 0
M  V30 4851 C 474.953 3.20009 4.97341 0
M  V30 4852 H 473.883 0.266848 0.705201 0
M  V30 4853 H 476.534 1.24509 1.34795 0
M  V30 4854 H 474.916 0.649457 3.90638 0
M  V30 4855 H 476.09 3.39649 3.11408 0
M  V30 4856 H 474.405 2.9601 2.9286 0
M  V30 4857 H 477.002 1.32675 5.17978 0
M  V30 4858 H 477.345 -0.051001 4.16269 0
M  V30 4859 H 477.878 1.57014 3.65501 0
M  V30 4860 H 474.617 4.25659 4.98493 0
M  V30 4861 H 474.137 2.59676 5.40674 0
M  V30 4862 H 475.816 3.13447 5.66003 0
M  V30 4863 N 475.948 -1.35272 0.808662 0
M  V30 4864 C 476.878 -2.32315 0.234981 0
M  V30 4865 C 477.859 -1.57572 -0.64071 0
M  V30 4866 O 479.044 -1.8563 -0.570551 0
M  V30 4867 C 476.174 -3.41801 -0.615601 0
M  V30 4868 C 475.128 -4.27694 0.161767 0
M  V30 4869 C 474.454 -5.28519 -0.810649 0
M  V30 4870 C 475.754 -5.04231 1.36193 0
M  V30 4871 H 477.448 -2.80543 1.04575 0
M  V30 4872 H 474.994 -1.3488 0.504315 0
M  V30 4873 H 476.947 -4.08693 -1.02702 0
M  V30 4874 H 475.671 -2.92186 -1.45928 0
M  V30 4875 H 474.33 -3.62384 0.554382 0
M  V30 4876 H 473.978 -4.75171 -1.64988 0
M  V30 4877 H 473.678 -5.8686 -0.294822 0
M  V30 4878 H 475.202 -5.98283 -1.22023 0
M  V30 4879 H 476.616 -5.64058 1.02528 0
M  V30 4880 H 475.013 -5.72077 1.81239 0
M  V30 4881 H 476.083 -4.34753 2.14751 0
M  V30 4882 N 477.426 -0.562348 -1.47226 0
M  V30 4883 C 478.389 0.172056 -2.28553 0
M  V30 4884 C 479.389 0.837928 -1.37242 0
M  V30 4885 O 480.579 0.693001 -1.59822 0
M  V30 4886 C 477.711 1.25223 -3.17068 0
M  V30 4887 H 478.904 -0.542401 -2.94954 0
M  V30 4888 H 476.457 -0.319493 -1.53 0
M  V30 4889 H 477.192 1.99892 -2.55369 0
M  V30 4890 H 476.977 0.779515 -3.84273 0
M  V30 4891 H 478.467 1.76791 -3.78332 0
M  V30 4892 N 478.904 1.54736 -0.299062 0
M  V30 4893 C 480.181 1.92187 0.363802 0
M  V30 4894 C 480.561 1.22607 1.71845 0
M  V30 4895 O 479.909 0.361141 2.25628 0
M  V30 4896 C 480.119 3.45678 0.480377 0
M  V30 4897 C 481.467 4.17885 0.752147 0
M  V30 4898 O 482.491 3.51702 0.564264 0
M  V30 4899 O 481.35 5.35048 1.11294 0
M  V30 4900 H 478.444 0.801681 0.203066 0
M  V30 4901 H 480.99 1.66115 -0.346978 0
M  V30 4902 H 479.762 3.88443 -0.471999 0
M  V30 4903 H 479.385 3.77779 1.2397 0
M  V30 4904 N 480.382 0.0267497 1.57577 0
M  V30 4905 C 481.798 -0.32962 1.56159 0
M  V30 4906 C 481.998 -1.73059 1.03213 0
M  V30 4907 O 481.054 -2.43233 0.677804 0
M  V30 4908 C 482.367 -0.18039 3.00158 0
M  V30 4909 C 483.915 -0.253334 3.11973 0
M  V30 4910 C 484.39 -0.132921 4.57807 0
M  V30 4911 N 485.881 -0.189979 4.6281 0
M  V30 4912 C 486.616 -0.120554 5.73273 0
M  V30 4913 N 486.112 -0.000180315 6.928 0
M  V30 4914 N 487.905 -0.174369 5.61829 0
M  V30 4915 H 480.056 0.942896 1.90324 0
M  V30 4916 H 482.319 0.3639 0.875375 0
M  V30 4917 H 482.025 0.784576 3.42837 0
M  V30 4918 H 481.899 -0.951565 3.65 0
M  V30 4919 H 484.286 -1.20876 2.69208 0
M  V30 4920 H 484.367 0.548177 2.49857 0
M  V30 4921 H 484.011 0.819073 5.01252 0
M  V30 4922 H 483.941 -0.953264 5.179 0
M  V30 4923 H 486.432 -0.283257 3.76837 0
M  V30 4924 H 486.745 0.0461666 7.72786 0
M  V30 4925 H 485.09 0.034569 6.94991 0
M  V30 4926 H 488.281 -0.266794 4.67339 0
M  V30 4927 H 488.454 -0.116802 6.47895 0
M  V30 4928 N 481.861 -1.55662 -0.24637 0
M  V30 4929 C 483.138 -1.68272 -0.997198 0
M  V30 4930 C 483.518 -0.566785 -2.03349 0
M  V30 4931 O 482.866 0.429688 -2.24424 0
M  V30 4932 C 483.076 -3.08594 -1.63006 0
M  V30 4933 C 484.424 -3.6721 -2.13171 0
M  V30 4934 O 485.448 -3.11397 -1.72946 0
M  V30 4935 O 484.307 -4.65054 -2.87031 0
M  V30 4936 H 481.401 -0.684429 -0.464205 0
M  V30 4937 H 483.947 -1.67993 -0.240114 0
M  V30 4938 H 482.719 -3.81264 -0.880527 0
M  V30 4939 H 482.342 -3.12886 -2.45333 0
M  V30 4940 N 483.339 0.512053 -1.4905 0
M  V30 4941 C 484.249 1.64139 -1.67617 0
M  V30 4942 C 485.265 1.64786 -0.558701 0
M  V30 4943 O 486.441 1.8341 -0.832034 0
M  V30 4944 C 483.506 3.00548 -1.72835 0
M  V30 4945 C 482.567 3.10615 -2.96339 0
M  V30 4946 C 481.8 4.40517 -3.01298 0
M  V30 4947 O 482.023 5.28671 -2.14157 0
M  V30 4948 O 480.957 4.55325 -3.93653 0
M  V30 4949 H 484.783 1.51407 -2.63267 0
M  V30 4950 H 482.368 0.687131 -1.32661 0
M  V30 4951 H 484.25 3.81641 -1.78683 0
M  V30 4952 H 482.925 3.13566 -0.803616 0
M  V30 4953 H 481.832 2.2875 -2.96014 0
M  V30 4954 H 483.165 3.0252 -3.88256 0
M  V30 4955 N 484.817 1.37938 0.762283 0
M  V30 4956 C 486.094 1.24196 1.51112 0
M  V30 4957 C 486.474 -0.160409 2.1049 0
M  V30 4958 O 485.822 -1.16904 1.96331 0
M  V30 4959 C 486.032 2.34537 2.58445 0
M  V30 4960 C 487.38 2.7254 3.25588 0
M  V30 4961 O 488.404 2.33783 2.68745 0
M  V30 4962 O 487.263 3.39343 4.28379 0
M  V30 4963 H 484.357 0.485175 0.669727 0
M  V30 4964 H 486.903 1.49743 0.798438 0
M  V30 4965 H 485.675 3.28406 2.12756 0
M  V30 4966 H 485.298 2.10505 3.37303 0
M  V30 4967 N 486.295 -0.989507 1.22664 0
M  V30 4968 C 487.543 -1.72612 1.05117 0
M  V30 4969 C 487.864 -1.90552 -0.414131 0
M  V30 4970 O 487.134 -1.4676 -1.29762 0
M  V30 4971 H 485.714 -0.639555 0.385977 0
M  V30 4972 H 488.376 -1.19158 1.54232 0
M  V30 4973 H 487.472 -2.71926 1.53175 0
M  V30 4974 N 487.773 -1.03688 -1.18687 0
M  V30 4975 C 489.003 -0.756819 -1.92239 0
M  V30 4976 C 489.411 0.689374 -1.76194 0
M  V30 4977 O 488.754 1.48126 -1.08648 0
M  V30 4978 C 488.816 -1.03851 -3.44173 0
M  V30 4979 C 488.48 -2.47785 -3.83994 0
M  V30 4980 C 489.477 -3.4595 -3.88091 0
M  V30 4981 C 487.162 -2.82397 -4.154 0
M  V30 4982 C 489.156 -4.76779 -4.23038 0
M  V30 4983 C 486.843 -4.13433 -4.50018 0
M  V30 4984 C 487.841 -5.10434 -4.53813 0
M  V30 4985 O 487.529 -6.39122 -4.87625 0
M  V30 4986 H 487.261 -0.275678 -0.617234 0
M  V30 4987 H 489.815 -1.38658 -1.51536 0
M  V30 4988 H 488.045 -0.351612 -3.85098 0
M  V30 4989 H 489.734 -0.746846 -3.9897 0
M  V30 4990 H 490.5 -3.20549 -3.63969 0
M  V30 4991 H 486.379 -2.07568 -4.11627 0
M  V30 4992 H 489.923 -5.52488 -4.25914 0
M  V30 4993 H 485.82 -4.38604 -4.736 0
M  V30 4994 H 486.588 -6.43715 -5.05542 0
M  V30 4995 N 489.251 1.34841 -0.815825 0
M  V30 4996 C 490.181 2.32187 -0.247298 0
M  V30 4997 C 491.162 1.5791 0.632344 0
M  V30 4998 O 492.347 1.8593 0.560698 0
M  V30 4999 C 489.477 3.42122 0.597466 0
M  V30 5000 C 488.431 4.27602 -0.184446 0
M  V30 5001 C 487.757 5.28942 0.782609 0
M  V30 5002 C 489.057 5.03502 -1.38865 0
M  V30 5003 H 490.751 2.79985 -1.06061 0
M  V30 5004 H 488.297 1.34611 -0.511461 0
M  V30 5005 H 490.25 4.09232 1.00533 0
M  V30 5006 H 488.974 2.92956 1.44376 0
M  V30 5007 H 487.633 3.62085 -0.573592 0
M  V30 5008 H 487.281 4.7604 1.62466 0
M  V30 5009 H 486.981 5.87008 0.263695 0
M  V30 5010 H 488.505 5.98922 1.18848 0
M  V30 5011 H 489.919 5.63506 -1.05518 0
M  V30 5012 H 488.316 5.71108 -1.8427 0
M  V30 5013 H 489.386 4.33608 -2.17054 0
M  V30 5014 N 490.729 0.570148 1.46925 0
M  V30 5015 C 491.659 -0.158274 2.32963 0
M  V30 5016 C 492.64 -0.896093 1.44583 0
M  V30 5017 O 493.825 -0.874022 1.7342 0
M  V30 5018 C 490.955 -1.18055 3.26619 0
M  V30 5019 C 489.909 -0.558379 4.24342 0
M  V30 5020 C 489.235 -1.68623 5.07415 0
M  V30 5021 C 490.535 0.496295 5.19937 0
M  V30 5022 H 492.229 0.560046 2.94115 0
M  V30 5023 H 489.775 0.270775 1.41431 0
M  V30 5024 H 491.728 -1.69841 3.85658 0
M  V30 5025 H 490.452 -1.92899 2.63548 0
M  V30 5026 H 489.111 -0.0617157 3.66548 0
M  V30 5027 H 488.759 -2.42402 4.40738 0
M  V30 5028 H 488.459 -1.27564 5.73586 0
M  V30 5029 H 489.983 -2.20709 5.69315 0
M  V30 5030 H 491.397 0.0640052 5.73264 0
M  V30 5031 H 489.794 0.82649 5.94381 0
M  V30 5032 H 490.864 1.38735 4.6463 0
M  V30 5033 N 492.207 -1.54576 0.307264 0
M  V30 5034 C 493.139 -2.21212 -0.599807 0
M  V30 5035 C 494.152 -1.20685 -1.09266 0
M  V30 5036 O 495.341 -1.47244 -1.00903 0
M  V30 5037 C 492.441 -2.84994 -1.83389 0
M  V30 5038 C 491.614 -4.11511 -1.48248 0
M  V30 5039 C 490.673 -4.59038 -2.57237 0
M  V30 5040 O 489.699 -5.24095 -2.22065 0
M  V30 5041 N 490.901 -4.31884 -3.87887 0
M  V30 5042 H 493.666 -2.99686 -0.0293075 0
M  V30 5043 H 491.227 -1.61379 0.129738 0
M  V30 5044 H 493.219 -3.1372 -2.5566 0
M  V30 5045 H 491.789 -2.10324 -2.31263 0
M  V30 5046 H 491.009 -3.89728 -0.592122 0
M  V30 5047 H 492.297 -4.93879 -1.22316 0
M  V30 5048 H 491.695 -3.79778 -4.19268 0
M  V30 5049 H 490.252 -4.65304 -4.56438 0
M  V30 5050 N 493.685 -0.035106 -1.57561 0
M  V30 5051 C 494.934 0.641604 -1.91223 0
M  V30 5052 C 495.247 1.72944 -0.913761 0
M  V30 5053 O 496.453 2.46321 -1.14185 0
M  V30 5054 C 494.909 1.19249 -3.3957 0
M  V30 5055 C 494.517 0.137616 -4.47789 0
M  V30 5056 C 496.261 1.84537 -3.82291 0
M  V30 5057 C 494.168 0.700478 -5.87237 0
M  V30 5058 H 493.098 0.243417 -0.713627 0
M  V30 5059 H 495.749 -0.101382 -1.8322 0
M  V30 5060 H 494.131 1.98728 -3.42525 0
M  V30 5061 H 495.305 -0.635153 -4.56402 0
M  V30 5062 H 493.62 -0.416855 -4.14308 0
M  V30 5063 H 496.217 2.27616 -4.83834 0
M  V30 5064 H 496.56 2.69054 -3.17672 0
M  V30 5065 H 497.093 1.11739 -3.81784 0
M  V30 5066 H 493.832 -0.106693 -6.55413 0
M  V30 5067 H 493.352 1.4416 -5.82218 0
M  V30 5068 H 495.031 1.18837 -6.35993 0
M  V30 5069 N 495.163 1.55791 0.238111 0
M  V30 5070 C 496.41 1.78033 0.964907 0
M  V30 5071 C 496.738 0.600984 1.84982 0
M  V30 5072 O 495.993 -0.41536 1.91241 0
M  V30 5073 C 496.292 3.05869 1.84875 0
M  V30 5074 C 495.958 4.36808 1.11846 0
M  V30 5075 C 494.62 4.72388 0.916662 0
M  V30 5076 C 496.972 5.17717 0.60151 0
M  V30 5077 C 494.3 5.86406 0.185756 0
M  V30 5078 C 496.652 6.32494 -0.115972 0
M  V30 5079 C 495.316 6.66688 -0.329168 0
M  V30 5080 H 494.586 0.651469 0.353085 0
M  V30 5081 H 497.233 1.90061 0.234318 0
M  V30 5082 H 495.538 2.88891 2.64668 0
M  V30 5083 H 497.235 3.20278 2.41294 0
M  V30 5084 H 493.825 4.08862 1.28569 0
M  V30 5085 H 498.009 4.90678 0.744932 0
M  V30 5086 H 493.265 6.11399 0.0101886 0
M  V30 5087 H 497.439 6.94425 -0.524127 0
M  V30 5088 H 495.066 7.54884 -0.897474 0
M  V30 5089 N 496.642 -0.504142 1.49319 0
M  V30 5090 C 497.87 -1.28256 1.62351 0
M  V30 5091 C 498.285 -1.86502 0.293682 0
M  V30 5092 O 497.642 -1.67678 -0.720449 0
M  V30 5093 C 497.693 -2.41507 2.68992 0
M  V30 5094 O 497.414 -1.85656 3.96817 0
M  V30 5095 C 498.915 -3.32929 2.927 0
M  V30 5096 H 496.135 -0.389115 0.546654 0
M  V30 5097 H 498.679 -0.605531 1.95329 0
M  V30 5098 H 496.834 -3.05046 2.38801 0
M  V30 5099 H 497.248 -2.59981 4.55533 0
M  V30 5100 H 498.722 -4.0868 3.71058 0
M  V30 5101 H 499.199 -3.89733 2.02496 0
M  V30 5102 H 499.805 -2.75158 3.24296 0
M  V30 5103 N 498.12 -1.38341 -0.754957 0
M  V30 5104 C 499.067 -1.3546 -1.86867 0
M  V30 5105 C 500.037 -0.217369 -1.64672 0
M  V30 5106 O 501.222 -0.409383 -1.86356 0
M  V30 5107 C 498.362 -1.18413 -3.24149 0
M  V30 5108 C 497.475 -2.41511 -3.58185 0
M  V30 5109 C 496.61 -2.17205 -4.84763 0
M  V30 5110 C 495.649 -3.36081 -5.11582 0
M  V30 5111 N 494.786 -3.11219 -6.29354 0
M  V30 5112 H 499.626 -2.30672 -1.88664 0
M  V30 5113 H 497.163 -1.14607 -0.922154 0
M  V30 5114 H 499.121 -1.06545 -4.03366 0
M  V30 5115 H 497.751 -0.268397 -3.21682 0
M  V30 5116 H 496.803 -2.64056 -2.73822 0
M  V30 5117 H 498.115 -3.30115 -3.73932 0
M  V30 5118 H 497.269 -2.02465 -5.7192 0
M  V30 5119 H 496.008 -1.25964 -4.71152 0
M  V30 5120 H 495.013 -3.51341 -4.22894 0
M  V30 5121 H 496.238 -4.28196 -5.27091 0
M  V30 5122 H 494.184 -2.22624 -6.17069 0
M  V30 5123 H 494.101 -3.93373 -6.45596 0
M  V30 5124 H 495.369 -3.00132 -7.19403 0
M  V30 5125 N 499.598 0.982988 -1.23187 0
M  V30 5126 C 501.009 1.53847 -1.05773 0
M  V30 5127 C 501.36 1.92568 0.375744 0
M  V30 5128 O 500.485 1.75783 1.26211 0
M  V30 5129 C 501.08 2.79567 -1.91384 0
M  V30 5130 C 499.639 3.31524 -1.78238 0
M  V30 5131 C 498.786 2.04534 -1.87246 0
M  V30 5132 H 501.737 0.802962 -1.36888 0
M  V30 5133 H 501.758 3.52317 -1.43711 0
M  V30 5134 H 501.27 2.51353 -2.95708 0
M  V30 5135 H 499.371 3.64623 -0.766875 0
M  V30 5136 H 499.484 4.01457 -2.61475 0
M  V30 5137 H 497.848 2.1855 -1.30797 0
M  V30 5138 H 498.631 1.78706 -2.9312 0
M  V30 5139 N 501.076 1.04316 1.18135 0
M  V30 5140 C 502.322 0.749128 1.88457 0
M  V30 5141 C 502.655 -0.72149 1.803 0
M  V30 5142 O 501.93 -1.52676 1.205 0
M  V30 5143 C 502.213 1.21905 3.38838 0
M  V30 5144 C 502.066 2.75195 3.55792 0
M  V30 5145 C 503.385 0.811085 4.32561 0
M  V30 5146 H 500.504 0.273611 0.684329 0
M  V30 5147 H 503.146 1.29561 1.38975 0
M  V30 5148 H 501.296 0.754137 3.8111 0
M  V30 5149 H 502.968 3.29743 3.22595 0
M  V30 5150 H 501.211 3.14899 2.98364 0
M  V30 5151 H 501.882 3.03135 4.61317 0
M  V30 5152 H 504.358 1.21118 3.98082 0
M  V30 5153 H 503.234 1.16761 5.36338 0
M  V30 5154 H 503.495 -0.285596 4.41177 0
M  V30 5155 N 502.554 -1.34406 0.822964 0
M  V30 5156 C 503.486 -2.28305 0.202375 0
M  V30 5157 C 504.499 -1.5103 -0.60777 0
M  V30 5158 O 505.688 -1.73057 -0.437444 0
M  V30 5159 C 502.788 -3.30836 -0.734911 0
M  V30 5160 C 501.961 -4.37388 0.0324177 0
M  V30 5161 C 501.02 -5.1968 -0.825803 0
M  V30 5162 O 500.046 -5.68556 -0.270771 0
M  V30 5163 N 501.248 -5.39393 -2.14558 0
M  V30 5164 H 504.013 -2.82201 1.00909 0
M  V30 5165 H 501.574 -1.4693 0.67993 0
M  V30 5166 H 503.566 -3.82786 -1.31365 0
M  V30 5167 H 502.136 -2.77334 -1.44238 0
M  V30 5168 H 501.356 -3.86152 0.792469 0
M  V30 5169 H 502.644 -5.05702 0.560633 0
M  V30 5170 H 502.042 -5.01357 -2.62025 0
M  V30 5171 H 500.599 -5.94461 -2.67318 0
M  V30 5172 N 504.032 -0.577932 -1.46621 0
M  V30 5173 C 505.309 0.00495287 -1.95599 0
M  V30 5174 C 505.689 1.46428 -1.5206 0
M  V30 5175 O 505.037 2.1517 -0.769046 0
M  V30 5176 C 505.247 -0.162114 -3.48623 0
M  V30 5177 C 506.595 -0.0274623 -4.24591 0
M  V30 5178 O 507.619 -0.0907067 -3.56084 0
M  V30 5179 O 506.478 0.1122 -5.46385 0
M  V30 5180 H 503.572 0.0525057 -0.825332 0
M  V30 5181 H 506.118 -0.645914 -1.56927 0
M  V30 5182 H 504.89 -1.17679 -3.73185 0
M  V30 5183 H 504.513 0.525407 -3.94113 0
M  V30 5184 N 505.51 1.54411 -0.315457 0
M  V30 5185 C 506.926 1.59556 0.037464 0
M  V30 5186 C 507.126 1.33217 1.5118 0
M  V30 5187 O 506.182 1.11264 2.26664 0
M  V30 5188 C 507.495 2.98372 -0.373477 0
M  V30 5189 C 509.043 3.11324 -0.323452 0
M  V30 5190 C 509.518 4.52472 -0.709433 0
M  V30 5191 N 511.009 4.58437 -0.662524 0
M  V30 5192 C 511.744 5.65751 -0.933474 0
M  V30 5193 N 511.24 6.81039 -1.27114 0
M  V30 5194 N 513.033 5.55489 -0.859573 0
M  V30 5195 H 505.184 1.6979 -1.27614 0
M  V30 5196 H 507.447 0.793732 -0.518356 0
M  V30 5197 H 507.153 3.22618 -1.40037 0
M  V30 5198 H 507.027 3.76264 0.265615 0
M  V30 5199 H 509.414 2.86818 0.694223 0
M  V30 5200 H 509.495 2.35555 -0.997367 0
M  V30 5201 H 509.139 4.7771 -1.72498 0
M  V30 5202 H 509.069 5.26598 -0.0132923 0
M  V30 5203 H 511.56 3.75636 -0.413065 0
M  V30 5204 H 511.873 7.58816 -1.46348 0
M  V30 5205 H 510.218 6.82555 -1.30932 0
M  V30 5206 H 513.409 4.64299 -0.595324 0
M  V30 5207 H 513.582 6.39036 -1.0741 0
M  V30 5208 N 506.988 0.0434614 1.5754 0
M  V30 5209 C 508.399 -0.493343 1.80064 0
M  V30 5210 C 508.75 -1.71388 0.955023 0
M  V30 5211 O 507.875 -2.15736 0.169434 0
M  V30 5212 C 508.47 -0.90179 3.26578 0
M  V30 5213 C 507.029 -1.38362 3.50047 0
M  V30 5214 C 506.176 -0.355129 2.75017 0
M  V30 5215 H 509.127 0.2694 1.56397 0
M  V30 5216 H 509.148 -1.76523 3.37075 0
M  V30 5217 H 508.66 -0.013271 3.88098 0
M  V30 5218 H 506.761 -2.29159 2.93798 0
M  V30 5219 H 506.874 -1.3811 4.58762 0
M  V30 5220 H 505.238 -0.826348 2.40922 0
M  V30 5221 H 506.021 0.525172 3.39259 0
M  V30 5222 N 508.466 -1.55915 -0.229846 0
M  V30 5223 C 509.694 -1.82617 -0.972562 0
M  V30 5224 C 510.109 -0.621488 -1.78278 0
M  V30 5225 O 509.466 0.409956 -1.77836 0
M  V30 5226 C 509.517 -3.0774 -1.89679 0
M  V30 5227 O 509.238 -4.23559 -1.11934 0
M  V30 5228 C 510.739 -3.47368 -2.75409 0
M  V30 5229 H 507.959 -0.60727 -0.285419 0
M  V30 5230 H 510.503 -2.02996 -0.247579 0
M  V30 5231 H 508.658 -2.89361 -2.57583 0
M  V30 5232 H 509.072 -4.94586 -1.74599 0
M  V30 5233 H 510.546 -4.37977 -3.35977 0
M  V30 5234 H 511.023 -2.68737 -3.47386 0
M  V30 5235 H 511.629 -3.68158 -2.12931 0
M  V30 5236 N 509.944 0.496216 -1.49584 0
M  V30 5237 C 511.19 1.25189 -1.59548 0
M  V30 5238 C 511.523 1.9212 -0.283466 0
M  V30 5239 O 510.798 1.80947 0.713324 0
M  V30 5240 C 511.081 2.31516 -2.75812 0
M  V30 5241 C 510.934 1.69054 -4.16822 0
M  V30 5242 C 512.253 3.3304 -2.87702 0
M  V30 5243 H 509.372 0.45379 -0.580727 0
M  V30 5244 H 512.014 0.549327 -1.81886 0
M  V30 5245 H 510.164 2.91438 -2.56897 0
M  V30 5246 H 511.836 1.12923 -4.47265 0
M  V30 5247 H 510.079 0.994485 -4.22247 0
M  V30 5248 H 510.75 2.462 -4.94054 0
M  V30 5249 H 513.226 2.83114 -3.04936 0
M  V30 5250 H 512.102 4.04794 -3.7072 0
M  V30 5251 H 512.363 3.95655 -1.97255 0
M  V30 5252 N 511.423 1.38739 0.74761 0
M  V30 5253 C 512.67 1.35274 1.50689 0
M  V30 5254 C 512.998 -0.0553359 1.94421 0
M  V30 5255 O 512.253 -1.03365 1.66175 0
M  V30 5256 C 512.552 2.25992 2.7688 0
M  V30 5257 C 512.218 3.73854 2.5208 0
M  V30 5258 C 510.88 4.14145 2.45025 0
M  V30 5259 C 513.232 4.67427 2.30568 0
M  V30 5260 C 510.56 5.4609 2.14483 0
M  V30 5261 C 512.912 5.99635 2.01545 0
M  V30 5262 C 511.576 6.39004 1.92951 0
M  V30 5263 H 510.846 0.495003 0.55141 0
M  V30 5264 H 513.493 1.71145 0.859158 0
M  V30 5265 H 511.798 1.83196 3.46333 0
M  V30 5266 H 513.495 2.20611 3.34861 0
M  V30 5267 H 510.085 3.41913 2.58444 0
M  V30 5268 H 514.269 4.3714 2.34994 0
M  V30 5269 H 509.525 5.75528 2.06342 0
M  V30 5270 H 513.699 6.71678 1.83906 0
M  V30 5271 H 511.326 7.41165 1.6905 0
M  V30 5272 N 512.901 -0.976442 1.23707 0
M  V30 5273 C 514.148 -1.71827 1.07153 0
M  V30 5274 C 514.476 -1.9053 -0.390982 0
M  V30 5275 O 513.731 -1.45779 -1.30564 0
M  V30 5276 C 514.03 -3.11814 1.74662 0
M  V30 5277 C 513.696 -3.12978 3.24585 0
M  V30 5278 C 512.358 -3.13003 3.6549 0
M  V30 5279 C 514.71 -3.07986 4.20469 0
M  V30 5280 C 512.038 -3.05757 5.00729 0
M  V30 5281 C 514.39 -3.02282 5.55705 0
M  V30 5282 C 513.054 -3.00631 5.95968 0
M  V30 5283 H 512.324 -0.628758 0.392102 0
M  V30 5284 H 514.971 -1.14239 1.53693 0
M  V30 5285 H 513.276 -3.72812 1.20492 0
M  V30 5286 H 514.973 -3.67989 1.59328 0
M  V30 5287 H 511.563 -3.13718 2.92026 0
M  V30 5288 H 515.747 -3.07103 3.89874 0
M  V30 5289 H 511.003 -3.02834 5.31132 0
M  V30 5290 H 515.177 -2.97376 6.29714 0
M  V30 5291 H 512.804 -2.94771 7.00724 0
M  V30 5292 N 514.379 -1.04941 -1.1758 0
M  V30 5293 C 515.289 -0.658826 -2.25159 0
M  V30 5294 C 516.305 0.318941 -1.71052 0
M  V30 5295 O 517.481 0.171669 -2.00667 0
M  V30 5296 C 514.546 -0.0369522 -3.4668 0
M  V30 5297 C 513.607 -1.06484 -4.15884 0
M  V30 5298 C 512.84 -0.472551 -5.31604 0
M  V30 5299 O 513.063 0.718736 -5.65854 0
M  V30 5300 O 511.997 -1.20557 -5.89703 0
M  V30 5301 H 515.823 -1.55533 -2.60851 0
M  V30 5302 H 513.408 -0.820819 -1.24832 0
M  V30 5303 H 515.29 0.308784 -4.20267 0
M  V30 5304 H 513.965 0.833238 -3.12792 0
M  V30 5305 H 512.872 -1.46253 -3.44327 0
M  V30 5306 H 514.205 -1.9061 -4.53794 0
M  V30 5307 N 515.857 1.33968 -0.830081 0
M  V30 5308 C 517.106 1.97323 -0.417928 0
M  V30 5309 C 517.419 1.6652 1.02618 0
M  V30 5310 O 518.625 2.2342 1.54259 0
M  V30 5311 C 517.081 3.53099 -0.696359 0
M  V30 5312 C 516.689 3.92788 -2.15457 0
M  V30 5313 C 518.433 4.23049 -0.350724 0
M  V30 5314 C 516.34 5.41506 -2.37751 0
M  V30 5315 H 515.27 0.738409 -0.152541 0
M  V30 5316 H 517.921 1.52711 -1.01744 0
M  V30 5317 H 516.303 3.95991 -0.0265904 0
M  V30 5318 H 517.477 3.6098 -2.86408 0
M  V30 5319 H 515.792 3.35795 -2.46232 0
M  V30 5320 H 518.389 5.32403 -0.495036 0
M  V30 5321 H 518.732 4.10279 0.705476 0
M  V30 5322 H 519.265 3.85657 -0.975362 0
M  V30 5323 H 516.004 5.5927 -3.41903 0
M  V30 5324 H 515.524 5.74804 -1.7135 0
M  V30 5325 H 517.203 6.0828 -2.20465 0
M  V30 5326 N 517.335 0.585699 1.46312 0
M  V30 5327 C 518.584 0.0701192 2.01578 0
M  V30 5328 C 518.897 -1.29889 1.46247 0
M  V30 5329 O 520.103 -1.90598 1.93351 0
M  V30 5330 C 518.559 0.0747499 3.59822 0
M  V30 5331 C 518.167 1.44226 4.24149 0
M  V30 5332 C 519.911 -0.38673 4.22735 0
M  V30 5333 C 517.818 1.40446 5.74481 0
M  V30 5334 H 516.748 0.0224441 0.753666 0
M  V30 5335 H 519.399 0.737789 1.68015 0
M  V30 5336 H 517.781 -0.659144 3.90476 0
M  V30 5337 H 518.955 2.19612 4.05101 0
M  V30 5338 H 517.27 1.84401 3.73343 0
M  V30 5339 H 519.867 -0.433853 5.32937 0
M  V30 5340 H 520.21 -1.40489 3.91878 0
M  V30 5341 H 520.743 0.293195 3.96718 0
M  V30 5342 H 517.482 2.39952 6.10003 0
M  V30 5343 H 517.002 0.692845 5.95785 0
M  V30 5344 H 518.681 1.11865 6.37256 0
M  V30 5345 N 518.813 -1.54241 0.323641 0
M  V30 5346 C 519.723 -2.28033 -0.551205 0
M  V30 5347 C 520.739 -1.32388 -1.12913 0
M  V30 5348 O 521.915 -1.65403 -1.14908 0
M  V30 5349 C 518.98 -3.02382 -1.69606 0
M  V30 5350 C 518.041 -4.13612 -1.14993 0
M  V30 5351 C 517.274 -4.84407 -2.24022 0
M  V30 5352 O 517.497 -4.54716 -3.44368 0
M  V30 5353 O 516.431 -5.71312 -1.89436 0
M  V30 5354 H 520.257 -3.03662 0.048066 0
M  V30 5355 H 517.842 -1.49133 0.0893289 0
M  V30 5356 H 519.724 -3.48941 -2.36259 0
M  V30 5357 H 518.399 -2.29628 -2.28151 0
M  V30 5358 H 517.306 -3.71402 -0.448484 0
M  V30 5359 H 518.639 -4.8841 -0.609608 0
M  V30 5360 N 520.291 -0.0518155 -1.57515 0
M  V30 5361 C 521.707 0.304735 -1.56664 0
M  V30 5362 C 521.907 1.71395 -1.05953 0
M  V30 5363 O 520.963 2.42123 -0.716414 0
M  V30 5364 C 522.276 0.132614 -3.00407 0
M  V30 5365 C 523.824 0.20367 -3.12337 0
M  V30 5366 C 524.299 0.0600706 -4.57961 0
M  V30 5367 N 525.79 0.116326 -4.63054 0
M  V30 5368 C 526.525 0.0293363 -5.73392 0
M  V30 5369 N 526.021 -0.110038 -6.92713 0
M  V30 5370 N 527.814 0.0849651 -5.62036 0
M  V30 5371 H 519.965 -0.973056 -1.888 0
M  V30 5372 H 522.228 -0.377781 -0.869474 0
M  V30 5373 H 521.934 -0.839019 -3.41546 0
M  V30 5374 H 521.808 0.893376 -3.66468 0
M  V30 5375 H 524.195 1.16578 -2.71097 0
M  V30 5376 H 524.276 -0.587857 -2.48954 0
M  V30 5377 H 523.92 -0.898715 -4.99886 0
M  V30 5378 H 523.85 0.87075 -5.19351 0
M  V30 5379 H 526.341 0.22327 -3.7724 0
M  V30 5380 H 526.654 -0.169104 -7.72615 0
M  V30 5381 H 524.999 -0.145132 -6.94848 0
M  V30 5382 H 528.19 0.192411 -4.67704 0
M  V30 5383 H 528.363 0.0137131 -6.47999 0
M  V30 5384 N 521.769 1.56035 0.221574 0
M  V30 5385 C 522.719 1.8881 1.27807 0
M  V30 5386 C 523.703 0.751177 1.42289 0
M  V30 5387 O 524.895 1.01359 1.45104 0
M  V30 5388 C 522.024 2.20828 2.6285 0
M  V30 5389 C 521.11 3.40912 2.52269 0
M  V30 5390 N 521.501 4.59531 2.1134 0
M  V30 5391 C 519.799 3.44526 2.83228 0
M  V30 5392 C 520.5 5.41689 2.1201 0
M  V30 5393 N 519.476 4.814 2.52497 0
M  V30 5394 H 523.278 2.78036 0.952529 0
M  V30 5395 H 520.792 1.566 0.430134 0
M  V30 5396 H 522.789 2.42483 3.39127 0
M  V30 5397 H 521.449 1.32914 2.9625 0
M  V30 5398 H 522.46 4.8469 1.82472 0
M  V30 5399 H 519.137 2.66956 3.21 0
M  V30 5400 H 520.527 6.46643 1.82491 0
M  V30 5401 N 523.247 -0.488276 1.49845 0
M  V30 5402 C 524.495 -1.23911 1.59657 0
M  V30 5403 C 524.816 -1.92816 0.291005 0
M  V30 5404 O 524.086 -1.83328 -0.690485 0
M  V30 5405 H 522.666 -0.460357 0.588286 0
M  V30 5406 H 525.328 -0.564794 1.86537 0
M  V30 5407 H 524.424 -1.99625 2.39909 0
M  V30 5408 N 524.725 -1.39134 -0.740242 0
M  V30 5409 C 525.95 -1.39518 -1.53459 0
M  V30 5410 C 526.375 0.00968883 -1.88098 0
M  V30 5411 O 525.733 0.995312 -1.51536 0
M  V30 5412 C 525.781 -2.26981 -2.802 0
M  V30 5413 O 524.885 -1.69609 -3.75908 0
M  V30 5414 H 524.226 -0.475328 -0.463637 0
M  V30 5415 H 526.756 -1.83064 -0.913717 0
M  V30 5416 H 526.766 -2.41309 -3.28989 0
M  V30 5417 H 525.441 -3.29081 -2.5432 0
M  V30 5418 H 524.018 -1.64495 -3.34658 0
M  V30 5419 N 526.204 0.969867 -1.24223 0
M  V30 5420 C 527.137 2.06279 -0.975926 0
M  V30 5421 C 528.115 1.62353 0.0895385 0
M  V30 5422 O 529.299 1.88442 -0.0469418 0
M  V30 5423 C 526.426 3.35391 -0.472315 0
M  V30 5424 C 525.472 3.98266 -1.526 0
M  V30 5425 S 526.305 4.36172 -3.10667 0
M  V30 5426 C 527.461 5.68423 -2.62003 0
M  V30 5427 H 527.694 2.28551 -1.90137 0
M  V30 5428 H 525.227 1.10748 -1.07584 0
M  V30 5429 H 527.185 4.10068 -0.188376 0
M  V30 5430 H 525.846 3.1111 0.432378 0
M  V30 5431 H 525.039 4.91307 -1.12399 0
M  V30 5432 H 524.641 3.30009 -1.75983 0
M  V30 5433 H 526.933 6.45842 -2.0468 0
M  V30 5434 H 527.876 6.13478 -3.53625 0
M  V30 5435 H 528.284 5.26928 -2.02502 0
M  V30 5436 N 527.682 1.05563 1.17022 0
M  V30 5437 C 528.93 0.76642 1.87004 0
M  V30 5438 C 529.251 -0.708854 1.8166 0
M  V30 5439 O 528.521 -1.51242 1.2451 0
M  V30 5440 H 527.101 0.280516 0.692329 0
M  V30 5441 H 529.763 1.33557 1.41945 0
M  V30 5442 H 528.859 1.08472 2.92644 0
M  V30 5443 N 529.16 -1.33526 0.837174 0
M  V30 5444 C 530.407 -1.97837 0.432064 0
M  V30 5445 C 530.735 -1.66324 -1.00829 0
M  V30 5446 O 529.99 -0.93448 -1.71948 0
M  V30 5447 C 530.289 -3.52367 0.597675 0
M  V30 5448 C 529.955 -4.03826 2.00587 0
M  V30 5449 C 528.617 -4.1759 2.39106 0
M  V30 5450 C 530.969 -4.31333 2.92576 0
M  V30 5451 C 528.297 -4.56195 3.68921 0
M  V30 5452 C 530.649 -4.7139 4.2187 0
M  V30 5453 C 529.313 -4.8336 4.60347 0
M  V30 5454 H 528.583 -0.723937 0.158104 0
M  V30 5455 H 531.23 -1.5923 1.06387 0
M  V30 5456 H 529.535 -3.91624 -0.117452 0
M  V30 5457 H 531.232 -4.00126 0.26454 0
M  V30 5458 H 527.822 -3.93586 1.69671 0
M  V30 5459 H 532.006 -4.20224 2.64056 0
M  V30 5460 H 527.262 -4.63655 3.9854 0
M  V30 5461 H 531.436 -4.91631 4.93226 0
M  V30 5462 H 529.063 -5.1303 5.60985 0
M  V30 5463 N 530.638 -0.59345 -1.46 0
M  V30 5464 C 531.886 -0.082988 -2.0193 0
M  V30 5465 C 532.207 1.28569 -1.46612 0
M  V30 5466 O 531.477 1.84629 -0.654909 0
M  V30 5467 H 530.057 -0.0276882 -0.746487 0
M  V30 5468 H 532.719 -0.771657 -1.78973 0
M  V30 5469 H 531.815 -0.022079 -3.12092 0
M  V30 5470 N 532.116 1.54067 -0.331816 0
M  V30 5471 C 533.063 2.24623 0.530372 0
M  V30 5472 C 534.033 1.24009 1.10503 0
M  V30 5473 O 535.218 1.52712 1.14384 0
M  V30 5474 C 532.358 3.01374 1.68129 0
M  V30 5475 C 531.471 4.16821 1.13507 0
M  V30 5476 C 530.606 4.81085 2.25234 0
M  V30 5477 C 529.645 5.88621 1.67903 0
M  V30 5478 N 528.782 6.46713 2.73326 0
M  V30 5479 H 533.622 2.97898 -0.0778607 0
M  V30 5480 H 531.159 1.47014 -0.0501965 0
M  V30 5481 H 533.117 3.44125 2.35868 0
M  V30 5482 H 531.747 2.30419 2.26069 0
M  V30 5483 H 530.799 3.78796 0.348979 0
M  V30 5484 H 532.111 4.94203 0.675633 0
M  V30 5485 H 531.265 5.26846 3.00862 0
M  V30 5486 H 530.004 4.03102 2.74518 0
M  V30 5487 H 529.009 5.42254 0.907773 0
M  V30 5488 H 530.234 6.68506 1.19487 0
M  V30 5489 H 528.18 5.71599 3.21886 0
M  V30 5490 H 528.097 7.19532 2.3197 0
M  V30 5491 H 529.365 6.97129 3.48758 0
M  V30 5492 N 533.594 0.0601682 1.57485 0
M  V30 5493 C 534.842 -0.610386 1.92662 0
M  V30 5494 C 535.163 -1.70849 0.939981 0
M  V30 5495 O 534.433 -1.95895 -0.0137455 0
M  V30 5496 H 533.013 -0.228457 0.711208 0
M  V30 5497 H 535.675 0.115288 1.94559 0
M  V30 5498 H 534.771 -1.0432 2.94149 0
M  V30 5499 N 535.072 -1.5615 -0.213296 0
M  V30 5500 C 536.02 -1.93953 -1.28394 0
M  V30 5501 C 537.014 -0.822592 -1.48087 0
M  V30 5502 O 538.22 -1.00748 -1.49164 0
M  V30 5503 H 534.595 -0.61648 -0.430646 0
M  V30 5504 H 536.566 -2.83275 -0.937977 0
M  V30 5505 C 535.315 -2.27969 -2.62537 0
M  V30 5506 H 534.638 -3.13432 -2.48194 0
M  V30 5507 H 536.078 -2.58297 -3.36242 0
M  V30 5508 C 534.537 -1.10775 -3.18167 0
M  V30 5509 O 535.067 -0.373201 -3.99963 0
M  V30 5510 N 533.273 -0.889377 -2.76656 0
M  V30 5511 H 532.82 -1.48843 -2.10246 0
M  V30 5512 H 532.778 -0.107 -3.14218 0
M  V30 5513 N 536.55 0.480323 -1.50102 0
M  V30 5514 C 537.797 1.23307 -1.60629 0
M  V30 5515 C 538.125 1.92135 -0.302375 0
M  V30 5516 O 537.38 1.82321 0.711154 0
M  V30 5517 C 537.679 2.30708 -2.72963 0
M  V30 5518 C 537.345 1.79195 -4.13763 0
M  V30 5519 C 536.007 1.64867 -4.52076 0
M  V30 5520 C 538.359 1.40878 -5.018 0
M  V30 5521 C 535.687 1.10631 -5.76175 0
M  V30 5522 C 538.039 0.880872 -6.26437 0
M  V30 5523 C 536.703 0.724146 -6.6356 0
M  V30 5524 H 535.973 0.451211 -0.587784 0
M  V30 5525 H 538.62 0.53051 -1.84005 0
M  V30 5526 H 536.925 3.06834 -2.43639 0
M  V30 5527 H 538.622 2.88692 -2.78313 0
M  V30 5528 H 535.212 1.91313 -3.83533 0
M  V30 5529 H 539.396 1.50786 -4.7284 0
M  V30 5530 H 534.652 0.972263 -6.0362 0
M  V30 5531 H 538.826 0.575269 -6.9402 0
M  V30 5532 H 536.453 0.301722 -7.59601 0
M  V30 5533 N 538.028 1.39524 0.732853 0
M  V30 5534 C 538.975 1.38416 1.84688 0
M  V30 5535 C 539.945 0.243539 1.64305 0
M  V30 5536 O 541.13 0.438979 1.85681 0
M  V30 5537 C 538.27 1.23555 3.22224 0
M  V30 5538 C 537.383 2.47179 3.54298 0
M  V30 5539 C 536.518 2.2489 4.81246 0
M  V30 5540 C 535.557 3.44178 5.0617 0
M  V30 5541 N 534.694 3.21192 6.24323 0
M  V30 5542 H 539.534 2.33645 1.84971 0
M  V30 5543 H 537.071 1.16059 0.903804 0
M  V30 5544 H 539.029 1.12949 4.0162 0
M  V30 5545 H 537.659 0.31954 3.21215 0
M  V30 5546 H 536.711 2.68379 2.69587 0
M  V30 5547 H 538.023 3.36022 3.68633 0
M  V30 5548 H 537.177 2.11538 5.68627 0
M  V30 5549 H 535.916 1.33443 4.69089 0
M  V30 5550 H 534.921 3.58025 4.17251 0
M  V30 5551 H 536.146 4.36528 5.20212 0
M  V30 5552 H 534.092 2.32413 6.1345 0
M  V30 5553 H 534.009 4.03594 6.39256 0
M  V30 5554 H 535.277 3.1154 7.14537 0
M  V30 5555 N 539.506 -0.963266 1.24736 0
M  V30 5556 C 540.469 -2.04013 1.04457 0
M  V30 5557 C 541.469 -1.608 0.000335555 0
M  V30 5558 O 542.659 -1.72515 0.241719 0
M  V30 5559 C 539.791 -3.35858 0.584162 0
M  V30 5560 H 540.984 -2.23436 2.00041 0
M  V30 5561 H 538.537 -1.13914 1.07021 0
M  V30 5562 H 539.272 -3.22128 -0.374673 0
M  V30 5563 H 539.057 -3.68568 1.3379 0
M  V30 5564 H 540.547 -4.1502 0.463451 0
M  V30 5565 N 540.985 -1.06182 -1.16461 0
M  V30 5566 C 541.915 -0.692861 -2.22984 0
M  V30 5567 C 542.896 0.314122 -1.67174 0
M  V30 5568 O 544.081 0.189499 -1.93273 0
M  V30 5569 C 541.211 -0.07732 -3.47214 0
M  V30 5570 C 540.165 -1.01015 -4.15909 0
M  V30 5571 C 539.491 -0.257973 -5.34077 0
M  V30 5572 C 540.791 -2.33868 -4.67015 0
M  V30 5573 H 542.485 -1.58343 -2.54102 0
M  V30 5574 H 540.031 -0.76279 -1.22137 0
M  V30 5575 H 541.984 0.19266 -4.20959 0
M  V30 5576 H 540.708 0.848254 -3.15392 0
M  V30 5577 H 539.367 -1.26486 -3.44088 0
M  V30 5578 H 539.015 0.670684 -4.98509 0
M  V30 5579 H 538.715 -0.879638 -5.80979 0
M  V30 5580 H 540.239 0.00448788 -6.106 0
M  V30 5581 H 541.653 -2.1279 -5.32347 0
M  V30 5582 H 540.05 -2.91522 -5.24533 0
M  V30 5583 H 541.12 -2.97019 -3.83286 0
M  V30 5584 N 542.463 1.3308 -0.844243 0
M  V30 5585 C 543.71 1.97605 -0.44255 0
M  V30 5586 C 544.038 1.66856 0.999458 0
M  V30 5587 O 543.293 0.943586 1.7145 0
M  V30 5588 C 543.592 3.52045 -0.616354 0
M  V30 5589 C 543.258 4.02757 -2.02726 0
M  V30 5590 C 541.92 4.16316 -2.41317 0
M  V30 5591 C 544.272 4.29776 -2.9486 0
M  V30 5592 C 541.6 4.54232 -3.71335 0
M  V30 5593 C 543.952 4.69146 -4.24364 0
M  V30 5594 C 542.616 4.80911 -4.62904 0
M  V30 5595 H 541.886 0.723088 -0.161941 0
M  V30 5596 H 544.533 1.58663 -1.0723 0
M  V30 5597 H 542.838 3.91681 0.0966812 0
M  V30 5598 H 544.535 3.99981 -0.285756 0
M  V30 5599 H 541.125 3.9268 -1.71756 0
M  V30 5600 H 545.309 4.18818 -2.6628 0
M  V30 5601 H 540.565 4.61535 -4.00993 0
M  V30 5602 H 544.739 4.89008 -4.95827 0
M  V30 5603 H 542.366 5.10048 -5.63698 0
M  V30 5604 N 543.941 0.601185 1.45683 0
M  V30 5605 C 544.851 -0.123395 2.34275 0
M  V30 5606 C 545.867 -0.86702 1.5086 0
M  V30 5607 O 547.043 -0.826049 1.8368 0
M  V30 5608 C 544.108 -1.11237 3.2837 0
M  V30 5609 C 543.169 -0.371405 4.2769 0
M  V30 5610 C 542.402 -1.31327 5.1729 0
M  V30 5611 O 542.625 -2.55078 5.10188 0
M  V30 5612 O 541.559 -0.813811 5.96373 0
M  V30 5613 H 545.385 0.604483 2.97623 0
M  V30 5614 H 542.97 0.361477 1.44961 0
M  V30 5615 H 544.852 -1.68214 3.8637 0
M  V30 5616 H 543.527 -1.82139 2.67595 0
M  V30 5617 H 542.434 0.24067 3.73325 0
M  V30 5618 H 543.767 0.296998 4.91303 0
M  V30 5619 N 545.419 -1.53889 0.339982 0
M  V30 5620 C 546.382 -2.23547 -0.50592 0
M  V30 5621 C 547.382 -1.23445 -1.03044 0
M  V30 5622 O 548.572 -1.47909 -0.920253 0
M  V30 5623 C 545.704 -2.95234 -1.7044 0
M  V30 5624 H 546.897 -2.99722 0.103247 0
M  V30 5625 H 544.45 -1.56033 0.0912804 0
M  V30 5626 H 545.185 -2.23236 -2.35236 0
M  V30 5627 H 544.97 -3.68654 -1.33553 0
M  V30 5628 H 546.46 -3.48258 -2.30447 0
M  V30 5629 N 546.897 -0.0685191 -1.57451 0
M  V30 5630 C 548.146 0.600898 -1.92541 0
M  V30 5631 C 548.459 1.70967 -0.950239 0
M  V30 5632 O 549.665 2.43844 -1.19384 0
M  V30 5633 C 548.121 1.12019 -3.42023 0
M  V30 5634 C 547.729 0.0426028 -4.4798 0
M  V30 5635 C 549.473 1.76386 -3.86119 0
M  V30 5636 C 547.38 0.575759 -5.88591 0
M  V30 5637 H 546.31 0.228225 -0.71863 0
M  V30 5638 H 548.961 -0.140223 -1.82963 0
M  V30 5639 H 547.343 1.91418 -3.46663 0
M  V30 5640 H 548.517 -0.73182 -4.54952 0
M  V30 5641 H 546.832 -0.504642 -4.13331 0
M  V30 5642 H 549.429 2.17302 -4.88553 0
M  V30 5643 H 549.772 2.62255 -3.23308 0
M  V30 5644 H 550.305 1.03615 -3.84069 0
M  V30 5645 H 547.044 -0.245691 -6.55039 0
M  V30 5646 H 546.564 1.31778 -5.85145 0
M  V30 5647 H 548.243 1.0532 -6.3837 0
M  V30 5648 N 548.375 1.56261 0.205012 0
M  V30 5649 C 549.285 1.96944 1.27476 0
M  V30 5650 C 550.301 0.875636 1.50362 0
M  V30 5651 O 551.477 1.18058 1.6317 0
M  V30 5652 C 548.542 2.29219 2.60115 0
M  V30 5653 C 547.603 3.52255 2.45387 0
M  V30 5654 C 546.836 3.8298 3.71701 0
M  V30 5655 O 547.059 3.15138 4.75441 0
M  V30 5656 O 545.993 4.76435 3.67823 0
M  V30 5657 H 549.819 2.88144 0.959527 0
M  V30 5658 H 547.404 1.43686 0.409217 0
M  V30 5659 H 549.286 2.51098 3.3842 0
M  V30 5660 H 547.961 1.4119 2.91285 0
M  V30 5661 H 546.868 3.35635 1.65227 0
M  V30 5662 H 548.201 4.40719 2.19152 0
M  V30 5663 N 549.853 -0.472356 1.50355 0
M  V30 5664 C 551.269 -0.806001 1.37753 0
M  V30 5665 C 551.469 -1.968 0.432649 0
M  V30 5666 O 550.525 -2.52189 -0.12519 0
M  V30 5667 C 551.838 -1.11926 2.79093 0
M  V30 5668 C 553.386 -1.22579 2.87999 0
M  V30 5669 C 553.861 -1.57218 4.3017 0
M  V30 5670 N 555.352 -1.64212 4.33115 0
M  V30 5671 C 556.087 -1.92517 5.40116 0
M  V30 5672 N 555.583 -2.1885 6.57325 0
M  V30 5673 N 557.376 -1.94008 5.27558 0
M  V30 5674 H 549.527 0.293451 2.10363 0
M  V30 5675 H 551.79 0.0687672 0.945503 0
M  V30 5676 H 551.496 -0.338504 3.50067 0
M  V30 5677 H 551.37 -2.05577 3.16256 0
M  V30 5678 H 553.757 -1.99722 2.17245 0
M  V30 5679 H 553.838 -0.269107 2.54381 0
M  V30 5680 H 553.482 -0.806154 5.01461 0
M  V30 5681 H 553.412 -2.54034 4.61275 0
M  V30 5682 H 555.903 -1.45906 3.48597 0
M  V30 5683 H 556.216 -2.39718 7.3468 0
M  V30 5684 H 554.561 -2.16245 6.60502 0
M  V30 5685 H 557.752 -1.72931 4.34986 0
M  V30 5686 H 557.925 -2.15731 6.11035 0
M  V30 5687 N 551.331 -1.39911 -0.725443 0
M  V30 5688 C 552.241 -1.41688 -1.8698 0
M  V30 5689 C 553.257 -0.310579 -1.71206 0
M  V30 5690 O 554.433 -0.55359 -1.93642 0
M  V30 5691 C 551.498 -1.26811 -3.22676 0
M  V30 5692 C 550.559 -2.47497 -3.50776 0
M  V30 5693 C 549.792 -2.3332 -4.79997 0
M  V30 5694 O 550.015 -1.34175 -5.54394 0
M  V30 5695 O 548.949 -3.22498 -5.08211 0
M  V30 5696 H 552.775 -2.38171 -1.88436 0
M  V30 5697 H 550.36 -1.21128 -0.874548 0
M  V30 5698 H 552.242 -1.20684 -4.03749 0
M  V30 5699 H 550.917 -0.334289 -3.21969 0
M  V30 5700 H 549.824 -2.59201 -2.69751 0
M  V30 5701 H 551.157 -3.39606 -3.5627 0
M  V30 5702 N 552.809 0.956637 -1.25245 0
M  V30 5703 C 553.741 2.05628 -1.01242 0
M  V30 5704 C 554.754 1.62785 0.0219579 0
M  V30 5705 O 555.943 1.77184 -0.216365 0
M  V30 5706 C 553.043 3.35069 -0.508161 0
M  V30 5707 C 552.216 4.06761 -1.60823 0
M  V30 5708 C 551.275 5.14473 -1.1047 0
M  V30 5709 O 550.301 5.40033 -1.79868 0
M  V30 5710 N 551.503 5.80474 0.0550773 0
M  V30 5711 H 554.268 2.2679 -1.95925 0
M  V30 5712 H 551.829 1.12505 -1.16423 0
M  V30 5713 H 553.821 4.044 -0.155819 0
M  V30 5714 H 552.391 3.10694 0.344683 0
M  V30 5715 H 551.611 3.31555 -2.13224 0
M  V30 5716 H 552.899 4.51418 -2.34733 0
M  V30 5717 H 552.297 5.62125 0.635004 0
M  V30 5718 H 550.854 6.50868 0.348469 0
M  V30 5719 N 554.287 1.06798 1.15896 0
M  V30 5720 C 555.197 0.694564 2.24083 0
M  V30 5721 C 556.213 -0.291687 1.71538 0
M  V30 5722 O 557.389 -0.139723 2.00915 0
M  V30 5723 C 554.454 0.0921014 3.46578 0
M  V30 5724 C 553.515 1.13087 4.14137 0
M  V30 5725 C 552.748 0.557064 5.30785 0
M  V30 5726 O 552.971 -0.628623 5.66925 0
M  V30 5727 O 551.905 1.29924 5.8771 0
M  V30 5728 H 555.731 1.59663 2.58344 0
M  V30 5729 H 553.316 0.840575 1.2351 0
M  V30 5730 H 555.198 -0.241884 4.20705 0
M  V30 5731 H 553.873 -0.78337 3.14078 0
M  V30 5732 H 552.78 1.51712 3.41957 0
M  V30 5733 H 554.113 1.97805 4.50704 0
M  V30 5734 N 555.766 -1.3263 0.851289 0
M  V30 5735 C 556.713 -2.28952 0.291469 0
M  V30 5736 C 557.683 -1.54897 -0.599676 0
M  V30 5737 O 558.868 -1.83137 -0.535305 0
M  V30 5738 C 556.008 -3.41206 -0.516992 0
M  V30 5739 C 555.121 -4.30148 0.399566 0
M  V30 5740 C 554.256 -5.29527 -0.4212 0
M  V30 5741 C 553.295 -6.10112 0.492969 0
M  V30 5742 N 552.432 -7.01499 -0.290414 0
M  V30 5743 H 557.272 -2.76228 1.11813 0
M  V30 5744 H 554.809 -1.35907 0.562826 0
M  V30 5745 H 556.767 -4.05005 -1.00132 0
M  V30 5746 H 555.397 -2.9509 -1.30851 0
M  V30 5747 H 554.449 -3.66959 1.00227 0
M  V30 5748 H 555.761 -4.8649 1.1013 0
M  V30 5749 H 554.915 -5.98914 -0.968832 0
M  V30 5750 H 553.654 -4.73794 -1.15632 0
M  V30 5751 H 552.659 -5.39632 1.05251 0
M  V30 5752 H 553.884 -6.6793 1.22664 0
M  V30 5753 H 551.83 -6.48199 -1.00868 0
M  V30 5754 H 551.747 -7.55178 0.352354 0
M  V30 5755 H 553.015 -7.75176 -0.819882 0
M  V30 5756 N 557.244 -0.608902 -1.45362 0
M  V30 5757 C 558.66 -0.272659 -1.57254 0
M  V30 5758 C 558.86 1.22477 -1.60005 0
M  V30 5759 O 557.916 2.00785 -1.53106 0
M  V30 5760 C 559.229 -0.944991 -2.85465 0
M  V30 5761 C 560.777 -0.921033 -2.99142 0
M  V30 5762 C 561.252 -1.5734 -4.30126 0
M  V30 5763 N 562.743 -1.53895 -4.36887 0
M  V30 5764 C 563.478 -2.01286 -5.36909 0
M  V30 5765 N 562.974 -2.56768 -6.43461 0
M  V30 5766 N 564.767 -1.92046 -5.28275 0
M  V30 5767 H 556.918 -1.58117 -1.4182 0
M  V30 5768 H 559.181 -0.662437 -0.678146 0
M  V30 5769 H 558.887 -1.99941 -2.89338 0
M  V30 5770 H 558.761 -0.469079 -3.74272 0
M  V30 5771 H 561.148 0.124846 -2.94836 0
M  V30 5772 H 561.229 -1.43522 -2.11743 0
M  V30 5773 H 560.873 -2.61862 -4.35191 0
M  V30 5774 H 560.803 -1.03422 -5.16344 0
M  V30 5775 H 563.294 -1.13366 -3.60495 0
M  V30 5776 H 563.607 -2.9072 -7.16032 0
M  V30 5777 H 561.952 -2.60808 -6.44208 0
M  V30 5778 H 565.143 -1.48439 -4.43941 0
M  V30 5779 H 565.316 -2.29293 -6.06077 0
M  V30 5780 N 558.722 1.53707 -0.348139 0
M  V30 5781 C 559.97 2.00591 0.246478 0
M  V30 5782 C 560.291 1.23753 1.50699 0
M  V30 5783 O 559.561 0.345964 1.92821 0
M  V30 5784 H 558.141 0.741053 0.0940679 0
M  V30 5785 H 560.803 1.89139 -0.470354 0
M  V30 5786 H 559.899 3.08297 0.485714 0
M  V30 5787 N 560.2 0.0768682 1.57412 0
M  V30 5788 C 561.148 -0.906229 2.1422 0
M  V30 5789 C 562.142 -1.30477 1.08037 0
M  V30 5790 O 563.348 -1.28143 1.2641 0
M  V30 5791 H 559.723 -0.310207 0.685037 0
M  V30 5792 H 561.694 -0.402228 2.95677 0
M  V30 5793 C 560.443 -2.16245 2.72274 0
M  V30 5794 H 559.766 -1.86463 3.53655 0
M  V30 5795 H 561.206 -2.83134 3.15613 0
M  V30 5796 C 559.665 -2.92437 1.67279 0
M  V30 5797 O 560.195 -3.86322 1.10081 0
M  V30 5798 N 558.401 -2.55637 1.38195 0
M  V30 5799 H 557.948 -1.79363 1.84897 0
M  V30 5800 H 557.906 -3.06919 0.681787 0
M  V30 5801 N 561.678 -1.56367 -0.196722 0
M  V30 5802 C 562.608 -1.97442 -1.24655 0
M  V30 5803 C 563.589 -0.846147 -1.47561 0
M  V30 5804 O 564.774 -1.11035 -1.59326 0
M  V30 5805 C 561.904 -2.31253 -2.59112 0
M  V30 5806 C 560.858 -3.46804 -2.50821 0
M  V30 5807 C 560.184 -3.66286 -3.89536 0
M  V30 5808 C 561.484 -4.8104 -2.03465 0
M  V30 5809 H 563.178 -2.85388 -0.905216 0
M  V30 5810 H 560.724 -1.37304 -0.434002 0
M  V30 5811 H 562.677 -2.58583 -3.32736 0
M  V30 5812 H 561.401 -1.40188 -2.94983 0
M  V30 5813 H 560.06 -3.19563 -1.79653 0
M  V30 5814 H 559.708 -2.72555 -4.22756 0
M  V30 5815 H 559.408 -4.4402 -3.84864 0
M  V30 5816 H 560.932 -3.9599 -4.64784 0
M  V30 5817 H 562.346 -5.07411 -2.66846 0
M  V30 5818 H 560.743 -5.62232 -2.09798 0
M  V30 5819 H 561.813 -4.74732 -0.98781 0
M  V30 5820 O 563.195 0.341958 -1.57838 0
M  V30 5821 H 563.886 0.991482 -1.66401 0
M  V30 END ATOM
M  V30 BEGIN BOND
M  V30 END BOND
M  V30 END CTAB
M  END
$$$$
