drugbank_target|Q15118 [Pyruvate dehydrogenase (acetyl-transferring)] kinase isozyme 1, mitochondrial (DB07403; DB08809)
 OpenBabel12092120423D

  0  0  0     0  0            999 V3000
M  V30 BEGIN CTAB
M  V30 COUNTS 6908 6993 0 0 0
M  V30 BEGIN ATOM
M  V30 1 H -0.908 1.98254 -0.117106 0
M  V30 2 N 0 1.576 0 0
M  V30 3 C 0.933 2.03868 1.02534 0
M  V30 4 C 1.911 0.928543 1.3348 0
M  V30 5 O 3.095 1.19667 1.45644 0
M  V30 6 C 0.222 2.43627 2.35294 0
M  V30 7 C -0.732 3.65373 2.2001 0
M  V30 8 S 0.101 5.13292 1.52614 0
M  V30 9 C 1.257 5.56322 2.86805 0
M  V30 10 H 1.49 2.90518 0.631377 0
M  V30 11 H -0.977 1.52953 0.210867 0
M  V30 12 H 0.981 2.67203 3.11629 0
M  V30 13 H -0.358 1.57376 2.7183 0
M  V30 14 H -1.165 3.90944 3.18086 0
M  V30 15 H -1.563 3.418 1.51819 0
M  V30 16 H 0.729 5.58782 3.83104 0
M  V30 17 H 1.672 6.56266 2.65933 0
M  V30 18 H 2.08 4.83886 2.90714 0
M  V30 19 N 1.4781 -0.272755 1.55222 0
M  V30 20 C 2.8941 -0.619959 1.47067 0
M  V30 21 C 3.0941 -1.895 0.684978 0
M  V30 22 O 2.1501 -2.51675 0.203931 0
M  V30 23 C 3.4631 -0.746693 2.91282 0
M  V30 24 C 5.0111 -0.840731 3.01497 0
M  V30 25 C 5.4861 -0.99924 4.46967 0
M  V30 26 N 6.9771 -1.06476 4.50796 0
M  V30 27 C 7.7121 -1.20621 5.6057 0
M  V30 28 N 7.2081 -1.31483 6.80209 0
M  V30 29 N 9.0011 -1.23733 5.48312 0
M  V30 30 H 1.1521 0.564606 2.04758 0
M  V30 31 H 3.4151 0.191177 0.928523 0
M  V30 32 H 3.1211 0.119753 3.51496 0
M  V30 33 H 2.9951 -1.6269 3.40311 0
M  V30 34 H 5.3821 -1.69764 2.41379 0
M  V30 35 H 5.4631 0.0640874 2.5572 0
M  V30 36 H 5.1071 -0.146984 5.07687 0
M  V30 37 H 5.0371 -1.91871 4.90401 0
M  V30 38 H 7.5281 -0.993196 3.64615 0
M  V30 39 H 7.8411 -1.42111 7.59621 0
M  V30 40 H 6.1861 -1.28487 6.8302 0
M  V30 41 H 9.3771 -1.14877 4.53785 0
M  V30 42 H 9.5501 -1.34412 6.33906 0
M  V30 43 N 2.9562 -1.48159 -0.537278 0
M  V30 44 C 3.8862 -1.65029 -1.6519 0
M  V30 45 C 4.8672 -0.499281 -1.62607 0
M  V30 46 O 6.0522 -0.730972 -1.79918 0
M  V30 47 C 3.1822 -1.68303 -3.03795 0
M  V30 48 C 2.1362 -2.8283 -3.21234 0
M  V30 49 C 1.4622 -2.71189 -4.60826 0
M  V30 50 C 2.7622 -4.24211 -3.04701 0
M  V30 51 H 4.4562 -2.58341 -1.51328 0
M  V30 52 H 2.0022 -1.24325 -0.726585 0
M  V30 53 H 3.9552 -1.78693 -3.81637 0
M  V30 54 H 2.6792 -0.715635 -3.18663 0
M  V30 55 H 1.3382 -2.71983 -2.45807 0
M  V30 56 H 0.9862 -1.72435 -4.7252 0
M  V30 57 H 0.6862 -3.48035 -4.7344 0
M  V30 58 H 2.2102 -2.83537 -5.40777 0
M  V30 59 H 3.6242 -4.3593 -3.72341 0
M  V30 60 H 2.0212 -5.01998 -3.28813 0
M  V30 61 H 3.0912 -4.41184 -2.01209 0
M  V30 62 N 4.4343 0.785586 -1.36625 0
M  V30 63 C 5.3973 1.87999 -1.31107 0
M  V30 64 C 6.3973 1.59316 -0.217959 0
M  V30 65 O 7.5873 1.67656 -0.472977 0
M  V30 66 C 4.7193 3.24861 -1.03334 0
M  V30 67 H 5.9123 1.94307 -2.2844 0
M  V30 68 H 3.4653 0.983813 -1.21453 0
M  V30 69 H 4.2003 3.24235 -0.0647432 0
M  V30 70 H 3.9853 3.4707 -1.82441 0
M  V30 71 H 5.4753 4.04929 -1.02088 0
M  V30 72 N 5.9124 1.20967 1.01018 0
M  V30 73 C 7.3284 0.965905 1.27053 0
M  V30 74 C 7.5284 -0.350785 1.98423 0
M  V30 75 O 6.5844 -1.07773 2.28344 0
M  V30 76 C 7.8974 2.15294 2.09926 0
M  V30 77 C 9.4454 2.19463 2.23171 0
M  V30 78 C 9.9204 3.3767 3.09424 0
M  V30 79 N 11.4114 3.37724 3.17012 0
M  V30 80 C 12.1464 4.25837 3.83993 0
M  V30 81 N 11.6424 5.24138 4.53047 0
M  V30 82 N 13.4354 4.1366 3.80581 0
M  V30 83 H 5.5864 2.0565 0.531194 0
M  V30 84 H 7.8494 0.90024 0.297106 0
M  V30 85 H 7.5554 3.10684 1.64828 0
M  V30 86 H 7.4294 2.13923 3.10672 0
M  V30 87 H 9.8164 1.24632 2.6749 0
M  V30 88 H 9.8974 2.2488 1.21912 0
M  V30 89 H 9.5414 4.32791 2.65808 0
M  V30 90 H 9.4714 3.29491 4.10784 0
M  V30 91 H 11.9624 2.6658 2.6785 0
M  V30 92 H 12.2754 5.87684 5.01844 0
M  V30 93 H 10.6204 5.28068 4.5185 0
M  V30 94 H 13.8114 3.36127 3.25785 0
M  V30 95 H 13.9844 4.82538 4.32505 0
M  V30 96 N 7.3905 -1.2043 1.01659 0
M  V30 97 C 8.3205 -2.25466 0.607226 0
M  V30 98 C 9.3015 -1.65853 -0.377716 0
M  V30 99 O 10.4865 -1.92409 -0.263149 0
M  V30 100 C 7.6165 -3.47256 -0.0552949 0
M  V30 101 C 6.5705 -4.19462 0.850632 0
M  V30 102 C 5.8965 -5.34673 0.0538859 0
M  V30 103 C 7.1965 -4.75603 2.15868 0
M  V30 104 H 8.8905 -2.59962 1.48526 0
M  V30 105 H 6.4365 -1.2496 0.715605 0
M  V30 106 H 8.3895 -4.19917 -0.353233 0
M  V30 107 H 7.1135 -3.11924 -0.968045 0
M  V30 108 H 5.7725 -3.48667 1.13257 0
M  V30 109 H 5.4205 -4.95585 -0.860514 0
M  V30 110 H 5.1205 -5.83913 0.657192 0
M  V30 111 H 6.6445 -6.10138 -0.237598 0
M  V30 112 H 8.0585 -5.40083 1.92311 0
M  V30 113 H 6.4555 -5.3528 2.71284 0
M  V30 114 H 7.5255 -3.94346 2.82169 0
M  V30 115 N 8.8686 -0.792821 -1.36206 0
M  V30 116 C 9.7986 -0.207853 -2.32573 0
M  V30 117 C 10.7796 0.659055 -1.56813 0
M  V30 118 O 11.9646 0.592176 -1.84951 0
M  V30 119 C 9.0946 0.655449 -3.41059 0
M  V30 120 C 8.0486 -0.111842 -4.27854 0
M  V30 121 C 7.3746 0.872274 -5.27537 0
M  V30 122 C 8.6746 -1.30299 -5.05786 0
M  V30 123 H 10.3686 -1.01294 -2.81744 0
M  V30 124 H 7.9146 -0.48854 -1.3546 0
M  V30 125 H 9.8676 1.07464 -4.07467 0
M  V30 126 H 8.5916 1.49328 -2.90463 0
M  V30 127 H 7.2506 -0.512053 -3.63006 0
M  V30 128 H 6.8986 1.70523 -4.73214 0
M  V30 129 H 6.5986 0.363291 -5.86476 0
M  V30 130 H 8.1226 1.28996 -5.96818 0
M  V30 131 H 9.5366 -0.959379 -5.65216 0
M  V30 132 H 7.9336 -1.7455 -5.74154 0
M  V30 133 H 9.0036 -2.09663 -4.37229 0
M  V30 134 N 10.3467 1.47872 -0.545128 0
M  V30 135 C 11.7627 1.5829 -0.204032 0
M  V30 136 C 11.9627 1.54529 1.29317 0
M  V30 137 O 11.0187 1.44232 2.07252 0
M  V30 138 C 12.3317 2.89304 -0.819987 0
M  V30 139 C 13.8797 3.02864 -0.790105 0
M  V30 140 C 14.3547 4.3656 -1.38491 0
M  V30 141 N 15.8457 4.43165 -1.34755 0
M  V30 142 C 16.5807 5.45153 -1.77753 0
M  V30 143 N 16.0767 6.54016 -2.2855 0
M  V30 144 N 17.8697 5.36125 -1.68897 0
M  V30 145 H 10.0207 1.4856 -1.51802 0
M  V30 146 H 12.2837 0.706305 -0.632327 0
M  V30 147 H 11.9897 2.97757 -1.87173 0
M  V30 148 H 11.8637 3.75957 -0.305915 0
M  V30 149 H 14.2507 2.94014 0.252913 0
M  V30 150 H 14.3317 2.17782 -1.34181 0
M  V30 151 H 13.9757 4.46164 -2.42693 0
M  V30 152 H 13.9057 5.20353 -0.808754 0
M  V30 153 H 16.3967 3.65083 -0.975855 0
M  V30 154 H 16.7097 7.27994 -2.59314 0
M  V30 155 H 15.0547 6.54938 -2.32553 0
M  V30 156 H 18.2457 4.49975 -1.28998 0
M  V30 157 H 18.4187 6.15472 -2.02726 0
M  V30 158 N 11.8248 0.280983 1.55075 0
M  V30 159 C 13.0728 -0.333455 1.9933 0
M  V30 160 C 13.3938 -1.55937 1.17085 0
M  V30 161 O 12.6638 -1.94143 0.261805 0
M  V30 162 H 11.2438 -0.126197 0.736263 0
M  V30 163 H 13.9058 0.387678 1.91005 0
M  V30 164 H 13.0018 -0.619292 3.05894 0
M  V30 165 N 13.3029 -1.57598 0.00835791 0
M  V30 166 C 14.2659 -2.07884 -0.965242 0
M  V30 167 C 15.2659 -0.989825 -1.26725 0
M  V30 168 O 16.4559 -1.25218 -1.21104 0
M  V30 169 C 13.5879 -2.52731 -2.28779 0
M  V30 170 H 14.7809 -2.95178 -0.530112 0
M  V30 171 H 12.3339 -1.54458 -0.239283 0
M  V30 172 H 13.0689 -1.68705 -2.76964 0
M  V30 173 H 12.8539 -3.32272 -2.08177 0
M  V30 174 H 14.3439 -2.91933 -2.98605 0
M  V30 175 N 14.781 0.264519 -1.55364 0
M  V30 176 C 15.744 1.31046 -1.88042 0
M  V30 177 C 16.744 1.41943 -0.755569 0
M  V30 178 O 17.934 1.40947 -1.02369 0
M  V30 179 C 15.066 2.69067 -2.09323 0
M  V30 180 H 16.259 1.03297 -2.81549 0
M  V30 181 H 13.812 0.502989 -1.47986 0
M  V30 182 H 14.547 3.01982 -1.18226 0
M  V30 183 H 14.332 2.62542 -2.91229 0
M  V30 184 H 15.822 3.44623 -2.35848 0
M  V30 185 N 16.2591 1.48442 0.529413 0
M  V30 186 C 17.1891 1.65902 1.64313 0
M  V30 187 C 18.1701 0.507897 1.6234 0
M  V30 188 O 19.3551 0.740503 1.79528 0
M  V30 189 C 16.4851 1.69911 3.02898 0
M  V30 190 C 15.4391 2.8453 3.19729 0
M  V30 191 C 14.7651 2.73629 4.59381 0
M  V30 192 C 16.0651 4.25821 3.02447 0
M  V30 193 H 17.7591 2.5914 1.49955 0
M  V30 194 H 15.3051 1.24709 0.719982 0
M  V30 195 H 17.2581 1.80715 3.80684 0
M  V30 196 H 15.9821 0.732524 3.18279 0
M  V30 197 H 14.6411 2.73283 2.44361 0
M  V30 198 H 14.2891 1.74938 4.71599 0
M  V30 199 H 13.9891 3.50541 4.71588 0
M  V30 200 H 15.5131 2.86401 5.39265 0
M  V30 201 H 16.9271 4.37898 3.70024 0
M  V30 202 H 15.3241 5.03735 3.26146 0
M  V30 203 H 16.3941 4.42244 1.98867 0
M  V30 204 N 17.7372 -0.778329 1.37039 0
M  V30 205 C 18.7002 -1.87301 1.32102 0
M  V30 206 C 19.7002 -1.59198 0.226405 0
M  V30 207 O 20.8902 -1.67403 0.481861 0
M  V30 208 C 18.0222 -3.24309 1.05055 0
M  V30 209 H 19.2152 -1.93093 2.29467 0
M  V30 210 H 16.7682 -0.977358 1.21973 0
M  V30 211 H 17.5032 -3.24196 0.0819373 0
M  V30 212 H 17.2882 -3.46098 1.84279 0
M  V30 213 H 18.7782 -4.04382 1.04234 0
M  V30 214 N 19.2153 -1.21501 -1.00376 0
M  V30 215 C 20.4633 -1.03095 -1.73827 0
M  V30 216 C 20.7843 0.436341 -1.90055 0
M  V30 217 O 20.0543 1.31466 -1.45236 0
M  V30 218 H 18.6343 -0.378487 -0.644016 0
M  V30 219 H 21.2963 -1.52831 -1.20949 0
M  V30 220 H 20.3923 -1.49991 -2.73695 0
M  V30 221 N 20.6934 1.19889 -1.02296 0
M  V30 222 C 22.1044 1.71124 -0.746568 0
M  V30 223 C 22.4554 1.81939 0.734335 0
M  V30 224 O 21.5804 1.48639 1.57275 0
M  V30 225 C 22.1754 3.10804 -1.34857 0
M  V30 226 C 20.7344 3.59323 -1.1209 0
M  V30 227 C 19.8814 2.3635 -1.45031 0
M  V30 228 H 22.8324 1.04813 -1.19163 0
M  V30 229 H 22.8534 3.73186 -0.742437 0
M  V30 230 H 22.3654 3.029 -2.42638 0
M  V30 231 H 20.4664 3.7255 -0.0610337 0
M  V30 232 H 20.5794 4.4378 -1.80544 0
M  V30 233 H 18.9434 2.39399 -0.869487 0
M  V30 234 H 19.7264 2.31081 -2.53883 0
M  V30 235 N 22.1715 0.800033 1.35784 0
M  V30 236 C 23.4195 0.376597 1.9856 0
M  V30 237 C 23.7405 -1.05812 1.63795 0
M  V30 238 O 23.0105 -1.73103 0.917171 0
M  V30 239 H 21.5905 0.136261 0.734467 0
M  V30 240 H 24.2525 1.02442 1.65806 0
M  V30 241 H 23.3485 0.477002 3.08433 0
M  V30 242 N 23.6496 -1.47581 0.552962 0
M  V30 243 C 25.0606 -1.86324 0.118463 0
M  V30 244 C 25.4116 -1.46006 -1.3106 0
M  V30 245 O 24.5366 -0.861182 -1.98526 0
M  V30 246 C 25.1316 -3.3816 0.20821 0
M  V30 247 C 23.6906 -3.7601 -0.171226 0
M  V30 248 C 22.8376 -2.71634 0.557686 0
M  V30 249 H 25.7886 -1.39159 0.762928 0
M  V30 250 H 25.8096 -3.76141 -0.574278 0
M  V30 251 H 25.3216 -3.67473 1.24841 0
M  V30 252 H 23.4226 -3.52313 -1.21269 0
M  V30 253 H 23.5356 -4.78745 0.184379 0
M  V30 254 H 21.8996 -2.547 0.00125792 0
M  V30 255 H 22.6826 -3.0379 1.59896 0
M  V30 256 N 25.1277 -0.289203 -1.54924 0
M  V30 257 C 26.3757 0.322879 -1.99504 0
M  V30 258 C 26.6967 1.55313 -1.1791 0
M  V30 259 O 25.9667 1.94001 -0.272097 0
M  V30 260 H 24.5467 0.122291 -0.736922 0
M  V30 261 H 27.2087 -0.397802 -1.90797 0
M  V30 262 H 26.3047 0.603061 -3.06218 0
M  V30 263 N 26.6058 1.57591 -0.0167156 0
M  V30 264 C 27.5358 2.12496 0.967858 0
M  V30 265 C 28.5168 1.03807 1.34752 0
M  V30 266 O 29.7018 1.31577 1.42833 0
M  V30 267 C 26.8318 2.64194 2.25431 0
M  V30 268 C 25.7858 3.77559 2.01576 0
M  V30 269 C 25.1118 4.15636 3.36379 0
M  V30 270 C 26.4118 5.04151 1.36489 0
M  V30 271 H 28.1058 2.95013 0.510643 0
M  V30 272 H 25.6518 1.41915 0.244181 0
M  V30 273 H 27.6048 3.01236 2.94678 0
M  V30 274 H 26.3288 1.78821 2.73296 0
M  V30 275 H 24.9878 3.40937 1.34751 0
M  V30 276 H 24.6358 3.27263 3.81979 0
M  V30 277 H 24.3358 4.92022 3.21229 0
M  V30 278 H 25.8598 4.5525 4.06915 0
M  V30 279 H 27.2738 5.38857 1.95718 0
M  V30 280 H 25.6708 5.85453 1.31776 0
M  V30 281 H 26.7408 4.83733 0.336219 0
M  V30 282 N 28.0839 -0.256276 1.55502 0
M  V30 283 C 29.4999 -0.604325 1.47716 0
M  V30 284 C 29.6999 -1.88763 0.705039 0
M  V30 285 O 28.7559 -2.51445 0.230613 0
M  V30 286 C 30.0689 -0.715756 2.92057 0
M  V30 287 C 31.6169 -0.808706 3.02372 0
M  V30 288 C 32.0919 -0.951777 4.48001 0
M  V30 289 N 33.5829 -1.01688 4.519 0
M  V30 290 C 34.3179 -1.14668 5.61817 0
M  V30 291 N 33.8139 -1.24261 6.81565 0
M  V30 292 N 35.6069 -1.1791 5.49594 0
M  V30 293 H 27.7579 0.586291 2.04148 0
M  V30 294 H 30.0209 0.201015 0.926443 0
M  V30 295 H 29.7269 0.157027 3.51349 0
M  V30 296 H 29.6009 -1.59071 3.42018 0
M  V30 297 H 31.9879 -1.67195 2.43166 0
M  V30 298 H 32.0689 0.0912063 2.55637 0
M  V30 299 H 31.7129 -0.0931291 5.07815 0
M  V30 300 H 31.6429 -1.86659 4.92408 0
M  V30 301 H 34.1339 -0.954468 3.65648 0
M  V30 302 H 34.4469 -1.34046 7.61086 0
M  V30 303 H 32.7919 -1.21236 6.84344 0
M  V30 304 H 35.9829 -1.10057 4.54978 0
M  V30 305 H 36.1559 -1.27681 6.35296 0
M  V30 306 N 29.562 -1.4872 -0.521534 0
M  V30 307 C 30.525 -1.63379 -1.60748 0
M  V30 308 C 31.525 -0.50661 -1.52611 0
M  V30 309 O 32.715 -0.772601 -1.5613 0
M  V30 310 C 29.847 -1.61192 -3.00383 0
M  V30 311 H 31.04 -2.60217 -1.49087 0
M  V30 312 H 28.593 -1.37444 -0.744235 0
M  V30 313 H 29.328 -0.65863 -3.17541 0
M  V30 314 H 29.113 -2.43032 -3.07698 0
M  V30 315 H 30.603 -1.7466 -3.7932 0
M  V30 316 N 31.0401 0.771051 -1.3745 0
M  V30 317 C 32.0031 1.86598 -1.33093 0
M  V30 318 C 33.0031 1.59076 -0.234845 0
M  V30 319 O 34.1931 1.67145 -0.490732 0
M  V30 320 C 31.3251 3.23747 -1.06773 0
M  V30 321 H 32.5181 1.91873 -2.30488 0
M  V30 322 H 30.0711 0.970876 -1.2249 0
M  V30 323 H 30.8061 3.24148 -0.099129 0
M  V30 324 H 30.5911 3.45115 -1.86112 0
M  V30 325 H 32.0811 4.03824 -1.06377 0
M  V30 326 N 32.5182 1.22032 0.997298 0
M  V30 327 C 33.7662 1.04016 1.73278 0
M  V30 328 C 34.0872 -0.426255 1.90284 0
M  V30 329 O 33.3572 -1.30694 1.45931 0
M  V30 330 H 31.9372 0.381897 0.642 0
M  V30 331 H 34.5992 1.5347 1.20137 0
M  V30 332 H 33.6952 1.51441 2.72896 0
M  V30 333 N 33.9963 -1.19345 1.0293 0
M  V30 334 C 35.2433 -1.89038 0.726008 0
M  V30 335 C 35.5713 -1.79649 -0.745427 0
M  V30 336 O 34.8263 -1.18354 -1.55855 0
M  V30 337 C 35.1253 -3.39292 1.12319 0
M  V30 338 C 34.7913 -3.68885 2.59297 0
M  V30 339 C 33.4533 -3.76671 2.99453 0
M  V30 340 C 35.8053 -3.82178 3.54386 0
M  V30 341 C 33.1333 -3.9522 4.33611 0
M  V30 342 C 35.4853 -4.0224 4.88248 0
M  V30 343 C 34.1493 -4.08259 5.28092 0
M  V30 344 H 33.4193 -0.691739 0.265665 0
M  V30 345 H 36.0663 -1.41328 1.29223 0
M  V30 346 H 34.3713 -3.88903 0.475584 0
M  V30 347 H 36.0683 -3.91536 0.866037 0
M  V30 348 H 32.6583 -3.63433 2.27189 0
M  V30 349 H 36.8423 -3.75505 3.24514 0
M  V30 350 H 32.0983 -3.98119 4.64016 0
M  V30 351 H 36.2723 -4.11468 5.61843 0
M  V30 352 H 33.8993 -4.22384 6.32057 0
M  V30 353 N 35.4744 -0.807222 -1.35358 0
M  V30 354 C 36.6994 -0.399309 -2.0352 0
M  V30 355 C 37.1244 0.981986 -1.60433 0
M  V30 356 O 36.4824 1.63601 -0.781299 0
M  V30 357 C 36.5304 -0.491552 -3.57234 0
M  V30 358 O 35.6344 0.494754 -4.09421 0
M  V30 359 H 34.9754 -0.166682 -0.642739 0
M  V30 360 H 37.5054 -1.09328 -1.72941 0
M  V30 361 H 37.5154 -0.361588 -4.06395 0
M  V30 362 H 36.1904 -1.49907 -3.87944 0
M  V30 363 H 34.7674 0.324977 -3.71481 0
M  V30 364 N 36.9525 1.47285 -0.560781 0
M  V30 365 C 38.3685 1.58065 -0.22081 0
M  V30 366 C 38.5685 1.55892 1.27671 0
M  V30 367 O 37.6245 1.46422 2.0571 0
M  V30 368 C 38.9375 2.88418 -0.850625 0
M  V30 369 C 40.4855 3.02009 -0.822184 0
M  V30 370 C 40.9605 4.35066 -1.43113 0
M  V30 371 N 42.4515 4.41711 -1.39448 0
M  V30 372 C 43.1865 5.43237 -1.83525 0
M  V30 373 N 42.6825 6.51555 -2.35474 0
M  V30 374 N 44.4755 5.34304 -1.74574 0
M  V30 375 H 36.6265 1.46941 -1.53369 0
M  V30 376 H 38.8895 0.699558 -0.639783 0
M  V30 377 H 38.5955 2.95755 -1.9032 0
M  V30 378 H 38.4695 3.75612 -0.345773 0
M  V30 379 H 40.8565 2.94266 0.221714 0
M  V30 380 H 40.9375 2.16347 -1.36483 0
M  V30 381 H 40.5815 4.43565 -2.47412 0
M  V30 382 H 40.5115 5.19465 -0.863899 0
M  V30 383 H 43.0025 3.64027 -1.01452 0
M  V30 384 H 43.3155 7.25203 -2.67021 0
M  V30 385 H 41.6605 6.52435 -2.39487 0
M  V30 386 H 44.8515 4.48581 -1.33763 0
M  V30 387 H 45.0245 6.13288 -2.09242 0
M  V30 388 N 38.4306 0.297415 1.54768 0
M  V30 389 C 39.6556 -0.318435 2.04941 0
M  V30 390 C 40.0806 -1.4701 1.17345 0
M  V30 391 O 39.4386 -1.80436 0.176758 0
M  V30 392 C 39.4866 -0.755749 3.52592 0
M  V30 393 O 38.5906 -1.86088 3.68028 0
M  V30 394 H 37.9316 -0.062421 0.661059 0
M  V30 395 H 40.4616 0.438215 1.99852 0
M  V30 396 H 40.4716 -1.04552 3.94376 0
M  V30 397 H 39.1466 0.0867233 4.1581 0
M  V30 398 H 37.7236 -1.57193 3.38149 0
M  V30 399 N 39.9087 -1.5758 0.0250728 0
M  V30 400 C 41.1557 -1.91633 -0.654444 0
M  V30 401 C 41.4837 -0.901103 -1.72367 0
M  V30 402 O 40.7387 0.0905647 -1.9549 0
M  V30 403 C 41.0377 -3.32421 -1.31268 0
M  V30 404 C 40.7037 -4.49344 -0.374223 0
M  V30 405 C 39.3657 -4.8106 -0.115911 0
M  V30 406 C 41.7177 -5.20498 0.270432 0
M  V30 407 C 39.0457 -5.8129 0.79493 0
M  V30 408 C 41.3977 -6.21699 1.1693 0
M  V30 409 C 40.0617 -6.51859 1.43655 0
M  V30 410 H 39.3317 -0.701236 -0.239478 0
M  V30 411 H 41.9787 -1.91307 0.0859734 0
M  V30 412 H 40.2837 -3.28989 -2.12775 0
M  V30 413 H 41.9807 -3.56038 -1.84494 0
M  V30 414 H 38.5707 -4.24579 -0.58573 0
M  V30 415 H 42.7547 -4.96229 0.0839194 0
M  V30 416 H 38.0107 -6.03005 1.00973 0
M  V30 417 H 42.1847 -6.75955 1.67504 0
M  V30 418 H 39.8117 -7.2934 2.144 0
M  V30 419 N 41.3868 0.248026 -1.55636 0
M  V30 420 C 42.6118 0.998028 -1.81808 0
M  V30 421 C 43.0368 1.78207 -0.601979 0
M  V30 422 O 42.3948 1.75653 0.448961 0
M  V30 423 C 42.4428 1.9125 -3.05705 0
M  V30 424 O 41.5468 3.00406 -2.82542 0
M  V30 425 H 40.8878 0.284045 -0.600179 0
M  V30 426 H 43.4178 0.269357 -2.02819 0
M  V30 427 H 43.4278 2.32737 -3.35108 0
M  V30 428 H 42.1028 1.33602 -3.93857 0
M  V30 429 H 40.6798 2.63056 -2.64303 0
M  V30 430 N 42.8649 1.48995 0.513639 0
M  V30 431 C 44.0899 1.61792 1.29762 0
M  V30 432 C 44.5149 0.284475 1.85936 0
M  V30 433 O 43.8729 -0.746185 1.65232 0
M  V30 434 C 43.9209 2.67993 2.41272 0
M  V30 435 O 43.0249 2.26287 3.44772 0
M  V30 436 H 42.3659 0.541963 0.38363 0
M  V30 437 H 44.8959 1.95097 0.616307 0
M  V30 438 H 44.9059 2.89772 2.87221 0
M  V30 439 H 43.5809 3.64791 1.9975 0
M  V30 440 H 42.1579 2.14788 3.04829 0
M  V30 441 N 44.343 -0.763751 1.37857 0
M  V30 442 C 45.62 -1.51244 1.24035 0
M  V30 443 C 46 -2.10472 -0.162649 0
M  V30 444 O 45.348 -1.96206 -1.17112 0
M  V30 445 C 45.558 -2.58694 2.34261 0
M  V30 446 C 46.906 -3.25878 2.72193 0
M  V30 447 O 47.93 -2.68993 2.33497 0
M  V30 448 O 46.789 -4.2874 3.38887 0
M  V30 449 H 43.883 -0.670243 0.484462 0
M  V30 450 H 46.429 -0.800031 1.49658 0
M  V30 451 H 45.201 -2.13105 3.2818 0
M  V30 452 H 44.824 -3.37527 2.10146 0
M  V30 453 N 45.8211 -1.22559 -0.990812 0
M  V30 454 C 47.0461 -1.07862 -1.77145 0
M  V30 455 C 47.4711 0.366447 -1.84496 0
M  V30 456 O 46.8291 1.26478 -1.29896 0
M  V30 457 C 46.8771 -1.69686 -3.18181 0
M  V30 458 O 45.9811 -0.951946 -4.01263 0
M  V30 459 H 45.3221 -0.378712 -0.545411 0
M  V30 460 H 47.8521 -1.62399 -1.2445 0
M  V30 461 H 47.8621 -1.74496 -3.68802 0
M  V30 462 H 46.5371 -2.74841 -3.12146 0
M  V30 463 H 45.1141 -0.980011 -3.59792 0
M  V30 464 N 47.2992 1.18797 -1.03562 0
M  V30 465 C 48.5472 1.88278 -0.734569 0
M  V30 466 C 48.8682 1.8043 0.739586 0
M  V30 467 O 48.1382 1.21925 1.53333 0
M  V30 468 H 46.7182 0.696991 -0.268725 0
M  V30 469 H 49.3802 1.44192 -1.31129 0
M  V30 470 H 48.4762 2.94443 -1.03489 0
M  V30 471 N 48.7773 0.814389 1.34928 0
M  V30 472 C 50.0023 0.410097 2.03305 0
M  V30 473 C 50.4273 -0.973464 1.60951 0
M  V30 474 O 49.7853 -1.63185 0.789964 0
M  V30 475 C 49.8333 0.51049 3.56968 0
M  V30 476 O 48.9373 -0.473035 4.09678 0
M  V30 477 H 48.2783 0.170088 0.641846 0
M  V30 478 H 50.8083 1.10244 1.72358 0
M  V30 479 H 50.8183 0.383135 4.06197 0
M  V30 480 H 49.4933 1.51963 3.87144 0
M  V30 481 H 48.0703 -0.305272 3.71648 0
M  V30 482 N 50.2554 -1.46986 0.568584 0
M  V30 483 C 51.4804 -2.07335 0.0520528 0
M  V30 484 C 51.9054 -1.41675 -1.23733 0
M  V30 485 O 51.2634 -0.495623 -1.74394 0
M  V30 486 C 51.3114 -3.60417 -0.11501 0
M  V30 487 O 50.4154 -3.95309 -1.17492 0
M  V30 488 H 49.7564 -0.661597 0.0564385 0
M  V30 489 H 52.2864 -1.88837 0.787507 0
M  V30 490 H 52.2964 -4.06698 -0.325644 0
M  V30 491 H 50.9714 -4.07601 0.826675 0
M  V30 492 H 49.5484 -3.60757 -0.943869 0
M  V30 493 N 51.7335 -0.305618 -1.54608 0
M  V30 494 C 53.1445 0.186098 -1.8577 0
M  V30 495 C 53.4955 1.53058 -1.22751 0
M  V30 496 O 52.6205 2.09888 -0.526893 0
M  V30 497 C 53.2155 0.344449 -3.37044 0
M  V30 498 C 51.7745 0.780384 -3.68221 0
M  V30 499 C 50.9215 -0.108554 -2.77087 0
M  V30 500 H 53.8725 -0.526485 -1.49712 0
M  V30 501 H 53.8935 1.17828 -3.61796 0
M  V30 502 H 53.4055 -0.634235 -3.82883 0
M  V30 503 H 51.5065 1.76945 -3.27904 0
M  V30 504 H 51.6195 0.596572 -4.75371 0
M  V30 505 H 49.9835 0.412931 -2.5133 0
M  V30 506 H 50.7665 -1.08368 -3.25747 0
M  V30 507 N 53.2116 1.57565 -0.0334293 0
M  V30 508 C 54.1746 2.09393 0.932048 0
M  V30 509 C 55.1746 1.00986 1.25134 0
M  V30 510 O 56.3646 1.27129 1.19096 0
M  V30 511 C 53.4966 2.56338 2.2473 0
M  V30 512 H 54.6896 2.95984 0.483085 0
M  V30 513 H 52.2426 1.54819 0.21468 0
M  V30 514 H 52.9776 1.7309 2.74245 0
M  V30 515 H 52.7626 3.35542 2.02865 0
M  V30 516 H 54.2526 2.96646 2.93923 0
M  V30 517 N 54.6897 -0.239769 1.55765 0
M  V30 518 C 55.9147 -0.988373 1.82335 0
M  V30 519 C 56.3397 -1.77886 0.611421 0
M  V30 520 O 55.6977 -1.75889 -0.439639 0
M  V30 521 C 55.7457 -1.89627 3.06715 0
M  V30 522 O 54.8497 -2.98904 2.84131 0
M  V30 523 H 54.1907 -0.280858 0.601677 0
M  V30 524 H 56.7207 -0.258597 2.02959 0
M  V30 525 H 56.7307 -2.30957 3.36338 0
M  V30 526 H 55.4057 -1.31511 3.9456 0
M  V30 527 H 53.9827 -2.61651 2.65694 0
M  V30 528 N 56.1678 -1.49265 -0.50573 0
M  V30 529 C 57.0778 -1.68312 -1.63427 0
M  V30 530 C 58.0938 -0.565682 -1.64548 0
M  V30 531 O 59.2698 -0.839801 -1.83055 0
M  V30 532 C 56.3348 -1.74107 -2.99813 0
M  V30 533 C 55.3958 -2.97653 -3.09356 0
M  V30 534 C 54.6288 -3.03163 -4.39236 0
M  V30 535 O 54.8518 -2.16396 -5.27758 0
M  V30 536 O 53.7858 -3.9558 -4.53652 0
M  V30 537 H 57.6118 -2.63907 -1.50289 0
M  V30 538 H 55.1968 -1.32951 -0.681502 0
M  V30 539 H 57.0788 -1.803 -3.80881 0
M  V30 540 H 55.7538 -0.816901 -3.13223 0
M  V30 541 H 54.6608 -2.96981 -2.27493 0
M  V30 542 H 55.9938 -3.89535 -3.00871 0
M  V30 543 N 57.6459 0.756429 -1.3826 0
M  V30 544 C 59.0619 1.0591 -1.19395 0
M  V30 545 C 59.2619 2.01459 -0.0406567 0
M  V30 546 O 58.3179 2.44909 0.614467 0
M  V30 547 C 59.6309 1.64191 -2.51916 0
M  V30 548 C 61.1789 1.76376 -2.58574 0
M  V30 549 C 61.6539 2.38069 -3.91264 0
M  V30 550 N 63.1449 2.45503 -3.92788 0
M  V30 551 C 63.8799 2.94126 -4.92217 0
M  V30 552 N 63.3759 3.42805 -6.02043 0
M  V30 553 N 65.1689 2.9314 -4.7961 0
M  V30 554 H 57.3199 0.122313 -2.12048 0
M  V30 555 H 59.5829 0.116892 -0.940766 0
M  V30 556 H 59.2889 1.01451 -3.3675 0
M  V30 557 H 59.1629 2.6329 -2.70108 0
M  V30 558 H 61.5499 2.38244 -1.74137 0
M  V30 559 H 61.6309 0.759894 -2.44252 0
M  V30 560 H 61.2749 1.76835 -4.76121 0
M  V30 561 H 61.2049 3.39091 -4.02895 0
M  V30 562 H 63.6959 2.1107 -3.13461 0
M  V30 563 H 64.0089 3.78354 -6.73846 0
M  V30 564 H 62.3539 3.4087 -6.05667 0
M  V30 565 H 65.5449 2.54419 -3.92923 0
M  V30 566 H 65.7179 3.30721 -5.5725 0
M  V30 567 N 59.124 1.23083 0.984299 0
M  V30 568 C 60.372 1.05848 1.72165 0
M  V30 569 C 60.693 -0.406049 1.90726 0
M  V30 570 O 59.963 -1.29139 1.47309 0
M  V30 571 H 58.543 0.388685 0.637913 0
M  V30 572 H 61.205 1.54736 1.18503 0
M  V30 573 H 60.301 1.54327 2.71274 0
M  V30 574 N 60.6021 -1.18246 1.0419 0
M  V30 575 C 61.8481 -1.88536 0.747122 0
M  V30 576 C 62.1811 -1.80223 -0.723409 0
M  V30 577 O 61.4561 -1.20337 -1.52804 0
M  V30 578 C 61.7391 -3.38968 1.21544 0
M  V30 579 C 61.5921 -3.56084 2.74816 0
M  V30 580 C 62.9111 -4.32648 0.806482 0
M  V30 581 H 60.0301 -0.684619 0.272883 0
M  V30 582 H 62.6721 -1.39113 1.29413 0
M  V30 583 H 60.8221 -3.8119 0.750081 0
M  V30 584 H 62.4941 -3.22946 3.29399 0
M  V30 585 H 60.7371 -2.98699 3.14582 0
M  V30 586 H 61.4081 -4.61639 3.02644 0
M  V30 587 H 63.8841 -3.98211 1.20695 0
M  V30 588 H 62.7601 -5.36462 1.1619 0
M  V30 589 H 63.0211 -4.41146 -0.29029 0
M  V30 590 N 62.0802 -0.821533 -1.34494 0
M  V30 591 C 63.4912 -0.467956 -1.8074 0
M  V30 592 C 63.8422 1.01151 -1.68116 0
M  V30 593 O 62.9672 1.78707 -1.22036 0
M  V30 594 C 63.5622 -0.842627 -3.28154 0
M  V30 595 C 62.1212 -0.541439 -3.72485 0
M  V30 596 C 61.2682 -1.06028 -2.56229 0
M  V30 597 H 64.2192 -1.01183 -1.22261 0
M  V30 598 H 64.2402 -0.145876 -3.8022 0
M  V30 599 H 63.7522 -1.91945 -3.37311 0
M  V30 600 H 61.8532 0.526034 -3.68868 0
M  V30 601 H 61.9662 -1.08453 -4.66663 0
M  V30 602 H 60.3302 -0.481892 -2.501 0
M  V30 603 H 61.1132 -2.14352 -2.68157 0
M  V30 604 N 63.5583 1.46682 -0.576371 0
M  V30 605 C 64.8063 2.02013 -0.0594163 0
M  V30 606 C 65.1273 1.45101 1.30271 0
M  V30 607 O 64.3973 0.633317 1.8538 0
M  V30 608 H 62.9773 0.746759 -0.0189745 0
M  V30 609 H 65.6393 1.79862 -0.750717 0
M  V30 610 H 64.7353 3.12097 0.014345 0
M  V30 611 N 65.0364 0.313813 1.54444 0
M  V30 612 C 65.9684 -0.590425 2.21465 0
M  V30 613 C 66.9814 -1.08753 1.21147 0
M  V30 614 O 68.1704 -1.00278 1.4767 0
M  V30 615 C 65.2704 -1.82179 2.85769 0
M  V30 616 C 64.4434 -1.46502 4.12136 0
M  V30 617 C 63.5024 -2.55288 4.60124 0
M  V30 618 O 62.5284 -2.19842 5.25032 0
M  V30 619 N 63.7304 -3.86053 4.33525 0
M  V30 620 H 66.4954 -0.0166033 2.99695 0
M  V30 621 H 64.0564 0.136578 1.61323 0
M  V30 622 H 66.0484 -2.54328 3.14801 0
M  V30 623 H 64.6184 -2.30369 2.11303 0
M  V30 624 H 63.8384 -0.575595 3.89975 0
M  V30 625 H 65.1264 -1.20221 4.94393 0
M  V30 626 H 64.5244 -4.17654 3.81552 0
M  V30 627 H 63.0814 -4.54461 4.67235 0
M  V30 628 N 66.5145 -1.57545 0.0417849 0
M  V30 629 C 67.7605 -1.92601 -0.635021 0
M  V30 630 C 68.0935 -0.919627 -1.71045 0
M  V30 631 O 67.3685 0.0557892 -1.9442 0
M  V30 632 C 67.6515 -3.38085 -1.23979 0
M  V30 633 C 67.5045 -4.49467 -0.173057 0
M  V30 634 C 68.8235 -3.83776 -2.15416 0
M  V30 635 H 65.9425 -0.700397 -0.229374 0
M  V30 636 H 68.5845 -1.89728 0.101633 0
M  V30 637 H 66.7345 -3.40664 -1.86762 0
M  V30 638 H 68.4065 -4.59018 0.458312 0
M  V30 639 H 66.6495 -4.30909 0.499996 0
M  V30 640 H 67.3205 -5.48323 -0.636054 0
M  V30 641 H 69.7965 -3.83013 -1.62605 0
M  V30 642 H 68.6725 -4.8624 -2.54679 0
M  V30 643 H 68.9335 -3.19998 -3.05047 0
M  V30 644 N 67.9926 0.231505 -1.5589 0
M  V30 645 C 69.2696 0.981096 -1.69215 0
M  V30 646 C 69.6496 2.02799 -0.586164 0
M  V30 647 O 68.9976 2.24823 0.408253 0
M  V30 648 C 69.2076 1.60054 -3.10135 0
M  V30 649 C 70.5556 2.09658 -3.69227 0
M  V30 650 O 71.5796 1.69967 -3.13033 0
M  V30 651 O 70.4386 2.8258 -4.67772 0
M  V30 652 H 67.5326 0.457653 -0.688827 0
M  V30 653 H 70.0786 0.224073 -1.68214 0
M  V30 654 H 68.8506 0.844105 -3.82087 0
M  V30 655 H 68.4736 2.42336 -3.15212 0
M  V30 656 N 69.4707 1.49531 0.497807 0
M  V30 657 C 70.7177 1.59179 1.25173 0
M  V30 658 C 71.0457 0.279932 1.92475 0
M  V30 659 O 70.3007 -0.732383 1.81479 0
M  V30 660 C 70.5997 2.70252 2.33878 0
M  V30 661 C 70.2657 4.11644 1.84012 0
M  V30 662 C 68.9277 4.50121 1.70132 0
M  V30 663 C 71.2797 5.00121 1.46725 0
M  V30 664 C 68.6077 5.74845 1.17348 0
M  V30 665 C 70.9597 6.25366 0.95392 0
M  V30 666 C 69.6237 6.6267 0.801538 0
M  V30 667 H 68.8937 0.582478 0.45804 0
M  V30 668 H 71.5407 1.83373 0.551948 0
M  V30 669 H 69.8457 2.40041 3.09657 0
M  V30 670 H 71.5427 2.74925 2.9192 0
M  V30 671 H 68.1327 3.81274 1.95775 0
M  V30 672 H 72.3167 4.71048 1.56294 0
M  V30 673 H 67.5727 6.02444 1.04264 0
M  V30 674 H 71.7467 6.93301 0.656225 0
M  V30 675 H 69.3737 7.59197 0.390351 0
M  V30 676 N 70.9488 -0.749086 1.3866 0
M  V30 677 C 72.1788 -1.53611 1.38157 0
M  V30 678 C 72.5868 -1.89177 -0.0293595 0
M  V30 679 O 71.9298 -1.53606 -1.00752 0
M  V30 680 C 71.9918 -2.86087 2.17702 0
M  V30 681 C 71.6558 -2.73034 3.66472 0
M  V30 682 C 72.6528 -2.42526 4.59866 0
M  V30 683 C 70.3378 -2.90345 4.09884 0
M  V30 684 C 72.3318 -2.29492 5.94653 0
M  V30 685 C 70.0188 -2.7693 5.4475 0
M  V30 686 C 71.0168 -2.46547 6.36949 0
M  V30 687 O 70.7048 -2.33199 7.69333 0
M  V30 688 H 70.4368 -0.481773 0.474205 0
M  V30 689 H 72.9908 -0.934465 1.82912 0
M  V30 690 H 71.2208 -3.48458 1.67672 0
M  V30 691 H 72.9098 -3.47625 2.09551 0
M  V30 692 H 73.6758 -2.28816 4.27631 0
M  V30 693 H 69.5548 -3.1299 3.38464 0
M  V30 694 H 73.0988 -2.05698 6.66584 0
M  V30 695 H 68.9958 -2.90215 5.76581 0
M  V30 696 H 69.7638 -2.48376 7.79905 0
M  V30 697 N 72.4269 -1.23603 -0.977757 0
M  V30 698 C 73.3899 -1.02069 -2.05218 0
M  V30 699 C 74.3899 0.0184305 -1.60789 0
M  V30 700 O 75.5799 -0.221569 -1.72785 0
M  V30 701 C 72.7119 -0.544926 -3.36517 0
M  V30 702 H 73.9049 -1.9742 -2.25755 0
M  V30 703 H 71.4579 -1.05684 -1.15155 0
M  V30 704 H 72.1929 0.412241 -3.21669 0
M  V30 705 H 71.9779 -1.2948 -3.70105 0
M  V30 706 H 73.4679 -0.414985 -4.15533 0
M  V30 707 N 73.905 1.17692 -1.04816 0
M  V30 708 C 75.321 1.39863 -0.768794 0
M  V30 709 C 75.521 1.91118 0.638451 0
M  V30 710 O 74.577 2.10036 1.40146 0
M  V30 711 C 75.89 2.39274 -1.82122 0
M  V30 712 C 77.438 2.52987 -1.843 0
M  V30 713 C 77.913 3.55669 -2.88555 0
M  V30 714 N 79.404 3.63183 -2.87493 0
M  V30 715 C 80.139 4.42381 -3.64811 0
M  V30 716 N 79.635 5.25125 -4.51903 0
M  V30 717 N 81.428 4.37217 -3.53267 0
M  V30 718 H 73.579 0.82752 -1.95617 0
M  V30 719 H 75.842 0.426123 -0.846831 0
M  V30 720 H 75.548 2.08678 -2.83102 0
M  V30 721 H 75.422 3.38725 -1.65967 0
M  V30 722 H 77.809 2.82896 -0.839869 0
M  V30 723 H 77.89 1.53623 -2.04532 0
M  V30 724 H 77.534 3.26499 -3.89051 0
M  V30 725 H 77.464 4.54728 -2.65575 0
M  V30 726 H 79.955 3.04103 -2.24343 0
M  V30 727 H 80.268 5.82728 -5.07591 0
M  V30 728 H 78.613 5.24519 -4.55966 0
M  V30 729 H 81.804 3.71626 -2.84625 0
M  V30 730 H 81.977 4.98696 -4.13771 0
M  V30 731 N 75.3831 0.828654 1.34056 0
M  V30 732 C 76.6301 0.419458 1.98108 0
M  V30 733 C 76.9581 -1.01886 1.65679 0
M  V30 734 O 76.2131 -1.72539 0.923512 0
M  V30 735 C 76.5121 0.575226 3.52741 0
M  V30 736 C 76.1781 1.98012 4.05095 0
M  V30 737 C 74.8401 2.36442 4.19104 0
M  V30 738 C 77.1921 2.89824 4.33188 0
M  V30 739 C 74.5201 3.66009 4.58535 0
M  V30 740 C 76.8721 4.1886 4.74066 0
M  V30 741 C 75.5361 4.5726 4.86281 0
M  V30 742 H 74.8061 0.153491 0.724929 0
M  V30 743 H 77.4531 1.05371 1.59904 0
M  V30 744 H 75.7581 -0.142385 3.91541 0
M  V30 745 H 77.4551 0.239057 4.00287 0
M  V30 746 H 74.0451 1.67162 3.94658 0
M  V30 747 H 78.2291 2.61375 4.21897 0
M  V30 748 H 73.4851 3.95579 4.66184 0
M  V30 749 H 77.6591 4.90086 4.94761 0
M  V30 750 H 75.2861 5.57707 5.16592 0
M  V30 751 N 76.8612 -1.46375 0.584142 0
M  V30 752 C 78.0862 -2.07268 0.0740405 0
M  V30 753 C 78.5112 -1.42979 -1.22223 0
M  V30 754 O 77.8692 -0.514092 -1.73859 0
M  V30 755 C 77.9172 -3.60518 -0.0767769 0
M  V30 756 O 77.0212 -3.96533 -1.13292 0
M  V30 757 H 76.3622 -0.660961 0.0634524 0
M  V30 758 H 78.8922 -1.87991 0.807492 0
M  V30 759 H 78.9022 -4.07021 -0.282489 0
M  V30 760 H 77.5772 -4.06702 0.86986 0
M  V30 761 H 76.1542 -3.61738 -0.905553 0
M  V30 762 N 78.3393 -0.321999 -1.54275 0
M  V30 763 C 79.7503 0.166384 -1.85957 0
M  V30 764 C 80.1013 1.51747 -1.24367 0
M  V30 765 O 79.2263 2.09317 -0.549124 0
M  V30 766 C 79.8213 0.308681 -3.37391 0
M  V30 767 C 78.3803 0.741286 -3.69028 0
M  V30 768 C 77.5273 -0.137937 -2.76957 0
M  V30 769 H 80.4783 -0.542335 -1.49146 0
M  V30 770 H 80.4993 1.13984 -3.63026 0
M  V30 771 H 80.0113 -0.674809 -3.82188 0
M  V30 772 H 78.1123 1.73458 -3.29762 0
M  V30 773 H 78.2253 0.546118 -4.75977 0
M  V30 774 H 76.5893 0.386251 -2.51754 0
M  V30 775 H 77.3723 -1.11816 -3.2458 0
M  V30 776 N 79.8174 1.5752 -0.0501392 0
M  V30 777 C 81.0424 1.97376 0.636997 0
M  V30 778 C 81.4674 0.927466 1.63645 0
M  V30 779 O 80.8254 -0.10941 1.8097 0
M  V30 780 C 80.8734 3.36304 1.30123 0
M  V30 781 O 79.9774 3.34156 2.41689 0
M  V30 782 H 79.3184 0.642998 0.165679 0
M  V30 783 H 81.8484 2.04258 -0.118233 0
M  V30 784 H 81.8584 3.73008 1.65315 0
M  V30 785 H 80.5334 4.11993 0.568746 0
M  V30 786 H 79.1104 3.09196 2.08451 0
M  V30 787 N 81.2955 -0.223234 1.56011 0
M  V30 788 C 82.7065 -0.790368 1.69145 0
M  V30 789 C 83.0575 -1.85055 0.651845 0
M  V30 790 O 82.1825 -2.15498 -0.197359 0
M  V30 791 C 82.7775 -1.4404 3.06656 0
M  V30 792 C 81.3365 -1.95494 3.2165 0
M  V30 793 C 80.4835 -0.814506 2.65068 0
M  V30 794 H 83.4345 0.00139011 1.587 0
M  V30 795 H 83.4555 -2.30916 3.0242 0
M  V30 796 H 82.9675 -0.668543 3.82298 0
M  V30 797 H 81.0685 -2.75487 2.50874 0
M  V30 798 H 81.1815 -2.13607 4.28846 0
M  V30 799 H 79.5455 -1.22137 2.23505 0
M  V30 800 H 80.3285 -0.0553515 3.43255 0
M  V30 801 N 82.7736 -1.49793 -0.48987 0
M  V30 802 C 83.7036 -1.70201 -1.59856 0
M  V30 803 C 84.6846 -0.55076 -1.60937 0
M  V30 804 O 85.8696 -0.787841 -1.77501 0
M  V30 805 C 82.9996 -1.77882 -2.98287 0
M  V30 806 C 81.9536 -2.92907 -3.12073 0
M  V30 807 C 81.2796 -2.85712 -4.51965 0
M  V30 808 C 82.5796 -4.3369 -2.91051 0
M  V30 809 H 84.2736 -2.63025 -1.43032 0
M  V30 810 H 81.8196 -1.26574 -0.686664 0
M  V30 811 H 83.7726 -1.90744 -3.75759 0
M  V30 812 H 82.4966 -0.816653 -3.16225 0
M  V30 813 H 81.1556 -2.79665 -2.37029 0
M  V30 814 H 80.8036 -1.8738 -4.66795 0
M  V30 815 H 80.5036 -3.62921 -4.62128 0
M  V30 816 H 82.0276 -3.00598 -5.31482 0
M  V30 817 H 83.4416 -4.47555 -3.58284 0
M  V30 818 H 81.8386 -5.12205 -3.12675 0
M  V30 819 H 82.9086 -4.47362 -1.87071 0
M  V30 820 N 84.2517 0.741722 -1.39055 0
M  V30 821 C 85.4767 1.53607 -1.39354 0
M  V30 822 C 85.9017 1.88096 0.0116905 0
M  V30 823 O 85.2597 1.5143 0.996924 0
M  V30 824 C 85.3077 2.80441 -2.26682 0
M  V30 825 O 84.4117 3.76088 -1.69208 0
M  V30 826 H 83.7527 0.464142 -0.474835 0
M  V30 827 H 86.2827 0.915665 -1.82967 0
M  V30 828 H 86.2927 3.29246 -2.40959 0
M  V30 829 H 84.9677 2.5467 -3.2881 0
M  V30 830 H 83.5447 3.34833 -1.64138 0
M  V30 831 N 85.7298 1.2412 0.971189 0
M  V30 832 C 86.6628 0.97373 2.06382 0
M  V30 833 C 87.6408 -0.0912662 1.62344 0
M  V30 834 O 88.8248 0.0449365 1.88446 0
M  V30 835 C 85.9518 0.468746 3.35441 0
M  V30 836 C 84.9978 1.52176 3.98428 0
M  V30 837 S 85.8308 3.10203 4.36503 0
M  V30 838 C 86.9868 2.61398 5.68702 0
M  V30 839 H 87.2198 1.89893 2.28753 0
M  V30 840 H 84.7528 1.07466 1.10862 0
M  V30 841 H 86.7108 0.184012 4.10087 0
M  V30 842 H 85.3718 -0.435688 3.11064 0
M  V30 843 H 84.5648 1.11876 4.91426 0
M  V30 844 H 84.1668 1.75632 3.30196 0
M  V30 845 H 86.4588 2.03992 6.4606 0
M  V30 846 H 87.4018 3.52972 6.13854 0
M  V30 847 H 87.8098 2.01941 5.27143 0
M  V30 848 N 87.2079 -1.17134 1.05439 0
M  V30 849 C 88.1549 -2.21235 0.657539 0
M  V30 850 C 89.1249 -1.62551 -0.341543 0
M  V30 851 O 90.3099 -1.89379 -0.232393 0
M  V30 852 C 87.4499 -3.45076 0.0410575 0
M  V30 853 C 86.5629 -4.18042 1.08927 0
M  V30 854 C 85.6979 -5.29376 0.439848 0
M  V30 855 C 84.7369 -5.94132 1.4722 0
M  V30 856 N 83.8739 -6.96975 0.846756 0
M  V30 857 H 88.7139 -2.54534 1.54972 0
M  V30 858 H 86.2509 -1.25028 0.775006 0
M  V30 859 H 88.2089 -4.15862 -0.33383 0
M  V30 860 H 86.8389 -3.12353 -0.814568 0
M  V30 861 H 85.8909 -3.45945 1.58196 0
M  V30 862 H 87.2029 -4.62306 1.87282 0
M  V30 863 H 86.3569 -6.06699 0.0115125 0
M  V30 864 H 85.0959 -4.86251 -0.375656 0
M  V30 865 H 84.1009 -5.15538 1.91052 0
M  V30 866 H 85.3259 -6.39337 2.28965 0
M  V30 867 H 83.2719 -6.5598 0.0518075 0
M  V30 868 H 83.1889 -7.39565 1.5678 0
M  V30 869 H 84.4569 -7.78239 0.443277 0
M  V30 870 N 88.686 -0.835752 -1.33615 0
M  V30 871 C 89.618 -0.224151 -2.28101 0
M  V30 872 C 90.631 0.593331 -1.51603 0
M  V30 873 O 91.82 0.420911 -1.73466 0
M  V30 874 C 88.92 0.703309 -3.31522 0
M  V30 875 C 88.093 -0.0741528 -4.37337 0
M  V30 876 C 87.152 0.776176 -5.20444 0
M  V30 877 O 86.178 0.216506 -5.68788 0
M  V30 878 N 87.38 2.09401 -5.41416 0
M  V30 879 H 90.145 -1.03598 -2.81225 0
M  V30 880 H 87.706 -0.69392 -1.46275 0
M  V30 881 H 89.698 1.27707 -3.84022 0
M  V30 882 H 88.268 1.41585 -2.78698 0
M  V30 883 H 87.488 -0.82928 -3.85378 0
M  V30 884 H 88.776 -0.608863 -5.05144 0
M  V30 885 H 88.174 2.57229 -5.03835 0
M  V30 886 H 86.731 2.61633 -5.96985 0
M  V30 887 N 90.1641 1.46063 -0.591896 0
M  V30 888 C 91.4111 2.02338 -0.0809991 0
M  V30 889 C 91.7391 1.46228 1.28249 0
M  V30 890 O 90.9941 0.620818 1.85592 0
M  V30 891 C 91.2931 3.57391 0.0249813 0
M  V30 892 C 90.9591 4.32583 -1.27211 0
M  V30 893 C 89.6211 4.52844 -1.62745 0
M  V30 894 C 91.9731 4.75687 -2.13005 0
M  V30 895 C 89.3011 5.13462 -2.83855 0
M  V30 896 C 91.6531 5.37644 -3.3335 0
M  V30 897 C 90.3171 5.5613 -3.69155 0
M  V30 898 H 89.5871 0.740407 -0.0296397 0
M  V30 899 H 92.2341 1.75321 -0.770374 0
M  V30 900 H 90.5391 3.83597 0.797537 0
M  V30 901 H 92.2361 3.98621 0.436184 0
M  V30 902 H 88.8261 4.17116 -0.985499 0
M  V30 903 H 93.0101 4.59782 -1.86855 0
M  V30 904 H 88.2661 5.25965 -3.11722 0
M  V30 905 H 92.4401 5.7 -4.00092 0
M  V30 906 H 90.0671 6.0287 -4.63089 0
M  V30 907 N 91.6422 0.330177 1.54103 0
M  V30 908 C 92.5722 -0.525353 2.27513 0
M  V30 909 C 93.5532 -1.11383 1.2856 0
M  V30 910 O 94.7382 -1.13773 1.57383 0
M  V30 911 C 91.8682 -1.6831 3.03791 0
M  V30 912 C 90.8222 -1.2236 4.10137 0
M  V30 913 C 90.1482 -2.46882 4.74293 0
M  V30 914 C 91.4482 -0.333697 5.21233 0
M  V30 915 H 93.1422 0.087013 2.99274 0
M  V30 916 H 90.6882 0.0432893 1.43935 0
M  V30 917 H 92.6412 -2.28795 3.5388 0
M  V30 918 H 91.3652 -2.32216 2.29659 0
M  V30 919 H 90.0242 -0.64165 3.60941 0
M  V30 920 H 89.6722 -3.09165 3.96769 0
M  V30 921 H 89.3722 -2.16825 5.46133 0
M  V30 922 H 90.8962 -3.08117 5.27159 0
M  V30 923 H 92.3102 -0.845013 5.67038 0
M  V30 924 H 90.7072 -0.125612 5.99969 0
M  V30 925 H 91.7772 0.633724 4.80741 0
M  V30 926 N 93.1203 -1.57491 0.0584922 0
M  V30 927 C 94.3973 -1.84346 -0.653918 0
M  V30 928 C 94.7773 -0.948355 -1.88599 0
M  V30 929 O 94.1253 -0.0112403 -2.28497 0
M  V30 930 C 94.3353 -3.34239 -1.00425 0
M  V30 931 C 95.6833 -4.01431 -1.38342 0
M  V30 932 O 96.7073 -3.38907 -1.09637 0
M  V30 933 O 95.5663 -5.11683 -1.91943 0
M  V30 934 H 92.6603 -0.761112 -0.323478 0
M  V30 935 H 95.2063 -1.6947 0.0884125 0
M  V30 936 H 93.9783 -3.91089 -0.128625 0
M  V30 937 H 93.6013 -3.54329 -1.80378 0
M  V30 938 N 94.5984 0.214957 -1.56127 0
M  V30 939 C 95.8454 0.938372 -1.79446 0
M  V30 940 C 96.1734 1.8407 -0.628378 0
M  V30 941 O 95.4284 1.91837 0.386925 0
M  V30 942 C 95.7274 1.80314 -3.0858 0
M  V30 943 C 95.3934 1.05349 -4.3842 0
M  V30 944 C 94.0554 0.846435 -4.73697 0
M  V30 945 C 96.4074 0.524588 -5.18553 0
M  V30 946 C 93.7354 0.098683 -5.86617 0
M  V30 947 C 96.0874 -0.209853 -6.32252 0
M  V30 948 C 94.7514 -0.428102 -6.66126 0
M  V30 949 H 94.0214 0.343375 -0.656639 0
M  V30 950 H 96.6684 0.206077 -1.90388 0
M  V30 951 H 94.9734 2.6035 -2.92789 0
M  V30 952 H 96.6704 2.36513 -3.23825 0
M  V30 953 H 93.2604 1.22486 -4.10725 0
M  V30 954 H 97.4444 0.672008 -4.91729 0
M  V30 955 H 92.7004 -0.0805753 -6.11347 0
M  V30 956 H 96.8744 -0.627157 -6.9357 0
M  V30 957 H 94.5014 -1.00944 -7.53468 0
M  V30 958 N 96.0765 1.50051 0.48192 0
M  V30 959 C 97.3245 1.60181 1.23234 0
M  V30 960 C 97.6455 0.299176 1.92691 0
M  V30 961 O 96.9155 -0.682708 1.83619 0
M  V30 962 H 95.4955 0.590232 0.457859 0
M  V30 963 H 98.1575 1.86775 0.556881 0
M  V30 964 H 97.2535 2.40753 1.98607 0
M  V30 965 N 97.5546 -0.734337 1.39446 0
M  V30 966 C 98.7796 -1.52866 1.40167 0
M  V30 967 C 99.2046 -1.881 -0.00171513 0
M  V30 968 O 98.5626 -1.51957 -0.988879 0
M  V30 969 C 98.6106 -2.79235 2.28167 0
M  V30 970 O 97.7146 -3.75185 1.71201 0
M  V30 971 H 97.0556 -0.461618 0.477289 0
M  V30 972 H 99.5856 -0.905949 1.8345 0
M  V30 973 H 99.5956 -3.27963 2.42702 0
M  V30 974 H 98.2706 -2.52923 3.30156 0
M  V30 975 H 96.8476 -3.33958 1.65912 0
M  V30 976 N 99.0327 -1.24633 -0.964593 0
M  V30 977 C 100.279 -1.08949 -1.71049 0
M  V30 978 C 100.612 0.370302 -1.90637 0
M  V30 979 O 99.8867 1.27349 -1.47011 0
M  V30 980 C 100.17 -1.83329 -3.0994 0
M  V30 981 C 100.023 -3.37077 -2.97824 0
M  V30 982 C 101.342 -1.60846 -4.09654 0
M  V30 983 H 98.4607 -0.397178 -0.620821 0
M  V30 984 H 101.103 -1.5334 -1.12191 0
M  V30 985 H 99.2527 -1.45597 -3.60186 0
M  V30 986 H 100.925 -3.84425 -2.5498 0
M  V30 987 H 99.1677 -3.65298 -2.33965 0
M  V30 988 H 99.8387 -3.84324 -3.96231 0
M  V30 989 H 102.315 -1.93674 -3.68279 0
M  V30 990 H 101.191 -2.1534 -5.04896 0
M  V30 991 H 101.452 -0.547434 -4.38698 0
M  V30 992 N 100.511 1.16574 -1.06058 0
M  V30 993 C 101.459 2.22941 -0.663343 0
M  V30 994 C 102.453 1.66358 0.319593 0
M  V30 995 O 103.659 1.7905 0.184713 0
M  V30 996 H 100.034 0.725907 -0.196376 0
M  V30 997 H 102.005 2.53736 -1.57037 0
M  V30 998 C 100.754 3.47642 -0.0632808 0
M  V30 999 H 100.077 3.91493 -0.810733 0
M  V30 1000 H 101.517 4.2363 0.177177 0
M  V30 1001 C 99.9758 3.1509 1.19248 0
M  V30 1002 O 100.506 3.30673 2.28075 0
M  V30 1003 N 98.7118 2.6924 1.09353 0
M  V30 1004 H 98.2588 2.5676 0.207912 0
M  V30 1005 H 98.2168 2.47833 1.93458 0
M  V30 1006 N 101.989 0.842826 1.3317 0
M  V30 1007 C 102.952 0.284065 2.27433 0
M  V30 1008 C 103.952 -0.54948 1.5112 0
M  V30 1009 O 105.142 -0.362699 1.70382 0
M  V30 1010 C 102.274 -0.599384 3.35589 0
M  V30 1011 H 103.467 1.11589 2.78366 0
M  V30 1012 H 101.02 0.616221 1.4364 0
M  V30 1013 H 101.755 -1.45349 2.89904 0
M  V30 1014 H 101.54 -0.00291266 3.921 0
M  V30 1015 H 103.03 -0.983488 4.05854 0
M  V30 1016 N 103.467 -1.45747 0.599634 0
M  V30 1017 C 104.707 -2.04181 0.0946309 0
M  V30 1018 C 105.071 -1.45895 -1.24815 0
M  V30 1019 O 106.272 -1.95633 -1.8434 0
M  V30 1020 C 104.543 -3.57368 0.047581 0
M  V30 1021 S 106.102 -4.36997 -0.397387 0
M  V30 1022 H 102.92 -0.70953 0.0456954 0
M  V30 1023 H 105.522 -1.78564 0.795946 0
M  V30 1024 H 104.226 -3.97303 1.02852 0
M  V30 1025 H 103.757 -3.87549 -0.675977 0
M  V30 1026 H 105.772 -4.68012 -1.64862 0
M  V30 1027 N 104.945 -0.338344 -1.53925 0
M  V30 1028 C 105.855 0.529421 -2.28548 0
M  V30 1029 C 106.871 1.11645 -1.3346 0
M  V30 1030 O 108.047 1.13325 -1.66492 0
M  V30 1031 C 105.112 1.66713 -3.03987 0
M  V30 1032 C 104.173 1.11041 -4.14691 0
M  V30 1033 C 103.406 2.19389 -4.86522 0
M  V30 1034 O 103.629 3.40013 -4.57982 0
M  V30 1035 O 102.563 1.83976 -5.73094 0
M  V30 1036 H 106.389 -0.0770399 -3.03602 0
M  V30 1037 H 103.974 -0.103555 -1.49041 0
M  V30 1038 H 105.856 2.32918 -3.5118 0
M  V30 1039 H 104.531 2.25949 -2.31794 0
M  V30 1040 H 103.438 0.413024 -3.71813 0
M  V30 1041 H 104.771 0.562975 -4.8897 0
M  V30 1042 N 106.423 1.57458 -0.0668435 0
M  V30 1043 C 107.37 2.12439 0.902122 0
M  V30 1044 C 108.34 1.03565 1.2986 0
M  V30 1045 O 109.525 1.312 1.38532 0
M  V30 1046 C 106.665 2.6865 2.16614 0
M  V30 1047 C 105.778 3.91663 1.82274 0
M  V30 1048 C 104.913 4.36134 3.0325 0
M  V30 1049 C 103.952 5.51808 2.64904 0
M  V30 1050 N 103.089 5.9126 3.78624 0
M  V30 1051 H 107.929 2.94934 0.426382 0
M  V30 1052 H 105.466 1.4575 0.198819 0
M  V30 1053 H 107.424 2.99346 2.90599 0
M  V30 1054 H 106.054 1.88928 2.61737 0
M  V30 1055 H 105.106 3.6746 0.983719 0
M  V30 1056 H 106.418 4.75693 1.50059 0
M  V30 1057 H 105.572 4.68465 3.85519 0
M  V30 1058 H 104.311 3.50948 3.38655 0
M  V30 1059 H 103.316 5.19133 1.81055 0
M  V30 1060 H 104.541 6.38722 2.30675 0
M  V30 1061 H 102.487 5.09024 4.138 0
M  V30 1062 H 102.404 6.70018 3.5016 0
M  V30 1063 H 103.672 6.28212 4.61486 0
M  V30 1064 N 107.901 -0.206675 1.56239 0
M  V30 1065 C 109.129 -0.945345 1.8404 0
M  V30 1066 C 109.544 -1.77336 0.647885 0
M  V30 1067 O 108.901 -1.78425 -0.383511 0
M  V30 1068 C 108.952 -1.8509 3.10522 0
M  V30 1069 O 108.673 -1.05634 4.25174 0
M  V30 1070 C 110.174 -2.70222 3.51418 0
M  V30 1071 H 107.394 -0.276372 0.61144 0
M  V30 1072 H 109.938 -0.217417 2.03341 0
M  V30 1073 H 108.093 -2.53259 2.93153 0
M  V30 1074 H 108.507 -1.67238 4.97124 0
M  V30 1075 H 109.981 -3.29438 4.42916 0
M  V30 1076 H 110.458 -3.43358 2.73864 0
M  V30 1077 H 111.064 -2.07443 3.71278 0
M  V30 1078 N 109.379 -1.50304 -0.473955 0
M  V30 1079 C 110.604 -1.65175 -1.25427 0
M  V30 1080 C 111.029 -0.333673 -1.85117 0
M  V30 1081 O 110.387 0.702114 -1.67153 0
M  V30 1082 C 110.435 -2.74295 -2.34082 0
M  V30 1083 O 109.539 -2.35349 -3.38651 0
M  V30 1084 H 108.88 -0.551944 -0.369126 0
M  V30 1085 H 111.41 -1.96662 -0.564364 0
M  V30 1086 H 111.42 -2.97285 -2.79438 0
M  V30 1087 H 110.095 -3.69959 -1.90008 0
M  V30 1088 H 108.672 -2.22794 -2.99027 0
M  V30 1089 N 110.857 0.726932 -1.39834 0
M  V30 1090 C 112.104 1.48664 -1.37496 0
M  V30 1091 C 112.432 1.94482 0.0264678 0
M  V30 1092 O 111.687 1.67692 1.00886 0
M  V30 1093 C 111.986 2.73495 -2.30077 0
M  V30 1094 C 111.652 2.46502 -3.77555 0
M  V30 1095 C 110.314 2.3885 -4.17737 0
M  V30 1096 C 112.666 2.23604 -4.70798 0
M  V30 1097 C 109.994 2.06352 -5.49214 0
M  V30 1098 C 112.346 1.92622 -6.02561 0
M  V30 1099 C 111.01 1.83444 -6.41798 0
M  V30 1100 H 110.28 0.544001 -0.503135 0
M  V30 1101 H 112.927 0.833657 -1.72402 0
M  V30 1102 H 111.232 3.43575 -1.88317 0
M  V30 1103 H 112.929 3.31549 -2.25558 0
M  V30 1104 H 109.519 2.5334 -3.45712 0
M  V30 1105 H 113.703 2.28479 -4.40581 0
M  V30 1106 H 108.959 1.97776 -5.78528 0
M  V30 1107 H 113.133 1.73914 -6.74334 0
M  V30 1108 H 110.76 1.58029 -7.43593 0
M  V30 1109 N 112.336 1.25143 0.95797 0
M  V30 1110 C 113.269 0.995565 2.05338 0
M  V30 1111 C 114.247 -0.0740423 1.62431 0
M  V30 1112 O 115.431 0.0649212 1.88388 0
M  V30 1113 C 112.558 0.504298 3.34925 0
M  V30 1114 C 111.604 1.56393 3.96792 0
M  V30 1115 S 112.437 3.14815 4.33188 0
M  V30 1116 C 113.593 2.67415 5.65898 0
M  V30 1117 H 113.826 1.92309 2.26726 0
M  V30 1118 H 111.359 1.08635 1.09716 0
M  V30 1119 H 113.317 0.227497 4.09869 0
M  V30 1120 H 111.978 -0.402671 3.11508 0
M  V30 1121 H 111.171 1.17082 4.90212 0
M  V30 1122 H 110.773 1.79124 3.28315 0
M  V30 1123 H 113.065 2.10833 6.4386 0
M  V30 1124 H 114.008 3.59463 6.10076 0
M  V30 1125 H 114.416 2.07521 5.24972 0
M  V30 1126 N 113.814 -1.1601 1.06675 0
M  V30 1127 C 115.061 -1.86633 0.785781 0
M  V30 1128 C 115.389 -1.81929 -0.687896 0
M  V30 1129 O 114.644 -1.23253 -1.52011 0
M  V30 1130 C 114.943 -3.35547 1.23057 0
M  V30 1131 C 114.609 -3.60448 2.70902 0
M  V30 1132 C 113.271 -3.66954 3.11285 0
M  V30 1133 C 115.623 -3.7071 3.66365 0
M  V30 1134 C 112.951 -3.81225 4.45965 0
M  V30 1135 C 115.303 -3.86503 5.00797 0
M  V30 1136 C 113.967 -3.91252 5.40813 0
M  V30 1137 H 113.237 -0.682937 0.287538 0
M  V30 1138 H 115.884 -1.37146 1.33654 0
M  V30 1139 H 114.189 -3.87193 0.59907 0
M  V30 1140 H 115.886 -3.88583 0.990163 0
M  V30 1141 H 112.476 -3.56021 2.38636 0
M  V30 1142 H 116.66 -3.64991 3.36296 0
M  V30 1143 H 111.916 -3.83155 4.76447 0
M  V30 1144 H 116.09 -3.93385 5.74649 0
M  V30 1145 H 113.717 -4.02062 6.45174 0
M  V30 1146 N 115.292 -0.849877 -1.32721 0
M  V30 1147 C 116.222 -0.306308 -2.31482 0
M  V30 1148 C 117.203 0.591952 -1.59468 0
M  V30 1149 O 118.388 0.513199 -1.87296 0
M  V30 1150 C 115.518 0.510204 -3.43532 0
M  V30 1151 C 114.472 -0.293209 -4.26994 0
M  V30 1152 C 113.798 0.647743 -5.30762 0
M  V30 1153 C 115.098 -1.51634 -4.99804 0
M  V30 1154 H 116.792 -1.13153 -2.77195 0
M  V30 1155 H 114.338 -0.545553 -1.33266 0
M  V30 1156 H 116.291 0.900856 -4.11658 0
M  V30 1157 H 115.015 1.36874 -2.96535 0
M  V30 1158 H 113.674 -0.665555 -3.60508 0
M  V30 1159 H 113.322 1.50299 -4.8002 0
M  V30 1160 H 113.022 0.11422 -5.87489 0
M  V30 1161 H 114.546 1.03567 -6.01753 0
M  V30 1162 H 115.96 -1.19824 -5.60638 0
M  V30 1163 H 114.357 -1.98745 -5.66234 0
M  V30 1164 H 115.427 -2.28018 -4.27943 0
M  V30 1165 N 116.77 1.45427 -0.607355 0
M  V30 1166 C 118.186 1.57283 -0.270985 0
M  V30 1167 C 118.386 1.59875 1.22647 0
M  V30 1168 O 117.442 1.52893 2.00948 0
M  V30 1169 C 118.755 2.85566 -0.941952 0
M  V30 1170 C 120.303 2.9924 -0.917849 0
M  V30 1171 C 120.778 4.30293 -1.56882 0
M  V30 1172 N 122.269 4.37051 -1.5343 0
M  V30 1173 C 123.004 5.37123 -2.00715 0
M  V30 1174 N 122.5 6.43734 -2.56084 0
M  V30 1175 N 124.293 5.28479 -1.91484 0
M  V30 1176 H 116.444 1.41988 -1.57966 0
M  V30 1177 H 118.707 0.67885 -0.661715 0
M  V30 1178 H 118.413 2.8955 -1.99633 0
M  V30 1179 H 118.287 3.74322 -0.465096 0
M  V30 1180 H 120.674 2.94822 0.127984 0
M  V30 1181 H 120.755 2.11895 -1.43297 0
M  V30 1182 H 120.399 4.35469 -2.61398 0
M  V30 1183 H 120.329 5.16454 -1.02873 0
M  V30 1184 H 122.82 3.60615 -1.12982 0
M  V30 1185 H 123.133 7.16341 -2.89958 0
M  V30 1186 H 121.478 6.44485 -2.60122 0
M  V30 1187 H 124.669 4.44098 -1.47967 0
M  V30 1188 H 124.842 6.0632 -2.28648 0
M  V30 1189 N 118.248 0.346503 1.53744 0
M  V30 1190 C 119.18 -0.543316 2.22667 0
M  V30 1191 C 120.193 -1.06159 1.23427 0
M  V30 1192 O 121.382 -0.971235 1.49764 0
M  V30 1193 C 118.482 -1.76076 2.89569 0
M  V30 1194 C 117.655 -1.37727 4.15151 0
M  V30 1195 C 116.714 -2.45471 4.65436 0
M  V30 1196 O 115.74 -2.08655 5.29577 0
M  V30 1197 N 116.942 -3.7677 4.41616 0
M  V30 1198 H 119.707 0.0469703 2.99663 0
M  V30 1199 H 117.268 0.170766 1.60997 0
M  V30 1200 H 119.26 -2.47593 3.20125 0
M  V30 1201 H 117.83 -2.25835 2.16142 0
M  V30 1202 H 117.05 -0.492746 3.91108 0
M  V30 1203 H 118.338 -1.09708 4.96832 0
M  V30 1204 H 117.736 -4.09467 3.90325 0
M  V30 1205 H 116.293 -4.44448 4.7677 0
M  V30 1206 N 119.726 -1.57421 0.075193 0
M  V30 1207 C 120.636 -2.1642 -0.905511 0
M  V30 1208 C 121.652 -1.12828 -1.32461 0
M  V30 1209 O 122.828 -1.45109 -1.39661 0
M  V30 1210 C 119.893 -2.71693 -2.15369 0
M  V30 1211 C 118.954 -3.90171 -1.79068 0
M  V30 1212 C 118.187 -4.42798 -2.97936 0
M  V30 1213 O 118.41 -3.94416 -4.12058 0
M  V30 1214 O 117.344 -5.34085 -2.77555 0
M  V30 1215 H 121.17 -3.00588 -0.433626 0
M  V30 1216 H 118.755 -1.48664 -0.148067 0
M  V30 1217 H 120.637 -3.07104 -2.88557 0
M  V30 1218 H 119.312 -1.90582 -2.61649 0
M  V30 1219 H 118.219 -3.59606 -1.03122 0
M  V30 1220 H 119.552 -4.72584 -1.37569 0
M  V30 1221 N 121.204 0.198386 -1.56346 0
M  V30 1222 C 122.134 1.24865 -1.9731 0
M  V30 1223 C 123.115 1.47651 -0.844576 0
M  V30 1224 O 124.3 1.59444 -1.10866 0
M  V30 1225 C 121.43 2.59358 -2.30977 0
M  V30 1226 C 120.384 2.5119 -3.46537 0
M  V30 1227 C 119.71 3.89926 -3.65871 0
M  V30 1228 C 121.01 2.03977 -4.80823 0
M  V30 1229 H 122.704 0.908252 -2.85291 0
M  V30 1230 H 120.25 0.435462 -1.37258 0
M  V30 1231 H 122.203 3.33011 -2.58228 0
M  V30 1232 H 120.927 2.95132 -1.39874 0
M  V30 1233 H 119.586 1.79993 -3.19371 0
M  V30 1234 H 119.234 4.23046 -2.72105 0
M  V30 1235 H 118.934 3.85336 -4.4361 0
M  V30 1236 H 120.458 4.65205 -3.95495 0
M  V30 1237 H 121.872 2.67386 -5.07127 0
M  V30 1238 H 120.269 2.10397 -5.62008 0
M  V30 1239 H 121.339 0.992861 -4.74626 0
M  V30 1240 N 122.682 1.50554 0.465978 0
M  V30 1241 C 124.093 1.54599 1.04671 0
M  V30 1242 C 124.444 0.352488 1.93008 0
M  V30 1243 O 123.569 -0.534044 2.09707 0
M  V30 1244 C 124.164 2.80166 1.90505 0
M  V30 1245 C 122.723 2.86876 2.43678 0
M  V30 1246 C 121.87 2.48947 1.22151 0
M  V30 1247 H 124.821 1.56744 0.248384 0
M  V30 1248 H 124.842 2.62311 2.75633 0
M  V30 1249 H 124.354 3.67013 1.26186 0
M  V30 1250 H 122.455 2.04393 3.11536 0
M  V30 1251 H 122.568 3.89885 2.78436 0
M  V30 1252 H 120.932 2.01498 1.5579 0
M  V30 1253 H 121.715 3.38107 0.594866 0
M  V30 1254 N 124.16 -0.719506 1.40217 0
M  V30 1255 C 125.406 -1.48152 1.38488 0
M  V30 1256 C 125.739 -1.94195 -0.0141867 0
M  V30 1257 O 125.014 -1.67884 -0.982096 0
M  V30 1258 C 125.297 -2.71035 2.37091 0
M  V30 1259 C 125.15 -2.30912 3.86005 0
M  V30 1260 C 126.469 -3.73182 2.33288 0
M  V30 1261 H 123.588 -0.537395 0.504357 0
M  V30 1262 H 126.23 -0.821472 1.71324 0
M  V30 1263 H 124.38 -3.27352 2.0922 0
M  V30 1264 H 126.052 -1.80107 4.24687 0
M  V30 1265 H 124.295 -1.62958 4.02029 0
M  V30 1266 H 124.966 -3.18978 4.50508 0
M  V30 1267 H 127.442 -3.26485 2.57966 0
M  V30 1268 H 126.318 -4.56806 3.04334 0
M  V30 1269 H 126.579 -4.21202 1.34317 0
M  V30 1270 N 125.638 -1.25649 -0.95132 0
M  V30 1271 C 127.054 -1.02542 -1.223 0
M  V30 1272 C 127.254 0.255715 -1.99871 0
M  V30 1273 O 126.31 0.967558 -2.33226 0
M  V30 1274 C 127.623 -2.25065 -1.99415 0
M  V30 1275 C 129.171 -2.29861 -2.12446 0
M  V30 1276 C 129.646 -3.52048 -2.92961 0
M  V30 1277 N 131.137 -3.52465 -3.00538 0
M  V30 1278 C 131.872 -4.43672 -3.63239 0
M  V30 1279 N 131.368 -5.45157 -4.27523 0
M  V30 1280 N 133.161 -4.31346 -3.60412 0
M  V30 1281 H 125.312 -2.07951 -0.432471 0
M  V30 1282 H 127.575 -0.91339 -0.253816 0
M  V30 1283 H 127.281 -3.18194 -1.49817 0
M  V30 1284 H 127.155 -2.28502 -3.00111 0
M  V30 1285 H 129.542 -1.37252 -2.61239 0
M  V30 1286 H 129.623 -2.3044 -1.11044 0
M  V30 1287 H 129.267 -4.44981 -2.44856 0
M  V30 1288 H 129.197 -3.48715 -3.94596 0
M  V30 1289 H 131.688 -2.79056 -2.54826 0
M  V30 1290 H 132.001 -6.10958 -4.73234 0
M  V30 1291 H 130.346 -5.49025 -4.26141 0
M  V30 1292 H 133.537 -3.51288 -3.09377 0
M  V30 1293 H 133.71 -5.02624 -4.0899 0
M  V30 1294 N 127.117 1.15442 -1.07289 0
M  V30 1295 C 128.047 2.22312 -0.714107 0
M  V30 1296 C 129.028 1.67467 0.298155 0
M  V30 1297 O 130.213 1.93445 0.171048 0
M  V30 1298 C 127.343 3.47124 -0.110448 0
M  V30 1299 C 126.297 4.14926 -1.04979 0
M  V30 1300 C 125.623 5.33807 -0.308924 0
M  V30 1301 C 126.923 4.64762 -2.38314 0
M  V30 1302 H 128.617 2.5258 -1.6076 0
M  V30 1303 H 126.163 1.21404 -0.77441 0
M  V30 1304 H 128.116 4.21124 0.152482 0
M  V30 1305 H 126.84 3.16187 0.81812 0
M  V30 1306 H 125.499 3.42866 -1.29764 0
M  V30 1307 H 125.147 4.99126 0.623084 0
M  V30 1308 H 124.847 5.80113 -0.935036 0
M  V30 1309 H 126.371 6.10576 -0.0537771 0
M  V30 1310 H 127.785 5.30292 -2.1786 0
M  V30 1311 H 126.182 5.21728 -2.96514 0
M  V30 1312 H 127.252 3.80434 -3.00663 0
M  V30 1313 N 128.595 0.856903 1.32268 0
M  V30 1314 C 129.558 0.308171 2.27119 0
M  V30 1315 C 130.558 -0.533421 1.51695 0
M  V30 1316 O 131.748 -0.344607 1.70757 0
M  V30 1317 C 128.88 -0.563757 3.36206 0
M  V30 1318 H 130.073 1.14535 2.77167 0
M  V30 1319 H 127.626 0.631421 1.42978 0
M  V30 1320 H 128.361 -1.42266 2.91429 0
M  V30 1321 H 128.146 0.0386749 3.92081 0
M  V30 1322 H 129.636 -0.940386 4.06874 0
M  V30 1323 N 130.073 -1.45103 0.615059 0
M  V30 1324 C 131.021 -2.32331 -0.111791 0
M  V30 1325 C 132.015 -1.46409 -0.852102 0
M  V30 1326 O 133.221 -1.62849 -0.766821 0
M  V30 1327 H 129.596 -0.749993 -0.0549072 0
M  V30 1328 H 131.567 -2.91407 0.642225 0
M  V30 1329 C 130.316 -3.3015 -1.09071 0
M  V30 1330 H 129.639 -3.96265 -0.530485 0
M  V30 1331 H 131.079 -3.93898 -1.56908 0
M  V30 1332 C 129.538 -2.57875 -2.168 0
M  V30 1333 O 130.068 -2.36567 -3.24652 0
M  V30 1334 N 128.274 -2.17884 -1.92289 0
M  V30 1335 H 127.821 -2.35413 -1.04587 0
M  V30 1336 H 127.779 -1.6985 -2.64572 0
M  V30 1337 N 131.551 -0.354651 -1.53558 0
M  V30 1338 C 132.8 0.239504 -2.00273 0
M  V30 1339 C 133.113 1.50759 -1.24623 0
M  V30 1340 O 134.319 2.17968 -1.61871 0
M  V30 1341 C 132.775 0.477341 -3.5672 0
M  V30 1342 C 132.383 -0.775488 -4.41237 0
M  V30 1343 C 134.127 1.02975 -4.11821 0
M  V30 1344 C 132.034 -0.507838 -5.89216 0
M  V30 1345 H 130.964 0.0932743 -0.748208 0
M  V30 1346 H 133.615 -0.471701 -1.77334 0
M  V30 1347 H 131.997 1.24953 -3.7577 0
M  V30 1348 H 133.171 -1.54963 -4.33962 0
M  V30 1349 H 131.486 -1.25033 -3.97185 0
M  V30 1350 H 134.083 1.24513 -5.2 0
M  V30 1351 H 134.426 1.98862 -3.65731 0
M  V30 1352 H 134.959 0.317994 -3.96527 0
M  V30 1353 H 131.698 -1.43674 -6.39561 0
M  V30 1354 H 131.218 0.228011 -5.99366 0
M  V30 1355 H 132.897 -0.129238 -6.46871 0
M  V30 1356 N 133.029 1.57378 -0.0835403 0
M  V30 1357 C 133.962 2.09016 0.915833 0
M  V30 1358 C 134.94 0.997993 1.2837 0
M  V30 1359 O 136.124 1.27219 1.39096 0
M  V30 1360 C 133.251 2.55757 2.22049 0
M  V30 1361 C 132.297 3.76522 2.00333 0
M  V30 1362 S 133.13 5.20661 1.25191 0
M  V30 1363 C 134.286 5.70743 2.56912 0
M  V30 1364 H 134.519 2.93457 0.476492 0
M  V30 1365 H 132.052 1.53856 0.129493 0
M  V30 1366 H 134.01 2.83346 2.97027 0
M  V30 1367 H 132.671 1.71564 2.63106 0
M  V30 1368 H 131.864 4.07256 2.96916 0
M  V30 1369 H 131.466 3.49367 1.33488 0
M  V30 1370 H 133.758 5.78304 3.52946 0
M  V30 1371 H 134.701 6.6944 2.30772 0
M  V30 1372 H 135.109 4.98616 2.64655 0
M  V30 1373 N 134.507 -0.190092 1.56449 0
M  V30 1374 C 135.454 -1.23557 1.94942 0
M  V30 1375 C 136.424 -1.44972 0.810696 0
M  V30 1376 O 137.609 -1.58023 1.06927 0
M  V30 1377 C 134.749 -2.57416 2.2985 0
M  V30 1378 C 133.862 -2.43537 3.5681 0
M  V30 1379 C 132.997 -3.70134 3.81017 0
M  V30 1380 C 132.036 -3.51109 5.01387 0
M  V30 1381 N 131.173 -4.6973 5.21822 0
M  V30 1382 H 136.013 -0.900304 2.84075 0
M  V30 1383 H 133.55 -0.43318 1.40577 0
M  V30 1384 H 135.508 -3.35409 2.48106 0
M  V30 1385 H 134.138 -2.88975 1.43852 0
M  V30 1386 H 133.19 -1.56816 3.46573 0
M  V30 1387 H 134.502 -2.25415 4.4496 0
M  V30 1388 H 133.656 -4.56566 3.9954 0
M  V30 1389 H 132.395 -3.91215 2.91207 0
M  V30 1390 H 131.4 -2.63063 4.82782 0
M  V30 1391 H 132.625 -3.31468 5.9271 0
M  V30 1392 H 130.571 -4.91065 4.34961 0
M  V30 1393 H 130.488 -4.54452 6.0416 0
M  V30 1394 H 131.756 -5.57499 5.44808 0
M  V30 1395 N 135.985 -1.50799 -0.457987 0
M  V30 1396 C 136.895 -1.73426 -1.57989 0
M  V30 1397 C 137.911 -0.617745 -1.62665 0
M  V30 1398 O 139.087 -0.897614 -1.80291 0
M  V30 1399 C 136.152 -1.83557 -2.94122 0
M  V30 1400 C 135.213 -3.07345 -2.99729 0
M  V30 1401 C 134.446 -3.16983 -4.29368 0
M  V30 1402 O 134.669 -2.33077 -5.20607 0
M  V30 1403 O 133.603 -4.09812 -4.40837 0
M  V30 1404 H 137.429 -2.68555 -1.41817 0
M  V30 1405 H 135.014 -1.35052 -0.638859 0
M  V30 1406 H 136.896 -1.92326 -3.74952 0
M  V30 1407 H 135.571 -0.916137 -3.10465 0
M  V30 1408 H 134.478 -3.04068 -2.1793 0
M  V30 1409 H 135.811 -3.9891 -2.88326 0
M  V30 1410 N 137.463 0.71206 -1.40597 0
M  V30 1411 C 138.712 1.46754 -1.38369 0
M  V30 1412 C 139.025 1.95598 0.0097839 0
M  V30 1413 O 140.231 2.71059 0.154677 0
M  V30 1414 C 138.687 2.65289 -2.43207 0
M  V30 1415 C 138.295 2.23301 -3.88382 0
M  V30 1416 C 140.039 3.43008 -2.50091 0
M  V30 1417 C 137.946 3.38696 -4.84808 0
M  V30 1418 H 136.876 0.55118 -0.514506 0
M  V30 1419 H 139.527 0.774616 -1.66349 0
M  V30 1420 H 137.909 3.36769 -2.08332 0
M  V30 1421 H 139.083 1.59218 -4.32419 0
M  V30 1422 H 137.398 1.58618 -3.85006 0
M  V30 1423 H 139.995 4.28881 -3.1932 0
M  V30 1424 H 140.338 3.87065 -1.53253 0
M  V30 1425 H 140.871 2.78574 -2.83974 0
M  V30 1426 H 137.61 2.99668 -5.82992 0
M  V30 1427 H 137.13 4.01683 -4.45433 0
M  V30 1428 H 138.809 4.04712 -5.04794 0
M  V30 1429 N 138.941 1.26152 0.944643 0
M  V30 1430 C 140.166 1.14363 1.7302 0
M  V30 1431 C 140.591 -0.29772 1.85729 0
M  V30 1432 O 139.949 -1.2157 1.34501 0
M  V30 1433 C 139.997 1.81378 3.11664 0
M  V30 1434 O 139.101 1.10022 3.97453 0
M  V30 1435 H 138.442 0.398694 0.53098 0
M  V30 1436 H 140.972 1.66906 1.18337 0
M  V30 1437 H 140.982 1.88064 3.62072 0
M  V30 1438 H 139.657 2.86237 3.0173 0
M  V30 1439 H 138.234 1.11287 3.55907 0
M  V30 1440 N 140.419 -1.14872 1.07899 0
M  V30 1441 C 141.349 -2.2193 0.725887 0
M  V30 1442 C 142.33 -1.67622 -0.28927 0
M  V30 1443 O 143.515 -1.93533 -0.160787 0
M  V30 1444 C 140.645 -3.47061 0.128856 0
M  V30 1445 C 139.599 -4.14363 1.07178 0
M  V30 1446 C 138.925 -5.33636 0.337229 0
M  V30 1447 C 140.225 -4.63492 2.40775 0
M  V30 1448 H 141.919 -2.51724 1.62097 0
M  V30 1449 H 139.465 -1.20991 0.780838 0
M  V30 1450 H 141.418 -4.21199 -0.130147 0
M  V30 1451 H 140.142 -3.16617 -0.80134 0
M  V30 1452 H 138.801 -3.42173 1.3158 0
M  V30 1453 H 138.449 -4.99449 -0.596606 0
M  V30 1454 H 138.149 -5.79609 0.965788 0
M  V30 1455 H 139.673 -6.10539 0.0861567 0
M  V30 1456 H 141.087 -5.2913 2.20669 0
M  V30 1457 H 139.484 -5.20148 2.99276 0
M  V30 1458 H 140.554 -3.78834 3.02676 0
M  V30 1459 N 141.898 -0.863906 -1.31812 0
M  V30 1460 C 142.828 -0.330843 -2.31144 0
M  V30 1461 C 143.809 0.575005 -1.60087 0
M  V30 1462 O 144.994 0.493304 -1.8783 0
M  V30 1463 C 142.124 0.47374 -3.44054 0
M  V30 1464 C 141.078 -0.338481 -4.26659 0
M  V30 1465 C 140.404 0.591412 -5.31419 0
M  V30 1466 C 141.704 -1.56926 -4.98168 0
M  V30 1467 H 143.398 -1.16086 -2.75979 0
M  V30 1468 H 140.944 -0.559657 -1.32679 0
M  V30 1469 H 142.897 0.857143 -4.12591 0
M  V30 1470 H 141.621 1.33721 -2.9797 0
M  V30 1471 H 140.28 -0.703754 -3.59782 0
M  V30 1472 H 139.928 1.45199 -4.81587 0
M  V30 1473 H 139.628 0.0519022 -5.87577 0
M  V30 1474 H 141.152 0.97179 -6.02817 0
M  V30 1475 H 142.566 -1.25764 -5.59336 0
M  V30 1476 H 140.963 -2.04739 -5.64094 0
M  V30 1477 H 142.033 -2.32544 -4.25501 0
M  V30 1478 N 143.376 1.44774 -0.622745 0
M  V30 1479 C 144.787 1.85546 -0.207226 0
M  V30 1480 C 145.138 1.52093 1.23944 0
M  V30 1481 O 144.263 0.95492 1.94191 0
M  V30 1482 C 144.858 3.36781 -0.369313 0
M  V30 1483 C 143.417 3.76399 -0.00836847 0
M  V30 1484 C 142.564 2.68664 -0.686651 0
M  V30 1485 H 145.515 1.3536 -0.828454 0
M  V30 1486 H 145.536 3.78453 0.394162 0
M  V30 1487 H 145.048 3.61098 -1.42231 0
M  V30 1488 H 143.149 3.57698 1.04322 0
M  V30 1489 H 143.262 4.7732 -0.412584 0
M  V30 1490 H 141.626 2.54404 -0.122777 0
M  V30 1491 H 142.409 2.95815 -1.74208 0
M  V30 1492 N 144.854 0.36279 1.53368 0
M  V30 1493 C 146.131 -0.284021 1.93527 0
M  V30 1494 C 146.511 -1.66628 1.29608 0
M  V30 1495 O 145.859 -2.23942 0.45413 0
M  V30 1496 C 146.069 -0.337028 3.47369 0
M  V30 1497 C 147.417 -0.578708 4.20638 0
M  V30 1498 O 148.441 -0.418352 3.53735 0
M  V30 1499 O 147.3 -0.89074 5.39192 0
M  V30 1500 H 144.394 -0.169743 0.809393 0
M  V30 1501 H 146.94 0.41537 1.64538 0
M  V30 1502 H 145.712 0.632217 3.86159 0
M  V30 1503 H 145.335 -1.08243 3.82582 0
M  V30 1504 N 146.332 -1.57332 0.0918853 0
M  V30 1505 C 147.28 -2.15075 -0.885747 0
M  V30 1506 C 148.274 -1.09277 -1.29441 0
M  V30 1507 O 149.48 -1.27627 -1.26931 0
M  V30 1508 H 145.855 -0.687966 -0.303656 0
M  V30 1509 H 147.826 -2.96047 -0.373995 0
M  V30 1510 C 146.575 -2.74325 -2.13638 0
M  V30 1511 H 145.898 -3.55418 -1.8308 0
M  V30 1512 H 147.338 -3.183 -2.80109 0
M  V30 1513 C 145.797 -1.70062 -2.90827 0
M  V30 1514 O 146.327 -1.13763 -3.85254 0
M  V30 1515 N 144.533 -1.40628 -2.54307 0
M  V30 1516 H 144.08 -1.866 -1.7759 0
M  V30 1517 H 144.038 -0.711043 -3.06254 0
M  V30 1518 N 147.81 0.181792 -1.56548 0
M  V30 1519 C 148.74 1.22765 -1.98623 0
M  V30 1520 C 149.721 1.46747 -0.860189 0
M  V30 1521 O 150.906 1.58259 -1.12551 0
M  V30 1522 C 148.036 2.56894 -2.33715 0
M  V30 1523 C 146.99 2.475 -3.49182 0
M  V30 1524 C 146.316 3.86023 -3.69986 0
M  V30 1525 C 147.616 1.98866 -4.82959 0
M  V30 1526 H 149.31 0.877942 -2.86239 0
M  V30 1527 H 146.856 0.42088 -1.37712 0
M  V30 1528 H 148.809 3.30253 -2.61746 0
M  V30 1529 H 147.533 2.93632 -1.42997 0
M  V30 1530 H 146.192 1.76596 -3.21262 0
M  V30 1531 H 145.84 4.20136 -2.76576 0
M  V30 1532 H 145.54 3.80609 -4.47672 0
M  V30 1533 H 147.064 4.60984 -4.00407 0
M  V30 1534 H 148.478 2.61992 -5.09934 0
M  V30 1535 H 146.875 2.04424 -5.64208 0
M  V30 1536 H 147.945 0.942465 -4.75653 0
M  V30 1537 N 149.288 1.51039 0.449983 0
M  V30 1538 C 150.218 1.74379 1.55288 0
M  V30 1539 C 151.199 0.593236 1.5942 0
M  V30 1540 O 152.384 0.834625 1.7535 0
M  V30 1541 C 149.514 1.85728 2.93466 0
M  V30 1542 C 148.468 3.01078 3.04197 0
M  V30 1543 C 147.794 2.97595 4.44231 0
M  V30 1544 C 149.094 4.41254 2.7945 0
M  V30 1545 H 150.788 2.66725 1.36008 0
M  V30 1546 H 148.334 1.2835 0.652864 0
M  V30 1547 H 150.287 2.0064 3.70569 0
M  V30 1548 H 149.011 0.900207 3.13949 0
M  V30 1549 H 147.67 2.85851 2.29531 0
M  V30 1550 H 147.318 1.99691 4.61663 0
M  V30 1551 H 147.018 3.75046 4.52343 0
M  V30 1552 H 148.542 3.14583 5.23326 0
M  V30 1553 H 149.956 4.56897 3.46292 0
M  V30 1554 H 148.353 5.20315 2.98985 0
M  V30 1555 H 149.423 4.52164 1.75144 0
M  V30 1556 N 150.766 -0.704594 1.40972 0
M  V30 1557 C 152.182 -1.01406 1.23244 0
M  V30 1558 C 152.382 -2.01169 0.115399 0
M  V30 1559 O 151.438 -2.47021 -0.523147 0
M  V30 1560 C 152.751 -1.54728 2.57836 0
M  V30 1561 C 154.299 -1.66658 2.64942 0
M  V30 1562 C 154.774 -2.23383 3.9983 0
M  V30 1563 N 156.265 -2.30756 4.01629 0
M  V30 1564 C 157 -2.75655 5.02794 0
M  V30 1565 N 156.496 -3.20225 6.14352 0
M  V30 1566 N 158.289 -2.75138 4.90159 0
M  V30 1567 H 150.44 -0.0435285 2.12355 0
M  V30 1568 H 152.703 -0.0818951 0.944456 0
M  V30 1569 H 152.409 -0.888832 3.40283 0
M  V30 1570 H 152.283 -2.53084 2.79693 0
M  V30 1571 H 154.67 -2.31617 1.8286 0
M  V30 1572 H 154.751 -0.668717 2.46904 0
M  V30 1573 H 154.395 -1.59043 4.82357 0
M  V30 1574 H 154.325 -3.23904 4.15203 0
M  V30 1575 H 156.816 -1.99291 3.21079 0
M  V30 1576 H 157.129 -3.53084 6.87424 0
M  V30 1577 H 155.474 -3.18156 6.17901 0
M  V30 1578 H 158.665 -2.39661 4.02095 0
M  V30 1579 H 158.838 -3.09812 5.6914 0
M  V30 1580 N 152.244 -1.26651 -0.937939 0
M  V30 1581 C 153.472 -1.15173 -1.7188 0
M  V30 1582 C 153.887 0.292668 -1.86518 0
M  V30 1583 O 153.244 1.20014 -1.37488 0
M  V30 1584 C 153.295 -1.81925 -3.12387 0
M  V30 1585 O 153.016 -3.2072 -2.98446 0
M  V30 1586 C 154.517 -1.76442 -4.06673 0
M  V30 1587 H 151.737 -0.400911 -0.538063 0
M  V30 1588 H 154.281 -1.67332 -1.1756 0
M  V30 1589 H 152.436 -1.33696 -3.63599 0
M  V30 1590 H 152.85 -3.53802 -3.872 0
M  V30 1591 H 154.324 -2.27781 -5.02812 0
M  V30 1592 H 154.801 -0.731608 -4.33064 0
M  V30 1593 H 155.407 -2.24238 -3.61382 0
M  V30 1594 N 153.722 1.14298 -1.08507 0
M  V30 1595 C 155.133 1.66926 -0.836227 0
M  V30 1596 C 155.484 1.85576 0.63686 0
M  V30 1597 O 154.609 1.56767 1.49175 0
M  V30 1598 C 155.204 3.03219 -1.51142 0
M  V30 1599 C 153.763 3.52876 -1.30979 0
M  V30 1600 C 152.91 2.2833 -1.57356 0
M  V30 1601 H 155.861 0.983491 -1.24552 0
M  V30 1602 H 155.882 3.68726 -0.939211 0
M  V30 1603 H 155.394 2.89612 -2.58353 0
M  V30 1604 H 153.495 3.71703 -0.258429 0
M  V30 1605 H 153.608 4.33586 -2.03814 0
M  V30 1606 H 151.972 2.34454 -0.995164 0
M  V30 1607 H 152.755 2.17298 -2.65775 0
M  V30 1608 N 155.201 0.870884 1.31352 0
M  V30 1609 C 156.426 0.495957 2.01383 0
M  V30 1610 C 156.851 -0.904324 1.64935 0
M  V30 1611 O 156.209 -1.59687 0.858466 0
M  V30 1612 C 156.257 0.661433 3.54482 0
M  V30 1613 O 155.361 -0.298851 4.11316 0
M  V30 1614 H 154.702 0.197158 0.634054 0
M  V30 1615 H 157.232 1.17455 1.67527 0
M  V30 1616 H 157.242 0.555072 4.04207 0
M  V30 1617 H 155.917 1.68246 3.8035 0
M  V30 1618 H 154.494 -0.147368 3.72609 0
M  V30 1619 N 156.679 -1.44442 0.630414 0
M  V30 1620 C 157.925 -2.02351 0.134816 0
M  V30 1621 C 158.258 -1.4947 -1.23986 0
M  V30 1622 O 157.533 -0.678475 -1.82283 0
M  V30 1623 C 157.816 -3.59898 0.120707 0
M  V30 1624 C 157.669 -4.23063 1.52767 0
M  V30 1625 C 158.988 -4.36585 -0.555127 0
M  V30 1626 H 156.107 -0.73527 0.0504646 0
M  V30 1627 H 158.749 -1.72022 0.806751 0
M  V30 1628 H 156.899 -3.85868 -0.451477 0
M  V30 1629 H 158.571 -4.08202 2.14869 0
M  V30 1630 H 156.814 -3.80586 2.08175 0
M  V30 1631 H 157.485 -5.32071 1.46984 0
M  V30 1632 H 159.961 -4.16044 -0.0685429 0
M  V30 1633 H 158.837 -5.46294 -0.534185 0
M  V30 1634 H 159.098 -4.11138 -1.62535 0
M  V30 1635 N 158.157 -0.370918 -1.53173 0
M  V30 1636 C 159.089 0.507823 -2.23503 0
M  V30 1637 C 160.102 1.04182 -1.251 0
M  V30 1638 O 161.291 0.947286 -1.5129 0
M  V30 1639 C 158.391 1.71447 -2.92334 0
M  V30 1640 C 157.564 1.31105 -4.17289 0
M  V30 1641 C 156.623 2.38035 -4.69282 0
M  V30 1642 O 155.649 2.00204 -5.32829 0
M  V30 1643 N 156.851 3.69697 -4.47554 0
M  V30 1644 H 159.616 -0.0946382 -2.99551 0
M  V30 1645 H 157.177 -0.196358 -1.60705 0
M  V30 1646 H 159.169 2.42469 -3.24023 0
M  V30 1647 H 157.739 2.22368 -2.19707 0
M  V30 1648 H 156.959 0.430462 -3.91843 0
M  V30 1649 H 158.247 1.0179 -4.98514 0
M  V30 1650 H 157.645 4.03205 -3.9679 0
M  V30 1651 H 156.202 4.36807 -4.8378 0
M  V30 1652 N 159.635 1.57281 -0.100228 0
M  V30 1653 C 160.565 2.17328 0.853857 0
M  V30 1654 C 161.546 1.10804 1.2906 0
M  V30 1655 O 162.731 1.38963 1.35657 0
M  V30 1656 C 159.861 2.75772 2.11109 0
M  V30 1657 C 158.815 3.87713 1.81279 0
M  V30 1658 C 158.141 4.32882 3.13874 0
M  V30 1659 C 159.441 5.10677 1.09574 0
M  V30 1660 H 161.135 2.97305 0.353545 0
M  V30 1661 H 158.681 1.43009 0.168612 0
M  V30 1662 H 160.634 3.16433 2.78296 0
M  V30 1663 H 159.358 1.93057 2.63432 0
M  V30 1664 H 158.017 3.476 1.16489 0
M  V30 1665 H 157.665 3.47051 3.64095 0
M  V30 1666 H 157.365 5.08358 2.94696 0
M  V30 1667 H 158.889 4.7618 3.82211 0
M  V30 1668 H 160.303 5.48474 1.66879 0
M  V30 1669 H 158.7 5.91615 1.00557 0
M  V30 1670 H 159.77 4.84835 0.0793299 0
M  V30 1671 N 161.113 -0.173488 1.56642 0
M  V30 1672 C 162.359 -0.891784 1.8214 0
M  V30 1673 C 162.692 -1.8199 0.677736 0
M  V30 1674 O 161.967 -1.91842 -0.320446 0
M  V30 1675 C 162.25 -1.68933 3.18015 0
M  V30 1676 C 162.103 -0.784487 4.42906 0
M  V30 1677 C 163.422 -2.65748 3.50808 0
M  V30 1678 H 160.541 -0.322761 0.662567 0
M  V30 1679 H 163.183 -0.158095 1.89341 0
M  V30 1680 H 161.333 -2.31482 3.12007 0
M  V30 1681 H 163.005 -0.172046 4.60979 0
M  V30 1682 H 161.248 -0.0924117 4.33702 0
M  V30 1683 H 161.919 -1.37799 5.34524 0
M  V30 1684 H 164.395 -2.13327 3.57255 0
M  V30 1685 H 163.271 -3.18619 4.4696 0
M  V30 1686 H 163.532 -3.45842 2.75401 0
M  V30 1687 N 162.591 -1.51276 -0.441967 0
M  V30 1688 C 163.523 -1.68444 -1.55433 0
M  V30 1689 C 164.536 -0.565187 -1.52674 0
M  V30 1690 O 165.725 -0.839356 -1.57534 0
M  V30 1691 C 162.825 -1.67966 -2.94348 0
M  V30 1692 C 161.998 -2.964 -3.21661 0
M  V30 1693 C 161.057 -2.88171 -4.40277 0
M  V30 1694 O 160.083 -3.62119 -4.39157 0
M  V30 1695 N 161.285 -2.03706 -5.43584 0
M  V30 1696 H 164.05 -2.644 -1.41112 0
M  V30 1697 H 161.611 -1.49104 -0.630838 0
M  V30 1698 H 163.603 -1.60035 -3.71713 0
M  V30 1699 H 162.173 -0.796225 -3.0229 0
M  V30 1700 H 161.393 -3.18234 -2.32638 0
M  V30 1701 H 162.681 -3.81427 -3.36736 0
M  V30 1702 H 162.079 -1.42995 -5.47329 0
M  V30 1703 H 160.636 -2.01658 -6.1982 0
M  V30 1704 N 164.069 0.697108 -1.41344 0
M  V30 1705 C 165.294 1.49096 -1.44171 0
M  V30 1706 C 165.719 1.88038 -0.0481568 0
M  V30 1707 O 165.077 1.54525 0.948243 0
M  V30 1708 C 165.125 2.73088 -2.3549 0
M  V30 1709 O 164.229 3.70514 -1.81088 0
M  V30 1710 H 163.57 0.448801 -0.489361 0
M  V30 1711 H 166.1 0.856992 -1.85787 0
M  V30 1712 H 166.11 3.21413 -2.51312 0
M  V30 1713 H 164.785 2.44081 -3.36745 0
M  V30 1714 H 163.362 3.29441 -1.74708 0
M  V30 1715 N 165.547 1.27147 0.931209 0
M  V30 1716 C 166.793 1.14455 1.68141 0
M  V30 1717 C 167.148 -0.307172 1.89932 0
M  V30 1718 O 166.441 -1.22158 1.47607 0
M  V30 1719 C 166.635 1.8579 3.05314 0
M  V30 1720 C 166.464 3.3775 2.96909 0
M  V30 1721 C 165.234 4.07062 2.99381 0
M  V30 1722 C 167.432 4.33783 2.76291 0
M  V30 1723 N 165.414 5.45618 2.8138 0
M  V30 1724 C 166.785 5.59582 2.6696 0
M  V30 1725 C 168.84 4.23915 2.61152 0
M  V30 1726 C 167.543 6.76639 2.44033 0
M  V30 1727 C 169.569 5.40689 2.39602 0
M  V30 1728 C 168.931 6.65443 2.3101 0
M  V30 1729 H 165.03 0.473667 0.622225 0
M  V30 1730 H 167.614 1.60568 1.10118 0
M  V30 1731 H 165.785 1.42138 3.61457 0
M  V30 1732 H 167.517 1.65634 3.69253 0
M  V30 1733 H 164.272 3.585 3.09475 0
M  V30 1734 H 164.696 6.184 2.75519 0
M  V30 1735 H 169.338 3.28189 2.66555 0
M  V30 1736 H 167.056 7.72451 2.3737 0
M  V30 1737 H 170.642 5.34932 2.28778 0
M  V30 1738 H 169.522 7.54277 2.14558 0
M  V30 1739 N 167.025 -1.13721 1.09112 0
M  V30 1740 C 168.255 -1.88499 0.845671 0
M  V30 1741 C 168.663 -1.79218 -0.606432 0
M  V30 1742 O 168.006 -1.1544 -1.42896 0
M  V30 1743 C 168.068 -3.38954 1.19793 0
M  V30 1744 C 167.732 -3.72018 2.65428 0
M  V30 1745 C 168.729 -3.7153 3.63677 0
M  V30 1746 C 166.414 -4.01775 3.01467 0
M  V30 1747 C 168.408 -4.00336 4.95994 0
M  V30 1748 C 166.095 -4.30243 4.33975 0
M  V30 1749 C 167.093 -4.29508 5.31048 0
M  V30 1750 O 166.781 -4.5728 6.61173 0
M  V30 1751 H 166.513 -0.603702 0.304171 0
M  V30 1752 H 169.067 -1.44903 1.45576 0
M  V30 1753 H 167.297 -3.83039 0.530871 0
M  V30 1754 H 168.986 -3.95052 0.932146 0
M  V30 1755 H 169.752 -3.4862 3.37179 0
M  V30 1756 H 165.631 -4.01496 2.26544 0
M  V30 1757 H 169.175 -3.99678 5.71755 0
M  V30 1758 H 165.072 -4.52625 4.60219 0
M  V30 1759 H 165.84 -4.74964 6.66597 0
M  V30 1760 N 168.503 -0.877838 -1.30888 0
M  V30 1761 C 169.752 -0.488793 -1.95688 0
M  V30 1762 C 170.065 0.965485 -1.70111 0
M  V30 1763 O 171.271 1.46104 -2.28836 0
M  V30 1764 C 169.727 -0.823201 -3.50359 0
M  V30 1765 C 169.335 -2.29477 -3.84765 0
M  V30 1766 C 171.079 -0.503009 -4.21509 0
M  V30 1767 C 168.986 -2.57118 -5.32583 0
M  V30 1768 H 167.916 -0.179062 -0.732429 0
M  V30 1769 H 170.567 -1.07183 -1.48943 0
M  V30 1770 H 168.949 -0.169331 -3.95638 0
M  V30 1771 H 170.123 -2.99236 -3.5042 0
M  V30 1772 H 168.438 -2.58178 -3.267 0
M  V30 1773 H 171.035 -0.68665 -5.30273 0
M  V30 1774 H 171.378 0.557109 -4.12555 0
M  V30 1775 H 171.911 -1.11376 -3.8189 0
M  V30 1776 H 168.65 -3.61843 -5.4658 0
M  V30 1777 H 168.17 -1.91961 -5.68253 0
M  V30 1778 H 169.849 -2.42251 -5.99936 0
M  V30 1779 N 169.982 1.44106 -0.638065 0
M  V30 1780 C 170.914 2.28976 0.101205 0
M  V30 1781 C 171.927 1.4167 0.802088 0
M  V30 1782 O 173.116 1.65755 0.662375 0
M  V30 1783 C 170.216 3.18217 1.16581 0
M  V30 1784 C 169.389 4.33978 0.546066 0
M  V30 1785 C 168.448 5.04202 1.50554 0
M  V30 1786 O 167.474 5.59986 1.01999 0
M  V30 1787 N 168.676 5.06296 2.8398 0
M  V30 1788 H 171.441 2.93064 -0.627186 0
M  V30 1789 H 169.002 1.54629 -0.479731 0
M  V30 1790 H 170.994 3.62061 1.80815 0
M  V30 1791 H 169.564 2.55833 1.79634 0
M  V30 1792 H 168.784 3.93239 -0.275046 0
M  V30 1793 H 170.072 5.08675 0.112793 0
M  V30 1794 H 169.47 4.62319 3.26002 0
M  V30 1795 H 168.027 5.53907 3.43556 0
M  V30 1796 N 171.46 0.379036 1.52974 0
M  V30 1797 C 172.685 -0.209353 2.06341 0
M  V30 1798 C 173.11 -1.40583 1.24972 0
M  V30 1799 O 172.468 -1.79246 0.272155 0
M  V30 1800 C 172.516 -0.567786 3.56102 0
M  V30 1801 O 171.62 -1.66318 3.77375 0
M  V30 1802 H 170.961 -0.0272919 0.663439 0
M  V30 1803 H 173.491 0.543536 1.97248 0
M  V30 1804 H 173.501 -0.835003 3.99364 0
M  V30 1805 H 172.176 0.307013 4.14765 0
M  V30 1806 H 170.753 -1.39048 3.46006 0
M  V30 1807 N 172.938 -1.57226 0.108567 0
M  V30 1808 C 173.868 -2.17778 -0.84232 0
M  V30 1809 C 174.849 -1.11487 -1.2847 0
M  V30 1810 O 176.034 -1.39681 -1.34918 0
M  V30 1811 C 173.164 -2.76888 -2.09644 0
M  V30 1812 C 172.118 -3.88669 -1.79221 0
M  V30 1813 C 171.444 -4.34541 -3.11574 0
M  V30 1814 C 172.744 -5.11251 -1.06864 0
M  V30 1815 H 174.438 -2.97489 -0.337774 0
M  V30 1816 H 171.984 -1.43097 -0.161025 0
M  V30 1817 H 173.937 -3.17904 -2.76614 0
M  V30 1818 H 172.661 -1.94451 -2.62405 0
M  V30 1819 H 171.32 -3.48213 -1.14644 0
M  V30 1820 H 170.968 -3.48977 -3.62249 0
M  V30 1821 H 170.668 -5.09914 -2.91996 0
M  V30 1822 H 172.192 -4.782 -3.7968 0
M  V30 1823 H 173.606 -5.49352 -1.63968 0
M  V30 1824 H 172.003 -5.9214 -0.974178 0
M  V30 1825 H 173.073 -4.8487 -0.0536168 0
M  V30 1826 N 174.416 0.165178 -1.56732 0
M  V30 1827 C 175.348 1.22911 -1.93457 0
M  V30 1828 C 176.361 1.40152 -0.828333 0
M  V30 1829 O 177.55 1.40046 -1.10677 0
M  V30 1830 C 174.65 2.59686 -2.17753 0
M  V30 1831 C 173.823 2.63663 -3.48999 0
M  V30 1832 C 172.882 3.81845 -3.62051 0
M  V30 1833 O 171.908 3.67559 -4.34613 0
M  V30 1834 N 173.11 4.98557 -2.97357 0
M  V30 1835 H 175.875 0.917118 -2.85323 0
M  V30 1836 H 173.436 0.354895 -1.57962 0
M  V30 1837 H 175.428 3.37225 -2.23743 0
M  V30 1838 H 173.998 2.83251 -1.32242 0
M  V30 1839 H 173.218 1.72173 -3.54612 0
M  V30 1840 H 174.506 2.63336 -4.35352 0
M  V30 1841 H 173.904 5.13065 -2.38287 0
M  V30 1842 H 172.461 5.73936 -3.08934 0
M  V30 1843 N 175.894 1.51508 0.433938 0
M  V30 1844 C 176.804 1.75917 1.5521 0
M  V30 1845 C 177.82 0.643545 1.61662 0
M  V30 1846 O 178.996 0.926183 1.7884 0
M  V30 1847 C 176.061 1.88213 2.91164 0
M  V30 1848 C 175.122 3.12074 2.94802 0
M  V30 1849 C 174.355 3.23774 4.24271 0
M  V30 1850 O 174.578 2.4133 5.16833 0
M  V30 1851 O 173.512 4.16774 4.34262 0
M  V30 1852 H 177.338 2.70777 1.37527 0
M  V30 1853 H 174.923 1.36051 0.617293 0
M  V30 1854 H 176.805 1.98267 3.71845 0
M  V30 1855 H 175.48 0.965413 3.08968 0
M  V30 1856 H 174.387 3.07497 2.13065 0
M  V30 1857 H 175.72 4.03446 2.81943 0
M  V30 1858 N 177.372 -0.689602 1.41712 0
M  V30 1859 C 178.302 -1.81577 1.46806 0
M  V30 1860 C 179.283 -1.66945 0.326105 0
M  V30 1861 O 180.468 -1.86588 0.538377 0
M  V30 1862 C 177.598 -3.19762 1.35535 0
M  V30 1863 C 176.552 -3.49107 2.47605 0
M  V30 1864 C 175.878 -4.86711 2.21397 0
M  V30 1865 C 177.178 -3.47483 3.89939 0
M  V30 1866 H 178.872 -1.7757 2.41058 0
M  V30 1867 H 176.418 -0.852887 1.16025 0
M  V30 1868 H 178.371 -3.98263 1.3771 0
M  V30 1869 H 177.095 -3.24409 0.377708 0
M  V30 1870 H 175.754 -2.72959 2.44722 0
M  V30 1871 H 175.402 -4.8799 1.21961 0
M  V30 1872 H 175.102 -5.0731 2.96497 0
M  V30 1873 H 176.626 -5.67515 2.25297 0
M  V30 1874 H 178.04 -4.1598 3.94505 0
M  V30 1875 H 176.437 -3.79615 4.64771 0
M  V30 1876 H 177.507 -2.46341 4.17665 0
M  V30 1877 N 178.85 -1.27639 -0.924453 0
M  V30 1878 C 179.78 -1.13166 -2.04244 0
M  V30 1879 C 180.761 -0.032256 -1.70069 0
M  V30 1880 O 181.946 -0.207328 -1.9309 0
M  V30 1881 C 179.076 -0.781496 -3.38393 0
M  V30 1882 C 178.03 -1.83449 -3.86692 0
M  V30 1883 C 177.356 -1.33822 -5.17683 0
M  V30 1884 C 178.656 -3.23917 -4.09726 0
M  V30 1885 H 180.35 -2.06689 -2.1661 0
M  V30 1886 H 177.896 -0.995136 -1.04082 0
M  V30 1887 H 179.849 -0.667057 -4.16087 0
M  V30 1888 H 178.573 0.189439 -3.2605 0
M  V30 1889 H 177.232 -1.93789 -3.11193 0
M  V30 1890 H 176.88 -0.35665 -5.01734 0
M  V30 1891 H 176.58 -2.04224 -5.50968 0
M  V30 1892 H 178.104 -1.23679 -5.97943 0
M  V30 1893 H 179.518 -3.16559 -4.77978 0
M  V30 1894 H 177.915 -3.92059 -4.54324 0
M  V30 1895 H 178.985 -3.68729 -3.14908 0
M  V30 1896 N 180.328 1.1314 -1.09713 0
M  V30 1897 C 181.605 1.80762 -0.747302 0
M  V30 1898 C 181.985 1.96663 0.767265 0
M  V30 1899 O 181.333 1.53706 1.69076 0
M  V30 1900 C 181.543 3.15606 -1.48975 0
M  V30 1901 C 182.891 3.90914 -1.65746 0
M  V30 1902 O 183.915 3.25239 -1.45251 0
M  V30 1903 O 182.774 5.08718 -1.9967 0
M  V30 1904 H 179.868 0.782103 -0.268782 0
M  V30 1905 H 182.414 1.20041 -1.19951 0
M  V30 1906 H 181.186 2.99278 -2.52088 0
M  V30 1907 H 180.809 3.84029 -1.02991 0
M  V30 1908 N 181.806 0.884767 1.30421 0
M  V30 1909 C 183.053 0.503105 1.96151 0
M  V30 1910 C 183.381 -0.947676 1.69851 0
M  V30 1911 O 182.636 -1.68467 0.995861 0
M  V30 1912 C 182.935 0.724318 3.49983 0
M  V30 1913 C 182.601 2.15015 3.96332 0
M  V30 1914 C 181.263 2.54005 4.08699 0
M  V30 1915 C 183.615 3.07936 4.20505 0
M  V30 1916 C 180.943 3.85128 4.42599 0
M  V30 1917 C 183.295 4.3859 4.55874 0
M  V30 1918 C 181.959 4.77474 4.66449 0
M  V30 1919 H 181.229 0.184099 0.717766 0
M  V30 1920 H 183.876 1.12058 1.55291 0
M  V30 1921 H 182.181 0.0238086 3.91793 0
M  V30 1922 H 183.878 0.408617 3.98913 0
M  V30 1923 H 180.468 1.8375 3.87213 0
M  V30 1924 H 184.652 2.79033 4.10431 0
M  V30 1925 H 179.908 4.14996 4.48986 0
M  V30 1926 H 184.082 5.10629 4.7353 0
M  V30 1927 H 181.709 5.79115 4.92473 0
M  V30 1928 N 183.284 -1.43765 0.645699 0
M  V30 1929 C 184.231 -2.30745 -0.0504648 0
M  V30 1930 C 185.201 -1.4432 -0.822241 0
M  V30 1931 O 186.386 -1.73202 -0.800358 0
M  V30 1932 C 183.526 -3.29802 -1.0161 0
M  V30 1933 C 182.639 -4.31326 -0.241219 0
M  V30 1934 C 181.774 -5.17469 -1.19998 0
M  V30 1935 C 180.813 -6.10691 -0.415094 0
M  V30 1936 N 179.95 -6.89483 -1.32506 0
M  V30 1937 H 184.79 -2.8973 0.697155 0
M  V30 1938 H 182.327 -1.42738 0.355563 0
M  V30 1939 H 184.285 -3.85734 -1.58949 0
M  V30 1940 H 182.915 -2.72483 -1.73069 0
M  V30 1941 H 181.967 -3.77749 0.448334 0
M  V30 1942 H 183.279 -4.9743 0.369437 0
M  V30 1943 H 182.433 -5.7799 -1.84424 0
M  V30 1944 H 181.172 -4.51473 -1.84455 0
M  V30 1945 H 180.177 -5.49265 0.242565 0
M  V30 1946 H 181.402 -6.78727 0.224966 0
M  V30 1947 H 179.348 -6.26142 -1.95657 0
M  V30 1948 H 179.265 -7.52081 -0.768783 0
M  V30 1949 H 180.533 -7.54516 -1.9577 0
M  V30 1950 N 184.763 -0.387143 -1.52771 0
M  V30 1951 C 186.04 0.253197 -1.93954 0
M  V30 1952 C 186.42 1.64545 -1.32243 0
M  V30 1953 O 185.768 2.23191 -0.489699 0
M  V30 1954 C 185.978 0.281722 -3.47861 0
M  V30 1955 C 187.326 0.511715 -4.21505 0
M  V30 1956 O 188.35 0.362023 -3.54356 0
M  V30 1957 O 187.209 0.804847 -5.40541 0
M  V30 1958 H 184.303 0.156845 -0.811991 0
M  V30 1959 H 186.849 -0.441494 -1.63856 0
M  V30 1960 H 185.621 -0.693571 -3.85104 0
M  V30 1961 H 185.244 1.02142 -3.84256 0
M  V30 1962 N 186.241 1.57166 -0.116904 0
M  V30 1963 C 187.188 2.15202 0.83408 0
M  V30 1964 C 188.158 1.07644 1.26499 0
M  V30 1965 O 189.343 1.35541 1.34288 0
M  V30 1966 C 186.483 2.75405 2.07957 0
M  V30 1967 C 185.596 3.97264 1.69721 0
M  V30 1968 C 184.731 4.45561 2.89221 0
M  V30 1969 C 183.77 5.59956 2.47215 0
M  V30 1970 N 182.907 6.03006 3.59622 0
M  V30 1971 H 187.747 2.96141 0.332335 0
M  V30 1972 H 185.284 1.46309 0.152349 0
M  V30 1973 H 187.242 3.08439 2.80929 0
M  V30 1974 H 185.872 1.97159 2.55594 0
M  V30 1975 H 184.924 3.70404 0.866316 0
M  V30 1976 H 186.236 4.80226 1.34849 0
M  V30 1977 H 185.39 4.80493 3.7042 0
M  V30 1978 H 184.129 3.61544 3.27318 0
M  V30 1979 H 183.134 5.2463 1.64448 0
M  V30 1980 H 184.359 6.45738 2.10238 0
M  V30 1981 H 182.305 5.21931 3.97396 0
M  V30 1982 H 182.222 6.80819 3.28667 0
M  V30 1983 H 183.49 6.42576 4.41267 0
M  V30 1984 N 187.719 -0.156864 1.56817 0
M  V30 1985 C 188.944 -0.890331 1.87318 0
M  V30 1986 C 189.369 -1.74394 0.704855 0
M  V30 1987 O 188.727 -1.77972 -0.345786 0
M  V30 1988 C 188.775 -1.73102 3.16336 0
M  V30 1989 O 187.879 -2.83422 2.99576 0
M  V30 1990 H 187.22 -0.24857 0.615718 0
M  V30 1991 H 189.75 -0.150649 2.04045 0
M  V30 1992 H 189.76 -2.12803 3.48107 0
M  V30 1993 H 188.435 -1.10412 4.00976 0
M  V30 1994 H 187.012 -2.47199 2.7919 0
M  V30 1995 N 189.197 -1.51736 -0.425897 0
M  V30 1996 C 190.16 -1.73271 -1.50032 0
M  V30 1997 C 191.16 -0.602639 -1.4908 0
M  V30 1998 O 192.35 -0.87033 -1.509 0
M  V30 1999 C 189.482 -1.79969 -2.89523 0
M  V30 2000 H 190.675 -2.69172 -1.32237 0
M  V30 2001 H 188.228 -1.41899 -0.65532 0
M  V30 2002 H 188.963 -0.859241 -3.1271 0
M  V30 2003 H 188.748 -2.62109 -2.91619 0
M  V30 2004 H 190.238 -1.9843 -3.67444 0
M  V30 2005 N 190.675 0.682077 -1.42076 0
M  V30 2006 C 191.585 1.82535 -1.47371 0
M  V30 2007 C 192.601 1.7017 -0.363079 0
M  V30 2008 O 193.777 1.91848 -0.612875 0
M  V30 2009 C 190.842 3.18624 -1.36674 0
M  V30 2010 C 189.903 3.42999 -2.58167 0
M  V30 2011 C 189.136 4.72595 -2.4797 0
M  V30 2012 O 189.359 5.50006 -1.5116 0
M  V30 2013 O 188.293 4.98054 -3.37974 0
M  V30 2014 H 192.119 1.81023 -2.43853 0
M  V30 2015 H 189.704 0.836887 -1.2376 0
M  V30 2016 H 191.586 3.99847 -1.33043 0
M  V30 2017 H 190.261 3.20789 -0.433138 0
M  V30 2018 H 189.168 2.61653 -2.67373 0
M  V30 2019 H 190.501 3.45659 -3.50401 0
M  V30 2020 N 192.153 1.28127 0.917671 0
M  V30 2021 C 193.43 1.05761 1.64542 0
M  V30 2022 C 193.81 -0.404344 2.07191 0
M  V30 2023 O 193.158 -1.38963 1.81388 0
M  V30 2024 C 193.368 2.02857 2.83989 0
M  V30 2025 C 194.716 2.32786 3.551 0
M  V30 2026 O 195.74 2.0091 2.94132 0
M  V30 2027 O 194.599 2.87169 4.64969 0
M  V30 2028 H 191.693 0.403916 0.721652 0
M  V30 2029 H 194.239 1.39431 0.967322 0
M  V30 2030 H 193.011 3.01407 2.49538 0
M  V30 2031 H 192.634 1.69809 3.59514 0
M  V30 2032 N 193.631 -1.12557 1.10312 0
M  V30 2033 C 194.594 -2.16434 0.75424 0
M  V30 2034 C 195.594 -1.59278 -0.220685 0
M  V30 2035 O 196.784 -1.742 0.00230591 0
M  V30 2036 C 193.916 -3.40699 0.116987 0
M  V30 2037 H 195.109 -2.48811 1.67431 0
M  V30 2038 H 192.662 -1.27542 0.903475 0
M  V30 2039 H 193.397 -3.13921 -0.813877 0
M  V30 2040 H 193.182 -3.83459 0.818613 0
M  V30 2041 H 194.672 -4.17451 -0.111387 0
M  V30 2042 N 195.109 -0.891671 -1.2995 0
M  V30 2043 C 196.056 -0.361736 -2.27948 0
M  V30 2044 C 197.026 0.551761 -1.56668 0
M  V30 2045 O 198.211 0.478736 -1.84696 0
M  V30 2046 C 195.351 0.411825 -3.42634 0
M  V30 2047 C 194.464 -0.531651 -4.28716 0
M  V30 2048 C 193.599 0.258167 -5.30572 0
M  V30 2049 C 192.638 -0.680349 -6.08307 0
M  V30 2050 N 191.775 0.0745613 -7.0206 0
M  V30 2051 H 196.615 -1.20254 -2.72659 0
M  V30 2052 H 194.152 -0.604352 -1.34112 0
M  V30 2053 H 196.11 0.876304 -4.07893 0
M  V30 2054 H 194.74 1.21715 -2.98974 0
M  V30 2055 H 193.792 -1.11463 -3.63703 0
M  V30 2056 H 195.104 -1.25038 -4.82874 0
M  V30 2057 H 194.258 0.784204 -6.0161 0
M  V30 2058 H 192.997 1.01008 -4.77126 0
M  V30 2059 H 192.002 -1.21796 -5.3614 0
M  V30 2060 H 193.227 -1.43145 -6.63842 0
M  V30 2061 H 191.173 0.808883 -6.50994 0
M  V30 2062 H 191.09 -0.584409 -7.53738 0
M  V30 2063 H 192.358 0.581123 -7.77331 0
M  V30 2064 N 196.587 1.43421 -0.653314 0
M  V30 2065 C 197.55 2.29182 0.0287951 0
M  V30 2066 C 198.55 1.42213 0.750465 0
M  V30 2067 O 199.74 1.63843 0.591701 0
M  V30 2068 C 196.872 3.24278 1.05151 0
M  V30 2069 H 198.065 2.90985 -0.725786 0
M  V30 2070 H 195.618 1.50702 -0.414545 0
M  V30 2071 H 196.353 2.6737 1.83532 0
M  V30 2072 H 196.138 3.88396 0.537687 0
M  V30 2073 H 197.628 3.88647 1.52786 0
M  V30 2074 N 198.065 0.39524 1.52563 0
M  V30 2075 C 199.314 -0.186321 2.00838 0
M  V30 2076 C 199.627 -1.47402 1.28577 0
M  V30 2077 O 200.833 -2.13599 1.67593 0
M  V30 2078 C 199.289 -0.382595 3.57861 0
M  V30 2079 C 198.897 0.892202 4.39026 0
M  V30 2080 C 200.641 -0.9202 4.14406 0
M  V30 2081 C 198.548 0.66388 5.87662 0
M  V30 2082 H 197.478 -0.0734041 0.750418 0
M  V30 2083 H 200.129 0.518552 1.76021 0
M  V30 2084 H 198.511 -1.14946 3.7895 0
M  V30 2085 H 199.685 1.66414 4.29701 0
M  V30 2086 H 198 1.35519 3.9373 0
M  V30 2087 H 200.597 -1.10683 5.23119 0
M  V30 2088 H 200.94 -1.89096 3.70875 0
M  V30 2089 H 201.473 -0.212751 3.97231 0
M  V30 2090 H 198.212 1.6058 6.35527 0
M  V30 2091 H 197.732 -0.0690193 5.9976 0
M  V30 2092 H 199.411 0.300699 6.46301 0
M  V30 2093 N 199.544 -1.57102 0.125237 0
M  V30 2094 C 200.774 -1.99472 -0.538015 0
M  V30 2095 C 201.182 -1.00395 -1.60366 0
M  V30 2096 O 200.525 0.0103875 -1.83697 0
M  V30 2097 C 200.587 -3.38262 -1.21734 0
M  V30 2098 C 200.251 -4.56021 -0.298897 0
M  V30 2099 C 201.248 -5.17817 0.464943 0
M  V30 2100 C 198.933 -5.01869 -0.208149 0
M  V30 2101 C 200.927 -6.23852 1.3072 0
M  V30 2102 C 198.614 -6.07763 0.637736 0
M  V30 2103 C 199.612 -6.68622 1.39403 0
M  V30 2104 O 199.3 -7.7247 2.22586 0
M  V30 2105 H 199.032 -0.659934 -0.146501 0
M  V30 2106 H 201.586 -2.04321 0.210267 0
M  V30 2107 H 199.816 -3.30185 -2.01282 0
M  V30 2108 H 201.505 -3.6488 -1.77813 0
M  V30 2109 H 202.271 -4.83308 0.404741 0
M  V30 2110 H 198.15 -4.54241 -0.786522 0
M  V30 2111 H 201.694 -6.71284 1.898 0
M  V30 2112 H 197.591 -6.41701 0.699309 0
M  V30 2113 H 198.359 -7.89595 2.15596 0
M  V30 2114 N 201.022 0.148545 -1.56898 0
M  V30 2115 C 202.299 0.890019 -1.74178 0
M  V30 2116 C 202.679 1.99407 -0.692839 0
M  V30 2117 O 202.027 2.26671 0.288505 0
M  V30 2118 C 202.237 1.43389 -3.18183 0
M  V30 2119 C 203.585 1.89791 -3.79822 0
M  V30 2120 O 204.609 1.53134 -3.21603 0
M  V30 2121 O 203.468 2.57387 -4.82093 0
M  V30 2122 H 200.562 0.420496 -0.712118 0
M  V30 2123 H 203.108 0.134591 -1.69165 0
M  V30 2124 H 201.88 0.640383 -3.86024 0
M  V30 2125 H 201.503 2.25287 -3.27615 0
M  V30 2126 N 202.5 1.5196 0.417844 0
M  V30 2127 C 203.747 1.65591 1.16559 0
M  V30 2128 C 204.075 0.381565 1.90721 0
M  V30 2129 O 203.33 -0.635156 1.85106 0
M  V30 2130 C 203.629 2.82269 2.19223 0
M  V30 2131 C 203.295 4.20819 1.61933 0
M  V30 2132 C 201.957 4.58506 1.46033 0
M  V30 2133 C 204.309 5.07196 1.20008 0
M  V30 2134 C 201.637 5.80257 0.867113 0
M  V30 2135 C 203.989 6.29544 0.621086 0
M  V30 2136 C 202.653 6.65987 0.449144 0
M  V30 2137 H 201.923 0.605939 0.42652 0
M  V30 2138 H 204.57 1.86041 0.45397 0
M  V30 2139 H 202.875 2.56118 2.96498 0
M  V30 2140 H 204.572 2.90012 2.76936 0
M  V30 2141 H 201.162 3.91116 1.7529 0
M  V30 2142 H 205.346 4.7867 1.31105 0
M  V30 2143 H 200.602 6.07124 0.721833 0
M  V30 2144 H 204.776 6.95805 0.287798 0
M  V30 2145 H 202.403 7.60199 -0.012632 0
M  V30 2146 N 203.978 -0.674533 1.42435 0
M  V30 2147 C 205.206 -1.46283 1.46317 0
M  V30 2148 C 205.621 -1.88653 0.0745836 0
M  V30 2149 O 204.978 -1.58151 -0.91074 0
M  V30 2150 C 205.029 -2.71178 2.3905 0
M  V30 2151 O 204.75 -2.30586 3.72507 0
M  V30 2152 C 206.251 -3.64738 2.51955 0
M  V30 2153 H 203.471 -0.450104 0.497642 0
M  V30 2154 H 206.015 -0.828792 1.86953 0
M  V30 2155 H 204.17 -3.3077 2.01667 0
M  V30 2156 H 204.584 -3.11241 4.22172 0
M  V30 2157 H 206.058 -4.49096 3.20962 0
M  V30 2158 H 206.535 -4.10656 1.55752 0
M  V30 2159 H 207.141 -3.11038 2.90061 0
M  V30 2160 N 205.456 -1.28612 -0.910864 0
M  V30 2161 C 206.733 -1.06632 -1.63979 0
M  V30 2162 C 207.113 0.393351 -2.07403 0
M  V30 2163 O 206.461 1.37999 -1.82122 0
M  V30 2164 C 206.671 -2.0436 -2.8291 0
M  V30 2165 C 208.019 -2.34666 -3.5386 0
M  V30 2166 O 209.043 -2.02467 -2.93062 0
M  V30 2167 O 207.902 -2.89631 -4.63439 0
M  V30 2168 H 204.996 -0.407737 -0.7195 0
M  V30 2169 H 207.542 -1.39942 -0.959914 0
M  V30 2170 H 206.314 -3.02727 -2.47936 0
M  V30 2171 H 205.937 -1.71714 -3.58609 0
M  V30 2172 N 206.934 1.1197 -1.10907 0
M  V30 2173 C 208.162 1.87402 -0.876824 0
M  V30 2174 C 208.577 1.79894 0.573025 0
M  V30 2175 O 207.934 1.17629 1.39534 0
M  V30 2176 C 207.985 3.36428 -1.32282 0
M  V30 2177 O 207.706 3.43765 -2.71582 0
M  V30 2178 C 209.207 4.28783 -1.12518 0
M  V30 2179 H 206.427 0.592793 -0.314384 0
M  V30 2180 H 208.971 1.41649 -1.47499 0
M  V30 2181 H 207.126 3.79706 -0.768229 0
M  V30 2182 H 207.54 4.3652 -2.90776 0
M  V30 2183 H 209.014 5.31613 -1.48633 0
M  V30 2184 H 209.491 4.39153 -0.0642394 0
M  V30 2185 H 210.097 3.91291 -1.66648 0
M  V30 2186 N 208.412 0.89855 1.29475 0
M  V30 2187 C 209.658 0.524658 1.95896 0
M  V30 2188 C 209.991 -0.926468 1.70676 0
M  V30 2189 O 209.266 -1.65665 1.01908 0
M  V30 2190 C 209.549 0.81633 3.50725 0
M  V30 2191 C 209.402 2.31907 3.85408 0
M  V30 2192 C 210.721 0.302038 4.39062 0
M  V30 2193 H 207.84 0.19209 0.711527 0
M  V30 2194 H 210.482 1.12502 1.53112 0
M  V30 2195 H 208.632 0.305369 3.87298 0
M  V30 2196 H 210.304 2.89949 3.58786 0
M  V30 2197 H 208.547 2.78027 3.32992 0
M  V30 2198 H 209.218 2.47373 4.93468 0
M  V30 2199 H 211.694 0.739551 4.09475 0
M  V30 2200 H 210.57 0.535331 5.46283 0
M  V30 2201 H 210.831 -0.797216 4.34853 0
M  V30 2202 N 209.89 -1.43072 0.660911 0
M  V30 2203 C 211.139 -2.00942 0.174735 0
M  V30 2204 C 211.452 -1.52797 -1.22117 0
M  V30 2205 O 212.658 -2.02991 -1.80297 0
M  V30 2206 C 211.114 -3.58948 0.261559 0
M  V30 2207 C 210.722 -4.16085 1.66064 0
M  V30 2208 C 212.466 -4.24173 -0.166617 0
M  V30 2209 C 210.373 -5.6641 1.70098 0
M  V30 2210 H 209.303 -0.751483 0.0615631 0
M  V30 2211 H 211.954 -1.63955 0.824069 0
M  V30 2212 H 210.336 -3.93372 -0.455421 0
M  V30 2213 H 211.51 -3.93147 2.40359 0
M  V30 2214 H 209.825 -3.6326 2.03546 0
M  V30 2215 H 212.422 -5.34471 -0.156433 0
M  V30 2216 H 212.765 -3.98647 -1.19943 0
M  V30 2217 H 213.298 -3.94659 0.498875 0
M  V30 2218 H 210.037 -5.96715 2.71315 0
M  V30 2219 H 209.557 -5.91382 1.00139 0
M  V30 2220 H 211.236 -6.30585 1.44816 0
M  V30 2221 N 211.368 -0.403325 -1.52352 0
M  V30 2222 C 212.784 -0.0539281 -1.59509 0
M  V30 2223 C 212.984 1.43307 -1.41652 0
M  V30 2224 O 212.04 2.19924 -1.24056 0
M  V30 2225 C 213.353 -0.543654 -2.95745 0
M  V30 2226 C 214.901 -0.501125 -3.08962 0
M  V30 2227 C 215.376 -0.967267 -4.47669 0
M  V30 2228 N 216.867 -0.923849 -4.53893 0
M  V30 2229 C 217.602 -1.25578 -5.5948 0
M  V30 2230 N 217.098 -1.65889 -6.72646 0
M  V30 2231 N 218.891 -1.17613 -5.49658 0
M  V30 2232 H 211.042 -1.37123 -1.62206 0
M  V30 2233 H 213.305 -0.56294 -0.76276 0
M  V30 2234 H 213.011 -1.58275 -3.14073 0
M  V30 2235 H 212.885 0.0498042 -3.77167 0
M  V30 2236 H 215.272 0.528909 -2.90321 0
M  V30 2237 H 215.353 -1.13056 -2.2946 0
M  V30 2238 H 214.997 -1.9956 -4.67053 0
M  V30 2239 H 214.927 -0.314698 -5.25659 0
M  V30 2240 H 217.418 -0.627403 -3.72655 0
M  V30 2241 H 217.731 -1.89543 -7.49195 0
M  V30 2242 H 216.076 -1.69787 -6.73942 0
M  V30 2243 H 219.267 -0.860115 -4.6013 0
M  V30 2244 H 219.44 -1.43812 -6.3184 0
M  V30 2245 N 212.846 1.57033 -0.133567 0
M  V30 2246 C 214.095 1.94861 0.520768 0
M  V30 2247 C 214.408 1.02012 1.66892 0
M  V30 2248 O 215.614 1.29365 2.38699 0
M  V30 2249 C 214.07 3.46362 0.977809 0
M  V30 2250 C 213.678 4.47773 -0.142674 0
M  V30 2251 C 215.422 3.93083 1.60269 0
M  V30 2252 C 213.329 5.90468 0.331883 0
M  V30 2253 H 212.259 0.727453 0.198315 0
M  V30 2254 H 214.91 1.82227 -0.215759 0
M  V30 2255 H 213.292 3.54282 1.7692 0
M  V30 2256 H 214.466 4.51536 -0.919317 0
M  V30 2257 H 212.781 4.10891 -0.675124 0
M  V30 2258 H 215.378 4.97121 1.96914 0
M  V30 2259 H 215.721 3.33876 2.48662 0
M  V30 2260 H 216.254 3.88025 0.876453 0
M  V30 2261 H 212.993 6.53463 -0.516341 0
M  V30 2262 H 212.513 5.90094 1.07469 0
M  V30 2263 H 214.192 6.42179 0.788332 0
M  V30 2264 N 214.325 -0.140222 1.56975 0
M  V30 2265 C 215.741 -0.493088 1.51792 0
M  V30 2266 C 215.941 -1.83013 0.843116 0
M  V30 2267 O 214.997 -2.49041 0.416493 0
M  V30 2268 C 216.31 -0.497144 2.96562 0
M  V30 2269 C 217.858 -0.582186 3.07538 0
M  V30 2270 C 218.333 -0.616838 4.53827 0
M  V30 2271 N 219.824 -0.678873 4.58198 0
M  V30 2272 C 220.559 -0.726782 5.68775 0
M  V30 2273 N 220.055 -0.733623 6.88905 0
M  V30 2274 N 221.848 -0.768179 5.56826 0
M  V30 2275 H 213.999 0.736108 1.99237 0
M  V30 2276 H 216.262 0.269182 0.90898 0
M  V30 2277 H 215.968 0.417217 3.49217 0
M  V30 2278 H 215.842 -1.33263 3.52875 0
M  V30 2279 H 218.229 -1.48697 2.54899 0
M  V30 2280 H 218.31 0.280581 2.54257 0
M  V30 2281 H 217.954 0.283812 5.07106 0
M  V30 2282 H 217.884 -1.49619 5.04898 0
M  V30 2283 H 220.375 -0.68061 3.7172 0
M  V30 2284 H 220.688 -0.772215 7.68932 0
M  V30 2285 H 219.033 -0.701389 6.91452 0
M  V30 2286 H 222.224 -0.760051 4.61888 0
M  V30 2287 H 222.397 -0.80205 6.43017 0
M  V30 2288 N 215.803 -1.52179 -0.40978 0
M  V30 2289 C 216.751 -1.76086 -1.51975 0
M  V30 2290 C 217.745 -0.627964 -1.57331 0
M  V30 2291 O 218.951 -0.809993 -1.60745 0
M  V30 2292 H 215.326 -0.556829 -0.505416 0
M  V30 2293 H 217.297 -2.69077 -1.28996 0
M  V30 2294 C 216.046 -1.92799 -2.8935 0
M  V30 2295 H 215.369 -2.79392 -2.85972 0
M  V30 2296 H 216.809 -2.13527 -3.66309 0
M  V30 2297 C 215.268 -0.694923 -3.29655 0
M  V30 2298 O 215.798 0.13751 -4.01465 0
M  V30 2299 N 214.004 -0.53101 -2.85707 0
M  V30 2300 H 213.551 -1.20952 -2.27439 0
M  V30 2301 H 213.509 0.292718 -3.13034 0
M  V30 2302 N 217.281 0.66697 -1.42791 0
M  V30 2303 C 218.697 0.981027 -1.25889 0
M  V30 2304 C 218.897 2.00793 -0.168695 0
M  V30 2305 O 217.953 2.48321 0.45747 0
M  V30 2306 C 219.266 1.47838 -2.61848 0
M  V30 2307 C 220.814 1.59575 -2.69267 0
M  V30 2308 C 221.289 2.12704 -4.05612 0
M  V30 2309 N 222.78 2.20026 -4.07606 0
M  V30 2310 C 223.515 2.62227 -5.09926 0
M  V30 2311 N 223.011 3.03824 -6.22626 0
M  V30 2312 N 224.804 2.62045 -4.97281 0
M  V30 2313 H 216.955 -0.0127891 -2.12396 0
M  V30 2314 H 219.218 0.0568258 -0.946295 0
M  V30 2315 H 218.924 0.798299 -3.4252 0
M  V30 2316 H 218.798 2.45579 -2.86305 0
M  V30 2317 H 221.185 2.26687 -1.88936 0
M  V30 2318 H 221.266 0.60302 -2.48591 0
M  V30 2319 H 220.91 1.46198 -4.86404 0
M  V30 2320 H 220.84 3.12782 -4.23645 0
M  V30 2321 H 223.331 1.90708 -3.2625 0
M  V30 2322 H 223.644 3.34734 -6.96544 0
M  V30 2323 H 221.989 3.01662 -6.26119 0
M  V30 2324 H 225.18 2.28916 -4.08308 0
M  V30 2325 H 225.353 2.94613 -5.77154 0
M  V30 2326 N 218.759 1.29093 0.90403 0
M  V30 2327 C 219.709 1.10482 1.99443 0
M  V30 2328 C 220.693 0.0255401 1.6088 0
M  V30 2329 O 221.885 0.24677 1.75271 0
M  V30 2330 C 219.014 0.778882 3.34348 0
M  V30 2331 C 218.1 1.89749 3.79284 0
M  V30 2332 N 218.491 3.14045 3.96497 0
M  V30 2333 C 216.789 1.78955 4.08523 0
M  V30 2334 C 217.49 3.86996 4.34292 0
M  V30 2335 N 216.466 3.14909 4.43095 0
M  V30 2336 H 220.268 2.04778 2.10815 0
M  V30 2337 H 217.782 1.20155 1.09255 0
M  V30 2338 H 219.779 0.62661 4.12164 0
M  V30 2339 H 218.439 -0.156205 3.24324 0
M  V30 2340 H 219.45 3.49548 3.82148 0
M  V30 2341 H 216.127 0.926886 4.07081 0
M  V30 2342 H 217.517 4.93941 4.55491 0
M  V30 2343 N 220.237 -1.11381 1.11499 0
M  V30 2344 C 221.185 -2.19522 0.768956 0
M  V30 2345 C 222.179 -1.67693 -0.239857 0
M  V30 2346 O 223.385 -1.79727 -0.0990755 0
M  V30 2347 H 219.76 -0.715711 0.230786 0
M  V30 2348 H 221.731 -2.45954 1.68964 0
M  V30 2349 C 220.48 -3.46945 0.229073 0
M  V30 2350 H 219.803 -3.8718 0.996596 0
M  V30 2351 H 221.243 -4.23993 0.0251441 0
M  V30 2352 C 219.702 -3.2042 -1.04079 0
M  V30 2353 O 220.232 -3.41178 -2.12038 0
M  V30 2354 N 218.438 -2.74151 -0.963823 0
M  V30 2355 H 217.985 -2.57459 -0.0851722 0
M  V30 2356 H 217.943 -2.56781 -1.81414 0
M  V30 2357 N 221.715 -0.905404 -1.28997 0
M  V30 2358 C 222.992 -0.453513 -1.9027 0
M  V30 2359 C 223.372 1.06721 -1.82137 0
M  V30 2360 O 222.72 1.91159 -1.25182 0
M  V30 2361 C 222.93 -0.974494 -3.35119 0
M  V30 2362 C 224.278 -1.0216 -4.12127 0
M  V30 2363 O 225.302 -0.922557 -3.44046 0
M  V30 2364 O 224.161 -1.17121 -5.33802 0
M  V30 2365 H 221.255 -0.142347 -0.814657 0
M  V30 2366 H 223.801 -0.995642 -1.37423 0
M  V30 2367 H 222.573 -2.01848 -3.35221 0
M  V30 2368 H 222.196 -0.412706 -3.95452 0
M  V30 2369 N 223.193 1.4272 -0.668489 0
M  V30 2370 C 224.439 2.01923 -0.188419 0
M  V30 2371 C 224.772 1.52704 1.19979 0
M  V30 2372 O 224.047 0.726566 1.8042 0
M  V30 2373 C 224.33 3.59451 -0.216085 0
M  V30 2374 C 224.183 4.18864 -1.6393 0
M  V30 2375 C 225.502 4.37903 0.439179 0
M  V30 2376 H 222.621 0.733674 -0.0699412 0
M  V30 2377 H 225.263 1.69822 -0.852076 0
M  V30 2378 H 223.413 3.86929 0.349012 0
M  V30 2379 H 225.085 4.02362 -2.25616 0
M  V30 2380 H 223.328 3.74933 -2.18193 0
M  V30 2381 H 223.999 5.27987 -1.61039 0
M  V30 2382 H 226.475 4.16079 -0.0417878 0
M  V30 2383 H 225.351 5.47519 0.389157 0
M  V30 2384 H 225.612 4.15303 1.51577 0
M  V30 2385 N 224.671 0.411399 1.52136 0
M  V30 2386 C 225.92 -0.165009 2.01024 0
M  V30 2387 C 226.233 -1.4603 1.30133 0
M  V30 2388 O 227.439 -2.1181 1.69849 0
M  V30 2389 C 225.895 -0.344618 3.58246 0
M  V30 2390 C 225.503 0.938716 4.38055 0
M  V30 2391 C 227.247 -0.876195 4.15359 0
M  V30 2392 C 225.154 0.726172 5.86925 0
M  V30 2393 H 224.084 -0.0654407 0.751155 0
M  V30 2394 H 226.735 0.537192 1.75461 0
M  V30 2395 H 225.117 -1.10921 3.80148 0
M  V30 2396 H 226.291 1.70963 4.27912 0
M  V30 2397 H 224.606 1.39688 3.92271 0
M  V30 2398 H 227.203 -1.05128 5.24263 0
M  V30 2399 H 227.546 -1.85152 3.7286 0
M  V30 2400 H 228.079 -0.170607 3.97434 0
M  V30 2401 H 224.818 1.67312 6.33788 0
M  V30 2402 H 224.338 -0.00540283 5.998 0
M  V30 2403 H 226.017 0.369231 6.45946 0
M  V30 2404 N 226.149 -1.5696 0.141893 0
M  V30 2405 C 227.56 -1.82797 -0.379776 0
M  V30 2406 C 227.911 -1.06033 -1.6508 0
M  V30 2407 O 227.036 -0.304011 -2.14254 0
M  V30 2408 C 227.631 -3.31578 -0.695802 0
M  V30 2409 C 226.19 -3.58014 -1.16201 0
M  V30 2410 C 225.337 -2.76699 -0.182455 0
M  V30 2411 H 228.288 -1.54406 0.366675 0
M  V30 2412 H 228.309 -3.47454 -1.55099 0
M  V30 2413 H 227.821 -3.87421 0.229449 0
M  V30 2414 H 225.922 -3.07553 -2.10338 0
M  V30 2415 H 226.035 -4.66501 -1.09151 0
M  V30 2416 H 224.399 -2.45618 -0.674072 0
M  V30 2417 H 225.182 -3.35311 0.736297 0
M  V30 2418 N 227.627 0.131896 -1.57047 0
M  V30 2419 C 228.855 0.856461 -1.88341 0
M  V30 2420 C 229.27 1.74042 -0.731757 0
M  V30 2421 O 228.627 1.80051 0.297945 0
M  V30 2422 C 228.678 1.70064 -3.18999 0
M  V30 2423 O 228.399 0.852278 -4.2973 0
M  V30 2424 C 229.9 2.53148 -3.63911 0
M  V30 2425 H 227.12 0.246885 -0.62393 0
M  V30 2426 H 229.664 0.120152 -2.04147 0
M  V30 2427 H 227.819 2.38984 -3.04902 0
M  V30 2428 H 228.233 1.43329 -5.04537 0
M  V30 2429 H 229.707 3.07931 -4.58129 0
M  V30 2430 H 230.184 3.29901 -2.89935 0
M  V30 2431 H 230.79 1.89492 -3.80753 0
M  V30 2432 N 229.106 1.52395 0.401703 0
M  V30 2433 C 230.039 1.70999 1.51111 0
M  V30 2434 C 231.017 0.55765 1.52738 0
M  V30 2435 O 232.201 0.785912 1.71335 0
M  V30 2436 C 229.328 1.75607 2.8962 0
M  V30 2437 C 228.374 2.97227 3.05873 0
M  V30 2438 S 229.207 4.57439 2.78405 0
M  V30 2439 C 230.363 4.64844 4.19131 0
M  V30 2440 H 230.596 2.6483 1.35102 0
M  V30 2441 H 228.129 1.42527 0.593762 0
M  V30 2442 H 230.087 1.78947 3.69443 0
M  V30 2443 H 228.748 0.828914 3.02965 0
M  V30 2444 H 227.941 2.96955 4.07227 0
M  V30 2445 H 227.543 2.91813 2.33925 0
M  V30 2446 H 229.835 4.42677 5.12877 0
M  V30 2447 H 230.778 5.66807 4.24424 0
M  V30 2448 H 231.186 3.93804 4.04448 0
M  V30 2449 N 230.584 -0.659388 1.43143 0
M  V30 2450 C 231.547 -1.75432 1.47501 0
M  V30 2451 C 232.547 -1.56707 0.360512 0
M  V30 2452 O 233.737 -1.62717 0.622002 0
M  V30 2453 C 230.869 -3.14239 1.32162 0
M  V30 2454 H 232.062 -1.7295 2.45006 0
M  V30 2455 H 229.615 -0.870469 1.29817 0
M  V30 2456 H 230.35 -3.22336 0.356401 0
M  V30 2457 H 230.135 -3.29235 2.12948 0
M  V30 2458 H 231.625 -3.94094 1.3813 0
M  V30 2459 N 232.062 -1.29571 -0.897171 0
M  V30 2460 C 232.994 -1.10724 -2.00681 0
M  V30 2461 C 234.007 -0.0540026 -1.6271 0
M  V30 2462 O 235.196 -0.298783 -1.75982 0
M  V30 2463 C 232.296 -0.663912 -3.32333 0
M  V30 2464 C 231.469 -1.79622 -3.98816 0
M  V30 2465 C 230.528 -1.34349 -5.0876 0
M  V30 2466 O 229.554 -2.04864 -5.31055 0
M  V30 2467 N 230.756 -0.215764 -5.80099 0
M  V30 2468 H 233.521 -2.06291 -2.17403 0
M  V30 2469 H 231.082 -1.21544 -1.06951 0
M  V30 2470 H 233.074 -0.344295 -4.03233 0
M  V30 2471 H 231.644 0.199375 -3.11964 0
M  V30 2472 H 230.864 -2.28459 -3.21248 0
M  V30 2473 H 232.152 -2.55535 -4.39976 0
M  V30 2474 H 231.55 0.372091 -5.64475 0
M  V30 2475 H 230.107 0.0444707 -6.51785 0
M  V30 2476 N 233.54 1.10788 -1.12088 0
M  V30 2477 C 234.788 1.8231 -0.872205 0
M  V30 2478 C 235.109 1.85419 0.603709 0
M  V30 2479 O 234.379 1.32963 1.43867 0
M  V30 2480 H 232.959 0.675137 -0.319686 0
M  V30 2481 H 235.621 1.34068 -1.41463 0
M  V30 2482 H 234.717 2.85955 -1.25045 0
M  V30 2483 N 235.018 0.912232 1.28515 0
M  V30 2484 C 236.264 0.545405 1.95328 0
M  V30 2485 C 236.597 -0.908313 1.71649 0
M  V30 2486 O 235.872 -1.64575 1.03659 0
M  V30 2487 C 236.155 0.853483 3.4984 0
M  V30 2488 C 236.008 2.35982 3.82926 0
M  V30 2489 C 237.327 0.348589 4.38717 0
M  V30 2490 H 234.446 0.199626 0.709449 0
M  V30 2491 H 237.088 1.1412 1.5191 0
M  V30 2492 H 235.238 0.34643 3.86952 0
M  V30 2493 H 236.91 2.93738 3.55691 0
M  V30 2494 H 235.153 2.81543 3.30024 0
M  V30 2495 H 235.824 2.52593 4.90816 0
M  V30 2496 H 238.3 0.78294 4.08668 0
M  V30 2497 H 237.176 0.593242 5.45685 0
M  V30 2498 H 237.437 -0.751049 4.35674 0
M  V30 2499 N 236.496 -1.42363 0.676048 0
M  V30 2500 C 237.745 -2.00745 0.196037 0
M  V30 2501 C 238.058 -1.54083 -1.20489 0
M  V30 2502 O 239.264 -2.04891 -1.78134 0
M  V30 2503 C 237.72 -3.58651 0.299616 0
M  V30 2504 C 237.328 -4.143 1.70468 0
M  V30 2505 C 239.072 -4.24326 -0.121619 0
M  V30 2506 C 236.979 -5.64574 1.76096 0
M  V30 2507 H 235.909 -0.750787 0.0695301 0
M  V30 2508 H 238.56 -1.63072 0.841412 0
M  V30 2509 H 236.942 -3.93833 -0.413673 0
M  V30 2510 H 238.116 -3.90575 2.44515 0
M  V30 2511 H 236.431 -3.61081 2.07387 0
M  V30 2512 H 239.028 -5.34607 -0.0997362 0
M  V30 2513 H 239.371 -3.99897 -1.15708 0
M  V30 2514 H 239.904 -3.94108 0.540706 0
M  V30 2515 H 236.643 -5.93804 2.77628 0
M  V30 2516 H 236.163 -5.90286 1.06406 0
M  V30 2517 H 237.842 -6.29013 1.51496 0
M  V30 2518 N 237.974 -0.419461 -1.51915 0
M  V30 2519 C 238.884 0.407528 -2.31033 0
M  V30 2520 C 239.9 1.04413 -1.3919 0
M  V30 2521 O 241.076 1.0434 -1.72265 0
M  V30 2522 C 238.141 1.50365 -3.12396 0
M  V30 2523 C 237.202 0.889029 -4.19994 0
M  V30 2524 C 236.435 1.93291 -4.97468 0
M  V30 2525 O 236.658 3.15259 -4.75361 0
M  V30 2526 O 235.592 1.53339 -5.8204 0
M  V30 2527 H 239.418 -0.237865 -3.02767 0
M  V30 2528 H 237.003 -0.182413 -1.48282 0
M  V30 2529 H 238.885 2.13975 -3.63032 0
M  V30 2530 H 237.56 2.13345 -2.43445 0
M  V30 2531 H 236.467 0.215353 -3.7348 0
M  V30 2532 H 237.8 0.302991 -4.91267 0
M  V30 2533 N 239.452 1.56882 -0.150215 0
M  V30 2534 C 240.682 2.00302 0.506213 0
M  V30 2535 C 241.09 1.02934 1.58749 0
M  V30 2536 O 240.433 0.0188384 1.8369 0
M  V30 2537 C 240.495 3.40156 1.16337 0
M  V30 2538 C 240.159 4.56439 0.226311 0
M  V30 2539 C 241.156 5.17012 -0.547265 0
M  V30 2540 C 238.841 5.02136 0.128279 0
M  V30 2541 C 240.835 6.21693 -1.40629 0
M  V30 2542 C 238.522 6.06672 -0.734345 0
M  V30 2543 C 239.52 6.6632 -1.50023 0
M  V30 2544 O 239.208 7.68831 -2.34848 0
M  V30 2545 H 238.94 0.662182 0.135984 0
M  V30 2546 H 241.494 2.03961 -0.242746 0
M  V30 2547 H 239.724 3.33346 1.96004 0
M  V30 2548 H 241.413 3.67663 1.71985 0
M  V30 2549 H 242.179 4.82603 -0.48158 0
M  V30 2550 H 238.058 4.55435 0.714157 0
M  V30 2551 H 241.602 6.68179 -2.00455 0
M  V30 2552 H 237.499 6.40507 -0.801309 0
M  V30 2553 H 238.267 7.86065 -2.28131 0
M  V30 2554 N 240.93 -0.123565 1.57115 0
M  V30 2555 C 241.877 -1.15177 2.00007 0
M  V30 2556 C 242.847 -1.41403 0.871454 0
M  V30 2557 O 244.032 -1.53346 1.13533 0
M  V30 2558 C 241.172 -2.47436 2.40561 0
M  V30 2559 C 240.285 -2.28184 3.66819 0
M  V30 2560 C 239.42 -3.53641 3.96373 0
M  V30 2561 C 238.459 -3.29528 5.15827 0
M  V30 2562 N 237.596 -4.47175 5.41275 0
M  V30 2563 H 242.436 -0.779008 2.87638 0
M  V30 2564 H 239.973 -0.373166 1.42288 0
M  V30 2565 H 241.931 -3.24584 2.62109 0
M  V30 2566 H 240.561 -2.82614 1.55978 0
M  V30 2567 H 239.613 -1.41976 3.52912 0
M  V30 2568 H 240.925 -2.0634 4.5412 0
M  V30 2569 H 240.079 -4.39209 4.18545 0
M  V30 2570 H 238.818 -3.78512 3.07538 0
M  V30 2571 H 237.823 -2.42349 4.93505 0
M  V30 2572 H 239.048 -3.06031 6.06236 0
M  V30 2573 H 236.994 -4.72175 4.55397 0
M  V30 2574 H 236.911 -4.28419 6.22891 0
M  V30 2575 H 238.179 -5.3389 5.67963 0
M  V30 2576 N 242.408 -1.52605 -0.393616 0
M  V30 2577 C 243.318 -1.79971 -1.50492 0
M  V30 2578 C 244.334 -0.686181 -1.59899 0
M  V30 2579 O 245.51 -0.973274 -1.76322 0
M  V30 2580 C 242.575 -1.95867 -2.86072 0
M  V30 2581 C 241.636 -3.19781 -2.86424 0
M  V30 2582 C 240.869 -3.34909 -4.15538 0
M  V30 2583 O 241.092 -2.54948 -5.10253 0
M  V30 2584 O 240.026 -4.28141 -4.23059 0
M  V30 2585 H 243.852 -2.74328 -1.30299 0
M  V30 2586 H 241.437 -1.3764 -0.581005 0
M  V30 2587 H 243.319 -2.08056 -3.66457 0
M  V30 2588 H 241.994 -1.04699 -3.063 0
M  V30 2589 H 240.901 -3.13038 -2.04837 0
M  V30 2590 H 242.234 -4.1078 -2.71147 0
M  V30 2591 N 243.887 0.651787 -1.4349 0
M  V30 2592 C 245.112 1.44434 -1.48841 0
M  V30 2593 C 245.537 1.8779 -0.107955 0
M  V30 2594 O 244.895 1.57464 0.898602 0
M  V30 2595 C 244.943 2.65458 -2.44059 0
M  V30 2596 O 244.047 3.64566 -1.92784 0
M  V30 2597 H 243.388 0.433005 -0.503391 0
M  V30 2598 H 245.918 0.797451 -1.88419 0
M  V30 2599 H 245.928 3.13255 -2.6141 0
M  V30 2600 H 244.603 2.33244 -3.4434 0
M  V30 2601 H 243.18 3.23716 -1.851 0
M  V30 2602 N 245.365 1.30045 0.890287 0
M  V30 2603 C 246.612 1.18561 1.64163 0
M  V30 2604 C 246.94 -0.260852 1.92743 0
M  V30 2605 O 246.195 -1.20376 1.54299 0
M  V30 2606 C 246.494 1.95409 2.99249 0
M  V30 2607 C 246.16 3.45066 2.90242 0
M  V30 2608 C 244.822 3.85878 2.87492 0
M  V30 2609 C 247.174 4.4039 2.78758 0
M  V30 2610 C 244.502 5.20314 2.7109 0
M  V30 2611 C 246.854 5.74928 2.63894 0
M  V30 2612 C 245.518 6.14986 2.59516 0
M  V30 2613 H 244.788 0.433846 0.600715 0
M  V30 2614 H 247.435 1.61088 1.03552 0
M  V30 2615 H 245.74 1.45501 3.63781 0
M  V30 2616 H 247.437 1.8392 3.56334 0
M  V30 2617 H 244.027 3.12631 2.93189 0
M  V30 2618 H 248.211 4.09806 2.79952 0
M  V30 2619 H 243.467 5.50449 2.66112 0
M  V30 2620 H 247.641 6.48434 2.53981 0
M  V30 2621 H 245.268 7.19104 2.46565 0
M  V30 2622 N 246.843 -1.10192 1.12674 0
M  V30 2623 C 248.091 -1.81845 0.881861 0
M  V30 2624 C 248.412 -1.85737 -0.593867 0
M  V30 2625 O 247.682 -1.33724 -1.4316 0
M  V30 2626 H 246.262 -0.673432 0.323261 0
M  V30 2627 H 248.924 -1.33316 1.42172 0
M  V30 2628 H 248.02 -2.85288 1.2656 0
M  V30 2629 N 248.321 -0.919034 -1.28029 0
M  V30 2630 C 249.567 -0.555757 -1.95036 0
M  V30 2631 C 249.9 0.899198 -1.72128 0
M  V30 2632 O 249.175 1.64023 -1.04531 0
M  V30 2633 C 249.458 -0.872024 -3.49382 0
M  V30 2634 C 249.311 -2.3801 -3.81669 0
M  V30 2635 C 250.63 -0.37185 -4.38526 0
M  V30 2636 H 247.749 -0.203386 -0.708381 0
M  V30 2637 H 250.391 -1.14924 -1.51303 0
M  V30 2638 H 248.541 -0.366946 -3.86763 0
M  V30 2639 H 250.213 -2.9562 -3.54128 0
M  V30 2640 H 248.456 -2.83289 -3.28526 0
M  V30 2641 H 249.127 -2.55192 -4.8947 0
M  V30 2642 H 251.603 -0.804602 -4.08247 0
M  V30 2643 H 250.479 -0.622173 -5.45362 0
M  V30 2644 H 250.74 0.727934 -4.36066 0
M  V30 2645 N 249.799 1.42003 -0.683588 0
M  V30 2646 C 251.076 1.95112 -0.138075 0
M  V30 2647 C 251.456 1.62359 1.34918 0
M  V30 2648 O 250.804 0.924311 2.08971 0
M  V30 2649 C 251.014 3.46505 -0.416581 0
M  V30 2650 C 252.362 4.23254 -0.337834 0
M  V30 2651 O 253.386 3.54468 -0.35082 0
M  V30 2652 O 252.245 5.45743 -0.287596 0
M  V30 2653 H 249.339 0.826961 -0.00797996 0
M  V30 2654 H 251.885 1.51784 -0.758924 0
M  V30 2655 H 250.657 3.63582 -1.4465 0
M  V30 2656 H 250.28 3.969 0.235839 0
M  V30 2657 N 251.277 0.427512 1.51691 0
M  V30 2658 C 252.688 -0.0378867 1.86662 0
M  V30 2659 C 253.039 -1.42819 1.34525 0
M  V30 2660 O 252.164 -2.05037 0.692014 0
M  V30 2661 C 252.759 -0.0755266 3.38716 0
M  V30 2662 C 251.318 -0.485309 3.73258 0
M  V30 2663 C 250.465 0.328399 2.75349 0
M  V30 2664 H 253.416 0.64379 1.45055 0
M  V30 2665 H 253.437 -0.887056 3.70016 0
M  V30 2666 H 252.949 0.936487 3.76632 0
M  V30 2667 H 251.05 -1.50329 3.40928 0
M  V30 2668 H 251.163 -0.21693 4.78609 0
M  V30 2669 H 249.527 -0.211905 2.53817 0
M  V30 2670 H 250.31 1.3391 3.16106 0
M  V30 2671 N 252.755 -1.56801 0.158532 0
M  V30 2672 C 254.001 -1.96781 -0.490405 0
M  V30 2673 C 254.334 -1.04397 -1.63753 0
M  V30 2674 O 253.609 -0.0885805 -1.94298 0
M  V30 2675 C 253.892 -3.4635 -0.985594 0
M  V30 2676 C 253.745 -4.49512 0.160824 0
M  V30 2677 C 255.064 -3.98697 -1.86355 0
M  V30 2678 H 252.183 -0.715482 -0.176788 0
M  V30 2679 H 254.825 -1.88451 0.242088 0
M  V30 2680 H 252.975 -3.53579 -1.60978 0
M  V30 2681 H 254.647 -4.54353 0.797537 0
M  V30 2682 H 252.89 -4.26013 0.818256 0
M  V30 2683 H 253.561 -5.51531 -0.227569 0
M  V30 2684 H 256.037 -3.94019 -1.33746 0
M  V30 2685 H 254.913 -5.03792 -2.17909 0
M  V30 2686 H 255.174 -3.41744 -2.8047 0
M  V30 2687 N 254.233 0.115231 -1.57178 0
M  V30 2688 C 255.461 0.836437 -1.89239 0
M  V30 2689 C 255.876 1.73256 -0.750175 0
M  V30 2690 O 255.233 1.80357 0.278832 0
M  V30 2691 C 255.284 1.66671 -3.20785 0
M  V30 2692 O 255.005 0.806652 -4.3061 0
M  V30 2693 C 256.506 2.49274 -3.66575 0
M  V30 2694 H 253.726 0.240253 -0.626514 0
M  V30 2695 H 256.27 0.0984932 -2.04263 0
M  V30 2696 H 254.425 2.35737 -3.0742 0
M  V30 2697 H 254.839 1.37969 -5.06028 0
M  V30 2698 H 256.313 3.03055 -4.6137 0
M  V30 2699 H 256.79 3.26807 -2.93417 0
M  V30 2700 H 257.396 1.85443 -3.82741 0
M  V30 2701 N 255.711 1.52812 0.385517 0
M  V30 2702 C 256.936 1.72207 1.15583 0
M  V30 2703 C 257.361 0.441034 1.82857 0
M  V30 2704 O 256.719 -0.603465 1.70962 0
M  V30 2705 C 256.767 2.87476 2.17692 0
M  V30 2706 O 255.871 2.54693 3.24354 0
M  V30 2707 H 255.212 0.572526 0.336319 0
M  V30 2708 H 257.742 1.99618 0.448744 0
M  V30 2709 H 257.752 3.13072 2.6163 0
M  V30 2710 H 256.427 3.80408 1.68115 0
M  V30 2711 H 255.004 2.3985 2.85529 0
M  V30 2712 N 257.189 -0.644168 1.43834 0
M  V30 2713 C 258.121 -1.76955 1.45669 0
M  V30 2714 C 259.134 -1.58956 0.351666 0
M  V30 2715 O 260.323 -1.6751 0.616644 0
M  V30 2716 C 257.423 -3.14507 1.26248 0
M  V30 2717 C 256.596 -3.59083 2.49757 0
M  V30 2718 C 255.655 -4.75467 2.25427 0
M  V30 2719 O 254.681 -4.84444 2.98836 0
M  V30 2720 N 255.883 -5.66289 1.27661 0
M  V30 2721 H 258.648 -1.75856 2.42682 0
M  V30 2722 H 256.209 -0.828312 1.39106 0
M  V30 2723 H 258.201 -3.90067 1.0784 0
M  V30 2724 H 256.771 -3.10325 0.376478 0
M  V30 2725 H 255.991 -2.7387 2.8353 0
M  V30 2726 H 257.279 -3.85613 3.31934 0
M  V30 2727 H 256.677 -5.61718 0.670064 0
M  V30 2728 H 255.234 -6.41533 1.15234 0
M  V30 2729 N 258.668 -1.30515 -0.883378 0
M  V30 2730 C 259.616 -1.16941 -2.01066 0
M  V30 2731 C 260.61 -0.0809148 -1.69207 0
M  V30 2732 O 261.816 -0.241877 -1.78367 0
M  V30 2733 H 258.191 -0.361705 -0.659298 0
M  V30 2734 H 260.162 -2.12344 -2.09649 0
M  V30 2735 C 258.911 -0.879694 -3.36388 0
M  V30 2736 H 258.234 -1.70936 -3.61415 0
M  V30 2737 H 259.674 -0.82483 -4.159 0
M  V30 2738 C 258.133 0.417409 -3.34304 0
M  V30 2739 O 258.663 1.43843 -3.75063 0
M  V30 2740 N 256.869 0.429141 -2.87414 0
M  V30 2741 H 256.416 -0.402222 -2.5444 0
M  V30 2742 H 256.374 1.29696 -2.86403 0
M  V30 2743 N 260.146 1.09593 -1.13257 0
M  V30 2744 C 261.392 1.82003 -0.89458 0
M  V30 2745 C 261.725 1.85402 0.577906 0
M  V30 2746 O 261 1.32099 1.42759 0
M  V30 2747 C 261.283 3.28237 -1.48096 0
M  V30 2748 C 261.136 3.3312 -3.02244 0
M  V30 2749 C 262.455 4.24871 -1.14774 0
M  V30 2750 H 259.574 0.66077 -0.326424 0
M  V30 2751 H 262.216 1.28389 -1.40058 0
M  V30 2752 H 260.366 3.74024 -1.05062 0
M  V30 2753 H 262.038 2.95748 -3.54021 0
M  V30 2754 H 260.281 2.72756 -3.37323 0
M  V30 2755 H 260.952 4.3613 -3.38371 0
M  V30 2756 H 263.428 3.87361 -1.51957 0
M  V30 2757 H 262.304 5.25532 -1.58452 0
M  V30 2758 H 262.565 4.42058 -0.0611849 0
M  V30 2759 N 261.624 0.925811 1.2754 0
M  V30 2760 C 262.556 0.380753 2.26015 0
M  V30 2761 C 263.569 -0.487485 1.5533 0
M  V30 2762 O 264.758 -0.300413 1.75954 0
M  V30 2763 C 261.858 -0.473259 3.35579 0
M  V30 2764 C 261.031 0.375249 4.35787 0
M  V30 2765 C 260.09 -0.415809 5.24555 0
M  V30 2766 O 259.116 0.175834 5.68928 0
M  V30 2767 N 260.318 -1.71607 5.54555 0
M  V30 2768 H 263.083 1.22725 2.73421 0
M  V30 2769 H 260.644 0.793037 1.41147 0
M  V30 2770 H 262.636 -1.00949 3.91907 0
M  V30 2771 H 261.206 -1.2205 2.87789 0
M  V30 2772 H 260.426 1.09279 3.7875 0
M  V30 2773 H 261.714 0.955399 4.99749 0
M  V30 2774 H 261.112 -2.2191 5.20358 0
M  V30 2775 H 259.669 -2.19887 6.1359 0
M  V30 2776 N 263.102 -1.41638 0.69111 0
M  V30 2777 C 264.332 -2.0533 0.228758 0
M  V30 2778 C 264.74 -1.52089 -1.12541 0
M  V30 2779 O 264.083 -0.662145 -1.71351 0
M  V30 2780 C 264.145 -3.59349 0.10407 0
M  V30 2781 C 263.809 -4.35362 1.38956 0
M  V30 2782 C 264.806 -4.64942 2.32648 0
M  V30 2783 C 262.491 -4.74714 1.64169 0
M  V30 2784 C 264.485 -5.32828 3.49818 0
M  V30 2785 C 262.172 -5.42338 2.81625 0
M  V30 2786 C 263.17 -5.71322 3.74273 0
M  V30 2787 O 262.858 -6.37554 4.89673 0
M  V30 2788 H 262.59 -0.667796 0.104997 0
M  V30 2789 H 265.144 -1.82477 0.942938 0
M  V30 2790 H 263.374 -3.80924 -0.665839 0
M  V30 2791 H 265.063 -4.04633 -0.320519 0
M  V30 2792 H 265.829 -4.35025 2.14425 0
M  V30 2793 H 261.708 -4.51538 0.929202 0
M  V30 2794 H 265.252 -5.55368 4.22152 0
M  V30 2795 H 261.149 -5.71673 2.99768 0
M  V30 2796 H 261.917 -6.56049 4.8943 0
M  V30 2797 N 264.58 -0.43555 -1.51462 0
M  V30 2798 C 265.827 0.131514 -2.02072 0
M  V30 2799 C 266.155 1.42868 -1.31981 0
M  V30 2800 O 265.41 1.91076 -0.422883 0
M  V30 2801 C 265.709 0.39942 -3.55161 0
M  V30 2802 C 265.375 -0.81172 -4.43533 0
M  V30 2803 C 264.037 -1.14387 -4.67407 0
M  V30 2804 C 266.389 -1.61976 -4.95392 0
M  V30 2805 C 263.717 -2.28477 -5.40384 0
M  V30 2806 C 266.069 -2.75164 -5.6962 0
M  V30 2807 C 264.733 -3.08835 -5.91758 0
M  V30 2808 H 264.003 0.0481244 -0.739436 0
M  V30 2809 H 266.65 -0.58238 -1.8243 0
M  V30 2810 H 264.955 1.19519 -3.73125 0
M  V30 2811 H 266.652 0.85157 -3.91854 0
M  V30 2812 H 263.242 -0.542898 -4.25148 0
M  V30 2813 H 267.426 -1.37637 -4.76833 0
M  V30 2814 H 262.682 -2.5488 -5.55739 0
M  V30 2815 H 266.856 -3.38147 -6.08793 0
M  V30 2816 H 264.483 -3.97353 -6.48086 0
M  V30 2817 N 266.058 1.56714 -0.166846 0
M  V30 2818 C 266.988 2.20754 0.760913 0
M  V30 2819 C 267.969 1.16178 1.24244 0
M  V30 2820 O 269.154 1.44592 1.29641 0
M  V30 2821 C 266.284 2.84478 1.99223 0
M  V30 2822 C 265.238 3.95053 1.64672 0
M  V30 2823 C 264.564 4.45805 2.95232 0
M  V30 2824 C 265.864 5.14865 0.878155 0
M  V30 2825 H 267.558 2.98537 0.22713 0
M  V30 2826 H 265.104 1.43596 0.107805 0
M  V30 2827 H 267.057 3.27951 2.64624 0
M  V30 2828 H 265.781 2.04056 2.55007 0
M  V30 2829 H 264.44 3.52228 1.01641 0
M  V30 2830 H 264.088 3.62181 3.49047 0
M  V30 2831 H 263.788 5.204 2.7287 0
M  V30 2832 H 265.312 4.91962 3.6167 0
M  V30 2833 H 266.726 5.55059 1.43466 0
M  V30 2834 H 265.123 5.95348 0.753738 0
M  V30 2835 H 266.193 4.84735 -0.126377 0
M  V30 2836 N 267.536 -0.106894 1.57237 0
M  V30 2837 C 268.813 -0.843526 1.76477 0
M  V30 2838 C 269.193 -1.97499 0.745464 0
M  V30 2839 O 268.541 -2.27357 -0.228306 0
M  V30 2840 C 268.751 -1.34903 3.21873 0
M  V30 2841 C 270.099 -1.79654 3.8472 0
M  V30 2842 O 271.123 -1.44554 3.2555 0
M  V30 2843 O 269.982 -2.44515 4.88748 0
M  V30 2844 H 267.076 -0.401468 0.723016 0
M  V30 2845 H 269.622 -0.0896927 1.69463 0
M  V30 2846 H 268.394 -0.53781 3.87586 0
M  V30 2847 H 268.017 -2.16522 3.33473 0
M  V30 2848 N 269.014 -1.53014 -0.377408 0
M  V30 2849 C 270.43 -1.42523 -0.718281 0
M  V30 2850 C 270.63 -0.55487 -1.9371 0
M  V30 2851 O 269.686 -0.0327593 -2.52479 0
M  V30 2852 C 270.999 -2.85546 -0.942539 0
M  V30 2853 C 272.547 -2.95101 -1.04329 0
M  V30 2854 C 273.022 -4.3916 -1.3001 0
M  V30 2855 N 274.513 -4.42536 -1.36806 0
M  V30 2856 C 275.248 -5.51097 -1.58364 0
M  V30 2857 N 274.744 -6.69724 -1.77317 0
M  V30 2858 N 276.537 -5.38657 -1.60638 0
M  V30 2859 H 268.688 -2.08116 0.424426 0
M  V30 2860 H 270.951 -0.939352 0.127759 0
M  V30 2861 H 270.657 -3.51499 -0.118929 0
M  V30 2862 H 270.531 -3.28493 -1.85397 0
M  V30 2863 H 272.918 -2.29309 -1.85745 0
M  V30 2864 H 272.999 -2.55566 -0.109505 0
M  V30 2865 H 272.643 -5.05521 -0.490991 0
M  V30 2866 H 272.573 -4.76258 -2.24691 0
M  V30 2867 H 275.064 -3.57039 -1.23821 0
M  V30 2868 H 275.377 -7.48233 -1.93306 0
M  V30 2869 H 273.722 -6.72732 -1.74518 0
M  V30 2870 H 276.913 -4.44948 -1.45391 0
M  V30 2871 H 277.086 -6.2333 -1.77098 0
M  V30 2872 N 270.492 0.636531 -1.44174 0
M  V30 2873 C 271.739 1.39619 -1.46672 0
M  V30 2874 C 272.067 1.94257 -0.0972691 0
M  V30 2875 O 271.322 1.73768 0.900175 0
M  V30 2876 C 271.621 2.58309 -2.47005 0
M  V30 2877 C 271.287 2.21992 -3.92467 0
M  V30 2878 C 269.949 2.118 -4.32081 0
M  V30 2879 C 272.301 1.9321 -4.84065 0
M  V30 2880 C 269.629 1.71007 -5.61225 0
M  V30 2881 C 271.981 1.53911 -6.13591 0
M  V30 2882 C 270.645 1.42257 -6.52165 0
M  V30 2883 H 269.915 0.510902 -0.536712 0
M  V30 2884 H 272.562 0.722328 -1.77355 0
M  V30 2885 H 270.867 3.30903 -2.09786 0
M  V30 2886 H 272.564 3.16533 -2.46186 0
M  V30 2887 H 269.154 2.30841 -3.61124 0
M  V30 2888 H 273.338 1.99997 -4.54219 0
M  V30 2889 H 268.594 1.60583 -5.89935 0
M  V30 2890 H 272.768 1.30677 -6.8403 0
M  V30 2891 H 270.395 1.10419 -7.52138 0
M  V30 2892 N 271.97 1.30982 0.876444 0
M  V30 2893 C 273.2 1.23063 1.65949 0
M  V30 2894 C 273.608 -0.207537 1.88058 0
M  V30 2895 O 272.951 -1.14781 1.43426 0
M  V30 2896 C 273.013 1.89768 3.05333 0
M  V30 2897 C 272.677 3.39106 3.0636 0
M  V30 2898 C 273.674 4.3496 2.84791 0
M  V30 2899 C 271.359 3.80693 3.27686 0
M  V30 2900 C 273.353 5.70375 2.84519 0
M  V30 2901 C 271.04 5.16223 3.27043 0
M  V30 2902 C 272.038 6.10875 3.05485 0
M  V30 2903 O 271.726 7.43928 3.04674 0
M  V30 2904 H 271.458 0.426685 0.524324 0
M  V30 2905 H 274.012 1.7329 1.10271 0
M  V30 2906 H 272.242 1.34082 3.6271 0
M  V30 2907 H 273.931 1.75853 3.65829 0
M  V30 2908 H 274.697 4.0416 2.68103 0
M  V30 2909 H 270.576 3.07457 3.43499 0
M  V30 2910 H 274.12 6.44228 2.67611 0
M  V30 2911 H 270.017 5.4666 3.43269 0
M  V30 2912 H 270.785 7.53022 3.2078 0
M  V30 2913 N 273.449 -1.08991 1.13837 0
M  V30 2914 C 274.382 -2.15049 0.763477 0
M  V30 2915 C 275.36 -1.60629 -0.252398 0
M  V30 2916 O 276.544 -1.87958 -0.142853 0
M  V30 2917 C 273.671 -3.38441 0.132545 0
M  V30 2918 C 272.717 -4.11596 1.11763 0
M  V30 2919 S 273.55 -4.6521 2.65216 0
M  V30 2920 C 274.706 -5.91896 2.03495 0
M  V30 2921 H 274.939 -2.46518 1.66182 0
M  V30 2922 H 272.472 -1.21008 0.958976 0
M  V30 2923 H 274.43 -4.09883 -0.225074 0
M  V30 2924 H 273.091 -3.05182 -0.743135 0
M  V30 2925 H 272.284 -5.00121 0.624076 0
M  V30 2926 H 271.886 -3.46038 1.41894 0
M  V30 2927 H 274.178 -6.63156 1.38675 0
M  V30 2928 H 275.121 -6.45938 2.9012 0
M  V30 2929 H 275.529 -5.44625 1.48471 0
M  V30 2930 N 274.927 -0.932562 -1.27047 0
M  V30 2931 C 276.152 -0.591474 -1.98787 0
M  V30 2932 C 276.577 0.824601 -1.69062 0
M  V30 2933 O 275.935 1.5541 -0.933677 0
M  V30 2934 C 275.983 -0.829808 -3.50922 0
M  V30 2935 O 275.087 0.102266 -4.12273 0
M  V30 2936 H 274.428 -0.227185 -0.623926 0
M  V30 2937 H 276.958 -1.25314 -1.61733 0
M  V30 2938 H 276.968 -0.747292 -4.01098 0
M  V30 2939 H 275.643 -1.86201 -3.7189 0
M  V30 2940 H 274.22 -0.0305761 -3.72887 0
M  V30 2941 N 276.405 1.4127 -0.698611 0
M  V30 2942 C 277.821 1.55241 -0.370462 0
M  V30 2943 C 278.021 1.67351 1.12231 0
M  V30 2944 O 277.077 1.65363 1.90818 0
M  V30 2945 C 278.39 2.78997 -1.12165 0
M  V30 2946 C 279.938 2.92797 -1.1063 0
M  V30 2947 C 280.413 4.19445 -1.8393 0
M  V30 2948 N 281.904 4.26409 -1.80914 0
M  V30 2949 C 282.639 5.23271 -2.34467 0
M  V30 2950 N 282.135 6.26145 -2.96504 0
M  V30 2951 N 283.928 5.15232 -2.24706 0
M  V30 2952 H 276.079 1.31654 -1.66676 0
M  V30 2953 H 278.342 0.635393 -0.703548 0
M  V30 2954 H 278.048 2.76268 -2.17644 0
M  V30 2955 H 277.922 3.70606 -0.702209 0
M  V30 2956 H 280.309 2.95039 -0.0597713 0
M  V30 2957 H 280.39 2.02353 -1.56483 0
M  V30 2958 H 280.034 4.17964 -2.88563 0
M  V30 2959 H 279.964 5.08866 -1.35509 0
M  V30 2960 H 282.455 3.527 -1.35687 0
M  V30 2961 H 282.768 6.96451 -3.34927 0
M  V30 2962 H 281.113 6.26638 -3.00583 0
M  V30 2963 H 284.304 4.33789 -1.7591 0
M  V30 2964 H 284.477 5.90552 -2.66745 0
M  V30 2965 N 277.883 0.443576 1.51229 0
M  V30 2966 C 279.132 -0.122332 2.01329 0
M  V30 2967 C 279.445 -1.43237 1.33201 0
M  V30 2968 O 280.651 -2.0816 1.74304 0
M  V30 2969 C 279.107 -0.268551 3.58897 0
M  V30 2970 C 278.715 1.03142 4.35965 0
M  V30 2971 C 280.459 -0.787894 4.17124 0
M  V30 2972 C 278.366 0.850504 5.85252 0
M  V30 2973 H 277.296 -0.0494929 0.752374 0
M  V30 2974 H 279.947 0.574289 1.74282 0
M  V30 2975 H 278.329 -1.02832 3.82415 0
M  V30 2976 H 279.503 1.80001 4.24189 0
M  V30 2977 H 277.818 1.47977 3.89219 0
M  V30 2978 H 280.415 -0.939841 5.26375 0
M  V30 2979 H 280.758 -1.77201 3.76703 0
M  V30 2980 H 281.291 -0.0862669 3.97706 0
M  V30 2981 H 278.03 1.80718 6.30096 0
M  V30 2982 H 277.55 0.121825 5.99676 0
M  V30 2983 H 279.229 0.506163 6.45017 0
M  V30 2984 N 279.361 -1.56624 0.175154 0
M  V30 2985 C 280.586 -2.01813 -0.478137 0
M  V30 2986 C 281.011 -1.05457 -1.55757 0
M  V30 2987 O 280.369 -0.0347439 -1.81267 0
M  V30 2988 C 280.417 -3.45581 -1.02987 0
M  V30 2989 O 279.521 -3.52305 -2.14371 0
M  V30 2990 H 278.862 -0.65413 -0.114059 0
M  V30 2991 H 281.392 -2.02673 0.280173 0
M  V30 2992 H 281.402 -3.84965 -1.35151 0
M  V30 2993 H 280.077 -4.1521 -0.239556 0
M  V30 2994 H 278.654 -3.24783 -1.83222 0
M  V30 2995 N 280.839 0.0985539 -1.57292 0
M  V30 2996 C 282.088 0.801358 -1.85098 0
M  V30 2997 C 282.401 1.80066 -0.763902 0
M  V30 2998 O 283.607 2.55112 -0.928981 0
M  V30 2999 C 282.063 1.47599 -3.28242 0
M  V30 3000 C 281.671 0.516624 -4.45011 0
M  V30 3001 C 283.415 2.16272 -3.65276 0
M  V30 3002 C 281.322 1.19564 -5.79188 0
M  V30 3003 H 280.252 0.303022 -0.69043 0
M  V30 3004 H 282.903 0.0542623 -1.8342 0
M  V30 3005 H 281.285 2.27042 -3.2445 0
M  V30 3006 H 282.459 -0.246065 -4.60143 0
M  V30 3007 H 280.774 -0.064227 -4.1635 0
M  V30 3008 H 283.371 2.67802 -4.62803 0
M  V30 3009 H 283.714 2.95009 -2.93727 0
M  V30 3010 H 284.247 1.43693 -3.70941 0
M  V30 3011 H 280.986 0.449157 -6.53959 0
M  V30 3012 H 280.506 1.92984 -5.67906 0
M  V30 3013 H 282.185 1.7231 -6.23633 0
M  V30 3014 N 282.317 1.53212 0.369288 0
M  V30 3015 C 283.733 1.42902 0.710712 0
M  V30 3016 C 283.933 0.565135 1.93413 0
M  V30 3017 O 282.989 0.0461484 2.52458 0
M  V30 3018 C 284.302 2.86042 0.927382 0
M  V30 3019 C 285.85 2.9565 1.02762 0
M  V30 3020 C 286.325 4.39843 1.27679 0
M  V30 3021 N 287.816 4.43256 1.34457 0
M  V30 3022 C 288.551 5.51929 1.55439 0
M  V30 3023 N 288.047 6.70655 1.73762 0
M  V30 3024 N 289.84 5.39502 1.57779 0
M  V30 3025 H 281.991 2.07888 -0.435457 0
M  V30 3026 H 284.254 0.938661 -0.132739 0
M  V30 3027 H 283.96 3.51557 0.100287 0
M  V30 3028 H 283.834 3.29472 1.83653 0
M  V30 3029 H 286.221 2.30291 1.84527 0
M  V30 3030 H 286.302 2.5562 0.0959504 0
M  V30 3031 H 285.946 5.05774 0.464175 0
M  V30 3032 H 285.876 4.77443 2.22162 0
M  V30 3033 H 288.367 3.5769 1.21926 0
M  V30 3034 H 288.68 7.49248 1.89335 0
M  V30 3035 H 287.025 6.73648 1.70948 0
M  V30 3036 H 290.216 4.45713 1.43029 0
M  V30 3037 H 290.389 6.2426 1.7379 0
M  V30 3038 N 283.795 -0.628877 1.44509 0
M  V30 3039 C 284.728 -1.75367 1.46019 0
M  V30 3040 C 285.706 -1.59444 0.318787 0
M  V30 3041 O 286.89 -1.81297 0.516099 0
M  V30 3042 C 284.017 -3.12965 1.29501 0
M  V30 3043 C 283.063 -3.47532 2.47233 0
M  V30 3044 S 283.896 -3.44758 4.09758 0
M  V30 3045 C 285.052 -4.84973 3.95667 0
M  V30 3046 H 285.285 -1.7382 2.41193 0
M  V30 3047 H 282.818 -0.803686 1.31834 0
M  V30 3048 H 284.776 -3.92367 1.20658 0
M  V30 3049 H 283.437 -3.12049 0.358341 0
M  V30 3050 H 282.63 -4.47664 2.31544 0
M  V30 3051 H 282.232 -2.75598 2.52828 0
M  V30 3052 H 284.524 -5.74255 3.59496 0
M  V30 3053 H 285.467 -5.05716 4.95638 0
M  V30 3054 H 285.875 -4.59653 3.27688 0
M  V30 3055 N 285.273 -1.31445 -0.869486 0
M  V30 3056 C 286.203 -1.21727 -1.99261 0
M  V30 3057 C 287.184 -0.104359 -1.6978 0
M  V30 3058 O 288.369 -0.289038 -1.92037 0
M  V30 3059 C 285.499 -0.924317 -3.34774 0
M  V30 3060 C 284.453 -1.99685 -3.78563 0
M  V30 3061 C 283.779 -1.55658 -5.11541 0
M  V30 3062 C 285.079 -3.41003 -3.95619 0
M  V30 3063 H 286.773 -2.1569 -2.07649 0
M  V30 3064 H 284.319 -1.03839 -0.997675 0
M  V30 3065 H 286.272 -0.842934 -4.12883 0
M  V30 3066 H 284.996 0.0509793 -3.2656 0
M  V30 3067 H 283.655 -2.06813 -3.02694 0
M  V30 3068 H 283.303 -0.569132 -4.9977 0
M  V30 3069 H 283.003 -2.27409 -5.41811 0
M  V30 3070 H 284.527 -1.48928 -5.92159 0
M  V30 3071 H 285.941 -3.36547 -4.64122 0
M  V30 3072 H 284.338 -4.10975 -4.37286 0
M  V30 3073 H 285.408 -3.81754 -2.98985 0
M  V30 3074 N 286.751 1.08385 -1.14413 0
M  V30 3075 C 287.681 2.17321 -0.854044 0
M  V30 3076 C 288.662 1.69024 0.191049 0
M  V30 3077 O 289.847 1.94141 0.0476779 0
M  V30 3078 C 286.977 3.45719 -0.330983 0
M  V30 3079 C 285.931 4.07409 -1.31155 0
M  V30 3080 C 285.257 5.30762 -0.64778 0
M  V30 3081 C 286.557 4.48665 -2.67388 0
M  V30 3082 H 288.251 2.41845 -1.76498 0
M  V30 3083 H 285.797 1.16233 -0.850051 0
M  V30 3084 H 287.75 4.21241 -0.115645 0
M  V30 3085 H 286.474 3.2075 0.615381 0
M  V30 3086 H 285.133 3.33919 -1.51306 0
M  V30 3087 H 284.781 5.02078 0.304398 0
M  V30 3088 H 284.481 5.72992 -1.30207 0
M  V30 3089 H 286.005 6.08998 -0.441972 0
M  V30 3090 H 287.419 5.15364 -2.51143 0
M  V30 3091 H 285.816 5.01814 -3.29093 0
M  V30 3092 H 286.886 3.60543 -3.24248 0
M  V30 3093 N 288.23 0.939286 1.26551 0
M  V30 3094 C 289.178 0.43815 2.28436 0
M  V30 3095 C 290.172 -0.483587 1.62351 0
M  V30 3096 O 291.378 -0.362009 1.76322 0
M  V30 3097 H 287.753 0.123149 0.741848 0
M  V30 3098 H 289.724 1.31002 2.68106 0
M  V30 3099 C 288.473 -0.283052 3.46546 0
M  V30 3100 H 287.796 0.417043 3.97619 0
M  V30 3101 H 289.236 -0.597948 4.19763 0
M  V30 3102 C 287.695 -1.50018 3.01656 0
M  V30 3103 O 288.225 -2.59855 3.0633 0
M  V30 3104 N 286.431 -1.35608 2.57019 0
M  V30 3105 H 285.978 -0.46244 2.53415 0
M  V30 3106 H 285.936 -2.17165 2.27347 0
M  V30 3107 N 289.708 -1.40897 0.706093 0
M  V30 3108 C 290.64 -2.29199 0.00815776 0
M  V30 3109 C 291.653 -1.45336 -0.733582 0
M  V30 3110 O 292.842 -1.68727 -0.582537 0
M  V30 3111 C 289.942 -3.23417 -1.01265 0
M  V30 3112 C 289.115 -4.36089 -0.338387 0
M  V30 3113 C 288.174 -5.10811 -1.26326 0
M  V30 3114 O 287.2 -5.64215 -0.751651 0
M  V30 3115 N 288.402 -5.19269 -2.595 0
M  V30 3116 H 291.167 -2.89738 0.766297 0
M  V30 3117 H 288.728 -1.52164 0.55296 0
M  V30 3118 H 290.72 -3.70276 -1.63334 0
M  V30 3119 H 289.29 -2.64112 -1.67223 0
M  V30 3120 H 288.51 -3.91479 0.462352 0
M  V30 3121 H 289.798 -5.08634 0.130031 0
M  V30 3122 H 289.196 -4.77347 -3.03573 0
M  V30 3123 H 287.753 -5.69667 -3.16737 0
M  V30 3124 N 291.186 -0.45159 -1.50991 0
M  V30 3125 C 292.136 0.370861 -2.24964 0
M  V30 3126 C 293.12 0.978074 -1.2776 0
M  V30 3127 O 294.312 0.893854 -1.52772 0
M  V30 3128 C 291.441 1.46344 -3.10545 0
M  V30 3129 C 290.527 0.864924 -4.15187 0
M  V30 3130 N 290.918 -0.00311354 -5.058 0
M  V30 3131 C 289.216 1.13099 -4.31422 0
M  V30 3132 C 289.917 -0.340772 -5.80701 0
M  V30 3133 N 288.893 0.279203 -5.42883 0
M  V30 3134 H 292.695 -0.298134 -2.92384 0
M  V30 3135 H 290.209 -0.264528 -1.60231 0
M  V30 3136 H 292.206 2.06565 -3.62128 0
M  V30 3137 H 290.866 2.13463 -2.4467 0
M  V30 3138 H 291.877 -0.37058 -5.16572 0
M  V30 3139 H 288.554 1.79861 -3.76771 0
M  V30 3140 H 289.944 -1.048 -6.63677 0
M  V30 3141 N 292.664 1.56529 -0.183458 0
M  V30 3142 C 293.889 2.02064 0.467428 0
M  V30 3143 C 294.314 1.06282 1.55196 0
M  V30 3144 O 293.672 0.0443565 1.81246 0
M  V30 3145 C 293.72 3.46122 1.01153 0
M  V30 3146 O 292.824 3.53437 2.12499 0
M  V30 3147 H 292.165 0.654726 0.110588 0
M  V30 3148 H 294.695 2.02521 -0.290917 0
M  V30 3149 H 294.705 3.85676 1.33108 0
M  V30 3150 H 293.38 4.15331 0.217533 0
M  V30 3151 H 291.957 3.2575 1.81497 0
M  V30 3152 N 294.142 -0.090211 1.57342 0
M  V30 3153 C 295.072 -1.10976 2.05443 0
M  V30 3154 C 296.053 -1.41482 0.944284 0
M  V30 3155 O 297.238 -1.51428 1.21586 0
M  V30 3156 C 294.368 -2.42831 2.48295 0
M  V30 3157 C 293.322 -2.26721 3.63018 0
M  V30 3158 C 292.648 -3.63796 3.91863 0
M  V30 3159 C 293.948 -1.7037 4.93732 0
M  V30 3160 H 295.642 -0.709564 2.9087 0
M  V30 3161 H 293.188 -0.339874 1.39932 0
M  V30 3162 H 295.141 -3.14431 2.80555 0
M  V30 3163 H 293.865 -2.84795 1.59873 0
M  V30 3164 H 292.524 -1.57565 3.31012 0
M  V30 3165 H 292.172 -4.03297 3.00601 0
M  V30 3166 H 291.872 -3.53861 4.69101 0
M  V30 3167 H 293.396 -4.36855 4.26603 0
M  V30 3168 H 294.81 -2.31816 5.24342 0
M  V30 3169 H 293.207 -1.71181 5.75167 0
M  V30 3170 H 294.277 -0.663542 4.80339 0
M  V30 3171 N 295.62 -1.53406 -0.361157 0
M  V30 3172 C 296.55 -1.83136 -1.44857 0
M  V30 3173 C 297.531 -0.685174 -1.5569 0
M  V30 3174 O 298.716 -0.93544 -1.70186 0
M  V30 3175 C 295.846 -2.02522 -2.82138 0
M  V30 3176 C 294.8 -3.18302 -2.86126 0
M  V30 3177 C 294.126 -3.22989 -4.26125 0
M  V30 3178 C 295.426 -4.56796 -2.53248 0
M  V30 3179 H 297.12 -2.74201 -1.20226 0
M  V30 3180 H 294.666 -1.31938 -0.576922 0
M  V30 3181 H 296.619 -2.21904 -3.58241 0
M  V30 3182 H 295.343 -1.08172 -3.08166 0
M  V30 3183 H 294.002 -2.98747 -2.12475 0
M  V30 3184 H 293.65 -2.26267 -4.49235 0
M  V30 3185 H 293.35 -4.00781 -4.29708 0
M  V30 3186 H 294.874 -3.44559 -5.04094 0
M  V30 3187 H 296.288 -4.7631 -3.19064 0
M  V30 3188 H 294.685 -5.36862 -2.68141 0
M  V30 3189 H 295.755 -4.61606 -1.48484 0
M  V30 3190 N 297.098 0.621204 -1.44841 0
M  V30 3191 C 298.345 1.38055 -1.48145 0
M  V30 3192 C 298.673 1.94143 -0.117867 0
M  V30 3193 O 297.928 1.74713 0.881694 0
M  V30 3194 C 298.227 2.55675 -2.4973 0
M  V30 3195 C 297.893 2.17817 -3.94799 0
M  V30 3196 C 296.555 2.07205 -4.34303 0
M  V30 3197 C 298.907 1.88065 -4.86087 0
M  V30 3198 C 296.235 1.65045 -5.63007 0
M  V30 3199 C 298.587 1.47394 -6.15189 0
M  V30 3200 C 297.251 1.35331 -6.53637 0
M  V30 3201 H 296.521 0.505181 -0.542101 0
M  V30 3202 H 299.168 0.703477 -1.78111 0
M  V30 3203 H 297.473 3.2866 -2.13284 0
M  V30 3204 H 299.17 3.13904 -2.4953 0
M  V30 3205 H 295.76 2.26998 -3.63552 0
M  V30 3206 H 299.944 1.95168 -4.56315 0
M  V30 3207 H 295.2 1.54317 -5.91605 0
M  V30 3208 H 299.374 1.23415 -6.85377 0
M  V30 3209 H 297.001 1.02435 -7.53267 0
M  V30 3210 N 298.576 1.31904 0.862503 0
M  V30 3211 C 299.824 1.21776 1.61292 0
M  V30 3212 C 300.145 -0.222413 1.93727 0
M  V30 3213 O 299.415 -1.1451 1.58947 0
M  V30 3214 H 297.995 0.447717 0.597962 0
M  V30 3215 H 300.657 1.65326 1.03215 0
M  V30 3216 H 299.753 1.7948 2.5533 0
M  V30 3217 N 300.054 -1.07777 1.14986 0
M  V30 3218 C 301.302 -1.79934 0.920235 0
M  V30 3219 C 301.623 -1.86955 -0.554336 0
M  V30 3220 O 300.893 -1.36731 -1.40291 0
M  V30 3221 H 299.473 -0.666424 0.337473 0
M  V30 3222 H 302.135 -1.3027 1.44968 0
M  V30 3223 H 301.231 -2.82539 1.32583 0
M  V30 3224 N 301.532 -0.945985 -1.26051 0
M  V30 3225 C 302.479 -0.45809 -2.26208 0
M  V30 3226 C 303.449 0.484816 -1.58867 0
M  V30 3227 O 304.634 0.399969 -1.86561 0
M  V30 3228 C 301.774 0.266131 -3.44072 0
M  V30 3229 C 300.887 -0.713005 -4.26075 0
M  V30 3230 C 300.022 0.0329013 -5.3119 0
M  V30 3231 C 299.061 -0.93774 -6.04874 0
M  V30 3232 N 298.198 -0.223274 -7.01745 0
M  V30 3233 H 303.038 -1.3171 -2.67313 0
M  V30 3234 H 300.575 -0.66069 -1.31428 0
M  V30 3235 H 302.533 0.702514 -4.11243 0
M  V30 3236 H 301.163 1.08925 -3.03867 0
M  V30 3237 H 300.215 -1.26789 -3.58648 0
M  V30 3238 H 301.527 -1.45406 -4.77136 0
M  V30 3239 H 300.681 0.528335 -6.04395 0
M  V30 3240 H 299.42 0.806801 -4.8098 0
M  V30 3241 H 298.425 -1.44425 -5.30492 0
M  V30 3242 H 299.65 -1.71172 -6.57173 0
M  V30 3243 H 297.596 0.532046 -6.53839 0
M  V30 3244 H 297.513 -0.90357 -7.50581 0
M  V30 3245 H 298.781 0.250907 -7.79096 0
M  V30 3246 N 303.011 1.40521 -0.713556 0
M  V30 3247 C 304.259 2.00527 -0.251692 0
M  V30 3248 C 304.58 1.56857 1.15848 0
M  V30 3249 O 303.85 0.807127 1.785 0
M  V30 3250 H 302.43 0.741551 -0.0900646 0
M  V30 3251 H 305.092 1.71887 -0.918733 0
M  V30 3252 H 304.188 3.10813 -0.283192 0
M  V30 3253 N 304.489 0.459591 1.5075 0
M  V30 3254 C 305.436 -0.340524 2.28274 0
M  V30 3255 C 306.406 -0.997371 1.32822 0
M  V30 3256 O 307.591 -1.01202 1.61749 0
M  V30 3257 C 304.731 -1.42317 3.14388 0
M  V30 3258 C 303.844 -0.782251 4.24859 0
M  V30 3259 C 302.979 -1.84182 4.98247 0
M  V30 3260 C 302.018 -1.18053 6.00608 0
M  V30 3261 N 301.155 -2.18244 6.67319 0
M  V30 3262 H 305.995 0.326899 2.96202 0
M  V30 3263 H 303.532 0.173057 1.46078 0
M  V30 3264 H 305.49 -2.06241 3.62658 0
M  V30 3265 H 304.12 -2.05992 2.4853 0
M  V30 3266 H 303.172 -0.0307404 3.80388 0
M  V30 3267 H 304.484 -0.259663 4.98124 0
M  V30 3268 H 303.638 -2.55714 5.50177 0
M  V30 3269 H 302.377 -2.39819 4.24662 0
M  V30 3270 H 301.382 -0.450776 5.47949 0
M  V30 3271 H 302.607 -0.631202 6.7616 0
M  V30 3272 H 300.553 -2.72919 5.96533 0
M  V30 3273 H 300.47 -1.70938 7.36421 0
M  V30 3274 H 301.738 -2.89191 7.23871 0
M  V30 3275 N 305.967 -1.56429 0.191757 0
M  V30 3276 C 307.215 -1.97095 -0.447006 0
M  V30 3277 C 307.536 -1.07967 -1.62383 0
M  V30 3278 O 306.806 -0.150248 -1.95323 0
M  V30 3279 H 305.386 -0.727832 -0.168135 0
M  V30 3280 H 308.048 -1.92911 0.27771 0
M  V30 3281 H 307.144 -3.01848 -0.793371 0
M  V30 3282 N 307.445 0.0818655 -1.57387 0
M  V30 3283 C 308.67 0.799946 -1.91352 0
M  V30 3284 C 309.095 1.70833 -0.787258 0
M  V30 3285 O 308.453 1.79419 0.26048 0
M  V30 3286 C 308.501 1.57812 -3.24234 0
M  V30 3287 O 307.605 2.68806 -3.12757 0
M  V30 3288 H 306.946 0.21891 -0.626877 0
M  V30 3289 H 309.476 0.0531256 -2.04531 0
M  V30 3290 H 309.486 1.95952 -3.57864 0
M  V30 3291 H 308.161 0.911548 -4.05788 0
M  V30 3292 H 306.738 2.33597 -2.90666 0
M  V30 3293 N 308.923 1.53595 0.353017 0
M  V30 3294 C 310.334 1.61937 0.929153 0
M  V30 3295 C 310.685 0.494686 1.89861 0
M  V30 3296 O 309.81 -0.377017 2.1309 0
M  V30 3297 C 310.405 2.93526 1.69199 0
M  V30 3298 C 308.964 3.04161 2.21727 0
M  V30 3299 C 308.111 2.57322 1.03348 0
M  V30 3300 H 311.062 1.58155 0.131431 0
M  V30 3301 H 311.083 2.82034 2.55416 0
M  V30 3302 H 310.595 3.75362 0.986144 0
M  V30 3303 H 308.696 2.26938 2.95516 0
M  V30 3304 H 308.809 4.09465 2.48748 0
M  V30 3305 H 307.173 2.12499 1.40414 0
M  V30 3306 H 307.956 3.41588 0.342428 0
M  V30 3307 N 310.401 -0.613514 1.45168 0
M  V30 3308 C 311.626 -1.40437 1.52618 0
M  V30 3309 C 312.051 -1.87438 0.157707 0
M  V30 3310 O 311.409 -1.59791 -0.856537 0
M  V30 3311 C 311.457 -2.58894 2.51011 0
M  V30 3312 O 310.561 -3.59326 2.02382 0
M  V30 3313 H 309.902 -0.419506 0.514695 0
M  V30 3314 H 312.432 -0.747215 1.90467 0
M  V30 3315 H 312.442 -3.06214 2.69624 0
M  V30 3316 H 311.117 -2.24032 3.50403 0
M  V30 3317 H 309.694 -3.18695 1.93618 0
M  V30 3318 N 311.879 -1.3236 -0.855495 0
M  V30 3319 C 312.829 -1.17809 -1.95205 0
M  V30 3320 C 313.813 -0.0852319 -1.60674 0
M  V30 3321 O 315.005 -0.311651 -1.74235 0
M  V30 3322 C 312.134 -0.902437 -3.31226 0
M  V30 3323 C 311.22 -2.03695 -3.7198 0
M  V30 3324 N 311.611 -3.28544 -3.84568 0
M  V30 3325 C 309.909 -1.93993 -4.016 0
M  V30 3326 C 310.61 -4.02847 -4.19629 0
M  V30 3327 N 309.586 -3.31138 -4.31102 0
M  V30 3328 H 313.388 -2.12462 -2.0307 0
M  V30 3329 H 310.902 -1.24127 -1.0472 0
M  V30 3330 H 312.899 -0.77915 -4.09554 0
M  V30 3331 H 311.559 0.0357267 -3.2468 0
M  V30 3332 H 312.57 -3.6349 -3.68911 0
M  V30 3333 H 309.247 -1.07733 -4.03361 0
M  V30 3334 H 310.637 -5.10506 -4.36845 0
M  V30 3335 N 313.357 1.07166 -1.15556 0
M  V30 3336 C 314.773 1.31899 -0.898603 0
M  V30 3337 C 314.973 1.96333 0.453383 0
M  V30 3338 O 314.029 2.22438 1.19489 0
M  V30 3339 C 315.342 2.20826 -2.04099 0
M  V30 3340 C 316.89 2.34269 -2.07574 0
M  V30 3341 C 317.365 3.26546 -3.21141 0
M  V30 3342 N 318.856 3.34127 -3.20801 0
M  V30 3343 C 319.591 4.05595 -4.05315 0
M  V30 3344 N 319.087 4.79661 -4.99897 0
M  V30 3345 N 320.88 4.01555 -3.93332 0
M  V30 3346 H 313.031 0.637302 -2.02613 0
M  V30 3347 H 315.294 0.343468 -0.883591 0
M  V30 3348 H 315 1.80744 -3.01703 0
M  V30 3349 H 314.874 3.21364 -1.97496 0
M  V30 3350 H 317.261 2.73603 -1.10568 0
M  V30 3351 H 317.342 1.33429 -2.18244 0
M  V30 3352 H 316.986 2.87931 -4.184 0
M  V30 3353 H 316.916 4.27345 -3.07708 0
M  V30 3354 H 319.407 2.81336 -2.52306 0
M  V30 3355 H 319.72 5.31694 -5.60822 0
M  V30 3356 H 318.065 4.78671 -5.03884 0
M  V30 3357 H 321.256 3.42806 -3.18751 0
M  V30 3358 H 321.429 4.56987 -4.5942 0
M  V30 3359 N 314.835 0.952656 1.25548 0
M  V30 3360 C 315.782 0.47008 2.25962 0
M  V30 3361 C 316.752 -0.476384 1.59122 0
M  V30 3362 O 317.937 -0.39007 1.8677 0
M  V30 3363 C 315.077 -0.247881 3.44209 0
M  V30 3364 C 314.19 0.735591 4.25691 0
M  V30 3365 C 313.325 -0.0047306 5.312 0
M  V30 3366 C 312.364 0.969805 6.04368 0
M  V30 3367 N 311.501 0.260486 7.01617 0
M  V30 3368 H 316.341 1.33126 2.66611 0
M  V30 3369 H 313.878 0.66765 1.31076 0
M  V30 3370 H 315.836 -0.680695 4.1161 0
M  V30 3371 H 314.466 -1.07312 3.0444 0
M  V30 3372 H 313.518 1.28689 3.57971 0
M  V30 3373 H 314.83 1.47934 4.76358 0
M  V30 3374 H 313.984 -0.496275 6.04667 0
M  V30 3375 H 312.723 -0.781282 4.81401 0
M  V30 3376 H 311.728 1.47237 5.29718 0
M  V30 3377 H 312.953 1.74655 6.56256 0
M  V30 3378 H 310.899 -0.497364 6.54112 0
M  V30 3379 H 310.816 0.943362 7.50091 0
M  V30 3380 H 312.084 -0.209587 7.79218 0
M  V30 3381 N 316.313 -1.40141 0.720998 0
M  V30 3382 C 317.263 -2.27949 0.0482544 0
M  V30 3383 C 318.247 -1.43538 -0.727021 0
M  V30 3384 O 319.439 -1.6658 -0.598332 0
M  V30 3385 C 316.568 -3.32126 -0.868729 0
M  V30 3386 C 315.654 -4.24008 -0.0883515 0
M  V30 3387 N 316.045 -4.97154 0.931226 0
M  V30 3388 C 314.343 -4.4485 -0.320105 0
M  V30 3389 C 315.044 -5.64587 1.4006 0
M  V30 3390 N 314.02 -5.38787 0.721752 0
M  V30 3391 H 317.822 -2.81948 0.829609 0
M  V30 3392 H 315.336 -1.52656 0.554067 0
M  V30 3393 H 317.333 -3.93884 -1.36605 0
M  V30 3394 H 315.993 -2.79687 -1.6494 0
M  V30 3395 H 317.004 -5.01 1.31222 0
M  V30 3396 H 313.681 -4.03378 -1.07668 0
M  V30 3397 H 315.071 -6.33175 2.24808 0
M  V30 3398 N 317.792 -0.46758 -1.50504 0
M  V30 3399 C 319.041 0.0902868 -2.01498 0
M  V30 3400 C 319.354 1.411 -1.35463 0
M  V30 3401 O 320.56 2.0536 -1.77594 0
M  V30 3402 C 319.016 0.21142 -3.59278 0
M  V30 3403 C 318.624 -1.10065 -4.34269 0
M  V30 3404 C 320.368 0.721433 -4.18325 0
M  V30 3405 C 318.275 -0.943505 -5.83825 0
M  V30 3406 H 317.205 0.037517 -0.753066 0
M  V30 3407 H 319.856 -0.601943 -1.73346 0
M  V30 3408 H 318.238 0.967352 -3.84003 0
M  V30 3409 H 319.412 -1.86726 -4.21272 0
M  V30 3410 H 317.727 -1.5415 -3.86816 0
M  V30 3411 H 320.324 0.85598 -5.27804 0
M  V30 3412 H 320.667 1.71186 -3.79475 0
M  V30 3413 H 321.2 0.0229843 -3.97793 0
M  V30 3414 H 317.939 -1.90719 -6.27141 0
M  V30 3415 H 317.459 -0.217213 -5.99407 0
M  V30 3416 H 319.138 -0.608715 -6.4413 0
M  V30 3417 N 319.27 1.56325 -0.20005 0
M  V30 3418 C 320.518 1.97329 0.436547 0
M  V30 3419 C 320.839 1.08826 1.61808 0
M  V30 3420 O 320.109 0.160604 1.95241 0
M  V30 3421 H 318.689 0.728714 0.164272 0
M  V30 3422 H 321.351 1.92761 -0.287937 0
M  V30 3423 H 320.447 3.02264 0.777353 0
M  V30 3424 N 320.748 -0.0735177 1.57428 0
M  V30 3425 C 321.973 -0.789787 1.91774 0
M  V30 3426 C 322.398 -1.70413 0.796306 0
M  V30 3427 O 321.756 -1.79555 -0.250961 0
M  V30 3428 C 321.804 -1.5609 3.25067 0
M  V30 3429 O 320.908 -2.67144 3.14178 0
M  V30 3430 H 320.249 -0.215582 0.628029 0
M  V30 3431 H 322.779 -0.0422781 2.04556 0
M  V30 3432 H 322.789 -1.94052 3.58898 0
M  V30 3433 H 321.464 -0.890015 4.06265 0
M  V30 3434 H 320.041 -2.32052 2.91901 0
M  V30 3435 N 322.226 -1.5378 -0.344866 0
M  V30 3436 C 323.475 -1.7018 -1.08267 0
M  V30 3437 C 323.788 -0.471 -1.89845 0
M  V30 3438 O 324.994 -0.515917 -2.66553 0
M  V30 3439 C 323.45 -3.00923 -1.97417 0
M  V30 3440 C 323.058 -4.31335 -1.21053 0
M  V30 3441 C 324.802 -3.26688 -2.71063 0
M  V30 3442 C 322.709 -5.53153 -2.09225 0
M  V30 3443 H 321.639 -0.634138 -0.407903 0
M  V30 3444 H 324.29 -1.8028 -0.342246 0
M  V30 3445 H 322.672 -2.84676 -2.75274 0
M  V30 3446 H 323.846 -4.58281 -0.481159 0
M  V30 3447 H 322.161 -4.12173 -0.591813 0
M  V30 3448 H 324.758 -4.1489 -3.37299 0
M  V30 3449 H 325.101 -2.43639 -3.37558 0
M  V30 3450 H 325.634 -3.43705 -2.0028 0
M  V30 3451 H 322.373 -6.38741 -1.47274 0
M  V30 3452 H 321.893 -5.30458 -2.79955 0
M  V30 3453 H 323.572 -5.88744 -2.68308 0
M  V30 3454 N 323.704 0.605807 -1.45491 0
M  V30 3455 C 324.652 1.73754 -1.54636 0
M  V30 3456 C 325.646 1.64207 -0.416219 0
M  V30 3457 O 326.852 1.69979 -0.592199 0
M  V30 3458 H 323.227 0.574073 -0.485741 0
M  V30 3459 H 325.198 1.63169 -2.49837 0
M  V30 3460 C 323.947 3.12135 -1.53189 0
M  V30 3461 H 323.27 3.20141 -2.39478 0
M  V30 3462 H 324.71 3.91147 -1.63645 0
M  V30 3463 C 323.169 3.35921 -0.256616 0
M  V30 3464 O 323.699 3.96194 0.662798 0
M  V30 3465 N 321.905 2.90204 -0.151751 0
M  V30 3466 H 321.452 2.41336 -0.90081 0
M  V30 3467 H 321.41 3.06492 0.700699 0
M  V30 3468 N 325.182 1.32811 0.848464 0
M  V30 3469 C 326.593 1.21315 1.41914 0
M  V30 3470 C 326.944 -0.171847 1.95446 0
M  V30 3471 O 326.069 -1.07093 1.88043 0
M  V30 3472 C 326.664 2.19631 2.57968 0
M  V30 3473 C 325.223 2.12003 3.11017 0
M  V30 3474 C 324.37 2.07651 1.83783 0
M  V30 3475 H 327.321 1.44549 0.655071 0
M  V30 3476 H 327.342 1.79845 3.35315 0
M  V30 3477 H 326.854 3.20423 2.18976 0
M  V30 3478 H 324.955 1.14481 3.54577 0
M  V30 3479 H 325.068 3.02111 3.71841 0
M  V30 3480 H 323.432 1.52983 2.03638 0
M  V30 3481 H 324.215 3.10235 1.47 0
M  V30 3482 N 326.66 -1.06551 1.16123 0
M  V30 3483 C 327.608 -2.16063 0.861371 0
M  V30 3484 C 328.602 -1.6856 -0.168517 0
M  V30 3485 O 329.808 -1.79986 -0.0227579 0
M  V30 3486 H 326.183 -0.705278 0.260934 0
M  V30 3487 H 328.154 -2.38567 1.79244 0
M  V30 3488 C 326.903 -3.45661 0.376018 0
M  V30 3489 H 326.226 -3.82604 1.15992 0
M  V30 3490 H 327.666 -4.23504 0.204951 0
M  V30 3491 C 326.125 -3.24546 -0.903954 0
M  V30 3492 O 326.655 -3.49865 -1.97377 0
M  V30 3493 N 324.861 -2.77992 -0.846679 0
M  V30 3494 H 324.408 -2.57589 0.0241017 0
M  V30 3495 H 324.366 -2.64244 -1.70359 0
M  V30 3496 N 328.138 -0.959301 -1.25041 0
M  V30 3497 C 329.378 -0.624343 -1.94631 0
M  V30 3498 C 329.742 0.82403 -1.73418 0
M  V30 3499 O 330.943 1.26881 -2.3697 0
M  V30 3500 C 329.214 -0.978805 -3.43736 0
M  V30 3501 S 330.773 -0.757127 -4.32219 0
M  V30 3502 H 327.591 -0.229327 -0.673001 0
M  V30 3503 H 330.193 -1.23447 -1.51595 0
M  V30 3504 H 328.897 -2.02997 -3.56679 0
M  V30 3505 H 328.428 -0.359117 -3.91757 0
M  V30 3506 H 330.443 0.369759 -4.9482 0
M  V30 3507 N 329.616 1.39756 -0.72842 0
M  V30 3508 C 330.564 2.32485 -0.0731849 0
M  V30 3509 C 331.558 1.52717 0.733063 0
M  V30 3510 O 332.764 1.68428 0.634988 0
M  V30 3511 H 329.139 0.751984 -0.00486469 0
M  V30 3512 H 331.11 2.85382 -0.871761 0
M  V30 3513 C 329.859 3.37773 0.824908 0
M  V30 3514 H 329.182 3.99227 0.213915 0
M  V30 3515 H 330.622 4.05121 1.25111 0
M  V30 3516 C 329.081 2.74287 1.95622 0
M  V30 3517 O 329.611 2.61618 3.04826 0
M  V30 3518 N 327.817 2.32475 1.74367 0
M  V30 3519 H 327.364 2.4298 0.855494 0
M  V30 3520 H 327.322 1.90337 2.50238 0
M  V30 3521 N 331.094 0.475555 1.50254 0
M  V30 3522 C 332.34 -0.0780073 2.0265 0
M  V30 3523 C 332.673 -1.38968 1.35652 0
M  V30 3524 O 331.948 -1.8839 0.483691 0
M  V30 3525 C 332.231 -0.257161 3.59181 0
M  V30 3526 C 332.084 1.07585 4.36744 0
M  V30 3527 C 333.403 -1.00965 4.28362 0
M  V30 3528 H 330.522 -0.0268758 0.73651 0
M  V30 3529 H 333.164 0.622015 1.7953 0
M  V30 3530 H 331.314 -0.853412 3.79011 0
M  V30 3531 H 332.986 1.70902 4.28474 0
M  V30 3532 H 331.229 1.6714 4.00308 0
M  V30 3533 H 331.9 0.904088 5.44546 0
M  V30 3534 H 334.376 -0.504214 4.13034 0
M  V30 3535 H 333.252 -1.10381 5.37687 0
M  V30 3536 H 333.513 -2.04731 3.91839 0
M  V30 3537 N 332.573 -1.56217 0.208337 0
M  V30 3538 C 333.503 -2.22694 -0.702116 0
M  V30 3539 C 334.484 -1.19432 -1.2112 0
M  V30 3540 O 335.669 -1.47978 -1.25762 0
M  V30 3541 C 332.799 -2.8966 -1.9161 0
M  V30 3542 C 331.753 -3.9928 -1.5414 0
M  V30 3543 C 331.079 -4.53476 -2.83308 0
M  V30 3544 C 332.379 -5.17012 -0.741339 0
M  V30 3545 H 334.073 -2.99034 -0.147898 0
M  V30 3546 H 331.619 -1.43831 -0.0696951 0
M  V30 3547 H 333.572 -3.34852 -2.55836 0
M  V30 3548 H 332.296 -2.10746 -2.49507 0
M  V30 3549 H 330.955 -3.54799 -0.922668 0
M  V30 3550 H 330.603 -3.71308 -3.39322 0
M  V30 3551 H 330.303 -5.27451 -2.58976 0
M  V30 3552 H 331.827 -5.01378 -3.485 0
M  V30 3553 H 333.241 -5.58667 -1.28699 0
M  V30 3554 H 331.638 -5.97137 -0.595627 0
M  V30 3555 H 332.708 -4.8423 0.254851 0
M  V30 3556 N 334.051 0.0651679 -1.57465 0
M  V30 3557 C 334.961 1.09448 -2.07505 0
M  V30 3558 C 335.977 1.41974 -1.00595 0
M  V30 3559 O 337.153 1.52018 -1.32107 0
M  V30 3560 C 334.218 2.38689 -2.51453 0
M  V30 3561 C 333.279 2.13073 -3.72691 0
M  V30 3562 C 332.512 3.36152 -4.14533 0
M  V30 3563 O 332.735 4.45517 -3.56189 0
M  V30 3564 O 331.669 3.23974 -5.07272 0
M  V30 3565 H 335.495 0.69935 -2.95538 0
M  V30 3566 H 333.08 0.279752 -1.46757 0
M  V30 3567 H 334.962 3.14736 -2.80212 0
M  V30 3568 H 333.637 2.77568 -1.66546 0
M  V30 3569 H 332.544 1.34709 -3.49005 0
M  V30 3570 H 333.877 1.79071 -4.5847 0
M  V30 3571 N 335.529 1.53961 0.336706 0
M  V30 3572 C 336.775 1.7179 1.07777 0
M  V30 3573 C 337.108 0.483263 1.88091 0
M  V30 3574 O 336.383 -0.519747 1.87427 0
M  V30 3575 C 336.666 2.98558 2.01334 0
M  V30 3576 C 336.519 4.32245 1.24437 0
M  V30 3577 C 337.838 3.21023 3.01052 0
M  V30 3578 H 334.957 0.625089 0.390426 0
M  V30 3579 H 337.599 1.86641 0.35567 0
M  V30 3580 H 335.749 2.86028 2.62908 0
M  V30 3581 H 337.421 4.56637 0.654243 0
M  V30 3582 H 335.664 4.30344 0.546458 0
M  V30 3583 H 336.335 5.17137 1.93063 0
M  V30 3584 H 338.811 3.32929 2.49595 0
M  V30 3585 H 337.687 4.11104 3.6371 0
M  V30 3586 H 337.948 2.37637 3.72802 0
M  V30 3587 N 337.007 -0.598083 1.45811 0
M  V30 3588 C 338.256 -1.35295 1.49594 0
M  V30 3589 C 338.569 -1.95057 0.145679 0
M  V30 3590 O 339.775 -2.71431 0.0612099 0
M  V30 3591 C 338.231 -2.45124 2.63519 0
M  V30 3592 C 337.839 -1.91732 4.04899 0
M  V30 3593 C 339.583 -3.2205 2.76558 0
M  V30 3594 C 337.49 -2.991 5.1019 0
M  V30 3595 H 336.42 -0.508552 0.556679 0
M  V30 3596 H 339.071 -0.639977 1.71978 0
M  V30 3597 H 337.453 -3.19149 2.34435 0
M  V30 3598 H 338.627 -1.24352 4.43704 0
M  V30 3599 H 336.942 -1.27522 3.96393 0
M  V30 3600 H 339.539 -4.0215 3.52391 0
M  V30 3601 H 339.882 -3.73663 1.83526 0
M  V30 3602 H 340.415 -2.55127 3.05213 0
M  V30 3603 H 337.154 -2.52393 6.04961 0
M  V30 3604 H 336.674 -3.65017 4.75944 0
M  V30 3605 H 338.353 -3.63318 5.35359 0
M  V30 3606 N 338.485 -1.33259 -0.841409 0
M  V30 3607 C 339.432 -1.23302 -1.95103 0
M  V30 3608 C 340.402 -0.112204 -1.65721 0
M  V30 3609 O 341.587 -0.290038 -1.88583 0
M  V30 3610 C 338.727 -0.975583 -3.31023 0
M  V30 3611 C 337.84 -2.18243 -3.72819 0
M  V30 3612 C 336.975 -1.85936 -4.97595 0
M  V30 3613 C 336.014 -3.02866 -5.3192 0
M  V30 3614 N 335.151 -2.70565 -6.47873 0
M  V30 3615 H 339.991 -2.18207 -2.02952 0
M  V30 3616 H 337.528 -1.0851 -0.993173 0
M  V30 3617 H 339.486 -0.80677 -4.09325 0
M  V30 3618 H 338.116 -0.0632755 -3.22738 0
M  V30 3619 H 337.168 -2.46107 -2.90061 0
M  V30 3620 H 338.48 -3.05666 -3.94169 0
M  V30 3621 H 337.634 -1.65684 -5.83638 0
M  V30 3622 H 336.373 -0.957452 -4.78209 0
M  V30 3623 H 335.378 -3.23736 -4.44382 0
M  V30 3624 H 336.603 -3.93809 -5.53255 0
M  V30 3625 H 334.549 -1.8293 -6.29978 0
M  V30 3626 H 334.466 -3.51519 -6.69306 0
M  V30 3627 H 335.734 -2.53774 -7.37034 0
M  V30 3628 N 339.963 1.05934 -1.16686 0
M  V30 3629 C 341.24 1.75643 -0.860747 0
M  V30 3630 C 341.62 2.01144 0.640641 0
M  V30 3631 O 340.968 1.64147 1.58959 0
M  V30 3632 C 341.178 3.05493 -1.68745 0
M  V30 3633 C 342.526 3.79581 -1.90271 0
M  V30 3634 O 343.55 3.15344 -1.65641 0
M  V30 3635 O 342.409 4.9499 -2.31618 0
M  V30 3636 H 339.503 0.763426 -0.317977 0
M  V30 3637 H 342.049 1.1217 -1.27342 0
M  V30 3638 H 340.821 2.8264 -2.70611 0
M  V30 3639 H 340.444 3.76702 -1.27206 0
M  V30 3640 N 341.441 0.965919 1.2453 0
M  V30 3641 C 342.689 0.625593 1.92174 0
M  V30 3642 C 343.01 -0.841652 1.75901 0
M  V30 3643 O 342.28 -1.60061 1.12948 0
M  V30 3644 H 340.86 0.228388 0.71123 0
M  V30 3645 H 343.522 1.2266 1.51461 0
M  V30 3646 H 342.618 0.864653 2.99884 0
M  V30 3647 N 342.919 -1.39368 0.735821 0
M  V30 3648 C 344.149 -2.04498 0.293967 0
M  V30 3649 C 344.557 -1.55593 -1.07645 0
M  V30 3650 O 343.9 -0.716324 -1.69158 0
M  V30 3651 C 343.962 -3.58836 0.218342 0
M  V30 3652 C 343.626 -4.30721 1.52736 0
M  V30 3653 C 344.623 -4.57305 2.47322 0
M  V30 3654 C 342.308 -4.69251 1.79189 0
M  V30 3655 C 344.302 -5.21429 3.66593 0
M  V30 3656 C 341.989 -5.33104 2.98737 0
M  V30 3657 C 342.987 -5.59125 3.9226 0
M  V30 3658 O 342.675 -6.21653 5.09708 0
M  V30 3659 H 342.407 -0.664118 0.126189 0
M  V30 3660 H 344.961 -1.79385 1.00051 0
M  V30 3661 H 343.191 -3.8285 -0.544314 0
M  V30 3662 H 344.88 -4.05447 -0.191626 0
M  V30 3663 H 345.646 -4.27983 2.28156 0
M  V30 3664 H 341.525 -4.48354 1.07239 0
M  V30 3665 H 345.069 -5.41656 4.39607 0
M  V30 3666 H 340.966 -5.61846 3.17803 0
M  V30 3667 H 341.734 -6.40146 5.10054 0
M  V30 3668 N 344.397 -0.483516 -1.5 0
M  V30 3669 C 345.307 0.309172 -2.32554 0
M  V30 3670 C 346.323 0.984159 -1.43493 0
M  V30 3671 O 347.499 0.969399 -1.76535 0
M  V30 3672 C 344.564 1.36979 -3.18493 0
M  V30 3673 C 343.625 0.710095 -4.23387 0
M  V30 3674 C 342.858 1.72018 -5.05218 0
M  V30 3675 O 343.081 2.94813 -4.88305 0
M  V30 3676 O 342.015 1.28515 -5.8802 0
M  V30 3677 H 345.841 -0.366064 -3.01486 0
M  V30 3678 H 343.426 -0.24514 -1.47375 0
M  V30 3679 H 345.308 1.98385 -3.71781 0
M  V30 3680 H 343.983 2.02828 -2.52275 0
M  V30 3681 H 342.89 0.0567539 -3.74057 0
M  V30 3682 H 344.223 0.0943557 -4.9211 0
M  V30 3683 N 345.875 1.56104 -0.216619 0
M  V30 3684 C 346.823 2.21434 0.712036 0
M  V30 3685 C 347.817 1.19218 1.20348 0
M  V30 3686 O 349.023 1.3731 1.16387 0
M  V30 3687 H 345.398 0.70992 0.248026 0
M  V30 3688 H 347.369 2.98083 0.137558 0
M  V30 3689 C 346.118 2.90434 1.91163 0
M  V30 3690 H 345.441 3.68842 1.54258 0
M  V30 3691 H 346.881 3.39552 2.5393 0
M  V30 3692 C 345.34 1.92635 2.76394 0
M  V30 3693 O 345.87 1.44017 3.74996 0
M  V30 3694 N 344.076 1.60392 2.42328 0
M  V30 3695 H 343.623 2.00122 1.622 0
M  V30 3696 H 343.581 0.952159 2.99635 0
M  V30 3697 N 347.353 -0.0568162 1.57498 0
M  V30 3698 C 348.316 -1.05038 2.03715 0
M  V30 3699 C 349.316 -1.30709 0.936577 0
M  V30 3700 O 350.506 -1.26178 1.20103 0
M  V30 3701 C 347.638 -2.39034 2.43055 0
M  V30 3702 H 348.831 -0.651715 2.92733 0
M  V30 3703 H 346.384 -0.302947 1.53336 0
M  V30 3704 H 347.119 -2.83703 1.57108 0
M  V30 3705 H 346.904 -2.21739 3.2338 0
M  V30 3706 H 348.394 -3.10421 2.79336 0
M  V30 3707 N 348.832 -1.54138 -0.328536 0
M  V30 3708 C 350.248 -1.44736 -0.672574 0
M  V30 3709 C 350.448 -0.616217 -1.91846 0
M  V30 3710 O 349.504 -0.113067 -2.52247 0
M  V30 3711 C 350.817 -2.884 -0.851217 0
M  V30 3712 C 352.365 -2.98271 -0.948877 0
M  V30 3713 C 352.84 -4.43074 -1.15973 0
M  V30 3714 N 354.331 -4.46665 -1.22658 0
M  V30 3715 C 355.066 -5.55857 -1.40751 0
M  V30 3716 N 354.562 -6.75026 -1.5592 0
M  V30 3717 N 356.355 -5.43495 -1.4342 0
M  V30 3718 H 348.506 -2.06661 0.490421 0
M  V30 3719 H 350.769 -0.934812 0.157579 0
M  V30 3720 H 350.475 -3.51699 -0.00704236 0
M  V30 3721 H 350.349 -3.34225 -1.74853 0
M  V30 3722 H 352.736 -2.35102 -1.78356 0
M  V30 3723 H 352.817 -2.55785 -0.0281435 0
M  V30 3724 H 352.461 -5.06827 -0.329915 0
M  V30 3725 H 352.391 -4.83165 -2.09426 0
M  V30 3726 H 354.882 -3.60797 -1.124 0
M  V30 3727 H 355.195 -7.54004 -1.69404 0
M  V30 3728 H 353.54 -6.77944 -1.53027 0
M  V30 3729 H 356.731 -4.49349 -1.31162 0
M  V30 3730 H 356.904 -6.28649 -1.57178 0
M  V30 3731 N 350.31 0.590341 -1.46126 0
M  V30 3732 C 351.726 0.912917 -1.30912 0
M  V30 3733 C 351.926 1.99616 -0.274893 0
M  V30 3734 O 350.982 2.50397 0.325197 0
M  V30 3735 C 352.295 1.3375 -2.69317 0
M  V30 3736 C 353.843 1.45077 -2.77348 0
M  V30 3737 C 354.318 1.90904 -4.16317 0
M  V30 3738 N 355.809 1.9811 -4.18696 0
M  V30 3739 C 356.544 2.34828 -5.23109 0
M  V30 3740 N 356.04 2.70393 -6.37856 0
M  V30 3741 N 357.833 2.35317 -5.10473 0
M  V30 3742 H 349.984 -0.125358 -2.1203 0
M  V30 3743 H 352.247 0.00658481 -0.947977 0
M  V30 3744 H 351.953 0.615614 -3.4627 0
M  V30 3745 H 351.827 2.30058 -2.9892 0
M  V30 3746 H 354.214 2.16353 -2.00687 0
M  V30 3747 H 354.295 0.4704 -2.51438 0
M  V30 3748 H 353.939 1.20209 -4.9347 0
M  V30 3749 H 353.869 2.89886 -4.39629 0
M  V30 3750 H 356.36 1.73146 -3.359 0
M  V30 3751 H 356.673 2.97341 -7.13308 0
M  V30 3752 H 355.018 2.68048 -6.41229 0
M  V30 3753 H 358.209 2.0695 -4.19868 0
M  V30 3754 H 358.382 2.63605 -5.9196 0
M  V30 3755 N 351.788 1.33704 0.83433 0
M  V30 3756 C 352.718 1.26967 1.95963 0
M  V30 3757 C 353.699 0.149337 1.69443 0
M  V30 3758 O 354.884 0.339852 1.91203 0
M  V30 3759 C 352.014 1.01275 3.32206 0
M  V30 3760 C 350.968 2.09652 3.73136 0
M  V30 3761 C 350.294 1.69166 5.07235 0
M  V30 3762 C 351.594 3.51372 3.86439 0
M  V30 3763 H 353.288 2.2112 2.01857 0
M  V30 3764 H 350.834 1.06447 0.969793 0
M  V30 3765 H 352.787 0.952106 4.10503 0
M  V30 3766 H 351.511 0.0356203 3.26581 0
M  V30 3767 H 350.17 2.14766 2.97104 0
M  V30 3768 H 349.818 0.701437 4.98085 0
M  V30 3769 H 349.518 2.41694 5.35591 0
M  V30 3770 H 351.042 1.64576 5.88003 0
M  V30 3771 H 352.456 3.48734 4.55036 0
M  V30 3772 H 350.853 4.22425 4.26236 0
M  V30 3773 H 351.923 3.89546 2.88759 0
M  V30 3774 N 353.266 -1.05314 1.17247 0
M  V30 3775 C 354.506 -1.79869 0.970898 0
M  V30 3776 C 354.87 -1.85594 -0.491808 0
M  V30 3777 O 356.071 -2.56229 -0.812409 0
M  V30 3778 C 354.342 -3.19937 1.59295 0
M  V30 3779 S 355.901 -4.10986 1.53741 0
M  V30 3780 H 352.719 -0.61949 0.348931 0
M  V30 3781 H 355.321 -1.26368 1.49169 0
M  V30 3782 H 354.025 -3.13372 2.65003 0
M  V30 3783 H 353.556 -3.78515 1.07191 0
M  V30 3784 H 355.571 -4.93203 0.544537 0
M  V30 3785 N 354.744 -0.972509 -1.24016 0
M  V30 3786 C 356.021 -0.553733 -1.87598 0
M  V30 3787 C 356.401 0.969158 -1.87538 0
M  V30 3788 O 355.749 1.84255 -1.35139 0
M  V30 3789 C 355.959 -1.15076 -3.29482 0
M  V30 3790 C 357.307 -1.23862 -4.06132 0
M  V30 3791 O 358.331 -1.10363 -3.38672 0
M  V30 3792 O 357.19 -1.45252 -5.26844 0
M  V30 3793 H 354.284 -0.185331 -0.805966 0
M  V30 3794 H 356.83 -1.06709 -1.31952 0
M  V30 3795 H 355.602 -2.19333 -3.2405 0
M  V30 3796 H 355.225 -0.621746 -3.92709 0
M  V30 3797 N 356.222 1.38976 -0.743202 0
M  V30 3798 C 357.152 2.33171 -0.123873 0
M  V30 3799 C 358.133 1.54336 0.71516 0
M  V30 3800 O 359.318 1.82696 0.658467 0
M  V30 3801 C 356.448 3.38474 0.777978 0
M  V30 3802 C 355.402 4.27979 0.0424758 0
M  V30 3803 C 354.728 5.2405 1.06189 0
M  V30 3804 C 356.028 5.10155 -1.1198 0
M  V30 3805 H 357.722 2.85213 -0.910709 0
M  V30 3806 H 355.268 1.37133 -0.439388 0
M  V30 3807 H 357.221 4.03328 1.22084 0
M  V30 3808 H 355.945 2.84891 1.59702 0
M  V30 3809 H 354.604 3.64616 -0.380853 0
M  V30 3810 H 354.252 4.66758 1.87472 0
M  V30 3811 H 353.952 5.84785 0.574485 0
M  V30 3812 H 355.476 5.9178 1.50428 0
M  V30 3813 H 356.89 5.68307 -0.75499 0
M  V30 3814 H 355.287 5.80073 -1.53738 0
M  V30 3815 H 356.357 4.44504 -1.93764 0
M  V30 3816 N 357.7 0.491464 1.49741 0
M  V30 3817 C 358.93 -0.0534375 2.06531 0
M  V30 3818 C 359.338 -1.32233 1.35318 0
M  V30 3819 O 358.681 -1.78781 0.422243 0
M  V30 3820 C 358.743 -0.387034 3.57411 0
M  V30 3821 C 358.407 0.782764 4.50246 0
M  V30 3822 C 359.404 1.67059 4.92329 0
M  V30 3823 C 357.089 0.978866 4.9267 0
M  V30 3824 C 359.083 2.73874 5.75562 0
M  V30 3825 C 356.77 2.05022 5.75682 0
M  V30 3826 C 357.768 2.92851 6.17031 0
M  V30 3827 O 357.456 3.98138 6.98385 0
M  V30 3828 H 357.188 0.0129324 0.675876 0
M  V30 3829 H 359.742 0.685238 1.93633 0
M  V30 3830 H 357.972 -1.17918 3.68283 0
M  V30 3831 H 359.661 -0.869419 3.96479 0
M  V30 3832 H 360.427 1.53086 4.60206 0
M  V30 3833 H 356.306 0.304646 4.59992 0
M  V30 3834 H 359.85 3.42458 6.07757 0
M  V30 3835 H 355.747 2.18993 6.07217 0
M  V30 3836 H 356.515 3.95374 7.16674 0
M  V30 3837 N 359.178 -1.55987 0.224894 0
M  V30 3838 C 360.408 -2.02489 -0.41007 0
M  V30 3839 C 360.816 -1.10391 -1.53657 0
M  V30 3840 O 360.159 -0.106458 -1.83391 0
M  V30 3841 C 360.221 -3.45319 -0.999757 0
M  V30 3842 C 359.885 -4.56999 -0.00827976 0
M  V30 3843 C 360.882 -5.13812 0.793314 0
M  V30 3844 C 358.567 -5.02176 0.111442 0
M  V30 3845 C 360.561 -6.14276 1.7013 0
M  V30 3846 C 358.248 -6.02477 1.02296 0
M  V30 3847 C 359.246 -6.58403 1.81643 0
M  V30 3848 O 358.934 -7.56751 2.71262 0
M  V30 3849 H 358.666 -0.667915 -0.104235 0
M  V30 3850 H 361.22 -2.0257 0.339782 0
M  V30 3851 H 359.45 -3.42318 -1.79876 0
M  V30 3852 H 361.139 -3.7545 -1.54248 0
M  V30 3853 H 361.905 -4.79756 0.711288 0
M  V30 3854 H 357.784 -4.58323 -0.49605 0
M  V30 3855 H 361.328 -6.57854 2.32107 0
M  V30 3856 H 357.225 -6.35954 1.10599 0
M  V30 3857 H 357.993 -7.74286 2.65375 0
M  V30 3858 N 360.656 0.0484629 -1.57525 0
M  V30 3859 C 361.905 0.742065 -1.87553 0
M  V30 3860 C 362.218 1.77545 -0.820802 0
M  V30 3861 O 363.424 2.52027 -1.00967 0
M  V30 3862 C 361.88 1.37081 -3.32771 0
M  V30 3863 C 361.488 0.374786 -4.4643 0
M  V30 3864 C 363.232 2.04542 -3.71972 0
M  V30 3865 C 361.139 1.01077 -5.82698 0
M  V30 3866 H 360.069 0.280903 -0.699721 0
M  V30 3867 H 362.72 -0.00411877 -1.835 0
M  V30 3868 H 361.102 2.16605 -3.31509 0
M  V30 3869 H 362.276 -0.392331 -4.59127 0
M  V30 3870 H 360.591 -0.196653 -4.15935 0
M  V30 3871 H 363.188 2.52943 -4.71088 0
M  V30 3872 H 363.531 2.85515 -3.02964 0
M  V30 3873 H 364.064 1.31819 -3.75325 0
M  V30 3874 H 360.803 0.240878 -6.55057 0
M  V30 3875 H 360.323 1.74819 -5.73758 0
M  V30 3876 H 362.002 1.52383 -6.28799 0
M  V30 3877 N 362.134 1.5431 0.320358 0
M  V30 3878 C 363.082 1.84647 1.4145 0
M  V30 3879 C 364.076 0.718624 1.53402 0
M  V30 3880 O 365.282 0.902335 1.5575 0
M  V30 3881 H 361.657 0.585349 0.472091 0
M  V30 3882 H 363.628 2.7614 1.13089 0
M  V30 3883 C 362.377 2.09341 2.77617 0
M  V30 3884 H 361.7 2.9559 2.69196 0
M  V30 3885 H 363.14 2.3452 3.53237 0
M  V30 3886 C 361.599 0.885939 3.25043 0
M  V30 3887 O 362.129 0.0967891 4.01583 0
M  V30 3888 N 360.335 0.696682 2.82125 0
M  V30 3889 H 359.882 1.34006 2.2 0
M  V30 3890 H 359.84 -0.109712 3.14209 0
M  V30 3891 N 363.613 -0.582584 1.46437 0
M  V30 3892 C 364.838 -1.37168 1.55563 0
M  V30 3893 C 365.263 -1.87061 0.19743 0
M  V30 3894 O 364.621 -1.61572 -0.822451 0
M  V30 3895 C 364.669 -2.53511 2.56446 0
M  V30 3896 O 363.773 -3.54953 2.09958 0
M  V30 3897 H 363.114 -0.408494 0.523477 0
M  V30 3898 H 365.644 -0.706646 1.9201 0
M  V30 3899 H 365.654 -3.00426 2.76058 0
M  V30 3900 H 364.329 -2.16549 3.55076 0
M  V30 3901 H 362.906 -3.14516 2.00334 0
M  V30 3902 N 365.091 -1.34144 -0.827227 0
M  V30 3903 C 366.502 -1.23557 -1.39966 0
M  V30 3904 C 366.853 0.140731 -1.95695 0
M  V30 3905 O 365.978 1.04087 -1.89723 0
M  V30 3906 C 366.573 -2.23708 -2.54441 0
M  V30 3907 C 365.132 -2.16924 -3.07605 0
M  V30 3908 C 364.279 -2.10549 -1.80456 0
M  V30 3909 H 367.23 -1.45573 -0.631991 0
M  V30 3910 H 367.251 -1.85157 -3.32411 0
M  V30 3911 H 366.763 -3.23866 -2.13851 0
M  V30 3912 H 364.864 -1.20107 -3.52711 0
M  V30 3913 H 364.977 -3.07988 -3.66988 0
M  V30 3914 H 363.341 -1.56203 -2.01178 0
M  V30 3915 H 364.124 -3.12535 -1.42046 0
M  V30 3916 N 366.569 1.04691 -1.17803 0
M  V30 3917 C 367.479 2.16057 -0.914151 0
M  V30 3918 C 368.495 1.73589 0.119503 0
M  V30 3919 O 369.671 2.01308 -0.0609468 0
M  V30 3920 C 366.736 3.4394 -0.436603 0
M  V30 3921 C 365.797 4.00825 -1.53746 0
M  V30 3922 C 365.03 5.22604 -1.0826 0
M  V30 3923 O 365.253 5.70367 0.0612244 0
M  V30 3924 O 364.187 5.7186 -1.87775 0
M  V30 3925 H 368.013 2.41169 -1.84584 0
M  V30 3926 H 365.598 1.1453 -0.959334 0
M  V30 3927 H 367.48 4.21024 -0.178057 0
M  V30 3928 H 366.155 3.20316 0.466869 0
M  V30 3929 H 365.062 3.25158 -1.84995 0
M  V30 3930 H 366.395 4.28778 -2.41683 0
M  V30 3931 N 368.047 0.979072 1.23499 0
M  V30 3932 C 368.977 0.537606 2.27227 0
M  V30 3933 C 369.958 -0.428539 1.64613 0
M  V30 3934 O 371.143 -0.322191 1.91509 0
M  V30 3935 C 368.273 -0.162052 3.46922 0
M  V30 3936 C 367.227 0.721242 4.21879 0
M  V30 3937 C 366.553 -0.110555 5.34586 0
M  V30 3938 C 367.853 2.01141 4.82016 0
M  V30 3939 H 369.547 1.40462 2.64406 0
M  V30 3940 H 367.093 0.67684 1.27102 0
M  V30 3941 H 369.046 -0.482192 4.18632 0
M  V30 3942 H 367.77 -1.06351 3.08799 0
M  V30 3943 H 366.429 1.02482 3.51984 0
M  V30 3944 H 366.077 -1.0125 4.92704 0
M  V30 3945 H 365.777 0.477325 5.85658 0
M  V30 3946 H 367.301 -0.425107 6.09118 0
M  V30 3947 H 368.715 1.75612 5.45741 0
M  V30 3948 H 367.112 2.54695 5.43369 0
M  V30 3949 H 368.182 2.69909 4.02836 0
M  V30 3950 N 369.525 -1.3858 0.750561 0
M  V30 3951 C 370.435 -2.34278 0.122825 0
M  V30 3952 C 371.451 -1.59116 -0.704131 0
M  V30 3953 O 372.627 -1.91326 -0.628987 0
M  V30 3954 C 369.692 -3.38221 -0.762086 0
M  V30 3955 C 368.753 -4.29227 0.078896 0
M  V30 3956 C 367.986 -5.28205 -0.763874 0
M  V30 3957 O 368.209 -5.34112 -2.00201 0
M  V30 3958 O 367.143 -6.01618 -0.18428 0
M  V30 3959 H 370.969 -2.89649 0.913088 0
M  V30 3960 H 368.554 -1.40374 0.511417 0
M  V30 3961 H 370.436 -4.01872 -1.26793 0
M  V30 3962 H 369.111 -2.85211 -1.5309 0
M  V30 3963 H 368.018 -3.68747 0.630621 0
M  V30 3964 H 369.351 -4.85484 0.810289 0
M  V30 3965 N 371.003 -0.499398 -1.49478 0
M  V30 3966 C 371.933 0.269244 -2.31943 0
M  V30 3967 C 372.914 0.964054 -1.40143 0
M  V30 3968 O 374.099 0.955767 -1.69052 0
M  V30 3969 C 371.229 1.33504 -3.20615 0
M  V30 3970 C 370.183 0.760202 -4.21195 0
M  V30 3971 C 369.509 1.9264 -4.98792 0
M  V30 3972 C 370.809 -0.247661 -5.21712 0
M  V30 3973 H 372.503 -0.419082 -2.96452 0
M  V30 3974 H 370.049 -0.202988 -1.42562 0
M  V30 3975 H 372.002 1.88048 -3.77115 0
M  V30 3976 H 370.726 2.05253 -2.54045 0
M  V30 3977 H 369.385 0.23653 -3.65836 0
M  V30 3978 H 369.033 2.63154 -4.28671 0
M  V30 3979 H 368.733 1.54785 -5.66847 0
M  V30 3980 H 370.257 2.4762 -5.58137 0
M  V30 3981 H 371.671 0.209579 -5.72917 0
M  V30 3982 H 370.068 -0.541962 -5.97648 0
M  V30 3983 H 371.138 -1.16409 -4.7072 0
M  V30 3984 N 372.481 1.55866 -0.233164 0
M  V30 3985 C 373.391 2.24431 0.683217 0
M  V30 3986 C 374.407 1.2558 1.2044 0
M  V30 3987 O 375.583 1.58422 1.24356 0
M  V30 3988 C 372.648 2.91979 1.86947 0
M  V30 3989 C 371.709 4.06204 1.38912 0
M  V30 3990 C 370.942 4.70522 2.51883 0
M  V30 3991 O 371.165 4.33865 3.70293 0
M  V30 3992 O 370.099 5.59296 2.22423 0
M  V30 3993 H 373.925 3.03426 0.129059 0
M  V30 3994 H 371.51 1.494 -0.0022283 0
M  V30 3995 H 373.392 3.34573 2.56201 0
M  V30 3996 H 372.067 2.15935 2.41151 0
M  V30 3997 H 370.974 3.68155 0.664259 0
M  V30 3998 H 372.307 4.84025 0.893328 0
M  V30 3999 N 373.959 -0.0401083 1.57549 0
M  V30 4000 C 374.869 -1.06133 2.0922 0
M  V30 4001 C 375.885 -1.40356 1.0284 0
M  V30 4002 O 377.061 -1.49897 1.34509 0
M  V30 4003 C 374.126 -2.34658 2.55218 0
M  V30 4004 C 373.187 -2.07117 3.76033 0
M  V30 4005 C 372.42 -3.29514 4.19829 0
M  V30 4006 O 372.643 -4.39794 3.63232 0
M  V30 4007 O 371.577 -3.15863 5.12362 0
M  V30 4008 H 375.403 -0.652244 2.96613 0
M  V30 4009 H 372.988 -0.256368 1.47184 0
M  V30 4010 H 374.87 -3.10239 2.85184 0
M  V30 4011 H 373.545 -2.74883 1.70941 0
M  V30 4012 H 372.452 -1.29139 3.51104 0
M  V30 4013 H 373.785 -1.71754 4.61261 0
M  V30 4014 N 375.437 -1.54477 -0.31217 0
M  V30 4015 C 376.367 -1.87652 -1.38957 0
M  V30 4016 C 377.348 -0.734358 -1.53431 0
M  V30 4017 O 378.533 -0.98911 -1.67123 0
M  V30 4018 C 375.663 -2.11396 -2.75552 0
M  V30 4019 C 374.617 -3.27243 -2.75855 0
M  V30 4020 C 373.943 -3.36382 -4.15633 0
M  V30 4021 C 375.243 -4.64622 -2.38587 0
M  V30 4022 H 376.937 -2.77887 -1.11442 0
M  V30 4023 H 374.483 -1.33707 -0.534655 0
M  V30 4024 H 376.436 -2.33189 -3.51 0
M  V30 4025 H 375.16 -1.17921 -3.04569 0
M  V30 4026 H 373.819 -3.05356 -2.02863 0
M  V30 4027 H 373.467 -2.40445 -4.41809 0
M  V30 4028 H 373.167 -4.14249 -4.1674 0
M  V30 4029 H 374.691 -3.60422 -4.92877 0
M  V30 4030 H 376.105 -4.86219 -3.03749 0
M  V30 4031 H 374.502 -5.45121 -2.50925 0
M  V30 4032 H 375.572 -4.66097 -1.33723 0
M  V30 4033 N 376.915 0.57481 -1.46744 0
M  V30 4034 C 377.863 1.70435 -1.58286 0
M  V30 4035 C 378.857 1.63287 -0.450956 0
M  V30 4036 O 380.063 1.68685 -0.628121 0
M  V30 4037 H 376.438 0.56364 -0.497809 0
M  V30 4038 H 378.409 1.57833 -2.53242 0
M  V30 4039 C 377.158 3.08815 -1.59776 0
M  V30 4040 H 376.481 3.1499 -2.46214 0
M  V30 4041 H 377.921 3.87588 -1.71905 0
M  V30 4042 C 376.38 3.35301 -0.327812 0
M  V30 4043 O 376.91 3.97511 0.57861 0
M  V30 4044 N 375.116 2.89816 -0.213274 0
M  V30 4045 H 374.663 2.39371 -0.951798 0
M  V30 4046 H 374.621 3.0791 0.63553 0
M  V30 4047 N 378.394 1.34581 0.820102 0
M  V30 4048 C 379.357 1.2628 1.91275 0
M  V30 4049 C 380.357 0.177344 1.59819 0
M  V30 4050 O 381.547 0.430156 1.68806 0
M  V30 4051 C 378.679 0.950327 3.27386 0
M  V30 4052 H 379.872 2.23421 2.00057 0
M  V30 4053 H 377.425 1.1891 1.0144 0
M  V30 4054 H 378.16 -0.0177938 3.24295 0
M  V30 4055 H 377.945 1.73549 3.51601 0
M  V30 4056 H 379.435 0.917492 4.07396 0
M  V30 4057 N 379.872 -1.04064 1.18357 0
M  V30 4058 C 380.819 -2.12077 0.910603 0
M  V30 4059 C 381.789 -1.65421 -0.15 0
M  V30 4060 O 382.974 -1.90797 -0.0103614 0
M  V30 4061 C 380.114 -3.42252 0.442472 0
M  V30 4062 C 379.227 -4.0252 1.5685 0
M  V30 4063 C 378.362 -5.20657 1.05309 0
M  V30 4064 C 377.401 -5.72955 2.1538 0
M  V30 4065 N 376.538 -6.8238 1.65233 0
M  V30 4066 H 381.378 -2.34764 1.83548 0
M  V30 4067 H 378.915 -1.15157 0.915279 0
M  V30 4068 H 380.873 -4.16921 0.152534 0
M  V30 4069 H 379.503 -3.19712 -0.445428 0
M  V30 4070 H 378.555 -3.25178 1.97391 0
M  V30 4071 H 379.867 -4.37362 2.39824 0
M  V30 4072 H 379.021 -6.0244 0.717677 0
M  V30 4073 H 377.76 -4.87318 0.19293 0
M  V30 4074 H 376.765 -4.89793 2.49766 0
M  V30 4075 H 377.99 -6.08337 3.01832 0
M  V30 4076 H 375.936 -6.50917 0.815064 0
M  V30 4077 H 375.853 -7.16286 2.41805 0
M  V30 4078 H 377.121 -7.67788 1.34619 0
M  V30 4079 N 381.35 -0.985608 -1.22978 0
M  V30 4080 C 382.575 -0.675254 -1.961 0
M  V30 4081 C 383 0.752154 -1.72407 0
M  V30 4082 O 382.358 1.5131 -0.998751 0
M  V30 4083 C 382.406 -0.977899 -3.47087 0
M  V30 4084 O 381.51 -0.072685 -4.12336 0
M  V30 4085 H 380.851 -0.253443 -0.613728 0
M  V30 4086 H 383.381 -1.32061 -1.56272 0
M  V30 4087 H 383.391 -0.916739 -3.97567 0
M  V30 4088 H 382.066 -2.01807 -3.63657 0
M  V30 4089 H 380.643 -0.188703 -3.72422 0
M  V30 4090 N 382.828 1.3818 -0.7579 0
M  V30 4091 C 384.239 1.82726 -0.383134 0
M  V30 4092 C 384.59 1.63214 1.08884 0
M  V30 4093 O 383.715 1.13566 1.84205 0
M  V30 4094 C 384.31 3.31728 -0.688631 0
M  V30 4095 C 382.869 3.74606 -0.367091 0
M  V30 4096 C 382.016 2.60896 -0.939599 0
M  V30 4097 H 384.967 1.26847 -0.953699 0
M  V30 4098 H 384.988 3.80487 0.0316492 0
M  V30 4099 H 384.5 3.45898 -1.76001 0
M  V30 4100 H 382.601 3.66013 0.697532 0
M  V30 4101 H 382.714 4.71215 -0.865658 0
M  V30 4102 H 381.078 2.52075 -0.3647 0
M  V30 4103 H 381.861 2.77864 -2.0161 0
M  V30 4104 N 384.306 0.507319 1.49211 0
M  V30 4105 C 385.554 -0.0348839 2.0207 0
M  V30 4106 C 385.875 -1.36898 1.38866 0
M  V30 4107 O 385.145 -1.88133 0.546151 0
M  V30 4108 H 383.725 -0.0158812 0.746831 0
M  V30 4109 H 386.387 0.665998 1.83168 0
M  V30 4110 H 385.483 -0.159917 3.1169 0
M  V30 4111 N 385.784 -1.5574 0.241426 0
M  V30 4112 C 386.716 -2.18469 -0.693091 0
M  V30 4113 C 387.729 -1.15942 -1.14286 0
M  V30 4114 O 388.918 -1.42832 -1.07058 0
M  V30 4115 C 386.018 -2.7696 -1.95311 0
M  V30 4116 C 385.191 -4.04853 -1.65568 0
M  V30 4117 C 384.25 -4.47715 -2.76474 0
M  V30 4118 O 383.276 -5.14205 -2.44094 0
M  V30 4119 N 384.478 -4.15044 -4.05855 0
M  V30 4120 H 387.243 -2.99292 -0.156388 0
M  V30 4121 H 384.804 -1.61784 0.0611752 0
M  V30 4122 H 386.796 -3.02594 -2.68736 0
M  V30 4123 H 385.366 -2.00326 -2.39975 0
M  V30 4124 H 384.586 -3.86865 -0.756886 0
M  V30 4125 H 385.874 -4.88246 -1.43153 0
M  V30 4126 H 385.272 -3.61654 -4.34998 0
M  V30 4127 H 383.829 -4.45526 -4.75762 0
M  V30 4128 N 387.262 0.0317525 -1.57568 0
M  V30 4129 C 388.673 0.578692 -1.77505 0
M  V30 4130 C 389.024 1.75749 -0.872164 0
M  V30 4131 O 388.149 2.16298 -0.0663106 0
M  V30 4132 C 388.744 1.05658 -3.21904 0
M  V30 4133 C 387.303 1.54906 -3.43047 0
M  V30 4134 C 386.45 0.485939 -2.73009 0
M  V30 4135 H 389.401 -0.194475 -1.57504 0
M  V30 4136 H 389.422 1.92404 -3.28269 0
M  V30 4137 H 388.934 0.198422 -3.87592 0
M  V30 4138 H 387.035 2.42915 -2.82529 0
M  V30 4139 H 387.148 1.59841 -4.5165 0
M  V30 4140 H 385.512 0.940354 -2.36705 0
M  V30 4141 H 386.295 -0.362709 -3.41379 0
M  V30 4142 N 388.74 1.54641 0.303973 0
M  V30 4143 C 389.989 1.7299 1.03717 0
M  V30 4144 C 390.302 0.521168 1.88529 0
M  V30 4145 O 391.508 0.586408 2.65092 0
M  V30 4146 C 389.964 3.06051 1.89369 0
M  V30 4147 C 389.572 4.34393 1.09574 0
M  V30 4148 C 391.316 3.3376 2.62306 0
M  V30 4149 C 389.223 5.58506 1.94486 0
M  V30 4150 H 388.153 0.64473 0.390947 0
M  V30 4151 H 390.804 1.81124 0.294328 0
M  V30 4152 H 389.186 2.91874 2.67629 0
M  V30 4153 H 390.36 4.59396 0.359485 0
M  V30 4154 H 388.675 4.13597 0.482324 0
M  V30 4155 H 391.272 4.23687 3.26181 0
M  V30 4156 H 391.615 2.52503 3.3098 0
M  V30 4157 H 392.148 3.48894 1.91097 0
M  V30 4158 H 388.887 6.42422 1.30287 0
M  V30 4159 H 388.407 5.37694 2.65792 0
M  V30 4160 H 390.086 5.95651 2.52605 0
M  V30 4161 N 390.218 -0.567019 1.47046 0
M  V30 4162 C 391.15 -1.68985 1.54844 0
M  V30 4163 C 392.163 -1.56869 0.435431 0
M  V30 4164 O 393.352 -1.64006 0.70457 0
M  V30 4165 C 390.452 -3.07373 1.42742 0
M  V30 4166 C 389.625 -3.45339 2.6844 0
M  V30 4167 C 388.684 -4.62849 2.50314 0
M  V30 4168 O 387.71 -4.67922 3.24095 0
M  V30 4169 N 388.912 -5.58726 1.57499 0
M  V30 4170 H 391.677 -1.62745 2.51663 0
M  V30 4171 H 389.238 -0.753411 1.43302 0
M  V30 4172 H 391.23 -3.83803 1.28365 0
M  V30 4173 H 389.8 -3.07893 0.540445 0
M  V30 4174 H 389.02 -2.58455 2.97648 0
M  V30 4175 H 390.308 -3.67476 3.51907 0
M  V30 4176 H 389.706 -5.57376 0.966876 0
M  V30 4177 H 388.263 -6.34523 1.49078 0
M  V30 4178 N 391.696 -1.35014 -0.812953 0
M  V30 4179 C 392.942 -1.2812 -1.57204 0
M  V30 4180 C 393.275 0.145869 -1.93651 0
M  V30 4181 O 392.55 1.0937 -1.60836 0
M  V30 4182 C 392.833 -2.18162 -2.86492 0
M  V30 4183 C 392.686 -3.69454 -2.56561 0
M  V30 4184 C 394.005 -2.07439 -3.88145 0
M  V30 4185 H 391.124 -0.466746 -0.570366 0
M  V30 4186 H 393.766 -1.65357 -0.935783 0
M  V30 4187 H 391.916 -1.86535 -3.40789 0
M  V30 4188 H 393.588 -4.11493 -2.08497 0
M  V30 4189 H 391.831 -3.9005 -1.89851 0
M  V30 4190 H 392.502 -4.27835 -3.48799 0
M  V30 4191 H 394.978 -2.35228 -3.4323 0
M  V30 4192 H 393.854 -2.7265 -4.76396 0
M  V30 4193 H 394.115 -1.05439 -4.29343 0
M  V30 4194 N 393.175 1.03435 -1.18907 0
M  V30 4195 C 394.421 1.77005 -0.989798 0
M  V30 4196 C 394.754 1.88205 0.478816 0
M  V30 4197 O 394.029 1.39481 1.35556 0
M  V30 4198 C 394.312 3.19925 -1.65287 0
M  V30 4199 C 394.165 3.1663 -3.19477 0
M  V30 4200 C 395.484 4.18189 -1.37134 0
M  V30 4201 H 392.603 0.642538 -0.360991 0
M  V30 4202 H 395.245 1.20784 -1.46667 0
M  V30 4203 H 393.395 3.67929 -1.24741 0
M  V30 4204 H 395.067 2.76567 -3.692 0
M  V30 4205 H 393.31 2.54491 -3.51307 0
M  V30 4206 H 393.981 4.1758 -3.61013 0
M  V30 4207 H 396.457 3.78761 -1.72276 0
M  V30 4208 H 395.333 5.16394 -1.86087 0
M  V30 4209 H 395.594 4.41112 -0.295424 0
M  V30 4210 N 394.653 0.992116 1.22453 0
M  V30 4211 C 395.883 0.684949 1.94915 0
M  V30 4212 C 396.291 -0.754292 1.73514 0
M  V30 4213 O 395.634 -1.52056 1.03076 0
M  V30 4214 C 395.696 0.910054 3.47791 0
M  V30 4215 C 395.36 2.33363 3.92926 0
M  V30 4216 C 396.357 3.31308 4.00663 0
M  V30 4217 C 394.042 2.66785 4.25595 0
M  V30 4218 C 396.036 4.6075 4.40441 0
M  V30 4219 C 393.723 3.96446 4.65053 0
M  V30 4220 C 394.721 4.9324 4.72444 0
M  V30 4221 O 394.409 6.20584 5.1101 0
M  V30 4222 H 394.141 0.25258 0.62704 0
M  V30 4223 H 396.695 1.32939 1.56577 0
M  V30 4224 H 394.925 0.208443 3.86138 0
M  V30 4225 H 396.614 0.598257 4.01467 0
M  V30 4226 H 397.38 3.0682 3.75615 0
M  V30 4227 H 393.259 1.92148 4.19047 0
M  V30 4228 H 396.803 5.363 4.46126 0
M  V30 4229 H 392.7 4.20724 4.89552 0
M  V30 4230 H 393.468 6.24509 5.29085 0
M  V30 4231 N 396.131 -1.37776 0.765217 0
M  V30 4232 C 397.377 -2.00145 0.327072 0
M  V30 4233 C 397.71 -1.60607 -1.09175 0
M  V30 4234 O 396.985 -0.849127 -1.74986 0
M  V30 4235 C 397.268 -3.57109 0.46319 0
M  V30 4236 C 397.121 -4.06576 1.92395 0
M  V30 4237 C 398.44 -4.39888 -0.136473 0
M  V30 4238 H 395.559 -0.727113 0.120316 0
M  V30 4239 H 398.201 -1.63549 0.967039 0
M  V30 4240 H 396.351 -3.88414 -0.0816358 0
M  V30 4241 H 398.023 -3.85864 2.52798 0
M  V30 4242 H 396.266 -3.59011 2.43503 0
M  V30 4243 H 396.937 -5.15639 1.97028 0
M  V30 4244 H 399.413 -4.14803 0.328317 0
M  V30 4245 H 398.289 -5.48899 -0.0110582 0
M  V30 4246 H 398.55 -4.24758 -1.22608 0
M  V30 4247 N 397.609 -0.515225 -1.4894 0
M  V30 4248 C 399.02 -0.0710067 -1.86565 0
M  V30 4249 C 399.371 1.34733 -1.42623 0
M  V30 4250 O 398.496 2.00653 -0.810379 0
M  V30 4251 C 399.091 -0.122083 -3.3858 0
M  V30 4252 C 397.65 0.266863 -3.75453 0
M  V30 4253 C 396.797 -0.488376 -2.72966 0
M  V30 4254 H 399.748 -0.727266 -1.41055 0
M  V30 4255 H 399.769 0.669818 -3.74558 0
M  V30 4256 H 399.281 -1.15448 -3.70531 0
M  V30 4257 H 397.382 1.30196 -3.49113 0
M  V30 4258 H 397.495 -0.0624811 -4.79059 0
M  V30 4259 H 395.859 0.0635622 -2.54621 0
M  V30 4260 H 396.642 -1.52113 -3.07761 0
M  V30 4261 N 399.087 1.5561 -0.249682 0
M  V30 4262 C 400.312 2.03865 0.381305 0
M  V30 4263 C 400.737 1.12769 1.50548 0
M  V30 4264 O 400.095 0.121189 1.80895 0
M  V30 4265 C 400.143 3.50101 0.863816 0
M  V30 4266 O 399.247 3.62132 1.97318 0
M  V30 4267 H 398.588 0.658827 0.0827194 0
M  V30 4268 H 401.118 2.01105 -0.376552 0
M  V30 4269 H 401.128 3.90975 1.1663 0
M  V30 4270 H 399.803 4.1588 0.0411816 0
M  V30 4271 H 398.38 3.33155 1.67517 0
M  V30 4272 N 400.565 -0.0233959 1.57583 0
M  V30 4273 C 401.515 -1.03023 2.03397 0
M  V30 4274 C 402.499 -1.31701 0.924315 0
M  V30 4275 O 403.691 -1.31191 1.18819 0
M  V30 4276 C 400.82 -2.32961 2.52159 0
M  V30 4277 C 399.906 -2.07349 3.69956 0
M  V30 4278 N 400.297 -1.51814 4.82479 0
M  V30 4279 C 398.595 -2.37606 3.77438 0
M  V30 4280 C 399.296 -1.42136 5.64068 0
M  V30 4281 N 398.272 -1.89891 5.09355 0
M  V30 4282 H 402.074 -0.594962 2.87815 0
M  V30 4283 H 399.588 -0.229586 1.60769 0
M  V30 4284 H 401.585 -3.05906 2.83244 0
M  V30 4285 H 400.245 -2.77162 1.69149 0
M  V30 4286 H 401.256 -1.20008 5.03804 0
M  V30 4287 H 397.933 -2.84842 3.05239 0
M  V30 4288 H 399.323 -0.996405 6.64471 0
M  V30 4289 N 402.043 -1.548 -0.295768 0
M  V30 4290 C 402.973 -1.89115 -1.36959 0
M  V30 4291 C 403.954 -0.75059 -1.52644 0
M  V30 4292 O 405.139 -1.00678 -1.66065 0
M  V30 4293 C 402.269 -2.14307 -2.73295 0
M  V30 4294 C 401.223 -3.30151 -2.72368 0
M  V30 4295 C 400.549 -3.40772 -4.12042 0
M  V30 4296 C 401.849 -4.67126 -2.33646 0
M  V30 4297 H 403.543 -2.79053 -1.08488 0
M  V30 4298 H 401.089 -1.34266 -0.520443 0
M  V30 4299 H 403.042 -2.36898 -3.48507 0
M  V30 4300 H 401.766 -1.21145 -3.03301 0
M  V30 4301 H 400.425 -3.0749 -1.99613 0
M  V30 4302 H 400.073 -2.45117 -4.39234 0
M  V30 4303 H 399.773 -4.18645 -4.12322 0
M  V30 4304 H 401.297 -3.6563 -4.89027 0
M  V30 4305 H 402.711 -4.89414 -2.98575 0
M  V30 4306 H 401.108 -5.47751 -2.45129 0
M  V30 4307 H 402.178 -4.67489 -1.28772 0
M  V30 4308 N 403.521 0.559213 -1.47345 0
M  V30 4309 C 404.751 1.33999 -1.57251 0
M  V30 4310 C 405.159 1.87905 -0.220978 0
M  V30 4311 O 404.502 1.65577 0.795617 0
M  V30 4312 C 404.564 2.54798 -2.53611 0
M  V30 4313 C 404.228 2.22192 -3.99349 0
M  V30 4314 C 405.225 1.79607 -4.87891 0
M  V30 4315 C 402.91 2.33613 -4.44669 0
M  V30 4316 C 404.904 1.48868 -6.19772 0
M  V30 4317 C 402.591 2.02487 -5.76578 0
M  V30 4318 C 403.589 1.60183 -6.63951 0
M  V30 4319 O 403.277 1.29451 -7.93409 0
M  V30 4320 H 403.009 0.414858 -0.533731 0
M  V30 4321 H 405.563 0.684465 -1.9366 0
M  V30 4322 H 403.793 3.23235 -2.12265 0
M  V30 4323 H 405.482 3.16873 -2.53666 0
M  V30 4324 H 406.248 1.70278 -4.54126 0
M  V30 4325 H 402.127 2.65501 -3.76869 0
M  V30 4326 H 405.671 1.15775 -6.87926 0
M  V30 4327 H 401.568 2.11448 -6.09885 0
M  V30 4328 H 402.336 1.43098 -8.05894 0
M  V30 4329 N 404.999 1.35443 0.805782 0
M  V30 4330 C 405.949 1.24972 1.90699 0
M  V30 4331 C 406.933 0.144806 1.60247 0
M  V30 4332 O 408.125 0.376102 1.72958 0
M  V30 4333 C 405.254 1.02475 3.27649 0
M  V30 4334 C 404.34 2.17361 3.64164 0
M  V30 4335 N 404.731 3.42591 3.72109 0
M  V30 4336 C 403.029 2.08765 3.94123 0
M  V30 4337 C 403.73 4.18144 4.04389 0
M  V30 4338 N 402.706 3.4691 4.18515 0
M  V30 4339 H 406.508 2.19852 1.95044 0
M  V30 4340 H 404.022 1.27928 1.00041 0
M  V30 4341 H 406.019 0.930617 4.06381 0
M  V30 4342 H 404.679 0.0848009 3.24589 0
M  V30 4343 H 405.69 3.76932 3.55166 0
M  V30 4344 H 402.367 1.22629 3.99084 0
M  V30 4345 H 403.757 5.26367 4.17597 0
M  V30 4346 N 406.477 -1.02803 1.19454 0
M  V30 4347 C 407.41 -2.107 0.876396 0
M  V30 4348 C 408.388 -1.61741 -0.166897 0
M  V30 4349 O 409.572 -1.88451 -0.0430195 0
M  V30 4350 C 406.699 -3.37262 0.311758 0
M  V30 4351 C 405.745 -4.05093 1.33424 0
M  V30 4352 S 406.578 -4.50498 2.89503 0
M  V30 4353 C 407.734 -5.80277 2.34584 0
M  V30 4354 H 407.967 -2.37362 1.79016 0
M  V30 4355 H 405.5 -1.15755 1.02177 0
M  V30 4356 H 407.458 -4.10499 -0.00748752 0
M  V30 4357 H 406.119 -3.08693 -0.58032 0
M  V30 4358 H 405.312 -4.9611 0.888302 0
M  V30 4359 H 404.914 -3.3803 1.60037 0
M  V30 4360 H 407.206 -6.54873 1.73633 0
M  V30 4361 H 408.149 -6.29651 3.23952 0
M  V30 4362 H 408.557 -5.3599 1.77131 0
M  V30 4363 N 407.956 -0.998596 -1.21925 0
M  V30 4364 C 409.202 -0.678667 -1.91107 0
M  V30 4365 C 409.535 0.78791 -1.77498 0
M  V30 4366 O 408.81 1.57043 -1.1475 0
M  V30 4367 C 409.093 -1.09245 -3.43129 0
M  V30 4368 C 408.946 -2.61801 -3.6576 0
M  V30 4369 C 410.265 -0.649984 -4.35274 0
M  V30 4370 H 407.384 -0.248025 -0.694012 0
M  V30 4371 H 410.026 -1.24314 -1.43688 0
M  V30 4372 H 408.176 -0.612171 -3.83647 0
M  V30 4373 H 409.848 -3.17543 -3.34611 0
M  V30 4374 H 408.091 -3.03609 -3.09845 0
M  V30 4375 H 408.762 -2.85804 -4.7225 0
M  V30 4376 H 411.238 -1.0626 -4.02303 0
M  V30 4377 H 410.114 -0.967743 -5.40302 0
M  V30 4378 H 410.375 0.449139 -4.39813 0
M  V30 4379 N 409.434 1.37368 -0.772513 0
M  V30 4380 C 410.681 1.99673 -0.337182 0
M  V30 4381 C 411.009 1.61324 1.0865 0
M  V30 4382 O 410.264 0.851377 1.7621 0
M  V30 4383 C 410.563 3.54817 -0.428876 0
M  V30 4384 C 410.229 4.12936 -1.81092 0
M  V30 4385 C 408.891 4.28523 -2.1891 0
M  V30 4386 C 411.243 4.44801 -2.71664 0
M  V30 4387 C 408.571 4.73277 -3.46735 0
M  V30 4388 C 410.923 4.90981 -3.98899 0
M  V30 4389 C 409.587 5.04773 -4.36761 0
M  V30 4390 H 408.857 0.730656 -0.123384 0
M  V30 4391 H 411.504 1.64124 -0.986686 0
M  V30 4392 H 409.809 3.90618 0.304167 0
M  V30 4393 H 411.506 4.00933 -0.0733334 0
M  V30 4394 H 408.096 4.01233 -1.50699 0
M  V30 4395 H 412.28 4.32344 -2.43706 0
M  V30 4396 H 407.536 4.82142 -3.75964 0
M  V30 4397 H 411.71 5.14603 -4.69208 0
M  V30 4398 H 409.337 5.39211 -5.35868 0
M  V30 4399 N 410.912 0.523116 1.48665 0
M  V30 4400 C 411.822 -0.247406 2.33292 0
M  V30 4401 C 412.838 -0.945769 1.46052 0
M  V30 4402 O 414.014 -0.922253 1.79043 0
M  V30 4403 C 411.079 -1.28487 3.22012 0
M  V30 4404 C 410.14 -0.597592 4.2512 0
M  V30 4405 C 409.373 -1.58563 5.09601 0
M  V30 4406 O 409.596 -2.81763 4.95949 0
M  V30 4407 O 408.53 -1.12879 5.91221 0
M  V30 4408 H 412.356 0.445869 3.00409 0
M  V30 4409 H 409.941 0.284128 1.46673 0
M  V30 4410 H 411.823 -1.88459 3.7691 0
M  V30 4411 H 410.498 -1.96068 2.57564 0
M  V30 4412 H 409.405 0.0424407 3.74076 0
M  V30 4413 H 410.738 0.0361517 4.92187 0
M  V30 4414 N 412.39 -1.55475 0.257931 0
M  V30 4415 C 413.32 -2.24815 -0.630912 0
M  V30 4416 C 414.301 -1.23224 -1.17259 0
M  V30 4417 O 415.486 -1.51904 -1.20991 0
M  V30 4418 C 412.616 -2.95609 -1.82298 0
M  V30 4419 C 411.57 -4.03982 -1.41359 0
M  V30 4420 C 410.896 -4.6226 -2.68738 0
M  V30 4421 C 412.196 -5.19109 -0.57648 0
M  V30 4422 H 413.89 -2.99354 -0.0526878 0
M  V30 4423 H 411.436 -1.4398 -0.023901 0
M  V30 4424 H 413.389 -3.42822 -2.45054 0
M  V30 4425 H 412.113 -2.18577 -2.42676 0
M  V30 4426 H 410.772 -3.57555 -0.809324 0
M  V30 4427 H 410.42 -3.81915 -3.27338 0
M  V30 4428 H 410.12 -5.35424 -2.42065 0
M  V30 4429 H 411.644 -5.12212 -3.32372 0
M  V30 4430 H 413.058 -5.62479 -1.10861 0
M  V30 4431 H 411.455 -5.98729 -0.405351 0
M  V30 4432 H 412.525 -4.83174 0.408776 0
M  V30 4433 N 413.868 0.0150385 -1.57593 0
M  V30 4434 C 415.115 0.703001 -1.89906 0
M  V30 4435 C 415.443 1.74604 -0.856944 0
M  V30 4436 O 414.698 1.95197 0.140287 0
M  V30 4437 C 414.997 1.39686 -3.28972 0
M  V30 4438 C 414.663 0.488457 -4.48246 0
M  V30 4439 C 413.325 0.2383 -4.8061 0
M  V30 4440 C 415.677 -0.137881 -5.21018 0
M  V30 4441 C 413.005 -0.646738 -5.83125 0
M  V30 4442 C 415.357 -1.0107 -6.24474 0
M  V30 4443 C 414.021 -1.27019 -6.55303 0
M  V30 4444 H 413.291 0.257246 -0.694914 0
M  V30 4445 H 415.938 -0.037259 -1.91464 0
M  V30 4446 H 414.243 2.21079 -3.23468 0
M  V30 4447 H 415.94 1.93495 -3.51227 0
M  V30 4448 H 412.53 0.693593 -4.22951 0
M  V30 4449 H 416.714 0.0423953 -4.96282 0
M  V30 4450 H 411.97 -0.855937 -6.05379 0
M  V30 4451 H 416.144 -1.50247 -6.79999 0
M  V30 4452 H 413.771 -1.95769 -7.3456 0
M  V30 4453 N 415.346 1.54954 0.287554 0
M  V30 4454 C 416.293 1.86834 1.35505 0
M  V30 4455 C 417.263 0.718452 1.49758 0
M  V30 4456 O 418.448 0.968358 1.644 0
M  V30 4457 C 415.588 2.13303 2.71286 0
M  V30 4458 C 414.701 3.40883 2.65373 0
M  V30 4459 C 413.836 3.57125 3.93236 0
M  V30 4460 C 412.875 4.78449 3.81776 0
M  V30 4461 N 412.012 4.91426 5.01443 0
M  V30 4462 H 416.852 2.77889 1.07619 0
M  V30 4463 H 414.389 1.37593 0.520241 0
M  V30 4464 H 416.347 2.26646 3.50267 0
M  V30 4465 H 414.977 1.25499 2.97405 0
M  V30 4466 H 414.029 3.36088 1.78182 0
M  V30 4467 H 415.341 4.29993 2.52799 0
M  V30 4468 H 414.495 3.70207 4.80658 0
M  V30 4469 H 413.234 2.66173 4.0866 0
M  V30 4470 H 412.239 4.65386 2.92738 0
M  V30 4471 H 413.464 5.70822 3.67884 0
M  V30 4472 H 411.41 4.03401 5.17304 0
M  V30 4473 H 411.327 5.74559 4.91343 0
M  V30 4474 H 412.595 5.08879 5.90477 0
M  V30 4475 N 416.824 -0.551391 1.4764 0
M  V30 4476 C 417.772 -1.67896 1.60978 0
M  V30 4477 C 418.766 -1.62549 0.476877 0
M  V30 4478 O 419.972 -1.67664 0.654878 0
M  V30 4479 H 416.347 -0.555649 0.506713 0
M  V30 4480 H 418.318 -1.53784 2.55721 0
M  V30 4481 C 417.067 -3.06234 1.64669 0
M  V30 4482 H 416.39 -3.11033 2.51194 0
M  V30 4483 H 417.83 -3.84804 1.7805 0
M  V30 4484 C 416.289 -3.34737 0.381115 0
M  V30 4485 O 416.819 -3.98381 -0.515297 0
M  V30 4486 N 415.025 -2.8944 0.259354 0
M  V30 4487 H 414.572 -2.37827 0.98976 0
M  V30 4488 H 414.53 -3.08882 -0.586464 0
M  V30 4489 N 418.302 -1.35869 -0.798587 0
M  V30 4490 C 419.265 -1.29307 -1.89242 0
M  V30 4491 C 420.265 -0.202747 -1.59517 0
M  V30 4492 O 421.455 -0.456957 -1.681 0
M  V30 4493 C 418.587 -1.00229 -3.25833 0
M  V30 4494 H 419.78 -2.26576 -1.96478 0
M  V30 4495 H 417.333 -1.20509 -0.995358 0
M  V30 4496 H 418.068 -0.033801 -3.24282 0
M  V30 4497 H 417.853 -1.79121 -3.48795 0
M  V30 4498 H 419.343 -0.98219 -4.05885 0
M  V30 4499 N 419.78 1.02168 -1.19998 0
M  V30 4500 C 420.713 2.10232 -0.887558 0
M  V30 4501 C 421.691 1.61827 0.158317 0
M  V30 4502 O 422.875 1.88471 0.0330249 0
M  V30 4503 C 420.002 3.37092 -0.32964 0
M  V30 4504 C 419.048 4.0438 -1.3557 0
M  V30 4505 S 419.881 4.48956 -2.91888 0
M  V30 4506 C 421.037 5.79024 -2.37658 0
M  V30 4507 H 421.27 2.36409 -1.80272 0
M  V30 4508 H 418.803 1.15211 -1.0279 0
M  V30 4509 H 420.761 4.10498 -0.0142824 0
M  V30 4510 H 419.422 3.08996 0.563941 0
M  V30 4511 H 418.615 4.95632 -0.9146 0
M  V30 4512 H 418.217 3.37176 -1.61828 0
M  V30 4513 H 420.509 6.53942 -1.77103 0
M  V30 4514 H 421.452 6.27924 -3.27287 0
M  V30 4515 H 421.86 5.35043 -1.79971 0
M  V30 4516 N 421.258 1.00505 1.21394 0
M  V30 4517 C 422.674 0.717873 1.42544 0
M  V30 4518 C 422.874 -0.706936 1.88692 0
M  V30 4519 O 421.93 -1.47627 2.04847 0
M  V30 4520 C 423.243 1.73377 2.45684 0
M  V30 4521 C 424.791 1.75059 2.59467 0
M  V30 4522 C 425.266 2.75545 3.6584 0
M  V30 4523 N 426.757 2.74213 3.73311 0
M  V30 4524 C 427.492 3.48626 4.55245 0
M  V30 4525 N 426.988 4.32678 5.41075 0
M  V30 4526 N 428.781 3.37276 4.49668 0
M  V30 4527 H 420.932 1.92506 0.897503 0
M  V30 4528 H 423.195 0.830919 0.456375 0
M  V30 4529 H 422.901 2.75395 2.18748 0
M  V30 4530 H 422.775 1.53647 3.44489 0
M  V30 4531 H 425.162 0.737337 2.8574 0
M  V30 4532 H 425.243 1.98861 1.60897 0
M  V30 4533 H 424.887 3.77028 3.40313 0
M  V30 4534 H 424.817 2.49009 4.64007 0
M  V30 4535 H 427.308 2.13234 3.11993 0
M  V30 4536 H 427.621 4.86253 6.00648 0
M  V30 4537 H 425.966 4.3676 5.40616 0
M  V30 4538 H 429.157 2.71043 3.81646 0
M  V30 4539 H 429.33 3.95524 5.13288 0
M  V30 4540 N 422.737 -1.36956 0.779787 0
M  V30 4541 C 423.7 -2.2851 0.177662 0
M  V30 4542 C 424.7 -1.48393 -0.619377 0
M  V30 4543 O 425.89 -1.68505 -0.441785 0
M  V30 4544 C 423.022 -3.32428 -0.755279 0
M  V30 4545 H 424.215 -2.83269 0.984823 0
M  V30 4546 H 421.768 -1.46358 0.548544 0
M  V30 4547 H 422.503 -2.82808 -1.58714 0
M  V30 4548 H 422.288 -3.91659 -0.185817 0
M  V30 4549 H 423.778 -4.00824 -1.17174 0
M  V30 4550 N 424.215 -0.530993 -1.48385 0
M  V30 4551 C 425.443 -0.00134122 -2.069 0
M  V30 4552 C 425.858 1.2805 -1.3874 0
M  V30 4553 O 425.215 1.76204 -0.475244 0
M  V30 4554 C 425.266 0.225256 -3.60798 0
M  V30 4555 O 424.987 -1.0058 -4.26398 0
M  V30 4556 C 426.488 0.795172 -4.3611 0
M  V30 4557 H 423.708 -0.0339704 -0.67014 0
M  V30 4558 H 426.252 -0.736926 -1.90761 0
M  V30 4559 H 424.407 0.910891 -3.76539 0
M  V30 4560 H 424.821 -0.787165 -5.1856 0
M  V30 4561 H 426.295 0.903143 -5.44562 0
M  V30 4562 H 426.772 1.80031 -4.00606 0
M  V30 4563 H 427.378 0.146069 -4.25049 0
M  V30 4564 N 425.693 1.55336 -0.266172 0
M  V30 4565 C 426.626 2.18256 0.666296 0
M  V30 4566 C 427.604 1.14064 1.1588 0
M  V30 4567 O 428.788 1.42546 1.23341 0
M  V30 4568 C 425.915 2.79867 1.90768 0
M  V30 4569 C 424.961 3.97283 1.55141 0
M  V30 4570 S 425.794 5.31694 0.637313 0
M  V30 4571 C 426.95 5.96769 1.88727 0
M  V30 4572 H 427.183 2.97008 0.131647 0
M  V30 4573 H 424.716 1.54317 -0.0504869 0
M  V30 4574 H 426.674 3.15996 2.62025 0
M  V30 4575 H 425.335 2.01025 2.41346 0
M  V30 4576 H 424.528 4.3905 2.4749 0
M  V30 4577 H 424.13 3.6253 0.919113 0
M  V30 4578 H 426.422 6.15458 2.83227 0
M  V30 4579 H 427.365 6.91752 1.51276 0
M  V30 4580 H 427.773 5.26034 2.04814 0
M  V30 4581 N 427.171 -0.0066808 1.57599 0
M  V30 4582 C 428.081 -1.01671 2.11424 0
M  V30 4583 C 429.097 -1.38143 1.05795 0
M  V30 4584 O 430.273 -1.47011 1.37658 0
M  V30 4585 C 427.338 -2.29192 2.60139 0
M  V30 4586 C 426.399 -1.99094 3.80342 0
M  V30 4587 C 425.632 -3.20535 4.26724 0
M  V30 4588 O 425.855 -4.3199 3.72479 0
M  V30 4589 O 424.789 -3.04924 5.18946 0
M  V30 4590 H 428.615 -0.589181 2.9793 0
M  V30 4591 H 426.2 -0.225091 1.47695 0
M  V30 4592 H 428.082 -3.0412 2.917 0
M  V30 4593 H 426.757 -2.71195 1.76733 0
M  V30 4594 H 425.664 -1.21663 3.53764 0
M  V30 4595 H 426.997 -1.61931 4.648 0
M  V30 4596 N 428.649 -1.55105 -0.279332 0
M  V30 4597 C 429.599 -1.83937 -1.34727 0
M  V30 4598 C 430.583 -0.69785 -1.44979 0
M  V30 4599 O 431.775 -0.95904 -1.48766 0
M  V30 4600 C 428.904 -2.1092 -2.70864 0
M  V30 4601 C 427.99 -3.31314 -2.64748 0
M  V30 4602 N 428.381 -4.51371 -2.2825 0
M  V30 4603 C 426.679 -3.33777 -2.95819 0
M  V30 4604 C 427.38 -5.33447 -2.31969 0
M  V30 4605 N 426.356 -4.71697 -2.7019 0
M  V30 4606 H 430.158 -2.74309 -1.05506 0
M  V30 4607 H 427.672 -1.54896 -0.487959 0
M  V30 4608 H 429.669 -2.2973 -3.47893 0
M  V30 4609 H 428.329 -1.21828 -3.00979 0
M  V30 4610 H 429.34 -4.77584 -2.00335 0
M  V30 4611 H 426.017 -2.54858 -3.30687 0
M  V30 4612 H 427.407 -6.39424 -2.06365 0
M  V30 4613 N 430.127 0.543554 -1.4793 0
M  V30 4614 C 431.077 1.64527 -1.57844 0
M  V30 4615 C 432.061 1.54869 -0.436408 0
M  V30 4616 O 433.253 1.63119 -0.687101 0
M  V30 4617 C 430.382 3.03281 -1.6086 0
M  V30 4618 C 429.468 3.18093 -2.80495 0
M  V30 4619 N 429.859 3.02923 -4.05057 0
M  V30 4620 C 428.157 3.49121 -2.77543 0
M  V30 4621 C 428.858 3.20791 -4.85251 0
M  V30 4622 N 427.834 3.47749 -4.17818 0
M  V30 4623 H 431.636 1.51388 -2.5191 0
M  V30 4624 H 429.15 0.748671 -1.44113 0
M  V30 4625 H 431.147 3.82403 -1.66054 0
M  V30 4626 H 429.807 3.17521 -0.678996 0
M  V30 4627 H 430.818 2.79966 -4.35705 0
M  V30 4628 H 427.495 3.69804 -1.93781 0
M  V30 4629 H 428.885 3.13915 -5.9406 0
M  V30 4630 N 431.605 1.3629 0.791371 0
M  V30 4631 C 432.568 1.30309 1.88553 0
M  V30 4632 C 433.568 0.211204 1.59407 0
M  V30 4633 O 434.758 0.465865 1.67855 0
M  V30 4634 C 431.89 1.01956 3.25297 0
M  V30 4635 H 433.083 2.27614 1.95273 0
M  V30 4636 H 430.636 1.21035 0.988953 0
M  V30 4637 H 431.371 0.050998 3.2426 0
M  V30 4638 H 431.156 1.80968 3.4784 0
M  V30 4639 H 432.646 1.0037 4.05359 0
M  V30 4640 N 433.083 -1.0153 1.20538 0
M  V30 4641 C 434.031 -2.12215 0.952235 0
M  V30 4642 C 435.025 -1.69123 -0.0968735 0
M  V30 4643 O 436.231 -1.7992 0.0536006 0
M  V30 4644 H 432.606 -0.693576 0.290613 0
M  V30 4645 H 434.577 -2.3075 1.89201 0
M  V30 4646 C 433.326 -3.43755 0.522287 0
M  V30 4647 H 432.649 -3.7734 1.32115 0
M  V30 4648 H 434.089 -4.22254 0.384389 0
M  V30 4649 C 432.548 -3.28088 -0.765489 0
M  V30 4650 O 433.078 -3.57921 -1.8236 0
M  V30 4651 N 431.284 -2.81333 -0.728011 0
M  V30 4652 H 430.831 -2.57255 0.133332 0
M  V30 4653 H 430.789 -2.71232 -1.58999 0
M  V30 4654 N 434.561 -1.01147 -1.20859 0
M  V30 4655 C 435.977 -0.725422 -1.42161 0
M  V30 4656 C 436.177 0.696919 -1.89064 0
M  V30 4657 O 435.233 1.46539 -2.05627 0
M  V30 4658 C 436.546 -1.74678 -2.44761 0
M  V30 4659 C 438.094 -1.76433 -2.58535 0
M  V30 4660 C 438.569 -2.77481 -3.64374 0
M  V30 4661 N 440.06 -2.76189 -3.71852 0
M  V30 4662 C 440.795 -3.51035 -4.53389 0
M  V30 4663 N 440.291 -4.35541 -5.38773 0
M  V30 4664 N 442.084 -3.39655 -4.47873 0
M  V30 4665 H 434.235 -1.92979 -0.887282 0
M  V30 4666 H 436.498 -0.833327 -0.451962 0
M  V30 4667 H 436.204 -2.76551 -2.17285 0
M  V30 4668 H 436.078 -1.55472 -3.43669 0
M  V30 4669 H 438.465 -0.75248 -2.85345 0
M  V30 4670 H 438.546 -1.99712 -1.5984 0
M  V30 4671 H 438.19 -3.78827 -3.38308 0
M  V30 4672 H 438.12 -2.51466 -4.6268 0
M  V30 4673 H 440.611 -2.14885 -3.10858 0
M  V30 4674 H 440.924 -4.89432 -5.98061 0
M  V30 4675 H 439.269 -4.39621 -5.38292 0
M  V30 4676 H 442.46 -2.73063 -3.80203 0
M  V30 4677 H 442.633 -3.9824 -5.11184 0
M  V30 4678 N 436.039 1.36541 -0.78704 0
M  V30 4679 C 437.287 1.98911 -0.357633 0
M  V30 4680 C 437.608 1.62778 1.07371 0
M  V30 4681 O 436.878 0.900612 1.73971 0
M  V30 4682 H 435.458 0.735734 -0.129246 0
M  V30 4683 H 438.12 1.66776 -1.00855 0
M  V30 4684 H 437.216 3.08874 -0.447549 0
M  V30 4685 N 437.518 0.538854 1.48102 0
M  V30 4686 C 438.764 0.00801365 2.02798 0
M  V30 4687 C 439.097 -1.3309 1.41424 0
M  V30 4688 O 438.372 -1.86169 0.563158 0
M  V30 4689 C 438.655 -0.104589 3.59948 0
M  V30 4690 C 438.508 1.26012 4.31788 0
M  V30 4691 C 439.827 -0.827055 4.32259 0
M  V30 4692 H 436.946 0.00438624 0.736987 0
M  V30 4693 H 439.588 0.6976 1.7673 0
M  V30 4694 H 437.738 -0.691893 3.82289 0
M  V30 4695 H 439.41 1.88922 4.2084 0
M  V30 4696 H 437.653 1.83968 3.92859 0
M  V30 4697 H 438.324 1.13424 5.40221 0
M  V30 4698 H 440.8 -0.328578 4.14801 0
M  V30 4699 H 439.676 -0.87476 5.41885 0
M  V30 4700 H 439.937 -1.87927 4.0017 0
M  V30 4701 N 438.996 -1.55193 0.274407 0
M  V30 4702 C 440.226 -2.03692 -0.345442 0
M  V30 4703 C 440.634 -1.15224 -1.50067 0
M  V30 4704 O 439.977 -0.164749 -1.8296 0
M  V30 4705 C 440.039 -3.48325 -0.88939 0
M  V30 4706 C 439.703 -4.56794 0.137115 0
M  V30 4707 C 440.7 -5.11028 0.956378 0
M  V30 4708 C 438.385 -5.01568 0.27115 0
M  V30 4709 C 440.379 -6.08552 1.89587 0
M  V30 4710 C 438.066 -5.98918 1.21412 0
M  V30 4711 C 439.064 -6.52291 2.02498 0
M  V30 4712 O 438.752 -7.47738 2.952 0
M  V30 4713 H 438.484 -0.670893 -0.0829332 0
M  V30 4714 H 441.038 -2.01387 0.404056 0
M  V30 4715 H 439.268 -3.47867 -1.68895 0
M  V30 4716 H 440.957 -3.80167 -1.42225 0
M  V30 4717 H 441.723 -4.7725 0.863559 0
M  V30 4718 H 437.602 -4.5967 -0.349987 0
M  V30 4719 H 441.146 -6.50137 2.52918 0
M  V30 4720 H 437.043 -6.32114 1.30776 0
M  V30 4721 H 437.811 -7.65451 2.89874 0
M  V30 4722 N 440.474 -0.00167713 -1.576 0
M  V30 4723 C 441.885 0.54091 -1.78693 0
M  V30 4724 C 442.236 1.7386 -0.909247 0
M  V30 4725 O 441.361 2.16109 -0.112176 0
M  V30 4726 C 441.956 0.98806 -3.24072 0
M  V30 4727 C 440.515 1.47594 -3.46256 0
M  V30 4728 C 439.662 0.42792 -2.73978 0
M  V30 4729 H 442.613 -0.22784 -1.57056 0
M  V30 4730 H 442.634 1.85398 -3.32277 0
M  V30 4731 H 442.146 0.116164 -3.87926 0
M  V30 4732 H 440.247 2.36868 -2.87618 0
M  V30 4733 H 440.36 1.50225 -4.54939 0
M  V30 4734 H 438.724 0.889934 -2.38647 0
M  V30 4735 H 439.507 -0.435038 -3.40532 0
M  V30 4736 N 441.952 1.55251 0.271103 0
M  V30 4737 C 443.363 1.66635 0.842007 0
M  V30 4738 C 443.714 0.594631 1.86972 0
M  V30 4739 O 442.839 -0.263532 2.14789 0
M  V30 4740 C 443.434 3.02082 1.53401 0
M  V30 4741 C 441.993 3.15487 2.05293 0
M  V30 4742 C 441.14 2.62438 0.895631 0
M  V30 4743 H 444.091 1.58629 0.0474117 0
M  V30 4744 H 444.112 2.95176 2.40107 0
M  V30 4745 H 443.624 3.80062 0.785786 0
M  V30 4746 H 441.725 2.42284 2.83071 0
M  V30 4747 H 441.838 4.22075 2.26693 0
M  V30 4748 H 440.202 2.19644 1.28953 0
M  V30 4749 H 440.985 3.42923 0.160878 0
M  V30 4750 N 443.43 -0.535701 1.48216 0
M  V30 4751 C 444.679 -1.28828 1.55197 0
M  V30 4752 C 444.992 -1.94263 0.228278 0
M  V30 4753 O 446.198 -2.70927 0.176278 0
M  V30 4754 C 444.654 -2.33727 2.73678 0
M  V30 4755 C 444.262 -1.74386 4.12666 0
M  V30 4756 C 446.006 -3.1003 2.89968 0
M  V30 4757 C 443.913 -2.77192 5.22416 0
M  V30 4758 H 442.843 -0.484484 0.577747 0
M  V30 4759 H 445.494 -0.56646 1.74538 0
M  V30 4760 H 443.876 -3.08919 2.4776 0
M  V30 4761 H 445.05 -1.05421 4.48579 0
M  V30 4762 H 443.365 -1.10595 4.01445 0
M  V30 4763 H 445.962 -3.86842 3.6913 0
M  V30 4764 H 446.305 -3.65542 1.9921 0
M  V30 4765 H 446.838 -2.41952 3.15759 0
M  V30 4766 H 443.577 -2.26507 6.15122 0
M  V30 4767 H 443.097 -3.44502 4.90998 0
M  V30 4768 H 444.776 -3.40285 5.50286 0
M  V30 4769 N 444.908 -1.36708 -0.784132 0
M  V30 4770 C 445.84 -1.27333 -1.90575 0
M  V30 4771 C 446.853 -0.191706 -1.61667 0
M  V30 4772 O 448.042 -0.446854 -1.72816 0
M  V30 4773 C 445.142 -0.943177 -3.25511 0
M  V30 4774 C 444.315 -2.12776 -3.82158 0
M  V30 4775 C 443.374 -1.76983 -4.95544 0
M  V30 4776 O 442.4 -2.49134 -5.11782 0
M  V30 4777 N 443.602 -0.706624 -5.76183 0
M  V30 4778 H 446.367 -2.23974 -1.99138 0
M  V30 4779 H 443.928 -1.30171 -0.962656 0
M  V30 4780 H 445.92 -0.684799 -3.98864 0
M  V30 4781 H 444.49 -0.0657333 -3.12531 0
M  V30 4782 H 443.71 -2.54863 -3.0073 0
M  V30 4783 H 444.998 -2.91904 -4.16737 0
M  V30 4784 H 444.396 -0.107643 -5.65598 0
M  V30 4785 H 442.953 -0.50808 -6.49817 0
M  V30 4786 N 446.386 1.0089 -1.21074 0
M  V30 4787 C 447.632 1.74866 -1.02712 0
M  V30 4788 C 447.965 1.89178 0.438787 0
M  V30 4789 O 447.24 1.42325 1.32567 0
M  V30 4790 C 447.523 3.16347 -1.72036 0
M  V30 4791 C 447.376 3.09782 -3.26121 0
M  V30 4792 C 448.695 4.15187 -1.45973 0
M  V30 4793 H 445.814 0.634736 -0.374539 0
M  V30 4794 H 448.456 1.17646 -1.49196 0
M  V30 4795 H 446.606 3.65201 -1.32517 0
M  V30 4796 H 448.278 2.68673 -3.74983 0
M  V30 4797 H 446.521 2.46982 -3.56626 0
M  V30 4798 H 447.192 4.09829 -3.6979 0
M  V30 4799 H 449.668 3.75022 -1.80272 0
M  V30 4800 H 448.544 5.12331 -1.96999 0
M  V30 4801 H 448.805 4.40386 -0.388924 0
M  V30 4802 N 447.864 1.01787 1.20321 0
M  V30 4803 C 448.814 0.559976 2.21016 0
M  V30 4804 C 449.798 -0.385366 1.56217 0
M  V30 4805 O 450.99 -0.208126 1.75772 0
M  V30 4806 C 448.119 -0.0990553 3.43157 0
M  V30 4807 C 447.205 0.86807 4.15121 0
M  V30 4808 N 447.596 2.0261 4.63447 0
M  V30 4809 C 445.894 0.689162 4.40643 0
M  V30 4810 C 446.595 2.63518 5.18588 0
M  V30 4811 N 445.571 1.91569 5.08726 0
M  V30 4812 H 449.373 1.44281 2.56048 0
M  V30 4813 H 446.887 0.883381 1.36272 0
M  V30 4814 H 448.884 -0.444643 4.14522 0
M  V30 4815 H 447.544 -0.977709 3.0963 0
M  V30 4816 H 448.555 2.40598 4.58621 0
M  V30 4817 H 445.232 -0.14133 4.17261 0
M  V30 4818 H 446.622 3.61527 5.66346 0
M  V30 4819 N 449.342 -1.36122 0.79427 0
M  V30 4820 C 450.588 -1.99406 0.369452 0
M  V30 4821 C 450.921 -1.62886 -1.05743 0
M  V30 4822 O 450.196 -0.886053 -1.73145 0
M  V30 4823 C 450.479 -3.56046 0.538833 0
M  V30 4824 C 450.332 -4.02404 2.00976 0
M  V30 4825 C 451.651 -4.40079 -0.0431359 0
M  V30 4826 H 448.77 -0.724397 0.135712 0
M  V30 4827 H 451.412 -1.61461 1.00151 0
M  V30 4828 H 449.562 -3.885 0.000771004 0
M  V30 4829 H 451.234 -3.80415 2.60926 0
M  V30 4830 H 449.477 -3.53765 2.51063 0
M  V30 4831 H 450.148 -5.11344 2.07922 0
M  V30 4832 H 452.624 -4.14013 0.416228 0
M  V30 4833 H 451.5 -5.48799 0.105374 0
M  V30 4834 H 451.761 -4.27264 -1.13571 0
M  V30 4835 N 450.82 -0.546701 -1.47814 0
M  V30 4836 C 452.048 -0.0232857 -2.06887 0
M  V30 4837 C 452.463 1.26571 -1.4009 0
M  V30 4838 O 451.82 1.7569 -0.493906 0
M  V30 4839 C 451.871 0.186975 -3.61016 0
M  V30 4840 O 451.592 -1.05097 -4.25307 0
M  V30 4841 C 453.093 0.748872 -4.36929 0
M  V30 4842 H 450.313 -0.0410763 -0.669742 0
M  V30 4843 H 452.857 -0.757117 -1.89968 0
M  V30 4844 H 451.012 0.870903 -3.77484 0
M  V30 4845 H 451.426 -0.842121 -5.17695 0
M  V30 4846 H 452.9 0.845334 -5.45489 0
M  V30 4847 H 453.377 1.75772 -4.02493 0
M  V30 4848 H 453.983 0.100979 -4.2518 0
M  V30 4849 N 452.299 1.55045 -0.282633 0
M  V30 4850 C 453.229 2.2579 0.595066 0
M  V30 4851 C 454.21 1.25074 1.15284 0
M  V30 4852 O 455.395 1.5381 1.18559 0
M  V30 4853 C 452.525 2.98472 1.77572 0
M  V30 4854 C 451.479 4.0618 1.34914 0
M  V30 4855 C 450.805 4.66477 2.6135 0
M  V30 4856 C 452.105 5.1996 0.493821 0
M  V30 4857 H 453.799 2.994 0.00505653 0
M  V30 4858 H 451.345 1.44 0.000992001 0
M  V30 4859 H 453.298 3.46677 2.39568 0
M  V30 4860 H 452.022 2.2241 2.39168 0
M  V30 4861 H 450.681 3.58797 0.752338 0
M  V30 4862 H 450.329 3.87074 3.2122 0
M  V30 4863 H 450.029 5.39207 2.33516 0
M  V30 4864 H 451.553 5.17435 3.24181 0
M  V30 4865 H 452.967 5.64172 1.01898 0
M  V30 4866 H 451.364 5.99299 0.310047 0
M  V30 4867 H 452.434 4.82462 -0.485593 0
M  V30 4868 N 453.777 0.010035 1.57597 0
M  V30 4869 C 455.025 -0.671371 1.90623 0
M  V30 4870 C 455.346 -1.73753 0.885151 0
M  V30 4871 O 454.616 -1.95752 -0.0760611 0
M  V30 4872 H 453.196 -0.250968 0.703579 0
M  V30 4873 H 455.858 0.0533325 1.94827 0
M  V30 4874 H 454.954 -1.13626 2.90681 0
M  V30 4875 N 455.255 -1.55392 -0.262866 0
M  V30 4876 C 456.203 -1.8977 -1.345 0
M  V30 4877 C 457.197 -0.775063 -1.50629 0
M  V30 4878 O 458.403 -0.959519 -1.52293 0
M  V30 4879 H 454.778 -0.602467 -0.450041 0
M  V30 4880 H 456.749 -2.80147 -1.02762 0
M  V30 4881 C 455.498 -2.19501 -2.69657 0
M  V30 4882 H 454.821 -3.05378 -2.5804 0
M  V30 4883 H 456.261 -2.47469 -3.44289 0
M  V30 4884 C 454.72 -1.00597 -3.21531 0
M  V30 4885 O 455.25 -0.245768 -4.00947 0
M  V30 4886 N 453.456 -0.800911 -2.79345 0
M  V30 4887 H 453.003 -1.42079 -2.14875 0
M  V30 4888 H 452.961 -0.00697996 -3.14399 0
M  V30 4889 N 456.733 0.527833 -1.48498 0
M  V30 4890 C 457.643 1.65907 -1.65867 0
M  V30 4891 C 458.659 1.6537 -0.541192 0
M  V30 4892 O 459.835 1.84282 -0.812534 0
M  V30 4893 C 456.9 3.02364 -1.69637 0
M  V30 4894 C 455.961 3.1374 -2.93028 0
M  V30 4895 C 455.194 4.43688 -2.96609 0
M  V30 4896 O 455.417 5.30913 -2.08538 0
M  V30 4897 O 454.351 4.59475 -3.88802 0
M  V30 4898 H 458.177 1.5419 -2.61647 0
M  V30 4899 H 455.762 0.701163 -1.31924 0
M  V30 4900 H 457.644 3.83515 -1.74625 0
M  V30 4901 H 456.319 3.14401 -0.770312 0
M  V30 4902 H 455.226 2.31877 -2.93571 0
M  V30 4903 H 456.559 3.06621 -3.85026 0
M  V30 4904 N 458.211 1.37122 0.776871 0
M  V30 4905 C 459.488 1.22586 1.52421 0
M  V30 4906 C 459.868 -0.182726 2.10308 0
M  V30 4907 O 459.216 -1.18979 1.9508 0
M  V30 4908 C 459.426 2.31782 2.60918 0
M  V30 4909 C 460.774 2.69071 3.2846 0
M  V30 4910 O 461.798 2.3092 2.71209 0
M  V30 4911 O 460.657 3.3478 4.31954 0
M  V30 4912 H 457.751 0.478045 0.674835 0
M  V30 4913 H 460.297 1.48888 0.814275 0
M  V30 4914 H 459.069 3.26131 2.16227 0
M  V30 4915 H 458.692 2.06916 3.39517 0
M  V30 4916 N 459.689 -1.00246 1.21608 0
M  V30 4917 C 460.619 -2.10921 1.00172 0
M  V30 4918 C 461.6 -1.69938 -0.0741587 0
M  V30 4919 O 462.785 -1.94009 0.0861753 0
M  V30 4920 C 459.915 -3.42618 0.568355 0
M  V30 4921 C 458.869 -3.97407 1.58909 0
M  V30 4922 C 458.195 -5.25038 1.01187 0
M  V30 4923 C 459.495 -4.2918 2.97661 0
M  V30 4924 H 461.189 -2.29112 1.92739 0
M  V30 4925 H 458.735 -1.10101 0.928102 0
M  V30 4926 H 460.688 -4.19444 0.405555 0
M  V30 4927 H 459.412 -3.24227 -0.392961 0
M  V30 4928 H 458.071 -3.22703 1.73949 0
M  V30 4929 H 457.719 -5.02982 0.0421965 0
M  V30 4930 H 457.419 -5.62661 1.6937 0
M  V30 4931 H 458.943 -6.04507 0.860448 0
M  V30 4932 H 460.357 -4.96839 2.86049 0
M  V30 4933 H 458.754 -4.77952 3.6288 0
M  V30 4934 H 459.824 -3.3735 3.48315 0
M  V30 4935 N 461.167 -1.02423 -1.1978 0
M  V30 4936 C 462.395 -0.737456 -1.93311 0
M  V30 4937 C 462.81 0.703023 -1.75223 0
M  V30 4938 O 462.167 1.47761 -1.07112 0
M  V30 4939 C 462.218 -1.0733 -3.45199 0
M  V30 4940 O 461.939 -2.4572 -3.62702 0
M  V30 4941 C 463.44 -0.80866 -4.35862 0
M  V30 4942 H 460.66 -0.2702 -0.614193 0
M  V30 4943 H 463.204 -1.36747 -1.52054 0
M  V30 4944 H 461.359 -0.488545 -3.84307 0
M  V30 4945 H 461.773 -2.58081 -4.56612 0
M  V30 4946 H 463.247 -1.09365 -5.41057 0
M  V30 4947 H 463.724 0.257025 -4.38447 0
M  V30 4948 H 464.33 -1.37592 -4.02428 0
M  V30 4949 N 462.645 1.35699 -0.801477 0
M  V30 4950 C 463.891 1.99208 -0.380022 0
M  V30 4951 C 464.224 1.63445 1.04878 0
M  V30 4952 O 463.499 0.895223 1.72673 0
M  V30 4953 C 463.782 3.55755 -0.557708 0
M  V30 4954 C 463.635 4.01332 -2.03107 0
M  V30 4955 C 464.954 4.40096 0.0197968 0
M  V30 4956 H 462.073 0.723667 -0.139552 0
M  V30 4957 H 464.715 1.60928 -1.01006 0
M  V30 4958 H 462.865 3.88494 -0.0213741 0
M  V30 4959 H 464.537 3.79026 -2.62939 0
M  V30 4960 H 462.78 3.52429 -2.52936 0
M  V30 4961 H 463.451 5.10234 -2.1063 0
M  V30 4962 H 465.927 4.13786 -0.438179 0
M  V30 4963 H 464.803 5.48735 -0.134477 0
M  V30 4964 H 465.064 4.2786 1.11303 0
M  V30 4965 N 464.123 0.554532 1.47522 0
M  V30 4966 C 465.07 -0.19466 2.29978 0
M  V30 4967 C 466.04 -0.910882 1.38896 0
M  V30 4968 O 467.225 -0.907102 1.67858 0
M  V30 4969 C 464.365 -1.22035 3.22802 0
M  V30 4970 C 463.478 -0.510474 4.28973 0
M  V30 4971 C 462.613 -1.52123 5.08952 0
M  V30 4972 C 461.652 -0.796173 6.069 0
M  V30 4973 N 460.789 -1.75363 6.79847 0
M  V30 4974 H 465.629 0.51461 2.93523 0
M  V30 4975 H 463.166 0.265607 1.44682 0
M  V30 4976 H 465.124 -1.8276 3.7504 0
M  V30 4977 H 463.754 -1.89769 2.61127 0
M  V30 4978 H 462.806 0.211234 3.79813 0
M  V30 4979 H 464.118 0.0576503 4.98767 0
M  V30 4980 H 463.272 -2.20207 5.65326 0
M  V30 4981 H 462.011 -2.12327 4.39054 0
M  V30 4982 H 461.016 -0.101388 5.49707 0
M  V30 4983 H 462.241 -0.199911 6.78806 0
M  V30 4984 H 460.187 -2.3443 6.12682 0
M  V30 4985 H 460.104 -1.23759 7.45801 0
M  V30 4986 H 461.372 -2.4257 7.40797 0
M  V30 4987 N 465.601 -1.54893 0.290851 0
M  V30 4988 C 466.534 -2.19289 -0.631489 0
M  V30 4989 C 467.512 -1.15893 -1.14051 0
M  V30 4990 O 468.696 -1.4449 -1.21058 0
M  V30 4991 C 465.823 -2.82866 -1.86291 0
M  V30 4992 C 464.869 -3.997 -1.48801 0
M  V30 4993 S 465.702 -5.32641 -0.552644 0
M  V30 4994 C 466.858 -5.99696 -1.79209 0
M  V30 4995 H 467.091 -2.9718 -0.0843791 0
M  V30 4996 H 464.624 -1.54218 0.075031 0
M  V30 4997 H 466.582 -3.20124 -2.56964 0
M  V30 4998 H 465.243 -2.04839 -2.38117 0
M  V30 4999 H 464.436 -4.42932 -2.40473 0
M  V30 5000 H 464.038 -3.63947 -0.861321 0
M  V30 5001 H 466.33 -6.19886 -2.734 0
M  V30 5002 H 467.273 -6.94071 -1.40251 0
M  V30 5003 H 467.681 -5.29226 -1.96419 0
M  V30 5004 N 467.08 -0.0183926 -1.57589 0
M  V30 5005 C 468.305 0.676634 -1.96052 0
M  V30 5006 C 468.73 1.6548 -0.894307 0
M  V30 5007 O 468.088 1.80712 0.145849 0
M  V30 5008 C 468.136 1.36872 -3.33614 0
M  V30 5009 O 467.24 2.48372 -3.29219 0
M  V30 5010 H 466.581 0.1786 -0.63953 0
M  V30 5011 H 469.111 -0.077056 -2.04455 0
M  V30 5012 H 469.121 1.72797 -3.69601 0
M  V30 5013 H 467.796 0.651636 -4.10763 0
M  V30 5014 H 466.373 2.14639 -3.04934 0
M  V30 5015 N 468.558 1.5553 0.254621 0
M  V30 5016 C 469.835 1.6774 1.00611 0
M  V30 5017 C 470.215 0.555993 2.03647 0
M  V30 5018 O 469.563 -0.441583 2.24193 0
M  V30 5019 C 469.773 3.07725 1.6464 0
M  V30 5020 C 471.121 3.66074 2.15116 0
M  V30 5021 O 472.145 3.10476 1.74595 0
M  V30 5022 O 471.004 4.63526 2.89493 0
M  V30 5023 H 468.098 0.681958 0.467828 0
M  V30 5024 H 470.644 1.67863 0.24902 0
M  V30 5025 H 469.416 3.80792 0.900734 0
M  V30 5026 H 469.039 3.1158 2.46989 0
M  V30 5027 N 470.036 -0.519951 1.48776 0
M  V30 5028 C 471.452 -0.849418 1.35119 0
M  V30 5029 C 471.652 -1.98077 0.36982 0
M  V30 5030 O 470.708 -2.51664 -0.205359 0
M  V30 5031 C 472.021 -1.20748 2.75391 0
M  V30 5032 C 473.569 -1.31679 2.83954 0
M  V30 5033 C 474.044 -1.70824 4.24951 0
M  V30 5034 N 475.535 -1.77908 4.27672 0
M  V30 5035 C 476.27 -2.09603 5.33717 0
M  V30 5036 N 475.766 -2.39652 6.5003 0
M  V30 5037 N 477.559 -2.10694 5.21119 0
M  V30 5038 H 469.71 0.226377 2.1119 0
M  V30 5039 H 471.973 0.0386519 0.947212 0
M  V30 5040 H 471.679 -0.449703 3.48813 0
M  V30 5041 H 471.553 -2.15534 3.09556 0
M  V30 5042 H 473.94 -2.06532 2.10781 0
M  V30 5043 H 474.021 -0.3499 2.53396 0
M  V30 5044 H 473.665 -0.965282 4.98643 0
M  V30 5045 H 473.595 -2.6858 4.52959 0
M  V30 5046 H 476.086 -1.56923 3.43779 0
M  V30 5047 H 476.399 -2.6297 7.26682 0
M  V30 5048 H 474.744 -2.37149 6.53288 0
M  V30 5049 H 477.935 -1.86682 4.29264 0
M  V30 5050 H 478.108 -2.35062 6.03863 0
M  V30 5051 N 471.514 -1.37532 -0.769588 0
M  V30 5052 C 472.762 -1.32597 -1.5252 0
M  V30 5053 C 473.083 0.0884294 -1.94799 0
M  V30 5054 O 472.353 1.03289 -1.66458 0
M  V30 5055 H 470.933 -0.487846 -0.565699 0
M  V30 5056 H 473.595 -1.72044 -0.915806 0
M  V30 5057 H 472.691 -1.96643 -2.42359 0
M  V30 5058 N 472.992 0.995999 -1.22138 0
M  V30 5059 C 474.24 1.73167 -1.042 0
M  V30 5060 C 474.561 1.90329 0.42423 0
M  V30 5061 O 473.831 1.4607 1.30539 0
M  V30 5062 H 472.411 0.641593 -0.38258 0
M  V30 5063 H 475.073 1.19974 -1.53598 0
M  V30 5064 H 474.169 2.72734 -1.51731 0
M  V30 5065 N 474.47 1.03057 1.19235 0
M  V30 5066 C 475.718 0.726581 1.88587 0
M  V30 5067 C 476.039 -0.747227 1.80115 0
M  V30 5068 O 475.309 -1.53849 1.21274 0
M  V30 5069 H 473.889 0.265768 0.698124 0
M  V30 5070 H 476.551 1.30516 1.44746 0
M  V30 5071 H 475.647 1.0224 2.94879 0
M  V30 5072 N 475.948 -1.35272 0.808662 0
M  V30 5073 C 477.194 -1.99003 0.390581 0
M  V30 5074 C 477.527 -1.63999 -1.0401 0
M  V30 5075 O 476.802 -0.904368 -1.72196 0
M  V30 5076 C 477.085 -3.55454 0.576566 0
M  V30 5077 C 476.938 -4.00249 2.05233 0
M  V30 5078 C 478.257 -4.401 0.00354277 0
M  V30 5079 H 475.376 -0.722917 0.143388 0
M  V30 5080 H 478.018 -1.6039 1.01858 0
M  V30 5081 H 476.168 -3.88477 0.0419766 0
M  V30 5082 H 477.84 -3.77626 2.64946 0
M  V30 5083 H 476.083 -3.51082 2.54801 0
M  V30 5084 H 476.754 -5.0911 2.13333 0
M  V30 5085 H 479.23 -4.13548 0.460117 0
M  V30 5086 H 478.106 -5.48656 0.163575 0
M  V30 5087 H 478.367 -4.28444 -1.09032 0
M  V30 5088 N 477.426 -0.562348 -1.47226 0
M  V30 5089 C 478.837 -0.130325 -1.86245 0
M  V30 5090 C 479.188 1.30128 -1.46838 0
M  V30 5091 O 478.313 1.97974 -0.873805 0
M  V30 5092 C 478.908 -0.229738 -3.3802 0
M  V30 5093 C 477.467 0.14728 -3.76112 0
M  V30 5094 C 476.614 -0.574971 -2.71274 0
M  V30 5095 H 479.565 -0.771773 -1.3867 0
M  V30 5096 H 479.586 0.550316 -3.76499 0
M  V30 5097 H 479.098 -1.27178 -3.66671 0
M  V30 5098 H 477.199 1.19023 -3.53078 0
M  V30 5099 H 477.312 -0.214858 -4.78618 0
M  V30 5100 H 475.676 -0.0174756 -2.54694 0
M  V30 5101 H 476.459 -1.61827 -3.02766 0
M  V30 5102 N 478.904 1.54736 -0.299062 0
M  V30 5103 C 479.834 2.26409 0.571085 0
M  V30 5104 C 480.815 1.2629 1.13951 0
M  V30 5105 O 482 1.55059 1.16921 0
M  V30 5106 C 479.13 3.00338 1.74396 0
M  V30 5107 C 478.084 4.07588 1.30599 0
M  V30 5108 C 477.41 4.69222 2.56387 0
M  V30 5109 C 478.71 5.20455 0.438645 0
M  V30 5110 H 480.404 2.99388 -0.0266991 0
M  V30 5111 H 477.95 1.43993 -0.0142812 0
M  V30 5112 H 479.903 3.49198 2.35878 0
M  V30 5113 H 478.627 2.24934 2.36796 0
M  V30 5114 H 477.286 3.59575 0.71424 0
M  V30 5115 H 476.934 3.9046 3.17097 0
M  V30 5116 H 476.634 5.41653 2.27784 0
M  V30 5117 H 478.158 5.20844 3.18675 0
M  V30 5118 H 479.572 5.65221 0.959085 0
M  V30 5119 H 477.969 5.99594 0.246466 0
M  V30 5120 H 479.039 4.8192 -0.536738 0
M  V30 5121 N 480.382 0.0267497 1.57577 0
M  V30 5122 C 481.798 -0.32962 1.56159 0
M  V30 5123 C 481.998 -1.73059 1.03213 0
M  V30 5124 O 481.054 -2.43233 0.677804 0
M  V30 5125 C 482.367 -0.18039 3.00158 0
M  V30 5126 C 483.915 -0.253334 3.11973 0
M  V30 5127 C 484.39 -0.132921 4.57807 0
M  V30 5128 N 485.881 -0.189979 4.6281 0
M  V30 5129 C 486.616 -0.120554 5.73273 0
M  V30 5130 N 486.112 -0.000180315 6.928 0
M  V30 5131 N 487.905 -0.174369 5.61829 0
M  V30 5132 H 480.056 0.942896 1.90324 0
M  V30 5133 H 482.319 0.3639 0.875375 0
M  V30 5134 H 482.025 0.784576 3.42837 0
M  V30 5135 H 481.899 -0.951565 3.65 0
M  V30 5136 H 484.286 -1.20876 2.69208 0
M  V30 5137 H 484.367 0.548177 2.49857 0
M  V30 5138 H 484.011 0.819073 5.01252 0
M  V30 5139 H 483.941 -0.953264 5.179 0
M  V30 5140 H 486.432 -0.283257 3.76837 0
M  V30 5141 H 486.745 0.0461666 7.72786 0
M  V30 5142 H 485.09 0.034569 6.94991 0
M  V30 5143 H 488.281 -0.266794 4.67339 0
M  V30 5144 H 488.454 -0.116802 6.47895 0
M  V30 5145 N 481.861 -1.55662 -0.24637 0
M  V30 5146 C 482.808 -1.90361 -1.30504 0
M  V30 5147 C 483.778 -0.757905 -1.47801 0
M  V30 5148 O 484.963 -1.01161 -1.61775 0
M  V30 5149 C 482.103 -2.2042 -2.65535 0
M  V30 5150 C 481.216 -3.47799 -2.56242 0
M  V30 5151 C 480.351 -3.67426 -3.8363 0
M  V30 5152 C 479.39 -4.88403 -3.68956 0
M  V30 5153 N 478.527 -5.04548 -4.88237 0
M  V30 5154 H 483.367 -2.80645 -1.00213 0
M  V30 5155 H 480.904 -1.38924 -0.483577 0
M  V30 5156 H 482.862 -2.35853 -3.44135 0
M  V30 5157 H 481.492 -1.3334 -2.93973 0
M  V30 5158 H 480.544 -3.40694 -1.69208 0
M  V30 5159 H 481.856 -4.36544 -2.4131 0
M  V30 5160 H 481.01 -3.82821 -4.70673 0
M  V30 5161 H 479.749 -2.76914 -4.01459 0
M  V30 5162 H 478.754 -4.72984 -2.80296 0
M  V30 5163 H 479.979 -5.80375 -3.52621 0
M  V30 5164 H 477.925 -4.16974 -5.06427 0
M  V30 5165 H 477.842 -5.87384 -4.75937 0
M  V30 5166 H 479.11 -5.24355 -5.76777 0
M  V30 5167 N 483.339 0.512053 -1.4905 0
M  V30 5168 C 484.588 1.26343 -1.57227 0
M  V30 5169 C 484.901 1.93876 -0.259155 0
M  V30 5170 O 486.107 2.70612 -0.219358 0
M  V30 5171 C 484.563 2.29343 -2.77362 0
M  V30 5172 C 484.171 1.67799 -4.15388 0
M  V30 5173 C 485.915 3.05378 -2.94864 0
M  V30 5174 C 483.822 2.68845 -5.2676 0
M  V30 5175 H 482.752 0.475231 -0.585382 0
M  V30 5176 H 485.403 0.53862 -1.75417 0
M  V30 5177 H 483.785 3.04938 -2.52643 0
M  V30 5178 H 484.959 0.982715 -4.50199 0
M  V30 5179 H 483.274 1.04194 -4.03153 0
M  V30 5180 H 485.871 3.80921 -3.75238 0
M  V30 5181 H 486.214 3.62327 -2.05 0
M  V30 5182 H 486.747 2.36898 -3.19569 0
M  V30 5183 H 483.486 2.16692 -6.18647 0
M  V30 5184 H 483.006 3.36647 -4.96416 0
M  V30 5185 H 484.685 3.31487 -5.5563 0
M  V30 5186 N 484.817 1.37938 0.762283 0
M  V30 5187 C 486.094 1.24196 1.51112 0
M  V30 5188 C 486.474 -0.160409 2.1049 0
M  V30 5189 O 485.822 -1.16904 1.96331 0
M  V30 5190 C 486.032 2.34537 2.58445 0
M  V30 5191 C 487.38 2.7254 3.25588 0
M  V30 5192 O 488.404 2.33783 2.68745 0
M  V30 5193 O 487.263 3.39343 4.28379 0
M  V30 5194 H 484.357 0.485175 0.669727 0
M  V30 5195 H 486.903 1.49743 0.798438 0
M  V30 5196 H 485.675 3.28406 2.12756 0
M  V30 5197 H 485.298 2.10505 3.37303 0
M  V30 5198 N 486.295 -0.989507 1.22664 0
M  V30 5199 C 487.711 -1.25395 0.987331 0
M  V30 5200 C 487.911 -1.9899 -0.317056 0
M  V30 5201 O 486.967 -2.30141 -1.03882 0
M  V30 5202 C 488.28 -2.06242 2.18826 0
M  V30 5203 C 489.828 -2.19413 2.23219 0
M  V30 5204 C 490.303 -3.03648 3.42873 0
M  V30 5205 N 491.794 -3.11234 3.43056 0
M  V30 5206 C 492.529 -3.7671 4.32293 0
M  V30 5207 N 492.025 -4.44085 5.31752 0
M  V30 5208 N 493.818 -3.73505 4.2006 0
M  V30 5209 H 485.969 -0.496212 2.06522 0
M  V30 5210 H 488.232 -0.281784 0.905153 0
M  V30 5211 H 487.938 -1.59531 3.13437 0
M  V30 5212 H 487.812 -3.06996 2.19165 0
M  V30 5213 H 490.199 -2.65336 1.29154 0
M  V30 5214 H 490.28 -1.18078 2.26917 0
M  V30 5215 H 489.924 -2.58424 4.37241 0
M  V30 5216 H 489.854 -4.05132 3.36416 0
M  V30 5217 H 492.345 -2.63287 2.71088 0
M  V30 5218 H 492.658 -4.91797 5.96117 0
M  V30 5219 H 491.003 -4.42822 5.35662 0
M  V30 5220 H 494.194 -3.20033 3.41609 0
M  V30 5221 H 494.367 -4.24253 4.8981 0
M  V30 5222 N 487.773 -1.03688 -1.18687 0
M  V30 5223 C 488.703 -0.645407 -2.24403 0
M  V30 5224 C 489.684 0.349511 -1.66471 0
M  V30 5225 O 490.869 0.230453 -1.92828 0
M  V30 5226 C 487.999 -0.00365337 -3.473 0
M  V30 5227 C 486.953 -0.921705 -4.17958 0
M  V30 5228 C 486.279 -0.144629 -5.34504 0
M  V30 5229 C 487.579 -2.23909 -4.71871 0
M  V30 5230 H 489.273 -1.52917 -2.57404 0
M  V30 5231 H 486.819 -0.736711 -1.23728 0
M  V30 5232 H 488.772 0.281908 -4.20456 0
M  V30 5233 H 487.496 0.914963 -3.13522 0
M  V30 5234 H 486.155 -1.19159 -3.46694 0
M  V30 5235 H 485.803 0.776274 -4.96974 0
M  V30 5236 H 485.503 -0.756206 -5.82714 0
M  V30 5237 H 487.027 0.134004 -6.10453 0
M  V30 5238 H 488.441 -2.0145 -5.36741 0
M  V30 5239 H 486.838 -2.8033 -5.30599 0
M  V30 5240 H 487.908 -2.88822 -3.895 0
M  V30 5241 N 489.251 1.34841 -0.815825 0
M  V30 5242 C 490.498 1.98499 -0.400535 0
M  V30 5243 C 490.826 1.64699 1.03463 0
M  V30 5244 O 490.081 0.907006 1.73412 0
M  V30 5245 C 490.38 3.53273 -0.541541 0
M  V30 5246 C 490.046 4.06966 -1.94138 0
M  V30 5247 C 488.708 4.21341 -2.32433 0
M  V30 5248 C 491.06 4.35933 -2.85677 0
M  V30 5249 C 488.388 4.62007 -3.61617 0
M  V30 5250 C 490.74 4.78042 -4.14317 0
M  V30 5251 C 489.404 4.90622 -4.52599 0
M  V30 5252 H 488.674 0.72636 -0.146566 0
M  V30 5253 H 491.321 1.60902 -1.0384 0
M  V30 5254 H 489.626 3.91387 0.179741 0
M  V30 5255 H 491.323 4.00497 -0.20085 0
M  V30 5256 H 487.913 3.96235 -1.63388 0
M  V30 5257 H 492.097 4.24372 -2.57337 0
M  V30 5258 H 487.353 4.69937 -3.91113 0
M  V30 5259 H 491.527 4.99415 -4.85342 0
M  V30 5260 H 489.154 5.2189 -5.52752 0
M  V30 5261 N 490.729 0.570148 1.46925 0
M  V30 5262 C 491.677 -0.183181 2.31878 0
M  V30 5263 C 492.671 -0.896721 1.43719 0
M  V30 5264 O 493.877 -0.816536 1.60414 0
M  V30 5265 H 490.252 -0.077944 0.74795 0
M  V30 5266 H 492.223 0.552312 2.93244 0
M  V30 5267 C 490.972 -1.19172 3.2664 0
M  V30 5268 H 490.295 -0.652088 3.94446 0
M  V30 5269 H 491.735 -1.68946 3.88887 0
M  V30 5270 C 490.194 -2.24627 2.51086 0
M  V30 5271 O 490.724 -3.31773 2.26472 0
M  V30 5272 N 488.93 -1.98898 2.11867 0
M  V30 5273 H 488.477 -1.11777 2.32086 0
M  V30 5274 H 488.435 -2.6967 1.61634 0
M  V30 5275 N 492.207 -1.54576 0.307264 0
M  V30 5276 C 493.437 -2.04378 -0.302158 0
M  V30 5277 C 493.845 -1.18381 -1.47589 0
M  V30 5278 O 493.188 -0.20352 -1.82569 0
M  V30 5279 C 493.25 -3.50133 -0.815305 0
M  V30 5280 C 492.914 -4.56401 0.233977 0
M  V30 5281 C 493.911 -5.08884 1.06456 0
M  V30 5282 C 491.596 -5.0088 0.377478 0
M  V30 5283 C 493.59 -6.04394 2.02452 0
M  V30 5284 C 491.277 -5.96208 1.34088 0
M  V30 5285 C 492.275 -6.47849 2.16288 0
M  V30 5286 O 491.963 -7.41308 3.10994 0
M  V30 5287 H 491.695 -0.672502 -0.0686839 0
M  V30 5288 H 494.249 -2.00484 0.446682 0
M  V30 5289 H 492.479 -3.51371 -1.61478 0
M  V30 5290 H 494.168 -3.83098 -1.34129 0
M  V30 5291 H 494.934 -4.75311 0.964596 0
M  V30 5292 H 490.813 -4.60309 -0.252405 0
M  V30 5293 H 494.357 -6.44626 2.66652 0
M  V30 5294 H 490.254 -6.29198 1.44154 0
M  V30 5295 H 491.022 -7.5913 3.06045 0
M  V30 5296 N 493.685 -0.035106 -1.57561 0
M  V30 5297 C 494.618 0.979673 -2.06101 0
M  V30 5298 C 495.596 1.31378 -0.958046 0
M  V30 5299 O 496.78 1.42942 -1.22881 0
M  V30 5300 C 493.907 2.29809 -2.48808 0
M  V30 5301 C 492.953 2.11817 -3.70184 0
M  V30 5302 S 493.786 1.41143 -5.16565 0
M  V30 5303 C 494.942 2.74341 -5.62572 0
M  V30 5304 H 495.175 0.566506 -2.91853 0
M  V30 5305 H 492.708 0.176744 -1.53385 0
M  V30 5306 H 494.666 3.056 -2.74078 0
M  V30 5307 H 493.327 2.68257 -1.63392 0
M  V30 5308 H 492.52 3.09299 -3.97933 0
M  V30 5309 H 492.122 1.44168 -3.45097 0
M  V30 5310 H 494.414 3.70562 -5.67177 0
M  V30 5311 H 495.357 2.51249 -6.62027 0
M  V30 5312 H 495.765 2.79863 -4.90242 0
M  V30 5313 N 495.163 1.55791 0.238111 0
M  V30 5314 C 496.393 1.81834 0.980809 0
M  V30 5315 C 496.801 0.609741 1.79106 0
M  V30 5316 O 496.144 -0.431073 1.78571 0
M  V30 5317 C 496.206 3.01363 1.96011 0
M  V30 5318 C 495.87 4.37037 1.33597 0
M  V30 5319 C 496.867 5.14692 0.734063 0
M  V30 5320 C 494.552 4.83743 1.3527 0
M  V30 5321 C 496.546 6.37206 0.157208 0
M  V30 5322 C 494.233 6.06204 0.77199 0
M  V30 5323 C 495.231 6.82775 0.175282 0
M  V30 5324 O 494.919 8.02922 -0.396432 0
M  V30 5325 H 494.651 0.6088 0.293834 0
M  V30 5326 H 497.205 2.03702 0.263552 0
M  V30 5327 H 495.435 2.75273 2.71591 0
M  V30 5328 H 497.124 3.14422 2.56697 0
M  V30 5329 H 497.89 4.79722 0.713582 0
M  V30 5330 H 493.769 4.24129 1.80653 0
M  V30 5331 H 497.313 6.96915 -0.30917 0
M  V30 5332 H 493.21 6.4065 0.789828 0
M  V30 5333 H 493.978 8.17989 -0.289145 0
M  V30 5334 N 496.642 -0.504142 1.49319 0
M  V30 5335 C 497.867 -1.28729 1.62615 0
M  V30 5336 C 498.292 -1.85752 0.296309 0
M  V30 5337 O 497.65 -1.65704 -0.735649 0
M  V30 5338 C 497.698 -2.39561 2.69524 0
M  V30 5339 O 496.802 -3.43324 2.28478 0
M  V30 5340 H 496.143 -0.380172 0.544395 0
M  V30 5341 H 498.673 -0.603872 1.95485 0
M  V30 5342 H 498.683 -2.8537 2.91595 0
M  V30 5343 H 497.358 -1.97423 3.66056 0
M  V30 5344 H 495.935 -3.03455 2.16725 0
M  V30 5345 N 498.12 -1.38341 -0.754957 0
M  V30 5346 C 499.348 -1.37704 -1.54419 0
M  V30 5347 C 499.763 0.0335243 -1.8877 0
M  V30 5348 O 499.12 0.999773 -1.52679 0
M  V30 5349 C 499.171 -2.23136 -2.84416 0
M  V30 5350 O 498.892 -3.58697 -2.51531 0
M  V30 5351 C 500.393 -2.30664 -3.78562 0
M  V30 5352 H 497.613 -0.471061 -0.477852 0
M  V30 5353 H 500.157 -1.81902 -0.934446 0
M  V30 5354 H 498.312 -1.82403 -3.41772 0
M  V30 5355 H 498.726 -4.03665 -3.34896 0
M  V30 5356 H 500.2 -2.9473 -4.66732 0
M  V30 5357 H 500.677 -1.3199 -4.18898 0
M  V30 5358 H 501.283 -2.71781 -3.27131 0
M  V30 5359 N 499.598 0.982988 -1.23187 0
M  V30 5360 C 500.561 2.05649 -1.01198 0
M  V30 5361 C 501.561 1.6078 0.0252464 0
M  V30 5362 O 502.751 1.72878 -0.214243 0
M  V30 5363 C 499.883 3.36744 -0.530656 0
M  V30 5364 H 501.076 2.2659 -1.96461 0
M  V30 5365 H 498.629 1.15602 -1.05195 0
M  V30 5366 H 499.364 3.21492 0.425873 0
M  V30 5367 H 499.149 3.7065 -1.2791 0
M  V30 5368 H 500.639 4.15705 -0.397366 0
M  V30 5369 N 501.076 1.04316 1.18135 0
M  V30 5370 C 502.487 0.775505 1.69832 0
M  V30 5371 C 502.838 -0.703348 1.8316 0
M  V30 5372 O 501.963 -1.54729 1.51287 0
M  V30 5373 C 502.558 1.40112 3.0847 0
M  V30 5374 C 501.117 1.18172 3.57368 0
M  V30 5375 C 500.264 1.49022 2.33854 0
M  V30 5376 H 503.215 1.20925 1.02775 0
M  V30 5377 H 503.236 0.805672 3.71873 0
M  V30 5378 H 502.748 2.47744 2.98738 0
M  V30 5379 H 500.849 0.124258 3.72393 0
M  V30 5380 H 500.962 1.8805 4.40652 0
M  V30 5381 H 499.326 0.909995 2.37889 0
M  V30 5382 H 500.109 2.57768 2.26738 0
M  V30 5383 N 502.554 -1.34406 0.822964 0
M  V30 5384 C 503.97 -1.51275 0.508727 0
M  V30 5385 C 504.17 -1.76776 -0.967083 0
M  V30 5386 O 503.226 -1.81871 -1.75155 0
M  V30 5387 C 504.539 -2.67765 1.36829 0
M  V30 5388 C 506.087 -2.81647 1.36542 0
M  V30 5389 C 506.562 -4.01181 2.20947 0
M  V30 5390 N 508.053 -4.08388 2.18571 0
M  V30 5391 C 508.788 -5.00036 2.80627 0
M  V30 5392 N 508.284 -5.96906 3.51674 0
M  V30 5393 N 510.077 -4.92908 2.70181 0
M  V30 5394 H 502.228 -1.16113 1.77852 0
M  V30 5395 H 504.491 -0.56947 0.757897 0
M  V30 5396 H 504.197 -2.55551 2.41633 0
M  V30 5397 H 504.071 -3.62779 1.03303 0
M  V30 5398 H 506.458 -2.93303 0.325163 0
M  V30 5399 H 506.539 -1.87443 1.74066 0
M  V30 5400 H 506.183 -3.90286 3.25022 0
M  V30 5401 H 506.113 -4.94599 1.80774 0
M  V30 5402 H 508.604 -3.39051 1.66891 0
M  V30 5403 H 508.917 -6.63468 3.96271 0
M  V30 5404 H 507.262 -5.9703 3.5578 0
M  V30 5405 H 510.453 -4.1619 2.14251 0
M  V30 5406 H 510.626 -5.64137 3.18831 0
M  V30 5407 N 504.032 -0.577932 -1.46621 0
M  V30 5408 C 505.443 -0.150071 -1.86096 0
M  V30 5409 C 505.794 1.28563 -1.48209 0
M  V30 5410 O 504.919 1.97036 -0.894754 0
M  V30 5411 C 505.514 -0.265576 -3.37758 0
M  V30 5412 C 504.073 0.10738 -3.76247 0
M  V30 5413 C 503.22 -0.603711 -2.70649 0
M  V30 5414 H 506.171 -0.786438 -1.37844 0
M  V30 5415 H 506.192 0.510352 -3.77062 0
M  V30 5416 H 505.704 -1.3106 -3.65301 0
M  V30 5417 H 503.805 1.15272 -3.54321 0
M  V30 5418 H 503.918 -0.26561 -4.78363 0
M  V30 5419 H 502.282 -0.0444884 -2.54661 0
M  V30 5420 H 503.065 -1.65029 -3.01032 0
M  V30 5421 N 505.51 1.54411 -0.315457 0
M  V30 5422 C 506.926 1.59556 0.037464 0
M  V30 5423 C 507.126 1.33217 1.5118 0
M  V30 5424 O 506.182 1.11264 2.26664 0
M  V30 5425 C 507.495 2.98372 -0.373477 0
M  V30 5426 C 509.043 3.11324 -0.323452 0
M  V30 5427 C 509.518 4.52472 -0.709433 0
M  V30 5428 N 511.009 4.58437 -0.662524 0
M  V30 5429 C 511.744 5.65751 -0.933474 0
M  V30 5430 N 511.24 6.81039 -1.27114 0
M  V30 5431 N 513.033 5.55489 -0.859573 0
M  V30 5432 H 505.184 1.6979 -1.27614 0
M  V30 5433 H 507.447 0.793732 -0.518356 0
M  V30 5434 H 507.153 3.22618 -1.40037 0
M  V30 5435 H 507.027 3.76264 0.265615 0
M  V30 5436 H 509.414 2.86818 0.694223 0
M  V30 5437 H 509.495 2.35555 -0.997367 0
M  V30 5438 H 509.139 4.7771 -1.72498 0
M  V30 5439 H 509.069 5.26598 -0.0132923 0
M  V30 5440 H 511.56 3.75636 -0.413065 0
M  V30 5441 H 511.873 7.58816 -1.46348 0
M  V30 5442 H 510.218 6.82555 -1.30932 0
M  V30 5443 H 513.409 4.64299 -0.595324 0
M  V30 5444 H 513.582 6.39036 -1.0741 0
M  V30 5445 N 506.988 0.0434614 1.5754 0
M  V30 5446 C 508.234 -0.632971 1.92669 0
M  V30 5447 C 508.567 -1.70947 0.921446 0
M  V30 5448 O 507.842 -1.94426 -0.0537202 0
M  V30 5449 C 508.125 -1.23619 3.38216 0
M  V30 5450 C 507.978 -0.168274 4.49485 0
M  V30 5451 C 509.297 -2.15008 3.84005 0
M  V30 5452 H 506.416 -0.228629 0.700641 0
M  V30 5453 H 509.058 0.103651 1.89717 0
M  V30 5454 H 507.208 -1.864 3.40863 0
M  V30 5455 H 508.88 0.463196 4.58969 0
M  V30 5456 H 507.123 0.504581 4.30855 0
M  V30 5457 H 507.794 -0.630218 5.48391 0
M  V30 5458 H 510.27 -1.62198 3.83185 0
M  V30 5459 H 509.146 -2.54161 4.86511 0
M  V30 5460 H 509.407 -3.04707 3.20322 0
M  V30 5461 N 508.466 -1.55915 -0.229846 0
M  V30 5462 C 509.376 -1.94891 -1.30593 0
M  V30 5463 C 510.392 -0.851604 -1.51736 0
M  V30 5464 O 511.568 -1.15447 -1.65027 0
M  V30 5465 C 508.633 -2.25052 -2.63728 0
M  V30 5466 C 507.694 -3.48306 -2.5096 0
M  V30 5467 C 506.927 -3.77019 -3.77747 0
M  V30 5468 O 507.15 -3.07534 -4.80395 0
M  V30 5469 O 506.084 -4.70523 -3.75356 0
M  V30 5470 H 509.91 -2.86581 -1.00525 0
M  V30 5471 H 507.495 -1.43017 -0.432025 0
M  V30 5472 H 509.377 -2.45682 -3.42372 0
M  V30 5473 H 508.052 -1.36538 -2.93495 0
M  V30 5474 H 506.959 -3.32964 -1.70546 0
M  V30 5475 H 508.292 -4.37177 -2.26136 0
M  V30 5476 N 509.944 0.496216 -1.49584 0
M  V30 5477 C 511.172 1.27394 -1.63029 0
M  V30 5478 C 511.587 1.86344 -0.303569 0
M  V30 5479 O 510.944 1.68057 0.711547 0
M  V30 5480 C 510.995 2.40077 -2.70269 0
M  V30 5481 O 510.716 1.83549 -3.97796 0
M  V30 5482 C 512.217 3.31372 -2.94462 0
M  V30 5483 H 509.437 0.386211 -0.54871 0
M  V30 5484 H 511.981 0.595163 -1.95648 0
M  V30 5485 H 510.136 3.03775 -2.40415 0
M  V30 5486 H 510.55 2.57561 -4.56905 0
M  V30 5487 H 512.024 4.06707 -3.73221 0
M  V30 5488 H 512.501 3.88654 -2.0456 0
M  V30 5489 H 513.107 2.73435 -3.25751 0
M  V30 5490 N 511.423 1.38739 0.74761 0
M  V30 5491 C 512.648 1.38702 1.54197 0
M  V30 5492 C 513.073 -0.019664 1.8809 0
M  V30 5493 O 512.431 -1.00333 1.51006 0
M  V30 5494 C 512.479 2.25492 2.814 0
M  V30 5495 O 511.583 1.67613 3.76802 0
M  V30 5496 H 510.924 0.472863 0.466151 0
M  V30 5497 H 513.454 1.82577 0.923413 0
M  V30 5498 H 513.464 2.39561 3.30264 0
M  V30 5499 H 512.139 3.27727 2.56062 0
M  V30 5500 H 510.716 1.62718 3.35526 0
M  V30 5501 N 512.901 -0.976442 1.23707 0
M  V30 5502 C 514.317 -1.24341 1.00058 0
M  V30 5503 C 514.517 -1.99315 -0.295932 0
M  V30 5504 O 513.573 -2.3123 -1.01435 0
M  V30 5505 C 514.886 -2.03909 2.21001 0
M  V30 5506 C 516.434 -2.17034 2.25534 0
M  V30 5507 C 516.909 -2.99994 3.46075 0
M  V30 5508 N 518.4 -3.07578 3.46338 0
M  V30 5509 C 519.135 -3.72104 4.36264 0
M  V30 5510 N 518.631 -4.3842 5.36432 0
M  V30 5511 N 520.424 -3.69029 4.23998 0
M  V30 5512 H 512.575 -0.47428 2.07037 0
M  V30 5513 H 514.838 -0.272167 0.908091 0
M  V30 5514 H 514.544 -1.56198 3.15111 0
M  V30 5515 H 514.418 -3.04654 2.22409 0
M  V30 5516 H 516.805 -2.63951 1.31961 0
M  V30 5517 H 516.886 -1.15664 2.28156 0
M  V30 5518 H 516.53 -2.53772 4.39957 0
M  V30 5519 H 516.46 -4.01541 3.40694 0
M  V30 5520 H 518.951 -2.60397 2.73865 0
M  V30 5521 H 519.264 -4.85447 6.013 0
M  V30 5522 H 517.609 -4.37116 5.40328 0
M  V30 5523 H 520.8 -3.16392 3.44984 0
M  V30 5524 H 520.973 -4.19034 4.94282 0
M  V30 5525 N 514.379 -1.04941 -1.1758 0
M  V30 5526 C 515.342 -0.652456 -2.19717 0
M  V30 5527 C 516.342 0.294745 -1.58076 0
M  V30 5528 O 517.532 0.0789579 -1.74021 0
M  V30 5529 C 514.664 0.0420712 -3.40874 0
M  V30 5530 H 515.857 -1.55642 -2.5635 0
M  V30 5531 H 513.41 -0.842995 -1.31618 0
M  V30 5532 H 514.145 0.95943 -3.09783 0
M  V30 5533 H 513.93 -0.638844 -3.86861 0
M  V30 5534 H 515.42 0.306 -4.16477 0
M  V30 5535 N 515.857 1.33968 -0.830081 0
M  V30 5536 C 517.103 1.98357 -0.422191 0
M  V30 5537 C 517.436 1.65633 1.01387 0
M  V30 5538 O 516.711 0.931648 1.70735 0
M  V30 5539 C 516.994 3.54492 -0.633043 0
M  V30 5540 C 516.847 3.96934 -2.11574 0
M  V30 5541 C 518.166 4.40039 -0.0735584 0
M  V30 5542 H 515.285 0.720544 -0.154871 0
M  V30 5543 H 517.927 1.58749 -1.04397 0
M  V30 5544 H 516.077 3.88361 -0.103775 0
M  V30 5545 H 517.749 3.73363 -2.7092 0
M  V30 5546 H 515.992 3.46984 -2.60354 0
M  V30 5547 H 516.663 5.05651 -2.21406 0
M  V30 5548 H 519.139 4.12764 -0.52585 0
M  V30 5549 H 518.015 5.48327 -0.250841 0
M  V30 5550 H 518.276 4.30124 1.02202 0
M  V30 5551 N 517.335 0.585699 1.46312 0
M  V30 5552 C 518.746 0.159938 1.86014 0
M  V30 5553 C 519.097 -1.27775 1.48889 0
M  V30 5554 O 518.222 -1.96559 0.90519 0
M  V30 5555 C 518.817 0.283485 3.37612 0
M  V30 5556 C 517.376 -0.0874256 3.76298 0
M  V30 5557 C 516.523 0.618055 2.70325 0
M  V30 5558 H 519.474 0.793737 1.37425 0
M  V30 5559 H 519.495 -0.490348 3.77327 0
M  V30 5560 H 519.007 1.32995 3.64601 0
M  V30 5561 H 517.108 -1.13391 3.54927 0
M  V30 5562 H 517.221 0.290975 4.78216 0
M  V30 5563 H 515.585 0.057993 2.54634 0
M  V30 5564 H 516.368 1.66623 3.00153 0
M  V30 5565 N 518.813 -1.54241 0.323641 0
M  V30 5566 C 519.743 -2.27289 -0.534993 0
M  V30 5567 C 520.724 -1.28087 -1.11927 0
M  V30 5568 O 521.909 -1.56899 -1.14439 0
M  V30 5569 C 519.039 -3.03075 -1.69596 0
M  V30 5570 C 517.993 -4.09614 -1.24098 0
M  V30 5571 C 517.319 -4.73242 -2.4889 0
M  V30 5572 C 518.619 -5.21087 -0.355789 0
M  V30 5573 H 520.313 -2.99308 0.0743257 0
M  V30 5574 H 517.859 -1.43952 0.0371874 0
M  V30 5575 H 519.812 -3.52907 -2.30293 0
M  V30 5576 H 518.536 -2.28673 -2.33187 0
M  V30 5577 H 517.195 -3.60666 -0.656945 0
M  V30 5578 H 516.843 -3.95455 -3.10845 0
M  V30 5579 H 516.543 -5.45209 -2.19138 0
M  V30 5580 H 518.067 -5.25848 -3.10348 0
M  V30 5581 H 519.481 -5.66675 -0.869042 0
M  V30 5582 H 517.878 -5.9991 -0.151045 0
M  V30 5583 H 518.948 -4.81005 0.613339 0
M  V30 5584 N 520.291 -0.0518155 -1.57515 0
M  V30 5585 C 521.254 0.907547 -2.10467 0
M  V30 5586 C 522.254 1.23947 -1.02439 0
M  V30 5587 O 523.444 1.17604 -1.2851 0
M  V30 5588 C 520.576 2.21723 -2.58944 0
M  V30 5589 H 521.769 0.44851 -2.96527 0
M  V30 5590 H 519.322 0.196598 -1.55059 0
M  V30 5591 H 520.057 2.72206 -1.76279 0
M  V30 5592 H 519.842 1.98935 -3.37886 0
M  V30 5593 H 521.332 2.90441 -3.00056 0
M  V30 5594 N 521.769 1.56035 0.221574 0
M  V30 5595 C 523.017 1.78693 0.944102 0
M  V30 5596 C 523.338 0.620317 1.8487 0
M  V30 5597 O 522.608 -0.362784 1.92512 0
M  V30 5598 H 521.188 0.659082 0.351597 0
M  V30 5599 H 523.85 1.93497 0.233435 0
M  V30 5600 H 522.946 2.70837 1.55093 0
M  V30 5601 N 523.247 -0.488276 1.49845 0
M  V30 5602 C 524.494 -1.24157 1.59973 0
M  V30 5603 C 524.822 -1.92293 0.292182 0
M  V30 5604 O 524.077 -1.81942 -0.720813 0
M  V30 5605 C 524.376 -2.32152 2.71735 0
M  V30 5606 C 524.042 -1.81387 4.12807 0
M  V30 5607 C 522.704 -1.67262 4.51195 0
M  V30 5608 C 525.056 -1.43537 5.01045 0
M  V30 5609 C 522.384 -1.13685 5.7558 0
M  V30 5610 C 524.736 -0.914081 6.25961 0
M  V30 5611 C 523.4 -0.759327 6.63167 0
M  V30 5612 H 522.67 -0.454322 0.585383 0
M  V30 5613 H 525.317 -0.540261 1.83721 0
M  V30 5614 H 523.622 -3.08122 2.42008 0
M  V30 5615 H 525.319 -2.90164 2.76778 0
M  V30 5616 H 521.909 -1.93344 3.82513 0
M  V30 5617 H 526.093 -1.53292 4.72033 0
M  V30 5618 H 521.349 -1.00426 6.03096 0
M  V30 5619 H 525.523 -0.612066 6.93705 0
M  V30 5620 H 523.15 -0.342002 7.5943 0
M  V30 5621 N 524.725 -1.39134 -0.740242 0
M  V30 5622 C 525.973 -1.35803 -1.49673 0
M  V30 5623 C 526.294 0.0470897 -1.94943 0
M  V30 5624 O 525.564 0.997347 -1.68611 0
M  V30 5625 H 524.144 -0.499736 -0.555224 0
M  V30 5626 H 526.806 -1.73947 -0.879107 0
M  V30 5627 H 525.902 -2.0174 -2.38133 0
M  V30 5628 N 526.204 0.969867 -1.24223 0
M  V30 5629 C 527.434 1.74502 -1.106 0
M  V30 5630 C 527.842 1.86038 0.344483 0
M  V30 5631 O 527.185 1.3465 1.24961 0
M  V30 5632 C 527.247 3.18391 -1.66935 0
M  V30 5633 C 526.911 3.30334 -3.15798 0
M  V30 5634 C 527.908 3.15832 -4.12973 0
M  V30 5635 C 525.593 3.54644 -3.55715 0
M  V30 5636 C 527.587 3.25461 -5.48045 0
M  V30 5637 C 525.274 3.63912 -4.90929 0
M  V30 5638 C 526.272 3.49332 -5.86904 0
M  V30 5639 O 525.96 3.58251 -7.1966 0
M  V30 5640 H 525.692 0.554119 -0.387206 0
M  V30 5641 H 528.246 1.22646 -1.64764 0
M  V30 5642 H 526.476 3.71543 -1.07203 0
M  V30 5643 H 528.165 3.77707 -1.48634 0
M  V30 5644 H 528.931 2.96937 -3.83476 0
M  V30 5645 H 524.81 3.65059 -2.81519 0
M  V30 5646 H 528.354 3.13998 -6.22937 0
M  V30 5647 H 524.251 3.82319 -5.20098 0
M  V30 5648 H 525.019 3.7498 -7.27552 0
M  V30 5649 N 527.682 1.05563 1.17022 0
M  V30 5650 C 528.93 0.76642 1.87004 0
M  V30 5651 C 529.251 -0.708854 1.8166 0
M  V30 5652 O 528.521 -1.51242 1.2451 0
M  V30 5653 H 527.101 0.280516 0.692329 0
M  V30 5654 H 529.763 1.33557 1.41945 0
M  V30 5655 H 528.859 1.08472 2.92644 0
M  V30 5656 N 529.16 -1.33526 0.837174 0
M  V30 5657 C 530.09 -2.31764 0.284206 0
M  V30 5658 C 531.071 -1.58896 -0.607142 0
M  V30 5659 O 532.256 -1.86798 -0.531047 0
M  V30 5660 C 529.386 -3.43029 -0.542962 0
M  V30 5661 C 528.34 -4.27255 0.252451 0
M  V30 5662 C 527.666 -5.3012 -0.69836 0
M  V30 5663 C 528.966 -5.01229 1.46858 0
M  V30 5664 H 530.66 -2.78262 1.10502 0
M  V30 5665 H 528.206 -1.3378 0.532812 0
M  V30 5666 H 530.159 -4.1078 -0.940096 0
M  V30 5667 H 528.883 -2.95216 -1.39697 0
M  V30 5668 H 527.542 -3.61127 0.631124 0
M  V30 5669 H 527.19 -4.78564 -1.54872 0
M  V30 5670 H 526.89 -5.87353 -0.170274 0
M  V30 5671 H 528.414 -6.00737 -1.09305 0
M  V30 5672 H 529.828 -5.61756 1.14469 0
M  V30 5673 H 528.225 -5.68104 1.93333 0
M  V30 5674 H 529.295 -4.301 2.23924 0
M  V30 5675 N 530.638 -0.59345 -1.46 0
M  V30 5676 C 532.049 -0.169801 -1.85926 0
M  V30 5677 C 532.4 1.26984 -1.49565 0
M  V30 5678 O 531.525 1.96076 -0.915602 0
M  V30 5679 C 532.12 -0.301385 -3.37457 0
M  V30 5680 C 530.679 0.0674684 -3.7634 0
M  V30 5681 C 529.826 -0.632383 -2.69993 0
M  V30 5682 H 532.777 -0.801014 -1.37002 0
M  V30 5683 H 532.798 0.470331 -3.77582 0
M  V30 5684 H 532.31 -1.34927 -3.63891 0
M  V30 5685 H 530.411 1.11507 -3.55523 0
M  V30 5686 H 530.524 -0.316332 -4.78055 0
M  V30 5687 H 528.888 -0.0714961 -2.546 0
M  V30 5688 H 529.671 -1.68212 -2.99265 0
M  V30 5689 N 532.116 1.54067 -0.331816 0
M  V30 5690 C 533.365 1.99895 0.269209 0
M  V30 5691 C 533.678 1.22371 1.52593 0
M  V30 5692 O 534.884 1.58618 2.20347 0
M  V30 5693 C 533.34 3.55972 0.530244 0
M  V30 5694 C 532.948 4.4234 -0.709901 0
M  V30 5695 C 534.692 4.10247 1.09077 0
M  V30 5696 C 532.599 5.89905 -0.420312 0
M  V30 5697 H 531.529 0.746741 0.104371 0
M  V30 5698 H 534.18 1.78014 -0.445324 0
M  V30 5699 H 532.562 3.73873 1.30518 0
M  V30 5700 H 533.736 4.36215 -1.48504 0
M  V30 5701 H 532.051 3.98997 -1.19123 0
M  V30 5702 H 534.648 5.18095 1.32219 0
M  V30 5703 H 534.991 3.62739 2.0427 0
M  V30 5704 H 535.524 3.96011 0.376824 0
M  V30 5705 H 532.263 6.41623 -1.34164 0
M  V30 5706 H 531.783 5.98962 0.316962 0
M  V30 5707 H 533.462 6.46991 -0.0331956 0
M  V30 5708 N 533.594 0.0601682 1.57485 0
M  V30 5709 C 534.819 -0.624416 1.97777 0
M  V30 5710 C 535.244 -1.63051 0.937867 0
M  V30 5711 O 534.602 -1.81036 -0.0978845 0
M  V30 5712 C 534.65 -1.27979 3.37126 0
M  V30 5713 O 533.754 -2.39556 3.35688 0
M  V30 5714 H 533.095 -0.161581 0.64404 0
M  V30 5715 H 535.625 0.131237 2.04179 0
M  V30 5716 H 535.635 -1.62937 3.74053 0
M  V30 5717 H 534.31 -0.542501 4.12347 0
M  V30 5718 H 532.887 -2.06478 3.10517 0
M  V30 5719 N 535.072 -1.5615 -0.213296 0
M  V30 5720 C 536.488 -1.49327 -0.56336 0
M  V30 5721 C 536.688 -0.756826 -1.86747 0
M  V30 5722 O 535.744 -0.299866 -2.50713 0
M  V30 5723 C 537.057 -2.9392 -0.634944 0
M  V30 5724 C 538.605 -3.04487 -0.725013 0
M  V30 5725 C 539.08 -4.50456 -0.82787 0
M  V30 5726 N 540.571 -4.54533 -0.891876 0
M  V30 5727 C 541.306 -5.64766 -0.991315 0
M  V30 5728 N 540.802 -6.84733 -1.05419 0
M  V30 5729 N 542.595 -5.52637 -1.02709 0
M  V30 5730 H 534.746 -2.02453 0.642366 0
M  V30 5731 H 537.009 -0.920548 0.226487 0
M  V30 5732 H 536.715 -3.50783 0.253859 0
M  V30 5733 H 536.589 -3.46274 -1.49579 0
M  V30 5734 H 538.976 -2.47685 -1.60425 0
M  V30 5735 H 539.057 -2.55289 0.161669 0
M  V30 5736 H 538.701 -5.07878 0.0469464 0
M  V30 5737 H 538.631 -4.97369 -1.73009 0
M  V30 5738 H 541.122 -3.68141 -0.85327 0
M  V30 5739 H 541.435 -7.64493 -1.13007 0
M  V30 5740 H 539.78 -6.87427 -1.02318 0
M  V30 5741 H 542.971 -4.5784 -0.974687 0
M  V30 5742 H 543.144 -6.38576 -1.10113 0
M  V30 5743 N 536.55 0.480323 -1.50102 0
M  V30 5744 C 537.48 1.58769 -1.71215 0
M  V30 5745 C 538.461 1.60583 -0.560997 0
M  V30 5746 O 539.646 1.76996 -0.799127 0
M  V30 5747 C 536.776 2.97148 -1.79778 0
M  V30 5748 C 535.73 3.10201 -2.94888 0
M  V30 5749 C 535.056 4.50137 -2.88584 0
M  V30 5750 C 536.356 2.88283 -4.35534 0
M  V30 5751 H 538.05 1.41354 -2.6393 0
M  V30 5752 H 535.596 0.678591 -1.27008 0
M  V30 5753 H 537.549 3.74536 -1.93133 0
M  V30 5754 H 536.273 3.15699 -0.836772 0
M  V30 5755 H 534.932 2.35244 -2.81169 0
M  V30 5756 H 534.58 4.65593 -1.90349 0
M  V30 5757 H 534.28 4.59808 -3.65856 0
M  V30 5758 H 535.804 5.29558 -3.03976 0
M  V30 5759 H 537.218 3.55427 -4.49827 0
M  V30 5760 H 535.615 3.09408 -5.14186 0
M  V30 5761 H 536.685 1.84219 -4.48544 0
M  V30 5762 N 538.028 1.39524 0.732853 0
M  V30 5763 C 539.258 1.3994 1.51988 0
M  V30 5764 C 539.666 -0.00727973 1.89199 0
M  V30 5765 O 539.009 -0.989521 1.54771 0
M  V30 5766 C 539.071 2.21026 2.83527 0
M  V30 5767 C 538.735 3.69633 2.68738 0
M  V30 5768 C 539.732 4.62665 2.37143 0
M  V30 5769 C 537.417 4.13244 2.85542 0
M  V30 5770 C 539.411 5.97291 2.22536 0
M  V30 5771 C 537.098 5.47945 2.70554 0
M  V30 5772 C 538.096 6.39783 2.39097 0
M  V30 5773 O 537.784 7.72002 2.24204 0
M  V30 5774 H 537.516 0.479795 0.476206 0
M  V30 5775 H 540.07 1.8399 0.913054 0
M  V30 5776 H 538.3 1.71728 3.46477 0
M  V30 5777 H 539.989 2.13594 3.45156 0
M  V30 5778 H 540.755 4.30272 2.2381 0
M  V30 5779 H 536.634 3.42094 3.09019 0
M  V30 5780 H 540.178 6.68939 1.97905 0
M  V30 5781 H 536.075 5.79928 2.83466 0
M  V30 5782 H 536.843 7.8275 2.39258 0
M  V30 5783 N 539.506 -0.963266 1.24736 0
M  V30 5784 C 540.469 -2.04013 1.04457 0
M  V30 5785 C 541.469 -1.608 0.000335555 0
M  V30 5786 O 542.659 -1.72515 0.241719 0
M  V30 5787 C 539.791 -3.35858 0.584162 0
M  V30 5788 H 540.984 -2.23436 2.00041 0
M  V30 5789 H 538.537 -1.13914 1.07021 0
M  V30 5790 H 539.272 -3.22128 -0.374673 0
M  V30 5791 H 539.057 -3.68568 1.3379 0
M  V30 5792 H 540.547 -4.1502 0.463451 0
M  V30 5793 N 540.985 -1.06182 -1.16461 0
M  V30 5794 C 541.917 -0.629584 -2.20383 0
M  V30 5795 C 542.93 0.311834 -1.59786 0
M  V30 5796 O 544.119 0.103 -1.78203 0
M  V30 5797 C 541.219 0.0973695 -3.3876 0
M  V30 5798 C 540.392 -0.857252 -4.28917 0
M  V30 5799 C 539.451 -0.169749 -5.25926 0
M  V30 5800 O 538.477 -0.807044 -5.6345 0
M  V30 5801 N 539.679 1.08911 -5.70192 0
M  V30 5802 H 542.444 -1.52352 -2.58087 0
M  V30 5803 H 540.005 -0.944993 -1.31459 0
M  V30 5804 H 541.997 0.567676 -4.00699 0
M  V30 5805 H 540.567 0.893093 -2.99571 0
M  V30 5806 H 539.787 -1.50696 -3.64259 0
M  V30 5807 H 541.075 -1.50489 -4.86035 0
M  V30 5808 H 540.473 1.62703 -5.41797 0
M  V30 5809 H 539.03 1.50331 -6.34227 0
M  V30 5810 N 542.463 1.3308 -0.844243 0
M  V30 5811 C 543.693 2.01515 -0.455541 0
M  V30 5812 C 544.101 1.63655 0.949406 0
M  V30 5813 O 543.444 0.84848 1.62931 0
M  V30 5814 C 543.506 3.55967 -0.502801 0
M  V30 5815 C 543.17 4.17222 -1.86481 0
M  V30 5816 C 544.167 4.36205 -2.8288 0
M  V30 5817 C 541.852 4.53528 -2.15911 0
M  V30 5818 C 543.846 4.90649 -4.06869 0
M  V30 5819 C 541.533 5.07679 -3.40155 0
M  V30 5820 C 542.531 5.26186 -4.35451 0
M  V30 5821 O 542.219 5.79183 -5.57496 0
M  V30 5822 H 541.951 0.65199 -0.178565 0
M  V30 5823 H 544.505 1.70867 -1.1399 0
M  V30 5824 H 542.735 3.85965 0.23836 0
M  V30 5825 H 544.424 4.05688 -0.131169 0
M  V30 5826 H 545.19 4.085 -2.61444 0
M  V30 5827 H 541.069 4.38414 -1.42528 0
M  V30 5828 H 544.613 5.0501 -4.81259 0
M  V30 5829 H 540.51 5.34815 -3.61446 0
M  V30 5830 H 541.278 5.97591 -5.5931 0
M  V30 5831 N 543.941 0.601185 1.45683 0
M  V30 5832 C 545.188 0.0938811 2.02282 0
M  V30 5833 C 545.516 -1.27315 1.47041 0
M  V30 5834 O 544.771 -1.85193 0.632623 0
M  V30 5835 C 545.07 -0.00222425 3.574 0
M  V30 5836 C 544.736 1.29963 4.31764 0
M  V30 5837 C 543.398 1.65625 4.51798 0
M  V30 5838 C 545.75 2.1603 4.74321 0
M  V30 5839 C 543.078 2.87119 5.11644 0
M  V30 5840 C 545.43 3.36766 5.3551 0
M  V30 5841 C 544.094 3.72689 5.53768 0
M  V30 5842 H 543.364 0.0343535 0.740203 0
M  V30 5843 H 546.011 0.781522 1.74827 0
M  V30 5844 H 544.316 -0.773096 3.84097 0
M  V30 5845 H 546.013 -0.410794 3.9889 0
M  V30 5846 H 542.603 1.01204 4.1648 0
M  V30 5847 H 546.787 1.89778 4.58582 0
M  V30 5848 H 542.043 3.15065 5.2397 0
M  V30 5849 H 546.217 4.03713 5.67441 0
M  V30 5850 H 543.844 4.66918 5.99909 0
M  V30 5851 N 545.419 -1.53889 0.339982 0
M  V30 5852 C 546.351 -2.22435 -0.55275 0
M  V30 5853 C 547.364 -1.22975 -1.06681 0
M  V30 5854 O 548.553 -1.49351 -0.977575 0
M  V30 5855 C 545.653 -2.8882 -1.77302 0
M  V30 5856 C 544.826 -4.14563 -1.39486 0
M  V30 5857 C 543.885 -4.64391 -2.47442 0
M  V30 5858 O 542.911 -5.28687 -2.10899 0
M  V30 5859 N 544.113 -4.40015 -3.78639 0
M  V30 5860 H 546.878 -2.9968 0.0342669 0
M  V30 5861 H 544.439 -1.61068 0.16394 0
M  V30 5862 H 546.431 -3.19072 -2.48948 0
M  V30 5863 H 545.001 -2.15182 -2.26749 0
M  V30 5864 H 544.221 -3.90896 -0.509321 0
M  V30 5865 H 545.509 -4.96362 -1.11813 0
M  V30 5866 H 544.907 -3.88586 -4.11118 0
M  V30 5867 H 543.464 -4.74881 -4.46465 0
M  V30 5868 N 546.897 -0.0685191 -1.57451 0
M  V30 5869 C 548.145 0.60016 -1.92983 0
M  V30 5870 C 548.466 1.70348 -0.949028 0
M  V30 5871 O 547.736 1.959 0.00335647 0
M  V30 5872 H 546.316 0.224682 -0.712409 0
M  V30 5873 H 548.978 -0.125605 -1.94495 0
M  V30 5874 H 548.074 1.02759 -2.94698 0
M  V30 5875 N 548.375 1.56261 0.205012 0
M  V30 5876 C 549.652 1.70856 0.952233 0
M  V30 5877 C 550.032 0.620501 2.01775 0
M  V30 5878 O 549.38 -0.370035 2.25484 0
M  V30 5879 C 549.59 3.12807 1.54767 0
M  V30 5880 C 550.938 3.72733 2.0336 0
M  V30 5881 O 551.962 3.15873 1.64629 0
M  V30 5882 O 550.821 4.72501 2.746 0
M  V30 5883 H 547.915 0.696496 0.445895 0
M  V30 5884 H 550.461 1.6857 0.195489 0
M  V30 5885 H 549.233 3.83465 0.779132 0
M  V30 5886 H 548.856 3.1928 2.36951 0
M  V30 5887 N 549.853 -0.472356 1.50355 0
M  V30 5888 C 550.783 -1.57859 1.72055 0
M  V30 5889 C 551.764 -1.60283 0.569505 0
M  V30 5890 O 552.949 -1.7657 0.808503 0
M  V30 5891 C 550.079 -2.96191 1.81351 0
M  V30 5892 C 549.033 -3.08633 2.96529 0
M  V30 5893 C 548.359 -4.486 2.90968 0
M  V30 5894 C 549.659 -2.85969 4.37057 0
M  V30 5895 H 551.353 -1.39953 2.64676 0
M  V30 5896 H 548.899 -0.671846 1.27367 0
M  V30 5897 H 550.852 -3.73507 1.95117 0
M  V30 5898 H 549.576 -3.15251 0.853502 0
M  V30 5899 H 548.235 -2.33749 2.82413 0
M  V30 5900 H 547.883 -4.64577 1.92815 0
M  V30 5901 H 547.583 -4.57861 3.68289 0
M  V30 5902 H 549.107 -5.27938 3.0678 0
M  V30 5903 H 550.521 -3.53036 4.51706 0
M  V30 5904 H 548.918 -3.06677 5.15819 0
M  V30 5905 H 549.988 -1.81838 4.49514 0
M  V30 5906 N 551.331 -1.39911 -0.725443 0
M  V30 5907 C 552.278 -1.39393 -1.83952 0
M  V30 5908 C 553.248 -0.252249 -1.64173 0
M  V30 5909 O 554.433 -0.44882 -1.85446 0
M  V30 5910 C 551.573 -1.25262 -3.21564 0
M  V30 5911 C 550.686 -2.49054 -3.52982 0
M  V30 5912 C 549.821 -2.27439 -4.80047 0
M  V30 5913 C 548.86 -3.46857 -5.04338 0
M  V30 5914 N 547.997 -3.24499 -6.22611 0
M  V30 5915 H 552.837 -2.34622 -1.83729 0
M  V30 5916 H 550.374 -1.16537 -0.897636 0
M  V30 5917 H 552.332 -1.15077 -4.01015 0
M  V30 5918 H 550.962 -0.33657 -3.21041 0
M  V30 5919 H 550.014 -2.69805 -2.6816 0
M  V30 5920 H 551.326 -3.37973 -3.66846 0
M  V30 5921 H 550.48 -2.14551 -5.67497 0
M  V30 5922 H 549.219 -1.35929 -4.68374 0
M  V30 5923 H 548.224 -3.60232 -4.15346 0
M  V30 5924 H 549.449 -4.3928 -5.17889 0
M  V30 5925 H 547.395 -2.35663 -6.12208 0
M  V30 5926 H 547.312 -4.06978 -6.37106 0
M  V30 5927 H 548.58 -3.15325 -7.12875 0
M  V30 5928 N 552.809 0.956637 -1.25245 0
M  V30 5929 C 553.739 2.07058 -1.07931 0
M  V30 5930 C 554.72 1.70096 0.0110361 0
M  V30 5931 O 555.905 1.93555 -0.158121 0
M  V30 5932 C 553.035 3.40272 -0.695124 0
M  V30 5933 C 551.989 3.91235 -1.73549 0
M  V30 5934 C 551.315 5.20921 -1.20604 0
M  V30 5935 C 552.615 4.17837 -3.13385 0
M  V30 5936 H 554.309 2.218 -2.01109 0
M  V30 5937 H 551.855 1.06581 -0.968326 0
M  V30 5938 H 553.808 4.1765 -0.560949 0
M  V30 5939 H 552.532 3.25462 0.272355 0
M  V30 5940 H 551.191 3.16025 -1.85807 0
M  V30 5941 H 550.839 5.02479 -0.228846 0
M  V30 5942 H 550.539 5.55987 -1.90136 0
M  V30 5943 H 552.063 6.00897 -1.08421 0
M  V30 5944 H 553.477 4.8588 -3.04292 0
M  V30 5945 H 551.874 4.64154 -3.80369 0
M  V30 5946 H 552.944 3.2419 -3.60595 0
M  V30 5947 N 554.287 1.06798 1.15896 0
M  V30 5948 C 555.517 0.807522 1.90165 0
M  V30 5949 C 555.925 -0.642417 1.7796 0
M  V30 5950 O 555.268 -1.45193 1.12537 0
M  V30 5951 C 555.33 1.12939 3.41299 0
M  V30 5952 C 554.994 2.57879 3.7729 0
M  V30 5953 C 555.991 3.56118 3.78782 0
M  V30 5954 C 553.676 2.93311 4.07767 0
M  V30 5955 C 555.67 4.87827 4.10248 0
M  V30 5956 C 553.357 4.25219 4.38899 0
M  V30 5957 C 554.355 5.22287 4.4012 0
M  V30 5958 O 554.043 6.51826 4.70508 0
M  V30 5959 H 553.775 0.291946 0.609708 0
M  V30 5960 H 556.329 1.42627 1.47806 0
M  V30 5961 H 554.559 0.45359 3.84031 0
M  V30 5962 H 556.248 0.852363 3.9685 0
M  V30 5963 H 557.014 3.30086 3.55342 0
M  V30 5964 H 552.893 2.18409 4.05979 0
M  V30 5965 H 556.437 5.63586 4.11116 0
M  V30 5966 H 552.334 4.51006 4.61805 0
M  V30 5967 H 553.102 6.56893 4.88298 0
M  V30 5968 N 555.766 -1.3263 0.851289 0
M  V30 5969 C 556.991 -2.02097 0.466006 0
M  V30 5970 C 557.416 -1.63574 -0.928709 0
M  V30 5971 O 556.774 -0.834665 -1.60944 0
M  V30 5972 C 556.822 -3.55425 0.608737 0
M  V30 5973 O 555.926 -4.10827 -0.359878 0
M  V30 5974 H 555.267 -0.636911 0.187724 0
M  V30 5975 H 557.797 -1.69253 1.14955 0
M  V30 5976 H 557.807 -4.04986 0.495006 0
M  V30 5977 H 556.482 -3.82806 1.62581 0
M  V30 5978 H 555.059 -3.72349 -0.202666 0
M  V30 5979 N 557.244 -0.608902 -1.45362 0
M  V30 5980 C 558.174 0.0964526 -2.33301 0
M  V30 5981 C 559.155 0.857444 -1.46908 0
M  V30 5982 O 560.34 0.827735 -1.75676 0
M  V30 5983 C 557.47 1.09354 -3.29635 0
M  V30 5984 C 556.424 0.445676 -4.25673 0
M  V30 5985 C 555.75 1.5511 -5.11708 0
M  V30 5986 C 557.05 -0.633972 -5.18438 0
M  V30 5987 H 558.744 -0.637829 -2.92527 0
M  V30 5988 H 556.29 -0.308178 -1.40664 0
M  V30 5989 H 558.243 1.59556 -3.90025 0
M  V30 5990 H 556.967 1.85843 -2.6857 0
M  V30 5991 H 555.626 -0.0354897 -3.66583 0
M  V30 5992 H 555.274 2.30631 -4.4701 0
M  V30 5993 H 554.974 1.12311 -5.76767 0
M  V30 5994 H 556.498 2.05537 -5.74967 0
M  V30 5995 H 557.912 -0.215974 -5.72893 0
M  V30 5996 H 556.309 -0.983789 -5.91981 0
M  V30 5997 H 557.379 -1.51005 -4.60788 0
M  V30 5998 N 558.722 1.53707 -0.348139 0
M  V30 5999 C 559.632 2.28881 0.514857 0
M  V30 6000 C 560.648 1.34168 1.10793 0
M  V30 6001 O 561.824 1.6721 1.12262 0
M  V30 6002 C 558.889 3.05042 1.64774 0
M  V30 6003 C 557.95 4.15389 1.08398 0
M  V30 6004 C 557.183 4.87909 2.16287 0
M  V30 6005 O 557.406 4.60137 3.3709 0
M  V30 6006 O 556.34 5.74254 1.80323 0
M  V30 6007 H 560.166 3.03547 -0.0963699 0
M  V30 6008 H 557.751 1.48972 -0.113043 0
M  V30 6009 H 559.633 3.52656 2.30677 0
M  V30 6010 H 558.308 2.33228 2.24469 0
M  V30 6011 H 557.215 3.72068 0.389341 0
M  V30 6012 H 558.548 4.89318 0.531829 0
M  V30 6013 N 560.2 0.0768682 1.57412 0
M  V30 6014 C 561.448 -0.589918 1.93299 0
M  V30 6015 C 561.769 -1.69842 0.958049 0
M  V30 6016 O 561.039 -1.95899 0.00703261 0
M  V30 6017 H 559.619 -0.220901 0.713591 0
M  V30 6018 H 562.281 0.135917 1.94425 0
M  V30 6019 H 561.377 -1.01195 2.95239 0
M  V30 6020 N 561.678 -1.56367 -0.196722 0
M  V30 6021 C 562.908 -1.84371 -0.932254 0
M  V30 6022 C 563.316 -0.657013 -1.77426 0
M  V30 6023 O 562.659 0.383576 -1.79651 0
M  V30 6024 C 562.721 -3.06454 -1.87952 0
M  V30 6025 C 562.385 -4.40425 -1.21962 0
M  V30 6026 C 563.382 -5.16457 -0.597343 0
M  V30 6027 C 561.067 -4.8716 -1.22396 0
M  V30 6028 C 563.061 -6.37399 0.0117913 0
M  V30 6029 C 560.748 -6.08038 -0.610995 0
M  V30 6030 C 561.746 -6.83 0.00580487 0
M  V30 6031 O 561.434 -8.01589 0.609173 0
M  V30 6032 H 561.166 -0.616377 -0.277589 0
M  V30 6033 H 563.72 -2.04329 -0.209452 0
M  V30 6034 H 561.95 -2.82377 -2.64197 0
M  V30 6035 H 563.639 -3.21118 -2.48271 0
M  V30 6036 H 564.405 -4.81445 -0.586142 0
M  V30 6037 H 560.284 -4.2877 -1.69345 0
M  V30 6038 H 563.828 -6.9585 0.493836 0
M  V30 6039 H 559.725 -6.42519 -0.619693 0
M  V30 6040 H 560.493 -8.16935 0.505919 0
M  V30 6041 N 563.156 0.464375 -1.50603 0
M  V30 6042 C 564.404 1.21356 -1.61608 0
M  V30 6043 C 564.725 1.92329 -0.321643 0
M  V30 6044 O 563.995 1.84403 0.661232 0
M  V30 6045 H 562.575 0.45094 -0.595535 0
M  V30 6046 H 565.237 0.535046 -1.87412 0
M  V30 6047 H 564.333 1.95783 -2.43054 0
M  V30 6048 N 564.634 1.40294 0.718013 0
M  V30 6049 C 565.862 1.4175 1.50714 0
M  V30 6050 C 566.277 0.0165366 1.88793 0
M  V30 6051 O 565.634 -0.958942 1.55276 0
M  V30 6052 C 565.685 2.30598 2.784 0
M  V30 6053 O 565.406 3.6524 2.41932 0
M  V30 6054 C 566.907 2.4062 3.72313 0
M  V30 6055 H 564.127 0.483565 0.465194 0
M  V30 6056 H 566.671 1.84316 0.885889 0
M  V30 6057 H 564.826 1.91401 3.36815 0
M  V30 6058 H 565.24 4.12402 3.24076 0
M  V30 6059 H 566.714 3.07001 4.58753 0
M  V30 6060 H 567.191 1.4305 4.15251 0
M  V30 6061 H 567.797 2.80359 3.19811 0
M  V30 6062 N 566.112 -0.949982 1.2575 0
M  V30 6063 C 567.389 -1.6718 1.01539 0
M  V30 6064 C 567.769 -2.06095 -0.456942 0
M  V30 6065 O 567.117 -1.77792 -1.43534 0
M  V30 6066 C 567.327 -2.8906 1.95564 0
M  V30 6067 C 568.675 -3.60909 2.23673 0
M  V30 6068 O 569.699 -2.9915 1.9336 0
M  V30 6069 O 568.558 -4.72127 2.75243 0
M  V30 6070 H 565.652 -0.731697 0.385419 0
M  V30 6071 H 568.198 -1.00249 1.36924 0
M  V30 6072 H 566.97 -2.57128 2.94959 0
M  V30 6073 H 566.593 -3.63719 1.60605 0
M  V30 6074 N 567.59 -1.07411 -1.15328 0
M  V30 6075 C 568.553 -0.698914 -2.18284 0
M  V30 6076 C 569.553 0.261149 -1.58665 0
M  V30 6077 O 570.743 0.0420277 -1.74149 0
M  V30 6078 C 567.875 -0.0302427 -3.40887 0
M  V30 6079 H 569.068 -1.61045 -2.52991 0
M  V30 6080 H 566.621 -0.870724 -1.298 0
M  V30 6081 H 567.356 0.893505 -3.11748 0
M  V30 6082 H 567.141 -0.720759 -3.85419 0
M  V30 6083 H 568.631 0.21759 -4.17033 0
M  V30 6084 N 569.068 1.32177 -0.85831 0
M  V30 6085 C 570.314 1.97417 -0.46417 0
M  V30 6086 C 570.647 1.67746 0.978514 0
M  V30 6087 O 569.922 0.967654 1.68721 0
M  V30 6088 C 570.205 3.53069 -0.708094 0
M  V30 6089 C 570.058 3.92357 -2.19946 0
M  V30 6090 C 571.377 4.39783 -0.166881 0
M  V30 6091 H 568.496 0.717097 -0.17012 0
M  V30 6092 H 571.138 1.56499 -1.07741 0
M  V30 6093 H 569.288 3.88054 -0.186128 0
M  V30 6094 H 570.96 3.67533 -2.78779 0
M  V30 6095 H 569.203 3.41384 -2.67656 0
M  V30 6096 H 569.874 5.00841 -2.32082 0
M  V30 6097 H 572.35 4.11556 -0.613285 0
M  V30 6098 H 571.226 5.47671 -0.367093 0
M  V30 6099 H 571.487 4.32196 0.930559 0
M  V30 6100 N 570.547 0.616602 1.45037 0
M  V30 6101 C 571.796 0.112861 2.01384 0
M  V30 6102 C 572.109 -1.26758 1.48969 0
M  V30 6103 O 573.315 -1.86454 1.9735 0
M  V30 6104 C 571.771 0.151057 3.59583 0
M  V30 6105 C 571.379 1.53191 4.20995 0
M  V30 6106 C 573.123 -0.296974 4.2346 0
M  V30 6107 C 571.03 1.526 5.71373 0
M  V30 6108 H 569.96 0.0384254 0.75302 0
M  V30 6109 H 572.611 0.773262 1.66412 0
M  V30 6110 H 570.993 -0.57617 3.91786 0
M  V30 6111 H 572.167 2.28156 4.00352 0
M  V30 6112 H 570.482 1.92279 3.69348 0
M  V30 6113 H 573.079 -0.320712 5.33737 0
M  V30 6114 H 573.422 -1.32145 3.9477 0
M  V30 6115 H 573.955 0.377279 3.96007 0
M  V30 6116 H 570.694 2.52837 6.04776 0
M  V30 6117 H 570.214 0.819064 5.94181 0
M  V30 6118 H 571.893 1.25357 6.3474 0
M  V30 6119 N 572.025 -1.5352 0.356285 0
M  V30 6120 C 573.255 -2.05236 -0.236983 0
M  V30 6121 C 573.663 -1.23016 -1.43749 0
M  V30 6122 O 573.006 -0.2615 -1.81829 0
M  V30 6123 C 573.068 -3.52549 -0.7035 0
M  V30 6124 C 572.732 -4.55425 0.379059 0
M  V30 6125 C 573.729 -5.0524 1.22592 0
M  V30 6126 C 571.414 -4.99425 0.536638 0
M  V30 6127 C 573.408 -5.97647 2.21578 0
M  V30 6128 C 571.095 -5.9164 1.52988 0
M  V30 6129 C 572.093 -6.4064 2.3679 0
M  V30 6130 O 571.781 -7.31039 3.34421 0
M  V30 6131 H 571.513 -0.674346 -0.047254 0
M  V30 6132 H 574.067 -1.98962 0.510238 0
M  V30 6133 H 572.297 -3.56331 -1.50217 0
M  V30 6134 H 573.986 -3.87171 -1.21873 0
M  V30 6135 H 574.752 -4.72002 1.11532 0
M  V30 6136 H 570.631 -4.60879 -0.105834 0
M  V30 6137 H 574.175 -6.35816 2.87025 0
M  V30 6138 H 570.072 -6.24293 1.64099 0
M  V30 6139 H 570.84 -7.49009 3.30041 0
M  V30 6140 N 573.503 -0.0852151 -1.57369 0
M  V30 6141 C 574.752 0.580443 -1.93168 0
M  V30 6142 C 575.065 1.6995 -0.968319 0
M  V30 6143 O 576.271 2.42564 -1.21963 0
M  V30 6144 C 574.727 1.08386 -3.43192 0
M  V30 6145 C 574.335 -0.00491388 -4.48 0
M  V30 6146 C 576.079 1.72281 -3.87968 0
M  V30 6147 C 573.986 0.513299 -5.89168 0
M  V30 6148 H 572.916 0.22059 -0.72101 0
M  V30 6149 H 575.567 -0.159621 -1.82804 0
M  V30 6150 H 573.949 1.8773 -3.48674 0
M  V30 6151 H 575.123 -0.780032 -4.5415 0
M  V30 6152 H 573.438 -0.548453 -4.12772 0
M  V30 6153 H 576.035 2.12108 -4.9083 0
M  V30 6154 H 576.378 2.58811 -3.26071 0
M  V30 6155 H 576.911 0.995359 -3.85146 0
M  V30 6156 H 573.65 -0.315153 -6.54742 0
M  V30 6157 H 573.17 1.25564 -5.8651 0
M  V30 6158 H 574.849 0.985433 -6.39451 0
M  V30 6159 N 574.981 1.5647 0.188427 0
M  V30 6160 C 575.928 1.95073 1.23349 0
M  V30 6161 C 576.898 0.812238 1.44886 0
M  V30 6162 O 578.083 1.07095 1.57909 0
M  V30 6163 C 575.223 2.30124 2.57171 0
M  V30 6164 C 574.336 3.57069 2.43157 0
M  V30 6165 C 573.471 3.81411 3.69729 0
M  V30 6166 C 572.51 5.0176 3.50575 0
M  V30 6167 N 571.647 5.22321 4.69175 0
M  V30 6168 H 576.487 2.84171 0.89728 0
M  V30 6169 H 574.024 1.40623 0.431683 0
M  V30 6170 H 575.982 2.48463 3.35145 0
M  V30 6171 H 574.612 1.44159 2.88822 0
M  V30 6172 H 573.664 3.4674 1.56447 0
M  V30 6173 H 574.976 4.452 2.24942 0
M  V30 6174 H 574.13 4.00026 4.56141 0
M  V30 6175 H 572.869 2.91624 3.90905 0
M  V30 6176 H 571.874 4.83061 2.62549 0
M  V30 6177 H 573.099 5.93063 3.30837 0
M  V30 6178 H 571.045 4.35483 4.90602 0
M  V30 6179 H 570.962 6.04643 4.53809 0
M  V30 6180 H 572.23 5.45401 5.56919 0
M  V30 6181 N 576.459 -0.456382 1.50847 0
M  V30 6182 C 577.422 -1.53493 1.70213 0
M  V30 6183 C 578.422 -1.50264 0.572481 0
M  V30 6184 O 579.612 -1.52623 0.839751 0
M  V30 6185 C 576.744 -2.93091 1.741 0
M  V30 6186 H 577.937 -1.37633 2.66453 0
M  V30 6187 H 575.49 -0.683776 1.4055 0
M  V30 6188 H 576.225 -3.14378 0.796063 0
M  V30 6189 H 576.01 -2.9684 2.5618 0
M  V30 6190 H 577.5 -3.71368 1.90987 0
M  V30 6191 N 577.937 -1.40673 -0.710563 0
M  V30 6192 C 578.867 -1.44095 -1.83736 0
M  V30 6193 C 579.848 -0.301286 -1.67411 0
M  V30 6194 O 581.033 -0.510618 -1.87367 0
M  V30 6195 C 578.163 -1.30773 -3.21738 0
M  V30 6196 C 577.117 -2.42395 -3.52745 0
M  V30 6197 C 576.443 -2.14147 -4.89944 0
M  V30 6198 C 577.743 -3.84738 -3.53234 0
M  V30 6199 H 579.437 -2.38396 -1.81129 0
M  V30 6200 H 576.983 -1.14746 -0.870017 0
M  V30 6201 H 578.936 -1.31783 -4.00264 0
M  V30 6202 H 577.66 -0.329507 -3.24934 0
M  V30 6203 H 576.319 -2.40643 -2.76562 0
M  V30 6204 H 575.967 -1.14703 -4.89747 0
M  V30 6205 H 575.667 -2.88934 -5.11655 0
M  V30 6206 H 577.191 -2.16848 -5.70797 0
M  V30 6207 H 578.605 -3.88286 -4.2179 0
M  V30 6208 H 577.002 -4.59085 -3.86473 0
M  V30 6209 H 578.072 -4.13962 -2.52514 0
M  V30 6210 N 579.415 0.9433 -1.26252 0
M  V30 6211 C 580.64 1.72898 -1.14547 0
M  V30 6212 C 581.065 1.85761 0.295743 0
M  V30 6213 O 580.423 1.3463 1.21427 0
M  V30 6214 C 580.471 3.11471 -1.8171 0
M  V30 6215 O 579.575 3.97336 -1.10445 0
M  V30 6216 H 578.916 0.530555 -0.399259 0
M  V30 6217 H 581.446 1.18159 -1.67032 0
M  V30 6218 H 581.456 3.61872 -1.88449 0
M  V30 6219 H 580.131 3.01425 -2.86558 0
M  V30 6220 H 578.708 3.55788 -1.11666 0
M  V30 6221 N 580.893 1.08022 1.14757 0
M  V30 6222 C 582.121 0.828847 1.89572 0
M  V30 6223 C 582.536 -0.618621 1.78377 0
M  V30 6224 O 581.893 -1.42482 1.1404 0
M  V30 6225 C 581.944 1.23677 3.39685 0
M  V30 6226 O 581.665 2.62746 3.50566 0
M  V30 6227 C 583.166 1.01569 4.31507 0
M  V30 6228 H 580.386 0.299196 0.600602 0
M  V30 6229 H 582.93 1.43846 1.45357 0
M  V30 6230 H 581.085 0.671347 3.81539 0
M  V30 6231 H 581.499 2.79573 4.43778 0
M  V30 6232 H 582.973 1.35055 5.35223 0
M  V30 6233 H 583.45 -0.0475433 4.39174 0
M  V30 6234 H 584.056 1.56636 3.95405 0
M  V30 6235 N 582.371 -1.3172 0.865308 0
M  V30 6236 C 583.648 -1.91574 0.394789 0
M  V30 6237 C 584.028 -1.78769 -1.12271 0
M  V30 6238 O 583.376 -1.19245 -1.94918 0
M  V30 6239 C 583.586 -3.37957 0.870982 0
M  V30 6240 C 584.934 -4.15073 0.894384 0
M  V30 6241 O 585.958 -3.4672 0.816325 0
M  V30 6242 O 584.817 -5.37151 1.00651 0
M  V30 6243 H 581.911 -0.818649 0.117229 0
M  V30 6244 H 584.457 -1.4042 0.952913 0
M  V30 6245 H 583.229 -3.41269 1.91444 0
M  V30 6246 H 582.852 -3.96534 0.290907 0
M  V30 6247 N 583.85 -0.624285 -1.44708 0
M  V30 6248 C 585.075 -0.131171 -2.06985 0
M  V30 6249 C 585.5 1.18234 -1.46295 0
M  V30 6250 O 584.858 1.72375 -0.561842 0
M  V30 6251 C 584.906 -0.0226724 -3.60593 0
M  V30 6252 O 584.01 1.02314 -3.99507 0
M  V30 6253 H 583.351 -0.0816556 -0.65896 0
M  V30 6254 H 585.88 -0.859027 -1.85693 0
M  V30 6255 H 585.891 0.170138 -4.07645 0
M  V30 6256 H 584.566 -0.981685 -4.04148 0
M  V30 6257 H 583.143 0.805452 -3.64097 0
M  V30 6258 N 585.328 1.53329 -0.364422 0
M  V30 6259 C 586.577 2.00421 0.226747 0
M  V30 6260 C 586.89 1.25581 1.49963 0
M  V30 6261 O 588.096 1.63256 2.16933 0
M  V30 6262 C 586.552 3.57017 0.454618 0
M  V30 6263 C 586.16 4.40734 -0.803568 0
M  V30 6264 C 587.904 4.12468 1.00351 0
M  V30 6265 C 585.811 5.8888 -0.545345 0
M  V30 6266 H 584.741 0.748787 0.0885082 0
M  V30 6267 H 587.392 1.7703 -0.482983 0
M  V30 6268 H 585.774 3.76558 1.22558 0
M  V30 6269 H 586.948 4.32967 -1.57723 0
M  V30 6270 H 585.263 3.96381 -1.27559 0
M  V30 6271 H 587.86 5.20783 1.212 0
M  V30 6272 H 588.203 3.6699 1.9653 0
M  V30 6273 H 588.736 3.96721 0.29274 0
M  V30 6274 H 585.475 6.38633 -1.47743 0
M  V30 6275 H 584.995 5.99499 0.189842 0
M  V30 6276 H 586.674 6.46776 -0.170425 0
M  V30 6277 N 586.806 0.0935595 1.57322 0
M  V30 6278 C 587.716 -0.880192 2.17462 0
M  V30 6279 C 588.732 -1.31135 1.14366 0
M  V30 6280 O 589.908 -1.37958 1.46729 0
M  V30 6281 C 586.973 -2.12184 2.74188 0
M  V30 6282 C 586.034 -1.74503 3.92234 0
M  V30 6283 C 585.267 -2.92748 4.46245 0
M  V30 6284 O 585.49 -4.07427 3.99198 0
M  V30 6285 O 584.424 -2.71303 5.37288 0
M  V30 6286 H 588.25 -0.398516 3.01074 0
M  V30 6287 H 585.835 -0.130707 1.48827 0
M  V30 6288 H 587.717 -2.84953 3.10451 0
M  V30 6289 H 586.392 -2.59407 1.93623 0
M  V30 6290 H 585.299 -0.989186 3.60785 0
M  V30 6291 H 586.632 -1.32044 4.74157 0
M  V30 6292 N 588.284 -1.56567 -0.180126 0
M  V30 6293 C 589.7 -1.50488 -0.531559 0
M  V30 6294 C 589.9 -0.796267 -1.851 0
M  V30 6295 O 588.956 -0.352978 -2.50021 0
M  V30 6296 C 590.269 -2.95201 -0.572456 0
M  V30 6297 C 591.817 -3.05957 -0.660264 0
M  V30 6298 C 592.292 -4.5211 -0.732135 0
M  V30 6299 N 593.783 -4.56322 -0.795262 0
M  V30 6300 C 594.518 -5.66742 -0.871296 0
M  V30 6301 N 594.014 -6.86815 -0.908708 0
M  V30 6302 N 595.807 -5.54691 -0.909639 0
M  V30 6303 H 587.958 -2.01045 0.685165 0
M  V30 6304 H 590.221 -0.915536 0.245962 0
M  V30 6305 H 589.927 -3.50165 0.328208 0
M  V30 6306 H 589.801 -3.49369 -1.422 0
M  V30 6307 H 592.188 -2.51032 -1.55136 0
M  V30 6308 H 592.269 -2.54888 0.215783 0
M  V30 6309 H 591.913 -5.07664 0.154664 0
M  V30 6310 H 591.843 -5.00926 -1.6242 0
M  V30 6311 H 594.334 -3.69868 -0.77499 0
M  V30 6312 H 594.647 -7.66718 -0.967654 0
M  V30 6313 H 592.992 -6.89443 -0.877132 0
M  V30 6314 H 596.183 -4.59804 -0.877353 0
M  V30 6315 H 596.356 -6.40768 -0.965434 0
M  V30 6316 N 589.762 0.448376 -1.51087 0
M  V30 6317 C 590.692 1.55102 -1.74544 0
M  V30 6318 C 591.673 1.59357 -0.594932 0
M  V30 6319 O 592.858 1.75261 -0.836491 0
M  V30 6320 C 589.988 2.93268 -1.86041 0
M  V30 6321 C 588.942 3.03877 -3.01402 0
M  V30 6322 C 588.268 4.43914 -2.98068 0
M  V30 6323 C 589.568 2.7898 -4.41551 0
M  V30 6324 H 591.262 1.35724 -2.66869 0
M  V30 6325 H 588.808 0.651498 -1.28419 0
M  V30 6326 H 590.761 3.70356 -2.01034 0
M  V30 6327 H 589.485 3.13853 -0.903548 0
M  V30 6328 H 588.144 2.29227 -2.86096 0
M  V30 6329 H 587.792 4.6145 -2.00182 0
M  V30 6330 H 587.492 4.51944 -3.75527 0
M  V30 6331 H 589.016 5.22991 -3.1514 0
M  V30 6332 H 590.43 3.45805 -4.57265 0
M  V30 6333 H 588.827 2.98431 -5.20633 0
M  V30 6334 H 589.897 1.74663 -4.5235 0
M  V30 6335 N 591.24 1.41047 0.703093 0
M  V30 6336 C 592.651 1.35657 1.28274 0
M  V30 6337 C 593.002 0.0360309 1.96167 0
M  V30 6338 O 592.127 -0.865833 1.98324 0
M  V30 6339 C 592.722 2.45707 2.33267 0
M  V30 6340 C 591.281 2.43738 2.86825 0
M  V30 6341 C 590.428 2.25941 1.60767 0
M  V30 6342 H 593.379 1.50672 0.49836 0
M  V30 6343 H 593.4 2.14333 3.14391 0
M  V30 6344 H 592.912 3.41805 1.83824 0
M  V30 6345 H 591.013 1.51375 3.40465 0
M  V30 6346 H 591.126 3.39779 3.37768 0
M  V30 6347 H 589.49 1.73681 1.86298 0
M  V30 6348 H 590.273 3.24054 1.1333 0
M  V30 6349 N 592.718 -0.936591 1.26751 0
M  V30 6350 C 593.964 -1.6858 1.12733 0
M  V30 6351 C 594.297 -1.91414 -0.327745 0
M  V30 6352 O 593.572 -1.49812 -1.24043 0
M  V30 6353 C 593.855 -3.05779 1.90187 0
M  V30 6354 C 593.708 -2.90242 3.43627 0
M  V30 6355 C 595.027 -4.0597 1.69931 0
M  V30 6356 H 592.146 -0.61182 0.410908 0
M  V30 6357 H 594.788 -1.08747 1.55801 0
M  V30 6358 H 592.938 -3.56853 1.53584 0
M  V30 6359 H 594.61 -2.46354 3.9001 0
M  V30 6360 H 592.853 -2.2577 3.70419 0
M  V30 6361 H 593.524 -3.87572 3.93055 0
M  V30 6362 H 596 -3.63874 2.0183 0
M  V30 6363 H 594.876 -4.99974 2.26534 0
M  V30 6364 H 595.137 -4.37369 0.64502 0
M  V30 6365 N 594.196 -1.08629 -1.14182 0
M  V30 6366 C 595.426 -0.837673 -1.88856 0
M  V30 6367 C 595.834 0.614024 -1.78959 0
M  V30 6368 O 595.177 1.43384 -1.14833 0
M  V30 6369 C 595.239 -1.18355 -3.39459 0
M  V30 6370 C 594.903 -2.63848 -3.73139 0
M  V30 6371 C 595.9 -3.62099 -3.73069 0
M  V30 6372 C 593.585 -2.99761 -4.03049 0
M  V30 6373 C 595.579 -4.94292 -4.02435 0
M  V30 6374 C 593.266 -4.32147 -4.32078 0
M  V30 6375 C 594.264 -5.29223 -4.31755 0
M  V30 6376 O 593.952 -6.59229 -4.60079 0
M  V30 6377 H 593.684 -0.301609 -0.604986 0
M  V30 6378 H 596.238 -1.44961 -1.45518 0
M  V30 6379 H 594.468 -0.514628 -3.8326 0
M  V30 6380 H 596.157 -0.915391 -3.95443 0
M  V30 6381 H 596.923 -3.35698 -3.50046 0
M  V30 6382 H 592.802 -2.2484 -4.02453 0
M  V30 6383 H 596.346 -5.70055 -4.02098 0
M  V30 6384 H 592.243 -4.58296 -4.54571 0
M  V30 6385 H 593.011 -6.64578 -4.77785 0
M  V30 6386 N 595.674 1.31259 -0.872281 0
M  V30 6387 C 596.622 2.30404 -0.318897 0
M  V30 6388 C 597.616 1.5962 0.567267 0
M  V30 6389 O 598.822 1.74204 0.453111 0
M  V30 6390 H 595.197 0.747243 -0.0844474 0
M  V30 6391 H 597.168 2.74549 -1.16899 0
M  V30 6392 C 595.917 3.44608 0.462683 0
M  V30 6393 H 595.24 3.99248 -0.209936 0
M  V30 6394 H 596.68 4.1609 0.815187 0
M  V30 6395 C 595.139 2.93456 1.65485 0
M  V30 6396 O 595.669 2.92418 2.75417 0
M  V30 6397 N 593.875 2.49628 1.48776 0
M  V30 6398 H 593.422 2.50671 0.593452 0
M  V30 6399 H 593.38 2.15759 2.28682 0
M  V30 6400 N 597.152 0.631951 1.44375 0
M  V30 6401 C 598.099 -0.0724807 2.30686 0
M  V30 6402 C 599.069 -0.835975 1.43529 0
M  V30 6403 O 600.254 -0.816849 1.7243 0
M  V30 6404 C 597.394 -1.04753 3.28817 0
M  V30 6405 C 596.507 -0.282367 4.31076 0
M  V30 6406 C 595.642 -1.2493 5.163 0
M  V30 6407 C 594.681 -0.473349 6.10267 0
M  V30 6408 N 593.818 -1.39079 6.88187 0
M  V30 6409 H 598.658 0.669477 2.90383 0
M  V30 6410 H 596.195 0.341927 1.43071 0
M  V30 6411 H 598.153 -1.62623 3.842 0
M  V30 6412 H 596.783 -1.75661 2.70819 0
M  V30 6413 H 595.835 0.412268 3.78159 0
M  V30 6414 H 597.147 0.321955 4.9776 0
M  V30 6415 H 596.301 -1.89931 5.76204 0
M  V30 6416 H 595.04 -1.88755 4.49692 0
M  V30 6417 H 594.045 0.190142 5.49471 0
M  V30 6418 H 595.27 0.16019 6.78911 0
M  V30 6419 H 593.216 -2.01623 6.24247 0
M  V30 6420 H 593.133 -0.840513 7.51313 0
M  V30 6421 H 594.401 -2.02961 7.52613 0
M  V30 6422 N 598.631 -1.53133 0.372548 0
M  V30 6423 C 599.594 -2.24569 -0.458389 0
M  V30 6424 C 600.594 -1.25603 -1.00402 0
M  V30 6425 O 601.784 -1.49827 -0.888672 0
M  V30 6426 C 598.916 -2.98783 -1.6414 0
M  V30 6427 H 600.109 -2.99436 0.166799 0
M  V30 6428 H 597.662 -1.55805 0.124357 0
M  V30 6429 H 598.397 -2.28176 -2.30448 0
M  V30 6430 H 598.182 -3.71404 -1.25704 0
M  V30 6431 H 599.672 -3.53068 -2.23008 0
M  V30 6432 N 600.109 -0.101901 -1.5727 0
M  V30 6433 C 601.072 0.840129 -2.13247 0
M  V30 6434 C 602.072 1.20625 -1.06331 0
M  V30 6435 O 603.262 1.13456 -1.32186 0
M  V30 6436 C 600.394 2.13372 -2.65867 0
M  V30 6437 H 601.587 0.353945 -2.97804 0
M  V30 6438 H 599.14 0.147167 -1.55606 0
M  V30 6439 H 599.875 2.66461 -1.84849 0
M  V30 6440 H 599.66 1.88085 -3.44044 0
M  V30 6441 H 601.15 2.80748 -3.09145 0
M  V30 6442 N 601.587 1.56661 0.17182 0
M  V30 6443 C 602.833 1.8313 0.88516 0
M  V30 6444 C 603.188 0.682376 1.79893 0
M  V30 6445 O 602.481 -0.321215 1.88888 0
M  V30 6446 C 602.675 3.13435 1.71736 0
M  V30 6447 C 602.504 4.40892 0.885659 0
M  V30 6448 C 601.274 5.02177 0.560939 0
M  V30 6449 C 603.472 5.13797 0.227454 0
M  V30 6450 N 601.454 6.13229 -0.286953 0
M  V30 6451 C 602.825 6.18127 -0.481625 0
M  V30 6452 C 604.88 4.97687 0.145567 0
M  V30 6453 C 603.583 7.08092 -1.26482 0
M  V30 6454 C 605.609 5.88096 -0.624298 0
M  V30 6455 C 604.971 6.91888 -1.32174 0
M  V30 6456 H 601.07 0.721107 0.302536 0
M  V30 6457 H 603.654 1.94104 0.152178 0
M  V30 6458 H 601.825 3.03653 2.42176 0
M  V30 6459 H 603.557 3.27903 2.37196 0
M  V30 6460 H 600.312 4.65145 0.890902 0
M  V30 6461 H 600.736 6.73359 -0.701193 0
M  V30 6462 H 605.378 4.17451 0.670426 0
M  V30 6463 H 603.096 7.87774 -1.80103 0
M  V30 6464 H 606.682 5.77702 -0.689321 0
M  V30 6465 H 605.562 7.60637 -1.90791 0
M  V30 6466 N 603.065 -0.440357 1.51323 0
M  V30 6467 C 604.012 -1.53429 1.72419 0
M  V30 6468 C 604.982 -1.56165 0.565826 0
M  V30 6469 O 606.167 -1.73222 0.799917 0
M  V30 6470 C 603.307 -2.91169 1.85242 0
M  V30 6471 C 602.42 -2.97985 3.12777 0
M  V30 6472 C 601.555 -4.26829 3.16212 0
M  V30 6473 C 600.594 -4.27501 4.38074 0
M  V30 6474 N 599.731 -5.47866 4.39076 0
M  V30 6475 H 604.571 -1.34743 2.65797 0
M  V30 6476 H 602.108 -0.654608 1.31732 0
M  V30 6477 H 604.066 -3.71087 1.90658 0
M  V30 6478 H 602.696 -3.0842 0.952744 0
M  V30 6479 H 601.748 -2.10749 3.16685 0
M  V30 6480 H 603.06 -2.94342 4.02696 0
M  V30 6481 H 602.214 -5.15118 3.20527 0
M  V30 6482 H 600.953 -4.33124 2.24176 0
M  V30 6483 H 599.958 -3.37606 4.33938 0
M  V30 6484 H 601.183 -4.22873 5.31371 0
M  V30 6485 H 599.129 -5.54887 3.49909 0
M  V30 6486 H 599.046 -5.46091 5.22801 0
M  V30 6487 H 600.314 -6.38195 4.4758 0
M  V30 6488 N 604.543 -1.41418 -0.695603 0
M  V30 6489 C 605.493 -1.39731 -1.80165 0
M  V30 6490 C 606.477 -0.271689 -1.5859 0
M  V30 6491 O 607.669 -0.512354 -1.69422 0
M  V30 6492 C 604.798 -1.28187 -3.1847 0
M  V30 6493 C 603.884 -2.45612 -3.45739 0
M  V30 6494 N 604.275 -3.71077 -3.43708 0
M  V30 6495 C 602.573 -2.39424 -3.76288 0
M  V30 6496 C 603.274 -4.48957 -3.69882 0
M  V30 6497 N 602.25 -3.7907 -3.89624 0
M  V30 6498 H 606.052 -2.34656 -1.76957 0
M  V30 6499 H 603.566 -1.35473 -0.89559 0
M  V30 6500 H 605.563 -1.2506 -3.977 0
M  V30 6501 H 604.223 -0.342468 -3.22889 0
M  V30 6502 H 605.234 -4.03963 -3.2409 0
M  V30 6503 H 601.911 -1.53955 -3.88077 0
M  V30 6504 H 603.301 -5.57887 -3.74448 0
M  V30 6505 N 606.021 0.929856 -1.27246 0
M  V30 6506 C 607.251 1.70895 -1.16096 0
M  V30 6507 C 607.659 1.87039 0.285122 0
M  V30 6508 O 607.002 1.38557 1.20614 0
M  V30 6509 C 607.064 3.12919 -1.7698 0
M  V30 6510 C 606.728 3.2012 -3.26148 0
M  V30 6511 C 607.725 3.02533 -4.22812 0
M  V30 6512 C 605.41 3.43148 -3.66817 0
M  V30 6513 C 607.404 3.07861 -5.58122 0
M  V30 6514 C 605.091 3.48109 -5.02258 0
M  V30 6515 C 606.089 3.30483 -5.97721 0
M  V30 6516 O 605.777 3.35175 -7.30694 0
M  V30 6517 H 605.509 0.54152 -0.404639 0
M  V30 6518 H 608.063 1.17342 -1.68582 0
M  V30 6519 H 606.293 3.67945 -1.18969 0
M  V30 6520 H 607.982 3.72787 -1.60576 0
M  V30 6521 H 608.748 2.84586 -3.92728 0
M  V30 6522 H 604.627 3.55918 -2.9299 0
M  V30 6523 H 608.171 2.94021 -6.32612 0
M  V30 6524 H 604.068 3.65579 -5.31998 0
M  V30 6525 H 604.836 3.51644 -7.39114 0
M  V30 6526 N 607.499 1.09233 1.13605 0
M  V30 6527 C 608.447 0.724572 2.21027 0
M  V30 6528 C 609.441 -0.273595 1.67176 0
M  V30 6529 O 610.647 -0.135266 1.79491 0
M  V30 6530 H 607.022 0.216319 0.720215 0
M  V30 6531 H 608.993 1.63975 2.49309 0
M  V30 6532 C 607.742 0.159126 3.47336 0
M  V30 6533 H 607.065 0.918387 3.89109 0
M  V30 6534 H 608.505 -0.0602851 4.23957 0
M  V30 6535 C 606.964 -1.10514 3.18258 0
M  V30 6536 O 607.494 -2.18869 3.36837 0
M  V30 6537 N 605.7 -1.01886 2.72154 0
M  V30 6538 H 605.247 -0.137027 2.57235 0
M  V30 6539 H 605.205 -1.8655 2.53074 0
M  V30 6540 N 608.977 -1.30795 0.87923 0
M  V30 6541 C 610.205 -2.00527 0.509548 0
M  V30 6542 C 610.62 -1.65944 -0.90045 0
M  V30 6543 O 609.977 -0.893525 -1.5913 0
M  V30 6544 C 610.028 -3.55276 0.667943 0
M  V30 6545 O 609.749 -3.88625 2.02242 0
M  V30 6546 C 611.25 -4.4228 0.300494 0
M  V30 6547 H 608.47 -0.641261 0.197549 0
M  V30 6548 H 611.014 -1.66813 1.18295 0
M  V30 6549 H 609.169 -3.87377 0.0419843 0
M  V30 6550 H 609.583 -4.83334 2.03688 0
M  V30 6551 H 611.057 -5.50061 0.462242 0
M  V30 6552 H 611.534 -4.32556 -0.76106 0
M  V30 6553 H 612.14 -4.15613 0.902536 0
M  V30 6554 N 610.455 -0.639598 -1.44038 0
M  V30 6555 C 611.403 0.0723409 -2.32487 0
M  V30 6556 C 612.397 0.827129 -1.47834 0
M  V30 6557 O 613.603 0.73907 -1.64127 0
M  V30 6558 H 609.978 0.0421696 -0.750817 0
M  V30 6559 H 611.949 -0.691593 -2.90275 0
M  V30 6560 C 610.698 1.03452 -3.31953 0
M  V30 6561 H 610.021 0.46315 -3.97108 0
M  V30 6562 H 611.461 1.502 -3.96505 0
M  V30 6563 C 609.92 2.12392 -2.61518 0
M  V30 6564 O 610.45 3.2059 -2.42044 0
M  V30 6565 N 608.656 1.88563 -2.21116 0
M  V30 6566 H 608.203 1.00577 -2.37154 0
M  V30 6567 H 608.161 2.61651 -1.74316 0
M  V30 6568 N 611.933 1.52934 -0.380664 0
M  V30 6569 C 612.883 2.22989 0.475399 0
M  V30 6570 C 613.867 1.23058 1.03661 0
M  V30 6571 O 615.059 1.48436 0.964146 0
M  V30 6572 C 612.188 3.0338 1.60671 0
M  V30 6573 C 611.274 4.107 1.05766 0
M  V30 6574 N 611.665 5.05264 0.232837 0
M  V30 6575 C 609.963 4.25676 1.33101 0
M  V30 6576 C 610.664 5.81658 -0.0695134 0
M  V30 6577 N 609.64 5.40989 0.532144 0
M  V30 6578 H 613.442 2.93456 -0.161418 0
M  V30 6579 H 610.956 1.61291 -0.189495 0
M  V30 6580 H 612.953 3.52098 2.23232 0
M  V30 6581 H 611.613 2.34446 2.24644 0
M  V30 6582 H 612.624 5.17739 -0.129204 0
M  V30 6583 H 609.301 3.6797 1.97241 0
M  V30 6584 H 610.691 6.67843 -0.737269 0
M  V30 6585 N 613.412 0.11024 1.57214 0
M  V30 6586 C 614.322 -0.857077 2.18383 0
M  V30 6587 C 615.338 -1.29915 1.1575 0
M  V30 6588 O 616.514 -1.36394 1.48184 0
M  V30 6589 C 613.579 -2.09264 2.76423 0
M  V30 6590 C 612.64 -1.70333 3.94063 0
M  V30 6591 C 611.873 -2.87999 4.49324 0
M  V30 6592 O 612.096 -4.0317 4.03497 0
M  V30 6593 O 611.03 -2.6559 5.40135 0
M  V30 6594 H 614.856 -0.366561 3.0148 0
M  V30 6595 H 612.441 -0.114914 1.48957 0
M  V30 6596 H 614.323 -2.81644 3.13456 0
M  V30 6597 H 612.998 -2.57339 1.96363 0
M  V30 6598 H 611.905 -0.950864 3.61814 0
M  V30 6599 H 613.238 -1.27007 4.75531 0
M  V30 6600 N 614.89 -1.56749 -0.16351 0
M  V30 6601 C 615.853 -1.96121 -1.18613 0
M  V30 6602 C 616.853 -0.845765 -1.36761 0
M  V30 6603 O 618.043 -1.11268 -1.34033 0
M  V30 6604 C 615.175 -2.26282 -2.54969 0
M  V30 6605 H 616.368 -2.87639 -0.848764 0
M  V30 6606 H 613.921 -1.50928 -0.406251 0
M  V30 6607 H 614.656 -1.37504 -2.93706 0
M  V30 6608 H 614.441 -3.07595 -2.43162 0
M  V30 6609 H 615.931 -2.57638 -3.28653 0
M  V30 6610 N 616.368 0.432326 -1.51554 0
M  V30 6611 C 617.645 1.19288 -1.55015 0
M  V30 6612 C 618.025 2.08701 -0.317375 0
M  V30 6613 O 617.373 2.17602 0.697243 0
M  V30 6614 C 617.583 1.99037 -2.86679 0
M  V30 6615 C 618.931 2.55907 -3.38817 0
M  V30 6616 O 619.955 2.09243 -2.88263 0
M  V30 6617 O 618.814 3.41029 -4.27038 0
M  V30 6618 H 615.908 0.543369 -0.623441 0
M  V30 6619 H 618.454 0.440988 -1.6387 0
M  V30 6620 H 617.226 1.33397 -3.6786 0
M  V30 6621 H 616.849 2.81281 -2.8101 0
M  V30 6622 N 617.846 1.41785 0.688094 0
M  V30 6623 C 619.123 1.32031 1.44316 0
M  V30 6624 C 619.503 -0.0486079 2.11044 0
M  V30 6625 O 618.851 -1.06332 2.02252 0
M  V30 6626 C 619.061 2.47906 2.45649 0
M  V30 6627 C 620.409 2.89415 3.10683 0
M  V30 6628 O 621.433 2.477 2.55975 0
M  V30 6629 O 620.292 3.61573 4.09789 0
M  V30 6630 H 617.386 0.519994 0.643067 0
M  V30 6631 H 619.932 1.53765 0.71794 0
M  V30 6632 H 618.704 3.39222 1.95048 0
M  V30 6633 H 618.327 2.28089 3.25671 0
M  V30 6634 N 619.324 -0.923095 1.27737 0
M  V30 6635 C 620.57 -1.67409 1.15524 0
M  V30 6636 C 620.925 -1.90124 -0.295072 0
M  V30 6637 O 620.218 -1.48382 -1.21216 0
M  V30 6638 C 620.412 -3.04125 1.8773 0
M  V30 6639 C 620.241 -2.94752 3.39634 0
M  V30 6640 C 619.011 -2.96783 4.0896 0
M  V30 6641 C 621.209 -2.73524 4.35533 0
M  V30 6642 N 619.191 -2.779 5.47398 0
M  V30 6643 C 620.562 -2.63391 5.61271 0
M  V30 6644 C 622.617 -2.58447 4.2557 0
M  V30 6645 C 621.32 -2.3972 6.78179 0
M  V30 6646 C 623.346 -2.36154 5.42204 0
M  V30 6647 C 622.708 -2.26768 6.669 0
M  V30 6648 H 618.807 -0.619196 0.477619 0
M  V30 6649 H 621.391 -1.09094 1.61266 0
M  V30 6650 H 619.562 -3.60545 1.44436 0
M  V30 6651 H 621.294 -3.6819 1.67982 0
M  V30 6652 H 618.049 -3.07186 3.60463 0
M  V30 6653 H 618.473 -2.71576 6.20141 0
M  V30 6654 H 623.115 -2.6446 3.2988 0
M  V30 6655 H 620.833 -2.32447 7.73947 0
M  V30 6656 H 624.419 -2.25367 5.36378 0
M  V30 6657 H 623.299 -2.09751 7.55628 0
M  V30 6658 N 620.802 -1.09834 -1.13024 0
M  V30 6659 C 622.042 -0.846664 -1.8604 0
M  V30 6660 C 622.406 0.616557 -1.81831 0
M  V30 6661 O 623.607 0.984329 -2.50129 0
M  V30 6662 C 621.878 -1.37228 -3.30005 0
M  V30 6663 S 623.437 -1.25511 -4.20467 0
M  V30 6664 H 620.255 -0.30611 -0.64173 0
M  V30 6665 H 622.857 -1.40255 -1.36194 0
M  V30 6666 H 621.561 -2.43138 -3.30624 0
M  V30 6667 H 621.092 -0.81271 -3.84914 0
M  V30 6668 H 623.107 -0.208762 -4.95761 0
M  V30 6669 N 622.28 1.30327 -0.886154 0
M  V30 6670 C 623.526 1.96388 -0.505941 0
M  V30 6671 C 623.859 1.69784 0.942712 0
M  V30 6672 O 623.134 1.00322 1.6663 0
M  V30 6673 C 623.417 3.51488 -0.782826 0
M  V30 6674 C 623.27 3.87603 -2.28219 0
M  V30 6675 C 624.589 4.39331 -0.260128 0
M  V30 6676 H 621.708 0.713327 -0.185292 0
M  V30 6677 H 624.35 1.54178 -1.11036 0
M  V30 6678 H 622.5 3.87572 -0.268399 0
M  V30 6679 H 624.172 3.61537 -2.86512 0
M  V30 6680 H 622.415 3.3563 -2.74837 0
M  V30 6681 H 623.086 4.95806 -2.42653 0
M  V30 6682 H 625.562 4.10162 -0.700444 0
M  V30 6683 H 624.438 5.46769 -0.483179 0
M  V30 6684 H 624.699 4.34072 0.838674 0
M  V30 6685 N 623.758 0.647228 1.43697 0
M  V30 6686 C 625.169 0.238689 1.85168 0
M  V30 6687 C 625.52 -1.21345 1.54175 0
M  V30 6688 O 624.645 -1.92542 0.987743 0
M  V30 6689 C 625.24 0.426422 3.36106 0
M  V30 6690 C 623.799 0.0722541 3.76331 0
M  V30 6691 C 622.946 0.732153 2.6746 0
M  V30 6692 H 625.897 0.851309 1.33934 0
M  V30 6693 H 625.918 -0.32987 3.79067 0
M  V30 6694 H 625.43 1.48339 3.58632 0
M  V30 6695 H 623.531 -0.982355 3.59417 0
M  V30 6696 H 623.644 0.493541 4.76551 0
M  V30 6697 H 622.008 0.16594 2.54159 0
M  V30 6698 H 622.791 1.79204 2.92816 0
M  V30 6699 N 625.236 -1.5273 0.388769 0
M  V30 6700 C 626.461 -2.0647 -0.19621 0
M  V30 6701 C 626.886 -1.25865 -1.39784 0
M  V30 6702 O 626.244 -0.283562 -1.79069 0
M  V30 6703 C 626.292 -3.56456 -0.5451 0
M  V30 6704 O 625.396 -3.78426 -1.63912 0
M  V30 6705 H 624.737 -0.663599 -0.023067 0
M  V30 6706 H 627.267 -1.96898 0.556084 0
M  V30 6707 H 627.277 -3.99888 -0.809557 0
M  V30 6708 H 625.952 -4.14561 0.333417 0
M  V30 6709 H 624.529 -3.46884 -1.36842 0
M  V30 6710 N 626.714 -0.118576 -1.57153 0
M  V30 6711 C 628.13 0.238014 -1.57815 0
M  V30 6712 C 628.33 1.66747 -1.13127 0
M  V30 6713 O 627.386 2.38867 -0.818462 0
M  V30 6714 C 628.699 0.00508207 -3.007 0
M  V30 6715 C 630.247 0.0710139 -3.12919 0
M  V30 6716 C 630.722 -0.13422 -4.57803 0
M  V30 6717 N 632.213 -0.0801755 -4.63131 0
M  V30 6718 C 632.948 -0.213885 -5.73001 0
M  V30 6719 N 632.444 -0.403742 -6.91623 0
M  V30 6720 N 634.237 -0.15349 -5.6189 0
M  V30 6721 H 626.388 -1.05226 -1.84503 0
M  V30 6722 H 628.651 -0.414318 -0.852669 0
M  V30 6723 H 628.357 -0.983125 -3.3768 0
M  V30 6724 H 628.231 0.73714 -3.69927 0
M  V30 6725 H 630.618 1.04975 -2.75798 0
M  V30 6726 H 630.699 -0.692918 -2.46236 0
M  V30 6727 H 630.343 -1.10992 -4.95624 0
M  V30 6728 H 630.273 0.649692 -5.22577 0
M  V30 6729 H 632.764 0.0630689 -3.77847 0
M  V30 6730 H 633.077 -0.496645 -7.71202 0
M  V30 6731 H 631.422 -0.43971 -6.93608 0
M  V30 6732 H 634.613 -0.00613174 -4.681 0
M  V30 6733 H 634.786 -0.261138 -6.47474 0
M  V30 6734 N 628.193 1.56834 0.155195 0
M  V30 6735 C 629.103 2.009 1.21146 0
M  V30 6736 C 630.119 0.923029 1.475 0
M  V30 6737 O 631.295 1.23189 1.59331 0
M  V30 6738 C 628.36 2.37378 2.52691 0
M  V30 6739 C 627.421 3.59883 2.34057 0
M  V30 6740 C 626.654 3.94612 3.59329 0
M  V30 6741 O 626.877 3.30104 4.65175 0
M  V30 6742 O 625.811 4.87895 3.52479 0
M  V30 6743 H 629.637 2.9105 0.867371 0
M  V30 6744 H 627.222 1.44916 0.363298 0
M  V30 6745 H 629.104 2.61737 3.3026 0
M  V30 6746 H 627.779 1.50385 2.86646 0
M  V30 6747 H 626.686 3.40722 1.54465 0
M  V30 6748 H 628.019 4.47468 2.0502 0
M  V30 6749 N 629.671 -0.424282 1.51781 0
M  V30 6750 C 631.082 -1.00368 1.57427 0
M  V30 6751 C 631.433 -1.91962 0.40558 0
M  V30 6752 O 630.558 -2.111 -0.47601 0
M  V30 6753 C 631.153 -1.82707 2.85313 0
M  V30 6754 C 629.712 -2.35675 2.93487 0
M  V30 6755 C 628.859 -1.1524 2.5222 0
M  V30 6756 H 631.81 -0.205064 1.5737 0
M  V30 6757 H 631.831 -2.68294 2.69812 0
M  V30 6758 H 631.343 -1.16017 3.70353 0
M  V30 6759 H 629.444 -3.05781 2.12906 0
M  V30 6760 H 629.557 -2.67578 3.97415 0
M  V30 6761 H 627.921 -1.50174 2.05718 0
M  V30 6762 H 628.704 -0.5014 3.39619 0
M  V30 6763 N 631.149 -1.42148 -0.680565 0
M  V30 6764 C 632.096 -1.45175 -1.79424 0
M  V30 6765 C 633.066 -0.304352 -1.63288 0
M  V30 6766 O 634.251 -0.507591 -1.83924 0
M  V30 6767 C 631.391 -1.35429 -3.17416 0
M  V30 6768 C 630.504 -2.60158 -3.4488 0
M  V30 6769 C 629.639 -2.42596 -4.72568 0
M  V30 6770 C 628.678 -3.62727 -4.93047 0
M  V30 6771 N 627.815 -3.44143 -6.11973 0
M  V30 6772 H 632.655 -2.40349 -1.76172 0
M  V30 6773 H 630.192 -1.19334 -0.860107 0
M  V30 6774 H 632.15 -1.27777 -3.97151 0
M  V30 6775 H 630.78 -0.438536 -3.19807 0
M  V30 6776 H 629.832 -2.78199 -2.5944 0
M  V30 6777 H 631.144 -3.49473 -3.55908 0
M  V30 6778 H 630.298 -2.32497 -5.60384 0
M  V30 6779 H 629.037 -1.50761 -4.63813 0
M  V30 6780 H 628.042 -3.73264 -4.03676 0
M  V30 6781 H 629.267 -4.55534 -5.03652 0
M  V30 6782 H 627.213 -2.5502 -6.04401 0
M  V30 6783 H 627.13 -4.27041 -6.23836 0
M  V30 6784 H 628.398 -3.37845 -7.02482 0
M  V30 6785 N 632.627 0.916307 -1.28225 0
M  V30 6786 C 633.904 1.64429 -1.05936 0
M  V30 6787 C 634.284 2.07234 0.402139 0
M  V30 6788 O 633.632 1.81535 1.3877 0
M  V30 6789 C 633.842 2.83773 -2.03159 0
M  V30 6790 C 635.19 3.54852 -2.33164 0
M  V30 6791 O 636.214 2.93918 -2.01223 0
M  V30 6792 O 635.073 4.64663 -2.87664 0
M  V30 6793 H 632.167 0.721221 -0.404683 0
M  V30 6794 H 634.713 0.965838 -1.39534 0
M  V30 6795 H 633.485 2.49217 -3.01673 0
M  V30 6796 H 633.108 3.59333 -1.70192 0
M  V30 6797 N 634.105 1.10431 1.1244 0
M  V30 6798 C 635.038 0.696987 2.17296 0
M  V30 6799 C 636.016 -0.301673 1.59777 0
M  V30 6800 O 637.2 -0.200583 1.8743 0
M  V30 6801 C 634.327 0.0284094 3.38688 0
M  V30 6802 C 633.373 0.990536 4.14838 0
M  V30 6803 S 634.206 2.50785 4.73146 0
M  V30 6804 C 635.362 1.85198 5.97873 0
M  V30 6805 H 635.595 1.58523 2.51511 0
M  V30 6806 H 633.128 0.921312 1.239 0
M  V30 6807 H 635.086 -0.351009 4.08997 0
M  V30 6808 H 633.747 -0.836629 3.02753 0
M  V30 6809 H 632.94 0.469991 5.01804 0
M  V30 6810 H 632.542 1.31186 3.50237 0
M  V30 6811 H 634.834 1.18217 6.67106 0
M  V30 6812 H 635.777 2.7012 6.54554 0
M  V30 6813 H 636.185 1.31653 5.48933 0
M  V30 6814 N 635.583 -1.29855 0.893053 0
M  V30 6815 C 636.811 -1.99976 0.530788 0
M  V30 6816 C 637.226 -1.66889 -0.882799 0
M  V30 6817 O 636.583 -0.910352 -1.58173 0
M  V30 6818 C 636.634 -3.54547 0.705587 0
M  V30 6819 O 636.355 -3.86458 2.06353 0
M  V30 6820 C 637.856 -4.41937 0.347387 0
M  V30 6821 H 635.076 -0.639129 0.204339 0
M  V30 6822 H 637.62 -1.65549 1.20057 0
M  V30 6823 H 635.775 -3.87311 0.0830685 0
M  V30 6824 H 636.189 -4.81146 2.08803 0
M  V30 6825 H 637.663 -5.4954 0.520557 0
M  V30 6826 H 638.14 -4.33339 -0.715139 0
M  V30 6827 H 638.746 -4.14633 0.946567 0
M  V30 6828 N 637.061 -0.65484 -1.43351 0
M  V30 6829 C 638.289 -0.176685 -2.06144 0
M  V30 6830 C 638.704 1.15831 -1.49093 0
M  V30 6831 O 638.061 1.71542 -0.622868 0
M  V30 6832 C 638.112 -0.0813326 -3.61408 0
M  V30 6833 O 637.833 -1.36355 -4.1634 0
M  V30 6834 C 639.334 0.422706 -4.4128 0
M  V30 6835 H 636.554 -0.0906429 -0.66485 0
M  V30 6836 H 639.098 -0.895945 -1.83829 0
M  V30 6837 H 637.253 0.588496 -3.82904 0
M  V30 6838 H 637.667 -1.22381 -5.10023 0
M  V30 6839 H 639.141 0.438375 -5.50257 0
M  V30 6840 H 639.618 1.45432 -4.14423 0
M  V30 6841 H 640.224 -0.214687 -4.24758 0
M  V30 6842 N 638.539 1.52521 -0.396863 0
M  V30 6843 C 639.786 2.01672 0.182898 0
M  V30 6844 C 640.114 1.28302 1.46181 0
M  V30 6845 O 639.369 0.374118 1.92091 0
M  V30 6846 C 639.668 3.5403 0.489677 0
M  V30 6847 C 639.334 4.45456 -0.698581 0
M  V30 6848 C 637.996 4.70166 -1.02454 0
M  V30 6849 C 640.348 4.99354 -1.49316 0
M  V30 6850 C 637.676 5.46024 -2.1465 0
M  V30 6851 C 640.028 5.76439 -2.60579 0
M  V30 6852 C 638.692 5.99426 -2.93675 0
M  V30 6853 H 637.962 0.737971 0.066927 0
M  V30 6854 H 640.609 1.83853 -0.535764 0
M  V30 6855 H 638.914 3.69963 1.28976 0
M  V30 6856 H 640.611 3.8956 0.951018 0
M  V30 6857 H 637.201 4.26392 -0.434525 0
M  V30 6858 H 641.385 4.80182 -1.25457 0
M  V30 6859 H 636.641 5.62046 -2.40654 0
M  V30 6860 H 640.815 6.17202 -3.22544 0
M  V30 6861 H 638.442 6.57988 -3.80731 0
M  V30 6862 N 640.017 0.126909 1.57088 0
M  V30 6863 C 641.433 -0.229641 1.57939 0
M  V30 6864 C 641.633 -1.66145 1.1401 0
M  V30 6865 O 640.689 -2.3843 0.831119 0
M  V30 6866 C 642.002 0.0108648 3.00698 0
M  V30 6867 C 643.55 -0.054418 3.12953 0
M  V30 6868 C 644.025 0.158497 4.57726 0
M  V30 6869 N 645.516 0.104735 4.63082 0
M  V30 6870 C 646.251 0.24427 5.72879 0
M  V30 6871 N 645.747 0.440415 6.91399 0
M  V30 6872 N 647.54 0.183286 5.61801 0
M  V30 6873 H 639.691 1.06203 1.83942 0
M  V30 6874 H 641.954 0.418834 0.85046 0
M  V30 6875 H 641.66 1.00102 3.37154 0
M  V30 6876 H 641.534 -0.717512 3.70313 0
M  V30 6877 H 643.921 -1.0351 2.7635 0
M  V30 6878 H 644.002 0.705967 2.45865 0
M  V30 6879 H 643.646 1.13619 4.95028 0
M  V30 6880 H 643.576 -0.62197 5.22914 0
M  V30 6881 H 646.067 -0.0430298 3.77876 0
M  V30 6882 H 646.38 0.537536 7.70928 0
M  V30 6883 H 644.725 0.476488 6.93365 0
M  V30 6884 H 647.916 0.0309561 4.6809 0
M  V30 6885 H 648.089 0.295471 6.47326 0
M  V30 6886 N 641.495 -1.56914 -0.146875 0
M  V30 6887 C 642.72 -1.87881 -0.878386 0
M  V30 6888 C 643.145 -0.715945 -1.73942 0
M  V30 6889 O 642.503 0.334447 -1.78189 0
M  V30 6890 C 642.551 -3.17431 -1.71084 0
M  V30 6891 O 641.655 -3.01374 -2.81509 0
M  V30 6892 H 640.996 -0.617289 -0.244644 0
M  V30 6893 H 643.526 -2.04136 -0.137654 0
M  V30 6894 H 643.536 -3.49455 -2.10582 0
M  V30 6895 H 642.211 -4.01671 -1.07856 0
M  V30 6896 H 640.788 -2.80758 -2.45416 0
M  V30 6897 N 642.974 0.416227 -1.52004 0
M  V30 6898 C 643.937 1.48926 -1.74223 0
M  V30 6899 C 644.937 1.48693 -0.612119 0
M  V30 6900 O 646.127 1.50343 -0.879921 0
M  V30 6901 C 643.259 2.88372 -1.81809 0
M  V30 6902 H 644.452 1.3052 -2.70008 0
M  V30 6903 H 642.005 0.646271 -1.42313 0
M  V30 6904 H 642.74 3.12157 -0.879135 0
M  V30 6905 H 642.525 2.89944 -2.6396 0
M  V30 6906 H 644.015 3.66173 -2.00766 0
M  V30 6907 O 644.491 1.51403 0.562082 0
M  V30 6908 H 645.182 1.50679 1.21719 0
M  V30 END ATOM
M  V30 BEGIN BOND
M  V30 END BOND
M  V30 END CTAB
M  END
$$$$
