drugbank_target|Q02338 D-beta-hydroxybutyrate dehydrogenase, mitochondrial (DB00157)
 OpenBabel12092119253D

  0  0  0     0  0            999 V3000
M  V30 BEGIN CTAB
M  V30 COUNTS 5384 5442 0 0 0
M  V30 BEGIN ATOM
M  V30 1 H -0.908 1.98254 -0.117106 0
M  V30 2 N 0 1.576 0 0
M  V30 3 C 0.933 2.03868 1.02534 0
M  V30 4 C 1.911 0.928543 1.3348 0
M  V30 5 O 3.095 1.19667 1.45644 0
M  V30 6 C 0.222 2.43627 2.35294 0
M  V30 7 C -0.732 3.65373 2.2001 0
M  V30 8 S 0.101 5.13292 1.52614 0
M  V30 9 C 1.257 5.56322 2.86805 0
M  V30 10 H 1.49 2.90518 0.631377 0
M  V30 11 H -0.977 1.52953 0.210867 0
M  V30 12 H 0.981 2.67203 3.11629 0
M  V30 13 H -0.358 1.57376 2.7183 0
M  V30 14 H -1.165 3.90944 3.18086 0
M  V30 15 H -1.563 3.418 1.51819 0
M  V30 16 H 0.729 5.58782 3.83104 0
M  V30 17 H 1.672 6.56266 2.65933 0
M  V30 18 H 2.08 4.83886 2.90714 0
M  V30 19 N 1.4781 -0.272755 1.55222 0
M  V30 20 C 2.4081 -1.34136 1.91127 0
M  V30 21 C 3.3891 -1.51513 0.773168 0
M  V30 22 O 4.5741 -1.64552 1.03132 0
M  V30 23 C 1.7041 -2.70083 2.1834 0
M  V30 24 C 0.6581 -2.67437 3.34158 0
M  V30 25 C -0.0159 -4.06938 3.46851 0
M  V30 26 C 1.2841 -2.26686 4.70543 0
M  V30 27 H 2.9781 -1.04333 2.80633 0
M  V30 28 H 0.5241 -0.500454 1.35024 0
M  V30 29 H 2.4771 -3.44952 2.42046 0
M  V30 30 H 1.2011 -3.01469 1.25634 0
M  V30 31 H -0.1399 -1.95026 3.1042 0
M  V30 32 H -0.4919 -4.35547 2.51611 0
M  V30 33 H -0.7919 -4.06062 4.2472 0
M  V30 34 H 0.7321 -4.83545 3.72849 0
M  V30 35 H 2.1461 -2.91277 4.93792 0
M  V30 36 H 0.5431 -2.36971 5.5133 0
M  V30 37 H 1.6131 -1.21818 4.69349 0
M  V30 38 N 2.9562 -1.48159 -0.537278 0
M  V30 39 C 3.9192 -1.61665 -1.62472 0
M  V30 40 C 4.9192 -0.490395 -1.5314 0
M  V30 41 O 6.1092 -0.755998 -1.5694 0
M  V30 42 C 3.2412 -1.57997 -3.02076 0
M  V30 43 H 4.4342 -2.58621 -1.51839 0
M  V30 44 H 1.9872 -1.36647 -0.758771 0
M  V30 45 H 2.7222 -0.624913 -3.18222 0
M  V30 46 H 2.5072 -2.39755 -3.10258 0
M  V30 47 H 3.9972 -1.70627 -3.81151 0
M  V30 48 N 4.4343 0.785586 -1.36625 0
M  V30 49 C 5.6623 1.57448 -1.3423 0
M  V30 50 C 6.0773 1.88649 0.0755653 0
M  V30 51 O 5.4343 1.50414 1.03354 0
M  V30 52 C 5.4853 2.89316 -2.16745 0
M  V30 53 O 5.2063 2.59459 -3.53005 0
M  V30 54 C 6.7073 3.83606 -2.22174 0
M  V30 55 H 3.9273 0.488226 -0.4603 0
M  V30 56 H 6.4713 0.974733 -1.79775 0
M  V30 57 H 4.6263 3.4575 -1.74745 0
M  V30 58 H 5.0403 3.43804 -3.96105 0
M  V30 59 H 6.5143 4.73181 -2.8426 0
M  V30 60 H 6.9913 4.21734 -1.22627 0
M  V30 61 H 7.5973 3.33104 -2.64427 0
M  V30 62 N 5.9124 1.20967 1.01018 0
M  V30 63 C 7.3284 0.965905 1.27053 0
M  V30 64 C 7.5284 -0.350785 1.98423 0
M  V30 65 O 6.5844 -1.07773 2.28344 0
M  V30 66 C 7.8974 2.15294 2.09926 0
M  V30 67 C 9.4454 2.19463 2.23171 0
M  V30 68 C 9.9204 3.3767 3.09424 0
M  V30 69 N 11.4114 3.37724 3.17012 0
M  V30 70 C 12.1464 4.25837 3.83993 0
M  V30 71 N 11.6424 5.24138 4.53047 0
M  V30 72 N 13.4354 4.1366 3.80581 0
M  V30 73 H 5.5864 2.0565 0.531194 0
M  V30 74 H 7.8494 0.90024 0.297106 0
M  V30 75 H 7.5554 3.10684 1.64828 0
M  V30 76 H 7.4294 2.13923 3.10672 0
M  V30 77 H 9.8164 1.24632 2.6749 0
M  V30 78 H 9.8974 2.2488 1.21912 0
M  V30 79 H 9.5414 4.32791 2.65808 0
M  V30 80 H 9.4714 3.29491 4.10784 0
M  V30 81 H 11.9624 2.6658 2.6785 0
M  V30 82 H 12.2754 5.87684 5.01844 0
M  V30 83 H 10.6204 5.28068 4.5185 0
M  V30 84 H 13.8114 3.36127 3.25785 0
M  V30 85 H 13.9844 4.82538 4.32505 0
M  V30 86 N 7.3905 -1.2043 1.01659 0
M  V30 87 C 8.3205 -2.25466 0.607226 0
M  V30 88 C 9.3015 -1.65853 -0.377716 0
M  V30 89 O 10.4865 -1.92409 -0.263149 0
M  V30 90 C 7.6165 -3.47256 -0.0552949 0
M  V30 91 C 6.5705 -4.19462 0.850632 0
M  V30 92 C 5.8965 -5.34673 0.0538859 0
M  V30 93 C 7.1965 -4.75603 2.15868 0
M  V30 94 H 8.8905 -2.59962 1.48526 0
M  V30 95 H 6.4365 -1.2496 0.715605 0
M  V30 96 H 8.3895 -4.19917 -0.353233 0
M  V30 97 H 7.1135 -3.11924 -0.968045 0
M  V30 98 H 5.7725 -3.48667 1.13257 0
M  V30 99 H 5.4205 -4.95585 -0.860514 0
M  V30 100 H 5.1205 -5.83913 0.657192 0
M  V30 101 H 6.6445 -6.10138 -0.237598 0
M  V30 102 H 8.0585 -5.40083 1.92311 0
M  V30 103 H 6.4555 -5.3528 2.71284 0
M  V30 104 H 7.5255 -3.94346 2.82169 0
M  V30 105 N 8.8686 -0.792821 -1.36206 0
M  V30 106 C 10.0936 -0.377701 -2.03932 0
M  V30 107 C 10.5186 0.998947 -1.59382 0
M  V30 108 O 9.8766 1.64421 -0.763903 0
M  V30 109 C 9.9246 -0.453635 -3.57735 0
M  V30 110 O 9.0286 0.538151 -4.08874 0
M  V30 111 H 8.3696 -0.159855 -0.644471 0
M  V30 112 H 10.8996 -1.07488 -1.7409 0
M  V30 113 H 10.9096 -0.318464 -4.06755 0
M  V30 114 H 9.5846 -1.45784 -3.89512 0
M  V30 115 H 8.1616 0.364359 -3.71116 0
M  V30 116 N 10.3467 1.47872 -0.545128 0
M  V30 117 C 11.7627 1.5829 -0.204032 0
M  V30 118 C 11.9627 1.54529 1.29317 0
M  V30 119 O 11.0187 1.44232 2.07252 0
M  V30 120 C 12.3317 2.89304 -0.819987 0
M  V30 121 C 13.8797 3.02864 -0.790105 0
M  V30 122 C 14.3547 4.3656 -1.38491 0
M  V30 123 N 15.8457 4.43165 -1.34755 0
M  V30 124 C 16.5807 5.45153 -1.77753 0
M  V30 125 N 16.0767 6.54016 -2.2855 0
M  V30 126 N 17.8697 5.36125 -1.68897 0
M  V30 127 H 10.0207 1.4856 -1.51802 0
M  V30 128 H 12.2837 0.706305 -0.632327 0
M  V30 129 H 11.9897 2.97757 -1.87173 0
M  V30 130 H 11.8637 3.75957 -0.305915 0
M  V30 131 H 14.2507 2.94014 0.252913 0
M  V30 132 H 14.3317 2.17782 -1.34181 0
M  V30 133 H 13.9757 4.46164 -2.42693 0
M  V30 134 H 13.9057 5.20353 -0.808754 0
M  V30 135 H 16.3967 3.65083 -0.975855 0
M  V30 136 H 16.7097 7.27994 -2.59314 0
M  V30 137 H 15.0547 6.54938 -2.32553 0
M  V30 138 H 18.2457 4.49975 -1.28998 0
M  V30 139 H 18.4187 6.15472 -2.02726 0
M  V30 140 N 11.8248 0.280983 1.55075 0
M  V30 141 C 13.2358 -0.215629 1.85451 0
M  V30 142 C 13.5868 -1.54991 1.203 0
M  V30 143 O 12.7118 -2.10699 0.493435 0
M  V30 144 C 13.3068 -0.398026 3.36454 0
M  V30 145 C 11.8658 -0.838866 3.66933 0
M  V30 146 C 11.0128 0.064458 2.77225 0
M  V30 147 H 13.9638 0.502601 1.50531 0
M  V30 148 H 13.9848 -1.23569 3.59876 0
M  V30 149 H 13.4968 0.573241 3.83843 0
M  V30 150 H 11.5978 -1.8214 3.25048 0
M  V30 151 H 11.7108 -0.672123 4.74362 0
M  V30 152 H 10.0748 -0.452863 2.50642 0
M  V30 153 H 10.8578 1.03172 3.2743 0
M  V30 154 N 13.3029 -1.57598 0.00835791 0
M  V30 155 C 14.2329 -2.1198 -0.979113 0
M  V30 156 C 15.2139 -1.03091 -1.35301 0
M  V30 157 O 16.3989 -1.30818 -1.43528 0
M  V30 158 C 13.5289 -2.62995 -2.26828 0
M  V30 159 C 12.4829 -3.76485 -2.03576 0
M  V30 160 C 11.8089 -4.13846 -3.38579 0
M  V30 161 C 13.1089 -5.0342 -1.39161 0
M  V30 162 H 14.8029 -2.94738 -0.526281 0
M  V30 163 H 12.3489 -1.41783 -0.251704 0
M  V30 164 H 14.3019 -2.99669 -2.96271 0
M  V30 165 H 13.0259 -1.7737 -2.7424 0
M  V30 166 H 11.6849 -3.40217 -1.36557 0
M  V30 167 H 11.3329 -3.25232 -3.83709 0
M  V30 168 H 11.0329 -4.90312 -3.23834 0
M  V30 169 H 12.5569 -4.53086 -4.09323 0
M  V30 170 H 13.9709 -5.37812 -1.98573 0
M  V30 171 H 12.3679 -5.84746 -1.34878 0
M  V30 172 H 13.4379 -4.83548 -0.361868 0
M  V30 173 N 14.781 0.264519 -1.55364 0
M  V30 174 C 16.006 1.01726 -1.80739 0
M  V30 175 C 16.431 1.78836 -0.583044 0
M  V30 176 O 15.789 1.75167 0.467566 0
M  V30 177 C 15.837 1.94482 -3.03659 0
M  V30 178 O 14.941 3.03386 -2.7934 0
M  V30 179 H 14.282 0.290395 -0.597132 0
M  V30 180 H 16.812 0.290854 -2.02522 0
M  V30 181 H 16.822 2.36278 -3.32621 0
M  V30 182 H 15.497 1.37772 -3.92418 0
M  V30 183 H 14.074 2.65844 -2.61498 0
M  V30 184 N 16.2591 1.48442 0.529413 0
M  V30 185 C 17.6751 1.34575 0.858004 0
M  V30 186 C 17.8751 0.3572 1.98309 0
M  V30 187 O 16.9311 -0.221379 2.51528 0
M  V30 188 C 18.2441 2.74617 1.22499 0
M  V30 189 C 19.7921 2.83109 1.33484 0
M  V30 190 C 20.2671 4.23854 1.73526 0
M  V30 191 N 21.7581 4.2653 1.80628 0
M  V30 192 C 22.4931 5.32372 2.12997 0
M  V30 193 N 21.9891 6.48491 2.43786 0
M  V30 194 N 23.7821 5.19766 2.14008 0
M  V30 195 H 15.9331 2.1133 -0.212925 0
M  V30 196 H 18.1961 0.947439 -0.0326199 0
M  V30 197 H 17.9021 3.4852 0.471905 0
M  V30 198 H 17.7761 3.08177 2.17501 0
M  V30 199 H 20.1631 2.09462 2.0787 0
M  V30 200 H 20.2441 2.53168 0.366027 0
M  V30 201 H 19.8881 4.98018 0.997013 0
M  V30 202 H 19.8181 4.5124 2.71459 0
M  V30 203 H 22.3091 3.42772 1.59108 0
M  V30 204 H 22.6221 7.24993 2.67592 0
M  V30 205 H 20.9671 6.51765 2.41304 0
M  V30 206 H 24.1581 4.28066 1.89412 0
M  V30 207 H 24.3311 6.02354 2.38902 0
M  V30 208 N 17.7372 -0.778329 1.37039 0
M  V30 209 C 18.6672 -1.90546 1.34962 0
M  V30 210 C 19.6482 -1.68681 0.219274 0
M  V30 211 O 20.8332 -1.89634 0.418624 0
M  V30 212 C 17.9632 -3.27734 1.14925 0
M  V30 213 C 16.9172 -3.64147 2.24902 0
M  V30 214 C 16.2432 -4.99806 1.89996 0
M  V30 215 C 17.5432 -3.71579 3.67051 0
M  V30 216 H 19.2372 -1.92541 2.29277 0
M  V30 217 H 16.7832 -0.924948 1.10366 0
M  V30 218 H 18.7362 -4.06215 1.12104 0
M  V30 219 H 17.4602 -3.26154 0.170631 0
M  V30 220 H 16.1192 -2.8797 2.26868 0
M  V30 221 H 15.7672 -4.94759 0.906796 0
M  V30 222 H 15.4672 -5.25139 2.63634 0
M  V30 223 H 16.9912 -5.80694 1.88749 0
M  V30 224 H 18.4052 -4.40227 3.67251 0
M  V30 225 H 16.8022 -4.08405 4.39688 0
M  V30 226 H 17.8722 -2.72404 4.01154 0
M  V30 227 N 19.2153 -1.21501 -1.00376 0
M  V30 228 C 20.6263 -1.03146 -1.55621 0
M  V30 229 C 20.9773 0.408375 -1.91903 0
M  V30 230 O 20.1023 1.29177 -1.73616 0
M  V30 231 C 20.6973 -1.86612 -2.82775 0
M  V30 232 C 19.2563 -1.72586 -3.34501 0
M  V30 233 C 18.4033 -1.83747 -2.07683 0
M  V30 234 H 21.3543 -1.35505 -0.826081 0
M  V30 235 H 21.3753 -1.3771 -3.54706 0
M  V30 236 H 20.8873 -2.91399 -2.56336 0
M  V30 237 H 18.9883 -0.704877 -3.65872 0
M  V30 238 H 19.1013 -2.54623 -4.05837 0
M  V30 239 H 17.4653 -1.27069 -2.20739 0
M  V30 240 H 18.2483 -2.90044 -1.83655 0
M  V30 241 N 20.6934 1.19889 -1.02296 0
M  V30 242 C 21.9414 1.89046 -0.714558 0
M  V30 243 C 22.2624 1.79636 0.758681 0
M  V30 244 O 21.5324 1.20292 1.54618 0
M  V30 245 H 20.1124 0.699802 -0.261317 0
M  V30 246 H 22.7744 1.45574 -1.29592 0
M  V30 247 H 21.8704 2.95524 -1.0036 0
M  V30 248 N 22.1715 0.800033 1.35784 0
M  V30 249 C 23.1185 0.203848 2.29898 0
M  V30 250 C 24.0885 -0.658375 1.52495 0
M  V30 251 O 25.2735 -0.604832 1.8096 0
M  V30 252 C 22.4135 -0.64688 3.38983 0
M  V30 253 C 21.5265 0.235054 4.3136 0
M  V30 254 C 20.6615 -0.623054 5.27533 0
M  V30 255 C 19.7005 0.259682 6.11549 0
M  V30 256 N 18.8375 -0.558019 6.99879 0
M  V30 257 H 23.6775 1.01186 2.80295 0
M  V30 258 H 21.2145 0.51053 1.37957 0
M  V30 259 H 23.1725 -1.15521 4.00887 0
M  V30 260 H 21.8025 -1.42021 2.89879 0
M  V30 261 H 20.8545 0.861438 3.70518 0
M  V30 262 H 22.1665 0.914768 4.9034 0
M  V30 263 H 21.3205 -1.19678 5.94779 0
M  V30 264 H 20.0595 -1.33636 4.69034 0
M  V30 265 H 19.0645 0.845726 5.43256 0
M  V30 266 H 20.2895 0.970748 6.72126 0
M  V30 267 H 18.2355 -1.25542 6.43875 0
M  V30 268 H 18.1525 0.0637872 7.55973 0
M  V30 269 H 19.4205 -1.11523 7.71481 0
M  V30 270 N 23.6496 -1.47581 0.552962 0
M  V30 271 C 24.8776 -2.06875 0.0320556 0
M  V30 272 C 25.2926 -1.40625 -1.25976 0
M  V30 273 O 24.6496 -0.501349 -1.75479 0
M  V30 274 C 24.7006 -3.61092 -0.17167 0
M  V30 275 O 24.4216 -4.24858 1.06899 0
M  V30 276 C 25.9226 -4.37242 -0.730344 0
M  V30 277 H 23.1426 -0.669561 0.043915 0
M  V30 278 H 25.6866 -1.89646 0.765163 0
M  V30 279 H 23.8416 -3.7785 -0.854894 0
M  V30 280 H 24.2556 -5.17334 0.864059 0
M  V30 281 H 25.7296 -5.45842 -0.822203 0
M  V30 282 H 26.2066 -4.03235 -1.74064 0
M  V30 283 H 26.8126 -4.25219 -0.0829543 0
M  V30 284 N 25.1277 -0.289203 -1.54924 0
M  V30 285 C 26.0577 0.58549 -2.2604 0
M  V30 286 C 27.0387 1.14753 -1.25562 0
M  V30 287 O 28.2237 1.17906 -1.54311 0
M  V30 288 C 25.3537 1.76305 -2.99222 0
M  V30 289 C 24.3077 1.33191 -4.06748 0
M  V30 290 C 23.6337 2.5937 -4.6758 0
M  V30 291 C 24.9337 0.471775 -5.20165 0
M  V30 292 H 26.6277 -0.00763532 -2.99399 0
M  V30 293 H 24.1737 -0.00511229 -1.43999 0
M  V30 294 H 26.1267 2.38097 -3.47689 0
M  V30 295 H 24.8507 2.38223 -2.23422 0
M  V30 296 H 23.5097 0.737121 -3.59113 0
M  V30 297 H 23.1577 3.19576 -3.88433 0
M  V30 298 H 22.8577 2.31228 -5.40192 0
M  V30 299 H 24.3817 3.21985 -5.18804 0
M  V30 300 H 25.7957 0.995056 -5.64599 0
M  V30 301 H 24.1927 0.284639 -5.99425 0
M  V30 302 H 25.2627 -0.506041 -4.82252 0
M  V30 303 N 26.6058 1.57591 -0.0167156 0
M  V30 304 C 27.8308 1.9598 0.67872 0
M  V30 305 C 28.2558 0.892546 1.65575 0
M  V30 306 O 27.6138 -0.147772 1.80697 0
M  V30 307 C 27.6618 3.33468 1.37227 0
M  V30 308 O 26.7658 3.28954 2.48722 0
M  V30 309 H 26.1068 0.639339 0.17928 0
M  V30 310 H 28.6368 2.04463 -0.0748802 0
M  V30 311 H 28.6468 3.69417 1.7319 0
M  V30 312 H 27.3218 4.10694 0.656007 0
M  V30 313 H 25.8988 3.04705 2.14963 0
M  V30 314 N 28.0839 -0.256276 1.55502 0
M  V30 315 C 29.0469 -1.30047 1.88734 0
M  V30 316 C 30.0469 -1.4154 0.763086 0
M  V30 317 O 31.2369 -1.40403 1.03115 0
M  V30 318 C 28.3689 -2.67953 2.10747 0
M  V30 319 H 29.5619 -1.01802 2.82093 0
M  V30 320 H 27.1149 -0.495134 1.4825 0
M  V30 321 H 27.8499 -3.01351 1.19825 0
M  V30 322 H 27.6349 -2.60993 2.92617 0
M  V30 323 H 29.1249 -3.43368 2.37673 0
M  V30 324 N 29.562 -1.4872 -0.521534 0
M  V30 325 C 30.802 -1.58771 -1.28729 0
M  V30 326 C 31.166 -0.259394 -1.9024 0
M  V30 327 O 32.367 -0.234942 -2.67771 0
M  V30 328 C 30.638 -2.70039 -2.34124 0
M  V30 329 S 32.197 -2.9991 -3.20312 0
M  V30 330 H 29.015 -0.560251 -0.437767 0
M  V30 331 H 31.617 -1.86283 -0.593188 0
M  V30 332 H 30.321 -3.65101 -1.87429 0
M  V30 333 H 29.852 -2.44455 -3.08229 0
M  V30 334 H 31.867 -2.39855 -4.34378 0
M  V30 335 N 31.0401 0.771051 -1.3745 0
M  V30 336 C 32.3171 1.519 -1.23231 0
M  V30 337 C 32.6971 2.10383 0.173809 0
M  V30 338 O 32.0451 1.95583 1.18151 0
M  V30 339 C 32.2551 2.59933 -2.32886 0
M  V30 340 C 33.6031 3.27316 -2.70461 0
M  V30 341 O 34.6271 2.70228 -2.32068 0
M  V30 342 O 33.4861 4.30531 -3.36608 0
M  V30 343 H 30.5801 0.672803 -0.480901 0
M  V30 344 H 33.1261 0.807957 -1.49232 0
M  V30 345 H 31.8981 2.14842 -3.27045 0
M  V30 346 H 31.5211 3.38637 -2.08353 0
M  V30 347 N 32.5182 1.22032 0.997298 0
M  V30 348 C 33.9342 0.979326 1.26021 0
M  V30 349 C 34.1342 -0.32972 1.98784 0
M  V30 350 O 33.1902 -1.05345 2.29475 0
M  V30 351 C 34.5032 2.17509 2.07631 0
M  V30 352 C 36.0512 2.21817 2.2083 0
M  V30 353 C 36.5262 3.40933 3.05825 0
M  V30 354 N 38.0172 3.41067 3.13412 0
M  V30 355 C 38.7522 4.29885 3.79455 0
M  V30 356 N 38.2482 5.28914 4.47462 0
M  V30 357 N 40.0412 4.17673 3.76173 0
M  V30 358 H 32.1922 2.06202 0.509352 0
M  V30 359 H 34.4552 0.90334 0.287541 0
M  V30 360 H 34.1612 3.12415 1.61524 0
M  V30 361 H 34.0352 2.17206 3.08385 0
M  V30 362 H 36.4222 1.27462 2.66153 0
M  V30 363 H 36.5032 2.2616 1.1952 0
M  V30 364 H 36.1472 4.35586 2.61203 0
M  V30 365 H 36.0772 3.33829 4.07266 0
M  V30 366 H 38.5682 2.69406 2.65007 0
M  V30 367 H 38.8812 5.92973 4.95583 0
M  V30 368 H 37.2262 5.32831 4.46224 0
M  V30 369 H 40.4172 3.39564 3.22202 0
M  V30 370 H 40.5902 4.87098 4.27363 0
M  V30 371 N 33.9963 -1.19345 1.0293 0
M  V30 372 C 34.9063 -2.26245 0.620515 0
M  V30 373 C 35.9223 -1.70486 -0.347928 0
M  V30 374 O 37.0983 -2.00347 -0.205704 0
M  V30 375 C 34.1633 -3.46693 -0.0218957 0
M  V30 376 C 33.2243 -4.17632 0.994102 0
M  V30 377 C 32.4573 -5.32329 0.382253 0
M  V30 378 O 32.6803 -5.64552 -0.814676 0
M  V30 379 O 31.6143 -5.91664 1.10531 0
M  V30 380 H 35.4403 -2.63453 1.51083 0
M  V30 381 H 33.0253 -1.26207 0.799513 0
M  V30 382 H 34.9073 -4.19683 -0.380072 0
M  V30 383 H 33.5823 -3.11333 -0.886209 0
M  V30 384 H 32.4893 -3.4676 1.40387 0
M  V30 385 H 33.8223 -4.56964 1.8288 0
M  V30 386 N 35.4744 -0.807222 -1.35358 0
M  V30 387 C 36.4224 -0.20614 -2.31685 0
M  V30 388 C 37.4164 0.644445 -1.56663 0
M  V30 389 O 38.6224 0.537538 -1.71786 0
M  V30 390 H 34.9974 -0.0479006 -0.750473 0
M  V30 391 H 36.9684 -1.03369 -2.79924 0
M  V30 392 C 35.7174 0.630212 -3.41941 0
M  V30 393 H 35.0404 -0.0149558 -3.99797 0
M  V30 394 H 36.4804 1.01716 -4.11619 0
M  V30 395 C 34.9394 1.79601 -2.85035 0
M  V30 396 O 35.4694 2.89351 -2.78637 0
M  V30 397 N 33.6754 1.60774 -2.42074 0
M  V30 398 H 33.2224 0.715009 -2.47478 0
M  V30 399 H 33.1804 2.38933 -2.04349 0
M  V30 400 N 36.9525 1.47285 -0.560781 0
M  V30 401 C 38.2005 2.02064 -0.0379868 0
M  V30 402 C 38.5215 1.43711 1.31803 0
M  V30 403 O 37.7915 0.61362 1.86042 0
M  V30 404 H 36.3715 0.746918 -0.0110531 0
M  V30 405 H 39.0335 1.80648 -0.731598 0
M  V30 406 H 38.1295 3.12064 0.0474463 0
M  V30 407 N 38.4306 0.297415 1.54768 0
M  V30 408 C 39.3936 -0.567375 2.22066 0
M  V30 409 C 40.3936 -1.06409 1.20556 0
M  V30 410 O 41.5836 -0.960691 1.45315 0
M  V30 411 C 38.7156 -1.78517 2.90421 0
M  V30 412 H 39.9086 0.0205534 2.99893 0
M  V30 413 H 37.4616 0.0482163 1.56226 0
M  V30 414 H 38.1966 -2.41303 2.16664 0
M  V30 415 H 37.9816 -1.43669 3.64831 0
M  V30 416 H 39.4716 -2.39964 3.41771 0
M  V30 417 N 39.9087 -1.5758 0.0250728 0
M  V30 418 C 41.3247 -1.56124 -0.331282 0
M  V30 419 C 41.5247 -1.03029 -1.73169 0
M  V30 420 O 40.5807 -0.675215 -2.43305 0
M  V30 421 C 41.8937 -3.00139 -0.183584 0
M  V30 422 C 43.4417 -3.11946 -0.256654 0
M  V30 423 C 43.9167 -4.57793 -0.137792 0
M  V30 424 N 45.4077 -4.6279 -0.194904 0
M  V30 425 C 46.1427 -5.7326 -0.126655 0
M  V30 426 N 45.6387 -6.928 -0.00755288 0
M  V30 427 N 47.4317 -5.61811 -0.180348 0
M  V30 428 H 39.5827 -1.90424 0.94087 0
M  V30 429 H 41.8457 -0.875761 0.362968 0
M  V30 430 H 41.5517 -3.4292 0.780927 0
M  V30 431 H 41.4257 -3.64899 -0.955448 0
M  V30 432 H 43.8127 -2.69079 -1.21162 0
M  V30 433 H 43.8937 -2.49915 0.545517 0
M  V30 434 H 43.5377 -5.01339 0.813739 0
M  V30 435 H 43.4677 -5.17798 -0.958775 0
M  V30 436 H 45.9587 -3.76807 -0.287267 0
M  V30 437 H 46.2717 -7.72791 0.0379428 0
M  V30 438 H 44.6167 -6.94995 0.0271731 0
M  V30 439 H 47.8077 -4.6731 -0.271767 0
M  V30 440 H 47.9807 -6.47882 -0.123697 0
M  V30 441 N 41.3868 0.248026 -1.55636 0
M  V30 442 C 42.8028 0.596483 -1.48035 0
M  V30 443 C 43.0028 1.88386 -0.715039 0
M  V30 444 O 42.0588 2.51319 -0.243944 0
M  V30 445 C 43.3718 0.700258 -2.92433 0
M  V30 446 C 44.9198 0.792659 -3.02797 0
M  V30 447 C 45.3948 0.928005 -4.485 0
M  V30 448 N 46.8858 0.992903 -4.52433 0
M  V30 449 C 47.6208 1.11687 -5.62418 0
M  V30 450 N 47.1168 1.20645 -6.82214 0
M  V30 451 N 48.9098 1.14994 -5.50212 0
M  V30 452 H 41.0608 -0.597109 -2.03834 0
M  V30 453 H 43.3238 -0.205925 -0.925364 0
M  V30 454 H 43.0298 -0.175658 -3.51261 0
M  V30 455 H 42.9038 1.57255 -3.42857 0
M  V30 456 H 45.2908 1.65903 -2.4405 0
M  V30 457 H 45.3718 -0.104762 -2.55585 0
M  V30 458 H 45.0158 0.0661971 -5.07857 0
M  V30 459 H 44.9458 1.84045 -4.93391 0
M  V30 460 H 47.4368 0.935064 -3.66149 0
M  V30 461 H 47.7498 1.30008 -7.61786 0
M  V30 462 H 46.0948 1.17605 -6.84977 0
M  V30 463 H 49.2858 1.07643 -4.55555 0
M  V30 464 H 49.4588 1.24311 -6.35965 0
M  V30 465 N 42.8649 1.48995 0.513639 0
M  V30 466 C 44.2759 1.5119 1.09537 0
M  V30 467 C 44.6269 0.290906 1.94031 0
M  V30 468 O 43.7519 -0.60049 2.07902 0
M  V30 469 C 44.3469 2.73964 1.99322 0
M  V30 470 C 42.9059 2.78978 2.52682 0
M  V30 471 C 42.0529 2.44934 1.30009 0
M  V30 472 H 45.0039 1.55875 0.298125 0
M  V30 473 H 45.0249 2.53409 2.83838 0
M  V30 474 H 44.5369 3.62813 1.37799 0
M  V30 475 H 42.6379 1.94378 3.1788 0
M  V30 476 H 42.7509 3.8083 2.90698 0
M  V30 477 H 41.1149 1.9644 1.62122 0
M  V30 478 H 41.8979 3.36043 0.702131 0
M  V30 479 N 44.343 -0.763751 1.37857 0
M  V30 480 C 45.273 -1.89103 1.36975 0
M  V30 481 C 46.254 -1.68439 0.237152 0
M  V30 482 O 47.439 -1.8918 0.438713 0
M  V30 483 C 44.569 -3.26496 1.18395 0
M  V30 484 C 43.523 -3.61741 2.28751 0
M  V30 485 C 42.849 -4.97762 1.95286 0
M  V30 486 C 44.149 -3.67665 3.70972 0
M  V30 487 H 45.843 -1.90099 2.31307 0
M  V30 488 H 43.389 -0.91319 1.11341 0
M  V30 489 H 45.342 -4.05003 1.16406 0
M  V30 490 H 44.066 -3.25955 0.205215 0
M  V30 491 H 42.725 -2.85547 2.29909 0
M  V30 492 H 42.373 -4.93769 0.959221 0
M  V30 493 H 42.073 -5.22313 2.69189 0
M  V30 494 H 43.597 -5.7866 1.94898 0
M  V30 495 H 45.011 -4.36307 3.719 0
M  V30 496 H 43.408 -4.03718 4.43995 0
M  V30 497 H 44.478 -2.68134 4.0402 0
M  V30 498 N 45.8211 -1.22559 -0.990812 0
M  V30 499 C 46.7511 -1.0218 -2.09956 0
M  V30 500 C 47.7321 0.0579394 -1.70001 0
M  V30 501 O 48.9171 -0.104684 -1.93918 0
M  V30 502 C 46.0471 -0.601023 -3.4206 0
M  V30 503 C 45.0011 -1.62694 -3.95872 0
M  V30 504 C 44.3271 -1.06193 -5.24049 0
M  V30 505 C 45.6271 -3.01743 -4.2632 0
M  V30 506 H 47.3211 -1.94916 -2.27262 0
M  V30 507 H 44.8671 -0.938566 -1.09211 0
M  V30 508 H 46.8201 -0.445561 -4.19038 0
M  V30 509 H 45.5441 0.362005 -3.24588 0
M  V30 510 H 44.2031 -1.77021 -3.21028 0
M  V30 511 H 43.8511 -0.0901903 -5.02919 0
M  V30 512 H 43.5511 -1.74732 -5.61019 0
M  V30 513 H 45.0751 -0.918092 -6.03658 0
M  V30 514 H 46.4891 -2.90777 -4.94087 0
M  V30 515 H 44.8861 -3.67425 -4.74467 0
M  V30 516 H 45.9561 -3.51518 -3.34011 0
M  V30 517 N 47.2992 1.18797 -1.03562 0
M  V30 518 C 48.2292 2.24472 -0.643019 0
M  V30 519 C 49.2102 1.66433 0.351283 0
M  V30 520 O 50.3952 1.92803 0.232505 0
M  V30 521 C 47.5252 3.473 4.24935e-05 0
M  V30 522 C 46.4792 4.18055 -0.917257 0
M  V30 523 C 45.8052 5.34519 -0.138941 0
M  V30 524 C 47.1052 4.72109 -2.23407 0
M  V30 525 H 48.7992 2.57566 -1.52643 0
M  V30 526 H 46.3452 1.23806 -0.735394 0
M  V30 527 H 48.2982 4.20426 0.286383 0
M  V30 528 H 47.0222 3.13424 0.918299 0
M  V30 529 H 45.6812 3.46821 -1.1879 0
M  V30 530 H 45.3292 4.96891 0.781562 0
M  V30 531 H 45.0292 5.82794 -0.750005 0
M  V30 532 H 46.5532 6.10438 0.1405 0
M  V30 533 H 47.9672 5.36955 -2.00879 0
M  V30 534 H 46.3642 5.30897 -2.79765 0
M  V30 535 H 47.4342 3.89807 -2.88407 0
M  V30 536 N 48.7773 0.814389 1.34928 0
M  V30 537 C 50.0253 0.397636 1.9815 0
M  V30 538 C 50.3463 -1.04069 1.64908 0
M  V30 539 O 49.6163 -1.72121 0.93548 0
M  V30 540 H 48.1963 0.144043 0.732981 0
M  V30 541 H 50.8583 1.04195 1.6471 0
M  V30 542 H 49.9543 0.509688 3.0791 0
M  V30 543 N 50.2554 -1.46986 0.568584 0
M  V30 544 C 51.4804 -2.07335 0.0520528 0
M  V30 545 C 51.9054 -1.41675 -1.23733 0
M  V30 546 O 51.2634 -0.495623 -1.74394 0
M  V30 547 C 51.3114 -3.60417 -0.11501 0
M  V30 548 O 50.4154 -3.95309 -1.17492 0
M  V30 549 H 49.7564 -0.661597 0.0564385 0
M  V30 550 H 52.2864 -1.88837 0.787507 0
M  V30 551 H 52.2964 -4.06698 -0.325644 0
M  V30 552 H 50.9714 -4.07601 0.826675 0
M  V30 553 H 49.5484 -3.60757 -0.943869 0
M  V30 554 N 51.7335 -0.305618 -1.54608 0
M  V30 555 C 52.9615 0.304775 -2.04643 0
M  V30 556 C 53.3765 1.47167 -1.18268 0
M  V30 557 O 52.7335 1.81296 -0.209328 0
M  V30 558 C 52.7845 0.756564 -3.53495 0
M  V30 559 O 52.5055 -0.36389 -4.36586 0
M  V30 560 C 54.0065 1.43163 -4.19546 0
M  V30 561 H 51.2265 0.0655481 -0.667791 0
M  V30 562 H 53.7705 -0.446592 -1.99564 0
M  V30 563 H 51.9255 1.45794 -3.58919 0
M  V30 564 H 52.3395 -0.0113121 -5.24499 0
M  V30 565 H 53.8135 1.69886 -5.25207 0
M  V30 566 H 54.2905 2.37318 -3.69563 0
M  V30 567 H 54.8965 0.773307 -4.18211 0
M  V30 568 N 53.2116 1.57565 -0.0334293 0
M  V30 569 C 54.4366 1.96689 0.657895 0
M  V30 570 C 54.8616 0.910057 1.64619 0
M  V30 571 O 54.2196 -0.128598 1.80843 0
M  V30 572 C 54.2676 3.34905 1.33683 0
M  V30 573 O 53.3716 3.31574 2.45219 0
M  V30 574 H 52.7126 0.641205 0.172489 0
M  V30 575 H 55.2426 2.04372 -0.0965621 0
M  V30 576 H 55.2526 3.71234 1.69262 0
M  V30 577 H 53.9276 4.11366 0.612411 0
M  V30 578 H 52.5046 3.06968 2.11719 0
M  V30 579 N 54.6897 -0.239769 1.55765 0
M  V30 580 C 55.9367 -0.966801 1.7793 0
M  V30 581 C 56.2647 -1.85046 0.599015 0
M  V30 582 O 55.5197 -1.91197 -0.417395 0
M  V30 583 C 55.8187 -1.852 3.05672 0
M  V30 584 C 55.4847 -1.1231 4.36689 0
M  V30 585 C 54.1467 -0.921689 4.72291 0
M  V30 586 C 56.4987 -0.607019 5.17653 0
M  V30 587 C 53.8267 -0.191996 5.86386 0
M  V30 588 C 56.1787 0.109241 6.32506 0
M  V30 589 C 54.8427 0.322073 6.66723 0
M  V30 590 H 54.1127 -0.353778 0.651093 0
M  V30 591 H 56.7597 -0.23634 1.90036 0
M  V30 592 H 55.0647 -2.64975 2.8861 0
M  V30 593 H 56.7617 -2.41635 3.20021 0
M  V30 594 H 53.3517 -1.29004 4.08725 0
M  V30 595 H 57.5357 -0.750153 4.90598 0
M  V30 596 H 52.7917 -0.0166949 6.11398 0
M  V30 597 H 56.9657 0.516737 6.9448 0
M  V30 598 H 54.5927 0.88944 7.54979 0
M  V30 599 N 56.1678 -1.49265 -0.50573 0
M  V30 600 C 57.4168 -1.57761 -1.25675 0
M  V30 601 C 57.7298 -0.267371 -1.93764 0
M  V30 602 O 58.9358 -0.230827 -2.70517 0
M  V30 603 C 57.3918 -2.78332 -2.28165 0
M  V30 604 C 56.9998 -4.16096 -1.66037 0
M  V30 605 C 58.7438 -2.96155 -3.04125 0
M  V30 606 C 56.6508 -5.27895 -2.6661 0
M  V30 607 H 55.5808 -0.587391 -0.472745 0
M  V30 608 H 58.2318 -1.75644 -0.53118 0
M  V30 609 H 56.6138 -2.53934 -3.03865 0
M  V30 610 H 57.7878 -4.50612 -0.963622 0
M  V30 611 H 56.1028 -4.03591 -1.02484 0
M  V30 612 H 58.6998 -3.76849 -3.79327 0
M  V30 613 H 59.0428 -2.06534 -3.61455 0
M  V30 614 H 59.5758 -3.2057 -2.35541 0
M  V30 615 H 56.3148 -6.1956 -2.14068 0
M  V30 616 H 55.8348 -4.97839 -3.34539 0
M  V30 617 H 57.5138 -5.57031 -3.29129 0
M  V30 618 N 57.6459 0.756429 -1.3826 0
M  V30 619 C 59.0569 1.33359 -1.30661 0
M  V30 620 C 59.4079 1.96161 0.0388875 0
M  V30 621 O 58.5329 1.94874 0.940918 0
M  V30 622 C 59.1279 2.42477 -2.36622 0
M  V30 623 C 57.6869 2.95922 -2.3261 0
M  V30 624 C 56.8339 1.69275 -2.19639 0
M  V30 625 H 59.7849 0.55552 -1.4866 0
M  V30 626 H 59.8059 3.22345 -2.02174 0
M  V30 627 H 59.3179 1.96739 -3.34538 0
M  V30 628 H 57.4189 3.45996 -1.38267 0
M  V30 629 H 57.5319 3.50494 -3.26636 0
M  V30 630 H 55.8959 1.92793 -1.66442 0
M  V30 631 H 56.6789 1.25619 -3.19491 0
M  V30 632 N 59.124 1.23083 0.984299 0
M  V30 633 C 60.373 1.05466 1.71929 0
M  V30 634 C 60.686 -0.409211 1.91272 0
M  V30 635 O 61.892 -0.705226 2.62181 0
M  V30 636 C 60.348 1.83874 3.09384 0
M  V30 637 C 59.956 3.34566 2.97943 0
M  V30 638 C 61.7 1.74734 3.8687 0
M  V30 639 C 59.607 4.05381 4.30605 0
M  V30 640 H 58.537 0.391039 0.644674 0
M  V30 641 H 61.188 1.47013 1.09815 0
M  V30 642 H 59.57 1.35131 3.72231 0
M  V30 643 H 60.744 3.90767 2.44209 0
M  V30 644 H 59.059 3.44476 2.33934 0
M  V30 645 H 61.656 2.24957 4.85076 0
M  V30 646 H 61.999 0.709372 4.10212 0
M  V30 647 H 62.532 2.21067 3.30717 0
M  V30 648 H 59.271 5.09467 4.1246 0
M  V30 649 H 58.791 3.53967 4.84218 0
M  V30 650 H 60.47 4.11458 4.99311 0
M  V30 651 N 60.6021 -1.18246 1.0419 0
M  V30 652 C 61.8501 -1.87886 0.744543 0
M  V30 653 C 62.1711 -1.8082 -0.730006 0
M  V30 654 O 61.4411 -1.22736 -1.52685 0
M  V30 655 H 60.0211 -0.695556 0.272417 0
M  V30 656 H 62.6831 -1.43494 1.31892 0
M  V30 657 H 61.7791 -2.9389 1.05049 0
M  V30 658 N 62.0802 -0.821533 -1.34494 0
M  V30 659 C 63.4962 -0.507117 -1.51329 0
M  V30 660 C 63.6962 0.968964 -1.76673 0
M  V30 661 O 62.7522 1.75348 -1.81685 0
M  V30 662 C 64.0652 -1.36544 -2.67911 0
M  V30 663 C 65.6132 -1.36242 -2.81793 0
M  V30 664 C 66.0882 -2.2052 -4.01416 0
M  V30 665 N 67.5792 -2.18136 -4.08621 0
M  V30 666 C 68.3142 -2.80095 -5.00334 0
M  V30 667 N 67.8102 -3.51039 -5.9728 0
M  V30 668 N 69.6032 -2.69656 -4.93196 0
M  V30 669 H 61.7542 -1.77729 -1.16302 0
M  V30 670 H 64.0172 -0.757291 -0.570276 0
M  V30 671 H 63.7232 -2.41361 -2.55808 0
M  V30 672 H 63.5972 -1.02917 -3.62888 0
M  V30 673 H 65.9842 -0.322041 -2.93338 0
M  V30 674 H 66.0652 -1.73866 -1.87628 0
M  V30 675 H 65.7092 -3.24607 -3.90631 0
M  V30 676 H 65.6392 -1.80247 -4.94791 0
M  V30 677 H 68.1302 -1.6653 -3.39229 0
M  V30 678 H 68.4432 -3.95565 -6.63889 0
M  V30 679 H 66.7882 -3.55145 -5.97409 0
M  V30 680 H 69.9792 -2.13808 -4.16418 0
M  V30 681 H 70.1522 -3.1823 -5.64476 0
M  V30 682 N 63.5583 1.46682 -0.576371 0
M  V30 683 C 64.9743 1.57822 -0.237562 0
M  V30 684 C 65.1743 1.57237 1.26011 0
M  V30 685 O 64.2303 1.48596 2.04146 0
M  V30 686 C 65.5433 2.87499 -0.881168 0
M  V30 687 C 67.0913 3.01119 -0.85417 0
M  V30 688 C 67.5663 4.33524 -1.4772 0
M  V30 689 N 69.0573 4.40207 -1.44125 0
M  V30 690 C 69.7923 5.4126 -1.89276 0
M  V30 691 N 69.2883 6.49021 -2.42371 0
M  V30 692 N 71.0813 5.32422 -1.80231 0
M  V30 693 H 63.2323 1.45306 -1.54919 0
M  V30 694 H 65.4953 0.692733 -0.647167 0
M  V30 695 H 65.2013 2.9372 -1.93447 0
M  V30 696 H 65.0753 3.75224 -0.385592 0
M  V30 697 H 67.4623 2.94485 0.190491 0
M  V30 698 H 67.5433 2.14887 -1.3877 0
M  V30 699 H 67.1873 4.40916 -2.52103 0
M  V30 700 H 67.1173 5.1852 -0.918947 0
M  V30 701 H 69.6083 3.62931 -1.05307 0
M  V30 702 H 69.9213 7.2233 -2.74698 0
M  V30 703 H 68.2663 6.49858 -2.46393 0
M  V30 704 H 71.4573 4.47137 -1.38514 0
M  V30 705 H 71.6303 6.11034 -2.15735 0
M  V30 706 N 65.0364 0.313813 1.54444 0
M  V30 707 C 66.2644 -0.293918 2.04802 0
M  V30 708 C 66.6794 -1.46537 1.19047 0
M  V30 709 O 66.0364 -1.81182 0.218939 0
M  V30 710 C 66.0874 -0.737806 3.53891 0
M  V30 711 O 65.8084 0.387038 4.36387 0
M  V30 712 C 67.3094 -1.40936 4.203 0
M  V30 713 H 64.5294 -0.0620057 0.668129 0
M  V30 714 H 67.0734 0.457169 1.99324 0
M  V30 715 H 65.2284 -1.43889 3.59687 0
M  V30 716 H 65.6424 0.0391274 5.24485 0
M  V30 717 H 67.1164 -1.67099 5.26101 0
M  V30 718 H 67.5934 -2.35355 3.70816 0
M  V30 719 H 68.1994 -0.751117 4.18615 0
M  V30 720 N 66.5145 -1.57545 0.0417849 0
M  V30 721 C 67.7445 -1.96339 -0.642995 0
M  V30 722 C 68.1525 -0.917536 -1.65463 0
M  V30 723 O 67.4955 0.107747 -1.83384 0
M  V30 724 C 67.5575 -3.31333 -1.39494 0
M  V30 725 C 67.2215 -4.53796 -0.540204 0
M  V30 726 C 68.2185 -5.19553 0.189806 0
M  V30 727 C 65.9035 -5.0006 -0.473886 0
M  V30 728 C 67.8975 -6.29904 0.974674 0
M  V30 729 C 65.5845 -6.10289 0.314677 0
M  V30 730 C 66.5825 -6.75072 1.03765 0
M  V30 731 O 66.2705 -7.83183 1.81327 0
M  V30 732 H 66.0025 -0.651241 -0.181277 0
M  V30 733 H 68.5565 -2.05148 0.101665 0
M  V30 734 H 66.7865 -3.19052 -2.18502 0
M  V30 735 H 68.4755 -3.54942 -1.96904 0
M  V30 736 H 69.2415 -4.84774 0.147981 0
M  V30 737 H 65.1205 -4.49433 -1.0262 0
M  V30 738 H 68.6645 -6.80401 1.5395 0
M  V30 739 H 64.5615 -6.44506 0.358174 0
M  V30 740 H 65.3295 -7.99913 1.73438 0
M  V30 741 N 67.9926 0.231505 -1.5589 0
M  V30 742 C 68.9556 1.27028 -1.90779 0
M  V30 743 C 69.9556 1.40308 -0.785507 0
M  V30 744 O 71.1456 1.38744 -1.05336 0
M  V30 745 C 68.2776 2.64566 -2.14983 0
M  V30 746 H 69.4706 0.973017 -2.83677 0
M  V30 747 H 67.0236 0.471486 -1.49019 0
M  V30 748 H 67.7586 2.99406 -1.24604 0
M  V30 749 H 67.5436 2.56305 -2.96732 0
M  V30 750 H 69.0336 3.39543 -2.43105 0
M  V30 751 N 69.4707 1.49531 0.497807 0
M  V30 752 C 70.6957 1.63159 1.28039 0
M  V30 753 C 71.1207 0.30418 1.85624 0
M  V30 754 O 70.4787 -0.728618 1.66015 0
M  V30 755 C 70.5267 2.70537 2.38416 0
M  V30 756 O 69.6307 2.29931 3.42353 0
M  V30 757 H 68.9717 0.546001 0.377861 0
M  V30 758 H 71.5017 1.9574 0.59558 0
M  V30 759 H 71.5117 2.92802 2.84132 0
M  V30 760 H 70.1867 3.6689 1.95869 0
M  V30 761 H 68.7637 2.18009 3.02533 0
M  V30 762 N 70.9488 -0.749086 1.3866 0
M  V30 763 C 71.9118 -1.84457 1.36045 0
M  V30 764 C 72.9118 -1.58682 0.260122 0
M  V30 765 O 74.1018 -1.66343 0.517261 0
M  V30 766 C 71.2338 -3.22008 1.11911 0
M  V30 767 H 72.4268 -1.88182 2.33512 0
M  V30 768 H 69.9798 -0.951266 1.24019 0
M  V30 769 H 70.7148 -3.2395 0.150686 0
M  V30 770 H 70.4998 -3.42111 1.91579 0
M  V30 771 H 71.9898 -4.0208 1.12788 0
M  V30 772 N 72.4269 -1.23603 -0.977757 0
M  V30 773 C 73.3899 -1.02069 -2.05218 0
M  V30 774 C 74.3899 0.0184305 -1.60789 0
M  V30 775 O 75.5799 -0.221569 -1.72785 0
M  V30 776 C 72.7119 -0.544926 -3.36517 0
M  V30 777 H 73.9049 -1.9742 -2.25755 0
M  V30 778 H 71.4579 -1.05684 -1.15155 0
M  V30 779 H 72.1929 0.412241 -3.21669 0
M  V30 780 H 71.9779 -1.2948 -3.70105 0
M  V30 781 H 73.4679 -0.414985 -4.15533 0
M  V30 782 N 73.905 1.17692 -1.04816 0
M  V30 783 C 74.815 2.25229 -0.65643 0
M  V30 784 C 75.831 1.71018 0.320761 0
M  V30 785 O 77.007 2.00649 0.173805 0
M  V30 786 C 74.072 3.46684 -0.0332629 0
M  V30 787 C 73.133 4.15997 -1.06042 0
M  V30 788 C 72.366 5.31654 -0.466893 0
M  V30 789 O 72.589 5.65777 0.724758 0
M  V30 790 O 71.523 5.89831 -1.1993 0
M  V30 791 H 75.349 2.61016 -1.55255 0
M  V30 792 H 72.934 1.24919 -0.81949 0
M  V30 793 H 74.816 4.20234 0.313256 0
M  V30 794 H 73.491 3.12703 0.836566 0
M  V30 795 H 72.398 3.44482 -1.45886 0
M  V30 796 H 73.731 4.53996 -1.90127 0
M  V30 797 N 75.3831 0.828654 1.34056 0
M  V30 798 C 76.7941 0.477534 1.8049 0
M  V30 799 C 77.1451 -1.00258 1.6865 0
M  V30 800 O 76.2701 -1.78057 1.22982 0
M  V30 801 C 76.8651 0.860018 3.27703 0
M  V30 802 C 75.4241 0.561185 3.72193 0
M  V30 803 C 74.5711 1.07385 2.55663 0
M  V30 804 H 77.5221 1.0183 1.21722 0
M  V30 805 H 77.5431 0.166038 3.80138 0
M  V30 806 H 77.0551 1.93731 3.36288 0
M  V30 807 H 75.1561 -0.506465 3.69142 0
M  V30 808 H 75.2691 1.10926 4.66082 0
M  V30 809 H 73.6331 0.495149 2.49841 0
M  V30 810 H 74.4161 2.15771 2.67016 0
M  V30 811 N 76.8612 -1.46375 0.584142 0
M  V30 812 C 78.1072 -2.02678 0.0703716 0
M  V30 813 C 78.4402 -1.4545 -1.28678 0
M  V30 814 O 77.7152 -0.62014 -1.84349 0
M  V30 815 C 77.9982 -3.60099 0.00614674 0
M  V30 816 C 77.8512 -4.27709 1.3923 0
M  V30 817 C 79.1702 -4.34598 -0.693742 0
M  V30 818 H 76.2892 -0.736504 0.027047 0
M  V30 819 H 78.9312 -1.74501 0.751615 0
M  V30 820 H 77.0812 -3.84236 -0.574009 0
M  V30 821 H 78.7532 -4.14832 2.01773 0
M  V30 822 H 76.9962 -3.87016 1.95962 0
M  V30 823 H 77.6672 -5.36478 1.29982 0
M  V30 824 H 80.1432 -4.15615 -0.200869 0
M  V30 825 H 79.0192 -5.44318 -0.707714 0
M  V30 826 H 79.2802 -4.05759 -1.75533 0
M  V30 827 N 78.3393 -0.321999 -1.54275 0
M  V30 828 C 79.5873 0.280489 -2.00144 0
M  V30 829 C 79.9083 1.52777 -1.21178 0
M  V30 830 O 79.1783 1.9338 -0.313187 0
M  V30 831 H 77.7583 0.106632 -0.73935 0
M  V30 832 H 80.4203 -0.438184 -1.8991 0
M  V30 833 H 79.5163 0.537972 -3.07428 0
M  V30 834 N 79.8174 1.5752 -0.0501392 0
M  V30 835 C 81.0424 1.97376 0.636997 0
M  V30 836 C 81.4674 0.927466 1.63645 0
M  V30 837 O 80.8254 -0.10941 1.8097 0
M  V30 838 C 80.8734 3.36304 1.30123 0
M  V30 839 O 79.9774 3.34156 2.41689 0
M  V30 840 H 79.3184 0.642998 0.165679 0
M  V30 841 H 81.8484 2.04258 -0.118233 0
M  V30 842 H 81.8584 3.73008 1.65315 0
M  V30 843 H 80.5334 4.11993 0.568746 0
M  V30 844 H 79.1104 3.09196 2.08451 0
M  V30 845 N 81.2955 -0.223234 1.56011 0
M  V30 846 C 82.2425 -1.27664 1.92277 0
M  V30 847 C 83.2125 -1.46659 0.779763 0
M  V30 848 O 84.3975 -1.60256 1.03551 0
M  V30 849 C 81.5375 -2.62234 2.24338 0
M  V30 850 C 80.6505 -2.51051 3.51564 0
M  V30 851 C 79.7855 -3.78133 3.7308 0
M  V30 852 C 78.8245 -3.61665 4.93827 0
M  V30 853 N 77.9615 -4.80693 5.11741 0
M  V30 854 H 82.8015 -0.960358 2.82101 0
M  V30 855 H 80.3385 -0.462901 1.39627 0
M  V30 856 H 82.2965 -3.40596 2.40936 0
M  V30 857 H 80.9265 -2.91961 1.3769 0
M  V30 858 H 79.9785 -1.64132 3.43169 0
M  V30 859 H 81.2905 -2.34803 4.40079 0
M  V30 860 H 80.4445 -4.64938 3.89766 0
M  V30 861 H 79.1835 -3.97304 2.82844 0
M  V30 862 H 78.1885 -2.73244 4.77093 0
M  V30 863 H 79.4135 -3.43966 5.85546 0
M  V30 864 H 77.3595 -5.00181 4.24446 0
M  V30 865 H 77.2765 -4.67165 5.94384 0
M  V30 866 H 78.5445 -5.6893 5.3286 0
M  V30 867 N 82.7736 -1.49793 -0.48987 0
M  V30 868 C 83.7366 -1.66752 -1.57246 0
M  V30 869 C 84.7366 -0.538867 -1.51502 0
M  V30 870 O 85.9266 -0.805545 -1.54456 0
M  V30 871 C 83.0586 -1.67528 -2.96896 0
M  V30 872 H 84.2516 -2.63321 -1.43534 0
M  V30 873 H 81.8046 -1.38992 -0.714914 0
M  V30 874 H 82.5396 -0.725837 -3.16073 0
M  V30 875 H 82.3246 -2.49504 -3.02473 0
M  V30 876 H 83.8146 -1.82667 -3.7553 0
M  V30 877 N 84.2517 0.741722 -1.39055 0
M  V30 878 C 85.4977 1.50336 -1.36113 0
M  V30 879 C 85.8307 1.94148 0.0450796 0
M  V30 880 O 85.1057 1.66301 1.00868 0
M  V30 881 C 85.3887 2.74773 -2.32749 0
M  V30 882 C 85.2417 2.37023 -3.82283 0
M  V30 883 C 86.5607 3.76846 -2.27322 0
M  V30 884 H 83.6797 0.545351 -0.495743 0
M  V30 885 H 86.3217 0.848624 -1.69995 0
M  V30 886 H 84.4717 3.30639 -2.03986 0
M  V30 887 H 86.1437 1.8684 -4.21768 0
M  V30 888 H 84.3867 1.69334 -3.99385 0
M  V30 889 H 85.0577 3.26104 -4.45376 0
M  V30 890 H 87.5337 3.30548 -2.5274 0
M  V30 891 H 86.4097 4.6159 -2.97028 0
M  V30 892 H 86.6707 4.23286 -1.27599 0
M  V30 893 N 85.7298 1.2412 0.971189 0
M  V30 894 C 86.6598 1.05508 2.08304 0
M  V30 895 C 87.6408 -0.0308864 1.70072 0
M  V30 896 O 88.8258 0.135521 1.93727 0
M  V30 897 C 85.9558 0.655365 3.4106 0
M  V30 898 C 84.9098 1.68971 3.93234 0
M  V30 899 C 84.2358 1.14516 5.22293 0
M  V30 900 C 85.5358 3.08487 4.21465 0
M  V30 901 H 87.2298 1.98507 2.24132 0
M  V30 902 H 84.7758 0.955821 1.07704 0
M  V30 903 H 86.7288 0.51217 4.18276 0
M  V30 904 H 85.4528 -0.31032 3.25122 0
M  V30 905 H 84.1118 1.82106 3.18171 0
M  V30 906 H 83.7598 0.170189 5.02712 0
M  V30 907 H 83.4598 1.83635 5.58168 0
M  V30 908 H 84.9838 1.01401 6.02121 0
M  V30 909 H 86.3978 2.98601 4.89398 0
M  V30 910 H 84.7948 3.74926 4.68562 0
M  V30 911 H 85.8648 3.56787 3.28376 0
M  V30 912 N 87.2079 -1.17134 1.05439 0
M  V30 913 C 88.4539 -1.87733 0.767077 0
M  V30 914 C 88.7869 -1.8098 -0.704253 0
M  V30 915 O 88.0619 -1.21951 -1.5152 0
M  V30 916 C 88.3449 -3.37659 1.25133 0
M  V30 917 C 88.1979 -3.53149 2.78578 0
M  V30 918 C 89.5169 -4.31768 0.852324 0
M  V30 919 H 86.6359 -0.681687 0.280129 0
M  V30 920 H 89.2779 -1.37732 1.30881 0
M  V30 921 H 87.4279 -3.80373 0.790469 0
M  V30 922 H 89.0999 -3.19434 3.32806 0
M  V30 923 H 87.3429 -2.95345 3.17732 0
M  V30 924 H 88.0139 -4.58403 3.07523 0
M  V30 925 H 90.4899 -3.96909 1.24911 0
M  V30 926 H 89.3659 -5.35199 1.21873 0
M  V30 927 H 89.6269 -4.41429 -0.243485 0
M  V30 928 N 88.686 -0.835752 -1.33615 0
M  V30 929 C 89.914 -0.443344 -2.02094 0
M  V30 930 C 90.329 0.954522 -1.62894 0
M  V30 931 O 89.686 1.61982 -0.840723 0
M  V30 932 C 89.737 -0.550775 -3.5728 0
M  V30 933 O 89.458 -1.89356 -3.95065 0
M  V30 934 C 90.959 -0.154919 -4.43029 0
M  V30 935 H 88.179 -0.176359 -0.647409 0
M  V30 936 H 90.723 -1.12746 -1.70612 0
M  V30 937 H 88.878 0.0853997 -3.87306 0
M  V30 938 H 89.292 -1.87687 -4.89769 0
M  V30 939 H 90.766 -0.281144 -5.51284 0
M  V30 940 H 91.243 0.902863 -4.2982 0
M  V30 941 H 91.849 -0.765404 -4.18356 0
M  V30 942 N 90.1641 1.46063 -0.591896 0
M  V30 943 C 91.4121 2.01938 -0.0808391 0
M  V30 944 C 91.7331 1.46475 1.28725 0
M  V30 945 O 91.0031 0.652944 1.84698 0
M  V30 946 H 89.5831 0.746516 -0.0268938 0
M  V30 947 H 92.2451 1.79055 -0.769752 0
M  V30 948 H 91.3411 3.12094 -0.0187578 0
M  V30 949 N 91.6422 0.330177 1.54103 0
M  V30 950 C 92.8822 -0.270916 2.02597 0
M  V30 951 C 93.2462 -1.48826 1.21304 0
M  V30 952 O 94.4472 -2.16266 1.59633 0
M  V30 953 C 92.7182 -0.590328 3.52491 0
M  V30 954 S 94.2772 -1.17014 4.2291 0
M  V30 955 H 91.0952 -0.0815379 0.706309 0
M  V30 956 H 93.6972 0.464835 1.89893 0
M  V30 957 H 92.4012 0.303691 4.09275 0
M  V30 958 H 91.9322 -1.3561 3.69288 0
M  V30 959 H 93.9472 -2.45662 4.3112 0
M  V30 960 N 93.1203 -1.57491 0.0584922 0
M  V30 961 C 94.3973 -1.84346 -0.653918 0
M  V30 962 C 94.7773 -0.948355 -1.88599 0
M  V30 963 O 94.1253 -0.0112403 -2.28497 0
M  V30 964 C 94.3353 -3.34239 -1.00425 0
M  V30 965 C 95.6833 -4.01431 -1.38342 0
M  V30 966 O 96.7073 -3.38907 -1.09637 0
M  V30 967 O 95.5663 -5.11683 -1.91943 0
M  V30 968 H 92.6603 -0.761112 -0.323478 0
M  V30 969 H 95.2063 -1.6947 0.0884125 0
M  V30 970 H 93.9783 -3.91089 -0.128625 0
M  V30 971 H 93.6013 -3.54329 -1.80378 0
M  V30 972 N 94.5984 0.214957 -1.56127 0
M  V30 973 C 95.8234 0.95924 -1.83884 0
M  V30 974 C 96.2484 1.7689 -0.639644 0
M  V30 975 O 95.6064 1.76566 0.411601 0
M  V30 976 C 95.6544 1.84723 -3.09693 0
M  V30 977 O 94.7584 2.94346 -2.8885 0
M  V30 978 H 94.0994 0.27125 -0.606069 0
M  V30 979 H 96.6294 0.226276 -2.03345 0
M  V30 980 H 96.6394 2.25576 -3.39969 0
M  V30 981 H 95.3144 1.25218 -3.96602 0
M  V30 982 H 93.8914 2.57391 -2.69823 0
M  V30 983 N 96.0765 1.50051 0.48192 0
M  V30 984 C 97.3245 1.60181 1.23234 0
M  V30 985 C 97.6455 0.299176 1.92691 0
M  V30 986 O 96.9155 -0.682708 1.83619 0
M  V30 987 H 95.4955 0.590232 0.457859 0
M  V30 988 H 98.1575 1.86775 0.556881 0
M  V30 989 H 97.2535 2.40753 1.98607 0
M  V30 990 N 97.5546 -0.734337 1.39446 0
M  V30 991 C 98.8016 -1.49391 1.36706 0
M  V30 992 C 99.1296 -1.94465 -0.0367813 0
M  V30 993 O 98.3846 -1.67154 -1.01774 0
M  V30 994 C 98.6836 -2.74711 2.28623 0
M  V30 995 C 98.3496 -2.48501 3.76242 0
M  V30 996 C 97.0116 -2.41062 4.16464 0
M  V30 997 C 99.3636 -2.26098 4.69606 0
M  V30 998 C 96.6916 -2.09262 5.48112 0
M  V30 999 C 99.0436 -1.95814 6.01531 0
M  V30 1000 C 97.7076 -1.86845 6.40816 0
M  V30 1001 H 96.9776 -0.546661 0.500243 0
M  V30 1002 H 99.6246 -0.842788 1.71957 0
M  V30 1003 H 97.9296 -3.44569 1.86492 0
M  V30 1004 H 99.6266 -3.32741 2.23796 0
M  V30 1005 H 96.2166 -2.55169 3.44364 0
M  V30 1006 H 100.401 -2.30812 4.39363 0
M  V30 1007 H 95.6566 -2.00841 5.77471 0
M  V30 1008 H 99.8306 -1.77488 6.73403 0
M  V30 1009 H 97.4576 -1.6197 7.42745 0
M  V30 1010 N 99.0327 -1.24633 -0.964593 0
M  V30 1011 C 100.281 -1.08573 -1.70459 0
M  V30 1012 C 100.602 0.375655 -1.91347 0
M  V30 1013 O 99.8717 1.26779 -1.49345 0
M  V30 1014 H 98.4517 -0.398784 -0.631649 0
M  V30 1015 H 101.114 -1.56601 -1.16026 0
M  V30 1016 H 100.21 -1.58623 -2.68785 0
M  V30 1017 N 100.511 1.16574 -1.06058 0
M  V30 1018 C 101.758 1.87047 -0.775873 0
M  V30 1019 C 102.086 1.81562 0.697534 0
M  V30 1020 O 101.341 1.22445 1.52662 0
M  V30 1021 C 101.64 3.36195 -1.21275 0
M  V30 1022 C 101.306 3.6188 -2.68986 0
M  V30 1023 C 99.9678 3.68599 -3.09335 0
M  V30 1024 C 102.32 3.72648 -3.64394 0
M  V30 1025 C 99.6478 3.83584 -4.43937 0
M  V30 1026 C 102 3.89154 -4.98741 0
M  V30 1027 C 100.664 3.94114 -5.3873 0
M  V30 1028 H 99.9338 0.684452 -0.283912 0
M  V30 1029 H 102.581 1.37853 -1.32925 0
M  V30 1030 H 100.886 3.87505 -0.578528 0
M  V30 1031 H 102.583 3.89103 -0.969542 0
M  V30 1032 H 99.1728 3.57281 -2.36744 0
M  V30 1033 H 103.357 3.66769 -3.34356 0
M  V30 1034 H 98.6128 3.85677 -4.74409 0
M  V30 1035 H 102.787 3.96427 -5.72554 0
M  V30 1036 H 100.414 4.05478 -6.43033 0
M  V30 1037 N 101.989 0.842826 1.3317 0
M  V30 1038 C 103.214 0.453129 2.02389 0
M  V30 1039 C 103.639 -0.939105 1.6298 0
M  V30 1040 O 102.997 -1.61472 0.8244 0
M  V30 1041 C 103.045 0.586094 3.55805 0
M  V30 1042 O 102.149 -0.386029 4.10589 0
M  V30 1043 H 101.49 0.183664 0.638094 0
M  V30 1044 H 104.02 1.13875 1.69981 0
M  V30 1045 H 104.03 0.469209 4.05293 0
M  V30 1046 H 102.705 1.6014 3.83833 0
M  V30 1047 H 101.282 -0.226371 3.72212 0
M  V30 1048 N 103.467 -1.45747 0.599634 0
M  V30 1049 C 104.397 -2.33235 -0.111306 0
M  V30 1050 C 105.378 -1.46359 -0.866781 0
M  V30 1051 O 106.563 -1.75146 -0.838904 0
M  V30 1052 C 103.693 -3.28932 -1.11451 0
M  V30 1053 C 102.647 -4.25381 -0.472772 0
M  V30 1054 C 101.973 -5.1071 -1.58365 0
M  V30 1055 C 103.273 -5.18831 0.600948 0
M  V30 1056 H 104.967 -2.92927 0.61919 0
M  V30 1057 H 102.513 -1.40857 0.299215 0
M  V30 1058 H 104.466 -3.89002 -1.62036 0
M  V30 1059 H 103.19 -2.67381 -1.8755 0
M  V30 1060 H 101.849 -3.66598 0.0121472 0
M  V30 1061 H 101.497 -4.45533 -2.33473 0
M  V30 1062 H 101.197 -5.7604 -1.15982 0
M  V30 1063 H 102.721 -5.73647 -2.09194 0
M  V30 1064 H 104.135 -5.73019 0.179491 0
M  V30 1065 H 102.532 -5.92595 0.946076 0
M  V30 1066 H 103.602 -4.6174 1.48068 0
M  V30 1067 N 104.945 -0.338344 -1.53925 0
M  V30 1068 C 105.908 0.508299 -2.23493 0
M  V30 1069 C 106.908 1.03175 -1.23335 0
M  V30 1070 O 108.098 0.921826 -1.47811 0
M  V30 1071 C 105.23 1.70754 -2.95052 0
M  V30 1072 H 106.423 -0.100058 -2.99733 0
M  V30 1073 H 103.976 -0.0896198 -1.56043 0
M  V30 1074 H 104.711 2.35474 -2.22986 0
M  V30 1075 H 104.496 1.33946 -3.68512 0
M  V30 1076 H 105.986 2.30818 -3.48013 0
M  V30 1077 N 106.423 1.57458 -0.0668435 0
M  V30 1078 C 107.37 2.12439 0.902122 0
M  V30 1079 C 108.34 1.03565 1.2986 0
M  V30 1080 O 109.525 1.312 1.38532 0
M  V30 1081 C 106.665 2.6865 2.16614 0
M  V30 1082 C 105.778 3.91663 1.82274 0
M  V30 1083 C 104.913 4.36134 3.0325 0
M  V30 1084 C 103.952 5.51808 2.64904 0
M  V30 1085 N 103.089 5.9126 3.78624 0
M  V30 1086 H 107.929 2.94934 0.426382 0
M  V30 1087 H 105.466 1.4575 0.198819 0
M  V30 1088 H 107.424 2.99346 2.90599 0
M  V30 1089 H 106.054 1.88928 2.61737 0
M  V30 1090 H 105.106 3.6746 0.983719 0
M  V30 1091 H 106.418 4.75693 1.50059 0
M  V30 1092 H 105.572 4.68465 3.85519 0
M  V30 1093 H 104.311 3.50948 3.38655 0
M  V30 1094 H 103.316 5.19133 1.81055 0
M  V30 1095 H 104.541 6.38722 2.30675 0
M  V30 1096 H 102.487 5.09024 4.138 0
M  V30 1097 H 102.404 6.70018 3.5016 0
M  V30 1098 H 103.672 6.28212 4.61486 0
M  V30 1099 N 107.901 -0.206675 1.56239 0
M  V30 1100 C 108.851 -1.26 1.90021 0
M  V30 1101 C 109.835 -1.41566 0.764721 0
M  V30 1102 O 111.027 -1.44131 1.02739 0
M  V30 1103 C 108.156 -2.6073 2.23326 0
M  V30 1104 C 107.242 -2.49005 3.43304 0
M  V30 1105 N 107.633 -2.06946 4.61527 0
M  V30 1106 C 105.931 -2.79927 3.47213 0
M  V30 1107 C 106.632 -2.06832 5.43687 0
M  V30 1108 N 105.608 -2.47892 4.83788 0
M  V30 1109 H 109.41 -0.925955 2.78932 0
M  V30 1110 H 106.924 -0.415172 1.57003 0
M  V30 1111 H 108.921 -3.36798 2.45708 0
M  V30 1112 H 107.581 -2.94968 1.35735 0
M  V30 1113 H 108.592 -1.77839 4.86409 0
M  V30 1114 H 105.269 -3.18438 2.70006 0
M  V30 1115 H 106.659 -1.76312 6.48354 0
M  V30 1116 N 109.379 -1.50304 -0.473955 0
M  V30 1117 C 110.309 -1.71886 -1.58042 0
M  V30 1118 C 111.29 -0.567799 -1.60344 0
M  V30 1119 O 112.475 -0.806623 -1.76656 0
M  V30 1120 C 109.605 -1.81036 -2.96384 0
M  V30 1121 C 108.559 -2.962 -3.08949 0
M  V30 1122 C 107.885 -2.9049 -4.48909 0
M  V30 1123 C 109.185 -4.36752 -2.86434 0
M  V30 1124 H 110.879 -2.64527 -1.40234 0
M  V30 1125 H 108.425 -1.27295 -0.673201 0
M  V30 1126 H 110.378 -1.94719 -3.73714 0
M  V30 1127 H 109.102 -0.850147 -3.15341 0
M  V30 1128 H 107.761 -2.82164 -2.3405 0
M  V30 1129 H 107.409 -1.92321 -4.64781 0
M  V30 1130 H 107.109 -3.67802 -4.58253 0
M  V30 1131 H 108.633 -3.06218 -5.28264 0
M  V30 1132 H 110.047 -4.5133 -3.53517 0
M  V30 1133 H 108.444 -5.15493 -3.07225 0
M  V30 1134 H 109.514 -4.49321 -1.82316 0
M  V30 1135 N 110.857 0.726932 -1.39834 0
M  V30 1136 C 111.807 1.83232 -1.35683 0
M  V30 1137 C 112.791 1.59155 -0.236295 0
M  V30 1138 O 113.983 1.70522 -0.474488 0
M  V30 1139 C 111.112 3.21246 -1.21062 0
M  V30 1140 C 110.198 3.51125 -2.37849 0
M  V30 1141 N 110.589 3.51889 -3.63329 0
M  V30 1142 C 108.887 3.81527 -2.30982 0
M  V30 1143 C 109.588 3.79791 -4.40606 0
M  V30 1144 N 108.564 3.97971 -3.70297 0
M  V30 1145 H 112.366 1.8214 -2.30656 0
M  V30 1146 H 109.88 0.925545 -1.33444 0
M  V30 1147 H 111.877 4.00387 -1.16171 0
M  V30 1148 H 110.537 3.23572 -0.270458 0
M  V30 1149 H 111.548 3.33008 -3.96643 0
M  V30 1150 H 108.225 3.91411 -1.45272 0
M  V30 1151 H 109.615 3.86783 -5.49408 0
M  V30 1152 N 112.336 1.25143 0.95797 0
M  V30 1153 C 113.561 1.12521 1.74223 0
M  V30 1154 C 113.986 -0.317402 1.85403 0
M  V30 1155 O 113.344 -1.2299 1.33204 0
M  V30 1156 C 113.392 1.78062 3.1357 0
M  V30 1157 O 112.496 1.058 3.98598 0
M  V30 1158 H 111.837 0.39304 0.535178 0
M  V30 1159 H 114.367 1.65641 1.201 0
M  V30 1160 H 114.377 1.84213 3.64046 0
M  V30 1161 H 113.052 2.83021 3.04749 0
M  V30 1162 H 111.629 1.07506 3.57067 0
M  V30 1163 N 113.814 -1.1601 1.06675 0
M  V30 1164 C 114.761 -2.20525 0.680967 0
M  V30 1165 C 115.731 -1.62904 -0.324283 0
M  V30 1166 O 116.916 -1.89615 -0.212294 0
M  V30 1167 C 114.056 -3.45013 0.0776551 0
M  V30 1168 C 113.169 -4.16863 1.13355 0
M  V30 1169 C 112.304 -5.2888 0.49597 0
M  V30 1170 C 111.343 -5.92537 1.53513 0
M  V30 1171 N 110.48 -6.96038 0.920631 0
M  V30 1172 H 115.32 -2.52876 1.57663 0
M  V30 1173 H 112.857 -1.24199 0.788223 0
M  V30 1174 H 114.815 -4.16193 -0.289704 0
M  V30 1175 H 113.445 -3.132 -0.781393 0
M  V30 1176 H 112.497 -3.44248 1.61857 0
M  V30 1177 H 113.809 -4.60294 1.92174 0
M  V30 1178 H 112.963 -6.06653 0.0758604 0
M  V30 1179 H 111.702 -4.86622 -0.324062 0
M  V30 1180 H 110.707 -5.13482 1.9651 0
M  V30 1181 H 111.932 -6.36873 2.35733 0
M  V30 1182 H 109.878 -6.55888 0.12138 0
M  V30 1183 H 109.795 -7.3786 1.64616 0
M  V30 1184 H 111.063 -7.77725 0.525795 0
M  V30 1185 N 115.292 -0.849877 -1.32721 0
M  V30 1186 C 116.54 -0.450032 -1.97026 0
M  V30 1187 C 116.861 0.996604 -1.67609 0
M  V30 1188 O 116.131 1.6958 -0.980786 0
M  V30 1189 H 114.711 -0.163426 -0.728904 0
M  V30 1190 H 117.373 -1.08526 -1.6189 0
M  V30 1191 H 116.469 -0.591146 -3.0645 0
M  V30 1192 N 116.77 1.45427 -0.607355 0
M  V30 1193 C 118.017 2.02241 -0.102455 0
M  V30 1194 C 118.345 1.4758 1.26691 0
M  V30 1195 O 117.6 0.640468 1.84923 0
M  V30 1196 C 117.899 3.57398 -0.0129263 0
M  V30 1197 C 117.565 4.3121 -1.31792 0
M  V30 1198 C 116.227 4.51092 -1.67539 0
M  V30 1199 C 118.579 4.73401 -2.18039 0
M  V30 1200 C 115.907 5.10422 -2.89285 0
M  V30 1201 C 118.259 5.34078 -3.39034 0
M  V30 1202 C 116.923 5.52184 -3.75033 0
M  V30 1203 H 116.193 0.740051 -0.037491 0
M  V30 1204 H 118.84 1.74494 -0.788926 0
M  V30 1205 H 117.145 3.84421 0.756806 0
M  V30 1206 H 118.842 3.99061 0.393881 0
M  V30 1207 H 115.432 4.16047 -1.02968 0
M  V30 1208 H 119.616 4.57774 -1.91721 0
M  V30 1209 H 114.872 5.22629 -3.17283 0
M  V30 1210 H 119.046 5.65724 -4.06115 0
M  V30 1211 H 116.673 5.97925 -4.69457 0
M  V30 1212 N 118.248 0.346503 1.53744 0
M  V30 1213 C 119.178 -0.501193 2.28058 0
M  V30 1214 C 120.159 -1.10014 1.29734 0
M  V30 1215 O 121.344 -1.12097 1.58581 0
M  V30 1216 C 118.474 -1.65078 3.05559 0
M  V30 1217 C 117.428 -1.18003 4.11411 0
M  V30 1218 C 116.754 -2.41837 4.76884 0
M  V30 1219 C 118.054 -0.278394 5.21558 0
M  V30 1220 H 119.748 0.11875 2.99164 0
M  V30 1221 H 117.294 0.0585531 1.43881 0
M  V30 1222 H 119.247 -2.25028 3.56287 0
M  V30 1223 H 117.971 -2.29767 2.32109 0
M  V30 1224 H 116.63 -0.603331 3.61601 0
M  V30 1225 H 116.278 -3.0494 4.00026 0
M  V30 1226 H 115.978 -2.1102 5.48402 0
M  V30 1227 H 117.502 -3.02508 5.30397 0
M  V30 1228 H 118.916 -0.784823 5.67903 0
M  V30 1229 H 117.313 -0.0619707 6.00068 0
M  V30 1230 H 118.383 0.684677 4.80042 0
M  V30 1231 N 119.726 -1.57421 0.075193 0
M  V30 1232 C 120.972 -1.93905 -0.594025 0
M  V30 1233 C 121.305 -0.955701 -1.69056 0
M  V30 1234 O 120.58 0.0145373 -1.94495 0
M  V30 1235 C 120.863 -3.40638 -1.1678 0
M  V30 1236 C 120.716 -4.49733 -0.0776792 0
M  V30 1237 C 122.035 -3.88259 -2.07228 0
M  V30 1238 H 119.154 -0.705105 -0.214466 0
M  V30 1239 H 121.796 -1.8947 0.141854 0
M  V30 1240 H 119.946 -3.44549 -1.79494 0
M  V30 1241 H 121.618 -4.57942 0.555573 0
M  V30 1242 H 119.861 -4.29751 0.591286 0
M  V30 1243 H 120.532 -5.49549 -0.519603 0
M  V30 1244 H 123.008 -3.86376 -1.54445 0
M  V30 1245 H 121.884 -4.91533 -2.44308 0
M  V30 1246 H 122.145 -3.26396 -2.98191 0
M  V30 1247 N 121.204 0.198386 -1.56346 0
M  V30 1248 C 122.451 0.919286 -1.80431 0
M  V30 1249 C 122.779 1.83393 -0.647866 0
M  V30 1250 O 122.034 1.92236 0.366556 0
M  V30 1251 C 122.333 1.77031 -3.10475 0
M  V30 1252 C 121.999 1.00693 -4.39513 0
M  V30 1253 C 120.661 0.796145 -4.74568 0
M  V30 1254 C 123.013 0.469559 -5.19081 0
M  V30 1255 C 120.341 0.0364588 -5.86689 0
M  V30 1256 C 122.693 -0.2769 -6.31994 0
M  V30 1257 C 121.357 -0.49873 -6.65634 0
M  V30 1258 H 120.627 0.336391 -0.660244 0
M  V30 1259 H 123.274 0.185872 -1.90596 0
M  V30 1260 H 121.579 2.5723 -2.95533 0
M  V30 1261 H 123.276 2.33065 -3.26315 0
M  V30 1262 H 119.866 1.18122 -4.12001 0
M  V30 1263 H 124.05 0.619816 -4.92414 0
M  V30 1264 H 119.306 -0.145412 -6.11227 0
M  V30 1265 H 123.48 -0.700684 -6.92866 0
M  V30 1266 H 121.107 -1.0893 -7.52355 0
M  V30 1267 N 122.682 1.50554 0.465978 0
M  V30 1268 C 123.645 1.69233 1.54574 0
M  V30 1269 C 124.645 0.562901 1.50626 0
M  V30 1270 O 125.835 0.830016 1.53155 0
M  V30 1271 C 122.967 1.7223 2.94193 0
M  V30 1272 H 124.16 2.65571 1.39327 0
M  V30 1273 H 121.713 1.40111 0.692711 0
M  V30 1274 H 122.448 0.77603 3.14878 0
M  V30 1275 H 122.233 2.54285 2.98466 0
M  V30 1276 H 123.723 1.88618 3.72576 0
M  V30 1277 N 124.16 -0.719506 1.40217 0
M  V30 1278 C 125.408 -1.47641 1.3801 0
M  V30 1279 C 125.729 -1.94992 -0.018145 0
M  V30 1280 O 124.999 -1.70073 -0.972207 0
M  V30 1281 H 123.579 -0.547744 0.507923 0
M  V30 1282 H 126.241 -0.853187 1.75233 0
M  V30 1283 H 125.337 -2.35112 2.05253 0
M  V30 1284 N 125.638 -1.25649 -0.95132 0
M  V30 1285 C 126.878 -1.11802 -1.71113 0
M  V30 1286 C 127.242 0.334758 -1.89059 0
M  V30 1287 O 128.443 0.595121 -2.62129 0
M  V30 1288 C 126.714 -1.85512 -3.05483 0
M  V30 1289 S 128.273 -1.87597 -3.96677 0
M  V30 1290 H 125.091 -0.399552 -0.588115 0
M  V30 1291 H 127.693 -1.59222 -1.1344 0
M  V30 1292 H 126.397 -2.90299 -2.90094 0
M  V30 1293 H 125.928 -1.38493 -3.68216 0
M  V30 1294 H 127.943 -0.955389 -4.86916 0
M  V30 1295 N 127.117 1.15442 -1.07289 0
M  V30 1296 C 128.047 2.22312 -0.714107 0
M  V30 1297 C 129.028 1.67467 0.298155 0
M  V30 1298 O 130.213 1.93445 0.171048 0
M  V30 1299 C 127.343 3.47124 -0.110448 0
M  V30 1300 C 126.297 4.14926 -1.04979 0
M  V30 1301 C 125.623 5.33807 -0.308924 0
M  V30 1302 C 126.923 4.64762 -2.38314 0
M  V30 1303 H 128.617 2.5258 -1.6076 0
M  V30 1304 H 126.163 1.21404 -0.77441 0
M  V30 1305 H 128.116 4.21124 0.152482 0
M  V30 1306 H 126.84 3.16187 0.81812 0
M  V30 1307 H 125.499 3.42866 -1.29764 0
M  V30 1308 H 125.147 4.99126 0.623084 0
M  V30 1309 H 124.847 5.80113 -0.935036 0
M  V30 1310 H 126.371 6.10576 -0.0537771 0
M  V30 1311 H 127.785 5.30292 -2.1786 0
M  V30 1312 H 126.182 5.21728 -2.96514 0
M  V30 1313 H 127.252 3.80434 -3.00663 0
M  V30 1314 N 128.595 0.856903 1.32268 0
M  V30 1315 C 129.528 0.247937 2.26849 0
M  V30 1316 C 130.506 -0.615382 1.50505 0
M  V30 1317 O 131.69 -0.571689 1.79622 0
M  V30 1318 C 128.817 -0.650093 3.32403 0
M  V30 1319 C 127.863 0.140138 4.2627 0
M  V30 1320 S 128.696 1.51004 5.13769 0
M  V30 1321 C 129.852 0.61778 6.22844 0
M  V30 1322 H 130.085 1.04971 2.78152 0
M  V30 1323 H 127.618 0.654665 1.39834 0
M  V30 1324 H 129.576 -1.16256 3.93694 0
M  V30 1325 H 128.237 -1.4257 2.7988 0
M  V30 1326 H 127.43 -0.543945 5.01056 0
M  V30 1327 H 127.032 0.584267 3.69408 0
M  V30 1328 H 129.324 -0.177053 6.77269 0
M  V30 1329 H 130.267 1.33636 6.95375 0
M  V30 1330 H 130.675 0.191124 5.64176 0
M  V30 1331 N 130.073 -1.45103 0.615059 0
M  V30 1332 C 131.02 -2.30586 -0.0993978 0
M  V30 1333 C 131.99 -1.42544 -0.852669 0
M  V30 1334 O 133.175 -1.71465 -0.836917 0
M  V30 1335 C 130.315 -3.27572 -1.08583 0
M  V30 1336 C 129.428 -4.30717 -0.332656 0
M  V30 1337 C 128.563 -5.14807 -1.30947 0
M  V30 1338 C 127.602 -6.09673 -0.544538 0
M  V30 1339 N 126.739 -6.86517 -1.47101 0
M  V30 1340 H 131.579 -2.91144 0.635542 0
M  V30 1341 H 129.116 -1.4346 0.325206 0
M  V30 1342 H 131.074 -3.82276 -1.67095 0
M  V30 1343 H 129.704 -2.68751 -1.78809 0
M  V30 1344 H 128.756 -3.78615 0.368107 0
M  V30 1345 H 130.068 -4.98102 0.263842 0
M  V30 1346 H 129.222 -5.73948 -1.96643 0
M  V30 1347 H 127.961 -4.47458 -1.9399 0
M  V30 1348 H 126.966 -5.49656 0.126003 0
M  V30 1349 H 128.191 -6.79052 0.080947 0
M  V30 1350 H 126.137 -6.21851 -2.08895 0
M  V30 1351 H 126.054 -7.50281 -0.928137 0
M  V30 1352 H 127.322 -7.50194 -2.11731 0
M  V30 1353 N 131.551 -0.354651 -1.53558 0
M  V30 1354 C 132.828 0.294281 -1.93374 0
M  V30 1355 C 133.208 1.67313 -1.28723 0
M  V30 1356 O 132.556 2.24179 -0.442247 0
M  V30 1357 C 132.766 0.355445 -3.47185 0
M  V30 1358 C 134.114 0.601007 -4.20325 0
M  V30 1359 O 135.138 0.437106 -3.53508 0
M  V30 1360 O 133.997 0.919322 -5.38712 0
M  V30 1361 H 131.091 0.174033 -0.808481 0
M  V30 1362 H 133.637 -0.406638 -1.64756 0
M  V30 1363 H 132.409 -0.611729 -3.86489 0
M  V30 1364 H 132.032 1.1027 -3.82003 0
M  V30 1365 N 133.029 1.57378 -0.0835403 0
M  V30 1366 C 133.976 2.13384 0.879539 0
M  V30 1367 C 134.946 1.04936 1.28754 0
M  V30 1368 O 136.131 1.32662 1.37133 0
M  V30 1369 C 133.271 2.70932 2.13752 0
M  V30 1370 C 132.384 3.93575 1.7811 0
M  V30 1371 C 131.519 4.39326 2.98607 0
M  V30 1372 C 130.558 5.54587 2.59037 0
M  V30 1373 N 129.695 5.95243 3.72331 0
M  V30 1374 H 134.535 2.9537 0.395076 0
M  V30 1375 H 132.072 1.45953 0.183349 0
M  V30 1376 H 134.03 3.02411 2.87408 0
M  V30 1377 H 132.66 1.91693 2.59718 0
M  V30 1378 H 131.712 3.68483 0.94469 0
M  V30 1379 H 133.024 4.77258 1.45005 0
M  V30 1380 H 132.178 4.72528 3.80529 0
M  V30 1381 H 130.917 3.5452 3.34913 0
M  V30 1382 H 129.922 5.21024 1.75539 0
M  V30 1383 H 131.147 6.41133 2.23887 0
M  V30 1384 H 129.093 5.13385 4.08378 0
M  V30 1385 H 129.01 6.73694 3.43034 0
M  V30 1386 H 130.278 6.33072 4.54797 0
M  V30 1387 N 134.507 -0.190092 1.56449 0
M  V30 1388 C 135.755 -0.907908 1.80559 0
M  V30 1389 C 136.076 -1.83583 0.657438 0
M  V30 1390 O 135.346 -1.93203 -0.323924 0
M  V30 1391 H 133.926 -0.338247 0.666032 0
M  V30 1392 H 136.588 -0.194403 1.93928 0
M  V30 1393 H 135.684 -1.49604 2.73907 0
M  V30 1394 N 135.985 -1.50799 -0.457987 0
M  V30 1395 C 136.935 -1.67003 -1.55222 0
M  V30 1396 C 137.919 -0.52434 -1.52117 0
M  V30 1397 O 139.111 -0.779345 -1.58919 0
M  V30 1398 C 136.24 -1.77956 -2.93576 0
M  V30 1399 C 135.326 -2.98243 -3.01516 0
M  V30 1400 N 135.717 -4.21732 -2.79241 0
M  V30 1401 C 134.015 -2.97072 -3.32662 0
M  V30 1402 C 134.716 -5.02817 -2.92489 0
M  V30 1403 N 133.692 -4.37038 -3.23262 0
M  V30 1404 H 137.494 -2.60163 -1.36721 0
M  V30 1405 H 135.008 -1.48163 -0.664952 0
M  V30 1406 H 137.005 -1.87671 -3.72271 0
M  V30 1407 H 135.665 -0.859634 -3.13114 0
M  V30 1408 H 136.676 -4.51016 -2.54567 0
M  V30 1409 H 133.353 -2.14631 -3.58106 0
M  V30 1410 H 134.743 -6.11054 -2.79396 0
M  V30 1411 N 137.463 0.71206 -1.40597 0
M  V30 1412 C 138.74 1.46536 -1.29563 0
M  V30 1413 C 139.12 2.10931 0.0844217 0
M  V30 1414 O 138.468 2.00418 1.0975 0
M  V30 1415 C 138.678 2.49821 -2.43701 0
M  V30 1416 C 140.026 3.15551 -2.841 0
M  V30 1417 O 141.05 2.60142 -2.4332 0
M  V30 1418 O 139.909 4.15867 -3.54566 0
M  V30 1419 H 137.003 0.651801 -0.509004 0
M  V30 1420 H 139.549 0.743935 -1.52524 0
M  V30 1421 H 138.321 2.00778 -3.35863 0
M  V30 1422 H 137.944 3.29495 -2.22528 0
M  V30 1423 N 138.941 1.26152 0.944643 0
M  V30 1424 C 140.189 1.11271 1.6871 0
M  V30 1425 C 140.51 -0.345166 1.91921 0
M  V30 1426 O 139.78 -1.24387 1.51343 0
M  V30 1427 H 138.36 0.408783 0.625224 0
M  V30 1428 H 141.022 1.58427 1.1352 0
M  V30 1429 H 140.118 1.62879 2.66227 0
M  V30 1430 N 140.419 -1.14872 1.07899 0
M  V30 1431 C 141.665 -1.86064 0.806725 0
M  V30 1432 C 141.998 -1.82434 -0.665706 0
M  V30 1433 O 141.273 -1.25138 -1.48899 0
M  V30 1434 C 141.556 -3.34929 1.32267 0
M  V30 1435 C 141.409 -3.47161 2.86006 0
M  V30 1436 C 142.728 -4.29863 0.943717 0
M  V30 1437 H 139.847 -0.675591 0.294526 0
M  V30 1438 H 142.489 -1.34925 1.33773 0
M  V30 1439 H 140.639 -3.78611 0.870974 0
M  V30 1440 H 142.311 -3.12302 3.39507 0
M  V30 1441 H 140.554 -2.88539 3.23925 0
M  V30 1442 H 141.225 -4.51777 3.17177 0
M  V30 1443 H 143.701 -3.9417 1.33302 0
M  V30 1444 H 142.577 -5.32494 1.33198 0
M  V30 1445 H 142.838 -4.41846 -0.149796 0
M  V30 1446 N 141.898 -0.863906 -1.31812 0
M  V30 1447 C 142.845 -0.313303 -2.28664 0
M  V30 1448 C 143.815 0.584868 -1.55462 0
M  V30 1449 O 145 0.517805 -1.83639 0
M  V30 1450 C 142.14 0.48441 -3.41683 0
M  V30 1451 C 141.253 -0.440594 -4.29747 0
M  V30 1452 C 140.388 0.370652 -5.29905 0
M  V30 1453 C 139.427 -0.551164 -6.09613 0
M  V30 1454 N 138.564 0.223462 -7.01744 0
M  V30 1455 H 143.404 -1.14444 -2.75148 0
M  V30 1456 H 140.941 -0.575769 -1.35364 0
M  V30 1457 H 142.899 0.962627 -4.05943 0
M  V30 1458 H 141.529 1.28029 -2.96325 0
M  V30 1459 H 140.581 -1.03724 -3.65986 0
M  V30 1460 H 141.893 -1.14767 -4.85417 0
M  V30 1461 H 141.047 0.911638 -5.99812 0
M  V30 1462 H 139.786 1.11105 -4.74876 0
M  V30 1463 H 138.791 -1.10396 -5.38603 0
M  V30 1464 H 140.016 -1.29032 -6.66729 0
M  V30 1465 H 137.962 0.946787 -6.49132 0
M  V30 1466 H 137.879 -0.424399 -7.54808 0
M  V30 1467 H 139.147 0.745876 -7.75923 0
M  V30 1468 N 143.376 1.44774 -0.622745 0
M  V30 1469 C 144.286 2.34433 0.0886031 0
M  V30 1470 C 145.302 1.52131 0.844529 0
M  V30 1471 O 146.478 1.84886 0.798691 0
M  V30 1472 C 143.543 3.29986 1.0635 0
M  V30 1473 C 142.604 4.28195 0.307873 0
M  V30 1474 C 141.837 5.19183 1.23633 0
M  V30 1475 O 142.06 5.13918 2.47476 0
M  V30 1476 O 140.994 5.97515 0.725189 0
M  V30 1477 H 144.82 2.96693 -0.648599 0
M  V30 1478 H 142.405 1.44408 -0.382957 0
M  V30 1479 H 144.287 3.88825 1.6246 0
M  V30 1480 H 142.962 2.70269 1.78146 0
M  V30 1481 H 141.869 3.72927 -0.296064 0
M  V30 1482 H 143.202 4.90808 -0.3699 0
M  V30 1483 N 144.854 0.36279 1.53368 0
M  V30 1484 C 145.784 -0.476976 2.28576 0
M  V30 1485 C 146.765 -1.08631 1.30894 0
M  V30 1486 O 147.95 -1.10409 1.59761 0
M  V30 1487 C 145.08 -1.61828 3.07293 0
M  V30 1488 C 144.034 -1.13633 4.1264 0
M  V30 1489 C 143.36 -2.36766 4.79423 0
M  V30 1490 C 144.66 -0.223061 5.21823 0
M  V30 1491 H 146.354 0.150474 2.99022 0
M  V30 1492 H 143.9 0.0738103 1.43811 0
M  V30 1493 H 145.853 -2.21237 3.58653 0
M  V30 1494 H 144.577 -2.27292 2.34533 0
M  V30 1495 H 143.236 -0.564945 3.62221 0
M  V30 1496 H 142.884 -3.0068 4.03238 0
M  V30 1497 H 142.584 -2.05192 5.50609 0
M  V30 1498 H 144.108 -2.96865 5.33576 0
M  V30 1499 H 145.522 -0.724545 5.68703 0
M  V30 1500 H 143.919 0.001678 6.001 0
M  V30 1501 H 144.989 0.735553 4.79289 0
M  V30 1502 N 146.332 -1.57332 0.0918853 0
M  V30 1503 C 147.609 -1.85691 -0.614668 0
M  V30 1504 C 147.989 -0.988146 -1.86545 0
M  V30 1505 O 147.337 -0.0597055 -2.28422 0
M  V30 1506 C 147.547 -3.36294 -0.933126 0
M  V30 1507 C 148.895 -4.04275 -1.29796 0
M  V30 1508 O 149.919 -3.41157 -1.02424 0
M  V30 1509 O 148.778 -5.1564 -1.81047 0
M  V30 1510 H 145.872 -0.767802 -0.307261 0
M  V30 1511 H 148.418 -1.69244 0.12434 0
M  V30 1512 H 147.19 -3.91273 -0.0456404 0
M  V30 1513 H 146.813 -3.58076 -1.72822 0
M  V30 1514 N 147.81 0.181792 -1.56548 0
M  V30 1515 C 149.035 0.920019 -1.85877 0
M  V30 1516 C 149.46 1.75494 -0.677021 0
M  V30 1517 O 148.818 1.77399 0.374056 0
M  V30 1518 C 148.866 1.78112 -3.13542 0
M  V30 1519 O 147.97 2.88152 -2.95029 0
M  V30 1520 H 147.311 0.258334 -0.611686 0
M  V30 1521 H 149.841 0.183092 -2.03779 0
M  V30 1522 H 149.851 2.18314 -3.44678 0
M  V30 1523 H 148.526 1.16777 -3.99169 0
M  V30 1524 H 147.103 2.51609 -2.75222 0
M  V30 1525 N 149.288 1.51039 0.449983 0
M  V30 1526 C 150.218 1.74379 1.55288 0
M  V30 1527 C 151.199 0.593236 1.5942 0
M  V30 1528 O 152.384 0.834625 1.7535 0
M  V30 1529 C 149.514 1.85728 2.93466 0
M  V30 1530 C 148.468 3.01078 3.04197 0
M  V30 1531 C 147.794 2.97595 4.44231 0
M  V30 1532 C 149.094 4.41254 2.7945 0
M  V30 1533 H 150.788 2.66725 1.36008 0
M  V30 1534 H 148.334 1.2835 0.652864 0
M  V30 1535 H 150.287 2.0064 3.70569 0
M  V30 1536 H 149.011 0.900207 3.13949 0
M  V30 1537 H 147.67 2.85851 2.29531 0
M  V30 1538 H 147.318 1.99691 4.61663 0
M  V30 1539 H 147.018 3.75046 4.52343 0
M  V30 1540 H 148.542 3.14583 5.23326 0
M  V30 1541 H 149.956 4.56897 3.46292 0
M  V30 1542 H 148.353 5.20315 2.98985 0
M  V30 1543 H 149.423 4.52164 1.75144 0
M  V30 1544 N 150.766 -0.704594 1.40972 0
M  V30 1545 C 151.714 -1.83994 1.42299 0
M  V30 1546 C 152.708 -1.66684 0.302111 0
M  V30 1547 O 153.914 -1.73655 0.473697 0
M  V30 1548 H 150.289 -0.606171 0.44504 0
M  V30 1549 H 152.26 -1.79992 2.38003 0
M  V30 1550 C 151.009 -3.21946 1.31323 0
M  V30 1551 H 150.332 -3.35878 2.16855 0
M  V30 1552 H 151.772 -4.01491 1.36311 0
M  V30 1553 C 150.231 -3.36891 0.0245977 0
M  V30 1554 O 150.761 -3.90687 -0.934153 0
M  V30 1555 N 148.967 -2.90559 -0.0485243 0
M  V30 1556 H 148.514 -2.46968 0.732419 0
M  V30 1557 H 148.472 -3.00937 -0.910171 0
M  V30 1558 N 152.244 -1.26651 -0.937939 0
M  V30 1559 C 153.469 -1.15279 -1.72411 0
M  V30 1560 C 153.894 0.287866 -1.85884 0
M  V30 1561 O 153.252 1.20855 -1.35143 0
M  V30 1562 C 153.3 -1.83028 -3.10698 0
M  V30 1563 O 152.404 -1.12128 -3.96864 0
M  V30 1564 H 151.745 -0.401504 -0.528858 0
M  V30 1565 H 154.275 -1.67531 -1.1745 0
M  V30 1566 H 154.285 -1.89981 -3.6107 0
M  V30 1567 H 152.96 -2.87833 -3.00208 0
M  V30 1568 H 151.537 -1.13173 -3.55312 0
M  V30 1569 N 153.722 1.14298 -1.08507 0
M  V30 1570 C 154.999 1.81544 -0.728088 0
M  V30 1571 C 155.379 1.95838 0.78808 0
M  V30 1572 O 154.727 1.51904 1.70697 0
M  V30 1573 C 154.937 3.17169 -1.45619 0
M  V30 1574 C 156.285 3.9265 -1.61591 0
M  V30 1575 O 157.309 3.26762 -1.41793 0
M  V30 1576 O 156.168 5.10807 -1.94263 0
M  V30 1577 H 153.262 0.78491 -0.260471 0
M  V30 1578 H 155.808 1.21307 -1.18671 0
M  V30 1579 H 154.58 3.01934 -2.489 0
M  V30 1580 H 154.203 3.851 -0.989124 0
M  V30 1581 N 155.201 0.870884 1.31352 0
M  V30 1582 C 156.617 0.562932 1.49343 0
M  V30 1583 C 156.817 -0.902725 1.80148 0
M  V30 1584 O 155.873 -1.68484 1.88067 0
M  V30 1585 C 157.186 1.46393 2.62659 0
M  V30 1586 C 158.734 1.46607 2.76542 0
M  V30 1587 C 159.209 2.35266 3.92955 0
M  V30 1588 N 160.7 2.33151 4.00243 0
M  V30 1589 C 161.435 2.98471 4.89594 0
M  V30 1590 N 160.931 3.72964 5.8384 0
M  V30 1591 N 162.724 2.87775 4.82848 0
M  V30 1592 H 154.875 1.81923 1.09626 0
M  V30 1593 H 157.138 0.777934 0.541777 0
M  V30 1594 H 156.844 2.50689 2.46674 0
M  V30 1595 H 156.718 1.16314 3.58819 0
M  V30 1596 H 159.105 0.43069 2.9194 0
M  V30 1597 H 159.186 1.8071 1.81046 0
M  V30 1598 H 158.83 3.38881 3.78315 0
M  V30 1599 H 158.76 1.98487 4.87761 0
M  V30 1600 H 161.251 1.79006 3.32814 0
M  V30 1601 H 161.564 4.19932 6.4875 0
M  V30 1602 H 159.909 3.77073 5.83816 0
M  V30 1603 H 163.1 2.29116 4.08195 0
M  V30 1604 H 163.273 3.38961 5.52277 0
M  V30 1605 N 156.679 -1.44442 0.630414 0
M  V30 1606 C 157.609 -2.33418 -0.0618083 0
M  V30 1607 C 158.59 -1.48165 -0.835541 0
M  V30 1608 O 159.775 -1.76886 -0.801564 0
M  V30 1609 C 156.905 -3.31222 -1.04449 0
M  V30 1610 C 155.859 -4.26288 -0.382436 0
M  V30 1611 C 155.185 -5.13954 -1.47497 0
M  V30 1612 C 156.485 -5.1744 0.710865 0
M  V30 1613 H 158.179 -2.91548 0.681184 0
M  V30 1614 H 155.725 -1.40191 0.329026 0
M  V30 1615 H 157.678 -3.92351 -1.53748 0
M  V30 1616 H 156.402 -2.71299 -1.81836 0
M  V30 1617 H 155.061 -3.6649 0.0899054 0
M  V30 1618 H 154.709 -4.50385 -2.2397 0
M  V30 1619 H 154.409 -5.7837 -1.03737 0
M  V30 1620 H 155.933 -5.77955 -1.96979 0
M  V30 1621 H 157.347 -5.72509 0.300996 0
M  V30 1622 H 155.744 -5.90455 1.07156 0
M  V30 1623 H 156.814 -4.58496 1.57829 0
M  V30 1624 N 158.157 -0.370918 -1.53173 0
M  V30 1625 C 159.573 -0.0200818 -1.59587 0
M  V30 1626 C 159.773 1.46279 -1.38581 0
M  V30 1627 O 158.829 2.22506 -1.19363 0
M  V30 1628 C 160.142 -0.4808 -2.96831 0
M  V30 1629 C 161.69 -0.435477 -3.09956 0
M  V30 1630 C 162.165 -0.872092 -4.4962 0
M  V30 1631 N 163.656 -0.827364 -4.55751 0
M  V30 1632 C 164.391 -1.13683 -5.62018 0
M  V30 1633 N 163.887 -1.51584 -6.76014 0
M  V30 1634 N 165.68 -1.05927 -5.52029 0
M  V30 1635 H 157.831 -1.33652 -1.65079 0
M  V30 1636 H 160.094 -0.546634 -0.774529 0
M  V30 1637 H 159.8 -1.51577 -3.1736 0
M  V30 1638 H 159.674 0.129796 -3.76977 0
M  V30 1639 H 162.061 0.590371 -2.89134 0
M  V30 1640 H 162.142 -1.08164 -2.31806 0
M  V30 1641 H 161.786 -1.89608 -4.71181 0
M  V30 1642 H 161.716 -0.203127 -5.26208 0
M  V30 1643 H 164.207 -0.548216 -3.73902 0
M  V30 1644 H 164.52 -1.73609 -7.53047 0
M  V30 1645 H 162.865 -1.55454 -6.77391 0
M  V30 1646 H 166.056 -0.762321 -4.61851 0
M  V30 1647 H 166.229 -1.30378 -6.34749 0
M  V30 1648 N 159.635 1.57281 -0.100228 0
M  V30 1649 C 160.863 1.98879 0.570509 0
M  V30 1650 C 161.278 0.979476 1.61405 0
M  V30 1651 O 160.635 -0.0302288 1.82475 0
M  V30 1652 C 160.686 3.4052 1.2136 0
M  V30 1653 O 160.407 4.37588 0.211786 0
M  V30 1654 C 161.908 3.97149 1.96945 0
M  V30 1655 H 159.128 0.653428 0.152555 0
M  V30 1656 H 161.672 2.03697 -0.18103 0
M  V30 1657 H 159.827 3.367 1.91603 0
M  V30 1658 H 160.241 5.20118 0.676607 0
M  V30 1659 H 161.715 4.98393 2.37294 0
M  V30 1660 H 162.192 3.3525 2.83733 0
M  V30 1661 H 162.798 4.04458 1.31506 0
M  V30 1662 N 161.113 -0.173488 1.56642 0
M  V30 1663 C 162.359 -0.891784 1.8214 0
M  V30 1664 C 162.692 -1.8199 0.677736 0
M  V30 1665 O 161.967 -1.91842 -0.320446 0
M  V30 1666 C 162.25 -1.68933 3.18015 0
M  V30 1667 C 162.103 -0.784487 4.42906 0
M  V30 1668 C 163.422 -2.65748 3.50808 0
M  V30 1669 H 160.541 -0.322761 0.662567 0
M  V30 1670 H 163.183 -0.158095 1.89341 0
M  V30 1671 H 161.333 -2.31482 3.12007 0
M  V30 1672 H 163.005 -0.172046 4.60979 0
M  V30 1673 H 161.248 -0.0924117 4.33702 0
M  V30 1674 H 161.919 -1.37799 5.34524 0
M  V30 1675 H 164.395 -2.13327 3.57255 0
M  V30 1676 H 163.271 -3.18619 4.4696 0
M  V30 1677 H 163.532 -3.45842 2.75401 0
M  V30 1678 N 162.591 -1.51276 -0.441967 0
M  V30 1679 C 163.523 -1.68444 -1.55433 0
M  V30 1680 C 164.536 -0.565187 -1.52674 0
M  V30 1681 O 165.725 -0.839356 -1.57534 0
M  V30 1682 C 162.825 -1.67966 -2.94348 0
M  V30 1683 C 161.998 -2.964 -3.21661 0
M  V30 1684 C 161.057 -2.88171 -4.40277 0
M  V30 1685 O 160.083 -3.62119 -4.39157 0
M  V30 1686 N 161.285 -2.03706 -5.43584 0
M  V30 1687 H 164.05 -2.644 -1.41112 0
M  V30 1688 H 161.611 -1.49104 -0.630838 0
M  V30 1689 H 163.603 -1.60035 -3.71713 0
M  V30 1690 H 162.173 -0.796225 -3.0229 0
M  V30 1691 H 161.393 -3.18234 -2.32638 0
M  V30 1692 H 162.681 -3.81427 -3.36736 0
M  V30 1693 H 162.079 -1.42995 -5.47329 0
M  V30 1694 H 160.636 -2.01658 -6.1982 0
M  V30 1695 N 164.069 0.697108 -1.41344 0
M  V30 1696 C 164.999 1.82353 -1.45841 0
M  V30 1697 C 165.98 1.67115 -0.317247 0
M  V30 1698 O 167.165 1.86871 -0.528474 0
M  V30 1699 C 164.295 3.20476 -1.33838 0
M  V30 1700 C 163.249 3.50415 -2.4575 0
M  V30 1701 C 162.575 4.87878 -2.18813 0
M  V30 1702 C 163.875 3.49546 -3.88091 0
M  V30 1703 H 165.569 1.78846 -2.40113 0
M  V30 1704 H 163.115 0.859028 -1.15571 0
M  V30 1705 H 165.068 3.98988 -1.35596 0
M  V30 1706 H 163.792 3.24604 -0.360498 0
M  V30 1707 H 162.451 2.74253 -2.43271 0
M  V30 1708 H 162.099 4.8863 -1.19371 0
M  V30 1709 H 161.799 5.08875 -2.93803 0
M  V30 1710 H 163.323 5.68702 -2.22284 0
M  V30 1711 H 164.737 4.18066 -3.92293 0
M  V30 1712 H 163.134 3.82075 -4.62751 0
M  V30 1713 H 164.204 2.48552 -4.16353 0
M  V30 1714 N 165.547 1.27147 0.931209 0
M  V30 1715 C 166.495 1.09398 2.05268 0
M  V30 1716 C 167.489 0.0180591 1.6939 0
M  V30 1717 O 168.695 0.17551 1.79142 0
M  V30 1718 H 165.07 0.336986 0.672268 0
M  V30 1719 H 167.041 2.04416 2.17386 0
M  V30 1720 C 165.79 0.75424 3.39421 0
M  V30 1721 H 165.113 1.57404 3.67511 0
M  V30 1722 H 166.553 0.669903 4.18674 0
M  V30 1723 C 165.012 -0.541197 3.32525 0
M  V30 1724 O 165.542 -1.57664 3.69466 0
M  V30 1725 N 163.748 -0.535517 2.85623 0
M  V30 1726 H 163.295 0.307511 2.55758 0
M  V30 1727 H 163.253 -1.40236 2.81392 0
M  V30 1728 N 167.025 -1.13721 1.09112 0
M  V30 1729 C 168.271 -1.85198 0.826414 0
M  V30 1730 C 168.604 -1.83129 -0.646319 0
M  V30 1731 O 167.879 -1.2671 -1.47563 0
M  V30 1732 C 168.162 -3.33507 1.35812 0
M  V30 1733 C 168.015 -3.44108 2.89672 0
M  V30 1734 C 169.334 -4.28838 0.989256 0
M  V30 1735 H 166.453 -0.67243 0.301675 0
M  V30 1736 H 169.095 -1.33499 1.35197 0
M  V30 1737 H 167.245 -3.77666 0.911082 0
M  V30 1738 H 168.917 -3.08684 3.428 0
M  V30 1739 H 167.16 -2.85087 3.26967 0
M  V30 1740 H 167.831 -4.48388 3.21951 0
M  V30 1741 H 170.307 -3.92734 1.37475 0
M  V30 1742 H 169.183 -5.31051 1.38838 0
M  V30 1743 H 169.444 -4.4198 -0.102924 0
M  V30 1744 N 168.503 -0.877838 -1.30888 0
M  V30 1745 C 169.743 -0.499301 -1.98208 0
M  V30 1746 C 170.107 0.932649 -1.67826 0
M  V30 1747 O 171.308 1.41694 -2.28421 0
M  V30 1748 C 169.579 -0.758221 -3.49265 0
M  V30 1749 S 171.138 -0.480719 -4.36159 0
M  V30 1750 H 167.956 -0.186062 -0.686223 0
M  V30 1751 H 170.558 -1.13556 -1.59139 0
M  V30 1752 H 169.262 -1.79903 -3.68867 0
M  V30 1753 H 168.793 -0.109247 -3.93248 0
M  V30 1754 H 170.808 0.683698 -4.91467 0
M  V30 1755 N 169.982 1.44106 -0.638065 0
M  V30 1756 C 171.207 2.0685 -0.150916 0
M  V30 1757 C 171.632 1.47417 1.16833 0
M  V30 1758 O 170.99 0.578264 1.71831 0
M  V30 1759 C 171.038 3.60555 -0.05708 0
M  V30 1760 O 170.142 4.00465 0.984972 0
M  V30 1761 H 169.483 0.658151 -0.0879399 0
M  V30 1762 H 172.013 1.84865 -0.876707 0
M  V30 1763 H 172.023 4.07789 0.131232 0
M  V30 1764 H 170.698 4.03193 -1.02021 0
M  V30 1765 H 169.275 3.64849 0.770672 0
M  V30 1766 N 171.46 0.379036 1.52974 0
M  V30 1767 C 172.685 -0.209353 2.06341 0
M  V30 1768 C 173.11 -1.40583 1.24972 0
M  V30 1769 O 172.468 -1.79246 0.272155 0
M  V30 1770 C 172.516 -0.567786 3.56102 0
M  V30 1771 O 171.62 -1.66318 3.77375 0
M  V30 1772 H 170.961 -0.0272919 0.663439 0
M  V30 1773 H 173.491 0.543536 1.97248 0
M  V30 1774 H 173.501 -0.835003 3.99364 0
M  V30 1775 H 172.176 0.307013 4.14765 0
M  V30 1776 H 170.753 -1.39048 3.46006 0
M  V30 1777 N 172.938 -1.57226 0.108567 0
M  V30 1778 C 173.848 -2.18292 -0.859401 0
M  V30 1779 C 174.864 -1.15612 -1.30038 0
M  V30 1780 O 176.04 -1.48039 -1.36552 0
M  V30 1781 C 173.105 -2.762 -2.09558 0
M  V30 1782 C 172.166 -3.93881 -1.70752 0
M  V30 1783 C 171.399 -4.49018 -2.88477 0
M  V30 1784 O 171.622 -4.03068 -4.036 0
M  V30 1785 O 170.556 -5.39852 -2.66164 0
M  V30 1786 H 174.382 -3.01441 -0.369769 0
M  V30 1787 H 171.967 -1.48945 -0.1165 0
M  V30 1788 H 173.849 -3.13156 -2.81978 0
M  V30 1789 H 172.524 -1.96089 -2.57548 0
M  V30 1790 H 171.431 -3.61713 -0.954714 0
M  V30 1791 H 172.764 -4.75396 -1.27513 0
M  V30 1792 N 174.416 0.165178 -1.56732 0
M  V30 1793 C 175.326 1.22423 -2.00125 0
M  V30 1794 C 176.342 1.48084 -0.913619 0
M  V30 1795 O 177.518 1.60112 -1.22172 0
M  V30 1796 C 174.583 2.54197 -2.35764 0
M  V30 1797 C 173.644 2.36343 -3.58386 0
M  V30 1798 C 172.877 3.61834 -3.92316 0
M  V30 1799 O 173.1 4.67267 -3.27135 0
M  V30 1800 O 172.034 3.55579 -4.85641 0
M  V30 1801 H 175.86 0.885886 -2.90492 0
M  V30 1802 H 173.445 0.372518 -1.44681 0
M  V30 1803 H 175.327 3.3192 -2.59629 0
M  V30 1804 H 174.002 2.87598 -1.48557 0
M  V30 1805 H 172.909 1.56632 -3.39731 0
M  V30 1806 H 174.242 2.07865 -4.46154 0
M  V30 1807 N 175.894 1.51508 0.433938 0
M  V30 1808 C 177.14 1.64588 1.18484 0
M  V30 1809 C 177.473 0.362666 1.90784 0
M  V30 1810 O 176.748 -0.637892 1.83742 0
M  V30 1811 C 177.031 2.85149 2.19913 0
M  V30 1812 C 176.884 4.23456 1.51674 0
M  V30 1813 C 178.203 3.01227 3.20858 0
M  V30 1814 H 175.322 0.598994 0.429389 0
M  V30 1815 H 177.964 1.84002 0.473647 0
M  V30 1816 H 176.114 2.68729 2.80566 0
M  V30 1817 H 177.786 4.51552 0.943322 0
M  V30 1818 H 176.029 4.25998 0.819035 0
M  V30 1819 H 176.7 5.03812 2.2556 0
M  V30 1820 H 179.176 3.16382 2.70263 0
M  V30 1821 H 178.052 3.87141 3.89118 0
M  V30 1822 H 178.313 2.13447 3.8716 0
M  V30 1823 N 177.372 -0.689602 1.41712 0
M  V30 1824 C 178.282 -1.83314 1.46401 0
M  V30 1825 C 179.298 -1.7036 0.35405 0
M  V30 1826 O 180.474 -1.92171 0.602692 0
M  V30 1827 C 177.539 -3.19344 1.34982 0
M  V30 1828 C 176.6 -3.44363 2.56344 0
M  V30 1829 C 175.833 -4.73904 2.45461 0
M  V30 1830 O 176.056 -5.508 1.48241 0
M  V30 1831 O 174.99 -4.99839 3.35328 0
M  V30 1832 H 178.816 -1.82314 2.42889 0
M  V30 1833 H 176.401 -0.843438 1.23315 0
M  V30 1834 H 178.283 -4.00547 1.3092 0
M  V30 1835 H 176.958 -3.21014 0.41612 0
M  V30 1836 H 175.865 -2.63067 2.65982 0
M  V30 1837 H 177.198 -3.47512 3.48563 0
M  V30 1838 N 178.85 -1.27639 -0.924453 0
M  V30 1839 C 179.797 -1.10644 -2.0255 0
M  V30 1840 C 180.767 -0.00658438 -1.66099 0
M  V30 1841 O 181.952 -0.16952 -1.90045 0
M  V30 1842 C 179.092 -0.76309 -3.36557 0
M  V30 1843 C 178.205 -1.94091 -3.85944 0
M  V30 1844 C 177.34 -1.53914 -5.08413 0
M  V30 1845 C 176.379 -2.68425 -5.50104 0
M  V30 1846 N 175.516 -2.28815 -6.63768 0
M  V30 1847 H 180.356 -2.04858 -2.16419 0
M  V30 1848 H 177.893 -1.01974 -1.06017 0
M  V30 1849 H 179.851 -0.544822 -4.13627 0
M  V30 1850 H 178.481 0.142102 -3.22487 0
M  V30 1851 H 177.533 -2.27162 -3.05125 0
M  V30 1852 H 178.845 -2.7998 -4.12811 0
M  V30 1853 H 177.999 -1.28231 -5.92994 0
M  V30 1854 H 176.738 -0.651391 -4.8333 0
M  V30 1855 H 175.743 -2.94819 -4.64071 0
M  V30 1856 H 176.968 -3.57826 -5.7718 0
M  V30 1857 H 174.914 -1.42495 -6.40337 0
M  V30 1858 H 174.831 -3.08242 -6.90306 0
M  V30 1859 H 176.099 -2.06387 -7.51681 0
M  V30 1860 N 180.328 1.1314 -1.09713 0
M  V30 1861 C 181.574 1.84757 -0.836224 0
M  V30 1862 C 181.907 1.8347 0.636598 0
M  V30 1863 O 181.182 1.27491 1.46889 0
M  V30 1864 C 181.465 3.32782 -1.37578 0
M  V30 1865 C 181.318 3.42567 -2.91493 0
M  V30 1866 C 182.637 4.28307 -1.01198 0
M  V30 1867 H 179.756 0.67082 -0.305236 0
M  V30 1868 H 182.398 1.3278 -1.35903 0
M  V30 1869 H 180.548 3.77177 -0.931097 0
M  V30 1870 H 182.22 3.06862 -3.44432 0
M  V30 1871 H 180.463 2.83349 -3.28475 0
M  V30 1872 H 181.134 4.46674 -3.24324 0
M  V30 1873 H 183.61 3.91999 -1.39556 0
M  V30 1874 H 182.486 5.30307 -1.41653 0
M  V30 1875 H 182.747 4.42029 0.0794833 0
M  V30 1876 N 181.806 0.884767 1.30421 0
M  V30 1877 C 183.052 0.503851 1.96441 0
M  V30 1878 C 183.385 -0.944518 1.69684 0
M  V30 1879 O 182.66 -1.66737 1.00145 0
M  V30 1880 C 182.943 0.779085 3.51571 0
M  V30 1881 C 182.796 2.27807 3.87846 0
M  V30 1882 C 184.115 0.255452 4.39358 0
M  V30 1883 H 181.234 0.184533 0.713524 0
M  V30 1884 H 183.876 1.10872 1.54297 0
M  V30 1885 H 182.026 0.264274 3.876 0
M  V30 1886 H 183.698 2.86127 3.61841 0
M  V30 1887 H 181.941 2.74479 3.35922 0
M  V30 1888 H 182.612 2.42125 4.96064 0
M  V30 1889 H 185.088 0.696079 4.10236 0
M  V30 1890 H 183.964 0.477361 5.4682 0
M  V30 1891 H 184.225 -0.843293 4.33983 0
M  V30 1892 N 183.284 -1.43765 0.645699 0
M  V30 1893 C 184.194 -2.34544 -0.0512957 0
M  V30 1894 C 185.21 -1.53455 -0.82022 0
M  V30 1895 O 186.386 -1.86133 -0.769176 0
M  V30 1896 C 183.451 -3.31636 -1.01087 0
M  V30 1897 C 182.512 -4.2863 -0.239712 0
M  V30 1898 C 181.745 -5.21084 -1.15358 0
M  V30 1899 O 181.968 -5.1779 -2.39269 0
M  V30 1900 O 180.902 -5.98593 -0.630038 0
M  V30 1901 H 184.728 -2.95624 0.695718 0
M  V30 1902 H 182.313 -1.43781 0.405882 0
M  V30 1903 H 184.195 -3.9136 -1.56254 0
M  V30 1904 H 182.87 -2.73069 -1.73824 0
M  V30 1905 H 181.777 -3.72408 0.355356 0
M  V30 1906 H 183.11 -4.90157 0.447936 0
M  V30 1907 N 184.763 -0.387143 -1.52771 0
M  V30 1908 C 186.012 0.19697 -2.00736 0
M  V30 1909 C 186.325 1.48082 -1.27793 0
M  V30 1910 O 187.531 2.14485 -1.66458 0
M  V30 1911 C 185.987 0.401568 -3.57653 0
M  V30 1912 C 185.595 -0.868907 -4.39493 0
M  V30 1913 C 187.339 0.942164 -4.13912 0
M  V30 1914 C 185.246 -0.632705 -5.88006 0
M  V30 1915 H 184.176 0.0773827 -0.750019 0
M  V30 1916 H 186.827 -0.50921 -1.76293 0
M  V30 1917 H 185.209 1.16954 -3.78335 0
M  V30 1918 H 186.383 -1.64133 -4.30577 0
M  V30 1919 H 184.698 -1.33429 -3.94443 0
M  V30 1920 H 187.295 1.13455 -5.22525 0
M  V30 1921 H 187.638 1.9106 -3.69867 0
M  V30 1922 H 188.171 0.233814 -3.97112 0
M  V30 1923 H 184.91 -1.57208 -6.36369 0
M  V30 1924 H 184.43 0.100825 -5.99715 0
M  V30 1925 H 186.109 -0.26642 -6.46451 0
M  V30 1926 N 186.241 1.57166 -0.116904 0
M  V30 1927 C 187.487 1.95412 0.542405 0
M  V30 1928 C 187.82 1.00019 1.66463 0
M  V30 1929 O 187.095 0.0370346 1.94465 0
M  V30 1930 C 187.378 3.43615 1.07708 0
M  V30 1931 C 187.231 4.49781 -0.0415868 0
M  V30 1932 C 188.55 3.93616 1.96861 0
M  V30 1933 H 185.669 0.710543 0.195696 0
M  V30 1934 H 188.311 1.89027 -0.192038 0
M  V30 1935 H 186.461 3.49187 1.70296 0
M  V30 1936 H 188.133 4.56308 -0.676793 0
M  V30 1937 H 186.376 4.28033 -0.705019 0
M  V30 1938 H 187.047 5.50733 0.373717 0
M  V30 1939 H 189.523 3.90335 1.44146 0
M  V30 1940 H 188.399 4.97838 2.3119 0
M  V30 1941 H 188.66 3.34188 2.89432 0
M  V30 1942 N 187.719 -0.156864 1.56817 0
M  V30 1943 C 189.135 -0.50916 1.5126 0
M  V30 1944 C 189.335 -1.83897 0.823658 0
M  V30 1945 O 188.391 -2.49469 0.390055 0
M  V30 1946 C 189.704 -0.52857 2.96018 0
M  V30 1947 C 191.252 -0.614771 3.06903 0
M  V30 1948 C 191.727 -0.664938 4.53147 0
M  V30 1949 N 193.218 -0.727433 4.57452 0
M  V30 1950 C 193.953 -0.787067 5.67973 0
M  V30 1951 N 193.449 -0.806649 6.88088 0
M  V30 1952 N 195.242 -0.827195 5.5598 0
M  V30 1953 H 187.393 0.714935 2.00006 0
M  V30 1954 H 189.656 0.259526 0.911784 0
M  V30 1955 H 189.362 0.380154 3.49639 0
M  V30 1956 H 189.236 -1.36998 3.51442 0
M  V30 1957 H 191.623 -1.51392 2.53307 0
M  V30 1958 H 191.704 0.253597 2.5454 0
M  V30 1959 H 191.348 0.230011 5.07379 0
M  V30 1960 H 191.278 -1.54966 5.03282 0
M  V30 1961 H 193.769 -0.719998 3.70978 0
M  V30 1962 H 194.082 -0.853727 7.6807 0
M  V30 1963 H 192.427 -0.774687 6.90669 0
M  V30 1964 H 195.618 -0.808998 4.61056 0
M  V30 1965 H 195.791 -0.870206 6.4213 0
M  V30 1966 N 189.197 -1.51736 -0.425897 0
M  V30 1967 C 190.422 -1.69082 -1.20108 0
M  V30 1968 C 190.847 -0.392398 -1.83962 0
M  V30 1969 O 190.205 0.64858 -1.69302 0
M  V30 1970 C 190.253 -2.81604 -2.25237 0
M  V30 1971 O 189.357 -2.46004 -3.30992 0
M  V30 1972 H 188.698 -0.563408 -0.35138 0
M  V30 1973 H 191.228 -1.98358 -0.501512 0
M  V30 1974 H 191.238 -3.06025 -2.69838 0
M  V30 1975 H 189.913 -3.75817 -1.78142 0
M  V30 1976 H 188.49 -2.32195 -2.91787 0
M  V30 1977 N 190.675 0.682077 -1.42076 0
M  V30 1978 C 191.9 1.47558 -1.45744 0
M  V30 1979 C 192.325 1.87977 -0.0680981 0
M  V30 1980 O 191.683 1.55522 0.9318 0
M  V30 1981 C 191.731 2.70575 -2.38373 0
M  V30 1982 O 190.835 3.68573 -1.85007 0
M  V30 1983 H 190.176 0.443585 -0.494093 0
M  V30 1984 H 192.706 0.837238 -1.86686 0
M  V30 1985 H 192.716 3.18729 -2.54707 0
M  V30 1986 H 191.391 2.40495 -3.39315 0
M  V30 1987 H 189.968 3.2757 -1.78192 0
M  V30 1988 N 192.153 1.28127 0.917671 0
M  V30 1989 C 193.083 1.14248 2.03641 0
M  V30 1990 C 194.064 0.0412748 1.7005 0
M  V30 1991 O 195.249 0.217566 1.92977 0
M  V30 1992 C 192.379 0.799431 3.37974 0
M  V30 1993 C 191.333 1.85497 3.85713 0
M  V30 1994 C 190.659 1.36565 5.16966 0
M  V30 1995 C 191.959 3.26085 4.08002 0
M  V30 1996 H 193.653 2.07835 2.15511 0
M  V30 1997 H 191.199 1.00064 1.03553 0
M  V30 1998 H 193.152 0.689114 4.15727 0
M  V30 1999 H 191.876 -0.172145 3.26146 0
M  V30 2000 H 190.535 1.95437 3.10161 0
M  V30 2001 H 190.183 0.383253 5.01538 0
M  V30 2002 H 189.883 2.07143 5.49878 0
M  V30 2003 H 191.407 1.26848 5.97279 0
M  V30 2004 H 192.821 3.19089 4.76293 0
M  V30 2005 H 191.218 3.94462 4.52238 0
M  V30 2006 H 192.288 3.70394 3.12948 0
M  V30 2007 N 193.631 -1.12557 1.10312 0
M  V30 2008 C 194.578 -2.18247 0.750781 0
M  V30 2009 C 195.548 -1.63853 -0.272293 0
M  V30 2010 O 196.733 -1.90195 -0.151862 0
M  V30 2011 C 193.873 -3.44591 0.187379 0
M  V30 2012 C 192.986 -4.13046 1.2656 0
M  V30 2013 C 192.121 -5.27034 0.663978 0
M  V30 2014 C 191.16 -5.87353 1.72287 0
M  V30 2015 N 190.297 -6.92757 1.1416 0
M  V30 2016 H 195.137 -2.47732 1.65628 0
M  V30 2017 H 192.674 -1.21629 0.827337 0
M  V30 2018 H 194.632 -4.16904 -0.157148 0
M  V30 2019 H 193.262 -3.15527 -0.681355 0
M  V30 2020 H 192.314 -3.38924 1.72727 0
M  V30 2021 H 193.626 -4.53947 2.06721 0
M  V30 2022 H 192.78 -6.06104 0.268824 0
M  V30 2023 H 191.519 -4.87407 -0.169082 0
M  V30 2024 H 190.524 -5.06971 2.12746 0
M  V30 2025 H 191.749 -6.29051 2.55875 0
M  V30 2026 H 189.695 -6.5517 0.329984 0
M  V30 2027 H 189.612 -7.3225 1.88007 0
M  V30 2028 H 190.88 -7.75658 0.772956 0
M  V30 2029 N 195.109 -0.891671 -1.2995 0
M  V30 2030 C 196.386 -0.433307 -1.9074 0
M  V30 2031 C 196.766 1.08646 -1.80995 0
M  V30 2032 O 196.114 1.92476 -1.23147 0
M  V30 2033 C 196.324 -0.938895 -3.36134 0
M  V30 2034 C 197.672 -0.977829 -4.13187 0
M  V30 2035 O 198.696 -0.886015 -3.45005 0
M  V30 2036 O 197.555 -1.11453 -5.35015 0
M  V30 2037 H 194.649 -0.133699 -0.816121 0
M  V30 2038 H 197.195 -0.981011 -1.38471 0
M  V30 2039 H 195.967 -1.98281 -3.37343 0
M  V30 2040 H 195.59 -0.37074 -3.95868 0
M  V30 2041 N 196.587 1.43421 -0.653314 0
M  V30 2042 C 197.998 1.85065 -0.246537 0
M  V30 2043 C 198.349 1.54688 1.2069 0
M  V30 2044 O 197.474 0.995896 1.92122 0
M  V30 2045 C 198.069 3.35922 -0.440666 0
M  V30 2046 C 196.628 3.76297 -0.0882064 0
M  V30 2047 C 195.775 2.67147 -0.743484 0
M  V30 2048 H 198.726 1.33572 -0.856979 0
M  V30 2049 H 198.747 3.79204 0.313798 0
M  V30 2050 H 198.259 3.58 -1.49858 0
M  V30 2051 H 196.36 3.5983 0.96711 0
M  V30 2052 H 196.473 4.76338 -0.513738 0
M  V30 2053 H 194.837 2.54086 -0.176712 0
M  V30 2054 H 195.62 2.92053 -1.80443 0
M  V30 2055 N 198.065 0.39524 1.52563 0
M  V30 2056 C 198.975 -0.444232 2.30356 0
M  V30 2057 C 199.991 -1.06615 1.37511 0
M  V30 2058 O 201.167 -1.07067 1.70583 0
M  V30 2059 C 198.232 -1.55315 3.09964 0
M  V30 2060 C 197.293 -0.955734 4.18526 0
M  V30 2061 C 196.526 -2.01181 4.9433 0
M  V30 2062 O 196.749 -3.22781 4.70285 0
M  V30 2063 O 195.683 -1.62579 5.79527 0
M  V30 2064 H 199.509 0.189667 3.03107 0
M  V30 2065 H 197.094 0.1588 1.48554 0
M  V30 2066 H 198.976 -2.19724 3.59582 0
M  V30 2067 H 197.651 -2.17191 2.4002 0
M  V30 2068 H 196.558 -0.274743 3.7309 0
M  V30 2069 H 197.891 -0.381109 4.90722 0
M  V30 2070 N 199.544 -1.57102 0.125237 0
M  V30 2071 C 200.491 -2.15641 -0.822655 0
M  V30 2072 C 201.461 -1.08313 -1.25927 0
M  V30 2073 O 202.646 -1.36251 -1.33567 0
M  V30 2074 C 199.786 -2.76504 -2.06494 0
M  V30 2075 C 198.899 -3.98158 -1.67612 0
M  V30 2076 C 198.034 -4.47088 -2.86854 0
M  V30 2077 C 197.073 -5.6126 -2.44242 0
M  V30 2078 N 196.21 -6.04905 -3.56419 0
M  V30 2079 H 201.05 -2.96313 -0.316625 0
M  V30 2080 H 198.587 -1.46388 -0.144588 0
M  V30 2081 H 200.545 -3.09925 -2.79289 0
M  V30 2082 H 199.175 -1.98512 -2.54545 0
M  V30 2083 H 198.227 -3.70858 -0.846661 0
M  V30 2084 H 199.539 -4.80934 -1.32301 0
M  V30 2085 H 198.693 -4.82451 -3.67867 0
M  V30 2086 H 197.432 -3.63275 -3.25396 0
M  V30 2087 H 196.437 -5.25495 -1.61663 0
M  V30 2088 H 197.662 -6.46843 -2.0681 0
M  V30 2089 H 195.608 -5.24032 -3.94623 0
M  V30 2090 H 195.525 -6.82552 -3.25051 0
M  V30 2091 H 196.793 -6.44907 -4.37853 0
M  V30 2092 N 201.022 0.148545 -1.56898 0
M  V30 2093 C 202.27 0.859717 -1.82902 0
M  V30 2094 C 202.591 1.81775 -0.70588 0
M  V30 2095 O 201.861 1.93994 0.272586 0
M  V30 2096 H 200.441 0.320469 -0.674766 0
M  V30 2097 H 203.103 0.142918 -1.94375 0
M  V30 2098 H 202.199 1.4229 -2.77777 0
M  V30 2099 N 202.5 1.5196 0.417844 0
M  V30 2100 C 203.433 1.69387 1.52916 0
M  V30 2101 C 204.411 0.541419 1.53321 0
M  V30 2102 O 205.595 0.767695 1.72159 0
M  V30 2103 C 202.722 1.72525 2.91467 0
M  V30 2104 C 201.768 2.93967 3.09008 0
M  V30 2105 S 202.601 4.54461 2.83242 0
M  V30 2106 C 203.757 4.60372 4.24038 0
M  V30 2107 H 203.99 2.63382 1.37903 0
M  V30 2108 H 201.523 1.41889 0.608845 0
M  V30 2109 H 203.481 1.75018 3.7132 0
M  V30 2110 H 202.142 0.796733 3.03827 0
M  V30 2111 H 201.335 2.92619 4.10353 0
M  V30 2112 H 200.937 2.89316 2.37007 0
M  V30 2113 H 203.229 4.37213 5.17544 0
M  V30 2114 H 204.172 5.62273 4.30412 0
M  V30 2115 H 204.58 3.89492 4.08602 0
M  V30 2116 N 203.978 -0.674533 1.42435 0
M  V30 2117 C 205.224 -1.43521 1.4413 0
M  V30 2118 C 205.579 -1.92316 0.0567773 0
M  V30 2119 O 204.872 -1.68008 -0.921076 0
M  V30 2120 C 205.066 -2.64767 2.40069 0
M  V30 2121 C 204.895 -2.27836 3.87713 0
M  V30 2122 C 203.665 -2.17183 4.56245 0
M  V30 2123 C 205.863 -1.89466 4.78129 0
M  V30 2124 N 203.845 -1.73358 5.88915 0
M  V30 2125 C 205.216 -1.56561 5.99907 0
M  V30 2126 C 207.271 -1.7646 4.65582 0
M  V30 2127 C 205.974 -1.11957 7.10534 0
M  V30 2128 C 208 -1.3326 5.76191 0
M  V30 2129 C 207.362 -1.0128 6.97081 0
M  V30 2130 H 203.461 -0.521656 0.582579 0
M  V30 2131 H 206.045 -0.778381 1.78464 0
M  V30 2132 H 204.216 -3.28139 2.07796 0
M  V30 2133 H 205.948 -3.3136 2.32342 0
M  V30 2134 H 202.703 -2.3626 4.10461 0
M  V30 2135 H 203.127 -1.53867 6.59283 0
M  V30 2136 H 207.769 -1.99831 3.72595 0
M  V30 2137 H 205.487 -0.873318 8.03367 0
M  V30 2138 H 209.073 -1.23717 5.68494 0
M  V30 2139 H 207.953 -0.683597 7.81215 0
M  V30 2140 N 205.456 -1.28612 -0.910864 0
M  V30 2141 C 206.704 -1.15705 -1.65701 0
M  V30 2142 C 207.025 0.29416 -1.92769 0
M  V30 2143 O 206.295 1.20331 -1.54588 0
M  V30 2144 H 204.875 -0.425216 -0.614167 0
M  V30 2145 H 207.537 -1.61381 -1.0928 0
M  V30 2146 H 206.633 -1.6988 -2.61815 0
M  V30 2147 N 206.934 1.1197 -1.10907 0
M  V30 2148 C 207.864 2.19928 -0.784473 0
M  V30 2149 C 208.845 1.6833 0.244726 0
M  V30 2150 O 210.03 1.93892 0.109418 0
M  V30 2151 C 207.16 3.46597 -0.220827 0
M  V30 2152 C 206.114 4.11376 -1.18127 0
M  V30 2153 C 205.44 5.32554 -0.478594 0
M  V30 2154 C 206.74 4.56945 -2.52979 0
M  V30 2155 H 208.434 2.47337 -1.68715 0
M  V30 2156 H 205.98 1.18879 -0.812642 0
M  V30 2157 H 207.933 4.21396 0.0184278 0
M  V30 2158 H 206.657 3.1863 0.717113 0
M  V30 2159 H 205.316 3.38564 -1.40606 0
M  V30 2160 H 204.964 5.00856 0.463976 0
M  V30 2161 H 204.664 5.76844 -1.11912 0
M  V30 2162 H 206.188 6.10096 -0.248 0
M  V30 2163 H 207.602 5.23093 -2.3462 0
M  V30 2164 H 205.999 5.1203 -3.12962 0
M  V30 2165 H 207.069 3.70676 -3.12614 0
M  V30 2166 N 208.412 0.89855 1.29475 0
M  V30 2167 C 209.658 0.524658 1.95896 0
M  V30 2168 C 209.991 -0.926468 1.70676 0
M  V30 2169 O 209.266 -1.65665 1.01908 0
M  V30 2170 C 209.549 0.81633 3.50725 0
M  V30 2171 C 209.402 2.31907 3.85408 0
M  V30 2172 C 210.721 0.302038 4.39062 0
M  V30 2173 H 207.84 0.19209 0.711527 0
M  V30 2174 H 210.482 1.12502 1.53112 0
M  V30 2175 H 208.632 0.305369 3.87298 0
M  V30 2176 H 210.304 2.89949 3.58786 0
M  V30 2177 H 208.547 2.78027 3.32992 0
M  V30 2178 H 209.218 2.47373 4.93468 0
M  V30 2179 H 211.694 0.739551 4.09475 0
M  V30 2180 H 210.57 0.535331 5.46283 0
M  V30 2181 H 210.831 -0.797216 4.34853 0
M  V30 2182 N 209.89 -1.43072 0.660911 0
M  V30 2183 C 210.838 -2.32569 -0.0378199 0
M  V30 2184 C 211.832 -1.49046 -0.805092 0
M  V30 2185 O 213.038 -1.65206 -0.714624 0
M  V30 2186 H 209.413 -0.75136 -0.031019 0
M  V30 2187 H 211.384 -2.89216 0.734609 0
M  V30 2188 C 210.133 -3.33453 -0.985124 0
M  V30 2189 H 209.456 -3.97752 -0.404147 0
M  V30 2190 H 210.896 -3.98691 -1.44297 0
M  V30 2191 C 209.355 -2.64642 -2.08486 0
M  V30 2192 O 209.885 -2.46776 -3.16961 0
M  V30 2193 N 208.091 -2.23891 -1.8526 0
M  V30 2194 H 207.638 -2.38621 -0.970449 0
M  V30 2195 H 207.596 -1.78181 -2.59034 0
M  V30 2196 N 211.368 -0.403325 -1.52352 0
M  V30 2197 C 212.316 0.439752 -2.28405 0
M  V30 2198 C 213.31 1.05089 -1.32863 0
M  V30 2199 O 214.516 0.989759 -1.50345 0
M  V30 2200 H 210.891 0.160587 -0.734653 0
M  V30 2201 H 212.862 -0.222983 -2.97566 0
M  V30 2202 C 211.611 1.54736 -3.11371 0
M  V30 2203 H 210.934 1.08643 -3.84755 0
M  V30 2204 H 212.374 2.1112 -3.67701 0
M  V30 2205 C 210.833 2.51141 -2.24566 0
M  V30 2206 O 211.363 3.54887 -1.88196 0
M  V30 2207 N 209.569 2.21213 -1.8845 0
M  V30 2208 H 209.116 1.36878 -2.18225 0
M  V30 2209 H 209.074 2.85963 -1.30662 0
M  V30 2210 N 212.846 1.57033 -0.133567 0
M  V30 2211 C 213.809 2.14897 0.796995 0
M  V30 2212 C 214.809 1.0874 1.18458 0
M  V30 2213 O 215.999 1.34446 1.1077 0
M  V30 2214 C 213.131 2.70112 2.07973 0
M  V30 2215 H 214.324 2.98457 0.293873 0
M  V30 2216 H 211.877 1.55871 0.115787 0
M  V30 2217 H 212.612 1.9018 2.62682 0
M  V30 2218 H 212.397 3.47764 1.81115 0
M  V30 2219 H 213.887 3.14738 2.74462 0
M  V30 2220 N 214.325 -0.140222 1.56975 0
M  V30 2221 C 215.573 -0.850005 1.83356 0
M  V30 2222 C 215.894 -1.81399 0.71551 0
M  V30 2223 O 215.164 -1.94136 -0.262294 0
M  V30 2224 H 213.744 -0.316886 0.676456 0
M  V30 2225 H 216.406 -0.132608 1.94448 0
M  V30 2226 H 215.502 -1.40814 2.78528 0
M  V30 2227 N 215.803 -1.52179 -0.40978 0
M  V30 2228 C 217.052 -1.65434 -1.15388 0
M  V30 2229 C 217.365 -0.390056 -1.91671 0
M  V30 2230 O 218.571 -0.402399 -2.68501 0
M  V30 2231 C 217.027 -2.92279 -2.10003 0
M  V30 2232 C 216.635 -4.25813 -1.39239 0
M  V30 2233 C 218.379 -3.14897 -2.84675 0
M  V30 2234 C 216.286 -5.43782 -2.32498 0
M  V30 2235 H 215.216 -0.616267 -0.434432 0
M  V30 2236 H 217.867 -1.78666 -0.418401 0
M  V30 2237 H 216.249 -2.72744 -2.871 0
M  V30 2238 H 217.423 -4.55828 -0.675099 0
M  V30 2239 H 215.738 -4.09292 -0.766097 0
M  V30 2240 H 218.335 -4.0021 -3.54593 0
M  V30 2241 H 218.678 -2.29103 -3.47588 0
M  V30 2242 H 219.211 -3.34901 -2.14677 0
M  V30 2243 H 215.95 -6.3192 -1.74233 0
M  V30 2244 H 215.47 -5.18106 -3.02201 0
M  V30 2245 H 217.149 -5.76834 -2.93038 0
M  V30 2246 N 217.281 0.66697 -1.42791 0
M  V30 2247 C 218.506 1.46004 -1.47301 0
M  V30 2248 C 218.931 1.87894 -0.0880317 0
M  V30 2249 O 218.289 1.56502 0.915253 0
M  V30 2250 C 218.337 2.68031 -2.41229 0
M  V30 2251 O 217.441 3.6659 -1.88906 0
M  V30 2252 H 216.782 0.43832 -0.49877 0
M  V30 2253 H 219.312 0.817391 -1.87563 0
M  V30 2254 H 219.322 3.1601 -2.58073 0
M  V30 2255 H 217.997 2.36883 -3.41847 0
M  V30 2256 H 216.574 3.25661 -1.81656 0
M  V30 2257 N 218.759 1.29093 0.90403 0
M  V30 2258 C 219.987 1.19689 1.68766 0
M  V30 2259 C 220.402 -0.243113 1.87228 0
M  V30 2260 O 219.759 -1.16326 1.40621 0
M  V30 2261 C 219.81 1.90144 3.07453 0
M  V30 2262 O 219.531 3.2852 2.89838 0
M  V30 2263 C 221.032 1.87162 4.01852 0
M  V30 2264 H 218.252 0.415035 0.527244 0
M  V30 2265 H 220.796 1.7039 1.13082 0
M  V30 2266 H 218.951 1.43289 3.59926 0
M  V30 2267 H 219.365 3.63944 3.77684 0
M  V30 2268 H 220.839 2.41032 4.96596 0
M  V30 2269 H 221.316 0.84617 4.30972 0
M  V30 2270 H 221.922 2.33741 3.5531 0
M  V30 2271 N 220.237 -1.11381 1.11499 0
M  V30 2272 C 221.484 -1.83132 0.864231 0
M  V30 2273 C 221.812 -1.84683 -0.610114 0
M  V30 2274 O 221.067 -1.29589 -1.46646 0
M  V30 2275 C 221.366 -3.30026 1.37177 0
M  V30 2276 C 221.032 -3.48634 2.85946 0
M  V30 2277 C 219.694 -3.53421 3.26569 0
M  V30 2278 C 222.046 -3.54837 3.81759 0
M  V30 2279 C 219.374 -3.61967 4.61733 0
M  V30 2280 C 221.726 -3.64915 5.1674 0
M  V30 2281 C 220.39 -3.67962 5.5692 0
M  V30 2282 H 219.66 -0.670127 0.316245 0
M  V30 2283 H 222.307 -1.31354 1.3935 0
M  V30 2284 H 220.612 -3.84304 0.762753 0
M  V30 2285 H 222.309 -3.84034 1.15408 0
M  V30 2286 H 218.899 -3.45579 2.53521 0
M  V30 2287 H 223.083 -3.50399 3.51474 0
M  V30 2288 H 218.339 -3.62603 4.92269 0
M  V30 2289 H 222.513 -3.68658 5.90816 0
M  V30 2290 H 220.14 -3.74336 6.61647 0
M  V30 2291 N 221.715 -0.905404 -1.28997 0
M  V30 2292 C 222.963 -0.533192 -1.9494 0
M  V30 2293 C 223.284 0.924618 -1.71685 0
M  V30 2294 O 222.554 1.65268 -1.05183 0
M  V30 2295 H 221.134 -0.194194 -0.721317 0
M  V30 2296 H 223.796 -1.15294 -1.57141 0
M  V30 2297 H 222.892 -0.72059 -3.03667 0
M  V30 2298 N 223.193 1.4272 -0.668489 0
M  V30 2299 C 224.103 2.34596 0.0139753 0
M  V30 2300 C 225.119 1.5474 0.795703 0
M  V30 2301 O 226.295 1.87334 0.739466 0
M  V30 2302 C 223.36 3.33202 0.957982 0
M  V30 2303 C 222.421 4.28957 0.17149 0
M  V30 2304 C 221.654 5.22853 1.07053 0
M  V30 2305 O 221.877 5.21531 2.31001 0
M  V30 2306 O 220.811 5.9952 0.534727 0
M  V30 2307 H 224.637 2.9448 -0.742661 0
M  V30 2308 H 222.222 1.43117 -0.428705 0
M  V30 2309 H 224.104 3.93796 1.50008 0
M  V30 2310 H 222.779 2.758 1.69458 0
M  V30 2311 H 221.686 3.71796 -0.414558 0
M  V30 2312 H 223.019 4.89383 -0.52586 0
M  V30 2313 N 224.671 0.411399 1.52136 0
M  V30 2314 C 225.917 -0.163888 2.02137 0
M  V30 2315 C 226.25 -1.44597 1.29636 0
M  V30 2316 O 225.525 -1.90272 0.403353 0
M  V30 2317 C 225.808 -0.40927 3.57767 0
M  V30 2318 C 225.661 0.889643 4.40914 0
M  V30 2319 C 226.98 -1.19042 4.23694 0
M  V30 2320 H 224.099 -0.0580896 0.734707 0
M  V30 2321 H 226.741 0.54531 1.82007 0
M  V30 2322 H 224.891 -1.0134 3.7505 0
M  V30 2323 H 226.563 1.52575 4.35337 0
M  V30 2324 H 224.806 1.50011 4.07037 0
M  V30 2325 H 225.477 0.672314 5.4789 0
M  V30 2326 H 227.953 -0.678942 4.10524 0
M  V30 2327 H 226.829 -1.33086 5.32522 0
M  V30 2328 H 227.09 -2.21166 3.82803 0
M  V30 2329 N 226.149 -1.5696 0.141893 0
M  V30 2330 C 227.059 -2.20066 -0.812905 0
M  V30 2331 C 228.075 -1.18344 -1.27557 0
M  V30 2332 O 229.251 -1.50902 -1.33381 0
M  V30 2333 C 226.316 -2.80583 -2.03652 0
M  V30 2334 C 225.377 -3.97414 -1.62359 0
M  V30 2335 C 224.61 -4.55036 -2.78887 0
M  V30 2336 O 224.833 -4.11538 -3.94959 0
M  V30 2337 O 223.767 -5.45376 -2.54653 0
M  V30 2338 H 227.593 -3.02157 -0.305746 0
M  V30 2339 H 225.178 -1.49159 -0.0848799 0
M  V30 2340 H 227.06 -3.19067 -2.75272 0
M  V30 2341 H 225.735 -2.01508 -2.5333 0
M  V30 2342 H 224.642 -3.63656 -0.877775 0
M  V30 2343 H 225.975 -4.77994 -1.17401 0
M  V30 2344 N 227.627 0.131896 -1.57047 0
M  V30 2345 C 228.874 0.841932 -1.84168 0
M  V30 2346 C 229.202 1.8048 -0.725066 0
M  V30 2347 O 228.457 1.93618 0.284692 0
M  V30 2348 C 228.756 1.63703 -3.17704 0
M  V30 2349 C 228.422 0.81961 -4.43388 0
M  V30 2350 C 227.084 0.594148 -4.77518 0
M  V30 2351 C 229.436 0.248977 -5.20605 0
M  V30 2352 C 226.764 -0.212409 -5.86315 0
M  V30 2353 C 229.116 -0.544701 -6.30251 0
M  V30 2354 C 227.78 -0.780599 -6.6292 0
M  V30 2355 H 227.05 0.308085 -0.673917 0
M  V30 2356 H 229.697 0.104867 -1.91213 0
M  V30 2357 H 228.002 2.44464 -3.06177 0
M  V30 2358 H 229.699 2.19015 -3.35907 0
M  V30 2359 H 226.289 1.00542 -4.16641 0
M  V30 2360 H 230.473 0.410408 -4.946 0
M  V30 2361 H 225.729 -0.404524 -6.1006 0
M  V30 2362 H 229.903 -0.993922 -6.89271 0
M  V30 2363 H 227.53 -1.40742 -7.47058 0
M  V30 2364 N 229.106 1.52395 0.401703 0
M  V30 2365 C 230.334 1.70676 1.16949 0
M  V30 2366 C 230.749 0.419503 1.8408 0
M  V30 2367 O 230.106 -0.605061 1.72178 0
M  V30 2368 C 230.157 2.84753 2.22706 0
M  V30 2369 O 229.878 4.08495 1.58314 0
M  V30 2370 C 231.379 3.14608 3.12309 0
M  V30 2371 H 228.599 0.571787 0.351142 0
M  V30 2372 H 231.143 1.98987 0.471652 0
M  V30 2373 H 229.298 2.58941 2.88147 0
M  V30 2374 H 229.712 4.72117 2.28485 0
M  V30 2375 H 231.186 3.97923 3.82572 0
M  V30 2376 H 231.663 2.28464 3.75101 0
M  V30 2377 H 232.269 3.42212 2.52529 0
M  V30 2378 N 230.584 -0.659388 1.43143 0
M  V30 2379 C 231.809 -1.45221 1.48073 0
M  V30 2380 C 232.234 -1.87845 0.097995 0
M  V30 2381 O 231.592 -1.56985 -0.90694 0
M  V30 2382 C 231.64 -2.66748 2.42647 0
M  V30 2383 O 230.744 -3.65583 1.90848 0
M  V30 2384 H 230.085 -0.435669 0.501088 0
M  V30 2385 H 232.615 -0.807432 1.87994 0
M  V30 2386 H 232.625 -3.14637 2.59745 0
M  V30 2387 H 231.3 -2.35067 3.43098 0
M  V30 2388 H 229.877 -3.24693 1.83381 0
M  V30 2389 N 232.062 -1.29571 -0.897171 0
M  V30 2390 C 232.992 -1.17473 -2.01798 0
M  V30 2391 C 233.973 -0.068323 -1.69963 0
M  V30 2392 O 235.158 -0.248239 -1.92607 0
M  V30 2393 C 232.288 -0.853099 -3.36659 0
M  V30 2394 C 231.242 -1.9161 -3.82713 0
M  V30 2395 C 230.568 -1.44773 -5.14728 0
M  V30 2396 C 231.868 -3.32535 -4.02763 0
M  V30 2397 H 233.562 -2.11237 -2.12177 0
M  V30 2398 H 231.108 -1.01699 -1.01948 0
M  V30 2399 H 233.061 -0.755165 -4.14578 0
M  V30 2400 H 231.785 0.120236 -3.26379 0
M  V30 2401 H 230.444 -2.00346 -3.07013 0
M  V30 2402 H 230.092 -0.462995 -5.00865 0
M  V30 2403 H 229.792 -2.15865 -5.46513 0
M  V30 2404 H 231.316 -1.36334 -5.95185 0
M  V30 2405 H 232.73 -3.26626 -4.71156 0
M  V30 2406 H 231.127 -4.01607 -4.45905 0
M  V30 2407 H 232.197 -3.75326 -3.07016 0
M  V30 2408 N 233.54 1.10788 -1.12088 0
M  V30 2409 C 234.45 2.20599 -0.798338 0
M  V30 2410 C 235.466 1.72712 0.21135 0
M  V30 2411 O 236.642 2.01348 0.0458477 0
M  V30 2412 C 233.707 3.45771 -0.253674 0
M  V30 2413 C 232.768 4.08411 -1.32283 0
M  V30 2414 C 232.001 5.27608 -0.80406 0
M  V30 2415 O 232.224 5.69241 0.363478 0
M  V30 2416 O 231.158 5.8101 -1.57198 0
M  V30 2417 H 234.984 2.50614 -1.7154 0
M  V30 2418 H 232.569 1.19454 -0.897275 0
M  V30 2419 H 234.451 4.21376 0.0453691 0
M  V30 2420 H 233.126 3.1739 0.636005 0
M  V30 2421 H 232.033 3.34507 -1.67499 0
M  V30 2422 H 233.366 4.40986 -2.18614 0
M  V30 2423 N 235.018 0.912232 1.28515 0
M  V30 2424 C 236.246 0.560416 1.99166 0
M  V30 2425 C 236.661 -0.857927 1.68182 0
M  V30 2426 O 236.018 -1.56805 0.933733 0
M  V30 2427 C 236.069 0.758142 3.53461 0
M  V30 2428 O 235.79 2.12067 3.83352 0
M  V30 2429 C 237.291 0.412954 4.41372 0
M  V30 2430 H 234.511 0.213805 0.636026 0
M  V30 2431 H 237.055 1.22502 1.63749 0
M  V30 2432 H 235.21 0.140556 3.87145 0
M  V30 2433 H 235.624 2.15923 4.77993 0
M  V30 2434 H 237.098 0.60208 5.48707 0
M  V30 2435 H 237.575 -0.65073 4.34353 0
M  V30 2436 H 238.181 1.00802 4.13182 0
M  V30 2437 N 236.496 -1.42363 0.676048 0
M  V30 2438 C 237.726 -2.05561 0.206967 0
M  V30 2439 C 238.134 -1.50887 -1.14148 0
M  V30 2440 O 237.477 -0.643933 -1.72044 0
M  V30 2441 C 237.539 -3.5944 0.0659508 0
M  V30 2442 C 237.203 -4.36812 1.34331 0
M  V30 2443 C 238.2 -4.67383 2.27704 0
M  V30 2444 C 235.885 -4.76429 1.59125 0
M  V30 2445 C 237.879 -5.36509 3.44147 0
M  V30 2446 C 235.566 -5.45294 2.75857 0
M  V30 2447 C 236.564 -5.75259 3.68193 0
M  V30 2448 O 236.252 -6.42712 4.82883 0
M  V30 2449 H 235.984 -0.668872 0.0979084 0
M  V30 2450 H 238.538 -1.83467 0.923531 0
M  V30 2451 H 236.768 -3.80197 -0.706204 0
M  V30 2452 H 238.457 -4.0427 -0.363418 0
M  V30 2453 H 239.223 -4.37275 2.09799 0
M  V30 2454 H 235.102 -4.52498 0.881258 0
M  V30 2455 H 238.646 -5.59814 4.16238 0
M  V30 2456 H 234.543 -5.7482 2.93688 0
M  V30 2457 H 235.311 -6.61204 4.82444 0
M  V30 2458 N 237.974 -0.419461 -1.51915 0
M  V30 2459 C 238.921 0.400927 -2.27291 0
M  V30 2460 C 239.891 1.03224 -1.30131 0
M  V30 2461 O 241.076 1.05455 -1.59009 0
M  V30 2462 C 238.216 1.50603 -3.10504 0
M  V30 2463 C 237.329 0.89462 -4.22635 0
M  V30 2464 C 236.464 1.97328 -4.93189 0
M  V30 2465 C 235.503 1.33935 -5.97267 0
M  V30 2466 N 234.64 2.3586 -6.61298 0
M  V30 2467 H 239.48 -0.248251 -2.96964 0
M  V30 2468 H 237.017 -0.134266 -1.46486 0
M  V30 2469 H 238.975 2.15783 -3.57062 0
M  V30 2470 H 237.605 2.12509 -2.42981 0
M  V30 2471 H 236.657 0.131583 -3.80172 0
M  V30 2472 H 237.969 0.391641 -4.9726 0
M  V30 2473 H 237.123 2.70211 -5.43204 0
M  V30 2474 H 235.862 2.50994 -4.18155 0
M  V30 2475 H 234.867 0.595896 -5.46561 0
M  V30 2476 H 236.092 0.810252 -6.74249 0
M  V30 2477 H 234.038 2.88639 -5.89087 0
M  V30 2478 H 233.955 1.90403 -7.3163 0
M  V30 2479 H 235.223 3.08282 -7.15949 0
M  V30 2480 N 239.452 1.56882 -0.150215 0
M  V30 2481 C 240.384 2.14057 0.819286 0
M  V30 2482 C 241.397 1.09082 1.20851 0
M  V30 2483 O 242.586 1.36347 1.15203 0
M  V30 2484 C 239.686 2.65102 2.11127 0
M  V30 2485 C 238.859 3.94511 1.88891 0
M  V30 2486 C 237.918 4.30834 3.02107 0
M  V30 2487 O 236.944 4.99099 2.73659 0
M  V30 2488 N 238.146 3.90676 4.29363 0
M  V30 2489 H 240.911 2.97871 0.330618 0
M  V30 2490 H 238.472 1.61866 0.0332538 0
M  V30 2491 H 240.464 2.86411 2.85921 0
M  V30 2492 H 239.034 1.85994 2.51247 0
M  V30 2493 H 238.254 3.81795 0.981152 0
M  V30 2494 H 239.542 4.7907 1.71376 0
M  V30 2495 H 238.94 3.35677 4.55343 0
M  V30 2496 H 237.497 4.1703 5.00928 0
M  V30 2497 N 240.93 -0.123565 1.57115 0
M  V30 2498 C 242.176 -0.833386 1.84885 0
M  V30 2499 C 242.509 -1.79742 0.735292 0
M  V30 2500 O 241.784 -1.92764 -0.25925 0
M  V30 2501 C 242.067 -1.5873 3.23228 0
M  V30 2502 C 241.92 -0.643183 4.45178 0
M  V30 2503 C 243.239 -2.54453 3.59085 0
M  V30 2504 H 240.358 -0.301518 0.6725 0
M  V30 2505 H 243 -0.097778 1.89748 0
M  V30 2506 H 241.15 -2.21438 3.19214 0
M  V30 2507 H 242.822 -0.0253015 4.61293 0
M  V30 2508 H 241.065 0.0456139 4.33776 0
M  V30 2509 H 241.736 -1.20724 5.38637 0
M  V30 2510 H 244.212 -2.01853 3.63861 0
M  V30 2511 H 243.088 -3.04238 4.5687 0
M  V30 2512 H 243.349 -3.36906 2.86264 0
M  V30 2513 N 242.408 -1.52605 -0.393616 0
M  V30 2514 C 243.371 -1.76415 -1.46323 0
M  V30 2515 C 244.371 -0.634126 -1.47768 0
M  V30 2516 O 245.561 -0.902142 -1.4902 0
M  V30 2517 C 242.693 -1.8607 -2.85641 0
M  V30 2518 H 243.886 -2.71916 -1.26498 0
M  V30 2519 H 241.439 -1.43257 -0.625073 0
M  V30 2520 H 242.174 -0.925378 -3.10817 0
M  V30 2521 H 241.959 -2.68235 -2.85993 0
M  V30 2522 H 243.449 -2.06179 -3.63153 0
M  V30 2523 N 243.887 0.651787 -1.4349 0
M  V30 2524 C 244.797 1.79368 -1.5121 0
M  V30 2525 C 245.813 1.69361 -0.399093 0
M  V30 2526 O 246.989 1.90505 -0.653431 0
M  V30 2527 C 244.054 3.15653 -1.43401 0
M  V30 2528 C 243.115 3.37446 -2.65384 0
M  V30 2529 C 242.348 4.67229 -2.57939 0
M  V30 2530 O 242.571 5.46676 -1.62792 0
M  V30 2531 O 241.505 4.90773 -3.48462 0
M  V30 2532 H 245.331 1.7581 -2.47638 0
M  V30 2533 H 242.916 0.810447 -1.25507 0
M  V30 2534 H 244.798 3.96935 -1.41494 0
M  V30 2535 H 243.473 3.19798 -0.501085 0
M  V30 2536 H 242.38 2.55923 -2.72863 0
M  V30 2537 H 243.713 3.38148 -3.57654 0
M  V30 2538 N 245.365 1.30045 0.890287 0
M  V30 2539 C 246.611 1.18737 1.64406 0
M  V30 2540 C 246.944 -0.258525 1.92472 0
M  V30 2541 O 246.219 -1.18562 1.54186 0
M  V30 2542 C 246.502 2.01087 2.98724 0
M  V30 2543 C 246.355 3.53867 2.77665 0
M  V30 2544 C 247.674 1.84457 3.9958 0
M  V30 2545 H 244.793 0.432698 0.596608 0
M  V30 2546 H 247.435 1.5962 1.0306 0
M  V30 2547 H 245.585 1.66349 3.51084 0
M  V30 2548 H 247.257 3.98637 2.32133 0
M  V30 2549 H 245.5 3.78318 2.12269 0
M  V30 2550 H 246.171 4.06772 3.7315 0
M  V30 2551 H 248.647 2.14817 3.56361 0
M  V30 2552 H 247.523 2.44411 4.91482 0
M  V30 2553 H 247.784 0.802276 4.3476 0
M  V30 2554 N 246.843 -1.10192 1.12674 0
M  V30 2555 C 247.791 -2.18694 0.792196 0
M  V30 2556 C 248.785 -1.67938 -0.222058 0
M  V30 2557 O 249.991 -1.79822 -0.0800074 0
M  V30 2558 H 246.366 -0.713223 0.238364 0
M  V30 2559 H 248.337 -2.44149 1.71564 0
M  V30 2560 C 247.086 -3.46682 0.265859 0
M  V30 2561 H 246.409 -3.86101 1.03761 0
M  V30 2562 H 247.849 -4.23942 0.0701128 0
M  V30 2563 C 246.308 -3.21506 -1.00675 0
M  V30 2564 O 246.838 -3.43408 -2.08408 0
M  V30 2565 N 245.044 -2.75158 -0.934692 0
M  V30 2566 H 244.591 -2.57535 -0.0578604 0
M  V30 2567 H 244.549 -2.58691 -1.7868 0
M  V30 2568 N 248.321 -0.919034 -1.28029 0
M  V30 2569 C 249.251 -0.428581 -2.29533 0
M  V30 2570 C 250.232 0.50659 -1.62381 0
M  V30 2571 O 251.417 0.413195 -1.89753 0
M  V30 2572 C 248.547 0.327388 -3.45753 0
M  V30 2573 C 247.501 -0.519137 -4.2484 0
M  V30 2574 C 246.827 0.365486 -5.33449 0
M  V30 2575 C 248.127 -1.77914 -4.91064 0
M  V30 2576 H 249.821 -1.27687 -2.70807 0
M  V30 2577 H 247.367 -0.615428 -1.30186 0
M  V30 2578 H 249.32 0.681378 -4.15855 0
M  V30 2579 H 248.044 1.20963 -3.03374 0
M  V30 2580 H 246.703 -0.855717 -3.56473 0
M  V30 2581 H 246.351 1.24642 -4.87312 0
M  V30 2582 H 246.051 -0.197356 -5.87268 0
M  V30 2583 H 247.575 0.715241 -6.06396 0
M  V30 2584 H 248.989 -1.49374 -5.53498 0
M  V30 2585 H 247.386 -2.2848 -5.54903 0
M  V30 2586 H 248.456 -2.50382 -4.15255 0
M  V30 2587 N 249.799 1.42003 -0.683588 0
M  V30 2588 C 251.045 2.02223 -0.218536 0
M  V30 2589 C 251.4 1.53126 1.16492 0
M  V30 2590 O 250.693 0.727459 1.77253 0
M  V30 2591 C 250.887 3.56827 -0.202357 0
M  V30 2592 C 250.716 4.20928 -1.5827 0
M  V30 2593 C 249.486 4.5573 -2.18262 0
M  V30 2594 C 251.684 4.47933 -2.52706 0
M  V30 2595 N 249.666 5.05056 -3.48986 0
M  V30 2596 C 251.037 4.98906 -3.68094 0
M  V30 2597 C 253.092 4.29931 -2.51125 0
M  V30 2598 C 251.795 5.33768 -4.82166 0
M  V30 2599 C 253.821 4.65875 -3.643 0
M  V30 2600 C 253.183 5.17008 -4.78417 0
M  V30 2601 H 249.282 0.771931 -0.125088 0
M  V30 2602 H 251.866 1.72729 -0.898479 0
M  V30 2603 H 250.037 3.85819 0.447029 0
M  V30 2604 H 251.769 4.03755 0.276399 0
M  V30 2605 H 248.524 4.41781 -1.70665 0
M  V30 2606 H 248.948 5.34139 -4.15962 0
M  V30 2607 H 253.59 3.89647 -1.6412 0
M  V30 2608 H 251.308 5.72981 -5.6984 0
M  V30 2609 H 254.894 4.53615 -3.64314 0
M  V30 2610 H 253.774 5.44301 -5.64541 0
M  V30 2611 N 251.277 0.427512 1.51691 0
M  V30 2612 C 252.525 -0.141948 2.01601 0
M  V30 2613 C 252.846 -1.44067 1.31414 0
M  V30 2614 O 252.116 -1.90763 0.445658 0
M  V30 2615 H 250.696 -0.0554468 0.744939 0
M  V30 2616 H 253.358 0.567968 1.86441 0
M  V30 2617 H 252.454 -0.324913 3.10404 0
M  V30 2618 N 252.755 -1.56801 0.158532 0
M  V30 2619 C 253.983 -2.00859 -0.496303 0
M  V30 2620 C 254.398 -1.03871 -1.57659 0
M  V30 2621 O 253.755 -0.0375165 -1.82461 0
M  V30 2622 C 253.806 -3.4479 -1.08638 0
M  V30 2623 O 253.527 -4.38072 -0.0492322 0
M  V30 2624 C 255.028 -4.04185 -1.8207 0
M  V30 2625 H 252.248 -0.65864 -0.128199 0
M  V30 2626 H 254.792 -2.02885 0.256506 0
M  V30 2627 H 252.947 -3.43579 -1.78975 0
M  V30 2628 H 253.361 -5.2227 -0.483102 0
M  V30 2629 H 254.835 -5.06857 -2.18633 0
M  V30 2630 H 255.312 -3.45549 -2.71095 0
M  V30 2631 H 255.918 -4.0906 -1.16405 0
M  V30 2632 N 254.233 0.115231 -1.57178 0
M  V30 2633 C 255.479 0.82357 -1.85325 0
M  V30 2634 C 255.812 1.79349 -0.744814 0
M  V30 2635 O 255.087 1.92899 0.249024 0
M  V30 2636 C 255.37 1.57014 -3.24066 0
M  V30 2637 C 255.223 0.619565 -4.45513 0
M  V30 2638 C 256.542 2.52545 -3.60429 0
M  V30 2639 H 253.661 0.297948 -0.674089 0
M  V30 2640 H 256.303 0.0877138 -1.89797 0
M  V30 2641 H 254.453 2.19742 -3.20383 0
M  V30 2642 H 256.125 0.000837639 -4.613 0
M  V30 2643 H 254.368 -0.0686174 -4.33746 0
M  V30 2644 H 255.039 1.17866 -5.3927 0
M  V30 2645 H 257.515 1.9992 -3.64926 0
M  V30 2646 H 256.391 3.01811 -4.58477 0
M  V30 2647 H 256.652 3.35383 -2.88047 0
M  V30 2648 N 255.711 1.52812 0.385517 0
M  V30 2649 C 257.127 1.4214 0.725829 0
M  V30 2650 C 257.327 0.544589 1.94001 0
M  V30 2651 O 256.383 0.0193693 2.52493 0
M  V30 2652 C 257.696 2.85042 0.957668 0
M  V30 2653 C 259.244 2.94543 1.05892 0
M  V30 2654 C 259.719 4.38464 1.32337 0
M  V30 2655 N 261.21 4.41804 1.39151 0
M  V30 2656 C 261.945 5.5025 1.61285 0
M  V30 2657 N 261.441 6.68775 1.80866 0
M  V30 2658 N 263.234 5.37798 1.63492 0
M  V30 2659 H 255.385 2.08338 -0.413383 0
M  V30 2660 H 257.648 0.940016 -0.122775 0
M  V30 2661 H 257.354 3.51431 0.137568 0
M  V30 2662 H 257.228 3.27505 1.87137 0
M  V30 2663 H 259.615 2.28321 1.86959 0
M  V30 2664 H 259.696 2.55504 0.123057 0
M  V30 2665 H 259.34 5.05254 0.517793 0
M  V30 2666 H 259.27 4.75059 2.27214 0
M  V30 2667 H 261.761 3.56377 1.25713 0
M  V30 2668 H 262.074 7.47197 1.97271 0
M  V30 2669 H 260.419 6.71797 1.78083 0
M  V30 2670 H 263.61 4.44171 1.47749 0
M  V30 2671 H 263.783 6.22382 1.80402 0
M  V30 2672 N 257.189 -0.644168 1.43834 0
M  V30 2673 C 258.122 -1.76906 1.44151 0
M  V30 2674 C 259.1 -1.59774 0.301857 0
M  V30 2675 O 260.284 -1.81834 0.496841 0
M  V30 2676 C 257.411 -3.14321 1.26174 0
M  V30 2677 C 256.457 -3.50134 2.43533 0
M  V30 2678 S 257.29 -3.49085 4.06079 0
M  V30 2679 C 258.446 -4.89142 3.90501 0
M  V30 2680 H 258.679 -1.76368 2.39336 0
M  V30 2681 H 256.212 -0.817624 1.30974 0
M  V30 2682 H 258.17 -3.93625 1.16489 0
M  V30 2683 H 256.831 -3.12412 0.325224 0
M  V30 2684 H 256.024 -4.50095 2.26783 0
M  V30 2685 H 255.626 -2.78264 2.4989 0
M  V30 2686 H 257.918 -5.78036 3.53385 0
M  V30 2687 H 258.861 -5.10945 4.90246 0
M  V30 2688 H 259.269 -4.63102 3.22795 0
M  V30 2689 N 258.668 -1.30515 -0.883378 0
M  V30 2690 C 259.896 -1.22359 -1.66841 0
M  V30 2691 C 260.311 0.213296 -1.87591 0
M  V30 2692 O 259.668 1.14075 -1.42454 0
M  V30 2693 C 259.719 -1.95011 -3.04389 0
M  V30 2694 O 259.44 -3.3309 -2.84575 0
M  V30 2695 C 260.941 -1.93532 -3.98824 0
M  V30 2696 H 258.161 -0.423371 -0.520575 0
M  V30 2697 H 260.705 -1.72167 -1.10357 0
M  V30 2698 H 258.86 -1.48997 -3.57601 0
M  V30 2699 H 259.274 -3.69907 -3.71846 0
M  V30 2700 H 260.748 -2.48902 -4.92699 0
M  V30 2701 H 261.225 -0.914627 -4.29571 0
M  V30 2702 H 261.831 -2.39364 -3.51547 0
M  V30 2703 N 260.146 1.09593 -1.13257 0
M  V30 2704 C 261.093 2.1618 -0.808381 0
M  V30 2705 C 262.063 1.64517 0.228754 0
M  V30 2706 O 263.248 1.9053 0.101381 0
M  V30 2707 C 260.388 3.43973 -0.278675 0
M  V30 2708 C 259.501 4.09545 -1.37466 0
M  V30 2709 C 258.636 5.25088 -0.803479 0
M  V30 2710 C 257.675 5.82579 -1.87799 0
M  V30 2711 N 256.812 6.89486 -1.32488 0
M  V30 2712 H 261.652 2.43254 -1.72138 0
M  V30 2713 H 259.189 1.19392 -0.859294 0
M  V30 2714 H 261.147 4.17174 0.0465583 0
M  V30 2715 H 259.777 3.17223 0.597459 0
M  V30 2716 H 258.829 3.34226 -1.81652 0
M  V30 2717 H 260.141 4.48307 -2.18684 0
M  V30 2718 H 259.295 6.05178 -0.429427 0
M  V30 2719 H 258.034 4.87684 0.0397956 0
M  V30 2720 H 257.039 5.01152 -2.26113 0
M  V30 2721 H 258.264 6.22045 -2.72463 0
M  V30 2722 H 256.21 6.54064 -0.503575 0
M  V30 2723 H 256.127 7.27007 -2.07355 0
M  V30 2724 H 257.395 7.73336 -0.978336 0
M  V30 2725 N 261.624 0.925811 1.2754 0
M  V30 2726 C 262.849 0.580924 1.99098 0
M  V30 2727 C 263.274 -0.833555 1.68622 0
M  V30 2728 O 262.632 -1.55903 0.925422 0
M  V30 2729 C 262.68 0.811186 3.51358 0
M  V30 2730 O 261.784 -0.124129 4.12213 0
M  V30 2731 H 261.125 0.223873 0.625122 0
M  V30 2732 H 263.655 1.24455 1.62395 0
M  V30 2733 H 263.665 0.72601 4.01489 0
M  V30 2734 H 262.34 1.84227 3.72872 0
M  V30 2735 H 260.917 0.0108006 3.72898 0
M  V30 2736 N 263.102 -1.41638 0.69111 0
M  V30 2737 C 264.349 -2.01299 0.220193 0
M  V30 2738 C 264.677 -1.54715 -1.17871 0
M  V30 2739 O 263.932 -0.747193 -1.80874 0
M  V30 2740 C 264.231 -3.56714 0.221277 0
M  V30 2741 C 263.897 -4.22792 1.56709 0
M  V30 2742 C 262.559 -4.40557 1.93554 0
M  V30 2743 C 264.911 -4.59883 2.45268 0
M  V30 2744 C 262.239 -4.92688 3.18552 0
M  V30 2745 C 264.591 -5.13403 3.69595 0
M  V30 2746 C 263.255 -5.29379 4.06589 0
M  V30 2747 H 262.525 -0.736606 0.0805743 0
M  V30 2748 H 265.172 -1.69598 0.889319 0
M  V30 2749 H 263.477 -3.8818 -0.531391 0
M  V30 2750 H 265.174 -4.00678 -0.160547 0
M  V30 2751 H 261.764 -4.09336 1.2705 0
M  V30 2752 H 265.948 -4.45817 2.18084 0
M  V30 2753 H 261.204 -5.03242 3.47214 0
M  V30 2754 H 265.378 -5.41084 4.38407 0
M  V30 2755 H 263.005 -5.69537 5.03519 0
M  V30 2756 N 264.58 -0.43555 -1.51462 0
M  V30 2757 C 265.51 0.367376 -2.30592 0
M  V30 2758 C 266.491 1.02263 -1.35928 0
M  V30 2759 O 267.676 1.02661 -1.64847 0
M  V30 2760 C 264.806 1.46983 -3.14664 0
M  V30 2761 C 263.76 0.938161 -4.17591 0
M  V30 2762 C 263.086 2.13622 -4.90173 0
M  V30 2763 C 264.386 -0.0261621 -5.22293 0
M  V30 2764 H 266.08 -0.292969 -2.97963 0
M  V30 2765 H 263.626 -0.14234 -1.43295 0
M  V30 2766 H 265.579 2.03873 -3.688 0
M  V30 2767 H 264.303 2.15843 -2.4511 0
M  V30 2768 H 262.962 0.391481 -3.64504 0
M  V30 2769 H 262.61 2.81098 -4.17124 0
M  V30 2770 H 262.31 1.78688 -5.59772 0
M  V30 2771 H 263.834 2.7107 -5.47132 0
M  V30 2772 H 265.248 0.452384 -5.71512 0
M  V30 2773 H 263.645 -0.287992 -5.99409 0
M  V30 2774 H 264.715 -0.963391 -4.75233 0
M  V30 2775 N 266.058 1.56714 -0.166846 0
M  V30 2776 C 267.469 1.83378 0.350646 0
M  V30 2777 C 267.82 1.08646 1.63372 0
M  V30 2778 O 266.945 0.338058 2.13743 0
M  V30 2779 C 267.54 3.32643 0.642963 0
M  V30 2780 C 266.099 3.59818 1.10491 0
M  V30 2781 C 265.246 2.76954 0.138411 0
M  V30 2782 H 268.197 1.53803 -0.391193 0
M  V30 2783 H 268.218 3.49878 1.49551 0
M  V30 2784 H 267.73 3.87007 -0.291055 0
M  V30 2785 H 265.831 3.1086 2.05418 0
M  V30 2786 H 265.944 4.68178 1.01716 0
M  V30 2787 H 264.308 2.4666 0.634911 0
M  V30 2788 H 265.091 3.34097 -0.789549 0
M  V30 2789 N 267.536 -0.106894 1.57237 0
M  V30 2790 C 268.466 -1.13148 2.04254 0
M  V30 2791 C 269.447 -1.42476 0.929224 0
M  V30 2792 O 270.632 -1.52709 1.19973 0
M  V30 2793 C 267.762 -2.4545 2.45706 0
M  V30 2794 C 266.716 -2.30558 3.60592 0
M  V30 2795 C 266.042 -3.67931 3.87983 0
M  V30 2796 C 267.342 -1.75597 4.91897 0
M  V30 2797 H 269.036 -0.740374 2.90101 0
M  V30 2798 H 266.582 -0.354696 1.39563 0
M  V30 2799 H 268.535 -3.17389 2.77205 0
M  V30 2800 H 267.259 -2.86475 1.56843 0
M  V30 2801 H 265.918 -1.61067 3.29322 0
M  V30 2802 H 265.566 -4.06462 2.96306 0
M  V30 2803 H 265.266 -3.58817 4.65322 0
M  V30 2804 H 266.79 -4.41356 4.21945 0
M  V30 2805 H 268.204 -2.37364 5.21854 0
M  V30 2806 H 266.601 -1.77272 5.73319 0
M  V30 2807 H 267.671 -0.714451 4.79608 0
M  V30 2808 N 269.014 -1.53014 -0.377408 0
M  V30 2809 C 270.263 -1.67845 -1.11853 0
M  V30 2810 C 270.576 -0.430625 -1.90801 0
M  V30 2811 O 271.782 -0.459261 -2.67587 0
M  V30 2812 C 270.238 -2.96668 -2.03756 0
M  V30 2813 C 269.846 -4.28671 -1.30175 0
M  V30 2814 C 271.59 -3.20865 -2.77932 0
M  V30 2815 C 269.497 -5.48591 -2.20911 0
M  V30 2816 H 268.427 -0.625343 -0.421263 0
M  V30 2817 H 271.078 -1.79514 -0.380409 0
M  V30 2818 H 269.46 -2.78773 -2.8125 0
M  V30 2819 H 270.634 -4.57157 -0.578259 0
M  V30 2820 H 268.949 -4.10825 -0.679108 0
M  V30 2821 H 271.546 -4.07642 -3.46024 0
M  V30 2822 H 271.889 -2.36424 -3.4265 0
M  V30 2823 H 272.422 -3.39379 -2.07525 0
M  V30 2824 H 269.161 -6.35474 -1.6079 0
M  V30 2825 H 268.681 -5.244 -2.91144 0
M  V30 2826 H 270.36 -5.8292 -2.80736 0
M  V30 2827 N 270.492 0.636531 -1.44174 0
M  V30 2828 C 271.908 0.954104 -1.27941 0
M  V30 2829 C 272.108 2.0039 -0.211248 0
M  V30 2830 O 271.164 2.49236 0.404695 0
M  V30 2831 C 272.477 1.4225 -2.64925 0
M  V30 2832 C 274.025 1.53827 -2.72592 0
M  V30 2833 C 274.5 2.04053 -4.10032 0
M  V30 2834 N 275.991 2.11331 -4.12182 0
M  V30 2835 C 276.726 2.51352 -5.15374 0
M  V30 2836 N 276.222 2.90549 -6.2893 0
M  V30 2837 N 278.015 2.51438 -5.02728 0
M  V30 2838 H 270.166 -0.0578386 -2.12321 0
M  V30 2839 H 272.429 0.0367406 -0.947288 0
M  V30 2840 H 272.135 0.725466 -3.44136 0
M  V30 2841 H 272.009 2.39451 -2.9145 0
M  V30 2842 H 274.396 2.22628 -1.93702 0
M  V30 2843 H 274.477 0.550154 -2.49814 0
M  V30 2844 H 274.121 1.35848 -4.89395 0
M  V30 2845 H 274.051 3.03726 -4.30184 0
M  V30 2846 H 276.542 1.83745 -3.30222 0
M  V30 2847 H 276.855 3.19884 -7.03487 0
M  V30 2848 H 275.2 2.88313 -6.32377 0
M  V30 2849 H 278.391 2.20203 -4.13072 0
M  V30 2850 H 278.564 2.82304 -5.83274 0
M  V30 2851 N 271.97 1.30982 0.876444 0
M  V30 2852 C 273.386 1.09498 1.16113 0
M  V30 2853 C 273.586 -0.13875 2.01022 0
M  V30 2854 O 272.642 -0.829935 2.38471 0
M  V30 2855 C 273.955 2.36308 1.85954 0
M  V30 2856 C 275.503 2.41856 1.98683 0
M  V30 2857 C 275.978 3.6853 2.71937 0
M  V30 2858 N 277.469 3.69387 2.79477 0
M  V30 2859 C 278.204 4.64096 3.36753 0
M  V30 2860 N 277.7 5.69155 3.95012 0
M  V30 2861 N 279.493 4.51626 3.3465 0
M  V30 2862 H 271.644 2.10118 0.310494 0
M  V30 2863 H 273.907 0.926634 0.200131 0
M  V30 2864 H 273.613 3.26388 1.31011 0
M  V30 2865 H 273.487 2.4561 2.86278 0
M  V30 2866 H 275.874 1.52249 2.52793 0
M  V30 2867 H 275.955 2.36523 0.9742 0
M  V30 2868 H 275.599 4.58499 2.18496 0
M  V30 2869 H 275.529 3.71127 3.73593 0
M  V30 2870 H 278.02 2.93438 2.38123 0
M  V30 2871 H 278.333 6.3751 4.36808 0
M  V30 2872 H 276.678 5.72937 3.93406 0
M  V30 2873 H 279.869 3.68728 2.8837 0
M  V30 2874 H 280.042 5.25614 3.7899 0
M  V30 2875 N 273.449 -1.08991 1.13837 0
M  V30 2876 C 274.412 -2.13925 0.822715 0
M  V30 2877 C 275.412 -1.599 -0.1699 0
M  V30 2878 O 276.602 -1.74104 0.0577251 0
M  V30 2879 C 273.734 -3.40155 0.225318 0
M  V30 2880 H 274.927 -2.43358 1.75262 0
M  V30 2881 H 272.48 -1.24603 0.943594 0
M  V30 2882 H 273.215 -3.16352 -0.713594 0
M  V30 2883 H 273 -3.80661 0.940193 0
M  V30 2884 H 274.49 -4.17594 0.0214784 0
M  V30 2885 N 274.927 -0.932562 -1.27047 0
M  V30 2886 C 275.874 -0.434072 -2.26681 0
M  V30 2887 C 276.844 0.501639 -1.58344 0
M  V30 2888 O 278.029 0.419734 -1.86126 0
M  V30 2889 C 275.169 0.30261 -3.43771 0
M  V30 2890 C 274.282 -0.667774 -4.26808 0
M  V30 2891 C 273.417 0.0892393 -5.31125 0
M  V30 2892 C 272.456 -0.873532 -6.05835 0
M  V30 2893 N 271.593 -0.148832 -7.01942 0
M  V30 2894 H 276.433 -1.28868 -2.68695 0
M  V30 2895 H 273.97 -0.646713 -1.32121 0
M  V30 2896 H 275.928 0.746092 -4.10474 0
M  V30 2897 H 274.558 1.12142 -3.02695 0
M  V30 2898 H 273.61 -1.22978 -3.59973 0
M  V30 2899 H 274.922 -1.40337 -4.78651 0
M  V30 2900 H 274.076 0.592409 -6.03801 0
M  V30 2901 H 272.815 0.85777 -4.80097 0
M  V30 2902 H 271.82 -1.38791 -5.31994 0
M  V30 2903 H 273.045 -1.64193 -6.58952 0
M  V30 2904 H 270.991 0.601365 -6.53238 0
M  V30 2905 H 270.908 -0.82391 -7.51497 0
M  V30 2906 H 272.176 0.333527 -7.78786 0
M  V30 2907 N 276.405 1.4127 -0.698611 0
M  V30 2908 C 277.653 2.00782 -0.230409 0
M  V30 2909 C 277.974 1.5562 1.17505 0
M  V30 2910 O 277.244 0.78815 1.79346 0
M  V30 2911 H 275.824 0.742464 -0.0821944 0
M  V30 2912 H 278.486 1.72852 -0.90045 0
M  V30 2913 H 277.582 3.11095 -0.25021 0
M  V30 2914 N 277.883 0.443576 1.51229 0
M  V30 2915 C 279.299 0.0962001 1.5931 0
M  V30 2916 C 279.499 -1.39501 1.45402 0
M  V30 2917 O 278.555 -2.16557 1.29843 0
M  V30 2918 C 279.868 0.621875 2.94199 0
M  V30 2919 C 281.416 0.582865 3.07525 0
M  V30 2920 C 281.891 1.08562 4.44948 0
M  V30 2921 N 283.382 1.04387 4.51284 0
M  V30 2922 C 284.117 1.40368 5.55954 0
M  V30 2923 N 283.613 1.83664 6.68011 0
M  V30 2924 N 285.406 1.32145 5.46346 0
M  V30 2925 H 277.557 1.41376 1.58514 0
M  V30 2926 H 279.82 0.582965 0.747567 0
M  V30 2927 H 279.526 1.66546 3.09767 0
M  V30 2928 H 279.4 0.0502125 3.77167 0
M  V30 2929 H 281.787 -0.451749 2.91622 0
M  V30 2930 H 281.868 1.191 2.26382 0
M  V30 2931 H 281.512 2.11873 4.61598 0
M  V30 2932 H 281.442 0.453956 5.2464 0
M  V30 2933 H 283.933 0.725986 3.70861 0
M  V30 2934 H 284.246 2.0934 7.43906 0
M  V30 2935 H 282.591 1.87596 6.69203 0
M  V30 2936 H 285.782 0.981808 4.57688 0
M  V30 2937 H 285.955 1.60514 6.27805 0
M  V30 2938 N 279.361 -1.56624 0.175154 0
M  V30 2939 C 280.607 -1.9729 -0.469506 0
M  V30 2940 C 280.94 -1.06128 -1.62636 0
M  V30 2941 O 280.215 -0.109183 -1.94193 0
M  V30 2942 C 280.498 -3.47375 -0.948804 0
M  V30 2943 C 280.351 -4.49317 0.208491 0
M  V30 2944 C 281.67 -4.00652 -1.82116 0
M  V30 2945 H 278.789 -0.717317 -0.16919 0
M  V30 2946 H 281.431 -1.88184 0.262062 0
M  V30 2947 H 279.581 -3.55267 -1.57219 0
M  V30 2948 H 281.253 -4.53482 0.845682 0
M  V30 2949 H 279.496 -4.25121 0.863395 0
M  V30 2950 H 280.167 -5.51741 -0.169059 0
M  V30 2951 H 282.643 -3.95416 -1.2956 0
M  V30 2952 H 281.519 -5.06075 -2.12554 0
M  V30 2953 H 281.78 -3.44699 -2.7683 0
M  V30 2954 N 280.839 0.0985539 -1.57292 0
M  V30 2955 C 282.085 0.803867 -1.86188 0
M  V30 2956 C 282.418 1.78549 -0.763794 0
M  V30 2957 O 281.693 1.93153 0.22855 0
M  V30 2958 C 281.976 1.53568 -3.25713 0
M  V30 2959 C 281.829 0.572277 -4.46145 0
M  V30 2960 C 283.148 2.48708 -3.63087 0
M  V30 2961 H 280.267 0.290781 -0.677211 0
M  V30 2962 H 282.909 0.0675783 -1.8988 0
M  V30 2963 H 281.059 2.16332 -3.22696 0
M  V30 2964 H 282.731 -0.0480894 -4.61275 0
M  V30 2965 H 280.974 -0.114618 -4.33649 0
M  V30 2966 H 281.645 1.12139 -5.40489 0
M  V30 2967 H 284.121 1.96039 -3.67026 0
M  V30 2968 H 282.997 2.96932 -4.61652 0
M  V30 2969 H 283.258 3.32309 -2.91588 0
M  V30 2970 N 282.317 1.53212 0.369288 0
M  V30 2971 C 283.265 1.80054 1.47253 0
M  V30 2972 C 284.259 0.669456 1.55611 0
M  V30 2973 O 285.465 0.852328 1.58541 0
M  V30 2974 H 281.84 0.570034 0.490475 0
M  V30 2975 H 283.811 2.72403 1.21817 0
M  V30 2976 C 282.56 2.00403 2.84137 0
M  V30 2977 H 281.883 2.86876 2.78464 0
M  V30 2978 H 283.323 2.23164 3.60519 0
M  V30 2979 C 281.782 0.782081 3.27697 0
M  V30 2980 O 282.312 -0.0310205 4.01688 0
M  V30 2981 N 280.518 0.606573 2.84199 0
M  V30 2982 H 280.065 1.26939 2.24152 0
M  V30 2983 H 280.023 -0.20962 3.137 0
M  V30 2984 N 283.795 -0.628877 1.44509 0
M  V30 2985 C 285.044 -1.38437 1.4669 0
M  V30 2986 C 285.357 -1.95322 0.104272 0
M  V30 2987 O 286.563 -2.715 0.00362163 0
M  V30 2988 C 285.019 -2.50659 2.5826 0
M  V30 2989 C 284.627 -2.00277 4.0074 0
M  V30 2990 C 286.371 -3.27844 2.69664 0
M  V30 2991 C 284.278 -3.09854 5.0373 0
M  V30 2992 H 283.208 -0.520245 0.545766 0
M  V30 2993 H 285.859 -0.676313 1.70582 0
M  V30 2994 H 284.241 -3.2405 2.27612 0
M  V30 2995 H 285.415 -1.33736 4.40966 0
M  V30 2996 H 283.73 -1.35901 3.93599 0
M  V30 2997 H 286.327 -4.09534 3.43781 0
M  V30 2998 H 286.67 -3.77471 1.75559 0
M  V30 2999 H 287.203 -2.61543 2.99733 0
M  V30 3000 H 283.942 -2.65168 5.99472 0
M  V30 3001 H 283.462 -3.7503 4.68095 0
M  V30 3002 H 285.141 -3.74592 5.27532 0
M  V30 3003 N 285.273 -1.31445 -0.869486 0
M  V30 3004 C 286.498 -1.24256 -1.66058 0
M  V30 3005 C 286.923 0.188928 -1.87149 0
M  V30 3006 O 286.281 1.13522 -1.4136 0
M  V30 3007 C 286.329 -1.9924 -3.00559 0
M  V30 3008 O 285.433 -1.33007 -3.90362 0
M  V30 3009 H 284.774 -0.428973 -0.506831 0
M  V30 3010 H 287.304 -1.73521 -1.08404 0
M  V30 3011 H 287.314 -2.08854 -3.50491 0
M  V30 3012 H 285.989 -3.03342 -2.84528 0
M  V30 3013 H 284.566 -1.31848 -3.48813 0
M  V30 3014 N 286.751 1.08385 -1.14413 0
M  V30 3015 C 287.976 1.85057 -0.936413 0
M  V30 3016 C 288.401 1.81055 0.509971 0
M  V30 3017 O 287.759 1.1958 1.36273 0
M  V30 3018 C 287.807 3.30505 -1.44217 0
M  V30 3019 O 286.911 4.07491 -0.634409 0
M  V30 3020 H 286.252 0.573425 -0.334784 0
M  V30 3021 H 288.782 1.36799 -1.52142 0
M  V30 3022 H 288.792 3.81348 -1.45043 0
M  V30 3023 H 287.467 3.32734 -2.49522 0
M  V30 3024 H 286.044 3.66368 -0.694902 0
M  V30 3025 N 288.23 0.939286 1.26551 0
M  V30 3026 C 289.163 0.391702 2.24813 0
M  V30 3027 C 290.141 -0.518421 1.54114 0
M  V30 3028 O 291.325 -0.456299 1.82894 0
M  V30 3029 C 288.452 -0.437382 3.35864 0
M  V30 3030 C 287.498 0.410946 4.24516 0
M  V30 3031 S 288.331 1.83372 5.03125 0
M  V30 3032 C 289.487 1.01264 6.17654 0
M  V30 3033 H 289.72 1.22448 2.70913 0
M  V30 3034 H 287.253 0.742269 1.35387 0
M  V30 3035 H 289.211 -0.909837 4.0029 0
M  V30 3036 H 287.872 -1.24482 2.8838 0
M  V30 3037 H 287.065 -0.224191 5.03501 0
M  V30 3038 H 286.667 0.818014 3.64945 0
M  V30 3039 H 288.959 0.254023 6.77024 0
M  V30 3040 H 289.902 1.77589 6.85469 0
M  V30 3041 H 290.31 0.549532 5.61819 0
M  V30 3042 N 289.708 -1.40897 0.706093 0
M  V30 3043 C 290.638 -2.33418 0.0620085 0
M  V30 3044 C 291.619 -1.52385 -0.755827 0
M  V30 3045 O 292.804 -1.80886 -0.706674 0
M  V30 3046 C 289.934 -3.36293 -0.867445 0
M  V30 3047 C 288.888 -4.27716 -0.155932 0
M  V30 3048 C 288.214 -5.2105 -1.20046 0
M  V30 3049 C 289.514 -5.12944 0.984149 0
M  V30 3050 H 291.208 -2.87527 0.83477 0
M  V30 3051 H 288.754 -1.38249 0.402875 0
M  V30 3052 H 290.707 -3.99949 -1.32735 0
M  V30 3053 H 289.431 -2.80556 -1.67199 0
M  V30 3054 H 288.09 -3.65498 0.284047 0
M  V30 3055 H 287.738 -4.61624 -1.99781 0
M  V30 3056 H 287.438 -5.83056 -0.729328 0
M  V30 3057 H 288.962 -5.87584 -1.66066 0
M  V30 3058 H 290.376 -5.70109 0.604048 0
M  V30 3059 H 288.773 -5.83945 1.38304 0
M  V30 3060 H 289.843 -4.49485 1.81911 0
M  V30 3061 N 291.186 -0.45159 -1.50991 0
M  V30 3062 C 292.434 0.109857 -2.01801 0
M  V30 3063 C 292.755 1.41958 -1.3369 0
M  V30 3064 O 292.025 1.9003 -0.475951 0
M  V30 3065 H 290.605 0.0435884 -0.745727 0
M  V30 3066 H 293.267 -0.597557 -1.85514 0
M  V30 3067 H 292.363 0.275489 -3.10882 0
M  V30 3068 N 292.664 1.56529 -0.183458 0
M  V30 3069 C 294.08 1.58664 0.172554 0
M  V30 3070 C 294.28 1.19925 1.61926 0
M  V30 3071 O 293.336 0.916534 2.35278 0
M  V30 3072 C 294.649 3.00463 -0.119262 0
M  V30 3073 C 296.197 3.12945 -0.0584396 0
M  V30 3074 C 296.672 4.56857 -0.323408 0
M  V30 3075 N 298.163 4.62403 -0.271612 0
M  V30 3076 C 298.898 5.71626 -0.450639 0
M  V30 3077 N 298.394 6.89362 -0.689384 0
M  V30 3078 N 300.187 5.60775 -0.385701 0
M  V30 3079 H 292.338 1.79994 -1.12765 0
M  V30 3080 H 294.601 0.834808 -0.449222 0
M  V30 3081 H 294.307 3.33326 -1.12192 0
M  V30 3082 H 294.181 3.72659 0.583544 0
M  V30 3083 H 296.568 2.79902 0.934805 0
M  V30 3084 H 296.649 2.4316 -0.794144 0
M  V30 3085 H 296.293 4.9061 -1.31392 0
M  V30 3086 H 296.223 5.24816 0.43305 0
M  V30 3087 H 298.714 3.77785 -0.0932256 0
M  V30 3088 H 299.027 7.68489 -0.815113 0
M  V30 3089 H 297.372 6.91196 -0.726142 0
M  V30 3090 H 300.563 4.67674 -0.199687 0
M  V30 3091 H 300.736 6.4584 -0.528646 0
M  V30 3092 N 294.142 -0.090211 1.57342 0
M  V30 3093 C 295.075 -1.14035 1.97664 0
M  V30 3094 C 296.053 -1.38576 0.850616 0
M  V30 3095 O 297.237 -1.52255 1.11134 0
M  V30 3096 C 294.364 -2.48854 2.2976 0
M  V30 3097 C 293.41 -2.40564 3.52181 0
M  V30 3098 S 294.243 -1.81745 5.03715 0
M  V30 3099 C 295.399 -3.18178 5.38993 0
M  V30 3100 H 295.632 -0.796636 2.86428 0
M  V30 3101 H 293.165 -0.298072 1.51496 0
M  V30 3102 H 295.123 -3.26413 2.48927 0
M  V30 3103 H 293.784 -2.80393 1.41558 0
M  V30 3104 H 292.977 -3.39942 3.72096 0
M  V30 3105 H 292.579 -1.71135 3.32549 0
M  V30 3106 H 294.871 -4.14461 5.35937 0
M  V30 3107 H 295.814 -3.03062 6.39968 0
M  V30 3108 H 296.222 -3.17935 4.66452 0
M  V30 3109 N 295.62 -1.53406 -0.361157 0
M  V30 3110 C 296.583 -1.79479 -1.42548 0
M  V30 3111 C 297.583 -0.665327 -1.4639 0
M  V30 3112 O 298.773 -0.933549 -1.47073 0
M  V30 3113 C 295.905 -1.92087 -2.8163 0
M  V30 3114 H 297.098 -2.74538 -1.20701 0
M  V30 3115 H 294.651 -1.4455 -0.594546 0
M  V30 3116 H 295.386 -0.991099 -3.08784 0
M  V30 3117 H 295.171 -2.74241 -2.80239 0
M  V30 3118 H 296.661 -2.13836 -3.58697 0
M  V30 3119 N 297.098 0.621204 -1.44841 0
M  V30 3120 C 298.046 1.75385 -1.52784 0
M  V30 3121 C 299.04 1.64639 -0.398779 0
M  V30 3122 O 300.246 1.70598 -0.574137 0
M  V30 3123 H 296.621 0.579193 -0.479625 0
M  V30 3124 H 298.592 1.6581 -2.48092 0
M  V30 3125 C 297.341 3.13742 -1.4987 0
M  V30 3126 H 296.664 3.22663 -2.36069 0
M  V30 3127 H 298.104 3.92861 -1.59487 0
M  V30 3128 C 296.563 3.36175 -0.220973 0
M  V30 3129 O 297.093 3.95469 0.704782 0
M  V30 3130 N 295.299 2.90348 -0.120963 0
M  V30 3131 H 294.846 2.42278 -0.875162 0
M  V30 3132 H 294.804 3.05732 0.733168 0
M  V30 3133 N 298.576 1.31904 0.862503 0
M  V30 3134 C 299.987 1.19803 1.43193 0
M  V30 3135 C 300.338 -0.192567 1.95253 0
M  V30 3136 O 299.463 -1.09081 1.86896 0
M  V30 3137 C 300.058 2.16883 2.60283 0
M  V30 3138 C 298.617 2.08692 3.13248 0
M  V30 3139 C 297.764 2.05691 1.85975 0
M  V30 3140 H 300.715 1.43846 0.670365 0
M  V30 3141 H 300.736 1.76278 3.37204 0
M  V30 3142 H 300.248 3.18083 2.22363 0
M  V30 3143 H 298.349 1.10713 3.55771 0
M  V30 3144 H 298.462 2.9815 3.75025 0
M  V30 3145 H 296.826 1.50814 2.05249 0
M  V30 3146 H 297.609 3.08659 1.50282 0
M  V30 3147 N 300.054 -1.07777 1.14986 0
M  V30 3148 C 301.017 -2.13041 0.845358 0
M  V30 3149 C 302.017 -1.60071 -0.152931 0
M  V30 3150 O 303.207 -1.74033 0.0761879 0
M  V30 3151 C 300.339 -3.39896 0.261383 0
M  V30 3152 H 301.532 -2.41485 1.77834 0
M  V30 3153 H 299.085 -1.23595 0.956757 0
M  V30 3154 H 299.82 -3.17091 -0.68 0
M  V30 3155 H 299.605 -3.79642 0.980514 0
M  V30 3156 H 301.095 -4.17548 0.0657687 0
M  V30 3157 N 301.532 -0.945985 -1.26051 0
M  V30 3158 C 302.948 -0.649045 -1.45807 0
M  V30 3159 C 303.148 0.796158 -1.85104 0
M  V30 3160 O 302.204 1.57233 -1.97571 0
M  V30 3161 C 303.517 -1.61458 -2.53677 0
M  V30 3162 C 305.065 -1.62481 -2.67524 0
M  V30 3163 C 305.54 -2.57776 -3.7857 0
M  V30 3164 N 307.031 -2.5609 -3.85969 0
M  V30 3165 C 307.766 -3.26508 -4.7136 0
M  V30 3166 N 307.262 -4.0637 -5.61102 0
M  V30 3167 N 309.055 -3.15437 -4.65248 0
M  V30 3168 H 301.206 -1.88005 -0.988328 0
M  V30 3169 H 303.469 -0.808198 -0.4955 0
M  V30 3170 H 303.175 -2.64644 -2.31638 0
M  V30 3171 H 303.049 -1.37036 -3.51427 0
M  V30 3172 H 305.436 -0.600167 -2.88933 0
M  V30 3173 H 305.517 -1.90958 -1.70202 0
M  V30 3174 H 305.161 -3.60361 -3.57913 0
M  V30 3175 H 305.091 -2.26587 -4.75359 0
M  V30 3176 H 307.582 -1.98105 -3.21812 0
M  V30 3177 H 307.895 -4.57042 -6.23164 0
M  V30 3178 H 306.24 -4.10469 -5.60839 0
M  V30 3179 H 309.431 -2.52525 -3.94143 0
M  V30 3180 H 309.604 -3.70584 -5.31575 0
M  V30 3181 N 303.011 1.40521 -0.713556 0
M  V30 3182 C 304.236 2.05759 -0.26035 0
M  V30 3183 C 304.661 1.53403 1.08854 0
M  V30 3184 O 304.019 0.668535 1.68524 0
M  V30 3185 C 304.067 3.59745 -0.248122 0
M  V30 3186 O 303.171 4.05123 0.77131 0
M  V30 3187 H 302.512 0.652564 -0.122703 0
M  V30 3188 H 305.042 1.79958 -0.973467 0
M  V30 3189 H 305.052 4.07911 -0.0851129 0
M  V30 3190 H 303.727 3.97218 -1.2325 0
M  V30 3191 H 302.304 3.68422 0.57619 0
M  V30 3192 N 304.489 0.459591 1.5075 0
M  V30 3193 C 305.9 0.00171547 1.867 0
M  V30 3194 C 306.251 -1.39934 1.37525 0
M  V30 3195 O 305.376 -2.03523 0.735349 0
M  V30 3196 C 305.971 -0.00366298 3.388 0
M  V30 3197 C 304.53 -0.406026 3.74204 0
M  V30 3198 C 303.677 0.38673 2.7459 0
M  V30 3199 H 306.628 0.674413 1.43657 0
M  V30 3200 H 306.649 -0.808371 3.71814 0
M  V30 3201 H 306.161 1.01617 3.74561 0
M  V30 3202 H 304.262 -1.43063 3.4404 0
M  V30 3203 H 304.375 -0.115362 4.78961 0
M  V30 3204 H 302.739 -0.158019 2.54209 0
M  V30 3205 H 303.522 1.40585 3.13194 0
M  V30 3206 N 305.967 -1.56429 0.191757 0
M  V30 3207 C 307.197 -2.01574 -0.452928 0
M  V30 3208 C 307.605 -1.07107 -1.55964 0
M  V30 3209 O 306.948 -0.067534 -1.83576 0
M  V30 3210 C 307.01 -3.43121 -1.07278 0
M  V30 3211 C 306.674 -4.56879 -0.105214 0
M  V30 3212 C 307.671 -5.15379 0.684149 0
M  V30 3213 C 305.356 -5.023 0.00489824 0
M  V30 3214 C 307.35 -6.17746 1.57062 0
M  V30 3215 C 305.037 -6.04511 0.894935 0
M  V30 3216 C 306.035 -6.62108 1.67637 0
M  V30 3217 O 305.723 -7.62335 2.55149 0
M  V30 3218 H 305.455 -0.665554 -0.118379 0
M  V30 3219 H 308.009 -2.03245 0.296737 0
M  V30 3220 H 306.239 -3.38425 -1.87097 0
M  V30 3221 H 307.928 -3.72093 -1.62177 0
M  V30 3222 H 308.694 -4.81157 0.609365 0
M  V30 3223 H 304.573 -4.57168 -0.593156 0
M  V30 3224 H 308.117 -6.6263 2.181 0
M  V30 3225 H 304.014 -6.38157 0.970847 0
M  V30 3226 H 304.782 -7.79741 2.48892 0
M  V30 3227 N 307.445 0.0818655 -1.57387 0
M  V30 3228 C 308.685 0.788375 -1.88584 0
M  V30 3229 C 309.049 1.75248 -0.784351 0
M  V30 3230 O 310.25 2.50334 -0.979105 0
M  V30 3231 C 308.521 1.48654 -3.25018 0
M  V30 3232 S 310.08 2.22951 -3.7794 0
M  V30 3233 H 306.898 0.262383 -0.660815 0
M  V30 3234 H 309.5 0.0448995 -1.95448 0
M  V30 3235 H 308.204 0.770919 -4.03094 0
M  V30 3236 H 307.735 2.26965 -3.21326 0
M  V30 3237 H 309.75 3.49309 -3.52417 0
M  V30 3238 N 308.923 1.53595 0.353017 0
M  V30 3239 C 310.172 1.69603 1.09168 0
M  V30 3240 C 310.485 0.460925 1.90092 0
M  V30 3241 O 311.691 0.501774 2.66823 0
M  V30 3242 C 310.147 2.99872 1.9901 0
M  V30 3243 C 309.755 4.30687 1.23339 0
M  V30 3244 C 311.499 3.25246 2.72792 0
M  V30 3245 C 309.406 5.52036 2.12156 0
M  V30 3246 H 308.336 0.631966 0.411261 0
M  V30 3247 H 310.987 1.80096 0.351802 0
M  V30 3248 H 309.369 2.83212 2.7678 0
M  V30 3249 H 310.543 4.58019 0.505456 0
M  V30 3250 H 308.858 4.11853 0.613663 0
M  V30 3251 H 311.455 4.13095 3.39495 0
M  V30 3252 H 311.798 2.41846 3.38846 0
M  V30 3253 H 312.331 3.42638 2.021 0
M  V30 3254 H 309.07 6.37951 1.50659 0
M  V30 3255 H 308.59 5.28966 2.82764 0
M  V30 3256 H 310.269 5.87313 2.71427 0
M  V30 3257 N 310.401 -0.613514 1.45168 0
M  V30 3258 C 311.629 -1.39946 1.5239 0
M  V30 3259 C 312.044 -1.88167 0.154531 0
M  V30 3260 O 311.401 -1.61872 -0.842843 0
M  V30 3261 C 311.452 -2.60795 2.50337 0
M  V30 3262 O 311.173 -2.1458 3.81952 0
M  V30 3263 C 312.674 -3.53723 2.67198 0
M  V30 3264 H 309.894 -0.428593 0.516284 0
M  V30 3265 H 312.438 -0.748753 1.903 0
M  V30 3266 H 310.593 -3.21919 2.15515 0
M  V30 3267 H 311.007 -2.93055 4.34993 0
M  V30 3268 H 312.481 -4.35079 3.39721 0
M  V30 3269 H 312.958 -4.0368 1.73029 0
M  V30 3270 H 313.564 -2.98456 3.02992 0
M  V30 3271 N 311.879 -1.3236 -0.855495 0
M  V30 3272 C 312.826 -1.21225 -1.964 0
M  V30 3273 C 313.796 -0.0946204 -1.6583 0
M  V30 3274 O 314.981 -0.27002 -1.8888 0
M  V30 3275 C 312.121 -0.940419 -3.32039 0
M  V30 3276 C 311.234 -2.14276 -3.75113 0
M  V30 3277 C 310.369 -1.80648 -4.9954 0
M  V30 3278 C 309.408 -2.97208 -5.35102 0
M  V30 3279 N 308.545 -2.63678 -6.50706 0
M  V30 3280 H 313.385 -2.16042 -2.05255 0
M  V30 3281 H 310.922 -1.07451 -1.00463 0
M  V30 3282 H 312.88 -0.763311 -4.10158 0
M  V30 3283 H 311.51 -0.0290413 -3.22787 0
M  V30 3284 H 310.562 -2.43017 -2.92655 0
M  V30 3285 H 311.874 -3.01468 -3.97389 0
M  V30 3286 H 311.028 -1.59484 -5.85363 0
M  V30 3287 H 309.767 -0.906678 -4.79198 0
M  V30 3288 H 308.772 -3.19004 -4.47791 0
M  V30 3289 H 309.997 -3.87918 -5.57401 0
M  V30 3290 H 307.943 -1.76238 -6.31883 0
M  V30 3291 H 307.86 -3.444 -6.72997 0
M  V30 3292 H 309.128 -2.45942 -7.39684 0
M  V30 3293 N 313.357 1.07166 -1.15556 0
M  V30 3294 C 314.604 1.79798 -0.931604 0
M  V30 3295 C 314.932 1.8682 0.54115 0
M  V30 3296 O 314.187 1.34942 1.41736 0
M  V30 3297 C 314.486 3.24707 -1.49332 0
M  V30 3298 C 314.152 3.37781 -2.98688 0
M  V30 3299 C 312.814 3.41057 -3.39461 0
M  V30 3300 C 315.166 3.40424 -3.94665 0
M  V30 3301 C 312.494 3.4458 -4.74849 0
M  V30 3302 C 314.846 3.45485 -5.29927 0
M  V30 3303 C 313.51 3.47039 -5.70193 0
M  V30 3304 H 312.78 0.657928 -0.340898 0
M  V30 3305 H 315.427 1.26091 -1.44129 0
M  V30 3306 H 313.732 3.81208 -0.904859 0
M  V30 3307 H 315.429 3.79486 -1.29582 0
M  V30 3308 H 312.019 3.35932 -2.66172 0
M  V30 3309 H 316.203 3.37113 -3.64237 0
M  V30 3310 H 311.459 3.44083 -5.05388 0
M  V30 3311 H 315.633 3.46476 -6.04092 0
M  V30 3312 H 313.26 3.49522 -6.75084 0
M  V30 3313 N 314.835 0.952656 1.25548 0
M  V30 3314 C 316.083 0.605176 1.92826 0
M  V30 3315 C 316.404 -0.860261 1.74999 0
M  V30 3316 O 315.674 -1.6125 1.11244 0
M  V30 3317 H 314.254 0.220832 0.713612 0
M  V30 3318 H 316.916 1.21047 1.52754 0
M  V30 3319 H 316.012 0.832798 3.00784 0
M  V30 3320 N 316.313 -1.40141 0.720998 0
M  V30 3321 C 317.559 -2.01084 0.263231 0
M  V30 3322 C 317.892 -1.57052 -1.14229 0
M  V30 3323 O 317.167 -0.793027 -1.77599 0
M  V30 3324 C 317.45 -3.58401 0.349344 0
M  V30 3325 C 317.303 -4.12491 1.79363 0
M  V30 3326 C 318.622 -4.39231 -0.276351 0
M  V30 3327 H 315.741 -0.730572 0.0971228 0
M  V30 3328 H 318.383 -1.66543 0.914518 0
M  V30 3329 H 316.533 -3.87958 -0.205165 0
M  V30 3330 H 318.205 -3.93711 2.40394 0
M  V30 3331 H 316.448 -3.66576 2.31958 0
M  V30 3332 H 317.119 -5.21646 1.80524 0
M  V30 3333 H 319.595 -4.15637 0.196184 0
M  V30 3334 H 318.471 -5.48586 -0.185681 0
M  V30 3335 H 318.732 -4.20643 -1.36059 0
M  V30 3336 N 317.792 -0.46758 -1.50504 0
M  V30 3337 C 318.702 0.33382 -2.32213 0
M  V30 3338 C 319.718 0.999323 -1.42441 0
M  V30 3339 O 320.894 0.988068 -1.75497 0
M  V30 3340 C 317.959 1.4035 -3.17022 0
M  V30 3341 C 317.02 0.754961 -4.2261 0
M  V30 3342 C 316.253 1.77367 -5.03365 0
M  V30 3343 O 316.476 2.99976 -4.8515 0
M  V30 3344 O 315.41 1.34744 -5.86624 0
M  V30 3345 H 319.236 -0.334067 -3.01857 0
M  V30 3346 H 316.821 -0.229496 -1.47627 0
M  V30 3347 H 318.703 2.02318 -3.69656 0
M  V30 3348 H 317.378 2.05492 -2.5011 0
M  V30 3349 H 316.285 0.0964244 -3.73976 0
M  V30 3350 H 317.618 0.146545 -4.91982 0
M  V30 3351 N 319.27 1.56325 -0.20005 0
M  V30 3352 C 320.233 2.18084 0.705132 0
M  V30 3353 C 321.233 1.13666 1.1374 0
M  V30 3354 O 322.423 1.39023 1.04968 0
M  V30 3355 C 319.555 2.78689 1.96329 0
M  V30 3356 H 320.748 2.99435 0.167023 0
M  V30 3357 H 318.301 1.56221 0.0495725 0
M  V30 3358 H 319.036 2.0115 2.5438 0
M  V30 3359 H 318.821 3.55133 1.66202 0
M  V30 3360 H 320.311 3.26096 2.60866 0
M  V30 3361 N 320.748 -0.0735177 1.57428 0
M  V30 3362 C 321.995 -0.772999 1.87166 0
M  V30 3363 C 322.323 -1.77665 0.791551 0
M  V30 3364 O 321.578 -1.94541 -0.212636 0
M  V30 3365 C 321.877 -1.51799 3.23561 0
M  V30 3366 C 321.543 -0.654484 4.46125 0
M  V30 3367 C 320.205 -0.416511 4.79394 0
M  V30 3368 C 322.557 -0.0555862 5.2117 0
M  V30 3369 C 319.885 0.429869 5.85123 0
M  V30 3370 C 322.237 0.778239 6.27795 0
M  V30 3371 C 320.901 1.0261 6.59566 0
M  V30 3372 H 320.171 -0.282861 0.684888 0
M  V30 3373 H 322.818 -0.0338272 1.9147 0
M  V30 3374 H 321.123 -2.32932 3.1504 0
M  V30 3375 H 322.82 -2.06397 3.43804 0
M  V30 3376 H 319.41 -0.850091 4.20085 0
M  V30 3377 H 323.594 -0.226558 4.95783 0
M  V30 3378 H 318.85 0.630665 6.08139 0
M  V30 3379 H 323.024 1.24906 6.85107 0
M  V30 3380 H 320.651 1.68371 7.4132 0
M  V30 3381 N 322.226 -1.5378 -0.344866 0
M  V30 3382 C 323.451 -1.75211 -1.10977 0
M  V30 3383 C 323.876 -0.48936 -1.81623 0
M  V30 3384 O 323.234 0.557925 -1.72502 0
M  V30 3385 C 323.282 -2.93147 -2.09993 0
M  V30 3386 O 322.386 -2.63203 -3.17487 0
M  V30 3387 H 321.727 -0.581241 -0.321021 0
M  V30 3388 H 324.257 -2.00738 -0.395661 0
M  V30 3389 H 324.267 -3.19898 -2.53237 0
M  V30 3390 H 322.942 -3.84731 -1.5797 0
M  V30 3391 H 321.519 -2.47336 -2.79069 0
M  V30 3392 N 323.704 0.605807 -1.45491 0
M  V30 3393 C 324.981 1.36522 -1.40075 0
M  V30 3394 C 325.361 2.10976 -0.0722744 0
M  V30 3395 O 324.709 2.08007 0.945808 0
M  V30 3396 C 324.919 2.31056 -2.61561 0
M  V30 3397 C 326.267 2.93608 -3.06724 0
M  V30 3398 O 327.291 2.41376 -2.61946 0
M  V30 3399 O 326.15 3.88421 -3.84437 0
M  V30 3400 H 323.244 0.612248 -0.555951 0
M  V30 3401 H 325.79 0.628747 -1.57623 0
M  V30 3402 H 324.562 1.75311 -3.49831 0
M  V30 3403 H 324.185 3.12081 -2.46356 0
M  V30 3404 N 325.182 1.32811 0.848464 0
M  V30 3405 C 326.422 1.25046 1.61687 0
M  V30 3406 C 326.786 -0.183464 1.91121 0
M  V30 3407 O 327.987 -0.384937 2.66029 0
M  V30 3408 C 326.258 2.09201 2.89775 0
M  V30 3409 S 327.817 2.18526 3.80515 0
M  V30 3410 H 324.635 0.445023 0.554505 0
M  V30 3411 H 327.237 1.67733 1.00429 0
M  V30 3412 H 325.941 3.12433 2.66108 0
M  V30 3413 H 325.472 1.67315 3.56047 0
M  V30 3414 H 327.487 1.3393 4.77784 0
M  V30 3415 N 326.66 -1.06551 1.16123 0
M  V30 3416 C 327.59 -2.15935 0.88851 0
M  V30 3417 C 328.571 -1.69306 -0.164135 0
M  V30 3418 O 329.756 -1.94193 -0.0167857 0
M  V30 3419 C 326.886 -3.45149 0.385942 0
M  V30 3420 C 325.84 -4.05271 1.3762 0
M  V30 3421 C 325.166 -5.29664 0.732137 0
M  V30 3422 C 326.466 -4.44355 2.74493 0
M  V30 3423 H 328.16 -2.39006 1.80323 0
M  V30 3424 H 325.706 -1.14866 0.868435 0
M  V30 3425 H 327.659 -4.21004 0.182647 0
M  V30 3426 H 326.383 -3.21689 -0.564274 0
M  V30 3427 H 325.042 -3.3147 1.56599 0
M  V30 3428 H 324.69 -5.02499 -0.224483 0
M  V30 3429 H 324.39 -5.70848 1.39307 0
M  V30 3430 H 325.914 -6.08218 0.538802 0
M  V30 3431 H 327.328 -5.11303 2.59311 0
M  V30 3432 H 325.725 -4.96515 3.37035 0
M  V30 3433 H 326.795 -3.55339 3.29943 0
M  V30 3434 N 328.138 -0.959301 -1.25041 0
M  V30 3435 C 329.554 -0.664474 -1.4511 0
M  V30 3436 C 329.754 0.776481 -1.85938 0
M  V30 3437 O 328.81 1.55128 -1.99227 0
M  V30 3438 C 330.123 -1.64139 -2.5195 0
M  V30 3439 C 331.671 -1.65309 -2.65786 0
M  V30 3440 C 332.146 -2.61777 -3.75815 0
M  V30 3441 N 333.637 -2.60169 -3.83231 0
M  V30 3442 C 334.372 -3.31489 -4.6787 0
M  V30 3443 N 333.868 -4.12298 -5.56761 0
M  V30 3444 N 335.661 -3.20354 -4.61876 0
M  V30 3445 H 327.812 -1.89043 -0.968332 0
M  V30 3446 H 330.075 -0.813408 -0.4869 0
M  V30 3447 H 329.781 -2.67086 -2.28819 0
M  V30 3448 H 329.655 -1.40756 -3.49954 0
M  V30 3449 H 332.042 -0.630778 -2.8828 0
M  V30 3450 H 332.123 -1.92753 -1.68167 0
M  V30 3451 H 331.767 -3.64137 -3.54071 0
M  V30 3452 H 331.697 -2.31616 -4.72929 0
M  V30 3453 H 334.188 -2.01507 -3.19692 0
M  V30 3454 H 334.501 -4.63625 -6.18281 0
M  V30 3455 H 332.846 -4.16395 -5.56454 0
M  V30 3456 H 336.037 -2.56692 -3.91442 0
M  V30 3457 H 336.21 -3.76201 -5.27614 0
M  V30 3458 N 329.616 1.39756 -0.72842 0
M  V30 3459 C 330.846 2.04651 -0.283117 0
M  V30 3460 C 331.254 1.5502 1.08469 0
M  V30 3461 O 330.597 0.707343 1.69536 0
M  V30 3462 C 330.659 3.58947 -0.199309 0
M  V30 3463 C 330.323 4.31525 -1.5045 0
M  V30 3464 C 331.32 4.5861 -2.44894 0
M  V30 3465 C 329.005 4.70195 -1.76698 0
M  V30 3466 C 330.999 5.23366 -3.63822 0
M  V30 3467 C 328.686 5.3468 -2.95906 0
M  V30 3468 C 329.684 5.61198 -3.89289 0
M  V30 3469 O 329.372 6.24347 -5.06404 0
M  V30 3470 H 329.104 0.664777 -0.122666 0
M  V30 3471 H 331.658 1.79913 -0.990987 0
M  V30 3472 H 329.888 3.82556 0.56461 0
M  V30 3473 H 331.577 4.0534 0.213125 0
M  V30 3474 H 332.343 4.29187 -2.25883 0
M  V30 3475 H 328.222 4.48916 -1.04859 0
M  V30 3476 H 331.766 5.4398 -4.36728 0
M  V30 3477 H 327.663 5.63524 -3.14819 0
M  V30 3478 H 328.431 6.42842 -5.06652 0
M  V30 3479 N 331.094 0.475555 1.50254 0
M  V30 3480 C 332.004 -0.321501 2.32387 0
M  V30 3481 C 333.02 -0.991755 1.42969 0
M  V30 3482 O 334.196 -0.978747 1.76018 0
M  V30 3483 C 331.261 -1.38667 3.17762 0
M  V30 3484 C 330.322 -0.732538 4.23004 0
M  V30 3485 C 329.555 -1.74695 5.04299 0
M  V30 3486 O 329.778 -2.97399 4.86734 0
M  V30 3487 O 328.712 -1.31631 5.8733 0
M  V30 3488 H 332.538 0.350071 3.01676 0
M  V30 3489 H 330.123 0.237321 1.47503 0
M  V30 3490 H 332.005 -2.00354 3.70724 0
M  V30 3491 H 330.68 -2.04163 2.51196 0
M  V30 3492 H 329.587 -0.0765902 3.74022 0
M  V30 3493 H 330.92 -0.120452 4.92053 0
M  V30 3494 N 332.573 -1.56217 0.208337 0
M  V30 3495 C 333.506 -2.15633 -0.746842 0
M  V30 3496 C 334.484 -1.09685 -1.20034 0
M  V30 3497 O 335.668 -1.3787 -1.28547 0
M  V30 3498 C 332.795 -2.72594 -2.01023 0
M  V30 3499 C 331.841 -3.91251 -1.69779 0
M  V30 3500 S 332.674 -5.28962 -0.834209 0
M  V30 3501 C 333.83 -5.89353 -2.10745 0
M  V30 3502 H 334.063 -2.96315 -0.241789 0
M  V30 3503 H 331.596 -1.54398 -0.00682183 0
M  V30 3504 H 333.554 -3.06053 -2.73572 0
M  V30 3505 H 332.215 -1.91929 -2.48641 0
M  V30 3506 H 331.408 -4.29562 -2.63614 0
M  V30 3507 H 331.01 -3.58869 -1.05303 0
M  V30 3508 H 333.302 -6.04522 -3.05875 0
M  V30 3509 H 334.245 -6.85661 -1.76845 0
M  V30 3510 H 334.653 -5.1807 -2.24196 0
M  V30 3511 N 334.051 0.0651679 -1.57465 0
M  V30 3512 C 335.281 0.774683 -1.91526 0
M  V30 3513 C 335.689 1.71305 -0.803196 0
M  V30 3514 O 335.032 1.82231 0.231881 0
M  V30 3515 C 335.094 1.61645 -3.21109 0
M  V30 3516 C 334.758 0.846753 -4.49087 0
M  V30 3517 C 335.755 0.163024 -5.19644 0
M  V30 3518 C 333.44 0.811966 -4.95694 0
M  V30 3519 C 335.434 -0.54519 -6.35064 0
M  V30 3520 C 333.121 0.0999836 -6.11018 0
M  V30 3521 C 334.119 -0.577388 -6.80555 0
M  V30 3522 O 333.807 -1.27789 -7.93678 0
M  V30 3523 H 333.539 0.225031 -0.637446 0
M  V30 3524 H 336.093 0.0377134 -2.05365 0
M  V30 3525 H 334.323 2.39638 -3.03497 0
M  V30 3526 H 336.012 2.20525 -3.40769 0
M  V30 3527 H 336.778 0.181163 -4.84662 0
M  V30 3528 H 332.657 1.32867 -4.41438 0
M  V30 3529 H 336.201 -1.07446 -6.89276 0
M  V30 3530 H 332.098 0.0797945 -6.45451 0
M  V30 3531 H 332.866 -1.18784 -8.09835 0
M  V30 3532 N 335.529 1.53961 0.336706 0
M  V30 3533 C 336.94 1.62914 0.911925 0
M  V30 3534 C 337.291 0.514795 1.89326 0
M  V30 3535 O 336.416 -0.354395 2.13478 0
M  V30 3536 C 337.011 2.95304 1.66076 0
M  V30 3537 C 335.57 3.06496 2.18489 0
M  V30 3538 C 334.717 2.58403 1.00613 0
M  V30 3539 H 337.668 1.58285 0.114649 0
M  V30 3540 H 337.689 2.84727 2.5241 0
M  V30 3541 H 337.201 3.76387 0.946276 0
M  V30 3542 H 335.302 2.3006 2.93092 0
M  V30 3543 H 335.415 4.1208 2.44391 0
M  V30 3544 H 333.779 2.13977 1.38152 0
M  V30 3545 H 334.562 3.41932 0.306179 0
M  V30 3546 N 337.007 -0.598083 1.45811 0
M  V30 3547 C 337.937 -1.71873 1.58057 0
M  V30 3548 C 338.918 -1.64533 0.431615 0
M  V30 3549 O 340.103 -1.82787 0.65595 0
M  V30 3550 C 337.233 -3.10495 1.55597 0
M  V30 3551 C 336.187 -3.32654 2.69305 0
M  V30 3552 C 335.513 -4.71646 2.51902 0
M  V30 3553 C 336.813 -3.21981 4.11248 0
M  V30 3554 H 338.507 -1.61881 2.51863 0
M  V30 3555 H 336.053 -0.777372 1.21214 0
M  V30 3556 H 338.006 -3.88699 1.6276 0
M  V30 3557 H 336.73 -3.2135 0.583255 0
M  V30 3558 H 335.389 -2.56843 2.61586 0
M  V30 3559 H 335.037 -4.79246 1.52748 0
M  V30 3560 H 334.737 -4.87426 3.2816 0
M  V30 3561 H 336.261 -5.52038 2.60933 0
M  V30 3562 H 337.675 -3.90049 4.20161 0
M  V30 3563 H 336.072 -3.49289 4.87972 0
M  V30 3564 H 337.142 -2.1928 4.32486 0
M  V30 3565 N 338.485 -1.33259 -0.841409 0
M  V30 3566 C 339.733 -1.24326 -1.59334 0
M  V30 3567 C 340.054 0.191564 -1.94057 0
M  V30 3568 O 339.324 1.11967 -1.60749 0
M  V30 3569 H 337.904 -0.457174 -0.590763 0
M  V30 3570 H 340.566 -1.66947 -1.00571 0
M  V30 3571 H 339.662 -1.8352 -2.52442 0
M  V30 3572 N 339.963 1.05934 -1.16686 0
M  V30 3573 C 341.209 1.79065 -0.95203 0
M  V30 3574 C 341.542 1.87147 0.518629 0
M  V30 3575 O 340.817 1.36574 1.38484 0
M  V30 3576 C 341.1 3.23359 -1.58464 0
M  V30 3577 C 340.953 3.23336 -3.12689 0
M  V30 3578 C 342.272 4.21004 -1.28232 0
M  V30 3579 H 339.391 0.65005 -0.34728 0
M  V30 3580 H 342.033 1.23868 -1.44072 0
M  V30 3581 H 340.183 3.70493 -1.16908 0
M  V30 3582 H 341.855 2.84336 -3.6325 0
M  V30 3583 H 340.098 2.61886 -3.4583 0
M  V30 3584 H 340.769 4.25144 -3.52075 0
M  V30 3585 H 343.245 3.8233 -1.64203 0
M  V30 3586 H 342.121 5.20225 -1.75092 0
M  V30 3587 H 342.382 4.41639 -0.201791 0
M  V30 3588 N 341.441 0.965919 1.2453 0
M  V30 3589 C 342.388 0.49402 2.25451 0
M  V30 3590 C 343.358 -0.45948 1.59618 0
M  V30 3591 O 344.543 -0.370238 1.87173 0
M  V30 3592 C 341.683 -0.211359 3.44452 0
M  V30 3593 C 340.796 0.7807 4.24887 0
M  V30 3594 C 339.931 0.0516105 5.31175 0
M  V30 3595 C 338.97 1.03385 6.03306 0
M  V30 3596 N 338.107 0.334887 7.01301 0
M  V30 3597 H 342.947 1.35946 2.65184 0
M  V30 3598 H 340.484 0.681515 1.3036 0
M  V30 3599 H 342.442 -0.637 4.12308 0
M  V30 3600 H 341.072 -1.04077 3.05562 0
M  V30 3601 H 340.124 1.32479 3.56586 0
M  V30 3602 H 341.436 1.52978 4.74762 0
M  V30 3603 H 340.59 -0.432114 6.05159 0
M  V30 3604 H 339.329 -0.730179 4.82203 0
M  V30 3605 H 338.334 1.52847 5.28127 0
M  V30 3606 H 339.559 1.81606 6.54367 0
M  V30 3607 H 337.505 -0.427959 6.54603 0
M  V30 3608 H 337.422 1.02287 7.49048 0
M  V30 3609 H 338.69 -0.126928 7.79397 0
M  V30 3610 N 342.919 -1.39368 0.735821 0
M  V30 3611 C 344.165 -2.00794 0.284544 0
M  V30 3612 C 344.498 -1.58255 -1.12557 0
M  V30 3613 O 343.773 -0.811819 -1.76748 0
M  V30 3614 C 344.056 -3.58011 0.387337 0
M  V30 3615 C 343.909 -4.10566 1.83728 0
M  V30 3616 C 345.228 -4.395 -0.22975 0
M  V30 3617 H 342.347 -0.729501 0.104866 0
M  V30 3618 H 344.989 -1.65564 0.93213 0
M  V30 3619 H 343.139 -3.88154 -0.164006 0
M  V30 3620 H 344.811 -3.91139 2.44556 0
M  V30 3621 H 343.054 -3.64095 2.35833 0
M  V30 3622 H 343.725 -5.19702 1.86047 0
M  V30 3623 H 346.201 -4.15406 0.240257 0
M  V30 3624 H 345.077 -5.48752 -0.127485 0
M  V30 3625 H 345.338 -4.22062 -1.3159 0
M  V30 3626 N 344.397 -0.483516 -1.5 0
M  V30 3627 C 345.622 0.0667119 -2.07293 0
M  V30 3628 C 346.047 1.3164 -1.3436 0
M  V30 3629 O 345.405 1.76945 -0.394987 0
M  V30 3630 C 345.453 0.321126 -3.59167 0
M  V30 3631 O 344.557 1.39927 -3.87936 0
M  V30 3632 H 343.898 -0.0184758 -0.663743 0
M  V30 3633 H 346.428 -0.678125 -1.93035 0
M  V30 3634 H 346.438 0.557906 -4.04168 0
M  V30 3635 H 345.113 -0.592007 -4.11665 0
M  V30 3636 H 343.69 1.14882 -3.54763 0
M  V30 3637 N 345.875 1.56104 -0.216619 0
M  V30 3638 C 347.121 1.98466 0.417033 0
M  V30 3639 C 347.454 1.10403 1.59765 0
M  V30 3640 O 346.729 0.160632 1.93836 0
M  V30 3641 C 347.012 3.49769 0.85637 0
M  V30 3642 C 346.865 4.48606 -0.327546 0
M  V30 3643 C 348.184 4.05339 1.7143 0
M  V30 3644 H 345.303 0.721551 0.150112 0
M  V30 3645 H 347.945 1.87423 -0.311864 0
M  V30 3646 H 346.095 3.5931 1.47745 0
M  V30 3647 H 347.767 4.5108 -0.965618 0
M  V30 3648 H 346.01 4.22682 -0.975805 0
M  V30 3649 H 346.681 5.51995 0.0227149 0
M  V30 3650 H 349.157 3.98712 1.19031 0
M  V30 3651 H 348.033 5.11533 1.99061 0
M  V30 3652 H 348.294 3.51918 2.67593 0
M  V30 3653 N 347.353 -0.0568162 1.57498 0
M  V30 3654 C 348.599 -0.75422 1.88253 0
M  V30 3655 C 348.932 -1.76461 0.810865 0
M  V30 3656 O 348.207 -1.93691 -0.177259 0
M  V30 3657 C 348.49 -1.44878 3.2967 0
M  V30 3658 C 348.343 -0.453789 4.47505 0
M  V30 3659 C 349.662 -2.38994 3.69554 0
M  V30 3660 H 346.781 -0.272724 0.684683 0
M  V30 3661 H 349.423 -0.0172113 1.89992 0
M  V30 3662 H 347.573 -2.077 3.28318 0
M  V30 3663 H 349.245 0.170371 4.60985 0
M  V30 3664 H 347.488 0.229552 4.33192 0
M  V30 3665 H 348.159 -0.977699 5.43273 0
M  V30 3666 H 350.635 -1.86239 3.72095 0
M  V30 3667 H 349.511 -2.84587 4.69363 0
M  V30 3668 H 349.772 -3.24461 3.00296 0
M  V30 3669 N 348.832 -1.54138 -0.328536 0
M  V30 3670 C 349.742 -1.86192 -1.42723 0
M  V30 3671 C 350.758 -0.753382 -1.56844 0
M  V30 3672 O 351.934 -1.04718 -1.72035 0
M  V30 3673 C 348.999 -2.07824 -2.77507 0
M  V30 3674 C 348.06 -3.31641 -2.72603 0
M  V30 3675 C 347.293 -3.52232 -4.00959 0
M  V30 3676 O 347.516 -2.7636 -4.9898 0
M  V30 3677 O 346.45 -4.45699 -4.0452 0
M  V30 3678 H 350.276 -2.79608 -1.18547 0
M  V30 3679 H 347.861 -1.3998 -0.522104 0
M  V30 3680 H 349.743 -2.23411 -3.57303 0
M  V30 3681 H 348.418 -1.17596 -3.01584 0
M  V30 3682 H 347.325 -3.21444 -1.91376 0
M  V30 3683 H 348.658 -4.2191 -2.53481 0
M  V30 3684 N 350.31 0.590341 -1.46126 0
M  V30 3685 C 351.721 1.17243 -1.45296 0
M  V30 3686 C 352.072 1.95281 -0.189723 0
M  V30 3687 O 351.197 2.04502 0.707674 0
M  V30 3688 C 351.792 2.13284 -2.6324 0
M  V30 3689 C 350.351 2.66832 -2.65476 0
M  V30 3690 C 349.498 1.42557 -2.3785 0
M  V30 3691 H 352.449 0.378692 -1.54116 0
M  V30 3692 H 352.47 2.96619 -2.38323 0
M  V30 3693 H 351.982 1.56459 -3.55165 0
M  V30 3694 H 350.083 3.27548 -1.77603 0
M  V30 3695 H 350.196 3.10088 -3.65215 0
M  V30 3696 H 348.56 1.72107 -1.87753 0
M  V30 3697 H 349.343 0.875741 -3.31942 0
M  V30 3698 N 351.788 1.33704 0.83433 0
M  V30 3699 C 353.036 1.25169 1.58673 0
M  V30 3700 C 353.357 -0.18127 1.94156 0
M  V30 3701 O 352.627 -1.11113 1.6134 0
M  V30 3702 H 351.207 0.4603 0.58833 0
M  V30 3703 H 353.869 1.67478 0.996847 0
M  V30 3704 H 352.965 1.84856 2.51465 0
M  V30 3705 N 353.266 -1.05314 1.17247 0
M  V30 3706 C 354.214 -2.15137 0.884238 0
M  V30 3707 C 355.208 -1.68729 -0.15063 0
M  V30 3708 O 356.414 -1.8 -0.00366673 0
M  V30 3709 H 352.789 -0.702471 0.2684 0
M  V30 3710 H 354.76 -2.36652 1.81764 0
M  V30 3711 C 353.509 -3.45243 0.412659 0
M  V30 3712 H 352.832 -3.81352 1.20043 0
M  V30 3713 H 354.272 -4.23263 0.249858 0
M  V30 3714 C 352.731 -3.25487 -0.86948 0
M  V30 3715 O 353.261 -3.51938 -1.93655 0
M  V30 3716 N 351.467 -2.78875 -0.817147 0
M  V30 3717 H 351.014 -2.57549 0.0514211 0
M  V30 3718 H 350.972 -2.66036 -1.67547 0
M  V30 3719 N 354.744 -0.972509 -1.24016 0
M  V30 3720 C 355.991 -0.637034 -1.92219 0
M  V30 3721 C 356.319 0.828418 -1.75976 0
M  V30 3722 O 355.574 1.61206 -1.10955 0
M  V30 3723 C 355.873 -0.963694 -3.44162 0
M  V30 3724 C 355.539 -2.41807 -3.80579 0
M  V30 3725 C 354.201 -2.81556 -3.9023 0
M  V30 3726 C 356.553 -3.36172 -3.98293 0
M  V30 3727 C 353.881 -4.14702 -4.15017 0
M  V30 3728 C 356.233 -4.68952 -4.24578 0
M  V30 3729 C 354.897 -5.08472 -4.32449 0
M  V30 3730 H 354.167 -0.233107 -0.703379 0
M  V30 3731 H 356.814 -1.2249 -1.47202 0
M  V30 3732 H 355.119 -0.29365 -3.90698 0
M  V30 3733 H 356.816 -0.682449 -3.9515 0
M  V30 3734 H 353.406 -2.09988 -3.73635 0
M  V30 3735 H 357.59 -3.06644 -3.90234 0
M  V30 3736 H 352.846 -4.4494 -4.19331 0
M  V30 3737 H 357.02 -5.42037 -4.37229 0
M  V30 3738 H 354.647 -6.11665 -4.51409 0
M  V30 3739 N 356.222 1.38976 -0.743202 0
M  V30 3740 C 357.471 1.99581 -0.291592 0
M  V30 3741 C 357.784 1.59656 1.13001 0
M  V30 3742 O 358.99 2.13157 1.68156 0
M  V30 3743 C 357.446 3.56813 -0.470391 0
M  V30 3744 C 357.054 4.05695 -1.90041 0
M  V30 3745 C 358.798 4.24423 -0.0809709 0
M  V30 3746 C 356.705 5.5553 -2.02832 0
M  V30 3747 H 355.635 0.746615 -0.105272 0
M  V30 3748 H 358.286 1.58872 -0.918258 0
M  V30 3749 H 356.668 3.95359 0.225299 0
M  V30 3750 H 357.842 3.78464 -2.62872 0
M  V30 3751 H 356.157 3.50775 -2.24379 0
M  V30 3752 H 358.754 5.34474 -0.155445 0
M  V30 3753 H 359.097 4.04962 0.96497 0
M  V30 3754 H 359.63 3.9108 -0.728124 0
M  V30 3755 H 356.369 5.79881 -3.05643 0
M  V30 3756 H 355.889 5.84537 -1.34448 0
M  V30 3757 H 357.568 6.21069 -1.81335 0
M  V30 3758 N 357.7 0.491464 1.49741 0
M  V30 3759 C 358.663 -0.280906 2.27472 0
M  V30 3760 C 359.663 -0.902454 1.33088 0
M  V30 3761 O 360.853 -0.768465 1.56334 0
M  V30 3762 C 357.985 -1.40209 3.10732 0
M  V30 3763 H 359.178 0.401056 2.97206 0
M  V30 3764 H 356.731 0.246131 1.5435 0
M  V30 3765 H 357.466 -2.11849 2.45541 0
M  V30 3766 H 357.251 -0.961969 3.80117 0
M  V30 3767 H 358.741 -1.9464 3.69466 0
M  V30 3768 N 359.178 -1.55987 0.224894 0
M  V30 3769 C 360.141 -2.19178 -0.670348 0
M  V30 3770 C 361.141 -1.15461 -1.11917 0
M  V30 3771 O 362.331 -1.40675 -1.02743 0
M  V30 3772 C 359.463 -2.81777 -1.9187 0
M  V30 3773 H 360.656 -2.99662 -0.119364 0
M  V30 3774 H 358.209 -1.5628 -0.0247128 0
M  V30 3775 H 358.944 -2.05172 -2.51147 0
M  V30 3776 H 358.729 -3.57732 -1.60531 0
M  V30 3777 H 360.219 -3.30205 -2.55645 0
M  V30 3778 N 360.656 0.0484629 -1.57525 0
M  V30 3779 C 361.884 0.755421 -1.92616 0
M  V30 3780 C 362.299 1.69919 -0.822984 0
M  V30 3781 O 361.656 1.81378 0.202085 0
M  V30 3782 C 361.707 1.52915 -3.27566 0
M  V30 3783 O 361.428 0.62329 -4.33644 0
M  V30 3784 C 362.929 2.33502 -3.76818 0
M  V30 3785 H 360.149 0.213465 -0.63614 0
M  V30 3786 H 362.693 0.0117698 -2.04497 0
M  V30 3787 H 360.848 2.22486 -3.17142 0
M  V30 3788 H 361.262 1.16383 -5.11425 0
M  V30 3789 H 362.736 2.83214 -4.73808 0
M  V30 3790 H 363.213 3.14068 -3.07014 0
M  V30 3791 H 363.819 1.69043 -3.90262 0
M  V30 3792 N 362.134 1.5431 0.320358 0
M  V30 3793 C 363.359 1.76954 1.08175 0
M  V30 3794 C 363.784 0.518193 1.80821 0
M  V30 3795 O 363.142 -0.530411 1.73368 0
M  V30 3796 C 363.19 2.96451 2.05303 0
M  V30 3797 O 362.294 2.68221 3.13259 0
M  V30 3798 H 361.635 0.586275 0.311733 0
M  V30 3799 H 364.165 2.01342 0.363676 0
M  V30 3800 H 364.175 3.23887 2.48116 0
M  V30 3801 H 362.85 3.87196 1.51829 0
M  V30 3802 H 361.427 2.51744 2.75099 0
M  V30 3803 N 363.613 -0.582584 1.46437 0
M  V30 3804 C 364.543 -1.70187 1.59871 0
M  V30 3805 C 365.524 -1.64066 0.449042 0
M  V30 3806 O 366.709 -1.82081 0.6753 0
M  V30 3807 C 363.839 -3.08827 1.58881 0
M  V30 3808 C 362.793 -3.29779 2.72819 0
M  V30 3809 C 362.119 -4.68947 2.5689 0
M  V30 3810 C 363.419 -3.17601 4.1464 0
M  V30 3811 H 365.113 -1.592 2.53566 0
M  V30 3812 H 362.659 -0.764472 1.22032 0
M  V30 3813 H 364.612 -3.86951 1.66873 0
M  V30 3814 H 363.336 -3.20713 0.617306 0
M  V30 3815 H 361.995 -2.54054 2.64296 0
M  V30 3816 H 361.643 -4.77599 1.57823 0
M  V30 3817 H 361.343 -4.83919 3.33312 0
M  V30 3818 H 362.867 -5.4924 2.66773 0
M  V30 3819 H 364.281 -3.8557 4.24274 0
M  V30 3820 H 362.678 -3.44094 4.9165 0
M  V30 3821 H 363.748 -2.14681 4.34788 0
M  V30 3822 N 365.091 -1.34144 -0.827227 0
M  V30 3823 C 366.321 -1.29138 -1.61267 0
M  V30 3824 C 366.729 0.137597 -1.88699 0
M  V30 3825 O 366.072 1.09379 -1.47587 0
M  V30 3826 C 366.134 -2.0097 -2.9808 0
M  V30 3827 C 365.798 -3.50242 -2.93563 0
M  V30 3828 C 366.795 -4.4523 -2.68452 0
M  V30 3829 C 364.48 -3.92592 -3.13331 0
M  V30 3830 C 366.474 -5.80542 -2.63154 0
M  V30 3831 C 364.161 -5.28005 -3.07658 0
M  V30 3832 C 365.159 -6.21792 -2.82602 0
M  V30 3833 O 364.847 -7.54723 -2.76853 0
M  V30 3834 H 364.579 -0.445851 -0.508127 0
M  V30 3835 H 367.133 -1.77263 -1.03763 0
M  V30 3836 H 365.363 -1.47451 -3.57484 0
M  V30 3837 H 367.052 -1.89309 -3.5905 0
M  V30 3838 H 367.818 -4.13832 -2.52919 0
M  V30 3839 H 363.697 -3.19994 -3.31851 0
M  V30 3840 H 367.241 -6.53717 -2.43516 0
M  V30 3841 H 363.138 -5.59023 -3.22743 0
M  V30 3842 H 363.906 -7.64409 -2.92611 0
M  V30 3843 N 366.569 1.04691 -1.17803 0
M  V30 3844 C 367.794 1.81984 -0.994813 0
M  V30 3845 C 368.219 1.82586 0.452112 0
M  V30 3846 O 367.577 1.23854 1.324 0
M  V30 3847 C 367.625 3.2575 -1.54659 0
M  V30 3848 O 366.729 4.05267 -0.763728 0
M  V30 3849 H 366.07 0.562483 -0.352857 0
M  V30 3850 H 368.6 1.3189 -1.56417 0
M  V30 3851 H 368.61 3.76541 -1.57102 0
M  V30 3852 H 367.285 3.24627 -2.59981 0
M  V30 3853 H 365.862 3.63972 -0.811108 0
M  V30 3854 N 368.047 0.979072 1.23499 0
M  V30 3855 C 369.458 0.684391 1.73704 0
M  V30 3856 C 369.809 -0.799448 1.79174 0
M  V30 3857 O 368.934 -1.62531 1.42873 0
M  V30 3858 C 369.529 1.23564 3.15464 0
M  V30 3859 C 368.088 0.99063 3.6313 0
M  V30 3860 C 367.235 1.36416 2.41425 0
M  V30 3861 H 370.186 1.15307 1.09041 0
M  V30 3862 H 370.207 0.607417 3.7562 0
M  V30 3863 H 369.719 2.31561 3.1145 0
M  V30 3864 H 367.82 -0.0733136 3.72528 0
M  V30 3865 H 367.933 1.64427 4.5 0
M  V30 3866 H 366.297 0.782616 2.42378 0
M  V30 3867 H 367.08 2.45387 2.40083 0
M  V30 3868 N 369.525 -1.3858 0.750561 0
M  V30 3869 C 370.435 -2.34278 0.122825 0
M  V30 3870 C 371.451 -1.59116 -0.704131 0
M  V30 3871 O 372.627 -1.91326 -0.628987 0
M  V30 3872 C 369.692 -3.38221 -0.762086 0
M  V30 3873 C 368.753 -4.29227 0.078896 0
M  V30 3874 C 367.986 -5.28205 -0.763874 0
M  V30 3875 O 368.209 -5.34112 -2.00201 0
M  V30 3876 O 367.143 -6.01618 -0.18428 0
M  V30 3877 H 370.969 -2.89649 0.913088 0
M  V30 3878 H 368.554 -1.40374 0.511417 0
M  V30 3879 H 370.436 -4.01872 -1.26793 0
M  V30 3880 H 369.111 -2.85211 -1.5309 0
M  V30 3881 H 368.018 -3.68747 0.630621 0
M  V30 3882 H 369.351 -4.85484 0.810289 0
M  V30 3883 N 371.003 -0.499398 -1.49478 0
M  V30 3884 C 372.228 0.044722 -2.07352 0
M  V30 3885 C 372.653 1.30207 -1.35749 0
M  V30 3886 O 372.011 1.76516 -0.413732 0
M  V30 3887 C 372.059 0.283013 -3.59488 0
M  V30 3888 O 371.163 1.35804 -3.89398 0
M  V30 3889 H 370.504 -0.0255147 -0.66351 0
M  V30 3890 H 373.034 -0.698561 -1.92305 0
M  V30 3891 H 373.044 0.515007 -4.04737 0
M  V30 3892 H 371.719 -0.635636 -4.11014 0
M  V30 3893 H 370.296 1.11113 -3.55961 0
M  V30 3894 N 372.481 1.55866 -0.233164 0
M  V30 3895 C 373.73 1.97779 0.39579 0
M  V30 3896 C 374.043 1.12419 1.60066 0
M  V30 3897 O 375.249 1.44283 2.29988 0
M  V30 3898 C 373.705 3.5188 0.755556 0
M  V30 3899 C 373.313 4.45959 -0.427152 0
M  V30 3900 C 375.057 4.02479 1.34946 0
M  V30 3901 C 372.964 5.91383 -0.0443043 0
M  V30 3902 H 371.894 0.738592 0.15165 0
M  V30 3903 H 374.545 1.80486 -0.331212 0
M  V30 3904 H 372.927 3.64816 1.5403 0
M  V30 3905 H 374.101 4.44776 -1.20462 0
M  V30 3906 H 372.416 4.05765 -0.935068 0
M  V30 3907 H 375.013 5.08637 1.649 0
M  V30 3908 H 375.356 3.49014 2.26925 0
M  V30 3909 H 375.889 3.92813 0.62791 0
M  V30 3910 H 372.628 6.48857 -0.930874 0
M  V30 3911 H 372.148 5.95734 0.697238 0
M  V30 3912 H 373.827 6.45893 0.378334 0
M  V30 3913 N 373.959 -0.0401083 1.57549 0
M  V30 3914 C 374.891 -1.07149 2.02612 0
M  V30 3915 C 375.904 -1.33126 0.937085 0
M  V30 3916 O 377.093 -1.30808 1.21456 0
M  V30 3917 C 374.193 -2.41561 2.37701 0
M  V30 3918 C 373.366 -2.35096 3.68848 0
M  V30 3919 C 372.425 -3.51867 3.91249 0
M  V30 3920 O 371.451 -3.3186 4.62447 0
M  V30 3921 N 372.653 -4.73351 3.36035 0
M  V30 3922 H 375.418 -0.687485 2.91708 0
M  V30 3923 H 372.979 -0.228248 1.60283 0
M  V30 3924 H 374.971 -3.18379 2.49833 0
M  V30 3925 H 373.541 -2.71846 1.54332 0
M  V30 3926 H 372.761 -1.4345 3.67173 0
M  V30 3927 H 374.049 -2.27908 4.54901 0
M  V30 3928 H 373.447 -4.92507 2.78304 0
M  V30 3929 H 372.004 -5.47572 3.53565 0
M  V30 3930 N 375.437 -1.54477 -0.31217 0
M  V30 3931 C 376.4 -1.83923 -1.36766 0
M  V30 3932 C 377.4 -0.711563 -1.44199 0
M  V30 3933 O 378.59 -0.979866 -1.44029 0
M  V30 3934 C 375.722 -2.0095 -2.75376 0
M  V30 3935 H 376.915 -2.78239 -1.11906 0
M  V30 3936 H 374.468 -1.46369 -0.548257 0
M  V30 3937 H 375.203 -1.08883 -3.05475 0
M  V30 3938 H 374.988 -2.83018 -2.71373 0
M  V30 3939 H 376.478 -2.2514 -3.51713 0
M  V30 3940 N 376.915 0.57481 -1.46744 0
M  V30 3941 C 378.164 1.32898 -1.51727 0
M  V30 3942 C 378.477 1.948 -0.176692 0
M  V30 3943 O 379.683 2.71299 -0.104385 0
M  V30 3944 C 378.139 2.40901 -2.67385 0
M  V30 3945 C 377.747 1.85266 -4.07898 0
M  V30 3946 C 379.491 3.17609 -2.81646 0
M  V30 3947 C 377.398 2.90945 -5.14883 0
M  V30 3948 H 376.328 0.499631 -0.564699 0
M  V30 3949 H 378.979 0.612536 -1.72975 0
M  V30 3950 H 377.361 3.15379 -2.39483 0
M  V30 3951 H 378.535 1.17278 -4.45626 0
M  V30 3952 H 376.85 1.21199 -3.98371 0
M  V30 3953 H 379.447 3.96493 -3.58744 0
M  V30 3954 H 379.79 3.70696 -1.89448 0
M  V30 3955 H 380.323 2.50239 -3.09233 0
M  V30 3956 H 377.062 2.42736 -6.089 0
M  V30 3957 H 376.582 3.57398 -4.81691 0
M  V30 3958 H 378.261 3.54755 -5.41071 0
M  V30 3959 N 378.394 1.34581 0.820102 0
M  V30 3960 C 379.357 1.2628 1.91275 0
M  V30 3961 C 380.357 0.177344 1.59819 0
M  V30 3962 O 381.547 0.430156 1.68806 0
M  V30 3963 C 378.679 0.950327 3.27386 0
M  V30 3964 H 379.872 2.23421 2.00057 0
M  V30 3965 H 377.425 1.1891 1.0144 0
M  V30 3966 H 378.16 -0.0177938 3.24295 0
M  V30 3967 H 377.945 1.73549 3.51601 0
M  V30 3968 H 379.435 0.917492 4.07396 0
M  V30 3969 N 379.872 -1.04064 1.18357 0
M  V30 3970 C 380.819 -2.12077 0.910603 0
M  V30 3971 C 381.789 -1.65421 -0.15 0
M  V30 3972 O 382.974 -1.90797 -0.0103614 0
M  V30 3973 C 380.114 -3.42252 0.442472 0
M  V30 3974 C 379.227 -4.0252 1.5685 0
M  V30 3975 C 378.362 -5.20657 1.05309 0
M  V30 3976 C 377.401 -5.72955 2.1538 0
M  V30 3977 N 376.538 -6.8238 1.65233 0
M  V30 3978 H 381.378 -2.34764 1.83548 0
M  V30 3979 H 378.915 -1.15157 0.915279 0
M  V30 3980 H 380.873 -4.16921 0.152534 0
M  V30 3981 H 379.503 -3.19712 -0.445428 0
M  V30 3982 H 378.555 -3.25178 1.97391 0
M  V30 3983 H 379.867 -4.37362 2.39824 0
M  V30 3984 H 379.021 -6.0244 0.717677 0
M  V30 3985 H 377.76 -4.87318 0.19293 0
M  V30 3986 H 376.765 -4.89793 2.49766 0
M  V30 3987 H 377.99 -6.08337 3.01832 0
M  V30 3988 H 375.936 -6.50917 0.815064 0
M  V30 3989 H 375.853 -7.16286 2.41805 0
M  V30 3990 H 377.121 -7.67788 1.34619 0
M  V30 3991 N 381.35 -0.985608 -1.22978 0
M  V30 3992 C 382.297 -0.529825 -2.24636 0
M  V30 3993 C 383.267 0.434028 -1.60329 0
M  V30 3994 O 384.452 0.340414 -1.87739 0
M  V30 3995 C 381.592 0.156533 -3.44745 0
M  V30 3996 C 380.705 -0.848197 -4.23591 0
M  V30 3997 C 379.84 -0.136109 -5.31026 0
M  V30 3998 C 378.879 -1.1297 -6.01585 0
M  V30 3999 N 378.016 -0.446415 -7.00679 0
M  V30 4000 H 382.856 -1.40148 -2.62988 0
M  V30 4001 H 380.393 -0.702168 -1.29259 0
M  V30 4002 H 382.351 0.571324 -4.1327 0
M  V30 4003 H 380.981 0.992025 -3.07179 0
M  V30 4004 H 380.033 -1.38135 -3.54433 0
M  V30 4005 H 381.345 -1.60512 -4.72268 0
M  V30 4006 H 380.499 0.335784 -6.0577 0
M  V30 4007 H 379.238 0.653373 -4.83304 0
M  V30 4008 H 378.243 -1.6123 -5.25628 0
M  V30 4009 H 379.468 -1.91993 -6.51395 0
M  V30 4010 H 377.414 0.323763 -6.55201 0
M  V30 4011 H 377.331 -1.1419 -7.47326 0
M  V30 4012 H 378.599 0.00291697 -7.795 0
M  V30 4013 N 382.828 1.3818 -0.7579 0
M  V30 4014 C 383.761 2.28055 -0.0814093 0
M  V30 4015 C 384.739 1.45603 0.723779 0
M  V30 4016 O 385.923 1.74961 0.701491 0
M  V30 4017 C 383.05 3.2676 0.891394 0
M  V30 4018 C 382.096 4.26153 0.171909 0
M  V30 4019 S 382.929 5.23434 -1.13035 0
M  V30 4020 C 384.085 6.25694 -0.160727 0
M  V30 4021 H 384.318 2.85082 -0.84353 0
M  V30 4022 H 381.851 1.44246 -0.550671 0
M  V30 4023 H 383.809 3.8414 1.44731 0
M  V30 4024 H 382.47 2.68706 1.62652 0
M  V30 4025 H 381.663 4.95738 0.908843 0
M  V30 4026 H 381.265 3.72691 -0.312606 0
M  V30 4027 H 383.557 6.74161 0.671773 0
M  V30 4028 H 384.5 7.03285 -0.824353 0
M  V30 4029 H 384.908 5.64064 0.221892 0
M  V30 4030 N 384.306 0.507319 1.49211 0
M  V30 4031 C 385.552 -0.0269732 2.03382 0
M  V30 4032 C 385.907 -1.34111 1.37957 0
M  V30 4033 O 385.2 -1.84733 0.508351 0
M  V30 4034 C 385.394 -0.229513 3.56662 0
M  V30 4035 C 385.223 1.06344 4.36945 0
M  V30 4036 C 383.993 1.617 4.78729 0
M  V30 4037 C 386.191 1.96833 4.75143 0
M  V30 4038 N 384.173 2.8552 5.43463 0
M  V30 4039 C 385.544 3.0523 5.39661 0
M  V30 4040 C 387.599 1.97434 4.57082 0
M  V30 4041 C 386.302 4.14265 5.88028 0
M  V30 4042 C 388.328 3.05448 5.06414 0
M  V30 4043 C 387.69 4.12564 5.70938 0
M  V30 4044 H 383.789 0.0310673 0.781383 0
M  V30 4045 H 386.373 0.683579 1.82305 0
M  V30 4046 H 384.544 -0.909127 3.7761 0
M  V30 4047 H 386.276 -0.761377 3.97473 0
M  V30 4048 H 383.031 1.16132 4.59141 0
M  V30 4049 H 383.455 3.48499 5.80412 0
M  V30 4050 H 388.097 1.15924 4.06597 0
M  V30 4051 H 385.815 4.96569 6.3753 0
M  V30 4052 H 389.401 3.06941 4.94246 0
M  V30 4053 H 388.281 4.94767 6.0842 0
M  V30 4054 N 385.784 -1.5574 0.241426 0
M  V30 4055 C 386.694 -2.2479 -0.671305 0
M  V30 4056 C 387.71 -1.26217 -1.19772 0
M  V30 4057 O 388.886 -1.59079 -1.23514 0
M  V30 4058 C 385.951 -2.92966 -1.85396 0
M  V30 4059 C 385.012 -4.06935 -1.36756 0
M  V30 4060 C 384.245 -4.71851 -2.49384 0
M  V30 4061 O 384.468 -4.35823 -3.67987 0
M  V30 4062 O 383.402 -5.60467 -2.19454 0
M  V30 4063 H 387.228 -3.0349 -0.112966 0
M  V30 4064 H 384.813 -1.49397 0.0101513 0
M  V30 4065 H 386.695 -3.35927 -2.54423 0
M  V30 4066 H 385.37 -2.17211 -2.40002 0
M  V30 4067 H 384.277 -3.68503 -0.644726 0
M  V30 4068 H 385.61 -4.84492 -0.867647 0
M  V30 4069 N 387.262 0.0317525 -1.57568 0
M  V30 4070 C 388.172 1.05021 -2.0978 0
M  V30 4071 C 389.188 1.39809 -1.03583 0
M  V30 4072 O 390.364 1.49182 -1.35302 0
M  V30 4073 C 387.429 2.33301 -2.56459 0
M  V30 4074 C 386.49 2.0512 -3.77127 0
M  V30 4075 C 385.723 3.27283 -4.2157 0
M  V30 4076 O 385.946 4.37861 -3.65559 0
M  V30 4077 O 384.88 3.13141 -5.14029 0
M  V30 4078 H 388.706 0.636505 -2.96955 0
M  V30 4079 H 386.291 0.248559 -1.47318 0
M  V30 4080 H 388.173 3.08722 -2.86825 0
M  V30 4081 H 386.848 2.73973 -1.72397 0
M  V30 4082 H 385.755 1.27276 -3.51784 0
M  V30 4083 H 387.088 1.69305 -4.62165 0
M  V30 4084 N 388.74 1.54641 0.303973 0
M  V30 4085 C 389.67 1.88386 1.3796 0
M  V30 4086 C 390.651 0.742485 1.5304 0
M  V30 4087 O 391.836 0.997959 1.66597 0
M  V30 4088 C 388.966 2.12854 2.74427 0
M  V30 4089 C 387.92 3.28702 2.74115 0
M  V30 4090 C 387.246 3.38582 4.13844 0
M  V30 4091 C 388.546 4.65881 2.3612 0
M  V30 4092 H 390.24 2.78474 1.09966 0
M  V30 4093 H 387.786 1.33988 0.527556 0
M  V30 4094 H 389.739 2.35047 3.49758 0
M  V30 4095 H 388.463 1.19535 3.03939 0
M  V30 4096 H 387.122 3.06428 2.0124 0
M  V30 4097 H 386.77 2.42784 4.40528 0
M  V30 4098 H 386.47 4.16453 4.14537 0
M  V30 4099 H 387.994 3.63031 4.90959 0
M  V30 4100 H 389.408 4.87823 3.01167 0
M  V30 4101 H 387.805 5.46444 2.48031 0
M  V30 4102 H 388.875 4.66799 1.3125 0
M  V30 4103 N 390.218 -0.567019 1.47046 0
M  V30 4104 C 391.629 -1.14916 1.47143 0
M  V30 4105 C 391.98 -1.94954 0.220767 0
M  V30 4106 O 391.105 -2.05602 -0.67505 0
M  V30 4107 C 391.7 -2.09069 2.666 0
M  V30 4108 C 390.259 -2.62575 2.69687 0
M  V30 4109 C 389.406 -1.38755 2.40088 0
M  V30 4110 H 392.357 -0.354126 1.54699 0
M  V30 4111 H 392.378 -2.92789 2.43011 0
M  V30 4112 H 391.89 -1.50789 3.57609 0
M  V30 4113 H 389.991 -3.24681 1.82792 0
M  V30 4114 H 390.104 -3.04239 3.70102 0
M  V30 4115 H 388.468 -1.69098 1.90468 0
M  V30 4116 H 389.251 -0.822822 3.33293 0
M  V30 4117 N 391.696 -1.35014 -0.812953 0
M  V30 4118 C 392.606 -1.2951 -1.95613 0
M  V30 4119 C 393.622 -0.20107 -1.72834 0
M  V30 4120 O 394.798 -0.42932 -1.96771 0
M  V30 4121 C 391.863 -1.06033 -3.30088 0
M  V30 4122 C 390.924 -2.24688 -3.65805 0
M  V30 4123 C 390.157 -2.02322 -4.93864 0
M  V30 4124 O 390.38 -0.986464 -5.61805 0
M  V30 4125 O 389.314 -2.89525 -5.27692 0
M  V30 4126 H 393.14 -2.25705 -2.03202 0
M  V30 4127 H 390.725 -1.15321 -0.949811 0
M  V30 4128 H 392.607 -0.94763 -4.10607 0
M  V30 4129 H 391.282 -0.128852 -3.23443 0
M  V30 4130 H 390.189 -2.41521 -2.85689 0
M  V30 4131 H 391.522 -3.16261 -3.77147 0
M  V30 4132 N 393.175 1.03435 -1.18907 0
M  V30 4133 C 394.421 1.77005 -0.989798 0
M  V30 4134 C 394.754 1.88205 0.478816 0
M  V30 4135 O 394.029 1.39481 1.35556 0
M  V30 4136 C 394.312 3.19925 -1.65287 0
M  V30 4137 C 394.165 3.1663 -3.19477 0
M  V30 4138 C 395.484 4.18189 -1.37134 0
M  V30 4139 H 392.603 0.642538 -0.360991 0
M  V30 4140 H 395.245 1.20784 -1.46667 0
M  V30 4141 H 393.395 3.67929 -1.24741 0
M  V30 4142 H 395.067 2.76567 -3.692 0
M  V30 4143 H 393.31 2.54491 -3.51307 0
M  V30 4144 H 393.981 4.1758 -3.61013 0
M  V30 4145 H 396.457 3.78761 -1.72276 0
M  V30 4146 H 395.333 5.16394 -1.86087 0
M  V30 4147 H 395.594 4.41112 -0.295424 0
M  V30 4148 N 394.653 0.992116 1.22453 0
M  V30 4149 C 395.899 0.668523 1.91464 0
M  V30 4150 C 396.232 -0.797313 1.77078 0
M  V30 4151 O 395.507 -1.5765 1.13916 0
M  V30 4152 C 395.79 1.07424 3.43703 0
M  V30 4153 C 395.643 2.59857 3.67143 0
M  V30 4154 C 396.962 0.626891 4.35612 0
M  V30 4155 H 394.081 0.244341 0.695318 0
M  V30 4156 H 396.723 1.2355 1.44345 0
M  V30 4157 H 394.873 0.591816 3.83966 0
M  V30 4158 H 396.545 3.15764 3.3629 0
M  V30 4159 H 394.788 3.01961 3.11451 0
M  V30 4160 H 395.459 2.83296 4.73759 0
M  V30 4161 H 397.935 1.04125 4.02861 0
M  V30 4162 H 396.811 0.939076 5.40807 0
M  V30 4163 H 397.072 -0.472457 4.39568 0
M  V30 4164 N 396.131 -1.37776 0.765217 0
M  V30 4165 C 397.547 -1.53297 0.444108 0
M  V30 4166 C 397.747 -1.72515 -1.04119 0
M  V30 4167 O 396.803 -1.74278 -1.82711 0
M  V30 4168 C 398.116 -2.73328 1.25349 0
M  V30 4169 C 399.664 -2.87185 1.24473 0
M  V30 4170 C 400.139 -4.10191 2.03733 0
M  V30 4171 N 401.63 -4.17291 2.01053 0
M  V30 4172 C 402.365 -5.11488 2.59166 0
M  V30 4173 N 401.861 -6.11285 3.26041 0
M  V30 4174 N 403.654 -5.03924 2.49032 0
M  V30 4175 H 395.805 -1.23552 1.72768 0
M  V30 4176 H 398.068 -0.601103 0.733062 0
M  V30 4177 H 397.774 -2.6557 2.30577 0
M  V30 4178 H 397.648 -3.66834 0.87823 0
M  V30 4179 H 400.035 -2.94418 0.20047 0
M  V30 4180 H 400.116 -1.94657 1.65959 0
M  V30 4181 H 399.76 -4.0372 3.08176 0
M  V30 4182 H 399.69 -5.01821 1.59633 0
M  V30 4183 H 402.181 -3.45825 1.5236 0
M  V30 4184 H 402.494 -6.79678 3.67774 0
M  V30 4185 H 400.839 -6.11583 3.30138 0
M  V30 4186 H 404.03 -4.24902 1.96407 0
M  V30 4187 H 404.203 -5.77152 2.94617 0
M  V30 4188 N 397.609 -0.515225 -1.4894 0
M  V30 4189 C 398.556 0.255567 -2.29381 0
M  V30 4190 C 399.526 0.947387 -1.36432 0
M  V30 4191 O 400.711 0.951288 -1.65394 0
M  V30 4192 C 397.851 1.30551 -3.19453 0
M  V30 4193 C 396.964 0.624029 -4.27469 0
M  V30 4194 C 396.099 1.65563 -5.0474 0
M  V30 4195 C 395.138 0.956802 -6.04576 0
M  V30 4196 N 394.275 1.93326 -6.74959 0
M  V30 4197 H 399.115 -0.436607 -2.94784 0
M  V30 4198 H 396.652 -0.227154 -1.45336 0
M  V30 4199 H 398.61 1.92639 -3.70062 0
M  V30 4200 H 397.24 1.96626 -2.56004 0
M  V30 4201 H 396.292 -0.110459 -3.8024 0
M  V30 4202 H 397.604 0.0746092 -4.98744 0
M  V30 4203 H 396.758 2.35119 -5.59289 0
M  V30 4204 H 395.497 2.23893 -4.3327 0
M  V30 4205 H 394.502 0.247097 -5.49244 0
M  V30 4206 H 395.727 0.379814 -6.78037 0
M  V30 4207 H 393.673 2.50591 -6.06251 0
M  V30 4208 H 393.59 1.43489 -7.42258 0
M  V30 4209 H 394.858 2.62126 -7.34105 0
M  V30 4210 N 399.087 1.5561 -0.249682 0
M  V30 4211 C 400.364 1.90932 0.424761 0
M  V30 4212 C 400.744 1.17078 1.75658 0
M  V30 4213 O 400.092 0.289176 2.26663 0
M  V30 4214 C 400.302 3.43975 0.590109 0
M  V30 4215 C 401.65 4.15281 0.884714 0
M  V30 4216 O 402.674 3.49729 0.67587 0
M  V30 4217 O 401.533 5.31236 1.28259 0
M  V30 4218 H 398.627 0.794815 0.228468 0
M  V30 4219 H 401.173 1.67135 -0.293954 0
M  V30 4220 H 399.945 3.89748 -0.34818 0
M  V30 4221 H 399.568 3.73644 1.35926 0
M  V30 4222 N 400.565 -0.0233959 1.57583 0
M  V30 4223 C 401.795 -0.723631 1.93513 0
M  V30 4224 C 402.203 -1.69115 0.848333 0
M  V30 4225 O 401.546 -1.82781 -0.183484 0
M  V30 4226 C 401.608 -1.53075 3.25282 0
M  V30 4227 C 401.272 -0.727388 4.51174 0
M  V30 4228 C 402.269 -0.0251924 5.19894 0
M  V30 4229 C 399.954 -0.680256 4.97672 0
M  V30 4230 C 401.948 0.713374 6.33395 0
M  V30 4231 C 399.635 0.0620523 6.11068 0
M  V30 4232 C 400.633 0.757622 6.78785 0
M  V30 4233 O 400.321 1.48787 7.90011 0
M  V30 4234 H 400.053 -0.208051 0.643188 0
M  V30 4235 H 402.607 0.0167489 2.05393 0
M  V30 4236 H 400.837 -2.31508 3.09744 0
M  V30 4237 H 402.526 -2.11413 3.46496 0
M  V30 4238 H 403.292 -0.0526003 4.84971 0
M  V30 4239 H 399.171 -1.21116 4.44805 0
M  V30 4240 H 402.715 1.25683 6.86185 0
M  V30 4241 H 398.612 0.0913634 6.45435 0
M  V30 4242 H 399.38 1.40213 8.06401 0
M  V30 4243 N 402.043 -1.548 -0.295768 0
M  V30 4244 C 403.291 -1.73985 -1.02828 0
M  V30 4245 C 403.612 -0.531406 -1.87619 0
M  V30 4246 O 402.882 0.454221 -1.90561 0
M  V30 4247 H 401.462 -0.641556 -0.382642 0
M  V30 4248 H 404.124 -1.92163 -0.325489 0
M  V30 4249 H 403.22 -2.63129 -1.67838 0
M  V30 4250 N 403.521 0.559213 -1.47345 0
M  V30 4251 C 404.468 1.66645 -1.59682 0
M  V30 4252 C 405.438 1.60168 -0.43994 0
M  V30 4253 O 406.623 1.79031 -0.659736 0
M  V30 4254 C 403.763 3.04969 -1.61518 0
M  V30 4255 C 402.876 3.21897 -2.88108 0
M  V30 4256 C 402.011 4.50608 -2.81294 0
M  V30 4257 C 401.05 4.60961 -4.02717 0
M  V30 4258 N 400.187 5.81024 -3.94151 0
M  V30 4259 H 405.027 1.55439 -2.54249 0
M  V30 4260 H 402.564 0.757219 -1.26113 0
M  V30 4261 H 404.522 3.85064 -1.60566 0
M  V30 4262 H 403.152 3.15015 -0.704645 0
M  V30 4263 H 402.204 2.35248 -2.98936 0
M  V30 4264 H 403.516 3.25412 -3.78032 0
M  V30 4265 H 402.67 5.3896 -2.7858 0
M  V30 4266 H 401.409 4.49568 -1.89049 0
M  V30 4267 H 400.414 3.71021 -4.05738 0
M  V30 4268 H 401.639 4.63761 -4.96087 0
M  V30 4269 H 399.585 5.80938 -3.04708 0
M  V30 4270 H 399.502 5.85909 -4.77752 0
M  V30 4271 H 400.77 6.71744 -3.9545 0
M  V30 4272 N 404.999 1.35443 0.805782 0
M  V30 4273 C 405.946 1.28431 1.91766 0
M  V30 4274 C 406.916 0.156102 1.65365 0
M  V30 4275 O 408.101 0.339936 1.87747 0
M  V30 4276 C 405.241 1.06301 3.2832 0
M  V30 4277 C 404.354 2.2805 3.66902 0
M  V30 4278 C 403.489 1.99064 4.92491 0
M  V30 4279 C 402.528 3.16863 5.23703 0
M  V30 4280 N 401.665 2.87647 6.40471 0
M  V30 4281 H 406.505 2.23511 1.97096 0
M  V30 4282 H 404.042 1.11105 0.964054 0
M  V30 4283 H 406 0.915012 4.07042 0
M  V30 4284 H 404.63 0.148822 3.22457 0
M  V30 4285 H 403.682 2.53711 2.83434 0
M  V30 4286 H 404.994 3.1601 3.85927 0
M  V30 4287 H 404.148 1.81099 5.7904 0
M  V30 4288 H 402.887 1.0839 4.75503 0
M  V30 4289 H 401.892 3.35404 4.35642 0
M  V30 4290 H 403.117 4.08339 5.4262 0
M  V30 4291 H 401.063 1.99568 6.24907 0
M  V30 4292 H 400.98 3.69141 6.59751 0
M  V30 4293 H 402.248 2.73226 7.30047 0
M  V30 4294 N 406.477 -1.02803 1.19454 0
M  V30 4295 C 407.707 -1.79581 1.02149 0
M  V30 4296 C 408.115 -1.84182 -0.432851 0
M  V30 4297 O 407.458 -1.28534 -1.31243 0
M  V30 4298 C 407.52 -3.25993 1.51554 0
M  V30 4299 C 407.184 -3.45025 2.99678 0
M  V30 4300 C 408.181 -3.35175 3.97434 0
M  V30 4301 C 405.866 -3.71212 3.38389 0
M  V30 4302 C 407.86 -3.51238 5.31893 0
M  V30 4303 C 405.547 -3.8692 4.73008 0
M  V30 4304 C 406.545 -3.76936 5.69569 0
M  V30 4305 O 406.233 -3.92179 7.01748 0
M  V30 4306 H 405.965 -0.571962 0.360327 0
M  V30 4307 H 408.519 -1.30367 1.58725 0
M  V30 4308 H 406.749 -3.76235 0.893543 0
M  V30 4309 H 408.438 -3.84368 1.30444 0
M  V30 4310 H 409.204 -3.14895 3.68872 0
M  V30 4311 H 405.083 -3.78075 2.6378 0
M  V30 4312 H 408.627 -3.43362 6.07247 0
M  V30 4313 H 404.524 -4.06699 5.01265 0
M  V30 4314 H 405.292 -4.09265 7.08833 0
M  V30 4315 N 407.956 -0.998596 -1.21925 0
M  V30 4316 C 409.203 -0.677663 -1.90824 0
M  V30 4317 C 409.531 0.790905 -1.77693 0
M  V30 4318 O 408.786 1.58817 -1.14349 0
M  V30 4319 C 409.085 -1.03648 -3.42041 0
M  V30 4320 C 408.751 -2.49825 -3.75364 0
M  V30 4321 C 407.413 -2.8977 -3.8417 0
M  V30 4322 C 409.765 -3.44545 -3.91073 0
M  V30 4323 C 407.093 -4.23412 -4.06127 0
M  V30 4324 C 409.445 -4.77853 -4.14535 0
M  V30 4325 C 408.109 -5.17531 -4.21566 0
M  V30 4326 H 407.379 -0.247975 -0.698276 0
M  V30 4327 H 410.026 -1.25584 -1.44571 0
M  V30 4328 H 408.331 -0.376457 -3.89987 0
M  V30 4329 H 410.028 -0.766113 -3.93614 0
M  V30 4330 H 406.618 -2.17866 -3.69097 0
M  V30 4331 H 410.802 -3.14853 -3.83642 0
M  V30 4332 H 406.058 -4.53734 -4.09799 0
M  V30 4333 H 410.232 -5.51189 -4.25633 0
M  V30 4334 H 407.859 -6.21102 -4.38333 0
M  V30 4335 N 409.434 1.37368 -0.772513 0
M  V30 4336 C 410.711 1.93839 -0.26188 0
M  V30 4337 C 411.091 1.7061 1.24319 0
M  V30 4338 O 410.439 1.05534 2.02669 0
M  V30 4339 C 410.649 3.43154 -0.636102 0
M  V30 4340 C 411.997 4.20249 -0.606324 0
M  V30 4341 O 413.021 3.5152 -0.575538 0
M  V30 4342 O 411.88 5.42809 -0.634086 0
M  V30 4343 H 408.974 0.82478 -0.0605555 0
M  V30 4344 H 411.52 1.4665 -0.853917 0
M  V30 4345 H 410.292 3.53647 -1.6748 0
M  V30 4346 H 409.915 3.97596 -0.0170516 0
M  V30 4347 N 410.912 0.523116 1.48665 0
M  V30 4348 C 411.822 -0.247406 2.33292 0
M  V30 4349 C 412.838 -0.945769 1.46052 0
M  V30 4350 O 414.014 -0.922253 1.79043 0
M  V30 4351 C 411.079 -1.28487 3.22012 0
M  V30 4352 C 410.14 -0.597592 4.2512 0
M  V30 4353 C 409.373 -1.58563 5.09601 0
M  V30 4354 O 409.596 -2.81763 4.95949 0
M  V30 4355 O 408.53 -1.12879 5.91221 0
M  V30 4356 H 412.356 0.445869 3.00409 0
M  V30 4357 H 409.941 0.284128 1.46673 0
M  V30 4358 H 411.823 -1.88459 3.7691 0
M  V30 4359 H 410.498 -1.96068 2.57564 0
M  V30 4360 H 409.405 0.0424407 3.74076 0
M  V30 4361 H 410.738 0.0361517 4.92187 0
M  V30 4362 N 412.39 -1.55475 0.257931 0
M  V30 4363 C 413.337 -2.21837 -0.636939 0
M  V30 4364 C 414.307 -1.18596 -1.16294 0
M  V30 4365 O 415.492 -1.47081 -1.21539 0
M  V30 4366 C 412.632 -2.9301 -1.82317 0
M  V30 4367 C 411.745 -4.10931 -1.33265 0
M  V30 4368 C 410.88 -4.69791 -2.47931 0
M  V30 4369 C 409.919 -5.7994 -1.95796 0
M  V30 4370 N 409.056 -6.32935 -3.0387 0
M  V30 4371 H 413.896 -2.9793 -0.0643591 0
M  V30 4372 H 411.433 -1.47086 -0.0200031 0
M  V30 4373 H 413.391 -3.3248 -2.52018 0
M  V30 4374 H 412.021 -2.1937 -2.36805 0
M  V30 4375 H 411.073 -3.76699 -0.52931 0
M  V30 4376 H 412.385 -4.90417 -0.910654 0
M  V30 4377 H 411.539 -5.11892 -3.25656 0
M  V30 4378 H 410.278 -3.89545 -2.93438 0
M  V30 4379 H 409.283 -5.37305 -1.16546 0
M  V30 4380 H 410.508 -6.62043 -1.51246 0
M  V30 4381 H 408.454 -5.55591 -3.48791 0
M  V30 4382 H 408.371 -7.07645 -2.66035 0
M  V30 4383 H 409.639 -6.79695 -3.81621 0
M  V30 4384 N 413.868 0.0150385 -1.57593 0
M  V30 4385 C 415.117 0.702115 -1.89085 0
M  V30 4386 C 415.43 1.75764 -0.858277 0
M  V30 4387 O 416.636 2.49829 -1.0629 0
M  V30 4388 C 415.092 1.29992 -3.35604 0
M  V30 4389 C 414.7 0.280007 -4.47124 0
M  V30 4390 C 416.444 1.96606 -3.76227 0
M  V30 4391 C 414.351 0.886949 -5.84711 0
M  V30 4392 H 413.281 0.265997 -0.705522 0
M  V30 4393 H 415.932 -0.0430408 -1.8345 0
M  V30 4394 H 414.314 2.09525 -3.36029 0
M  V30 4395 H 415.488 -0.489631 -4.58191 0
M  V30 4396 H 413.803 -0.284835 -4.15425 0
M  V30 4397 H 416.4 2.42893 -4.76347 0
M  V30 4398 H 416.743 2.79024 -3.08952 0
M  V30 4399 H 417.276 1.23828 -3.78036 0
M  V30 4400 H 414.015 0.101876 -6.55421 0
M  V30 4401 H 413.535 1.6261 -5.77337 0
M  V30 4402 H 415.214 1.39011 -6.3189 0
M  V30 4403 N 415.346 1.54954 0.287554 0
M  V30 4404 C 416.309 1.86076 1.33823 0
M  V30 4405 C 417.309 0.734414 1.43049 0
M  V30 4406 O 418.499 1.00266 1.42452 0
M  V30 4407 C 415.631 2.05305 2.72144 0
M  V30 4408 H 416.824 2.79984 1.07465 0
M  V30 4409 H 414.377 1.47223 0.524902 0
M  V30 4410 H 415.112 1.1373 3.03704 0
M  V30 4411 H 414.897 2.873 2.66836 0
M  V30 4412 H 416.387 2.30706 3.48087 0
M  V30 4413 N 416.824 -0.551391 1.4764 0
M  V30 4414 C 417.771 -1.65796 1.60563 0
M  V30 4415 C 418.741 -1.59932 0.448428 0
M  V30 4416 O 419.926 -1.78679 0.669222 0
M  V30 4417 C 417.066 -3.04108 1.63133 0
M  V30 4418 C 416.179 -3.20365 2.89811 0
M  V30 4419 C 415.314 -4.49109 2.8368 0
M  V30 4420 C 414.353 -4.58819 4.05156 0
M  V30 4421 N 413.49 -5.78926 3.97227 0
M  V30 4422 H 418.33 -1.54088 2.5507 0
M  V30 4423 H 415.867 -0.75052 1.26513 0
M  V30 4424 H 417.825 -3.84207 1.62606 0
M  V30 4425 H 416.455 -3.14637 0.721341 0
M  V30 4426 H 415.507 -2.33659 3.00179 0
M  V30 4427 H 416.819 -3.23402 3.79753 0
M  V30 4428 H 415.973 -5.37475 2.81434 0
M  V30 4429 H 414.712 -4.4856 1.91431 0
M  V30 4430 H 413.717 -3.68864 4.077 0
M  V30 4431 H 414.942 -4.61124 4.98539 0
M  V30 4432 H 412.888 -5.79314 3.07785 0
M  V30 4433 H 412.805 -5.83367 4.80853 0
M  V30 4434 H 414.073 -6.69637 3.99007 0
M  V30 4435 N 418.302 -1.35869 -0.798587 0
M  V30 4436 C 419.235 -1.23801 -1.91699 0
M  V30 4437 C 420.213 -0.124143 -1.62125 0
M  V30 4438 O 421.397 -0.293656 -1.86199 0
M  V30 4439 C 418.524 -0.908063 -3.263 0
M  V30 4440 C 417.57 -2.0351 -3.74815 0
M  V30 4441 S 418.403 -3.65183 -3.91665 0
M  V30 4442 C 419.559 -3.34283 -5.29156 0
M  V30 4443 H 419.792 -2.18466 -2.01643 0
M  V30 4444 H 417.325 -1.21178 -0.956833 0
M  V30 4445 H 419.283 -0.724506 -4.04056 0
M  V30 4446 H 417.944 0.0206584 -3.14093 0
M  V30 4447 H 417.137 -1.75858 -4.72324 0
M  V30 4448 H 416.739 -2.1774 -3.04081 0
M  V30 4449 H 419.031 -2.87607 -6.13424 0
M  V30 4450 H 419.974 -4.31022 -5.61806 0
M  V30 4451 H 420.382 -2.69854 -4.95822 0
M  V30 4452 N 419.78 1.02168 -1.19998 0
M  V30 4453 C 420.69 2.14069 -0.959774 0
M  V30 4454 C 421.706 1.73804 0.082655 0
M  V30 4455 O 422.882 2.01133 -0.103633 0
M  V30 4456 C 419.947 3.42936 -0.509459 0
M  V30 4457 C 419.008 3.97474 -1.62213 0
M  V30 4458 C 418.241 5.2019 -1.19321 0
M  V30 4459 O 418.464 5.70369 -0.0597726 0
M  V30 4460 O 417.398 5.67749 -1.99863 0
M  V30 4461 H 421.224 2.37199 -1.89658 0
M  V30 4462 H 418.809 1.12469 -0.983411 0
M  V30 4463 H 420.691 4.20551 -0.267322 0
M  V30 4464 H 419.366 3.21234 0.398821 0
M  V30 4465 H 418.273 3.21161 -1.9185 0
M  V30 4466 H 419.606 4.23555 -2.50723 0
M  V30 4467 N 421.258 1.00505 1.21394 0
M  V30 4468 C 422.486 0.706609 1.9446 0
M  V30 4469 C 422.901 -0.73081 1.74082 0
M  V30 4470 O 422.258 -1.49446 1.04747 0
M  V30 4471 C 422.309 1.01824 3.46863 0
M  V30 4472 O 422.03 2.39919 3.66566 0
M  V30 4473 C 423.531 0.739216 4.37093 0
M  V30 4474 H 420.751 0.260394 0.618414 0
M  V30 4475 H 423.295 1.34311 1.54211 0
M  V30 4476 H 421.45 0.427343 3.85036 0
M  V30 4477 H 421.864 2.50784 4.6066 0
M  V30 4478 H 423.338 1.00744 5.42729 0
M  V30 4479 H 423.815 -0.326746 4.37983 0
M  V30 4480 H 424.421 1.31173 4.04566 0
M  V30 4481 N 422.737 -1.36956 0.779787 0
M  V30 4482 C 423.967 -2.03459 0.358877 0
M  V30 4483 C 424.375 -1.58939 -1.02641 0
M  V30 4484 O 423.718 -0.769777 -1.66794 0
M  V30 4485 C 423.78 -3.5796 0.332393 0
M  V30 4486 C 423.444 -4.25644 1.66362 0
M  V30 4487 C 424.441 -4.49205 2.61746 0
M  V30 4488 C 422.126 -4.63313 1.94027 0
M  V30 4489 C 424.12 -5.09503 3.82996 0
M  V30 4490 C 421.807 -5.2333 3.15546 0
M  V30 4491 C 422.805 -5.46363 4.0985 0
M  V30 4492 O 422.493 -6.05122 5.29228 0
M  V30 4493 H 422.225 -0.659767 0.147254 0
M  V30 4494 H 424.779 -1.76111 1.05708 0
M  V30 4495 H 423.009 -3.84388 -0.422237 0
M  V30 4496 H 424.698 -4.05852 -0.0625389 0
M  V30 4497 H 425.464 -4.20508 2.41657 0
M  V30 4498 H 421.343 -4.44715 1.21448 0
M  V30 4499 H 424.887 -5.27397 4.56617 0
M  V30 4500 H 420.784 -5.51451 3.35517 0
M  V30 4501 H 421.552 -6.23595 5.30161 0
M  V30 4502 N 424.215 -0.530993 -1.48385 0
M  V30 4503 C 425.455 0.000718982 -2.044 0
M  V30 4504 C 425.819 1.31485 -1.39913 0
M  V30 4505 O 427.02 1.93265 -1.86821 0
M  V30 4506 C 425.291 0.119177 -3.57201 0
M  V30 4507 S 426.85 0.600806 -4.34667 0
M  V30 4508 H 423.668 -0.0125473 -0.710889 0
M  V30 4509 H 426.27 -0.711783 -1.82082 0
M  V30 4510 H 424.974 -0.842061 -4.01668 0
M  V30 4511 H 424.505 0.856026 -3.83974 0
M  V30 4512 H 426.52 1.86514 -4.59812 0
M  V30 4513 N 425.693 1.55336 -0.266172 0
M  V30 4514 C 426.918 2.04258 0.359661 0
M  V30 4515 C 427.343 1.14359 1.49344 0
M  V30 4516 O 426.701 0.140369 1.80756 0
M  V30 4517 C 426.749 3.50997 0.826635 0
M  V30 4518 O 425.853 3.64204 1.93466 0
M  V30 4519 H 425.194 0.659668 0.075727 0
M  V30 4520 H 427.724 2.00694 -0.39786 0
M  V30 4521 H 427.734 3.9219 1.12477 0
M  V30 4522 H 426.409 4.159 -0.00293032 0
M  V30 4523 H 424.986 3.34913 1.63974 0
M  V30 4524 N 427.171 -0.0066808 1.57599 0
M  V30 4525 C 428.396 -0.707738 1.94951 0
M  V30 4526 C 428.821 -1.66882 0.867868 0
M  V30 4527 O 428.179 -1.80457 -0.17458 0
M  V30 4528 C 428.227 -1.42162 3.31394 0
M  V30 4529 O 427.331 -2.53578 3.25226 0
M  V30 4530 H 426.672 -0.188752 0.636607 0
M  V30 4531 H 429.202 0.0445193 2.04552 0
M  V30 4532 H 429.212 -1.78655 3.66806 0
M  V30 4533 H 427.887 -0.716903 4.09675 0
M  V30 4534 H 426.464 -2.19463 3.01481 0
M  V30 4535 N 428.649 -1.55105 -0.279332 0
M  V30 4536 C 429.897 -1.75066 -1.00977 0
M  V30 4537 C 430.218 -0.551276 -1.87045 0
M  V30 4538 O 429.488 0.433984 -1.91032 0
M  V30 4539 H 428.068 -0.645578 -0.375816 0
M  V30 4540 H 430.73 -1.92497 -0.305089 0
M  V30 4541 H 429.826 -2.64894 -1.65038 0
M  V30 4542 N 430.127 0.543554 -1.4793 0
M  V30 4543 C 431.352 1.32995 -1.59145 0
M  V30 4544 C 431.777 1.86472 -0.246956 0
M  V30 4545 O 431.135 1.63696 0.779324 0
M  V30 4546 C 431.183 2.46623 -2.63077 0
M  V30 4547 O 430.287 3.49261 -2.19295 0
M  V30 4548 H 429.628 0.394472 -0.534124 0
M  V30 4549 H 432.158 0.655489 -1.93816 0
M  V30 4550 H 432.168 2.93001 -2.83926 0
M  V30 4551 H 430.843 2.07059 -3.60693 0
M  V30 4552 H 429.42 3.09094 -2.08603 0
M  V30 4553 N 431.605 1.3629 0.791371 0
M  V30 4554 C 432.833 1.33562 1.58016 0
M  V30 4555 C 433.248 -0.0835616 1.88615 0
M  V30 4556 O 432.605 -1.0399 1.49974 0
M  V30 4557 C 432.656 2.15517 2.90232 0
M  V30 4558 O 432.377 3.51902 2.60953 0
M  V30 4559 C 433.878 2.20546 3.84544 0
M  V30 4560 H 431.098 0.458226 0.490173 0
M  V30 4561 H 433.642 1.79361 0.982345 0
M  V30 4562 H 431.797 1.73278 3.46487 0
M  V30 4563 H 432.211 3.94644 3.4548 0
M  V30 4564 H 433.685 2.82252 4.74382 0
M  V30 4565 H 434.162 1.20838 4.2225 0
M  V30 4566 H 434.768 2.63013 3.34222 0
M  V30 4567 N 433.083 -1.0153 1.20538 0
M  V30 4568 C 434.36 -1.72327 0.925343 0
M  V30 4569 C 434.74 -2.03383 -0.565547 0
M  V30 4570 O 434.088 -1.69934 -1.52757 0
M  V30 4571 C 434.298 -2.9902 1.79967 0
M  V30 4572 C 435.646 -3.72258 2.04228 0
M  V30 4573 O 436.67 -3.08979 1.77231 0
M  V30 4574 O 435.529 -4.86053 2.4983 0
M  V30 4575 H 432.623 -0.751099 0.346092 0
M  V30 4576 H 435.169 -1.07366 1.31417 0
M  V30 4577 H 433.941 -2.72402 2.80915 0
M  V30 4578 H 433.564 -3.71721 1.41099 0
M  V30 4579 N 434.561 -1.01147 -1.20859 0
M  V30 4580 C 435.789 -0.716911 -1.94082 0
M  V30 4581 C 436.204 0.721568 -1.74467 0
M  V30 4582 O 435.561 1.48889 -1.05539 0
M  V30 4583 C 435.612 -1.03662 -3.46318 0
M  V30 4584 O 435.333 -2.4186 -3.65288 0
M  V30 4585 C 436.834 -0.762386 -4.36695 0
M  V30 4586 H 434.054 -0.26367 -0.617024 0
M  V30 4587 H 436.598 -1.35127 -1.53496 0
M  V30 4588 H 434.753 -0.447757 -3.84804 0
M  V30 4589 H 435.167 -2.53224 -4.59323 0
M  V30 4590 H 436.641 -1.03621 -5.42187 0
M  V30 4591 H 437.118 0.303514 -4.3815 0
M  V30 4592 H 437.724 -1.33316 -4.03865 0
M  V30 4593 N 436.039 1.36541 -0.78704 0
M  V30 4594 C 437.264 2.0409 -0.369053 0
M  V30 4595 C 437.689 1.58957 1.00569 0
M  V30 4596 O 437.047 0.756926 1.64743 0
M  V30 4597 C 437.095 3.57924 -0.438466 0
M  V30 4598 O 436.199 4.08642 0.555479 0
M  V30 4599 H 435.54 0.645142 -0.157122 0
M  V30 4600 H 438.07 1.74545 -1.06749 0
M  V30 4601 H 438.08 4.06887 -0.301218 0
M  V30 4602 H 436.755 3.90127 -1.44132 0
M  V30 4603 H 435.332 3.70958 0.380088 0
M  V30 4604 N 437.518 0.538854 1.48102 0
M  V30 4605 C 438.929 0.100679 1.86428 0
M  V30 4606 C 439.28 -1.32447 1.44749 0
M  V30 4607 O 438.405 -1.99339 0.842199 0
M  V30 4608 C 439 0.175933 3.38343 0
M  V30 4609 C 437.559 -0.207098 3.7583 0
M  V30 4610 C 436.706 0.531741 2.72154 0
M  V30 4611 H 439.657 0.749614 1.3988 0
M  V30 4612 H 439.678 -0.610144 3.75576 0
M  V30 4613 H 439.19 1.21328 3.68648 0
M  V30 4614 H 437.291 -1.24626 3.5114 0
M  V30 4615 H 437.404 0.138687 4.78899 0
M  V30 4616 H 435.768 -0.0230462 2.5469 0
M  V30 4617 H 436.551 1.56989 3.05302 0
M  V30 4618 N 438.996 -1.55193 0.274407 0
M  V30 4619 C 440.242 -1.99877 -0.343086 0
M  V30 4620 C 440.575 -1.16256 -1.55558 0
M  V30 4621 O 439.85 -0.232462 -1.93106 0
M  V30 4622 C 440.133 -3.52706 -0.725965 0
M  V30 4623 C 439.986 -4.47081 0.493818 0
M  V30 4624 C 441.305 -4.11422 -1.56268 0
M  V30 4625 H 438.424 -0.726625 -0.123229 0
M  V30 4626 H 441.066 -1.86136 0.38121 0
M  V30 4627 H 439.216 -3.64546 -1.34307 0
M  V30 4628 H 440.888 -4.47186 1.13237 0
M  V30 4629 H 439.131 -4.1877 1.13201 0
M  V30 4630 H 439.802 -5.51699 0.18217 0
M  V30 4631 H 442.278 -4.02855 -1.04151 0
M  V30 4632 H 441.154 -5.18568 -1.79939 0
M  V30 4633 H 441.415 -3.61607 -2.54348 0
M  V30 4634 N 440.474 -0.00167713 -1.576 0
M  V30 4635 C 441.723 0.682021 -1.89819 0
M  V30 4636 C 442.036 1.74844 -0.876871 0
M  V30 4637 O 443.242 2.48688 -1.08934 0
M  V30 4638 C 441.698 1.26425 -3.36964 0
M  V30 4639 C 441.306 0.232568 -4.47396 0
M  V30 4640 C 443.05 1.92604 -3.78291 0
M  V30 4641 C 440.957 0.824882 -5.85619 0
M  V30 4642 H 439.887 0.258499 -0.708304 0
M  V30 4643 H 442.538 -0.0624957 -1.83394 0
M  V30 4644 H 440.92 2.05949 -3.38232 0
M  V30 4645 H 442.094 -0.5382 -4.57646 0
M  V30 4646 H 440.409 -0.32888 -4.15099 0
M  V30 4647 H 443.006 2.37827 -4.78897 0
M  V30 4648 H 443.349 2.75732 -3.11894 0
M  V30 4649 H 443.882 1.19812 -3.79328 0
M  V30 4650 H 440.621 0.0323542 -6.55492 0
M  V30 4651 H 440.141 1.56477 -5.79029 0
M  V30 4652 H 441.82 1.32301 -6.33329 0
M  V30 4653 N 441.952 1.55251 0.271103 0
M  V30 4654 C 443.229 1.66664 1.02384 0
M  V30 4655 C 443.609 0.534363 2.04225 0
M  V30 4656 O 442.957 -0.465337 2.23712 0
M  V30 4657 C 443.167 3.05961 1.67895 0
M  V30 4658 C 444.515 3.63772 2.18986 0
M  V30 4659 O 445.539 3.08606 1.77878 0
M  V30 4660 O 444.398 4.60429 2.94393 0
M  V30 4661 H 441.492 0.676957 0.475035 0
M  V30 4662 H 444.038 1.67589 0.26681 0
M  V30 4663 H 442.81 3.79815 0.941071 0
M  V30 4664 H 442.433 3.08943 2.5028 0
M  V30 4665 N 443.43 -0.535701 1.48216 0
M  V30 4666 C 444.393 -1.623 1.61838 0
M  V30 4667 C 445.393 -1.53087 0.492024 0
M  V30 4668 O 446.583 -1.5686 0.757668 0
M  V30 4669 C 443.715 -3.01907 1.58319 0
M  V30 4670 H 444.908 -1.51564 2.58783 0
M  V30 4671 H 442.461 -0.757317 1.36727 0
M  V30 4672 H 443.196 -3.18155 0.628299 0
M  V30 4673 H 442.981 -3.10003 2.40085 0
M  V30 4674 H 444.471 -3.80969 1.71033 0
M  V30 4675 N 444.908 -1.36708 -0.784132 0
M  V30 4676 C 446.154 -1.31426 -1.54451 0
M  V30 4677 C 446.487 0.10476 -1.93917 0
M  V30 4678 O 445.762 1.05934 -1.6312 0
M  V30 4679 C 446.045 -2.24189 -2.818 0
M  V30 4680 C 445.898 -3.74813 -2.48667 0
M  V30 4681 C 447.217 -2.15626 -3.83658 0
M  V30 4682 H 444.336 -0.478739 -0.560337 0
M  V30 4683 H 446.978 -1.67305 -0.900498 0
M  V30 4684 H 445.128 -1.93722 -3.36755 0
M  V30 4685 H 446.8 -4.15823 -1.99722 0
M  V30 4686 H 445.043 -3.93989 -1.81535 0
M  V30 4687 H 445.714 -4.35138 -3.39646 0
M  V30 4688 H 448.19 -2.42456 -3.38163 0
M  V30 4689 H 447.066 -2.82694 -4.70506 0
M  V30 4690 H 447.327 -1.14522 -4.27009 0
M  V30 4691 N 446.386 1.0089 -1.21074 0
M  V30 4692 C 447.614 1.78191 -1.05145 0
M  V30 4693 C 448.029 1.84537 0.398952 0
M  V30 4694 O 447.386 1.30393 1.27687 0
M  V30 4695 C 447.437 3.22288 -1.63746 0
M  V30 4696 O 447.158 3.16315 -3.03111 0
M  V30 4697 C 448.659 4.16106 -1.52875 0
M  V30 4698 H 445.879 0.560129 -0.369454 0
M  V30 4699 H 448.423 1.26945 -1.60328 0
M  V30 4700 H 446.578 3.70655 -1.12664 0
M  V30 4701 H 446.992 4.06817 -3.31059 0
M  V30 4702 H 448.466 5.15026 -1.98626 0
M  V30 4703 H 448.943 4.36541 -0.482521 0
M  V30 4704 H 449.549 3.73625 -2.03185 0
M  V30 4705 N 447.864 1.01787 1.20321 0
M  V30 4706 C 448.814 0.559976 2.21016 0
M  V30 4707 C 449.798 -0.385366 1.56217 0
M  V30 4708 O 450.99 -0.208126 1.75772 0
M  V30 4709 C 448.119 -0.0990553 3.43157 0
M  V30 4710 C 447.205 0.86807 4.15121 0
M  V30 4711 N 447.596 2.0261 4.63447 0
M  V30 4712 C 445.894 0.689162 4.40643 0
M  V30 4713 C 446.595 2.63518 5.18588 0
M  V30 4714 N 445.571 1.91569 5.08726 0
M  V30 4715 H 449.373 1.44281 2.56048 0
M  V30 4716 H 446.887 0.883381 1.36272 0
M  V30 4717 H 448.884 -0.444643 4.14522 0
M  V30 4718 H 447.544 -0.977709 3.0963 0
M  V30 4719 H 448.555 2.40598 4.58621 0
M  V30 4720 H 445.232 -0.14133 4.17261 0
M  V30 4721 H 446.622 3.61527 5.66346 0
M  V30 4722 N 449.342 -1.36122 0.79427 0
M  V30 4723 C 450.305 -2.28309 0.201889 0
M  V30 4724 C 451.305 -1.49041 -0.603603 0
M  V30 4725 O 452.495 -1.68964 -0.423888 0
M  V30 4726 C 449.627 -3.3321 -0.719978 0
M  V30 4727 H 450.82 -2.82208 1.01481 0
M  V30 4728 H 448.373 -1.45768 0.564037 0
M  V30 4729 H 449.108 -2.84475 -1.55706 0
M  V30 4730 H 448.893 -3.91835 -0.144266 0
M  V30 4731 H 450.383 -4.02044 -1.12916 0
M  V30 4732 N 450.82 -0.546701 -1.47814 0
M  V30 4733 C 451.75 0.195317 -2.32682 0
M  V30 4734 C 452.731 0.918981 -1.43139 0
M  V30 4735 O 453.916 0.901501 -1.72008 0
M  V30 4736 C 451.046 1.23237 -3.247 0
M  V30 4737 C 450 0.625818 -4.234 0
M  V30 4738 C 449.326 1.76674 -5.04669 0
M  V30 4739 C 450.626 -0.413515 -5.2066 0
M  V30 4740 H 452.32 -0.513184 -2.94969 0
M  V30 4741 H 449.866 -0.248241 -1.41844 0
M  V30 4742 H 451.819 1.75955 -3.82907 0
M  V30 4743 H 450.543 1.97067 -2.60446 0
M  V30 4744 H 449.202 0.120023 -3.66403 0
M  V30 4745 H 448.85 2.49383 -4.36826 0
M  V30 4746 H 448.55 1.36673 -5.71484 0
M  V30 4747 H 450.074 2.29738 -5.65732 0
M  V30 4748 H 451.488 0.0272042 -5.73294 0
M  V30 4749 H 449.885 -0.731825 -5.95621 0
M  V30 4750 H 450.955 -1.31325 -4.66778 0
M  V30 4751 N 452.299 1.55045 -0.282633 0
M  V30 4752 C 453.527 2.04168 0.33512 0
M  V30 4753 C 453.942 1.16071 1.48906 0
M  V30 4754 O 453.299 0.182391 1.81586 0
M  V30 4755 C 453.35 3.52332 0.808957 0
M  V30 4756 O 453.071 4.37078 -0.299038 0
M  V30 4757 C 454.572 4.17375 1.49375 0
M  V30 4758 H 451.792 0.666744 0.0754543 0
M  V30 4759 H 454.336 2.00205 -0.416918 0
M  V30 4760 H 452.491 3.56715 1.51106 0
M  V30 4761 H 452.905 5.24458 0.0665514 0
M  V30 4762 H 454.379 5.22627 1.77664 0
M  V30 4763 H 454.856 3.65999 2.42778 0
M  V30 4764 H 455.462 4.17016 0.835305 0
M  V30 4765 N 453.777 0.010035 1.57597 0
M  V30 4766 C 454.74 -0.963029 2.07986 0
M  V30 4767 C 455.74 -1.26619 0.991173 0
M  V30 4768 O 456.93 -1.2097 1.25347 0
M  V30 4769 C 454.062 -2.2851 2.52974 0
M  V30 4770 H 455.255 -0.526971 2.95234 0
M  V30 4771 H 452.808 -0.237639 1.54483 0
M  V30 4772 H 453.543 -2.76784 1.69 0
M  V30 4773 H 453.328 -2.07824 3.32493 0
M  V30 4774 H 454.818 -2.98294 2.9225 0
M  V30 4775 N 455.255 -1.55392 -0.262866 0
M  V30 4776 C 456.483 -1.80513 -1.01108 0
M  V30 4777 C 456.898 -0.583533 -1.79556 0
M  V30 4778 O 456.255 0.447585 -1.76926 0
M  V30 4779 C 456.306 -3.03648 -1.96164 0
M  V30 4780 O 456.027 -4.2109 -1.20893 0
M  V30 4781 C 457.528 -3.41448 -2.82715 0
M  V30 4782 H 454.748 -0.601079 -0.298236 0
M  V30 4783 H 457.292 -2.02425 -0.290582 0
M  V30 4784 H 455.447 -2.83832 -2.63663 0
M  V30 4785 H 455.861 -4.90771 -1.85051 0
M  V30 4786 H 457.335 -4.30751 -3.45192 0
M  V30 4787 H 457.812 -2.61308 -3.53008 0
M  V30 4788 H 458.418 -3.63559 -2.20693 0
M  V30 4789 N 456.733 0.527833 -1.48498 0
M  V30 4790 C 457.961 1.30823 -1.6029 0
M  V30 4791 C 458.376 1.86945 -0.263974 0
M  V30 4792 O 457.733 1.6651 0.747034 0
M  V30 4793 C 457.784 2.45756 -2.65116 0
M  V30 4794 O 457.505 1.91946 -3.93813 0
M  V30 4795 C 459.006 3.37543 -2.87367 0
M  V30 4796 H 456.226 0.397763 -0.540394 0
M  V30 4797 H 458.77 0.636529 -1.94341 0
M  V30 4798 H 456.925 3.08806 -2.33917 0
M  V30 4799 H 457.339 2.67195 -4.51339 0
M  V30 4800 H 458.813 4.14532 -3.6451 0
M  V30 4801 H 459.29 3.92905 -1.9627 0
M  V30 4802 H 459.896 2.80283 -3.19878 0
M  V30 4803 N 458.211 1.37122 0.776871 0
M  V30 4804 C 459.622 1.28667 1.35284 0
M  V30 4805 C 459.973 -0.0680035 1.96082 0
M  V30 4806 O 459.098 -0.969743 1.93455 0
M  V30 4807 C 459.693 2.32997 2.45963 0
M  V30 4808 C 458.252 2.28191 2.99342 0
M  V30 4809 C 457.399 2.17101 1.72517 0
M  V30 4810 H 460.35 1.47819 0.577527 0
M  V30 4811 H 460.371 1.97366 3.2531 0
M  V30 4812 H 459.883 3.3158 2.01684 0
M  V30 4813 H 457.984 1.33115 3.4801 0
M  V30 4814 H 458.097 3.21397 3.55304 0
M  V30 4815 H 456.461 1.63562 1.95242 0
M  V30 4816 H 457.244 3.17591 1.30348 0
M  V30 4817 N 459.689 -1.00246 1.21608 0
M  V30 4818 C 460.919 -1.77373 1.05935 0
M  V30 4819 C 461.327 -1.85059 -0.393686 0
M  V30 4820 O 460.67 -1.31289 -1.28487 0
M  V30 4821 C 460.732 -3.22705 1.58435 0
M  V30 4822 C 460.396 -3.38591 3.06929 0
M  V30 4823 C 461.393 -3.2667 4.04454 0
M  V30 4824 C 459.078 -3.6395 3.46187 0
M  V30 4825 C 461.072 -3.39877 5.39224 0
M  V30 4826 C 458.759 -3.768 4.81108 0
M  V30 4827 C 459.757 -3.6477 5.77436 0
M  V30 4828 O 459.445 -3.77206 7.09909 0
M  V30 4829 H 459.177 -0.56419 0.372378 0
M  V30 4830 H 461.731 -1.26971 1.61454 0
M  V30 4831 H 459.961 -3.74255 0.973147 0
M  V30 4832 H 461.65 -3.81515 1.38568 0
M  V30 4833 H 462.416 -3.06999 3.75468 0
M  V30 4834 H 458.295 -3.72395 2.71741 0
M  V30 4835 H 461.839 -3.30404 6.14393 0
M  V30 4836 H 457.736 -3.95975 5.09779 0
M  V30 4837 H 458.504 -3.94138 7.17355 0
M  V30 4838 N 461.167 -1.02423 -1.1978 0
M  V30 4839 C 462.395 -0.737456 -1.93311 0
M  V30 4840 C 462.81 0.703023 -1.75223 0
M  V30 4841 O 462.167 1.47761 -1.07112 0
M  V30 4842 C 462.218 -1.0733 -3.45199 0
M  V30 4843 O 461.939 -2.4572 -3.62702 0
M  V30 4844 C 463.44 -0.80866 -4.35862 0
M  V30 4845 H 460.66 -0.2702 -0.614193 0
M  V30 4846 H 463.204 -1.36747 -1.52054 0
M  V30 4847 H 461.359 -0.488545 -3.84307 0
M  V30 4848 H 461.773 -2.58081 -4.56612 0
M  V30 4849 H 463.247 -1.09365 -5.41057 0
M  V30 4850 H 463.724 0.257025 -4.38447 0
M  V30 4851 H 464.33 -1.37592 -4.02428 0
M  V30 4852 N 462.645 1.35699 -0.801477 0
M  V30 4853 C 464.061 1.52065 -0.484596 0
M  V30 4854 C 464.261 1.75215 0.995084 0
M  V30 4855 O 463.317 1.79061 1.78026 0
M  V30 4856 C 464.63 2.69908 -1.32552 0
M  V30 4857 C 466.178 2.83784 -1.32044 0
M  V30 4858 C 466.653 4.04646 -2.14536 0
M  V30 4859 N 468.144 4.11814 -2.12046 0
M  V30 4860 C 468.879 5.04437 -2.72636 0
M  V30 4861 N 468.375 6.02426 -3.42133 0
M  V30 4862 N 470.168 4.97144 -2.62305 0
M  V30 4863 H 462.319 1.18928 -1.75983 0
M  V30 4864 H 464.582 0.581455 -0.748741 0
M  V30 4865 H 464.288 2.59363 -2.37537 0
M  V30 4866 H 464.162 3.64376 -0.975181 0
M  V30 4867 H 466.549 2.93783 -0.27846 0
M  V30 4868 H 466.63 1.90188 -1.71062 0
M  V30 4869 H 466.274 3.95407 -3.18772 0
M  V30 4870 H 466.204 4.97413 -1.72882 0
M  V30 4871 H 468.695 3.41664 -1.61476 0
M  V30 4872 H 469.008 6.69688 -3.85666 0
M  V30 4873 H 467.353 6.02615 -3.46237 0
M  V30 4874 H 470.544 4.19546 -2.07603 0
M  V30 4875 H 470.717 5.69138 -3.09815 0
M  V30 4876 N 464.123 0.554532 1.47522 0
M  V30 4877 C 465.353 0.0342074 2.06572 0
M  V30 4878 C 465.761 -1.26375 1.40805 0
M  V30 4879 O 465.104 -1.7683 0.49769 0
M  V30 4880 C 465.166 -0.235096 3.5873 0
M  V30 4881 C 464.83 0.973024 4.46521 0
M  V30 4882 C 465.827 1.8779 4.848 0
M  V30 4883 C 463.512 1.18694 4.88075 0
M  V30 4884 C 465.506 2.98039 5.63428 0
M  V30 4885 C 463.193 2.29254 5.66468 0
M  V30 4886 C 464.191 3.18757 6.04055 0
M  V30 4887 O 463.879 4.27401 6.8087 0
M  V30 4888 H 463.611 0.041587 0.67472 0
M  V30 4889 H 466.165 0.766748 1.90552 0
M  V30 4890 H 464.395 -1.02191 3.72953 0
M  V30 4891 H 466.084 -0.700477 3.9981 0
M  V30 4892 H 466.85 1.72467 4.53299 0
M  V30 4893 H 462.729 0.49947 4.58286 0
M  V30 4894 H 466.273 3.67926 5.92685 0
M  V30 4895 H 462.17 2.4455 5.97382 0
M  V30 4896 H 462.938 4.25415 6.9926 0
M  V30 4897 N 465.601 -1.54893 0.290851 0
M  V30 4898 C 466.551 -2.19838 -0.604599 0
M  V30 4899 C 467.535 -1.16805 -1.10659 0
M  V30 4900 O 468.727 -1.42562 -1.04905 0
M  V30 4901 C 465.856 -2.93497 -1.78086 0
M  V30 4902 C 464.942 -4.03835 -1.29531 0
M  V30 4903 N 465.333 -5.03047 -0.527024 0
M  V30 4904 C 463.631 -4.17192 -1.57693 0
M  V30 4905 C 464.332 -5.81074 -0.269728 0
M  V30 4906 N 463.308 -5.36966 -0.846651 0
M  V30 4907 H 467.11 -2.93898 -0.00995032 0
M  V30 4908 H 464.624 -1.62121 0.0951353 0
M  V30 4909 H 466.621 -3.38484 -2.43381 0
M  V30 4910 H 465.281 -2.2095 -2.37931 0
M  V30 4911 H 466.292 -5.17611 -0.172872 0
M  V30 4912 H 462.969 -3.55845 -2.18359 0
M  V30 4913 H 464.359 -6.71005 0.346643 0
M  V30 4914 N 467.08 -0.0183926 -1.57589 0
M  V30 4915 C 468.491 0.521927 -1.79256 0
M  V30 4916 C 468.842 1.72885 -0.927636 0
M  V30 4917 O 467.967 2.15978 -0.135091 0
M  V30 4918 C 468.562 0.953632 -3.25102 0
M  V30 4919 C 467.121 1.43913 -3.47801 0
M  V30 4920 C 466.268 0.398837 -2.74417 0
M  V30 4921 H 469.219 -0.244485 -1.56805 0
M  V30 4922 H 469.24 1.81863 -3.34224 0
M  V30 4923 H 468.752 0.0750123 -3.88028 0
M  V30 4924 H 466.853 2.33804 -2.90115 0
M  V30 4925 H 466.966 1.45391 -4.56507 0
M  V30 4926 H 465.33 0.864572 -2.39577 0
M  V30 4927 H 466.113 -0.471132 -3.40052 0
M  V30 4928 N 468.558 1.5553 0.254621 0
M  V30 4929 C 469.491 1.84624 1.34124 0
M  V30 4930 C 470.469 0.700693 1.46728 0
M  V30 4931 O 471.653 0.94564 1.63064 0
M  V30 4932 C 468.78 2.02412 2.71564 0
M  V30 4933 C 467.826 3.25028 2.7615 0
M  V30 4934 S 468.659 4.81893 2.33538 0
M  V30 4935 C 469.815 5.02677 3.72917 0
M  V30 4936 H 470.048 2.76501 1.09245 0
M  V30 4937 H 467.581 1.47537 0.455211 0
M  V30 4938 H 469.539 2.13345 3.50705 0
M  V30 4939 H 468.2 1.11391 2.93685 0
M  V30 4940 H 467.393 3.34418 3.77069 0
M  V30 4941 H 466.995 3.12781 2.05046 0
M  V30 4942 H 469.287 4.89546 4.68349 0
M  V30 4943 H 470.23 6.0468 3.68467 0
M  V30 4944 H 470.638 4.30561 3.65072 0
M  V30 4945 N 470.036 -0.519951 1.48776 0
M  V30 4946 C 471.313 -1.28123 1.47797 0
M  V30 4947 C 471.693 -2.10196 0.195157 0
M  V30 4948 O 471.041 -2.13167 -0.822925 0
M  V30 4949 C 471.251 -2.15413 2.74587 0
M  V30 4950 C 472.599 -2.75225 3.23321 0
M  V30 4951 O 473.623 -2.25694 2.75574 0
M  V30 4952 O 472.482 -3.65346 4.06429 0
M  V30 4953 H 469.576 -0.578793 0.590701 0
M  V30 4954 H 472.122 -0.535779 1.6102 0
M  V30 4955 H 470.894 -1.54617 3.59457 0
M  V30 4956 H 470.517 -2.97186 2.64132 0
M  V30 4957 N 471.514 -1.37532 -0.769588 0
M  V30 4958 C 472.744 -1.35861 -1.55645 0
M  V30 4959 C 473.152 0.0574398 -1.89113 0
M  V30 4960 O 472.495 1.03021 -1.52093 0
M  V30 4961 C 472.557 -2.13431 -2.89288 0
M  V30 4962 C 472.221 -3.62378 -2.78444 0
M  V30 4963 C 473.218 -4.56215 -2.49326 0
M  V30 4964 C 470.903 -4.05529 -2.96398 0
M  V30 4965 C 472.897 -5.91181 -2.38294 0
M  V30 4966 C 470.584 -5.40579 -2.84987 0
M  V30 4967 C 471.582 -6.33218 -2.55975 0
M  V30 4968 O 471.27 -7.65787 -2.44594 0
M  V30 4969 H 471.002 -0.467001 -0.48876 0
M  V30 4970 H 473.556 -1.81505 -0.961515 0
M  V30 4971 H 471.786 -1.62481 -3.50909 0
M  V30 4972 H 473.475 -2.04368 -3.50697 0
M  V30 4973 H 474.241 -4.24187 -2.35139 0
M  V30 4974 H 470.12 -3.33781 -3.1798 0
M  V30 4975 H 473.664 -6.63457 -2.15571 0
M  V30 4976 H 469.561 -5.72209 -2.98743 0
M  V30 4977 H 470.329 -7.76132 -2.59927 0
M  V30 4978 N 472.992 0.995999 -1.22138 0
M  V30 4979 C 474.222 1.76809 -1.06874 0
M  V30 4980 C 474.63 1.85265 0.383866 0
M  V30 4981 O 473.973 1.31969 1.27789 0
M  V30 4982 C 474.035 3.2186 -1.60144 0
M  V30 4983 C 473.699 3.36958 -3.0872 0
M  V30 4984 C 474.696 3.2452 -4.0618 0
M  V30 4985 C 472.381 3.62109 -3.48112 0
M  V30 4986 C 474.375 3.37013 -5.41019 0
M  V30 4987 C 472.062 3.74243 -4.831 0
M  V30 4988 C 473.06 3.61702 -5.79362 0
M  V30 4989 O 472.748 3.73436 -7.119 0
M  V30 4990 H 472.48 0.562207 -0.375365 0
M  V30 4991 H 475.034 1.26113 -1.62125 0
M  V30 4992 H 473.264 3.73734 -0.992981 0
M  V30 4993 H 474.953 3.80775 -1.40589 0
M  V30 4994 H 475.719 3.05004 -3.77091 0
M  V30 4995 H 471.598 3.70949 -2.73712 0
M  V30 4996 H 475.142 3.27141 -6.16137 0
M  V30 4997 H 471.039 3.93266 -5.11872 0
M  V30 4998 H 471.807 3.90328 -7.19435 0
M  V30 4999 N 474.47 1.03057 1.19235 0
M  V30 5000 C 475.716 0.738841 1.89506 0
M  V30 5001 C 476.071 -0.724807 1.78225 0
M  V30 5002 O 475.364 -1.52118 1.16494 0
M  V30 5003 C 475.558 1.1268 3.39172 0
M  V30 5004 C 475.387 2.62662 3.65019 0
M  V30 5005 C 474.157 3.29658 3.82954 0
M  V30 5006 C 476.355 3.60873 3.66436 0
M  V30 5007 N 474.337 4.68726 3.96446 0
M  V30 5008 C 475.708 4.85566 3.8552 0
M  V30 5009 C 477.763 3.54647 3.49471 0
M  V30 5010 C 476.466 6.04783 3.89397 0
M  V30 5011 C 478.492 4.73281 3.54625 0
M  V30 5012 C 477.854 5.96789 3.74196 0
M  V30 5013 H 473.953 0.322256 0.712513 0
M  V30 5014 H 476.537 1.31822 1.43287 0
M  V30 5015 H 474.708 0.575612 3.84111 0
M  V30 5016 H 476.44 0.787145 3.96971 0
M  V30 5017 H 473.195 2.8007 3.81913 0
M  V30 5018 H 473.619 5.40971 4.07037 0
M  V30 5019 H 478.261 2.60143 3.33295 0
M  V30 5020 H 475.979 6.99654 4.04364 0
M  V30 5021 H 479.565 4.70094 3.42787 0
M  V30 5022 H 478.445 6.87051 3.78061 0
M  V30 5023 N 475.948 -1.35272 0.808662 0
M  V30 5024 C 477.194 -1.99434 0.399717 0
M  V30 5025 C 477.549 -1.62992 -1.02232 0
M  V30 5026 O 476.842 -0.884091 -1.69983 0
M  V30 5027 C 477.036 -3.53556 0.522798 0
M  V30 5028 C 476.865 -4.04969 1.95525 0
M  V30 5029 C 475.635 -4.34228 2.58407 0
M  V30 5030 C 477.833 -4.23362 2.92009 0
M  V30 5031 N 475.815 -4.71585 3.93041 0
M  V30 5032 C 477.186 -4.63739 4.11517 0
M  V30 5033 C 479.241 -4.05576 2.88813 0
M  V30 5034 C 477.944 -4.88189 5.28265 0
M  V30 5035 C 479.97 -4.31184 4.04765 0
M  V30 5036 C 479.332 -4.71834 5.23022 0
M  V30 5037 H 475.431 -0.757534 0.19408 0
M  V30 5038 H 478.015 -1.63939 1.05034 0
M  V30 5039 H 476.186 -3.88277 -0.0978471 0
M  V30 5040 H 477.918 -4.04604 0.0882378 0
M  V30 5041 H 474.673 -4.24621 2.09747 0
M  V30 5042 H 475.097 -4.9452 4.62363 0
M  V30 5043 H 479.739 -3.73288 1.98535 0
M  V30 5044 H 477.457 -5.1935 6.19113 0
M  V30 5045 H 481.043 -4.18972 4.03675 0
M  V30 5046 H 479.923 -4.91263 6.11253 0
M  V30 5047 N 477.426 -0.562348 -1.47226 0
M  V30 5048 C 478.356 0.170627 -2.32876 0
M  V30 5049 C 479.337 0.903748 -1.44106 0
M  V30 5050 O 480.522 0.883206 -1.72954 0
M  V30 5051 C 477.652 1.19786 -3.25989 0
M  V30 5052 C 476.606 0.580875 -4.2404 0
M  V30 5053 C 475.932 1.71311 -5.06514 0
M  V30 5054 C 477.232 -0.468714 -5.20193 0
M  V30 5055 H 478.926 -0.544441 -2.94408 0
M  V30 5056 H 476.472 -0.263271 -1.41573 0
M  V30 5057 H 478.425 1.71884 -3.84752 0
M  V30 5058 H 477.149 1.94294 -2.62521 0
M  V30 5059 H 475.808 0.0811538 -3.6651 0
M  V30 5060 H 475.456 2.44736 -4.39447 0
M  V30 5061 H 475.156 1.30604 -5.72902 0
M  V30 5062 H 476.68 2.23725 -5.68137 0
M  V30 5063 H 478.094 -0.0336028 -5.7329 0
M  V30 5064 H 476.491 -0.794957 -5.94811 0
M  V30 5065 H 477.561 -1.36269 -4.65359 0
M  V30 5066 N 478.904 1.54736 -0.299062 0
M  V30 5067 C 480.32 1.59507 0.0543849 0
M  V30 5068 C 480.52 1.31606 1.52585 0
M  V30 5069 O 479.576 1.08853 2.27832 0
M  V30 5070 C 480.889 2.98751 -0.34181 0
M  V30 5071 C 482.437 3.1165 -0.290414 0
M  V30 5072 C 482.912 4.53199 -0.661402 0
M  V30 5073 N 484.403 4.59114 -0.613863 0
M  V30 5074 C 485.138 5.66709 -0.873417 0
M  V30 5075 N 484.634 6.82349 -1.19884 0
M  V30 5076 N 486.427 5.56369 -0.800608 0
M  V30 5077 H 478.578 1.71133 -1.25806 0
M  V30 5078 H 480.841 0.799186 -0.509908 0
M  V30 5079 H 480.547 3.24085 -1.36608 0
M  V30 5080 H 480.421 3.75961 0.305508 0
M  V30 5081 H 482.808 2.86066 0.724605 0
M  V30 5082 H 482.889 2.366 -0.972327 0
M  V30 5083 H 482.533 4.79513 -1.67422 0
M  V30 5084 H 482.463 5.26583 0.0425612 0
M  V30 5085 H 484.954 3.76053 -0.3732 0
M  V30 5086 H 485.267 7.60326 -1.38291 0
M  V30 5087 H 483.612 6.83906 -1.23685 0
M  V30 5088 H 486.803 4.64904 -0.546045 0
M  V30 5089 H 486.976 6.40139 -1.00626 0
M  V30 5090 N 480.382 0.0267497 1.57577 0
M  V30 5091 C 481.315 -0.99059 2.05579 0
M  V30 5092 C 482.293 -1.31884 0.951065 0
M  V30 5093 O 483.477 -1.43592 1.22121 0
M  V30 5094 C 480.604 -2.31125 2.47586 0
M  V30 5095 C 479.65 -2.13777 3.69055 0
M  V30 5096 S 480.483 -1.4388 5.15809 0
M  V30 5097 C 481.639 -2.77321 5.6111 0
M  V30 5098 H 481.872 -0.581976 2.91548 0
M  V30 5099 H 479.405 -0.184876 1.53289 0
M  V30 5100 H 481.363 -3.07049 2.72454 0
M  V30 5101 H 480.024 -2.6912 1.61967 0
M  V30 5102 H 479.217 -3.11405 3.96287 0
M  V30 5103 H 478.819 -1.45996 3.44327 0
M  V30 5104 H 481.111 -3.73565 5.65204 0
M  V30 5105 H 482.054 -2.54756 6.60685 0
M  V30 5106 H 482.462 -2.82459 4.88751 0
M  V30 5107 N 481.861 -1.55662 -0.24637 0
M  V30 5108 C 482.793 -1.86811 -1.32794 0
M  V30 5109 C 483.806 -0.754413 -1.44265 0
M  V30 5110 O 484.995 -1.03253 -1.45606 0
M  V30 5111 C 482.095 -2.0397 -2.70646 0
M  V30 5112 C 481.268 -3.34832 -2.81436 0
M  V30 5113 C 480.327 -3.41727 -4.00136 0
M  V30 5114 O 479.353 -4.14934 -3.89639 0
M  V30 5115 N 480.555 -2.71058 -5.1333 0
M  V30 5116 H 483.32 -2.80174 -1.06409 0
M  V30 5117 H 480.881 -1.55906 -0.43647 0
M  V30 5118 H 482.873 -2.05924 -3.48393 0
M  V30 5119 H 481.443 -1.1735 -2.89738 0
M  V30 5120 H 480.663 -3.4519 -1.90361 0
M  V30 5121 H 481.951 -4.21085 -2.85595 0
M  V30 5122 H 481.349 -2.11314 -5.2475 0
M  V30 5123 H 479.906 -2.78704 -5.89209 0
M  V30 5124 N 483.339 0.512053 -1.4905 0
M  V30 5125 C 484.588 1.26343 -1.57227 0
M  V30 5126 C 484.901 1.93876 -0.259155 0
M  V30 5127 O 486.107 2.70612 -0.219358 0
M  V30 5128 C 484.563 2.29343 -2.77362 0
M  V30 5129 C 484.171 1.67799 -4.15388 0
M  V30 5130 C 485.915 3.05378 -2.94864 0
M  V30 5131 C 483.822 2.68845 -5.2676 0
M  V30 5132 H 482.752 0.475231 -0.585382 0
M  V30 5133 H 485.403 0.53862 -1.75417 0
M  V30 5134 H 483.785 3.04938 -2.52643 0
M  V30 5135 H 484.959 0.982715 -4.50199 0
M  V30 5136 H 483.274 1.04194 -4.03153 0
M  V30 5137 H 485.871 3.80921 -3.75238 0
M  V30 5138 H 486.214 3.62327 -2.05 0
M  V30 5139 H 486.747 2.36898 -3.19569 0
M  V30 5140 H 483.486 2.16692 -6.18647 0
M  V30 5141 H 483.006 3.36647 -4.96416 0
M  V30 5142 H 484.685 3.31487 -5.5563 0
M  V30 5143 N 484.817 1.37938 0.762283 0
M  V30 5144 C 485.75 1.2884 1.88349 0
M  V30 5145 C 486.728 0.167084 1.61739 0
M  V30 5146 O 487.912 0.34292 1.85355 0
M  V30 5147 C 485.039 0.994257 3.23778 0
M  V30 5148 C 484.085 2.13376 3.69287 0
M  V30 5149 S 484.918 3.75439 3.81845 0
M  V30 5150 C 486.074 3.48195 5.20107 0
M  V30 5151 H 486.307 2.23736 1.95779 0
M  V30 5152 H 483.84 1.23672 0.924368 0
M  V30 5153 H 485.798 0.83138 4.01993 0
M  V30 5154 H 484.459 0.0626251 3.14038 0
M  V30 5155 H 483.652 1.88319 4.67495 0
M  V30 5156 H 483.254 2.25726 2.98201 0
M  V30 5157 H 485.546 3.0377 6.05583 0
M  V30 5158 H 486.489 4.45765 5.50181 0
M  V30 5159 H 486.897 2.82905 4.88493 0
M  V30 5160 N 486.295 -0.989507 1.22664 0
M  V30 5161 C 487.523 -1.76496 1.07967 0
M  V30 5162 C 487.938 -1.85148 -0.369543 0
M  V30 5163 O 487.295 -1.32408 -1.25596 0
M  V30 5164 C 487.346 -3.19642 1.68853 0
M  V30 5165 O 487.067 -3.11453 3.08105 0
M  V30 5166 C 488.568 -4.13621 1.59475 0
M  V30 5167 H 485.788 -0.55418 0.378319 0
M  V30 5168 H 488.332 -1.24378 1.62328 0
M  V30 5169 H 486.487 -3.68816 1.18547 0
M  V30 5170 H 486.901 -4.01499 3.37489 0
M  V30 5171 H 488.375 -5.11801 2.06795 0
M  V30 5172 H 488.852 -4.35718 0.55191 0
M  V30 5173 H 489.458 -3.70346 2.09103 0
M  V30 5174 N 487.773 -1.03688 -1.18687 0
M  V30 5175 C 488.723 -0.595067 -2.20098 0
M  V30 5176 C 489.707 0.360465 -1.5681 0
M  V30 5177 O 490.899 0.180136 -1.76081 0
M  V30 5178 C 488.028 0.0444495 -3.43271 0
M  V30 5179 C 487.114 -0.934002 -4.13687 0
M  V30 5180 N 487.505 -2.09957 -4.60165 0
M  V30 5181 C 485.803 -0.759177 -4.39491 0
M  V30 5182 C 486.504 -2.71735 -5.1433 0
M  V30 5183 N 485.48 -1.99638 -5.05614 0
M  V30 5184 H 489.282 -1.48336 -2.5372 0
M  V30 5185 H 486.796 -0.904949 -1.3485 0
M  V30 5186 H 488.793 0.37864 -4.15177 0
M  V30 5187 H 487.453 0.928325 -3.11147 0
M  V30 5188 H 488.464 -2.47863 -4.54735 0
M  V30 5189 H 485.141 0.0749292 -4.17433 0
M  V30 5190 H 486.531 -3.70492 -5.60523 0
M  V30 5191 N 489.251 1.34841 -0.815825 0
M  V30 5192 C 490.181 2.32187 -0.247298 0
M  V30 5193 C 491.162 1.5791 0.632344 0
M  V30 5194 O 492.347 1.8593 0.560698 0
M  V30 5195 C 489.477 3.42122 0.597466 0
M  V30 5196 C 488.431 4.27602 -0.184446 0
M  V30 5197 C 487.757 5.28942 0.782609 0
M  V30 5198 C 489.057 5.03502 -1.38865 0
M  V30 5199 H 490.751 2.79985 -1.06061 0
M  V30 5200 H 488.297 1.34611 -0.511461 0
M  V30 5201 H 490.25 4.09232 1.00533 0
M  V30 5202 H 488.974 2.92956 1.44376 0
M  V30 5203 H 487.633 3.62085 -0.573592 0
M  V30 5204 H 487.281 4.7604 1.62466 0
M  V30 5205 H 486.981 5.87008 0.263695 0
M  V30 5206 H 488.505 5.98922 1.18848 0
M  V30 5207 H 489.919 5.63506 -1.05518 0
M  V30 5208 H 488.316 5.71108 -1.8427 0
M  V30 5209 H 489.386 4.33608 -2.17054 0
M  V30 5210 N 490.729 0.570148 1.46925 0
M  V30 5211 C 492.14 0.1402 1.86173 0
M  V30 5212 C 492.491 -1.29347 1.47526 0
M  V30 5213 O 491.616 -1.97508 0.884292 0
M  V30 5214 C 492.211 0.247661 3.37894 0
M  V30 5215 C 490.77 -0.127332 3.76185 0
M  V30 5216 C 489.917 0.589349 2.70965 0
M  V30 5217 H 492.868 0.779117 1.38259 0
M  V30 5218 H 492.889 -0.530341 3.76786 0
M  V30 5219 H 492.401 1.29121 3.65991 0
M  V30 5220 H 490.502 -1.17149 3.53704 0
M  V30 5221 H 490.615 0.240238 4.78497 0
M  V30 5222 H 488.979 0.0309824 2.54681 0
M  V30 5223 H 489.762 1.6343 3.01903 0
M  V30 5224 N 492.207 -1.54576 0.307264 0
M  V30 5225 C 493.455 -1.99867 -0.299574 0
M  V30 5226 C 493.776 -1.19714 -1.53927 0
M  V30 5227 O 493.046 -0.29472 -1.9367 0
M  V30 5228 H 491.626 -0.738299 -0.113683 0
M  V30 5229 H 494.288 -1.9032 0.420042 0
M  V30 5230 H 493.384 -3.06901 -0.567283 0
M  V30 5231 N 493.685 -0.035106 -1.57561 0
M  V30 5232 C 494.648 0.929819 -2.09492 0
M  V30 5233 C 495.648 1.25026 -1.01119 0
M  V30 5234 O 496.838 1.18961 -1.27255 0
M  V30 5235 C 493.97 2.24457 -2.56577 0
M  V30 5236 H 495.163 0.479935 -2.96035 0
M  V30 5237 H 492.716 0.213033 -1.54841 0
M  V30 5238 H 493.451 2.74061 -1.73382 0
M  V30 5239 H 493.236 2.02508 -3.35757 0
M  V30 5240 H 494.726 2.93607 -2.96959 0
M  V30 5241 N 495.163 1.55791 0.238111 0
M  V30 5242 C 496.412 1.77234 0.962868 0
M  V30 5243 C 496.725 0.600661 1.86149 0
M  V30 5244 O 497.931 0.698315 2.62366 0
M  V30 5245 C 496.387 3.13808 1.76218 0
M  V30 5246 C 495.995 4.3865 0.910518 0
M  V30 5247 C 497.739 3.44585 2.47914 0
M  V30 5248 C 495.646 5.66252 1.70623 0
M  V30 5249 H 494.576 0.660731 0.36325 0
M  V30 5250 H 497.227 1.8221 0.217242 0
M  V30 5251 H 495.609 3.02963 2.55009 0
M  V30 5252 H 496.783 4.60507 0.164316 0
M  V30 5253 H 495.098 4.15271 0.30647 0
M  V30 5254 H 497.695 4.3714 3.07917 0
M  V30 5255 H 498.038 2.66314 3.19973 0
M  V30 5256 H 498.571 3.56685 1.76127 0
M  V30 5257 H 495.31 6.47369 1.02923 0
M  V30 5258 H 494.83 5.48483 2.42748 0
M  V30 5259 H 496.509 6.05829 2.27114 0
M  V30 5260 N 496.642 -0.504142 1.49319 0
M  V30 5261 C 497.867 -1.28729 1.62615 0
M  V30 5262 C 498.292 -1.85752 0.296309 0
M  V30 5263 O 497.65 -1.65704 -0.735649 0
M  V30 5264 C 497.698 -2.39561 2.69524 0
M  V30 5265 O 496.802 -3.43324 2.28478 0
M  V30 5266 H 496.143 -0.380172 0.544395 0
M  V30 5267 H 498.673 -0.603872 1.95485 0
M  V30 5268 H 498.683 -2.8537 2.91595 0
M  V30 5269 H 497.358 -1.97423 3.66056 0
M  V30 5270 H 495.935 -3.03455 2.16725 0
M  V30 5271 N 498.12 -1.38341 -0.754957 0
M  V30 5272 C 499.397 -1.24995 -1.50451 0
M  V30 5273 C 499.777 0.149244 -2.10572 0
M  V30 5274 O 499.125 1.15861 -1.96948 0
M  V30 5275 C 499.335 -2.35904 -2.57197 0
M  V30 5276 C 500.683 -2.74262 -3.24138 0
M  V30 5277 O 501.707 -2.35205 -2.67501 0
M  V30 5278 O 500.566 -3.4161 -4.26574 0
M  V30 5279 H 497.66 -0.48872 -0.667144 0
M  V30 5280 H 500.206 -1.50165 -0.790486 0
M  V30 5281 H 498.978 -3.2953 -2.11011 0
M  V30 5282 H 498.601 -2.12291 -3.36182 0
M  V30 5283 N 499.598 0.982988 -1.23187 0
M  V30 5284 C 500.531 2.07302 -0.953993 0
M  V30 5285 C 501.509 1.62249 0.106753 0
M  V30 5286 O 502.693 1.88481 -0.0269525 0
M  V30 5287 C 499.82 3.35873 -0.436716 0
M  V30 5288 C 498.866 3.99862 -1.48367 0
M  V30 5289 S 499.699 4.39443 -3.06023 0
M  V30 5290 C 500.855 5.7117 -2.55959 0
M  V30 5291 H 501.088 2.30554 -1.87702 0
M  V30 5292 H 498.621 1.11883 -1.06403 0
M  V30 5293 H 500.579 4.10244 -0.144872 0
M  V30 5294 H 499.24 3.10634 0.465351 0
M  V30 5295 H 498.433 4.92471 -1.07182 0
M  V30 5296 H 498.035 3.31857 -1.72473 0
M  V30 5297 H 500.327 6.47977 -1.97818 0
M  V30 5298 H 501.27 6.17194 -3.47098 0
M  V30 5299 H 501.678 5.29046 -1.96902 0
M  V30 5300 N 501.076 1.04316 1.18135 0
M  V30 5301 C 502.325 0.74319 1.87509 0
M  V30 5302 C 502.638 -0.732136 1.81381 0
M  V30 5303 O 503.844 -1.14572 2.46141 0
M  V30 5304 C 502.3 1.27913 3.36402 0
M  V30 5305 C 501.908 2.78326 3.51053 0
M  V30 5306 C 503.652 1.0558 4.11161 0
M  V30 5307 C 501.559 3.25266 4.93919 0
M  V30 5308 H 500.489 0.274313 0.702331 0
M  V30 5309 H 503.14 1.25931 1.33467 0
M  V30 5310 H 501.522 0.690853 3.89927 0
M  V30 5311 H 502.696 3.42933 3.07788 0
M  V30 5312 H 501.011 2.991 2.89704 0
M  V30 5313 H 503.608 1.38161 5.16542 0
M  V30 5314 H 503.951 -0.00684729 4.16299 0
M  V30 5315 H 504.484 1.60882 3.63816 0
M  V30 5316 H 501.223 4.30922 4.9395 0
M  V30 5317 H 500.743 2.65396 5.3789 0
M  V30 5318 H 502.422 3.19433 5.62647 0
M  V30 5319 N 502.554 -1.34406 0.822964 0
M  V30 5320 C 503.784 -2.02214 0.423424 0
M  V30 5321 C 504.192 -1.62124 -0.975322 0
M  V30 5322 O 503.535 -0.822452 -1.6426 0
M  V30 5323 C 503.597 -3.56721 0.446107 0
M  V30 5324 C 503.261 -4.20136 1.79819 0
M  V30 5325 C 504.258 -4.4065 2.75904 0
M  V30 5326 C 501.943 -4.56906 2.08669 0
M  V30 5327 C 503.937 -4.9706 3.99012 0
M  V30 5328 C 501.624 -5.13026 3.32036 0
M  V30 5329 C 502.622 -5.33047 4.27024 0
M  V30 5330 O 502.31 -5.87979 5.48211 0
M  V30 5331 H 502.042 -0.654748 0.168169 0
M  V30 5332 H 504.596 -1.72659 1.11257 0
M  V30 5333 H 502.826 -3.85537 -0.299734 0
M  V30 5334 H 504.515 -4.05845 0.0666114 0
M  V30 5335 H 505.281 -4.12607 2.54912 0
M  V30 5336 H 501.16 -4.40626 1.35535 0
M  V30 5337 H 504.704 -5.12603 4.73164 0
M  V30 5338 H 500.601 -5.40498 3.52891 0
M  V30 5339 H 501.369 -6.06413 5.49732 0
M  V30 5340 N 504.032 -0.577932 -1.46621 0
M  V30 5341 C 505.281 -0.0594281 -2.01612 0
M  V30 5342 C 505.594 1.30663 -1.45556 0
M  V30 5343 O 506.8 1.91621 -1.92337 0
M  V30 5344 C 505.256 -0.0556666 -3.59857 0
M  V30 5345 C 504.864 -1.41975 -4.24908 0
M  V30 5346 C 506.608 0.409143 -4.22524 0
M  V30 5347 C 504.515 -1.37397 -5.75218 0
M  V30 5348 H 503.445 -0.0184469 -0.753774 0
M  V30 5349 H 506.096 -0.728869 -1.68404 0
M  V30 5350 H 504.478 0.679843 -3.90121 0
M  V30 5351 H 505.652 -2.17461 -4.0626 0
M  V30 5352 H 503.967 -1.82419 -3.74316 0
M  V30 5353 H 506.564 0.46211 -5.32699 0
M  V30 5354 H 506.907 1.42565 -3.91128 0
M  V30 5355 H 507.44 -0.272152 -3.96868 0
M  V30 5356 H 504.179 -2.36714 -6.11267 0
M  V30 5357 H 503.699 -0.661239 -5.96144 0
M  V30 5358 H 505.378 -1.08484 -6.3784 0
M  V30 5359 N 505.51 1.54411 -0.315457 0
M  V30 5360 C 506.926 1.59556 0.037464 0
M  V30 5361 C 507.126 1.33217 1.5118 0
M  V30 5362 O 506.182 1.11264 2.26664 0
M  V30 5363 C 507.495 2.98372 -0.373477 0
M  V30 5364 C 509.043 3.11324 -0.323452 0
M  V30 5365 C 509.518 4.52472 -0.709433 0
M  V30 5366 N 511.009 4.58437 -0.662524 0
M  V30 5367 C 511.744 5.65751 -0.933474 0
M  V30 5368 N 511.24 6.81039 -1.27114 0
M  V30 5369 N 513.033 5.55489 -0.859573 0
M  V30 5370 H 505.184 1.6979 -1.27614 0
M  V30 5371 H 507.447 0.793732 -0.518356 0
M  V30 5372 H 507.153 3.22618 -1.40037 0
M  V30 5373 H 507.027 3.76264 0.265615 0
M  V30 5374 H 509.414 2.86818 0.694223 0
M  V30 5375 H 509.495 2.35555 -0.997367 0
M  V30 5376 H 509.139 4.7771 -1.72498 0
M  V30 5377 H 509.069 5.26598 -0.0132923 0
M  V30 5378 H 511.56 3.75636 -0.413065 0
M  V30 5379 H 511.873 7.58816 -1.46348 0
M  V30 5380 H 510.218 6.82555 -1.30932 0
M  V30 5381 H 513.409 4.64299 -0.595324 0
M  V30 5382 H 513.582 6.39036 -1.0741 0
M  V30 5383 O 507.027 0.182621 1.60464 0
M  V30 5384 H 507.718 -0.405074 1.89417 0
M  V30 END ATOM
M  V30 BEGIN BOND
M  V30 END BOND
M  V30 END CTAB
M  END
$$$$
